Infrared Spectrum: ADIPIC ACID, DI-ISOOCTYL ESTER
Formula: C22 H42 O4
CAS: 105-96-4
State: SOLUTION (10% CCl4 FOR 3800-1340, 10% CS2 FOR 1340-435 CM^-^1)
Class: COBLENTZ III
Instrument: DOW KBr FOREPRISM-GRATING
Instrument parameters: BLAZED AT 3.5, 12.0, 20.0 MICRON AND CHANGED AT 5.0, 7.5, 14.9 MICRON
Sampling: TRANSMISSION
Path length: 0.011 CM, 0.011 CM
Resolution: 2
Origin: DOW CHEMICAL COMPANY
1/CM	TRANSMITTANCE
436	0.8297
445	0.8323
454	0.8364
463	0.8417
472	0.848
481	0.8536
490	0.8607
499	0.8666
508	0.8661
517	0.8686
526	0.8715
535	0.8734
544	0.8733
553	0.8702
562	0.8644
571	0.8578
580	0.8548
589	0.8593
598	0.8636
607	0.8675
616	0.8712
625	0.8649
634	0.8518
643	0.8316
652	0.8155
661	0.8608
670	0.8718
679	0.8599
688	0.8528
697	0.848
706	0.8398
715	0.8289
724	0.8111
733	0.7926
742	0.7868
751	0.7846
760	0.7931
769	0.8004
778	0.8065
787	0.8135
796	0.8288
805	0.8267
814	0.8243
823	0.8185
832	0.8005
841	0.768
850	0.7184
859	0.693
868	0.7115
877	0.73
886	0.7599
895	0.7687
904	0.7553
913	0.7397
922	0.7469
931	0.7499
940	0.7362
949	0.7122
958	0.6754
967	0.6387
976	0.6139
985	0.602
994	0.611
1003	0.6299
1012	0.6318
1021	0.6287
1030	0.6191
1039	0.6025
1048	0.5724
1057	0.5221
1066	0.4704
1075	0.4458
1084	0.5116
1093	0.694
1102	0.7111
1111	0.6526
1120	0.4962
1129	0.2839
1138	0.1677
1147	0.1475
1156	0.1388
1165	0.0638
1174	0.055
1183	0.0729
1192	0.125
1201	0.1967
1210	0.2204
1219	0.2223
1228	0.2171
1237	0.2057
1246	0.2138
1255	0.238
1264	0.3009
1273	0.3742
1282	0.3738
1291	0.4098
1300	0.4735
1309	0.4696
1318	0.514
1327	0.5577
1336	0.5127
1345	0.4605
1354	0.405
1363	0.3306
1372	0.4024
1381	0.3487
1390	0.4018
1399	0.5925
1408	0.6976
1417	0.5569
1426	0.6004
1435	0.5819
1444	0.531
1453	0.3409
1462	0.1874
1471	0.2334
1480	0.4609
1489	0.7125
1498	0.7085
1507	0.6836
1516	0.6504
1525	0.6118
1534	0.5593
1543	0.4525
1552	0.4345
1561	0.5003
1570	0.5636
1579	0.6042
1588	0.626
1597	0.6801
1606	0.7606
1615	0.7985
1624	0.8141
1633	0.8169
1642	0.8162
1651	0.8125
1660	0.8034
1669	0.7855
1678	0.7555
1687	0.7044
1696	0.6595
1705	0.6179
1714	0.4773
1723	0.1843
1732	0.0067
1741	0.0078
1750	0.0234
1759	0.4521
1768	0.6307
1777	0.7098
1786	0.7575
1795	0.7851
1804	0.8039
1813	0.8189
1822	0.8316
1831	0.8382
1840	0.8437
1849	0.8481
1858	0.8516
1867	0.8553
1876	0.8589
1885	0.8625
1894	0.8649
1903	0.8661
1912	0.8662
1921	0.8665
1930	0.8668
1939	0.8668
1948	0.8668
1957	0.8717
1966	0.8638
1975	0.864
1984	0.8648
1993	0.8564
2002	0.8544
2011	0.8557
2020	0.8577
2029	0.8625
2038	0.8616
2047	0.8575
2056	0.8585
2065	0.8628
2074	0.8627
2083	0.8607
2092	0.8605
2101	0.8621
2110	0.8661
2119	0.8675
2128	0.8671
2137	0.8664
2146	0.8664
2155	0.8664
2164	0.8664
2173	0.8664
2182	0.8664
2191	0.8663
2200	0.8662
2209	0.8661
2218	0.8659
2227	0.8644
2236	0.8625
2245	0.8602
2254	0.8578
2263	0.8547
2272	0.8511
2281	0.8477
2290	0.8451
2299	0.845
2308	0.8462
2317	0.8474
2326	0.8491
2335	0.8513
2344	0.853
2353	0.8592
2362	0.9053
2371	0.8616
2380	0.863
2389	0.8647
2398	0.8663
2407	0.8678
2416	0.8688
2425	0.8693
2434	0.8696
2443	0.8696
2452	0.8693
2461	0.8691
2470	0.8689
2479	0.8688
2488	0.8685
2497	0.8682
2506	0.8678
2515	0.8671
2524	0.8667
2533	0.8658
2542	0.8649
2551	0.863
2560	0.8601
2569	0.8561
2578	0.8514
2587	0.8481
2596	0.8485
2605	0.8487
2614	0.8487
2623	0.8483
2632	0.8471
2641	0.8454
2650	0.8435
2659	0.8416
2668	0.8392
2677	0.8367
2686	0.8337
2695	0.8296
2704	0.8244
2713	0.8185
2722	0.8146
2731	0.8186
2740	0.8271
2749	0.828
2758	0.8251
2767	0.8212
2776	0.8138
2785	0.8004
2794	0.7861
2803	0.7678
2812	0.7448
2821	0.7078
2830	0.6551
2839	0.6018
2848	0.3008
2857	0.2141
2866	0.1185
2875	0.0888
2884	0.2085
2893	0.1532
2902	0.0845
2911	0.0501
2920	0.0326
2929	0.0246
2938	0.0279
2947	0.0256
2956	0.0032
2965	0.0063
2974	0.051
2983	0.2511
2992	0.4955
3001	0.6343
3010	0.7471
3019	0.7846
3028	0.8087
3037	0.8242
3046	0.8349
3055	0.8439
3064	0.8504
3073	0.8552
3082	0.859
3091	0.8621
3100	0.8649
3109	0.8664
3118	0.8668
3127	0.867
3136	0.8652
3145	0.8633
3154	0.8614
3163	0.8588
3172	0.8568
3181	0.8566
3190	0.8578
3199	0.8605
3208	0.8623
3217	0.8635
3226	0.8649
3235	0.8661
3244	0.8668
3253	0.8667
3262	0.8659
3271	0.864
3280	0.8621
3289	0.8606
3298	0.8591
3307	0.858
3316	0.8568
3325	0.856
3334	0.8554
3343	0.8548
3352	0.8543
3361	0.8539
3370	0.8535
3379	0.8524
3388	0.8514
3397	0.8493
3406	0.8473
3415	0.8452
3424	0.8425
3433	0.8366
3442	0.8268
3451	0.8261
3460	0.8371
3469	0.8501
3478	0.8585
3487	0.8613
3496	0.8621
3505	0.8628
3514	0.8639
3523	0.865
3532	0.8661
3541	0.8675
3550	0.869
3559	0.87
3568	0.8709
3577	0.8731
3586	0.8778
3595	0.8806
3604	0.8798
3613	0.8784
3622	0.8773
3631	0.8761
3640	0.8775
3649	0.8795
3658	0.8778
3667	0.8738
3676	0.8698
3685	0.8693
3694	0.8721
3703	0.8778
3712	0.879
3721	0.8796
3730	0.8801
3739	0.8805
3748	0.8809
3757	0.8812
3766	0.882
3775	0.8837
3784	0.8854
3793	0.8871
