Infrared Spectrum: 4-Methyl-2-hexanone
Formula: C 7 H 14 O
CAS: 105-42-0
State: gas
Instrument: HP-GC/MS/IRD
Origin: NIST Mass Spectrometry Data Center
1/CM	ABSORBANCE
550	0.0007056
562	0.0004788
574	0.0006363
586	0.0011886
598	0.0012432
610	0.0005838
622	0.0002268
634	0.0001428
646	9.03e-05
658	6.51e-05
670	9.87e-05
682	9.87e-05
694	6.72e-05
706	9.24e-05
718	5.88e-05
730	0.0001218
742	0.0001638
754	0.000315
766	0.0003612
778	0.0004725
790	0.0004473
802	0.0003276
814	0.000252
826	0.0002541
838	0.0002142
850	0.0002709
862	0.0002583
874	0.0002457
886	0.0003108
898	0.0004074
910	0.0005838
922	0.0006468
934	0.0007161
946	0.001134
958	0.0014931
970	0.0014091
982	0.0011907
994	0.0010836
1006	0.0011382
1018	0.0011886
1030	0.0009807
1042	0.00063
1054	0.0004536
1066	0.0004347
1078	0.0005838
1090	0.0008442
1102	0.0012369
1114	0.0016338
1126	0.0021609
1138	0.0031689
1150	0.0051366
1162	0.0066423
1174	0.0061005
1186	0.0042441
1198	0.0028308
1210	0.0023079
1222	0.0026229
1234	0.0027237
1246	0.0024822
1258	0.0026208
1270	0.0025746
1282	0.002415
1294	0.0022785
1306	0.0022638
1318	0.0024822
1330	0.003108
1342	0.0050064
1354	0.0087717
1366	0.0096831
1378	0.0064974
1390	0.0044646
1402	0.0032004
1414	0.0029463
1426	0.0029337
1438	0.0028791
1450	0.0033621
1462	0.0039627
1474	0.0032193
1486	0.0018585
1498	0.0010836
1510	0.0008505
1522	0.0007518
1534	0.0007308
1546	0.0007077
1558	0.000672
1570	0.0006069
1582	0.0005586
1594	0.0005145
1606	0.0004536
1618	0.0004893
1630	0.0005187
1642	0.0005859
1654	0.0007707
1666	0.0011046
1678	0.001827
1690	0.0031521
1702	0.0060375
1714	0.012348
1726	0.0184464
1738	0.0153867
1750	0.0073479
1762	0.0030492
1774	0.0016149
1786	0.0009366
1798	0.0006216
1810	0.0004158
1822	0.000315
1834	0.0002415
1846	0.0002121
1858	0.0001638
1870	0.0001365
1882	0.0001197
1894	0.0001008
1906	0.0001008
1918	8.82e-05
1930	7.98e-05
1942	7.77e-05
1954	7.35e-05
1966	7.14e-05
1978	7.77e-05
1990	5.67e-05
2002	4.62e-05
2014	3.36e-05
2026	3.78e-05
2038	3.57e-05
2050	3.99e-05
2062	5.67e-05
2074	4.62e-05
2086	7.56e-05
2098	5.04e-05
2110	7.56e-05
2122	8.61e-05
2134	8.82e-05
2146	9.87e-05
2158	7.98e-05
2170	7.77e-05
2182	7.14e-05
2194	3.36e-05
2206	2.52e-05
2218	5.25e-05
2230	3.99e-05
2242	0
2254	3.36e-05
2266	2.52e-05
2278	3.15e-05
2290	4.83e-05
2302	4.2e-05
2314	5.88e-05
2326	6.51e-05
2338	7.14e-05
2350	5.46e-05
2362	6.72e-05
2374	5.88e-05
2386	5.04e-05
2398	5.25e-05
2410	6.3e-05
2422	4.2e-05
2434	3.99e-05
2446	5.67e-05
2458	6.51e-05
2470	5.67e-05
2482	6.93e-05
2494	5.88e-05
2506	5.88e-05
2518	7.35e-05
2530	7.14e-05
2542	7.14e-05
2554	9.24e-05
2566	0.0001008
2578	0.0001407
2590	0.0001323
2602	0.0001554
2614	0.0001554
2626	0.0001512
2638	0.0001743
2650	0.0001743
2662	0.0001932
2674	0.0001953
2686	0.0002373
2698	0.0002583
2710	0.0003087
2722	0.0003465
2734	0.0004557
2746	0.0004641
2758	0.0004767
2770	0.0004872
2782	0.0005439
2794	0.0007266
2806	0.0009261
2818	0.0011718
2830	0.0015393
2842	0.0021693
2854	0.003507
2866	0.0058065
2878	0.0087675
2890	0.0101913
2902	0.010017
2914	0.0114744
2926	0.014259
2938	0.0150192
2950	0.0150612
2962	0.0192465
2974	0.0199983
2986	0.0111321
2998	0.004662
3010	0.0029337
3022	0.0021252
3034	0.0015918
3046	0.0013377
3058	0.0012495
3070	0.0011424
3082	0.0010017
3094	0.0008505
3106	0.0007476
3118	0.0006006
3130	0.0004935
3142	0.0004179
3154	0.0003759
3166	0.0003402
3178	0.0003129
3190	0.0003024
3202	0.0002331
3214	0.0001932
3226	0.0001449
3238	0.0001449
3250	7.35e-05
3262	8.4e-05
3274	0.0001008
3286	0.000105
3298	9.45e-05
3310	9.66e-05
3322	9.03e-05
3334	6.51e-05
3346	9.66e-05
3358	7.56e-05
3370	0.0001281
3382	0.0001533
3394	0.0001554
3406	0.0001764
3418	0.0002709
3430	0.0003864
3442	0.000399
3454	0.0002961
3466	0.00021
3478	0.0001197
3490	0.0001239
3502	7.98e-05
3514	2.94e-05
3526	2.31e-05
3538	6.51e-05
3550	5.04e-05
3562	2.1e-06
3574	2.1e-05
3586	2.1e-06
3598	3.15e-05
3610	1.47e-05
3622	0
3634	1.05e-05
3646	5.88e-05
3658	5.88e-05
3670	6.72e-05
3682	3.78e-05
3694	5.46e-05
3706	9.03e-05
3718	9.87e-05
3730	7.56e-05
3742	5.04e-05
3754	0.0001071
3766	6.51e-05
3778	5.04e-05
3790	5.67e-05
3802	6.09e-05
3814	7.77e-05
3826	7.98e-05
3838	9.45e-05
