Infrared Spectrum: Dibutyl adipate
Formula: C14 H26 O4
CAS: 105-99-7
State: SOLUTION (10% CCl4 FOR 2.7-7.5, 10% CS2 FOR 7.5-26 MICRON) VS SOLVENT
Class: COBLENTZ III
Instrument: DOW KBr FOREPRISM-GRATING
Instrument parameters: BLAZED AT 3.5, 12.0, 20.0 MICRON AND CHANGED AT 5.0, 7.5, 14.9 MICRON
Sampling: TRANSMISSION
Path length: 0.011 CM, 0.011 CM
Resolution: 2
Origin: DOW CHEMICAL COMPANY
1/CM	TRANSMITTANCE
3778	0.8715
3769	0.8713
3760	0.8712
3751	0.871
3742	0.8715
3733	0.8718
3724	0.8717
3715	0.8714
3706	0.8712
3697	0.8718
3688	0.8724
3679	0.8718
3670	0.8689
3661	0.8643
3652	0.8665
3643	0.8693
3634	0.8709
3625	0.8671
3616	0.8618
3607	0.8615
3598	0.8635
3589	0.8671
3580	0.8694
3571	0.8696
3562	0.8675
3553	0.8609
3544	0.8568
3535	0.8538
3526	0.8515
3517	0.85
3508	0.8502
3499	0.8537
3490	0.8573
3481	0.8605
3472	0.8637
3463	0.8659
3454	0.8588
3445	0.8445
3436	0.8341
3427	0.834
3418	0.8444
3409	0.8539
3400	0.8616
3391	0.8673
3382	0.871
3373	0.8723
3364	0.8725
3355	0.8708
3346	0.8678
3337	0.8651
3328	0.8637
3319	0.8621
3310	0.8599
3301	0.8571
3292	0.8538
3283	0.8527
3274	0.8525
3265	0.8521
3256	0.8518
3247	0.8515
3238	0.8512
3229	0.8509
3220	0.8496
3211	0.8474
3202	0.8445
3193	0.8425
3184	0.8408
3175	0.8395
3166	0.8391
3157	0.8386
3148	0.8382
3139	0.8374
3130	0.8367
3121	0.8359
3112	0.8348
3103	0.8328
3094	0.8309
3085	0.8278
3076	0.8239
3067	0.8178
3058	0.8115
3049	0.8036
3040	0.7924
3031	0.7817
3022	0.7718
3013	0.7595
3004	0.7361
2995	0.6268
2986	0.4551
2977	0.2514
2968	0.0499
2959	0.0247
2950	0.0311
2941	0.0815
2932	0.0855
2923	0.0875
2914	0.1509
2905	0.2151
2896	0.2793
2887	0.3434
2878	0.378
2869	0.1546
2860	0.2447
2851	0.4298
2842	0.5332
2833	0.6037
2824	0.6722
2815	0.7082
2806	0.7421
2797	0.7691
2788	0.7878
2779	0.8018
2770	0.8101
2761	0.8174
2752	0.8237
2743	0.825
2734	0.8227
2725	0.8202
2716	0.8206
2707	0.8248
2698	0.828
2689	0.8307
2680	0.8318
2671	0.833
2662	0.8337
2653	0.834
2644	0.8362
2635	0.8394
2626	0.8432
2617	0.8457
2608	0.8482
2599	0.8496
2590	0.8507
2581	0.8508
2572	0.8518
2563	0.8536
2554	0.8554
2545	0.8582
2536	0.861
2527	0.8638
2518	0.8664
2509	0.8684
2500	0.8693
2491	0.8705
2482	0.8724
2473	0.8742
2464	0.8759
2455	0.8768
2446	0.8777
2437	0.8784
2428	0.8786
2419	0.8775
2410	0.8763
2401	0.8741
2392	0.8717
2383	0.8699
2374	0.871
2365	0.8721
2356	0.8735
2347	0.8746
2338	0.8756
2329	0.8748
2320	0.8736
2311	0.8718
2302	0.871
2293	0.8704
2284	0.8712
2275	0.8725
2266	0.874
2257	0.8753
2248	0.8754
2239	0.8756
2230	0.8764
2221	0.8771
2212	0.8778
2203	0.8787
2194	0.8794
2185	0.8814
2176	0.8833
2167	0.8921
2158	0.8843
2149	0.8842
2140	0.8839
2131	0.8833
2122	0.8828
2113	0.882
2104	0.8808
2095	0.8794
2086	0.8782
2077	0.8766
2068	0.8751
2059	0.8735
2050	0.8728
2041	0.8725
2032	0.8723
2023	0.872
2014	0.8711
2005	0.8689
1996	0.8671
1987	0.866
1978	0.8651
1969	0.8644
1960	0.8637
1951	0.8639
1942	0.8643
1933	0.8641
1924	0.8637
1915	0.8625
1906	0.8606
1897	0.8575
1888	0.8575
1879	0.857
1870	0.8566
1861	0.8558
1852	0.8554
1843	0.8524
1834	0.849
1825	0.8438
1816	0.8358
1807	0.8204
1798	0.8036
1789	0.7811
1780	0.746
1771	0.7039
1762	0.6225
1753	0.4151
1744	0.1656
1735	0.0061
1726	0.0014
1717	0.0875
1708	0.1883
1699	0.3452
1690	0.4988
1681	0.6216
1672	0.6925
1663	0.7428
1654	0.7735
1645	0.7924
1636	0.8081
1627	0.8181
1618	0.8254
1609	0.831
1600	0.8352
1591	0.8386
1582	0.8413
1573	0.8434
1564	0.8447
1555	0.8467
1546	0.8481
1537	0.8486
1528	0.8444
1519	0.8366
1510	0.8262
1501	0.8111
1492	0.7884
1483	0.7354
1474	0.4574
1465	0.2313
1456	0.264
1447	0.4265
1438	0.5135
1429	0.5026
1420	0.3827
1411	0.523
1402	0.5794
1393	0.3449
1384	0.3816
1375	0.4188
1366	0.3706
1357	0.305
1348	0.3349
1339	0.403
1330	0.4485
1321	0.4529
1312	0.3734
1303	0.3454
1294	0.358
1285	0.2916
1276	0.28
1267	0.2219
1258	0.1802
1249	0.1526
1240	0.1342
1231	0.1414
1222	0.1553
1213	0.1589
1204	0.1526
1195	0.12
1186	0.0812
1177	0.0515
1168	0.0438
1159	0.0707
1150	0.1142
1141	0.1051
1132	0.1191
1123	0.2401
1114	0.4267
1105	0.5747
1096	0.6051
1087	0.5056
1078	0.3724
1069	0.3114
1060	0.3105
1051	0.4718
1042	0.5727
1033	0.5757
1024	0.5087
1015	0.4901
1006	0.5714
997	0.5998
988	0.623
979	0.6335
970	0.5855
961	0.546
952	0.5709
943	0.5519
934	0.5841
925	0.634
916	0.6612
907	0.6907
898	0.7154
889	0.7294
880	0.7368
871	0.7388
862	0.7465
853	0.7692
844	0.7622
835	0.7065
826	0.7312
817	0.7521
808	0.7655
799	0.7637
790	0.7625
781	0.7615
772	0.7545
763	0.7451
754	0.7175
745	0.6894
736	0.6493
727	0.7508
718	0.7781
709	0.7908
700	0.796
691	0.803
682	0.8128
673	0.8178
664	0.8165
655	0.8022
646	0.7882
637	0.7815
628	0.7771
619	0.7714
610	0.7657
601	0.7612
592	0.7571
583	0.7558
574	0.7567
565	0.764
556	0.7737
547	0.7808
538	0.784
529	0.7786
520	0.766
511	0.7468
502	0.74
493	0.7478
484	0.7545
475	0.7582
466	0.7591
457	0.7584
448	0.7565
439	0.7526
430	0.7495
421	0.7488
412	0.7486
403	0.7494
