Infrared Spectrum: 1,4-DIVINYL BENZENE
Formula: C10 H10
CAS: 105-06-6
State: SOLUTION (10% CCl4 FOR 2.5-7.5, 10% CS2 FOR 7.5-16 MICRON)
Class: COBLENTZ
Instrument: Not specified, most likely a prism, grating, or hybrid spectrometer.
Sampling: TRANSMISSION
Path length: 0.01 CM, 0.01 CM
Resolution: 4
Origin: DOW CHEMICAL COMPANY
MICROMETERS	TRANSMITTANCE
2.032	0.892
2.07061	0.888
2.10922	0.888
2.14783	0.883
2.18644	0.878
2.22506	0.881
2.26367	0.873
2.30228	0.881
2.34089	0.886
2.3795	0.886
2.41811	0.875
2.45672	0.891
2.49533	0.899
2.53394	0.902
2.57256	0.902
2.61117	0.905
2.64978	0.902
2.68839	0.899
2.727	0.899
2.76561	0.894
2.80422	0.888
2.84283	0.884
2.88144	0.88
2.92006	0.881
2.95867	0.881
2.99728	0.881
3.03589	0.875
3.0745	0.87
3.11311	0.864
3.15172	0.835
3.19033	0.742
3.22894	0.56
3.26756	0.486
3.30617	0.494
3.34478	0.571
3.38339	0.784
3.422	0.808
3.46061	0.832
3.49922	0.835
3.53783	0.836
3.57644	0.841
3.61505	0.849
3.65367	0.851
3.69228	0.864
3.73089	0.867
3.7695	0.864
3.80811	0.865
3.84672	0.872
3.88533	0.876
3.92394	0.878
3.96255	0.876
4.00117	0.878
4.03978	0.875
4.07839	0.87
4.117	0.872
4.15561	0.873
4.19422	0.87
4.23283	0.868
4.27144	0.867
4.31005	0.865
4.34867	0.876
4.38728	0.888
4.42589	0.897
4.4645	0.902
4.50311	0.905
4.54172	0.905
4.58033	0.908
4.61894	0.91
4.65755	0.913
4.69617	0.92
4.73478	0.916
4.77339	0.921
4.812	0.921
4.85061	0.92
4.88922	0.921
4.92783	0.918
4.96644	0.921
5.00505	0.916
5.04367	0.892
5.08228	0.899
5.12089	0.913
5.1595	0.92
5.19811	0.859
5.23672	0.817
5.27533	0.899
5.31394	0.907
5.35255	0.9
5.39117	0.875
5.42978	0.787
5.46839	0.635
5.507	0.688
5.54561	0.841
5.58422	0.848
5.62283	0.892
5.66144	0.888
5.70005	0.876
5.73867	0.886
5.77728	0.896
5.81589	0.888
5.8545	0.881
5.89311	0.868
5.93172	0.827
5.97033	0.809
6.00894	0.828
6.04755	0.804
6.08617	0.6
6.12478	0.299
6.16339	0.672
6.202	0.696
6.24061	0.66
6.27922	0.616
6.31783	0.579
6.35644	0.534
6.39505	0.484
6.43366	0.448
6.47228	0.523
6.51089	0.59
6.5495	0.561
6.58811	0.451
6.62672	0.48
6.66533	0.785
6.70394	0.846
6.74255	0.859
6.78116	0.864
6.81978	0.859
6.85839	0.857
6.897	0.816
6.93561	0.764
6.97422	0.737
7.01283	0.748
7.05144	0.707
7.09005	0.502
7.12866	0.464
7.16728	0.819
7.20589	0.864
7.2445	0.878
7.28311	0.883
7.32172	0.88
7.36033	0.868
7.39894	0.883
7.43755	0.894
7.47616	0.886
7.51478	0.857
7.55339	0.848
7.592	0.787
7.63061	0.78
7.66922	0.74
7.70783	0.683
7.74644	0.712
7.78505	0.78
7.82366	0.812
7.86228	0.84
7.90089	0.878
7.9395	0.891
7.97811	0.899
8.01672	0.899
8.05533	0.9
8.09394	0.897
8.13255	0.889
8.17116	0.848
8.20978	0.764
8.24839	0.769
8.287	0.854
8.32561	0.872
8.36422	0.875
8.40283	0.865
8.44144	0.86
8.48005	0.868
8.51866	0.876
8.55728	0.886
8.59589	0.891
8.6345	0.891
8.67311	0.892
8.71172	0.888
8.75033	0.88
8.78894	0.875
8.82755	0.864
8.86616	0.803
8.90478	0.68
8.94339	0.654
8.982	0.817
9.02061	0.878
9.05922	0.883
9.09783	0.891
9.13644	0.892
9.17505	0.889
9.21366	0.884
9.25227	0.88
9.29089	0.873
9.3295	0.87
9.36811	0.864
9.40672	0.852
9.44533	0.841
9.48394	0.822
9.52255	0.779
9.56116	0.705
9.59977	0.63
9.63839	0.678
9.677	0.702
9.71561	0.672
9.75422	0.716
9.79283	0.744
9.83144	0.63
9.87005	0.584
9.90866	0.689
9.94727	0.697
9.98589	0.654
10.0245	0.548
10.0631	0.404
10.1017	0.2
10.1403	0.038
10.1789	0.164
10.2176	0.43
10.2562	0.622
10.2948	0.694
10.3334	0.736
10.372	0.758
10.4106	0.764
10.4492	0.769
10.4878	0.774
10.5264	0.772
10.5651	0.769
10.6037	0.769
10.6423	0.763
10.6809	0.758
10.7195	0.748
10.7581	0.728
10.7967	0.696
10.8353	0.638
10.8739	0.547
10.9126	0.436
10.9512	0.265
10.9898	0.08
11.0284	0.011
11.067	0.008
11.1056	0.081
11.1442	0.235
11.1828	0.438
11.2214	0.572
11.2601	0.619
11.2987	0.651
11.3373	0.664
11.3759	0.67
11.4145	0.672
11.4531	0.664
11.4917	0.652
11.5303	0.638
11.5689	0.619
11.6076	0.595
11.6462	0.563
11.6848	0.516
11.7234	0.459
11.762	0.321
11.8006	0.161
11.8392	0.008
11.8778	0.02
11.9164	0.172
11.9551	0.412
11.9937	0.529
12.0323	0.606
12.0709	0.635
12.1095	0.68
12.1481	0.731
12.1867	0.776
12.2253	0.792
12.2639	0.806
12.3026	0.817
12.3412	0.822
12.3798	0.827
12.4184	0.83
12.457	0.83
12.4956	0.827
12.5342	0.824
12.5728	0.828
12.6114	0.835
12.6501	0.844
12.6887	0.849
12.7273	0.846
12.7659	0.841
12.8045	0.844
12.8431	0.851
12.8817	0.856
12.9203	0.857
12.9589	0.856
12.9976	0.849
13.0362	0.843
13.0748	0.835
13.1134	0.832
13.152	0.83
13.1906	0.83
13.2292	0.83
13.2678	0.833
13.3064	0.835
13.3451	0.838
13.3837	0.836
13.4223	0.835
13.4609	0.833
13.4995	0.83
13.5381	0.827
13.5767	0.824
13.6153	0.824
13.6539	0.82
13.6926	0.816
13.7312	0.814
13.7698	0.811
13.8084	0.804
13.847	0.801
13.8856	0.798
13.9242	0.785
13.9628	0.779
14.0014	0.769
14.0401	0.755
14.0787	0.742
14.1173	0.715
14.1559	0.67
14.1945	0.632
14.2331	0.611
14.2717	0.611
14.3103	0.633
14.3489	0.654
14.3876	0.672
14.4262	0.678
14.4648	0.681
14.5034	0.68
14.542	0.675
14.5806	0.668
14.6192	0.66
14.6578	0.651
14.6964	0.643
14.7351	0.635
14.7737	0.62
14.8123	0.609
14.8509	0.595
14.8895	0.574
14.9281	0.55
14.9667	0.539
15.0053	0.529
15.0439	0.523
15.0826	0.521
15.1212	0.521
15.1598	0.52
15.1984	0.518
15.237	0.512
15.2756	0.505
15.3142	0.5
15.3528	0.499
15.3914	0.494
15.4301	0.491
15.4687	0.488
15.5073	0.483
15.5459	0.48
15.5845	0.475
15.6231	0.468
15.6617	0.465
15.7003	0.462
15.7389	0.457
15.7776	0.452
15.8162	0.451
15.8548	0.449
15.8934	0.448
15.932	0.454
