Infrared Spectrum: DITHIO BIS(THIONOFORMIC ACID), DIISOPROPYL ESTER
Formula: C8 H14 O2 S4
CAS: 105-65-7
State: SOLID (1.0% IN KBr PELLET)
Class: COBLENTZ
Instrument: Not specified, most likely a prism, grating, or hybrid spectrometer.
Sampling: TRANSMISSION
Path length: 0.0355 CM
Resolution: 4
Origin: ANDERSON PHYSICAL LABORATORY
1/CM	TRANSMITTANCE
662.718	0.787
671.134	0.792
679.551	0.789
687.967	0.784
696.384	0.823
704.8	0.823
713.217	0.822
721.633	0.814
730.05	0.807
738.466	0.801
746.883	0.795
755.299	0.781
763.715	0.763
772.132	0.724
780.548	0.6301
788.965	0.4541
797.381	0.3389
805.798	0.7619
814.214	0.816
822.631	0.801
831.047	0.793
839.464	0.781
847.88	0.762
856.296	0.747
864.713	0.72
873.129	0.6621
881.546	0.571
889.962	0.3911
898.379	0.254
906.795	0.596
915.212	0.671
923.628	0.626
932.044	0.5531
940.461	0.505
948.877	0.515
957.294	0.481
965.71	0.411
974.127	0.304
982.543	0.18
990.96	0.068
999.376	0.04
1007.79	0.041
1016.21	0.053
1024.63	0.095
1033.04	0.1759
1041.46	0.5029
1049.87	0.626
1058.29	0.594
1066.71	0.463
1075.12	0.143
1083.54	0.055
1091.96	0.1069
1100.37	0.2728
1108.79	0.4989
1117.21	0.641
1125.62	0.633
1134.04	0.593
1142.46	0.488
1150.87	0.514
1159.29	0.72
1167.71	0.739
1176.12	0.72
1184.54	0.63
1192.95	0.666
1201.37	0.711
1209.79	0.65
1218.2	0.59
1226.62	0.523
1235.04	0.437
1243.45	0.304
1251.87	0.149
1260.29	0.0491
1268.7	0.026
1277.12	0.04
1285.54	0.1239
1293.95	0.2909
1302.37	0.46
1310.78	0.606
1319.2	0.642
1327.62	0.615
1336.03	0.518
1344.45	0.3071
1352.87	0.263
1361.28	0.3639
1369.7	0.502
1378.12	0.331
1386.53	0.455
1394.95	0.452
1403.37	0.792
1411.78	0.826
1420.2	0.837
1428.62	0.834
1437.03	0.7841
1445.45	0.5871
1453.86	0.551
1462.28	0.615
1470.7	0.608
1479.11	0.838
1487.53	0.88
1495.95	0.931
1504.36	0.943
1512.78	0.947
1521.2	0.946
1529.61	0.944
1538.03	0.944
1546.45	0.941
1554.86	0.923
1563.28	0.92
1571.69	0.91
1580.11	0.893
1588.53	0.884
1596.94	0.892
1605.36	0.896
1613.78	0.896
1622.19	0.893
1630.61	0.893
1639.03	0.893
1647.44	0.892
1655.86	0.892
1664.28	0.881
1672.69	0.875
1681.11	0.871
1689.53	0.871
1697.94	0.878
1706.36	0.895
1714.77	0.908
1723.19	0.911
1731.61	0.916
1740.02	0.917
1748.44	0.917
1756.86	0.916
1765.27	0.91
1773.69	0.908
1782.11	0.905
1790.52	0.905
1798.94	0.904
1807.36	0.904
1815.77	0.901
1824.19	0.896
1832.6	0.896
1841.02	0.896
1849.44	0.896
1857.85	0.896
1866.27	0.892
1874.69	0.89
1883.1	0.89
1891.52	0.89
1899.94	0.889
1908.35	0.884
1916.77	0.883
1925.19	0.88
1933.6	0.874
1942.02	0.869
1950.44	0.86
1958.85	0.85
1967.27	0.85
1975.68	0.863
1984.1	0.869
1992.52	0.865
2000.93	0.8543
2009.35	0.851
2017.77	0.847
2026.18	0.847
2034.6	0.8505
2043.02	0.853
2051.43	0.853
2059.85	0.85
2068.27	0.849
2076.68	0.849
2085.1	0.85
2093.51	0.852
2101.93	0.853
2110.35	0.8525
2118.76	0.8439
2127.18	0.841
2135.6	0.8395
2144.01	0.837
2152.43	0.8342
2160.85	0.831
2169.26	0.832
2177.68	0.834
2186.1	0.835
2194.51	0.835
2202.93	0.8304
2211.35	0.8255
2219.76	0.8139
2228.18	0.8049
2236.59	0.7982
2245.01	0.7909
2253.43	0.786
2261.84	0.784
2270.26	0.7846
2278.68	0.7881
2287.09	0.7914
2295.51	0.793
2303.93	0.793
2312.34	0.793
2320.76	0.793
2329.18	0.793
2337.59	0.7927
2346.01	0.7909
2354.42	0.79
2362.84	0.789
2371.26	0.7884
2379.67	0.787
2388.09	0.7862
2396.51	0.7859
2404.92	0.784
2413.34	0.784
2421.76	0.7814
2430.17	0.7799
2438.59	0.7731
2447.01	0.7699
2455.42	0.766
2463.84	0.7629
2472.26	0.7597
2480.67	0.7513
2489.09	0.7445
2497.5	0.7378
2505.92	0.7327
2514.34	0.732
2522.75	0.733
2531.17	0.735
2539.59	0.735
2548	0.7338
2556.42	0.7303
2564.84	0.7269
2573.25	0.7253
2581.67	0.7234
2590.09	0.7238
2598.5	0.7303
2606.92	0.735
2615.34	0.7338
2623.75	0.7322
2632.17	0.73
2640.58	0.73
2649	0.73
2657.42	0.729
2665.83	0.727
2674.25	0.7266
2682.67	0.7234
2691.08	0.7213
2699.5	0.7209
2707.92	0.7146
2716.33	0.7104
2724.75	0.7083
2733.17	0.7079
2741.58	0.707
2750	0.7058
2758.41	0.7024
2766.83	0.6943
2775.25	0.6795
2783.66	0.6744
2792.08	0.6637
2800.5	0.6566
2808.91	0.6469
2817.33	0.636
2825.75	0.6159
2834.16	0.6025
2842.58	0.5966
2851	0.594
2859.41	0.5912
2867.83	0.5849
2876.25	0.5793
2884.66	0.5652
2893.08	0.5519
2901.49	0.5326
2909.91	0.527
2918.33	0.526
2926.74	0.5187
2935.16	0.5057
2943.58	0.451
2951.99	0.4226
2960.41	0.4032
2968.83	0.4411
2977.24	0.5692
2985.66	0.6415
2994.08	0.6949
3002.49	0.702
3010.91	0.7016
3019.32	0.699
3027.74	0.6953
3036.16	0.693
3044.57	0.6912
3052.99	0.6893
3061.41	0.6861
3069.82	0.684
3078.24	0.6836
3086.66	0.681
3095.07	0.6721
3103.49	0.6585
3111.91	0.6535
3120.32	0.647
3128.74	0.645
3137.16	0.6405
3145.57	0.6356
3153.99	0.6286
3162.4	0.6202
3170.82	0.6178
3179.24	0.615
3187.65	0.615
3196.07	0.615
3204.49	0.6148
3212.9	0.6116
3221.32	0.609
3229.74	0.6061
3238.15	0.5968
3246.57	0.5926
3254.99	0.5829
3263.4	0.581
3271.82	0.579
3280.23	0.578
3288.65	0.578
3297.07	0.5761
3305.48	0.5682
3313.9	0.5576
3322.32	0.5486
3330.73	0.5451
3339.15	0.5388
3347.57	0.5366
3355.98	0.5241
3364.4	0.5171
3372.82	0.5058
3381.23	0.503
3389.65	0.502
3398.07	0.5
3406.48	0.4998
3414.9	0.499
3423.31	0.499
3431.73	0.5
3440.15	0.505
3448.56	0.508
3456.98	0.509
3465.4	0.511
3473.81	0.512
3482.23	0.513
3490.65	0.5165
3499.06	0.523
3507.48	0.5262
3515.9	0.529
3524.31	0.5322
3532.73	0.545
3541.14	0.5485
3549.56	0.5525
3557.98	0.5615
3566.39	0.565
3574.81	0.569
3583.23	0.5715
3591.64	0.5745
3600.06	0.575
3608.48	0.5765
3616.89	0.5785
3625.31	0.5805
3633.73	0.581
3642.14	0.5805
3650.56	0.579
3658.98	0.5782
3667.39	0.578
3675.81	0.578
3684.22	0.578
3692.64	0.578
3701.06	0.578
3709.47	0.578
3717.89	0.578
3726.31	0.576
3734.72	0.5749
3743.14	0.571
3751.56	0.5674
3759.97	0.5634
3768.39	0.562
3776.81	0.5597
3785.22	0.559
3793.64	0.5574
3802.05	0.557
3810.47	0.556
3818.89	0.556
3827.3	0.556
3835.72	0.554
3844.14	0.554
3852.55	0.554
3860.97	0.553
3869.39	0.553
3877.8	0.553
3886.22	0.553
3894.64	0.553
3903.05	0.553
3911.47	0.553
3919.89	0.553
3928.3	0.551
3936.72	0.55
3945.13	0.55
3953.55	0.5474
3961.97	0.545
3970.38	0.5439
