Infrared Spectrum: 3-Methylpentanoic acid
Formula: C 6 H 12 O 2
CAS: 105-43-1
State: gas
Origin: EPA-IR VAPOR PHASE LIBRARY
1/CM	ABSORBANCE
549.8	0.011272
559.445	0.013032
569.09	0.012952
578.734	0.011652
588.379	0.011832
598.024	0.014292
607.669	0.017002
617.313	0.018212
626.958	0.017912
636.603	0.015732
646.248	0.011902
655.893	0.009032
665.537	0.007112
675.182	0.006922
684.827	0.007072
694.472	0.007212
704.116	0.006072
713.761	0.004892
723.406	0.003862
733.051	0.002852
742.695	0.002042
752.34	0.001712
761.985	0.001592
771.63	0.001712
781.275	0.001762
790.919	0.001472
800.564	0.0011095
810.209	0.0009122
819.854	0.0011151
829.498	0.001182
839.143	0.001502
848.788	0.001742
858.433	0.002052
868.078	0.002102
877.722	0.001842
887.367	0.002172
897.012	0.002052
906.657	0.002052
916.301	0.002092
925.946	0.002172
935.591	0.002172
945.236	0.001982
954.88	0.001732
964.525	0.002012
974.17	0.002492
983.815	0.002662
993.46	0.002492
1003.1	0.002882
1012.75	0.003482
1022.39	0.004042
1032.04	0.004812
1041.68	0.006392
1051.33	0.009462
1060.97	0.015972
1070.62	0.025732
1080.26	0.036132
1089.91	0.042592
1099.55	0.040432
1109.2	0.033872
1118.84	0.030192
1128.49	0.030992
1138.13	0.035142
1147.78	0.037762
1157.42	0.034782
1167.07	0.028562
1176.71	0.021322
1186.36	0.014692
1196	0.010372
1205.64	0.008582
1215.29	0.008702
1224.93	0.009052
1234.58	0.008712
1244.22	0.008052
1253.87	0.008132
1263.51	0.008342
1273.16	0.007842
1282.8	0.007702
1292.45	0.007672
1302.09	0.007442
1311.74	0.007232
1321.38	0.007562
1331.03	0.008602
1340.67	0.009772
1350.32	0.010822
1359.96	0.012712
1369.61	0.015872
1379.25	0.018102
1388.9	0.015812
1398.54	0.010092
1408.18	0.006282
1417.83	0.005442
1427.47	0.005782
1437.12	0.006122
1446.76	0.006892
1456.41	0.008542
1466.05	0.009112
1475.7	0.006852
1485.34	0.004072
1494.99	0.002282
1504.63	0.001522
1514.28	0.001132
1523.92	0.0009574
1533.57	0.0008452
1543.21	0.0007863
1552.86	0.000756
1562.5	0.000722
1572.15	0.0007551
1581.79	0.0007948
1591.44	0.0007783
1601.08	0.0007733
1610.73	0.0007863
1620.37	0.0008445
1630.01	0.0008099
1639.66	0.0008166
1649.3	0.0009086
1658.95	0.0010079
1668.59	0.001202
1678.24	0.001602
1687.88	0.002102
1697.53	0.002972
1707.17	0.004282
1716.82	0.006572
1726.46	0.010552
1736.11	0.016912
1745.75	0.027052
1755.4	0.045502
1765.04	0.072652
1774.69	0.090352
1784.33	0.076612
1793.98	0.046362
1803.62	0.024682
1813.27	0.013312
1822.91	0.006982
1832.55	0.003982
1842.2	0.002582
1851.84	0.001822
1861.49	0.001282
1871.13	0.0010919
1880.78	0.0008514
1890.42	0.0007826
1900.07	0.0008187
1909.71	0.0007313
1919.36	0.0007426
1929	0.0007189
1938.65	0.0008068
1948.29	0.0007529
1957.94	0.0006983
1967.58	0.0006148
1977.23	0.0005581
1986.87	0.0005558
1996.52	0.0005463
2006.16	0.0004827
2015.81	0.0004827
2025.45	0.0004788
2035.1	0.0004005
2044.74	0.000401
2054.38	0.0003483
2064.03	0.0003495
2073.67	0.000385
2083.32	0.0003415
2092.96	0.0003212
2102.61	0.0002952
2112.25	0.0003282
2121.9	0.0003035
2131.54	0.0003571
2141.19	0.0003781
2150.83	0.0004426
2160.48	0.000518
2170.12	0.000493
2179.77	0.000536
2189.41	0.0006055
2199.06	0.0005778
2208.7	0.0005838
2218.35	0.0005654
2227.99	0.0005754
2237.64	0.0005685
2247.28	0.0005234
2256.92	0.0004824
2266.57	0.0005551
2276.21	0.0004891
2285.86	0.0004077
2295.5	0.0004184
2305.15	0.0004437
2314.79	0.0004106
2324.44	0.0004285
2334.08	0.0003895
2343.73	0.0004497
2353.37	0.0005048
2363.02	0.0004872
2372.66	0.0004206
2382.31	0.0004792
2391.95	0.0004027
2401.6	0.0005138
2411.24	0.0005268
2420.89	0.000547
2430.53	0.0004875
2440.18	0.0004494
2449.82	0.000431
2459.47	0.0003822
2469.11	0.0004623
2478.75	0.0004094
2488.4	0.0003569
2498.04	0.0003651
2507.69	0.000394
2517.33	0.000303
2526.98	0.0004279
2536.62	0.0004072
2546.27	0.0003894
2555.91	0.0003699
2565.56	0.0003827
2575.2	0.0003926
2584.85	0.000476
2594.49	0.0005253
2604.14	0.0004632
2613.78	0.0006489
2623.43	0.0005153
2633.07	0.0004989
2642.72	0.0006769
2652.36	0.0006196
2662.01	0.0006316
2671.65	0.0006025
2681.29	0.0006933
2690.94	0.00068
2700.58	0.0007525
2710.23	0.0007101
2719.87	0.000876
2729.52	0.000903
2739.16	0.0010346
2748.81	0.0010976
2758.45	0.001132
2768.1	0.0010736
2777.74	0.0010467
2787.39	0.001222
2797.03	0.001512
2806.68	0.001642
2816.32	0.001902
2825.97	0.002452
2835.61	0.003252
2845.26	0.004312
2854.9	0.006532
2864.55	0.010052
2874.19	0.014572
2883.84	0.018252
2893.48	0.018692
2903.12	0.017592
2912.77	0.020392
2922.41	0.026472
2932.06	0.031262
2941.7	0.032102
2951.35	0.032392
2960.99	0.040272
2970.64	0.049802
2980.28	0.041652
2989.93	0.022012
2999.57	0.009342
3009.22	0.005052
3018.86	0.003402
3028.51	0.002582
3038.15	0.002322
3047.8	0.002072
3057.44	0.001872
3067.09	0.001662
3076.73	0.001532
3086.38	0.001482
3096.02	0.001332
3105.67	0.001332
3115.31	0.0010607
3124.95	0.0010571
3134.6	0.0009401
3144.24	0.0009802
3153.89	0.0007653
3163.53	0.0007717
3173.18	0.0007222
3182.82	0.0007282
3192.47	0.000595
3202.11	0.0005216
3211.76	0.0005316
3221.4	0.0004838
3231.05	0.0003641
3240.69	0.0003401
3250.34	0.0002807
3259.98	0.0002456
3269.63	0.0003624
3279.27	0.00015231
3288.92	0.0002309
3298.56	0.000377
3308.21	0.0003163
3317.85	0.000153
3327.49	0.000112
3337.14	0.00015472
3346.78	0.00017577
3356.43	0.00019604
3366.07	0.00018085
3375.72	0.00014013
3385.36	0.000246
3395.01	0.0002986
3404.65	0.00022076
3414.3	0.000371
3423.94	0.0002791
3433.59	0.0002794
3443.23	0.0002732
3452.88	0.0002193
3462.52	0.0003046
3472.17	0.0003823
3481.81	0.0005554
3491.46	0.0004801
3501.1	0.0005767
3510.75	0.0009689
3520.39	0.0011066
3530.04	0.001502
3539.68	0.002022
3549.32	0.003492
3558.97	0.012112
3568.61	0.029352
3578.26	0.028992
3587.9	0.012072
3597.55	0.002672
3607.19	0.001262
3616.84	0.0008821
3626.48	0.000654
3636.13	0.0005299
3645.77	0.0005692
3655.42	0.0003036
3665.06	0.0005754
3674.71	0.0003316
3684.35	0.00019364
3694	0.0002901
3703.64	0.00021714
3713.29	0.000130864
3722.93	0.0002458
3732.58	7e-06
3742.22	0.00019017
3751.86	0.0002698
3761.51	0.0003574
3771.15	0.0001471
3780.8	0.0003254
3790.44	0.0002708
3800.09	0.00019043
3809.73	0.0005039
3819.38	0.0002048
3829.02	0.0004611
3838.67	0.0002725
3848.31	0.0002281
3857.96	0.0003017
3867.6	0.000312
3877.25	0.00017258
3886.89	0.0003077
3896.54	0.0002865
3906.18	0.000238
3915.83	9.23e-05
3925.47	0.0003381
3935.12	0.0002845
3944.76	0.00016812
3954.41	0.00018841
3964.05	0.0003126
3973.69	5.48e-05
3983.34	0.0002914
3992.98	0.0004954
