Infrared Spectrum: Ethyl methylcarbamate
Formula: C 4 H 9 N O 2
CAS: 105-40-8
State: gas
Instrument: HP-GC/MS/IRD
Origin: NIST Mass Spectrometry Data Center
1/CM	ABSORBANCE
550	0.0067048
562	0.004292
574	0.0032712
586	0.0018792
598	0.001392
610	0.0012296
622	0.0010208
634	0.00058
646	0.0003248
658	0.0001392
670	0.0001856
682	0.0002784
694	0.0003944
706	0.0003944
718	4.64e-05
730	0.0001856
742	0.0009744
754	0.0034104
766	0.0073312
778	0.011136
790	0.010672
802	0.0082824
814	0.0058928
826	0.0050112
838	0.0051968
850	0.0057768
862	0.0063336
874	0.00638
886	0.0057536
898	0.0051968
910	0.0064032
922	0.0111592
934	0.0145696
946	0.0116232
958	0.0054288
970	0.0029928
982	0.003132
994	0.005104
1006	0.0107416
1018	0.0241976
1030	0.0358208
1042	0.0311344
1054	0.0167736
1066	0.015892
1078	0.0237568
1090	0.0351944
1102	0.0438016
1114	0.0479544
1126	0.063684
1138	0.0808752
1150	0.0665608
1162	0.0413192
1174	0.0379088
1186	0.04002
1198	0.056492
1210	0.103031
1222	0.176575
1234	0.212118
1246	0.157853
1258	0.0737064
1270	0.0361224
1282	0.0234784
1294	0.0224112
1306	0.0321552
1318	0.049532
1330	0.0488824
1342	0.0284664
1354	0.0137344
1366	0.0179336
1378	0.0229912
1390	0.0226896
1402	0.0202304
1414	0.0205784
1426	0.0246616
1438	0.0302296
1450	0.0349856
1462	0.045936
1474	0.0688808
1486	0.108622
1498	0.142216
1510	0.13275
1522	0.0889952
1534	0.0576056
1546	0.0383032
1558	0.0257288
1570	0.0174696
1582	0.01218
1594	0.009512
1606	0.008352
1618	0.007424
1630	0.0062176
1642	0.005104
1654	0.004524
1666	0.0045704
1678	0.0055912
1690	0.0082592
1702	0.0141288
1714	0.0279792
1726	0.0650528
1738	0.144026
1750	0.227824
1762	0.226455
1774	0.132936
1786	0.0489288
1798	0.0160312
1810	0.007656
1822	0.0051272
1834	0.0037352
1846	0.0026216
1858	0.001856
1870	0.001392
1882	0.00116
1894	0.0010672
1906	0.000812
1918	0.0006032
1930	0.0003712
1942	0.0002784
1954	0.0002088
1966	0.0001392
1978	0.0001392
1990	0.000348
2002	0.0006032
2014	0.0007424
2026	0.0005568
2038	0.0003016
2050	0.000232
2062	0.000232
2074	0.0003016
2086	0.0003712
2098	0.0005104
2110	0.0005568
2122	0.0004408
2134	0.0004176
2146	0.0006264
2158	0.000812
2170	0.0007192
2182	0.000348
2194	0
2206	4.64e-05
2218	0.0005104
2230	0.0014384
2242	0.0027376
2254	0.0041296
2266	0.0049648
2278	0.005684
2290	0.0049416
2302	0.0041992
2314	0.0038048
2326	0.0020416
2338	0.0015776
2350	0.0010904
2362	0.0005104
2374	0.0003248
2386	0.0001856
2398	0.0002088
2410	0.0003712
2422	0.0005104
2434	0.00058
2446	0.0005104
2458	0.0003944
2470	0.0002088
2482	0.0001392
2494	0
2506	0
2518	2.32e-05
2530	4.64e-05
2542	0.000116
2554	0.0001624
2566	0.0001624
2578	0.0002088
2590	0.0002552
2602	0.0003944
2614	0.000464
2626	0.0005104
2638	0.0005336
2650	0.00058
2662	0.000696
2674	0.0008352
2686	0.0009048
2698	0.0009048
2710	0.000928
2722	0.0009976
2734	0.0011136
2746	0.0012064
2758	0.0013688
2770	0.001508
2782	0.001856
2794	0.0024592
2806	0.0038976
2818	0.0069136
2830	0.0085608
2842	0.007656
2854	0.0078648
2866	0.0102776
2878	0.0147088
2890	0.0198128
2902	0.0246616
2914	0.0286984
2926	0.033872
2938	0.0432448
2950	0.0493928
2962	0.0486272
2974	0.049996
2986	0.0485112
2998	0.0405072
3010	0.0261
3022	0.016356
3034	0.0109272
3046	0.0080504
3058	0.0061712
3070	0.0048256
3082	0.0038976
3094	0.003016
3106	0.0023432
3118	0.0018096
3130	0.001508
3142	0.0012992
3154	0.0011832
3166	0.001044
3178	0.0008816
3190	0.0007424
3202	0.0005336
3214	0.0003944
3226	0.000348
3238	0.000348
3250	0.0003248
3262	0.0002552
3274	0.0001856
3286	6.96e-05
3298	0
3310	6.96e-05
3322	0
3334	0
3346	4.64e-05
3358	2.32e-05
3370	6.96e-05
3382	6.96e-05
3394	0.0001624
3406	0.000232
3418	0.0004408
3430	0.0008352
3442	0.0019256
3454	0.0045008
3466	0.0098832
3478	0.0170984
3490	0.020996
3502	0.0179568
3514	0.0106256
3526	0.0045936
3538	0.0020184
3550	0.0009976
3562	0.00058
3574	0.0003944
3586	0.0002088
3598	0.000116
3610	9.28e-05
3622	9.28e-05
3634	0.0001624
3646	0.0002088
3658	0.0001856
3670	0.0002088
3682	0.0002088
3694	0.000232
3706	0.000232
3718	0.0001856
3730	0.0001392
3742	0.0001624
3754	0.000232
3766	0.0001624
3778	0.0002088
3790	0.0001856
3802	0.000232
3814	0.000232
3826	0.0002088
3838	0.0002088
