Infrared Spectrum: Diisobutyl azelate
Formula: C17 H32 O4
CAS: 105-80-6
State: SOLUTION (10% CCl4 FOR 2.7-7.5, 10% CS2 FOR 7.5-26 MICRON) VS SOLVENT
Class: COBLENTZ III
Instrument: DOW KBr FOREPRISM-GRATING
Instrument parameters: BLAZED AT 3.5, 12.0, 20.0 MICRON AND CHANGED AT 5.0, 7.5, 14.9 MICRON
Sampling: TRANSMISSION
Path length: 0.011 CM, 0.011 CM
Resolution: 2
Origin: DOW CHEMICAL COMPANY
1/CM	TRANSMITTANCE
3774	0.8695
3765	0.8705
3756	0.8717
3747	0.8728
3738	0.8737
3729	0.8743
3720	0.8751
3711	0.8759
3702	0.8767
3693	0.8768
3684	0.877
3675	0.8771
3666	0.8773
3657	0.8767
3648	0.8759
3639	0.8752
3630	0.8749
3621	0.875
3612	0.8766
3603	0.8781
3594	0.8796
3585	0.8807
3576	0.8818
3567	0.8828
3558	0.8825
3549	0.881
3540	0.8788
3531	0.8768
3522	0.8755
3513	0.8755
3504	0.8793
3495	0.8828
3486	0.8848
3477	0.8852
3468	0.8849
3459	0.8801
3450	0.8692
3441	0.86
3432	0.8549
3423	0.8599
3414	0.8683
3405	0.8768
3396	0.8805
3387	0.8811
3378	0.8806
3369	0.8794
3360	0.8777
3351	0.8754
3342	0.8725
3333	0.8701
3324	0.8677
3315	0.8652
3306	0.8628
3297	0.8603
3288	0.8583
3279	0.8562
3270	0.8547
3261	0.8532
3252	0.8517
3243	0.85
3234	0.8484
3225	0.8463
3216	0.8436
3207	0.8408
3198	0.8368
3189	0.8328
3180	0.828
3171	0.825
3162	0.823
3153	0.8217
3144	0.8204
3135	0.8192
3126	0.8182
3117	0.8168
3108	0.8146
3099	0.8118
3090	0.809
3081	0.8061
3072	0.803
3063	0.7998
3054	0.7949
3045	0.7893
3036	0.7817
3027	0.7728
3018	0.7556
3009	0.7306
3000	0.6943
2991	0.5527
2982	0.2704
2973	0.0864
2964	0.0384
2955	0.0381
2946	0.0541
2937	0.0514
2928	0.0484
2919	0.0896
2910	0.1502
2901	0.195
2892	0.2477
2883	0.2991
2874	0.1666
2865	0.2548
2856	0.2334
2847	0.386
2838	0.6264
2829	0.6804
2820	0.71
2811	0.7335
2802	0.7524
2793	0.7701
2784	0.7846
2775	0.7972
2766	0.8056
2757	0.8081
2748	0.8087
2739	0.8085
2730	0.8057
2721	0.8008
2712	0.8019
2703	0.8115
2694	0.8168
2685	0.819
2676	0.8187
2667	0.8162
2658	0.8147
2649	0.8153
2640	0.8187
2631	0.8223
2622	0.826
2613	0.8304
2604	0.8348
2595	0.8377
2586	0.8393
2577	0.8395
2568	0.8398
2559	0.8414
2550	0.8446
2541	0.8475
2532	0.8506
2523	0.8535
2514	0.8566
2505	0.8597
2496	0.8628
2487	0.8658
2478	0.869
2469	0.872
2460	0.8743
2451	0.8756
2442	0.8768
2433	0.8771
2424	0.8774
2415	0.8778
2406	0.8786
2397	0.8789
2388	0.8773
2379	0.8754
2370	0.8768
2361	0.8781
2352	0.8791
2343	0.8798
2334	0.8796
2325	0.8791
2316	0.8762
2307	0.8731
2298	0.8725
2289	0.8735
2280	0.8759
2271	0.8785
2262	0.8812
2253	0.8825
2244	0.8839
2235	0.8861
2226	0.8878
2217	0.8889
2208	0.8898
2199	0.8905
2190	0.8913
2181	0.8931
2172	0.8968
2163	0.8891
2154	0.8881
2145	0.8881
2136	0.8878
2127	0.8875
2118	0.8871
2109	0.8866
2100	0.8859
2091	0.8852
2082	0.8845
2073	0.884
2064	0.8836
2055	0.8835
2046	0.8836
2037	0.8838
2028	0.8845
2019	0.8851
2010	0.8854
2001	0.8847
1992	0.8815
1983	0.8798
1974	0.8802
1965	0.8831
1956	0.8841
1947	0.8843
1938	0.8839
1929	0.8828
1920	0.8825
1911	0.8825
1902	0.8831
1893	0.8785
1884	0.878
1875	0.8778
1866	0.8774
1857	0.8766
1848	0.8738
1839	0.868
1830	0.8611
1821	0.8557
1812	0.845
1803	0.8285
1794	0.8092
1785	0.7872
1776	0.7504
1767	0.6761
1758	0.5992
1749	0.2115
1740	0.0194
1731	0.005
1722	0.0054
1713	0.1664
1704	0.2751
1695	0.4756
1686	0.6159
1677	0.7115
1668	0.7555
1659	0.7874
1650	0.8076
1641	0.8209
1632	0.8318
1623	0.8417
1614	0.8507
1605	0.8578
1596	0.8625
1587	0.8647
1578	0.8644
1569	0.8641
1560	0.8665
1551	0.8745
1542	0.8807
1533	0.8728
1524	0.861
1515	0.8463
1506	0.831
1497	0.8107
1488	0.7861
1479	0.601
1470	0.1818
1461	0.3138
1452	0.462
1443	0.5199
1434	0.549
1425	0.5021
1416	0.5292
1407	0.6023
1398	0.3732
1389	0.372
1380	0.2358
1371	0.2467
1362	0.3988
1353	0.3718
1344	0.4105
1335	0.4562
1326	0.4666
1317	0.4232
1308	0.4028
1299	0.3922
1290	0.3474
1281	0.3031
1272	0.3127
1263	0.2858
1254	0.2344
1245	0.1814
1236	0.1771
1227	0.1946
1218	0.2113
1209	0.2032
1200	0.1634
1191	0.1101
1182	0.0822
1173	0.0596
1164	0.0618
1155	0.1122
1146	0.2027
1137	0.2881
1128	0.2979
1119	0.4203
1110	0.524
1101	0.4392
1092	0.3868
1083	0.4491
1074	0.5759
1065	0.6216
1056	0.6399
1047	0.6517
1038	0.6382
1029	0.5379
1020	0.4326
1011	0.3505
1002	0.3526
993	0.3786
984	0.5629
975	0.6941
966	0.6574
957	0.7188
948	0.5914
939	0.6374
930	0.6457
921	0.6436
912	0.6755
903	0.7092
894	0.7588
885	0.7906
876	0.7965
867	0.793
858	0.7974
849	0.8162
840	0.8204
831	0.8022
822	0.7742
813	0.8094
804	0.8231
795	0.8292
786	0.8362
777	0.8347
768	0.8289
759	0.8305
750	0.8318
741	0.8251
732	0.7798
723	0.7651
714	0.8228
705	0.8404
696	0.8553
687	0.8624
678	0.8661
669	0.8657
660	0.8604
651	0.8367
642	0.8356
633	0.8317
624	0.8267
615	0.8205
606	0.8118
597	0.8099
588	0.8078
579	0.8081
570	0.8157
561	0.8237
552	0.8301
543	0.833
534	0.828
525	0.8192
516	0.8181
507	0.8181
498	0.8186
489	0.8192
480	0.8197
471	0.8202
462	0.8208
453	0.8208
444	0.8087
435	0.794
426	0.7926
417	0.7945
408	0.7955
399	0.7988
