Infrared Spectrum: Propyl butanoate
Formula: C 7 H 14 O 2
CAS: 105-66-8
State: gas
Instrument: HP-GC/MS/IRD
Origin: NIST Mass Spectrometry Data Center
1/CM	ABSORBANCE
550	0.0002546
562	3.8e-05
574	0.0001444
586	0.0002432
598	0.0003838
610	0.0003116
622	0.000304
634	0.000304
646	0.0002052
658	0.0001596
670	5.7e-05
682	6.84e-05
694	0.0001558
706	0.000247
718	0.000304
730	0.000437
742	0.000513
754	0.0007068
766	0.0007752
778	0.0007942
790	0.0009766
802	0.0009044
814	0.0005852
826	0.0006232
838	0.0006992
850	0.0009424
862	0.0010982
874	0.00114
886	0.0012768
898	0.0014592
910	0.0016264
922	0.0015352
934	0.0014668
946	0.0019494
958	0.0042066
970	0.0062168
982	0.005548
994	0.0047462
1006	0.0031882
1018	0.002071
1030	0.0030248
1042	0.0046246
1054	0.0063308
1066	0.0075278
1078	0.0088274
1090	0.0111568
1102	0.0111112
1114	0.0084664
1126	0.0065626
1138	0.007391
1150	0.0119928
1162	0.0235068
1174	0.0368752
1186	0.0334628
1198	0.0224732
1210	0.0156712
1222	0.0124032
1234	0.0127414
1246	0.014516
1258	0.01463
1270	0.0117724
1282	0.009576
1294	0.0091276
1306	0.0075012
1318	0.0054606
1330	0.004902
1342	0.0062434
1354	0.0071858
1366	0.006004
1378	0.0050464
1390	0.0048868
1402	0.0036328
1414	0.0026296
1426	0.0030134
1438	0.0036898
1450	0.0045106
1462	0.0054606
1474	0.0044802
1486	0.0026866
1498	0.0015542
1510	0.0009766
1522	0.0006916
1534	0.0005472
1546	0.0004826
1558	0.0004104
1570	0.0003838
1582	0.0004066
1594	0.0003876
1606	0.0003762
1618	0.0003838
1630	0.0004256
1642	0.000475
1654	0.0005282
1666	0.0006916
1678	0.0009348
1690	0.0014174
1702	0.0023978
1714	0.0043434
1726	0.0088882
1738	0.0209988
1750	0.0350474
1762	0.0307648
1774	0.0130682
1786	0.0047462
1798	0.0022534
1810	0.0012502
1822	0.0008246
1834	0.0005738
1846	0.0004484
1858	0.0003914
1870	0.0003344
1882	0.0002926
1894	0.0002508
1906	0.0002356
1918	0.0002546
1930	0.0002622
1942	0.0002508
1954	0.0002242
1966	0.000209
1978	0.00019
1990	0.0001862
2002	0.0001862
2014	0.0002014
2026	0.000209
2038	0.0002166
2050	0.0002128
2062	0.0001824
2074	0.0001862
2086	0.0001672
2098	0.0001406
2110	0.0001102
2122	7.98e-05
2134	4.56e-05
2146	3.04e-05
2158	2.66e-05
2170	3.8e-06
2182	1.9e-05
2194	3.04e-05
2206	7.6e-06
2218	7.6e-06
2230	0
2242	3.42e-05
2254	3.8e-05
2266	6.46e-05
2278	3.8e-05
2290	4.18e-05
2302	4.18e-05
2314	4.18e-05
2326	3.04e-05
2338	2.28e-05
2350	6.46e-05
2362	0
2374	4.18e-05
2386	4.56e-05
2398	4.94e-05
2410	8.36e-05
2422	7.6e-05
2434	3.04e-05
2446	4.18e-05
2458	3.8e-05
2470	4.18e-05
2482	6.46e-05
2494	6.84e-05
2506	6.08e-05
2518	3.42e-05
2530	3.8e-06
2542	4.56e-05
2554	1.14e-05
2566	5.32e-05
2578	4.18e-05
2590	7.22e-05
2602	8.74e-05
2614	7.6e-05
2626	6.46e-05
2638	9.12e-05
2650	8.36e-05
2662	0.0001482
2674	0.0001748
2686	0.0002052
2698	0.00019
2710	0.0001862
2722	0.0002242
2734	0.0003268
2746	0.0004484
2758	0.0004902
2770	0.0004902
2782	0.0005016
2794	0.0006042
2806	0.000722
2818	0.0009234
2830	0.0012008
2842	0.0016682
2854	0.0024966
2866	0.0041458
2878	0.0072238
2890	0.0097432
2902	0.0089908
2914	0.008911
2926	0.0115026
2938	0.0162488
2950	0.019703
2962	0.0223288
2974	0.0264746
2986	0.020862
2998	0.009899
3010	0.004636
3022	0.0026068
3034	0.0017898
3046	0.0013414
3058	0.0010374
3070	0.0008208
3082	0.0007638
3094	0.0006574
3106	0.0005472
3118	0.0005168
3130	0.000399
3142	0.0003382
3154	0.0002888
3166	0.0002964
3178	0.0002394
3190	0.0002166
3202	0.0001672
3214	0.0001178
3226	7.6e-05
3238	0.0001026
3250	7.22e-05
3262	5.7e-05
3274	7.22e-05
3286	6.08e-05
3298	6.46e-05
3310	1.52e-05
3322	6.08e-05
3334	5.7e-05
3346	2.28e-05
3358	9.12e-05
3370	7.98e-05
3382	6.84e-05
3394	0.0001064
3406	7.6e-05
3418	0.0001406
3430	0.0001178
3442	0.0001786
3454	0.0002052
3466	0.0002964
3478	0.000418
3490	0.0005396
3502	0.0004598
3514	0.0003268
3526	0.0002432
3538	0.0001634
3550	0.0001672
3562	0.0001368
3574	0.0001102
3586	0.0001254
3598	0.0001254
3610	0.0001368
3622	0.0001292
3634	9.88e-05
3646	0.000114
3658	0.0001102
3670	0.0001406
3682	0.0001482
3694	0.000133
3706	0.000133
3718	0.000152
3730	0.000133
3742	0.0001482
3754	0.0001368
3766	0.0001444
3778	0.0001672
3790	0.0001786
3802	0.0002166
3814	0.0001938
3826	0.0002394
3838	0.0001748
