Infrared Spectrum: GERANIOL ACETATE
Formula: C12 H20 O2
CAS: 105-87-3
Class: COBLENTZ
Instrument: Not specified, most likely a prism, grating, or hybrid spectrometer.
Sampling: TRANSMISSION
Path length: SMEAR
Resolution: 4
Origin: TENNESSEE EASTMAN COMPANY, RESEARCH LABORATORIES
MICROMETERS	TRANSMITTANCE
2.15	0.969
2.18891	0.965
2.22783	0.952
2.26674	0.939
2.30565	0.933
2.34456	0.931
2.38348	0.933
2.42239	0.934
2.4613	0.936
2.50021	0.936
2.53913	0.939
2.57804	0.944
2.61695	0.951
2.65586	0.954
2.69478	0.956
2.73369	0.951
2.7726	0.944
2.81152	0.918
2.85043	0.904
2.88934	0.902
2.92825	0.912
2.96717	0.93
3.00608	0.934
3.04499	0.938
3.0839	0.938
3.12282	0.938
3.16173	0.938
3.20064	0.931
3.23956	0.904
3.27847	0.798
3.31738	0.652
3.35629	0.354
3.39521	0.331
3.43412	0.401
3.47303	0.461
3.51194	0.72
3.55086	0.84
3.58977	0.886
3.62868	0.899
3.66759	0.894
3.70651	0.902
3.74542	0.917
3.78433	0.921
3.82325	0.925
3.86216	0.928
3.90107	0.93
3.93998	0.93
3.9789	0.933
4.01781	0.933
4.05672	0.931
4.09563	0.931
4.13455	0.931
4.17346	0.931
4.21237	0.936
4.25128	0.962
4.2902	0.965
4.32911	0.962
4.36802	0.944
4.40694	0.939
4.44585	0.936
4.48476	0.936
4.52367	0.933
4.56259	0.933
4.6015	0.931
4.64041	0.931
4.67932	0.93
4.71824	0.928
4.75715	0.928
4.79606	0.928
4.83498	0.926
4.87389	0.926
4.9128	0.926
4.95171	0.926
4.99063	0.928
5.02954	0.926
5.06845	0.925
5.10736	0.923
5.14628	0.923
5.18519	0.923
5.2241	0.921
5.26301	0.913
5.30193	0.905
5.34084	0.904
5.37975	0.899
5.41867	0.897
5.45758	0.891
5.49649	0.869
5.5354	0.852
5.57432	0.819
5.61323	0.773
5.65214	0.616
5.69105	0.304
5.72997	0.061
5.76888	0.214
5.80779	0.474
5.8467	0.64
5.88562	0.705
5.92453	0.746
5.96344	0.7
6.00236	0.681
6.04127	0.767
6.08018	0.788
6.11909	0.822
6.15801	0.837
6.19692	0.847
6.23583	0.855
6.27474	0.858
6.31366	0.863
6.35257	0.863
6.39148	0.863
6.43039	0.861
6.46931	0.866
6.50822	0.865
6.54713	0.861
6.58605	0.848
6.62496	0.819
6.66387	0.801
6.70278	0.759
6.7417	0.707
6.78061	0.598
6.81952	0.528
6.85843	0.398
6.89735	0.385
6.93626	0.456
6.97517	0.546
7.01409	0.629
7.053	0.687
7.09191	0.689
7.13082	0.652
7.16974	0.473
7.20865	0.323
7.24756	0.295
7.28647	0.31
7.32539	0.302
7.3643	0.565
7.40321	0.707
7.44212	0.739
7.48104	0.744
7.51995	0.759
7.55886	0.775
7.59778	0.775
7.63669	0.764
7.6756	0.746
7.71451	0.692
7.75343	0.609
7.79234	0.479
7.83125	0.406
7.87016	0.383
7.90908	0.333
7.94799	0.216
7.9869	0.123
8.02581	0.061
8.06473	0.043
8.10364	0.037
8.14255	0.061
8.18147	0.221
8.22038	0.401
8.25929	0.502
8.2982	0.577
8.33712	0.648
8.37603	0.704
8.41494	0.741
8.45385	0.778
8.49277	0.79
8.53168	0.795
8.57059	0.803
8.60951	0.801
8.64842	0.803
8.68733	0.817
8.72624	0.824
8.76516	0.826
8.80407	0.826
8.84298	0.821
8.88189	0.795
8.92081	0.751
8.95972	0.705
8.99863	0.695
9.03754	0.697
9.07646	0.704
9.11537	0.726
9.15428	0.739
9.1932	0.746
9.23211	0.749
9.27102	0.746
9.30993	0.734
9.34885	0.712
9.38776	0.669
9.42667	0.626
9.46558	0.565
9.5045	0.52
9.54341	0.492
9.58232	0.447
9.62123	0.38
9.66015	0.318
9.69906	0.265
9.73797	0.247
9.77689	0.271
9.8158	0.378
9.85471	0.465
9.89362	0.518
9.93254	0.564
9.97145	0.585
10.0104	0.595
10.0493	0.598
10.0882	0.585
10.1271	0.575
10.166	0.572
10.2049	0.575
10.2438	0.577
10.2828	0.577
10.3217	0.564
10.3606	0.534
10.3995	0.499
10.4384	0.466
10.4773	0.468
10.5162	0.504
10.5551	0.567
10.5941	0.627
10.633	0.687
10.6719	0.721
10.7108	0.734
10.7497	0.743
10.7886	0.744
10.8275	0.746
10.8664	0.746
10.9054	0.746
10.9443	0.746
10.9832	0.747
11.0221	0.751
11.061	0.756
11.0999	0.762
11.1388	0.767
11.1777	0.77
11.2167	0.775
11.2556	0.78
11.2945	0.785
11.3334	0.788
11.3723	0.79
11.4112	0.793
11.4501	0.793
11.489	0.791
11.528	0.791
11.5669	0.791
11.6058	0.791
11.6447	0.79
11.6836	0.78
11.7225	0.77
11.7614	0.762
11.8003	0.747
11.8393	0.741
11.8782	0.736
11.9171	0.728
11.956	0.718
11.9949	0.708
12.0338	0.707
12.0727	0.707
12.1116	0.713
12.1506	0.726
12.1895	0.739
12.2284	0.751
12.2673	0.77
12.3062	0.778
12.3451	0.782
12.384	0.783
12.4229	0.786
12.4619	0.788
12.5008	0.791
12.5397	0.793
12.5786	0.801
12.6175	0.803
12.6564	0.804
12.6953	0.804
12.7342	0.804
12.7732	0.803
12.8121	0.801
12.851	0.801
12.8899	0.803
12.9288	0.816
12.9677	0.827
13.0066	0.835
13.0456	0.839
13.0845	0.84
13.1234	0.842
13.1623	0.842
13.2012	0.84
13.2401	0.837
13.279	0.832
13.3179	0.821
13.3569	0.817
13.3958	0.816
13.4347	0.817
13.4736	0.817
13.5125	0.819
13.5514	0.822
13.5903	0.824
13.6292	0.827
13.6682	0.829
13.7071	0.83
13.746	0.829
13.7849	0.829
13.8238	0.829
13.8627	0.829
13.9016	0.829
13.9405	0.829
13.9795	0.829
14.0184	0.827
14.0573	0.824
14.0962	0.822
14.1351	0.819
14.174	0.816
14.2129	0.813
14.2518	0.808
14.2908	0.801
14.3297	0.796
14.3686	0.793
14.4075	0.788
14.4464	0.785
14.4853	0.785
14.5242	0.783
14.5631	0.78
14.6021	0.778
14.641	0.775
14.6799	0.773
14.7188	0.769
14.7577	0.764
14.7966	0.756
14.8355	0.746
14.8744	0.738
14.9134	0.723
14.9523	0.723
14.9912	0.725
15.0301	0.723
15.069	0.715
15.1079	0.699
15.1468	0.692
15.1857	0.687
15.2247	0.682
15.2636	0.676
15.3025	0.669
15.3414	0.666
15.3803	0.665
15.4192	0.665
15.4581	0.66
15.497	0.658
15.536	0.653
15.5749	0.652
15.6138	0.648
15.6527	0.648
15.6916	0.645
15.7305	0.645
15.7694	0.645
15.8084	0.643
15.8473	0.642
15.8862	0.64
15.9251	0.64
15.964	0.639
16.0029	0.64
