Infrared Spectrum: Ethylene brassylate
Formula: C 15 H 26 O 4
CAS: 105-95-3
State: gas
Origin: EPA-IR VAPOR PHASE LIBRARY
1/CM	ABSORBANCE
501.5	0.0016856
513.074	0.0013956
524.648	0.0009067
536.222	0.000435
547.796	0.0002596
559.37	0.0003991
570.944	0.0007057
582.518	0.0013156
594.092	0.0018356
605.666	0.0019756
617.24	0.0016856
628.814	0.0014756
640.388	0.0013056
651.962	0.0013456
663.536	0.0011756
675.11	0.0011256
686.684	0.0013956
698.258	0.0021756
709.832	0.0032156
721.406	0.0034856
732.98	0.0035956
744.554	0.0032856
756.128	0.0028656
767.702	0.0027656
779.276	0.0030556
790.85	0.0035256
802.423	0.0039156
813.997	0.0042956
825.571	0.0047156
837.145	0.0050756
848.719	0.0053956
860.293	0.0058156
871.867	0.0063756
883.441	0.0063156
895.015	0.0061256
906.589	0.0065756
918.163	0.0084556
929.737	0.0113956
941.311	0.0142156
952.885	0.0150656
964.459	0.0139856
976.033	0.0122356
987.607	0.0108156
999.181	0.0089856
1010.76	0.0079156
1022.33	0.0089856
1033.9	0.0135056
1045.48	0.0222356
1057.05	0.0306556
1068.63	0.0285056
1080.2	0.0256656
1091.77	0.0335856
1103.35	0.0378556
1114.92	0.0414556
1126.49	0.0610256
1138.07	0.0770756
1149.64	0.0848256
1161.22	0.0845156
1172.79	0.0767656
1184.36	0.0669656
1195.94	0.0639156
1207.51	0.0684656
1219.09	0.0709456
1230.66	0.0683456
1242.23	0.0616756
1253.81	0.0521156
1265.38	0.0440956
1276.96	0.0393556
1288.53	0.0322156
1300.1	0.0248256
1311.68	0.0203756
1323.25	0.0186156
1334.83	0.0223556
1346.4	0.0258356
1357.97	0.0207456
1369.55	0.0180456
1381.12	0.0141556
1392.7	0.0104656
1404.27	0.0087856
1415.84	0.0089056
1427.42	0.0145356
1438.99	0.0208556
1450.57	0.0277256
1462.14	0.0267856
1473.71	0.0117956
1485.29	0.0052256
1496.86	0.0033656
1508.44	0.0024656
1520.01	0.0020256
1531.58	0.0017656
1543.16	0.0016056
1554.73	0.0015056
1566.31	0.0014356
1577.88	0.0013756
1589.45	0.0013556
1601.03	0.0013656
1612.6	0.0013956
1624.18	0.0014756
1635.75	0.0015956
1647.32	0.0018056
1658.9	0.0021856
1670.47	0.0028256
1682.05	0.0039556
1693.62	0.0060556
1705.19	0.0105856
1716.77	0.0190556
1728.34	0.0335956
1739.92	0.0692756
1751.49	0.185046
1763.06	0.165226
1774.64	0.0563156
1786.21	0.0262856
1797.79	0.0133156
1809.36	0.0074956
1820.93	0.0047056
1832.51	0.0032756
1844.08	0.0024656
1855.66	0.0020356
1867.23	0.0018256
1878.8	0.0017156
1890.38	0.0016456
1901.95	0.0015856
1913.53	0.0015756
1925.1	0.0015956
1936.67	0.0016156
1948.25	0.0015756
1959.82	0.0015656
1971.4	0.0015156
1982.97	0.0014656
1994.54	0.0013956
2006.12	0.0013456
2017.69	0.0012656
2029.27	0.0012156
2040.84	0.0011456
2052.41	0.0010856
2063.99	0.0010356
2075.56	0.0009853
2087.14	0.0009416
2098.71	0.0008682
2110.28	0.000788
2121.86	0.0006764
2133.43	0.0006312
2145.01	0.0005947
2156.58	0.0005739
2168.15	0.0005494
2179.73	0.0005324
2191.3	0.0005375
2202.88	0.0005208
2214.45	0.0005108
2226.02	0.0005092
2237.6	0.0004931
2249.17	0.0005189
2260.74	0.0005698
2272.32	0.0005513
2283.89	0.0005636
2295.47	0.0005498
2307.04	0.0005318
2318.61	0.0005148
2330.19	0.0005087
2341.76	0.0004561
2353.34	0.0004552
2364.91	0.000398
2376.48	0.0004245
2388.06	0.0004421
2399.63	0.0004243
2411.21	0.0004351
2422.78	0.0004091
2434.35	0.0004401
2445.93	0.0003588
2457.5	0.0003456
2469.08	0.0003406
2480.65	0.0003662
2492.22	0.0004577
2503.8	0.0004419
2515.37	0.0004513
2526.95	0.0004826
2538.52	0.0005389
2550.09	0.0005295
2561.67	0.000568
2573.24	0.0005836
2584.82	0.0006373
2596.39	0.0006531
2607.96	0.0007323
2619.54	0.0008209
2631.11	0.0009537
2642.69	0.0011356
2654.26	0.0012956
2665.83	0.0015256
2677.41	0.0017656
2688.98	0.0019456
2700.56	0.0018356
2712.13	0.0016356
2723.7	0.0016056
2735.28	0.0016656
2746.85	0.0017356
2758.43	0.0018956
2770	0.0021356
2781.57	0.0025056
2793.15	0.0031256
2804.72	0.0038556
2816.3	0.0050956
2827.87	0.0071456
2839.44	0.0105756
2851.02	0.0232756
2862.59	0.0575356
2874.17	0.0505656
2885.74	0.0313756
2897.31	0.0333956
2908.89	0.0560756
2920.46	0.0936956
2932.04	0.153296
2943.61	0.138786
2955.18	0.0881856
2966.76	0.0559956
2978.33	0.0325856
2989.91	0.0199756
3001.48	0.0120056
3013.05	0.0067356
3024.63	0.0040956
3036.2	0.0028356
3047.78	0.0021356
3059.35	0.0016856
3070.92	0.0013756
3082.5	0.0011856
3094.07	0.0009671
3105.65	0.0008412
3117.22	0.0007004
3128.79	0.0006382
3140.37	0.0005252
3151.94	0.0004612
3163.52	0.0004392
3175.09	0.0003823
3186.66	0.0003113
3198.24	0.0003101
3209.81	0.0002797
3221.39	0.0002339
3232.96	0.0002036
3244.53	0.0002069
3256.11	0.00013595
3267.68	0.00011477
3279.26	0.00012214
3290.83	0.00011063
3302.4	0.0001375
3313.98	8.527e-05
3325.55	8.08e-05
3337.13	7.469e-05
3348.7	7.904e-05
3360.27	0.0001005
3371.85	0.000151
3383.42	9.662e-05
3395	0.00010368
3406.57	0.0002233
3418.14	0.00012964
3429.72	0.000208
3441.29	0.0002734
3452.86	0.0003706
3464.44	0.0005525
3476.01	0.0011156
3487.59	0.0018756
3499.16	0.0018956
3510.73	0.0011956
3522.31	0.0007012
3533.88	0.0003922
3545.46	0.0002537
3557.03	0.00012103
3568.6	9.553e-05
3580.18	6.56e-05
3591.75	2.23e-05
3603.33	8.66e-05
3614.9	7.187e-05
3626.47	0.0001512
3638.05	0.0002378
3649.62	0.0001663
3661.2	0.0001999
3672.77	0.00012934
3684.34	0.00012926
3695.92	0.00013116
3707.49	0.0001676
3719.07	0.00013296
3730.64	0.0001865
3742.21	0.00012312
3753.79	0.0001986
3765.36	0.0002209
3776.94	0.0002006
3788.51	0.0002284
3800.08	0.0002336
3811.66	0.0002454
3823.23	0.0002183
3834.81	0.0002332
3846.38	0.0003581
3857.95	0.0002456
3869.53	0.0002769
3881.1	0.0002438
3892.68	0.0002684
3904.25	0.0003063
3915.82	0.0002074
3927.4	0.0002418
3938.97	0.0003721
3950.55	0.0003277
3962.12	0.0004702
3973.69	0.0004797
3985.27	0.0005311
3996.84	0.0005032
