Infrared Spectrum: Cyclohexane-1,4-dimethanol
Formula: C 8 H 16 O 2
CAS: 105-08-8
State: gas
Instrument: HP-GC/MS/IRD
Origin: NIST Mass Spectrometry Data Center
1/CM	ABSORBANCE
550	0.0006187
562	0.0001196
574	0.0002254
586	0.0004623
598	0.0003312
610	0.0001357
622	0.0001288
634	0.000184
646	0.0002921
658	0.0002369
670	0.000138
682	0.0001357
694	0.000138
706	5.06e-05
718	6.21e-05
730	8.28e-05
742	5.52e-05
754	0.0001058
766	0.000138
778	0.0001633
790	7.59e-05
802	0.0001633
814	0.0002208
826	0.0003565
838	0.0003703
850	0.0002714
862	0.0003174
874	0.0004669
886	0.0006739
898	0.0008211
910	0.0009177
922	0.0009499
934	0.001081
946	0.0015203
958	0.0020792
970	0.0026956
982	0.0034086
994	0.0038203
1006	0.0039376
1018	0.0061433
1030	0.0104742
1042	0.0094277
1054	0.0050209
1066	0.0037858
1078	0.0033672
1090	0.0037766
1102	0.0035374
1114	0.0020976
1126	0.0013294
1138	0.0011868
1150	0.0011891
1162	0.001219
1174	0.0013225
1186	0.001426
1198	0.0014697
1210	0.0015226
1222	0.0017066
1234	0.001817
1246	0.0018216
1258	0.0017043
1270	0.0016146
1282	0.0015157
1294	0.0014697
1306	0.0013754
1318	0.0012765
1330	0.0012512
1342	0.0013133
1354	0.0013731
1366	0.0016215
1378	0.0021873
1390	0.0021827
1402	0.0014467
1414	0.0009223
1426	0.0007199
1438	0.0010948
1450	0.0018423
1462	0.0018055
1474	0.0014191
1486	0.0005842
1498	0.0002668
1510	0.0001955
1522	0.0001587
1534	0.0001587
1546	0.0001196
1558	0.0001035
1570	8.74e-05
1582	8.51e-05
1594	3.68e-05
1606	1.84e-05
1618	9.2e-06
1630	3.45e-05
1642	1.38e-05
1654	1.61e-05
1666	3.22e-05
1678	2.99e-05
1690	1.15e-05
1702	2.07e-05
1714	2.53e-05
1726	1.15e-05
1738	2.53e-05
1750	4.6e-05
1762	2.3e-05
1774	1.38e-05
1786	1.38e-05
1798	2.99e-05
1810	4.14e-05
1822	3.45e-05
1834	3.45e-05
1846	2.53e-05
1858	4.37e-05
1870	3.45e-05
1882	5.29e-05
1894	4.37e-05
1906	3.91e-05
1918	3.91e-05
1930	2.99e-05
1942	4.14e-05
1954	5.06e-05
1966	2.99e-05
1978	5.06e-05
1990	7.59e-05
2002	9.2e-05
2014	9.66e-05
2026	0.0001196
2038	9.89e-05
2050	0.0001127
2062	0.000138
2074	0.0001127
2086	0.0001127
2098	6.67e-05
2110	5.52e-05
2122	6.9e-05
2134	5.98e-05
2146	4.6e-05
2158	6.44e-05
2170	5.29e-05
2182	5.29e-05
2194	5.06e-05
2206	5.98e-05
2218	5.75e-05
2230	6.21e-05
2242	5.98e-05
2254	8.74e-05
2266	6.9e-05
2278	8.74e-05
2290	7.36e-05
2302	8.28e-05
2314	9.89e-05
2326	0.0001288
2338	0.0001633
2350	0.0001357
2362	0.0001978
2374	0.0001495
2386	0.0001104
2398	0.0001058
2410	0.0001104
2422	0.0001173
2434	0.0001288
2446	0.0001242
2458	0.0001173
2470	0.0001403
2482	0.0001265
2494	0.0001334
2506	0.0001127
2518	0.000138
2530	0.0001426
2542	0.0001196
2554	0.0001541
2566	0.0001265
2578	0.0001587
2590	0.0001679
2602	0.0002093
2614	0.0002369
2626	0.0002438
2638	0.0002622
2650	0.0003404
2662	0.0003795
2674	0.0004002
2686	0.000437
2698	0.0004577
2710	0.0004807
2722	0.000552
2734	0.0006302
2746	0.0007107
2758	0.0007981
2770	0.0008763
2782	0.0009338
2794	0.0010281
2806	0.0011753
2818	0.0014628
2830	0.0020516
2842	0.0041607
2854	0.0089838
2866	0.0120267
2878	0.0110032
2890	0.009085
2902	0.0109158
2914	0.0169763
2926	0.023
2938	0.0177537
2950	0.0099705
2962	0.004577
2974	0.0017641
2986	0.0008188
2998	0.0005198
3010	0.0003657
3022	0.0002898
3034	0.0002553
3046	0.000207
3058	0.0001794
3070	0.000161
3082	0.0001587
3094	0.0001403
3106	0.0001564
3118	0.000138
3130	0.0001357
3142	0.0001978
3154	0.000161
3166	0.0001426
3178	0.0001035
3190	0.0001035
3202	8.28e-05
3214	4.37e-05
3226	7.82e-05
3238	7.82e-05
3250	9.2e-05
3262	3.91e-05
3274	7.36e-05
3286	9.89e-05
3298	7.36e-05
3310	4.14e-05
3322	5.75e-05
3334	0.0001058
3346	0.0001265
3358	8.28e-05
3370	8.97e-05
3382	0.0001196
3394	0.0001242
3406	0.0001334
3418	0.0001081
3430	0.0001449
3442	0.0001334
3454	0.0001541
3466	0.0001794
3478	0.0001771
3490	0.0002116
3502	0.0001541
3514	0.0001449
3526	0.0001472
3538	0.0001679
3550	0.0001794
3562	0.0001288
3574	0.0001518
3586	0.0001587
3598	0.0002139
3610	0.0002093
3622	0.0002967
3634	0.0004807
3646	0.0008832
3658	0.0019665
3670	0.0030291
3682	0.0020056
3694	0.0007452
3706	0.0003013
3718	0.0002116
3730	0.0001978
3742	0.0001564
3754	0.0001771
3766	0.0001725
3778	0.0001702
3790	0.0002162
3802	0.000184
3814	0.0002116
3826	0.0002116
3838	0.0002231
