Infrared Spectrum: N-METHYL-DIETHANOL AMINE
Formula: C5 H13 N O2
CAS: 105-59-9
State: LIQUID
Class: COBLENTZ
Instrument: Not specified, most likely a prism, grating, or hybrid spectrometer.
Sampling: TRANSMISSION
Path length: CAPILLARY
Resolution: 4
Origin: WYANDOTTE CHEMICALS CORP., WYANDOTTE, MICHIGAN, USA
MICROMETERS	TRANSMITTANCE
2.047	0.991
2.08698	0.996
2.12695	1.001
2.16693	1.001
2.2069	0.985
2.24688	0.981
2.28686	0.978
2.32683	0.975
2.36681	0.981
2.40679	0.97
2.44676	0.961
2.48674	0.958
2.52671	0.963
2.56669	0.975
2.60667	0.966
2.64664	0.968
2.68662	0.945
2.72659	0.843
2.76657	0.722
2.80655	0.475
2.84652	0.282
2.8865	0.173
2.92648	0.116
2.96645	0.083
3.00643	0.071
3.0464	0.078
3.08638	0.099
3.12636	0.136
3.16633	0.189
3.20631	0.247
3.24628	0.306
3.28626	0.376
3.32624	0.414
3.36621	0.194
3.40619	0.176
3.44617	0.188
3.48614	0.169
3.52612	0.181
3.56609	0.188
3.60607	0.226
3.64605	0.377
3.68602	0.465
3.726	0.524
3.76597	0.594
3.80595	0.647
3.84593	0.683
3.8859	0.712
3.92588	0.733
3.96585	0.75
4.00583	0.76
4.04581	0.775
4.08578	0.797
4.12576	0.811
4.16574	0.825
4.20571	0.84
4.24569	0.845
4.28566	0.83
4.32564	0.86
4.36562	0.888
4.40559	0.9
4.44557	0.885
4.48554	0.881
4.52552	0.883
4.5655	0.895
4.60547	0.888
4.64545	0.893
4.68543	0.89
4.7254	0.901
4.76538	0.901
4.80535	0.891
4.84533	0.9
4.88531	0.896
4.92528	0.905
4.96526	0.913
5.00523	0.918
5.04521	0.913
5.08519	0.908
5.12516	0.921
5.16514	0.911
5.20512	0.906
5.24509	0.905
5.28507	0.911
5.32504	0.911
5.36502	0.915
5.405	0.918
5.44497	0.911
5.48495	0.91
5.52492	0.906
5.5649	0.903
5.60488	0.898
5.64485	0.893
5.68483	0.895
5.72481	0.873
5.76478	0.865
5.80476	0.846
5.84473	0.831
5.88471	0.792
5.92469	0.733
5.96466	0.677
6.00464	0.637
6.04461	0.62
6.08459	0.665
6.12457	0.707
6.16454	0.732
6.20452	0.723
6.2445	0.73
6.28447	0.733
6.32445	0.757
6.36442	0.752
6.4044	0.777
6.44438	0.76
6.48435	0.773
6.52433	0.76
6.5643	0.748
6.60428	0.722
6.64426	0.677
6.68423	0.613
6.72421	0.459
6.76419	0.387
6.80416	0.296
6.84414	0.286
6.88411	0.317
6.92409	0.389
6.96407	0.429
7.00404	0.427
7.04402	0.425
7.08399	0.44
7.12397	0.45
7.16395	0.479
7.20392	0.505
7.2439	0.497
7.28388	0.467
7.32385	0.43
7.36383	0.429
7.4038	0.45
7.44378	0.477
7.48376	0.484
7.52373	0.467
7.56371	0.489
7.60368	0.502
7.64366	0.507
7.68364	0.49
7.72361	0.497
7.76359	0.527
7.80356	0.559
7.84354	0.555
7.88352	0.554
7.92349	0.529
7.96347	0.529
8.00345	0.532
8.04342	0.54
8.0834	0.56
8.12337	0.585
8.16335	0.605
8.20333	0.623
8.2433	0.627
8.28328	0.613
8.32325	0.58
8.36323	0.574
8.40321	0.597
8.44318	0.632
8.48316	0.675
8.52314	0.695
8.56311	0.678
8.60309	0.645
8.64306	0.618
8.68304	0.599
8.72302	0.587
8.76299	0.574
8.80297	0.55
8.84294	0.567
8.88292	0.615
8.9229	0.677
8.96287	0.692
9.00285	0.662
9.04283	0.595
9.0828	0.47
9.12278	0.312
9.16275	0.207
9.20273	0.169
9.24271	0.163
9.28268	0.166
9.32266	0.199
9.36263	0.219
9.40261	0.219
9.44259	0.212
9.48256	0.188
9.52254	0.151
9.56252	0.121
9.60249	0.089
9.64247	0.074
9.68244	0.079
9.72242	0.098
9.7624	0.149
9.80237	0.216
9.84235	0.286
9.88232	0.376
9.9223	0.464
9.96228	0.549
10.0023	0.59
10.0422	0.602
10.0822	0.579
10.1222	0.552
10.1622	0.564
10.2021	0.587
10.2421	0.589
10.2821	0.602
10.3221	0.612
10.362	0.615
10.402	0.615
10.442	0.618
10.482	0.615
10.5219	0.603
10.5619	0.594
10.6019	0.597
10.6419	0.608
10.6818	0.635
10.7218	0.658
10.7618	0.67
10.8018	0.675
10.8418	0.677
10.8817	0.663
10.9217	0.658
10.9617	0.643
11.0017	0.617
11.0416	0.582
11.0816	0.53
11.1216	0.5
11.1616	0.49
11.2015	0.499
11.2415	0.477
11.2815	0.437
11.3215	0.4
11.3614	0.384
11.4014	0.392
11.4414	0.417
11.4814	0.45
11.5213	0.484
11.5613	0.517
11.6013	0.555
11.6413	0.574
11.6813	0.595
11.7212	0.615
11.7612	0.63
11.8012	0.64
11.8412	0.648
11.8811	0.655
11.9211	0.663
11.9611	0.665
12.0011	0.667
12.041	0.663
12.081	0.662
12.121	0.655
12.161	0.648
12.2009	0.64
12.2409	0.628
12.2809	0.613
12.3209	0.599
12.3608	0.585
12.4008	0.577
12.4408	0.565
12.4808	0.56
12.5208	0.56
12.5607	0.564
12.6007	0.56
12.6407	0.557
12.6807	0.55
12.7206	0.55
12.7606	0.55
12.8006	0.542
12.8406	0.54
12.8805	0.529
12.9205	0.522
12.9605	0.512
13.0005	0.502
13.0404	0.497
13.0804	0.487
13.1204	0.485
13.1604	0.484
13.2003	0.475
13.2403	0.464
13.2803	0.452
13.3203	0.46
13.3602	0.46
13.4002	0.469
13.4402	0.472
13.4802	0.482
13.5202	0.484
13.5601	0.492
13.6001	0.49
13.6401	0.499
13.6801	0.495
13.72	0.497
13.76	0.5
13.8	0.502
13.84	0.495
13.8799	0.5
13.9199	0.497
13.9599	0.495
13.9999	0.495
14.0398	0.497
14.0798	0.492
14.1198	0.492
14.1598	0.49
14.1997	0.484
14.2397	0.489
14.2797	0.489
14.3197	0.489
14.3597	0.485
14.3996	0.482
14.4396	0.482
14.4796	0.482
14.5196	0.485
14.5595	0.482
14.5995	0.482
14.6395	0.485
14.6795	0.489
14.7194	0.485
14.7594	0.485
14.7994	0.48
14.8394	0.492
14.8793	0.497
14.9193	0.489
14.9593	0.49
14.9993	0.492
15.0392	0.494
15.0792	0.509
15.1192	0.517
15.1592	0.51
15.1992	0.5
15.2391	0.5
15.2791	0.507
15.3191	0.514
15.3591	0.52
15.399	0.52
15.439	0.52
15.479	0.525
15.519	0.53
15.5589	0.537
15.5989	0.534
15.6389	0.535
15.6789	0.545
15.7188	0.549
15.7588	0.554
15.7988	0.564
15.8388	0.565
15.8787	0.564
15.9187	0.564
15.9587	0.57
15.9987	0.572
