Infrared Spectrum: 2-Chloro-N-ethylacetamide
Formula: C 4 H 8 Cl N O
CAS: 105-35-1
State: gas
Origin: EPA-IR VAPOR PHASE LIBRARY
1/CM	ABSORBANCE
549.8	0.005577
559.445	0.004677
569.09	0.004077
578.734	0.003807
588.379	0.004277
598.024	0.005267
607.669	0.005517
617.313	0.005347
626.958	0.004607
636.603	0.004137
646.248	0.003647
655.893	0.003937
665.537	0.004127
675.182	0.004597
684.827	0.004707
694.472	0.004617
704.116	0.004877
713.761	0.004797
723.406	0.005747
733.051	0.009357
742.695	0.017527
752.34	0.024627
761.985	0.025897
771.63	0.021717
781.275	0.017467
790.919	0.012177
800.564	0.006757
810.209	0.004337
819.854	0.002727
829.498	0.002487
839.143	0.002177
848.788	0.002087
858.433	0.001857
868.078	0.001917
877.722	0.001827
887.367	0.002047
897.012	0.002377
906.657	0.003027
916.301	0.003987
925.946	0.004517
935.591	0.004247
945.236	0.003587
954.88	0.003147
964.525	0.003627
974.17	0.003567
983.815	0.004067
993.46	0.003917
1003.1	0.004387
1012.75	0.003847
1022.39	0.003567
1032.04	0.003647
1041.68	0.003917
1051.33	0.004267
1060.97	0.004937
1070.62	0.005217
1080.26	0.004657
1089.91	0.004887
1099.55	0.005567
1109.2	0.007277
1118.84	0.008267
1128.49	0.007887
1138.13	0.007197
1147.78	0.007357
1157.42	0.007757
1167.07	0.007567
1176.71	0.008067
1186.36	0.008717
1196	0.009917
1205.64	0.011887
1215.29	0.014377
1224.93	0.018627
1234.58	0.027377
1244.22	0.042627
1253.87	0.048577
1263.51	0.039077
1273.16	0.021737
1282.8	0.014957
1292.45	0.015817
1302.09	0.018977
1311.74	0.017517
1321.38	0.011987
1331.03	0.007987
1340.67	0.006957
1350.32	0.007797
1359.96	0.008377
1369.61	0.009407
1379.25	0.012847
1388.9	0.014537
1398.54	0.014167
1408.18	0.014307
1417.83	0.018127
1427.47	0.019387
1437.12	0.017427
1446.76	0.018707
1456.41	0.021107
1466.05	0.022707
1475.7	0.027147
1485.34	0.038657
1494.99	0.063947
1504.63	0.102967
1514.28	0.134397
1523.92	0.125987
1533.57	0.084077
1543.21	0.047577
1552.86	0.028267
1562.5	0.016787
1572.15	0.010547
1581.79	0.007177
1591.44	0.005577
1601.08	0.004717
1610.73	0.004387
1620.37	0.004347
1630.01	0.004867
1639.66	0.005847
1649.3	0.007557
1658.95	0.010127
1668.59	0.013907
1678.24	0.023577
1687.88	0.053877
1697.53	0.125687
1707.17	0.178397
1716.82	0.183117
1726.46	0.098157
1736.11	0.039657
1745.75	0.018997
1755.4	0.012147
1765.04	0.008257
1774.69	0.005377
1784.33	0.003567
1793.98	0.002597
1803.62	0.002067
1813.27	0.001937
1822.91	0.001797
1832.55	0.001767
1842.2	0.001687
1851.84	0.001517
1861.49	0.001447
1871.13	0.001297
1880.78	0.001157
1890.42	0.0010524
1900.07	0.0009284
1909.71	0.0009002
1919.36	0.0008653
1929	0.0008391
1938.65	0.0007796
1948.29	0.000771
1957.94	0.0006934
1967.58	0.000747
1977.23	0.0007501
1986.87	0.0007494
1996.52	0.0008388
2006.16	0.0008416
2015.81	0.0007319
2025.45	0.0006737
2035.1	0.000552
2044.74	0.0005541
2054.38	0.0004239
2064.03	0.0004075
2073.67	0.0004475
2083.32	0.0004881
2092.96	0.0004737
2102.61	0.0005282
2112.25	0.0005666
2121.9	0.0005255
2131.54	0.000684
2141.19	0.0006614
2150.83	0.0006074
2160.48	0.0006099
2170.12	0.0006304
2179.77	0.0006027
2189.41	0.000578
2199.06	0.0005959
2208.7	0.0005604
2218.35	0.0004348
2227.99	0.00043
2237.64	0.0004115
2247.28	0.0004498
2256.92	0.0004012
2266.57	0.000396
2276.21	0.000478
2285.86	0.0005459
2295.5	0.0005091
2305.15	0.0006592
2314.79	0.0006057
2324.44	0.0006888
2334.08	0.0006764
2343.73	0.0006271
2353.37	0.0005349
2363.02	0.0005141
2372.66	0.0005112
2382.31	0.0005528
2391.95	0.0006057
2401.6	0.0005474
2411.24	0.0006194
2420.89	0.0006343
2430.53	0.0006172
2440.18	0.0006445
2449.82	0.0006425
2459.47	0.0005816
2469.11	0.0004139
2478.75	0.0004202
2488.4	0.0003763
2498.04	0.0004143
2507.69	0.000328
2517.33	0.00020763
2526.98	0.0002679
2536.62	0.00018404
2546.27	0.0002774
2555.91	0.0003249
2565.56	0.0003426
2575.2	0.0003949
2584.85	0.0004858
2594.49	0.0004109
2604.14	0.0006487
2613.78	0.0005818
2623.43	0.0005095
2633.07	0.0005656
2642.72	0.0005163
2652.36	0.0006615
2662.01	0.0006449
2671.65	0.00074
2681.29	0.0006771
2690.94	0.000668
2700.58	0.0007429
2710.23	0.0008868
2719.87	0.0009089
2729.52	0.0009035
2739.16	0.0010317
2748.81	0.001197
2758.45	0.001347
2768.1	0.001247
2777.74	0.001237
2787.39	0.001267
2797.03	0.001467
2806.68	0.001657
2816.32	0.001937
2825.97	0.002187
2835.61	0.002467
2845.26	0.003037
2854.9	0.003717
2864.55	0.005347
2874.19	0.008207
2883.84	0.011437
2893.48	0.012857
2903.12	0.013197
2912.77	0.014007
2922.41	0.016407
2932.06	0.020867
2941.7	0.024797
2951.35	0.025407
2960.99	0.024727
2970.64	0.029957
2980.28	0.035707
2989.93	0.032257
2999.57	0.019597
3009.22	0.011267
3018.86	0.006627
3028.51	0.004337
3038.15	0.002867
3047.8	0.002217
3057.44	0.001687
3067.09	0.001477
3076.73	0.001437
3086.38	0.001367
3096.02	0.001277
3105.67	0.001147
3115.31	0.001064
3124.95	0.001157
3134.6	0.0010399
3144.24	0.0008466
3153.89	0.0007682
3163.53	0.0007565
3173.18	0.0007669
3182.82	0.0006281
3192.47	0.000535
3202.11	0.000537
3211.76	0.0006089
3221.4	0.0004588
3231.05	0.0002886
3240.69	0.0004012
3250.34	0.000433
3259.98	0.000411
3269.63	0.0005125
3279.27	0.0003948
3288.92	0.0004102
3298.56	0.0003751
3308.21	0.0003931
3317.85	0.0006083
3327.49	0.0004208
3337.14	0.0006319
3346.78	0.0005437
3356.43	0.0006714
3366.07	0.0009062
3375.72	0.001147
3385.36	0.001957
3395.01	0.002637
3404.65	0.003397
3414.3	0.004287
3423.94	0.006577
3433.59	0.012587
3443.23	0.023127
3452.88	0.028087
3462.52	0.022637
3472.17	0.009847
3481.81	0.003737
3491.46	0.002367
3501.1	0.001437
3510.75	0.0009358
3520.39	0.00069
3530.04	0.0006041
3539.68	0.0002617
3549.32	0.0003719
3558.97	0.000533
3568.61	0.0002371
3578.26	0.0003135
3587.9	0.000118
3597.55	0.0003116
3607.19	0.0003252
3616.84	0.0002916
3626.48	0.0002255
3636.13	0.0003839
3645.77	0.0003746
3655.42	0.0003023
3665.06	0.0003026
3674.71	0.0003402
3684.35	0.0001141
3694	0.0002852
3703.64	0.00018316
3713.29	0.00025
3722.93	0.0003878
3732.58	0.0003816
3742.22	0.0002778
3751.86	0.0003693
3761.51	0.0002921
3771.15	0.0003702
3780.8	0.00021399
3790.44	0.0003478
3800.09	0.0005105
3809.73	0.0003172
3819.38	5.21e-05
3829.02	0.0003081
3838.67	0.0004584
3848.31	0.0002686
3857.96	0.0003056
3867.6	0.0003735
3877.25	0.00019502
3886.89	0.0003849
3896.54	0.0002308
3906.18	0
3915.83	0.0003733
3925.47	0.0002563
3935.12	0.0004181
3944.76	0.0004889
3954.41	0.0004014
3964.05	0.000345
3973.69	0.00026
3983.34	0.00020077
3992.98	0.0003189
