Infrared Spectrum: 1-Hexyn-3-ol
Formula: C 6 H 10 O
CAS: 105-31-7
State: gas
Instrument: HP-GC/MS/IRD
Origin: NIST Mass Spectrometry Data Center
1/CM	ABSORBANCE
550	0.0017479
562	0.0010263
574	0.0006699
586	0.0003971
598	0.000451
610	0.0014564
622	0.0043516
634	0.0083413
646	0.0080355
658	0.0074503
670	0.0037928
682	0.0012584
694	0.0003443
706	0.0001562
718	0.0001452
730	0.0001892
742	0.0003025
754	0.0002673
766	0.0002431
778	0.0002596
790	0.0003652
802	0.0004169
814	0.0004928
826	0.0005335
838	0.000704
850	0.000781
862	0.0006721
874	0.0006666
886	0.0007722
898	0.0009845
910	0.0011418
922	0.0011385
934	0.0008371
946	0.0007348
958	0.0009702
970	0.0015653
982	0.0026466
994	0.0042691
1006	0.0061402
1018	0.0075075
1030	0.0068068
1042	0.0046772
1054	0.0033429
1066	0.003025
1078	0.0025168
1090	0.002255
1102	0.0025608
1114	0.0027786
1126	0.0022583
1138	0.0015268
1150	0.0010362
1162	0.0008008
1174	0.0008503
1186	0.0009548
1198	0.0011858
1210	0.0015521
1222	0.0018722
1234	0.0023342
1246	0.0035684
1258	0.0039281
1270	0.0033099
1282	0.0024805
1294	0.0022143
1306	0.0022077
1318	0.0025751
1330	0.0030151
1342	0.0031812
1354	0.0033374
1366	0.0034111
1378	0.0031614
1390	0.0024959
1402	0.0016555
1414	0.001111
1426	0.0010098
1438	0.0011495
1450	0.0014432
1462	0.0015752
1474	0.0012529
1486	0.0007645
1498	0.0004004
1510	0.0002376
1522	0.0001573
1534	0.0001276
1546	0.0001111
1558	8.91e-05
1570	0.0001012
1582	7.26e-05
1594	6.05e-05
1606	5.06e-05
1618	4.95e-05
1630	2.97e-05
1642	2.53e-05
1654	3.08e-05
1666	3.52e-05
1678	5.5e-06
1690	2.2e-05
1702	2.2e-05
1714	9.9e-06
1726	1.76e-05
1738	1.54e-05
1750	2.42e-05
1762	2.2e-05
1774	3.63e-05
1786	3.08e-05
1798	2.42e-05
1810	3.52e-05
1822	2.86e-05
1834	2.64e-05
1846	3.52e-05
1858	4.73e-05
1870	5.28e-05
1882	4.29e-05
1894	5.28e-05
1906	6.49e-05
1918	6.38e-05
1930	4.51e-05
1942	6.16e-05
1954	5.17e-05
1966	5.06e-05
1978	6.27e-05
1990	7.26e-05
2002	9.24e-05
2014	0.0001001
2026	0.000121
2038	0.0001155
2050	0.0001045
2062	9.46e-05
2074	9.24e-05
2086	0.0001001
2098	0.0001243
2110	0.0001529
2122	0.0001584
2134	0.0001155
2146	8.91e-05
2158	7.81e-05
2170	0.0001078
2182	9.79e-05
2194	0.0001078
2206	7.7e-05
2218	0.0001111
2230	0.0001111
2242	0.0001144
2254	9.9e-05
2266	0.0001067
2278	0.0001155
2290	0.0001045
2302	0.0001331
2314	0.0001309
2326	0.0001188
2338	0.0001177
2350	0.000132
2362	0.0001386
2374	0.0001771
2386	0.0001551
2398	0.0001397
2410	0.000143
2422	0.0001221
2434	0.0001364
2446	0.0001441
2458	0.0001375
2470	0.0001265
2482	0.0001199
2494	0.00011
2506	0.0001265
2518	0.000121
2530	0.0001331
2542	0.0001375
2554	0.0001364
2566	0.000143
2578	0.0001496
2590	0.0001661
2602	0.0001441
2614	0.0001837
2626	0.0002013
2638	0.0001859
2650	0.0002046
2662	0.0002398
2674	0.000286
2686	0.0002563
2698	0.0002409
2710	0.0002607
2722	0.0002541
2734	0.0002915
2746	0.0003399
2758	0.0003311
2770	0.0003179
2782	0.0003597
2794	0.0004037
2806	0.0004697
2818	0.0005973
2830	0.0007546
2842	0.0011275
2854	0.0018656
2866	0.003124
2878	0.0049995
2890	0.0055275
2902	0.0050094
2914	0.0052987
2926	0.007051
2938	0.0092576
2950	0.0103312
2962	0.0109604
2974	0.0097977
2986	0.005544
2998	0.0021989
3010	0.0011715
3022	0.0008294
3034	0.0006622
3046	0.0005456
3058	0.0005016
3070	0.0003927
3082	0.0003289
3094	0.0002728
3106	0.0002673
3118	0.000242
3130	0.000187
3142	0.0001958
3154	0.0001672
3166	0.0001826
3178	0.0001287
3190	0.0001496
3202	0.0001023
3214	0.0001067
3226	8.91e-05
3238	0.0001309
3250	0.0001859
3262	0.0002805
3274	0.0005621
3286	0.0009878
3298	0.0022715
3310	0.0038379
3322	0.0058278
3334	0.0052547
3346	0.0013409
3358	0.0004719
3370	0.0002761
3382	0.0001771
3394	0.000143
3406	8.58e-05
3418	0.0001111
3430	0.0001276
3442	9.57e-05
3454	0.0001089
3466	0.0001364
3478	0.000154
3490	0.0001518
3502	0.0001606
3514	0.0001705
3526	0.0001331
3538	0.0001122
3550	0.0001353
3562	0.0001298
3574	0.000143
3586	0.0001551
3598	0.0001386
3610	0.0001903
3622	0.0004983
3634	0.0014817
3646	0.0026829
3658	0.0025168
3670	0.0010109
3682	0.0003498
3694	0.0001925
3706	0.0001463
3718	7.37e-05
3730	5.39e-05
3742	7.26e-05
3754	8.58e-05
3766	0.0001353
3778	0.000132
3790	0.0001683
3802	0.000132
3814	0.0001342
3826	9.35e-05
3838	9.57e-05
