Infrared Spectrum: BRILLIANT VIOLET
Formula: C31 H34 Cl N3
CAS: 105070-70-0
State: SOLID (MINERAL OIL MULL)
Class: COBLENTZ
Instrument: Not specified, most likely a prism, grating, or hybrid spectrometer.
Sampling: TRANSMISSION
Resolution: 4
Origin: WYANDOTTE CHEMICALS CORP., WYANDOTTE, MICHIGAN, USA
MICROMETERS	TRANSMITTANCE
2.025	0.2
2.06217	0.201
2.09934	0.197
2.1365	0.212
2.17367	0.2
2.21084	0.208
2.24801	0.211
2.28518	0.211
2.32234	0.22
2.35951	0.22
2.39668	0.222
2.43385	0.223
2.47102	0.222
2.50819	0.214
2.54535	0.231
2.58252	0.239
2.61969	0.243
2.65686	0.253
2.69403	0.257
2.73119	0.25
2.76836	0.24
2.80553	0.228
2.8427	0.218
2.87987	0.214
2.91703	0.2
2.9542	0.184
2.99137	0.178
3.02854	0.189
3.06571	0.195
3.10287	0.201
3.14004	0.211
3.17721	0.206
3.21438	0.211
3.25155	0.201
3.28871	0.19
3.32588	0.125
3.36305	0.032
3.40022	0.023
3.43739	0.026
3.47456	0.038
3.51172	0.043
3.54889	0.169
3.58606	0.231
3.62323	0.25
3.6604	0.254
3.69756	0.253
3.73473	0.267
3.7719	0.271
3.80907	0.268
3.84624	0.277
3.8834	0.29
3.92057	0.304
3.95774	0.309
3.99491	0.319
4.03208	0.33
4.06924	0.34
4.10641	0.344
4.14358	0.349
4.18075	0.358
4.21792	0.36
4.25509	0.349
4.29225	0.354
4.32942	0.361
4.36659	0.385
4.40376	0.406
4.44093	0.406
4.47809	0.409
4.51526	0.422
4.55243	0.42
4.5896	0.43
4.62677	0.434
4.66393	0.433
4.7011	0.444
4.73827	0.45
4.77544	0.447
4.81261	0.465
4.84977	0.473
4.88694	0.489
4.92411	0.496
4.96128	0.51
4.99845	0.515
5.03561	0.529
5.07278	0.52
5.10995	0.523
5.14712	0.543
5.18429	0.546
5.22146	0.545
5.25862	0.566
5.29579	0.593
5.33296	0.61
5.37013	0.611
5.4073	0.642
5.44446	0.652
5.48163	0.667
5.5188	0.695
5.55597	0.7
5.59314	0.725
5.6303	0.74
5.66747	0.784
5.70464	0.804
5.74181	0.83
5.77898	0.878
5.81614	0.894
5.85331	0.888
5.89048	0.922
5.92765	0.854
5.96482	0.871
6.00199	0.821
6.03915	0.804
6.07632	0.711
6.11349	0.667
6.15066	0.389
6.18783	0.18
6.22499	0.097
6.26216	0.082
6.29933	0.1
6.3365	0.124
6.37367	0.167
6.41083	0.194
6.448	0.22
6.48517	0.25
6.52234	0.212
6.55951	0.243
6.59667	0.302
6.63384	0.33
6.67101	0.287
6.70818	0.192
6.74535	0.145
6.78251	0.062
6.81968	0.09
6.85685	0.142
6.89402	0.195
6.93119	0.312
6.96836	0.461
7.00552	0.476
7.04269	0.458
7.07986	0.416
7.11703	0.319
7.1542	0.18
7.19136	0.105
7.22853	0.051
7.2657	0.051
7.30287	0.049
7.34004	0.071
7.3772	0.072
7.41437	0.094
7.45154	0.102
7.48871	0.111
7.52588	0.13
7.56304	0.152
7.60021	0.181
7.63738	0.169
7.67455	0.139
7.71172	0.141
7.74889	0.173
7.78605	0.211
7.82322	0.232
7.86039	0.265
7.89756	0.298
7.93473	0.329
7.97189	0.369
8.00906	0.411
8.04623	0.44
8.0834	0.406
8.12057	0.35
8.15773	0.363
8.1949	0.507
8.23207	0.619
8.26924	0.555
8.30641	0.281
8.34357	0.136
8.38074	0.1
8.41791	0.102
8.45508	0.105
8.49225	0.099
8.52941	0.099
8.56658	0.099
8.60375	0.099
8.64092	0.102
8.67809	0.108
8.71526	0.119
8.75242	0.128
8.78959	0.131
8.82676	0.125
8.86393	0.136
8.9011	0.127
8.93826	0.13
8.97543	0.128
9.0126	0.144
9.04977	0.145
9.08694	0.155
9.1241	0.155
9.16127	0.169
9.19844	0.181
9.23561	0.19
9.27278	0.195
9.30994	0.197
9.34711	0.2
9.38428	0.192
9.42145	0.194
9.45862	0.222
9.49579	0.231
9.53295	0.248
9.57012	0.251
9.60729	0.268
9.64446	0.271
9.68163	0.29
9.71879	0.299
9.75596	0.304
9.79313	0.318
9.8303	0.326
9.86747	0.34
9.90463	0.35
9.9418	0.352
9.97897	0.369
10.0161	0.374
10.0533	0.374
10.0905	0.394
10.1276	0.409
10.1648	0.428
10.202	0.436
10.2391	0.439
10.2763	0.419
10.3135	0.372
10.3507	0.346
10.3878	0.36
10.425	0.38
10.4622	0.42
10.4993	0.453
10.5365	0.453
10.5737	0.352
10.6108	0.203
10.648	0.166
10.6852	0.166
10.7223	0.226
10.7595	0.287
10.7967	0.329
10.8338	0.378
10.871	0.399
10.9082	0.327
10.9453	0.203
10.9825	0.218
11.0197	0.287
11.0568	0.332
11.094	0.364
11.1312	0.395
11.1683	0.423
11.2055	0.44
11.2427	0.453
11.2799	0.472
11.317	0.481
11.3542	0.496
11.3914	0.509
11.4285	0.512
11.4657	0.529
11.5029	0.537
11.54	0.54
11.5772	0.563
11.6144	0.569
11.6515	0.574
11.6887	0.569
11.7259	0.562
11.763	0.492
11.8002	0.336
11.8374	0.263
11.8745	0.274
11.9117	0.301
11.9489	0.295
11.986	0.267
12.0232	0.25
12.0604	0.25
12.0976	0.263
12.1347	0.279
12.1719	0.316
12.2091	0.322
12.2462	0.34
12.2834	0.397
12.3206	0.419
12.3577	0.43
12.3949	0.45
12.4321	0.42
12.4692	0.414
12.5064	0.434
12.5436	0.454
12.5807	0.453
12.6179	0.413
12.6551	0.468
12.6922	0.51
12.7294	0.541
12.7666	0.552
12.8037	0.572
12.8409	0.577
12.8781	0.586
12.9152	0.591
12.9524	0.588
12.9896	0.597
13.0268	0.602
13.0639	0.605
13.1011	0.602
13.1383	0.506
13.1754	0.45
13.2126	0.541
13.2498	0.602
13.2869	0.636
13.3241	0.649
13.3613	0.639
13.3984	0.56
13.4356	0.467
13.4728	0.478
13.5099	0.548
13.5471	0.608
13.5843	0.633
13.6214	0.661
13.6586	0.669
13.6958	0.672
13.7329	0.638
13.7701	0.509
13.8073	0.316
13.8445	0.211
13.8816	0.225
13.9188	0.316
13.956	0.395
13.9931	0.47
14.0303	0.506
14.0675	0.529
14.1046	0.549
14.1418	0.576
14.179	0.58
14.2161	0.596
14.2533	0.602
14.2905	0.613
14.3276	0.61
14.3648	0.61
14.402	0.619
14.4391	0.616
14.4763	0.619
14.5135	0.619
14.5506	0.618
14.5878	0.602
14.625	0.608
14.6621	0.605
14.6993	0.608
14.7365	0.607
14.7737	0.6
14.8108	0.604
14.848	0.599
14.8852	0.594
14.9223	0.58
14.9595	0.563
14.9967	0.523
15.0338	0.464
15.071	0.425
15.1082	0.431
15.1453	0.465
15.1825	0.493
15.2197	0.513
15.2568	0.512
15.294	0.51
15.3312	0.509
15.3683	0.506
15.4055	0.501
15.4427	0.5
15.4798	0.495
15.517	0.493
15.5542	0.464
15.5914	0.461
15.6285	0.448
15.6657	0.423
15.7029	0.413
15.74	0.402
15.7772	0.389
15.8144	0.381
15.8515	0.364
15.8887	0.35
15.9259	0.34
15.963	0.327
16.0002	0.316
