Infrared Spectrum: 3-(3-Methoxyphenyl)propionic acid
Formula: C 10 H 12 O 3
CAS: 10516-71-9
State: gas
Origin: EPA-IR VAPOR PHASE LIBRARY
1/CM	ABSORBANCE
549.8	0.027684
559.445	0.027504
569.09	0.026264
578.734	0.024794
588.379	0.023624
598.024	0.021974
607.669	0.019714
617.313	0.019044
626.958	0.019404
636.603	0.019244
646.248	0.017474
655.893	0.012924
665.537	0.011174
675.182	0.013074
684.827	0.022124
694.472	0.029394
704.116	0.016414
713.761	0.008804
723.406	0.007484
733.051	0.006644
742.695	0.006274
752.34	0.006944
761.985	0.010624
771.63	0.017494
781.275	0.020234
790.919	0.013894
800.564	0.007474
810.209	0.004114
819.854	0.002794
829.498	0.002794
839.143	0.004504
848.788	0.006714
858.433	0.008314
868.078	0.011914
877.722	0.015574
887.367	0.012134
897.012	0.006584
906.657	0.005014
916.301	0.005204
925.946	0.005954
935.591	0.006304
945.236	0.006354
954.88	0.006394
964.525	0.006794
974.17	0.007334
983.815	0.008014
993.46	0.009584
1003.1	0.010744
1012.75	0.012674
1022.39	0.017984
1032.04	0.027234
1041.68	0.040744
1051.33	0.048054
1060.97	0.039694
1070.62	0.027384
1080.26	0.031024
1089.91	0.036354
1099.55	0.046914
1109.2	0.079834
1118.84	0.114884
1128.49	0.095744
1138.13	0.066684
1147.78	0.067644
1157.42	0.070884
1167.07	0.052374
1176.71	0.037744
1186.36	0.032514
1196	0.030474
1205.64	0.026134
1215.29	0.024444
1224.93	0.025084
1234.58	0.031584
1244.22	0.049824
1253.87	0.079744
1263.51	0.091284
1273.16	0.071604
1282.8	0.051334
1292.45	0.041974
1302.09	0.034754
1311.74	0.026814
1321.38	0.022084
1331.03	0.020224
1340.67	0.019404
1350.32	0.017754
1359.96	0.019244
1369.61	0.022954
1379.25	0.025184
1388.9	0.021194
1398.54	0.015054
1408.18	0.013134
1417.83	0.016094
1427.47	0.026104
1437.12	0.036484
1446.76	0.033924
1456.41	0.033124
1466.05	0.032784
1475.7	0.034354
1485.34	0.047864
1494.99	0.043524
1504.63	0.017274
1514.28	0.008284
1523.92	0.006554
1533.57	0.006574
1543.21	0.007154
1552.86	0.008494
1562.5	0.012644
1572.15	0.023684
1581.79	0.043914
1591.44	0.060464
1601.08	0.070564
1610.73	0.052324
1620.37	0.023014
1630.01	0.009704
1639.66	0.005804
1649.3	0.004324
1658.95	0.003684
1668.59	0.003434
1678.24	0.003454
1687.88	0.004034
1697.53	0.005034
1707.17	0.006804
1716.82	0.010074
1726.46	0.015754
1736.11	0.024764
1745.75	0.037684
1755.4	0.056714
1765.04	0.090934
1774.69	0.133564
1784.33	0.121894
1793.98	0.072324
1803.62	0.042724
1813.27	0.025214
1822.91	0.014294
1832.55	0.008614
1842.2	0.006004
1851.84	0.004154
1861.49	0.003204
1871.13	0.002844
1880.78	0.002674
1890.42	0.002544
1900.07	0.002704
1909.71	0.003114
1919.36	0.003184
1929	0.002574
1938.65	0.001724
1948.29	0.001504
1957.94	0.001544
1967.58	0.001644
1977.23	0.001734
1986.87	0.001864
1996.52	0.001774
2006.16	0.001754
2015.81	0.001684
2025.45	0.001764
2035.1	0.001754
2044.74	0.001744
2054.38	0.001644
2064.03	0.001644
2073.67	0.001594
2083.32	0.001664
2092.96	0.001684
2102.61	0.001484
2112.25	0.001454
2121.9	0.001464
2131.54	0.001494
2141.19	0.001514
2150.83	0.001454
2160.48	0.001354
2170.12	0.001304
2179.77	0.001284
2189.41	0.001354
2199.06	0.001494
2208.7	0.001464
2218.35	0.001514
2227.99	0.001334
2237.64	0.001314
2247.28	0.0011582
2256.92	0.0009808
2266.57	0.0008636
2276.21	0.0008562
2285.86	0.0008153
2295.5	0.0009362
2305.15	0.0011491
2314.79	0.001264
2324.44	0.001274
2334.08	0.001254
2343.73	0.0011741
2353.37	0.0010016
2363.02	0.0009854
2372.66	0.0010105
2382.31	0.0010149
2391.95	0.001064
2401.6	0.0010075
2411.24	0.0010695
2420.89	0.0010358
2430.53	0.0011819
2440.18	0.0011473
2449.82	0.0011269
2459.47	0.0011528
2469.11	0.0010139
2478.75	0.0011081
2488.4	0.0010359
2498.04	0.0009344
2507.69	0.0009914
2517.33	0.0009843
2526.98	0.0010636
2536.62	0.001214
2546.27	0.001224
2555.91	0.0010835
2565.56	0.001224
2575.2	0.0010794
2584.85	0.0010918
2594.49	0.0010794
2604.14	0.0009448
2613.78	0.0010708
2623.43	0.0009035
2633.07	0.0009505
2642.72	0.0008965
2652.36	0.0008544
2662.01	0.0007906
2671.65	0.0008178
2681.29	0.000844
2690.94	0.0007994
2700.58	0.000857
2710.23	0.0009361
2719.87	0.0009604
2729.52	0.0009248
2739.16	0.0010275
2748.81	0.0010535
2758.45	0.0011673
2768.1	0.001394
2777.74	0.001504
2787.39	0.001894
2797.03	0.002144
2806.68	0.002594
2816.32	0.003614
2825.97	0.005764
2835.61	0.011334
2845.26	0.016294
2854.9	0.011824
2864.55	0.009194
2874.19	0.009384
2883.84	0.009864
2893.48	0.010974
2903.12	0.012784
2912.77	0.016574
2922.41	0.021314
2932.06	0.026694
2941.7	0.033714
2951.35	0.034614
2960.99	0.028144
2970.64	0.020844
2980.28	0.015694
2989.93	0.015204
2999.57	0.019334
3009.22	0.021094
3018.86	0.013914
3028.51	0.012554
3038.15	0.013484
3047.8	0.013514
3057.44	0.013494
3067.09	0.012614
3076.73	0.012064
3086.38	0.009414
3096.02	0.006094
3105.67	0.004284
3115.31	0.003174
3124.95	0.001944
3134.6	0.001324
3144.24	0.001224
3153.89	0.0010242
3163.53	0.000957
3173.18	0.0007809
3182.82	0.0005812
3192.47	0.0006694
3202.11	0.0006218
3211.76	0.0003949
3221.4	0.0003285
3231.05	0.0006121
3240.69	0.0004
3250.34	0.00026573
3259.98	0.0005463
3269.63	0.0003586
3279.27	0.0004184
3288.92	0.00025135
3298.56	0.0003353
3308.21	0.00027215
3317.85	0.00026151
3327.49	0.0003406
3337.14	0.00018986
3346.78	0.0003657
3356.43	0.00028299
3366.07	0.0001107
3375.72	0.0003727
3385.36	0.0002677
3395.01	0.000343
3404.65	0.0003671
3414.3	0.0002981
3423.94	0.0004473
3433.59	0.0003377
3443.23	0.0004954
3452.88	0.0004719
3462.52	0.0003985
3472.17	0.0005356
3481.81	0.0006368
3491.46	0.0007516
3501.1	0.0011305
3510.75	0.001514
3520.39	0.001784
3530.04	0.002554
3539.68	0.003314
3549.32	0.004904
3558.97	0.011004
3568.61	0.043914
3578.26	0.056634
3587.9	0.013724
3597.55	0.004924
3607.19	0.002664
3616.84	0.001674
3626.48	0.001304
3636.13	0.0011023
3645.77	0.0008388
3655.42	0.0007017
3665.06	0.0004053
3674.71	0.0004876
3684.35	0.0006034
3694	0.0004024
3703.64	0.0004472
3713.29	0.0005105
3722.93	0.0001699
3732.58	0.0004862
3742.22	0.0004026
3751.86	0.0004933
3761.51	0.0004679
3771.15	0.0004844
3780.8	0.00021889
3790.44	0.0003308
3800.09	0.0003679
3809.73	0.00024535
3819.38	0.0003488
3829.02	0.0001556
3838.67	0.00021065
3848.31	0.00026583
3857.96	0.0003312
3867.6	0.0002997
3877.25	0.0004392
3886.89	0.0004906
3896.54	0.00045
3906.18	0.0006465
3915.83	0.0004393
3925.47	0.0003962
3935.12	0.00024007
3944.76	0.00027517
3954.41	0.0005724
3964.05	0.0004568
3973.69	0.0006081
3983.34	0.0005847
3992.98	0.0005439
