Infrared Spectrum: 1,3-DIPHTHALIMIDO-PROPANE
Formula: C19 H14 N2 O4
CAS: 10513-96-9
State: SOLID (1.0% IN KBr PELLET)
Class: COBLENTZ
Instrument: Not specified, most likely a prism, grating, or hybrid spectrometer.
Sampling: TRANSMISSION
Path length: 0.0355 CM
Resolution: 4
Origin: ANDERSON PHYSICAL LABORATORY
1/CM	TRANSMITTANCE
667.603	0.753
676.03	0.746
684.457	0.6871
692.884	0.689
701.311	0.5371
709.738	0.1771
718.165	0.16
726.592	0.256
735.019	0.747
743.446	0.863
751.873	0.863
760.3	0.7791
768.727	0.7559
777.154	0.867
785.581	0.843
794.008	0.68
802.435	0.785
810.862	0.881
819.289	0.872
827.716	0.884
836.143	0.881
844.57	0.87
852.997	0.8311
861.424	0.5582
869.851	0.7488
878.278	0.825
886.705	0.581
895.132	0.578
903.559	0.842
911.986	0.726
920.413	0.794
928.84	0.869
937.267	0.864
945.694	0.852
954.121	0.827
962.547	0.794
970.974	0.771
979.401	0.747
987.828	0.777
996.255	0.684
1004.68	0.569
1013.11	0.4817
1021.54	0.316
1029.96	0.5129
1038.39	0.783
1046.82	0.722
1055.24	0.566
1063.67	0.668
1072.1	0.66
1080.53	0.675
1088.95	0.566
1097.38	0.5901
1105.81	0.657
1114.23	0.7019
1122.66	0.801
1131.09	0.791
1139.51	0.72
1147.94	0.567
1156.37	0.59
1164.8	0.546
1173.22	0.552
1181.65	0.606
1190.08	0.506
1198.5	0.7709
1206.93	0.824
1215.36	0.819
1223.78	0.827
1232.21	0.821
1240.64	0.806
1249.07	0.779
1257.49	0.701
1265.92	0.699
1274.35	0.734
1282.77	0.6261
1291.2	0.645
1299.63	0.597
1308.05	0.641
1316.48	0.597
1324.91	0.49
1333.33	0.325
1341.76	0.238
1350.19	0.2969
1358.62	0.2141
1367.04	0.126
1375.47	0.214
1383.9	0.3309
1392.32	0.189
1400.75	0.105
1409.18	0.249
1417.6	0.403
1426.03	0.5119
1434.46	0.228
1442.89	0.4888
1451.31	0.581
1459.74	0.5911
1468.17	0.397
1476.59	0.747
1485.02	0.899
1493.45	0.899
1501.87	0.891
1510.3	0.867
1518.73	0.851
1527.16	0.843
1535.58	0.834
1544.01	0.83
1552.44	0.815
1560.86	0.828
1569.29	0.812
1577.72	0.774
1586.14	0.726
1594.57	0.678
1603	0.608
1611.43	0.522
1619.85	0.63
1628.28	0.65
1636.71	0.636
1645.13	0.597
1653.56	0.549
1661.99	0.478
1670.41	0.343
1678.84	0.261
1687.27	0.1531
1695.7	0.06
1704.12	0.037
1712.55	0.042
1720.98	0.057
1729.4	0.184
1737.83	0.393
1746.26	0.509
1754.68	0.472
1763.11	0.213
1771.54	0.3428
1779.97	0.4929
1788.39	0.6449
1796.82	0.771
1805.25	0.824
1813.67	0.861
1822.1	0.888
1830.53	0.89
1838.95	0.887
1847.38	0.893
1855.81	0.896
1864.23	0.905
1872.66	0.909
1881.09	0.914
1889.52	0.914
1897.94	0.914
1906.37	0.915
1914.8	0.915
1923.22	0.914
1931.65	0.909
1940.08	0.918
1948.5	0.912
1956.93	0.908
1965.36	0.911
1973.79	0.914
1982.21	0.914
1990.64	0.909
1999.07	0.92
2007.49	0.927
2015.92	0.9305
2024.35	0.9325
2032.77	0.933
2041.2	0.933
2049.63	0.933
2058.06	0.933
2066.48	0.935
2074.91	0.935
2083.34	0.936
2091.76	0.936
2100.19	0.9375
2108.62	0.938
2117.04	0.938
2125.47	0.938
2133.9	0.936
2142.33	0.936
2150.75	0.933
2159.18	0.933
2167.61	0.933
2176.03	0.933
2184.46	0.933
2192.89	0.9355
2201.31	0.9375
2209.74	0.941
2218.17	0.9442
2226.6	0.9465
2235.02	0.95
2243.45	0.95
2251.88	0.951
2260.3	0.9505
2268.73	0.9485
2277.16	0.945
2285.58	0.9388
2294.01	0.9335
2302.44	0.9293
2310.87	0.927
2319.29	0.924
2327.72	0.924
2336.15	0.9282
2344.57	0.933
2353	0.935
2361.43	0.935
2369.85	0.933
2378.28	0.932
2386.71	0.9285
2395.14	0.9265
2403.56	0.926
2411.99	0.926
2420.42	0.924
2428.84	0.924
2437.27	0.9267
2445.7	0.927
2454.12	0.9275
2462.55	0.9295
2470.98	0.9315
2479.4	0.933
2487.83	0.935
2496.26	0.935
2504.69	0.933
2513.11	0.932
2521.54	0.9298
2529.97	0.928
2538.39	0.9263
2546.82	0.926
2555.25	0.9255
2563.67	0.924
2572.1	0.924
2580.53	0.924
2588.96	0.9203
2597.38	0.916
2605.81	0.9118
2614.24	0.908
2622.66	0.9058
2631.09	0.904
2639.52	0.903
2647.94	0.903
2656.37	0.903
2664.8	0.903
2673.23	0.903
2681.65	0.903
2690.08	0.903
2698.51	0.903
2706.93	0.903
2715.36	0.902
2723.79	0.9015
2732.21	0.8995
2740.64	0.899
2749.07	0.897
2757.5	0.8955
2765.92	0.8935
2774.35	0.8915
2782.78	0.89
2791.2	0.8878
2799.63	0.8855
2808.06	0.8803
2816.48	0.869
2824.91	0.8652
2833.34	0.86
2841.77	0.8585
2850.19	0.858
2858.62	0.8578
2867.05	0.856
2875.47	0.852
2883.9	0.848
2892.33	0.8384
2900.75	0.811
2909.18	0.7472
2917.61	0.734
2926.04	0.7528
2934.46	0.7899
2942.89	0.818
2951.32	0.837
2959.74	0.8452
2968.17	0.848
2976.6	0.848
2985.02	0.845
2993.45	0.8393
3001.88	0.8325
3010.3	0.83
3018.73	0.83
3027.16	0.83
3035.59	0.8275
3044.01	0.822
3052.44	0.821
3060.87	0.821
3069.29	0.821
3077.72	0.8235
3086.15	0.827
3094.57	0.8347
3103	0.841
3111.43	0.8445
3119.86	0.846
3128.28	0.846
3136.71	0.8455
3145.14	0.8435
3153.56	0.842
3161.99	0.837
3170.42	0.835
3178.84	0.831
3187.27	0.828
3195.7	0.8205
3204.13	0.819
3212.55	0.819
3220.98	0.818
3229.41	0.8143
3237.83	0.8095
3246.26	0.8048
3254.69	0.797
3263.11	0.7918
3271.54	0.7875
3279.97	0.7823
3288.4	0.779
3296.82	0.7755
3305.25	0.7705
3313.68	0.7648
3322.1	0.756
3330.53	0.7485
3338.96	0.7436
3347.38	0.7363
3355.81	0.723
3364.24	0.713
3372.67	0.7021
3381.09	0.6961
3389.52	0.69
3397.95	0.6855
3406.37	0.6765
3414.8	0.6673
3423.23	0.659
3431.65	0.656
3440.08	0.6585
3448.51	0.6754
3456.94	0.7018
3465.36	0.7085
3473.79	0.7175
3482.22	0.7215
3490.64	0.726
3499.07	0.7318
3507.5	0.7385
3515.92	0.7425
3524.35	0.746
3532.78	0.7475
3541.21	0.75
3549.63	0.7527
3558.06	0.759
3566.49	0.7707
3574.91	0.779
3583.34	0.7852
3591.77	0.794
3600.19	0.8014
3608.62	0.8095
3617.05	0.812
3625.47	0.813
3633.9	0.813
3642.33	0.813
3650.76	0.813
3659.18	0.813
3667.61	0.813
3676.04	0.813
3684.46	0.8123
3692.89	0.81
3701.32	0.8085
3709.74	0.8065
3718.17	0.806
3726.6	0.807
3735.03	0.8105
3743.45	0.8125
3751.88	0.813
3760.31	0.812
3768.73	0.8093
3777.16	0.807
3785.59	0.806
3794.01	0.804
3802.44	0.8025
3810.87	0.8005
3819.3	0.8
3827.72	0.798
3836.15	0.798
3844.58	0.798
3853	0.797
3861.43	0.797
3869.86	0.795
3878.28	0.7945
3886.71	0.794
3895.14	0.792
3903.57	0.7925
3911.99	0.794
3920.42	0.794
3928.85	0.792
3937.27	0.792
3945.7	0.792
3954.13	0.7913
3962.55	0.789
3970.98	0.788
3979.41	0.788
