Infrared Spectrum: Ethyl 2-octynoate
Formula: C 10 H 16 O 2
CAS: 10519-20-7
State: gas
Origin: EPA-IR VAPOR PHASE LIBRARY
1/CM	ABSORBANCE
549.8	0.0041098
559.445	0.0037498
569.09	0.0041498
578.734	0.0040898
588.379	0.0041798
598.024	0.0034098
607.669	0.0021798
617.313	0.0019798
626.958	0.0018298
636.603	0.0013298
646.248	0.0015498
655.893	0.0018798
665.537	0.0018698
675.182	0.0022798
684.827	0.0026898
694.472	0.0028498
704.116	0.0036098
713.761	0.0050098
723.406	0.0081198
733.051	0.0127998
742.695	0.0199098
752.34	0.0254298
761.985	0.0241898
771.63	0.0178198
781.275	0.0124698
790.919	0.0093598
800.564	0.0081598
810.209	0.0082198
819.854	0.0082898
829.498	0.0084898
839.143	0.0086398
848.788	0.0090098
858.433	0.0097798
868.078	0.0094398
877.722	0.0066198
887.367	0.0052498
897.012	0.0046098
906.657	0.0046498
916.301	0.0042598
925.946	0.0039498
935.591	0.0039498
945.236	0.0041098
954.88	0.0046798
964.525	0.0058098
974.17	0.0071398
983.815	0.0081798
993.46	0.0091298
1003.1	0.0112698
1012.75	0.0145198
1022.39	0.0179698
1032.04	0.0211698
1041.68	0.0337298
1051.33	0.0728298
1060.97	0.12339
1070.62	0.16956
1080.26	0.16215
1089.91	0.10866
1099.55	0.0880998
1109.2	0.0532798
1118.84	0.0284198
1128.49	0.0196998
1138.13	0.0177598
1147.78	0.0179198
1157.42	0.0204098
1167.07	0.0224698
1176.71	0.0262698
1186.36	0.0325898
1196	0.0455498
1205.64	0.0707798
1215.29	0.12843
1224.93	0.25542
1234.58	0.55446
1244.22	0.80409
1253.87	0.50705
1263.51	0.19183
1273.16	0.0934398
1282.8	0.0656498
1292.45	0.0524098
1302.09	0.0484498
1311.74	0.0439498
1321.38	0.0422198
1331.03	0.0394398
1340.67	0.0261898
1350.32	0.0233198
1359.96	0.0321498
1369.61	0.0488298
1379.25	0.0271698
1388.9	0.0223098
1398.54	0.0198398
1408.18	0.0175598
1417.83	0.0172598
1427.47	0.0212398
1437.12	0.0261898
1446.76	0.0286498
1456.41	0.0336198
1466.05	0.0390798
1475.7	0.0332998
1485.34	0.0200098
1494.99	0.0139298
1504.63	0.0109498
1514.28	0.0081398
1523.92	0.0061598
1533.57	0.0050598
1543.21	0.0045598
1552.86	0.0040198
1562.5	0.0038398
1572.15	0.0036998
1581.79	0.0036498
1591.44	0.0035998
1601.08	0.0038298
1610.73	0.0042498
1620.37	0.0048998
1630.01	0.0055298
1639.66	0.0062398
1649.3	0.0067898
1658.95	0.0080398
1668.59	0.0100398
1678.24	0.0146298
1687.88	0.0231298
1697.53	0.0381798
1707.17	0.0718998
1716.82	0.15472
1726.46	0.29706
1736.11	0.36191
1745.75	0.21064
1755.4	0.0961698
1765.04	0.0370098
1774.69	0.0181998
1784.33	0.0111298
1793.98	0.0074898
1803.62	0.0054698
1813.27	0.0042398
1822.91	0.0034098
1832.55	0.0028998
1842.2	0.0025298
1851.84	0.0022898
1861.49	0.0023198
1871.13	0.0020898
1880.78	0.0022398
1890.42	0.0021798
1900.07	0.0022898
1909.71	0.0025698
1919.36	0.0031098
1929	0.0032798
1938.65	0.0030898
1948.29	0.0026298
1957.94	0.0021198
1967.58	0.0016798
1977.23	0.0016598
1986.87	0.0015398
1996.52	0.0016098
2006.16	0.0018298
2015.81	0.0019198
2025.45	0.0021298
2035.1	0.0021298
2044.74	0.0021798
2054.38	0.0025698
2064.03	0.0028198
2073.67	0.0031498
2083.32	0.0034298
2092.96	0.0034598
2102.61	0.0031998
2112.25	0.0030298
2121.9	0.0029898
2131.54	0.0031198
2141.19	0.0031498
2150.83	0.0035898
2160.48	0.0044798
2170.12	0.0060498
2179.77	0.0088698
2189.41	0.0143898
2199.06	0.0240998
2208.7	0.0464698
2218.35	0.0868198
2227.99	0.11874
2237.64	0.1045
2247.28	0.0681798
2256.92	0.0383598
2266.57	0.0207198
2276.21	0.0140798
2285.86	0.0125598
2295.5	0.0130598
2305.15	0.0128998
2314.79	0.0113698
2324.44	0.0086798
2334.08	0.0060298
2343.73	0.0042398
2353.37	0.0035598
2363.02	0.0032298
2372.66	0.0029298
2382.31	0.0027998
2391.95	0.0027598
2401.6	0.0025498
2411.24	0.0023798
2420.89	0.0023298
2430.53	0.0022098
2440.18	0.0020998
2449.82	0.0021198
2459.47	0.0022798
2469.11	0.0025898
2478.75	0.0024898
2488.4	0.0021598
2498.04	0.0018798
2507.69	0.0015598
2517.33	0.0014698
2526.98	0.0013998
2536.62	0.0015798
2546.27	0.0014898
2555.91	0.0015098
2565.56	0.0015898
2575.2	0.0015698
2584.85	0.0016098
2594.49	0.0015598
2604.14	0.0014798
2613.78	0.0018098
2623.43	0.0019498
2633.07	0.0021398
2642.72	0.0024698
2652.36	0.0025098
2662.01	0.0023498
2671.65	0.0026898
2681.29	0.0026398
2690.94	0.0026898
2700.58	0.0024498
2710.23	0.0026098
2719.87	0.0029598
2729.52	0.0031698
2739.16	0.0033598
2748.81	0.0037698
2758.45	0.0037698
2768.1	0.0041098
2777.74	0.0043498
2787.39	0.0050498
2797.03	0.0056798
2806.68	0.0069198
2816.32	0.0086598
2825.97	0.0111998
2835.61	0.0153498
2845.26	0.0216798
2854.9	0.0329698
2864.55	0.0527998
2874.19	0.0677298
2883.84	0.0666298
2893.48	0.0581198
2903.12	0.0606098
2912.77	0.0786098
2922.41	0.1031
2932.06	0.14825
2941.7	0.19573
2951.35	0.17125
2960.99	0.14025
2970.64	0.14218
2980.28	0.1168
2989.93	0.0915898
2999.57	0.0555698
3009.22	0.0384098
3018.86	0.0251598
3028.51	0.0161698
3038.15	0.0114998
3047.8	0.0088098
3057.44	0.0072798
3067.09	0.0063198
3076.73	0.0057698
3086.38	0.0050898
3096.02	0.0045598
3105.67	0.0040298
3115.31	0.0036498
3124.95	0.0032498
3134.6	0.0029598
3144.24	0.0027798
3153.89	0.0025498
3163.53	0.0023598
3173.18	0.0021198
3182.82	0.0022398
3192.47	0.0019698
3202.11	0.0016398
3211.76	0.0015298
3221.4	0.0011898
3231.05	0.0012798
3240.69	0.0009571
3250.34	0.0009844
3259.98	0.0009156
3269.63	0.0008775
3279.27	0.0007655
3288.92	0.0008363
3298.56	0.0009254
3308.21	0.000887
3317.85	0.0007816
3327.49	0.0006396
3337.14	0.0007445
3346.78	0.0006886
3356.43	0.0006197
3366.07	0.0008624
3375.72	0.0009245
3385.36	0.000776
3395.01	0.0007136
3404.65	0.0010998
3414.3	0.0013298
3423.94	0.0019798
3433.59	0.0032998
3443.23	0.0046098
3452.88	0.0043998
3462.52	0.0027398
3472.17	0.0018298
3481.81	0.0012498
3491.46	0.0008755
3501.1	0.0004768
3510.75	0.0004353
3520.39	0.0003577
3530.04	0.0002634
3539.68	0.00021
3549.32	0.0003311
3558.97	3.68e-05
3568.61	0.0002354
3578.26	6.772e-05
3587.9	0.0001916
3597.55	1e-07
3607.19	0.00014212
3616.84	0.0004197
3626.48	0.0004446
3636.13	0.0002549
3645.77	7.6705e-05
3655.42	0.0002579
3665.06	0.0003066
3674.71	0.00014399
3684.35	0.0002585
3694	0.000307
3703.64	0.0004608
3713.29	0.000406
3722.93	0.0003408
3732.58	0.000358
3742.22	0.0002971
3751.86	0.0005504
3761.51	0.0005087
3771.15	0.0003667
3780.8	0.0004817
3790.44	0.0005297
3800.09	0.0004993
3809.73	0.00014671
3819.38	0.0005692
3829.02	0.000653
3838.67	0.0003123
3848.31	0.0005751
3857.96	0.0007379
3867.6	0.0005166
3877.25	0.0004149
3886.89	0.0003239
3896.54	0.0004409
3906.18	0.0005078
3915.83	0.000621
3925.47	0.0004788
3935.12	0.0002902
3944.76	0.0005645
3954.41	0.0005199
3964.05	0.0005952
3973.69	0.0009636
3983.34	0.0006771
3992.98	0.0007698
