Infrared Spectrum: p-Butoxytoluene
Formula: C 11 H 16 O
CAS: 10519-06-9
State: gas
Origin: EPA-IR VAPOR PHASE LIBRARY
1/CM	ABSORBANCE
549.8	0.002209
559.445	0.002159
569.09	0.001699
578.734	0.0010171
588.379	0.0007091
598.024	0.0003745
607.669	0.00025106
617.313	0.0004493
626.958	0.00032583
636.603	0.0002123
646.248	0.0003953
655.893	0.00022846
665.537	0.00022069
675.182	0.0004759
684.827	0.0009279
694.472	0.001419
704.116	0.002399
713.761	0.003019
723.406	0.003409
733.051	0.003229
742.695	0.002879
752.34	0.002389
761.985	0.001929
771.63	0.001889
781.275	0.002519
790.919	0.005359
800.564	0.010069
810.209	0.014279
819.854	0.015559
829.498	0.011289
839.143	0.006569
848.788	0.003909
858.433	0.003339
868.078	0.003499
877.722	0.003589
887.367	0.002729
897.012	0.002099
906.657	0.001969
916.301	0.001519
925.946	0.001649
935.591	0.001959
945.236	0.002979
954.88	0.004469
964.525	0.005879
974.17	0.006969
983.815	0.006219
993.46	0.005979
1003.1	0.008319
1012.75	0.013549
1022.39	0.016049
1032.04	0.016169
1041.68	0.013269
1051.33	0.009859
1060.97	0.010409
1070.62	0.011469
1080.26	0.008479
1089.91	0.005479
1099.55	0.006059
1109.2	0.007649
1118.84	0.005709
1128.49	0.005179
1138.13	0.003869
1147.78	0.003979
1157.42	0.004779
1167.07	0.015179
1176.71	0.017109
1186.36	0.006679
1196	0.008859
1205.64	0.019149
1215.29	0.037629
1224.93	0.052749
1234.58	0.078989
1244.22	0.088189
1253.87	0.042739
1263.51	0.023279
1273.16	0.021599
1282.8	0.022419
1292.45	0.016699
1302.09	0.012229
1311.74	0.008989
1321.38	0.006049
1331.03	0.004529
1340.67	0.003669
1350.32	0.003289
1359.96	0.003419
1369.61	0.004179
1379.25	0.007649
1388.9	0.010159
1398.54	0.006399
1408.18	0.004059
1417.83	0.004029
1427.47	0.004529
1437.12	0.005199
1446.76	0.005909
1456.41	0.007629
1466.05	0.011859
1475.7	0.016359
1485.34	0.012899
1494.99	0.020519
1504.63	0.062849
1514.28	0.077109
1523.92	0.026489
1533.57	0.008459
1543.21	0.004489
1552.86	0.003419
1562.5	0.003359
1572.15	0.004679
1581.79	0.006949
1591.44	0.008109
1601.08	0.010419
1610.73	0.015369
1620.37	0.012439
1630.01	0.005349
1639.66	0.002929
1649.3	0.001879
1658.95	0.001279
1668.59	0.0009999
1678.24	0.0008914
1687.88	0.0007465
1697.53	0.0007174
1707.17	0.0008215
1716.82	0.00079
1726.46	0.0007248
1736.11	0.0009207
1745.75	0.0010955
1755.4	0.0011732
1765.04	0.0009909
1774.69	0.0007581
1784.33	0.0005928
1793.98	0.0006462
1803.62	0.0005956
1813.27	0.0006585
1822.91	0.0006631
1832.55	0.0007667
1842.2	0.00099
1851.84	0.001269
1861.49	0.001709
1871.13	0.001719
1880.78	0.001379
1890.42	0.0010353
1900.07	0.0009505
1909.71	0.0007341
1919.36	0.0008372
1929	0.000906
1938.65	0.0008641
1948.29	0.000897
1957.94	0.0010302
1967.58	0.0011242
1977.23	0.0010466
1986.87	0.0010392
1996.52	0.0010257
2006.16	0.0009222
2015.81	0.0011196
2025.45	0.0010963
2035.1	0.0010792
2044.74	0.0010946
2054.38	0.0011408
2064.03	0.0009567
2073.67	0.0009242
2083.32	0.0009007
2092.96	0.0007011
2102.61	0.0006237
2112.25	0.0006584
2121.9	0.0005608
2131.54	0.0004741
2141.19	0.0003702
2150.83	0.0003643
2160.48	0.0003748
2170.12	0.00032777
2179.77	0.0004101
2189.41	0.0003475
2199.06	0.0004053
2208.7	0.0004002
2218.35	0.0004501
2227.99	0.0003667
2237.64	0.0003845
2247.28	0.000506
2256.92	0.0004465
2266.57	0.0003886
2276.21	0.0004951
2285.86	0.0004554
2295.5	0.000466
2305.15	0.0005585
2314.79	0.0005086
2324.44	0.0007104
2334.08	0.0005948
2343.73	0.0007221
2353.37	0.0006449
2363.02	0.0005561
2372.66	0.0005538
2382.31	0.0005968
2391.95	0.0005435
2401.6	0.0007098
2411.24	0.0006651
2420.89	0.0008591
2430.53	0.0006668
2440.18	0.0007966
2449.82	0.0006863
2459.47	0.0008866
2469.11	0.0009687
2478.75	0.0008947
2488.4	0.000871
2498.04	0.0007571
2507.69	0.000839
2517.33	0.0009507
2526.98	0.0009621
2536.62	0.000768
2546.27	0.000676
2555.91	0.0005767
2565.56	0.0005697
2575.2	0.0006444
2584.85	0.0006921
2594.49	0.0007097
2604.14	0.0006926
2613.78	0.0005295
2623.43	0.0005978
2633.07	0.0006067
2642.72	0.0006064
2652.36	0.0006039
2662.01	0.0006414
2671.65	0.0007206
2681.29	0.0008837
2690.94	0.0007953
2700.58	0.0009182
2710.23	0.0010133
2719.87	0.001289
2729.52	0.001489
2739.16	0.001999
2748.81	0.002299
2758.45	0.001749
2768.1	0.001689
2777.74	0.001609
2787.39	0.001729
2797.03	0.001829
2806.68	0.002269
2816.32	0.002679
2825.97	0.003449
2835.61	0.004669
2845.26	0.006929
2854.9	0.010609
2864.55	0.016319
2874.19	0.024259
2883.84	0.028329
2893.48	0.024879
2903.12	0.024069
2912.77	0.027579
2922.41	0.033029
2932.06	0.041339
2941.7	0.044419
2951.35	0.040299
2960.99	0.040329
2970.64	0.040409
2980.28	0.026759
2989.93	0.016399
2999.57	0.012869
3009.22	0.011699
3018.86	0.012049
3028.51	0.016119
3038.15	0.015599
3047.8	0.008769
3057.44	0.006929
3067.09	0.006659
3076.73	0.005919
3086.38	0.004339
3096.02	0.004129
3105.67	0.003379
3115.31	0.002369
3124.95	0.002029
3134.6	0.001429
3144.24	0.0011257
3153.89	0.0009049
3163.53	0.0006987
3173.18	0.0007809
3182.82	0.0006729
3192.47	0.0005782
3202.11	0.0006011
3211.76	0.0005689
3221.4	0.0004541
3231.05	0.0005485
3240.69	0.00032808
3250.34	0.0002999
3259.98	0.00048
3269.63	0.00029745
3279.27	0.00028153
3288.92	0.0004242
3298.56	0.00030765
3308.21	0.000156
3317.85	0.00018
3327.49	0.0004407
3337.14	0.0004975
3346.78	0.0004022
3356.43	0.00026513
3366.07	0.00031712
3375.72	0.00025683
3385.36	0.0002869
3395.01	0.0004183
3404.65	0.0003582
3414.3	0.0002095
3423.94	0.00031425
3433.59	0.00041
3443.23	0.000356
3452.88	0.00027497
3462.52	0.00011
3472.17	0.00028142
3481.81	0.00022424
3491.46	0.0003393
3501.1	0.0003911
3510.75	0.00024686
3520.39	0.000232225
3530.04	0.00025084
3539.68	0.00032234
3549.32	0.0001902
3558.97	0.0002464
3568.61	0.0001651
3578.26	0.0001438
3587.9	0.00029747
3597.55	7.1e-05
3607.19	0.0001898
3616.84	0.00022083
3626.48	0.000233043
3636.13	0.0001451
3645.77	0.0004189
3655.42	0.00024748
3665.06	0.0003105
3674.71	0.0003557
3684.35	0.00029448
3694	0.0006059
3703.64	0.00032721
3713.29	0.00026437
3722.93	0.0001961
3732.58	0.00029372
3742.22	0.00024786
3751.86	0.0002835
3761.51	0.0003523
3771.15	0.0004487
3780.8	0.0004038
3790.44	0.0005465
3800.09	0.00027251
3809.73	0.00032316
3819.38	0.0003401
3829.02	0.0005112
3838.67	0.000576
3848.31	0.0004816
3857.96	0.0004572
3867.6	0.0005143
3877.25	0.0004656
3886.89	0.0004744
3896.54	0.0003371
3906.18	0.0005331
3915.83	0.0004953
3925.47	0.0004829
3935.12	0.0003883
3944.76	0.000501
3954.41	0.00031433
3964.05	0.0003557
3973.69	0.0004007
3983.34	0.00028163
3992.98	0.0004798
