Infrared Spectrum: 3,5-Difluorophenylacetic acid
Formula: C 8 H 6 F 2 O 2
CAS: 105184-38-1
State: gas
Origin: EPA-IR VAPOR PHASE LIBRARY
1/CM	ABSORBANCE
549.8	0.003464
559.445	0.002874
569.09	0.002784
578.734	0.003464
588.379	0.004874
598.024	0.011794
607.669	0.018154
617.313	0.014174
626.958	0.009444
636.603	0.007154
646.248	0.005924
655.893	0.005214
665.537	0.006314
675.182	0.006124
684.827	0.004074
694.472	0.002034
704.116	0.0018166
713.761	0.002024
723.406	0.002304
733.051	0.0017029
742.695	0.0015771
752.34	0.002564
761.985	0.0016734
771.63	0.0015996
781.275	0.0014658
790.919	0.0013759
800.564	0.002104
810.209	0.0014003
819.854	0.0011858
829.498	0.003064
839.143	0.007244
848.788	0.013464
858.433	0.008064
868.078	0.003684
877.722	0.003134
887.367	0.002414
897.012	0.002134
906.657	0.002934
916.301	0.002694
925.946	0.003174
935.591	0.003034
945.236	0.002934
954.88	0.002304
964.525	0.003224
974.17	0.004174
983.815	0.007014
993.46	0.009834
1003.1	0.009694
1012.75	0.005714
1022.39	0.002924
1032.04	0.0018282
1041.68	0.002624
1051.33	0.001854
1060.97	0.002584
1070.62	0.003604
1080.26	0.005444
1089.91	0.010374
1099.55	0.016614
1109.2	0.030424
1118.84	0.045044
1128.49	0.041844
1138.13	0.020524
1147.78	0.009554
1157.42	0.006964
1167.07	0.003604
1176.71	0.004864
1186.36	0.005024
1196	0.005994
1205.64	0.004434
1215.29	0.002594
1224.93	0.003374
1234.58	0.002624
1244.22	0.0019817
1253.87	0.002234
1263.51	0.002354
1273.16	0.002784
1282.8	0.003634
1292.45	0.005714
1302.09	0.006154
1311.74	0.008304
1321.38	0.014744
1331.03	0.016934
1340.67	0.009544
1350.32	0.006874
1359.96	0.005384
1369.61	0.004704
1379.25	0.004474
1388.9	0.003374
1398.54	0.002804
1408.18	0.002914
1417.83	0.003774
1427.47	0.006044
1437.12	0.009284
1446.76	0.010554
1456.41	0.013934
1466.05	0.014344
1475.7	0.009234
1485.34	0.005504
1494.99	0.003444
1504.63	0.003004
1514.28	0.003194
1523.92	0.003084
1533.57	0.002944
1543.21	0.003104
1552.86	0.002704
1562.5	0.003224
1572.15	0.005354
1581.79	0.012064
1591.44	0.020394
1601.08	0.021644
1610.73	0.018014
1620.37	0.027384
1630.01	0.025284
1639.66	0.008994
1649.3	0.004574
1658.95	0.003664
1668.59	0.002744
1678.24	0.002464
1687.88	0.002144
1697.53	0.002344
1707.17	0.002434
1716.82	0.002684
1726.46	0.003914
1736.11	0.005604
1745.75	0.008604
1755.4	0.013534
1765.04	0.019624
1774.69	0.026874
1784.33	0.030094
1793.98	0.024094
1803.62	0.015944
1813.27	0.009174
1822.91	0.004424
1832.55	0.003104
1842.2	0.002254
1851.84	0.0016785
1861.49	0.0014604
1871.13	0.0014044
1880.78	0.0013353
1890.42	0.001402
1900.07	0.0011932
1909.71	0.0012076
1919.36	0.00100975
1929	0.001271
1938.65	0.0013709
1948.29	0.0012586
1957.94	0.00129
1967.58	0.0011155
1977.23	0.00101506
1986.87	0.00102869
1996.52	0.0013546
2006.16	0.0011782
2015.81	0.0011045
2025.45	0.0012296
2035.1	0.000815
2044.74	0.0012665
2054.38	0.0014464
2064.03	0.0011909
2073.67	0.0013731
2083.32	0.00104241
2092.96	0.001237
2102.61	0.0013453
2112.25	0.0013741
2121.9	0.0016284
2131.54	0.0012661
2141.19	0.0010885
2150.83	0.0012069
2160.48	0.0009368
2170.12	0.0012331
2179.77	0.0010353
2189.41	0.00106865
2199.06	0.0013674
2208.7	0.00103268
2218.35	0.0013243
2227.99	0.0014359
2237.64	0.0012769
2247.28	0.001343
2256.92	0.001381
2266.57	0.0015413
2276.21	0.0011918
2285.86	0.001206
2295.5	0.00101371
2305.15	0.00101152
2314.79	0.0014291
2324.44	0.0015153
2334.08	0.0014227
2343.73	0.0011737
2353.37	0.001248
2363.02	0.0011804
2372.66	0.0012682
2382.31	0.0015497
2391.95	0.0016131
2401.6	0.0014456
2411.24	0.0012219
2420.89	0.001519
2430.53	0.0016154
2440.18	0.001731
2449.82	0.0015152
2459.47	0.0011807
2469.11	0.0010888
2478.75	0.0015175
2488.4	0.0013328
2498.04	0.0010914
2507.69	0.0009487
2517.33	0.0013754
2526.98	0.0012316
2536.62	0.0014273
2546.27	0.0013363
2555.91	0.0010253
2565.56	0.0014848
2575.2	0.0010441
2584.85	0.0011778
2594.49	0.0012152
2604.14	0.0014973
2613.78	0.0014636
2623.43	0.0012134
2633.07	0.0012419
2642.72	0.0009282
2652.36	0.0012036
2662.01	0.0011681
2671.65	0.001272
2681.29	0.0014393
2690.94	0.0012258
2700.58	0.0010981
2710.23	0.0018154
2719.87	0.0017272
2729.52	0.0011499
2739.16	0.001436
2748.81	0.000988302
2758.45	0.0013062
2768.1	0.0013921
2777.74	0.0012115
2787.39	0.0014692
2797.03	0.0014405
2806.68	0.00097448
2816.32	0.0015238
2825.97	0.0011344
2835.61	0.0011481
2845.26	0.0011815
2854.9	0.0012051
2864.55	0.0014989
2874.19	0.0015611
2883.84	0.0011853
2893.48	0.0013425
2903.12	0.0016092
2912.77	0.0012975
2922.41	0.002244
2932.06	0.0014894
2941.7	0.0018279
2951.35	0.0019064
2960.99	0.0018897
2970.64	0.0013491
2980.28	0.0014384
2989.93	0.0013702
2999.57	0.0013354
3009.22	0.0011588
3018.86	0.00087
3028.51	0.0013491
3038.15	0.0009404
3047.8	0.0011183
3057.44	0.0011721
3067.09	0.0013046
3076.73	0.00099965
3086.38	0.0013579
3096.02	0.00102644
3105.67	0.0012457
3115.31	0.000514
3124.95	0.0010844
3134.6	0.0015159
3144.24	0.00106434
3153.89	0.0018235
3163.53	0.0011192
3173.18	0.000805
3182.82	0.0015262
3192.47	0.0013075
3202.11	0.0012867
3211.76	0.000463
3221.4	0.0014568
3231.05	0.0009007
3240.69	0.00101161
3250.34	0.0013216
3259.98	0.00097608
3269.63	0.0013389
3279.27	0.00103276
3288.92	0.00097
3298.56	0.0011984
3308.21	0.00107385
3317.85	0.0016318
3327.49	0.0009231
3337.14	0.0014065
3346.78	0.000484
3356.43	0.0011108
3366.07	0.000665
3375.72	0.0009469
3385.36	0.00104386
3395.01	0.0012334
3404.65	0.0011408
3414.3	0.0009619
3423.94	0.000684
3433.59	0.000749
3443.23	0.00101813
3452.88	0.0014332
3462.52	0.00107414
3472.17	0.0012044
3481.81	0.0011092
3491.46	0.0010152
3501.1	0.0011174
3510.75	0.000742
3520.39	0.001138
3530.04	0.0017914
3539.68	0.002614
3549.32	0.002424
3558.97	0.005144
3568.61	0.013714
3578.26	0.014174
3587.9	0.004564
3597.55	0.002804
3607.19	0.002134
3616.84	0.0014526
3626.48	0.0017698
3636.13	0.00127
3645.77	0.0011747
3655.42	0.000828
3665.06	0.0014134
3674.71	0.0014351
3684.35	0.0011723
3694	0.0011917
3703.64	0.000651
3713.29	0.0011544
3722.93	0.0016029
3732.58	0.0012432
3742.22	0.0009735
3751.86	0.00044
3761.51	0.00104365
3771.15	0.0013275
3780.8	0.000738
3790.44	0.0016046
3800.09	0.0013662
3809.73	0.000751
3819.38	0.001846
3829.02	0.0012301
3838.67	0.0012967
3848.31	0.0015079
3857.96	0.0010301
3867.6	0.0012411
3877.25	0.0012328
3886.89	0.00105753
3896.54	0.000505
3906.18	0.000328
3915.83	0.0011024
3925.47	0.00103097
3935.12	0.00106704
3944.76	0.000827
3954.41	0.000397
3964.05	0.0013302
3973.69	0.0013614
3983.34	0.0012029
3992.98	0.00098639
