Infrared Spectrum: 5-PHENYL-1-PENTANOL
Formula: C11 H16 O
CAS: 10521-91-2
State: LIQUID
Boiling point: 150-152 C AT 18 mmHg
Class: COBLENTZ
Instrument: Not specified, most likely a prism, grating, or hybrid spectrometer.
Sampling: TRANSMISSION
Path length: 0.003 CM
Resolution: 4
Origin: WYANDOTTE CHEMICALS CORP., WYANDOTTE, MICHIGAN, USA
MICROMETERS	TRANSMITTANCE
1.996	0.982
2.03486	0.974
2.07371	0.982
2.11257	0.982
2.15142	0.974
2.19028	0.958
2.22913	0.958
2.26799	0.956
2.30684	0.959
2.3457	0.933
2.38456	0.953
2.42341	0.962
2.46227	0.964
2.50112	0.966
2.53998	0.964
2.57883	0.967
2.61769	0.954
2.65655	0.927
2.6954	0.861
2.73426	0.719
2.77311	0.652
2.81197	0.466
2.85082	0.351
2.88968	0.247
2.92853	0.183
2.96739	0.151
3.00625	0.18
3.0451	0.252
3.08396	0.383
3.12281	0.52
3.16167	0.615
3.20052	0.571
3.23938	0.547
3.27824	0.603
3.31709	0.413
3.35595	0.02
3.3948	0.161
3.43366	0.202
3.47251	0.201
3.51137	0.6
3.55022	0.75
3.58908	0.801
3.62794	0.816
3.66679	0.845
3.70565	0.867
3.7445	0.879
3.78336	0.893
3.82221	0.906
3.86107	0.916
3.89993	0.925
3.93878	0.924
3.97764	0.932
4.01649	0.94
4.05535	0.956
4.0942	0.954
4.13306	0.958
4.17191	0.958
4.21077	0.962
4.24963	0.974
4.28848	0.971
4.32734	0.972
4.36619	0.969
4.40505	0.967
4.4439	0.974
4.48276	0.977
4.52162	0.977
4.56047	0.979
4.59933	0.98
4.63818	0.98
4.67704	0.98
4.71589	0.98
4.75475	0.98
4.7936	0.977
4.83246	0.975
4.87132	0.974
4.91017	0.972
4.94903	0.972
4.98788	0.972
5.02674	0.966
5.06559	0.962
5.10445	0.942
5.14331	0.913
5.18216	0.924
5.22102	0.971
5.25987	0.971
5.29873	0.932
5.33758	0.925
5.37644	0.937
5.41529	0.969
5.45415	0.961
5.49301	0.933
5.53186	0.913
5.57072	0.937
5.60957	0.959
5.64843	0.958
5.68728	0.933
5.72614	0.933
5.765	0.938
5.80385	0.94
5.84271	0.938
5.88156	0.935
5.92042	0.927
5.95927	0.914
5.99813	0.908
6.03698	0.911
6.07584	0.909
6.1147	0.89
6.15355	0.66
6.19241	0.785
6.23126	0.827
6.27012	0.898
6.30897	0.914
6.34783	0.903
6.38669	0.901
6.42554	0.893
6.4644	0.888
6.50325	0.88
6.54211	0.855
6.58096	0.652
6.61982	0.31
6.65867	0.6
6.69753	0.61
6.73639	0.528
6.77524	0.359
6.8141	0.22
6.85295	0.418
6.89181	0.499
6.93066	0.531
6.96952	0.582
7.00838	0.6
7.04723	0.616
7.08609	0.639
7.12494	0.645
7.1638	0.623
7.20265	0.605
7.24151	0.6
7.28036	0.621
7.31922	0.628
7.35808	0.602
7.39693	0.64
7.43579	0.645
7.47464	0.647
7.5135	0.673
7.55235	0.689
7.59121	0.698
7.63007	0.708
7.66892	0.713
7.70778	0.726
7.74663	0.74
7.78549	0.752
7.82434	0.758
7.8632	0.755
7.90205	0.756
7.94091	0.764
7.97977	0.764
8.01862	0.761
8.05748	0.772
8.09633	0.784
8.13519	0.79
8.17404	0.784
8.2129	0.78
8.25176	0.771
8.29061	0.771
8.32947	0.779
8.36832	0.777
8.40718	0.766
8.44603	0.75
8.48489	0.774
8.52374	0.798
8.5626	0.779
8.60146	0.74
8.64031	0.735
8.67917	0.742
8.71802	0.752
8.75688	0.763
8.79573	0.776
8.83459	0.782
8.87345	0.789
8.9123	0.777
8.95116	0.76
8.99001	0.753
9.02887	0.7
9.06772	0.632
9.10658	0.558
9.14543	0.468
9.18429	0.396
9.22315	0.309
9.262	0.257
9.30086	0.251
9.33971	0.256
9.37857	0.202
9.41742	0.148
9.45628	0.152
9.49514	0.177
9.53399	0.212
9.57285	0.259
9.6117	0.304
9.65056	0.31
9.68941	0.399
9.72827	0.489
9.76712	0.502
9.80598	0.476
9.84484	0.45
9.88369	0.47
9.92255	0.515
9.9614	0.536
10.0003	0.578
10.0391	0.573
10.078	0.568
10.1168	0.589
10.1557	0.632
10.1945	0.681
10.2334	0.703
10.2722	0.706
10.3111	0.692
10.35	0.665
10.3888	0.645
10.4277	0.639
10.4665	0.676
10.5054	0.719
10.5442	0.753
10.5831	0.776
10.6219	0.793
10.6608	0.806
10.6997	0.816
10.7385	0.822
10.7774	0.827
10.8162	0.829
10.8551	0.827
10.8939	0.827
10.9328	0.803
10.9716	0.78
11.0105	0.753
11.0494	0.763
11.0882	0.776
11.1271	0.774
11.1659	0.777
11.2048	0.769
11.2436	0.774
11.2825	0.776
11.3213	0.774
11.3602	0.768
11.3991	0.763
11.4379	0.763
11.4768	0.763
11.5156	0.766
11.5545	0.769
11.5933	0.774
11.6322	0.777
11.671	0.777
11.7099	0.779
11.7488	0.776
11.7876	0.777
11.8265	0.768
11.8653	0.769
11.9042	0.772
11.943	0.777
11.9819	0.793
12.0208	0.787
12.0596	0.79
12.0985	0.79
12.1373	0.779
12.1762	0.779
12.215	0.769
12.2539	0.764
12.2927	0.756
12.3316	0.75
12.3705	0.748
12.4093	0.737
12.4482	0.74
12.487	0.739
12.5259	0.737
12.5647	0.742
12.6036	0.734
12.6424	0.734
12.6813	0.731
12.7202	0.723
12.759	0.708
12.7979	0.689
12.8367	0.671
12.8756	0.657
12.9144	0.64
12.9533	0.632
12.9921	0.616
13.031	0.611
13.0699	0.6
13.1087	0.573
13.1476	0.537
13.1864	0.47
13.2253	0.391
13.2641	0.297
13.303	0.223
13.3418	0.173
13.3807	0.17
13.4196	0.17
13.4584	0.193
13.4973	0.209
13.5361	0.243
13.575	0.27
13.6138	0.297
13.6527	0.312
13.6915	0.32
13.7304	0.334
13.7693	0.359
13.8081	0.383
13.847	0.423
13.8858	0.446
13.9247	0.462
13.9635	0.476
14.0024	0.483
14.0412	0.487
14.0801	0.47
14.119	0.441
14.1578	0.397
14.1967	0.331
14.2355	0.239
14.2744	0.177
14.3132	0.143
14.3521	0.132
14.3909	0.149
14.4298	0.193
14.4687	0.278
14.5075	0.386
14.5464	0.478
14.5852	0.529
14.6241	0.568
14.6629	0.6
14.7018	0.615
14.7406	0.631
14.7795	0.637
14.8184	0.648
14.8572	0.66
14.8961	0.663
14.9349	0.668
14.9738	0.673
15.0126	0.677
15.0515	0.685
15.0903	0.689
15.1292	0.684
15.1681	0.685
15.2069	0.685
15.2458	0.692
15.2846	0.687
15.3235	0.694
15.3623	0.694
15.4012	0.697
15.44	0.7
15.4789	0.71
15.5178	0.71
15.5566	0.71
15.5955	0.708
15.6343	0.716
15.6732	0.713
15.712	0.713
15.7509	0.719
15.7897	0.718
15.8286	0.721
15.8675	0.726
15.9063	0.721
15.9452	0.721
15.984	0.724
