Infrared Spectrum: 1,3-Bis(3-aminophenoxy)benzene
Formula: C 18 H 16 N 2 O 2
CAS: 10526-07-5
State: gas
Origin: EPA-IR VAPOR PHASE LIBRARY
1/CM	ABSORBANCE
549.8	0.0035
559.445	0.0035
569.09	0.00363
578.734	0.00405
588.379	0.00383
598.024	0.00353
607.669	0.00365
617.313	0.00393
626.958	0.00443
636.603	0.00539
646.248	0.00708
655.893	0.01117
665.537	0.0152
675.182	0.01688
684.827	0.01937
694.472	0.01351
704.116	0.00807
713.761	0.0064
723.406	0.00558
733.051	0.00563
742.695	0.00674
752.34	0.00926
761.985	0.01221
771.63	0.01373
781.275	0.01141
790.919	0.00765
800.564	0.00528
810.209	0.00434
819.854	0.00444
829.498	0.0054
839.143	0.00849
848.788	0.00984
858.433	0.00816
868.078	0.00676
877.722	0.00509
887.367	0.00379
897.012	0.00343
906.657	0.00343
916.301	0.00351
925.946	0.00417
935.591	0.0049
945.236	0.00578
954.88	0.00983
964.525	0.01176
974.17	0.01851
983.815	0.02911
993.46	0.01411
1003.1	0.00594
1012.75	0.00328
1022.39	0.00266
1032.04	0.00266
1041.68	0.00272
1051.33	0.00298
1060.97	0.00402
1070.62	0.00498
1080.26	0.00463
1089.91	0.00528
1099.55	0.00552
1109.2	0.00687
1118.84	0.01115
1128.49	0.01056
1138.13	0.01597
1147.78	0.05299
1157.42	0.04021
1167.07	0.03533
1176.71	0.06702
1186.36	0.0463
1196	0.01514
1205.64	0.00807
1215.29	0.00622
1224.93	0.00605
1234.58	0.00697
1244.22	0.0115
1253.87	0.02449
1263.51	0.03555
1273.16	0.03737
1282.8	0.04299
1292.45	0.02551
1302.09	0.01888
1311.74	0.01516
1321.38	0.01115
1331.03	0.00733
1340.67	0.00467
1350.32	0.00316
1359.96	0.0026
1369.61	0.0021
1379.25	0.00223
1388.9	0.00273
1398.54	0.00391
1408.18	0.00434
1417.83	0.00489
1427.47	0.00696
1437.12	0.01195
1446.76	0.01594
1456.41	0.02419
1466.05	0.03206
1475.7	0.05965
1485.34	0.0643
1494.99	0.03656
1504.63	0.01676
1514.28	0.01061
1523.92	0.00945
1533.57	0.00868
1543.21	0.00889
1552.86	0.01093
1562.5	0.01744
1572.15	0.0361
1581.79	0.07167
1591.44	0.07215
1601.08	0.05369
1610.73	0.03794
1620.37	0.04144
1630.01	0.0399
1639.66	0.02014
1649.3	0.00987
1658.95	0.00605
1668.59	0.00465
1678.24	0.00415
1687.88	0.00358
1697.53	0.00329
1707.17	0.00308
1716.82	0.00303
1726.46	0.00254
1736.11	0.00217
1745.75	0.00186
1755.4	0.00163
1765.04	0.00139
1774.69	0.00135
1784.33	0.0014
1793.98	0.00141
1803.62	0.00156
1813.27	0.00148
1822.91	0.00149
1832.55	0.00156
1842.2	0.00157
1851.84	0.00143
1861.49	0.00142
1871.13	0.00151
1880.78	0.00174
1890.42	0.00222
1900.07	0.00268
1909.71	0.00272
1919.36	0.0021
1929	0.00158
1938.65	0.00143
1948.29	0.00135
1957.94	0.0013
1967.58	0.00131
1977.23	0.00125
1986.87	0.0013
1996.52	0.00126
2006.16	0.00131
2015.81	0.00129
2025.45	0.00132
2035.1	0.00135
2044.74	0.00134
2054.38	0.00129
2064.03	0.00131
2073.67	0.00119
2083.32	0.0011
2092.96	0.00111
2102.61	0.00118
2112.25	0.00114
2121.9	0.00116
2131.54	0.00115
2141.19	0.00111
2150.83	0.00109
2160.48	0.00112
2170.12	0.00111
2179.77	0.00112
2189.41	0.00114
2199.06	0.00116
2208.7	0.00125
2218.35	0.0012
2227.99	0.00121
2237.64	0.00123
2247.28	0.00122
2256.92	0.00117
2266.57	0.00117
2276.21	0.00128
2285.86	0.00124
2295.5	0.00133
2305.15	0.00134
2314.79	0.00135
2324.44	0.00139
2334.08	0.00133
2343.73	0.00143
2353.37	0.00142
2363.02	0.00155
2372.66	0.00176
2382.31	0.00171
2391.95	0.0015
2401.6	0.00145
2411.24	0.00145
2420.89	0.00155
2430.53	0.00153
2440.18	0.00152
2449.82	0.00142
2459.47	0.00128
2469.11	0.00121
2478.75	0.00109
2488.4	0.0009444
2498.04	0.0009337
2507.69	0.000933
2517.33	0.0008977
2526.98	0.0009389
2536.62	0.0009078
2546.27	0.00103
2555.91	0.0011
2565.56	0.00116
2575.2	0.00115
2584.85	0.00106
2594.49	0.0011
2604.14	0.00101
2613.78	0.0009268
2623.43	0.0009268
2633.07	0.0008384
2642.72	0.0007788
2652.36	0.0008089
2662.01	0.0008074
2671.65	0.0007902
2681.29	0.0007677
2690.94	0.0009046
2700.58	0.000886
2710.23	0.0008931
2719.87	0.0009827
2729.52	0.00109
2739.16	0.00111
2748.81	0.00111
2758.45	0.00108
2768.1	0.00101
2777.74	0.0009922
2787.39	0.0009427
2797.03	0.0008521
2806.68	0.0007519
2816.32	0.0008299
2825.97	0.0007507
2835.61	0.0007208
2845.26	0.0008434
2854.9	0.0008597
2864.55	0.0009457
2874.19	0.0009137
2883.84	0.0008333
2893.48	0.0009806
2903.12	0.0009674
2912.77	0.0008967
2922.41	0.000902
2932.06	0.0009193
2941.7	0.0008935
2951.35	0.0008711
2960.99	0.0009553
2970.64	0.000946
2980.28	0.0008853
2989.93	0.0009991
2999.57	0.00111
3009.22	0.00154
3018.86	0.00264
3028.51	0.00475
3038.15	0.00648
3047.8	0.00672
3057.44	0.00668
3067.09	0.00606
3076.73	0.00574
3086.38	0.00508
3096.02	0.00311
3105.67	0.00217
3115.31	0.00154
3124.95	0.00121
3134.6	0.00102
3144.24	0.0009396
3153.89	0.00103
3163.53	0.0009764
3173.18	0.00107
3182.82	0.00119
3192.47	0.0012
3202.11	0.00124
3211.76	0.00138
3221.4	0.00148
3231.05	0.00129
3240.69	0.00116
3250.34	0.00102
3259.98	0.000829
3269.63	0.0009345
3279.27	0.0009008
3288.92	0.0008835
3298.56	0.0008066
3308.21	0.0009452
3317.85	0.0008891
3327.49	0.0008998
3337.14	0.000891
3346.78	0.0008805
3356.43	0.00103
3366.07	0.00118
3375.72	0.00132
3385.36	0.00171
3395.01	0.00258
3404.65	0.00352
3414.3	0.00393
3423.94	0.00316
3433.59	0.0021
3443.23	0.00137
3452.88	0.00111
3462.52	0.00139
3472.17	0.00154
3481.81	0.0023
3491.46	0.00295
3501.1	0.0027
3510.75	0.00231
3520.39	0.00161
3530.04	0.0009103
3539.68	0.0007622
3549.32	0.0005712
3558.97	0.000617
3568.61	0.000704
3578.26	0.0006299
3587.9	0.0007847
3597.55	0.0007206
3607.19	0.0007073
3616.84	0.0006003
3626.48	0.0006566
3636.13	0.0005885
3645.77	0.0005641
3655.42	0.0007544
3665.06	0.0005744
3674.71	0.0006249
3684.35	0.0005181
3694	0.0004179
3703.64	0.0005955
3713.29	0.0005745
3722.93	0.0006464
3732.58	0.0005856
3742.22	0.0006278
3751.86	0.000616
3761.51	0.0006789
3771.15	0.0005141
3780.8	0.0005333
3790.44	0.0004695
3800.09	0.0004631
3809.73	0.0005182
3819.38	0.0005556
3829.02	0.0005784
3838.67	0.000658
3848.31	0.0007185
3857.96	0.00073
3867.6	0.0006434
3877.25	0.0005255
3886.89	0.0006021
3896.54	0.0004823
3906.18	0.0003835
3915.83	0.0005769
3925.47	0.0005001
3935.12	0.0005627
3944.76	0.0007697
3954.41	0.000627
3964.05	0.0004473
3973.69	0.0004286
3983.34	0.0005185
3992.98	0.0005256
