Infrared Spectrum: 2-Methyl-1-undecanol
Formula: C 12 H 26 O
CAS: 10522-26-6
State: gas
Instrument: HP-GC/MS/IRD
Origin: NIST Mass Spectrometry Data Center
1/CM	ABSORBANCE
550	0.0003672
562	0
574	8.64e-05
586	0.00018
598	7.92e-05
610	9.36e-05
622	3.6e-05
634	1.44e-05
646	8.64e-05
658	7.2e-06
670	0.0001008
682	0.0001296
694	0.0002448
706	0.0005544
718	0.0009648
730	0.0009432
742	0.0007128
754	0.0005544
766	0.000432
778	0.00036
790	0.0004176
802	0.0003528
814	0.0003672
826	0.0003672
838	0.0004032
850	0.000396
862	0.0003672
874	0.0004824
886	0.000648
898	0.0009
910	0.0010872
922	0.0011304
934	0.0013248
946	0.001404
958	0.0016632
970	0.0023976
982	0.0033624
994	0.0036936
1006	0.0050688
1018	0.0082368
1030	0.0120888
1042	0.0117648
1054	0.006732
1066	0.0037872
1078	0.0027504
1090	0.0022032
1102	0.0018144
1114	0.0016056
1126	0.00144
1138	0.0013248
1150	0.0012528
1162	0.0012384
1174	0.0013464
1186	0.0014256
1198	0.0015912
1210	0.0017208
1222	0.0018288
1234	0.0018216
1246	0.0018
1258	0.0017784
1270	0.0017928
1282	0.001836
1294	0.0019728
1306	0.0020664
1318	0.0020232
1330	0.0021816
1342	0.0027288
1354	0.0031968
1366	0.0035136
1378	0.0039168
1390	0.0033696
1402	0.002196
1414	0.0015984
1426	0.001584
1438	0.0024984
1450	0.0047232
1462	0.0066672
1474	0.0051768
1486	0.0023616
1498	0.0011304
1510	0.0006984
1522	0.0004824
1534	0.00036
1546	0.000288
1558	0.0002808
1570	0.000216
1582	0.0002016
1594	0.0001872
1606	0.0001584
1618	0.0001728
1630	0.0001224
1642	0.0001296
1654	0.0001368
1666	0.0001152
1678	7.2e-05
1690	6.48e-05
1702	7.2e-05
1714	5.04e-05
1726	2.16e-05
1738	2.88e-05
1750	1.44e-05
1762	1.44e-05
1774	2.16e-05
1786	1.44e-05
1798	1.44e-05
1810	3.6e-05
1822	7.2e-06
1834	1.44e-05
1846	1.44e-05
1858	3.6e-05
1870	2.88e-05
1882	2.88e-05
1894	2.88e-05
1906	2.88e-05
1918	1.44e-05
1930	1.44e-05
1942	2.16e-05
1954	2.16e-05
1966	1.44e-05
1978	2.88e-05
1990	7.2e-06
2002	3.6e-05
2014	6.48e-05
2026	0.0001152
2038	0.0001224
2050	0.0001296
2062	0.0001152
2074	8.64e-05
2086	3.6e-05
2098	7.2e-06
2110	2.88e-05
2122	1.44e-05
2134	1.44e-05
2146	7.2e-06
2158	2.16e-05
2170	1.44e-05
2182	2.16e-05
2194	2.88e-05
2206	3.6e-05
2218	2.16e-05
2230	1.44e-05
2242	2.88e-05
2254	7.2e-06
2266	2.16e-05
2278	3.6e-05
2290	5.76e-05
2302	5.04e-05
2314	7.92e-05
2326	7.2e-05
2338	8.64e-05
2350	5.04e-05
2362	9.36e-05
2374	6.48e-05
2386	7.2e-05
2398	7.92e-05
2410	7.92e-05
2422	7.92e-05
2434	8.64e-05
2446	6.48e-05
2458	6.48e-05
2470	8.64e-05
2482	7.92e-05
2494	7.92e-05
2506	8.64e-05
2518	0.0001152
2530	0.0001584
2542	0.0001944
2554	0.0001872
2566	0.0002304
2578	0.0002664
2590	0.0003024
2602	0.0003312
2614	0.0003672
2626	0.0004392
2638	0.0005112
2650	0.0005688
2662	0.0006696
2674	0.0007632
2686	0.0008136
2698	0.0008352
2710	0.0008856
2722	0.0010296
2734	0.0012096
2746	0.0013392
2758	0.0014328
2770	0.0015768
2782	0.0018216
2794	0.0022392
2806	0.002772
2818	0.003672
2830	0.005148
2842	0.0087048
2854	0.0196128
2866	0.0292176
2878	0.0262872
2890	0.0238896
2902	0.0267264
2914	0.0396072
2926	0.064944
2938	0.0668736
2950	0.040428
2962	0.0328392
2974	0.0253224
2986	0.0112824
2998	0.0054864
3010	0.0033264
3022	0.0023184
3034	0.0017352
3046	0.0013032
3058	0.0010872
3070	0.000936
3082	0.0008208
3094	0.0006984
3106	0.0006048
3118	0.0005544
3130	0.0004752
3142	0.0004176
3154	0.0004104
3166	0.00036
3178	0.0003024
3190	0.0002736
3202	0.0002016
3214	0.0001224
3226	7.92e-05
3238	6.48e-05
3250	2.88e-05
3262	1.44e-05
3274	5.76e-05
3286	1.44e-05
3298	7.2e-06
3310	2.16e-05
3322	4.32e-05
3334	3.6e-05
3346	3.6e-05
3358	6.48e-05
3370	6.48e-05
3382	3.6e-05
3394	7.92e-05
3406	8.64e-05
3418	9.36e-05
3430	0.0001008
3442	0.0001152
3454	0.000108
3466	7.92e-05
3478	8.64e-05
3490	0.000108
3502	0.000108
3514	0.0001296
3526	0.0001152
3538	8.64e-05
3550	0.0001008
3562	0.0001152
3574	0.0001368
3586	0.0001152
3598	0.0001728
3610	0.000216
3622	0.0003528
3634	0.0005328
3646	0.0010512
3658	0.0020808
3670	0.0029232
3682	0.001836
3694	0.0007848
3706	0.0004032
3718	0.0003024
3730	0.0002592
3742	0.000216
3754	0.0002088
3766	0.0002016
3778	0.0002016
3790	0.0002088
3802	0.0002736
3814	0.000252
3826	0.0002592
3838	0.0002664
