Infrared Spectrum: 2-Bromotetradecanoic acid
Formula: C 14 H 27 Br O 2
CAS: 10520-81-7
State: gas
Instrument: HP-GC/MS/IRD
Origin: NIST Mass Spectrometry Data Center
1/CM	ABSORBANCE
550	0.001595
562	0.0024505
574	0.0023838
586	0.0027579
598	0.002581
610	0.0024157
622	0.0027376
634	0.0030566
646	0.0024273
658	0.0014152
670	0.0010962
682	0.0006641
694	0.0005858
706	0.0007772
718	0.0009367
730	0.0008207
742	0.000783
754	0.0009512
766	0.0007018
778	0.0003915
790	0.000232
802	9.86e-05
814	6.09e-05
826	0.0002436
838	0.0004524
850	0.0003393
862	0.000638
874	0.0007627
886	0.0002465
898	0.0001943
910	0.0001595
922	9.57e-05
934	0.0001508
946	8.41e-05
958	0.0001508
970	0.0002001
982	0.0001595
994	0.0002465
1006	0.0003219
1018	0.0003857
1030	0.0006815
1042	0.0009715
1054	0.0014732
1066	0.002088
1078	0.0029696
1090	0.0047995
1102	0.007569
1114	0.0086942
1126	0.007163
1138	0.0058029
1150	0.0050112
1162	0.0042253
1174	0.0038918
1186	0.0039324
1198	0.0027347
1210	0.0017516
1222	0.0013456
1234	0.0011281
1246	0.0011455
1258	0.0012412
1270	0.0015341
1282	0.0018676
1294	0.0022533
1306	0.0025955
1318	0.0030218
1330	0.0035873
1342	0.0044979
1354	0.0050083
1366	0.0040194
1378	0.0028942
1390	0.0021199
1402	0.0013311
1414	0.0009367
1426	0.0009251
1438	0.0014181
1450	0.0022069
1462	0.0027811
1474	0.0017487
1486	0.0008033
1498	0.0005394
1510	0.0004901
1522	0.0007569
1534	0.0013978
1546	0.0025027
1558	0.0032509
1570	0.0032335
1582	0.001856
1594	0.0009628
1606	0.0007888
1618	0.0005075
1630	0.0002349
1642	0.0001537
1654	6.67e-05
1666	5.51e-05
1678	8.12e-05
1690	0.0001914
1702	0.0002871
1714	0.0006293
1726	0.0013717
1738	0.0025665
1750	0.0047067
1762	0.0100688
1774	0.0177335
1786	0.0130906
1798	0.0059247
1810	0.0029957
1822	0.001508
1834	0.0007134
1846	0.000348
1858	0.0001972
1870	0.0001305
1882	8.12e-05
1894	4.64e-05
1906	7.83e-05
1918	2.9e-05
1930	4.93e-05
1942	4.06e-05
1954	4.35e-05
1966	3.48e-05
1978	2.9e-05
1990	2.32e-05
2002	5.22e-05
2014	4.93e-05
2026	5.8e-05
2038	2.61e-05
2050	4.35e-05
2062	2.03e-05
2074	2.9e-05
2086	2.32e-05
2098	1.74e-05
2110	2.9e-06
2122	8.7e-06
2134	2.61e-05
2146	2.32e-05
2158	2.9e-05
2170	4.06e-05
2182	6.09e-05
2194	6.96e-05
2206	6.09e-05
2218	5.8e-05
2230	4.93e-05
2242	2.32e-05
2254	6.67e-05
2266	7.25e-05
2278	0.0001073
2290	0.000174
2302	0.0003306
2314	0.0005394
2326	0.0006815
2338	0.0005974
2350	0.0005307
2362	0.0008787
2374	0.0006409
2386	0.000174
2398	7.83e-05
2410	7.54e-05
2422	5.8e-05
2434	7.83e-05
2446	7.25e-05
2458	6.38e-05
2470	6.09e-05
2482	7.25e-05
2494	6.38e-05
2506	8.99e-05
2518	0.0001073
2530	0.000116
2542	9.57e-05
2554	8.41e-05
2566	0.000116
2578	0.0001131
2590	0.0001305
2602	0.0001624
2614	0.0001827
2626	0.0001856
2638	0.0002233
2650	0.0002146
2662	0.0003016
2674	0.0003306
2686	0.0003306
2698	0.0003335
2710	0.0003016
2722	0.0003277
2734	0.0003712
2746	0.0003625
2758	0.0003799
2770	0.0004495
2782	0.0005568
2794	0.0007221
2806	0.0008903
2818	0.0011658
2830	0.0016559
2842	0.0027173
2854	0.0066671
2866	0.0108634
2878	0.0073486
2890	0.005916
2902	0.0072413
2914	0.0121104
2926	0.0235741
2938	0.0269294
2950	0.0146479
2962	0.0096889
2974	0.0066149
2986	0.003103
2998	0.0018502
3010	0.0012093
3022	0.0009077
3034	0.0006525
3046	0.0005655
3058	0.0004756
3070	0.0004437
3082	0.0004002
3094	0.0003799
3106	0.0002958
3118	0.0002697
3130	0.0001972
3142	0.0002146
3154	0.000203
3166	0.0002001
3178	0.000174
3190	0.0001218
3202	0.0001015
3214	0.0001276
3226	8.7e-05
3238	6.96e-05
3250	7.25e-05
3262	0.0001044
3274	2.61e-05
3286	0.0001218
3298	5.51e-05
3310	9.86e-05
3322	8.99e-05
3334	8.12e-05
3346	2.9e-05
3358	0.0001131
3370	0.0001044
3382	7.83e-05
3394	6.67e-05
3406	6.96e-05
3418	0.0001276
3430	0.0001363
3442	0.0001015
3454	0.0001421
3466	0.0001102
3478	0.000203
3490	0.0003596
3502	0.0004437
3514	0.0005394
3526	0.0005887
3538	0.0006177
3550	0.0009222
3562	0.0028507
3574	0.0093728
3586	0.0043848
3598	0.0009106
3610	0.0004176
3622	0.0003132
3634	0.0002407
3646	0.0003074
3658	0.0002494
3670	0.0001653
3682	0.0001334
3694	0.0001595
3706	0.0002117
3718	0.000203
3730	0.0001885
3742	0.0001508
3754	0.0001421
3766	0.0001421
3778	0.0002233
3790	0.0001943
3802	0.0001595
3814	0.0001479
3826	0.0002001
3838	0.0001537
