Infrared Spectrum: 3-(2,5-Dimethoxyphenyl)propionic acid
Formula: C 11 H 14 O 4
CAS: 10538-49-5
State: gas
Origin: EPA-IR VAPOR PHASE LIBRARY
1/CM	ABSORBANCE
549.8	0.016974
559.445	0.016874
569.09	0.017284
578.734	0.018784
588.379	0.017974
598.024	0.014944
607.669	0.013134
617.313	0.011424
626.958	0.011894
636.603	0.012094
646.248	0.010904
655.893	0.008474
665.537	0.006754
675.182	0.006474
684.827	0.007104
694.472	0.010324
704.116	0.013944
713.761	0.011874
723.406	0.007464
733.051	0.006054
742.695	0.006074
752.34	0.005944
761.985	0.004854
771.63	0.004714
781.275	0.006394
790.919	0.010584
800.564	0.013324
810.209	0.012494
819.854	0.006824
829.498	0.003644
839.143	0.003964
848.788	0.005144
858.433	0.006454
868.078	0.008284
877.722	0.007694
887.367	0.005894
897.012	0.005014
906.657	0.003744
916.301	0.003564
925.946	0.004104
935.591	0.004894
945.236	0.005044
954.88	0.005104
964.525	0.005634
974.17	0.006434
983.815	0.007674
993.46	0.009924
1003.1	0.011954
1012.75	0.015894
1022.39	0.024254
1032.04	0.035344
1041.68	0.052914
1051.33	0.064004
1060.97	0.043424
1070.62	0.022404
1080.26	0.020234
1089.91	0.029404
1099.55	0.043804
1109.2	0.063434
1118.84	0.077164
1128.49	0.063364
1138.13	0.041484
1147.78	0.034524
1157.42	0.033264
1167.07	0.030124
1176.71	0.033764
1186.36	0.034994
1196	0.036234
1205.64	0.053014
1215.29	0.102774
1224.93	0.146704
1234.58	0.096754
1244.22	0.045904
1253.87	0.032154
1263.51	0.032054
1273.16	0.037034
1282.8	0.035984
1292.45	0.027824
1302.09	0.022454
1311.74	0.017494
1321.38	0.013964
1331.03	0.012664
1340.67	0.012614
1350.32	0.013404
1359.96	0.014714
1369.61	0.016774
1379.25	0.017764
1388.9	0.014344
1398.54	0.011884
1408.18	0.016004
1417.83	0.024354
1427.47	0.024914
1437.12	0.023664
1446.76	0.026384
1456.41	0.026094
1466.05	0.032134
1475.7	0.035314
1485.34	0.051104
1494.99	0.106704
1504.63	0.104734
1514.28	0.037914
1523.92	0.014054
1533.57	0.007904
1543.21	0.005674
1552.86	0.004764
1562.5	0.004674
1572.15	0.006124
1581.79	0.008934
1591.44	0.009794
1601.08	0.009514
1610.73	0.009834
1620.37	0.006514
1630.01	0.003864
1639.66	0.002864
1649.3	0.002524
1658.95	0.002324
1668.59	0.002284
1678.24	0.002484
1687.88	0.002814
1697.53	0.003574
1707.17	0.004644
1716.82	0.006824
1726.46	0.010614
1736.11	0.016854
1745.75	0.026524
1755.4	0.040194
1765.04	0.064624
1774.69	0.093434
1784.33	0.077894
1793.98	0.045024
1803.62	0.027364
1813.27	0.015894
1822.91	0.009114
1832.55	0.005864
1842.2	0.004094
1851.84	0.003084
1861.49	0.002394
1871.13	0.001844
1880.78	0.001604
1890.42	0.001414
1900.07	0.001424
1909.71	0.001394
1919.36	0.001324
1929	0.001304
1938.65	0.001314
1948.29	0.001594
1957.94	0.001874
1967.58	0.002134
1977.23	0.002144
1986.87	0.002124
1996.52	0.002104
2006.16	0.001984
2015.81	0.001884
2025.45	0.001774
2035.1	0.001724
2044.74	0.001784
2054.38	0.001844
2064.03	0.001874
2073.67	0.001854
2083.32	0.001694
2092.96	0.001464
2102.61	0.001184
2112.25	0.0010483
2121.9	0.0010644
2131.54	0.0010426
2141.19	0.0009378
2150.83	0.0010296
2160.48	0.0010764
2170.12	0.001007
2179.77	0.0009455
2189.41	0.0010369
2199.06	0.0010256
2208.7	0.001045
2218.35	0.0010781
2227.99	0.0010642
2237.64	0.0010605
2247.28	0.001144
2256.92	0.0009686
2266.57	0.0008765
2276.21	0.0007123
2285.86	0.0006558
2295.5	0.0006768
2305.15	0.0007777
2314.79	0.0007231
2324.44	0.0006494
2334.08	0.000715
2343.73	0.0006527
2353.37	0.000638
2363.02	0.0005291
2372.66	0.0005751
2382.31	0.0006994
2391.95	0.000627
2401.6	0.0006216
2411.24	0.000471
2420.89	0.0006643
2430.53	0.0006237
2440.18	0.0007834
2449.82	0.0007782
2459.47	0.0009567
2469.11	0.0010339
2478.75	0.001134
2488.4	0.0010927
2498.04	0.001154
2507.69	0.0009183
2517.33	0.0008991
2526.98	0.0007966
2536.62	0.0008074
2546.27	0.0008054
2555.91	0.0006258
2565.56	0.0006301
2575.2	0.0006086
2584.85	0.0007219
2594.49	0.0007147
2604.14	0.0008051
2613.78	0.0007706
2623.43	0.0006469
2633.07	0.0006816
2642.72	0.0006168
2652.36	0.0006938
2662.01	0.000599
2671.65	0.0006849
2681.29	0.0005981
2690.94	0.0006028
2700.58	0.000636
2710.23	0.0006195
2719.87	0.0006411
2729.52	0.000794
2739.16	0.000779
2748.81	0.0008155
2758.45	0.0010583
2768.1	0.001254
2777.74	0.001524
2787.39	0.002044
2797.03	0.002644
2806.68	0.003804
2816.32	0.005414
2825.97	0.008794
2835.61	0.018534
2845.26	0.021894
2854.9	0.013414
2864.55	0.010574
2874.19	0.010374
2883.84	0.010074
2893.48	0.011274
2903.12	0.015044
2912.77	0.021014
2922.41	0.024154
2932.06	0.028214
2941.7	0.037614
2951.35	0.039104
2960.99	0.028124
2970.64	0.019084
2980.28	0.016244
2989.93	0.018304
2999.57	0.027404
3009.22	0.023154
3018.86	0.010604
3028.51	0.008024
3038.15	0.007974
3047.8	0.006954
3057.44	0.006134
3067.09	0.006074
3076.73	0.005504
3086.38	0.004584
3096.02	0.003554
3105.67	0.002774
3115.31	0.002234
3124.95	0.001784
3134.6	0.001474
3144.24	0.000847
3153.89	0.0007496
3163.53	0.0008185
3173.18	0.0005783
3182.82	0.0004322
3192.47	0.0004603
3202.11	0.0003535
3211.76	0.0003992
3221.4	0.0003075
3231.05	0.0005047
3240.69	0.00016668
3250.34	0.000272
3259.98	0.0002824
3269.63	0.000302
3279.27	2.07e-05
3288.92	6.91e-05
3298.56	0.00014494
3308.21	0.00014181
3317.85	0.00013755
3327.49	0.00017701
3337.14	0.00012292
3346.78	0.00020185
3356.43	0.00017858
3366.07	0.00016133
3375.72	0.0002857
3385.36	0.0003841
3395.01	0.0002523
3404.65	0.00013294
3414.3	0.0002691
3423.94	0.0003922
3433.59	0.000271
3443.23	0.0003909
3452.88	0.0003607
3462.52	0.0003585
3472.17	0.0002838
3481.81	0.0004982
3491.46	0.0005669
3501.1	0.0006396
3510.75	0.001294
3520.39	0.001254
3530.04	0.001674
3539.68	0.002114
3549.32	0.003424
3558.97	0.005974
3568.61	0.028024
3578.26	0.038034
3587.9	0.008084
3597.55	0.003204
3607.19	0.001784
3616.84	0.001174
3626.48	0.000921
3636.13	0.0006234
3645.77	0.0005389
3655.42	0.0003294
3665.06	0.0002097
3674.71	0.000147
3684.35	0.00014179
3694	0.0002072
3703.64	0.0004985
3713.29	0.00015186
3722.93	0.00018809
3732.58	0.0003482
3742.22	0.0002355
3751.86	0.0002513
3761.51	0.0001985
3771.15	0.00014853
3780.8	0.0002356
3790.44	0.00017363
3800.09	0.000231
3809.73	0.00015662
3819.38	0.0002152
3829.02	0.00017004
3838.67	0.0002099
3848.31	0.00011519
3857.96	0.0001692
3867.6	0.0003217
3877.25	0.0002638
3886.89	0.0002954
3896.54	0.0003061
3906.18	8.76e-05
3915.83	0.0002764
3925.47	0.0003537
3935.12	0.0003555
3944.76	0.0004687
3954.41	0.0006315
3964.05	0.0004313
3973.69	0.0004637
3983.34	0.000406
3992.98	0.000238
