Infrared Spectrum: Bis(pentafluorophenyl)dimethylsilane
Formula: C 14 H 6 F 10 Si
CAS: 10536-62-6
State: gas
Origin: EPA-IR VAPOR PHASE LIBRARY
1/CM	ABSORBANCE
549.8	0.002312
559.445	0.001862
569.09	0.002632
578.734	0.005472
588.379	0.010022
598.024	0.004172
607.669	0.004612
617.313	0.007212
626.958	0.010212
636.603	0.006042
646.248	0.006732
655.893	0.014052
665.537	0.054662
675.182	0.104502
684.827	0.034332
694.472	0.017532
704.116	0.018382
713.761	0.019982
723.406	0.023202
733.051	0.029602
742.695	0.027032
752.34	0.026232
761.985	0.026692
771.63	0.031202
781.275	0.054612
790.919	0.122732
800.564	0.330082
810.209	0.353482
819.854	0.163962
829.498	0.066142
839.143	0.040182
848.788	0.093452
858.433	0.199632
868.078	0.120602
877.722	0.056082
887.367	0.035442
897.012	0.026632
906.657	0.021442
916.301	0.018552
925.946	0.019032
935.591	0.024372
945.236	0.045722
954.88	0.125792
964.525	0.362622
974.17	0.669182
983.815	0.262822
993.46	0.083382
1003.1	0.054662
1012.75	0.070322
1022.39	0.059422
1032.04	0.037382
1041.68	0.034152
1051.33	0.041612
1060.97	0.047852
1070.62	0.122302
1080.26	0.481582
1089.91	1.05765
1099.55	0.496362
1109.2	0.166082
1118.84	0.095512
1128.49	0.060032
1138.13	0.054142
1147.78	0.028032
1157.42	0.014742
1167.07	0.010252
1176.71	0.010962
1186.36	0.010352
1196	0.007422
1205.64	0.007662
1215.29	0.009272
1224.93	0.010822
1234.58	0.017242
1244.22	0.031242
1253.87	0.048852
1263.51	0.123582
1273.16	0.160922
1282.8	0.153742
1292.45	0.306432
1302.09	0.055122
1311.74	0.019312
1321.38	0.015972
1331.03	0.015462
1340.67	0.018492
1350.32	0.026842
1359.96	0.061682
1369.61	0.164442
1379.25	0.178042
1388.9	0.100692
1398.54	0.061132
1408.18	0.074092
1417.83	0.075942
1427.47	0.072842
1437.12	0.124712
1446.76	0.390302
1456.41	1.14413
1466.05	1.43177
1475.7	0.803332
1485.34	0.307192
1494.99	0.187942
1504.63	0.394762
1514.28	0.824922
1523.92	0.440022
1533.57	0.121462
1543.21	0.071012
1552.86	0.054922
1562.5	0.047982
1572.15	0.048022
1581.79	0.053892
1591.44	0.044342
1601.08	0.037972
1610.73	0.050902
1620.37	0.086552
1630.01	0.185632
1639.66	0.278402
1649.3	0.112092
1658.95	0.044822
1668.59	0.029972
1678.24	0.023232
1687.88	0.015332
1697.53	0.011502
1707.17	0.009082
1716.82	0.011402
1726.46	0.011792
1736.11	0.008182
1745.75	0.005832
1755.4	0.004632
1765.04	0.004072
1774.69	0.004002
1784.33	0.005322
1793.98	0.005192
1803.62	0.004362
1813.27	0.003772
1822.91	0.003382
1832.55	0.004002
1842.2	0.004352
1851.84	0.003812
1861.49	0.003922
1871.13	0.005132
1880.78	0.004612
1890.42	0.002842
1900.07	0.002572
1909.71	0.002562
1919.36	0.003162
1929	0.004322
1938.65	0.005792
1948.29	0.005482
1957.94	0.005462
1967.58	0.005012
1977.23	0.004072
1986.87	0.003542
1996.52	0.003552
2006.16	0.003752
2015.81	0.003492
2025.45	0.003352
2035.1	0.003682
2044.74	0.004382
2054.38	0.003612
2064.03	0.003472
2073.67	0.003262
2083.32	0.003302
2092.96	0.003792
2102.61	0.004622
2112.25	0.004332
2121.9	0.002662
2131.54	0.002442
2141.19	0.002382
2150.83	0.002022
2160.48	0.002202
2170.12	0.003022
2179.77	0.003552
2189.41	0.002992
2199.06	0.002882
2208.7	0.003402
2218.35	0.004392
2227.99	0.003792
2237.64	0.002312
2247.28	0.001802
2256.92	0.001842
2266.57	0.001932
2276.21	0.001822
2285.86	0.001562
2295.5	0.001692
2305.15	0.002222
2314.79	0.003272
2324.44	0.004772
2334.08	0.006792
2343.73	0.008012
2353.37	0.007002
2363.02	0.005762
2372.66	0.006832
2382.31	0.007082
2391.95	0.005412
2401.6	0.005042
2411.24	0.005112
2420.89	0.006772
2430.53	0.007492
2440.18	0.004092
2449.82	0.003302
2459.47	0.003482
2469.11	0.003852
2478.75	0.004652
2488.4	0.005372
2498.04	0.005552
2507.69	0.005622
2517.33	0.005422
2526.98	0.004832
2536.62	0.004642
2546.27	0.005302
2555.91	0.006032
2565.56	0.006362
2575.2	0.007952
2584.85	0.010162
2594.49	0.010372
2604.14	0.010512
2613.78	0.007432
2623.43	0.004952
2633.07	0.004482
2642.72	0.004712
2652.36	0.004812
2662.01	0.003322
2671.65	0.002292
2681.29	0.002002
2690.94	0.001962
2700.58	0.001862
2710.23	0.002482
2719.87	0.002932
2729.52	0.003522
2739.16	0.002982
2748.81	0.003342
2758.45	0.003072
2768.1	0.002722
2777.74	0.002382
2787.39	0.002642
2797.03	0.003072
2806.68	0.003642
2816.32	0.003402
2825.97	0.003512
2835.61	0.003272
2845.26	0.003242
2854.9	0.003372
2864.55	0.004402
2874.19	0.005032
2883.84	0.006542
2893.48	0.007832
2903.12	0.010972
2912.77	0.016582
2922.41	0.013872
2932.06	0.008082
2941.7	0.005692
2951.35	0.007252
2960.99	0.012722
2970.64	0.026002
2980.28	0.020672
2989.93	0.015392
2999.57	0.013222
3009.22	0.007702
3018.86	0.005262
3028.51	0.004642
3038.15	0.004042
3047.8	0.002832
3057.44	0.002852
3067.09	0.002992
3076.73	0.003312
3086.38	0.003422
3096.02	0.003352
3105.67	0.002692
3115.31	0.002772
3124.95	0.002502
3134.6	0.002372
3144.24	0.002232
3153.89	0.002132
3163.53	0.001912
3173.18	0.001642
3182.82	0.0014438
3192.47	0.0010024
3202.11	0.0013008
3211.76	0.0012189
3221.4	0.0007694
3231.05	0.0009396
3240.69	0.0009564
3250.34	0.0008212
3259.98	0.0010619
3269.63	0.0006046
3279.27	0.0008684
3288.92	0.0007316
3298.56	0.0007166
3308.21	0.00048494
3317.85	0.000328
3327.49	0.0004501
3337.14	0.00052014
3346.78	0.0006291
3356.43	0.0004461
3366.07	0.00053621
3375.72	0.0008468
3385.36	0.00058426
3395.01	0.0007003
3404.65	0.000407
3414.3	0.000397
3423.94	0.0004623
3433.59	0.00054258
3443.23	0.0007856
3452.88	0.00051504
3462.52	0.000344
3472.17	0
3481.81	0.0008048
3491.46	0.0004636
3501.1	0.0008848
3510.75	0.000856
3520.39	0.0008947
3530.04	0.0007557
3539.68	0.000675
3549.32	0.0006031
3558.97	0.0009538
3568.61	0.0006396
3578.26	0.0006987
3587.9	0.0009604
3597.55	0.0010457
3607.19	0.0011967
3616.84	0.000946
3626.48	0.0005996
3636.13	0.0009124
3645.77	0.0010731
3655.42	0.001592
3665.06	0.0012076
3674.71	0.0011059
3684.35	0.001532
3694	0.001802
3703.64	0.002082
3713.29	0.001842
3722.93	0.001932
3732.58	0.001632
3742.22	0.0012548
3751.86	0.001177
3761.51	0.001692
3771.15	0.001662
3780.8	0.001692
3790.44	0.0014641
3800.09	0.0010788
3809.73	0.0010569
3819.38	0.0010496
3829.02	0.0008418
3838.67	0.00058097
3848.31	0.0007961
3857.96	0.0006269
3867.6	0.000499685
3877.25	0.0008812
3886.89	0.0004777
3896.54	0.00034
3906.18	0.00055385
3915.83	0.00053873
3925.47	0.0004751
3935.12	0.000296
3944.76	0.000244
3954.41	0.0004636
3964.05	0.00052869
3973.69	0.000255
3983.34	0.000228
3992.98	0.0005961
