Infrared Spectrum: p-Octylacetophenone
Formula: C16 H24 O
CAS: 10541-56-7
State: gas
Origin: EPA-IR VAPOR PHASE LIBRARY
1/CM	ABSORBANCE
549.8	0.00297
559.445	0.00484
569.09	0.01191
578.734	0.01769
588.379	0.01825
598.024	0.01832
607.669	0.00752
617.313	0.00354
626.958	0.00243
636.603	0.00217
646.248	0.00298
655.893	0.00438
665.537	0.00403
675.182	0.00365
684.827	0.00489
694.472	0.00308
704.116	0.00268
713.761	0.00362
723.406	0.00365
733.051	0.00346
742.695	0.00296
752.34	0.00303
761.985	0.00342
771.63	0.00378
781.275	0.00438
790.919	0.00729
800.564	0.01063
810.209	0.01545
819.854	0.01448
829.498	0.01163
839.143	0.01213
848.788	0.01089
858.433	0.00672
868.078	0.00418
877.722	0.00326
887.367	0.00287
897.012	0.00271
906.657	0.0029
916.301	0.00303
925.946	0.00394
935.591	0.00717
945.236	0.0173
954.88	0.0225
964.525	0.0107
974.17	0.00554
983.815	0.0041
993.46	0.00398
1003.1	0.00524
1012.75	0.01237
1022.39	0.00876
1032.04	0.00395
1041.68	0.00349
1051.33	0.00352
1060.97	0.00405
1070.62	0.00721
1080.26	0.00571
1089.91	0.00505
1099.55	0.00502
1109.2	0.00515
1118.84	0.00616
1128.49	0.0044
1138.13	0.00299
1147.78	0.00295
1157.42	0.00407
1167.07	0.00653
1176.71	0.01695
1186.36	0.02721
1196	0.01186
1205.64	0.00953
1215.29	0.01115
1224.93	0.01885
1234.58	0.03015
1244.22	0.03971
1253.87	0.09326
1263.51	0.14314
1273.16	0.04771
1282.8	0.02029
1292.45	0.01554
1302.09	0.01398
1311.74	0.01073
1321.38	0.0086
1331.03	0.00982
1340.67	0.01517
1350.32	0.02877
1359.96	0.05215
1369.61	0.02867
1379.25	0.01524
1388.9	0.01239
1398.54	0.01435
1408.18	0.02206
1417.83	0.01768
1427.47	0.0133
1437.12	0.01417
1446.76	0.01741
1456.41	0.01949
1466.05	0.0179
1475.7	0.01136
1485.34	0.0066
1494.99	0.00489
1504.63	0.00453
1514.28	0.00385
1523.92	0.00374
1533.57	0.00402
1543.21	0.00419
1552.86	0.00517
1562.5	0.00824
1572.15	0.01001
1581.79	0.00806
1591.44	0.01515
1601.08	0.03741
1610.73	0.04218
1620.37	0.01546
1630.01	0.00821
1639.66	0.00684
1649.3	0.0072
1658.95	0.00891
1668.59	0.01147
1678.24	0.01956
1687.88	0.04407
1697.53	0.12963
1707.17	0.11868
1716.82	0.03774
1726.46	0.01616
1736.11	0.00903
1745.75	0.00687
1755.4	0.00558
1765.04	0.0037
1774.69	0.00243
1784.33	0.00185
1793.98	0.00212
1803.62	0.0024
1813.27	0.00164
1822.91	0.00124
1832.55	0.00108
1842.2	0.00105
1851.84	0.0009952
1861.49	0.0009498
1871.13	0.00117
1880.78	0.0014
1890.42	0.00187
1900.07	0.00201
1909.71	0.00212
1919.36	0.00218
1929	0.00182
1938.65	0.00172
1948.29	0.00142
1957.94	0.00105
1967.58	0.0007981
1977.23	0.0007494
1986.87	0.0006825
1996.52	0.0007307
2006.16	0.000763
2015.81	0.0008964
2025.45	0.001
2035.1	0.00104
2044.74	0.0009244
2054.38	0.0007388
2064.03	0.0006355
2073.67	0.0006324
2083.32	0.0005456
2092.96	0.0005366
2102.61	0.0005284
2112.25	0.0004714
2121.9	0.0004766
2131.54	0.0005294
2141.19	0.00055
2150.83	0.0006465
2160.48	0.0006604
2170.12	0.000637
2179.77	0.0006147
2189.41	0.0005652
2199.06	0.000611
2208.7	0.0006291
2218.35	0.0006051
2227.99	0.0005152
2237.64	0.0005078
2247.28	0.0005567
2256.92	0.0004635
2266.57	0.0006445
2276.21	0.0007041
2285.86	0.0006872
2295.5	0.0009704
2305.15	0.00109
2314.79	0.00103
2324.44	0.0008844
2334.08	0.0007948
2343.73	0.0006913
2353.37	0.0005727
2363.02	0.0007115
2372.66	0.0005811
2382.31	0.0007928
2391.95	0.00081
2401.6	0.0006406
2411.24	0.0007589
2420.89	0.0007703
2430.53	0.000665
2440.18	0.000763
2449.82	0.0006593
2459.47	0.000622
2469.11	0.0007353
2478.75	0.000668
2488.4	0.0006305
2498.04	0.0008589
2507.69	0.00105
2517.33	0.00113
2526.98	0.00113
2536.62	0.00114
2546.27	0.00111
2555.91	0.0012
2565.56	0.00129
2575.2	0.00134
2584.85	0.00151
2594.49	0.00145
2604.14	0.00148
2613.78	0.00163
2623.43	0.00168
2633.07	0.00182
2642.72	0.00189
2652.36	0.00209
2662.01	0.00198
2671.65	0.00208
2681.29	0.00227
2690.94	0.00216
2700.58	0.00204
2710.23	0.00189
2719.87	0.00198
2729.52	0.00212
2739.16	0.00245
2748.81	0.00263
2758.45	0.00276
2768.1	0.00298
2777.74	0.00338
2787.39	0.00403
2797.03	0.00475
2806.68	0.00576
2816.32	0.0073
2825.97	0.00976
2835.61	0.01366
2845.26	0.02259
2854.9	0.04796
2864.55	0.07443
2874.19	0.06034
2883.84	0.04735
2893.48	0.04227
2903.12	0.052
2912.77	0.07672
2922.41	0.12784
2932.06	0.19709
2941.7	0.17423
2951.35	0.09933
2960.99	0.07535
2970.64	0.06972
2980.28	0.03796
2989.93	0.02311
2999.57	0.0184
3009.22	0.01829
3018.86	0.01751
3028.51	0.01982
3038.15	0.01875
3047.8	0.01333
3057.44	0.01116
3067.09	0.01022
3076.73	0.01028
3086.38	0.01101
3096.02	0.00811
3105.67	0.00538
3115.31	0.00439
3124.95	0.00357
3134.6	0.00271
3144.24	0.00216
3153.89	0.00172
3163.53	0.00146
3173.18	0.00136
3182.82	0.00125
3192.47	0.00113
3202.11	0.00113
3211.76	0.0009958
3221.4	0.0007808
3231.05	0.0006412
3240.69	0.0004266
3250.34	0.0006418
3259.98	0.0005336
3269.63	0.0006096
3279.27	0.0006387
3288.92	0.0005839
3298.56	0.0005134
3308.21	0.0005354
3317.85	0.0003842
3327.49	0.0002491
3337.14	0.0005311
3346.78	0.0005798
3356.43	0.0006919
3366.07	0.00124
3375.72	0.00213
3385.36	0.00303
3395.01	0.00191
3404.65	0.00121
3414.3	0.0008513
3423.94	0.000691
3433.59	0.000345
3443.23	0.0005345
3452.88	0.0003892
3462.52	0.0004502
3472.17	0.0003176
3481.81	0.0003617
3491.46	0.0002355
3501.1	0.000185
3510.75	4.367e-05
3520.39	0.0003028
3530.04	0.0002759
3539.68	0.0001473
3549.32	0.0002756
3558.97	0.0003117
3568.61	0.0002529
3578.26	0.0004731
3587.9	0.0004335
3597.55	0.0001783
3607.19	0.0003559
3616.84	0.0003265
3626.48	0.0005019
3636.13	0.0003398
3645.77	0.0003932
3655.42	0.0006415
3665.06	0.0007021
3674.71	0.0006327
3684.35	0.0006235
3694	0.0005841
3703.64	0.0006973
3713.29	0.0005454
3722.93	0.0007145
3732.58	0.0006878
3742.22	0.0005469
3751.86	0.000456
3761.51	0.0006216
3771.15	0.0003863
3780.8	0.0005622
3790.44	0.0004699
3800.09	0.0005464
3809.73	0.000444
3819.38	0.0004885
3829.02	0.0003684
3838.67	0.0005108
3848.31	0.0006508
3857.96	0.0007275
3867.6	0.0006187
3877.25	0.0003915
3886.89	0.0005574
3896.54	0.0006586
3906.18	0.0005149
3915.83	0.0005845
3925.47	0.0007043
3935.12	0.0007246
3944.76	0.0006802
3954.41	0.0007272
3964.05	0.000778
3973.69	0.0006616
3983.34	0.0007761
3992.98	0.0007622
