Infrared Spectrum: Isopropylamine, N,N-diallyl-,
Formula: C9 H17 N
CAS: 10542-47-9
State: LIQUID (NEAT)
Boiling point: 147.8 C
Class: COBLENTZ III
Instrument: BAIRD (GRATING)
Instrument parameters: NaCl PRISM
Path length: 0.003 CM
Resolution: 2
Origin: WYANDOTTE CHEMICALS CORP.
1/CM	TRANSMITTANCE
625	0.9162
634	0.8822
643	0.8496
652	0.8305
661	0.8821
670	0.9011
679	0.9454
688	0.9653
697	0.9659
706	0.9762
715	0.9684
724	0.9813
733	0.9774
742	0.9636
751	0.944
760	0.9239
769	0.8615
778	0.6613
787	0.8498
796	0.9128
805	0.9153
814	0.9527
823	0.9595
832	0.958
841	0.9554
850	0.9152
859	0.8106
868	0.662
877	0.4792
886	0.7085
895	0.5207
904	0.15
913	0.0162
922	0.0501
931	0.3459
940	0.4573
949	0.3757
958	0.372
967	0.3398
976	0.525
985	0.4127
994	0.0577
1003	0.1922
1012	0.5803
1021	0.6494
1030	0.5977
1039	0.5499
1048	0.5008
1057	0.4673
1066	0.5734
1075	0.5544
1084	0.3852
1093	0.2653
1102	0.3951
1111	0.3789
1120	0.2664
1129	0.4486
1138	0.4187
1147	0.4102
1156	0.3838
1165	0.2986
1174	0.0666
1183	0.0326
1192	0.1577
1201	0.3261
1210	0.6341
1219	0.7359
1228	0.788
1237	0.8064
1246	0.7701
1255	0.5978
1264	0.2675
1273	0.3849
1282	0.5157
1291	0.5825
1300	0.6499
1309	0.6946
1318	0.6503
1327	0.5132
1336	0.4795
1345	0.4485
1354	0.3834
1363	0.2033
1372	0.1686
1381	0.3044
1390	0.1644
1399	0.3673
1408	0.4902
1417	0.4217
1426	0.228
1435	0.4255
1444	0.4113
1453	0.331
1462	0.2612
1471	0.2575
1480	0.4332
1489	0.6743
1498	0.7868
1507	0.8575
1516	0.8714
1525	0.8847
1534	0.8958
1543	0.9079
1552	0.9101
1561	0.9148
1570	0.9099
1579	0.9083
1588	0.9027
1597	0.8989
1606	0.9006
1615	0.8961
1624	0.8745
1633	0.833
1642	0.7486
1651	0.336
1660	0.4199
1669	0.7536
1678	0.8733
1687	0.9037
1696	0.9142
1705	0.9276
1714	0.9469
1723	0.9469
1732	0.9457
1741	0.9496
1750	0.9593
1759	0.9707
1768	0.9754
1777	0.9785
1786	0.9733
1795	0.9617
1804	0.9456
1813	0.888
1822	0.8116
1831	0.7627
1840	0.8248
1849	0.9033
1858	0.9278
1867	0.949
1876	0.9564
1885	0.9614
1894	0.9633
1903	0.9602
1912	0.9667
1921	0.9714
1930	0.9632
1939	0.9585
1948	0.9552
1957	0.9508
1966	0.9431
1975	0.9383
1984	0.9478
1993	0.9594
2002	0.9652
2011	0.9667
2020	0.9636
2029	0.9591
2038	0.9583
2047	0.9606
2056	0.9653
2065	0.9698
2074	0.9741
2083	0.9735
2092	0.9706
2101	0.9673
2110	0.9637
2119	0.9628
2128	0.962
2137	0.9647
2146	0.9699
2155	0.9703
2164	0.9679
2173	0.9633
2182	0.9585
2191	0.9534
2200	0.9486
2209	0.9439
2218	0.946
2227	0.9482
2236	0.9472
2245	0.9452
2254	0.9424
2263	0.9383
2272	0.931
2281	0.9268
2290	0.929
2299	0.934
2308	0.9393
2317	0.9435
2326	0.947
2335	0.9512
2344	0.9583
2353	0.9636
2362	0.9595
2371	0.9508
2380	0.9447
2389	0.9406
2398	0.9381
2407	0.9371
2416	0.9385
2425	0.9409
2434	0.9424
2443	0.9417
2452	0.9345
2461	0.9316
2470	0.9322
2479	0.9339
2488	0.9296
2497	0.9233
2506	0.9187
2515	0.9147
2524	0.9116
2533	0.909
2542	0.9069
2551	0.9041
2560	0.8968
2569	0.8808
2578	0.8638
2587	0.8482
2596	0.8405
2605	0.8389
2614	0.8398
2623	0.8414
2632	0.8459
2641	0.8416
2650	0.8191
2659	0.7969
2668	0.7747
2677	0.7527
2686	0.731
2695	0.7203
2704	0.7172
2713	0.7156
2722	0.6982
2731	0.61
2740	0.5216
2749	0.4339
2758	0.3466
2767	0.26
2776	0.1739
2785	0.1086
2794	0.1309
2803	0.1731
2812	0.2151
2821	0.2567
2830	0.298
2839	0.3086
2848	0.284
2857	0.256
2866	0.2282
2875	0.2006
2884	0.1731
2893	0.1458
2902	0.1186
2911	0.0953
2920	0.0814
2929	0.0701
2938	0.0603
2947	0.0558
2956	0.053
2965	0.0673
2974	0.1312
2983	0.1991
2992	0.2666
3001	0.3337
3010	0.4003
3019	0.4666
3028	0.5324
3037	0.5863
3046	0.5832
3055	0.505
3064	0.4168
3073	0.3805
3082	0.4202
3091	0.4945
3100	0.5684
3109	0.6419
3118	0.715
3127	0.7876
3136	0.8285
3145	0.835
3154	0.8386
3163	0.841
3172	0.8429
3181	0.8448
3190	0.8466
3199	0.8487
3208	0.8508
3217	0.8537
3226	0.8571
3235	0.8603
3244	0.8632
3253	0.8661
3262	0.869
3271	0.8718
3280	0.8748
3289	0.8748
3298	0.874
3307	0.8732
3316	0.8718
3325	0.8698
3334	0.8704
3343	0.8725
3352	0.8749
3361	0.8777
3370	0.8804
3379	0.8829
3388	0.8853
3397	0.886
3406	0.8859
3415	0.8858
3424	0.8859
3433	0.8865
3442	0.887
3451	0.8874
3460	0.8886
3469	0.8906
3478	0.8927
3487	0.8947
3496	0.8984
3505	0.9025
3514	0.9042
3523	0.9049
3532	0.9046
3541	0.9044
3550	0.904
3559	0.9039
3568	0.9043
3577	0.9049
3586	0.9057
3595	0.907
3604	0.9082
3613	0.9095
3622	0.9109
3631	0.9125
3640	0.9139
3649	0.9148
3658	0.9157
3667	0.9159
3676	0.9155
3685	0.915
3694	0.914
3703	0.9128
3712	0.9117
3721	0.9145
3730	0.9097
3739	0.9091
3748	0.9085
3757	0.9079
3766	0.9088
3775	0.9099
3784	0.9113
3793	0.9128
3802	0.9143
3811	0.9159
3820	0.9161
3829	0.9164
3838	0.9165
3847	0.9166
3856	0.9143
3865	0.9118
3874	0.9091
3883	0.906
3892	0.9028
3901	0.8996
3910	0.8967
3919	0.8942
3928	0.8932
3937	0.8949
3946	0.8969
3955	0.8989
3964	0.9007
3973	0.9015
3982	0.9019
3991	0.9015
4000	0.9011
