Infrared Spectrum: 4,4'-Diisocyanato-3,3',5,5'-tetraethyldiphenylmethane
Formula: C 23 H 26 N 2 O 2
CAS: 105442-35-1
State: gas
Origin: EPA-IR VAPOR PHASE LIBRARY
1/CM	ABSORBANCE
549.9	0.00481
559.547	0.00759
569.193	0.01248
578.84	0.01747
588.486	0.01982
598.133	0.01691
607.779	0.01172
617.426	0.00866
627.072	0.00675
636.719	0.00527
646.365	0.0043684
656.012	0.0037676
665.658	0.003449
675.305	0.003352
684.951	0.003316
694.598	0.003419
704.245	0.003528
713.891	0.0037881
723.538	0.0043709
733.184	0.0055
742.831	0.00723
752.477	0.00945
762.124	0.00787
771.77	0.00471
781.417	0.00467
791.063	0.00623
800.71	0.0048
810.356	0.002848
820.003	0.00221
829.649	0.00258
839.296	0.00476
848.943	0.01044
858.589	0.01362
868.236	0.01351
877.882	0.01616
887.529	0.01023
897.175	0.0040992
906.822	0.00248
916.468	0.00212
926.115	0.002673
935.761	0.0045627
945.408	0.002932
955.054	0.00166
964.701	0.00139
974.347	0.00149
983.994	0.00185
993.64	0.002781
1003.29	0.002662
1012.93	0.002861
1022.58	0.002704
1032.23	0.00263
1041.87	0.003462
1051.52	0.00636
1061.17	0.0119
1070.81	0.01929
1080.46	0.04041
1090.11	0.04119
1099.75	0.01598
1109.4	0.00836
1119.05	0.00627
1128.69	0.00597
1138.34	0.0059
1147.99	0.00507
1157.63	0.0041538
1167.28	0.00485
1176.92	0.00987
1186.57	0.00873
1196.22	0.00513
1205.86	0.00371686
1215.51	0.003381
1225.16	0.0036106
1234.8	0.0043608
1244.45	0.00659
1254.1	0.00916
1263.74	0.00871
1273.39	0.00675
1283.04	0.00585
1292.68	0.00625
1302.33	0.00781
1311.98	0.01025
1321.62	0.01022
1331.27	0.00748
1340.92	0.00591
1350.56	0.004444
1360.21	0.0040269
1369.86	0.00497
1379.5	0.00795
1389.15	0.00677
1398.79	0.00557
1408.44	0.0068
1418.09	0.01148
1427.73	0.01976
1437.38	0.02506
1447.03	0.02402
1456.67	0.02532
1466.32	0.02903
1475.97	0.0235
1485.61	0.02601
1495.26	0.03918
1504.91	0.04612
1514.55	0.02626
1524.2	0.01182
1533.85	0.00671
1543.49	0.00501
1553.14	0.004647
1562.79	0.00515
1572.43	0.00657
1582.08	0.00762
1591.73	0.00731
1601.37	0.00738
1611.02	0.0049
1620.67	0.00367638
1630.31	0.003203
1639.96	0.002677
1649.6	0.00226
1659.25	0.00196
1668.9	0.00175
1678.54	0.0017
1688.19	0.00165
1697.84	0.00169
1707.48	0.00173
1717.13	0.00191
1726.78	0.00223
1736.42	0.002849
1746.07	0.003099
1755.72	0.003097
1765.36	0.003407
1775.01	0.003282
1784.66	0.00257
1794.3	0.00213
1803.95	0.00206
1813.6	0.00207
1823.24	0.00204
1832.89	0.00196
1842.54	0.0019
1852.18	0.00188
1861.83	0.00187
1871.47	0.0018
1881.12	0.00175
1890.77	0.00167
1900.41	0.00167
1910.06	0.00173
1919.71	0.00172
1929.35	0.00176
1939	0.00179
1948.65	0.00181
1958.29	0.00186
1967.94	0.00186
1977.59	0.00191
1987.23	0.002
1996.88	0.00211
2006.53	0.00222
2016.17	0.00234
2025.82	0.00251
2035.47	0.002695
2045.11	0.003006
2054.76	0.003319
2064.41	0.0036352
2074.05	0.0039886
2083.7	0.0046297
2093.35	0.00551
2102.99	0.00662
2112.64	0.00801
2122.28	0.00961
2131.93	0.01129
2141.58	0.01312
2151.22	0.01534
2160.87	0.0184
2170.52	0.0224
2180.16	0.02712
2189.81	0.03323
2199.46	0.04292
2209.1	0.05751
2218.75	0.075
2228.4	0.09306
2238.04	0.11398
2247.69	0.14378
2257.34	0.2005
2266.98	0.32439
2276.63	0.57451
2286.28	0.88008
2295.92	0.74511
2305.57	0.39665
2315.22	0.20198
2324.86	0.11463
2334.51	0.07659
2344.16	0.06068
2353.8	0.0555
2363.45	0.05484
2373.09	0.05125
2382.74	0.0412
2392.39	0.03015
2402.03	0.02207
2411.68	0.01651
2421.33	0.01264
2430.97	0.00994
2440.62	0.00807
2450.27	0.00656
2459.91	0.00556
2469.56	0.00482
2479.21	0.0041875
2488.85	0.00369173
2498.5	0.003312
2508.15	0.003071
2517.79	0.002935
2527.44	0.002774
2537.09	0.002681
2546.73	0.00261
2556.38	0.00263
2566.03	0.002685
2575.67	0.002783
2585.32	0.002791
2594.96	0.002745
2604.61	0.00264
2614.26	0.00257
2623.9	0.00261
2633.55	0.002747
2643.2	0.002859
2652.84	0.002752
2662.49	0.002688
2672.14	0.00261
2681.78	0.002697
2691.43	0.002706
2701.08	0.002949
2710.72	0.003329
2720.37	0.003584
2730.02	0.00367426
2739.66	0.0039203
2749.31	0.0035893
2758.96	0.003388
2768.6	0.00337
2778.25	0.003537
2787.9	0.00369166
2797.54	0.0038281
2807.19	0.0040926
2816.84	0.0046447
2826.48	0.00558
2836.13	0.00746
2845.77	0.01002
2855.42	0.01206
2865.07	0.01607
2874.71	0.02645
2884.36	0.03827
2894.01	0.03322
2903.65	0.02946
2913.3	0.03353
2922.95	0.03628
2932.59	0.04374
2942.24	0.06047
2951.89	0.05252
2961.53	0.04697
2971.18	0.09704
2980.83	0.09896
2990.47	0.03803
3000.12	0.02414
3009.77	0.02083
3019.41	0.01769
3029.06	0.01511
3038.71	0.01385
3048.35	0.01128
3058	0.00755
3067.64	0.00507
3077.29	0.0035957
3086.94	0.002891
3096.58	0.00257
3106.23	0.00229
3115.88	0.00203
3125.52	0.00174
3135.17	0.00166
3144.82	0.00164
3154.46	0.00129
3164.11	0.00114
3173.76	0.00082
3183.4	0.00056
3193.05	0.00036
3202.7	0.0003
3212.34	0.00035
3221.99	0.00028
3231.64	0.00022
3241.28	0.00011
3250.93	0.00015
3260.58	0.00013
3270.22	0.00015
3279.87	3e-05
3289.52	0.00022
3299.16	0.00034
3308.81	0.00041
3318.45	0.00064
3328.1	0.00106
3337.75	0.00147
3347.39	0.00208
3357.04	0.002916
3366.69	0.00369667
3376.33	0.0038167
3385.98	0.003415
3395.63	0.002924
3405.27	0.00248
3414.92	0.00218
3424.57	0.00192
3434.21	0.00191
3443.86	0.00185
3453.51	0.00214
3463.15	0.00236
3472.8	0.00234
3482.45	0.00208
3492.09	0.00172
3501.74	0.00155
3511.39	0.00151
3521.03	0.0019
3530.68	0.002
3540.33	0.00196
3549.97	0.00206
3559.62	0.00199
3569.26	0.0021
3578.91	0.00211
3588.56	0.00217
3598.2	0.00222
3607.85	0.00223
3617.5	0.00246
3627.14	0.00251
3636.79	0.00264
3646.44	0.002833
3656.08	0.003167
3665.73	0.003384
3675.38	0.0037757
3685.02	0.0041644
3694.67	0.00471
3704.32	0.00517
3713.96	0.00534
3723.61	0.00493
3733.26	0.0042822
3742.9	0.00373117
3752.55	0.0036018
3762.2	0.003535
3771.84	0.00373927
3781.49	0.0040002
3791.13	0.0042145
3800.78	0.0040082
3810.43	0.00365172
3820.07	0.003178
3829.72	0.002814
3839.37	0.00263
3849.01	0.00255
3858.66	0.00239
3868.31	0.00239
3877.95	0.0023
3887.6	0.0023
3897.25	0.00214
3906.89	0.00213
3916.54	0.00209
3926.19	0.00208
3935.83	0.00218
3945.48	0.00217
3955.13	0.0023
3964.77	0.00225
3974.42	0.00221
3984.07	0.00223
3993.71	0.00226
