Infrared Spectrum: N,N,N',N'-Tetraacetylethylenediamine
Formula: C 10 H 16 N 2 O 4
CAS: 10543-57-4
State: gas
Origin: EPA-IR VAPOR PHASE LIBRARY
1/CM	ABSORBANCE
549.9	0.01688
559.547	0.01554
569.193	0.0119
578.84	0.01137
588.486	0.01336
598.133	0.02046
607.779	0.03013
617.426	0.03472
627.072	0.02508
636.719	0.01335
646.365	0.00775
656.012	0.00582
665.658	0.00569
675.305	0.00764
684.951	0.00753
694.598	0.00497
704.245	0.0038
713.891	0.0035874
723.538	0.00383
733.184	0.00438
742.831	0.00685
752.477	0.01084
762.124	0.00847
771.77	0.00499
781.417	0.00406
791.063	0.0035878
800.71	0.0031316
810.356	0.0031418
820.003	0.0031657
829.649	0.0033946
839.296	0.004
848.943	0.00464
858.589	0.00518
868.236	0.00519
877.882	0.00495
887.529	0.00583
897.175	0.00658
906.822	0.00601
916.468	0.00623
926.115	0.00757
935.761	0.00847
945.408	0.00976
955.054	0.01354
964.701	0.02493
974.347	0.04415
983.994	0.04413
993.64	0.03231
1003.29	0.02754
1012.93	0.02819
1022.58	0.03135
1032.23	0.02974
1041.87	0.02332
1051.52	0.01642
1061.17	0.01241
1070.81	0.01117
1080.46	0.01094
1090.11	0.01141
1099.75	0.01212
1109.4	0.01228
1119.05	0.01189
1128.69	0.01314
1138.34	0.01567
1147.99	0.01865
1157.63	0.02523
1167.28	0.04225
1176.92	0.09985
1186.57	0.24123
1196.22	0.26827
1205.86	0.14488
1215.51	0.08251
1225.16	0.06913
1234.8	0.07581
1244.45	0.10591
1254.1	0.14447
1263.74	0.13469
1273.39	0.08166
1283.04	0.04969
1292.68	0.04204
1302.33	0.04656
1311.98	0.0604
1321.62	0.07674
1331.27	0.09855
1340.92	0.12326
1350.56	0.10381
1360.21	0.08784
1369.86	0.16677
1379.5	0.18263
1389.15	0.08517
1398.79	0.04424
1408.44	0.03459
1418.09	0.03712
1427.73	0.03951
1437.38	0.0355
1447.03	0.0299
1456.67	0.02465
1466.32	0.01743
1475.97	0.01186
1485.61	0.00924
1495.26	0.00816
1504.91	0.00743
1514.55	0.00688
1524.2	0.00658
1533.85	0.00642
1543.49	0.00636
1553.14	0.00643
1562.79	0.00676
1572.43	0.0071
1582.08	0.00741
1591.73	0.00789
1601.37	0.00843
1611.02	0.00927
1620.67	0.01018
1630.31	0.0115
1639.96	0.01402
1649.6	0.01808
1659.25	0.02381
1668.9	0.03258
1678.54	0.05051
1688.19	0.0779
1697.84	0.12481
1707.48	0.27456
1717.13	0.38222
1726.78	0.40809
1736.42	0.15059
1746.07	0.05217
1755.72	0.03351
1765.36	0.02747
1775.01	0.02212
1784.66	0.0164
1794.3	0.01215
1803.95	0.00967
1813.6	0.00827
1823.24	0.00734
1832.89	0.00637
1842.54	0.00505
1852.18	0.00418
1861.83	0.00381
1871.47	0.0036027
1881.12	0.0033654
1890.77	0.0031501
1900.41	0.0031595
1910.06	0.0031997
1919.71	0.0032676
1929.35	0.003279
1939	0.0032122
1948.65	0.0030021
1958.29	0.0028453
1967.94	0.0026367
1977.59	0.002517
1987.23	0.00252
1996.88	0.002526
2006.53	0.002411
2016.17	0.002452
2025.82	0.002452
2035.47	0.002455
2045.11	0.00253
2054.76	0.002544
2064.41	0.002457
2074.05	0.002292
2083.7	0.002287
2093.35	0.002446
2102.99	0.00271412
2112.64	0.0030492
2122.28	0.0031784
2131.93	0.0032617
2141.58	0.0032453
2151.22	0.0033405
2160.87	0.0036184
2170.52	0.0032819
2180.16	0.0025921
2189.81	0.002177
2199.46	0.002013
2209.1	0.002034
2218.75	0.001998
2228.4	0.002022
2238.04	0.002109
2247.69	0.002118
2257.34	0.002196
2266.98	0.002274
2276.63	0.002222
2286.28	0.002109
2295.92	0.002048
2305.57	0.002007
2315.22	0.001942
2324.86	0.001961
2334.51	0.001938
2344.16	0.001982
2353.8	0.001951
2363.45	0.001955
2373.09	0.001839
2382.74	0.001837
2392.39	0.00189
2402.03	0.002023
2411.68	0.001948
2421.33	0.001851
2430.97	0.001715
2440.62	0.0018
2450.27	0.001821
2459.91	0.001982
2469.56	0.002001
2479.21	0.001956
2488.85	0.00194
2498.5	0.001945
2508.15	0.001909
2517.79	0.001822
2527.44	0.00164
2537.09	0.00154
2546.73	0.00155
2556.38	0.00163
2566.03	0.00166
2575.67	0.001694
2585.32	0.001722
2594.96	0.001746
2604.61	0.001731
2614.26	0.001735
2623.9	0.001722
2633.55	0.00151
2643.2	0.00153
2652.84	0.00143
2662.49	0.00137
2672.14	0.0014
2681.78	0.00135
2691.43	0.00144
2701.08	0.0014
2710.72	0.00131
2720.37	0.0012
2730.02	0.00114
2739.66	0.00112
2749.31	0.00102
2758.96	0.00098
2768.6	0.00112
2778.25	0.00107
2787.9	0.00111
2797.54	0.00134
2807.19	0.00121
2816.84	0.00138
2826.48	0.00147
2836.13	0.001899
2845.77	0.001963
2855.42	0.002142
2865.07	0.002164
2874.71	0.002401
2884.36	0.0028119
2894.01	0.0030989
2903.65	0.0033096
2913.3	0.003573
2922.95	0.00402
2932.59	0.00547
2942.24	0.00891
2951.89	0.01339
2961.53	0.0138
2971.18	0.0152
2980.83	0.01597
2990.47	0.0124
3000.12	0.01032
3009.77	0.01119
3019.41	0.01204
3029.06	0.01026
3038.71	0.00696
3048.35	0.00476
3058	0.0033799
3067.64	0.002458
3077.29	0.002071
3086.94	0.001781
3096.58	0.00158
3106.23	0.00136
3115.88	0.00101
3125.52	0.00107
3135.17	0.00085
3144.82	0.00083
3154.46	0.00073
3164.11	0.00068
3173.76	0.00065
3183.4	0.00048
3193.05	0.00032
3202.7	0.00022
3212.34	0.00014
3221.99	0.00018
3231.64	0.00037
3241.28	0.00029
3250.93	0.00016
3260.58	0.00028
3270.22	0.00033
3279.87	0.00019
3289.52	0.00013
3299.16	0.00026
3308.81	0.00014
3318.45	0.0003
3328.1	0.00055
3337.75	0.00045
3347.39	0.00069
3357.04	0.00087
3366.69	0.00108
3376.33	0.00154
3385.98	0.002316
3395.63	0.0032497
3405.27	0.00371
3414.92	0.0031976
3424.57	0.0034343
3434.21	0.00385
3443.86	0.0031946
3453.51	0.001808
3463.15	0.00129
3472.8	0.00099
3482.45	0.00076
3492.09	0.00082
3501.74	0.00081
3511.39	0.00084
3521.03	0.00081
3530.68	0.00076
3540.33	0.00096
3549.97	0.00077
3559.62	0.00098
3569.26	0.00095
3578.91	0.00109
3588.56	0.00105
3598.2	0.00094
3607.85	0.00116
3617.5	0.00105
3627.14	0.00113
3636.79	0.00101
3646.44	0.00093
3656.08	0.00092
3665.73	0.00112
3675.38	0.00102
3685.02	0.00119
3694.67	0.00106
3704.32	0.00125
3713.96	0.00107
3723.61	0.00107
3733.26	0.00112
3742.9	0.00122
3752.55	0.00125
3762.2	0.00117
3771.84	0.00103
3781.49	0.00103
3791.13	0.00124
3800.78	0.00133
3810.43	0.00121
3820.07	0.00128
3829.72	0.00125
3839.37	0.00135
3849.01	0.00115
3858.66	0.00113
3868.31	0.00124
3877.95	0.00138
3887.6	0.00134
3897.25	0.00135
3906.89	0.00141
3916.54	0.00145
3926.19	0.00145
3935.83	0.00143
3945.48	0.00135
3955.13	0.00141
3964.77	0.0015
3974.42	0.00158
3984.07	0.00156
3993.71	0.00161
