Infrared Spectrum: 2,6-Dibromo-4-n-propylaniline
Formula: C 9 H 11 Br 2 N
CAS: 10546-65-3
State: gas
Origin: EPA-IR VAPOR PHASE LIBRARY
1/CM	ABSORBANCE
549.9	0.00756
559.547	0.00747
569.193	0.00735
578.84	0.00753
588.486	0.00831
598.133	0.00979
607.779	0.01241
617.426	0.01314
627.072	0.01154
636.719	0.01259
646.365	0.01506
656.012	0.01812
665.658	0.01988
675.305	0.02013
684.951	0.02082
694.598	0.02386
704.245	0.03165
713.891	0.03235
723.538	0.05506
733.184	0.11251
742.831	0.07083
752.477	0.03594
762.124	0.02385
771.77	0.01967
781.417	0.01721
791.063	0.0145
800.71	0.01275
810.356	0.01213
820.003	0.0111
829.649	0.01158
839.296	0.01632
848.943	0.01976
858.589	0.01804
868.236	0.01541
877.882	0.0195
887.529	0.01478
897.175	0.01085
906.822	0.01014
916.468	0.00918
926.115	0.00709
935.761	0.00604
945.408	0.00576
955.054	0.00559
964.701	0.00591
974.347	0.00573
983.994	0.00523
993.64	0.00523
1003.29	0.00536
1012.93	0.0061
1022.58	0.00815
1032.23	0.01308
1041.87	0.02126
1051.52	0.03558
1061.17	0.04157
1070.81	0.02945
1080.46	0.026
1090.11	0.02589
1099.75	0.02756
1109.4	0.01793
1119.05	0.00829
1128.69	0.00454
1138.34	0.00345
1147.99	0.00312
1157.63	0.00329
1167.28	0.00358
1176.92	0.00451
1186.57	0.00752
1196.22	0.01569
1205.86	0.02109
1215.51	0.01517
1225.16	0.01193
1234.8	0.01441
1244.45	0.01295
1254.1	0.00714
1263.74	0.00775
1273.39	0.01452
1283.04	0.03355
1292.68	0.03459
1302.33	0.01551
1311.98	0.00866
1321.62	0.0094
1331.27	0.01741
1340.92	0.0214
1350.56	0.00967
1360.21	0.00671
1369.86	0.00657
1379.5	0.00987
1389.15	0.0142
1398.79	0.02351
1408.44	0.02936
1418.09	0.01499
1427.73	0.01199
1437.38	0.01522
1447.03	0.02488
1456.67	0.0443
1466.32	0.10308
1475.97	0.17292
1485.61	0.09351
1495.26	0.02732
1504.91	0.01211
1514.55	0.00907
1524.2	0.01212
1533.85	0.02876
1543.49	0.05621
1553.14	0.03278
1562.79	0.02302
1572.43	0.04101
1582.08	0.05525
1591.73	0.04284
1601.37	0.03312
1611.02	0.05982
1620.67	0.08279
1630.31	0.05412
1639.96	0.02263
1649.6	0.01053
1659.25	0.0063
1668.9	0.00474
1678.54	0.00413
1688.19	0.00406
1697.84	0.00419
1707.48	0.00447
1717.13	0.00482
1726.78	0.00522
1736.42	0.00502
1746.07	0.00498
1755.72	0.00584
1765.36	0.00567
1775.01	0.00378
1784.66	0.00261
1794.3	0.0021639
1803.95	0.0019075
1813.6	0.0017035
1823.24	0.0015957
1832.89	0.00152511
1842.54	0.0013775
1852.18	0.00127
1861.83	0.0013417
1871.47	0.001335
1881.12	0.001336
1890.77	0.0013519
1900.41	0.0014019
1910.06	0.00147382
1919.71	0.00148752
1929.35	0.0015798
1939	0.001638
1948.65	0.0016355
1958.29	0.0015585
1967.94	0.00148771
1977.59	0.00144538
1987.23	0.0014232
1996.88	0.00151328
2006.53	0.00148377
2016.17	0.00148885
2025.82	0.0015584
2035.47	0.0015862
2045.11	0.00148311
2054.76	0.00152857
2064.41	0.0015727
2074.05	0.001736
2083.7	0.0017067
2093.35	0.0015565
2102.99	0.00148507
2112.64	0.00151718
2122.28	0.0015404
2131.93	0.0015811
2141.58	0.0015837
2151.22	0.0015867
2160.87	0.0015458
2170.52	0.0015444
2180.16	0.00145858
2189.81	0.00148423
2199.46	0.0013697
2209.1	0.0013989
2218.75	0.0013752
2228.4	0.001336
2238.04	0.00129
2247.69	0.0013529
2257.34	0.00144928
2266.98	0.00153499
2276.63	0.00150628
2286.28	0.0015394
2295.92	0.0016182
2305.57	0.0015983
2315.22	0.0015751
2324.86	0.0015079
2334.51	0.0016062
2344.16	0.0016049
2353.8	0.0016167
2363.45	0.00149601
2373.09	0.00145475
2382.74	0.0014095
2392.39	0.00143287
2402.03	0.001309
2411.68	0.001356
2421.33	0.001175
2430.97	0.001062
2440.62	0.001013
2450.27	0.001037
2459.91	0.001039
2469.56	0.001057
2479.21	0.001101
2488.85	0.001261
2498.5	0.0013922
2508.15	0.00143166
2517.79	0.0014943
2527.44	0.0017394
2537.09	0.0016509
2546.73	0.0014041
2556.38	0.0014831
2566.03	0.0017154
2575.67	0.0020105
2585.32	0.0024043
2594.96	0.00249
2604.61	0.0019463
2614.26	0.0016218
2623.9	0.00150657
2633.55	0.0014277
2643.2	0.0014463
2652.84	0.0015508
2662.49	0.0017138
2672.14	0.0017626
2681.78	0.00152064
2691.43	0.0013571
2701.08	0.00144256
2710.72	0.001298
2720.37	0.0016978
2730.02	0.0017844
2739.66	0.002181
2749.31	0.00254
2758.96	0.0022655
2768.6	0.0023849
2778.25	0.0025
2787.9	0.00259
2797.54	0.00314
2807.19	0.00356
2816.84	0.00421
2826.48	0.00522
2836.13	0.00664
2845.77	0.00978
2855.42	0.01792
2865.07	0.02705
2874.71	0.03605
2884.36	0.04076
2894.01	0.02849
2903.65	0.0268
2913.3	0.03329
2922.95	0.04898
2932.59	0.07692
2942.24	0.08886
2951.89	0.05663
2961.53	0.05983
2971.18	0.08003
2980.83	0.04893
2990.47	0.02246
3000.12	0.01318
3009.77	0.00798
3019.41	0.0061
3029.06	0.00601
3038.71	0.00685
3048.35	0.00644
3058	0.00693
3067.64	0.00651
3077.29	0.0037
3086.94	0.00271
3096.58	0.0020166
3106.23	0.0019547
3115.88	0.0016904
3125.52	0.0016135
3135.17	0.0016771
3144.82	0.0017499
3154.46	0.0018306
3164.11	0.0016219
3173.76	0.0016371
3183.4	0.0015859
3193.05	0.001127
3202.7	0.001015
3212.34	0.0009
3221.99	0.000454
3231.64	0.00016
3241.28	0.00034
3250.93	0.00015
3260.58	0.00038
3270.22	2e-05
3279.87	0.00031
3289.52	0.00029
3299.16	0.00018
3308.81	0.00026
3318.45	0.000456
3328.1	0.000597
3337.75	0.00043
3347.39	0.000582
3357.04	0.00075
3366.69	0.0016924
3376.33	0.00366
3385.98	0.00901
3395.63	0.02173
3405.27	0.03363
3414.92	0.01649
3424.57	0.00595
3434.21	0.00338
3443.86	0.00291
3453.51	0.00382
3463.15	0.00564
3472.8	0.00963
3482.45	0.01681
3492.09	0.03091
3501.74	0.04811
3511.39	0.0259
3521.03	0.01034
3530.68	0.00472
3540.33	0.00272
3549.97	0.0017908
3559.62	0.001306
3569.26	0.001269
3578.91	0.000894
3588.56	0.000692
3598.2	0.000595
3607.85	0.00073
3617.5	0.000752
3627.14	0.00071
3636.79	0.000753
3646.44	0.000645
3656.08	0.00093
3665.73	0.000785
3675.38	0.001
3685.02	0.001086
3694.67	0.00094
3704.32	0.000879
3713.96	0.000722
3723.61	0.000788
3733.26	0.00103
3742.9	0.000977
3752.55	0.000935
3762.2	0.001048
3771.84	0.0013719
3781.49	0.001258
3791.13	0.0014171
3800.78	0.001379
3810.43	0.001312
3820.07	0.00145046
3829.72	0.0016431
3839.37	0.0016308
3849.01	0.0016909
3858.66	0.0019475
3868.31	0.0019027
3877.95	0.0017483
3887.6	0.001408
3897.25	0.0015529
3906.89	0.00144249
3916.54	0.0015125
3926.19	0.00150875
3935.83	0.0016826
3945.48	0.0017997
3955.13	0.001799
3964.77	0.0017339
3974.42	0.0017284
3984.07	0.00147754
3993.71	0.0013767
