Infrared Spectrum: 1,3-CYCLOBUTANEDIOL, 2,4-DIETHYL-2,4-DIMETHYL-, DIPELARGONATE
Formula: C28 H52 O4
CAS: 105476-84-4
Class: COBLENTZ
Instrument: Not specified, most likely a prism, grating, or hybrid spectrometer.
Sampling: TRANSMISSION
Path length: SMEAR
Resolution: 4
Origin: TENNESSEE EASTMAN COMPANY, RESEARCH LABORATORIES
MICROMETERS	TRANSMITTANCE
2.014	0.989
2.05496	0.994
2.09591	1
2.13687	1.001
2.17782	1
2.21878	0.998
2.25974	0.991
2.30069	0.988
2.34165	0.986
2.3826	0.984
2.42356	0.986
2.46451	0.988
2.50547	0.989
2.54643	0.989
2.58738	0.993
2.62834	0.996
2.66929	0.996
2.71025	0.994
2.75121	0.994
2.79216	0.996
2.83312	0.996
2.87407	0.988
2.91503	0.969
2.95598	0.97
2.99694	0.972
3.0379	0.972
3.07885	0.972
3.11981	0.969
3.16076	0.958
3.20172	0.957
3.24268	0.95
3.28363	0.929
3.32459	0.758
3.36554	0.116
3.4065	0.101
3.44746	0.292
3.48841	0.44
3.52937	0.828
3.57032	0.88
3.61128	0.916
3.65223	0.917
3.69319	0.928
3.73415	0.933
3.7751	0.934
3.81606	0.94
3.85701	0.948
3.89797	0.953
3.93893	0.957
3.97988	0.962
4.02084	0.96
4.06179	0.962
4.10275	0.964
4.1437	0.965
4.18466	0.965
4.22562	0.964
4.26657	0.957
4.30753	0.946
4.34848	0.948
4.38944	0.957
4.4304	0.962
4.47135	0.964
4.51231	0.965
4.55326	0.967
4.59422	0.965
4.63518	0.965
4.67613	0.96
4.71709	0.96
4.75804	0.96
4.799	0.96
4.83995	0.96
4.88091	0.962
4.92187	0.962
4.96282	0.964
5.00378	0.972
5.04473	0.97
5.08569	0.97
5.12665	0.97
5.1676	0.97
5.20856	0.97
5.24951	0.969
5.29047	0.967
5.33142	0.965
5.37238	0.958
5.41334	0.957
5.45429	0.946
5.49525	0.933
5.5362	0.919
5.57716	0.89
5.61812	0.839
5.65907	0.736
5.70003	0.32
5.74098	0.037
5.78194	0.239
5.82289	0.601
5.86385	0.744
5.90481	0.785
5.94576	0.828
5.98672	0.852
6.02767	0.869
6.06863	0.873
6.10959	0.883
6.15054	0.893
6.1915	0.902
6.23245	0.909
6.27341	0.914
6.31437	0.921
6.35532	0.919
6.39628	0.916
6.43723	0.909
6.47819	0.904
6.51914	0.902
6.5601	0.893
6.60106	0.892
6.64201	0.881
6.68297	0.863
6.72392	0.821
6.76488	0.676
6.80584	0.34
6.84679	0.356
6.88775	0.501
6.9287	0.611
6.96966	0.69
7.01061	0.698
7.05157	0.693
7.09253	0.792
7.13348	0.789
7.17444	0.7
7.21539	0.424
7.25635	0.364
7.29731	0.501
7.33826	0.58
7.37922	0.626
7.42017	0.628
7.46113	0.626
7.50209	0.635
7.54304	0.662
7.584	0.645
7.62495	0.626
7.66591	0.614
7.70686	0.606
7.74782	0.607
7.78878	0.585
7.82973	0.577
7.87069	0.565
7.91164	0.553
7.9526	0.458
7.99356	0.349
8.03451	0.308
8.07547	0.311
8.11642	0.369
8.15738	0.38
8.19833	0.375
8.23929	0.375
8.28025	0.366
8.3212	0.344
8.36216	0.321
8.40311	0.289
8.44407	0.258
8.48503	0.21
8.52598	0.162
8.56694	0.109
8.60789	0.094
8.64885	0.116
8.68981	0.224
8.73076	0.416
8.77172	0.525
8.81267	0.601
8.85363	0.606
8.89458	0.511
8.93554	0.398
8.9765	0.34
9.01745	0.297
9.05841	0.315
9.09936	0.44
9.14032	0.558
9.18128	0.618
9.22223	0.625
9.26319	0.625
9.30414	0.604
9.3451	0.561
9.38605	0.566
9.42701	0.59
9.46797	0.57
9.50892	0.551
9.54988	0.546
9.59083	0.542
9.63179	0.523
9.67275	0.476
9.7137	0.453
9.75466	0.453
9.79561	0.488
9.83657	0.517
9.87753	0.53
9.91848	0.529
9.95944	0.477
10.0004	0.445
10.0413	0.46
10.0823	0.537
10.1233	0.638
10.1642	0.714
10.2052	0.765
10.2461	0.799
10.2871	0.808
10.328	0.811
10.369	0.809
10.41	0.806
10.4509	0.804
10.4919	0.804
10.5328	0.804
10.5738	0.806
10.6147	0.811
10.6557	0.815
10.6966	0.818
10.7376	0.825
10.7786	0.828
10.8195	0.833
10.8605	0.833
10.9014	0.833
10.9424	0.833
10.9833	0.833
11.0243	0.833
11.0652	0.835
11.1062	0.839
11.1472	0.84
11.1881	0.844
11.2291	0.845
11.27	0.847
11.311	0.856
11.3519	0.869
11.3929	0.876
11.4338	0.885
11.4748	0.89
11.5158	0.89
11.5567	0.89
11.5977	0.893
11.6386	0.902
11.6796	0.912
11.7205	0.916
11.7615	0.919
11.8025	0.921
11.8434	0.922
11.8844	0.922
11.9253	0.922
11.9663	0.922
12.0072	0.922
12.0482	0.921
12.0891	0.921
12.1301	0.921
12.1711	0.921
12.212	0.921
12.253	0.921
12.2939	0.919
12.3349	0.917
12.3758	0.917
12.4168	0.912
12.4577	0.905
12.4987	0.895
12.5397	0.88
12.5806	0.859
12.6216	0.828
12.6625	0.816
12.7035	0.806
12.7444	0.804
12.7854	0.808
12.8263	0.821
12.8673	0.827
12.9083	0.832
12.9492	0.832
12.9902	0.833
13.0311	0.835
13.0721	0.839
13.113	0.839
13.154	0.839
13.1949	0.839
13.2359	0.833
13.2769	0.827
13.3178	0.825
13.3588	0.825
13.3997	0.827
13.4407	0.828
13.4816	0.827
13.5226	0.823
13.5636	0.821
13.6045	0.82
13.6455	0.818
13.6864	0.803
13.7274	0.789
13.7683	0.761
13.8093	0.75
13.8502	0.75
13.8912	0.773
13.9322	0.792
13.9731	0.801
14.0141	0.804
14.055	0.811
14.096	0.813
14.1369	0.815
14.1779	0.815
14.2188	0.816
14.2598	0.816
14.3008	0.816
14.3417	0.816
14.3827	0.815
14.4236	0.815
14.4646	0.811
14.5055	0.809
14.5465	0.804
14.5874	0.803
14.6284	0.801
14.6694	0.797
14.7103	0.794
14.7513	0.787
14.7922	0.782
14.8332	0.78
14.8741	0.773
14.9151	0.763
14.9561	0.75
14.997	0.739
15.038	0.734
15.0789	0.732
15.1199	0.732
15.1608	0.726
15.2018	0.717
15.2427	0.71
15.2837	0.703
15.3247	0.7
15.3656	0.691
15.4066	0.688
15.4475	0.679
15.4885	0.676
15.5294	0.672
15.5704	0.667
15.6113	0.66
15.6523	0.655
15.6933	0.652
15.7342	0.65
15.7752	0.645
15.8161	0.642
15.8571	0.636
15.898	0.633
15.939	0.63
15.9799	0.626
