Infrared Spectrum: 2,5-Dichlorobenzylamine
Formula: C 7 H 7 Cl 2 N
CAS: 10541-69-2
State: gas
Origin: EPA-IR VAPOR PHASE LIBRARY
1/CM	ABSORBANCE
549.8	0.005841
559.445	0.009301
569.09	0.013581
578.734	0.009611
588.379	0.007441
598.024	0.008011
607.669	0.008471
617.313	0.005511
626.958	0.004331
636.603	0.004041
646.248	0.004471
655.893	0.004231
665.537	0.005911
675.182	0.006151
684.827	0.007371
694.472	0.008821
704.116	0.009701
713.761	0.010621
723.406	0.011021
733.051	0.010901
742.695	0.011191
752.34	0.012431
761.985	0.014921
771.63	0.018091
781.275	0.022511
790.919	0.024471
800.564	0.028751
810.209	0.034281
819.854	0.019321
829.498	0.010481
839.143	0.007991
848.788	0.008151
858.433	0.010331
868.078	0.012101
877.722	0.011871
887.367	0.011101
897.012	0.007991
906.657	0.006111
916.301	0.004871
925.946	0.003851
935.591	0.003401
945.236	0.003271
954.88	0.003051
964.525	0.002711
974.17	0.003931
983.815	0.003521
993.46	0.003421
1003.1	0.004821
1012.75	0.005791
1022.39	0.010471
1032.04	0.019451
1041.68	0.027611
1051.33	0.024231
1060.97	0.019561
1070.62	0.012921
1080.26	0.015571
1089.91	0.033451
1099.55	0.039101
1109.2	0.015971
1118.84	0.008971
1128.49	0.008181
1138.13	0.006041
1147.78	0.004611
1157.42	0.003971
1167.07	0.003371
1176.71	0.003691
1186.36	0.006911
1196	0.007571
1205.64	0.004001
1215.29	0.000546
1224.93	0
1234.58	0.002311
1244.22	0.004211
1253.87	0.005751
1263.51	0.005231
1273.16	0.002551
1282.8	0.000623
1292.45	0.0012501
1302.09	0.0016466
1311.74	0.0018487
1321.38	0.002411
1331.03	0.003561
1340.67	0.004391
1350.32	0.005371
1359.96	0.005941
1369.61	0.008221
1379.25	0.011161
1388.9	0.013691
1398.54	0.012901
1408.18	0.008511
1417.83	0.006271
1427.47	0.006741
1437.12	0.010081
1446.76	0.018341
1456.41	0.032451
1466.05	0.039291
1475.7	0.024611
1485.34	0.009381
1494.99	0.004571
1504.63	0.003311
1514.28	0.003211
1523.92	0.002771
1533.57	0.002731
1543.21	0.002931
1552.86	0.004361
1562.5	0.005641
1572.15	0.004811
1581.79	0.005701
1591.44	0.006081
1601.08	0.005221
1610.73	0.006631
1620.37	0.008321
1630.01	0.007661
1639.66	0.005381
1649.3	0.003591
1658.95	0.002791
1668.59	0.001951
1678.24	0.001981
1687.88	0.001941
1697.53	0.0015644
1707.17	0.0015002
1716.82	0.0014306
1726.46	0.0014979
1736.11	0.001891
1745.75	0.002531
1755.4	0.002111
1765.04	0.001951
1774.69	0.0017077
1784.33	0.0018161
1793.98	0.0016902
1803.62	0.0016925
1813.27	0.0016356
1822.91	0.0016046
1832.55	0.0016993
1842.2	0.0015447
1851.84	0.0016713
1861.49	0.002031
1871.13	0.002521
1880.78	0.002511
1890.42	0.002231
1900.07	0.0014316
1909.71	0.0013272
1919.36	0.0013723
1929	0.0013447
1938.65	0.0012802
1948.29	0.0012572
1957.94	0.0012272
1967.58	0.0013995
1977.23	0.0013332
1986.87	0.0013575
1996.52	0.0015498
2006.16	0.0013981
2015.81	0.0012749
2025.45	0.0013183
2035.1	0.0013444
2044.74	0.0013107
2054.38	0.001141
2064.03	0.0012198
2073.67	0.0015724
2083.32	0.0014139
2092.96	0.0013903
2102.61	0.0013693
2112.25	0.0013027
2121.9	0.00138
2131.54	0.0012496
2141.19	0.0013522
2150.83	0.0014393
2160.48	0.001503
2170.12	0.0011749
2179.77	0.0013427
2189.41	0.0012581
2199.06	0.0011761
2208.7	0.0015367
2218.35	0.00145
2227.99	0.0014534
2237.64	0.0014247
2247.28	0.0011689
2256.92	0.0012601
2266.57	0.0015951
2276.21	0.0014195
2285.86	0.0013792
2295.5	0.0014775
2305.15	0.0017054
2314.79	0.0015271
2324.44	0.0011242
2334.08	0.0011432
2343.73	0.001483
2353.37	0.0013089
2363.02	0.0014887
2372.66	0.0011944
2382.31	0.001321
2391.95	0.0010011
2401.6	0.0012166
2411.24	0.0011803
2420.89	0.0016345
2430.53	0.0013339
2440.18	0.0012297
2449.82	0.0015005
2459.47	0.0012225
2469.11	0.0013027
2478.75	0.0013203
2488.4	0.0013075
2498.04	0.0013754
2507.69	0.0014115
2517.33	0.0016103
2526.98	0.0015434
2536.62	0.0014437
2546.27	0.0012815
2555.91	0.0013662
2565.56	0.0012512
2575.2	0.0012248
2584.85	0.0013542
2594.49	0.0014806
2604.14	0.0013325
2613.78	0.0014815
2623.43	0.0013765
2633.07	0.001446
2642.72	0.0014415
2652.36	0.0016452
2662.01	0.0017471
2671.65	0.0017324
2681.29	0.0018524
2690.94	0.0018789
2700.58	0.0015744
2710.23	0.0017417
2719.87	0.0018794
2729.52	0.002261
2739.16	0.0016447
2748.81	0.0017746
2758.45	0.0018405
2768.1	0.001773
2777.74	0.002261
2787.39	0.001941
2797.03	0.0017696
2806.68	0.002121
2816.32	0.002581
2825.97	0.002931
2835.61	0.003061
2845.26	0.003761
2854.9	0.004241
2864.55	0.004881
2874.19	0.005941
2883.84	0.006361
2893.48	0.005991
2903.12	0.005581
2912.77	0.006121
2922.41	0.006411
2932.06	0.006871
2941.7	0.007271
2951.35	0.006881
2960.99	0.005771
2970.64	0.004171
2980.28	0.002941
2989.93	0.002441
2999.57	0.0017168
3009.22	0.002291
3018.86	0.0018151
3028.51	0.0016476
3038.15	0.001941
3047.8	0.0018575
3057.44	0.002031
3067.09	0.002281
3076.73	0.002641
3086.38	0.002971
3096.02	0.002371
3105.67	0.001326
3115.31	0.000747
3124.95	0.0012516
3134.6	0.0017237
3144.24	0.001585
3153.89	0.0018
3163.53	0.0016896
3173.18	0.0015224
3182.82	0.0015424
3192.47	0.0015857
3202.11	0.0013993
3211.76	0.0012768
3221.4	0.001951
3231.05	0.0015019
3240.69	0.0011784
3250.34	0.0016896
3259.98	0.0015543
3269.63	0.0017453
3279.27	0.0016411
3288.92	0.0015387
3298.56	0.00091111
3308.21	0.0010482
3317.85	0.0011805
3327.49	0.0013202
3337.14	0.0015341
3346.78	0.0013756
3356.43	0.001961
3366.07	0.002081
3375.72	0.0017834
3385.36	0.0017873
3395.01	0.002091
3404.65	0.0012084
3414.3	0.0016537
3423.94	0.002121
3433.59	0.002231
3443.23	0.0017434
3452.88	0.0013003
3462.52	0.0012312
3472.17	0.000742
3481.81	0.0012722
3491.46	0.0015839
3501.1	0.000718
3510.75	0.001414
3520.39	0.00096652
3530.04	0.0012389
3539.68	0.0008642
3549.32	0.0014933
3558.97	0.0010413
3568.61	0.00095142
3578.26	0.0011439
3587.9	0.001062
3597.55	0.001931
3607.19	0.0014527
3616.84	0.0015612
3626.48	0.0011694
3636.13	0.000323
3645.77	0.0014885
3655.42	0.0011839
3665.06	0.0014492
3674.71	0.001012
3684.35	0.0014864
3694	0.0010958
3703.64	0.0010677
3713.29	0.0010397
3722.93	0.00092447
3732.58	0.0013604
3742.22	0.0012202
3751.86	0.000617
3761.51	0.0014038
3771.15	0.0016013
3780.8	0.002121
3790.44	0.0015079
3800.09	0.0008277
3809.73	0.0014582
3819.38	0.0014752
3829.02	0.0014182
3838.67	0.000653
3848.31	0.000689
3857.96	0.0013106
3867.6	0.0013903
3877.25	0.001447
3886.89	0.0012239
3896.54	0.0011602
3906.18	0.0010582
3915.83	0.0018498
3925.47	0.0016227
3935.12	0.0016204
3944.76	0.001267
3954.41	0.0013736
3964.05	0.0014396
3973.69	0.0014197
3983.34	0.0018078
3992.98	0.00092097
