Infrared Spectrum: (N,N-Diethylamino)methyltrimethylsilane
Formula: C 8 H 21 N Si
CAS: 10545-36-5
State: gas
Origin: EPA-IR VAPOR PHASE LIBRARY
1/CM	ABSORBANCE
549.8	0.0016501
559.445	0.000155
569.09	0.000438
578.734	0.000663
588.379	0.00081961
598.024	0.00315
607.669	0.00335
617.313	0.00208
626.958	0.0014659
636.603	0.00194
646.248	0.00289
655.893	0.0025
665.537	0.00473
675.182	0.00904
684.827	0.01633
694.472	0.01806
704.116	0.01183
713.761	0.00798
723.406	0.0066
733.051	0.00696
742.695	0.00766
752.34	0.0122
761.985	0.01625
771.63	0.01671
781.275	0.01364
790.919	0.01429
800.564	0.01629
810.209	0.01872
819.854	0.026
829.498	0.0436
839.143	0.07684
848.788	0.10194
858.433	0.09899
868.078	0.06982
877.722	0.04024
887.367	0.02434
897.012	0.01722
906.657	0.01269
916.301	0.00949
925.946	0.00656
935.591	0.00505
945.236	0.00366
954.88	0.00334
964.525	0.00374
974.17	0.00493
983.815	0.00561
993.46	0.00475
1003.1	0.00349
1012.75	0.00295
1022.39	0.00348
1032.04	0.00434
1041.68	0.00712
1051.33	0.0098
1060.97	0.0135
1070.62	0.01382
1080.26	0.01063
1089.91	0.01034
1099.55	0.00983
1109.2	0.00916
1118.84	0.00687
1128.49	0.00655
1138.13	0.00796
1147.78	0.00955
1157.42	0.00696
1167.07	0.00505
1176.71	0.00628
1186.36	0.0071
1196	0.01012
1205.64	0.00829
1215.29	0.00625
1224.93	0.01024
1234.58	0.01666
1244.22	0.03103
1253.87	0.04359
1263.51	0.03529
1273.16	0.01889
1282.8	0.01294
1292.45	0.0122
1302.09	0.01035
1311.74	0.00793
1321.38	0.00648
1331.03	0.00627
1340.67	0.00744
1350.32	0.00872
1359.96	0.01143
1369.61	0.01648
1379.25	0.0216
1388.9	0.01851
1398.54	0.01057
1408.18	0.00882
1417.83	0.00976
1427.47	0.00857
1437.12	0.00753
1446.76	0.00867
1456.41	0.00961
1466.05	0.00934
1475.7	0.00734
1485.34	0.00494
1494.99	0.00326
1504.63	0.0027
1514.28	0.00271
1523.92	0.00249
1533.57	0.0023
1543.21	0.00197
1552.86	0.00189
1562.5	0.00213
1572.15	0.0014108
1581.79	0.0017212
1591.44	0.001436
1601.08	0.0012553
1610.73	0.0012306
1620.37	0.0009404
1630.01	0.0011148
1639.66	0.0011098
1649.3	0.0013102
1658.95	0.0010559
1668.59	0.0010266
1678.24	0.00088107
1687.88	0.000796885
1697.53	0.0009724
1707.17	0.0007305
1716.82	0.000667
1726.46	0.0010352
1736.11	0.0008957
1745.75	0.0007776
1755.4	0.000677
1765.04	0.0007196
1774.69	0.00081086
1784.33	0.00088814
1793.98	0.0011572
1803.62	0.0012933
1813.27	0.0011595
1822.91	0.0008957
1832.55	0.0016043
1842.2	0.0017479
1851.84	0.0016224
1861.49	0.0014303
1871.13	0.001384
1880.78	0.0013175
1890.42	0.0010807
1900.07	0.0012903
1909.71	0.0013401
1919.36	0.0016569
1929	0.0014967
1938.65	0.0017685
1948.29	0.0016997
1957.94	0.0015902
1967.58	0.001644
1977.23	0.0014834
1986.87	0.001285
1996.52	0.001409
2006.16	0.0011853
2015.81	0.0011538
2025.45	0.0010767
2035.1	0.0011312
2044.74	0.0011824
2054.38	0.0012314
2064.03	0.0013014
2073.67	0.001215
2083.32	0.0012117
2092.96	0.0012196
2102.61	0.0013993
2112.25	0.0012505
2121.9	0.0013553
2131.54	0.0010853
2141.19	0.0013108
2150.83	0.0012741
2160.48	0.0013204
2170.12	0.0013685
2179.77	0.0015463
2189.41	0.0012115
2199.06	0.0010379
2208.7	0.001161
2218.35	0.0012794
2227.99	0.0008931
2237.64	0.00069
2247.28	0.00105
2256.92	0.0011881
2266.57	0.0011364
2276.21	0.001175
2285.86	0.000996
2295.5	0.0011284
2305.15	0.0014196
2314.79	0.0010658
2324.44	0.0011483
2334.08	0.0012534
2343.73	0.0010393
2353.37	0.0011593
2363.02	0.000609
2372.66	0.0009407
2382.31	0.0011291
2391.95	0.0010528
2401.6	0.0010473
2411.24	0.0011544
2420.89	0.001108
2430.53	0.0011201
2440.18	0.0014046
2449.82	0.0015365
2459.47	0.0015312
2469.11	0.0013132
2478.75	0.0014861
2488.4	0.0012961
2498.04	0.0013829
2507.69	0.0010778
2517.33	0.0014465
2526.98	0.0014346
2536.62	0.0015975
2546.27	0.00196
2555.91	0.0015515
2565.56	0.00182
2575.2	0.00225
2584.85	0.00205
2594.49	0.00215
2604.14	0.00201
2613.78	0.00222
2623.43	0.0027
2633.07	0.00282
2642.72	0.00307
2652.36	0.00362
2662.01	0.00348
2671.65	0.00455
2681.29	0.00472
2690.94	0.00557
2700.58	0.00704
2710.23	0.00847
2719.87	0.0102
2729.52	0.0129
2739.16	0.01641
2748.81	0.01964
2758.45	0.02118
2768.1	0.02149
2777.74	0.02387
2787.39	0.03049
2797.03	0.03678
2806.68	0.03672
2816.32	0.0305
2825.97	0.02409
2835.61	0.0194
2845.26	0.01689
2854.9	0.01615
2864.55	0.01773
2874.19	0.02436
2883.84	0.02979
2893.48	0.03279
2903.12	0.03517
2912.77	0.03299
2922.41	0.03181
2932.06	0.03931
2941.7	0.04947
2951.35	0.05873
2960.99	0.0714
2970.64	0.07941
2980.28	0.06619
2989.93	0.03409
2999.57	0.01611
3009.22	0.01014
3018.86	0.00798
3028.51	0.00731
3038.15	0.00631
3047.8	0.00628
3057.44	0.00576
3067.09	0.00544
3076.73	0.00523
3086.38	0.00481
3096.02	0.00505
3105.67	0.00429
3115.31	0.00358
3124.95	0.00322
3134.6	0.00229
3144.24	0.00302
3153.89	0.00225
3163.53	0.0016949
3173.18	0.0017858
3182.82	0.001635
3192.47	0.00198
3202.11	0.0017413
3211.76	0.00188
3221.4	0.00184
3231.05	0.00121
3240.69	0.0011146
3250.34	0.001304
3259.98	0.000431
3269.63	0.00197
3279.27	0.0012002
3288.92	0.0014259
3298.56	0.0009404
3308.21	0.0011681
3317.85	0.00087301
3327.49	0.0013739
3337.14	0.00031
3346.78	0.0014121
3356.43	0.0012326
3366.07	0.0007528
3375.72	0.000523
3385.36	0.00086333
3395.01	0.000498
3404.65	0.0009382
3414.3	0.000532
3423.94	0.0011783
3433.59	0.0009025
3443.23	0.00081852
3452.88	0.0007158
3462.52	0.0007445
3472.17	8.7e-05
3481.81	0.00053
3491.46	0.000277
3501.1	0.000641
3510.75	0.0006924
3520.39	0.001428
3530.04	0.00081073
3539.68	0.0009933
3549.32	0.000505
3558.97	0.00088632
3568.61	0.00088486
3578.26	0.000629
3587.9	0.0010685
3597.55	0.0008963
3607.19	0.000439
3616.84	0.0013819
3626.48	0.0013595
3636.13	0.0011242
3645.77	0.00082027
3655.42	0.0012417
3665.06	0.0014914
3674.71	0.0009825
3684.35	0.0009322
3694	0.000799579
3703.64	0.0013749
3713.29	0.0007248
3722.93	0.000511
3732.58	0.001345
3742.22	0.0015396
3751.86	0.0009575
3761.51	0.0012462
3771.15	0.0017313
3780.8	0.001299
3790.44	0.0009882
3800.09	0.0015147
3809.73	0.0009018
3819.38	0.0013148
3829.02	0.00082196
3838.67	0.0009572
3848.31	0.000944
3857.96	0.0009204
3867.6	0.0016813
3877.25	0.0012775
3886.89	0.0007064
3896.54	0.0008841
3906.18	0.0011011
3915.83	0.00080145
3925.47	0.0009077
3935.12	0.000794238
3944.76	0.0012154
3954.41	0.0011375
3964.05	0.0013302
3973.69	0.0010405
3983.34	0.00083756
3992.98	0.0013258
