Infrared Spectrum: Alpha,Alpha'-BIS(DIMETHYLAMINO)-4,4'-DI-o-CRESOL
Formula: C18 H24 N2 O2
CAS: 10554-73-1
State: SOLID (MINERAL OIL MULL)
Class: COBLENTZ
Instrument: Not specified, most likely a prism, grating, or hybrid spectrometer.
Sampling: TRANSMISSION
Resolution: 4
Origin: DOW CHEMICAL COMPANY
MICROMETERS	TRANSMITTANCE
2.02	0.654
2.06068	0.663
2.10136	0.671
2.14204	0.678
2.18272	0.683
2.2234	0.686
2.26408	0.675
2.30476	0.668
2.34544	0.675
2.38611	0.683
2.42679	0.692
2.46747	0.698
2.50815	0.707
2.54883	0.71
2.58951	0.712
2.63019	0.715
2.67087	0.72
2.71155	0.717
2.75223	0.703
2.79291	0.693
2.83359	0.681
2.87427	0.673
2.91495	0.666
2.95563	0.668
2.99631	0.675
3.03699	0.681
3.07766	0.683
3.11834	0.686
3.15902	0.69
3.1997	0.695
3.24038	0.695
3.28106	0.67
3.32174	0.593
3.36242	0.326
3.4031	0.05
3.44378	0.043
3.48446	0.079
3.52514	0.241
3.56582	0.519
3.6065	0.575
3.64718	0.593
3.68786	0.593
3.72854	0.588
3.76921	0.59
3.80989	0.588
3.85057	0.6
3.89125	0.627
3.93193	0.651
3.97261	0.673
4.01329	0.702
4.05397	0.722
4.09465	0.732
4.13533	0.747
4.17601	0.751
4.21669	0.751
4.25737	0.764
4.29805	0.783
4.33873	0.793
4.37941	0.796
4.42009	0.802
4.46076	0.803
4.50144	0.805
4.54212	0.812
4.5828	0.813
4.62348	0.815
4.66416	0.818
4.70484	0.824
4.74552	0.827
4.7862	0.829
4.82688	0.835
4.86756	0.839
4.90824	0.839
4.94892	0.835
4.9896	0.846
5.03028	0.857
5.07096	0.859
5.11164	0.857
5.15231	0.859
5.19299	0.859
5.23367	0.857
5.27435	0.849
5.31503	0.846
5.35571	0.857
5.39639	0.861
5.43707	0.857
5.47775	0.849
5.51843	0.851
5.55911	0.852
5.59979	0.846
5.64047	0.834
5.68115	0.842
5.72183	0.84
5.76251	0.842
5.80319	0.854
5.84386	0.851
5.88454	0.847
5.92522	0.844
5.9659	0.832
6.00658	0.822
6.04726	0.812
6.08794	0.825
6.12862	0.81
6.1693	0.698
6.20998	0.593
6.25066	0.593
6.29134	0.634
6.33202	0.78
6.3727	0.834
6.41338	0.854
6.45406	0.854
6.49474	0.837
6.53541	0.83
6.57609	0.822
6.61677	0.79
6.65745	0.661
6.69813	0.404
6.73881	0.213
6.77949	0.204
6.82017	0.133
6.86085	0.263
6.90153	0.404
6.94221	0.553
6.98289	0.688
7.02357	0.624
7.06425	0.648
7.10493	0.681
7.14561	0.641
7.18629	0.59
7.22696	0.494
7.26764	0.514
7.30832	0.634
7.349	0.688
7.38968	0.68
7.43036	0.749
7.47104	0.793
7.51172	0.798
7.5524	0.798
7.59308	0.781
7.63376	0.788
7.67444	0.786
7.71512	0.771
7.7558	0.736
7.79648	0.693
7.83716	0.543
7.87784	0.245
7.91851	0.294
7.95919	0.516
7.99987	0.6
8.04055	0.686
8.08123	0.752
8.12191	0.778
8.16259	0.81
8.20327	0.824
8.24395	0.834
8.28463	0.837
8.32531	0.834
8.36599	0.796
8.40667	0.693
8.44735	0.609
8.48803	0.7
8.52871	0.737
8.56939	0.783
8.61006	0.793
8.65074	0.783
8.69142	0.793
8.7321	0.808
8.77278	0.812
8.81346	0.807
8.85414	0.798
8.89482	0.776
8.9355	0.698
8.97618	0.685
9.01686	0.751
9.05754	0.734
9.09822	0.768
9.1389	0.83
9.17958	0.851
9.22026	0.861
9.26094	0.859
9.30161	0.857
9.34229	0.859
9.38297	0.859
9.42365	0.856
9.46433	0.839
9.50501	0.807
9.54569	0.759
9.58637	0.68
9.62705	0.773
9.66773	0.829
9.70841	0.829
9.74909	0.774
9.78977	0.692
9.83045	0.595
9.87113	0.644
9.91181	0.808
9.95249	0.861
9.99316	0.878
10.0338	0.888
10.0745	0.891
10.1152	0.886
10.1559	0.871
10.1966	0.84
10.2372	0.781
10.2779	0.751
10.3186	0.847
10.3593	0.871
10.4	0.881
10.4406	0.881
10.4813	0.878
10.522	0.873
10.5627	0.868
10.6034	0.854
10.644	0.834
10.6847	0.832
10.7254	0.827
10.7661	0.818
10.8068	0.803
10.8474	0.786
10.8881	0.776
10.9288	0.771
10.9695	0.78
11.0102	0.783
11.0508	0.78
11.0915	0.749
11.1322	0.69
11.1729	0.724
11.2135	0.773
11.2542	0.758
11.2949	0.781
11.3356	0.808
11.3763	0.813
11.4169	0.81
11.4576	0.759
11.4983	0.722
11.539	0.766
11.5797	0.798
11.6203	0.803
11.661	0.798
11.7017	0.776
11.7424	0.739
11.7831	0.705
11.8237	0.671
11.8644	0.659
11.9051	0.656
11.9458	0.659
11.9865	0.634
12.0271	0.516
12.0678	0.345
12.1085	0.231
12.1492	0.424
12.1899	0.575
12.2305	0.658
12.2712	0.708
12.3119	0.746
12.3526	0.759
12.3933	0.769
12.4339	0.776
12.4746	0.781
12.5153	0.783
12.556	0.786
12.5966	0.788
12.6373	0.79
12.678	0.788
12.7187	0.79
12.7594	0.793
12.8	0.795
12.8407	0.79
12.8814	0.79
12.9221	0.778
12.9628	0.754
13.0034	0.707
13.0441	0.648
13.0848	0.659
13.1255	0.729
13.1662	0.761
13.2068	0.771
13.2475	0.778
13.2882	0.78
13.3289	0.774
13.3696	0.771
13.4102	0.763
13.4509	0.751
13.4916	0.737
13.5323	0.729
13.573	0.717
13.6136	0.676
13.6543	0.663
13.695	0.681
13.7357	0.698
13.7764	0.697
13.817	0.69
13.8577	0.697
13.8984	0.707
13.9391	0.717
13.9797	0.722
14.0204	0.727
14.0611	0.729
14.1018	0.729
14.1425	0.725
14.1831	0.72
14.2238	0.717
14.2645	0.712
14.3052	0.708
14.3459	0.703
14.3865	0.697
14.4272	0.69
14.4679	0.683
14.5086	0.678
14.5493	0.671
14.5899	0.666
14.6306	0.658
14.6713	0.649
14.712	0.642
14.7527	0.631
14.7933	0.619
14.834	0.602
14.8747	0.588
14.9154	0.568
14.9561	0.549
14.9967	0.538
15.0374	0.532
15.0781	0.538
15.1188	0.544
15.1595	0.548
15.2001	0.544
15.2408	0.538
15.2815	0.531
15.3222	0.522
15.3628	0.517
15.4035	0.509
15.4442	0.5
15.4849	0.489
15.5256	0.478
15.5662	0.468
15.6069	0.458
15.6476	0.45
15.6883	0.441
15.729	0.438
15.7696	0.429
15.8103	0.424
15.851	0.426
