Infrared Spectrum: 2,11-DIBENZYLBENZO[b]DIPYRIDO[3,2,1-de:1,2,3-mn]-PHENAZINE-1,12-DIONE
Formula: C36 H24 N2 O2
CAS: 105564-86-1
State: SOLID (KBr PRESSING)
Melting point: 338 C
Class: COBLENTZ
Instrument: Not specified, most likely a prism, grating, or hybrid spectrometer.
Sampling: TRANSMISSION
Resolution: 4
Origin: EASTMAN KODAK COMPANY, RESEARCH LABORATORIES, ROCHESTER, N.Y.
MICROMETERS	TRANSMITTANCE
2.173	0.262
2.21296	0.275
2.25292	0.29
2.29289	0.293
2.33285	0.307
2.37281	0.315
2.41277	0.328
2.45274	0.339
2.4927	0.318
2.53266	0.343
2.57262	0.351
2.61259	0.364
2.65255	0.389
2.69251	0.374
2.73247	0.377
2.77244	0.369
2.8124	0.343
2.85236	0.326
2.89232	0.318
2.93228	0.325
2.97225	0.361
3.01221	0.389
3.05217	0.403
3.09213	0.413
3.1321	0.418
3.17206	0.423
3.21202	0.399
3.25198	0.315
3.29195	0.269
3.33191	0.344
3.37187	0.43
3.41183	0.377
3.4518	0.426
3.49176	0.466
3.53172	0.463
3.57168	0.492
3.61165	0.512
3.65161	0.523
3.69157	0.532
3.73153	0.54
3.77149	0.533
3.81146	0.546
3.85142	0.564
3.89138	0.546
3.93134	0.571
3.97131	0.561
4.01127	0.589
4.05123	0.581
4.09119	0.607
4.13116	0.62
4.17112	0.615
4.21108	0.599
4.25104	0.596
4.29101	0.605
4.33097	0.66
4.37093	0.637
4.41089	0.656
4.45085	0.669
4.49082	0.679
4.53078	0.683
4.57074	0.674
4.6107	0.686
4.65067	0.688
4.69063	0.688
4.73059	0.691
4.77055	0.697
4.81052	0.715
4.85048	0.712
4.89044	0.722
4.9304	0.738
4.97037	0.724
5.01033	0.717
5.05029	0.706
5.09025	0.686
5.13022	0.683
5.17018	0.702
5.21014	0.724
5.2501	0.732
5.29006	0.73
5.33003	0.735
5.36999	0.738
5.40995	0.73
5.44991	0.753
5.48988	0.738
5.52984	0.735
5.5698	0.74
5.60976	0.758
5.64973	0.752
5.68969	0.765
5.72965	0.771
5.76961	0.779
5.80958	0.771
5.84954	0.771
5.8895	0.771
5.92946	0.766
5.96942	0.758
6.00939	0.691
6.04935	0.517
6.08931	0.285
6.12927	0.06
6.16924	0.187
6.2092	0.055
6.24916	0.011
6.28912	0
6.32909	0.009
6.36905	0.016
6.40901	0.087
6.44897	0.247
6.48894	0.254
6.5289	0.239
6.56886	0.226
6.60882	0.351
6.64879	0.449
6.68875	0.06
6.72871	0.064
6.76867	0.295
6.80863	0.379
6.8486	0.098
6.88856	0.039
6.92852	0.039
6.96848	0.17
7.00845	0.246
7.04841	0.201
7.08837	0.346
7.12833	0.489
7.1683	0.456
7.20826	0.407
7.24822	0.239
7.28818	0.129
7.32815	0.359
7.36811	0.564
7.40807	0.489
7.44803	0.075
7.48799	0.026
7.52796	0.029
7.56792	0.027
7.60788	0.105
7.64784	0.141
7.68781	0.18
7.72777	0.152
7.76773	0.059
7.80769	0.131
7.84766	0.241
7.88762	0.354
7.92758	0.303
7.96754	0.205
8.00751	0.119
8.04747	0.197
8.08743	0.392
8.12739	0.551
8.16736	0.62
8.20732	0.661
8.24728	0.692
8.28724	0.697
8.3272	0.633
8.36717	0.456
8.40713	0.4
8.44709	0.433
8.48705	0.494
8.52702	0.513
8.56698	0.527
8.60694	0.215
8.6469	0.198
8.68687	0.402
8.72683	0.584
8.76679	0.681
8.80675	0.717
8.84672	0.701
8.88668	0.681
8.92664	0.732
8.9666	0.752
9.00656	0.753
9.04653	0.752
9.08649	0.732
9.12645	0.733
9.16641	0.719
9.20638	0.745
9.24634	0.756
9.2863	0.53
9.32626	0.372
9.36623	0.587
9.40619	0.633
9.44615	0.41
9.48611	0.344
9.52608	0.339
9.56604	0.463
9.606	0.666
9.64596	0.711
9.68593	0.627
9.72589	0.482
9.76585	0.605
9.80581	0.555
9.84577	0.372
9.88574	0.581
9.9257	0.73
9.96566	0.743
10.0056	0.745
10.0456	0.788
10.0855	0.788
10.1255	0.766
10.1655	0.758
10.2054	0.796
10.2454	0.793
10.2854	0.789
10.3253	0.758
10.3653	0.72
10.4052	0.73
10.4452	0.753
10.4852	0.791
10.5251	0.834
10.5651	0.817
10.6051	0.798
10.645	0.763
10.685	0.65
10.7249	0.669
10.7649	0.684
10.8049	0.681
10.8448	0.619
10.8848	0.651
10.9248	0.666
10.9647	0.684
11.0047	0.691
11.0446	0.556
11.0846	0.479
11.1246	0.671
11.1645	0.73
11.2045	0.733
11.2445	0.709
11.2844	0.702
11.3244	0.691
11.3643	0.681
11.4043	0.684
11.4443	0.72
11.4842	0.74
11.5242	0.738
11.5642	0.684
11.6041	0.536
11.6441	0.51
11.684	0.602
11.724	0.697
11.764	0.725
11.8039	0.74
11.8439	0.738
11.8839	0.765
11.9238	0.765
11.9638	0.76
12.0037	0.689
12.0437	0.472
12.0837	0.292
12.1236	0.431
12.1636	0.545
12.2036	0.63
12.2435	0.688
12.2835	0.714
12.3234	0.738
12.3634	0.742
12.4034	0.74
12.4433	0.743
12.4833	0.668
12.5233	0.558
12.5632	0.513
12.6032	0.377
12.6431	0.249
12.6831	0.32
12.7231	0.451
12.763	0.661
12.803	0.765
12.843	0.789
12.8829	0.784
12.9229	0.76
12.9628	0.642
13.0028	0.512
13.0428	0.382
13.0827	0.256
13.1227	0.246
13.1627	0.198
13.2026	0.121
13.2426	0.07
13.2825	0.036
13.3225	0.072
13.3625	0.045
13.4024	0.064
13.4424	0.106
13.4824	0.159
13.5223	0.203
13.5623	0.315
13.6022	0.364
13.6422	0.444
13.6822	0.515
13.7221	0.545
13.7621	0.604
13.802	0.62
13.842	0.604
13.882	0.512
13.9219	0.42
13.9619	0.397
14.0019	0.449
14.0418	0.451
14.0818	0.39
14.1217	0.272
14.1617	0.169
14.2017	0.077
14.2416	0.06
14.2816	0.062
14.3216	0.093
14.3615	0.154
14.4015	0.226
14.4414	0.346
14.4814	0.486
14.5214	0.563
14.5613	0.632
14.6013	0.692
14.6413	0.722
14.6812	0.742
14.7212	0.729
14.7611	0.725
14.8011	0.709
14.8411	0.669
14.881	0.643
14.921	0.651
14.961	0.642
15.0009	0.653
15.0409	0.72
15.0808	0.776
15.1208	0.766
15.1608	0.756
15.2007	0.77
15.2407	0.763
15.2807	0.755
15.3206	0.735
15.3606	0.684
15.4005	0.653
15.4405	0.638
15.4805	0.642
15.5204	0.671
15.5604	0.696
15.6004	0.702
15.6403	0.678
15.6803	0.663
15.7202	0.66
15.7602	0.646
15.8002	0.638
15.8401	0.622
15.8801	0.6
15.9201	0.594
15.96	0.561
16	0.553
