Infrared Spectrum: 9,9'-BIANTHRYL
Formula: C28 H18
CAS: 1055-23-8
State: SOLID (KBr PELLET)
Melting point: 360 C
Class: COBLENTZ
Instrument: Not specified, most likely a prism, grating, or hybrid spectrometer.
Sampling: TRANSMISSION
Resolution: 4
Origin: UNION CARBIDE CORPORATION (CARBON PRODUCTS DIVISION)
MICROMETERS	TRANSMITTANCE
2.013	0.231
2.04625	0.242
2.0795	0.249
2.11275	0.256
2.146	0.266
2.17925	0.268
2.2125	0.274
2.24575	0.28
2.279	0.288
2.31225	0.302
2.3455	0.316
2.37875	0.324
2.412	0.33
2.44525	0.339
2.4785	0.344
2.51175	0.351
2.545	0.351
2.57825	0.355
2.6115	0.362
2.64475	0.375
2.678	0.382
2.71125	0.386
2.7445	0.387
2.77775	0.39
2.811	0.394
2.84425	0.394
2.8775	0.395
2.91075	0.395
2.944	0.398
2.97725	0.416
3.0105	0.436
3.04375	0.44
3.077	0.455
3.11025	0.475
3.1435	0.487
3.17675	0.5
3.21	0.509
3.24325	0.495
3.2765	0.431
3.30976	0.423
3.34301	0.448
3.37626	0.492
3.40951	0.512
3.44276	0.524
3.47601	0.533
3.50926	0.536
3.54251	0.54
3.57576	0.544
3.60901	0.559
3.64226	0.569
3.67551	0.575
3.70876	0.577
3.74201	0.585
3.77526	0.593
3.80851	0.599
3.84176	0.604
3.87501	0.612
3.90826	0.615
3.94151	0.625
3.97476	0.635
4.00801	0.635
4.04126	0.64
4.07451	0.641
4.10776	0.643
4.14101	0.645
4.17426	0.645
4.20751	0.648
4.24076	0.647
4.27401	0.648
4.30726	0.649
4.34051	0.656
4.37376	0.663
4.40701	0.664
4.44026	0.672
4.47351	0.689
4.50676	0.703
4.54001	0.708
4.57326	0.711
4.60651	0.719
4.63976	0.719
4.67301	0.719
4.70626	0.72
4.73951	0.724
4.77276	0.725
4.80601	0.729
4.83926	0.732
4.87251	0.736
4.90576	0.736
4.93901	0.74
4.97226	0.752
5.00551	0.756
5.03876	0.758
5.07201	0.758
5.10526	0.76
5.13851	0.732
5.17176	0.732
5.20501	0.731
5.23826	0.739
5.27151	0.747
5.30476	0.76
5.33801	0.77
5.37126	0.776
5.40451	0.774
5.43776	0.77
5.47101	0.769
5.50426	0.761
5.53751	0.756
5.57076	0.757
5.60401	0.761
5.63726	0.76
5.67051	0.769
5.70376	0.772
5.73701	0.77
5.77026	0.77
5.80351	0.769
5.83676	0.766
5.87002	0.764
5.90327	0.766
5.93652	0.766
5.96977	0.77
6.00302	0.772
6.03627	0.772
6.06952	0.774
6.10277	0.773
6.13602	0.68
6.16927	0.689
6.20252	0.725
6.23577	0.745
6.26902	0.769
6.30227	0.778
6.33552	0.777
6.36877	0.78
6.40202	0.778
6.43527	0.785
6.46852	0.792
6.50177	0.8
6.53502	0.804
6.56827	0.769
6.60152	0.743
6.63477	0.766
6.66802	0.786
6.70127	0.789
6.73452	0.792
6.76777	0.786
6.80102	0.792
6.83427	0.805
6.86752	0.769
6.90077	0.655
6.93402	0.444
6.96727	0.651
7.00052	0.769
7.03377	0.781
7.06702	0.805
7.10027	0.812
7.13352	0.794
7.16677	0.813
7.20002	0.813
7.23327	0.817
7.26652	0.818
7.29977	0.832
7.33302	0.844
7.36627	0.85
7.39952	0.853
7.43277	0.853
7.46602	0.853
7.49927	0.852
7.53252	0.848
7.56577	0.728
7.59902	0.516
7.63227	0.56
7.66552	0.565
7.69877	0.688
7.73202	0.758
7.76527	0.777
7.79852	0.794
7.83177	0.816
7.86502	0.798
7.89827	0.75
7.93152	0.768
7.96477	0.78
7.99802	0.8
8.03127	0.829
8.06452	0.838
8.09777	0.841
8.13102	0.849
8.16427	0.83
8.19752	0.797
8.23077	0.81
8.26402	0.829
8.29727	0.841
8.33052	0.845
8.36377	0.85
8.39702	0.857
8.43028	0.862
8.46353	0.861
8.49678	0.857
8.53003	0.842
8.56328	0.828
8.59653	0.829
8.62978	0.838
8.66303	0.84
8.69628	0.817
8.72953	0.825
8.76278	0.836
8.79603	0.842
8.82928	0.85
8.86253	0.862
8.89578	0.876
8.92903	0.886
8.96228	0.892
8.99553	0.898
9.02878	0.9
9.06203	0.888
9.09528	0.888
9.12853	0.893
9.16178	0.896
9.19503	0.9
9.22828	0.902
9.26153	0.906
9.29478	0.908
9.32803	0.912
9.36128	0.912
9.39453	0.914
9.42778	0.917
9.46103	0.912
9.49428	0.912
9.52753	0.913
9.56078	0.914
9.59403	0.913
9.62728	0.914
9.66053	0.916
9.69378	0.916
9.72703	0.914
9.76028	0.912
9.79353	0.912
9.82678	0.876
9.86003	0.692
9.89328	0.548
9.92653	0.653
9.95978	0.788
9.99303	0.836
10.0263	0.854
10.0595	0.864
10.0928	0.873
10.126	0.877
10.1593	0.884
10.1925	0.882
10.2258	0.88
10.259	0.881
10.2923	0.88
10.3255	0.882
10.3588	0.885
10.392	0.861
10.4253	0.782
10.4585	0.773
10.4918	0.778
10.525	0.801
10.5583	0.837
10.5915	0.858
10.6248	0.88
10.658	0.889
10.6913	0.888
10.7245	0.881
10.7578	0.876
10.791	0.882
10.8243	0.882
10.8575	0.885
10.8908	0.885
10.924	0.885
10.9573	0.873
10.9905	0.724
11.0238	0.572
11.057	0.6
11.0903	0.716
11.1235	0.769
11.1568	0.772
11.19	0.729
11.2233	0.431
11.2565	0.347
11.2898	0.346
11.323	0.35
11.3563	0.456
11.3895	0.623
11.4228	0.719
11.456	0.772
11.4893	0.788
11.5225	0.817
11.5558	0.83
11.589	0.828
11.6223	0.749
11.6555	0.647
11.6888	0.621
11.722	0.647
11.7553	0.715
11.7885	0.731
11.8218	0.75
11.855	0.757
11.8883	0.762
11.9215	0.761
11.9548	0.719
11.988	0.703
12.0213	0.709
12.0545	0.781
12.0878	0.812
12.121	0.824
12.1543	0.849
12.1875	0.857
12.2208	0.861
12.254	0.862
12.2873	0.861
12.3205	0.861
12.3538	0.869
12.387	0.87
12.4203	0.872
12.4535	0.878
12.4868	0.878
12.52	0.884
12.5533	0.884
12.5865	0.881
12.6198	0.874
12.653	0.806
12.6863	0.553
12.7195	0.486
12.7528	0.407
12.786	0.41
12.8193	0.571
12.8525	0.676
12.8858	0.747
12.919	0.781
12.9523	0.792
12.9855	0.805
13.0188	0.812
13.052	0.814
13.0853	0.813
13.1185	0.8
13.1518	0.776
13.185	0.758
13.2183	0.744
13.2515	0.745
13.2848	0.745
13.318	0.745
13.3513	0.743
13.3845	0.743
13.4178	0.731
13.451	0.609
13.4843	0.435
13.5175	0.267
13.5508	0.229
13.584	0.199
13.6173	0.169
13.6505	0.141
13.6838	0.123
13.717	0.122
13.7503	0.122
13.7835	0.181
13.8168	0.339
13.85	0.46
13.8833	0.536
13.9165	0.589
13.9498	0.628
13.983	0.655
14.0163	0.692
14.0495	0.713
14.0828	0.74
14.116	0.75
14.1493	0.758
14.1825	0.769
14.2158	0.772
14.249	0.777
14.2823	0.778
14.3155	0.776
14.3488	0.778
14.382	0.773
14.4153	0.778
14.4485	0.778
14.4818	0.781
14.515	0.781
14.5483	0.782
14.5815	0.782
14.6148	0.782
14.648	0.784
14.6813	0.78
14.7145	0.78
14.7478	0.781
14.781	0.778
14.8143	0.77
