Infrared Spectrum: 7H-Tetrazolo[5,1-i]purine, 7-benzyl-
Formula: C12 H9 N7
CAS: 10553-44-3
State: SOLID (1 mg / 500 mg KBr DISC)
Class: COBLENTZ
Instrument: PERKIN-ELMER 221 (GRATING)
Instrument parameters: FILTER AT 2490, 980 CM^-^1. GRATING 4000-1428 CM^-^1, NaCl PRISM 1428-650 CM^-^1
Sampling: TRANSMISSION
Resolution: 2
Origin: SOUTHERN RESEARCH INSTITUTE
1/CM	TRANSMITTANCE
636	0.798
645.049	0.6383
654.099	0.8106
663.148	0.828
672.198	0.8258
681.247	0.8184
690.297	0.7487
699.346	0.4546
708.396	0.7693
717.445	0.839
726.495	0.7914
735.544	0.4539
744.594	0.6104
753.643	0.8416
762.693	0.853
771.742	0.8413
780.791	0.8139
789.841	0.8456
798.89	0.8612
807.94	0.8612
816.989	0.8644
826.039	0.8692
835.088	0.8638
844.138	0.8529
853.187	0.8607
862.237	0.8648
871.286	0.8583
880.336	0.7579
889.385	0.837
898.435	0.853
907.484	0.8627
916.534	0.8636
925.583	0.8621
934.632	0.8595
943.682	0.8559
952.731	0.8262
961.781	0.8063
970.83	0.5792
979.88	0.7246
988.929	0.847
997.979	0.8413
1007.03	0.8232
1016.08	0.698
1025.13	0.8245
1034.18	0.8462
1043.23	0.8366
1052.28	0.7349
1061.32	0.7571
1070.37	0.8063
1079.42	0.7958
1088.47	0.7899
1097.52	0.7112
1106.57	0.8439
1115.62	0.8496
1124.67	0.8493
1133.72	0.847
1142.77	0.8311
1151.82	0.7705
1160.87	0.8262
1169.92	0.7708
1178.97	0.7458
1188.02	0.7559
1197.07	0.7859
1206.12	0.6644
1215.17	0.8211
1224.22	0.8429
1233.26	0.8316
1242.31	0.6323
1251.36	0.8001
1260.41	0.8211
1269.46	0.8396
1278.51	0.8451
1287.56	0.8413
1296.61	0.8251
1305.66	0.8219
1314.71	0.8209
1323.76	0.7642
1332.81	0.7902
1341.86	0.6749
1350.91	0.4868
1359.96	0.6826
1369.01	0.657
1378.06	0.8189
1387.11	0.8099
1396.16	0.7488
1405.2	0.7984
1414.25	0.8326
1423.3	0.7991
1432.35	0.7667
1441.4	0.8282
1450.45	0.6498
1459.5	0.825
1468.55	0.8346
1477.6	0.8193
1486.65	0.7381
1495.7	0.5354
1504.75	0.8076
1513.8	0.8484
1522.85	0.8461
1531.9	0.8304
1540.95	0.8329
1550	0.843
1559.05	0.8407
1568.1	0.8368
1577.14	0.8269
1586.19	0.8101
1595.24	0.8027
1604.29	0.7942
1613.34	0.7821
1622.39	0.7645
1631.44	0.6488
1640.49	0.3288
1649.54	0.5922
1658.59	0.7994
1667.64	0.823
1676.69	0.8287
1685.74	0.8316
1694.79	0.8328
1703.84	0.8332
1712.89	0.8334
1721.94	0.8327
1730.99	0.8321
1740.04	0.8309
1749.08	0.8289
1758.13	0.8193
1767.18	0.7948
1776.23	0.7845
1785.28	0.8194
1794.33	0.832
1803.38	0.833
1812.43	0.8334
1821.48	0.8325
1830.53	0.8316
1839.58	0.8308
1848.63	0.8303
1857.68	0.8297
1866.73	0.8287
1875.78	0.8277
1884.83	0.8269
1893.88	0.8261
1902.93	0.8253
1911.97	0.8246
1921.02	0.8239
1930.07	0.8232
1939.12	0.8225
1948.17	0.8219
1957.22	0.8214
1966.27	0.8211
1975.32	0.8207
1984.37	0.8207
1993.42	0.8209
2002.47	0.8211
2011.52	0.8214
2020.57	0.8217
2029.62	0.8221
2038.67	0.8214
2047.72	0.8206
2056.77	0.8199
2065.82	0.8192
2074.87	0.8187
2083.91	0.8182
2092.96	0.8177
2102.01	0.8172
2111.06	0.8168
2120.11	0.8166
2129.16	0.8165
2138.21	0.8164
2147.26	0.8162
2156.31	0.8161
2165.36	0.8159
2174.41	0.8154
2183.46	0.8148
2192.51	0.8143
2201.56	0.8137
2210.61	0.8136
2219.66	0.8135
2228.71	0.8135
2237.76	0.8133
2246.81	0.8131
2255.85	0.8129
2264.9	0.8127
2273.95	0.8137
2283	0.8146
2292.05	0.8165
2301.1	0.8182
2310.15	0.8147
2319.2	0.8103
2328.25	0.8105
2337.3	0.8108
2346.35	0.8106
2355.4	0.8105
2364.45	0.8101
2373.5	0.8097
2382.55	0.8092
2391.6	0.8082
2400.65	0.8072
2409.7	0.8063
2418.75	0.8055
2427.79	0.8049
2436.84	0.8042
2445.89	0.8041
2454.94	0.8043
2463.99	0.8046
2473.04	0.8054
2482.09	0.8108
2491.14	0.826
2500.19	0.8062
2509.24	0.8001
2518.29	0.7992
2527.34	0.7988
2536.39	0.799
2545.44	0.7992
2554.49	0.7994
2563.54	0.7998
2572.59	0.8002
2581.64	0.7995
2590.69	0.7986
2599.73	0.797
2608.78	0.7938
2617.83	0.7898
2626.88	0.7899
2635.93	0.7895
2644.98	0.7892
2654.03	0.7891
2663.08	0.7893
2672.13	0.7895
2681.18	0.7897
2690.23	0.7897
2699.28	0.7896
2708.33	0.7895
2717.38	0.7894
2726.43	0.7885
2735.48	0.7875
2744.53	0.7864
2753.58	0.7854
2762.62	0.7851
2771.67	0.7848
2780.72	0.7845
2789.77	0.7838
2798.82	0.7829
2807.87	0.782
2816.92	0.7811
2825.97	0.7801
2835.02	0.7792
2844.07	0.7781
2853.12	0.7777
2862.17	0.7777
2871.22	0.7773
2880.27	0.7761
2889.32	0.7729
2898.37	0.7693
2907.42	0.7668
2916.47	0.7646
2925.52	0.7627
2934.56	0.7609
2943.61	0.7594
2952.66	0.7574
2961.71	0.7551
2970.76	0.7528
2979.81	0.7509
2988.86	0.7541
2997.91	0.7557
3006.96	0.7554
3016.01	0.7545
3025.06	0.7533
3034.11	0.7518
3043.16	0.7495
3052.21	0.747
3061.26	0.7407
3070.31	0.7406
3079.36	0.7177
3088.41	0.7121
3097.46	0.6449
3106.5	0.6868
3115.55	0.7562
3124.6	0.757
3133.65	0.7576
3142.7	0.7567
3151.75	0.7552
3160.8	0.7533
3169.85	0.7515
3178.9	0.7498
3187.95	0.748
3197	0.7464
3206.05	0.7453
3215.1	0.7441
3224.15	0.7429
3233.2	0.7415
3242.25	0.74
3251.3	0.7384
3260.35	0.7362
3269.4	0.7341
3278.44	0.7319
3287.49	0.7303
3296.54	0.729
3305.59	0.7276
3314.64	0.7257
3323.69	0.7238
3332.74	0.7206
3341.79	0.7163
3350.84	0.7109
3359.89	0.7049
3368.94	0.6986
3377.99	0.6933
3387.04	0.6887
3396.09	0.6846
3405.14	0.6828
3414.19	0.6813
3423.24	0.6806
3432.29	0.6801
3441.34	0.6805
3450.38	0.6808
3459.43	0.6813
3468.48	0.6822
3477.53	0.6831
3486.58	0.6846
3495.63	0.6867
3504.68	0.6887
3513.73	0.6914
3522.78	0.6953
3531.83	0.6991
3540.88	0.7028
3549.93	0.7065
3558.98	0.7106
3568.03	0.7148
3577.08	0.719
3586.13	0.7228
3595.18	0.7266
3604.23	0.7302
3613.27	0.7331
3622.32	0.7352
3631.37	0.7359
3640.42	0.7366
3649.47	0.7364
3658.52	0.7363
3667.57	0.7361
3676.62	0.7357
3685.67	0.735
3694.72	0.7343
3703.77	0.7337
3712.82	0.7333
3721.87	0.7332
3730.92	0.7331
3739.97	0.7329
3749.02	0.7326
3758.07	0.7322
3767.12	0.7319
3776.17	0.7315
3785.21	0.7311
3794.26	0.731
3803.31	0.7313
3812.36	0.7317
3821.41	0.732
3830.46	0.7324
3839.51	0.7327
3848.56	0.7321
3857.61	0.7313
3866.66	0.7305
3875.71	0.7296
3884.76	0.7289
3893.81	0.7286
3902.86	0.7283
3911.91	0.728
3920.96	0.7277
3930.01	0.7274
3939.06	0.7272
3948.11	0.7269
3957.15	0.7267
3966.2	0.7265
3975.25	0.729
3984.3	0.7261
3993.35	0.726
4002.4	0.7263
4011.45	0.7266
