Infrared Spectrum: SILANE, p-CHLOROPHENYLTRIMETHYL-
Formula: C9 H13 Cl Si
CAS: 10557-71-8
State: SOLUTION (10% CCl4 FOR 3800-1335, 10% CS2 FOR 1335-450 CM^-^1)
Class: COBLENTZ III
Instrument: DOW KBr FOREPRISM-GRATING
Instrument parameters: BLAZED AT 3.5, 12.0, 20.0 MICRON AND CHANGED AT 5.0, 7.5, 14.9 MICRON
Sampling: TRANSMISSION
Path length: 0.011 CM, 0.011 CM
Resolution: 2
Origin: DOW CHEMICAL COMPANY
1/CM	TRANSMITTANCE
449	0.8298
458	0.8296
467	0.8284
476	0.82
485	0.7657
494	0.0805
503	0.7147
512	0.8534
521	0.872
530	0.8789
539	0.88
548	0.8844
557	0.8915
566	0.8964
575	0.8991
584	0.9038
593	0.9034
602	0.9003
611	0.8868
620	0.8271
629	0.4973
638	0.8295
647	0.8337
656	0.8311
665	0.8581
674	0.8206
683	0.7569
692	0.5648
701	0.5257
710	0.726
719	0.7615
728	0.7362
737	0.0598
746	0.4006
755	0.0396
764	0.4853
773	0.6493
782	0.6758
791	0.639
800	0.4469
809	0.0002
818	0.2692
827	0.1024
836	0.0027
845	0.0031
854	0.0339
863	0.2748
872	0.49
881	0.619
890	0.7158
899	0.7678
908	0.8049
917	0.8334
926	0.8506
935	0.7922
944	0.8535
953	0.8571
962	0.8607
971	0.8567
980	0.7771
989	0.8617
998	0.834
1007	0.7467
1016	0.1356
1025	0.8543
1034	0.8636
1043	0.8523
1052	0.7618
1061	0.7818
1070	0.6981
1079	0.3332
1088	0.4455
1097	0.7885
1106	0.7234
1115	0.8049
1124	0.8175
1133	0.8333
1142	0.8639
1151	0.8683
1160	0.856
1169	0.8438
1178	0.8147
1187	0.8389
1196	0.849
1205	0.8475
1214	0.8386
1223	0.8101
1232	0.7492
1241	0.3916
1250	0.0332
1259	0.4472
1268	0.6448
1277	0.7699
1286	0.7944
1295	0.7891
1304	0.6574
1313	0.7518
1322	0.7032
1331	0.7517
1340	0.7651
1349	0.8061
1358	0.8081
1367	0.7815
1376	0.6667
1385	0.3859
1394	0.7457
1403	0.6582
1412	0.6728
1421	0.7082
1430	0.7064
1439	0.7119
1448	0.7288
1457	0.755
1466	0.7731
1475	0.7436
1484	0.2973
1493	0.6696
1502	0.6945
1511	0.6592
1520	0.6235
1529	0.5809
1538	0.5093
1547	0.4228
1556	0.333
1565	0.4803
1574	0.3334
1583	0.4654
1592	0.6353
1601	0.7108
1610	0.7195
1619	0.7601
1628	0.7925
1637	0.7689
1646	0.7721
1655	0.8302
1664	0.834
1673	0.8374
1682	0.84
1691	0.8391
1700	0.8398
1709	0.8452
1718	0.8428
1727	0.84
1736	0.8362
1745	0.8307
1754	0.8239
1763	0.8382
1772	0.8371
1781	0.8297
1790	0.7986
1799	0.8333
1808	0.8357
1817	0.8205
1826	0.8278
1835	0.8381
1844	0.8362
1853	0.8351
1862	0.832
1871	0.8147
1880	0.8167
1889	0.8178
1898	0.7682
1907	0.7972
1916	0.8327
1925	0.8308
1934	0.8228
1943	0.8207
1952	0.8284
1961	0.8325
1970	0.8399
1979	0.8386
1988	0.8261
1997	0.8316
2006	0.8345
2015	0.8362
2024	0.8377
2033	0.8385
2042	0.8393
2051	0.8402
2060	0.8401
2069	0.8397
2078	0.8392
2087	0.8368
2096	0.8341
2105	0.835
2114	0.8393
2123	0.8421
2132	0.8431
2141	0.8445
2150	0.8453
2159	0.8445
2168	0.845
2177	0.8458
2186	0.8451
2195	0.8438
2204	0.8428
2213	0.842
2222	0.8427
2231	0.8431
2240	0.8418
2249	0.8393
2258	0.8368
2267	0.8336
2276	0.8302
2285	0.8264
2294	0.8246
2303	0.8317
2312	0.8332
2321	0.8371
2330	0.8411
2339	0.8438
2348	0.8454
2357	0.8467
2366	0.8497
2375	0.8518
2384	0.8533
2393	0.8539
2402	0.8537
2411	0.8531
2420	0.857
2429	0.8578
2438	0.8573
2447	0.8565
2456	0.8557
2465	0.8545
2474	0.8521
2483	0.8487
2492	0.8485
2501	0.8518
2510	0.8556
2519	0.8585
2528	0.8589
2537	0.8584
2546	0.8567
2555	0.855
2564	0.8537
2573	0.8602
2582	0.8602
2591	0.8553
2600	0.8603
2609	0.8617
2618	0.8593
2627	0.8571
2636	0.8556
2645	0.8539
2654	0.8524
2663	0.8517
2672	0.8508
2681	0.8496
2690	0.8544
2699	0.8573
2708	0.8573
2717	0.8565
2726	0.8554
2735	0.8534
2744	0.8515
2753	0.8483
2762	0.8443
2771	0.839
2780	0.8313
2789	0.8218
2798	0.8186
2807	0.8207
2816	0.8218
2825	0.82
2834	0.8146
2843	0.8106
2852	0.8088
2861	0.8065
2870	0.7899
2879	0.7689
2888	0.7367
2897	0.6216
2906	0.7249
2915	0.7448
2924	0.7356
2933	0.69
2942	0.5801
2951	0.1867
2960	0.1752
2969	0.362
2978	0.7121
2987	0.7538
2996	0.7644
3005	0.7401
3014	0.6897
3023	0.6495
3032	0.7635
3041	0.7271
3050	0.7788
3059	0.7651
3068	0.7301
3077	0.6658
3086	0.8098
3095	0.8248
3104	0.8288
3113	0.8318
3122	0.8327
3131	0.8333
3140	0.8398
3149	0.8449
3158	0.848
3167	0.8511
3176	0.8552
3185	0.8598
3194	0.8645
3203	0.8654
3212	0.8654
3221	0.8662
3230	0.8697
3239	0.8698
3248	0.8699
3257	0.8698
3266	0.8694
3275	0.8693
3284	0.8695
3293	0.8702
3302	0.8725
3311	0.8763
3320	0.8771
3329	0.8774
3338	0.8774
3347	0.8771
3356	0.8771
3365	0.8775
3374	0.8781
3383	0.8785
3392	0.8787
3401	0.8756
3410	0.8747
3419	0.8744
3428	0.8743
3437	0.8742
3446	0.874
3455	0.8739
3464	0.8734
3473	0.8725
3482	0.8724
3491	0.8725
3500	0.8731
3509	0.8731
3518	0.8728
3527	0.8723
3536	0.8712
3545	0.8693
3554	0.8675
3563	0.8646
3572	0.8614
3581	0.8577
3590	0.8538
3599	0.8525
3608	0.8518
3617	0.8509
3626	0.845
3635	0.8461
3644	0.8514
3653	0.857
3662	0.8621
3671	0.8618
3680	0.8537
3689	0.8483
3698	0.8512
3707	0.8527
3716	0.8512
3725	0.8544
3734	0.8594
3743	0.8631
3752	0.8661
3761	0.8659
3770	0.8607
3779	0.8564
3788	0.8578
3797	0.8591
