Infrared Spectrum: 3-METHYLENECYCLOBUTANEMETHANOL
Formula: C6 H10 O
CAS: 10555-45-0
State: LIQUID
Class: COBLENTZ
Instrument: PERKIN-ELMER
Sampling: TRANSMISSION
Path length: CAPILLARY
Resolution: 4
Origin: ABBOTT LABORATORIES - WASHBURN
MICROMETERS	TRANSMITTANCE
2.048	0.874
2.08789	0.874
2.12779	0.874
2.16768	0.871
2.20758	0.874
2.24747	0.879
2.28736	0.884
2.32726	0.869
2.36715	0.8611
2.40705	0.851
2.44694	0.857
2.48683	0.866
2.52673	0.876
2.56662	0.8669
2.60652	0.8709
2.64641	0.8722
2.6863	0.876
2.7262	0.876
2.76609	0.8591
2.80599	0.8081
2.84588	0.6625
2.88577	0.4921
2.92567	0.2723
2.96556	0.1394
3.00546	0.0931
3.04535	0.066
3.08524	0.0701
3.12514	0.0958
3.16503	0.1873
3.20493	0.2997
3.24482	0.3967
3.28471	0.422
3.32461	0.5362
3.3645	0.5541
3.4044	0.2574
3.44429	0.103
3.48419	0.1187
3.52408	0.1767
3.56397	0.2742
3.60387	0.4239
3.64376	0.5856
3.68366	0.6597
3.72355	0.6782
3.76344	0.7241
3.80334	0.7438
3.84323	0.7572
3.88313	0.7741
3.92302	0.785
3.96291	0.7969
4.00281	0.811
4.0427	0.8189
4.0826	0.824
4.12249	0.8261
4.16238	0.829
4.20228	0.829
4.24217	0.829
4.28207	0.831
4.32196	0.8291
4.36185	0.829
4.40175	0.821
4.44164	0.8269
4.48154	0.824
4.52143	0.819
4.56132	0.821
4.60122	0.824
4.64111	0.819
4.68101	0.819
4.7209	0.8119
4.76079	0.809
4.80069	0.799
4.84058	0.7968
4.88048	0.794
4.92037	0.795
4.96026	0.804
5.00016	0.807
5.04005	0.8057
5.07995	0.814
5.11984	0.809
5.15973	0.812
5.19963	0.8165
5.23952	0.8166
5.27942	0.8164
5.31931	0.8134
5.3592	0.809
5.3991	0.8071
5.43899	0.8072
5.47889	0.8073
5.51878	0.8035
5.55867	0.7944
5.59857	0.7845
5.63846	0.7702
5.67836	0.7383
5.71825	0.7327
5.75814	0.7572
5.79804	0.765
5.83793	0.7541
5.87783	0.7065
5.91772	0.5864
5.95761	0.3136
5.99751	0.2572
6.0374	0.5633
6.0773	0.6604
6.11719	0.6888
6.15709	0.7274
6.19698	0.7441
6.23687	0.749
6.27677	0.7537
6.31666	0.757
6.35656	0.757
6.39645	0.7509
6.43634	0.7532
6.47624	0.74
6.51613	0.737
6.55603	0.722
6.59592	0.7099
6.63581	0.6853
6.67571	0.6631
6.7156	0.6289
6.7555	0.5748
6.79539	0.4913
6.83528	0.4186
6.87518	0.4296
6.91507	0.4164
6.95497	0.3579
6.99486	0.332
7.03475	0.316
7.07465	0.2311
7.11454	0.269
7.15444	0.3261
7.19433	0.33
7.23422	0.3763
7.27412	0.386
7.31401	0.3955
7.35391	0.4446
7.3938	0.4562
7.43369	0.4579
7.47359	0.4707
7.51348	0.5001
7.55338	0.51
7.59327	0.4748
7.63316	0.476
7.67306	0.4783
7.71295	0.5055
7.75285	0.5332
7.79274	0.5581
7.83263	0.56
7.87253	0.552
7.91242	0.5318
7.95232	0.501
7.99221	0.4996
8.0321	0.5613
8.072	0.5839
8.11189	0.5772
8.15179	0.573
8.19168	0.583
8.23157	0.5654
8.27147	0.561
8.31136	0.5858
8.35126	0.5622
8.39115	0.538
8.43104	0.5874
8.47094	0.6062
8.51083	0.6145
8.55073	0.6015
8.59062	0.5662
8.63051	0.5433
8.67041	0.5263
8.7103	0.5358
8.7502	0.5665
8.79009	0.5984
8.82999	0.616
8.86988	0.625
8.90977	0.6123
8.94967	0.5769
8.98956	0.5242
9.02946	0.4464
9.06935	0.3888
9.10924	0.3376
9.14914	0.3411
9.18903	0.3711
9.22893	0.3915
9.26882	0.4046
9.30871	0.4386
9.34861	0.4522
9.3885	0.4274
9.4284	0.373
9.46829	0.2906
9.50818	0.1804
9.54808	0.0973
9.58797	0.0632
9.62787	0.031
9.66776	0.0537
9.70765	0.1567
9.74755	0.2053
9.78744	0.1572
9.82734	0.0982
9.86723	0.1109
9.90712	0.2348
9.94702	0.3254
9.98691	0.4319
10.0268	0.4756
10.0667	0.515
10.1066	0.52
10.1465	0.497
10.1864	0.424
10.2263	0.3391
10.2662	0.2829
10.3061	0.257
10.346	0.2679
10.3859	0.3365
10.4257	0.4241
10.4656	0.5036
10.5055	0.5736
10.5454	0.6241
10.5853	0.6484
10.6252	0.663
10.6651	0.6722
10.705	0.6714
10.7449	0.668
10.7848	0.6624
10.8247	0.6526
10.8646	0.6407
10.9045	0.6244
10.9444	0.6086
10.9843	0.5879
11.0242	0.5515
11.0641	0.5128
11.1039	0.469
11.1438	0.4339
11.1837	0.4085
11.2236	0.3827
11.2635	0.3101
11.3034	0.23
11.3433	0.1549
11.3832	0.1049
11.4231	0.078
11.463	0.0632
11.5029	0.056
11.5428	0.082
11.5827	0.1847
11.6226	0.3068
11.6625	0.3967
11.7024	0.469
11.7422	0.5169
11.7821	0.5551
11.822	0.5711
11.8619	0.5876
11.9018	0.6044
11.9417	0.603
11.9816	0.6008
12.0215	0.599
12.0614	0.5987
12.1013	0.6037
12.1412	0.6122
12.1811	0.6252
12.221	0.63
12.2609	0.632
12.3008	0.6284
12.3407	0.6206
12.3806	0.622
12.4204	0.627
12.4603	0.625
12.5002	0.632
12.5401	0.63
12.58	0.6249
12.6199	0.6101
12.6598	0.612
12.6997	0.5987
12.7396	0.5853
12.7795	0.573
12.8194	0.5598
12.8593	0.5522
12.8992	0.5457
12.9391	0.541
12.979	0.536
13.0189	0.5311
13.0588	0.5378
13.0986	0.5446
13.1385	0.5493
13.1784	0.5488
13.2183	0.5515
13.2582	0.5443
13.2981	0.546
13.338	0.5465
13.3779	0.548
13.4178	0.545
13.4577	0.543
13.4976	0.5387
13.5375	0.536
13.5774	0.5317
13.6173	0.525
13.6572	0.525
13.6971	0.5143
13.737	0.515
13.7768	0.506
13.8167	0.5011
13.8566	0.496
13.8965	0.4913
13.9364	0.488
13.9763	0.484
14.0162	0.478
14.0561	0.476
14.096	0.47
14.1359	0.463
14.1758	0.4609
14.2157	0.453
14.2556	0.446
14.2955	0.4398
14.3354	0.4317
14.3753	0.424
14.4151	0.423
14.455	0.411
14.4949	0.4054
14.5348	0.4005
14.5747	0.397
14.6146	0.391
14.6545	0.389
14.6944	0.3862
14.7343	0.3763
14.7742	0.377
14.8141	0.373
14.854	0.3682
14.8939	0.3605
14.9338	0.359
14.9737	0.3592
15.0136	0.359
15.0535	0.3473
15.0933	0.3443
15.1332	0.3412
15.1731	0.3364
15.213	0.334
15.2529	0.327
15.2928	0.324
15.3327	0.324
15.3726	0.3242
15.4125	0.326
