Infrared Spectrum: 2,3-Dimethyl-2-pentene
Formula: C 7 H 14
CAS: 10574-37-5
State: gas
Instrument: HP-GC/MS/IRD
Origin: NIST Mass Spectrometry Data Center
1/CM	ABSORBANCE
550	9.57e-05
562	0.0002871
574	0.0002112
586	0.0001419
598	0.0001254
610	0.0002178
622	0.0001749
634	4.95e-05
646	0.0001221
658	0.0002046
670	0.0002211
682	0.0002805
694	0.0002244
706	0.0001947
718	0.0001518
730	0.0001782
742	0.0002343
754	0.0003465
766	0.0004785
778	0.0006435
790	0.0007326
802	0.0004719
814	0.0003003
826	0.0003102
838	0.0003498
850	0.000396
862	0.0004125
874	0.000462
886	0.0002937
898	0.0002904
910	0.0003003
922	0.0003927
934	0.0005775
946	0.0006765
958	0.0007194
970	0.0007161
982	0.0008118
994	0.0009768
1006	0.0009933
1018	0.0008646
1030	0.0008217
1042	0.0009207
1054	0.001287
1066	0.001848
1078	0.0015477
1090	0.0009438
1102	0.000693
1114	0.0007359
1126	0.0009174
1138	0.0018018
1150	0.0036564
1162	0.0043857
1174	0.0025113
1186	0.0010494
1198	0.0007029
1210	0.0006039
1222	0.0006138
1234	0.0007161
1246	0.0009141
1258	0.0010131
1270	0.0009537
1282	0.0009405
1294	0.0009702
1306	0.0011814
1318	0.001353
1330	0.0013695
1342	0.0014421
1354	0.0021417
1366	0.0037719
1378	0.0051711
1390	0.004488
1402	0.00297
1414	0.0024387
1426	0.0027357
1438	0.0034881
1450	0.0044253
1462	0.0049236
1474	0.0044187
1486	0.0032175
1498	0.0023331
1510	0.0018645
1522	0.001782
1534	0.0016665
1546	0.0015873
1558	0.0014718
1570	0.0012111
1582	0.0009933
1594	0.0007458
1606	0.0006732
1618	0.0006501
1630	0.000528
1642	0.0004917
1654	0.0005148
1666	0.0003762
1678	0.0002937
1690	0.0002409
1702	0.0002673
1714	0.0001947
1726	0.0001485
1738	0.0001815
1750	0.0001023
1762	9.57e-05
1774	0.0001221
1786	8.25e-05
1798	8.91e-05
1810	0.0001155
1822	0.0001056
1834	0.0001188
1846	9.57e-05
1858	0.0001155
1870	0.0001056
1882	0.0001188
1894	9.24e-05
1906	9.24e-05
1918	9.24e-05
1930	8.58e-05
1942	9.24e-05
1954	0.0001188
1966	7.59e-05
1978	7.59e-05
1990	4.95e-05
2002	7.59e-05
2014	5.94e-05
2026	4.95e-05
2038	8.91e-05
2050	0.0001221
2062	0.0001287
2074	6.27e-05
2086	3.3e-06
2098	5.61e-05
2110	2.64e-05
2122	5.28e-05
2134	7.92e-05
2146	2.64e-05
2158	2.97e-05
2170	3.63e-05
2182	9.9e-06
2194	0
2206	2.31e-05
2218	2.64e-05
2230	5.61e-05
2242	6.6e-05
2254	5.28e-05
2266	2.64e-05
2278	3.63e-05
2290	5.61e-05
2302	6.93e-05
2314	9.24e-05
2326	0.0001221
2338	0.0001914
2350	0.0001287
2362	0.0001617
2374	0.0001518
2386	0.0001518
2398	0.0001617
2410	0.0002079
2422	0.0001716
2434	0.0001716
2446	0.0001452
2458	0.0001386
2470	0.0001683
2482	0.000165
2494	0.0001353
2506	0.0001485
2518	0.0001749
2530	0.0002244
2542	0.0002244
2554	0.0002079
2566	0.0002112
2578	0.0001881
2590	0.0001848
2602	0.0002574
2614	0.0003234
2626	0.0003663
2638	0.0003399
2650	0.0002706
2662	0.0002541
2674	0.0003201
2686	0.000396
2698	0.0004983
2710	0.0007425
2722	0.0011616
2734	0.0016335
2746	0.0016665
2758	0.0014619
2770	0.0014223
2782	0.0015741
2794	0.0018975
2806	0.0024255
2818	0.003465
2830	0.0050094
2842	0.0079497
2854	0.0140085
2866	0.0227667
2878	0.0282282
2890	0.0269115
2902	0.0260832
2914	0.0299508
2926	0.033
2938	0.0306306
2950	0.0258027
2962	0.0284757
2974	0.0296406
2986	0.0234564
2998	0.0176319
3010	0.0153945
3022	0.0126093
3034	0.0095337
3046	0.0069729
3058	0.0048609
3070	0.0033594
3082	0.0024948
3094	0.0020031
3106	0.0015642
3118	0.0012309
3130	0.0010923
3142	0.0009108
3154	0.000891
3166	0.0007029
3178	0.0005643
3190	0.0004917
3202	0.0002904
3214	0.0002772
3226	0.0002112
3238	0.0002211
3250	0.0001881
3262	0.0002046
3274	0.0002046
3286	0.0001518
3298	0.0001485
3310	0.0001254
3322	0.0001617
3334	0.000165
3346	0.0001749
3358	0.0001122
3370	0.0002178
3382	0.0001848
3394	9.57e-05
3406	0.0001056
3418	0.0001518
3430	0.0001122
3442	0.0001056
3454	0.0001386
3466	0.0001089
3478	9.57e-05
3490	0.0001221
3502	0.000132
3514	5.61e-05
3526	1.98e-05
3538	0.000132
3550	5.61e-05
3562	8.25e-05
3574	0.0001122
3586	6.27e-05
3598	9.24e-05
3610	6.6e-05
3622	9.24e-05
3634	0.0001287
3646	0.0001485
3658	0.0001056
3670	0.0001056
3682	0.0001056
3694	9.24e-05
3706	0.0001221
3718	3.3e-05
3730	0.0001716
3742	0.0001782
3754	0.0001683
3766	0.0001188
3778	0.0001056
3790	0.0001155
3802	0.0001848
3814	0.0002178
3826	0.0001617
3838	0.0002937
