Infrared Spectrum: ETHER, 6-METHYLHEPTYL VINYL
Formula: C10 H20 O
CAS: 10573-35-0
State: LIQUID (NEAT)
Boiling point: 175-176 C
Class: COBLENTZ III
Instrument: DOW KBr FOREPRISM-GRATING
Instrument parameters: BLAZED AT 3.5, 12.0, 20.0 MICRON AND CHANGED AT 5.0, 7.5, 14.9 MICRON
Sampling: TRANSMISSION
Path length: CAPILLARY
Resolution: 2
Origin: DOW CHEMICAL COMPANY
1/CM	TRANSMITTANCE
457	0.8243
466	0.8285
475	0.8337
484	0.8394
493	0.8451
502	0.8506
511	0.8486
520	0.8478
529	0.8485
538	0.85
547	0.8534
556	0.8574
565	0.8617
574	0.8668
583	0.8707
592	0.8739
601	0.8746
610	0.8771
619	0.8842
628	0.8918
637	0.8954
646	0.8999
655	0.9024
664	0.9024
673	0.9232
682	0.935
691	0.9213
700	0.9168
709	0.9268
718	0.9274
727	0.9194
736	0.9159
745	0.9164
754	0.9165
763	0.9144
772	0.912
781	0.9031
790	0.8743
799	0.8197
808	0.6366
817	0.6483
826	0.7617
835	0.8169
844	0.857
853	0.8768
862	0.8803
871	0.8743
880	0.8678
889	0.8605
898	0.8513
907	0.841
916	0.8288
925	0.8251
934	0.811
943	0.7615
952	0.7748
961	0.6421
970	0.7184
979	0.7294
988	0.7071
997	0.7084
1006	0.7371
1015	0.7553
1024	0.7561
1033	0.7421
1042	0.7245
1051	0.7075
1060	0.6736
1069	0.6291
1078	0.602
1087	0.6525
1096	0.6556
1105	0.7067
1114	0.7037
1123	0.665
1132	0.6017
1141	0.6227
1150	0.6894
1159	0.6995
1168	0.6742
1177	0.6358
1186	0.5848
1195	0.3504
1204	0.2221
1213	0.5809
1222	0.7493
1231	0.7911
1240	0.8053
1249	0.8122
1258	0.8224
1267	0.8327
1276	0.8359
1285	0.8407
1294	0.8353
1303	0.8168
1312	0.7311
1321	0.4971
1330	0.7458
1339	0.8261
1348	0.8161
1357	0.7901
1366	0.7075
1375	0.664
1384	0.6179
1393	0.8082
1402	0.8433
1411	0.8561
1420	0.8741
1429	0.8635
1438	0.8221
1447	0.7512
1456	0.6367
1465	0.5665
1474	0.6501
1483	0.8344
1492	0.8781
1501	0.8905
1510	0.8925
1519	0.9004
1528	0.9093
1537	0.9125
1546	0.9154
1555	0.9153
1564	0.9097
1573	0.8963
1582	0.8545
1591	0.81
1600	0.5995
1609	0.4419
1618	0.5878
1627	0.6849
1636	0.6081
1645	0.6241
1654	0.6557
1663	0.7664
1672	0.8457
1681	0.8748
1690	0.8838
1699	0.8857
1708	0.8721
1717	0.839
1726	0.8193
1735	0.8234
1744	0.8473
1753	0.8698
1762	0.8832
1771	0.8947
1780	0.9025
1789	0.907
1798	0.9104
1807	0.9124
1816	0.9128
1825	0.9131
1834	0.9136
1843	0.9142
1852	0.9147
1861	0.915
1870	0.9142
1879	0.913
1888	0.9116
1897	0.9112
1906	0.9081
1915	0.9056
1924	0.9051
1933	0.9061
1942	0.9068
1951	0.9064
1960	0.9101
1969	0.9123
1978	0.9141
1987	0.9117
1996	0.9367
2005	0.9405
2014	0.9401
2023	0.9393
2032	0.9387
2041	0.9382
2050	0.9378
2059	0.9377
2068	0.9375
2077	0.9375
2086	0.9375
2095	0.9373
2104	0.9371
2113	0.9371
2122	0.9368
2131	0.9371
2140	0.9375
2149	0.938
2158	0.9386
2167	0.9392
2176	0.9397
2185	0.9399
2194	0.9401
2203	0.9405
2212	0.941
2221	0.9415
2230	0.9421
2239	0.9425
2248	0.9427
2257	0.9424
2266	0.9421
2275	0.9421
2284	0.9425
2293	0.9428
2302	0.9433
2311	0.9442
2320	0.9456
2329	0.9451
2338	0.9443
2347	0.9432
2356	0.9421
2365	0.9407
2374	0.938
2383	0.9353
2392	0.9332
2401	0.9312
2410	0.931
2419	0.9309
2428	0.931
2437	0.9311
2446	0.9311
2455	0.9304
2464	0.9295
2473	0.9287
2482	0.9278
2491	0.9267
2500	0.9254
2509	0.9241
2518	0.9225
2527	0.9251
2536	0.9268
2545	0.924
2554	0.9218
2563	0.9187
2572	0.9157
2581	0.9132
2590	0.9107
2599	0.9089
2608	0.9078
2617	0.907
2626	0.9065
2635	0.9059
2644	0.905
2653	0.904
2662	0.903
2671	0.901
2680	0.899
2689	0.896
2698	0.892
2707	0.8875
2716	0.8824
2725	0.8792
2734	0.8793
2743	0.8808
2752	0.8832
2761	0.8827
2770	0.8768
2779	0.8688
2788	0.8606
2797	0.8491
2806	0.8354
2815	0.8181
2824	0.7951
2833	0.7561
2842	0.6686
2851	0.5467
2860	0.426
2869	0.3534
2878	0.3169
2887	0.4223
2896	0.3784
2905	0.323
2914	0.2717
2923	0.2123
2932	0.202
2941	0.2257
2950	0.2272
2959	0.1342
2968	0.2821
2977	0.4567
2986	0.6641
2995	0.7276
3004	0.781
3013	0.8195
3022	0.8342
3031	0.8374
3040	0.8345
3049	0.8339
3058	0.8471
3067	0.8525
3076	0.8501
3085	0.8656
3094	0.8668
3103	0.862
3112	0.8301
3121	0.8261
3130	0.8681
3139	0.8721
3148	0.8723
3157	0.8736
3166	0.8747
3175	0.8749
3184	0.8752
3193	0.875
3202	0.8755
3211	0.8762
3220	0.8763
3229	0.8764
3238	0.8765
3247	0.8765
3256	0.8764
3265	0.8756
3274	0.8749
3283	0.8742
3292	0.8735
3301	0.8727
3310	0.8714
3319	0.8699
3328	0.8688
3337	0.8687
3346	0.8686
3355	0.8684
3364	0.868
3373	0.8673
3382	0.8667
3391	0.8661
3400	0.8653
3409	0.8642
3418	0.8632
3427	0.8621
3436	0.8614
3445	0.8606
3454	0.86
3463	0.8594
3472	0.8594
3481	0.8594
3490	0.8594
3499	0.8596
3508	0.8599
3517	0.8602
3526	0.8608
3535	0.8617
3544	0.8625
3553	0.8635
3562	0.8644
3571	0.8654
3580	0.8664
3589	0.8674
3598	0.8683
3607	0.8687
3616	0.8691
3625	0.8695
3634	0.8692
3643	0.8689
3652	0.8687
3661	0.8684
3670	0.8681
3679	0.8678
3688	0.8687
3697	0.8695
3706	0.8703
3715	0.8713
3724	0.8714
3733	0.8697
3742	0.8668
3751	0.865
3760	0.8637
3769	0.8637
3778	0.8652
3787	0.867
3796	0.8671
