Infrared Spectrum: 3-Methyl-2-hexene (c,t)
Formula: C 7 H 14
CAS: 10574-36-4
State: gas
Instrument: HP-GC/MS/IRD
Origin: NIST Mass Spectrometry Data Center
1/CM	ABSORBANCE
550	0.0002338
562	0.0001925
574	0.0001295
586	4.62e-05
598	0.0002408
610	9.87e-05
622	7.7e-05
634	7.42e-05
646	5.46e-05
658	5.67e-05
670	0.0001449
682	0.0001127
694	0.0001008
706	3.92e-05
718	0.000133
730	0.0001876
742	0.0001211
754	0.0001169
766	0.0001841
778	0.0003164
790	0.0004116
802	0.0005726
814	0.0007
826	0.0004298
838	0.0003192
850	0.0002149
862	0.0003283
874	0.0003066
886	0.0002919
898	0.0002709
910	0.0002065
922	0.0001057
934	0.0001505
946	0.0001666
958	0.0001211
970	0.0001652
982	0.000119
994	0.0001561
1006	0.0002604
1018	0.0003059
1030	0.0003374
1042	0.0002618
1054	0.0002443
1066	0.0002723
1078	0.0002478
1090	0.0002849
1102	0.0003962
1114	0.0003871
1126	0.0003479
1138	0.0002114
1150	0.0001491
1162	0.0001645
1174	0.0001267
1186	0.0002037
1198	0.0001995
1210	0.0002275
1222	0.0002268
1234	0.000231
1246	0.0002625
1258	0.0002597
1270	0.0002492
1282	0.0002457
1294	0.0002352
1306	0.0002282
1318	0.000287
1330	0.0003157
1342	0.000357
1354	0.0004256
1366	0.0005908
1378	0.000861
1390	0.0007721
1402	0.0004473
1414	0.0003801
1426	0.0004851
1438	0.0007259
1450	0.0010724
1462	0.0011501
1474	0.0009212
1486	0.0005397
1498	0.0003815
1510	0.000287
1522	0.0002429
1534	0.0002219
1546	0.0002184
1558	0.0002163
1570	0.0001757
1582	0.0002065
1594	0.0001799
1606	0.0001736
1618	0.000182
1630	0.0001456
1642	0.0001652
1654	0.000161
1666	0.0001694
1678	0.0001288
1690	0.0001302
1702	7.7e-05
1714	0.0001092
1726	8.47e-05
1738	7.91e-05
1750	0.0001015
1762	8.89e-05
1774	8.89e-05
1786	7.91e-05
1798	0.0001064
1810	9.73e-05
1822	9.31e-05
1834	0.0001232
1846	0.0001064
1858	8.19e-05
1870	8.96e-05
1882	9.66e-05
1894	8.33e-05
1906	7.14e-05
1918	5.04e-05
1930	6.72e-05
1942	5.46e-05
1954	4.76e-05
1966	6.58e-05
1978	3.92e-05
1990	6.02e-05
2002	4.41e-05
2014	6.65e-05
2026	5.32e-05
2038	4.2e-05
2050	6.51e-05
2062	5.39e-05
2074	5.04e-05
2086	2.73e-05
2098	3.01e-05
2110	3.22e-05
2122	3.71e-05
2134	3.99e-05
2146	5.25e-05
2158	3.57e-05
2170	6.72e-05
2182	4.97e-05
2194	6.02e-05
2206	4.69e-05
2218	5.25e-05
2230	6.3e-05
2242	4.13e-05
2254	3.85e-05
2266	4.62e-05
2278	4.97e-05
2290	9.8e-06
2302	1.4e-05
2314	5.11e-05
2326	4.9e-05
2338	6.65e-05
2350	5.32e-05
2362	5.18e-05
2374	5.25e-05
2386	6.65e-05
2398	7.7e-05
2410	8.47e-05
2422	7.56e-05
2434	6.37e-05
2446	7.7e-05
2458	6.93e-05
2470	5.53e-05
2482	6.16e-05
2494	5.88e-05
2506	6.51e-05
2518	7.14e-05
2530	7.07e-05
2542	7.84e-05
2554	7.56e-05
2566	6.23e-05
2578	9.87e-05
2590	8.61e-05
2602	7.07e-05
2614	0.0001008
2626	8.05e-05
2638	7.07e-05
2650	0.0001008
2662	9.1e-05
2674	0.0001148
2686	9.87e-05
2698	0.0001239
2710	0.0001645
2722	0.0001974
2734	0.0002317
2746	0.0002562
2758	0.0002205
2770	0.0002373
2782	0.0002674
2794	0.0003605
2806	0.0004284
2818	0.0005705
2830	0.0007539
2842	0.0011879
2854	0.002016
2866	0.0031297
2878	0.0039291
2890	0.0038115
2902	0.0035973
2914	0.0043099
2926	0.0055475
2938	0.0065093
2950	0.0063693
2962	0.006881
2974	0.0064379
2986	0.0039627
2998	0.0021721
3010	0.0016709
3022	0.0014343
3034	0.0013475
3046	0.0010808
3058	0.0007224
3070	0.000525
3082	0.0003563
3094	0.0003549
3106	0.0002814
3118	0.0002415
3130	0.000217
3142	0.0001519
3154	0.0001694
3166	0.0001288
3178	0.0001813
3190	9.8e-05
3202	6.72e-05
3214	4.69e-05
3226	5.39e-05
3238	0.0001127
3250	9.24e-05
3262	3.85e-05
3274	3.78e-05
3286	3.78e-05
3298	5.6e-05
3310	0.0001099
3322	0.000119
3334	4.2e-05
3346	3.57e-05
3358	8.4e-05
3370	0.0001197
3382	9.8e-05
3394	7.7e-05
3406	0.0001106
3418	0.0001253
3430	4.55e-05
3442	3.5e-05
3454	8.19e-05
3466	4.27e-05
3478	1.47e-05
3490	4.55e-05
3502	6.3e-05
3514	6.58e-05
3526	7.28e-05
3538	0.0001218
3550	6.86e-05
3562	0.0001036
3574	6.44e-05
3586	0.0001169
3598	8.05e-05
3610	7.21e-05
3622	0.0001022
3634	8.47e-05
3646	9.73e-05
3658	7.35e-05
3670	0.0001169
3682	6.44e-05
3694	0.0001148
3706	8.89e-05
3718	0.0001064
3730	3.92e-05
3742	0.0001211
3754	0.0001274
3766	0.0001134
3778	0.0001127
3790	7.35e-05
3802	0.0001127
3814	7.56e-05
3826	0.0001379
3838	9.8e-05
