Infrared Spectrum: 17Alpha-METHYL-Beta-NORTESTOSTERONE
Formula: C19 H28 O2
CAS: 10582-09-9
State: SOLID (OIL MULL)
Class: COBLENTZ III
Instrument: PERKIN-ELMER 21 (GRATING)
Instrument parameters: NaCl PRISM
Sampling: TRANSMISSION
Resolution: 2
Origin: SMITH KLINE & FRENCH LABS.
1/CM	TRANSMITTANCE
672	0.7205
681	0.7472
690	0.7725
699	0.7831
708	0.7892
717	0.7913
726	0.7981
735	0.8014
744	0.7771
753	0.8289
762	0.8209
771	0.822
780	0.8174
789	0.8539
798	0.869
807	0.8616
816	0.8512
825	0.8392
834	0.7944
843	0.7861
852	0.8235
861	0.6526
870	0.8321
879	0.845
888	0.8472
897	0.8191
906	0.7237
915	0.8124
924	0.757
933	0.6184
942	0.5253
951	0.7983
960	0.8026
969	0.7764
978	0.7803
987	0.8172
996	0.8187
1005	0.8066
1014	0.8341
1023	0.8122
1032	0.8143
1041	0.7535
1050	0.778
1059	0.7791
1068	0.7911
1077	0.7784
1086	0.7229
1095	0.6379
1104	0.4979
1113	0.7352
1122	0.6398
1131	0.7118
1140	0.6046
1149	0.5629
1158	0.5073
1167	0.6719
1176	0.7516
1185	0.734
1194	0.7657
1203	0.6983
1212	0.6197
1221	0.6386
1230	0.7266
1239	0.7586
1248	0.7511
1257	0.6648
1266	0.6944
1275	0.6589
1284	0.686
1293	0.6591
1302	0.7066
1311	0.669
1320	0.6801
1329	0.7063
1338	0.6642
1347	0.6506
1356	0.4891
1365	0.3394
1374	0.2774
1383	0.6318
1392	0.7712
1401	0.7698
1410	0.7147
1419	0.7647
1428	0.7031
1437	0.5699
1446	0.3482
1455	0.388
1464	0.4295
1473	0.6765
1482	0.7882
1491	0.8285
1500	0.8445
1509	0.8493
1518	0.848
1527	0.8457
1536	0.8429
1545	0.8389
1554	0.8333
1563	0.8265
1572	0.814
1581	0.7999
1590	0.7854
1599	0.7464
1608	0.6757
1617	0.546
1626	0.4557
1635	0.2715
1644	0.1019
1653	0.3896
1662	0.6122
1671	0.6914
1680	0.8178
1689	0.8509
1698	0.8688
1707	0.8641
1716	0.8691
1725	0.8761
1734	0.8837
1743	0.8872
1752	0.8888
1761	0.8905
1770	0.8938
1779	0.8937
1788	0.8943
1797	0.8957
1806	0.8957
1815	0.8957
1824	0.8959
1833	0.8972
1842	0.8971
1851	0.8931
1860	0.8922
1869	0.8919
1878	0.8916
1887	0.8914
1896	0.8913
1905	0.8916
1914	0.8929
1923	0.8937
1932	0.8931
1941	0.8928
1950	0.8929
1959	0.8931
1968	0.8939
1977	0.8948
1986	0.897
1995	0.8988
2004	0.8986
2013	0.8967
2022	0.8955
2031	0.8952
2040	0.895
2049	0.8946
2058	0.8937
2067	0.893
2076	0.8923
2085	0.892
2094	0.8939
2103	0.8957
2112	0.8975
2121	0.8967
2130	0.8949
2139	0.8927
2148	0.89
2157	0.8872
2166	0.885
2175	0.8833
2184	0.8846
2193	0.8885
2202	0.8899
2211	0.8881
2220	0.8857
2229	0.8834
2238	0.8825
2247	0.8823
2256	0.8827
2265	0.8832
2274	0.8833
2283	0.8831
2292	0.8828
2301	0.8823
2310	0.8817
2319	0.8812
2328	0.8805
2337	0.88
2346	0.8804
2355	0.8808
2364	0.8813
2373	0.881
2382	0.8803
2391	0.8775
2400	0.8735
2409	0.8699
2418	0.8733
2427	0.8799
2436	0.8802
2445	0.8718
2454	0.8677
2463	0.8664
2472	0.8656
2481	0.8649
2490	0.8645
2499	0.8637
2508	0.8618
2517	0.8598
2526	0.8578
2535	0.8557
2544	0.8533
2553	0.8511
2562	0.8488
2571	0.8464
2580	0.8441
2589	0.8418
2598	0.8395
2607	0.8369
2616	0.8343
2625	0.8318
2634	0.8301
2643	0.8286
2652	0.8271
2661	0.8254
2670	0.8237
2679	0.8173
2688	0.8094
2697	0.8051
2706	0.8003
2715	0.7961
2724	0.7924
2733	0.7872
2742	0.7809
2751	0.7741
2760	0.7631
2769	0.7456
2778	0.7182
2787	0.6664
2796	0.5401
2805	0.4527
2814	0.3737
2823	0.2097
2832	0.1499
2841	0.1061
2850	0.0889
2859	0.0851
2868	0.0764
2877	0.0332
2886	0.0133
2895	0.0129
2904	0.022
2913	0.0516
2922	0.0655
2931	0.183
2940	0.3555
2949	0.5269
2958	0.6889
2967	0.7482
2976	0.7833
2985	0.8159
2994	0.8377
3003	0.848
3012	0.8495
3021	0.8493
3030	0.8487
3039	0.8479
3048	0.8469
3057	0.8458
3066	0.8447
3075	0.843
3084	0.8413
3093	0.8395
3102	0.8379
3111	0.8363
3120	0.8347
3129	0.8331
3138	0.8315
3147	0.8289
3156	0.826
3165	0.8232
3174	0.8203
3183	0.817
3192	0.8137
3201	0.8104
3210	0.8071
3219	0.8032
3228	0.799
3237	0.7949
3246	0.7904
3255	0.7861
3264	0.7806
3273	0.7724
3282	0.764
3291	0.7545
3300	0.7445
3309	0.7339
3318	0.7202
3327	0.7057
3336	0.6814
3345	0.6404
3354	0.5971
3363	0.554
3372	0.5112
3381	0.4686
3390	0.4307
3399	0.4253
3408	0.4588
3417	0.5081
3426	0.5572
3435	0.606
3444	0.6546
3453	0.7029
3462	0.751
3471	0.7989
3480	0.8569
3489	0.8717
3498	0.8808
3507	0.8831
3516	0.8838
3525	0.8835
3534	0.8832
3543	0.8829
3552	0.8823
3561	0.8818
3570	0.8812
3579	0.8806
3588	0.88
3597	0.8795
3606	0.879
3615	0.8786
3624	0.8781
3633	0.8777
3642	0.8772
3651	0.8767
3660	0.8758
3669	0.8749
3678	0.8739
3687	0.8729
3696	0.872
3705	0.871
3714	0.87
3723	0.8686
3732	0.8672
3741	0.8658
3750	0.8644
3759	0.863
3768	0.8616
3777	0.8606
3786	0.8596
3795	0.8587
3804	0.8578
3813	0.8568
3822	0.856
3831	0.8556
3840	0.8552
3849	0.8548
3858	0.8544
3867	0.854
3876	0.8536
3885	0.8532
3894	0.8529
3903	0.8527
3912	0.8526
3921	0.8525
3930	0.8524
3939	0.8523
3948	0.8522
3957	0.8521
3966	0.8521
3975	0.852
3984	0.852
3993	0.8519
