Infrared Spectrum: Thiodipropanol
Formula: C 6 H 14 O 2 S
CAS: 10595-09-2
State: gas
Origin: EPA-IR VAPOR PHASE LIBRARY
1/CM	ABSORBANCE
549.8	0.002103
559.445	0.002433
569.09	0.002093
578.734	0.002283
588.379	0.001973
598.024	0.001683
607.669	0.002723
617.313	0.002093
626.958	0.002013
636.603	0.001993
646.248	0.002573
655.893	0.002123
665.537	0.002283
675.182	0.002453
684.827	0.002713
694.472	0.002483
704.116	0.002463
713.761	0.002513
723.406	0.003133
733.051	0.003193
742.695	0.003973
752.34	0.002963
761.985	0.003563
771.63	0.004103
781.275	0.003553
790.919	0.003353
800.564	0.002373
810.209	0.003313
819.854	0.003153
829.498	0.003443
839.143	0.003723
848.788	0.004653
858.433	0.005533
868.078	0.005393
877.722	0.007123
887.367	0.008673
897.012	0.011003
906.657	0.012283
916.301	0.010733
925.946	0.008733
935.591	0.006923
945.236	0.006373
954.88	0.006773
964.525	0.007303
974.17	0.009223
983.815	0.012893
993.46	0.017263
1003.1	0.024793
1012.75	0.032853
1022.39	0.039783
1032.04	0.052053
1041.68	0.069053
1051.33	0.078483
1060.97	0.063983
1070.62	0.042033
1080.26	0.026693
1089.91	0.017063
1099.55	0.012793
1109.2	0.012453
1118.84	0.010773
1128.49	0.012003
1138.13	0.014443
1147.78	0.012393
1157.42	0.012223
1167.07	0.011833
1176.71	0.012123
1186.36	0.012573
1196	0.015803
1205.64	0.018273
1215.29	0.016103
1224.93	0.019573
1234.58	0.019273
1244.22	0.021883
1253.87	0.023203
1263.51	0.021063
1273.16	0.018603
1282.8	0.018143
1292.45	0.017333
1302.09	0.014253
1311.74	0.012123
1321.38	0.011053
1331.03	0.011093
1340.67	0.011923
1350.32	0.012833
1359.96	0.012693
1369.61	0.013093
1379.25	0.015073
1388.9	0.016013
1398.54	0.013953
1408.18	0.012133
1417.83	0.012203
1427.47	0.013783
1437.12	0.015603
1446.76	0.012913
1456.41	0.008853
1466.05	0.007703
1475.7	0.008513
1485.34	0.006563
1494.99	0.003923
1504.63	0.003143
1514.28	0.002423
1523.92	0.001913
1533.57	0.001823
1543.21	0.001403
1552.86	0.001333
1562.5	0.001233
1572.15	0.001403
1581.79	0.0011416
1591.44	0.0007045
1601.08	0.0006356
1610.73	0.000912
1620.37	0.0010445
1630.01	0.001136
1639.66	0.0008169
1649.3	0.0009937
1658.95	0.0008339
1668.59	0.0008826
1678.24	0.0008287
1687.88	0.0010228
1697.53	0.0008767
1707.17	0.0008076
1716.82	0.001203
1726.46	0.0010625
1736.11	0.0009208
1745.75	0.0010289
1755.4	0.000686
1765.04	0.0009349
1774.69	0.0008812
1784.33	0.0009649
1793.98	0.0010352
1803.62	0.0007948
1813.27	0.0009928
1822.91	0.001223
1832.55	0.001136
1842.2	0.001303
1851.84	0.0008744
1861.49	0.0011298
1871.13	0.0009214
1880.78	0.0010795
1890.42	0.0010777
1900.07	0.0010687
1909.71	0.0010737
1919.36	0.001373
1929	0.001263
1938.65	0.001163
1948.29	0.001293
1957.94	0.000784
1967.58	0.0006728
1977.23	0.0008155
1986.87	0.0009616
1996.52	0.0010341
2006.16	0.0007711
2015.81	0.0008429
2025.45	0.0007572
2035.1	0.0006868
2044.74	0.001483
2054.38	0.001253
2064.03	0.001273
2073.67	0.001213
2083.32	0.001223
2092.96	0.001383
2102.61	0.0011191
2112.25	0.0010048
2121.9	0.0009157
2131.54	0.0011281
2141.19	0.0008545
2150.83	0.0005999
2160.48	0.0007064
2170.12	0.0007715
2179.77	0.0006278
2189.41	0.0009954
2199.06	0.001143
2208.7	0.00049
2218.35	0.0008747
2227.99	0.0006773
2237.64	0.0005672
2247.28	0.0005118
2256.92	0.0006619
2266.57	0.0008725
2276.21	0.0008047
2285.86	0.0008341
2295.5	0.0007742
2305.15	0.0010336
2314.79	0.0009344
2324.44	0.0006813
2334.08	0.0008054
2343.73	0.0006555
2353.37	0.0003951
2363.02	0.0006794
2372.66	0.0006941
2382.31	0.001115
2391.95	0.0008041
2401.6	0.0007162
2411.24	0.0009545
2420.89	0.0007465
2430.53	0.0006932
2440.18	0.0007589
2449.82	0.0004472
2459.47	0.0007631
2469.11	0.0007889
2478.75	0.0008509
2488.4	0.0008908
2498.04	0.0005844
2507.69	0.000825
2517.33	0.0006157
2526.98	0.0007017
2536.62	0.0010396
2546.27	0.0008232
2555.91	0.0005251
2565.56	0.0006892
2575.2	0.0001035
2584.85	0.0006165
2594.49	0.00017059
2604.14	0.0008533
2613.78	0.001223
2623.43	0.0009061
2633.07	0.000839
2642.72	0.001653
2652.36	0.0010746
2662.01	0.001593
2671.65	0.001563
2681.29	0.001743
2690.94	0.001993
2700.58	0.001863
2710.23	0.001973
2719.87	0.002683
2729.52	0.002843
2739.16	0.002863
2748.81	0.003563
2758.45	0.003383
2768.1	0.004213
2777.74	0.004043
2787.39	0.004543
2797.03	0.005083
2806.68	0.005773
2816.32	0.007213
2825.97	0.009633
2835.61	0.012773
2845.26	0.017883
2854.9	0.022143
2864.55	0.027873
2874.19	0.034343
2883.84	0.040673
2893.48	0.040683
2903.12	0.043153
2912.77	0.052983
2922.41	0.067423
2932.06	0.078003
2941.7	0.079663
2951.35	0.069373
2960.99	0.054163
2970.64	0.033893
2980.28	0.018393
2989.93	0.010143
2999.57	0.005753
3009.22	0.004553
3018.86	0.003483
3028.51	0.002653
3038.15	0.001663
3047.8	0.002033
3057.44	0.0011142
3067.09	0.001213
3076.73	0.001104
3086.38	0.0008222
3096.02	0.000935
3105.67	0.001263
3115.31	0.0006622
3124.95	0.0007133
3134.6	0.0008429
3144.24	0.000407
3153.89	0.000642
3163.53	0.0009238
3173.18	0.0010829
3182.82	0.0007212
3192.47	0.0007103
3202.11	0.0008776
3211.76	0.001163
3221.4	0.000848
3231.05	0.0009932
3240.69	0.000338
3250.34	0.0005284
3259.98	0.0007714
3269.63	0
3279.27	0.0009335
3288.92	0.0008785
3298.56	0.0004789
3308.21	0.0005345
3317.85	0.00019952
3327.49	0.0006896
3337.14	0.0004465
3346.78	0.0008455
3356.43	0.0006983
3366.07	0.0007063
3375.72	0.001363
3385.36	0.0009346
3395.01	0.001037
3404.65	0.001673
3414.3	0.001713
3423.94	0.001503
3433.59	0.001423
3443.23	0.001573
3452.88	0.001803
3462.52	0.001733
3472.17	0.001633
3481.81	0.001453
3491.46	0.002023
3501.1	0.002503
3510.75	0.002133
3520.39	0.002143
3530.04	0.003393
3539.68	0.004183
3549.32	0.005193
3558.97	0.005673
3568.61	0.005433
3578.26	0.005263
3587.9	0.005503
3597.55	0.005013
3607.19	0.004633
3616.84	0.004843
3626.48	0.005183
3636.13	0.005253
3645.77	0.008013
3655.42	0.013813
3665.06	0.018683
3674.71	0.016893
3684.35	0.010953
3694	0.006073
3703.64	0.003303
3713.29	0.002413
3722.93	0.002503
3732.58	0.001723
3742.22	0.001353
3751.86	0.001773
3761.51	0.001553
3771.15	0.001163
3780.8	0.001183
3790.44	0.001613
3800.09	0.001423
3809.73	0.0011212
3819.38	0.0009
3829.02	0.0009021
3838.67	0.001393
3848.31	0.00108
3857.96	0.0010466
3867.6	0.001513
3877.25	0.001313
3886.89	0.0010977
3896.54	0.0010474
3906.18	0.0006893
3915.83	0.001163
3925.47	0.001563
3935.12	0.0010199
3944.76	0.001473
3954.41	0.001273
3964.05	0.0009426
3973.69	0.0006464
3983.34	0.0008877
3992.98	0.0005376
