Infrared Spectrum: PHOSPHONIC ACID, CHLOROMETHYL-, BIS(2-CHLOROPHENYL) ESTER
Formula: C13 H10 Cl3 O3 P
CAS: 105972-87-0
Class: COBLENTZ
Instrument: Not specified, most likely a prism, grating, or hybrid spectrometer.
Sampling: TRANSMISSION
Path length: SMEAR
Resolution: 4
Origin: TENNESSEE EASTMAN COMPANY, RESEARCH LABORATORIES
MICROMETERS	TRANSMITTANCE
2.134	1.031
2.17397	1.031
2.21395	1.031
2.25392	1.035
2.2939	1.03
2.33387	1.03
2.37384	1.03
2.41382	1.028
2.45379	0.998
2.49377	0.988
2.53374	0.994
2.57371	1.003
2.61369	1.008
2.65366	1.008
2.69364	1.008
2.73361	1.008
2.77358	1.008
2.81356	1.008
2.85353	1
2.89351	0.961
2.93348	0.938
2.97345	0.894
3.01343	0.826
3.0534	0.765
3.09338	0.745
3.13335	0.754
3.17332	0.772
3.2133	0.757
3.25327	0.612
3.29325	0.464
3.33322	0.491
3.37319	0.508
3.41317	0.428
3.45314	0.772
3.49312	0.812
3.53309	0.817
3.57306	0.821
3.61304	0.822
3.65301	0.826
3.69299	0.826
3.73296	0.851
3.77294	0.861
3.81291	0.872
3.85288	0.874
3.89286	0.876
3.93283	0.861
3.97281	0.844
4.01278	0.851
4.05275	0.864
4.09273	0.866
4.1327	0.859
4.17268	0.847
4.21265	0.879
4.25262	0.901
4.2926	0.899
4.33257	0.892
4.37255	0.891
4.41252	0.882
4.45249	0.882
4.49247	0.876
4.53244	0.872
4.57242	0.886
4.61239	0.904
4.65236	0.889
4.69234	0.911
4.73231	0.928
4.77229	0.929
4.81226	0.929
4.85223	0.924
4.89221	0.906
4.93218	0.891
4.97216	0.887
5.01213	0.856
5.0521	0.829
5.09208	0.795
5.13205	0.749
5.17203	0.75
5.212	0.725
5.25197	0.707
5.29195	0.752
5.33192	0.754
5.3719	0.807
5.41187	0.849
5.45184	0.829
5.49182	0.797
5.53179	0.779
5.57177	0.719
5.61174	0.715
5.65171	0.792
5.69169	0.827
5.73166	0.826
5.77164	0.801
5.81161	0.734
5.85158	0.7
5.89156	0.688
5.93153	0.688
5.97151	0.697
6.01148	0.725
6.05145	0.75
6.09143	0.752
6.1314	0.752
6.17138	0.734
6.21135	0.698
6.25132	0.617
6.2913	0.26
6.33127	0.053
6.37125	0.426
6.41122	0.63
6.45119	0.705
6.49117	0.71
6.53114	0.675
6.57112	0.622
6.61109	0.493
6.65106	0.312
6.69104	0.132
6.73101	0.035
6.77099	0.021
6.81096	0.068
6.85094	0.168
6.89091	0.058
6.93088	0.078
6.97086	0.306
7.01083	0.416
7.05081	0.481
7.09078	0.496
7.13075	0.322
7.17073	0.178
7.2107	0.337
7.25068	0.566
7.29065	0.65
7.33062	0.688
7.3706	0.695
7.41057	0.697
7.45055	0.698
7.49052	0.698
7.53049	0.697
7.57047	0.695
7.61044	0.678
7.65042	0.488
7.69039	0.317
7.73036	0.255
7.77034	0.257
7.81031	0.307
7.85029	0.369
7.89026	0.344
7.93023	0.279
7.97021	0.351
8.01018	0.387
8.05016	0.307
8.09013	0.262
8.1301	0.26
8.17008	0.262
8.21005	0.24
8.25003	0.222
8.29	0.232
8.32997	0.304
8.36995	0.354
8.40992	0.418
8.4499	0.528
8.48987	0.603
8.52984	0.627
8.56982	0.588
8.60979	0.528
8.64977	0.602
8.68974	0.678
8.72971	0.67
8.76969	0.565
8.80966	0.451
8.84964	0.439
8.88961	0.543
8.92958	0.625
8.96956	0.702
9.00953	0.755
9.04951	0.767
9.08948	0.769
9.12945	0.77
9.16943	0.765
9.2094	0.747
9.24938	0.697
9.28935	0.602
9.32932	0.436
9.3693	0.316
9.40927	0.28
9.44925	0.28
9.48922	0.414
9.52919	0.535
9.56917	0.555
9.60914	0.446
9.64912	0.362
9.68909	0.392
9.72906	0.489
9.76904	0.566
9.80901	0.618
9.84899	0.625
9.88896	0.612
9.92894	0.596
9.96891	0.603
10.0089	0.591
10.0489	0.566
10.0888	0.521
10.1288	0.473
10.1688	0.421
10.2088	0.369
10.2487	0.327
10.2887	0.292
10.3287	0.264
10.3686	0.244
10.4086	0.225
10.4486	0.215
10.4886	0.202
10.5285	0.198
10.5685	0.198
10.6085	0.193
10.6485	0.193
10.6884	0.192
10.7284	0.192
10.7684	0.193
10.8084	0.198
10.8483	0.212
10.8883	0.242
10.9283	0.28
10.9683	0.324
11.0082	0.361
11.0482	0.397
11.0882	0.441
11.1282	0.476
11.1681	0.505
11.2081	0.543
11.2481	0.565
11.2881	0.586
11.328	0.61
11.368	0.628
11.408	0.642
11.4479	0.648
11.4879	0.65
11.5279	0.637
11.5679	0.595
11.6078	0.556
11.6478	0.54
11.6878	0.54
11.7278	0.565
11.7677	0.596
11.8077	0.6
11.8477	0.565
11.8877	0.491
11.9276	0.386
11.9676	0.304
12.0076	0.247
12.0476	0.219
12.0875	0.21
12.1275	0.21
12.1675	0.222
12.2075	0.24
12.2474	0.264
12.2874	0.301
12.3274	0.339
12.3674	0.403
12.4073	0.471
12.4473	0.546
12.4873	0.583
12.5272	0.603
12.5672	0.605
12.6072	0.598
12.6472	0.548
12.6871	0.481
12.7271	0.384
12.7671	0.284
12.8071	0.215
12.847	0.177
12.887	0.158
12.927	0.15
12.967	0.145
13.0069	0.138
13.0469	0.135
13.0869	0.133
13.1269	0.132
13.1668	0.132
13.2068	0.132
13.2468	0.132
13.2868	0.132
13.3267	0.132
13.3667	0.138
13.4067	0.152
13.4466	0.18
13.4866	0.219
13.5266	0.279
13.5666	0.359
13.6065	0.411
13.6465	0.469
13.6865	0.508
13.7265	0.526
13.7664	0.526
13.8064	0.488
13.8464	0.429
13.8864	0.357
13.9263	0.317
13.9663	0.301
14.0063	0.297
14.0463	0.299
14.0862	0.324
14.1262	0.362
14.1662	0.376
14.2062	0.377
14.2461	0.367
14.2861	0.357
14.3261	0.359
14.3661	0.377
14.406	0.418
14.446	0.453
14.486	0.488
14.5259	0.518
14.5659	0.553
14.6059	0.59
14.6459	0.612
14.6858	0.625
14.7258	0.622
14.7658	0.583
14.8058	0.543
14.8457	0.521
14.8857	0.508
14.9257	0.516
14.9657	0.556
15.0056	0.595
15.0456	0.61
15.0856	0.615
15.1256	0.642
15.1655	0.693
15.2055	0.75
15.2455	0.78
15.2855	0.821
15.3254	0.849
15.3654	0.861
15.4054	0.872
15.4454	0.881
15.4853	0.889
15.5253	0.896
15.5653	0.899
15.6052	0.901
15.6452	0.901
15.6852	0.904
15.7252	0.908
15.7651	0.909
15.8051	0.911
15.8451	0.913
15.8851	0.914
15.925	0.914
15.965	0.916
