Infrared Spectrum: 3-Acetyl-2,5-dimethylfuran
Formula: C 8 H 10 O 2
CAS: 10599-70-9
State: gas
Origin: EPA-IR VAPOR PHASE LIBRARY
1/CM	ABSORBANCE
549.9	0.0018592
559.547	0.0022124
569.193	0.0027306
578.84	0.0034
588.486	0.00582
598.133	0.01045
607.779	0.01331
617.426	0.01246
627.072	0.01671
636.719	0.0251
646.365	0.02119
656.012	0.00645
665.658	0.00465
675.305	0.00702
684.951	0.00459
694.598	0.0025893
704.245	0.0017041
713.891	0.001514
723.538	0.0018532
733.184	0.0023244
742.831	0.0026845
752.477	0.0023819
762.124	0.0022232
771.77	0.00349
781.417	0.00906
791.063	0.01649
800.71	0.01344
810.356	0.00903
820.003	0.00672
829.649	0.0044
839.296	0.00294
848.943	0.0020006
858.589	0.00175201
868.236	0.00179352
877.882	0.0019639
887.529	0.0025093
897.175	0.0035
906.822	0.0068
916.468	0.01643
926.115	0.03071
935.761	0.04548
945.408	0.04019
955.054	0.02223
964.701	0.0124
974.347	0.01241
983.994	0.01444
993.64	0.01678
1003.29	0.01956
1012.93	0.01988
1022.58	0.01582
1032.23	0.01359
1041.87	0.01638
1051.52	0.01903
1061.17	0.0153
1070.81	0.00868
1080.46	0.00562
1090.11	0.00443
1099.75	0.00395
1109.4	0.00413
1119.05	0.00494
1128.69	0.0076
1138.34	0.0109
1147.99	0.00909
1157.63	0.00526
1167.28	0.00596
1176.92	0.01326
1186.57	0.03012
1196.22	0.0444
1205.86	0.04416
1215.51	0.04447
1225.16	0.06025
1234.8	0.05718
1244.45	0.03367
1254.1	0.02318
1263.74	0.02685
1273.39	0.03129
1283.04	0.023
1292.68	0.01027
1302.33	0.00826
1311.98	0.00771
1321.62	0.00787
1331.27	0.00956
1340.92	0.01358
1350.56	0.02174
1360.21	0.03299
1369.86	0.03912
1379.5	0.04095
1389.15	0.04298
1398.79	0.05325
1408.44	0.04619
1418.09	0.02335
1427.73	0.01643
1437.38	0.01712
1447.03	0.01619
1456.67	0.0136
1466.32	0.01163
1475.97	0.01003
1485.61	0.0097
1495.26	0.00987
1504.91	0.01042
1514.55	0.01133
1524.2	0.01327
1533.85	0.01757
1543.49	0.02703
1553.14	0.04774
1562.79	0.08108
1572.43	0.09825
1582.08	0.0829
1591.73	0.04847
1601.37	0.02622
1611.02	0.01996
1620.67	0.01481
1630.31	0.01022
1639.96	0.01066
1649.6	0.01195
1659.25	0.01491
1668.9	0.02728
1678.54	0.07245
1688.19	0.14726
1697.84	0.14584
1707.48	0.06207
1717.13	0.01685
1726.78	0.0092
1736.42	0.00844
1746.07	0.00812
1755.72	0.00587
1765.36	0.00408
1775.01	0.00299
1784.66	0.0024538
1794.3	0.0021539
1803.95	0.001976
1813.6	0.0019555
1823.24	0.0019819
1832.89	0.0020621
1842.54	0.0021104
1852.18	0.0022508
1861.83	0.0022608
1871.47	0.002209
1881.12	0.0021267
1890.77	0.0020526
1900.41	0.0019051
1910.06	0.0019535
1919.71	0.0018733
1929.35	0.00173
1939	0.001635
1948.65	0.001574
1958.29	0.001538
1967.94	0.001545
1977.59	0.001633
1987.23	0.00181251
1996.88	0.0018477
2006.53	0.00183109
2016.17	0.0016967
2025.82	0.001556
2035.47	0.00143
2045.11	0.001402
2054.76	0.001287
2064.41	0.001304
2074.05	0.001304
2083.7	0.001324
2093.35	0.001276
2102.99	0.001359
2112.64	0.001386
2122.28	0.001507
2131.93	0.001604
2141.58	0.0016862
2151.22	0.001563
2160.87	0.0016
2170.52	0.001614
2180.16	0.0016516
2189.81	0.001602
2199.46	0.001568
2209.1	0.001563
2218.75	0.001499
2228.4	0.001481
2238.04	0.001409
2247.69	0.001434
2257.34	0.001427
2266.98	0.001497
2276.63	0.00163
2286.28	0.0018897
2295.92	0.0019591
2305.57	0.0020102
2315.22	0.0019591
2324.86	0.0020066
2334.51	0.0019441
2344.16	0.0021205
2353.8	0.002197
2363.45	0.0021405
2373.09	0.0019976
2382.74	0.0018076
2392.39	0.0016925
2402.03	0.001619
2411.68	0.001625
2421.33	0.0016452
2430.97	0.0016601
2440.62	0.0017182
2450.27	0.00177926
2459.91	0.0017139
2469.56	0.0016879
2479.21	0.001553
2488.85	0.001426
2498.5	0.001385
2508.15	0.001425
2517.79	0.001368
2527.44	0.001464
2537.09	0.001421
2546.73	0.001482
2556.38	0.001503
2566.03	0.001507
2575.67	0.001456
2585.32	0.001481
2594.96	0.001512
2604.61	0.001498
2614.26	0.001467
2623.9	0.001534
2633.55	0.001449
2643.2	0.001324
2652.84	0.001275
2662.49	0.001298
2672.14	0.001333
2681.78	0.001302
2691.43	0.001285
2701.08	0.001271
2710.72	0.00128
2720.37	0.001415
2730.02	0.001626
2739.66	0.0018651
2749.31	0.0023871
2758.96	0.0024595
2768.6	0.0020887
2778.25	0.002032
2787.9	0.0020123
2797.54	0.0020405
2807.19	0.0023343
2816.84	0.0027007
2826.48	0.00342
2836.13	0.00432
2845.77	0.00542
2855.42	0.00704
2865.07	0.00886
2874.71	0.00979
2884.36	0.00974
2894.01	0.00991
2903.65	0.01068
2913.3	0.01316
2922.95	0.02252
2932.59	0.03517
2942.24	0.03267
2951.89	0.02026
2961.53	0.01794
2971.18	0.01605
2980.83	0.01285
2990.47	0.01099
3000.12	0.01113
3009.77	0.0115
3019.41	0.00967
3029.06	0.00677
3038.71	0.00569
3048.35	0.00535
3058	0.00537
3067.64	0.00527
3077.29	0.00477
3086.94	0.00414
3096.58	0.00366
3106.23	0.00371
3115.88	0.00425
3125.52	0.00403
3135.17	0.0023478
3144.82	0.001273
3154.46	0.000833
3164.11	0.000786
3173.76	0.00049
3183.4	0.0003
3193.05	0.00032
3202.7	0.00033
3212.34	0.00047
3221.99	0.00016
3231.64	5e-05
3241.28	0.00027
3250.93	0.00033
3260.58	0.00026
3270.22	0.00025
3279.87	0.00031
3289.52	0.00015
3299.16	0.00037
3308.81	0.0003
3318.45	0.00024
3328.1	0.00024
3337.75	0.00043
3347.39	0.000996
3357.04	0.0017231
3366.69	0.002203
3376.33	0.0020661
3385.98	0.001156
3395.63	0.00024
3405.27	0.00019
3414.92	0.00035
3424.57	0.00029
3434.21	0.0003
3443.86	0.00027
3453.51	0.00036
3463.15	0.00039
3472.8	0.00022
3482.45	0.00021
3492.09	0.0003
3501.74	0.00025
3511.39	0.00048
3521.03	0.00039
3530.68	0.0005
3540.33	0.00052
3549.97	0.00037
3559.62	0.00041
3569.26	0.00038
3578.91	0.00049
3588.56	0.00038
3598.2	0.00048
3607.85	0.00036
3617.5	0.0004
3627.14	0.00042
3636.79	0.00051
3646.44	0.00043
3656.08	0.00054
3665.73	0.00041
3675.38	0.00051
3685.02	0.00067
3694.67	0.00049
3704.32	0.00056
3713.96	0.00067
3723.61	0.00061
3733.26	0.000778
3742.9	0.00055
3752.55	0.00057
3762.2	0.000789
3771.84	0.00073
3781.49	0.00071
3791.13	0.00067
3800.78	0.000812
3810.43	0.000781
3820.07	0.00055
3829.72	0.00063
3839.37	0.000814
3849.01	0.000762
3858.66	0.000952
3868.31	0.000902
3877.95	0.000913
3887.6	0.000896
3897.25	0.000881
3906.89	0.00094
3916.54	0.001012
3926.19	0.001025
3935.83	0.001087
3945.48	0.001053
3955.13	0.000981
3964.77	0.001097
3974.42	0.001103
3984.07	0.001149
3993.71	0.000998
