Infrared Spectrum: 2-Phenoxyethyl methacrylate
Formula: C 12 H 14 O 3
CAS: 10595-06-9
State: gas
Origin: EPA-IR VAPOR PHASE LIBRARY
1/CM	ABSORBANCE
549.9	0.00733
559.547	0.00745
569.193	0.00799
578.84	0.00976
588.486	0.01114
598.133	0.01026
607.779	0.00874
617.426	0.00699
627.072	0.00631
636.719	0.00773
646.365	0.01013
656.012	0.01255
665.658	0.01494
675.305	0.02064
684.951	0.03521
694.598	0.03429
704.245	0.0195
713.891	0.01272
723.538	0.01206
733.184	0.01951
742.831	0.0429
752.477	0.06102
762.124	0.04209
771.77	0.02892
781.417	0.02142
791.063	0.01808
800.71	0.01948
810.356	0.02433
820.003	0.0234
829.649	0.01868
839.296	0.01485
848.943	0.01311
858.589	0.01246
868.236	0.01368
877.882	0.01725
887.529	0.01964
897.175	0.02032
906.822	0.02626
916.468	0.03743
926.115	0.04798
935.761	0.05133
945.408	0.04862
955.054	0.03933
964.701	0.02607
974.347	0.01949
983.994	0.0199
993.64	0.02446
1003.29	0.02998
1012.93	0.038
1022.58	0.04087
1032.23	0.04224
1041.87	0.05717
1051.52	0.06301
1061.17	0.05845
1070.81	0.0575
1080.46	0.04961
1090.11	0.03616
1099.75	0.03108
1109.4	0.03574
1119.05	0.04864
1128.69	0.07941
1138.34	0.16497
1147.99	0.37025
1157.63	0.55661
1167.28	0.41573
1176.92	0.21145
1186.57	0.11549
1196.22	0.08046
1205.86	0.08454
1215.51	0.12531
1225.16	0.1543
1234.8	0.18035
1244.45	0.19277
1254.1	0.13197
1263.74	0.08605
1273.39	0.08626
1283.04	0.12038
1292.68	0.1567
1302.33	0.1302
1311.98	0.11484
1321.62	0.0891
1331.27	0.05343
1340.92	0.03797
1350.56	0.02587
1360.21	0.02234
1369.86	0.02388
1379.5	0.02574
1389.15	0.02737
1398.79	0.03468
1408.44	0.04163
1418.09	0.03117
1427.73	0.02544
1437.38	0.0296
1447.03	0.04054
1456.67	0.06227
1466.32	0.06307
1475.97	0.0591
1485.61	0.08892
1495.26	0.15772
1504.91	0.07815
1514.55	0.02475
1524.2	0.01394
1533.85	0.01069
1543.49	0.01049
1553.14	0.01216
1562.79	0.01734
1572.43	0.02935
1582.08	0.05618
1591.73	0.10081
1601.37	0.10105
1611.02	0.04444
1620.67	0.02594
1630.31	0.02543
1639.96	0.02651
1649.6	0.01808
1659.25	0.01206
1668.9	0.01099
1678.54	0.01262
1688.19	0.01616
1697.84	0.02098
1707.48	0.02958
1717.13	0.05548
1726.78	0.12361
1736.42	0.2181
1746.07	0.19755
1755.72	0.10102
1765.36	0.04326
1775.01	0.02188
1784.66	0.01577
1794.3	0.01319
1803.95	0.01016
1813.6	0.00776
1823.24	0.00692
1832.89	0.00693
1842.54	0.0068
1852.18	0.0069
1861.83	0.00695
1871.47	0.00712
1881.12	0.00745
1890.77	0.00684
1900.41	0.00637
1910.06	0.00674
1919.71	0.00751
1929.35	0.00725
1939	0.00722
1948.65	0.00602
1958.29	0.00519
1967.94	0.00533
1977.59	0.00589
1987.23	0.00637
1996.88	0.00646
2006.53	0.00625
2016.17	0.00592
2025.82	0.00559
2035.47	0.00527
2045.11	0.00495
2054.76	0.00478
2064.41	0.00482
2074.05	0.00472
2083.7	0.00446
2093.35	0.0042264
2102.99	0.0039513
2112.64	0.0037095
2122.28	0.00350021
2131.93	0.0033623
2141.58	0.003265
2151.22	0.003042
2160.87	0.002854
2170.52	0.002736
2180.16	0.00264
2189.81	0.002542
2199.46	0.002528
2209.1	0.002504
2218.75	0.002521
2228.4	0.002554
2238.04	0.002625
2247.69	0.002754
2257.34	0.00283
2266.98	0.003099
2276.63	0.003086
2286.28	0.003138
2295.92	0.003286
2305.57	0.0036417
2315.22	0.003716
2324.86	0.0036649
2334.51	0.0034044
2344.16	0.003155
2353.8	0.002974
2363.45	0.002927
2373.09	0.002969
2382.74	0.002996
2392.39	0.002912
2402.03	0.00296
2411.68	0.002993
2421.33	0.003056
2430.97	0.003117
2440.62	0.003262
2450.27	0.003263
2459.91	0.003265
2469.56	0.003219
2479.21	0.003243
2488.85	0.003178
2498.5	0.002975
2508.15	0.00294
2517.79	0.003086
2527.44	0.003221
2537.09	0.003218
2546.73	0.00327
2556.38	0.003123
2566.03	0.002794
2575.67	0.002627
2585.32	0.00241
2594.96	0.00225
2604.61	0.00212
2614.26	0.00208
2623.9	0.00201
2633.55	0.00188
2643.2	0.00168
2652.84	0.00169
2662.49	0.00177
2672.14	0.00171
2681.78	0.00177
2691.43	0.0019
2701.08	0.00201
2710.72	0.00215
2720.37	0.002524
2730.02	0.003042
2739.66	0.003331
2749.31	0.003216
2758.96	0.002948
2768.6	0.002815
2778.25	0.002884
2787.9	0.002978
2797.54	0.00302
2807.19	0.003126
2816.84	0.0033607
2826.48	0.0040213
2836.13	0.00473
2845.77	0.00599
2855.42	0.00841
2865.07	0.0128
2874.71	0.0191
2884.36	0.02275
2894.01	0.02283
2903.65	0.02148
2913.3	0.02246
2922.95	0.02848
2932.59	0.03762
2942.24	0.04504
2951.89	0.04713
2961.53	0.04888
2971.18	0.0451
2980.83	0.04277
2990.47	0.04099
3000.12	0.03038
3009.77	0.02224
3019.41	0.01896
3029.06	0.02127
3038.71	0.02768
3048.35	0.03019
3058	0.02476
3067.64	0.02865
3077.29	0.03366
3086.94	0.02576
3096.58	0.02144
3106.23	0.01918
3115.88	0.01109
3125.52	0.0042723
3135.17	0.00205
3144.82	0.00128
3154.46	0.00082
3164.11	0.0004
3173.76	0.00041
3183.4	0.00043
3193.05	0.00039
3202.7	0.00037
3212.34	0.0001
3221.99	0.00014
3231.64	0.00013
3241.28	0
3250.93	0.00022
3260.58	0.00026
3270.22	0.00023
3279.87	0.00022
3289.52	0.00044
3299.16	0.00024
3308.81	8e-05
3318.45	0.00038
3328.1	0.00044
3337.75	0.00051
3347.39	0.00069
3357.04	0.00062
3366.69	0.00083
3376.33	0.00077
3385.98	0.001
3395.63	0.0007
3405.27	0.00071
3414.92	0.00107
3424.57	0.00111
3434.21	0.00143
3443.86	0.00214
3453.51	0.002621
3463.15	0.003115
3472.8	0.002733
3482.45	0.00194
3492.09	0.00173
3501.74	0.00118
3511.39	0.00118
3521.03	0.00112
3530.68	0.00115
3540.33	0.00126
3549.97	0.00115
3559.62	0.00127
3569.26	0.00118
3578.91	0.00135
3588.56	0.00132
3598.2	0.00132
3607.85	0.00148
3617.5	0.00159
3627.14	0.00156
3636.79	0.00154
3646.44	0.00174
3656.08	0.00161
3665.73	0.00161
3675.38	0.00156
3685.02	0.00168
3694.67	0.00164
3704.32	0.00172
3713.96	0.00165
3723.61	0.00153
3733.26	0.00164
3742.9	0.00182
3752.55	0.00159
3762.2	0.00166
3771.84	0.00164
3781.49	0.00176
3791.13	0.00176
3800.78	0.00185
3810.43	0.00167
3820.07	0.00185
3829.72	0.0019
3839.37	0.00183
3849.01	0.00186
3858.66	0.00196
3868.31	0.00183
3877.95	0.00174
3887.6	0.00195
3897.25	0.002
3906.89	0.00183
3916.54	0.00187
3926.19	0.00203
3935.83	0.00206
3945.48	0.00204
3955.13	0.0022
3964.77	0.00225
3974.42	0.0022
3984.07	0.00232
3993.71	0.00237
