Infrared Spectrum: PIPERAZINE, 1,4-BIS-(2,3-EPOXYPROPYL)-2,5-DIMETHYL-
Formula: C12 H22 N2 O2
CAS: 105911-04-4
State: LIQUID (NEAT)
Class: COBLENTZ III
Instrument: BAIRD (GRATING)
Instrument parameters: NaCl PRISM
Sampling: TRANSMISSION
Path length: 0.003 CM
Resolution: 2
Origin: WYANDOTTE CHEMICALS CORP.
1/CM	TRANSMITTANCE
4000	0.938
3991	0.9382
3982	0.9383
3973	0.9385
3964	0.9386
3955	0.9389
3946	0.939
3937	0.9391
3928	0.9392
3919	0.9393
3910	0.9406
3901	0.9425
3892	0.9443
3883	0.9466
3874	0.9492
3865	0.9518
3856	0.9544
3847	0.9568
3838	0.9592
3829	0.9615
3820	0.9635
3811	0.9642
3802	0.9649
3793	0.9645
3784	0.9632
3775	0.962
3766	0.9608
3757	0.9596
3748	0.9583
3739	0.957
3730	0.9552
3721	0.9534
3712	0.9516
3703	0.9498
3694	0.9475
3685	0.9445
3676	0.9414
3667	0.9382
3658	0.9348
3649	0.9302
3640	0.9255
3631	0.9206
3622	0.9159
3613	0.9121
3604	0.9084
3595	0.9047
3586	0.9011
3577	0.9002
3568	0.9002
3559	0.9002
3550	0.9
3541	0.8992
3532	0.8982
3523	0.8968
3514	0.895
3505	0.8931
3496	0.8911
3487	0.8892
3478	0.8871
3469	0.8862
3460	0.886
3451	0.8858
3442	0.8856
3433	0.8855
3424	0.8856
3415	0.8858
3406	0.8859
3397	0.8859
3388	0.8853
3379	0.8837
3370	0.8813
3361	0.879
3352	0.8768
3343	0.875
3334	0.8732
3325	0.8718
3316	0.8715
3307	0.8712
3298	0.8709
3289	0.8706
3280	0.8704
3271	0.8699
3262	0.8692
3253	0.8685
3244	0.8678
3235	0.8675
3226	0.8671
3217	0.8667
3208	0.8664
3199	0.866
3190	0.8655
3181	0.8648
3172	0.8637
3163	0.862
3154	0.8587
3145	0.8528
3136	0.8399
3127	0.8124
3118	0.7334
3109	0.6458
3100	0.5576
3091	0.5371
3082	0.5658
3073	0.5895
3064	0.5259
3055	0.443
3046	0.3597
3037	0.2758
3028	0.1915
3019	0.1085
3010	0.0946
3001	0.0968
2992	0.1087
2983	0.1355
2974	0.1435
2965	0.1492
2956	0.1571
2947	0.1673
2938	0.1815
2929	0.1984
2920	0.2223
2911	0.2461
2902	0.2721
2893	0.2975
2884	0.2978
2875	0.2741
2866	0.2325
2857	0.1907
2848	0.1485
2839	0.1061
2830	0.0824
2821	0.0842
2812	0.0942
2803	0.1421
2794	0.2788
2785	0.3537
2776	0.3816
2767	0.4504
2758	0.5112
2749	0.5632
2740	0.6155
2731	0.668
2722	0.721
2713	0.7671
2704	0.7721
2695	0.7782
2686	0.7875
2677	0.7982
2668	0.8117
2659	0.8275
2650	0.837
2641	0.8391
2632	0.8418
2623	0.8468
2614	0.8539
2605	0.8621
2596	0.8715
2587	0.8818
2578	0.8928
2569	0.9044
2560	0.9166
2551	0.9278
2542	0.9353
2533	0.9394
2524	0.9436
2515	0.9524
2506	0.9648
2497	0.9752
2488	0.9765
2479	0.973
2470	0.9701
2461	0.9677
2452	0.9667
2443	0.9656
2434	0.9649
2425	0.9647
2416	0.9645
2407	0.9655
2398	0.9666
2389	0.9675
2380	0.9688
2371	0.9699
2362	0.971
2353	0.9717
2344	0.9721
2335	0.9725
2326	0.9728
2317	0.9721
2308	0.9703
2299	0.9671
2290	0.9639
2281	0.9606
2272	0.9578
2263	0.9561
2254	0.9555
2245	0.9559
2236	0.9567
2227	0.9585
2218	0.9605
2209	0.9608
2200	0.9621
2191	0.9645
2182	0.9696
2173	0.9744
2164	0.9747
2155	0.9728
2146	0.9753
2137	0.9787
2128	0.9821
2119	0.9851
2110	0.9877
2101	0.9871
2092	0.9858
2083	0.9862
2074	0.987
2065	0.9878
2056	0.986
2047	0.9839
2038	0.9808
2029	0.9775
2020	0.9788
2011	0.9824
2002	0.9844
1993	0.983
1984	0.9839
1975	0.9847
1966	0.9856
1957	0.9851
1948	0.9874
1939	0.9883
1930	0.9893
1921	0.9905
1912	0.9917
1903	0.9931
1894	0.994
1885	0.9944
1876	0.9934
1867	0.9925
1858	0.9917
1849	0.9906
1840	0.9891
1831	0.9888
1822	0.99
1813	0.9911
1804	0.9924
1795	0.9924
1786	0.9918
1777	0.9913
1768	0.9905
1759	0.9893
1750	0.9878
1741	0.986
1732	0.984
1723	0.9811
1714	0.9775
1705	0.9739
1696	0.9627
1687	0.9403
1678	0.9003
1669	0.8689
1660	0.8613
1651	0.8804
1642	0.91
1633	0.9121
1624	0.9203
1615	0.9275
1606	0.9315
1597	0.9325
1588	0.9333
1579	0.9335
1570	0.9327
1561	0.9291
1552	0.9021
1543	0.8744
1534	0.8603
1525	0.8556
1516	0.848
1507	0.7049
1498	0.5457
1489	0.4299
1480	0.4082
1471	0.3295
1462	0.3996
1453	0.4748
1444	0.5616
1435	0.5867
1426	0.6312
1417	0.6843
1408	0.5781
1399	0.3332
1390	0.256
1381	0.2694
1372	0.3221
1363	0.4497
1354	0.2931
1345	0.2334
1336	0.3588
1327	0.5252
1318	0.5898
1309	0.5575
1300	0.552
1291	0.3457
1282	0.3739
1273	0.3407
1264	0.2634
1255	0.4583
1246	0.6639
1237	0.7588
1228	0.7418
1219	0.604
1210	0.3779
1201	0.4103
1192	0.2965
1183	0.3659
1174	0.1859
1165	0.114
1156	0.1494
1147	0.337
1138	0.4752
1129	0.609
1120	0.6141
1111	0.5386
1102	0.4332
1093	0.3364
1084	0.2798
1075	0.1515
1066	0.3662
1057	0.4719
1048	0.6186
1039	0.7158
1030	0.758
1021	0.7672
1012	0.7348
1003	0.6806
994	0.6248
985	0.476
976	0.4969
967	0.5991
958	0.5973
949	0.5453
940	0.5182
931	0.5337
922	0.2257
913	0.323
904	0.4523
895	0.6418
886	0.64
877	0.4677
868	0.3829
859	0.3015
850	0.1172
841	0.2098
832	0.1884
823	0.38
814	0.5017
805	0.5541
796	0.6396
787	0.7739
778	0.7728
769	0.5014
760	0.4682
751	0.6833
742	0.8366
733	0.9168
724	0.9405
715	0.9368
706	0.907
697	0.8601
688	0.8936
679	0.8986
670	0.9171
661	0.9143
652	0.8782
643	0.8549
634	0.8318
