Infrared Spectrum: EPICHLOROHYDRIN
Formula: C3 H5 Cl O
CAS: 106-89-8
State: LIQUID (SHELL CHEM. CO. COMM.)
Class: COBLENTZ
Instrument: Not specified, most likely a prism, grating, or hybrid spectrometer.
Sampling: TRANSMISSION
Path length: 0.003 CM
Resolution: 4
Origin: WYANDOTTE CHEMICALS CORP., WYANDOTTE, MICHIGAN, USA
MICROMETERS	TRANSMITTANCE
2.007	1
2.04679	1
2.08659	0.991
2.12638	0.965
2.16618	0.945
2.20597	0.947
2.24577	0.97
2.28556	0.933
2.32535	0.93
2.36515	0.942
2.40494	0.953
2.44474	0.952
2.48453	0.938
2.52433	0.924
2.56412	0.93
2.60391	0.927
2.64371	0.93
2.6835	0.929
2.7233	0.935
2.76309	0.933
2.80288	0.935
2.84268	0.93
2.88247	0.93
2.92227	0.932
2.96206	0.932
3.00186	0.933
3.04165	0.927
3.08144	0.914
3.12124	0.899
3.16103	0.867
3.20083	0.8
3.24062	0.455
3.28042	0.523
3.32021	0.32
3.36	0.433
3.3998	0.523
3.43959	0.778
3.47939	0.797
3.51918	0.821
3.55898	0.876
3.59877	0.899
3.63856	0.91
3.67836	0.9
3.71815	0.904
3.75795	0.899
3.79774	0.894
3.83753	0.892
3.87733	0.896
3.91712	0.899
3.95692	0.897
3.99671	0.896
4.03651	0.892
4.0763	0.892
4.11609	0.896
4.15589	0.889
4.19568	0.872
4.23548	0.879
4.27527	0.892
4.31507	0.889
4.35486	0.869
4.39465	0.815
4.43445	0.801
4.47424	0.82
4.51404	0.839
4.55383	0.841
4.59363	0.851
4.63342	0.854
4.67321	0.869
4.71301	0.877
4.7528	0.879
4.7926	0.881
4.83239	0.881
4.87219	0.881
4.91198	0.877
4.95177	0.877
4.99157	0.877
5.03136	0.863
5.07116	0.851
5.11095	0.863
5.15074	0.879
5.19054	0.869
5.23033	0.866
5.27013	0.872
5.30992	0.872
5.34972	0.872
5.38951	0.871
5.4293	0.863
5.4691	0.872
5.50889	0.866
5.54869	0.867
5.58848	0.869
5.62828	0.869
5.66807	0.867
5.70786	0.863
5.74766	0.849
5.78745	0.851
5.82725	0.851
5.86704	0.848
5.90684	0.83
5.94663	0.808
5.98642	0.813
6.02622	0.82
6.06601	0.825
6.10581	0.816
6.1456	0.821
6.1854	0.831
6.22519	0.833
6.26498	0.828
6.30478	0.818
6.34457	0.811
6.38437	0.81
6.42416	0.8
6.46395	0.773
6.50375	0.706
6.54354	0.661
6.58334	0.721
6.62313	0.716
6.66293	0.589
6.70272	0.404
6.74251	0.567
6.78231	0.633
6.8221	0.537
6.8619	0.321
6.90169	0.235
6.94149	0.122
6.98128	0.389
7.02107	0.625
7.06087	0.503
7.10066	0.267
7.14046	0.27
7.18025	0.556
7.22005	0.714
7.25984	0.749
7.29963	0.768
7.33943	0.782
7.37922	0.79
7.41902	0.792
7.45881	0.788
7.4986	0.787
7.5384	0.775
7.57819	0.732
7.61799	0.605
7.65778	0.539
7.69758	0.561
7.73737	0.506
7.77716	0.386
7.81696	0.094
7.85675	0.057
7.89655	0.069
7.93634	0.127
7.97614	0.199
8.01593	0.534
8.05572	0.645
8.09552	0.681
8.13531	0.689
8.17511	0.689
8.2149	0.663
8.2547	0.653
8.29449	0.655
8.33428	0.592
8.37408	0.625
8.41387	0.701
8.45367	0.734
8.49346	0.749
8.53326	0.752
8.57305	0.724
8.61284	0.646
8.65264	0.582
8.69243	0.534
8.73223	0.475
8.77202	0.412
8.81181	0.534
8.85161	0.612
8.8914	0.686
8.9312	0.732
8.97099	0.739
9.01079	0.714
9.05058	0.674
9.09037	0.523
9.13017	0.533
9.16996	0.64
9.20976	0.691
9.24955	0.706
9.28935	0.698
9.32914	0.706
9.36893	0.722
9.40873	0.719
9.44852	0.722
9.48832	0.747
9.52811	0.764
9.56791	0.764
9.6077	0.75
9.64749	0.742
9.68729	0.742
9.72708	0.747
9.76688	0.755
9.80667	0.764
9.84646	0.767
9.88626	0.764
9.92605	0.76
9.96585	0.755
10.0056	0.74
10.0454	0.722
10.0852	0.698
10.125	0.666
10.1648	0.636
10.2046	0.566
10.2444	0.523
10.2842	0.349
10.324	0.148
10.3638	0.056
10.4036	0.051
10.4434	0.105
10.4832	0.176
10.523	0.282
10.5628	0.405
10.6026	0.491
10.6423	0.485
10.6821	0.41
10.7219	0.245
10.7617	0.11
10.8015	0.029
10.8413	0.052
10.8811	0.202
10.9209	0.366
10.9607	0.424
11.0005	0.359
11.0403	0.27
11.0801	0.348
11.1199	0.453
11.1597	0.518
11.1995	0.542
11.2393	0.557
11.2791	0.556
11.3189	0.514
11.3586	0.496
11.3984	0.493
11.4382	0.488
11.478	0.465
11.5178	0.429
11.5576	0.367
11.5974	0.249
11.6372	0.102
11.677	0.046
11.7168	0.019
11.7566	0.021
11.7964	0.028
11.8362	0.029
11.876	0.034
11.9158	0.039
11.9556	0.047
11.9954	0.057
12.0351	0.074
12.0749	0.166
12.1147	0.32
12.1545	0.414
12.1943	0.463
12.2341	0.496
12.2739	0.516
12.3137	0.526
12.3535	0.528
12.3933	0.514
12.4331	0.49
12.4729	0.447
12.5127	0.397
12.5525	0.334
12.5923	0.257
12.6321	0.211
12.6719	0.188
12.7117	0.181
12.7514	0.174
12.7912	0.16
12.831	0.169
12.8708	0.165
12.9106	0.16
12.9504	0.166
12.9902	0.161
13.03	0.115
13.0698	0.067
13.1096	0.033
13.1494	0.036
13.1892	0.047
13.229	0.079
13.2688	0.123
13.3086	0.153
13.3484	0.16
13.3882	0.133
13.4279	0.092
13.4677	0.07
13.5075	0.059
13.5473	0.054
13.5871	0.052
13.6269	0.059
13.6667	0.062
13.7065	0.059
13.7463	0.052
13.7861	0.052
13.8259	0.049
13.8657	0.052
13.9055	0.062
13.9453	0.085
13.9851	0.128
14.0249	0.183
14.0647	0.245
14.1044	0.334
14.1442	0.417
14.184	0.466
14.2238	0.508
14.2636	0.529
14.3034	0.518
14.3432	0.47
14.383	0.424
14.4228	0.392
14.4626	0.429
14.5024	0.498
14.5422	0.562
14.582	0.605
14.6218	0.65
14.6616	0.679
14.7014	0.711
14.7412	0.724
14.781	0.734
14.8207	0.742
14.8605	0.747
14.9003	0.75
14.9401	0.75
14.9799	0.754
15.0197	0.754
15.0595	0.757
15.0993	0.759
15.1391	0.759
15.1789	0.76
15.2187	0.759
15.2585	0.759
15.2983	0.762
15.3381	0.764
15.3779	0.765
15.4177	0.764
15.4575	0.764
15.4972	0.764
15.537	0.765
15.5768	0.765
