Infrared Spectrum: p-Bromoaniline
Formula: C 6 H 6 Br N
CAS: 106-40-1
State: gas
Instrument: HP-GC/MS/IRD
Origin: NIST Mass Spectrometry Data Center
1/CM	ABSORBANCE
550	0.005365
562	0.0081055
574	0.0111505
586	0.0135285
598	0.030421
610	0.0380045
622	0.006873
634	0.0112665
646	0.0181685
658	0.0232
670	0.0273035
682	0.0311315
694	0.022678
706	0.0128615
718	0.0079895
730	0.0059885
742	0.0052925
754	0.005771
766	0.0075255
778	0.0117305
790	0.0218225
802	0.0351915
814	0.0464725
826	0.0340315
838	0.01653
850	0.007192
862	0.004466
874	0.002842
886	0.001769
898	0.0013485
910	0.0010005
922	0.0007395
934	0.0005945
946	0.0010875
958	0.001566
970	0.002146
982	0.002378
994	0.004321
1006	0.0184875
1018	0.0107155
1030	0.0025375
1042	0.002146
1054	0.0046255
1066	0.0262015
1078	0.038396
1090	0.0126295
1102	0.011774
1114	0.00957
1126	0.006032
1138	0.002958
1150	0.0009135
1162	0.0035525
1174	0.016385
1186	0.0063365
1198	0.0012035
1210	0.0016675
1222	0.001711
1234	0.003596
1246	0.012354
1258	0.0438915
1270	0.086101
1282	0.0540415
1294	0.010556
1306	0.0049445
1318	0.001914
1330	0.0004495
1342	0.00029
1354	0
1366	0.0001885
1378	0.000406
1390	0.0008845
1402	0.0025955
1414	0.0065975
1426	0.0052635
1438	0.0032915
1450	0.0038425
1462	0.007743
1474	0.035119
1486	0.128731
1498	0.115551
1510	0.0240555
1522	0.010527
1534	0.007685
1546	0.0039585
1558	0.0039875
1570	0.006032
1582	0.0139635
1594	0.0271295
1606	0.0287825
1618	0.062263
1630	0.061857
1642	0.0230405
1654	0.00812
1666	0.0048575
1678	0.004031
1690	0.004176
1702	0.0039585
1714	0.002523
1726	0.00203
1738	0.0021025
1750	0.001015
1762	0.00029
1774	0.000319
1786	0.0004495
1798	0.0005365
1810	0.0007105
1822	0.0009715
1834	0.0017545
1846	0.003074
1858	0.004524
1870	0.00435
1882	0.0022475
1894	0.00087
1906	0.000667
1918	0.0008265
1930	0.000928
1942	0.0010295
1954	0.000957
1966	0.0007685
1978	0.0005655
1990	0.0005945
2002	0.0007685
2014	0.000899
2026	0.000957
2038	0.000986
2050	0.001218
2062	0.0014355
2074	0.0012905
2086	0.0011455
2098	0.0009715
2110	0.0007685
2122	0.000551
2134	0.0005655
2146	0.000609
2158	0.00058
2170	0.0007395
2182	0.0007685
2194	0.0006235
2206	0.0005655
2218	0.0005945
2230	0.000754
2242	0.0007685
2254	0.0007395
2266	0.000783
2278	0.000899
2290	0.001073
2302	0.0010875
2314	0.001015
2326	0.0007685
2338	0.0005365
2350	0.0005945
2362	0.0006235
2374	0.0007395
2386	0.00087
2398	0.0009135
2410	0.000841
2422	0.0008265
2434	0.0008265
2446	0.0007975
2458	0.0006235
2470	0.0004785
2482	0.0005075
2494	0.0005365
2506	0.0005365
2518	0.0007395
2530	0.0010585
2542	0.0012325
2554	0.0011745
2566	0.000928
2578	0.000957
2590	0.0010005
2602	0.0008265
2614	0.000638
2626	0.0006235
2638	0.0006815
2650	0.0007395
2662	0.0008555
2674	0.000841
2686	0.0007685
2698	0.000783
2710	0.000754
2722	0.000638
2734	0.0006815
2746	0.000754
2758	0.000754
2770	0.000667
2782	0.000522
2794	0.0005655
2806	0.0005945
2818	0.0007105
2830	0.0010005
2842	0.001247
2854	0.0012905
2866	0.001218
2878	0.001305
2890	0.001479
2902	0.001247
2914	0.00087
2926	0.000725
2938	0.0006815
2950	0.000725
2962	0.0010005
2974	0.001711
2986	0.0031755
2998	0.004814
3010	0.005017
3022	0.0079605
3034	0.018357
3046	0.014616
3058	0.008932
3070	0.007685
3082	0.0067135
3094	0.0069745
3106	0.0045385
3118	0.0019575
3130	0.0010005
3142	0.0007975
3154	0.0007395
3166	0.000725
3178	0.000696
3190	0.0008845
3202	0.001421
3214	0.001769
3226	0.0018705
3238	0.001827
3250	0.001508
3262	0.0010585
3274	0.0007975
3286	0.0006525
3298	0.0006235
3310	0.000609
3322	0.000609
3334	0.000638
3346	0.0006815
3358	0.0009425
3370	0.0014355
3382	0.0024795
3394	0.0057855
3406	0.01189
3418	0.0132095
3430	0.0085405
3442	0.0030305
3454	0.0022475
3466	0.00319
3478	0.0052635
3490	0.007047
3502	0.0073515
3514	0.0054955
3526	0.0034075
3538	0.0016675
3550	0.000899
3562	0.0006235
3574	0.0005655
3586	0.0005365
3598	0.0005365
3610	0.0005655
3622	0.0006525
3634	0.000667
3646	0.0006235
3658	0.000754
3670	0.0007685
3682	0.000754
3694	0.0007105
3706	0.000754
3718	0.000841
3730	0.0008265
3742	0.0007975
3754	0.0006815
3766	0.0006815
3778	0.000638
3790	0.000667
3802	0.000638
3814	0.000638
3826	0.0007685
3838	0.001015
