Infrared Spectrum: PIPERAZINE-2,5-DIONE
Formula: C4 H6 N2 O2
CAS: 106-57-0
State: SOLID (OIL MULL)
Class: COBLENTZ
Instrument: Not specified, most likely a grating spectrometer.
Sampling: TRANSMISSION
Resolution: 4
Origin: ABBOTT LABORATORIES
MICROMETERS	TRANSMITTANCE
2.013	0.654
2.05295	0.66
2.0929	0.662
2.13284	0.672
2.17279	0.68
2.21274	0.69
2.25269	0.696
2.29263	0.694
2.33258	0.69
2.37253	0.701
2.41248	0.709
2.45242	0.722
2.49237	0.732
2.53232	0.738
2.57227	0.747
2.61221	0.755
2.65216	0.763
2.69211	0.769
2.73206	0.773
2.772	0.776
2.81195	0.773
2.8519	0.768
2.89185	0.763
2.93179	0.771
2.97174	0.755
3.01169	0.698
3.05164	0.637
3.09159	0.606
3.13153	0.458
3.17148	0.326
3.21143	0.349
3.25138	0.323
3.29132	0.249
3.33127	0.264
3.37122	0.14
3.41117	0.057
3.45111	0.017
3.49106	0.083
3.53101	0.197
3.57096	0.399
3.6109	0.479
3.65085	0.541
3.6908	0.557
3.73075	0.597
3.77069	0.623
3.81064	0.647
3.85059	0.652
3.89054	0.675
3.93048	0.698
3.97043	0.706
4.01038	0.714
4.05033	0.716
4.09028	0.722
4.13022	0.73
4.17017	0.737
4.21012	0.748
4.25007	0.76
4.29001	0.768
4.32996	0.758
4.36991	0.774
4.40986	0.778
4.4498	0.781
4.48975	0.779
4.5297	0.779
4.56965	0.791
4.60959	0.799
4.64954	0.807
4.68949	0.805
4.72944	0.805
4.76938	0.809
4.80933	0.809
4.84928	0.807
4.88923	0.814
4.92917	0.82
4.96912	0.825
5.00907	0.828
5.04902	0.835
5.08897	0.833
5.12891	0.822
5.16886	0.823
5.20881	0.836
5.24876	0.836
5.2887	0.836
5.32865	0.838
5.3686	0.836
5.40855	0.833
5.44849	0.825
5.48844	0.815
5.52839	0.804
5.56834	0.799
5.60828	0.792
5.64823	0.773
5.68818	0.716
5.72813	0.634
5.76807	0.525
5.80802	0.365
5.84797	0.171
5.88792	0.11
5.92787	0.088
5.96781	0.104
6.00776	0.2
6.04771	0.301
6.08766	0.38
6.1276	0.453
6.16755	0.517
6.2075	0.553
6.24745	0.582
6.28739	0.592
6.32734	0.603
6.36729	0.634
6.40724	0.649
6.44718	0.655
6.48713	0.673
6.52708	0.676
6.56703	0.672
6.60697	0.686
6.64692	0.707
6.68687	0.724
6.72682	0.538
6.76676	0.329
6.80671	0.133
6.84666	0.11
6.88661	0.213
6.92656	0.21
6.9665	0.311
7.00645	0.492
7.0464	0.575
7.08635	0.595
7.12629	0.619
7.16624	0.637
7.20619	0.618
7.24614	0.533
7.28608	0.492
7.32603	0.587
7.36598	0.628
7.40593	0.592
7.44587	0.342
7.48582	0.21
7.52577	0.479
7.56572	0.605
7.60566	0.634
7.64561	0.663
7.68556	0.678
7.72551	0.691
7.76545	0.703
7.8054	0.701
7.84535	0.706
7.8853	0.712
7.92525	0.714
7.96519	0.699
8.00514	0.632
8.04509	0.719
8.08504	0.732
8.12498	0.738
8.16493	0.743
8.20488	0.747
8.24483	0.752
8.28477	0.755
8.32472	0.756
8.36467	0.761
8.40462	0.763
8.44456	0.766
8.48451	0.765
8.52446	0.765
8.56441	0.76
8.60435	0.765
8.6443	0.76
8.68425	0.763
8.7242	0.763
8.76414	0.768
8.80409	0.774
8.84404	0.773
8.88399	0.776
8.92394	0.776
8.96388	0.774
9.00383	0.771
9.04378	0.773
9.08373	0.779
9.12367	0.776
9.16362	0.765
9.20357	0.734
9.24352	0.647
9.28346	0.471
9.32341	0.353
9.36336	0.438
9.40331	0.588
9.44325	0.647
9.4832	0.678
9.52315	0.694
9.5631	0.707
9.60304	0.719
9.64299	0.725
9.68294	0.724
9.72289	0.711
9.76283	0.717
9.80278	0.721
9.84273	0.724
9.88268	0.732
9.92263	0.732
9.96257	0.729
10.0025	0.706
10.0425	0.688
10.0824	0.732
10.1224	0.761
10.1623	0.768
10.2023	0.758
10.2422	0.769
10.2822	0.761
10.3221	0.761
10.362	0.76
10.402	0.763
10.4419	0.755
10.4819	0.75
10.5218	0.748
10.5618	0.745
10.6017	0.738
10.6417	0.721
10.6816	0.711
10.7216	0.676
10.7615	0.657
10.8015	0.61
10.8414	0.549
10.8814	0.487
10.9213	0.429
10.9613	0.429
11.0012	0.464
11.0412	0.522
11.0811	0.561
11.1211	0.587
11.161	0.597
11.2009	0.605
11.2409	0.606
11.2808	0.606
11.3208	0.598
11.3607	0.59
11.4007	0.582
11.4406	0.562
11.4806	0.533
11.5205	0.515
11.5605	0.491
11.6004	0.456
11.6404	0.425
11.6803	0.389
11.7203	0.36
11.7602	0.334
11.8002	0.306
11.8401	0.292
11.8801	0.293
11.92	0.309
11.96	0.318
11.9999	0.352
12.0398	0.384
12.0798	0.417
12.1197	0.456
12.1597	0.494
12.1996	0.523
12.2396	0.525
12.2795	0.5
12.3195	0.409
12.3594	0.309
12.3994	0.334
12.4393	0.42
12.4793	0.494
12.5192	0.549
12.5592	0.579
12.5991	0.601
12.6391	0.613
12.679	0.624
12.719	0.639
12.7589	0.644
12.7989	0.649
12.8388	0.65
12.8787	0.654
12.9187	0.657
12.9586	0.662
12.9986	0.667
13.0385	0.672
13.0785	0.676
13.1184	0.681
13.1584	0.688
13.1983	0.691
13.2383	0.694
13.2782	0.698
13.3182	0.699
13.3581	0.701
13.3981	0.701
13.438	0.699
13.478	0.699
13.5179	0.699
13.5579	0.699
13.5978	0.698
13.6378	0.694
13.6777	0.69
13.7176	0.685
13.7576	0.676
13.7975	0.675
13.8375	0.673
13.8774	0.676
13.9174	0.683
13.9573	0.686
13.9973	0.685
14.0372	0.688
14.0772	0.688
14.1171	0.688
14.1571	0.685
14.197	0.683
14.237	0.683
14.2769	0.68
14.3169	0.68
14.3568	0.68
14.3968	0.68
14.4367	0.678
14.4767	0.676
14.5166	0.673
14.5565	0.668
14.5965	0.667
14.6364	0.665
14.6764	0.665
14.7163	0.663
14.7563	0.659
14.7962	0.654
14.8362	0.65
14.8761	0.639
14.9161	0.634
14.956	0.642
14.996	0.632
15.0359	0.626
15.0759	0.626
15.1158	0.623
15.1558	0.618
15.1957	0.61
15.2357	0.601
15.2756	0.597
15.3156	0.592
15.3555	0.585
15.3954	0.585
15.4354	0.579
15.4753	0.57
