Infrared Spectrum: p-Chlorobenzenethiol
Formula: C6 H5 Cl S
CAS: 106-54-7
State: SOLUTION (10% CCl4 FOR 3800-1330, 10% CS2 FOR 1330-450 CM^-^1)
Class: COBLENTZ III
Instrument: DOW KBr FOREPRISM-GRATING
Instrument parameters: BLAZED AT 3.5, 12.0, 20.0 MICRON AND CHANGED AT 5.0, 7.5, 14.9 MICRON
Sampling: TRANSMISSION
Path length: 0.011 CM, 0.011 CM
Resolution: 2
Origin: DOW CHEMICAL COMPANY
1/CM	TRANSMITTANCE
3822	0.9397
3813	0.9406
3804	0.9458
3795	0.9475
3786	0.9443
3777	0.943
3768	0.9452
3759	0.9483
3750	0.9469
3741	0.9433
3732	0.9369
3723	0.9372
3714	0.9437
3705	0.942
3696	0.9477
3687	0.9483
3678	0.9425
3669	0.9405
3660	0.9424
3651	0.9463
3642	0.9461
3633	0.9441
3624	0.9471
3615	0.9501
3606	0.9485
3597	0.9457
3588	0.9512
3579	0.949
3570	0.9495
3561	0.9503
3552	0.9517
3543	0.9512
3534	0.9505
3525	0.9479
3516	0.9424
3507	0.9393
3498	0.9394
3489	0.9424
3480	0.9463
3471	0.9484
3462	0.9501
3453	0.9518
3444	0.9522
3435	0.9522
3426	0.9517
3417	0.9513
3408	0.9512
3399	0.951
3390	0.9512
3381	0.9517
3372	0.9546
3363	0.9525
3354	0.9528
3345	0.9532
3336	0.9555
3327	0.9538
3318	0.9535
3309	0.9537
3300	0.9509
3291	0.9511
3282	0.9525
3273	0.9524
3264	0.9538
3255	0.9521
3246	0.9518
3237	0.9544
3228	0.9553
3219	0.9517
3210	0.9515
3201	0.9496
3192	0.9497
3183	0.9478
3174	0.9472
3165	0.9463
3156	0.9454
3147	0.9428
3138	0.9419
3129	0.9388
3120	0.9356
3111	0.9336
3102	0.9133
3093	0.8937
3084	0.8754
3075	0.8938
3066	0.8955
3057	0.905
3048	0.9206
3039	0.9178
3030	0.9035
3021	0.9217
3012	0.9295
3003	0.9374
2994	0.9394
2985	0.944
2976	0.946
2967	0.9473
2958	0.9488
2949	0.9491
2940	0.9484
2931	0.9479
2922	0.945
2913	0.9437
2904	0.9442
2895	0.9446
2886	0.9456
2877	0.9437
2868	0.942
2859	0.9427
2850	0.942
2841	0.9428
2832	0.9381
2823	0.9114
2814	0.9249
2805	0.9394
2796	0.9411
2787	0.939
2778	0.9318
2769	0.9333
2760	0.9392
2751	0.9395
2742	0.9391
2733	0.9393
2724	0.9401
2715	0.941
2706	0.9413
2697	0.9398
2688	0.9376
2679	0.9325
2670	0.9299
2661	0.9306
2652	0.9337
2643	0.934
2634	0.9377
2625	0.9329
2616	0.9303
2607	0.9232
2598	0.9084
2589	0.8799
2580	0.893
2571	0.8978
2562	0.9151
2553	0.9276
2544	0.9309
2535	0.934
2526	0.9379
2517	0.9399
2508	0.941
2499	0.9413
2490	0.9416
2481	0.9427
2472	0.9436
2463	0.9439
2454	0.9425
2445	0.9441
2436	0.9443
2427	0.9447
2418	0.9443
2409	0.9398
2400	0.9348
2391	0.9359
2382	0.9502
2373	0.9595
2364	0.9542
2355	0.9565
2346	0.9539
2337	0.9479
2328	0.9439
2319	0.9423
2310	0.9414
2301	0.9372
2292	0.9122
2283	0.9349
2274	0.9405
2265	0.9425
2256	0.9446
2247	0.9457
2238	0.948
2229	0.9437
2220	0.9431
2211	0.9473
2202	0.9469
2193	0.9452
2184	0.9485
2175	0.9486
2166	0.9464
2157	0.946
2148	0.9461
2139	0.9467
2130	0.9472
2121	0.9461
2112	0.946
2103	0.9457
2094	0.9489
2085	0.948
2076	0.9491
2067	0.949
2058	0.9438
2049	0.9447
2040	0.9447
2031	0.9432
2022	0.9446
2013	0.9432
2004	0.9439
1995	0.9494
1986	0.9408
1977	0.9401
1968	0.9378
1959	0.9405
1950	0.9369
1941	0.9364
1932	0.9375
1923	0.9351
1914	0.9312
1905	0.9249
1896	0.8977
1887	0.816
1878	0.8437
1869	0.904
1860	0.9201
1851	0.9224
1842	0.9142
1833	0.9194
1824	0.9249
1815	0.9303
1806	0.9306
1797	0.9278
1788	0.9304
1779	0.9286
1770	0.8958
1761	0.8986
1752	0.9196
1743	0.9207
1734	0.9133
1725	0.9264
1716	0.9239
1707	0.9296
1698	0.9271
1689	0.9275
1680	0.9293
1671	0.9297
1662	0.9272
1653	0.9193
1644	0.8665
1635	0.8778
1626	0.8607
1617	0.8846
1608	0.9039
1599	0.9107
1590	0.8986
1581	0.8884
1572	0.8744
1563	0.891
1554	0.8805
1545	0.8761
1536	0.8723
1527	0.8928
1518	0.8782
1509	0.8659
1500	0.8351
1491	0.8121
1482	0.1826
1473	0.295
1464	0.7692
1455	0.8382
1446	0.86
1437	0.8854
1428	0.889
1419	0.7802
1410	0.8652
1401	0.8457
1392	0.3032
1383	0.8685
1374	0.9193
1365	0.921
1356	0.9172
1347	0.9228
1338	0.8974
1329	0.9096
1320	0.9096
1311	0.908
1302	0.8653
1293	0.8825
1284	0.8961
1275	0.9107
1266	0.9113
1257	0.9106
1248	0.9149
1239	0.913
1230	0.9203
1221	0.8712
1212	0.9115
1203	0.9167
1194	0.9108
1185	0.8859
1176	0.6762
1167	0.8805
1158	0.9059
1149	0.9016
1140	0.8911
1131	0.8923
1122	0.8248
1113	0.5243
1104	0.0442
1095	0.0503
1086	0.6897
1077	0.7747
1068	0.8229
1059	0.8663
1050	0.8896
1041	0.8955
1032	0.8809
1023	0.8746
1014	0.0135
1005	0.7127
996	0.8838
987	0.8966
978	0.9006
969	0.8951
960	0.8808
951	0.8646
942	0.8612
933	0.8294
924	0.8113
915	0.7595
906	0.8182
897	0.8665
888	0.8871
879	0.8896
870	0.8785
861	0.8667
852	0.8546
843	0.8297
834	0.7605
825	0.5498
816	0.1668
807	0.0911
798	0.4672
789	0.7214
780	0.8129
771	0.8375
762	0.8793
753	0.8855
744	0.572
735	0.8705
726	0.9109
717	0.9165
708	0.9178
699	0.9219
690	0.9146
681	0.9243
672	0.931
663	0.9329
654	0.9174
645	0.9316
636	0.9272
627	0.9283
618	0.9387
609	0.9375
600	0.9365
591	0.9371
582	0.9227
573	0.9144
564	0.91
555	0.8967
546	0.2645
537	0.6908
528	0.8803
519	0.8981
510	0.8979
501	0.876
492	0.7285
483	0.1653
474	0.7044
465	0.7834
456	0.7868
