Infrared Spectrum: 1,4-Benzoquinone
Formula: C 6 H 4 O 2
CAS: 106-51-4
State: gas
Instrument: HP-GC/MS/IRD
Origin: NIST Mass Spectrometry Data Center
1/CM	ABSORBANCE
550	0.0001184
562	0.000112
574	5.44e-05
586	6.72e-05
598	4.48e-05
610	3.2e-05
622	0.0001248
634	4.8e-05
646	9.92e-05
658	9.92e-05
670	0.0001024
682	0.0001152
694	0.0001024
706	9.28e-05
718	0.0001216
730	9.28e-05
742	9.92e-05
754	8.96e-05
766	0.000128
778	0.0001152
790	5.12e-05
802	8.32e-05
814	0.0001248
826	0.0001536
838	0.0003872
850	0.0014656
862	0.0040832
874	0.0076576
886	0.007856
898	0.00472
910	0.0015552
922	0.0005632
934	0.001072
946	0.0013216
958	0.0008512
970	0.0001184
982	0.0001152
994	5.44e-05
1006	2.88e-05
1018	9.92e-05
1030	0.000432
1042	0.0018592
1054	0.004864
1066	0.0042432
1078	0.0026592
1090	0.0007776
1102	0.0002688
1114	0.000208
1126	0.0002112
1138	0.0001184
1150	0.0001504
1162	0.0001504
1174	0.000176
1186	0.0001376
1198	0.0001856
1210	0.000224
1222	0.0002176
1234	0.0002496
1246	0.0003776
1258	0.000784
1270	0.002256
1282	0.0053792
1294	0.007104
1306	0.0070208
1318	0.003536
1330	0.001744
1342	0.0014048
1354	0.0013728
1366	0.000848
1378	0.000192
1390	0.0001248
1402	0.0001024
1414	9.6e-05
1426	8.64e-05
1438	6.08e-05
1450	5.44e-05
1462	0.0001024
1474	0.0001632
1486	0.0001664
1498	0.0002464
1510	0.0004032
1522	0.0003936
1534	0.000272
1546	0.0002496
1558	0.0004032
1570	0.0008352
1582	0.001616
1594	0.001728
1606	0.0014688
1618	0.001136
1630	0.0017856
1642	0.004384
1654	0.008784
1666	0.022832
1678	0.032
1690	0.0250112
1702	0.0066752
1714	0.0036128
1726	0.001552
1738	0.0015552
1750	0.0021728
1762	0.001904
1774	0.0008544
1786	0.0004608
1798	0.0002944
1810	0.0002272
1822	0.0001568
1834	0.0001408
1846	0.0001248
1858	0.0001984
1870	0.0002752
1882	0.0002368
1894	0.0001536
1906	8.96e-05
1918	7.68e-05
1930	0.0001056
1942	0.0001312
1954	0.0001504
1966	0.0001792
1978	0.0001504
1990	0.0001248
2002	8.32e-05
2014	7.68e-05
2026	7.36e-05
2038	0.0001152
2050	0.0001024
2062	7.68e-05
2074	6.08e-05
2086	8.32e-05
2098	0.0001088
2110	0.0001312
2122	0.0001312
2134	0.0001024
2146	0.000112
2158	8.96e-05
2170	7.68e-05
2182	8.96e-05
2194	9.92e-05
2206	0.000112
2218	0.0001152
2230	5.44e-05
2242	5.76e-05
2254	5.44e-05
2266	4.16e-05
2278	5.76e-05
2290	6.4e-05
2302	6.08e-05
2314	6.08e-05
2326	0.0001024
2338	9.28e-05
2350	8e-05
2362	5.12e-05
2374	3.84e-05
2386	6.08e-05
2398	5.12e-05
2410	4.16e-05
2422	8.32e-05
2434	8.32e-05
2446	0.0001056
2458	6.4e-05
2470	6.4e-05
2482	6.72e-05
2494	6.08e-05
2506	6.72e-05
2518	4.8e-05
2530	7.36e-05
2542	8e-05
2554	0.0001344
2566	0.0001024
2578	8.96e-05
2590	7.04e-05
2602	5.12e-05
2614	5.44e-05
2626	4.8e-05
2638	4.8e-05
2650	3.2e-05
2662	3.52e-05
2674	5.44e-05
2686	5.44e-05
2698	2.56e-05
2710	4.8e-05
2722	4.48e-05
2734	4.8e-05
2746	6.08e-05
2758	5.44e-05
2770	1.6e-05
2782	4.8e-05
2794	5.76e-05
2806	8.96e-05
2818	0.0001152
2830	9.92e-05
2842	3.2e-05
2854	6.72e-05
2866	2.56e-05
2878	0
2890	3.84e-05
2902	6.72e-05
2914	4.8e-05
2926	6.4e-06
2938	1.6e-05
2950	3.84e-05
2962	5.12e-05
2974	4.48e-05
2986	7.36e-05
2998	4.48e-05
3010	4.48e-05
3022	7.68e-05
3034	0.00016
3046	0.0003616
3058	0.0006944
3070	0.000848
3082	0.0005504
3094	0.0001344
3106	5.12e-05
3118	3.84e-05
3130	3.52e-05
3142	5.44e-05
3154	4.16e-05
3166	5.76e-05
3178	6.4e-05
3190	6.08e-05
3202	8.64e-05
3214	9.28e-05
3226	9.92e-05
3238	6.4e-05
3250	0.0001024
3262	0.000192
3274	0.0003136
3286	0.000384
3298	0.0003872
3310	0.000432
3322	0.0006176
3334	0.000848
3346	0.0007936
3358	0.0005504
3370	0.000368
3382	0.0001952
3394	0.0001248
3406	0.0001056
3418	6.4e-05
3430	5.76e-05
3442	6.08e-05
3454	7.04e-05
3466	3.2e-05
3478	1.28e-05
3490	5.12e-05
3502	6.08e-05
3514	5.44e-05
3526	4.8e-05
3538	6.72e-05
3550	7.36e-05
3562	8.64e-05
3574	6.4e-05
3586	4.48e-05
3598	3.84e-05
3610	2.88e-05
3622	8e-05
3634	6.4e-05
3646	4.8e-05
3658	6.4e-05
3670	8.32e-05
3682	8.64e-05
3694	5.12e-05
3706	6.72e-05
3718	7.04e-05
3730	8.64e-05
3742	1.6e-05
3754	5.44e-05
3766	3.2e-05
3778	9.28e-05
3790	4.8e-05
3802	5.12e-05
3814	6.4e-05
3826	5.76e-05
3838	2.88e-05
