Infrared Spectrum: 1,2,6-HEXANETRIOL
Formula: C6 H14 O3
CAS: 106-69-4
State: LIQUID (NEAT)
Class: COBLENTZ III
Instrument: DOW KBr FOREPRISM-GRATING
Instrument parameters: BLAZED AT 3.5, 12.0, 20.0 MICRON, CHANGED AT 5.0, 7.5, 14.9 MICRON
Sampling: TRANSMISSION
Path length: CAPILLARY, KBr PLATES
Resolution: 4
Origin: DOW CHEMICAL COMPANY
1/CM	TRANSMITTANCE
458.285	0.831
466.976	0.829
475.666	0.827
484.357	0.827
493.047	0.826
501.738	0.822
510.429	0.82
519.119	0.823
527.81	0.83
536.501	0.843
545.191	0.85
553.882	0.861
562.572	0.861
571.263	0.861
579.954	0.862
588.644	0.865
597.335	0.867
606.026	0.869
614.716	0.872
623.407	0.873
632.097	0.873
640.788	0.875
649.479	0.879
658.169	0.829
666.86	0.834
675.551	0.842
684.241	0.854
692.932	0.867
701.622	0.877
710.313	0.891
719.004	0.892
727.694	0.892
736.385	0.894
745.075	0.905
753.766	0.924
762.457	0.938
771.147	0.953
779.838	0.955
788.529	0.963
797.219	0.964
805.91	0.964
814.6	0.967
823.291	0.979
831.982	0.985
840.672	0.966
849.363	0.937
858.054	0.913
866.744	0.913
875.435	0.929
884.125	0.929
892.816	0.934
901.507	0.955
910.197	0.945
918.888	0.911
927.579	0.895
936.269	0.913
944.96	0.941
953.65	0.953
962.341	0.951
971.032	0.932
979.722	0.905
988.413	0.837
997.103	0.788
1005.79	0.729
1014.48	0.69
1023.18	0.63
1031.87	0.611
1040.56	0.592
1049.25	0.569
1057.94	0.538
1066.63	0.559
1075.32	0.573
1084.01	0.643
1092.7	0.739
1101.39	0.759
1110.08	0.753
1118.77	0.777
1127.46	0.856
1136.15	0.932
1144.84	0.955
1153.53	0.955
1162.23	0.941
1170.92	0.948
1179.61	0.948
1188.3	0.951
1196.99	0.938
1205.68	0.929
1214.37	0.924
1223.06	0.922
1231.75	0.921
1240.44	0.91
1249.13	0.903
1257.82	0.892
1266.51	0.89
1275.2	0.886
1283.89	0.88
1292.58	0.869
1301.28	0.864
1309.97	0.862
1318.66	0.858
1327.35	0.845
1336.04	0.833
1344.73	0.833
1353.42	0.838
1362.11	0.85
1370.8	0.839
1379.49	0.839
1388.18	0.837
1396.87	0.82
1405.56	0.799
1414.25	0.782
1422.94	0.777
1431.63	0.772
1440.33	0.781
1449.02	0.777
1457.71	0.755
1466.4	0.792
1475.09	0.846
1483.78	0.89
1492.47	0.941
1501.16	0.964
1509.85	0.979
1518.54	0.99
1527.23	0.998
1535.92	1.004
1544.61	1.006
1553.3	1.006
1561.99	1.009
1570.68	1.012
1579.38	1.013
1588.07	1.014
1596.76	1.014
1605.45	1.017
1614.14	1.02
1622.83	1.024
1631.52	1.033
1640.21	1.042
1648.9	1.037
1657.59	1.029
1666.28	1.021
1674.97	1.017
1683.66	1.014
1692.35	1.008
1701.04	1.002
1709.73	1.001
1718.43	0.995
1727.12	0.987
1735.81	0.989
1744.5	0.998
1753.19	1.01
1761.88	1.017
1770.57	1.021
1779.26	1.021
1787.95	1.021
1796.64	1.024
1805.33	1.021
1814.02	1.021
1822.71	1.024
1831.4	1.021
1840.09	1.024
1848.78	1.021
1857.47	1.021
1866.17	1.024
1874.86	1.021
1883.55	1.02
1892.24	1.023
1900.93	1.021
1909.62	1.023
1918.31	1.021
1927	1.021
1935.69	1.02
1944.38	1.021
1953.07	1.023
1961.76	1.023
1970.45	1.023
1979.14	1.024
1987.83	1.028
1996.52	1.035
2005.22	1.058
2013.91	1.059
2022.6	1.058
2031.29	1.056
2039.98	1.0521
2048.67	1.052
2057.36	1.052
2066.05	1.055
2074.74	1.0521
2083.43	1.0519
2092.12	1.0511
2100.81	1.051
2109.5	1.054
2118.19	1.052
2126.88	1.052
2135.57	1.052
2144.27	1.051
2152.96	1.05
2161.65	1.05
2170.34	1.048
2179.03	1.048
2187.72	1.047
2196.41	1.047
2205.1	1.047
2213.79	1.047
2222.48	1.047
2231.17	1.047
2239.86	1.048
2248.55	1.044
2257.24	1.046
2265.93	1.044
2274.62	1.0433
2283.32	1.0433
2292.01	1.043
2300.7	1.043
2309.39	1.044
2318.08	1.046
2326.77	1.047
2335.46	1.047
2344.15	1.044
2352.84	1.0406
2361.53	1.0363
2370.22	1.035
2378.91	1.033
2387.6	1.0317
2396.29	1.031
2404.98	1.029
2413.67	1.0284
2422.37	1.027
2431.06	1.024
2439.75	1.0234
2448.44	1.021
2457.13	1.02
2465.82	1.017
2474.51	1.016
2483.2	1.0109
2491.89	1.0094
2500.58	1.0085
2509.27	1.005
2517.96	1.0015
2526.65	1.001
2535.34	1
2544.03	0.998
2552.72	0.997
2561.42	0.994
2570.11	0.9895
2578.8	0.987
2587.49	0.9825
2596.18	0.9801
2604.87	0.976
2613.56	0.97
2622.25	0.97
2630.94	0.9636
2639.63	0.9587
2648.32	0.955
2657.01	0.952
2665.7	0.9476
2674.39	0.9446
2683.08	0.938
2691.77	0.936
2700.47	0.9312
2709.16	0.928
2717.85	0.9229
2726.54	0.9147
2735.23	0.9123
2743.92	0.9067
2752.61	0.9043
2761.3	0.8974
2769.99	0.8901
2778.68	0.8821
2787.37	0.8687
2796.06	0.8503
2804.75	0.8291
2813.44	0.7949
2822.13	0.7674
2830.82	0.7202
2839.52	0.6667
2848.21	0.5834
2856.9	0.4725
2865.59	0.4437
2874.28	0.4698
2882.97	0.5
2891.66	0.4986
2900.35	0.4574
2909.04	0.4129
2917.73	0.3798
2926.42	0.3325
2935.11	0.2932
2943.8	0.3178
2952.49	0.4453
2961.18	0.5845
2969.87	0.7255
2978.57	0.8024
2987.26	0.8464
2995.95	0.8611
3004.64	0.8638
3013.33	0.8579
3022.02	0.8539
3030.71	0.8475
3039.4	0.8339
3048.09	0.8237
3056.78	0.8107
3065.47	0.7959
3074.16	0.781
3082.85	0.7609
3091.54	0.748
3100.23	0.727
3108.92	0.71
3117.62	0.6929
3126.31	0.66
3135	0.628
3143.69	0.5981
3152.38	0.5641
3161.07	0.5343
3169.76	0.5026
3178.45	0.4723
3187.14	0.4422
3195.83	0.4122
3204.52	0.3865
3213.21	0.3547
3221.9	0.3314
3230.59	0.3063
3239.28	0.2827
3247.97	0.2556
3256.66	0.2374
3265.36	0.215
3274.05	0.1964
3282.74	0.1873
3291.43	0.1709
3300.12	0.1578
3308.81	0.1513
3317.5	0.143
3326.19	0.138
3334.88	0.135
3343.57	0.135
3352.26	0.137
3360.95	0.138
3369.64	0.141
3378.33	0.1466
3387.02	0.1531
3395.71	0.1635
3404.41	0.1715
3413.1	0.186
3421.79	0.1982
3430.48	0.2099
3439.17	0.2329
3447.86	0.2599
3456.55	0.2837
3465.24	0.3161
3473.93	0.3512
3482.62	0.3785
3491.31	0.4284
3500	0.4663
3508.69	0.5055
3517.38	0.5445
3526.07	0.595
3534.76	0.6381
3543.46	0.6855
3552.15	0.7269
3560.84	0.7579
3569.53	0.7916
3578.22	0.8235
3586.91	0.8554
3595.6	0.8813
3604.29	0.9079
3612.98	0.9227
3621.67	0.9371
3630.36	0.9506
3639.05	0.957
3647.74	0.963
3656.43	0.9651
3665.12	0.9705
3673.81	0.98
3682.51	0.975
3691.2	0.963
3699.89	0.9669
3708.58	0.9825
3717.27	0.986
3725.96	0.9905
3734.65	0.9905
3743.34	0.9962
3752.03	0.9998
3760.72	1.026
3769.41	0.9896
3778.1	0.9918
3786.79	0.9958
