Infrared Spectrum: TRIETHYLENE GLYCOL DIPELARGONATE
Formula: C24 H46 O6
CAS: 106-06-9
State: LIQUID
Class: COBLENTZ
Instrument: Not specified, most likely a prism, grating, or hybrid spectrometer.
Sampling: TRANSMISSION
Path length: THIN FILM
Resolution: 4
MICROMETERS	TRANSMITTANCE
2.061	0.923
2.09477	0.929
2.12853	0.93
2.1623	0.93
2.19607	0.932
2.22983	0.932
2.2636	0.934
2.29737	0.923
2.33113	0.905
2.3649	0.902
2.39867	0.9
2.43243	0.898
2.4662	0.896
2.49997	0.896
2.53373	0.9
2.5675	0.9
2.60127	0.9
2.63503	0.905
2.6688	0.912
2.70257	0.913
2.73633	0.913
2.7701	0.912
2.80387	0.908
2.83763	0.903
2.8714	0.895
2.90517	0.888
2.93894	0.89
2.9727	0.898
3.00647	0.905
3.04024	0.91
3.074	0.912
3.10777	0.912
3.14154	0.91
3.1753	0.907
3.20907	0.903
3.24284	0.895
3.2766	0.885
3.31037	0.858
3.34414	0.672
3.3779	0.356
3.41167	0.179
3.44544	0.125
3.4792	0.109
3.51297	0.106
3.54674	0.341
3.5805	0.513
3.61427	0.616
3.64804	0.719
3.6818	0.755
3.71557	0.787
3.74934	0.809
3.7831	0.826
3.81687	0.842
3.85064	0.869
3.8844	0.88
3.91817	0.888
3.95194	0.902
3.9857	0.907
4.01947	0.912
4.05324	0.915
4.087	0.918
4.12077	0.92
4.15454	0.923
4.1883	0.923
4.22207	0.92
4.25584	0.92
4.2896	0.92
4.32337	0.918
4.35714	0.918
4.3909	0.92
4.42467	0.92
4.45844	0.922
4.4922	0.925
4.52597	0.927
4.55974	0.929
4.59351	0.929
4.62727	0.927
4.66104	0.927
4.69481	0.927
4.72857	0.927
4.76234	0.927
4.79611	0.925
4.82987	0.925
4.86364	0.92
4.89741	0.917
4.93117	0.915
4.96494	0.912
4.99871	0.91
5.03247	0.908
5.06624	0.905
5.10001	0.903
5.13377	0.902
5.16754	0.902
5.20131	0.902
5.23507	0.908
5.26884	0.912
5.30261	0.915
5.33637	0.918
5.37014	0.918
5.40391	0.917
5.43767	0.91
5.47144	0.895
5.50521	0.861
5.53897	0.841
5.57274	0.788
5.60651	0.706
5.64027	0.599
5.67404	0.317
5.70781	0.111
5.74157	0.059
5.77534	0.094
5.80911	0.278
5.84287	0.508
5.87664	0.603
5.91041	0.679
5.94417	0.768
5.97794	0.82
6.01171	0.841
6.04547	0.849
6.07924	0.859
6.11301	0.866
6.14677	0.871
6.18054	0.88
6.21431	0.885
6.24808	0.893
6.28184	0.896
6.31561	0.9
6.34938	0.9
6.38314	0.9
6.41691	0.9
6.45068	0.898
6.48444	0.895
6.51821	0.891
6.55198	0.886
6.58574	0.885
6.61951	0.875
6.65328	0.858
6.68704	0.827
6.72081	0.722
6.75458	0.616
6.78834	0.344
6.82211	0.228
6.85588	0.226
6.88964	0.263
6.92341	0.329
6.95718	0.368
6.99094	0.425
7.02471	0.445
7.05848	0.449
7.09224	0.508
7.12601	0.537
7.15978	0.503
7.19354	0.388
7.22731	0.288
7.26108	0.278
7.29484	0.327
7.32861	0.351
7.36238	0.346
7.39614	0.317
7.42991	0.314
7.46368	0.351
7.49744	0.396
7.53121	0.403
7.56498	0.383
7.59874	0.353
7.63251	0.317
7.66628	0.288
7.70004	0.265
7.73381	0.251
7.76758	0.239
7.80134	0.236
7.83511	0.233
7.86888	0.231
7.90265	0.221
7.93641	0.192
7.97018	0.153
8.00395	0.136
8.03771	0.135
8.07148	0.14
8.10525	0.17
8.13901	0.184
8.17278	0.187
8.20655	0.184
8.24031	0.182
8.27408	0.172
8.30785	0.162
8.34161	0.153
8.37538	0.141
8.40915	0.114
8.44291	0.089
8.47668	0.077
8.51045	0.07
8.54421	0.065
8.57798	0.064
8.61175	0.065
8.64551	0.072
8.67928	0.077
8.71305	0.079
8.74681	0.077
8.78058	0.074
8.81435	0.07
8.84811	0.072
8.88188	0.076
8.91565	0.079
8.94941	0.079
8.98318	0.077
9.01695	0.076
9.05071	0.077
9.08448	0.092
9.11825	0.135
9.15201	0.199
9.18578	0.241
9.21955	0.277
9.25331	0.305
9.28708	0.317
9.32085	0.319
9.35461	0.319
9.38838	0.312
9.42215	0.31
9.45591	0.288
9.48968	0.28
9.52345	0.278
9.55722	0.28
9.59098	0.288
9.62475	0.309
9.65852	0.336
9.69228	0.366
9.72605	0.405
9.75982	0.451
9.79358	0.478
9.82735	0.503
9.86112	0.53
9.89488	0.55
9.92865	0.562
9.96242	0.57
9.99618	0.576
10.0299	0.581
10.0637	0.587
10.0975	0.592
10.1312	0.599
10.165	0.606
10.1988	0.609
10.2325	0.608
10.2663	0.601
10.3001	0.576
10.3339	0.55
10.3676	0.511
10.4014	0.481
10.4352	0.474
10.4689	0.466
10.5027	0.467
10.5365	0.474
10.5702	0.488
10.604	0.503
10.6378	0.528
10.6715	0.545
10.7053	0.555
10.7391	0.577
10.7728	0.591
10.8066	0.601
10.8404	0.613
10.8741	0.628
10.9079	0.64
10.9417	0.652
10.9754	0.658
11.0092	0.667
11.043	0.673
11.0767	0.685
11.1105	0.695
11.1443	0.702
11.178	0.706
11.2118	0.706
11.2456	0.702
11.2793	0.697
11.3131	0.687
11.3469	0.68
11.3806	0.663
11.4144	0.643
11.4482	0.619
11.4819	0.599
11.5157	0.587
11.5495	0.576
11.5832	0.574
11.617	0.576
11.6508	0.587
11.6845	0.603
11.7183	0.618
11.7521	0.633
11.7858	0.652
11.8196	0.667
11.8534	0.68
11.8871	0.697
11.9209	0.709
11.9547	0.717
11.9884	0.729
12.0222	0.736
12.056	0.75
12.0897	0.756
12.1235	0.765
12.1573	0.771
12.191	0.777
12.2248	0.78
12.2586	0.783
12.2923	0.787
12.3261	0.788
12.3599	0.798
12.3936	0.805
12.4274	0.812
12.4612	0.817
12.4949	0.822
12.5287	0.824
12.5625	0.827
12.5962	0.829
12.63	0.831
12.6638	0.837
12.6975	0.844
12.7313	0.847
12.7651	0.846
12.7988	0.846
12.8326	0.842
12.8664	0.832
12.9001	0.822
12.9339	0.814
12.9677	0.807
13.0014	0.804
13.0352	0.804
13.069	0.804
13.1027	0.809
13.1365	0.812
13.1703	0.815
13.204	0.815
13.2378	0.817
13.2716	0.815
13.3053	0.814
13.3391	0.812
13.3729	0.81
13.4066	0.805
13.4404	0.8
13.4742	0.797
13.5079	0.788
13.5417	0.782
13.5755	0.775
13.6092	0.765
13.643	0.751
13.6768	0.741
13.7105	0.719
13.7443	0.697
13.7781	0.665
13.8118	0.64
13.8456	0.625
13.8794	0.635
13.9131	0.66
13.9469	0.69
13.9807	0.717
14.0144	0.741
14.0482	0.755
14.082	0.766
14.1157	0.777
14.1495	0.785
14.1833	0.792
14.217	0.797
14.2508	0.804
14.2846	0.809
14.3183	0.812
14.3521	0.815
14.3859	0.817
14.4196	0.815
14.4534	0.815
14.4872	0.815
14.5209	0.819
14.5547	0.819
14.5885	0.817
14.6222	0.814
14.656	0.809
14.6898	0.809
14.7235	0.81
14.7573	0.81
14.7911	0.807
14.8248	0.805
14.8586	0.804
14.8924	0.8
14.9261	0.797
14.9599	0.795
14.9937	0.793
15.0274	0.787
15.0612	0.78
15.095	0.773
15.1287	0.766
15.1625	0.76
15.1963	0.755
15.23	0.751
15.2638	0.751
