Infrared Spectrum: DI-2-ETHYLHEXYL AMINE
Formula: C16 H35 N
CAS: 106-20-7
State: LIQUID
Class: COBLENTZ
Instrument: Not specified, most likely a prism, grating, or hybrid spectrometer.
Sampling: TRANSMISSION
Path length: 0.003 CM
Resolution: 4
Origin: WYANDOTTE CHEMICALS CORP., WYANDOTTE, MICHIGAN, USA
MICROMETERS	TRANSMITTANCE
2.025	0.993
2.06213	1.001
2.09927	1.001
2.1364	1.003
2.17353	0.995
2.21067	0.964
2.2478	0.923
2.28493	0.926
2.32207	0.923
2.3592	0.939
2.39633	0.914
2.43347	0.934
2.4706	0.948
2.50773	0.954
2.54487	0.961
2.582	0.968
2.61913	0.962
2.65627	0.971
2.6934	0.961
2.73053	0.971
2.76766	0.961
2.8048	0.962
2.84193	0.965
2.87906	0.957
2.9162	0.962
2.95333	0.95
2.99046	0.943
3.0276	0.928
3.06473	0.917
3.10186	0.917
3.139	0.898
3.17613	0.876
3.21326	0.866
3.2504	0.841
3.28753	0.794
3.32466	0.64
3.3618	0.2
3.39893	0.023
3.43606	0.024
3.4732	0.035
3.51033	0.023
3.54746	0.107
3.5846	0.138
3.62173	0.406
3.65886	0.492
3.696	0.587
3.73313	0.68
3.77026	0.721
3.8074	0.769
3.84453	0.791
3.88166	0.805
3.9188	0.827
3.95593	0.845
3.99306	0.88
4.0302	0.883
4.06733	0.884
4.10446	0.89
4.14159	0.892
4.17873	0.883
4.21586	0.878
4.25299	0.883
4.29013	0.9
4.32726	0.906
4.36439	0.908
4.40153	0.903
4.43866	0.901
4.47579	0.903
4.51293	0.897
4.55006	0.903
4.58719	0.897
4.62433	0.901
4.66146	0.903
4.69859	0.903
4.73573	0.898
4.77286	0.909
4.80999	0.912
4.84713	0.912
4.88426	0.897
4.92139	0.901
4.95853	0.9
4.99566	0.903
5.03279	0.901
5.06993	0.901
5.10706	0.898
5.14419	0.909
5.18133	0.909
5.21846	0.898
5.25559	0.9
5.29273	0.894
5.32986	0.894
5.36699	0.892
5.40413	0.901
5.44126	0.883
5.47839	0.889
5.51553	0.897
5.55266	0.886
5.58979	0.889
5.62692	0.883
5.66406	0.892
5.70119	0.873
5.73832	0.883
5.77546	0.878
5.81259	0.887
5.84972	0.862
5.88686	0.869
5.92399	0.848
5.96112	0.844
5.99826	0.841
6.03539	0.859
6.07252	0.861
6.10966	0.856
6.14679	0.852
6.18392	0.847
6.22106	0.847
6.25819	0.842
6.29532	0.853
6.33246	0.834
6.36959	0.845
6.40672	0.827
6.44386	0.828
6.48099	0.82
6.51812	0.803
6.55526	0.809
6.59239	0.791
6.62952	0.75
6.66666	0.697
6.70379	0.557
6.74092	0.38
6.77806	0.113
6.81519	0.052
6.85232	0.101
6.88946	0.171
6.92659	0.264
6.96372	0.456
7.00085	0.641
7.03799	0.702
7.07512	0.714
7.11225	0.722
7.14939	0.714
7.18652	0.638
7.22365	0.344
7.26079	0.255
7.29792	0.51
7.33505	0.568
7.37219	0.577
7.40932	0.621
7.44645	0.626
7.48359	0.651
7.52072	0.671
7.55785	0.682
7.59499	0.674
7.63212	0.649
7.66925	0.637
7.70639	0.643
7.74352	0.654
7.78065	0.666
7.81779	0.682
7.85492	0.677
7.89205	0.682
7.92919	0.686
7.96632	0.7
8.00345	0.702
8.04059	0.693
8.07772	0.705
8.11485	0.725
8.15199	0.721
8.18912	0.699
8.22625	0.71
8.26339	0.725
8.30052	0.719
8.33765	0.722
8.37478	0.736
8.41192	0.774
8.44905	0.795
8.48618	0.788
8.52332	0.767
8.56045	0.683
8.59758	0.619
8.63472	0.57
8.67185	0.559
8.70898	0.554
8.74612	0.514
8.78325	0.426
8.82038	0.347
8.85752	0.291
8.89465	0.283
8.93178	0.327
8.96892	0.359
9.00605	0.404
9.04318	0.456
9.08032	0.542
9.11745	0.632
9.15458	0.679
9.19172	0.697
9.22885	0.677
9.26598	0.68
9.30312	0.696
9.34025	0.721
9.37738	0.725
9.41452	0.728
9.45165	0.732
9.48878	0.755
9.52592	0.755
9.56305	0.746
9.60018	0.735
9.63732	0.733
9.67445	0.73
9.71158	0.742
9.74871	0.75
9.78585	0.749
9.82298	0.742
9.86011	0.755
9.89725	0.75
9.93438	0.747
9.97151	0.732
10.0086	0.733
10.0458	0.725
10.0829	0.724
10.12	0.724
10.1572	0.724
10.1943	0.724
10.2314	0.727
10.2686	0.722
10.3057	0.722
10.3428	0.724
10.38	0.728
10.4171	0.733
10.4542	0.732
10.4914	0.739
10.5285	0.736
10.5656	0.733
10.6028	0.727
10.6399	0.719
10.677	0.714
10.7142	0.704
10.7513	0.691
10.7884	0.688
10.8256	0.705
10.8627	0.699
10.8998	0.704
10.937	0.719
10.9741	0.728
11.0112	0.732
11.0484	0.733
11.0855	0.73
11.1226	0.728
11.1598	0.718
11.1969	0.705
11.234	0.711
11.2712	0.738
11.3083	0.76
11.3454	0.769
11.3826	0.778
11.4197	0.781
11.4568	0.785
11.494	0.795
11.5311	0.789
11.5682	0.795
11.6054	0.797
11.6425	0.8
11.6796	0.802
11.7168	0.806
11.7539	0.802
11.791	0.803
11.8282	0.797
11.8653	0.791
11.9024	0.785
11.9396	0.774
11.9767	0.761
12.0138	0.758
12.051	0.752
12.0881	0.747
12.1252	0.75
12.1624	0.747
12.1995	0.747
12.2366	0.752
12.2738	0.752
12.3109	0.755
12.348	0.755
12.3852	0.75
12.4223	0.75
12.4594	0.753
12.4966	0.742
12.5337	0.741
12.5708	0.718
12.608	0.705
12.6451	0.68
12.6822	0.654
12.7194	0.616
12.7565	0.582
12.7936	0.579
12.8308	0.559
12.8679	0.548
12.905	0.526
12.9422	0.503
12.9793	0.493
13.0164	0.492
13.0536	0.489
13.0907	0.485
13.1278	0.493
13.165	0.512
13.2021	0.51
13.2392	0.507
13.2764	0.498
13.3135	0.471
13.3506	0.453
13.3878	0.433
13.4249	0.412
13.462	0.4
13.4992	0.394
13.5363	0.372
13.5734	0.375
13.6106	0.359
13.6477	0.352
13.6848	0.342
13.722	0.334
13.7591	0.316
13.7962	0.316
13.8334	0.336
13.8705	0.367
13.9076	0.401
13.9448	0.417
13.9819	0.433
14.019	0.451
14.0562	0.457
14.0933	0.471
14.1304	0.484
14.1676	0.5
14.2047	0.506
14.2418	0.52
14.279	0.538
14.3161	0.54
14.3532	0.551
14.3904	0.562
14.4275	0.57
14.4646	0.582
14.5018	0.584
14.5389	0.588
14.576	0.598
14.6132	0.605
14.6503	0.619
14.6874	0.615
14.7246	0.623
14.7617	0.64
14.7988	0.644
14.836	0.66
14.8731	0.665
14.9102	0.679
14.9474	0.668
14.9845	0.686
15.0216	0.694
15.0588	0.699
15.0959	0.711
15.133	0.716
15.1702	0.721
15.2073	0.722
15.2444	0.732
15.2816	0.739
15.3187	0.736
15.3558	0.741
15.393	0.742
15.4301	0.742
15.4672	0.75
15.5044	0.76
15.5415	0.752
15.5786	0.752
15.6158	0.757
15.6529	0.753
15.69	0.76
15.7272	0.755
15.7643	0.752
15.8014	0.746
15.8386	0.752
15.8757	0.746
15.9128	0.75
15.95	0.739
15.9871	0.738
