Infrared Spectrum: MORPHOLINE, 2,5-DIMETHYL-
Formula: C6 H13 N O
CAS: 106-56-9
State: LIQUID (NEAT)
Boiling point: 145-146 C
Class: COBLENTZ III
Instrument: BAIRD (GRATING)
Instrument parameters: NaCl PRISM
Sampling: TRANSMISSION
Path length: 0.003 CM
Resolution: 2
Origin: WYANDOTTE CHEMICALS CORP.
1/CM	TRANSMITTANCE
4000	0.9681
3991	0.9692
3982	0.9702
3973	0.9713
3964	0.9724
3955	0.9735
3946	0.9745
3937	0.9753
3928	0.9758
3919	0.9764
3910	0.9771
3901	0.9777
3892	0.9783
3883	0.9786
3874	0.9789
3865	0.9791
3856	0.9794
3847	0.9796
3838	0.9797
3829	0.9796
3820	0.9794
3811	0.9794
3802	0.9793
3793	0.9793
3784	0.9799
3775	0.9818
3766	0.9838
3757	0.9856
3748	0.9866
3739	0.9865
3730	0.9863
3721	0.9861
3712	0.9858
3703	0.9851
3694	0.9843
3685	0.9834
3676	0.9824
3667	0.9808
3658	0.9792
3649	0.977
3640	0.9743
3631	0.9716
3622	0.9688
3613	0.9657
3604	0.9625
3595	0.9601
3586	0.9587
3577	0.9587
3568	0.9585
3559	0.9581
3550	0.9573
3541	0.9556
3532	0.954
3523	0.9523
3514	0.9503
3505	0.948
3496	0.9457
3487	0.9434
3478	0.9407
3469	0.9378
3460	0.9351
3451	0.9321
3442	0.929
3433	0.9259
3424	0.9224
3415	0.9185
3406	0.9148
3397	0.9111
3388	0.9074
3379	0.9034
3370	0.8984
3361	0.8921
3352	0.8677
3343	0.8089
3334	0.7488
3325	0.6883
3316	0.6276
3307	0.6023
3298	0.5879
3289	0.5796
3280	0.5783
3271	0.586
3262	0.621
3253	0.6595
3244	0.6984
3235	0.7375
3226	0.7768
3217	0.8126
3208	0.8256
3199	0.8359
3190	0.8444
3181	0.8507
3172	0.8559
3163	0.8602
3154	0.8645
3145	0.8689
3136	0.8728
3127	0.876
3118	0.8788
3109	0.8798
3100	0.8787
3091	0.8756
3082	0.8704
3073	0.8644
3064	0.856
3055	0.844
3046	0.8249
3037	0.7355
3028	0.6255
3019	0.5149
3010	0.4034
3001	0.2915
2992	0.1789
2983	0.067
2974	0.0397
2965	0.0391
2956	0.0425
2947	0.0523
2938	0.0649
2929	0.0763
2920	0.0811
2911	0.083
2902	0.0849
2893	0.087
2884	0.0892
2875	0.0884
2866	0.083
2857	0.0709
2848	0.0552
2839	0.0572
2830	0.0629
2821	0.0722
2812	0.0922
2803	0.1637
2794	0.2447
2785	0.3165
2776	0.3886
2767	0.4612
2758	0.4885
2749	0.4962
2740	0.5281
2731	0.5604
2722	0.592
2713	0.6178
2704	0.6425
2695	0.6669
2686	0.6907
2677	0.708
2668	0.7258
2659	0.7388
2650	0.7542
2641	0.7704
2632	0.7858
2623	0.8026
2614	0.8185
2605	0.8228
2596	0.8167
2587	0.8133
2578	0.8217
2569	0.8357
2560	0.8514
2551	0.8675
2542	0.8814
2533	0.8932
2524	0.9032
2515	0.9068
2506	0.9075
2497	0.9077
2488	0.9082
2479	0.9088
2470	0.9099
2461	0.9112
2452	0.9128
2443	0.9148
2434	0.9177
2425	0.9218
2416	0.9255
2407	0.9263
2398	0.927
2389	0.9278
2380	0.9287
2371	0.9303
2362	0.9327
2353	0.9351
2344	0.9375
2335	0.9403
2326	0.9431
2317	0.9454
2308	0.9475
2299	0.9494
2290	0.951
2281	0.9527
2272	0.9538
2263	0.954
2254	0.9541
2245	0.9534
2236	0.9525
2227	0.9518
2218	0.951
2209	0.951
2200	0.9511
2191	0.9513
2182	0.9524
2173	0.9535
2164	0.9552
2155	0.957
2146	0.9584
2137	0.9598
2128	0.9596
2119	0.9562
2110	0.953
2101	0.9537
2092	0.9553
2083	0.9573
2074	0.9595
2065	0.9618
2056	0.9645
2047	0.9656
2038	0.9673
2029	0.9641
2020	0.963
2011	0.9611
2002	0.9596
1993	0.9582
1984	0.9567
1975	0.9555
1966	0.9546
1957	0.954
1948	0.9537
1939	0.9533
1930	0.9524
1921	0.9491
1912	0.9454
1903	0.9434
1894	0.9458
1885	0.9441
1876	0.9433
1867	0.944
1858	0.95
1849	0.9548
1840	0.957
1831	0.958
1822	0.9581
1813	0.9578
1804	0.9575
1795	0.9575
1786	0.9568
1777	0.9554
1768	0.9514
1759	0.9442
1750	0.9391
1741	0.9302
1732	0.9243
1723	0.9206
1714	0.8928
1705	0.8683
1696	0.8516
1687	0.8242
1678	0.81
1669	0.8156
1660	0.847
1651	0.8632
1642	0.8658
1633	0.8662
1624	0.8725
1615	0.8839
1606	0.8978
1597	0.9071
1588	0.9117
1579	0.9131
1570	0.9128
1561	0.9113
1552	0.9083
1543	0.9024
1534	0.8918
1525	0.8705
1516	0.8373
1507	0.7707
1498	0.7153
1489	0.5684
1480	0.4152
1471	0.2193
1462	0.2081
1453	0.1894
1444	0.4312
1435	0.6222
1426	0.715
1417	0.7265
1408	0.6955
1399	0.4205
1390	0.1386
1381	0.2237
1372	0.4138
1363	0.6064
1354	0.3968
1345	0.062
1336	0.4078
1327	0.5878
1318	0.5706
1309	0.676
1300	0.6851
1291	0.3539
1282	0.4007
1273	0.6485
1264	0.4772
1255	0.5729
1246	0.5752
1237	0.6971
1228	0.7526
1219	0.7619
1210	0.7611
1201	0.7574
1192	0.7256
1183	0.5543
1174	0.2727
1165	0.4088
1156	0.2188
1147	0.0566
1138	0.1846
1129	0.0496
1120	0.0441
1111	0.0329
1102	0.0237
1093	0.0232
1084	0.1769
1075	0.1112
1066	0.387
1057	0.4856
1048	0.3141
1039	0.2076
1030	0.6028
1021	0.7671
1012	0.7941
1003	0.7575
994	0.6187
985	0.7114
976	0.7171
967	0.5801
958	0.5448
949	0.3843
940	0.5748
931	0.7219
922	0.6376
913	0.7406
904	0.7449
895	0.5718
886	0.3234
877	0.4159
868	0.456
859	0.6082
850	0.6121
841	0.6208
832	0.4912
823	0.3416
814	0.2326
805	0.1824
796	0.1822
787	0.2493
778	0.2163
769	0.2011
760	0.2049
751	0.272
742	0.3992
733	0.528
724	0.6505
715	0.7178
706	0.7725
697	0.7505
688	0.7087
679	0.6958
670	0.7121
661	0.7598
652	0.7694
643	0.7683
634	0.6768
