Infrared Spectrum: 4-Hydroxy-1-methylpiperidine
Formula: C 6 H 13 N O
CAS: 106-52-5
State: gas
Origin: EPA-IR VAPOR PHASE LIBRARY
1/CM	ABSORBANCE
549.9	0.0008677
559.547	0.0007186
569.193	0.00083396
578.84	0.000525
588.486	0.00085665
598.133	0.0010353
607.779	0.002712
617.426	0.003512
627.072	0.003122
636.719	0.0011677
646.365	0.00066
656.012	0.000615
665.658	0.0007
675.305	0.0007081
684.951	0.000805204
694.598	0.0009059
704.245	0.0007059
713.891	0.0007154
723.538	0.00086855
733.184	0.0012409
742.831	0.002122
752.477	0.003842
762.124	0.006052
771.77	0.007412
781.417	0.007072
791.063	0.004772
800.71	0.003422
810.356	0.003042
820.003	0.003552
829.649	0.003072
839.296	0.002382
848.943	0.0016513
858.589	0.0012931
868.236	0.0010614
877.882	0.001045
887.529	0.0012155
897.175	0.0013988
906.822	0.0016707
916.468	0.002232
926.115	0.003222
935.761	0.005152
945.408	0.008342
955.054	0.011062
964.701	0.010062
974.347	0.010012
983.994	0.011152
993.64	0.011162
1003.29	0.013272
1012.93	0.015652
1022.58	0.017002
1032.23	0.020472
1041.87	0.029982
1051.52	0.048962
1061.17	0.071592
1070.81	0.076312
1080.46	0.050832
1090.11	0.026032
1099.75	0.017802
1109.4	0.013172
1119.05	0.013272
1128.69	0.020082
1138.34	0.029962
1147.99	0.029562
1157.63	0.020102
1167.28	0.013232
1176.92	0.011282
1186.57	0.009702
1196.22	0.009212
1205.86	0.009652
1215.51	0.011212
1225.16	0.013972
1234.8	0.014602
1244.45	0.013922
1254.1	0.015552
1263.74	0.023312
1273.39	0.032352
1283.04	0.033372
1292.68	0.024322
1302.33	0.014592
1311.98	0.010362
1321.62	0.009262
1331.27	0.009402
1340.92	0.011072
1350.56	0.014542
1360.21	0.020512
1369.86	0.025672
1379.5	0.023122
1389.15	0.016032
1398.79	0.010282
1408.44	0.007812
1418.09	0.008012
1427.73	0.010292
1437.38	0.014412
1447.03	0.018962
1456.67	0.021072
1466.32	0.018582
1475.97	0.013102
1485.61	0.007112
1495.26	0.003482
1504.91	0.002162
1514.55	0.0017027
1524.2	0.0014798
1533.85	0.0013425
1543.49	0.0012064
1553.14	0.0009554
1562.79	0.00081483
1572.43	0.0008408
1582.08	0.000765
1591.73	0.0007525
1601.37	0.0007545
1611.02	0.000633
1620.67	0.000678
1630.31	0.000676
1639.96	0.0007629
1649.6	0.0007733
1659.25	0.000696
1668.9	0.000808047
1678.54	0.0007034
1688.19	0.000555
1697.84	0.000424
1707.48	0.000442
1717.13	0.000409
1726.78	0.000355
1736.42	0.000394
1746.07	0.000459
1755.72	0.000488
1765.36	0.000443
1775.01	0.000509
1784.66	0.00038
1794.3	0.000446
1803.95	0.00049
1813.6	0.000534
1823.24	0.000584
1832.89	0.00063
1842.54	0.000505
1852.18	0.000415
1861.83	0.000478
1871.47	0.000434
1881.12	0.000482
1890.77	0.000536
1900.41	0.000594
1910.06	0.000698
1919.71	0.000749
1929.35	0.000583
1939	0.000515
1948.65	0.000366
1958.29	0.000363
1967.94	0.000416
1977.59	0.000411
1987.23	0.000399
1996.88	0.000471
2006.53	0.000425
2016.17	0.000472
2025.82	0.0007119
2035.47	0.000811961
2045.11	0.00086225
2054.76	0.00083838
2064.41	0.000652
2074.05	0.000495
2083.7	0.000393
2093.35	0.000363
2102.99	0.000371
2112.64	0.0004
2122.28	0.000535
2131.93	0.000561
2141.58	0.000641
2151.22	0.000611
2160.87	0.000591
2170.52	0.000508
2180.16	0.000411
2189.81	0.000391
2199.46	0.000497
2209.1	0.000527
2218.75	0.000564
2228.4	0.000677
2238.04	0.0007463
2247.69	0.000766
2257.34	0.0007655
2266.98	0.000915
2276.63	0.00090178
2286.28	0.0009099
2295.92	0.0007316
2305.57	0.000636
2315.22	0.00055
2324.86	0.000558
2334.51	0.000626
2344.16	0.000592
2353.8	0.000632
2363.45	0.000679
2373.09	0.000668
2382.74	0.00067
2392.39	0.0007034
2402.03	0.0007512
2411.68	0.000808226
2421.33	0.00089694
2430.97	0.0009813
2440.62	0.0009079
2450.27	0.00086654
2459.91	0.00082888
2469.56	0.000810815
2479.21	0.00084139
2488.85	0.0010163
2498.5	0.001164
2508.15	0.0013169
2517.79	0.0013843
2527.44	0.0013953
2537.09	0.0014152
2546.73	0.0014452
2556.38	0.0015484
2566.03	0.0015788
2575.67	0.0017212
2585.32	0.001832
2594.96	0.002272
2604.61	0.002722
2614.26	0.003162
2623.9	0.003632
2633.55	0.004002
2643.2	0.004822
2652.84	0.006232
2662.49	0.008392
2672.14	0.010492
2681.78	0.012132
2691.43	0.012232
2701.08	0.012202
2710.72	0.012832
2720.37	0.015512
2730.02	0.019912
2739.66	0.023762
2749.31	0.027702
2758.96	0.037642
2768.6	0.052592
2778.25	0.068252
2787.9	0.075872
2797.54	0.064522
2807.19	0.047442
2816.84	0.031342
2826.48	0.022942
2836.13	0.023752
2845.77	0.030832
2855.42	0.034412
2865.07	0.032542
2874.71	0.031412
2884.36	0.033472
2894.01	0.037972
2903.65	0.044062
2913.3	0.054662
2922.95	0.073062
2932.59	0.103792
2942.24	0.130492
2951.89	0.123742
2961.53	0.084252
2971.18	0.044022
2980.83	0.024952
2990.47	0.012372
3000.12	0.005262
3009.77	0.002702
3019.41	0.001912
3029.06	0.0014701
3038.71	0.0012877
3048.35	0.0012671
3058	0.0010732
3067.64	0.0010982
3077.29	0.0009445
3086.94	0.0007436
3096.58	0.000609
3106.23	0.0007196
3115.88	0.0007454
3125.52	0.000544
3135.17	0.00079882
3144.82	0.000701
3154.46	0.0007601
3164.11	0.000696
3173.76	0.000955
3183.4	0.0009279
3193.05	0.000553
3202.7	0.000573
3212.34	0.000407
3221.99	0.000204
3231.64	0.000134
3241.28	0.000295
3250.93	0.00014
3260.58	0
3270.22	0.000267
3279.87	0.000326
3289.52	0.000353
3299.16	0.000555
3308.81	0.000539
3318.45	0.000536
3328.1	0.000442
3337.75	0.000494
3347.39	0.000446
3357.04	0.000486
3366.69	0.000472
3376.33	0.000434
3385.98	0.000509
3395.63	0.00067
3405.27	0.0007034
3414.92	0.00086319
3424.57	0.000691
3434.21	0.000654
3443.86	0.0009049
3453.51	0.000632
3463.15	0.000685
3472.8	0.0007561
3482.45	0.000662
3492.09	0.000534
3501.74	0.00079391
3511.39	0.0010388
3521.03	0.0007785
3530.68	0.00083975
3540.33	0.000591
3549.97	0.000653
3559.62	0.000674
3569.26	0.000603
3578.91	0.000448
3588.56	0.000649
3598.2	0.0007145
3607.85	0.0007527
3617.5	0.0014086
3627.14	0.002772
3636.79	0.005912
3646.44	0.009612
3656.08	0.009242
3665.73	0.005352
3675.38	0.001952
3685.02	0.0009654
3694.67	0.000675
3704.32	0.000633
3713.96	0.000408
3723.61	0.000662
3733.26	0.000597
3742.9	0.000647
3752.55	0.000583
3762.2	0.000697
3771.84	0.000661
3781.49	0.000628
3791.13	0.000573
3800.78	0.000507
3810.43	0.000619
3820.07	0.00085127
3829.72	0.0007669
3839.37	0.0007491
3849.01	0.0007625
3858.66	0.0007256
3868.31	0.0009105
3877.95	0.000647
3887.6	0.0009103
3897.25	0.00083202
3906.89	0.000676
3916.54	0.000687
3926.19	0.00089552
3935.83	0.000806849
3945.48	0.0007608
3955.13	0.000789
3964.77	0.000565
3974.42	0.00087503
3984.07	0.000693
3993.71	0.000549
