Infrared Spectrum: 3,7-Dimethyl-1-octanol
Formula: C 10 H 22 O
CAS: 106-21-8
State: gas
Instrument: HP-GC/MS/IRD
Origin: NIST Mass Spectrometry Data Center
1/CM	ABSORBANCE
550	0.0003186
562	0.0001377
574	5.94e-05
586	0.0001134
598	0.0001188
610	3.78e-05
622	0.0001647
634	0.0001269
646	5.67e-05
658	0.000108
670	9.72e-05
682	0.0001215
694	0.0001512
706	0.0001998
718	0.0003024
730	0.000378
742	0.0003294
754	0.000243
766	0.0002187
778	0.0002511
790	0.0003024
802	0.0002457
814	0.0003537
826	0.0004752
838	0.0005238
850	0.000567
862	0.0005508
874	0.0004725
886	0.0004023
898	0.0004887
910	0.0006507
922	0.0007938
934	0.000999
946	0.0012798
958	0.0016227
970	0.0019089
982	0.0020358
994	0.0023679
1006	0.0028296
1018	0.0031374
1030	0.0044361
1042	0.005859
1054	0.0057051
1066	0.0042012
1078	0.0026325
1090	0.0017361
1102	0.0014094
1114	0.0012933
1126	0.0012474
1138	0.0012258
1150	0.0013041
1162	0.001512
1174	0.0014445
1186	0.001242
1198	0.0012339
1210	0.0013122
1222	0.0012879
1234	0.0012501
1246	0.0012528
1258	0.0012528
1270	0.0013014
1282	0.0013338
1294	0.0012582
1306	0.0012447
1318	0.001296
1330	0.0015363
1342	0.0017388
1354	0.0020115
1366	0.0028269
1378	0.0038664
1390	0.0037422
1402	0.001971
1414	0.0012663
1426	0.0011691
1438	0.0015903
1450	0.0024435
1462	0.0035289
1474	0.0031941
1486	0.0016848
1498	0.0007857
1510	0.0005238
1522	0.0003267
1534	0.0002538
1546	0.0002052
1558	0.0001782
1570	0.000135
1582	0.0001377
1594	0.0001431
1606	0.0001188
1618	0.0001188
1630	0.0001134
1642	8.37e-05
1654	0.0001134
1666	0.0001188
1678	0.0001161
1690	0.0001323
1702	0.0001053
1714	0.0001026
1726	0.0001296
1738	0.0001404
1750	0.0001188
1762	6.75e-05
1774	6.75e-05
1786	7.56e-05
1798	6.75e-05
1810	4.86e-05
1822	8.37e-05
1834	5.67e-05
1846	5.94e-05
1858	5.4e-05
1870	6.21e-05
1882	5.94e-05
1894	5.4e-05
1906	2.7e-05
1918	4.59e-05
1930	4.86e-05
1942	3.78e-05
1954	5.4e-05
1966	2.97e-05
1978	2.97e-05
1990	4.32e-05
2002	5.67e-05
2014	6.75e-05
2026	7.83e-05
2038	7.02e-05
2050	8.37e-05
2062	5.67e-05
2074	4.59e-05
2086	3.51e-05
2098	1.35e-05
2110	1.89e-05
2122	2.7e-05
2134	2.16e-05
2146	4.32e-05
2158	2.16e-05
2170	1.89e-05
2182	4.05e-05
2194	2.7e-05
2206	8.1e-06
2218	0
2230	1.35e-05
2242	3.78e-05
2254	1.89e-05
2266	3.78e-05
2278	2.16e-05
2290	3.51e-05
2302	4.05e-05
2314	5.4e-05
2326	5.67e-05
2338	4.59e-05
2350	5.4e-05
2362	5.67e-05
2374	6.21e-05
2386	4.59e-05
2398	6.21e-05
2410	4.05e-05
2422	3.51e-05
2434	5.4e-05
2446	2.97e-05
2458	4.05e-05
2470	4.59e-05
2482	2.7e-05
2494	3.78e-05
2506	2.16e-05
2518	4.32e-05
2530	3.24e-05
2542	4.86e-05
2554	7.56e-05
2566	7.83e-05
2578	0.0001431
2590	0.0001593
2602	0.0001863
2614	0.0001917
2626	0.0002241
2638	0.0002565
2650	0.0002565
2662	0.0002673
2674	0.0003078
2686	0.0003456
2698	0.0004185
2710	0.000486
2722	0.0005913
2734	0.0006723
2746	0.0006777
2758	0.0006723
2770	0.0007452
2782	0.0008829
2794	0.0010638
2806	0.001323
2818	0.0016875
2830	0.0024138
2842	0.0041526
2854	0.0072387
2866	0.0098577
2878	0.013581
2890	0.0142317
2902	0.0159408
2914	0.0200016
2926	0.0241785
2938	0.0254637
2950	0.0218835
2962	0.027
2974	0.0184167
2986	0.0060453
2998	0.0026919
3010	0.0015363
3022	0.0009882
3034	0.0007614
3046	0.0006318
3058	0.0005184
3070	0.0004536
3082	0.0004509
3094	0.000351
3106	0.000297
3118	0.0002538
3130	0.0002916
3142	0.0002511
3154	0.0002943
3166	0.00027
3178	0.0002376
3190	0.0001836
3202	0.000162
3214	8.1e-05
3226	3.24e-05
3238	5.4e-06
3250	1.35e-05
3262	2.16e-05
3274	2.43e-05
3286	4.32e-05
3298	1.89e-05
3310	5.4e-06
3322	1.89e-05
3334	8.91e-05
3346	7.56e-05
3358	6.21e-05
3370	6.48e-05
3382	7.83e-05
3394	3.78e-05
3406	5.67e-05
3418	6.48e-05
3430	2.97e-05
3442	7.29e-05
3454	6.75e-05
3466	8.1e-05
3478	6.75e-05
3490	6.48e-05
3502	9.99e-05
3514	0.000108
3526	0.0001107
3538	9.45e-05
3550	3.78e-05
3562	0.0001296
3574	9.45e-05
3586	9.99e-05
3598	0.0001377
3610	0.0001512
3622	0.0002322
3634	0.0003483
3646	0.000675
3658	0.001404
3670	0.0016038
3682	0.0008613
3694	0.0003834
3706	0.0002484
3718	0.0001998
3730	0.0001566
3742	0.0001593
3754	9.72e-05
3766	0.0001026
3778	9.45e-05
3790	0.0001242
3802	9.99e-05
3814	0.000135
3826	0.0001647
3838	0.0001593
