Infrared Spectrum: Triethylene glycol dioctanoate
Formula: C22 H42 O6
CAS: 106-10-5
State: SOLUTION (10% CCl4 FOR 2.7-7.5, CS2 FOR 7.5-26 MICRON) VS SOLVENT
Class: COBLENTZ
Instrument: DOW KBr FOREPRISM-GRATING
Instrument parameters: BLAZED AT 3.5, 12.0, 20.0 MICRON AND CHANGED AT 5.0, 7.5, 14.9 MICRON
Sampling: TRANSMISSION
Path length: 0.011 CM, 0.011 CM
Resolution: 2
Origin: DOW CHEMICAL COMPANY
1/CM	TRANSMITTANCE
391	0.7575
400	0.7568
409	0.7568
418	0.7567
427	0.7558
436	0.7558
445	0.7568
454	0.7567
463	0.7543
472	0.7508
481	0.7474
490	0.7455
499	0.7442
508	0.7425
517	0.7415
526	0.749
535	0.7593
544	0.7635
553	0.7664
562	0.7668
571	0.7649
580	0.7675
589	0.7751
598	0.7826
607	0.7901
616	0.7978
625	0.8047
634	0.8101
643	0.8128
652	0.8138
661	0.8256
670	0.8061
679	0.8105
688	0.8038
697	0.7957
706	0.778
715	0.7535
724	0.6921
733	0.7531
742	0.7649
751	0.7738
760	0.7737
769	0.7719
778	0.7706
787	0.7661
796	0.759
805	0.7508
814	0.7397
823	0.7234
832	0.7122
841	0.6884
850	0.6456
859	0.638
868	0.6528
877	0.6611
886	0.6726
895	0.6765
904	0.649
913	0.6109
922	0.5817
931	0.5701
940	0.5638
949	0.5609
958	0.5804
967	0.669
976	0.6835
985	0.6592
994	0.6404
1003	0.625
1012	0.5892
1021	0.5477
1030	0.4837
1039	0.413
1048	0.3634
1057	0.3587
1066	0.368
1075	0.3734
1084	0.3571
1093	0.2431
1102	0.1378
1111	0.136
1120	0.1356
1129	0.1212
1138	0.1226
1147	0.1252
1156	0.1099
1165	0.0928
1174	0.123
1183	0.1831
1192	0.2178
1201	0.2693
1210	0.2845
1219	0.2763
1228	0.277
1237	0.2523
1246	0.2304
1255	0.2796
1264	0.3081
1273	0.3222
1282	0.3321
1291	0.3355
1300	0.3496
1309	0.4274
1318	0.481
1327	0.5109
1336	0.4895
1345	0.441
1354	0.4273
1363	0.4738
1372	0.4581
1381	0.3653
1390	0.484
1399	0.5555
1408	0.5702
1417	0.4883
1426	0.5291
1435	0.5194
1444	0.4443
1453	0.368
1462	0.3153
1471	0.2989
1480	0.7158
1489	0.7558
1498	0.8136
1507	0.8349
1516	0.8462
1525	0.8549
1534	0.8604
1543	0.8611
1552	0.8578
1561	0.8561
1570	0.8568
1579	0.8538
1588	0.8487
1597	0.8425
1606	0.837
1615	0.8312
1624	0.8256
1633	0.8198
1642	0.8131
1651	0.8011
1660	0.7861
1669	0.7612
1678	0.7246
1687	0.6685
1696	0.5007
1705	0.2175
1714	0.211
1723	0.0682
1732	0.0055
1741	0.0361
1750	0.2071
1759	0.4698
1768	0.6846
1777	0.7558
1786	0.7895
1795	0.8096
1804	0.8273
1813	0.8398
1822	0.8501
1831	0.8564
1840	0.8599
1849	0.8667
1858	0.8665
1867	0.8668
1876	0.8666
1885	0.8665
1894	0.8658
1903	0.8646
1912	0.8635
1921	0.8625
1930	0.8621
1939	0.8618
1948	0.8625
1957	0.8634
1966	0.8631
1975	0.8625
1984	0.8628
1993	0.8628
2002	0.8533
2011	0.8202
2020	0.8586
2029	0.8618
2038	0.8634
2047	0.8651
2056	0.8668
2065	0.8685
2074	0.8694
2083	0.8703
2092	0.8716
2101	0.8728
2110	0.8737
2119	0.8744
2128	0.8752
2137	0.8756
2146	0.8753
2155	0.8749
2164	0.8748
2173	0.8756
2182	0.8782
2191	0.8703
2200	0.8681
2209	0.8678
2218	0.8678
2227	0.8675
2236	0.8671
2245	0.8666
2254	0.8662
2263	0.8652
2272	0.8643
2281	0.8635
2290	0.8628
2299	0.8621
2308	0.862
2317	0.8625
2326	0.8648
2335	0.8655
2344	0.8645
2353	0.8634
2362	0.8625
2371	0.8623
2380	0.8623
2389	0.8625
2398	0.8624
2407	0.8614
2416	0.8604
2425	0.8591
2434	0.8578
2443	0.8566
2452	0.8553
2461	0.8533
2470	0.8505
2479	0.8478
2488	0.845
2497	0.8418
2506	0.8381
2515	0.8342
2524	0.8304
2533	0.8267
2542	0.8231
2551	0.8195
2560	0.8158
2569	0.8121
2578	0.8083
2587	0.8045
2596	0.8007
2605	0.7968
2614	0.7928
2623	0.7889
2632	0.785
2641	0.7812
2650	0.7776
2659	0.7741
2668	0.7708
2677	0.7674
2686	0.7643
2695	0.7617
2704	0.7592
2713	0.7558
2722	0.7518
2731	0.7476
2740	0.7478
2749	0.7499
2758	0.749
2767	0.7425
2776	0.73
2785	0.711
2794	0.6915
2803	0.6678
2812	0.6428
2821	0.6052
2830	0.5708
2839	0.5274
2848	0.4021
2857	0.0801
2866	0.1064
2875	0.1242
2884	0.1884
2893	0.1834
2902	0.1564
2911	0.086
2920	0.0325
2929	0.0234
2938	0.0358
2947	0.0573
2956	0.0564
2965	0.0621
2974	0.1604
2983	0.3732
2992	0.4399
3001	0.5266
3010	0.6109
3019	0.6724
3028	0.6921
3037	0.7091
3046	0.7188
3055	0.7258
3064	0.7325
3073	0.7381
3082	0.7425
3091	0.7469
3100	0.7511
3109	0.7544
3118	0.7572
3127	0.7596
3136	0.7618
3145	0.7639
3154	0.766
3163	0.7678
3172	0.7698
3181	0.7718
3190	0.7742
3199	0.7765
3208	0.7798
3217	0.7833
3226	0.7871
3235	0.7911
3244	0.7934
3253	0.795
3262	0.796
3271	0.7969
3280	0.7981
3289	0.7993
3298	0.8004
3307	0.8014
3316	0.8024
3325	0.8034
3334	0.8043
3343	0.8053
3352	0.8062
3361	0.8072
3370	0.8078
3379	0.8071
3388	0.8062
3397	0.8048
3406	0.8018
3415	0.7971
3424	0.7888
3433	0.7799
3442	0.7717
3451	0.7678
3460	0.7678
3469	0.7701
3478	0.7718
3487	0.7726
3496	0.7733
3505	0.7728
3514	0.7721
3523	0.7714
3532	0.7724
3541	0.7818
3550	0.7936
3559	0.8041
3568	0.8141
3577	0.8188
3586	0.8167
3595	0.8139
3604	0.8165
3613	0.8251
3622	0.8364
3631	0.8441
3640	0.8486
3649	0.8513
3658	0.852
3667	0.8517
3676	0.851
3685	0.8542
3694	0.8602
3703	0.8625
3712	0.8633
3721	0.863
3730	0.8627
3739	0.8623
3748	0.8628
3757	0.8638
3766	0.864
3775	0.8635
3784	0.8624
3793	0.8613
