Infrared Spectrum: n-Butyric anhydride
Formula: C 8 H 14 O 3
CAS: 106-31-0
State: gas
Instrument: HP-GC/MS/IRD
Origin: NIST Mass Spectrometry Data Center
1/CM	ABSORBANCE
550	0.0044044
562	0.0038236
574	0.0033638
586	0.00242
598	0.0016698
610	0.0010164
622	0.0006534
634	0.0004598
646	0.000242
658	0.0002904
670	0.0003146
682	0.000484
694	0.0007744
706	0.0012584
718	0.0018876
730	0.0030008
742	0.0043076
754	0.0054934
766	0.0065824
778	0.008228
790	0.0100672
802	0.011737
814	0.012826
826	0.0139634
838	0.0162382
850	0.0195536
862	0.0222398
874	0.024684
886	0.0261844
898	0.0297902
910	0.0404624
922	0.048884
934	0.0419386
946	0.0257972
958	0.0175934
970	0.017787
982	0.0263538
994	0.0537482
1006	0.120831
1018	0.211944
1030	0.239532
1042	0.196141
1054	0.154178
1066	0.111417
1078	0.0824736
1090	0.0704462
1102	0.067881
1114	0.0742456
1126	0.0727936
1138	0.0635492
1150	0.0497552
1162	0.0393734
1174	0.0322828
1186	0.0270556
1198	0.020812
1210	0.0172546
1222	0.0192148
1234	0.0234498
1246	0.0224576
1258	0.0184888
1270	0.0164802
1282	0.016456
1294	0.0177628
1306	0.0150282
1318	0.0122936
1330	0.0143264
1342	0.0207152
1354	0.0264022
1366	0.0242726
1378	0.0170852
1390	0.01331
1402	0.0111804
1414	0.0120274
1426	0.0143748
1438	0.0143264
1450	0.014036
1462	0.0160204
1474	0.0121726
1486	0.0067034
1498	0.0037752
1510	0.0023474
1522	0.001573
1534	0.0011374
1546	0.0009196
1558	0.0009196
1570	0.0008954
1582	0.0008954
1594	0.0009196
1606	0.0010164
1618	0.0011374
1630	0.0012826
1642	0.0014762
1654	0.0016456
1666	0.0018392
1678	0.002299
1690	0.0031218
1702	0.0046464
1714	0.0075504
1726	0.0132616
1738	0.0266442
1750	0.0587576
1762	0.095711
1774	0.0845306
1786	0.0582252
1798	0.059048
1810	0.0886204
1822	0.119669
1834	0.098252
1846	0.0504086
1858	0.0228448
1870	0.0114466
1882	0.0062436
1894	0.0037752
1906	0.0025894
1918	0.0019118
1930	0.001452
1942	0.0010406
1954	0.000726
1966	0.0005808
1978	0.0004598
1990	0.0004114
2002	0.0003872
2014	0.0004356
2026	0.0004598
2038	0.0005808
2050	0.0007018
2062	0.0008228
2074	0.0010648
2086	0.0015972
2098	0.0031702
2110	0.0055176
2122	0.0066308
2134	0.0059774
2146	0.0028072
2158	0.0010648
2170	0.0005324
2182	0.0003146
2194	0.0001694
2206	0.000121
2218	7.26e-05
2230	0
2242	0
2254	2.42e-05
2266	4.84e-05
2278	0
2290	4.84e-05
2302	0
2314	2.42e-05
2326	7.26e-05
2338	9.68e-05
2350	9.68e-05
2362	9.68e-05
2374	9.68e-05
2386	7.26e-05
2398	0.000121
2410	0.0001452
2422	0.0001936
2434	0.000121
2446	4.84e-05
2458	7.26e-05
2470	9.68e-05
2482	0.0001694
2494	0.0001694
2506	0.0001694
2518	0.0001936
2530	0.0001452
2542	0.0001936
2554	0.000242
2566	0.0001936
2578	0.0002178
2590	0.000242
2602	0.0002178
2614	0.0001936
2626	0.000242
2638	0.0002662
2650	0.0003388
2662	0.0005566
2674	0.0006776
2686	0.0007502
2698	0.000726
2710	0.0007018
2722	0.0007744
2734	0.0009438
2746	0.0013552
2758	0.001573
2770	0.0016698
2782	0.0017908
2794	0.0021538
2806	0.0025894
2818	0.0032428
2830	0.0040898
2842	0.0052998
2854	0.0072842
2866	0.0114466
2878	0.0220462
2890	0.0302742
2902	0.025652
2914	0.0263296
2926	0.032549
2938	0.0456896
2950	0.0570878
2962	0.0599434
2974	0.078529
2986	0.0653884
2998	0.032307
3010	0.0160446
3022	0.0091476
3034	0.0058564
3046	0.0041624
3058	0.0031702
3070	0.0025652
3082	0.0022022
3094	0.0018392
3106	0.001573
3118	0.0015488
3130	0.0013552
3142	0.0012826
3154	0.0011858
3166	0.001089
3178	0.0009196
3190	0.0008712
3202	0.0007502
3214	0.0007018
3226	0.000484
3238	0.0003872
3250	0.0003146
3262	0.0002662
3274	0.0002178
3286	0.0001694
3298	0.0002178
3310	0.0002178
3322	0.0001694
3334	0.0001936
3346	0.0001936
3358	0.0002178
3370	0.0001936
3382	0.000242
3394	0.0001694
3406	0.0001936
3418	0.0001936
3430	0.0002662
3442	0.0002662
3454	0.0003146
3466	0.0003872
3478	0.0005808
3490	0.0008228
3502	0.0011616
3514	0.0013552
3526	0.0012826
3538	0.0011616
3550	0.00121
3562	0.0017666
3574	0.002299
3586	0.0023232
3598	0.0015972
3610	0.0014762
3622	0.001452
3634	0.0013068
3646	0.0011858
3658	0.0010406
3670	0.0007744
3682	0.0006776
3694	0.000605
3706	0.0004598
3718	0.0004356
3730	0.0005082
3742	0.0004356
3754	0.0003872
3766	0.0004114
3778	0.0004356
3790	0.0004598
3802	0.0004598
3814	0.0005082
3826	0.0004598
3838	0.0004356
