Infrared Spectrum: 1-PROPANOL, 2-(2-HYDROXYPROPOXY)-
Formula: C6 H14 O3
CAS: 106-62-7
State: LIQUID (NEAT)
Boiling point: 102 C AT 3.7 mmHg
Class: COBLENTZ III
Instrument: BAIRD (GRATING)
Instrument parameters: NaCl PRISM
Sampling: TRANSMISSION
Path length: 0.0015 CM
Resolution: 2
Origin: WYANDOTTE CHEMICALS CORP.
1/CM	TRANSMITTANCE
4000	0.8418
3991	0.844
3982	0.846
3973	0.848
3964	0.8495
3955	0.8507
3946	0.8518
3937	0.8531
3928	0.8535
3919	0.8538
3910	0.8539
3901	0.8538
3892	0.8525
3883	0.8507
3874	0.8483
3865	0.8465
3856	0.8454
3847	0.845
3838	0.8455
3829	0.8468
3820	0.8484
3811	0.8496
3802	0.8507
3793	0.8518
3784	0.8518
3775	0.8516
3766	0.8503
3757	0.8487
3748	0.8464
3739	0.8438
3730	0.841
3721	0.8371
3712	0.8328
3703	0.827
3694	0.8203
3685	0.8071
3676	0.7938
3667	0.779
3658	0.7618
3649	0.7419
3640	0.7147
3631	0.6748
3622	0.6518
3613	0.6354
3604	0.6005
3595	0.5544
3586	0.5128
3577	0.471
3568	0.429
3559	0.3664
3550	0.3336
3541	0.3119
3532	0.2931
3523	0.2423
3514	0.2066
3505	0.1816
3496	0.1622
3487	0.144
3478	0.131
3469	0.1202
3460	0.1079
3451	0.0969
3442	0.0884
3433	0.0798
3424	0.0711
3415	0.0638
3406	0.0565
3397	0.0486
3388	0.0435
3379	0.041
3370	0.0396
3361	0.039
3352	0.0389
3343	0.0387
3334	0.0386
3325	0.0385
3316	0.0386
3307	0.0394
3298	0.0416
3289	0.0469
3280	0.0576
3271	0.0743
3262	0.0876
3253	0.0986
3244	0.1119
3235	0.1279
3226	0.1467
3217	0.1659
3208	0.1871
3199	0.2076
3190	0.2252
3181	0.2441
3172	0.2721
3163	0.3016
3154	0.3358
3145	0.3674
3136	0.3993
3127	0.4312
3118	0.4635
3109	0.496
3100	0.5286
3091	0.5585
3082	0.5756
3073	0.5904
3064	0.5944
3055	0.5943
3046	0.5929
3037	0.5736
3028	0.4738
3019	0.3666
3010	0.2588
3001	0.1503
2992	0.1014
2983	0.1133
2974	0.1311
2965	0.1365
2956	0.124
2947	0.1058
2938	0.0925
2929	0.0918
2920	0.0917
2911	0.0919
2902	0.0922
2893	0.0929
2884	0.0983
2875	0.1272
2866	0.1807
2857	0.222
2848	0.2783
2839	0.4237
2830	0.4723
2821	0.4947
2812	0.5214
2803	0.5459
2794	0.5665
2785	0.5833
2776	0.5972
2767	0.611
2758	0.6245
2749	0.6375
2740	0.6467
2731	0.6558
2722	0.6644
2713	0.6726
2704	0.6811
2695	0.6901
2686	0.6993
2677	0.7087
2668	0.7182
2659	0.728
2650	0.7404
2641	0.7544
2632	0.7634
2623	0.7695
2614	0.7751
2605	0.7808
2596	0.7848
2587	0.7875
2578	0.7882
2569	0.7891
2560	0.793
2551	0.7988
2542	0.8051
2533	0.8115
2524	0.8153
2515	0.8189
2506	0.8198
2497	0.8202
2488	0.8204
2479	0.8206
2470	0.8213
2461	0.8275
2452	0.8357
2443	0.8435
2434	0.851
2425	0.857
2416	0.8616
2407	0.8656
2398	0.8683
2389	0.8697
2380	0.8698
2371	0.87
2362	0.8694
2353	0.8685
2344	0.8683
2335	0.8695
2326	0.8709
2317	0.8728
2308	0.877
2299	0.8875
2290	0.8989
2281	0.9024
2272	0.9047
2263	0.9081
2254	0.9099
2245	0.9102
2236	0.911
2227	0.9118
2218	0.9128
2209	0.9151
2200	0.9171
2191	0.9171
2182	0.9173
2173	0.9174
2164	0.9175
2155	0.9178
2146	0.9183
2137	0.9187
2128	0.9191
2119	0.9195
2110	0.9199
2101	0.9205
2092	0.9214
2083	0.9221
2074	0.923
2065	0.924
2056	0.925
2047	0.925
2038	0.9243
2029	0.9244
2020	0.9271
2011	0.9318
2002	0.9375
1993	0.939
1984	0.9321
1975	0.9306
1966	0.9309
1957	0.9316
1948	0.9323
1939	0.933
1930	0.9341
1921	0.9361
1912	0.9382
1903	0.9398
1894	0.9404
1885	0.9403
1876	0.942
1867	0.9474
1858	0.9518
1849	0.9531
1840	0.9536
1831	0.9537
1822	0.9532
1813	0.9498
1804	0.946
1795	0.9442
1786	0.9434
1777	0.9425
1768	0.9404
1759	0.929
1750	0.9218
1741	0.9185
1732	0.9114
1723	0.9052
1714	0.8894
1705	0.8671
1696	0.8478
1687	0.8283
1678	0.7976
1669	0.7745
1660	0.8154
1651	0.8358
1642	0.8445
1633	0.8497
1624	0.8568
1615	0.8637
1606	0.8646
1597	0.8674
1588	0.8618
1579	0.862
1570	0.8603
1561	0.8528
1552	0.8432
1543	0.83
1534	0.8104
1525	0.7942
1516	0.7484
1507	0.7124
1498	0.6153
1489	0.4627
1480	0.3073
1471	0.2699
1462	0.2933
1453	0.3524
1444	0.3737
1435	0.3636
1426	0.3498
1417	0.358
1408	0.3612
1399	0.3122
1390	0.2268
1381	0.1793
1372	0.3127
1363	0.3684
1354	0.3292
1345	0.3316
1336	0.3374
1327	0.4012
1318	0.4558
1309	0.4252
1300	0.4116
1291	0.4281
1282	0.4447
1273	0.4526
1264	0.4397
1255	0.4218
1246	0.4229
1237	0.4512
1228	0.5358
1219	0.5966
1210	0.6265
1201	0.6454
1192	0.6019
1183	0.5376
1174	0.3279
1165	0.1376
1156	0.0515
1147	0.0623
1138	0.0851
1129	0.0917
1120	0.0795
1111	0.0475
1102	0.034
1093	0.0312
1084	0.0381
1075	0.0534
1066	0.0628
1057	0.0499
1048	0.0529
1039	0.1519
1030	0.3716
1021	0.455
1012	0.4476
1003	0.565
994	0.3316
985	0.5051
976	0.7311
967	0.7161
958	0.4939
949	0.4591
940	0.345
931	0.4742
922	0.5815
913	0.609
904	0.6031
895	0.7161
886	0.8351
877	0.8133
868	0.592
859	0.4886
850	0.6024
841	0.6109
832	0.5746
823	0.6252
814	0.6621
805	0.6865
796	0.7289
787	0.7421
778	0.7422
769	0.7275
760	0.7083
751	0.6893
742	0.6707
733	0.6554
724	0.6404
715	0.6255
706	0.6134
697	0.6004
688	0.5866
679	0.5743
670	0.5612
661	0.5464
652	0.5618
643	0.5715
634	0.5814
