Infrared Spectrum: n-BUTYRIC ACID, GERANYL ESTER
Formula: C14 H24 O2
CAS: 106-29-6
State: LIQUID
Class: COBLENTZ
Instrument: Not specified, most likely a prism, grating, or hybrid spectrometer.
Sampling: TRANSMISSION
Path length: 0.0025 CM
Resolution: 4
Origin: INFRACORD
MICROMETERS	TRANSMITTANCE
2.524	0.907
2.55941	0.908
2.59482	0.911
2.63023	0.912
2.66563	0.913
2.70104	0.913
2.73645	0.912
2.77186	0.907
2.80727	0.898
2.84268	0.895
2.87809	0.883
2.91349	0.877
2.9489	0.887
2.98431	0.888
3.01972	0.893
3.05513	0.899
3.09054	0.9
3.12594	0.899
3.16135	0.893
3.19676	0.883
3.23217	0.862
3.26758	0.812
3.30299	0.736
3.3384	0.515
3.3738	0.233
3.40921	0.152
3.44462	0.2
3.48003	0.29
3.51544	0.472
3.55085	0.704
3.58626	0.822
3.62166	0.866
3.65707	0.872
3.69248	0.872
3.72789	0.886
3.7633	0.893
3.79871	0.902
3.83412	0.907
3.86952	0.909
3.90493	0.911
3.94034	0.914
3.97575	0.914
4.01116	0.915
4.04657	0.915
4.08197	0.915
4.11738	0.915
4.15279	0.915
4.1882	0.917
4.22361	0.919
4.25902	0.919
4.29443	0.921
4.32983	0.927
4.36524	0.931
4.40065	0.931
4.43606	0.932
4.47147	0.932
4.50688	0.932
4.54229	0.932
4.57769	0.932
4.6131	0.932
4.64851	0.932
4.68392	0.932
4.71933	0.933
4.75474	0.933
4.79014	0.932
4.82555	0.932
4.86096	0.932
4.89637	0.933
4.93178	0.934
4.96719	0.933
5.0026	0.932
5.038	0.932
5.07341	0.932
5.10882	0.933
5.14423	0.933
5.17964	0.932
5.21505	0.931
5.25046	0.933
5.28586	0.932
5.32127	0.931
5.35668	0.931
5.39209	0.933
5.4275	0.928
5.46291	0.922
5.49832	0.913
5.53372	0.892
5.56913	0.875
5.60454	0.853
5.63995	0.806
5.67536	0.738
5.71077	0.529
5.74617	0.208
5.78158	0.03
5.81699	0.058
5.8524	0.437
5.88781	0.671
5.92322	0.739
5.95863	0.784
5.99403	0.791
6.02944	0.745
6.06485	0.798
6.10026	0.83
6.13567	0.851
6.17108	0.876
6.20649	0.882
6.24189	0.887
6.2773	0.888
6.31271	0.89
6.34812	0.892
6.38353	0.895
6.41894	0.895
6.45435	0.895
6.48975	0.895
6.52516	0.895
6.56057	0.895
6.59598	0.895
6.63139	0.892
6.6668	0.88
6.7022	0.85
6.73761	0.829
6.77302	0.752
6.80843	0.601
6.84384	0.477
6.87925	0.399
6.91466	0.341
6.95006	0.349
6.98547	0.398
7.02088	0.49
7.05629	0.561
7.0917	0.612
7.12711	0.695
7.16252	0.706
7.19792	0.64
7.23333	0.514
7.26874	0.351
7.30415	0.388
7.33956	0.481
7.37497	0.488
7.41038	0.5
7.44578	0.554
7.48119	0.61
7.5166	0.65
7.55201	0.681
7.58742	0.709
7.62283	0.707
7.65823	0.626
7.69364	0.531
7.72905	0.501
7.76446	0.517
7.79987	0.521
7.83528	0.497
7.87069	0.457
7.90609	0.441
7.9415	0.43
7.97691	0.394
8.01232	0.356
8.04773	0.35
8.08314	0.372
8.11855	0.437
8.15395	0.484
8.18936	0.52
8.22477	0.534
8.26018	0.503
8.29559	0.406
8.331	0.328
8.3664	0.266
8.40181	0.196
8.43722	0.135
8.47263	0.087
8.50804	0.05
8.54345	0.045
8.57886	0.071
8.61426	0.228
8.64967	0.354
8.68508	0.491
8.72049	0.581
8.7559	0.639
8.79131	0.688
8.82672	0.715
8.86212	0.721
8.89753	0.722
8.93294	0.71
8.96835	0.649
9.00376	0.553
9.03917	0.471
9.07458	0.432
9.10998	0.425
9.14539	0.425
9.1808	0.428
9.21621	0.449
9.25162	0.502
9.28703	0.565
9.32243	0.631
9.35784	0.682
9.39325	0.712
9.42866	0.725
9.46407	0.726
9.49948	0.713
9.53489	0.672
9.57029	0.642
9.6057	0.631
9.64111	0.649
9.67652	0.709
9.71193	0.755
9.74734	0.78
9.78275	0.792
9.81815	0.796
9.85356	0.798
9.88897	0.796
9.92438	0.778
9.95979	0.746
9.9952	0.709
10.0306	0.669
10.066	0.595
10.1014	0.56
10.1368	0.503
10.1722	0.465
10.2076	0.445
10.2431	0.436
10.2785	0.422
10.3139	0.408
10.3493	0.4
10.3847	0.4
10.4201	0.418
10.4555	0.462
10.4909	0.55
10.5263	0.632
10.5617	0.695
10.5971	0.738
10.6325	0.773
10.668	0.785
10.7034	0.79
10.7388	0.793
10.7742	0.796
10.8096	0.799
10.845	0.802
10.8804	0.808
10.9158	0.812
10.9512	0.815
10.9866	0.817
11.022	0.817
11.0575	0.797
11.0929	0.791
11.1283	0.78
11.1637	0.773
11.1991	0.765
11.2345	0.764
11.2699	0.763
11.3053	0.763
11.3407	0.765
11.3761	0.771
11.4115	0.778
11.4469	0.781
11.4824	0.784
11.5178	0.786
11.5532	0.787
11.5886	0.79
11.624	0.793
11.6594	0.797
11.6948	0.798
11.7302	0.799
11.7656	0.797
11.801	0.787
11.8364	0.776
11.8718	0.76
11.9073	0.739
11.9427	0.722
11.9781	0.707
12.0135	0.697
12.0489	0.695
12.0843	0.696
12.1197	0.706
12.1551	0.721
12.1905	0.738
12.2259	0.748
12.2613	0.758
12.2968	0.759
12.3322	0.759
12.3676	0.759
12.403	0.759
12.4384	0.759
12.4738	0.759
12.5092	0.759
12.5446	0.759
12.58	0.759
12.6154	0.759
12.6508	0.76
12.6862	0.763
12.7217	0.766
12.7571	0.77
12.7925	0.77
12.8279	0.77
12.8633	0.77
12.8987	0.77
12.9341	0.772
12.9695	0.774
13.0049	0.783
13.0403	0.789
13.0757	0.793
13.1111	0.793
13.1466	0.793
13.182	0.791
13.2174	0.78
13.2528	0.763
13.2882	0.748
13.3236	0.74
13.359	0.736
13.3944	0.736
13.4298	0.739
13.4652	0.748
13.5006	0.764
13.536	0.774
13.5715	0.786
13.6069	0.793
13.6423	0.802
13.6777	0.809
13.7131	0.81
13.7485	0.812
13.7839	0.812
13.8193	0.813
13.8547	0.813
13.8901	0.813
13.9255	0.813
13.961	0.813
13.9964	0.812
14.0318	0.812
14.0672	0.811
14.1026	0.804
14.138	0.8
14.1734	0.798
14.2088	0.797
14.2442	0.793
14.2796	0.79
14.315	0.786
14.3504	0.784
14.3859	0.783
14.4213	0.781
14.4567	0.781
14.4921	0.779
14.5275	0.777
14.5629	0.776
14.5983	0.774
14.6337	0.768
14.6691	0.766
14.7045	0.764
14.7399	0.764
14.7753	0.758
14.8108	0.747
14.8462	0.739
14.8816	0.738
14.917	0.735
14.9524	0.732
14.9878	0.725
