Infrared Spectrum: STEARIC ACID, 12-HYDROXY-
Formula: C18 H36 O3
CAS: 106-14-9
State: SOLID (OIL MULL)
Melting point: 81-82 C
Class: COBLENTZ III
Instrument: BAIRD (GRATING)
Instrument parameters: NaCl PRISM
Sampling: TRANSMISSION
Resolution: 2
Origin: WYANDOTTE CHEMICALS CORP.
1/CM	TRANSMITTANCE
4000	0.9125
3991	0.9138
3982	0.9152
3973	0.9166
3964	0.9181
3955	0.919
3946	0.9197
3937	0.9205
3928	0.9213
3919	0.9221
3910	0.9225
3901	0.9225
3892	0.9218
3883	0.9211
3874	0.9208
3865	0.9218
3856	0.9238
3847	0.9257
3838	0.9275
3829	0.9293
3820	0.931
3811	0.9327
3802	0.9343
3793	0.9352
3784	0.9358
3775	0.9352
3766	0.9343
3757	0.9323
3748	0.9297
3739	0.9256
3730	0.9213
3721	0.9165
3712	0.9094
3703	0.9037
3694	0.9001
3685	0.8982
3676	0.8968
3667	0.8958
3658	0.8946
3649	0.8934
3640	0.8908
3631	0.887
3622	0.8818
3613	0.8768
3604	0.8705
3595	0.8631
3586	0.8564
3577	0.8517
3568	0.8468
3559	0.842
3550	0.837
3541	0.8302
3532	0.8228
3523	0.8142
3514	0.8028
3505	0.7918
3496	0.7815
3487	0.7708
3478	0.7578
3469	0.738
3460	0.7117
3451	0.6893
3442	0.6724
3433	0.6478
3424	0.6187
3415	0.5904
3406	0.5399
3397	0.5006
3388	0.4698
3379	0.4521
3370	0.4348
3361	0.3875
3352	0.335
3343	0.2823
3334	0.2293
3325	0.176
3316	0.1603
3307	0.1607
3298	0.1627
3289	0.1649
3280	0.1653
3271	0.1541
3262	0.1407
3253	0.1273
3244	0.1138
3235	0.1087
3226	0.1065
3217	0.1066
3208	0.1085
3199	0.1123
3190	0.1173
3181	0.1236
3172	0.1305
3163	0.1369
3154	0.1434
3145	0.1507
3136	0.1565
3127	0.1604
3118	0.1628
3109	0.1642
3100	0.1649
3091	0.1651
3082	0.1642
3073	0.1625
3064	0.1602
3055	0.1535
3046	0.1408
3037	0.1186
3028	0.0953
3019	0.0719
3010	0.0483
3001	0.0248
2992	0.0223
2983	0.0242
2974	0.0251
2965	0.026
2956	0.0261
2947	0.026
2938	0.026
2929	0.0259
2920	0.0258
2911	0.0258
2902	0.0261
2893	0.0264
2884	0.0277
2875	0.0297
2866	0.0358
2857	0.0477
2848	0.091
2839	0.1602
2830	0.2303
2821	0.2684
2812	0.2881
2803	0.3099
2794	0.3298
2785	0.3438
2776	0.3522
2767	0.3606
2758	0.3688
2749	0.3766
2740	0.3829
2731	0.3892
2722	0.3914
2713	0.3916
2704	0.3921
2695	0.3928
2686	0.3942
2677	0.3988
2668	0.4043
2659	0.4117
2650	0.4209
2641	0.431
2632	0.4443
2623	0.4593
2614	0.4798
2605	0.5001
2596	0.5168
2587	0.5307
2578	0.5451
2569	0.5542
2560	0.5649
2551	0.5791
2542	0.5955
2533	0.6174
2524	0.6351
2515	0.6525
2506	0.669
2497	0.6831
2488	0.6967
2479	0.7095
2470	0.7217
2461	0.7338
2452	0.7425
2443	0.748
2434	0.7543
2425	0.7608
2416	0.7681
2407	0.7742
2398	0.7784
2389	0.7778
2380	0.7757
2371	0.7743
2362	0.7794
2353	0.7882
2344	0.7971
2335	0.8064
2326	0.8165
2317	0.8282
2308	0.8416
2299	0.8505
2290	0.8546
2281	0.853
2272	0.8495
2263	0.8478
2254	0.8491
2245	0.8527
2236	0.8574
2227	0.8641
2218	0.8715
2209	0.8777
2200	0.879
2191	0.8788
2182	0.8808
2173	0.8839
2164	0.8843
2155	0.8851
2146	0.8868
2137	0.8902
2128	0.8945
2119	0.8985
2110	0.8981
2101	0.8974
2092	0.8984
2083	0.901
2074	0.904
2065	0.9053
2056	0.9056
2047	0.9048
2038	0.9024
2029	0.9001
2020	0.8982
2011	0.8963
2002	0.8944
1993	0.8925
1984	0.8906
1975	0.8886
1966	0.8866
1957	0.8847
1948	0.8828
1939	0.8806
1930	0.8777
1921	0.8747
1912	0.8712
1903	0.8681
1894	0.8652
1885	0.858
1876	0.8541
1867	0.8516
1858	0.8404
1849	0.8411
1840	0.8416
1831	0.8293
1822	0.7934
1813	0.7831
1804	0.7849
1795	0.776
1786	0.7519
1777	0.7449
1768	0.7151
1759	0.6628
1750	0.4186
1741	0.2516
1732	0.1013
1723	0.0425
1714	0.039
1705	0.0393
1696	0.1321
1687	0.3268
1678	0.4718
1669	0.5804
1660	0.6565
1651	0.7001
1642	0.7361
1633	0.7589
1624	0.7721
1615	0.7833
1606	0.7922
1597	0.7968
1588	0.7908
1579	0.7938
1570	0.7883
1561	0.7678
1552	0.7496
1543	0.7391
1534	0.7208
1525	0.6668
1516	0.5708
1507	0.3752
1498	0.251
1489	0.032
1480	0.0469
1471	0.0692
1462	0.0702
1453	0.1308
1444	0.2721
1435	0.2931
1426	0.2634
1417	0.4192
1408	0.5469
1399	0.3945
1390	0.2007
1381	0.3332
1372	0.4681
1363	0.4416
1354	0.3254
1345	0.3866
1336	0.4107
1327	0.395
1318	0.3489
1309	0.2648
1300	0.2764
1291	0.2841
1282	0.2892
1273	0.2892
1264	0.3787
1255	0.4024
1246	0.4564
1237	0.4044
1228	0.3909
1219	0.3548
1210	0.5004
1201	0.429
1192	0.5731
1183	0.6428
1174	0.6685
1165	0.6862
1156	0.6761
1147	0.5845
1138	0.351
1129	0.5498
1120	0.6384
1111	0.6407
1102	0.714
1093	0.5696
1084	0.373
1075	0.5306
1066	0.5478
1057	0.5772
1048	0.5655
1039	0.5607
1030	0.4905
1021	0.6567
1012	0.6285
1003	0.5335
994	0.5941
985	0.6007
976	0.5878
967	0.5824
958	0.5371
949	0.4927
940	0.4368
931	0.3871
922	0.2459
913	0.3628
904	0.4182
895	0.4243
886	0.4351
877	0.4802
868	0.4508
859	0.4985
850	0.6078
841	0.6366
832	0.5792
823	0.7357
814	0.7561
805	0.7658
796	0.7537
787	0.7715
778	0.7749
769	0.7611
760	0.7222
751	0.7351
742	0.6917
733	0.5796
724	0.4762
715	0.4928
706	0.6561
697	0.6325
688	0.5378
679	0.5199
670	0.5555
661	0.6087
652	0.6358
643	0.6454
634	0.6301
