Infrared Spectrum: cis-3,7-Dimethyl-2,6-octadien-1-ol
Formula: C 10 H 18 O
CAS: 106-25-2
State: gas
Instrument: HP-GC/MS/IRD
Origin: NIST Mass Spectrometry Data Center
1/CM	ABSORBANCE
550	0.0005792
562	0.0004208
574	0.000416
586	0.0005968
598	0.0004928
610	0.0003232
622	0.0002064
634	0.0001008
646	0.0001312
658	2.56e-05
670	0.0001584
682	7.36e-05
694	0.000128
706	0.0001456
718	0.0002416
730	0.0003472
742	0.000344
754	0.0003904
766	0.0005392
778	0.000544
790	0.0006928
802	0.0010672
814	0.0015616
826	0.0020976
838	0.0016256
850	0.0010976
862	0.0008832
874	0.0007904
886	0.0008176
898	0.0009392
910	0.0010928
922	0.0013392
934	0.0018096
946	0.0027072
958	0.0037456
970	0.0046656
982	0.0064112
994	0.0082128
1006	0.0084368
1018	0.0064656
1030	0.004536
1042	0.0033344
1054	0.0023424
1066	0.00196
1078	0.0019488
1090	0.0018416
1102	0.0018032
1114	0.001768
1126	0.0013088
1138	0.0012048
1150	0.0012224
1162	0.0012912
1174	0.0013872
1186	0.0014928
1198	0.0017056
1210	0.0018848
1222	0.0018752
1234	0.0018592
1246	0.0016096
1258	0.001448
1270	0.0013504
1282	0.0012912
1294	0.0013856
1306	0.0016416
1318	0.0017376
1330	0.0016176
1342	0.0020464
1354	0.0024672
1366	0.0033072
1378	0.0052784
1390	0.0048048
1402	0.002888
1414	0.0020384
1426	0.0020768
1438	0.002872
1450	0.0035632
1462	0.0030384
1474	0.0019328
1486	0.0011984
1498	0.0008
1510	0.0006224
1522	0.0005328
1534	0.0005344
1546	0.0004656
1558	0.0004736
1570	0.0004512
1582	0.0004992
1594	0.0004544
1606	0.0005008
1618	0.0004944
1630	0.00064
1642	0.0009616
1654	0.0015488
1666	0.0016864
1678	0.0007808
1690	0.0003568
1702	0.0002128
1714	0.0001408
1726	9.6e-05
1738	0.000112
1750	0.000128
1762	9.44e-05
1774	0.0001296
1786	0.0001472
1798	0.0001184
1810	0.0001008
1822	8.8e-05
1834	0.0001136
1846	0.0001024
1858	7.84e-05
1870	8.48e-05
1882	7.84e-05
1894	5.44e-05
1906	4e-05
1918	6.72e-05
1930	7.52e-05
1942	9.92e-05
1954	7.2e-05
1966	0.0001056
1978	0.00012
1990	0.0001344
2002	0.0001216
2014	0.00012
2026	0.0001392
2038	0.0001152
2050	7.2e-05
2062	3.36e-05
2074	8.16e-05
2086	2.72e-05
2098	9.28e-05
2110	6.24e-05
2122	3.2e-05
2134	7.68e-05
2146	4.32e-05
2158	4.96e-05
2170	6.72e-05
2182	4.16e-05
2194	4.8e-05
2206	4.32e-05
2218	6.72e-05
2230	4.16e-05
2242	2.4e-05
2254	4.48e-05
2266	1.76e-05
2278	8.32e-05
2290	6.88e-05
2302	6.4e-06
2314	7.2e-05
2326	9.92e-05
2338	0.0001024
2350	8.96e-05
2362	8.16e-05
2374	0.0001264
2386	0.0001104
2398	0.0001008
2410	9.6e-05
2422	0.0001408
2434	0.0001184
2446	0.0001712
2458	0.0001504
2470	0.0001504
2482	0.0001536
2494	0.0001264
2506	0.0001136
2518	0.0001264
2530	0.0001376
2542	0.000144
2554	0.0001408
2566	0.0001616
2578	0.0001392
2590	0.0001376
2602	0.000152
2614	0.0001744
2626	0.000216
2638	0.0002128
2650	0.0002016
2662	0.0002928
2674	0.0003248
2686	0.0002896
2698	0.0003696
2710	0.000392
2722	0.00052
2734	0.0008112
2746	0.0008176
2758	0.0006976
2770	0.0006528
2782	0.0007472
2794	0.0009648
2806	0.0012224
2818	0.0016496
2830	0.0023168
2842	0.0035696
2854	0.0063664
2866	0.0096816
2878	0.0103504
2890	0.0102576
2902	0.0107904
2914	0.01336
2926	0.016
2938	0.0147888
2950	0.0126656
2962	0.0119168
2974	0.0125936
2986	0.009784
2998	0.0063104
3010	0.0043376
3022	0.0036112
3034	0.0030304
3046	0.0023616
3058	0.0017696
3070	0.0013184
3082	0.001136
3094	0.0009024
3106	0.0007008
3118	0.0005328
3130	0.0003952
3142	0.0003072
3154	0.00024
3166	0.0001488
3178	0.0001504
3190	0.0001536
3202	0.0001744
3214	0.00016
3226	0.0001392
3238	0.0001312
3250	0.0001008
3262	0.0001104
3274	7.68e-05
3286	0.0001072
3298	6.56e-05
3310	7.84e-05
3322	4.8e-05
3334	8.16e-05
3346	1.76e-05
3358	5.76e-05
3370	7.84e-05
3382	5.12e-05
3394	8.48e-05
3406	4.64e-05
3418	3.52e-05
3430	3.04e-05
3442	0.0001232
3454	0.0001456
3466	0.0001344
3478	0.00012
3490	3.84e-05
3502	9.28e-05
3514	0.0001056
3526	8.16e-05
3538	7.2e-05
3550	0.0001072
3562	0.0001264
3574	0.0001136
3586	0.000216
3598	0.0002096
3610	0.0004224
3622	0.00052
3634	0.000712
3646	0.0011648
3658	0.0013744
3670	0.0008624
3682	0.0004816
3694	0.0003216
3706	0.0001648
3718	9.12e-05
3730	5.76e-05
3742	0.0001168
3754	0.0001168
3766	0.0001232
3778	7.36e-05
3790	1.92e-05
3802	4.16e-05
3814	0.0001008
3826	7.04e-05
3838	9.6e-06
