Infrared Spectrum: DIETHYLENE GLYCOL DIPELARGONATE
Formula: C22 H42 O5
CAS: 106-01-4
State: LIQUID
Class: COBLENTZ
Instrument: PERKIN-ELMER
Sampling: TRANSMISSION
Path length: CAPILLARY
Resolution: 4
MICROMETERS	TRANSMITTANCE
2.498	0.807
2.53163	0.809
2.56525	0.809
2.59888	0.809
2.6325	0.809
2.66613	0.809
2.69975	0.809
2.73338	0.809
2.767	0.81
2.80063	0.807
2.83425	0.805
2.86788	0.798
2.9015	0.798
2.93513	0.797
2.96875	0.795
3.00238	0.795
3.036	0.795
3.06963	0.798
3.10325	0.798
3.13688	0.798
3.1705	0.798
3.20413	0.798
3.23775	0.793
3.27138	0.788
3.305	0.77
3.33863	0.72
3.37225	0.537
3.40587	0.428
3.4395	0.428
3.47313	0.505
3.50675	0.546
3.54038	0.68
3.574	0.733
3.60763	0.758
3.64125	0.767
3.67488	0.773
3.7085	0.778
3.74213	0.78
3.77575	0.78
3.80938	0.788
3.843	0.793
3.87663	0.797
3.91025	0.802
3.94388	0.802
3.9775	0.805
4.01112	0.807
4.04475	0.81
4.07838	0.815
4.112	0.819
4.14563	0.819
4.17925	0.82
4.21288	0.824
4.2465	0.824
4.28012	0.825
4.31375	0.829
4.34738	0.835
4.381	0.84
4.41463	0.842
4.44825	0.847
4.48188	0.849
4.5155	0.849
4.54913	0.85
4.58275	0.852
4.61637	0.854
4.65	0.859
4.68363	0.86
4.71725	0.865
4.75088	0.864
4.7845	0.864
4.81813	0.864
4.85175	0.862
4.88537	0.862
4.919	0.864
4.95263	0.864
4.98625	0.862
5.01988	0.862
5.0535	0.865
5.08713	0.869
5.12075	0.867
5.15437	0.865
5.188	0.867
5.22163	0.871
5.25525	0.869
5.28888	0.871
5.3225	0.869
5.35613	0.871
5.38975	0.869
5.42338	0.867
5.457	0.864
5.49062	0.864
5.52425	0.857
5.55788	0.842
5.5915	0.82
5.62513	0.798
5.65875	0.688
5.69238	0.433
5.726	0.299
5.75962	0.472
5.79325	0.609
5.82688	0.745
5.8605	0.767
5.89413	0.81
5.92775	0.83
5.96138	0.834
5.995	0.845
6.02862	0.849
6.06225	0.855
6.09588	0.857
6.1295	0.859
6.16313	0.857
6.19675	0.86
6.23038	0.865
6.264	0.867
6.29763	0.867
6.33125	0.871
6.36487	0.871
6.3985	0.871
6.43213	0.871
6.46575	0.871
6.49938	0.871
6.533	0.869
6.56663	0.869
6.60025	0.867
6.63388	0.865
6.6675	0.859
6.70113	0.849
6.73475	0.829
6.76838	0.79
6.802	0.661
6.83563	0.649
6.86925	0.666
6.90287	0.706
6.9365	0.716
6.97013	0.747
7.00375	0.76
7.03737	0.757
7.071	0.768
7.10463	0.782
7.13825	0.772
7.17188	0.747
7.2055	0.733
7.23913	0.7
7.27275	0.706
7.30638	0.72
7.34	0.73
7.37363	0.728
7.40725	0.721
7.44088	0.72
7.4745	0.728
7.50813	0.743
7.54175	0.742
7.57538	0.728
7.609	0.72
7.64263	0.708
7.67625	0.69
7.70988	0.676
7.7435	0.67
7.77712	0.661
7.81075	0.658
7.84438	0.651
7.878	0.646
7.91162	0.638
7.94525	0.609
7.97888	0.589
8.0125	0.587
8.04612	0.587
8.07975	0.596
8.11338	0.609
8.147	0.621
8.18062	0.623
8.21425	0.623
8.24788	0.623
8.2815	0.613
8.31513	0.599
8.34875	0.589
8.38237	0.572
8.416	0.552
8.44963	0.522
8.48325	0.504
8.51688	0.485
8.5505	0.48
8.58413	0.485
8.61775	0.509
8.65138	0.547
8.685	0.566
8.71862	0.556
8.75225	0.527
8.78588	0.52
8.8195	0.524
8.85313	0.547
8.88675	0.572
8.92037	0.581
8.954	0.586
8.98763	0.584
9.02125	0.579
9.05487	0.587
9.0885	0.608
9.12213	0.639
9.15575	0.668
9.18938	0.681
9.223	0.698
9.25662	0.705
9.29025	0.706
9.32388	0.71
9.3575	0.711
9.39113	0.71
9.42475	0.706
9.45838	0.701
9.492	0.696
9.52563	0.696
9.55925	0.696
9.59287	0.703
9.6265	0.715
9.66013	0.72
9.69375	0.737
9.72738	0.75
9.761	0.758
9.79462	0.77
9.82825	0.78
9.86188	0.79
9.8955	0.798
9.92912	0.802
9.96275	0.805
9.99638	0.81
10.03	0.814
10.0636	0.815
10.0973	0.819
10.1309	0.819
10.1645	0.82
10.1981	0.819
10.2317	0.819
10.2654	0.817
10.299	0.809
10.3326	0.805
10.3663	0.797
10.3999	0.797
10.4335	0.797
10.4671	0.798
10.5008	0.8
10.5344	0.804
10.568	0.809
10.6016	0.81
10.6352	0.812
10.6689	0.815
10.7025	0.82
10.7361	0.825
10.7698	0.827
10.8034	0.83
10.837	0.829
10.8706	0.83
10.9043	0.835
10.9379	0.839
10.9715	0.839
11.0051	0.839
11.0388	0.839
11.0724	0.839
11.106	0.842
11.1396	0.845
11.1732	0.844
11.2069	0.844
11.2405	0.842
11.2741	0.84
11.3077	0.84
11.3414	0.84
11.375	0.837
11.4086	0.837
11.4423	0.834
11.4759	0.83
11.5095	0.825
11.5431	0.825
11.5768	0.827
11.6104	0.825
11.644	0.825
11.6776	0.825
11.7112	0.827
11.7449	0.829
11.7785	0.832
11.8121	0.835
11.8457	0.84
11.8794	0.845
11.913	0.849
11.9466	0.849
11.9803	0.85
12.0139	0.855
12.0475	0.855
12.0811	0.857
12.1148	0.855
12.1484	0.859
12.182	0.859
12.2156	0.859
12.2492	0.859
12.2829	0.859
12.3165	0.859
12.3501	0.86
12.3837	0.867
12.4174	0.869
12.451	0.869
12.4846	0.871
12.5183	0.871
12.5519	0.871
12.5855	0.871
12.6191	0.871
12.6528	0.871
12.6864	0.871
12.72	0.869
12.7536	0.869
12.7873	0.867
12.8209	0.867
12.8545	0.867
12.8881	0.865
12.9217	0.86
12.9554	0.859
12.989	0.859
13.0226	0.86
13.0562	0.86
13.0899	0.859
13.1235	0.859
13.1571	0.857
13.1908	0.854
13.2244	0.854
13.258	0.854
13.2916	0.852
13.3253	0.852
13.3589	0.85
13.3925	0.847
13.4261	0.84
13.4597	0.84
13.4934	0.84
13.527	0.839
13.5606	0.834
13.5942	0.832
13.6279	0.829
13.6615	0.825
13.6951	0.82
13.7288	0.817
13.7624	0.809
13.796	0.802
13.8296	0.8
13.8633	0.798
13.8969	0.802
13.9305	0.805
13.9641	0.807
13.9977	0.809
14.0314	0.809
14.065	0.815
14.0986	0.817
14.1322	0.817
14.1659	0.817
14.1995	0.81
14.2331	0.812
14.2668	0.817
14.3004	0.817
14.334	0.815
14.3676	0.81
14.4013	0.81
14.4349	0.809
14.4685	0.807
14.5021	0.807
14.5358	0.805
14.5694	0.802
14.603	0.798
14.6366	0.8
14.6702	0.798
14.7039	0.798
14.7375	0.792
14.7711	0.787
14.8048	0.783
14.8384	0.778
14.872	0.777
14.9056	0.77
14.9393	0.767
14.9729	0.765
15.0065	0.762
15.0401	0.757
15.0738	0.753
15.1074	0.747
15.141	0.738
