Infrared Spectrum: PALMITIC ACID, ISO OCTYL ESTER
Formula: C24 H48 O2
CAS: 106-05-8
State: SOLUTION (10% IN CCl4 FOR 5000-1350 CM^-^1, 10% IN CS2 FOR 1350-625 CM^-^1)
Class: COBLENTZ
Instrument: Not specified, most likely a prism, grating, or hybrid spectrometer.
Sampling: TRANSMISSION
Path length: 0.01 CM, 0.01 CM
Resolution: 4
Origin: DOW CHEMICAL COMPANY
MICROMETERS	TRANSMITTANCE
2.029	0.902
2.0681	0.904
2.1072	0.904
2.1463	0.904
2.1854	0.902
2.2245	0.9
2.26359	0.874
2.30269	0.869
2.34179	0.876
2.38089	0.878
2.41999	0.882
2.45909	0.887
2.49819	0.895
2.53729	0.9
2.57639	0.9
2.61549	0.9
2.65458	0.905
2.69368	0.899
2.73278	0.9
2.77188	0.886
2.81098	0.886
2.85008	0.886
2.88918	0.878
2.92828	0.884
2.96738	0.881
3.00648	0.878
3.04557	0.874
3.08467	0.869
3.12377	0.861
3.16287	0.853
3.20197	0.847
3.24107	0.834
3.28017	0.806
3.31927	0.731
3.35837	0.45
3.39747	0.03
3.43656	0.068
3.47566	0.149
3.51476	0.232
3.55386	0.721
3.59296	0.79
3.63206	0.814
3.67116	0.819
3.71026	0.824
3.74936	0.832
3.78846	0.847
3.82755	0.858
3.86665	0.871
3.90575	0.879
3.94485	0.886
3.98395	0.891
4.02305	0.891
4.06215	0.889
4.10125	0.886
4.14035	0.884
4.17945	0.884
4.21854	0.878
4.25764	0.873
4.29674	0.873
4.33584	0.873
4.37494	0.879
4.41404	0.887
4.45314	0.895
4.49224	0.899
4.53134	0.902
4.57044	0.904
4.60953	0.905
4.64863	0.907
4.68773	0.907
4.72683	0.908
4.76593	0.908
4.80503	0.908
4.84413	0.908
4.88323	0.908
4.92233	0.908
4.96143	0.908
5.00052	0.91
5.03962	0.91
5.07872	0.912
5.11782	0.915
5.15692	0.918
5.19602	0.917
5.23512	0.912
5.27422	0.91
5.31332	0.91
5.35242	0.908
5.39152	0.905
5.43061	0.902
5.46971	0.897
5.50881	0.887
5.54791	0.878
5.58701	0.863
5.62611	0.821
5.66521	0.725
5.70431	0.51
5.74341	0.134
5.78251	0.126
5.8216	0.434
5.8607	0.743
5.8998	0.791
5.9389	0.839
5.978	0.868
6.0171	0.874
6.0562	0.878
6.0953	0.878
6.1344	0.869
6.1735	0.85
6.21259	0.79
6.25169	0.71
6.29079	0.642
6.32989	0.613
6.36899	0.57
6.40809	0.5
6.44719	0.474
6.48629	0.549
6.52539	0.613
6.56449	0.66
6.60358	0.707
6.64268	0.747
6.68178	0.764
6.72088	0.723
6.75998	0.52
6.79908	0.256
6.83818	0.273
6.87728	0.471
6.91638	0.585
6.95548	0.669
6.99457	0.7
7.03367	0.72
7.07277	0.778
7.11187	0.76
7.15097	0.66
7.19007	0.575
7.22917	0.52
7.26827	0.538
7.30737	0.543
7.34647	0.57
7.38556	0.585
7.42466	0.629
7.46376	0.666
7.50286	0.666
7.54196	0.639
7.58106	0.617
7.62016	0.601
7.65926	0.591
7.69836	0.598
7.73746	0.596
7.77655	0.588
7.81565	0.57
7.85475	0.551
7.89385	0.53
7.93295	0.489
7.97205	0.455
8.01115	0.443
8.05025	0.44
8.08935	0.452
8.12845	0.474
8.16754	0.484
8.20664	0.482
8.24574	0.471
8.28484	0.453
8.32394	0.421
8.36304	0.38
8.40214	0.323
8.44124	0.265
8.48034	0.222
8.51944	0.213
8.55854	0.235
8.59763	0.281
8.63673	0.341
8.67583	0.4
8.71493	0.463
8.75403	0.557
8.79313	0.626
8.83223	0.658
8.87133	0.629
8.91043	0.565
8.94953	0.53
8.98862	0.538
9.02772	0.59
9.06682	0.643
9.10592	0.666
9.14502	0.668
9.18412	0.671
9.22322	0.686
9.26232	0.687
9.30142	0.682
9.34052	0.676
9.37961	0.676
9.41871	0.687
9.45781	0.695
9.49691	0.702
9.53601	0.708
9.57511	0.717
9.61421	0.721
9.65331	0.728
9.69241	0.738
9.73151	0.744
9.7706	0.749
9.8097	0.749
9.8488	0.746
9.8879	0.739
9.927	0.736
9.9661	0.731
10.0052	0.73
10.0443	0.728
10.0834	0.733
10.1225	0.741
10.1616	0.747
10.2007	0.752
10.2398	0.76
10.2789	0.767
10.318	0.773
10.3571	0.783
10.3962	0.8
10.4353	0.808
10.4744	0.816
10.5135	0.822
10.5526	0.829
10.5917	0.83
10.6308	0.834
10.6699	0.837
10.709	0.839
10.7481	0.84
10.7872	0.84
10.8263	0.839
10.8654	0.837
10.9045	0.839
10.9436	0.842
10.9827	0.842
11.0218	0.84
11.0609	0.84
11.1	0.837
11.1391	0.83
11.1782	0.826
11.2173	0.819
11.2564	0.803
11.2955	0.796
11.3346	0.78
11.3737	0.769
11.4128	0.757
11.4519	0.751
11.491	0.741
11.5301	0.73
11.5692	0.721
11.6083	0.713
11.6474	0.71
11.6865	0.712
11.7256	0.723
11.7647	0.749
11.8038	0.769
11.8429	0.79
11.882	0.813
11.9211	0.83
11.9601	0.837
11.9992	0.842
12.0383	0.843
12.0774	0.848
12.1165	0.848
12.1556	0.85
12.1947	0.852
12.2338	0.848
12.2729	0.843
12.312	0.84
12.3511	0.84
12.3902	0.84
12.4293	0.84
12.4684	0.84
12.5075	0.84
12.5466	0.839
12.5857	0.839
12.6248	0.839
12.6639	0.835
12.703	0.832
12.7421	0.83
12.7812	0.829
12.8203	0.827
12.8594	0.824
12.8985	0.824
12.9376	0.822
12.9767	0.819
13.0158	0.814
13.0549	0.813
13.094	0.811
13.1331	0.811
13.1722	0.809
13.2113	0.804
13.2504	0.801
13.2895	0.798
13.3286	0.791
13.3677	0.785
13.4068	0.778
13.4459	0.769
13.485	0.76
13.5241	0.754
13.5632	0.746
13.6023	0.734
13.6414	0.721
13.6805	0.707
13.7196	0.682
13.7587	0.661
13.7978	0.64
13.8369	0.614
13.876	0.609
13.9151	0.627
13.9542	0.653
13.9933	0.671
14.0324	0.689
14.0715	0.699
14.1106	0.707
14.1497	0.712
14.1888	0.715
14.2279	0.717
14.267	0.713
14.3061	0.713
14.3452	0.708
14.3843	0.704
14.4234	0.7
14.4625	0.695
14.5016	0.691
14.5407	0.686
14.5798	0.679
14.6189	0.673
14.658	0.665
14.6971	0.658
14.7362	0.652
14.7753	0.64
14.8144	0.63
14.8535	0.621
14.8926	0.611
14.9317	0.6
14.9708	0.591
15.0099	0.582
15.049	0.572
15.0881	0.559
15.1272	0.549
15.1663	0.539
15.2054	0.53
15.2445	0.521
15.2836	0.513
15.3227	0.504
15.3618	0.499
15.4009	0.494
15.44	0.486
15.4791	0.479
15.5182	0.473
15.5573	0.465
15.5964	0.458
15.6355	0.452
15.6746	0.445
15.7137	0.439
15.7528	0.432
15.7919	0.426
15.831	0.419
15.8701	0.416
