Infrared Spectrum: 3-Hepten-1-ol
Formula: C 7 H 14 O
CAS: 10606-47-0
State: gas
Instrument: HP-GC/MS/IRD
Origin: NIST Mass Spectrometry Data Center
1/CM	ABSORBANCE
550	0.0003825
562	0.000135
574	7.5e-05
586	0.000115
598	6.25e-05
610	6.25e-05
622	3.75e-05
634	2.5e-05
646	4e-05
658	2e-05
670	4.5e-05
682	7.75e-05
694	3.5e-05
706	0.000105
718	8.5e-05
730	0.0001675
742	0.0002525
754	0.00039
766	0.0004325
778	0.000465
790	0.0003575
802	0.00037
814	0.0003775
826	0.00051
838	0.00066
850	0.0008375
862	0.00101
874	0.0010625
886	0.00109
898	0.0010675
910	0.0010725
922	0.0012525
934	0.0019025
946	0.0034975
958	0.0060525
970	0.00739
982	0.0059375
994	0.0048275
1006	0.005455
1018	0.007225
1030	0.010995
1042	0.0150875
1054	0.0124925
1066	0.008015
1078	0.0053475
1090	0.00364
1102	0.0023525
1114	0.001665
1126	0.00142
1138	0.00137
1150	0.0014125
1162	0.0015475
1174	0.0017175
1186	0.0017825
1198	0.00184
1210	0.001745
1222	0.0016225
1234	0.00152
1246	0.001525
1258	0.0017275
1270	0.001945
1282	0.0019025
1294	0.00187
1306	0.0019
1318	0.0019725
1330	0.0022175
1342	0.0024925
1354	0.0023675
1366	0.002775
1378	0.003815
1390	0.003885
1402	0.0027525
1414	0.0021075
1426	0.0022775
1438	0.00269
1450	0.0027825
1462	0.00265
1474	0.00216
1486	0.0013975
1498	0.000775
1510	0.0004575
1522	0.0002975
1534	0.000225
1546	0.0002
1558	0.000165
1570	0.000135
1582	0.0001075
1594	9.5e-05
1606	5.5e-05
1618	8.25e-05
1630	7.5e-05
1642	8e-05
1654	0.0001125
1666	9.75e-05
1678	9.75e-05
1690	0.00011
1702	0.000155
1714	0.000185
1726	0.00019
1738	0.00018
1750	0.000175
1762	0.00016
1774	0.0001225
1786	6.5e-05
1798	6.5e-05
1810	6.75e-05
1822	8.25e-05
1834	9e-05
1846	9.25e-05
1858	6.5e-05
1870	8.25e-05
1882	5e-05
1894	3.75e-05
1906	5e-05
1918	6e-05
1930	3e-05
1942	2e-05
1954	7.5e-06
1966	7.5e-06
1978	2.25e-05
1990	2.5e-05
2002	2.25e-05
2014	4.75e-05
2026	7.75e-05
2038	0.000125
2050	0.0001175
2062	0.000105
2074	0.0001175
2086	7e-05
2098	6.25e-05
2110	4.5e-05
2122	4e-05
2134	2e-05
2146	3e-05
2158	2.5e-06
2170	2e-05
2182	3.25e-05
2194	7.5e-06
2206	1.25e-05
2218	1e-05
2230	2e-05
2242	2.5e-06
2254	2e-05
2266	3.75e-05
2278	2.25e-05
2290	1.5e-05
2302	2.75e-05
2314	4e-05
2326	7.25e-05
2338	5.25e-05
2350	5.5e-05
2362	5e-05
2374	4.75e-05
2386	8e-05
2398	8.75e-05
2410	0.00011
2422	9.25e-05
2434	8.75e-05
2446	8e-05
2458	7e-05
2470	5e-05
2482	8e-05
2494	6e-05
2506	3.5e-05
2518	6.5e-05
2530	0.0001025
2542	8.75e-05
2554	8.5e-05
2566	9.25e-05
2578	8.25e-05
2590	0.000125
2602	0.00012
2614	0.00015
2626	0.0001825
2638	0.0001875
2650	0.0002525
2662	0.000325
2674	0.00035
2686	0.00039
2698	0.0004275
2710	0.0004975
2722	0.0005925
2734	0.000705
2746	0.0007725
2758	0.0008425
2770	0.0009425
2782	0.00108
2794	0.0013025
2806	0.00156
2818	0.0021225
2830	0.003245
2842	0.005305
2854	0.00787
2866	0.01075
2878	0.01429
2890	0.0146075
2902	0.01511
2914	0.0187875
2926	0.02293
2938	0.025
2950	0.0220275
2962	0.02113
2974	0.019455
2986	0.011465
2998	0.0067675
3010	0.004915
3022	0.0040775
3034	0.0033025
3046	0.0022725
3058	0.00152
3070	0.001015
3082	0.000775
3094	0.0006025
3106	0.0004875
3118	0.0003725
3130	0.000325
3142	0.0002575
3154	0.0002125
3166	0.000185
3178	0.0001775
3190	0.00016
3202	0.000175
3214	7.75e-05
3226	9e-05
3238	5.75e-05
3250	7.25e-05
3262	2.75e-05
3274	5.25e-05
3286	3.25e-05
3298	3.75e-05
3310	1e-05
3322	1.75e-05
3334	2.5e-05
3346	1.5e-05
3358	3.25e-05
3370	4.25e-05
3382	9e-05
3394	8.5e-05
3406	0.0001
3418	9.75e-05
3430	9.75e-05
3442	0.00012
3454	0.000115
3466	0.0001175
3478	8.5e-05
3490	0.0001025
3502	9.5e-05
3514	0.0001175
3526	0.0001175
3538	0.000165
3550	0.0001825
3562	0.00017
3574	0.0001875
3586	0.0002625
3598	0.0004125
3610	0.0008625
3622	0.0011675
3634	0.001195
3646	0.0013325
3658	0.00199
3670	0.0023075
3682	0.00147
3694	0.0007125
3706	0.00039
3718	0.000275
3730	0.00022
3742	0.00021
3754	0.0001725
3766	0.0001325
3778	0.00017
3790	0.00016
3802	0.0001575
3814	0.00012
3826	0.0001225
3838	0.0001725
