Infrared Spectrum: Ethanol, 1-(2-chlorophenyl)-1-(4-chlorophenyl)-2,2,2-trichloro-
Formula: C14 H9 Cl5 O
CAS: 10606-46-9
State: SOLID (1.25 mg / 300 mg KBr DISC)
Class: COBLENTZ III
Instrument: PERKIN-ELMER 180 (GRATING)
Instrument parameters: GRATINGS: 2000, 1000, 500, 250 CM^-^1; FILTER CHANGE: 2970, 2000, 1485, 1000, 743, 500, 372, 250, 186 CM^-^1.
Sampling: TRANSMISSION
Resolution: 2
Origin: K. K. DEB-NCI FREDERICK CANCER RESEARCH CENTER
1/CM	TRANSMITTANCE
298	0.6272
307	0.6356
316	0.6496
325	0.6825
334	0.7237
343	0.7165
352	0.7822
361	0.7986
370	0.809
379	0.8115
388	0.8263
397	0.8419
406	0.845
415	0.8446
424	0.8463
433	0.8039
442	0.7997
451	0.8073
460	0.8579
469	0.7826
478	0.7027
487	0.8703
496	0.8636
505	0.7297
514	0.8793
523	0.8776
532	0.8037
541	0.8823
550	0.8879
559	0.8847
568	0.8736
577	0.8089
586	0.8797
595	0.8794
604	0.8765
613	0.8719
622	0.8601
631	0.7452
640	0.6371
649	0.8669
658	0.8649
667	0.8459
676	0.5871
685	0.7919
694	0.6961
703	0.8527
712	0.8566
721	0.6945
730	0.8111
739	0.7293
748	0.7015
757	0.1701
766	0.1992
775	0.3082
784	0.3432
793	0.7515
802	0.7872
811	0.623
820	0.2678
829	0.3236
838	0.2567
847	0.6868
856	0.8837
865	0.8261
874	0.8384
883	0.9038
892	0.9047
901	0.8997
910	0.8866
919	0.7481
928	0.8733
937	0.8862
946	0.822
955	0.8415
964	0.8817
973	0.8635
982	0.8353
991	0.8557
1000	0.8493
1009	0.7968
1018	0.523
1027	0.8337
1036	0.731
1045	0.3863
1054	0.603
1063	0.7683
1072	0.5324
1081	0.7696
1090	0.5428
1099	0.4104
1108	0.8504
1117	0.8179
1126	0.8541
1135	0.8038
1144	0.7741
1153	0.6991
1162	0.6233
1171	0.653
1180	0.7947
1189	0.7878
1198	0.8591
1207	0.8769
1216	0.8808
1225	0.8795
1234	0.8736
1243	0.8719
1252	0.8714
1261	0.8484
1270	0.8208
1279	0.7708
1288	0.8072
1297	0.8092
1306	0.8115
1315	0.7813
1324	0.741
1333	0.7133
1342	0.7575
1351	0.808
1360	0.8029
1369	0.8332
1378	0.8407
1387	0.8226
1396	0.7725
1405	0.5485
1414	0.8009
1423	0.8003
1432	0.5346
1441	0.781
1450	0.8377
1459	0.8261
1468	0.6669
1477	0.5732
1486	0.6028
1495	0.5325
1504	0.8732
1513	0.8842
1522	0.8822
1531	0.888
1540	0.8915
1549	0.884
1558	0.8765
1567	0.8516
1576	0.8152
1585	0.8139
1594	0.7143
1603	0.8482
1612	0.8511
1621	0.8426
1630	0.8413
1639	0.85
1648	0.8479
1657	0.8323
1666	0.8464
1675	0.869
1684	0.87
1693	0.8676
1702	0.8619
1711	0.8573
1720	0.8611
1729	0.8656
1738	0.8673
1747	0.8725
1756	0.8743
1765	0.8743
1774	0.873
1783	0.8698
1792	0.8672
1801	0.8779
1810	0.8693
1819	0.8695
1828	0.8754
1837	0.8741
1846	0.8714
1855	0.8695
1864	0.8754
1873	0.8733
1882	0.8693
1891	0.8627
1900	0.8481
1909	0.8225
1918	0.8583
1927	0.86
1936	0.8538
1945	0.8581
1954	0.8641
1963	0.8597
1972	0.8566
1981	0.8663
1990	0.8684
1999	0.8688
2008	0.869
2017	0.8691
2026	0.8686
2035	0.8679
2044	0.8675
2053	0.8669
2062	0.8665
2071	0.866
2080	0.8658
2089	0.8654
2098	0.8652
2107	0.8649
2116	0.8646
2125	0.8642
2134	0.864
2143	0.8639
2152	0.8638
2161	0.8635
2170	0.8633
2179	0.863
2188	0.8628
2197	0.8616
2206	0.8604
2215	0.8592
2224	0.8581
2233	0.8572
2242	0.8562
2251	0.8552
2260	0.8541
2269	0.8529
2278	0.8517
2287	0.8503
2296	0.8467
2305	0.8455
2314	0.8479
2323	0.8478
2332	0.8481
2341	0.8482
2350	0.8481
2359	0.8479
2368	0.8478
2377	0.8473
2386	0.8469
2395	0.8464
2404	0.846
2413	0.8452
2422	0.8442
2431	0.8432
2440	0.8423
2449	0.8413
2458	0.8404
2467	0.8394
2476	0.8386
2485	0.8379
2494	0.8373
2503	0.8366
2512	0.836
2521	0.8353
2530	0.8344
2539	0.8336
2548	0.8328
2557	0.832
2566	0.8308
2575	0.8294
2584	0.828
2593	0.8266
2602	0.8252
2611	0.8238
2620	0.8225
2629	0.821
2638	0.8197
2647	0.8183
2656	0.8169
2665	0.8162
2674	0.816
2683	0.8157
2692	0.8155
2701	0.8154
2710	0.8154
2719	0.8154
2728	0.8151
2737	0.8146
2746	0.8143
2755	0.8135
2764	0.8122
2773	0.8108
2782	0.8094
2791	0.8073
2800	0.8053
2809	0.8035
2818	0.8017
2827	0.7997
2836	0.7966
2845	0.7906
2854	0.7864
2863	0.7879
2872	0.7888
2881	0.7887
2890	0.7867
2899	0.783
2908	0.7779
2917	0.7718
2926	0.7666
2935	0.7694
2944	0.7737
2953	0.7764
2962	0.7753
2971	0.7739
2980	0.7751
2989	0.777
2998	0.7772
3007	0.7742
3016	0.7707
3025	0.7666
3034	0.763
3043	0.7617
3052	0.757
3061	0.7399
3070	0.7346
3079	0.7416
3088	0.7473
3097	0.7437
3106	0.7536
3115	0.7535
3124	0.7527
3133	0.752
3142	0.7527
3151	0.75
3160	0.7485
3169	0.747
3178	0.7455
3187	0.744
3196	0.7425
3205	0.741
3214	0.7393
3223	0.737
3232	0.7347
3241	0.7321
3250	0.7296
3259	0.7272
3268	0.7249
3277	0.7229
3286	0.7211
3295	0.7182
3304	0.7148
3313	0.7111
3322	0.7058
3331	0.7004
3340	0.6943
3349	0.6872
3358	0.6803
3367	0.6737
3376	0.6674
3385	0.6616
3394	0.6559
3403	0.6509
3412	0.6466
3421	0.6423
3430	0.6392
3439	0.6365
3448	0.6342
3457	0.6319
3466	0.6298
3475	0.6246
3484	0.6158
3493	0.6025
3502	0.5855
3511	0.5619
3520	0.5267
3529	0.402
3538	0.32
3547	0.4603
3556	0.3795
3565	0.4417
3574	0.674
3583	0.7078
3592	0.7199
3601	0.7271
3610	0.7308
3619	0.7337
3628	0.7361
3637	0.7379
3646	0.7386
3655	0.7387
3664	0.7388
3673	0.7382
3682	0.7377
3691	0.7365
3700	0.7356
3709	0.7354
3718	0.7352
3727	0.7347
3736	0.7342
3745	0.7336
3754	0.733
3763	0.7323
3772	0.7316
3781	0.7309
3790	0.7302
