Infrared Spectrum: 1,3-propanediol, 2-methyl-2-n-propyl-, dinitrate
Formula: C7 H14 N2 O6
CAS: 10605-24-0
State: LIQUID (NEAT)
Class: COBLENTZ III
Instrument: PERKIN-ELMER 21 (GRATING)
Instrument parameters: NaCl PRISM
Sampling: TRANSMISSION
Resolution: 2
Origin: SMITH KLINE & FRENCH LABS.
1/CM	TRANSMITTANCE
4000	0.926
3991	0.9245
3982	0.9234
3973	0.9227
3964	0.9221
3955	0.922
3946	0.922
3937	0.9221
3928	0.9228
3919	0.9236
3910	0.9248
3901	0.9261
3892	0.9271
3883	0.9278
3874	0.9283
3865	0.9283
3856	0.9271
3847	0.9249
3838	0.9221
3829	0.9189
3820	0.916
3811	0.9146
3802	0.9146
3793	0.9146
3784	0.916
3775	0.9175
3766	0.9198
3757	0.9238
3748	0.9283
3739	0.9317
3730	0.9346
3721	0.9368
3712	0.9389
3703	0.941
3694	0.9431
3685	0.9447
3676	0.9445
3667	0.9439
3658	0.9428
3649	0.9418
3640	0.9411
3631	0.9409
3622	0.941
3613	0.9418
3604	0.9425
3595	0.9434
3586	0.9442
3577	0.9451
3568	0.9459
3559	0.9467
3550	0.9475
3541	0.9483
3532	0.9491
3523	0.9498
3514	0.9503
3505	0.9506
3496	0.9509
3487	0.9508
3478	0.9503
3469	0.9499
3460	0.9489
3451	0.9478
3442	0.946
3433	0.9441
3424	0.9423
3415	0.9406
3406	0.9393
3397	0.9382
3388	0.9375
3379	0.937
3370	0.9365
3361	0.936
3352	0.9355
3343	0.9353
3334	0.9351
3325	0.9349
3316	0.9349
3307	0.9351
3298	0.9357
3289	0.9363
3280	0.9365
3271	0.9366
3262	0.9341
3253	0.9305
3244	0.9286
3235	0.9281
3226	0.9278
3217	0.9278
3208	0.928
3199	0.9284
3190	0.9292
3181	0.9305
3172	0.932
3163	0.9328
3154	0.9338
3145	0.934
3136	0.931
3127	0.926
3118	0.9245
3109	0.9244
3100	0.9241
3091	0.9234
3082	0.9227
3073	0.922
3064	0.9212
3055	0.9202
3046	0.9188
3037	0.9166
3028	0.912
3019	0.9015
3010	0.8892
3001	0.865
2992	0.8293
2983	0.7491
2974	0.6688
2965	0.5879
2956	0.5066
2947	0.4247
2938	0.3423
2929	0.2917
2920	0.2752
2911	0.2692
2902	0.2677
2893	0.2674
2884	0.2708
2875	0.2843
2866	0.2969
2857	0.3196
2848	0.3879
2839	0.4567
2830	0.5258
2821	0.5955
2812	0.6658
2803	0.7243
2794	0.7833
2785	0.8068
2776	0.8225
2767	0.8358
2758	0.8492
2749	0.8621
2740	0.8731
2731	0.8798
2722	0.8818
2713	0.8828
2704	0.8855
2695	0.8897
2686	0.8942
2677	0.8991
2668	0.9049
2659	0.9093
2650	0.9127
2641	0.9137
2632	0.9148
2623	0.9158
2614	0.9167
2605	0.9174
2596	0.9178
2587	0.9182
2578	0.918
2569	0.9142
2560	0.9094
2551	0.9083
2542	0.9106
2533	0.9144
2524	0.9163
2515	0.9157
2506	0.9131
2497	0.9185
2488	0.9221
2479	0.9239
2470	0.9252
2461	0.9264
2452	0.9273
2443	0.9273
2434	0.9273
2425	0.9273
2416	0.9312
2407	0.9347
2398	0.9307
2389	0.925
2380	0.9248
2371	0.9258
2362	0.9265
2353	0.9271
2344	0.9268
2335	0.9261
2326	0.9251
2317	0.9237
2308	0.9221
2299	0.922
2290	0.9228
2281	0.9256
2272	0.9299
2263	0.9321
2254	0.9374
2245	0.951
2236	0.9525
2227	0.9528
2218	0.9542
2209	0.9555
2200	0.9535
2191	0.9503
2182	0.9461
2173	0.9417
2164	0.9378
2155	0.9351
2146	0.9336
2137	0.9392
2128	0.9424
2119	0.9435
2110	0.9456
2101	0.9478
2092	0.949
2083	0.9499
2074	0.9499
2065	0.9503
2056	0.9517
2047	0.9524
2038	0.9524
2029	0.9496
2020	0.9466
2011	0.951
2002	0.9399
1993	0.9386
1984	0.9436
1975	0.9459
1966	0.9406
1957	0.937
1948	0.9436
1939	0.9447
1930	0.9363
1921	0.9297
1912	0.925
1903	0.9231
1894	0.9218
1885	0.9244
1876	0.9301
1867	0.9358
1858	0.936
1849	0.9361
1840	0.9416
1831	0.9408
1822	0.9323
1813	0.9257
1804	0.9209
1795	0.9202
1786	0.9196
1777	0.9149
1768	0.8921
1759	0.8685
1750	0.8397
1741	0.8202
1732	0.7856
1723	0.7598
1714	0.7458
1705	0.73
1696	0.6765
1687	0.6335
1678	0.5338
1669	0.3102
1660	0.0953
1651	0.0814
1642	0.0734
1633	0.0667
1624	0.0862
1615	0.2455
1606	0.4552
1597	0.5646
1588	0.6561
1579	0.6898
1570	0.714
1561	0.735
1552	0.7556
1543	0.7735
1534	0.7882
1525	0.7947
1516	0.7734
1507	0.7764
1498	0.7683
1489	0.6706
1480	0.4082
1471	0.2459
1462	0.333
1453	0.422
1444	0.5764
1435	0.656
1426	0.7661
1417	0.7703
1408	0.7592
1399	0.623
1390	0.5792
1381	0.4043
1372	0.2704
1363	0.5106
1354	0.7172
1345	0.7426
1336	0.7194
1327	0.6206
1318	0.5942
1309	0.4616
1300	0.2723
1291	0.0961
1282	0.0644
1273	0.0635
1264	0.1171
1255	0.2639
1246	0.5722
1237	0.6785
1228	0.7844
1219	0.8263
1210	0.8198
1201	0.8351
1192	0.85
1183	0.8543
1174	0.8555
1165	0.8605
1156	0.8774
1147	0.8793
1138	0.8884
1129	0.8778
1120	0.856
1111	0.8516
1102	0.8585
1093	0.7851
1084	0.8122
1075	0.779
1066	0.7782
1057	0.8056
1048	0.8068
1039	0.7775
1030	0.7278
1021	0.5571
1012	0.2965
1003	0.2664
994	0.2298
985	0.2073
976	0.2333
967	0.2726
958	0.383
949	0.5125
940	0.5284
931	0.4494
922	0.4762
913	0.4955
904	0.4678
895	0.2925
886	0.192
877	0.1045
868	0.0843
859	0.0801
850	0.0902
841	0.1123
832	0.242
823	0.5227
814	0.665
805	0.7201
796	0.7642
787	0.7947
778	0.803
769	0.785
760	0.5293
751	0.4544
742	0.5819
733	0.7622
724	0.7755
715	0.6606
706	0.5624
697	0.5593
688	0.5938
679	0.6894
