Infrared Spectrum: Bis(3,4-dichlorophenylthio)methane
Formula: C 13 H 8 Cl 4 S 2
CAS: 106241-40-1
State: gas
Origin: EPA-IR VAPOR PHASE LIBRARY
1/CM	ABSORBANCE
549.8	0.005664
559.445	0.010114
569.09	0.009764
578.734	0.005904
588.379	0.002624
598.024	0.0010433
607.669	0.0018481
617.313	0.0017892
626.958	0.0017124
636.603	0.0014333
646.248	0.0017701
655.893	0.002604
665.537	0.004304
675.182	0.014094
684.827	0.005054
694.472	0.005404
704.116	0.006134
713.761	0.007264
723.406	0.005954
733.051	0.004134
742.695	0.002984
752.34	0.0017613
761.985	0.002064
771.63	0.002564
781.275	0.004354
790.919	0.007874
800.564	0.019704
810.209	0.033884
819.854	0.021414
829.498	0.009834
839.143	0.005164
848.788	0.004004
858.433	0.004184
868.078	0.005444
877.722	0.008764
887.367	0.005504
897.012	0.002624
906.657	0.0013501
916.301	0.0014595
925.946	0.0011297
935.591	0.000848
945.236	0.0016467
954.88	0.0012602
964.525	0.0012888
974.17	0.0012871
983.815	0.0017493
993.46	0.001974
1003.1	0.0014666
1012.75	0.003994
1022.39	0.010444
1032.04	0.030694
1041.68	0.012864
1051.33	0.004594
1060.97	0.002744
1070.62	0.002864
1080.26	0.004004
1089.91	0.009764
1099.55	0.013914
1109.2	0.012954
1118.84	0.020524
1128.49	0.022814
1138.13	0.019864
1147.78	0.020344
1157.42	0.010534
1167.07	0.004524
1176.71	0.004284
1186.36	0.007464
1196	0.021204
1205.64	0.008324
1215.29	0.002924
1224.93	0.0018498
1234.58	0.003094
1244.22	0.005634
1253.87	0.004244
1263.51	0.002444
1273.16	0.0017057
1282.8	0.001189
1292.45	0.000771
1302.09	0.0010955
1311.74	0.0015653
1321.38	0.0015053
1331.03	0.0017079
1340.67	0.003294
1350.32	0.007874
1359.96	0.014034
1369.61	0.011404
1379.25	0.008194
1388.9	0.007104
1398.54	0.006424
1408.18	0.005924
1417.83	0.006264
1427.47	0.010394
1437.12	0.017624
1446.76	0.027904
1456.41	0.055944
1466.05	0.039664
1475.7	0.007404
1485.34	0.004044
1494.99	0.003534
1504.63	0.003314
1514.28	0.002674
1523.92	0.003094
1533.57	0.005174
1543.21	0.009934
1552.86	0.007804
1562.5	0.007214
1572.15	0.007144
1581.79	0.004124
1591.44	0.002514
1601.08	0.001994
1610.73	0.002204
1620.37	0.0018423
1630.01	0.0018123
1639.66	0.0015326
1649.3	0.0011737
1658.95	0.0012695
1668.59	0.0013597
1678.24	0.0010805
1687.88	0.0010359
1697.53	0.0011517
1707.17	0.0011892
1716.82	0.0013073
1726.46	0.001435
1736.11	0.0015524
1745.75	0.0016823
1755.4	0.0018552
1765.04	0.001616
1774.69	0.0011364
1784.33	0.0012902
1793.98	0.0010926
1803.62	0.0011872
1813.27	0.0010797
1822.91	0.0010976
1832.55	0.0010835
1842.2	0.0009548
1851.84	0.000745
1861.49	0.0010508
1871.13	0.0012973
1880.78	0.00167
1890.42	0.0018722
1900.07	0.001518
1909.71	0.0012097
1919.36	0.0008634
1929	0.0009009
1938.65	0.0009911
1948.29	0.00097475
1957.94	0.000926026
1967.58	0.000761
1977.23	0.0010713
1986.87	0.000718
1996.52	0.0008471
2006.16	0.00099258
2015.81	0.000744
2025.45	0.0009538
2035.1	0.00093961
2044.74	0.0008905
2054.38	0.000924421
2064.03	0.00077
2073.67	0.000725
2083.32	0.0008726
2092.96	0.000927762
2102.61	0.000804
2112.25	0.0008252
2121.9	0.000665
2131.54	0.00095691
2141.19	0.000774
2150.83	0.00082
2160.48	0.0008942
2170.12	0.000808
2179.77	0.0010832
2189.41	0.000822
2199.06	0.000665
2208.7	0.00097102
2218.35	0.00101174
2227.99	0.000715
2237.64	0.00082
2247.28	0.0009084
2256.92	0.0008442
2266.57	0.00098838
2276.21	0.000833
2285.86	0.0008519
2295.5	0.0010559
2305.15	0.0008263
2314.79	0.00098091
2324.44	0.0009007
2334.08	0.00098405
2343.73	0.00096709
2353.37	0.0011723
2363.02	0.0010527
2372.66	0.00101656
2382.31	0.0010549
2391.95	0.000726
2401.6	0.0009268
2411.24	0.0009123
2420.89	0.00096057
2430.53	0.000701
2440.18	0.000761
2449.82	0.00099036
2459.47	0.00096748
2469.11	0.0009669
2478.75	0.0010811
2488.4	0.00096405
2498.04	0.0010786
2507.69	0.00099058
2517.33	0.00094234
2526.98	0.000859
2536.62	0.000549
2546.27	0.000779
2555.91	0.000697
2565.56	0.00091916
2575.2	0.0008418
2584.85	0.0008308
2594.49	0.0010853
2604.14	0.0012285
2613.78	0.0008473
2623.43	0.000929405
2633.07	0.00091766
2642.72	0.000762
2652.36	0.000752
2662.01	0.000727
2671.65	0.00098115
2681.29	0.000852
2690.94	0.000608
2700.58	0.000923668
2710.23	0.000748
2719.87	0.0011465
2729.52	0.000662
2739.16	0.0011216
2748.81	0.0009109
2758.45	0.0010623
2768.1	0.0008671
2777.74	0.0008672
2787.39	0.0012637
2797.03	0.0011572
2806.68	0.000801
2816.32	0.00097678
2825.97	0.000771
2835.61	0.00096561
2845.26	0.0010759
2854.9	0.000672
2864.55	0.000317
2874.19	0.000527
2883.84	0.000564
2893.48	0.0011591
2903.12	0.00097277
2912.77	0.00095386
2922.41	0.002234
2932.06	0.002864
2941.7	0.0017778
2951.35	0.0010716
2960.99	0.0010501
2970.64	0.001039
2980.28	0.0010761
2989.93	0.00100291
2999.57	0.0008337
3009.22	0.000494
3018.86	0.00101396
3028.51	0.0011521
3038.15	0.0008267
3047.8	0.0014668
3057.44	0.002134
3067.09	0.002084
3076.73	0.0017373
3086.38	0.0017093
3096.02	0.0011419
3105.67	0.000783
3115.31	0.0011829
3124.95	0.0013391
3134.6	0.000857
3144.24	0.000766
3153.89	0.000742
3163.53	0.000703
3173.18	0.00096843
3182.82	0.0012072
3192.47	0.00100098
3202.11	0.0010395
3211.76	0.000354
3221.4	0.00091648
3231.05	0.00097895
3240.69	0.000536
3250.34	0.000823
3259.98	0.000539
3269.63	0.000756
3279.27	0.000651
3288.92	0.000651
3298.56	0.000781
3308.21	0.000312
3317.85	0.000743
3327.49	0.00079
3337.14	0.000186
3346.78	0.00095944
3356.43	0.000548
3366.07	0.00094668
3375.72	0.000669
3385.36	0.0008855
3395.01	0.000731
3404.65	0.00095112
3414.3	0.000716
3423.94	0.0008805
3433.59	0.00069
3443.23	0.0008677
3452.88	0.000645
3462.52	0.000588
3472.17	0.000302
3481.81	0.000539
3491.46	0.000534
3501.1	0.000349
3510.75	0.000248
3520.39	0.0008996
3530.04	0.0011575
3539.68	0.0008838
3549.32	0.000634
3558.97	0.00096424
3568.61	0.000562
3578.26	0.000339
3587.9	0.0009127
3597.55	0.0009084
3607.19	0.000343
3616.84	0.000593
3626.48	0.000495
3636.13	0.000719
3645.77	0.000467
3655.42	0.001041
3665.06	0.0008746
3674.71	0.000675
3684.35	0.000442
3694	0.000752
3703.64	0.0012486
3713.29	0.000191
3722.93	0.0008702
3732.58	0.000384
3742.22	0.000662
3751.86	0.0008982
3761.51	0.0014574
3771.15	0.000672
3780.8	0.0010521
3790.44	0.000658
3800.09	0.00101451
3809.73	0.000482
3819.38	0.000443
3829.02	0.0008477
3838.67	0.000493
3848.31	0.000666
3857.96	0.00098224
3867.6	0.000755
3877.25	0.000361
3886.89	0.00093844
3896.54	0.000484
3906.18	0.0011382
3915.83	0.000182
3925.47	0.000661
3935.12	0.0011082
3944.76	0.0007
3954.41	0.000712
3964.05	0.00099776
3973.69	0.000502
3983.34	0.0011065
3992.98	0.00076
