Infrared Spectrum: NEOPENTYLGLYCINE
Formula: C7 H15 N O2
CAS: 106247-35-2
State: SOLID (KBr PELLET)
Class: COBLENTZ
Instrument: PERKIN-ELMER
Sampling: TRANSMISSION
Resolution: 4
Origin: ABBOTT LABORATORIES - WASHBURN
MICROMETERS	TRANSMITTANCE
2.058	0.686
2.09151	0.688
2.12502	0.696
2.15853	0.6911
2.19204	0.696
2.22555	0.703
2.25906	0.703
2.29257	0.698
2.32608	0.6989
2.35959	0.699
2.3931	0.703
2.42661	0.706
2.46012	0.704
2.49363	0.709
2.52714	0.7179
2.56065	0.709
2.59416	0.716
2.62767	0.709
2.66118	0.7179
2.69469	0.709
2.7282	0.713
2.76171	0.709
2.79522	0.699
2.82873	0.6739
2.86224	0.6347
2.89575	0.5959
2.92926	0.564
2.96277	0.5509
2.99628	0.5491
3.02979	0.576
3.0633	0.58
3.09681	0.5747
3.13032	0.5255
3.16383	0.4718
3.19734	0.3981
3.23085	0.3378
3.26436	0.2755
3.29787	0.2355
3.33138	0.2018
3.36489	0.1767
3.3984	0.1272
3.43191	0.1021
3.46542	0.1185
3.49893	0.1562
3.53244	0.1787
3.56595	0.2364
3.59946	0.2798
3.63297	0.3103
3.66648	0.3281
3.69999	0.3423
3.7335	0.3553
3.76701	0.3699
3.80052	0.3635
3.83403	0.3571
3.86754	0.3776
3.90105	0.4093
3.93456	0.4303
3.96807	0.4504
4.00158	0.4723
4.03509	0.5054
4.0686	0.5296
4.10211	0.5493
4.13562	0.5764
4.16913	0.5932
4.20264	0.6105
4.23615	0.6323
4.26966	0.639
4.30317	0.6402
4.33668	0.6491
4.37019	0.6541
4.4037	0.666
4.43721	0.6722
4.47072	0.669
4.50423	0.676
4.53774	0.6741
4.57125	0.664
4.60476	0.6551
4.63827	0.6522
4.67178	0.644
4.70529	0.642
4.7388	0.645
4.77231	0.6489
4.80582	0.655
4.83933	0.662
4.87284	0.669
4.90635	0.6739
4.93986	0.6819
4.97337	0.6859
5.00688	0.691
5.04039	0.6889
5.0739	0.698
5.10741	0.7005
5.14092	0.699
5.17443	0.7023
5.20794	0.7049
5.24145	0.708
5.27496	0.708
5.30847	0.709
5.34198	0.708
5.37549	0.7091
5.409	0.711
5.44251	0.709
5.47602	0.706
5.50953	0.7098
5.54304	0.708
5.57655	0.706
5.61006	0.7022
5.64357	0.694
5.67708	0.689
5.71059	0.6764
5.7441	0.6619
5.77761	0.6545
5.81112	0.6364
5.84463	0.6185
5.87814	0.6047
5.91165	0.5892
5.94516	0.5584
5.97867	0.4864
6.01218	0.3607
6.04569	0.2745
6.0792	0.183
6.11271	0.1118
6.14622	0.101
6.17973	0.096
6.21324	0.0912
6.24675	0.104
6.28026	0.108
6.31377	0.1065
6.34728	0.106
6.38079	0.1162
6.4143	0.1591
6.44781	0.2053
6.48132	0.2292
6.51483	0.2541
6.54834	0.2629
6.58185	0.2595
6.61536	0.2495
6.64887	0.234
6.68238	0.231
6.71589	0.2449
6.7494	0.2667
6.78291	0.249
6.81642	0.2814
6.84993	0.3062
6.88344	0.3862
6.91695	0.3826
6.95046	0.387
6.98397	0.4
7.01748	0.4637
7.05099	0.4489
7.0845	0.2987
7.11801	0.1964
7.15152	0.2404
7.18503	0.2544
7.21854	0.2138
7.25205	0.3352
7.28556	0.3776
7.31907	0.274
7.35258	0.2875
7.38609	0.3269
7.4196	0.378
7.45311	0.3531
7.48662	0.2629
7.52013	0.2016
7.55364	0.3113
7.58715	0.3926
7.62066	0.4927
7.65418	0.5633
7.68769	0.6003
7.7212	0.6177
7.75471	0.6332
7.78822	0.639
7.82173	0.6103
7.85524	0.5571
7.88875	0.554
7.92226	0.5922
7.95577	0.6101
7.98928	0.6171
8.02279	0.6082
8.0563	0.617
8.08981	0.6398
8.12332	0.647
8.15683	0.6351
8.19034	0.6015
8.22385	0.5654
8.25736	0.571
8.29087	0.6079
8.32438	0.6372
8.35789	0.6469
8.3914	0.6352
8.42491	0.6123
8.45842	0.5964
8.49193	0.6104
8.52544	0.632
8.55895	0.6395
8.59246	0.6302
8.62597	0.6044
8.65948	0.5791
8.69299	0.5752
8.7265	0.5882
8.76001	0.6114
8.79352	0.6289
8.82703	0.6365
8.86054	0.6407
8.89405	0.6462
8.92756	0.652
8.96107	0.655
8.99458	0.661
9.02809	0.661
9.0616	0.662
9.09511	0.661
9.12862	0.666
9.16213	0.6669
9.19564	0.671
9.22915	0.674
9.26266	0.6747
9.29617	0.6715
9.32968	0.671
9.36319	0.671
9.3967	0.671
9.43021	0.672
9.46372	0.676
9.49723	0.6741
9.53074	0.6738
9.56425	0.6869
9.59776	0.684
9.63127	0.676
9.66478	0.675
9.69829	0.6764
9.7318	0.6733
9.76531	0.669
9.79882	0.669
9.83233	0.6772
9.86584	0.6889
9.89935	0.6944
9.93286	0.701
9.96637	0.704
9.99988	0.703
10.0334	0.697
10.0669	0.6901
10.1004	0.6832
10.1339	0.677
10.1674	0.6822
10.2009	0.686
10.2344	0.689
10.268	0.6939
10.3015	0.701
10.335	0.701
10.3685	0.7047
10.402	0.7099
10.4355	0.713
10.469	0.7203
10.5025	0.7235
10.536	0.723
10.5695	0.7259
10.6031	0.7249
10.6366	0.7132
10.6701	0.7038
10.7036	0.6947
10.7371	0.6952
10.7706	0.7085
10.8041	0.7155
10.8376	0.7053
10.8711	0.6924
10.9046	0.6786
10.9382	0.672
10.9717	0.6819
11.0052	0.6886
11.0387	0.7034
11.0722	0.709
11.1057	0.709
11.1392	0.708
11.1727	0.705
11.2062	0.706
11.2397	0.7023
11.2733	0.698
11.3068	0.703
11.3403	0.704
11.3738	0.7078
11.4073	0.7107
11.4408	0.7126
11.4743	0.718
11.5078	0.7167
11.5413	0.7119
11.5748	0.7073
11.6084	0.685
11.6419	0.6646
11.6754	0.6287
11.7089	0.5606
11.7424	0.5096
11.7759	0.478
11.8094	0.5107
11.8429	0.5817
11.8764	0.6311
11.9099	0.6688
11.9435	0.6898
11.977	0.7083
12.0105	0.7152
12.044	0.7252
12.0775	0.731
12.111	0.738
12.1445	0.735
12.178	0.7357
12.2115	0.7383
12.245	0.74
12.2786	0.739
12.3121	0.74
12.3456	0.733
12.3791	0.7326
12.4126	0.725
12.4461	0.7179
12.4796	0.706
12.5131	0.6912
12.5466	0.6746
12.5801	0.663
12.6137	0.657
12.6472	0.6629
12.6807	0.674
12.7142	0.681
12.7477	0.6894
12.7812	0.6994
12.8147	0.706
12.8482	0.7132
12.8817	0.715
12.9152	0.7258
12.9488	0.7237
12.9823	0.7317
13.0158	0.735
13.0493	0.7389
13.0828	0.7373
13.1163	0.74
13.1498	0.7358
13.1833	0.7298
13.2168	0.7301
13.2504	0.7277
13.2839	0.736
13.3174	0.733
13.3509	0.7386
13.3844	0.741
13.4179	0.739
13.4514	0.7422
13.4849	0.7376
13.5184	0.7403
13.5519	0.7379
13.5855	0.736
13.619	0.7362
13.6525	0.7308
13.686	0.7376
13.7195	0.7353
13.753	0.7365
13.7865	0.7356
13.82	0.734
13.8535	0.7315
13.887	0.7308
13.9206	0.7333
13.9541	0.7309
13.9876	0.7309
14.0211	0.7345
14.0546	0.7273
14.0881	0.733
14.1216	0.736
14.1551	0.736
14.1886	0.7356
14.2221	0.7263
14.2557	0.72
14.2892	0.7199
14.3227	0.7111
14.3562	0.7044
14.3897	0.7066
14.4232	0.7015
14.4567	0.699
14.4902	0.701
14.5237	0.7
14.5572	0.699
14.5908	0.6965
14.6243	0.693
14.6578	0.689
14.6913	0.686
14.7248	0.679
14.7583	0.6711
14.7918	0.661
14.8253	0.6518
14.8588	0.633
14.8923	0.6281
14.9259	0.6226
14.9594	0.615
14.9929	0.623
15.0264	0.6117
15.0599	0.608
15.0934	0.607
15.1269	0.6116
15.1604	0.6177
15.1939	0.629
15.2274	0.6446
15.261	0.656
15.2945	0.669
15.328	0.6727
15.3615	0.681
15.395	0.684
