Infrared Spectrum: 1H-Pyrazolo[3,4-d]pyrimidine, 4-(methylthio)-1-Beta-D-ribofuranosyl-, 2',3',5'-tribenzoate
Formula: C32 H26 N4 O7 S
CAS: 106488-32-8
State: SOLID (0.9 mg / 650 mg KBr DISC)
Class: COBLENTZ III
Instrument: PERKIN-ELMER 21 (GRATING)
Instrument parameters: FILTER CHANGE ABOUT 1020 CM^-^1
Sampling: TRANSMISSION
Resolution: 2
Origin: SOUTHERN RESEARCH INSTITUTE
1/CM	TRANSMITTANCE
601.386	0.7059
610.42	0.709
619.455	0.709
628.489	0.7053
637.523	0.6943
646.558	0.6751
655.592	0.6484
664.626	0.6226
673.661	0.5992
682.695	0.5573
691.729	0.5142
700.764	0.3126
709.798	0.2639
718.832	0.4236
727.867	0.5933
736.901	0.7204
745.935	0.766
754.97	0.7643
764.004	0.7491
773.038	0.7141
782.072	0.6965
791.107	0.7211
800.141	0.7083
809.175	0.711
818.21	0.7183
827.244	0.7202
836.278	0.7126
845.313	0.709
854.347	0.7134
863.381	0.7174
872.416	0.721
881.45	0.7241
890.484	0.7255
899.519	0.7273
908.553	0.7242
917.587	0.7037
926.622	0.6623
935.656	0.6057
944.69	0.6108
953.725	0.6984
962.759	0.6824
971.793	0.6512
980.828	0.6381
989.862	0.6272
998.896	0.616
1007.93	0.6098
1016.96	0.5571
1026	0.4385
1035.03	0.5666
1044.07	0.5661
1053.1	0.541
1062.14	0.414
1071.17	0.3298
1080.21	0.3942
1089.24	0.2481
1098.27	0.2549
1107.31	0.2503
1116.34	0.2464
1125.38	0.2708
1134.41	0.3928
1143.45	0.5236
1152.48	0.5842
1161.51	0.586
1170.55	0.5815
1179.58	0.5328
1188.62	0.6828
1197.65	0.6874
1206.69	0.6478
1215.72	0.5947
1224.75	0.5393
1233.79	0.4648
1242.82	0.3304
1251.86	0.2264
1260.89	0.1347
1269.93	0.1108
1278.96	0.1296
1287.99	0.1839
1297.03	0.3814
1306.06	0.5029
1315.1	0.4365
1324.13	0.5374
1333.17	0.6661
1342.2	0.6888
1351.23	0.6953
1360.27	0.6985
1369.3	0.6965
1378.34	0.6884
1387.37	0.6802
1396.41	0.6836
1405.44	0.7065
1414.48	0.7123
1423.51	0.6942
1432.54	0.6654
1441.58	0.6261
1450.61	0.4699
1459.65	0.4716
1468.68	0.6776
1477.72	0.7419
1486.75	0.7492
1495.78	0.7313
1504.82	0.7018
1513.85	0.6836
1522.89	0.6691
1531.92	0.697
1540.96	0.7161
1549.99	0.6603
1559.02	0.5901
1568.06	0.5895
1577.09	0.6723
1586.13	0.6252
1595.16	0.5917
1604.2	0.4604
1613.23	0.5683
1622.26	0.673
1631.3	0.7426
1640.33	0.7529
1649.37	0.7458
1658.4	0.7311
1667.44	0.7025
1676.47	0.6523
1685.5	0.5832
1694.54	0.5269
1703.57	0.3297
1712.61	0.189
1721.64	0.1301
1730.68	0.1788
1739.71	0.3263
1748.75	0.5294
1757.78	0.7878
1766.81	0.81
1775.85	0.8236
1784.88	0.8375
1793.92	0.851
1802.95	0.8636
1811.99	0.8742
1821.02	0.8855
1830.05	0.8953
1839.09	0.9012
1848.12	0.906
1857.16	0.9102
1866.19	0.9108
1875.23	0.9113
1884.26	0.9084
1893.29	0.9036
1902.33	0.8976
1911.36	0.8928
1920.4	0.8957
1929.43	0.9001
1938.47	0.9029
1947.5	0.9042
1956.53	0.9045
1965.57	0.9028
1974.6	0.9002
1983.64	0.9032
1992.67	0.9092
2001.71	0.9154
2010.74	0.9169
2019.77	0.9169
2028.81	0.917
2037.84	0.9171
2046.88	0.9172
2055.91	0.9173
2064.95	0.9174
2073.98	0.9176
2083.02	0.9179
2092.05	0.9179
2101.08	0.9179
2110.12	0.9175
2119.15	0.9171
2128.19	0.9166
2137.22	0.9161
2146.26	0.9157
2155.29	0.9158
2164.32	0.9159
2173.36	0.9159
2182.39	0.916
2191.43	0.9161
2200.46	0.9164
2209.5	0.9169
2218.53	0.9174
2227.56	0.918
2236.6	0.9185
2245.63	0.919
2254.67	0.9195
2263.7	0.92
2272.74	0.9205
2281.77	0.921
2290.8	0.9211
2299.84	0.9212
2308.87	0.9213
2317.91	0.9213
2326.94	0.9208
2335.98	0.9204
2345.01	0.9198
2354.04	0.9191
2363.08	0.9185
2372.11	0.9175
2381.15	0.9164
2390.18	0.9154
2399.22	0.9151
2408.25	0.9151
2417.29	0.9151
2426.32	0.9148
2435.35	0.9144
2444.39	0.914
2453.42	0.9135
2462.46	0.913
2471.49	0.9125
2480.53	0.912
2489.56	0.9113
2498.59	0.9107
2507.63	0.9101
2516.66	0.9098
2525.7	0.9094
2534.73	0.9087
2543.77	0.908
2552.8	0.9071
2561.83	0.9061
2570.87	0.9051
2579.9	0.904
2588.94	0.9032
2597.97	0.9026
2607.01	0.902
2616.04	0.9014
2625.07	0.901
2634.11	0.9006
2643.14	0.9003
2652.18	0.9
2661.21	0.8995
2670.25	0.8988
2679.28	0.8981
2688.31	0.8973
2697.35	0.8966
2706.38	0.8957
2715.42	0.8948
2724.45	0.8938
2733.49	0.8924
2742.52	0.8905
2751.56	0.8885
2760.59	0.8866
2769.62	0.8846
2778.66	0.8819
2787.69	0.8793
2796.73	0.8761
2805.76	0.8719
2814.8	0.8667
2823.83	0.8607
2832.86	0.8536
2841.9	0.8466
2850.93	0.8394
2859.97	0.8319
2869	0.8256
2878.04	0.82
2887.07	0.8158
2896.1	0.8121
2905.14	0.8099
2914.17	0.8082
2923.21	0.8063
2932.24	0.8051
2941.28	0.804
2950.31	0.8038
2959.34	0.8073
2968.38	0.8118
2977.41	0.8166
2986.45	0.8188
2995.48	0.8204
3004.52	0.8193
3013.55	0.8167
3022.58	0.812
3031.62	0.8084
3040.65	0.8062
3049.69	0.805
3058.72	0.8044
3067.76	0.8049
3076.79	0.8087
3085.83	0.8132
3094.86	0.8176
3103.89	0.8217
3112.93	0.8254
3121.96	0.8289
3131	0.8321
3140.03	0.834
3149.07	0.8346
3158.1	0.8352
3167.13	0.8352
3176.17	0.8349
3185.2	0.8345
3194.24	0.8338
3203.27	0.833
3212.31	0.8322
3221.34	0.8311
3230.37	0.8291
3239.41	0.8271
3248.44	0.8252
3257.48	0.8233
3266.51	0.8209
3275.55	0.8184
3284.58	0.8148
3293.61	0.8109
3302.65	0.8064
3311.68	0.8005
3320.72	0.7938
3329.75	0.7862
3338.79	0.7782
3347.82	0.7694
3356.85	0.7606
3365.89	0.7516
3374.92	0.7425
3383.96	0.7335
3392.99	0.7252
3402.03	0.7171
3411.06	0.7102
3420.1	0.7058
3429.13	0.7023
3438.16	0.704
3447.2	0.7064
3456.23	0.7095
3465.27	0.7131
3474.3	0.7171
3483.34	0.7217
3492.37	0.727
3501.4	0.733
3510.44	0.7406
3519.47	0.7496
3528.51	0.7584
3537.54	0.7679
3546.58	0.7792
3555.61	0.7882
3564.64	0.7966
3573.68	0.8045
3582.71	0.8116
3591.75	0.8183
3600.78	0.825
3609.82	0.8319
3618.85	0.839
3627.88	0.8464
3636.92	0.8532
3645.95	0.8593
3654.99	0.8651
3664.02	0.8706
3673.06	0.8745
3682.09	0.8784
3691.12	0.8811
3700.16	0.8836
3709.19	0.8852
3718.23	0.886
3727.26	0.8862
3736.3	0.8864
3745.33	0.8873
3754.36	0.8877
3763.4	0.8894
3772.43	0.8919
3781.47	0.8951
3790.5	0.897
3799.54	0.898
3808.57	0.8991
