Infrared Spectrum: AMMONIUM BICARBONATE
Formula: N H4 H C O3
CAS: 1066-33-7
State: SOLID (NUJOL MULL)
Class: COBLENTZ
Instrument: Not specified, most likely a prism, grating, or hybrid spectrometer.
Sampling: TRANSMISSION
Resolution: 4
Origin: MELLON INSTITUTE
MICROMETERS	TRANSMITTANCE
2.087	0.89
2.12789	0.886
2.16878	0.885
2.20967	0.883
2.25057	0.883
2.29146	0.885
2.33235	0.888
2.37324	0.89
2.41413	0.892
2.45502	0.893
2.49591	0.895
2.5368	0.893
2.5777	0.89
2.61859	0.888
2.65948	0.888
2.70037	0.885
2.74126	0.878
2.78215	0.869
2.82304	0.863
2.86393	0.852
2.90483	0.837
2.94572	0.821
2.98661	0.779
3.0275	0.703
3.06839	0.494
3.10928	0.265
3.15017	0.148
3.19106	0.157
3.23196	0.198
3.27285	0.174
3.31374	0.25
3.35463	0.2
3.39552	0.214
3.43641	0.275
3.4773	0.263
3.5182	0.369
3.55909	0.47
3.59998	0.558
3.64087	0.58
3.68176	0.57
3.72265	0.547
3.76354	0.522
3.80443	0.503
3.84533	0.484
3.88622	0.464
3.92711	0.458
3.968	0.476
4.00889	0.489
4.04978	0.506
4.09067	0.527
4.13156	0.551
4.17246	0.577
4.21335	0.602
4.25424	0.619
4.29513	0.633
4.33602	0.652
4.37691	0.671
4.4178	0.693
4.45869	0.708
4.49959	0.717
4.54048	0.729
4.58137	0.743
4.62226	0.753
4.66315	0.758
4.70404	0.761
4.74493	0.763
4.78583	0.765
4.82672	0.763
4.86761	0.753
4.9085	0.748
4.94939	0.741
4.99028	0.738
5.03117	0.738
5.07206	0.739
5.11296	0.739
5.15385	0.738
5.19474	0.696
5.23563	0.636
5.27652	0.621
5.31741	0.636
5.3583	0.686
5.39919	0.726
5.44009	0.744
5.48098	0.75
5.52187	0.748
5.56276	0.75
5.60365	0.751
5.64454	0.751
5.68543	0.75
5.72632	0.75
5.76722	0.746
5.80811	0.741
5.849	0.731
5.88989	0.702
5.93078	0.602
5.97167	0.517
6.01256	0.397
6.05346	0.347
6.09435	0.383
6.13524	0.308
6.17613	0.28
6.21702	0.392
6.25791	0.578
6.2988	0.676
6.33969	0.724
6.38059	0.743
6.42148	0.773
6.46237	0.787
6.50326	0.799
6.54415	0.801
6.58504	0.804
6.62593	0.806
6.66682	0.804
6.70772	0.801
6.74861	0.791
6.7895	0.727
6.83039	0.638
6.87128	0.546
6.91217	0.385
6.95306	0.388
6.99395	0.357
7.03485	0.28
7.07574	0.131
7.11663	0.094
7.15752	0.092
7.19841	0.119
7.2393	0.136
7.28019	0.135
7.32109	0.13
7.36198	0.125
7.40287	0.121
7.44376	0.123
7.48465	0.131
7.52554	0.133
7.56643	0.138
7.60732	0.143
7.64822	0.152
7.68911	0.164
7.73	0.178
7.77089	0.208
7.81178	0.244
7.85267	0.316
7.89356	0.376
7.93445	0.45
7.97535	0.494
8.01624	0.535
8.05713	0.578
8.09802	0.625
8.13891	0.659
8.1798	0.681
8.22069	0.702
8.26159	0.719
8.30248	0.732
8.34337	0.75
8.38426	0.763
8.42515	0.773
8.46604	0.784
8.50693	0.794
8.54782	0.801
8.58872	0.808
8.62961	0.813
8.6705	0.818
8.71139	0.821
8.75228	0.823
8.79317	0.825
8.83406	0.825
8.87495	0.828
8.91585	0.83
8.95674	0.832
8.99763	0.832
9.03852	0.833
9.07941	0.835
9.1203	0.835
9.16119	0.837
9.20208	0.84
9.24298	0.842
9.28387	0.844
9.32476	0.845
9.36565	0.849
9.40654	0.852
9.44743	0.852
9.48832	0.847
9.52922	0.797
9.57011	0.726
9.611	0.758
9.65189	0.773
9.69278	0.731
9.73367	0.756
9.77456	0.767
9.81545	0.761
9.85635	0.736
9.89724	0.7
9.93813	0.606
9.97902	0.525
10.0199	0.506
10.0608	0.496
10.1017	0.498
10.1426	0.539
10.1835	0.59
10.2244	0.638
10.2653	0.681
10.3061	0.717
10.347	0.743
10.3879	0.765
10.4288	0.784
10.4697	0.799
10.5106	0.815
10.5515	0.825
10.5924	0.833
10.6333	0.842
10.6742	0.849
10.7151	0.854
10.756	0.863
10.7968	0.871
10.8377	0.88
10.8786	0.885
10.9195	0.895
10.9604	0.902
11.0013	0.905
11.0422	0.912
11.0831	0.914
11.124	0.916
11.1649	0.921
11.2058	0.924
11.2466	0.928
11.2875	0.929
11.3284	0.933
11.3693	0.934
11.4102	0.938
11.4511	0.94
11.492	0.945
11.5329	0.946
11.5738	0.948
11.6147	0.95
11.6556	0.95
11.6965	0.95
11.7373	0.945
11.7782	0.941
11.8191	0.928
11.86	0.886
11.9009	0.801
11.9418	0.69
11.9827	0.505
12.0236	0.453
12.0645	0.486
12.1054	0.623
12.1463	0.719
12.1871	0.772
12.228	0.809
12.2689	0.833
12.3098	0.852
12.3507	0.864
12.3916	0.88
12.4325	0.893
12.4734	0.904
12.5143	0.91
12.5552	0.914
12.5961	0.922
12.637	0.924
12.6778	0.929
12.7187	0.934
12.7596	0.936
12.8005	0.94
12.8414	0.941
12.8823	0.943
12.9232	0.945
12.9641	0.945
13.005	0.946
13.0459	0.948
13.0868	0.946
13.1276	0.946
13.1685	0.946
13.2094	0.946
13.2503	0.945
13.2912	0.945
13.3321	0.946
13.373	0.946
13.4139	0.945
13.4548	0.941
13.4957	0.936
13.5366	0.933
13.5775	0.929
13.6183	0.924
13.6592	0.917
13.7001	0.91
13.741	0.898
13.7819	0.873
13.8228	0.84
13.8637	0.794
13.9046	0.726
13.9455	0.662
13.9864	0.594
14.0273	0.518
14.0681	0.469
14.109	0.441
14.1499	0.431
14.1908	0.422
14.2317	0.419
14.2726	0.419
14.3135	0.422
14.3544	0.438
14.3953	0.467
14.4362	0.513
14.4771	0.558
14.518	0.609
14.5588	0.65
14.5997	0.683
14.6406	0.698
14.6815	0.715
14.7224	0.724
14.7633	0.729
14.8042	0.732
14.8451	0.734
14.886	0.738
14.9269	0.738
14.9678	0.738
15.0086	0.734
15.0495	0.731
15.0904	0.727
15.1313	0.722
15.1722	0.722
15.2131	0.72
15.254	0.72
15.2949	0.717
15.3358	0.715
15.3767	0.715
15.4176	0.71
15.4585	0.708
15.4993	0.707
15.5402	0.705
15.5811	0.7
15.622	0.698
15.6629	0.695
15.7038	0.691
15.7447	0.688
15.7856	0.684
15.8265	0.683
15.8674	0.681
15.9083	0.678
15.9491	0.676
15.99	0.676
