Infrared Spectrum: 3-Ethyl-3-methylpentane
Formula: C 8 H 18
CAS: 1067-08-9
State: gas
Instrument: HP-GC/MS/IRD
Origin: NIST Mass Spectrometry Data Center
1/CM	ABSORBANCE
550	0.000356
562	8.96e-05
574	0.0002392
586	0.0002168
598	0.0003536
610	0.0003696
622	0.0004232
634	0.0003416
646	0.0002504
658	0.0003144
670	0.0003008
682	0.0003512
694	0.0003832
706	0.0003344
718	0.0003896
730	0.0003952
742	0.0003944
754	0.000416
766	0.0004192
778	0.0005144
790	0.0005112
802	0.0004816
814	0.0003112
826	0.0002768
838	0.0003464
850	0.0003296
862	0.0004064
874	0.0004648
886	0.0004456
898	0.0004024
910	0.0004096
922	0.0003592
934	0.000364
946	0.000408
958	0.0004064
970	0.000444
982	0.0004896
994	0.0006448
1006	0.0006176
1018	0.0004536
1030	0.000424
1042	0.0003848
1054	0.000312
1066	0.0003072
1078	0.0003328
1090	0.0002848
1102	0.0002912
1114	0.0002616
1126	0.00026
1138	0.000244
1150	0.0002136
1162	0.0003064
1174	0.0002992
1186	0.0003064
1198	0.000252
1210	0.0001856
1222	0.0002064
1234	0.0002152
1246	0.0002288
1258	0.0002904
1270	0.0003112
1282	0.0003592
1294	0.0003136
1306	0.0002992
1318	0.0002992
1330	0.0003192
1342	0.000364
1354	0.0004168
1366	0.000624
1378	0.000936
1390	0.0009352
1402	0.0005456
1414	0.0003432
1426	0.0003712
1438	0.000532
1450	0.0009384
1462	0.0013368
1474	0.0011752
1486	0.0007048
1498	0.0004136
1510	0.0003024
1522	0.0002568
1534	0.0002384
1546	0.0002384
1558	0.000252
1570	0.0002456
1582	0.0002272
1594	0.0001944
1606	0.0002096
1618	0.0001824
1630	0.0001992
1642	0.0002208
1654	0.000164
1666	0.000212
1678	0.000184
1690	0.00018
1702	0.0001528
1714	0.0001232
1726	0.0001288
1738	0.0001232
1750	0.0001248
1762	0.0001408
1774	0.0001392
1786	0.0001472
1798	0.000144
1810	0.0001136
1822	0.000136
1834	9.76e-05
1846	0.0001104
1858	0.000116
1870	0.0001104
1882	0.0001048
1894	0.0001376
1906	0.0001104
1918	8.64e-05
1930	9.76e-05
1942	0.000124
1954	0.0001064
1966	0.0001128
1978	0.0001152
1990	9.92e-05
2002	0.0001008
2014	8.08e-05
2026	9.2e-05
2038	8.96e-05
2050	7.44e-05
2062	9.12e-05
2074	8.4e-05
2086	6.88e-05
2098	8.32e-05
2110	7.28e-05
2122	9.36e-05
2134	7.84e-05
2146	7.04e-05
2158	7.12e-05
2170	7.04e-05
2182	6.24e-05
2194	5.84e-05
2206	6.8e-05
2218	4.24e-05
2230	9.04e-05
2242	9.12e-05
2254	6.32e-05
2266	8.48e-05
2278	8e-05
2290	9.2e-05
2302	7.92e-05
2314	8.64e-05
2326	8.48e-05
2338	7.84e-05
2350	8e-05
2362	8.48e-05
2374	0.0001112
2386	0.000116
2398	0.0001208
2410	0.0001264
2422	0.0001096
2434	0.000108
2446	0.0001264
2458	0.000128
2470	0.0001184
2482	0.0001456
2494	0.0001448
2506	0.000112
2518	0.00012
2530	0.0001576
2542	0.0001536
2554	0.0001384
2566	0.0001336
2578	0.0001624
2590	0.0001744
2602	0.0001944
2614	0.0002088
2626	0.0002096
2638	0.0002288
2650	0.0002464
2662	0.0002144
2674	0.00024
2686	0.0002272
2698	0.0002488
2710	0.0002648
2722	0.0002688
2734	0.0002944
2746	0.0003672
2758	0.0003536
2770	0.0003264
2782	0.0003672
2794	0.0004376
2806	0.0004336
2818	0.0005072
2830	0.0006152
2842	0.0008288
2854	0.0014216
2866	0.0022024
2878	0.0028688
2890	0.0033128
2902	0.0035312
2914	0.0043264
2926	0.0052872
2938	0.0053736
2950	0.0054072
2962	0.0070616
2974	0.0077552
2986	0.004408
2998	0.0017248
3010	0.0009296
3022	0.0006784
3034	0.0005776
3046	0.000524
3058	0.0004792
3070	0.0004448
3082	0.0004312
3094	0.0004136
3106	0.000388
3118	0.0003384
3130	0.0002912
3142	0.0002944
3154	0.0002808
3166	0.0003192
3178	0.000248
3190	0.00022
3202	0.0002144
3214	0.0002472
3226	0.000204
3238	0.0001616
3250	0.0001808
3262	0.0001792
3274	0.0001464
3286	0.0001464
3298	0.0001312
3310	0.0001624
3322	9.6e-05
3334	0.0001368
3346	0.0001248
3358	0.0001528
3370	0.000124
3382	0.0001488
3394	0.0001008
3406	0.000144
3418	7.44e-05
3430	0.0001056
3442	0.0001328
3454	8.08e-05
3466	0.0001288
3478	9.04e-05
3490	0.0001008
3502	9.6e-05
3514	6.32e-05
3526	8.56e-05
3538	7.6e-05
3550	3.04e-05
3562	6.56e-05
3574	4.64e-05
3586	8.16e-05
3598	8.16e-05
3610	4.8e-05
3622	4.4e-05
3634	3.92e-05
3646	7.44e-05
3658	6e-05
3670	6.96e-05
3682	4.24e-05
3694	0.0001288
3706	4e-05
3718	0.0001128
3730	8.32e-05
3742	6.88e-05
3754	7.44e-05
3766	8.8e-05
3778	6.4e-05
3790	8.88e-05
3802	5.12e-05
3814	5.04e-05
3826	8.48e-05
3838	6.8e-05
