Infrared Spectrum: Methyl diethylphosphonoacetate
Formula: C 7 H 15 O 5 P
CAS: 1067-74-9
State: gas
Origin: EPA-IR VAPOR PHASE LIBRARY
1/CM	ABSORBANCE
549.8	0.005404
559.445	0.004954
569.09	0.004084
578.734	0.004614
588.379	0.005094
598.024	0.008844
607.669	0.013794
617.313	0.012354
626.958	0.006884
636.603	0.004174
646.248	0.003044
655.893	0.002764
665.537	0.002544
675.182	0.002744
684.827	0.002594
694.472	0.003134
704.116	0.005014
713.761	0.006114
723.406	0.006664
733.051	0.006954
742.695	0.008314
752.34	0.010604
761.985	0.014524
771.63	0.021794
781.275	0.023004
790.919	0.016744
800.564	0.014674
810.209	0.015734
819.854	0.018614
829.498	0.020014
839.143	0.018604
848.788	0.014574
858.433	0.011264
868.078	0.011304
877.722	0.014174
887.367	0.018254
897.012	0.018194
906.657	0.015274
916.301	0.016354
925.946	0.023764
935.591	0.041564
945.236	0.067834
954.88	0.085184
964.525	0.077224
974.17	0.053964
983.815	0.033364
993.46	0.028704
1003.1	0.037204
1012.75	0.063614
1022.39	0.116424
1032.04	0.172574
1041.68	0.180784
1051.33	0.153444
1060.97	0.139054
1070.62	0.100954
1080.26	0.063754
1089.91	0.056594
1099.55	0.062474
1109.2	0.064414
1118.84	0.065424
1128.49	0.050394
1138.13	0.035554
1147.78	0.029834
1157.42	0.026594
1167.07	0.025184
1176.71	0.023364
1186.36	0.019764
1196	0.020644
1205.64	0.023704
1215.29	0.026124
1224.93	0.030184
1234.58	0.039744
1244.22	0.052084
1253.87	0.069944
1263.51	0.089504
1273.16	0.120234
1282.8	0.151404
1292.45	0.122914
1302.09	0.074434
1311.74	0.044164
1321.38	0.025484
1331.03	0.015534
1340.67	0.010704
1350.32	0.008754
1359.96	0.009104
1369.61	0.011414
1379.25	0.012644
1388.9	0.017774
1398.54	0.022074
1408.18	0.016894
1417.83	0.012204
1427.47	0.013954
1437.12	0.023424
1446.76	0.018044
1456.41	0.010774
1466.05	0.008674
1475.7	0.007554
1485.34	0.006254
1494.99	0.005144
1504.63	0.004494
1514.28	0.003524
1523.92	0.003234
1533.57	0.003234
1543.21	0.002914
1552.86	0.002864
1562.5	0.002704
1572.15	0.002664
1581.79	0.002854
1591.44	0.002394
1601.08	0.002874
1610.73	0.002384
1620.37	0.002704
1630.01	0.002294
1639.66	0.002484
1649.3	0.002644
1658.95	0.003014
1668.59	0.003394
1678.24	0.003394
1687.88	0.004404
1697.53	0.005374
1707.17	0.007174
1716.82	0.010584
1726.46	0.015894
1736.11	0.025974
1745.75	0.050304
1755.4	0.093194
1765.04	0.095994
1774.69	0.054334
1784.33	0.026804
1793.98	0.013674
1803.62	0.008274
1813.27	0.005954
1822.91	0.004734
1832.55	0.004064
1842.2	0.003624
1851.84	0.002894
1861.49	0.002774
1871.13	0.002684
1880.78	0.002384
1890.42	0.002554
1900.07	0.002114
1909.71	0.002164
1919.36	0.002064
1929	0.001954
1938.65	0.001924
1948.29	0.001724
1957.94	0.0016724
1967.58	0.0013621
1977.23	0.0016572
1986.87	0.0014247
1996.52	0.001774
2006.16	0.002124
2015.81	0.002094
2025.45	0.002044
2035.1	0.001924
2044.74	0.001754
2054.38	0.0014916
2064.03	0.0014335
2073.67	0.0016505
2083.32	0.001814
2092.96	0.0014056
2102.61	0.0014202
2112.25	0.0014688
2121.9	0.001437
2131.54	0.0015389
2141.19	0.0014648
2150.83	0.0013352
2160.48	0.0014949
2170.12	0.0011932
2179.77	0.0012509
2189.41	0.0011981
2199.06	0.0012671
2208.7	0.0010767
2218.35	0.0008078
2227.99	0.0010163
2237.64	0.000958
2247.28	0.0011676
2256.92	0.00067
2266.57	0.0008561
2276.21	0.0009556
2285.86	0.0009298
2295.5	0.0009258
2305.15	0.001022
2314.79	0.0009777
2324.44	0.0011119
2334.08	0.001181
2343.73	0.0012211
2353.37	0.0008538
2363.02	0.001055
2372.66	0.00078551
2382.31	0.00079139
2391.95	0.0010085
2401.6	0.0010729
2411.24	0.0009248
2420.89	0.0009576
2430.53	0.000874
2440.18	0.0011174
2449.82	0.0012205
2459.47	0.0011272
2469.11	0.0013626
2478.75	0.0009132
2488.4	0.0010337
2498.04	0.0012969
2507.69	0.0010225
2517.33	0.0011341
2526.98	0.0010507
2536.62	0.0011223
2546.27	0.0008454
2555.91	0.0012971
2565.56	0.0011299
2575.2	0.0011442
2584.85	0.0009674
2594.49	0.0009756
2604.14	0.0009169
2613.78	0.0010895
2623.43	0.0013126
2633.07	0.0011653
2642.72	0.00057
2652.36	0.0008736
2662.01	0.0012111
2671.65	0.0012255
2681.29	0.00072799
2690.94	0.0010585
2700.58	0.0011028
2710.23	0.0010467
2719.87	0.0011111
2729.52	0.001177
2739.16	0.0015585
2748.81	0.001425
2758.45	0.0015834
2768.1	0.001984
2777.74	0.002014
2787.39	0.001794
2797.03	0.001824
2806.68	0.001764
2816.32	0.002314
2825.97	0.002574
2835.61	0.004064
2845.26	0.004834
2854.9	0.005894
2864.55	0.006084
2874.19	0.007444
2883.84	0.008954
2893.48	0.010334
2903.12	0.013044
2912.77	0.016444
2922.41	0.017074
2932.06	0.021634
2941.7	0.028614
2951.35	0.029824
2960.99	0.035264
2970.64	0.031574
2980.28	0.036374
2989.93	0.039284
2999.57	0.030604
3009.22	0.021304
3018.86	0.015394
3028.51	0.011034
3038.15	0.008064
3047.8	0.005584
3057.44	0.004064
3067.09	0.003504
3076.73	0.003504
3086.38	0.002694
3096.02	0.002374
3105.67	0.002034
3115.31	0.001944
3124.95	0.001954
3134.6	0.001904
3144.24	0.0016022
3153.89	0.0016274
3163.53	0.001964
3173.18	0.0015148
3182.82	0.0010492
3192.47	0.001168
3202.11	0.0010174
3211.76	0.0012238
3221.4	0.0014809
3231.05	0.0009544
3240.69	0.0011787
3250.34	0.0014059
3259.98	0.0015247
3269.63	0.0010748
3279.27	0.0009318
3288.92	0.0006819
3298.56	0.00072164
3308.21	0.0011327
3317.85	0.000518
3327.49	0.0008395
3337.14	0.001335
3346.78	0.0009332
3356.43	0.000706483
3366.07	0.0009846
3375.72	0.0009261
3385.36	0.0008676
3395.01	0.0010315
3404.65	0.0006756
3414.3	0.0006579
3423.94	0.00049
3433.59	0.0008078
3443.23	0.00076373
3452.88	0.0010072
3462.52	0.000599
3472.17	0.0008165
3481.81	0.00099
3491.46	0.001774
3501.1	0.0013378
3510.75	0.001641
3520.39	0.0015739
3530.04	0.000557
3539.68	0.00071643
3549.32	0.0012798
3558.97	0.0010083
3568.61	0.00077424
3578.26	0.000710842
3587.9	0.0006658
3597.55	0.00049
3607.19	0.00016
3616.84	4.6e-05
3626.48	0.000497
3636.13	0.0008496
3645.77	0.000555
3655.42	0.0009728
3665.06	0.0010123
3674.71	0.0006062
3684.35	0.00080297
3694	0.000299
3703.64	0.0014729
3713.29	0.00051
3722.93	0.00078042
3732.58	0.0008709
3742.22	0.000431
3751.86	0.0006687
3761.51	0.0010497
3771.15	0.0011213
3780.8	0.0006492
3790.44	0.0006659
3800.09	0.0011656
3809.73	0.000564
3819.38	0.000941
3829.02	0.0011603
3838.67	0.0012558
3848.31	0.0006551
3857.96	0.0010536
3867.6	0.0008602
3877.25	0.0010392
3886.89	0.0013213
3896.54	0.00076239
3906.18	0.0009051
3915.83	0.000396
3925.47	0.0011344
3935.12	0.0008419
3944.76	0.0009506
3954.41	0.0013239
3964.05	0.0009727
3973.69	0.0013084
3983.34	0.0013807
3992.98	0.0009393
