Infrared Spectrum: 3,3-Diethylpentane
Formula: C 9 H 20
CAS: 1067-20-5
State: gas
Instrument: HP-GC/MS/IRD
Origin: NIST Mass Spectrometry Data Center
1/CM	ABSORBANCE
550	0.0008164
562	0.0001742
574	0.0001222
586	0.0002158
598	0.0001716
610	0.000208
622	9.88e-05
634	8.06e-05
646	0.0001092
658	0.0002964
670	0.000195
682	0.0002028
694	0.000208
706	0.0002444
718	0.0002366
730	0.0003068
742	0.0003458
754	0.0006552
766	0.0009308
778	0.0008398
790	0.000481
802	0.0003952
814	0.0003432
826	0.0002704
838	0.0002652
850	0.0003016
862	0.0002808
874	0.000468
886	0.0008554
898	0.0016068
910	0.001612
922	0.0009126
934	0.00052
946	0.0004134
958	0.0003276
970	0.0003042
982	0.000273
994	0.0003302
1006	0.0004316
1018	0.0006604
1030	0.0007982
1042	0.0006812
1054	0.00039
1066	0.0002886
1078	0.0003276
1090	0.000273
1102	0.0002756
1114	0.0002418
1126	0.0002548
1138	0.0003328
1150	0.0003744
1162	0.0005252
1174	0.0005538
1186	0.000468
1198	0.0003666
1210	0.0003276
1222	0.0003224
1234	0.000377
1246	0.0003926
1258	0.0003874
1270	0.000481
1282	0.0006448
1294	0.00078
1306	0.0007046
1318	0.0005616
1330	0.0005538
1342	0.000663
1354	0.0008528
1366	0.0013104
1378	0.0024648
1390	0.0023972
1402	0.0010504
1414	0.0006526
1426	0.0007332
1438	0.0012896
1450	0.0027924
1462	0.0044954
1474	0.0036868
1486	0.0017888
1498	0.0008814
1510	0.0007124
1522	0.0006006
1534	0.0005174
1546	0.0005278
1558	0.0005408
1570	0.000494
1582	0.0004446
1594	0.00039
1606	0.0003536
1618	0.0003718
1630	0.0003588
1642	0.0003614
1654	0.000416
1666	0.0003146
1678	0.0003354
1690	0.0003068
1702	0.000325
1714	0.0002912
1726	0.0002444
1738	0.0002834
1750	0.0002964
1762	0.00026
1774	0.0002418
1786	0.0002262
1798	0.00026
1810	0.0002236
1822	0.0002158
1834	0.0002028
1846	0.000234
1858	0.0002028
1870	0.0002028
1882	0.0001768
1894	0.0001612
1906	0.0001872
1918	0.0001768
1930	0.0001404
1942	0.0001664
1954	0.0001508
1966	0.0001508
1978	0.000156
1990	0.000169
2002	0.000156
2014	0.0001534
2026	0.0001638
2038	0.0001638
2050	0.0001612
2062	0.000156
2074	0.0001404
2086	0.0001352
2098	0.000143
2110	0.000143
2122	0.0001508
2134	0.0001456
2146	0.0001248
2158	0.0001222
2170	0.0001222
2182	0.0001196
2194	0.0001092
2206	0.0001196
2218	0.000117
2230	0.0001274
2242	0.000117
2254	0.0001066
2266	0.0001274
2278	9.88e-05
2290	0.0001456
2302	0.0001274
2314	0.0001482
2326	0.0001898
2338	0.0001716
2350	0.0001846
2362	0.0002158
2374	0.0002262
2386	0.0001664
2398	0.0001326
2410	0.0001326
2422	0.0001248
2434	0.0001196
2446	0.0001118
2458	9.36e-05
2470	0.0001144
2482	0.000117
2494	9.62e-05
2506	7.54e-05
2518	7.8e-05
2530	9.88e-05
2542	9.36e-05
2554	0.000117
2566	0.0001378
2578	0.00013
2590	0.0001456
2602	0.000195
2614	0.0002574
2626	0.0002782
2638	0.0003068
2650	0.0002782
2662	0.0002756
2674	0.000312
2686	0.0003406
2698	0.0003172
2710	0.0003224
2722	0.0003692
2734	0.0004992
2746	0.000637
2758	0.0005876
2770	0.0005616
2782	0.0006812
2794	0.0007722
2806	0.0009542
2818	0.0011336
2830	0.0013884
2842	0.002002
2854	0.0034788
2866	0.0064038
2878	0.009594
2890	0.0116948
2902	0.0113854
2914	0.0139308
2926	0.0200382
2938	0.0216502
2950	0.0198484
2962	0.0221988
2974	0.0254254
2986	0.015366
2998	0.0062062
3010	0.003107
3022	0.002028
3034	0.0016068
3046	0.0013806
3058	0.0012922
3070	0.0012454
3082	0.0011986
3094	0.0010686
3106	0.0008866
3118	0.000728
3130	0.0006162
3142	0.0005512
3154	0.000507
3166	0.0004264
3178	0.0003666
3190	0.0003016
3202	0.0002704
3214	0.0002106
3226	0.00026
3238	0.0002158
3250	0.0002028
3262	0.000182
3274	0.0002028
3286	0.000143
3298	0.0001508
3310	0.0001794
3322	9.36e-05
3334	0.0001066
3346	9.88e-05
3358	6.24e-05
3370	0.0001222
3382	6.24e-05
3394	9.36e-05
3406	7.28e-05
3418	0.0001014
3430	7.28e-05
3442	5.2e-05
3454	1.04e-05
3466	3.12e-05
3478	5.72e-05
3490	6.76e-05
3502	8.32e-05
3514	6.76e-05
3526	3.64e-05
3538	6.76e-05
3550	4.42e-05
3562	1.04e-05
3574	3.9e-05
3586	0.0001144
3598	4.94e-05
3610	4.68e-05
3622	8.58e-05
3634	0.0001404
3646	0.0001066
3658	6.5e-05
3670	7.8e-05
3682	6.24e-05
3694	7.54e-05
3706	4.42e-05
3718	2.6e-06
3730	2.86e-05
3742	6.5e-05
3754	9.36e-05
3766	2.6e-05
3778	4.16e-05
3790	4.42e-05
3802	6.5e-05
3814	7.54e-05
3826	3.38e-05
3838	6.5e-05
