Infrared Spectrum: TRIETHYL LEAD CHLORIDE
Formula: C6 H15 Cl Pb
CAS: 1067-14-7
State: SOLID (0.5% in KBr)
Class: COBLENTZ
Instrument: PERKIN-ELMER
Sampling: TRANSMISSION
Path length: 0.1 CM PELLET THICKNESS
Resolution: 4
Origin: STANDARD OIL OF OHIO
MICROMETERS	TRANSMITTANCE
2.027	0.861
2.06075	0.866
2.09449	0.87
2.12824	0.872
2.16199	0.875
2.19574	0.878
2.22948	0.878
2.26323	0.866
2.29698	0.858
2.33073	0.86
2.36447	0.873
2.39822	0.875
2.43197	0.875
2.46572	0.88
2.49946	0.882
2.53321	0.878
2.56696	0.883
2.60071	0.887
2.63445	0.892
2.6682	0.89
2.70195	0.878
2.7357	0.843
2.76944	0.732
2.80319	0.578
2.83694	0.511
2.87069	0.476
2.90443	0.459
2.93818	0.542
2.97193	0.674
3.00568	0.752
3.03942	0.79
3.07317	0.819
3.10692	0.846
3.14067	0.872
3.17441	0.889
3.20816	0.895
3.24191	0.899
3.27566	0.882
3.3094	0.716
3.34315	0.5
3.3769	0.431
3.41065	0.51
3.44439	0.59
3.47814	0.559
3.51189	0.776
3.54564	0.843
3.57938	0.875
3.61313	0.894
3.64688	0.889
3.68063	0.901
3.71437	0.906
3.74812	0.911
3.78187	0.916
3.81562	0.918
3.84936	0.918
3.88311	0.916
3.91686	0.916
3.95061	0.918
3.98435	0.921
4.0181	0.923
4.05185	0.923
4.0856	0.923
4.11934	0.918
4.15309	0.912
4.18684	0.904
4.22059	0.906
4.25433	0.911
4.28808	0.916
4.32183	0.918
4.35558	0.918
4.38932	0.918
4.42307	0.918
4.45682	0.918
4.49057	0.918
4.52431	0.914
4.55806	0.912
4.59181	0.909
4.62556	0.904
4.6593	0.89
4.69305	0.866
4.7268	0.861
4.76055	0.883
4.79429	0.894
4.82804	0.899
4.86179	0.904
4.89554	0.906
4.92928	0.909
4.96303	0.909
4.99678	0.909
5.03053	0.909
5.06427	0.911
5.09802	0.916
5.13177	0.916
5.16552	0.919
5.19926	0.918
5.23301	0.916
5.26676	0.914
5.30051	0.919
5.33425	0.923
5.368	0.924
5.40175	0.926
5.4355	0.93
5.46924	0.93
5.50299	0.93
5.53674	0.931
5.57049	0.931
5.60423	0.933
5.63798	0.933
5.67173	0.933
5.70548	0.935
5.73922	0.933
5.77297	0.928
5.80672	0.93
5.84047	0.926
5.87421	0.93
5.90796	0.924
5.94171	0.921
5.97546	0.902
6.0092	0.856
6.04295	0.813
6.0767	0.778
6.11045	0.774
6.14419	0.779
6.17794	0.813
6.21169	0.856
6.24543	0.897
6.27918	0.919
6.31293	0.931
6.34668	0.943
6.38042	0.943
6.41417	0.943
6.44792	0.943
6.48167	0.943
6.51541	0.941
6.54916	0.938
6.58291	0.938
6.61666	0.938
6.6504	0.938
6.68415	0.933
6.7179	0.926
6.75165	0.909
6.78539	0.849
6.81914	0.742
6.85289	0.694
6.88664	0.752
6.92038	0.836
6.95413	0.865
6.98788	0.819
7.02163	0.791
7.05537	0.878
7.08912	0.904
7.12287	0.914
7.15662	0.911
7.19036	0.892
7.22411	0.793
7.25786	0.619
7.29161	0.788
7.32535	0.895
7.3591	0.926
7.39285	0.943
7.4266	0.948
7.46034	0.959
7.49409	0.96
7.52784	0.955
7.56159	0.953
7.59533	0.952
7.62908	0.952
7.66283	0.948
7.69658	0.945
7.73032	0.941
7.76407	0.936
7.79782	0.935
7.83157	0.93
7.86531	0.924
7.89906	0.921
7.93281	0.921
7.96656	0.921
8.0003	0.916
8.03405	0.912
8.0678	0.894
8.10155	0.854
8.13529	0.738
8.16904	0.694
8.20279	0.778
8.23654	0.836
8.27028	0.86
8.30403	0.87
8.33778	0.872
8.37153	0.868
8.40527	0.863
8.43902	0.853
8.47277	0.836
8.50652	0.8
8.54026	0.744
8.57401	0.667
8.60776	0.542
8.64151	0.392
8.67525	0.209
8.709	0.138
8.74275	0.284
8.7765	0.506
8.81024	0.725
8.84399	0.8
8.87774	0.839
8.91149	0.878
8.94523	0.911
8.97898	0.931
9.01273	0.94
9.04648	0.938
9.08022	0.931
9.11397	0.924
9.14772	0.919
9.18147	0.912
9.21521	0.911
9.24896	0.909
9.28271	0.909
9.31646	0.912
9.3502	0.912
9.38395	0.912
9.4177	0.912
9.45145	0.911
9.48519	0.906
9.51894	0.904
9.55269	0.897
9.58644	0.885
9.62018	0.861
9.65393	0.817
9.68768	0.708
9.72143	0.587
9.75517	0.525
9.78892	0.58
9.82267	0.704
9.85642	0.788
9.89016	0.832
9.92391	0.853
9.95766	0.872
9.99141	0.882
10.0252	0.889
10.0589	0.89
10.0926	0.89
10.1264	0.887
10.1601	0.878
10.1939	0.868
10.2276	0.849
10.2614	0.808
10.2951	0.708
10.3289	0.638
10.3626	0.598
10.3964	0.598
10.4301	0.651
10.4639	0.682
10.4976	0.682
10.5314	0.641
10.5651	0.619
10.5989	0.629
10.6326	0.668
10.6664	0.73
10.7001	0.783
10.7338	0.819
10.7676	0.844
10.8013	0.86
10.8351	0.872
10.8688	0.878
10.9026	0.885
10.9363	0.889
10.9701	0.892
11.0038	0.894
11.0376	0.895
11.0713	0.895
11.1051	0.895
11.1388	0.897
11.1726	0.901
11.2063	0.904
11.2401	0.909
11.2738	0.916
11.3076	0.923
11.3413	0.926
11.3751	0.926
11.4088	0.928
11.4425	0.931
11.4763	0.933
11.51	0.933
11.5438	0.931
11.5775	0.933
11.6113	0.933
11.645	0.933
11.6788	0.933
11.7125	0.933
11.7463	0.933
11.78	0.933
11.8138	0.933
11.8475	0.933
11.8813	0.935
11.915	0.935
11.9488	0.935
11.9825	0.935
12.0163	0.935
12.05	0.935
12.0837	0.931
12.1175	0.928
12.1512	0.928
12.185	0.928
12.2187	0.926
12.2525	0.928
12.2862	0.926
12.32	0.924
12.3537	0.924
12.3875	0.924
12.4212	0.924
12.455	0.924
12.4887	0.924
12.5225	0.924
12.5562	0.924
12.59	0.921
12.6237	0.921
12.6575	0.921
12.6912	0.921
12.725	0.919
12.7587	0.919
12.7924	0.918
12.8262	0.916
12.8599	0.916
12.8937	0.916
12.9274	0.914
12.9612	0.912
12.9949	0.911
13.0287	0.909
13.0624	0.907
13.0962	0.907
13.1299	0.906
13.1637	0.904
13.1974	0.904
13.2312	0.904
13.2649	0.901
13.2987	0.899
13.3324	0.895
13.3662	0.892
13.3999	0.887
13.4336	0.885
13.4674	0.882
13.5011	0.88
13.5349	0.877
13.5686	0.875
13.6024	0.872
13.6361	0.868
13.6699	0.865
13.7036	0.861
13.7374	0.856
13.7711	0.853
13.8049	0.849
13.8386	0.841
13.8724	0.837
13.9061	0.831
13.9399	0.825
13.9736	0.817
14.0074	0.808
14.0411	0.802
14.0749	0.786
14.1086	0.773
14.1423	0.762
14.1761	0.747
14.2098	0.733
14.2436	0.716
14.2773	0.692
14.3111	0.665
14.3448	0.639
14.3786	0.607
14.4123	0.58
14.4461	0.546
14.4798	0.496
14.5136	0.431
14.5473	0.378
14.5811	0.332
14.6148	0.302
14.6486	0.288
14.6823	0.284
14.7161	0.302
14.7498	0.348
14.7835	0.404
14.8173	0.443
14.851	0.477
14.8848	0.506
14.9185	0.527
14.9523	0.556
14.986	0.595
15.0198	0.621
15.0535	0.643
15.0873	0.662
15.121	0.68
15.1548	0.697
15.1885	0.709
15.2223	0.726
15.256	0.742
15.2898	0.754
15.3235	0.762
15.3573	0.771
15.391	0.778
