Infrared Spectrum: 2-Chloromethyl-1,3-dichloro-2-methylpropane
Formula: C 5 H 9 Cl 3
CAS: 1067-09-0
State: gas
Instrument: HP-GC/MS/IRD
Origin: NIST Mass Spectrometry Data Center
1/CM	ABSORBANCE
550	0.0001694
562	5.74e-05
574	0.0001232
586	0.0001694
598	0.0001834
610	0.0002156
622	0.0002282
634	0.0001806
646	0.0003066
658	0.0003584
670	0.0004032
682	0.0008624
694	0.0021154
706	0.0048454
718	0.0039438
730	0.0029148
742	0.0064946
754	0.0121422
766	0.0132538
778	0.0046578
790	0.0021994
802	0.001491
814	0.0010584
826	0.0008554
838	0.0018438
850	0.00399
862	0.0051758
874	0.0055594
886	0.0049406
898	0.0030156
910	0.0009632
922	0.0007014
934	0.000665
946	0.0011662
958	0.0017906
970	0.001547
982	0.0008526
994	0.00042
1006	0.0002772
1018	0.0002226
1030	0.0002142
1042	0.0001792
1054	0.0001764
1066	0.0001624
1078	0.0002002
1090	0.0002842
1102	0.0003598
1114	0.0003724
1126	0.000245
1138	0.0002884
1150	0.0003248
1162	0.000273
1174	0.0003318
1186	0.000392
1198	0.0005964
1210	0.000931
1222	0.0014896
1234	0.001463
1246	0.001106
1258	0.001498
1270	0.0021938
1282	0.0023366
1294	0.0053858
1306	0.007189
1318	0.0026068
1330	0.0007672
1342	0.0004396
1354	0.0004872
1366	0.0008932
1378	0.0024976
1390	0.0032018
1402	0.0011494
1414	0.000938
1426	0.0030786
1438	0.0070378
1450	0.0058744
1462	0.004298
1474	0.0025676
1486	0.0009898
1498	0.000448
1510	0.000336
1522	0.0002786
1534	0.0002492
1546	0.0002156
1558	0.000182
1570	0.0001792
1582	0.0001554
1594	0.0001288
1606	0.000112
1618	0.0001344
1630	0.0001386
1642	0.0001288
1654	0.0001148
1666	0.0001078
1678	0.0001204
1690	0.000105
1702	8.4e-05
1714	6.3e-05
1726	7e-05
1738	8.96e-05
1750	0.000105
1762	7.42e-05
1774	5.74e-05
1786	7.7e-05
1798	5.74e-05
1810	5.46e-05
1822	6.58e-05
1834	6.02e-05
1846	6.16e-05
1858	5.6e-05
1870	2.8e-05
1882	4.48e-05
1894	4.2e-05
1906	5.18e-05
1918	5.6e-05
1930	1.26e-05
1942	2.52e-05
1954	1.54e-05
1966	2.94e-05
1978	2.52e-05
1990	1.4e-05
2002	3.5e-05
2014	2.66e-05
2026	4.06e-05
2038	4.9e-05
2050	6.72e-05
2062	7e-05
2074	8.54e-05
2086	6.44e-05
2098	7e-05
2110	5.46e-05
2122	3.5e-05
2134	4.06e-05
2146	2.1e-05
2158	7.84e-05
2170	4.76e-05
2182	4.9e-05
2194	1.4e-05
2206	3.22e-05
2218	5.74e-05
2230	4.06e-05
2242	4.48e-05
2254	5.6e-05
2266	4.62e-05
2278	4.34e-05
2290	6.3e-05
2302	6.58e-05
2314	7.7e-05
2326	7.56e-05
2338	8.26e-05
2350	4.76e-05
2362	6.72e-05
2374	8.26e-05
2386	6.02e-05
2398	5.88e-05
2410	5.74e-05
2422	6.3e-05
2434	5.88e-05
2446	3.64e-05
2458	6.58e-05
2470	6.02e-05
2482	4.48e-05
2494	6.72e-05
2506	7.42e-05
2518	6.44e-05
2530	6.02e-05
2542	8.12e-05
2554	6.72e-05
2566	6.86e-05
2578	7.28e-05
2590	9.1e-05
2602	9.52e-05
2614	0.0001008
2626	6.02e-05
2638	8.96e-05
2650	0.0001064
2662	0.0001358
2674	0.000126
2686	0.0001554
2698	0.0001498
2710	0.0001638
2722	0.0002198
2734	0.0002492
2746	0.000287
2758	0.0002324
2770	0.0001862
2782	0.0001932
2794	0.0002184
2806	0.0001946
2818	0.0002786
2830	0.0003556
2842	0.000511
2854	0.0008148
2866	0.001218
2878	0.0013244
2890	0.0013132
2902	0.0012768
2914	0.0012852
2926	0.0015064
2938	0.0023968
2950	0.0049364
2962	0.0086366
2974	0.0071246
2986	0.005579
2998	0.004088
3010	0.002408
3022	0.001057
3034	0.0004256
3046	0.000315
3058	0.0003122
3070	0.000287
3082	0.0002674
3094	0.000252
3106	0.0002618
3118	0.0002492
3130	0.0002646
3142	0.0002254
3154	0.0001694
3166	0.0002114
3178	0.0001596
3190	0.000231
3202	0.0001736
3214	0.0001764
3226	0.0001806
3238	0.0001456
3250	0.0001498
3262	0.0001288
3274	0.0001344
3286	0.000133
3298	0.0001288
3310	0.0001526
3322	0.000147
3334	0.0001526
3346	0.0001162
3358	0.000119
3370	8.54e-05
3382	0.000105
3394	2.94e-05
3406	8.54e-05
3418	8.82e-05
3430	9.1e-05
3442	7.14e-05
3454	0.0001246
3466	4.2e-05
3478	9.24e-05
3490	4.76e-05
3502	7.98e-05
3514	6.58e-05
3526	7.84e-05
3538	6.3e-05
3550	9.52e-05
3562	9.24e-05
3574	3.64e-05
3586	6.3e-05
3598	0.0001064
3610	3.22e-05
3622	3.08e-05
3634	8.12e-05
3646	2.52e-05
3658	7.14e-05
3670	7.7e-05
3682	4.2e-05
3694	4.76e-05
3706	0.0001092
3718	6.58e-05
3730	0.0001176
3742	5.32e-05
3754	9.1e-05
3766	9.66e-05
3778	5.18e-05
3790	6.16e-05
3802	0.0001008
3814	0.0001204
3826	0.000161
3838	0.0001148
