Infrared Spectrum: Silicic acid, tetraallyl ester
Formula: C12 H20 O4 Si
CAS: 1067-43-2
State: SOLUTION (10% CCl4 FOR 3800-1330, 10% CS2 FOR 1330-400 CM^-^1) VS SOLVENT
Class: COBLENTZ III
Instrument: DOW KBr FOREPRISM-GRATING
Instrument parameters: BLAZED AT 3.5, 12.0, 20.0 MICRON AND CHANGED AT 5.0, 7.5, 14.9 MICRON
Sampling: TRANSMISSION
Path length: 0.011 CM, 0.011 CM
Resolution: 2
Origin: DOW CHEMICAL COMPANY
1/CM	TRANSMITTANCE
3800	0.8713
3791	0.8724
3782	0.8725
3773	0.8718
3764	0.8713
3755	0.8717
3746	0.8721
3737	0.872
3728	0.8715
3719	0.8707
3710	0.8699
3701	0.8695
3692	0.8693
3683	0.8693
3674	0.8692
3665	0.8684
3656	0.8655
3647	0.8594
3638	0.8493
3629	0.8362
3620	0.8245
3611	0.8321
3602	0.8516
3593	0.8481
3584	0.8412
3575	0.8497
3566	0.8482
3557	0.8461
3548	0.843
3539	0.8401
3530	0.8382
3521	0.8375
3512	0.8368
3503	0.8363
3494	0.8359
3485	0.8359
3476	0.8367
3467	0.8374
3458	0.8381
3449	0.8383
3440	0.8386
3431	0.8388
3422	0.8391
3413	0.8394
3404	0.8397
3395	0.84
3386	0.8403
3377	0.8406
3368	0.8412
3359	0.8418
3350	0.8425
3341	0.843
3332	0.8435
3323	0.8438
3314	0.8441
3305	0.8444
3296	0.8447
3287	0.845
3278	0.8452
3269	0.8454
3260	0.8457
3251	0.8461
3242	0.8466
3233	0.8456
3224	0.8445
3215	0.8434
3206	0.8431
3197	0.8428
3188	0.8421
3179	0.8407
3170	0.8393
3161	0.838
3152	0.8365
3143	0.8336
3134	0.829
3125	0.8203
3116	0.804
3107	0.7043
3098	0.584
3089	0.5376
3080	0.5422
3071	0.6058
3062	0.7121
3053	0.7636
3044	0.7746
3035	0.7678
3026	0.6286
3017	0.5007
3008	0.6
2999	0.649
2990	0.484
2981	0.5544
2972	0.6515
2963	0.6664
2954	0.5545
2945	0.4245
2936	0.3775
2927	0.3362
2918	0.3797
2909	0.442
2900	0.4066
2891	0.3458
2882	0.285
2873	0.2469
2864	0.3128
2855	0.4159
2846	0.5933
2837	0.6408
2828	0.7211
2819	0.7475
2810	0.7856
2801	0.8051
2792	0.8151
2783	0.8149
2774	0.8021
2765	0.8089
2756	0.8236
2747	0.8257
2738	0.7987
2729	0.7506
2720	0.7765
2711	0.8106
2702	0.8106
2693	0.8259
2684	0.8391
2675	0.8486
2666	0.8539
2657	0.8575
2648	0.859
2639	0.8598
2630	0.8606
2621	0.8601
2612	0.8577
2603	0.8564
2594	0.8559
2585	0.8565
2576	0.8571
2567	0.8581
2558	0.8593
2549	0.8603
2540	0.8615
2531	0.862
2522	0.8625
2513	0.863
2504	0.8633
2495	0.8633
2486	0.8632
2477	0.863
2468	0.8628
2459	0.863
2450	0.8627
2441	0.8623
2432	0.8616
2423	0.8609
2414	0.8609
2405	0.8609
2396	0.8613
2387	0.862
2378	0.8631
2369	0.8595
2360	0.8604
2351	0.8606
2342	0.861
2333	0.8612
2324	0.8618
2315	0.8653
2306	0.8643
2297	0.8628
2288	0.8625
2279	0.8618
2270	0.8617
2261	0.8617
2252	0.8617
2243	0.8612
2234	0.8608
2225	0.8604
2216	0.86
2207	0.8594
2198	0.8588
2189	0.8582
2180	0.8577
2171	0.8577
2162	0.8575
2153	0.8575
2144	0.8574
2135	0.8571
2126	0.8571
2117	0.8563
2108	0.8556
2099	0.8548
2090	0.8539
2081	0.8527
2072	0.8516
2063	0.8511
2054	0.8509
2045	0.8505
2036	0.8485
2027	0.8441
2018	0.838
2009	0.8301
2000	0.8135
1991	0.7942
1982	0.7958
1973	0.7986
1964	0.8001
1955	0.801
1946	0.8021
1937	0.8056
1928	0.8088
1919	0.8118
1910	0.813
1901	0.8133
1892	0.8132
1883	0.8128
1874	0.8015
1865	0.7798
1856	0.7668
1847	0.7592
1838	0.7758
1829	0.7989
1820	0.8112
1811	0.8205
1802	0.8258
1793	0.8281
1784	0.8256
1775	0.8221
1766	0.8168
1757	0.8098
1748	0.7998
1739	0.7847
1730	0.7639
1721	0.7764
1712	0.7765
1703	0.7731
1694	0.7915
1685	0.7995
1676	0.8008
1667	0.7933
1658	0.7687
1649	0.4422
1640	0.7251
1631	0.7858
1622	0.7905
1613	0.8008
1604	0.8148
1595	0.8288
1586	0.8305
1577	0.8292
1568	0.83
1559	0.848
1550	0.8595
1541	0.8524
1532	0.8409
1523	0.8388
1514	0.8285
1505	0.8118
1496	0.7939
1487	0.7774
1478	0.7286
1469	0.5209
1460	0.4812
1451	0.6878
1442	0.71
1433	0.5952
1424	0.2963
1415	0.6068
1406	0.5054
1397	0.6951
1388	0.6062
1379	0.5833
1370	0.6056
1361	0.551
1352	0.7005
1343	0.7358
1334	0.7438
1325	0.7458
1316	0.7432
1307	0.7333
1298	0.6853
1289	0.5187
1280	0.5469
1271	0.3371
1262	0.4326
1253	0.6014
1244	0.6465
1235	0.6576
1226	0.6576
1217	0.6358
1208	0.5944
1199	0.536
1190	0.477
1181	0.3673
1172	0.2304
1163	0.0945
1154	0.0477
1145	0.0236
1136	0.003
1127	0.0133
1118	0.0167
1109	0.0054
1100	0.003
1091	0.0023
1082	0.0014
1073	0.0032
1064	0.0228
1055	0.0287
1046	0.0042
1037	0.0083
1028	0.1679
1019	0.2195
1010	0.1715
1001	0.2578
992	0.0527
983	0.1807
974	0.4752
965	0.5288
956	0.5574
947	0.4739
938	0.2749
929	0.0079
920	0.0033
911	0.1395
902	0.5155
893	0.5497
884	0.4443
875	0.2158
866	0.1016
857	0.0839
848	0.0969
839	0.1757
830	0.3478
821	0.5862
812	0.6974
803	0.755
794	0.7904
785	0.8144
776	0.8253
767	0.83
758	0.8367
749	0.8377
740	0.838
731	0.8473
722	0.8658
713	0.8811
704	0.892
695	0.8957
686	0.8925
677	0.8854
668	0.8782
659	0.8621
650	0.8039
641	0.7208
632	0.6401
623	0.6043
614	0.6089
605	0.6455
596	0.6591
587	0.6487
578	0.72
569	0.7601
560	0.5809
551	0.5804
542	0.7272
533	0.7865
524	0.8235
515	0.846
506	0.8514
497	0.8475
488	0.8203
479	0.7321
470	0.6374
461	0.5735
452	0.5662
443	0.5965
434	0.6301
425	0.6624
416	0.6906
407	0.6994
398	0.6993
389	0.6965
