Infrared Spectrum: 4,4-Dimethylheptane
Formula: C 9 H 20
CAS: 1068-19-5
State: gas
Instrument: HP-GC/MS/IRD
Origin: NIST Mass Spectrometry Data Center
1/CM	ABSORBANCE
550	0.0002052
562	0.000117
574	0.0001152
586	0.0003204
598	0.0002034
610	0.0003132
622	0.0002376
634	0.0002682
646	0.0002952
658	0.0002412
670	0.000297
682	0.000261
694	0.000279
706	0.0002952
718	0.0003762
730	0.0004158
742	0.000486
754	0.0004032
766	0.000279
778	0.0003006
790	0.0002718
802	0.0003258
814	0.0003078
826	0.000216
838	0.0003186
850	0.0002664
862	0.0002754
874	0.0003024
886	0.0003006
898	0.0003384
910	0.0003834
922	0.000459
934	0.0005364
946	0.0004518
958	0.0003492
970	0.0003114
982	0.0001998
994	0.0001962
1006	0.0001512
1018	0.0001926
1030	0.0002394
1042	0.0003762
1054	0.0004212
1066	0.0004626
1078	0.0004968
1090	0.0005184
1102	0.0005238
1114	0.0004932
1126	0.0005184
1138	0.0005076
1150	0.0005094
1162	0.0005868
1174	0.0007146
1186	0.0008604
1198	0.0008406
1210	0.0007506
1222	0.0006876
1234	0.0007272
1246	0.0007128
1258	0.0007038
1270	0.0006138
1282	0.0005994
1294	0.0005994
1306	0.0005922
1318	0.0005382
1330	0.0006138
1342	0.0005256
1354	0.0009918
1366	0.00144
1378	0.0015732
1390	0.0013392
1402	0.0009324
1414	0.000603
1426	0.0006678
1438	0.0007704
1450	0.0013878
1462	0.0020502
1474	0.0019692
1486	0.001269
1498	0.0006192
1510	8.82e-05
1522	0.0001008
1534	0.0003042
1546	0.0001746
1558	6.48e-05
1570	0.0003942
1582	0.0004608
1594	0.0004536
1606	0.0004356
1618	0.0003672
1630	0.0003672
1642	0.0002754
1654	3.24e-05
1666	0.0002394
1678	0.0001386
1690	0.000216
1702	5.04e-05
1714	0.0001062
1726	0.0003132
1738	0.0002052
1750	0.0001296
1762	0.000297
1774	0.000243
1786	0.0001728
1798	0.000162
1810	0.0002412
1822	0.000189
1834	0.0002106
1846	9.54e-05
1858	0.0002466
1870	0.000171
1882	0.000252
1894	0.0002286
1906	0.0002322
1918	0.0001782
1930	0.000234
1942	0.0001872
1954	0.000207
1966	0.000189
1978	0.000225
1990	0.00018
2002	0.0002196
2014	0.0002052
2026	0.0001872
2038	0.0001908
2050	0.000216
2062	0.0001962
2074	0.0001782
2086	0.00018
2098	0.0001872
2110	0.0001782
2122	0.0001584
2134	0.0001584
2146	0.0001818
2158	0.0001548
2170	0.0001656
2182	0.0001512
2194	0.0001512
2206	0.0001584
2218	0.0001458
2230	0.0001404
2242	0.000135
2254	0.0001026
2266	0.0001026
2278	9.54e-05
2290	0.000108
2302	9e-05
2314	0.0001008
2326	0.0001062
2338	8.64e-05
2350	9.9e-05
2362	0.0001044
2374	0.0001116
2386	0.0001296
2398	0.0001602
2410	0.0001368
2422	0.000135
2434	0.0001548
2446	0.0001404
2458	0.0001332
2470	0.0001314
2482	0.0001224
2494	0.0001494
2506	0.0001512
2518	0.0001458
2530	0.0001638
2542	0.0001512
2554	0.0001692
2566	0.0001872
2578	0.0001998
2590	0.0001926
2602	0.000207
2614	0.0002214
2626	0.0002556
2638	0.0002502
2650	0.000252
2662	0.000252
2674	0.0002466
2686	0.000315
2698	0.0002898
2710	0.0003042
2722	0.0003816
2734	0.0004608
2746	0.0004788
2758	0.0004572
2770	0.000459
2782	0.0005094
2794	0.0005796
2806	0.0007326
2818	0.0009378
2830	0.0012492
2842	0.0021114
2854	0.0031734
2866	0.0041994
2878	0.0064116
2890	0.007209
2902	0.0073062
2914	0.007308
2926	0.0081126
2938	0.0106434
2950	0.0124056
2962	0.0174672
2974	0.0137322
2986	0.0048438
2998	0.002178
3010	0.0014616
3022	0.0011574
3034	0.0009396
3046	0.00081
3058	0.0006426
3070	0.0006138
3082	0.00054
3094	0.0004932
3106	0.0005004
3118	0.000441
3130	0.0004482
3142	0.0003996
3154	0.000387
3166	0.0003996
3178	0.0003762
3190	0.0003834
3202	0.0003744
3214	0.0003366
3226	0.0003024
3238	0.0003258
3250	0.000315
3262	0.0002862
3274	0.0002952
3286	0.0002952
3298	0.0003204
3310	0.0002988
3322	0.0002952
3334	0.0002556
3346	0.000324
3358	0.0003024
3370	0.0002898
3382	0.0002844
3394	0.0002988
3406	0.0003744
3418	0.0003096
3430	0.000351
3442	0.0002826
3454	0.00036
3466	0.000324
3478	0.0003168
3490	0.0003186
3502	0.0002088
3514	0.0003258
3526	0.0001728
3538	0.0003222
3550	0.0002232
3562	0.0002466
3574	0.0003438
3586	0.0001458
3598	0.0002898
3610	9.9e-05
3622	0.0002394
3634	0.000288
3646	0.0002322
3658	0.0003456
3670	0.0002016
3682	0.0003834
3694	0.0004086
3706	0.0003636
3718	0.0003474
3730	0.0002628
3742	0.0001638
3754	0.0003204
3766	0.0003996
3778	0.0004536
3790	0.0004752
3802	0.0003618
3814	0.0003978
3826	0.0004536
3838	0.0003024
