Infrared Spectrum: 2,4-Dimethyl-3-ethylpentane
Formula: C 9 H 20
CAS: 1068-87-7
State: gas
Instrument: HP-GC/MS/IRD
Origin: NIST Mass Spectrometry Data Center
1/CM	ABSORBANCE
550	0.0010659
562	0.0003575
574	0.0002717
586	0.0003234
598	0.0002024
610	0.00022
622	0.0001584
634	0.0001892
646	0.0002651
658	0.000363
670	0.0001936
682	0.0001254
694	0.0001837
706	0.0002387
718	0.000308
730	0.0002596
742	0.0001837
754	0.0002244
766	0.0002464
778	0.0001925
790	0.000242
802	0.0002596
814	0.0002508
826	0.0002651
838	0.0003388
850	0.0002332
862	0.0002343
874	0.0002233
886	0.0001848
898	0.0002794
910	0.0002882
922	0.0003971
934	0.0004048
946	0.0004059
958	0.0003531
970	0.0003069
982	0.0002563
994	0.0002585
1006	0.0002717
1018	0.0003333
1030	0.0003993
1042	0.0005016
1054	0.00055
1066	0.0006083
1078	0.0006105
1090	0.0006358
1102	0.0006842
1114	0.0007546
1126	0.0008283
1138	0.0007975
1150	0.0007491
1162	0.0007733
1174	0.0007865
1186	0.0007524
1198	0.0006655
1210	0.000594
1222	0.000627
1234	0.0006996
1246	0.0006941
1258	0.0006952
1270	0.0006589
1282	0.0006765
1294	0.0006677
1306	0.0007392
1318	0.000737
1330	0.0008569
1342	0.0006116
1354	0.0009141
1366	0.0012177
1378	0.0016918
1390	0.0016753
1402	0.0011099
1414	0.0006897
1426	0.0007535
1438	0.0006435
1450	0.0011539
1462	0.0015246
1474	0.0014674
1486	0.001177
1498	0.0007315
1510	0.0001452
1522	0.0002068
1534	0.0004565
1546	0.0003091
1558	0.0001309
1570	0.0006292
1582	0.0007436
1594	0.0007227
1606	0.0006864
1618	0.000528
1630	0.0006017
1642	0.000484
1654	0.0001078
1666	0.000407
1678	0.0003146
1690	0.0003696
1702	8.69e-05
1714	0.0001848
1726	0.0004642
1738	0.0002486
1750	0.0001474
1762	0.000352
1774	0.0003234
1786	0.0003278
1798	0.0003102
1810	0.0004301
1822	0.0003894
1834	0.0004257
1846	0.0002739
1858	0.0004488
1870	0.0003443
1882	0.0004565
1894	0.0004224
1906	0.0004444
1918	0.0003465
1930	0.00044
1942	0.000352
1954	0.0004257
1966	0.0003927
1978	0.0004257
1990	0.0003663
2002	0.0004191
2014	0.0003784
2026	0.0004026
2038	0.0003718
2050	0.0003894
2062	0.0003465
2074	0.0003608
2086	0.0003509
2098	0.000363
2110	0.0003465
2122	0.0003399
2134	0.0003322
2146	0.0003146
2158	0.0003267
2170	0.0003179
2182	0.0003179
2194	0.0003003
2206	0.0002959
2218	0.0002761
2230	0.0002783
2242	0.0002728
2254	0.0002662
2266	0.0002618
2278	0.0002387
2290	0.0002244
2302	0.0001617
2314	0.0001232
2326	0.0001034
2338	0.0001122
2350	0.0001353
2362	7.15e-05
2374	0.0001375
2386	0.0002244
2398	0.0002728
2410	0.000253
2422	0.0002519
2434	0.0002915
2446	0.000286
2458	0.0002662
2470	0.0002618
2482	0.0002706
2494	0.0002717
2506	0.0002882
2518	0.0002849
2530	0.0002794
2542	0.0003025
2554	0.0003036
2566	0.000297
2578	0.0003234
2590	0.0003586
2602	0.0003597
2614	0.0003784
2626	0.0003817
2638	0.0003795
2650	0.000374
2662	0.000363
2674	0.0003652
2686	0.0003762
2698	0.0004213
2710	0.0004059
2722	0.0004367
2734	0.0005104
2746	0.0004807
2758	0.0004906
2770	0.000484
2782	0.0004939
2794	0.0005137
2806	0.000561
2818	0.0006699
2830	0.0007975
2842	0.0010714
2854	0.0016346
2866	0.0026015
2878	0.0041712
2890	0.0046376
2902	0.0040436
2914	0.0040227
2926	0.004807
2938	0.0061435
2950	0.0077264
2962	0.0106711
2974	0.0093104
2986	0.0049137
2998	0.0023738
3010	0.0013728
3022	0.0009394
3034	0.0007909
3046	0.000715
3058	0.0006402
3070	0.0005984
3082	0.0005676
3094	0.0005104
3106	0.0005434
3118	0.0005093
3130	0.0005005
3142	0.0004873
3154	0.0004477
3166	0.0004543
3178	0.0004609
3190	0.000451
3202	0.0004675
3214	0.0004092
3226	0.0004136
3238	0.0004004
3250	0.0004081
3262	0.0003542
3274	0.0003927
3286	0.0003894
3298	0.0004268
3310	0.0003806
3322	0.0003795
3334	0.000396
3346	0.0004004
3358	0.0004048
3370	0.0004235
3382	0.00044
3394	0.0004279
3406	0.000473
3418	0.0004543
3430	0.0004477
3442	0.0004389
3454	0.0005082
3466	0.0004576
3478	0.0004598
3490	0.0004917
3502	0.0003509
3514	0.0004752
3526	0.0003487
3538	0.0005192
3550	0.0004224
3562	0.0003487
3574	0.0004939
3586	0.0002222
3598	0.0004015
3610	0.0002189
3622	0.0004048
3634	0.0004576
3646	0.0002849
3658	0.000484
3670	0.0003036
3682	0.0005236
3694	0.0004906
3706	0.0004895
3718	0.000495
3730	0.0003619
3742	0.0002002
3754	0.0003773
3766	0.0005962
3778	0.0006578
3790	0.0006754
3802	0.0005104
3814	0.000594
3826	0.0006039
3838	0.0003938
