Infrared Spectrum: Diethyl phosphoroamidate
Formula: C 4 H 12 N O 3 P
CAS: 1068-21-9
State: gas
Origin: EPA-IR VAPOR PHASE LIBRARY
1/CM	ABSORBANCE
501.5	0.00789
513.074	0.00867
524.648	0.00795
536.222	0.00634
547.796	0.00447
559.37	0.00335
570.944	0.00287
582.518	0.00263
594.092	0.00241
605.666	0.00238
617.24	0.00227
628.814	0.00215
640.388	0.00204
651.962	0.00198
663.536	0.00198
675.11	0.00198
686.684	0.00212
698.258	0.00225
709.832	0.00262
721.406	0.00352
732.98	0.00477
744.554	0.00546
756.128	0.00511
767.702	0.00558
779.276	0.00771
790.85	0.00954
802.423	0.00879
813.997	0.00659
825.571	0.00475
837.145	0.00385
848.719	0.00386
860.293	0.00465
871.867	0.007
883.441	0.01168
895.015	0.015
906.589	0.01244
918.163	0.00978
929.737	0.01353
941.311	0.0246
952.885	0.03552
964.459	0.03466
976.033	0.02467
987.607	0.01505
999.181	0.01163
1010.76	0.01524
1022.33	0.03087
1033.9	0.05708
1045.48	0.06307
1057.05	0.04439
1068.63	0.03256
1080.2	0.02395
1091.77	0.01763
1103.35	0.01413
1114.92	0.01
1126.49	0.00748
1138.07	0.00653
1149.64	0.00595
1161.22	0.00544
1172.79	0.00482
1184.36	0.00374
1195.94	0.00258
1207.51	0.00184
1219.09	0.00181
1230.66	0.00207
1242.23	0.00277
1253.81	0.00458
1265.38	0.00989
1276.96	0.02164
1288.53	0.03035
1300.1	0.02232
1311.68	0.01115
1323.25	0.00514
1334.83	0.00281
1346.4	0.00206
1357.97	0.0022
1369.55	0.00296
1381.12	0.00368
1392.7	0.00473
1404.27	0.00388
1415.84	0.00218
1427.42	0.0018
1438.99	0.00185
1450.57	0.00182
1462.14	0.0017
1473.71	0.00158
1485.29	0.00147
1496.86	0.00133
1508.44	0.00128
1520.01	0.00154
1531.58	0.00266
1543.16	0.00614
1554.73	0.00958
1566.31	0.00706
1577.88	0.00284
1589.45	0.00127
1601.03	0.0007422
1612.6	0.0005591
1624.18	0.0004588
1635.75	0.0003941
1647.32	0.0003707
1658.9	0.0003722
1670.47	0.0003865
1682.05	0.0004096
1693.62	0.0003904
1705.19	0.0003789
1716.77	0.0003754
1728.34	0.0003765
1739.92	0.0004102
1751.49	0.0005041
1763.06	0.0006245
1774.64	0.0006976
1786.21	0.0006761
1797.79	0.0005965
1809.36	0.0005311
1820.93	0.0005014
1832.51	0.0005052
1844.08	0.0005678
1855.66	0.0005996
1867.23	0.0005833
1878.8	0.0005344
1890.38	0.0004593
1901.95	0.0003626
1913.53	0.0003026
1925.1	0.0002433
1936.67	0.0002369
1948.25	0.0002082
1959.82	0.0001589
1971.4	0.0001395
1982.97	0.0001339
1994.54	0.0001059
2006.12	8.583e-05
2017.69	9.554e-05
2029.27	9.268e-05
2040.84	6.819e-05
2052.41	8.854e-05
2063.99	8.561e-05
2075.56	7.486e-05
2087.14	8.368e-05
2098.71	0.0001112
2110.28	6.686e-05
2121.86	8.706e-05
2133.43	0.0001093
2145.01	8.058e-05
2156.58	8.114e-05
2168.15	9.553e-05
2179.73	0.0001027
2191.3	8.675e-05
2202.88	6.397e-05
2214.45	8.072e-05
2226.02	8.046e-05
2237.6	9.807e-05
2249.17	0.0001057
2260.74	9.253e-05
2272.32	0.0001019
2283.89	7.171e-05
2295.47	0.0001016
2307.04	9.379e-05
2318.61	0.0001035
2330.19	0.0001421
2341.76	0.0001105
2353.34	8.735e-05
2364.91	8.468e-05
2376.48	6.551e-05
2388.06	5.904e-05
2399.63	7.346e-05
2411.21	8.675e-05
2422.78	0.0001269
2434.35	0.0001395
2445.93	0.0002211
2457.5	0.0001807
2469.08	0.0001559
2480.65	0.0001369
2492.22	0.0001366
2503.8	0.0001433
2515.37	0.0001159
2526.95	0.0001673
2538.52	0.0001717
2550.09	0.0001691
2561.67	0.0001407
2573.24	0.0001123
2584.82	0.0001159
2596.39	0.0001108
2607.96	0.0001015
2619.54	9.361e-05
2631.11	9.83e-05
2642.69	0.0001153
2654.26	0.0001165
2665.83	0.0001199
2677.41	0.0001386
2688.98	0.00012
2700.56	0.0001488
2712.13	0.0001827
2723.7	0.0002506
2735.28	0.0003354
2746.85	0.0003621
2758.43	0.0003886
2770	0.0004557
2781.57	0.0005155
2793.15	0.0005018
2804.72	0.0004941
2816.3	0.0005457
2827.87	0.0006536
2839.44	0.0007823
2851.02	0.00104
2862.59	0.0015
2874.17	0.00236
2885.74	0.00321
2897.31	0.00392
2908.89	0.00507
2920.46	0.00571
2932.04	0.00728
2943.61	0.00864
2955.18	0.00774
2966.76	0.00822
2978.33	0.01163
2989.91	0.01295
3001.48	0.00911
3013.05	0.00543
3024.63	0.00329
3036.2	0.00188
3047.78	0.00119
3059.35	0.0008212
3070.92	0.0006371
3082.5	0.000541
3094.07	0.000515
3105.65	0.000488
3117.22	0.0004345
3128.79	0.0004223
3140.37	0.0003689
3151.94	0.0003927
3163.52	0.0003445
3175.09	0.0002993
3186.66	0.0003344
3198.24	0.0002756
3209.81	0.0002694
3221.39	0.0003094
3232.96	0.000249
3244.53	0.000274
3256.11	0.0002275
3267.68	0.0002245
3279.26	0.0001858
3290.83	0.0002595
3302.4	0.0002777
3313.98	0.0003106
3325.55	0.0002758
3337.13	0.0002818
3348.7	0.0002734
3360.27	0.0003581
3371.85	0.0005083
3383.42	0.0007142
3395	0.00149
3406.57	0.00324
3418.14	0.00494
3429.72	0.00393
3441.29	0.00175
3452.86	0.00101
3464.44	0.0008579
3476.01	0.000968
3487.59	0.00144
3499.16	0.00217
3510.73	0.00309
3522.31	0.00281
3533.88	0.00171
3545.46	0.0008921
3557.03	0.0006089
3568.6	0.0005106
3580.18	0.0003842
3591.75	0.0003361
3603.33	0.0002254
3614.9	0.0002542
3626.47	0.0002601
3638.05	0.0002387
3649.62	0.0002054
3661.2	0.0002694
3672.77	0.0002075
3684.34	0.0002615
3695.92	0.0002021
3707.49	0.0001994
3719.07	0.000196
3730.64	0.000209
3742.21	0.0001929
3753.79	0.0001576
3765.36	0.0002234
3776.94	0.0001711
3788.51	0.0001888
3800.08	0.0001991
3811.66	0.0001732
3823.23	0.0001123
3834.81	0.0001597
3846.38	0.0002324
3857.95	0.000178
3869.53	0.000223
3881.1	0.0001502
3892.68	0.0002606
3904.25	0.0002223
3915.82	0.0001909
3927.4	0.0002357
3938.97	0.0001933
3950.55	0.000182
3962.12	0.0002477
3973.69	0.0002598
3985.27	0.0002819
3996.84	0.0002542
