Infrared Spectrum: 2,3,5-Trimethylhexane
Formula: C 9 H 20
CAS: 1069-53-0
State: gas
Instrument: HP-GC/MS/IRD
Origin: NIST Mass Spectrometry Data Center
1/CM	ABSORBANCE
550	0.000623
562	0.000343
574	0.000378
586	0.0002695
598	0.0002555
610	0.0001295
622	0.0001365
634	0.000119
646	0.000161
658	0.0001575
670	0.0001015
682	6.65e-05
694	1.75e-05
706	0
718	0.000105
730	0.0001085
742	3.15e-05
754	0.000105
766	3.5e-05
778	9.45e-05
790	0.0001225
802	0.000133
814	0.000119
826	7.7e-05
838	0.0001785
850	9.8e-05
862	9.1e-05
874	0.000119
886	0.00014
898	0.0001085
910	0.000126
922	0.0002555
934	0.000182
946	0.0002205
958	0.0003395
970	0.000378
982	0.0002905
994	0.000259
1006	0.0002835
1018	0.0002835
1030	0.0003045
1042	0.00028
1054	0.000336
1066	0.00035
1078	0.0003885
1090	0.0003395
1102	0.0003535
1114	0.000644
1126	0.001015
1138	0.0010535
1150	0.000924
1162	0.0009275
1174	0.0007245
1186	0.000413
1198	0.000301
1210	0.000231
1222	0.000266
1234	0.00028
1246	0.000294
1258	0.0003325
1270	0.0003325
1282	0.0003395
1294	0.0004095
1306	0.000511
1318	0.000567
1330	0.0007385
1342	0.000917
1354	0.0014315
1366	0.0029295
1378	0.004242
1390	0.00378
1402	0.001715
1414	0.0007315
1426	0.000707
1438	0.0011935
1450	0.002317
1462	0.003724
1474	0.0035245
1486	0.001862
1498	0.000777
1510	0.0004305
1522	0.000287
1534	0.000224
1546	0.0001785
1558	0.000154
1570	0.0001855
1582	0.000168
1594	0.000147
1606	0.0001505
1618	0.0001225
1630	0.00014
1642	0.000147
1654	0.0001645
1666	0.0001715
1678	0.000133
1690	0.0001365
1702	0.0001155
1714	0.0001365
1726	9.45e-05
1738	7e-05
1750	7.35e-05
1762	6.65e-05
1774	9.1e-05
1786	5.25e-05
1798	4.9e-05
1810	4.9e-05
1822	2.45e-05
1834	7e-05
1846	5.95e-05
1858	6.3e-05
1870	3.85e-05
1882	4.55e-05
1894	5.6e-05
1906	4.2e-05
1918	3.15e-05
1930	3.85e-05
1942	3.5e-05
1954	5.25e-05
1966	1.4e-05
1978	5.95e-05
1990	5.6e-05
2002	4.2e-05
2014	3.5e-05
2026	5.6e-05
2038	2.8e-05
2050	3.5e-05
2062	3.15e-05
2074	3.15e-05
2086	4.2e-05
2098	1.4e-05
2110	4.2e-05
2122	2.45e-05
2134	1.4e-05
2146	4.2e-05
2158	1.75e-05
2170	3.15e-05
2182	4.2e-05
2194	4.2e-05
2206	1.4e-05
2218	0
2230	3.5e-05
2242	1.75e-05
2254	1.75e-05
2266	4.9e-05
2278	4.9e-05
2290	3.85e-05
2302	3.5e-05
2314	3.15e-05
2326	4.2e-05
2338	1.75e-05
2350	3.5e-05
2362	3.15e-05
2374	7e-05
2386	5.6e-05
2398	6.3e-05
2410	3.85e-05
2422	2.1e-05
2434	2.1e-05
2446	2.1e-05
2458	5.25e-05
2470	1.4e-05
2482	3.85e-05
2494	2.8e-05
2506	2.8e-05
2518	2.8e-05
2530	6.65e-05
2542	7.35e-05
2554	0.0001015
2566	0.0001085
2578	0.000175
2590	0.000224
2602	0.0002485
2614	0.000224
2626	0.0002345
2638	0.0002485
2650	0.000252
2662	0.0001995
2674	0.0002485
2686	0.0002485
2698	0.0002625
2710	0.0003325
2722	0.0004445
2734	0.00056
2746	0.0005355
2758	0.0004935
2770	0.000546
2782	0.0005775
2794	0.0006965
2806	0.0008715
2818	0.001148
2830	0.0015435
2842	0.0023485
2854	0.003724
2866	0.0067585
2878	0.01183
2890	0.0130725
2902	0.0131355
2914	0.014721
2926	0.0155365
2938	0.0165865
2950	0.0213815
2962	0.0343735
2974	0.0269045
2986	0.0100345
2998	0.0038115
3010	0.001946
3022	0.0012705
3034	0.0009905
3046	0.000812
3058	0.000693
3070	0.00063
3082	0.0005705
3094	0.000553
3106	0.0005215
3118	0.0004655
3130	0.000427
3142	0.000427
3154	0.0003885
3166	0.0004095
3178	0.000413
3190	0.0004095
3202	0.000322
3214	0.0001785
3226	0.0001085
3238	8.75e-05
3250	7.7e-05
3262	7.35e-05
3274	8.75e-05
3286	3.85e-05
3298	5.6e-05
3310	5.95e-05
3322	6.65e-05
3334	4.2e-05
3346	2.8e-05
3358	9.45e-05
3370	9.8e-05
3382	5.25e-05
3394	7.7e-05
3406	4.2e-05
3418	7.7e-05
3430	3.5e-05
3442	4.2e-05
3454	2.45e-05
3466	7e-05
3478	1.75e-05
3490	4.9e-05
3502	0
3514	5.95e-05
3526	6.3e-05
3538	1.75e-05
3550	3.15e-05
3562	6.3e-05
3574	4.55e-05
3586	3.5e-05
3598	7e-06
3610	4.2e-05
3622	4.9e-05
3634	5.25e-05
3646	8.05e-05
3658	7.7e-05
3670	0.000112
3682	0.000112
3694	0.000112
3706	0.000119
3718	5.6e-05
3730	9.8e-05
3742	9.45e-05
3754	6.65e-05
3766	0.0001505
3778	9.8e-05
3790	0.00014
3802	0.0001155
3814	9.8e-05
3826	0.0001365
3838	0.0001505
