Infrared Spectrum: ACETIC ACID, CHLORO-, TERT-BUTYL ESTER
Formula: C6 H11 Cl O2
CAS: 107-59-5
State: SOLUTION (10% CCl4 FOR 3800-1330, 10% CS2 FOR 1330-400 CM^-^1)
Boiling point: 48 C AT 11 mmHg
Class: COBLENTZ III
Instrument: DOW KBr FOREPRISM-GRATING
Instrument parameters: BLAZED AT 3.5, 12.0, 20.0 MICRON AND CHANGED AT 5.0, 7.5, 14.9 MICRON
Sampling: TRANSMISSION
Path length: 0.010 CM, 0.011 CM
Resolution: 2
Origin: DOW CHEMICAL COMPANY
1/CM	TRANSMITTANCE
384	0.4278
393	0.4343
402	0.4677
411	0.6484
420	0.7107
429	0.7583
438	0.7871
447	0.7838
456	0.7676
465	0.7617
474	0.8388
483	0.9045
492	0.9342
501	0.947
510	0.9583
519	0.9691
528	0.9756
537	0.9782
546	0.9741
555	0.9589
564	0.8982
573	0.8008
582	0.8349
591	0.8524
600	0.9378
609	0.9625
618	0.9718
627	0.9582
636	0.9381
645	0.9028
654	0.8699
663	0.8875
672	0.8653
681	0.8238
690	0.8094
699	0.8753
708	0.9399
717	0.942
726	0.9
735	0.7876
744	0.8975
753	0.8752
762	0.6346
771	0.6832
780	0.8775
789	0.78
798	0.6808
807	0.7675
816	0.8955
825	0.8942
834	0.7428
843	0.4562
852	0.2033
861	0.6138
870	0.8267
879	0.9025
888	0.9596
897	0.9855
906	0.9678
915	0.869
924	0.7372
933	0.6899
942	0.4386
951	0.3338
960	0.7798
969	0.9684
978	0.99
987	1.0028
996	1.0061
1005	1.0052
1014	0.9999
1023	0.976
1032	0.9178
1041	0.9573
1050	0.9815
1059	0.9841
1068	0.9814
1077	0.9668
1086	0.9453
1095	0.8964
1104	0.7628
1113	0.6178
1122	0.371
1131	0.0811
1140	0.0112
1149	0.0049
1158	0.0124
1167	0.039
1176	0.0955
1185	0.3011
1194	0.4565
1203	0.3259
1212	0.1879
1221	0.5079
1230	0.5842
1239	0.471
1248	0.286
1257	0.2034
1266	0.4301
1275	0.5947
1284	0.525
1293	0.2771
1302	0.0439
1311	0.016
1320	0.1829
1329	0.644
1338	0.8563
1347	0.8636
1356	0.8353
1365	0.4873
1374	0.3673
1383	0.7508
1392	0.5433
1401	0.8252
1410	0.6259
1419	0.6445
1428	0.7307
1437	0.8635
1446	0.799
1455	0.529
1464	0.7205
1473	0.6665
1482	0.6992
1491	0.8211
1500	0.8254
1509	0.796
1518	0.7436
1527	0.6831
1536	0.6166
1545	0.5576
1554	0.5553
1563	0.6287
1572	0.7042
1581	0.7246
1590	0.7965
1599	0.8673
1608	0.9268
1617	0.9527
1626	0.9646
1635	0.9661
1644	0.9657
1653	0.9664
1662	0.9625
1671	0.9408
1680	0.9098
1689	0.8775
1698	0.8157
1707	0.669
1716	0.3254
1725	0.0983
1734	0.0434
1743	0.0675
1752	0.0303
1761	0.0247
1770	0.4456
1779	0.7017
1788	0.8696
1797	0.9243
1806	0.9628
1815	0.9708
1824	0.974
1833	0.975
1842	0.9748
1851	0.974
1860	0.9721
1869	0.9704
1878	0.9675
1887	0.967
1896	0.9744
1905	0.9874
1914	0.9971
1923	0.9995
1932	0.9988
1941	0.9986
1950	0.9995
1959	1.0113
1968	0.9971
1977	0.9944
1986	0.99
1995	0.977
2004	0.9748
2013	0.9778
2022	0.9832
2031	0.9855
2040	0.9847
2049	0.9825
2058	0.9795
2067	0.9785
2076	0.9813
2085	0.9831
2094	0.9848
2103	0.9873
2112	0.989
2121	0.9887
2130	0.9871
2139	0.9855
2148	0.9839
2157	0.9825
2166	0.9816
2175	0.9833
2184	0.9857
2193	0.9864
2202	0.9859
2211	0.9849
2220	0.9844
2229	0.9835
2238	0.9821
2247	0.9791
2256	0.9778
2265	0.9778
2274	0.9757
2283	0.9666
2292	0.9602
2301	0.9656
2310	0.9798
2319	0.9846
2328	0.9823
2337	0.9797
2346	0.9833
2355	0.9851
2364	0.9871
2373	0.989
2382	0.9911
2391	0.9916
2400	0.9904
2409	0.9901
2418	0.9936
2427	0.9973
2436	0.9973
2445	0.9974
2454	0.9977
2463	0.9983
2472	0.9985
2481	0.9983
2490	0.9982
2499	0.9978
2508	0.9975
2517	0.9974
2526	0.9971
2535	0.9971
2544	0.9968
2553	0.9968
2562	0.9971
2571	0.9971
2580	0.9971
2589	0.9957
2598	0.9934
2607	0.9898
2616	0.9907
2625	0.9928
2634	0.9946
2643	0.9948
2652	0.995
2661	0.9949
2670	0.9946
2679	0.9903
2688	0.9903
2697	0.9888
2706	0.9868
2715	0.985
2724	0.986
2733	0.9916
2742	0.9954
2751	0.9939
2760	0.9925
2769	0.9905
2778	0.988
2787	0.9847
2796	0.9807
2805	0.9706
2814	0.9555
2823	0.9658
2832	0.9691
2841	0.945
2850	0.9225
2859	0.8978
2868	0.8624
2877	0.8206
2886	0.8262
2895	0.8289
2904	0.7265
2913	0.7353
2922	0.698
2931	0.615
2940	0.5724
2949	0.626
2958	0.5872
2967	0.4992
2976	0.3516
2985	0.1968
2994	0.3749
3003	0.616
3012	0.5943
3021	0.8527
3030	0.9291
3039	0.9574
3048	0.9678
3057	0.9739
3066	0.9782
3075	0.9805
3084	0.982
3093	0.9831
3102	0.9842
3111	0.9849
3120	0.9857
3129	0.9858
3138	0.9857
3147	0.9854
3156	0.9843
3165	0.983
3174	0.9816
3183	0.9801
3192	0.9793
3201	0.9787
3210	0.9786
3219	0.9786
3228	0.9785
3237	0.9793
3246	0.9807
3255	0.9821
3264	0.9838
3273	0.985
3282	0.9854
3291	0.9857
3300	0.9855
3309	0.9853
3318	0.9852
3327	0.9851
3336	0.985
3345	0.9849
3354	0.9848
3363	0.9847
3372	0.9846
3381	0.9843
3390	0.9841
3399	0.9833
3408	0.982
3417	0.9784
3426	0.9732
3435	0.9678
3444	0.9693
3453	0.9718
3462	0.9744
3471	0.9756
3480	0.9762
3489	0.9737
3498	0.9708
3507	0.9728
3516	0.9807
3525	0.9883
3534	0.9921
3543	0.9933
3552	0.9931
3561	0.992
3570	0.9898
3579	0.9753
3588	0.9798
3597	0.997
3606	0.9918
3615	0.9955
3624	1.0001
3633	1.0012
3642	1.002
3651	1.0023
3660	1.0023
3669	1.0012
3678	0.9999
3687	0.9987
3696	0.9978
3705	0.9993
3714	1.0011
3723	1.0023
3732	1.0028
3741	1.0031
3750	1.0033
3759	1.0036
3768	1.004
3777	1.0034
3786	1.0021
3795	1.0009
