Infrared Spectrum: Glyoxal solution
Formula: C 2 H 2 O 2
CAS: 107-22-2
State: liquid
Instrument: Bruker Tensor 27 FTIR
Resolution: 0.4821395
Origin: Pacific Northwest National Laboratory Under IARPA Contract
1/cm	dispersion index
7797.62	1.38643
7779.3	1.38638
7760.98	1.38633
7742.66	1.38628
7724.34	1.38623
7706.02	1.38617
7687.7	1.38612
7669.38	1.38606
7651.06	1.386
7632.74	1.38594
7614.42	1.38588
7596.1	1.38582
7577.78	1.38575
7559.45	1.38568
7541.13	1.38561
7522.81	1.38553
7504.49	1.38545
7486.17	1.38537
7467.85	1.3853
7449.53	1.38523
7431.21	1.38517
7412.89	1.38512
7394.57	1.38507
7376.25	1.38502
7357.93	1.38497
7339.61	1.38492
7321.29	1.38487
7302.96	1.38481
7284.64	1.38475
7266.32	1.38468
7248	1.3846
7229.68	1.38452
7211.36	1.38443
7193.04	1.38434
7174.72	1.38425
7156.4	1.38415
7138.08	1.38405
7119.76	1.38394
7101.44	1.38384
7083.12	1.38373
7064.8	1.38362
7046.47	1.3835
7028.15	1.38338
7009.83	1.38326
6991.51	1.38313
6973.19	1.383
6954.87	1.38286
6936.55	1.38272
6918.23	1.38258
6899.91	1.38243
6881.59	1.38228
6863.27	1.38212
6844.95	1.38196
6826.63	1.38179
6808.31	1.38162
6789.99	1.38144
6771.66	1.38125
6753.34	1.38106
6735.02	1.38087
6716.7	1.38067
6698.38	1.38046
6680.06	1.38024
6661.74	1.38
6643.42	1.37975
6625.1	1.37947
6606.78	1.37917
6588.46	1.37883
6570.14	1.37846
6551.82	1.37807
6533.5	1.37765
6515.17	1.37753
6496.85	1.37765
6478.53	1.37775
6460.21	1.37766
6441.89	1.37746
6423.57	1.37717
6405.25	1.37682
6386.93	1.37643
6368.61	1.37601
6350.29	1.37558
6331.97	1.37513
6313.65	1.37467
6295.33	1.37419
6277.01	1.3737
6258.69	1.37319
6240.36	1.37264
6222.04	1.37206
6203.72	1.37144
6185.4	1.37076
6167.08	1.37004
6148.76	1.36926
6130.44	1.36843
6112.12	1.36754
6093.8	1.3666
6075.48	1.36561
6057.16	1.36455
6038.84	1.36337
6020.52	1.36207
6002.2	1.36064
5983.87	1.35905
5965.55	1.35733
5947.23	1.35545
5928.91	1.35339
5910.59	1.35112
5892.27	1.34857
5873.95	1.34565
5855.63	1.34215
5837.31	1.33784
5818.99	1.33253
5800.67	1.32591
5782.35	1.31735
5764.03	1.30555
5745.71	1.28756
5727.38	1.26315
5709.06	1.25708
5690.74	1.25888
5672.42	1.27127
5654.1	1.28965
5635.78	1.31182
5617.46	1.33876
5599.14	1.36884
5580.82	1.39554
5562.5	1.41495
5544.18	1.43032
5525.86	1.44728
5507.54	1.46498
5489.22	1.47821
5470.9	1.48465
5452.57	1.48588
5434.25	1.48386
5415.93	1.47696
5397.61	1.46988
5379.29	1.46522
5360.97	1.46119
5342.65	1.45748
5324.33	1.454
5306.01	1.45067
5287.69	1.4475
5269.37	1.44448
5251.05	1.4416
5232.73	1.43884
5214.41	1.43617
5196.08	1.43352
5177.76	1.43054
5159.44	1.42747
5141.12	1.4245
5122.8	1.42171
5104.48	1.41915
5086.16	1.4168
5067.84	1.41473
5049.52	1.41294
5031.2	1.41143
5012.88	1.41018
4994.56	1.40915
4976.24	1.4083
4957.92	1.40756
4939.59	1.40686
4921.27	1.40611
4902.95	1.4052
4884.63	1.40402
4866.31	1.40243
4847.99	1.40028
4829.67	1.39743
4811.35	1.39365
4793.03	1.38864
4774.71	1.38125
4756.39	1.36872
4738.07	1.35961
4719.75	1.39841
4701.43	1.43152
4683.11	1.41708
4664.78	1.40238
4646.46	1.38633
4628.14	1.38513
4609.82	1.39246
4591.5	1.39422
4573.18	1.38709
4554.86	1.38282
4536.54	1.38367
4518.22	1.3819
4499.9	1.34631
4481.58	1.31827
4463.26	1.30743
4444.94	1.31322
4426.62	1.48796
4408.29	1.48207
4389.97	1.52311
4371.65	1.51438
4353.33	1.48678
4335.01	1.46197
4316.69	1.44184
4298.37	1.44606
4280.05	1.45021
4261.73	1.44822
4243.41	1.44295
4225.09	1.42753
4206.77	1.44085
4188.45	1.42933
4170.13	1.41434
4151.8	1.4066
4133.48	2.15663e-06
4115.16	5.99029e-06
4096.84	1.05106e-05
4078.52	1.36701e-05
4060.2	1.56305e-05
4041.88	1.75909e-05
4023.56	1.95513e-05
4005.24	2.13483e-05
3986.92	2.30923e-05
3968.6	2.51617e-05
3950.28	2.78291e-05
3931.96	3.18605e-05
3913.64	3.94842e-05
3895.32	5.60957e-05
3876.99	8.98605e-05
3858.67	0.000151946
3840.35	0.000252699
3822.03	0.00039212
3803.71	0.000560951
3785.39	0.000729779
3767.07	0.000887716
3748.75	0.00100753
3730.43	0.00108922
3712.11	0.00112735
3693.79	0.00113824
3675.47	0.0011219
3657.15	0.00107833
3638.83	0.00101842
3620.5	0.000942178
3602.18	0.000860487
3583.86	0.000773348
3565.54	0.000691656
3547.22	0.000620856
3528.9	0.000555504
3510.58	0.000502131
3492.26	0.000453661
3473.94	0.000409547
3455.62	0.000368702
3437.3	0.000330579
3418.98	0.000294634
3400.66	0.000261413
3382.34	0.000229281
3364.02	0.000198783
3345.69	0.000169374
3327.37	0.000140509
3309.05	0.00011328
3290.73	8.82271e-05
3272.41	6.64428e-05
3254.09	4.93424e-05
3235.77	3.86667e-05
3217.45	3.50728e-05
3199.13	3.75238e-05
3180.81	4.33505e-05
3162.49	5.05398e-05
3144.17	5.88175e-05
3125.85	7.07997e-05
3107.53	8.71371e-05
3089.2	0.0001062
3070.88	0.000123082
3052.56	0.000130162
3034.24	0.00012526
3015.92	0.000108923
2997.6	8.82271e-05
2979.28	7.679e-05
2960.96	0.000108378
2942.64	0.000272307
2924.32	0.000582735
2906	0.00127984
2887.68	0.00275573
2869.36	0.00520649
2851.04	0.00669872
2832.71	0.00669872
2814.39	0.00577288
2796.07	0.0048416
2777.75	0.00395388
2759.43	0.00324044
2741.11	0.00269038
2722.79	0.00229826
2704.47	0.00204774
2686.15	0.0018898
2667.83	0.00179722
2649.51	0.00174276
2631.19	0.0016883
2612.87	0.00159027
2594.55	0.00144322
2576.23	0.00125805
2557.9	0.0010511
2539.58	0.000849594
2521.26	0.000669872
2502.94	0.000536443
2484.62	0.000456384
2466.3	0.000449849
2447.98	0.0005054
2429.66	0.000542978
2411.34	0.000478169
2393.02	0.000331669
2374.7	0.00018898
2356.38	0.000127439
2338.06	0.000215666
2319.74	0.000498865
2301.41	0.000958516
2283.09	0.00148679
2264.77	0.00198239
2246.45	0.00230915
2228.13	0.00217845
2209.81	0.00155214
2191.49	0.000860487
2173.17	0.00078424
2154.85	0.00172097
2136.53	0.00471089
2118.21	0.0104565
2099.89	0.0263047
2081.57	0.120904
2063.25	0.285921
2044.92	0.453661
2026.6	0.615411
2008.28	0.746118
1989.96	0.849594
1971.64	0.92584
1953.32	0.958516
1935	0.936732
1916.68	0.882271
1898.36	0.838702
1880.04	0.800579
1861.72	0.735226
1843.4	0.637196
1825.08	0.531541
1806.76	0.430788
1788.44	0.337659
1770.11	0.261958
1751.79	0.218389
1733.47	0.187346
1715.15	0.159571
1696.83	0.135608
1678.51	0.114368
1660.19	0.0958516
1641.87	0.0800579
1623.55	0.065898
1605.23	0.053263
1586.91	0.042044
1568.59	0.0318053
1550.27	0.0221657
1531.95	0.0124171
1513.62	0.00620857
1495.3	0.00220568
1476.98	0.00031533
1458.66	8.98605e-05
1440.34	0.00111645
1422.02	0.00342016
1403.7	0.00648088
1385.38	0.00985747
1367.06	0.0132341
1348.74	0.0162839
1330.42	0.0186802
1312.1	0.0201506
1293.78	0.0205319
1275.46	0.0196605
1257.14	0.017591
1238.81	0.0144322
1220.49	0.0104565
1202.17	0.00620857
1183.85	0.00237451
1165.53	0.000160115
1147.21	0.000942178
1128.89	0.00702549
1110.57	0.0346373
1092.25	0.157937
1073.93	0.368157
1055.61	0.20314
1037.29	0.0493418
1018.97	0.0163928
1000.65	0.0209131
982.325	0.0985747
964.004	0.13343
945.683	0.0893163
927.362	0.100753
909.042	0.111101
890.721	0.117636
872.4	0.0729779
854.08	0.00789687
835.759	0.227648
817.438	0.398111
799.118	0.947624
780.797	1.19815
762.476	0.626303
744.156	0.486883
725.835	0.324044
707.514	0.0312607
689.193	0.0382862
670.873	0.0330579
652.552	0.110012
634.231	0.120359
615.911	0.0767902
597.59	0.0485249
579.269	0.0355087
560.949	0.190614
542.628	0.0811471
524.307	0.0113824
505.986	0.642642
