Infrared Spectrum: N-t-Butylacrylamide
Formula: C 7 H 13 N O
CAS: 107-58-4
State: gas
Instrument: HP-GC/MS/IRD
Origin: NIST Mass Spectrometry Data Center
1/CM	ABSORBANCE
550	0.0010972
562	0.000988
574	0.0006708
586	0.000624
598	0.0005616
610	0.0003432
622	0.0002444
634	8.84e-05
646	0.0001976
658	0.0004212
670	0.000728
682	0.000624
694	0.0001976
706	5.72e-05
718	7.28e-05
730	9.36e-05
742	0.0002236
754	0.0003484
766	0.000806
778	0.0017784
790	0.0033436
802	0.0036192
814	0.0025064
826	0.0019552
838	0.001976
850	0.0020696
862	0.001976
874	0.001716
886	0.001638
898	0.00169
910	0.0022048
922	0.0039572
934	0.006526
946	0.0066768
958	0.00728
970	0.0083772
982	0.0065208
994	0.0036348
1006	0.002054
1018	0.0015912
1030	0.0015132
1042	0.0015184
1054	0.0019344
1066	0.002288
1078	0.0016848
1090	0.00117
1102	0.0009828
1114	0.001014
1126	0.0010036
1138	0.0011908
1150	0.0017524
1162	0.0032864
1174	0.006864
1186	0.0143156
1198	0.018486
1210	0.0165932
1222	0.0180544
1234	0.01729
1246	0.0164112
1258	0.0128128
1270	0.0096772
1282	0.007826
1294	0.0053924
1306	0.0048724
1318	0.003536
1330	0.0023816
1342	0.0027144
1354	0.005512
1366	0.0105456
1378	0.0102024
1390	0.0105248
1402	0.012376
1414	0.0080028
1426	0.006188
1438	0.010374
1450	0.0198848
1462	0.0223808
1474	0.02314
1486	0.041548
1498	0.0517712
1510	0.0307216
1522	0.0138788
1534	0.0068536
1546	0.0037232
1558	0.0026
1570	0.0022464
1582	0.0022152
1594	0.0025636
1606	0.003848
1618	0.0056992
1630	0.0063076
1642	0.0051376
1654	0.0040196
1666	0.0049504
1678	0.0104676
1690	0.0256984
1702	0.04186
1714	0.0346892
1726	0.0136136
1738	0.0040768
1750	0.0020072
1762	0.0015132
1774	0.0012584
1786	0.0009256
1798	0.0007228
1810	0.0006864
1822	0.00065
1834	0.000598
1846	0.0006084
1858	0.0006916
1870	0.0007748
1882	0.0006708
1894	0.0005252
1906	0.0006604
1918	0.0008632
1930	0.0007228
1942	0.00039
1954	0.0002392
1966	0.0001924
1978	0.0001664
1990	0.0001404
2002	0.0001248
2014	0.0001092
2026	0.0001144
2038	0.0001248
2050	0.0001456
2062	0.0001196
2074	0.0001664
2086	0.0001768
2098	0.0001456
2110	0.0001612
2122	0.000182
2134	0.0001716
2146	0.0001716
2158	0.0001352
2170	0.0001144
2182	5.72e-05
2194	3.64e-05
2206	5.2e-06
2218	1.04e-05
2230	4.16e-05
2242	4.16e-05
2254	5.2e-05
2266	0.0001092
2278	0.0001196
2290	0.000182
2302	0.0001248
2314	0.0001352
2326	0.0001508
2338	0.0001196
2350	0.0001612
2362	0.0001508
2374	0.0001716
2386	0.0001716
2398	0.0001456
2410	0.0001716
2422	0.0001716
2434	0.000104
2446	0.000104
2458	7.8e-05
2470	5.72e-05
2482	5.72e-05
2494	6.24e-05
2506	6.24e-05
2518	2.6e-05
2530	6.24e-05
2542	5.72e-05
2554	8.32e-05
2566	9.88e-05
2578	0.0001352
2590	0.0001352
2602	0.0001248
2614	0.0001092
2626	0.0001352
2638	0.0001456
2650	0.0001924
2662	0.000234
2674	0.0002392
2686	0.0002808
2698	0.0003328
2710	0.000364
2722	0.0003952
2734	0.0003692
2746	0.000312
2758	0.0003016
2770	0.0002808
2782	0.0003328
2794	0.0003588
2806	0.0004108
2818	0.0005616
2830	0.0007748
2842	0.0011076
2854	0.0020124
2866	0.0036608
2878	0.005434
2890	0.0063752
2902	0.007098
2914	0.0085436
2926	0.0106756
2938	0.0118924
2950	0.0133224
2962	0.0196144
2974	0.0255112
2986	0.0184028
2998	0.0084032
3010	0.0054548
3022	0.0036244
3034	0.0023816
3046	0.0014872
3058	0.001326
3070	0.0012376
3082	0.00169
3094	0.0023036
3106	0.0016536
3118	0.0008268
3130	0.0004732
3142	0.0003848
3154	0.0003588
3166	0.0003692
3178	0.0003848
3190	0.0003952
3202	0.0003536
3214	0.000338
3226	0.0003276
3238	0.000312
3250	0.0002756
3262	0.0002236
3274	0.0001404
3286	0.0001092
3298	0.0001768
3310	0.0001768
3322	0.000182
3334	0.000156
3346	0.000156
3358	0.000234
3370	0.0003484
3382	0.000572
3394	0.0007384
3406	0.0008164
3418	0.0008684
3430	0.0014976
3442	0.002704
3454	0.0034164
3466	0.002366
3478	0.0008892
3490	0.0003432
3502	0.0002184
3514	0.0001404
3526	9.88e-05
3538	0.00013
3550	9.36e-05
3562	8.32e-05
3574	0.000182
3586	0.0001092
3598	6.76e-05
3610	6.24e-05
3622	0.00013
3634	5.2e-05
3646	2.6e-05
3658	0.0001144
3670	8.32e-05
3682	0.00013
3694	0.00013
3706	0.0001144
3718	8.32e-05
3730	6.24e-05
3742	6.76e-05
3754	4.68e-05
3766	2.6e-05
3778	7.28e-05
3790	0.000156
3802	9.36e-05
3814	3.64e-05
3826	4.68e-05
3838	8.84e-05
