Infrared Spectrum: 2,4,4-Trimethyl-1-pentene
Formula: C 8 H 16
CAS: 107-39-1
State: gas
Instrument: HP-GC/MS/IRD
Origin: NIST Mass Spectrometry Data Center
1/CM	ABSORBANCE
550	0.0007175
562	0.0007708
574	0.0003649
586	0.0002255
598	0.0002624
610	0.000164
622	8.2e-06
634	6.56e-05
646	4.1e-05
658	6.15e-05
670	0.0001107
682	0.000164
694	1.23e-05
706	0
718	7.79e-05
730	0.0001107
742	0.0002542
754	0.0003075
766	0.0003321
778	0.0001353
790	0.000164
802	0.0001599
814	0.0004182
826	0.0003239
838	0.0004674
850	0.0005699
862	0.000984
874	0.0028044
886	0.0070766
898	0.0089503
910	0.0043829
922	0.001394
934	0.0007052
946	0.0004182
958	0.0002296
970	0.0002911
982	0.0003936
994	0.0004469
1006	0.0004018
1018	0.0003157
1030	0.0003444
1042	0.0003936
1054	0.0002952
1066	0.0002542
1078	0.0001968
1090	0.0001599
1102	0.0001435
1114	0.0001476
1126	0.0002132
1138	0.0002993
1150	0.0004674
1162	0.0005945
1174	0.0008036
1186	0.0013489
1198	0.0017589
1210	0.001558
1222	0.0020582
1234	0.0027019
1246	0.0022837
1258	0.0015703
1270	0.0011521
1282	0.0007339
1294	0.0006191
1306	0.0007339
1318	0.0010373
1330	0.0011726
1342	0.0013366
1354	0.0030955
1366	0.006519
1378	0.0068224
1390	0.0044936
1402	0.0028085
1414	0.0021074
1426	0.0021689
1438	0.0029274
1450	0.004223
1462	0.0056293
1474	0.0062402
1486	0.0046781
1498	0.0021853
1510	0.0009184
1522	0.0005617
1534	0.0004469
1546	0.0004059
1558	0.0004305
1570	0.0005125
1582	0.0005617
1594	0.0006355
1606	0.0008856
1618	0.0015293
1630	0.0027224
1642	0.003362
1654	0.0023698
1666	0.0010127
1678	0.0004141
1690	0.0002501
1702	0.0001886
1714	0.0001353
1726	0.000164
1738	0.0001394
1750	0.0001107
1762	0.0001681
1774	0.0003649
1786	0.0006601
1798	0.0007503
1810	0.0004551
1822	0.0002132
1834	0.0001189
1846	0.0001189
1858	8.61e-05
1870	6.97e-05
1882	6.97e-05
1894	6.15e-05
1906	0.0001025
1918	9.84e-05
1930	0.0001107
1942	6.56e-05
1954	6.56e-05
1966	6.15e-05
1978	2.87e-05
1990	4.1e-05
2002	2.87e-05
2014	5.74e-05
2026	4.51e-05
2038	6.97e-05
2050	5.33e-05
2062	4.92e-05
2074	3.69e-05
2086	4.92e-05
2098	1.64e-05
2110	3.69e-05
2122	5.33e-05
2134	4.51e-05
2146	6.56e-05
2158	4.51e-05
2170	4.1e-06
2182	3.69e-05
2194	3.69e-05
2206	4.51e-05
2218	3.69e-05
2230	5.33e-05
2242	8.2e-06
2254	4.1e-06
2266	3.28e-05
2278	4.1e-05
2290	8.2e-05
2302	9.02e-05
2314	1.64e-05
2326	0
2338	0
2350	0
2362	0
2374	4.1e-06
2386	1.64e-05
2398	2.46e-05
2410	4.92e-05
2422	6.56e-05
2434	8.2e-06
2446	0
2458	3.28e-05
2470	3.69e-05
2482	5.33e-05
2494	4.92e-05
2506	2.87e-05
2518	4.92e-05
2530	8.2e-05
2542	6.97e-05
2554	9.02e-05
2566	8.61e-05
2578	5.33e-05
2590	9.02e-05
2602	9.43e-05
2614	0.000123
2626	0.0001927
2638	0.0002009
2650	0.000205
2662	0.0001968
2674	0.0002419
2686	0.0002501
2698	0.0003034
2710	0.0003936
2722	0.0005658
2734	0.0006478
2746	0.0006355
2758	0.0006273
2770	0.0006027
2782	0.0007052
2794	0.0009102
2806	0.0012628
2818	0.0017671
2830	0.0026855
2842	0.0043255
2854	0.0066871
2866	0.0102664
2878	0.013202
2890	0.0142024
2902	0.0167936
2914	0.0199096
2926	0.0206066
2938	0.022796
2950	0.0326852
2962	0.041
2974	0.0318201
2986	0.0157973
2998	0.0069413
3010	0.0037556
3022	0.0023698
3034	0.0018245
3046	0.0018573
3058	0.0024108
3070	0.004592
3082	0.0053874
3094	0.003075
3106	0.0013202
3118	0.0008774
3130	0.0006478
3142	0.0005207
3154	0.0004469
3166	0.0004428
3178	0.0004551
3190	0.000492
3202	0.000451
3214	0.0003649
3226	0.0004182
3238	0.0003731
3250	0.0002829
3262	0.0002665
3274	0.0002091
3286	0.0001763
3298	0.0001189
3310	0.0001107
3322	0.0001558
3334	0.0001517
3346	0.000205
3358	0.0002132
3370	0.0001845
3382	0.0001517
3394	0.0001476
3406	0.0001025
3418	9.84e-05
3430	7.79e-05
3442	6.97e-05
3454	8.2e-06
3466	9.43e-05
3478	5.33e-05
3490	7.38e-05
3502	4.1e-06
3514	8.2e-05
3526	6.56e-05
3538	5.74e-05
3550	6.56e-05
3562	5.74e-05
3574	6.97e-05
3586	2.46e-05
3598	3.69e-05
3610	2.05e-05
3622	3.28e-05
3634	1.64e-05
3646	2.46e-05
3658	7.38e-05
3670	5.33e-05
3682	3.28e-05
3694	6.15e-05
3706	9.84e-05
3718	6.97e-05
3730	0.000123
3742	5.33e-05
3754	0.0001271
3766	6.15e-05
3778	8.61e-05
3790	0.0001517
3802	8.61e-05
3814	0.0001476
3826	0.0001148
3838	9.43e-05
