Infrared Spectrum: TRICHLOROPENTYLSILANE
Formula: C5 H11 Cl3 Si
CAS: 107-72-2
State: SOLUTION (12% IN CCl4 FOR 3800-1300, 11% IN CS2 FOR 1300-650, AND 12% IN CCl4 FOR 650-250 CM^-^1)
Boiling point: 170 C
Class: COBLENTZ III
Instrument: PERKIN-ELMER 521 (GRATING)
Instrument parameters: FILTERS AT 3150, 2500, 2000, 1150, 700, 410. GRATING CHANGES: 2000, 630 CM^-^1
Sampling: TRANSMISSION
Path length: 0.010 CM, 0.011 CM, AND 0.010 CM
Resolution: 2
Origin: DOW CORNING CORP.
1/CM	TRANSMITTANCE
227.848	0.938
237.054	0.925
246.26	0.91
255.466	0.903
264.672	0.892
273.878	0.865
283.084	0.863
292.29	0.88
301.496	0.911
310.702	0.918
319.908	0.921
329.114	0.92
338.32	0.917
347.526	0.912
356.732	0.91
365.938	0.911
375.144	0.916
384.35	0.893
393.556	0.898
402.762	0.897
411.968	0.896
421.174	0.886
430.38	0.823
439.586	0.705
448.792	0.762
457.998	0.817
467.204	0.765
476.41	0.374
485.616	0.752
494.822	0.77
504.028	0.686
513.234	0.828
522.44	0.825
531.646	0.795
540.852	0.721
550.058	0.474
559.264	0.007
568.47	0.042
577.676	0.047
586.882	0.004
596.088	0.393
605.294	0.689
614.5	0.782
623.706	0.787
632.912	0.787
642.118	0.787
651.324	0.786
660.53	0.774
669.736	0.727
678.942	0.584
688.148	0.188
697.354	0.312
706.56	0.544
715.766	0.551
724.972	0.583
734.178	0.606
743.384	0.565
752.59	0.469
761.796	0.182
771.002	0.619
780.208	0.745
789.414	0.706
798.62	0.605
807.826	0.785
817.032	0.803
826.238	0.791
835.444	0.868
844.65	0.84
853.856	0.827
863.062	0.862
872.268	0.853
881.474	0.868
890.68	0.852
899.886	0.868
909.092	0.85
918.298	0.779
927.504	0.812
936.71	0.827
945.916	0.752
955.122	0.756
964.328	0.838
973.534	0.794
982.74	0.794
991.946	0.83
1001.15	0.816
1010.36	0.784
1019.56	0.78
1028.77	0.706
1037.98	0.717
1047.18	0.746
1056.39	0.766
1065.59	0.742
1074.8	0.744
1084.01	0.695
1093.21	0.558
1102.42	0.792
1111.62	0.826
1120.83	0.832
1130.04	0.84
1139.24	0.838
1148.45	0.828
1157.65	0.821
1166.86	0.79
1176.07	0.796
1185.27	0.697
1194.48	0.777
1203.68	0.843
1212.89	0.856
1222.1	0.851
1231.3	0.852
1240.51	0.833
1249.71	0.833
1258.92	0.833
1268.13	0.802
1277.33	0.856
1286.54	0.855
1295.74	0.855
1304.95	0.88
1314.16	0.881
1323.36	0.877
1332.57	0.863
1341.77	0.848
1350.98	0.863
1360.19	0.845
1369.39	0.828
1378.6	0.666
1387.8	0.769
1397.01	0.756
1406.22	0.813
1415.42	0.868
1424.63	0.857
1433.83	0.82
1443.04	0.732
1452.25	0.5779
1461.45	0.506
1470.66	0.7041
1479.86	0.858
1489.07	0.87
1498.28	0.882
1507.48	0.89
1516.69	0.893
1525.89	0.897
1535.1	0.902
1544.31	0.906
1553.51	0.912
1562.72	0.907
1571.92	0.902
1581.13	0.906
1590.34	0.9
1599.54	0.896
1608.75	0.895
1617.95	0.891
1627.16	0.895
1636.37	0.895
1645.57	0.898
1654.78	0.895
1663.98	0.893
1673.19	0.892
1682.4	0.892
1691.6	0.893
1700.81	0.891
1710.01	0.89
1719.22	0.89
1728.43	0.893
1737.63	0.898
1746.84	0.902
1756.04	0.903
1765.25	0.906
1774.46	0.906
1783.66	0.906
1792.87	0.906
1802.07	0.907
1811.28	0.907
1820.49	0.906
1829.69	0.907
1838.9	0.908
1848.1	0.906
1857.31	0.905
1866.52	0.908
1875.72	0.908
1884.93	0.903
1894.14	0.905
1903.34	0.906
1912.55	0.906
1921.75	0.901
1930.96	0.903
1940.17	0.903
1949.37	0.897
1958.58	0.901
1967.78	0.902
1976.99	0.903
1986.2	0.906
1995.4	0.912
2004.61	0.9085
2013.81	0.905
2023.02	0.903
2032.23	0.901
2041.43	0.901
2050.64	0.901
2059.84	0.901
2069.05	0.901
2078.26	0.901
2087.46	0.901
2096.67	0.9
2105.87	0.8972
2115.08	0.897
2124.29	0.897
2133.49	0.897
2142.7	0.897
2151.9	0.897
2161.11	0.897
2170.32	0.896
2179.52	0.896
2188.73	0.895
2197.93	0.893
2207.14	0.892
2216.35	0.893
2225.55	0.895
2234.76	0.8948
2243.96	0.8919
2253.17	0.891
2262.38	0.891
2271.58	0.892
2280.79	0.893
2289.99	0.893
2299.2	0.893
2308.41	0.8923
2317.61	0.893
2326.82	0.895
2336.02	0.896
2345.23	0.896
2354.44	0.895
2363.64	0.8926
2372.85	0.8906
2382.05	0.891
2391.26	0.891
2400.47	0.891
2409.67	0.891
2418.88	0.891
2428.08	0.892
2437.29	0.892
2446.5	0.891
2455.7	0.891
2464.91	0.89
2474.11	0.89
2483.32	0.888
2492.53	0.887
2501.73	0.886
2510.94	0.886
2520.14	0.883
2529.35	0.8852
2538.56	0.8833
2547.76	0.8821
2556.97	0.881
2566.17	0.88
2575.38	0.878
2584.59	0.877
2593.79	0.875
2603	0.873
2612.2	0.871
2621.41	0.871
2630.62	0.8681
2639.82	0.871
2649.03	0.8719
2658.23	0.868
2667.44	0.8658
2676.65	0.865
2685.85	0.868
2695.06	0.868
2704.26	0.867
2713.47	0.8657
2722.68	0.862
2731.88	0.861
2741.09	0.86
2750.29	0.86
2759.5	0.858
2768.71	0.8537
2777.91	0.8461
2787.12	0.8336
2796.32	0.831
2805.53	0.827
2814.74	0.8107
2823.94	0.7812
2833.15	0.7474
2842.35	0.6779
2851.56	0.4972
2860.77	0.2837
2869.97	0.305
2879.18	0.332
2888.38	0.4921
2897.59	0.4673
2906.8	0.434
2916	0.2918
2925.21	0.1222
2934.41	0.0888
2943.62	0.2209
2952.83	0.1923
2962.03	0.14
2971.24	0.2465
2980.44	0.5903
2989.65	0.7195
2998.86	0.7839
3008.06	0.8121
3017.27	0.8321
3026.47	0.8451
3035.68	0.8582
3044.89	0.862
3054.09	0.8651
3063.3	0.868
3072.5	0.871
3081.71	0.873
3090.92	0.8752
3100.12	0.877
3109.33	0.878
3118.53	0.8754
3127.74	0.892
3136.95	0.8867
3146.15	0.8837
3155.36	0.885
3164.56	0.885
3173.77	0.8854
3182.98	0.8865
3192.18	0.8875
3201.39	0.889
3210.59	0.8905
3219.8	0.891
3229.01	0.891
3238.21	0.891
3247.42	0.891
3256.62	0.891
3265.83	0.891
3275.04	0.891
3284.24	0.8903
3293.45	0.888
3302.65	0.888
3311.86	0.888
3321.07	0.888
3330.27	0.888
3339.48	0.888
3348.68	0.888
3357.89	0.89
3367.1	0.89
3376.3	0.89
3385.51	0.89
3394.71	0.891
3403.92	0.891
3413.13	0.891
3422.33	0.892
3431.54	0.893
3440.74	0.895
3449.95	0.896
3459.16	0.897
3468.36	0.898
3477.57	0.898
3486.77	0.898
3495.98	0.898
3505.19	0.898
3514.39	0.898
3523.6	0.9
3532.8	0.901
3542.01	0.901
3551.22	0.901
3560.42	0.901
3569.63	0.901
3578.83	0.902
3588.04	0.9025
3597.25	0.899
3606.45	0.895
3615.66	0.893
3624.86	0.893
3634.07	0.893
3643.28	0.892
3652.48	0.891
3661.69	0.891
3670.89	0.892
3680.1	0.8927
3689.31	0.8944
3698.51	0.9
3707.72	0.901
3716.92	0.8972
3726.13	0.8968
3735.34	0.903
3744.54	0.9021
3753.75	0.901
3762.95	0.9
3772.16	0.898
3781.37	0.898
3790.57	0.901
3799.78	0.902
