Infrared Spectrum: OCTAMETHYLTRISILOXANE
Formula: C8 H24 O2 Si3
CAS: 107-51-7
State: SOLUTION (5% IN CCl4 FOR 3800-1275, 2% IN CS2 FOR 1275-608, AND 5% IN CCl4 FOR 608-220 CM^-^1)
Boiling point: 153 C
Class: COBLENTZ III
Instrument: PERKIN-ELMER 521 (GRATING)
Instrument parameters: FILTERS AT 3150, 2500, 2000, 1150, 700, 410. GRATING CHANGES: 2000, 630 CM^-^1
Sampling: TRANSMISSION
Path length: 0.011 CM, 0.011 CM, AND 0.021 CM
Resolution: 2
Origin: DOW CORNING CORP.
1/CM	TRANSMITTANCE
211.82	0.053
221.182	0
230.544	0.022
239.907	0.171
249.269	0.334
258.631	0.463
267.993	0.558
277.355	0.589
286.718	0.588
296.08	0.522
305.442	0.504
314.804	0.625
324.166	0.696
333.529	0.703
342.891	0.642
352.253	0.551
361.615	0.39
370.978	0.215
380.34	0.377
389.702	0.608
399.064	0.779
408.426	0.839
417.789	0.858
427.151	0.863
436.513	0.864
445.875	0.863
455.237	0.861
464.6	0.862
473.962	0.856
483.324	0.847
492.686	0.831
502.048	0.793
511.411	0.783
520.773	0.793
530.135	0.806
539.497	0.82
548.859	0.819
558.222	0.798
567.584	0.743
576.946	0.752
586.308	0.824
595.671	0.849
605.033	0.855
614.395	0.911
623.757	0.906
633.119	0.869
642.482	0.862
651.844	0.844
661.206	0.842
670.568	0.841
679.93	0.806
689.293	0.729
698.655	0.794
708.017	0.834
717.379	0.832
726.741	0.821
736.104	0.798
745.466	0.713
754.828	0.5
764.19	0.737
773.552	0.744
782.915	0.628
792.277	0.272
801.639	0.327
811.001	0.339
820.364	0.337
829.726	0.317
839.088	0.046
848.45	0.083
857.812	0.461
867.175	0.562
876.537	0.551
885.899	0.648
895.261	0.743
904.623	0.787
913.986	0.82
923.348	0.836
932.71	0.834
942.072	0.827
951.434	0.821
960.797	0.818
970.159	0.812
979.521	0.804
988.883	0.759
998.245	0.716
1007.61	0.648
1016.97	0.532
1026.33	0.362
1035.69	0.088
1045.06	0.062
1054.42	0.118
1063.78	0.159
1073.14	0.145
1082.51	0.185
1091.87	0.37
1101.23	0.506
1110.59	0.601
1119.95	0.664
1129.32	0.701
1138.68	0.736
1148.04	0.771
1157.4	0.799
1166.77	0.829
1176.13	0.834
1185.49	0.837
1194.85	0.835
1204.21	0.829
1213.58	0.825
1222.94	0.798
1232.3	0.752
1241.66	0.585
1251.03	0.032
1260.39	0.364
1269.75	0.754
1279.11	0.751
1288.47	0.742
1297.84	0.74
1307.2	0.741
1316.56	0.751
1325.92	0.775
1335.28	0.779
1344.65	0.778
1354.01	0.778
1363.37	0.777
1372.73	0.768
1382.1	0.754
1391.46	0.715
1400.82	0.643
1410.18	0.63
1419.54	0.689
1428.91	0.708
1438.27	0.705
1447.63	0.717
1456.99	0.762
1466.36	0.794
1475.72	0.807
1485.08	0.811
1494.44	0.81
1503.8	0.799
1513.17	0.794
1522.53	0.789
1531.89	0.779
1541.25	0.769
1550.62	0.773
1559.98	0.783
1569.34	0.783
1578.7	0.787
1588.06	0.799
1597.43	0.806
1606.79	0.814
1616.15	0.819
1625.51	0.819
1634.88	0.82
1644.24	0.826
1653.6	0.833
1662.96	0.833
1672.32	0.833
1681.69	0.833
1691.05	0.833
1700.41	0.833
1709.77	0.833
1719.14	0.833
1728.5	0.831
1737.86	0.833
1747.22	0.833
1756.58	0.834
1765.95	0.842
1775.31	0.843
1784.67	0.843
1794.03	0.844
1803.4	0.846
1812.76	0.846
1822.12	0.846
1831.48	0.846
1840.84	0.846
1850.21	0.846
1859.57	0.844
1868.93	0.84
1878.29	0.837
1887.66	0.837
1897.02	0.836
1906.38	0.835
1915.74	0.832
1925.1	0.829
1934.47	0.822
1943.83	0.828
1953.19	0.836
1962.55	0.841
1971.92	0.841
1981.28	0.84
1990.64	0.831
2000	0.842
2009.36	0.862
2018.73	0.87
2028.09	0.87
2037.45	0.8699
2046.81	0.8679
2056.17	0.865
2065.54	0.865
2074.9	0.865
2084.26	0.865
2093.62	0.865
2102.99	0.865
2112.35	0.8643
2121.71	0.865
2131.07	0.865
2140.43	0.865
2149.8	0.867
2159.16	0.867
2168.52	0.868
2177.88	0.867
2187.25	0.8685
2196.61	0.869
2205.97	0.869
2215.33	0.8696
2224.69	0.87
2234.06	0.87
2243.42	0.8693
2252.78	0.869
2262.14	0.8693
2271.51	0.869
2280.87	0.869
2290.23	0.868
2299.59	0.865
2308.95	0.8611
2318.32	0.8445
2327.68	0.843
2337.04	0.8459
2346.4	0.849
2355.77	0.849
2365.13	0.8581
2374.49	0.8712
2383.85	0.878
2393.21	0.878
2402.58	0.878
2411.94	0.878
2421.3	0.878
2430.66	0.878
2440.03	0.878
2449.39	0.877
2458.75	0.8747
2468.11	0.871
2477.47	0.871
2486.84	0.8716
2496.2	0.875
2505.56	0.8774
2514.92	0.8784
2524.29	0.881
2533.65	0.8815
2543.01	0.882
2552.37	0.882
2561.73	0.881
2571.1	0.881
2580.46	0.881
2589.82	0.881
2599.18	0.881
2608.55	0.881
2617.91	0.8795
2627.27	0.878
2636.63	0.876
2645.99	0.875
2655.36	0.8752
2664.72	0.875
2674.08	0.875
2683.44	0.876
2692.81	0.876
2702.17	0.876
2711.53	0.875
2720.89	0.875
2730.25	0.875
2739.62	0.875
2748.98	0.8738
2758.34	0.869
2767.7	0.863
2777.07	0.8565
2786.43	0.8386
2795.79	0.8368
2805.15	0.836
2814.51	0.833
2823.88	0.832
2833.24	0.8323
2842.6	0.833
2851.96	0.8302
2861.32	0.8227
2870.69	0.8117
2880.05	0.7872
2889.41	0.7361
2898.77	0.657
2908.14	0.6943
2917.5	0.7573
2926.86	0.7466
2936.22	0.676
2945.58	0.5819
2954.95	0.4078
2964.31	0.1489
2973.67	0.263
2983.03	0.6609
2992.4	0.7799
3001.76	0.8197
3011.12	0.8358
3020.48	0.8437
3029.84	0.848
3039.21	0.85
3048.57	0.853
3057.93	0.855
3067.29	0.858
3076.66	0.86
3086.02	0.858
3095.38	0.858
3104.74	0.858
3114.1	0.8601
3123.47	0.8675
3132.83	0.8748
3142.19	0.8772
3151.55	0.881
3160.92	0.8833
3170.28	0.886
3179.64	0.889
3189	0.89
3198.36	0.892
3207.73	0.892
3217.09	0.892
3226.45	0.893
3235.81	0.893
3245.18	0.893
3254.54	0.893
3263.9	0.893
3273.26	0.893
3282.62	0.893
3291.99	0.893
3301.35	0.893
3310.71	0.893
3320.07	0.893
3329.44	0.893
3338.8	0.897
3348.16	0.897
3357.52	0.896
3366.88	0.896
3376.25	0.896
3385.61	0.896
3394.97	0.897
3404.33	0.897
3413.7	0.897
3423.06	0.897
3432.42	0.897
3441.78	0.897
3451.14	0.897
3460.51	0.897
3469.87	0.896
3479.23	0.896
3488.59	0.895
3497.96	0.895
3507.32	0.893
3516.68	0.893
3526.04	0.893
3535.4	0.893
3544.77	0.892
3554.13	0.8906
3563.49	0.889
3572.85	0.886
3582.21	0.8826
3591.58	0.8818
3600.94	0.8915
3610.3	0.8915
3619.66	0.884
3629.03	0.8814
3638.39	0.882
3647.75	0.882
3657.11	0.882
3666.47	0.8827
3675.84	0.883
3685.2	0.8798
3694.56	0.872
3703.92	0.8736
3713.29	0.874
3722.65	0.874
3732.01	0.874
