Infrared Spectrum: Cycloheptasiloxane, tetradecamethyl-
Formula: C14 H42 O7 Si7
CAS: 107-50-6
State: SOLUTION (5% CCl4 FOR 3800-1300, 2% CS2 FOR 1300-620, AND 5% CCl4 FOR 620-210)
Boiling point: 154 C AT 20 mmHg
Class: COBLENTZ III
Instrument: PERKIN-ELMER 521 (GRATING)
Instrument parameters: FILTERS AT 3150, 2500, 2000, 1150, 700, 410. GRATING CHANGES: 2000, 630
Path length: 0.011 CM, 0.011 CM, AND 0.020 CM
Resolution: 2
Origin: DOW CORNING CORP.
1/CM	TRANSMITTANCE
213	0.877
223	0.8719
233	0.8669
243	0.8592
253	0.846
263	0.8315
273	0.8139
283	0.7772
293	0.7428
303	0.7292
313	0.708
323	0.6722
333	0.6239
343	0.5583
353	0.5069
363	0.4088
373	0.3115
383	0.2233
393	0.1305
403	0.2808
413	0.6439
423	0.8272
433	0.8938
443	0.9182
453	0.9227
463	0.9203
473	0.9097
483	0.8836
493	0.8511
503	0.8241
513	0.807
523	0.8256
533	0.8661
543	0.8837
553	0.8775
563	0.8435
573	0.8335
583	0.8835
593	0.8914
603	0.8798
613	0.8557
623	0.8449
633	0.8416
643	0.8395
653	0.8184
663	0.7583
673	0.7841
683	0.7405
693	0.696
703	0.5941
713	0.7977
723	0.8331
733	0.8372
743	0.8353
753	0.8247
763	0.79
773	0.7237
783	0.4486
793	0.1932
803	0.0303
813	0.1894
823	0.3829
833	0.6206
843	0.608
853	0.5023
863	0.5892
873	0.6906
883	0.8056
893	0.86
903	0.8901
913	0.9075
923	0.9113
933	0.9164
943	0.9088
953	0.8994
963	0.8875
973	0.8734
983	0.8444
993	0.7975
1003	0.7305
1013	0.6266
1023	0.5067
1033	0.3521
1043	0.1578
1053	0.017
1063	0.019
1073	0.0484
1083	0.0824
1093	0.0912
1103	0.1492
1113	0.3261
1123	0.4849
1133	0.6331
1143	0.6986
1153	0.7769
1163	0.8195
1173	0.8455
1183	0.8629
1193	0.8718
1203	0.8738
1213	0.8677
1223	0.8506
1233	0.8189
1243	0.7209
1253	0.3053
1263	0.2961
1273	0.7742
1283	0.8346
1293	0.8543
1303	0.7865
1313	0.7956
1323	0.8047
1333	0.8063
1343	0.802
1353	0.8008
1363	0.7983
1373	0.789
1383	0.7683
1393	0.6897
1403	0.633
1413	0.6894
1423	0.7654
1433	0.7683
1443	0.7646
1453	0.8051
1463	0.819
1473	0.8238
1483	0.8262
1493	0.8286
1503	0.8304
1513	0.8302
1523	0.8281
1533	0.826
1543	0.8251
1553	0.8245
1563	0.8243
1573	0.8243
1583	0.8243
1593	0.8241
1603	0.8245
1613	0.8252
1623	0.8271
1633	0.8294
1643	0.8326
1653	0.8358
1663	0.8388
1673	0.8405
1683	0.842
1693	0.8432
1703	0.8444
1713	0.8453
1723	0.8462
1733	0.8478
1743	0.8496
1753	0.8502
1763	0.8509
1773	0.8517
1783	0.8536
1793	0.8571
1803	0.861
1813	0.8623
1823	0.8638
1833	0.8643
1843	0.8649
1853	0.8658
1863	0.8658
1873	0.8665
1883	0.867
1893	0.867
1903	0.8656
1913	0.8628
1923	0.8586
1933	0.8535
1943	0.8533
1953	0.8591
1963	0.8664
1973	0.8707
1983	0.8716
1993	0.8718
2003	0.8907
2013	0.8917
2023	0.8901
2033	0.8885
2043	0.8877
2053	0.8876
2063	0.889
2073	0.8906
2083	0.8916
2093	0.8926
2103	0.8936
2113	0.894
2123	0.8944
2133	0.8947
2143	0.8947
2153	0.8948
2163	0.8948
2173	0.8951
2183	0.8953
2193	0.8955
2203	0.8965
2213	0.8974
2223	0.8982
2233	0.899
2243	0.8995
2253	0.9
2263	0.9008
2273	0.9016
2283	0.9025
2293	0.9029
2303	0.9032
2313	0.9034
2323	0.9045
2333	0.906
2343	0.9078
2353	0.91
2363	0.9083
2373	0.9053
2383	0.903
2393	0.9029
2403	0.9034
2413	0.904
2423	0.9045
2433	0.9047
2443	0.9048
2453	0.9052
2463	0.9053
2473	0.9047
2483	0.9001
2493	0.8966
2503	0.8973
2513	0.8981
2523	0.8987
2533	0.8987
2543	0.8986
2553	0.8985
2563	0.8983
2573	0.8979
2583	0.8976
2593	0.8972
2603	0.8969
2613	0.8966
2623	0.8963
2633	0.896
2643	0.8958
2653	0.8955
2663	0.8953
2673	0.8958
2683	0.8963
2693	0.8967
2703	0.8972
2713	0.8974
2723	0.8972
2733	0.897
2743	0.8967
2753	0.8955
2763	0.8895
2773	0.8811
2783	0.8728
2793	0.8686
2803	0.8674
2813	0.8676
2823	0.8657
2833	0.8628
2843	0.8592
2853	0.8564
2863	0.8507
2873	0.8405
2883	0.823
2893	0.7977
2903	0.7353
2913	0.7821
2923	0.7929
2933	0.783
2943	0.7417
2953	0.5116
2963	0.2547
2973	0.3522
2983	0.7067
2993	0.796
3003	0.8371
3013	0.8606
3023	0.8658
3033	0.869
3043	0.871
3053	0.8726
3063	0.874
3073	0.8753
3083	0.8765
3093	0.8772
3103	0.8772
3113	0.8766
3123	0.8813
3133	0.8851
3143	0.8867
3153	0.8878
3163	0.8891
3173	0.8906
3183	0.892
3193	0.8928
3203	0.8936
3213	0.8943
3223	0.8955
3233	0.8967
3243	0.898
3253	0.8992
3263	0.8998
3273	0.8998
3283	0.8997
3293	0.8997
3303	0.8996
3313	0.8997
3323	0.8998
3333	0.8999
3343	0.9001
3353	0.9004
3363	0.9008
3373	0.9012
3383	0.9017
3393	0.9021
3403	0.902
3413	0.9016
3423	0.9012
3433	0.9008
3443	0.9004
3453	0.9
3463	0.8997
3473	0.8995
3483	0.8993
3493	0.899
3503	0.8988
3513	0.8986
3523	0.8985
3533	0.8983
3543	0.8981
3553	0.898
3563	0.8977
3573	0.8972
3583	0.8966
3593	0.8961
3603	0.8954
3613	0.8944
3623	0.8935
3633	0.8928
3643	0.892
3653	0.8911
3663	0.8901
3673	0.8891
3683	0.8876
3693	0.8861
3703	0.8844
3713	0.8824
3723	0.8819
3733	0.8823
3743	0.8834
3753	0.884
3763	0.8842
3773	0.8844
3783	0.8849
3793	0.8865
3803	0.8892
3813	0.8917
