Infrared Spectrum: HYDROXYCITRONELLAL
Formula: C10 H20 O2
CAS: 107-75-5
State: LIQUID
Class: COBLENTZ
Instrument: Not specified, most likely a prism, grating, or hybrid spectrometer.
Sampling: TRANSMISSION
Path length: 0.0025 CM
Resolution: 4
Origin: INFRACORD
MICROMETERS	TRANSMITTANCE
2.53	0.896
2.56548	0.896
2.60095	0.896
2.63643	0.896
2.67191	0.893
2.70738	0.851
2.74286	0.755
2.77834	0.569
2.81381	0.447
2.84929	0.364
2.88477	0.316
2.92024	0.302
2.95572	0.373
2.9912	0.469
3.02667	0.602
3.06215	0.678
3.09763	0.742
3.13311	0.79
3.16858	0.811
3.20406	0.819
3.23954	0.819
3.27501	0.809
3.31049	0.644
3.34597	0.322
3.38144	0.081
3.41692	0.09
3.4524	0.182
3.48787	0.264
3.52335	0.434
3.55883	0.595
3.5943	0.695
3.62978	0.657
3.66526	0.583
3.70073	0.627
3.73621	0.761
3.77169	0.813
3.80716	0.835
3.84264	0.842
3.87812	0.846
3.91359	0.852
3.94907	0.855
3.98455	0.862
4.02002	0.871
4.0555	0.875
4.09098	0.88
4.12645	0.881
4.16193	0.883
4.19741	0.89
4.23289	0.89
4.26836	0.892
4.30384	0.892
4.33932	0.892
4.37479	0.892
4.41027	0.893
4.44575	0.9
4.48122	0.901
4.5167	0.906
4.55218	0.906
4.58765	0.907
4.62313	0.907
4.65861	0.906
4.69408	0.907
4.72956	0.907
4.76504	0.907
4.80051	0.908
4.83599	0.909
4.87147	0.912
4.90694	0.913
4.94242	0.914
4.9779	0.915
5.01337	0.916
5.04885	0.916
5.08433	0.916
5.1198	0.916
5.15528	0.916
5.19076	0.916
5.22624	0.916
5.26171	0.916
5.29719	0.916
5.33267	0.916
5.36814	0.916
5.40362	0.913
5.4391	0.908
5.47457	0.903
5.51005	0.89
5.54553	0.882
5.581	0.869
5.61648	0.849
5.65196	0.82
5.68743	0.771
5.72291	0.685
5.75839	0.485
5.79386	0.136
5.82934	0.022
5.86482	0.059
5.90029	0.463
5.93577	0.715
5.97125	0.766
6.00672	0.807
6.0422	0.843
6.07768	0.849
6.11315	0.867
6.14863	0.873
6.18411	0.882
6.21958	0.889
6.25506	0.893
6.29054	0.896
6.32602	0.905
6.36149	0.907
6.39697	0.909
6.43245	0.911
6.46792	0.911
6.5034	0.911
6.53888	0.911
6.57435	0.911
6.60983	0.911
6.64531	0.908
6.68078	0.89
6.71626	0.855
6.75174	0.771
6.78721	0.64
6.82269	0.409
6.85817	0.354
6.89364	0.416
6.92912	0.588
6.9646	0.629
7.00007	0.663
7.03555	0.677
7.07103	0.635
7.1065	0.544
7.14198	0.501
7.17746	0.468
7.21293	0.422
7.24841	0.276
7.28389	0.206
7.31936	0.228
7.35484	0.27
7.39032	0.398
7.4258	0.498
7.46127	0.549
7.49675	0.615
7.53223	0.647
7.5677	0.663
7.60318	0.664
7.63866	0.664
7.67413	0.657
7.70961	0.658
7.74509	0.658
7.78056	0.658
7.81604	0.658
7.85152	0.658
7.88699	0.661
7.92247	0.664
7.95795	0.664
7.99342	0.665
8.0289	0.633
8.06438	0.589
8.09985	0.562
8.13533	0.537
8.17081	0.481
8.20628	0.451
8.24176	0.441
8.27724	0.442
8.31271	0.441
8.34819	0.425
8.38367	0.418
8.41915	0.425
8.45462	0.456
8.4901	0.479
8.52558	0.473
8.56105	0.405
8.59653	0.327
8.63201	0.279
8.66748	0.264
8.70296	0.264
8.73844	0.304
8.77391	0.379
8.80939	0.44
8.84487	0.485
8.88034	0.561
8.91582	0.619
8.9513	0.648
8.98677	0.66
9.02225	0.654
9.05773	0.639
9.0932	0.633
9.12868	0.647
9.16416	0.666
9.19963	0.672
9.23511	0.653
9.27059	0.634
9.30606	0.637
9.34154	0.671
9.37702	0.708
9.41249	0.735
9.44797	0.743
9.48345	0.746
9.51893	0.749
9.5544	0.75
9.58988	0.753
9.62536	0.747
9.66083	0.721
9.69631	0.691
9.73179	0.667
9.76726	0.635
9.80274	0.623
9.83822	0.619
9.87369	0.639
9.90917	0.671
9.94465	0.698
9.98012	0.715
10.0156	0.728
10.0511	0.734
10.0866	0.734
10.122	0.73
10.1575	0.71
10.193	0.705
10.2285	0.705
10.2639	0.709
10.2994	0.718
10.3349	0.73
10.3704	0.735
10.4058	0.736
10.4413	0.735
10.4768	0.717
10.5123	0.663
10.5478	0.606
10.5832	0.546
10.6187	0.48
10.6542	0.455
10.6897	0.447
10.7251	0.48
10.7606	0.512
10.7961	0.531
10.8316	0.546
10.867	0.55
10.9025	0.525
10.938	0.473
10.9735	0.453
11.0089	0.455
11.0444	0.51
11.0799	0.58
11.1154	0.638
11.1509	0.672
11.1863	0.702
11.2218	0.743
11.2573	0.767
11.2928	0.787
11.3282	0.793
11.3637	0.801
11.3992	0.804
11.4347	0.811
11.4701	0.814
11.5056	0.82
11.5411	0.824
11.5766	0.826
11.6121	0.829
11.6475	0.829
11.683	0.827
11.7185	0.829
11.754	0.829
11.7894	0.829
11.8249	0.829
11.8604	0.83
11.8959	0.83
11.9313	0.831
11.9668	0.833
12.0023	0.835
12.0378	0.835
12.0733	0.835
12.1087	0.835
12.1442	0.835
12.1797	0.835
12.2152	0.838
12.2506	0.841
12.2861	0.845
12.3216	0.85
12.3571	0.851
12.3925	0.851
12.428	0.852
12.4635	0.852
12.499	0.851
12.5345	0.852
12.5699	0.852
12.6054	0.85
12.6409	0.848
12.6764	0.844
12.7118	0.836
12.7473	0.83
12.7828	0.819
12.8183	0.805
12.8537	0.794
12.8892	0.773
12.9247	0.75
12.9602	0.728
12.9956	0.715
13.0311	0.703
13.0666	0.698
13.1021	0.701
13.1376	0.711
13.173	0.73
13.2085	0.749
13.244	0.762
13.2795	0.769
13.3149	0.778
13.3504	0.779
13.3859	0.779
13.4214	0.775
13.4568	0.763
13.4923	0.752
13.5278	0.74
13.5633	0.736
13.5988	0.734
13.6342	0.734
13.6697	0.735
13.7052	0.739
13.7407	0.74
13.7761	0.742
13.8116	0.743
13.8471	0.743
13.8826	0.743
13.918	0.743
13.9535	0.742
13.989	0.739
14.0245	0.73
14.06	0.724
14.0954	0.718
14.1309	0.709
14.1664	0.704
14.2019	0.698
14.2373	0.689
14.2728	0.683
14.3083	0.677
14.3438	0.673
14.3792	0.67
14.4147	0.665
14.4502	0.652
14.4857	0.647
14.5212	0.644
14.5566	0.635
14.5921	0.632
14.6276	0.626
14.6631	0.619
14.6985	0.614
14.734	0.609
14.7695	0.603
14.805	0.6
14.8404	0.597
14.8759	0.596
14.9114	0.596
14.9469	0.595
14.9823	0.587
