Infrared Spectrum: 1,4-Butanediol diacrylate
Formula: C 10 H 14 O 4
CAS: 1070-70-8
State: gas
Origin: EPA-IR VAPOR PHASE LIBRARY
1/CM	ABSORBANCE
501.5	0.0001092
513.074	0.0003489
524.648	0.0006383
536.222	0.000642
547.796	0.000512
559.37	0.0003557
570.944	0.000382
582.518	0.0003362
594.092	0.0005268
605.666	0.0010692
617.24	0.0011007
628.814	0.0008184
640.388	0.000759
651.962	0.001218
663.536	0.002078
675.11	0.001548
686.684	0.0007167
698.258	0.0005054
709.832	0.0004497
721.406	0.0006096
732.98	0.0008187
744.554	0.0011886
756.128	0.001318
767.702	0.001608
779.276	0.002708
790.85	0.005698
802.423	0.011638
813.997	0.012138
825.571	0.007048
837.145	0.004438
848.719	0.003548
860.293	0.003228
871.867	0.003368
883.441	0.003428
895.015	0.003608
906.589	0.003828
918.163	0.004168
929.737	0.005608
941.311	0.010028
952.885	0.016938
964.459	0.023548
976.033	0.024588
987.607	0.024398
999.181	0.018458
1010.76	0.014078
1022.33	0.012708
1033.9	0.019818
1045.48	0.031968
1057.05	0.045038
1068.63	0.037198
1080.2	0.021178
1091.77	0.012138
1103.35	0.008338
1114.92	0.007388
1126.49	0.008408
1138.07	0.012138
1149.64	0.021968
1161.22	0.050028
1172.79	0.132658
1184.36	0.177238
1195.94	0.095768
1207.51	0.044358
1219.09	0.027918
1230.66	0.026318
1242.23	0.040088
1253.81	0.072738
1265.38	0.075458
1276.96	0.042008
1288.53	0.034388
1300.1	0.032388
1311.68	0.016128
1323.25	0.009738
1334.83	0.006018
1346.4	0.004698
1357.97	0.004648
1369.55	0.005558
1381.12	0.008628
1392.7	0.014328
1404.27	0.037358
1415.84	0.037708
1427.42	0.013258
1438.99	0.008648
1450.57	0.008718
1462.14	0.008648
1473.71	0.007518
1485.29	0.004798
1496.86	0.003108
1508.44	0.002358
1520.01	0.001938
1531.58	0.001678
1543.16	0.001478
1554.73	0.001398
1566.31	0.001438
1577.88	0.001738
1589.45	0.002318
1601.03	0.003558
1612.6	0.005608
1624.18	0.008328
1635.75	0.010568
1647.32	0.006438
1658.9	0.003308
1670.47	0.003048
1682.05	0.003958
1693.62	0.006348
1705.19	0.011378
1716.77	0.022068
1728.34	0.048028
1739.92	0.100598
1751.49	0.105928
1763.06	0.047788
1774.64	0.019248
1786.21	0.008998
1797.79	0.005128
1809.36	0.003358
1820.93	0.002428
1832.51	0.001888
1844.08	0.001678
1855.66	0.001528
1867.23	0.001438
1878.8	0.001348
1890.38	0.001358
1901.95	0.001528
1913.53	0.002058
1925.1	0.002838
1936.67	0.002468
1948.25	0.001708
1959.82	0.001248
1971.4	0.0010457
1982.97	0.0009936
1994.54	0.0010484
2006.12	0.001118
2017.69	0.001218
2029.27	0.001278
2040.84	0.001288
2052.41	0.001208
2063.99	0.0011474
2075.56	0.0010843
2087.14	0.0009971
2098.71	0.0008946
2110.28	0.0008218
2121.86	0.0007382
2133.43	0.0006679
2145.01	0.0006052
2156.58	0.0005538
2168.15	0.0004939
2179.73	0.0004535
2191.3	0.0004055
2202.88	0.0003504
2214.45	0.0003269
2226.02	0.00030509
2237.6	0.0003266
2249.17	0.0003134
2260.74	0.0003626
2272.32	0.0003575
2283.89	0.0003664
2295.47	0.0004104
2307.04	0.0004609
2318.61	0.0005013
2330.19	0.000517
2341.76	0.0006105
2353.34	0.000767
2364.91	0.0007605
2376.48	0.0006071
2388.06	0.0004548
2399.63	0.0003692
2411.21	0.00029734
2422.78	0.00026896
2434.35	0.00026923
2445.93	0.00025085
2457.5	0.00029056
2469.08	0.0003279
2480.65	0.0003822
2492.22	0.0003325
2503.8	0.00029508
2515.37	0.0003241
2526.95	0.00028241
2538.52	0.00029318
2550.09	0.00026453
2561.67	0.00024492
2573.24	0.0002403
2584.82	0.00025048
2596.39	0.00026101
2607.96	0.00024469
2619.54	0.00024826
2631.11	0.00027621
2642.69	0.00029442
2654.26	0.00029975
2665.83	0.000322
2677.41	0.000351
2688.98	0.0004473
2700.56	0.0005312
2712.13	0.0004469
2723.7	0.000393
2735.28	0.0004246
2746.85	0.0004606
2758.43	0.0005018
2770	0.0004595
2781.57	0.0004722
2793.15	0.000535
2804.72	0.0005518
2816.3	0.0006274
2827.87	0.000866
2839.44	0.001268
2851.02	0.002188
2862.59	0.003448
2874.17	0.003848
2885.74	0.004698
2897.31	0.006258
2908.89	0.007878
2920.46	0.009678
2932.04	0.011308
2943.61	0.014168
2955.18	0.019438
2966.76	0.022218
2978.33	0.017218
2989.91	0.010618
3001.48	0.005978
3013.05	0.003158
3024.63	0.002578
3036.2	0.003188
3047.78	0.003418
3059.35	0.001688
3070.92	0.001448
3082.5	0.001438
3094.07	0.001478
3105.65	0.003018
3117.22	0.002628
3128.79	0.0006838
3140.37	0.0003717
3151.94	0.00030093
3163.52	0.0002016
3175.09	0.0001955
3186.66	0.0001386
3198.24	0.0001675
3209.81	0.0001675
3221.39	0.0001449
3232.96	0.0001657
3244.53	0.0001353
3256.11	0.000143
3267.68	0.0001144
3279.26	5.7e-05
3290.83	5e-05
3302.4	0.0001255
3313.98	7.4e-05
3325.55	5.3e-05
3337.13	7.9e-05
3348.7	0.0001388
3360.27	0.0001806
3371.85	0.00022677
3383.42	0.00024881
3395	0.0001648
3406.57	0.0001433
3418.14	0.00020602
3429.72	0.00026842
3441.29	0.0004463
3452.86	0.0006676
3464.44	0.0010816
3476.01	0.001428
3487.59	0.0010564
3499.16	0.0005401
3510.73	0.0003398
3522.31	0.00021815
3533.88	0.0001411
3545.46	0.0001263
3557.03	9.8e-05
3568.6	4.5e-05
3580.18	7.9e-05
3591.75	5e-05
3603.33	3e-05
3614.9	4.2e-05
3626.47	7.6e-05
3638.05	9.3e-05
3649.62	7.1e-05
3661.2	4.1e-05
3672.77	5.2e-05
3684.34	9.1e-05
3695.92	6.4e-05
3707.49	0.0001183
3719.07	7.9e-05
3730.64	6.6e-05
3742.21	0.000102
3753.79	7.5e-05
3765.36	5e-05
3776.94	0.0001128
3788.51	2.9e-05
3800.08	6.1e-05
3811.66	8.8e-05
3823.23	3.5e-05
3834.81	1.5e-05
3846.38	7.9e-05
3857.95	8.1e-05
3869.53	9.8e-05
3881.1	9.6e-05
3892.68	7.1e-05
3904.25	8.1e-05
3915.82	0.0001251
3927.4	0.000212819
3938.97	0.0001248
3950.55	0.0001293
3962.12	0.000172
3973.69	0.0001956
3985.27	0.000172
3996.84	0.0001832
