Infrared Spectrum: 2,2,4,4,-Tetramethylpentane
Formula: C 9 H 20
CAS: 1070-87-7
State: gas
Instrument: HP-GC/MS/IRD
Origin: NIST Mass Spectrometry Data Center
1/CM	ABSORBANCE
550	0.000198
562	0.0004734
574	0.000639
586	0.0004104
598	0.0003186
610	7.2e-06
622	0.0002394
634	0.0003186
646	0.0003438
658	0.0004446
670	0.0003312
682	0.000153
694	0.0002268
706	0.0003042
718	0.0003456
730	0.000387
742	0.0002898
754	0.000216
766	0.0001584
778	0.0001152
790	0.0001944
802	0.0001854
814	0.0002646
826	0.000153
838	0.000306
850	0.0003186
862	0.0003042
874	0.0002286
886	0.0002574
898	0.0003726
910	0.0004752
922	0.0004662
934	0.0003996
946	0.000387
958	0.000468
970	0.0005454
982	0.0004086
994	0.0002934
1006	0.0002484
1018	0.0002556
1030	0.0003114
1042	0.000306
1054	0.00027
1066	0.0002502
1078	0.0002844
1090	0.000261
1102	0.0002934
1114	0.0003384
1126	0.0003114
1138	0.0003366
1150	0.000369
1162	0.0005202
1174	0.0006282
1186	0.0004284
1198	0.0004806
1210	0.0006948
1222	0.0011232
1234	0.00207
1246	0.0016344
1258	0.0006012
1270	0.0004158
1282	0.000342
1294	0.0002898
1306	0.0002934
1318	0.0003366
1330	0.0003888
1342	0.0007632
1354	0.0015156
1366	0.002781
1378	0.0024246
1390	0.0014112
1402	0.0013392
1414	0.0007812
1426	0.0005112
1438	0.0007452
1450	0.0010044
1462	0.001917
1474	0.0029304
1486	0.0023814
1498	0.0011466
1510	0.0006714
1522	0.0004914
1534	0.000315
1546	0.0003402
1558	0.0005886
1570	0.0002682
1582	0.0002214
1594	0.0002574
1606	0.0002628
1618	0.0002988
1630	0.0001656
1642	0.0002106
1654	0.0004788
1666	0.0001728
1678	0.0002538
1690	0.0001926
1702	0.0004248
1714	0.000369
1726	0.0002394
1738	0.0003852
1750	0.0003312
1762	0.0002538
1774	0.0002718
1786	0.0001728
1798	0.0001476
1810	0.0001386
1822	0.000144
1834	0.0001494
1846	0.0001908
1858	9.9e-05
1870	0.0001692
1882	0.0001152
1894	0.0001296
1906	0.000117
1918	0.0001476
1930	0.0001026
1942	0.0001512
1954	0.0001242
1966	0.0001206
1978	0.0001098
1990	7.74e-05
2002	8.64e-05
2014	8.82e-05
2026	7.74e-05
2038	8.64e-05
2050	5.22e-05
2062	6.48e-05
2074	7.56e-05
2086	6.66e-05
2098	6.84e-05
2110	9.54e-05
2122	7.38e-05
2134	8.28e-05
2146	7.02e-05
2158	6.12e-05
2170	4.5e-05
2182	5.58e-05
2194	3.42e-05
2206	5.4e-05
2218	3.42e-05
2230	5.76e-05
2242	4.32e-05
2254	1.08e-05
2266	2.16e-05
2278	4.68e-05
2290	2.16e-05
2302	3.24e-05
2314	0.0001116
2326	0.0002142
2338	0.0002268
2350	9.54e-05
2362	0.0003114
2374	0.000153
2386	5.94e-05
2398	3.6e-05
2410	2.7e-05
2422	1.8e-05
2434	2.16e-05
2446	3.06e-05
2458	7.2e-06
2470	3.06e-05
2482	5.4e-05
2494	3.24e-05
2506	1.26e-05
2518	3.06e-05
2530	6.66e-05
2542	8.64e-05
2554	3.42e-05
2566	2.7e-05
2578	2.16e-05
2590	6.12e-05
2602	5.04e-05
2614	8.1e-05
2626	7.02e-05
2638	0.0001152
2650	0.0001098
2662	0.0001512
2674	0.0001818
2686	0.0001836
2698	0.0001602
2710	0.0001818
2722	0.0002682
2734	0.0002574
2746	0.0002214
2758	0.0001782
2770	0.0001998
2782	0.0002538
2794	0.0003672
2806	0.000522
2818	0.0006786
2830	0.000819
2842	0.0011916
2854	0.001827
2866	0.003519
2878	0.0057312
2890	0.0069552
2902	0.0077256
2914	0.0070398
2926	0.0062406
2938	0.007947
2950	0.0142794
2962	0.0179748
2974	0.0112032
2986	0.0065322
2998	0.0040842
3010	0.001701
3022	0.0006696
3034	0.000396
3046	0.0002556
3058	0.000252
3070	0.000252
3082	0.0002052
3094	0.0002088
3106	0.0002178
3118	0.000198
3130	0.0002124
3142	0.0001746
3154	0.0001674
3166	0.000207
3178	0.0002124
3190	0.000162
3202	0.0002466
3214	0.0002376
3226	0.0002358
3238	0.0001836
3250	0.0001962
3262	0.0001998
3274	0.0001926
3286	0.0001296
3298	0.000126
3310	0.0001638
3322	0.000153
3334	0.0001638
3346	0.000153
3358	0.0001368
3370	0.0001386
3382	0.0001332
3394	0.0001062
3406	0.0001098
3418	8.82e-05
3430	0.0001206
3442	8.82e-05
3454	7.38e-05
3466	0.0001494
3478	9e-05
3490	0.0001458
3502	0.0001674
3514	6.66e-05
3526	7.2e-05
3538	7.2e-05
3550	9e-05
3562	6.48e-05
3574	6.66e-05
3586	0.0001044
3598	0.0001098
3610	0.000189
3622	9.54e-05
3634	7.56e-05
3646	0.0001404
3658	8.28e-05
3670	0.000216
3682	8.28e-05
3694	9.9e-05
3706	0.0001008
3718	6.84e-05
3730	0.0001188
3742	0.0002826
3754	0.0002376
3766	8.64e-05
3778	0.0001188
3790	9.72e-05
3802	0.0002592
3814	0.000207
3826	0.000144
3838	0.0002124
