Infrared Spectrum: 2,2,7,7-Tetramethyloctane
Formula: C 12 H 26
CAS: 1071-31-4
State: gas
Instrument: HP-GC/MS/IRD
Origin: NIST Mass Spectrometry Data Center
1/CM	ABSORBANCE
550	1.65e-05
562	0.0002035
574	3.85e-05
586	0
598	8.8e-05
610	7.7e-05
622	9.9e-05
634	6.05e-05
646	5.5e-05
658	8.8e-05
670	0.0001265
682	0.0001595
694	0.00011
706	0.000187
718	0.0003025
730	0.000286
742	0.000275
754	0.00022
766	0.000187
778	0.0001815
790	0.000165
802	0.0001375
814	0.000165
826	0.0001265
838	0.000154
850	0.000165
862	0.000187
874	0.0002255
886	0.000297
898	0.00033
910	0.0003025
922	0.0004015
934	0.000341
946	0.0003905
958	0.0002475
970	0.0002035
982	0.0001925
994	0.000176
1006	0.0002255
1018	0.000242
1030	0.00022
1042	0.000264
1054	0.0001925
1066	0.0001595
1078	0.0001375
1090	0.0001595
1102	0.0001155
1114	0.000198
1126	0.000275
1138	0.0003025
1150	0.0003245
1162	0.00044
1174	0.000583
1186	0.000803
1198	0.001122
1210	0.001188
1222	0.00143
1234	0.002552
1246	0.0030525
1258	0.001452
1270	0.000671
1282	0.000429
1294	0.000429
1306	0.0004675
1318	0.000594
1330	0.000682
1342	0.0011495
1354	0.0031185
1366	0.0070345
1378	0.0046255
1390	0.003036
1402	0.0024585
1414	0.000869
1426	0.000792
1438	0.001155
1450	0.002134
1462	0.0041415
1474	0.006259
1486	0.0041525
1498	0.001573
1510	0.0006875
1522	0.000363
1534	0.0002585
1546	0.000187
1558	0.0001705
1570	0.000165
1582	0.000143
1594	0.000132
1606	9.9e-05
1618	9.9e-05
1630	0.00011
1642	7.15e-05
1654	9.9e-05
1666	0.0001155
1678	7.7e-05
1690	7.7e-05
1702	0.00011
1714	7.7e-05
1726	7.15e-05
1738	9.35e-05
1750	4.95e-05
1762	6.6e-05
1774	6.6e-05
1786	4.95e-05
1798	4.95e-05
1810	7.15e-05
1822	4.95e-05
1834	4.95e-05
1846	3.85e-05
1858	4.4e-05
1870	6.05e-05
1882	5.5e-05
1894	4.95e-05
1906	3.85e-05
1918	3.3e-05
1930	4.95e-05
1942	4.4e-05
1954	4.95e-05
1966	4.95e-05
1978	5.5e-05
1990	3.85e-05
2002	4.4e-05
2014	3.85e-05
2026	2.75e-05
2038	4.4e-05
2050	4.95e-05
2062	4.4e-05
2074	3.3e-05
2086	3.3e-05
2098	5.5e-05
2110	5.5e-05
2122	1.1e-05
2134	3.3e-05
2146	0
2158	3.3e-05
2170	2.75e-05
2182	1.65e-05
2194	2.75e-05
2206	3.85e-05
2218	5.5e-06
2230	1.65e-05
2242	3.85e-05
2254	2.75e-05
2266	2.2e-05
2278	4.95e-05
2290	6.05e-05
2302	7.7e-05
2314	3.3e-05
2326	4.4e-05
2338	6.6e-05
2350	4.95e-05
2362	7.15e-05
2374	6.05e-05
2386	7.7e-05
2398	8.25e-05
2410	7.7e-05
2422	9.35e-05
2434	7.7e-05
2446	7.15e-05
2458	7.7e-05
2470	7.15e-05
2482	0.000121
2494	8.25e-05
2506	0.00011
2518	0.000132
2530	0.0001485
2542	0.0001375
2554	0.0001595
2566	0.000143
2578	0.000187
2590	0.000198
2602	0.000242
2614	0.000275
2626	0.0002915
2638	0.00033
2650	0.000374
2662	0.000396
2674	0.000429
2686	0.000451
2698	0.0005335
2710	0.0006215
2722	0.0007535
2734	0.000715
2746	0.000737
2758	0.000803
2770	0.0007425
2782	0.0008745
2794	0.0010835
2806	0.001496
2818	0.0020295
2830	0.0030635
2842	0.0051425
2854	0.0083435
2866	0.013178
2878	0.016258
2890	0.0163735
2902	0.0187605
2914	0.020141
2926	0.023661
2938	0.0335665
2950	0.042504
2962	0.055
2974	0.0273185
2986	0.0082445
2998	0.0033825
3010	0.001925
3022	0.001331
3034	0.001056
3046	0.0008855
3058	0.0008305
3070	0.000803
3082	0.0007425
3094	0.000682
3106	0.0005775
3118	0.0005445
3130	0.000539
3142	0.0005335
3154	0.0005445
3166	0.0005775
3178	0.0006215
3190	0.0006105
3202	0.0005555
3214	0.0005445
3226	0.000495
3238	0.0003905
3250	0.000264
3262	0.00022
3274	0.00022
3286	0.000231
3298	0.000231
3310	0.000187
3322	0.0002145
3334	0.000198
3346	0.000165
3358	0.0001815
3370	0.0002255
3382	0.0001925
3394	0.000143
3406	9.9e-05
3418	6.05e-05
3430	9.35e-05
3442	8.25e-05
3454	9.35e-05
3466	7.15e-05
3478	3.85e-05
3490	6.05e-05
3502	2.2e-05
3514	2.75e-05
3526	2.75e-05
3538	2.75e-05
3550	1.1e-05
3562	4.95e-05
3574	0
3586	2.2e-05
3598	5.5e-05
3610	7.15e-05
3622	2.75e-05
3634	6.6e-05
3646	6.05e-05
3658	5.5e-05
3670	6.05e-05
3682	6.05e-05
3694	4.95e-05
3706	8.8e-05
3718	7.7e-05
3730	6.6e-05
3742	9.35e-05
3754	0.0001045
3766	0.00011
3778	0.0001155
3790	0.00011
3802	0.000143
3814	0.0001925
3826	0.000143
3838	0.0001155
