Infrared Spectrum: 2,2,5,5-Tetramethylhexane
Formula: C 10 H 22
CAS: 1071-81-4
State: gas
Instrument: HP-GC/MS/IRD
Origin: NIST Mass Spectrometry Data Center
1/CM	ABSORBANCE
550	0.0002508
562	0.0001771
574	0.0001155
586	0.0002079
598	0.0001837
610	0.0002904
622	0.0002695
634	0.0002794
646	0.0002475
658	0.000275
670	0.0002552
682	0.0003476
694	0.0003135
706	0.0002948
718	0.0003322
730	0.0002904
742	0.0003179
754	0.0003333
766	0.0003014
778	0.0003047
790	0.0003278
802	0.0002849
814	0.0003047
826	0.0003718
838	0.0002959
850	0.0003058
862	0.00033
874	0.0003135
886	0.0003069
898	0.000429
910	0.0003762
922	0.0003311
934	0.0002959
946	0.0003025
958	0.0002926
970	0.0003157
982	0.0002849
994	0.0002926
1006	0.0002937
1018	0.000275
1030	0.0002783
1042	0.0003025
1054	0.000253
1066	0.0002794
1078	0.0003025
1090	0.000231
1102	0.0002717
1114	0.0003201
1126	0.0003267
1138	0.0003575
1150	0.0003465
1162	0.0003751
1174	0.0004477
1186	0.0004598
1198	0.0003982
1210	0.0004103
1222	0.0005412
1234	0.0008426
1246	0.0008382
1258	0.0004631
1270	0.0003916
1282	0.0004565
1294	0.0005115
1306	0.0004444
1318	0.0003377
1330	0.0003267
1342	0.0003938
1354	0.0008096
1366	0.0016841
1378	0.0013068
1390	0.0008613
1402	0.0007249
1414	0.0003949
1426	0.0003685
1438	0.0003982
1450	0.0005236
1462	0.0009636
1474	0.0014685
1486	0.0010648
1498	0.0004829
1510	0.0003179
1522	0.0002871
1534	0.0002574
1546	0.0001969
1558	0.0002585
1570	0.0002354
1582	0.0002002
1594	0.0001991
1606	0.000209
1618	0.0002233
1630	0.0001936
1642	0.0001925
1654	0.0002376
1666	0.0001826
1678	0.0001881
1690	0.0001925
1702	0.0001903
1714	0.000187
1726	0.0001804
1738	0.0001947
1750	0.0001639
1762	0.0001683
1774	0.0001738
1786	0.0001529
1798	0.0001529
1810	0.0001529
1822	0.0001562
1834	0.0001474
1846	0.0001474
1858	0.0001309
1870	0.0001397
1882	0.0001397
1894	0.0001452
1906	0.0001408
1918	0.0001265
1930	0.0001276
1942	0.0001199
1954	0.0001232
1966	0.0001177
1978	0.0001155
1990	0.0001155
2002	0.0001034
2014	0.0001111
2026	8.91e-05
2038	0.0001023
2050	0.0001001
2062	0.0001045
2074	7.26e-05
2086	7.92e-05
2098	8.69e-05
2110	7.7e-05
2122	8.69e-05
2134	9.35e-05
2146	5.94e-05
2158	6.49e-05
2170	7.7e-05
2182	6.6e-05
2194	5.28e-05
2206	8.14e-05
2218	8.91e-05
2230	5.39e-05
2242	4.07e-05
2254	5.28e-05
2266	5.5e-05
2278	4.07e-05
2290	3.52e-05
2302	1.98e-05
2314	3.3e-05
2326	2.97e-05
2338	5.61e-05
2350	4.62e-05
2362	5.83e-05
2374	4.73e-05
2386	4.73e-05
2398	5.39e-05
2410	5.72e-05
2422	3.41e-05
2434	3.74e-05
2446	3.96e-05
2458	2.42e-05
2470	3.19e-05
2482	3.52e-05
2494	3.3e-05
2506	2.64e-05
2518	3.96e-05
2530	5.61e-05
2542	4.4e-05
2554	4.51e-05
2566	2.2e-05
2578	2.2e-05
2590	3.41e-05
2602	3.96e-05
2614	5.61e-05
2626	5.5e-05
2638	6.71e-05
2650	7.04e-05
2662	7.59e-05
2674	5.5e-05
2686	7.7e-05
2698	0.0001023
2710	9.57e-05
2722	0.0001441
2734	0.0001166
2746	0.000132
2758	0.0001353
2770	0.0001232
2782	0.0001089
2794	0.0001738
2806	0.0002266
2818	0.000297
2830	0.0004136
2842	0.0005962
2854	0.0011385
2866	0.0022066
2878	0.0027456
2890	0.0025278
2902	0.002728
2914	0.0034969
2926	0.0044858
2938	0.0054857
2950	0.008118
2962	0.011
2974	0.0057387
2986	0.0015609
2998	0.0006215
3010	0.0003245
3022	0.0002497
3034	0.000242
3046	0.0001793
3058	0.0001463
3070	0.000187
3082	0.0001309
3094	0.0001342
3106	0.0001298
3118	9.35e-05
3130	9.02e-05
3142	0.0001122
3154	0.000132
3166	0.0001133
3178	0.0001573
3190	0.0001331
3202	0.0001166
3214	0.0001452
3226	0.0001331
3238	0.000132
3250	0.0001078
3262	9.35e-05
3274	6.27e-05
3286	6.82e-05
3298	0.0001144
3310	4.73e-05
3322	4.95e-05
3334	5.72e-05
3346	4.18e-05
3358	9.9e-05
3370	0.0001067
3382	5.83e-05
3394	5.94e-05
3406	5.17e-05
3418	6.05e-05
3430	5.61e-05
3442	4.95e-05
3454	8.25e-05
3466	7.26e-05
3478	4.62e-05
3490	7.37e-05
3502	4.62e-05
3514	2.75e-05
3526	3.63e-05
3538	7.81e-05
3550	5.61e-05
3562	5.61e-05
3574	4.62e-05
3586	3.63e-05
3598	4.84e-05
3610	9.35e-05
3622	6.27e-05
3634	4.95e-05
3646	9.68e-05
3658	5.06e-05
3670	8.03e-05
3682	6.82e-05
3694	4.4e-05
3706	7.81e-05
3718	4.29e-05
3730	4.73e-05
3742	5.72e-05
3754	5.61e-05
3766	7.04e-05
3778	4.62e-05
3790	4.29e-05
3802	6.27e-05
3814	0.0001001
3826	4.84e-05
3838	0.000132
