Infrared Spectrum: 3-Acetylpyrrole
Formula: C 6 H 7 N O
CAS: 1072-82-8
State: gas
Origin: EPA-IR VAPOR PHASE LIBRARY
1/CM	ABSORBANCE
549.8	0.01184
559.445	0.00943
569.09	0.00974
578.734	0.0074119
588.379	0.0078146
598.024	0.00908
607.669	0.01377
617.313	0.01502
626.958	0.015
636.603	0.00995
646.248	0.00906
655.893	0.0111
665.537	0.00965
675.182	0.00883
684.827	0.01024
694.472	0.01176
704.116	0.01626
713.761	0.01523
723.406	0.01129
733.051	0.00863
742.695	0.0078498
752.34	0.0075291
761.985	0.00886
771.63	0.01041
781.275	0.01254
790.919	0.01681
800.564	0.01395
810.209	0.01435
819.854	0.00961
829.498	0.00904
839.143	0.0080759
848.788	0.0080516
858.433	0.0079873
868.078	0.00844
877.722	0.00899
887.367	0.00889
897.012	0.01059
906.657	0.01637
916.301	0.01795
925.946	0.01534
935.591	0.00867
945.236	0.0075968
954.88	0.00828
964.525	0.0086
974.17	0.00927
983.815	0.00923
993.46	0.01086
1003.1	0.01338
1012.75	0.01487
1022.39	0.01801
1032.04	0.01951
1041.68	0.01862
1051.33	0.0156
1060.97	0.01365
1070.62	0.01384
1080.26	0.01193
1089.91	0.01069
1099.55	0.01011
1109.2	0.01167
1118.84	0.01344
1128.49	0.02133
1138.13	0.02224
1147.78	0.01483
1157.42	0.00606
1167.07	0.00476
1176.71	0.00496
1186.36	0.00385
1196	0.00236
1205.64	0.00072
1215.29	0.00172
1224.93	0.00488
1234.58	0.00521
1244.22	0.006211
1253.87	0.0075934
1263.51	0.006657
1273.16	0.007051
1282.8	0.0073813
1292.45	0.01061
1302.09	0.01717
1311.74	0.02216
1321.38	0.0216
1331.03	0.01416
1340.67	0.01297
1350.32	0.01745
1359.96	0.0198
1369.61	0.01897
1379.25	0.01483
1388.9	0.01295
1398.54	0.01343
1408.18	0.01842
1417.83	0.02196
1427.47	0.02012
1437.12	0.01428
1446.76	0.01114
1456.41	0.00989
1466.05	0.01006
1475.7	0.01387
1485.34	0.01954
1494.99	0.02178
1504.63	0.01748
1514.28	0.01224
1523.92	0.01133
1533.57	0.01501
1543.21	0.02344
1552.86	0.02426
1562.5	0.01905
1572.15	0.01213
1581.79	0.01107
1591.44	0.00992
1601.08	0.00851
1610.73	0.00854
1620.37	0.00833
1630.01	0.00853
1639.66	0.00876
1649.3	0.00948
1658.95	0.01129
1668.59	0.01579
1678.24	0.03076
1687.88	0.05826
1697.53	0.0594
1707.17	0.04833
1716.82	0.01824
1726.46	0.01081
1736.11	0.0088
1745.75	0.0078949
1755.4	0.0077641
1765.04	0.007523
1774.69	0.0074349
1784.33	0.007317
1793.98	0.007064
1803.62	0.007038
1813.27	0.0073155
1822.91	0.006957
1832.55	0.006905
1842.2	0.00720006
1851.84	0.006707
1861.49	0.00718699
1871.13	0.00723063
1880.78	0.00719029
1890.42	0.0073162
1900.07	0.007108
1909.71	0.0073032
1919.36	0.0077113
1929	0.0073624
1938.65	0.0074365
1948.29	0.00716284
1957.94	0.0071459
1967.58	0.0072429
1977.23	0.0074221
1986.87	0.0074179
1996.52	0.00722858
2006.16	0.0073226
2015.81	0.007383
2025.45	0.0074763
2035.1	0.006985
2044.74	0.00720467
2054.38	0.00726295
2064.03	0.0075075
2073.67	0.0073903
2083.32	0.0071405
2092.96	0.0070977
2102.61	0.0073389
2112.25	0.0074668
2121.9	0.0073427
2131.54	0.00723768
2141.19	0.0073985
2150.83	0.0074617
2160.48	0.007563
2170.12	0.0073875
2179.77	0.0076282
2189.41	0.0075333
2199.06	0.00763
2208.7	0.0073471
2218.35	0.0074988
2227.99	0.0074644
2237.64	0.0074894
2247.28	0.0074113
2256.92	0.0075349
2266.57	0.0076344
2276.21	0.0079137
2285.86	0.0078792
2295.5	0.0074545
2305.15	0.007572
2314.79	0.0076158
2324.44	0.0076101
2334.08	0.0075093
2343.73	0.0076008
2353.37	0.0077462
2363.02	0.0080638
2372.66	0.0076103
2382.31	0.007583
2391.95	0.0076069
2401.6	0.0078366
2411.24	0.0076366
2420.89	0.0076532
2430.53	0.0073732
2440.18	0.0075527
2449.82	0.0075111
2459.47	0.0078269
2469.11	0.0076664
2478.75	0.0076747
2488.4	0.0078364
2498.04	0.0075746
2507.69	0.0078721
2517.33	0.0079927
2526.98	0.0081007
2536.62	0.00857
2546.27	0.00863
2555.91	0.00844
2565.56	0.0081049
2575.2	0.0075937
2584.85	0.0078995
2594.49	0.0079732
2604.14	0.0076973
2613.78	0.0077549
2623.43	0.00836
2633.07	0.0078851
2642.72	0.0072954
2652.36	0.0078727
2662.01	0.00827
2671.65	0.0074918
2681.29	0.0075736
2690.94	0.0076864
2700.58	0.0077255
2710.23	0.0079142
2719.87	0.0078991
2729.52	0.0077437
2739.16	0.0079568
2748.81	0.0076994
2758.45	0.0077797
2768.1	0.007926
2777.74	0.0077981
2787.39	0.0079603
2797.03	0.0079372
2806.68	0.007793
2816.32	0.0081683
2825.97	0.0079495
2835.61	0.0079439
2845.26	0.00821
2854.9	0.0080249
2864.55	0.00833
2874.19	0.00821
2883.84	0.00839
2893.48	0.0081535
2903.12	0.008107
2912.77	0.00857
2922.41	0.00934
2932.06	0.0096
2941.7	0.01003
2951.35	0.01004
2960.99	0.00994
2970.64	0.00993
2980.28	0.00946
2989.93	0.00933
2999.57	0.00988
3009.22	0.0095
3018.86	0.00963
3028.51	0.00872
3038.15	0.00843
3047.8	0.00835
3057.44	0.00839
3067.09	0.00863
3076.73	0.00845
3086.38	0.00836
3096.02	0.00848
3105.67	0.0077464
3115.31	0.00856
3124.95	0.008021
3134.6	0.00941
3144.24	0.00873
3153.89	0.0078847
3163.53	0.0079953
3173.18	0.0081111
3182.82	0.0076268
3192.47	0.0075818
3202.11	0.0080775
3211.76	0.0075839
3221.4	0.0075797
3231.05	0.0074565
3240.69	0.0078498
3250.34	0.0079009
3259.98	0.00696
3269.63	0.0071097
3279.27	0.0074896
3288.92	0.006719
3298.56	0.006886
3308.21	0.0075225
3317.85	0.0075951
3327.49	0.0071446
3337.14	0.0076164
3346.78	0.00866
3356.43	0.0079573
3366.07	0.00851
3375.72	0.00859
3385.36	0.00859
3395.01	0.0079546
3404.65	0.0076463
3414.3	0.00825
3423.94	0.007544
3433.59	0.0079291
3443.23	0.0076686
3452.88	0.0076406
3462.52	0.0079977
3472.17	0.0088
3481.81	0.01078
3491.46	0.01325
3501.1	0.01858
3510.75	0.02776
3520.39	0.02413
3530.04	0.01721
3539.68	0.00918
3549.32	0.007729
3558.97	0.0071492
3568.61	0.0072712
3578.26	0.0076366
3587.9	0.0075719
3597.55	0.0073416
3607.19	0.007469
3616.84	0.0073429
3626.48	0.006824
3636.13	0.007059
3645.77	0.0076961
3655.42	0.006731
3665.06	0.007041
3674.71	0.0075169
3684.35	0.0075641
3694	0.006914
3703.64	0.006969
3713.29	0.006819
3722.93	0.006748
3732.58	0.0077704
3742.22	0.0078439
3751.86	0.00717898
3761.51	0.006919
3771.15	0.007498
3780.8	0.0077197
3790.44	0.006767
3800.09	0.006521
3809.73	0.0075944
3819.38	0.0071223
3829.02	0.0076319
3838.67	0.006732
3848.31	0.0080573
3857.96	0.0076834
3867.6	0.0075663
3877.25	0.0078122
3886.89	0.0072452
3896.54	0.0077372
3906.18	0.0078546
3915.83	0.0070747
3925.47	0.0076837
3935.12	0.0077164
3944.76	0.0081183
3954.41	0.0078626
3964.05	0.007652
3973.69	0.0076117
3983.34	0.006933
3992.98	0.0074534
