Infrared Spectrum: 3-Amino-5-methylisoxazole
Formula: C 4 H 6 N 2 O
CAS: 1072-67-9
State: gas
Instrument: HP-GC/MS/IRD
Origin: NIST Mass Spectrometry Data Center
1/CM	ABSORBANCE
550	0.0015985
562	0.0021781
574	0.0023483
586	0.0023621
598	0.002622
610	0.0029578
622	0.0029486
634	0.0027761
646	0.0023851
658	0.0020861
670	0.0018285
682	0.001656
694	0.0016261
706	0.0016491
718	0.0016905
730	0.0022172
742	0.0036731
754	0.0053291
766	0.0069644
778	0.0051704
790	0.0034937
802	0.0021022
814	0.0014168
826	0.0011339
838	0.0010235
850	0.0010258
862	0.0010465
874	0.0012581
886	0.0020079
898	0.0028083
910	0.0026933
922	0.0014421
934	0.0006624
946	0.0004347
958	0.0004393
970	0.00069
982	0.0010534
994	0.0013892
1006	0.0013202
1018	0.0010465
1030	0.0007866
1042	0.00046
1054	0.0001794
1066	0.000115
1078	8.05e-05
1090	0.0002047
1102	0.0005911
1114	0.0011109
1126	0.0013547
1138	0.0009315
1150	0.000368
1162	0.0001058
1174	7.59e-05
1186	6.9e-05
1198	3.45e-05
1210	9.89e-05
1222	0.0001472
1234	0.0002277
1246	0.0005405
1258	0.0014099
1270	0.0028566
1282	0.0030291
1294	0.0029026
1306	0.0012857
1318	0.0005037
1330	0.0002967
1342	0.0003151
1354	0.0004462
1366	0.0006325
1378	0.0007383
1390	0.0007429
1402	0.0008372
1414	0.001242
1426	0.0024771
1438	0.0056695
1450	0.0115598
1462	0.0186116
1474	0.017549
1486	0.0087285
1498	0.0051474
1510	0.0049243
1522	0.0041446
1534	0.0023
1546	0.0017342
1558	0.001656
1570	0.0020677
1582	0.0026864
1594	0.0041331
1606	0.0087469
1618	0.0191222
1630	0.023
1642	0.017434
1654	0.0058167
1666	0.0022425
1678	0.0010212
1690	0.0006739
1702	0.0006164
1714	0.0006072
1726	0.0005382
1738	0.0003565
1750	0.0002001
1762	8.05e-05
1774	3.91e-05
1786	3.45e-05
1798	3.22e-05
1810	2.3e-05
1822	2.3e-05
1834	3.22e-05
1846	5.52e-05
1858	8.74e-05
1870	9.66e-05
1882	0.0001311
1894	9.66e-05
1906	6.67e-05
1918	2.99e-05
1930	1.38e-05
1942	1.84e-05
1954	5.29e-05
1966	9.89e-05
1978	0.0001334
1990	0.0001403
2002	0.0001127
2014	8.97e-05
2026	0.0001127
2038	0.0001219
2050	0.0001426
2062	0.0001311
2074	8.51e-05
2086	6.9e-05
2098	7.59e-05
2110	8.74e-05
2122	9.2e-05
2134	0.0001012
2146	8.28e-05
2158	8.05e-05
2170	7.82e-05
2182	8.74e-05
2194	0.0001196
2206	0.0001932
2218	0.0002001
2230	0.0001955
2242	0.0001909
2254	0.0001817
2266	0.0001518
2278	0.0001357
2290	9.66e-05
2302	7.82e-05
2314	6.44e-05
2326	4.6e-05
2338	5.06e-05
2350	9.43e-05
2362	0.0001058
2374	0.0001012
2386	8.97e-05
2398	8.74e-05
2410	8.97e-05
2422	9.89e-05
2434	9.89e-05
2446	0.0001265
2458	8.97e-05
2470	7.36e-05
2482	8.97e-05
2494	0.0001081
2506	7.59e-05
2518	9.89e-05
2530	0.0001081
2542	9.2e-05
2554	9.2e-05
2566	0.0001104
2578	0.0001426
2590	0.0001173
2602	0.0001587
2614	0.0001587
2626	0.0001449
2638	0.0001403
2650	0.0001748
2662	0.0001104
2674	0.0001127
2686	7.13e-05
2698	7.36e-05
2710	0.0001012
2722	0.0001725
2734	0.0001863
2746	0.0002116
2758	0.0001633
2770	0.0001334
2782	0.0001265
2794	0.0001196
2806	0.0001265
2818	0.0001219
2830	0.0001311
2842	0.0001978
2854	0.0003243
2866	0.0005359
2878	0.0006187
2890	0.0005681
2902	0.0004876
2914	0.0006026
2926	0.0011937
2938	0.0019596
2950	0.0019021
2962	0.0010534
2974	0.000828
2986	0.0009062
2998	0.0008671
3010	0.0007337
3022	0.0005911
3034	0.0004692
3046	0.0004485
3058	0.0004301
3070	0.0004577
3082	0.0004462
3094	0.0002967
3106	0.0002691
3118	0.0002277
3130	0.0002277
3142	0.0001518
3154	0.0001403
3166	0.0001748
3178	0.0001426
3190	0.0001771
3202	0.0001932
3214	0.0002208
3226	0.0002461
3238	0.0002553
3250	0.0002047
3262	0.0002277
3274	0.0001794
3286	0.0001518
3298	0.0001311
3310	0.0001472
3322	0.0001196
3334	0.0001219
3346	0.0001219
3358	0.0001564
3370	0.0002806
3382	0.0006095
3394	0.0018929
3406	0.0027025
3418	0.0022954
3430	0.0007843
3442	0.0003887
3454	0.0004876
3466	0.0008625
3478	0.0016836
3490	0.0022287
3502	0.0021804
3514	0.0014536
3526	0.0006969
3538	0.0003634
3550	0.0001771
3562	0.0001656
3574	0.0001794
3586	0.0001725
3598	0.0001518
3610	7.82e-05
3622	9.66e-05
3634	0.0001495
3646	8.51e-05
3658	0.0001265
3670	9.43e-05
3682	0.0001173
3694	8.74e-05
3706	0.0001219
3718	0.0001035
3730	0.0001449
3742	0.0001288
3754	7.59e-05
3766	0.0001173
3778	9.66e-05
3790	8.28e-05
3802	3.45e-05
3814	7.82e-05
3826	0.0001173
3838	4.37e-05
