Infrared Spectrum: 2,6-Dimethylheptane
Formula: C 9 H 20
CAS: 1072-05-5
State: gas
Instrument: HP-GC/MS/IRD
Origin: NIST Mass Spectrometry Data Center
1/CM	ABSORBANCE
550	0.0003894
562	0.0001782
574	3.3e-05
586	0.0001848
598	0.0001936
610	0.0001122
622	0.0001716
634	0.0001848
646	0.0001694
658	0.0001408
670	0.0002002
682	0.000176
694	0.0002046
706	0.0002816
718	0.00033
730	0.0003916
742	0.0002772
754	0.000286
766	0.0003036
778	0.000275
790	0.0003234
802	0.0003124
814	0.0003014
826	0.000396
838	0.0003124
850	0.0003036
862	0.0002552
874	0.0002156
886	0.0002508
898	0.0002662
910	0.0002706
922	0.0003894
934	0.0003542
946	0.0003388
958	0.0002992
970	0.0003058
982	0.0002904
994	0.000264
1006	0.0003036
1018	0.0002838
1030	0.0002816
1042	0.0002662
1054	0.0002816
1066	0.0002706
1078	0.0002178
1090	0.000275
1102	0.0002816
1114	0.0003146
1126	0.0004026
1138	0.0005104
1150	0.0006402
1162	0.0009746
1174	0.0008976
1186	0.0005632
1198	0.0004422
1210	0.00044
1222	0.0004246
1234	0.0004048
1246	0.0003916
1258	0.0003674
1270	0.0004004
1282	0.0004224
1294	0.0004246
1306	0.0004906
1318	0.0005786
1330	0.000759
1342	0.0008514
1354	0.0011264
1366	0.0017292
1378	0.0022176
1390	0.0020944
1402	0.0009482
1414	0.000583
1426	0.0005984
1438	0.0009042
1450	0.0016016
1462	0.0024926
1474	0.002376
1486	0.0012936
1498	0.0006512
1510	0.0003894
1522	0.0002904
1534	0.000264
1546	0.0002486
1558	0.0001958
1570	0.0002002
1582	0.0002508
1594	0.0002288
1606	0.0002222
1618	0.0001826
1630	0.0001628
1642	0.0001144
1654	0.0001276
1666	0.0001386
1678	9.68e-05
1690	0.0001408
1702	0.0001188
1714	0.0001188
1726	0.0001188
1738	0.0001386
1750	0.0001452
1762	0.0001584
1774	0.0001276
1786	0.0001276
1798	0.0001166
1810	0.00011
1822	0.0001144
1834	0.0001144
1846	9.68e-05
1858	8.8e-05
1870	8.8e-05
1882	8.36e-05
1894	8.8e-05
1906	0.0001144
1918	8.36e-05
1930	9.46e-05
1942	7.92e-05
1954	7.48e-05
1966	6.16e-05
1978	7.48e-05
1990	6.16e-05
2002	5.94e-05
2014	4.62e-05
2026	5.72e-05
2038	6.6e-05
2050	6.38e-05
2062	4.84e-05
2074	3.3e-05
2086	7.26e-05
2098	4.18e-05
2110	5.28e-05
2122	5.72e-05
2134	4.84e-05
2146	4.84e-05
2158	5.94e-05
2170	5.5e-05
2182	4.18e-05
2194	4.18e-05
2206	3.96e-05
2218	5.94e-05
2230	3.96e-05
2242	2.42e-05
2254	3.96e-05
2266	4.4e-05
2278	3.08e-05
2290	3.52e-05
2302	1.1e-05
2314	2.86e-05
2326	1.54e-05
2338	2.42e-05
2350	6.6e-06
2362	0
2374	1.76e-05
2386	3.74e-05
2398	1.98e-05
2410	2.42e-05
2422	4.4e-06
2434	6.6e-06
2446	0
2458	2.2e-05
2470	1.76e-05
2482	1.54e-05
2494	4.4e-06
2506	2.64e-05
2518	2.2e-05
2530	2.42e-05
2542	2.86e-05
2554	3.52e-05
2566	5.5e-05
2578	7.7e-05
2590	0.0001232
2602	0.0001232
2614	0.000165
2626	0.0001496
2638	0.0001408
2650	0.0001408
2662	0.0001166
2674	0.000143
2686	0.0001452
2698	0.0001584
2710	0.0002002
2722	0.0002904
2734	0.0003498
2746	0.000319
2758	0.0002904
2770	0.0003476
2782	0.0004334
2794	0.0004686
2806	0.0006842
2818	0.000924
2830	0.0013332
2842	0.0024222
2854	0.0041404
2866	0.0058916
2878	0.0081598
2890	0.0086042
2902	0.0097504
2914	0.0117634
2926	0.013783
2938	0.0150502
2950	0.0158356
2962	0.022
2974	0.014696
2986	0.0043978
2998	0.0019162
3010	0.0010538
3022	0.0006908
3034	0.0005676
3046	0.0004466
3058	0.0004224
3070	0.000374
3082	0.000352
3094	0.0003388
3106	0.0002728
3118	0.0002618
3130	0.0002508
3142	0.000242
3154	0.0002156
3166	0.0002464
3178	0.000264
3190	0.0002552
3202	0.000176
3214	0.000176
3226	0.0001144
3238	7.92e-05
3250	6.6e-05
3262	6.82e-05
3274	5.06e-05
3286	1.32e-05
3298	9.24e-05
3310	7.26e-05
3322	0.0001012
3334	0.0001144
3346	7.04e-05
3358	9.46e-05
3370	0.0001144
3382	0.0001298
3394	4.4e-06
3406	0.0001034
3418	0.0001056
3430	5.5e-05
3442	3.74e-05
3454	7.48e-05
3466	8.8e-05
3478	0.0001012
3490	9.68e-05
3502	7.26e-05
3514	6.82e-05
3526	0.0001012
3538	0.0001056
3550	0.0001012
3562	9.02e-05
3574	0.0001188
3586	7.04e-05
3598	9.68e-05
3610	5.72e-05
3622	8.36e-05
3634	0.0001188
3646	0.0001012
3658	0.0001342
3670	9.46e-05
3682	0.0001056
3694	0.0001342
3706	5.94e-05
3718	0.0001584
3730	9.9e-05
3742	0.0001342
3754	8.8e-05
3766	0.0001364
3778	0.000176
3790	0.000121
3802	0.0001672
3814	0.000187
3826	0.0001584
3838	0.0001496
