Infrared Spectrum: 2-Amino-5-chloropyridine
Formula: C 5 H 5 Cl N 2
CAS: 1072-98-6
State: gas
Instrument: HP-GC/MS/IRD
Origin: NIST Mass Spectrometry Data Center
1/CM	ABSORBANCE
550	0.001491
562	0.002331
574	0.0038178
586	0.005061
598	0.0061152
610	0.0060186
622	0.0044856
634	0.0037212
646	0.0046536
658	0.0066654
670	0.0041496
682	0.0018102
694	0.002919
706	0.0031668
718	0.003087
730	0.003234
742	0.002667
754	0.0022134
766	0.0022302
778	0.002751
790	0.0039102
802	0.0061152
814	0.0088704
826	0.0064974
838	0.0036288
850	0.0021504
862	0.0014868
874	0.0007854
886	0.0006216
898	0.0007896
910	0.001197
922	0.0017052
934	0.0010878
946	0.0005964
958	0.0002478
970	0.000252
982	0.0006426
994	0.0020328
1006	0.003213
1018	0.0027174
1030	0.0014238
1042	0.001134
1054	0.001155
1066	0.000861
1078	0.0006006
1090	0.0008106
1102	0.0036582
1114	0.0080304
1126	0.0084798
1138	0.0065016
1150	0.002205
1162	0.0003024
1174	6.72e-05
1186	3.78e-05
1198	9.66e-05
1210	0.0004956
1222	0.001365
1234	0.0024444
1246	0.002583
1258	0.0017514
1270	0.001176
1282	0.0024108
1294	0.007938
1306	0.0090132
1318	0.0025704
1330	0.000819
1342	0.000546
1354	0.000987
1366	0.002961
1378	0.0120792
1390	0.0223398
1402	0.012747
1414	0.0020622
1426	0.0019488
1438	0.002583
1450	0.0052626
1462	0.0175812
1474	0.042
1486	0.0330246
1498	0.0083874
1510	0.0036876
1522	0.0019698
1534	0.0016674
1546	0.002541
1558	0.004305
1570	0.0059472
1582	0.0090132
1594	0.0175098
1606	0.039291
1618	0.0366828
1630	0.0117054
1642	0.0044016
1654	0.0028056
1666	0.0016674
1678	0.00105
1690	0.0007098
1702	0.0005502
1714	0.0004914
1726	0.0004494
1738	0.0003486
1750	0.0002562
1762	0.0002436
1774	0.00021
1786	0.0001932
1798	0.0002184
1810	0.0003444
1822	0.000462
1834	0.0005376
1846	0.000588
1858	0.0005418
1870	0.000504
1882	0.0005712
1894	0.000609
1906	0.000525
1918	0.0003108
1930	0.0002184
1942	0.0002478
1954	0.0003024
1966	0.0003486
1978	0.000357
1990	0.0003696
2002	0.0003402
2014	0.0003318
2026	0.0003528
2038	0.0003444
2050	0.0002604
2062	0.0002352
2074	0.0002646
2086	0.0003108
2098	0.0003108
2110	0.0003234
2122	0.0003066
2134	0.0002814
2146	0.0003192
2158	0.0002982
2170	0.0002646
2182	0.0002688
2194	0.0003192
2206	0.0003234
2218	0.0003444
2230	0.0003654
2242	0.0003696
2254	0.0003654
2266	0.0003906
2278	0.0004116
2290	0.0003738
2302	0.0003444
2314	0.000357
2326	0.0003234
2338	0.000273
2350	0.0002436
2362	0.0002562
2374	0.0002394
2386	0.0002604
2398	0.0002478
2410	0.000294
2422	0.0003192
2434	0.0003612
2446	0.0003864
2458	0.0004452
2470	0.0003906
2482	0.000315
2494	0.0003192
2506	0.0002646
2518	0.0002268
2530	0.0002184
2542	0.0002688
2554	0.000273
2566	0.000252
2578	0.0003066
2590	0.000315
2602	0.0004158
2614	0.0004536
2626	0.0004158
2638	0.0003276
2650	0.000294
2662	0.000294
2674	0.0003276
2686	0.000357
2698	0.000294
2710	0.0003444
2722	0.0002856
2734	0.0002604
2746	0.0002352
2758	0.0002562
2770	0.0002814
2782	0.0003738
2794	0.0004704
2806	0.0005082
2818	0.0004116
2830	0.0003528
2842	0.0002478
2854	0.0002814
2866	0.0002688
2878	0.0003402
2890	0.0003318
2902	0.0003486
2914	0.0003444
2926	0.0003108
2938	0.0002478
2950	0.0003024
2962	0.0003066
2974	0.000336
2986	0.0003906
2998	0.0005124
3010	0.0009408
3022	0.001911
3034	0.0021462
3046	0.0013356
3058	0.0014574
3070	0.0023268
3082	0.0025074
3094	0.0014994
3106	0.0007224
3118	0.000462
3130	0.0004326
3142	0.00042
3154	0.0004956
3166	0.0005082
3178	0.0006174
3190	0.0006048
3202	0.0004788
3214	0.0004032
3226	0.0003696
3238	0.0003192
3250	0.0002772
3262	0.0002268
3274	0.000252
3286	0.0002688
3298	0.0003108
3310	0.0002814
3322	0.0003318
3334	0.0003024
3346	0.000357
3358	0.0003486
3370	0.0004158
3382	0.0006762
3394	0.0013818
3406	0.0040656
3418	0.0063798
3430	0.0054432
3442	0.0036078
3454	0.0015246
3466	0.0007476
3478	0.0008442
3490	0.0014364
3502	0.0025368
3514	0.0032046
3526	0.003213
3538	0.0025872
3550	0.0018228
3562	0.0010752
3574	0.0005124
3586	0.000357
3598	0.0003108
3610	0.0003192
3622	0.0002604
3634	0.000294
3646	0.0002562
3658	0.000273
3670	0.0003276
3682	0.0002856
3694	0.0002562
3706	0.000273
3718	0.0003318
3730	0.0002646
3742	0.0003024
3754	0.000336
3766	0.0002898
3778	0.0003192
3790	0.000378
3802	0.0004494
3814	0.00042
3826	0.0003822
3838	0.0004242
