Infrared Spectrum: 2-Ethylimidazole
Formula: C 5 H 8 N 2
CAS: 1072-62-4
State: gas
Instrument: HP-GC/MS/IRD
Origin: NIST Mass Spectrometry Data Center
1/CM	ABSORBANCE
550	0.0003702
562	0.0001635
574	8.55e-05
586	6.96e-05
598	0.0001053
610	0.0002784
622	0.0005112
634	0.0003765
646	0.00027
658	0.0002202
670	0.000342
682	0.0007836
694	0.0015102
706	0.002433
718	0.003
730	0.0021873
742	0.0013023
754	0.0005685
766	0.000183
778	7.74e-05
790	2.73e-05
802	6.45e-05
814	8.58e-05
826	0.0002109
838	0.000336
850	0.0006027
862	0.000369
874	0.0002238
886	0.000192
898	0.0001845
910	0.0002295
922	0.0004269
934	0.0005772
946	0.0006324
958	0.0004593
970	0.0003075
982	0.0003549
994	0.0005397
1006	0.0009351
1018	0.0014844
1030	0.0018894
1042	0.0020355
1054	0.0016935
1066	0.001566
1078	0.0013518
1090	0.00102
1102	0.0005391
1114	0.0002577
1126	0.0002517
1138	0.0004995
1150	0.0005313
1162	0.000435
1174	0.0001749
1186	0.0001179
1198	0.000228
1210	0.0003225
1222	0.00033
1234	0.0002634
1246	0.0002037
1258	0.0001611
1270	0.0001482
1282	0.0001401
1294	0.000219
1306	0.0005328
1318	0.0008709
1330	0.0008535
1342	0.0005526
1354	0.0004698
1366	0.0004686
1378	0.0004494
1390	0.0005073
1402	0.0007455
1414	0.0012021
1426	0.0018906
1438	0.0022914
1450	0.0021276
1462	0.0013707
1474	0.0010527
1486	0.0009246
1498	0.000696
1510	0.0003891
1522	0.0004575
1534	0.0013584
1546	0.0023718
1558	0.0021756
1570	0.0008055
1582	0.0003174
1594	0.0001812
1606	9.24e-05
1618	9.18e-05
1630	7.29e-05
1642	7.32e-05
1654	8.07e-05
1666	0.0001062
1678	0.0002046
1690	0.0002892
1702	0.0002718
1714	0.0001398
1726	8.52e-05
1738	5.58e-05
1750	5.94e-05
1762	3.66e-05
1774	5.37e-05
1786	3.84e-05
1798	5.01e-05
1810	3.21e-05
1822	2.85e-05
1834	2.85e-05
1846	1.71e-05
1858	2.64e-05
1870	3.15e-05
1882	2.88e-05
1894	2.4e-05
1906	2.31e-05
1918	1.5e-05
1930	1.71e-05
1942	1.59e-05
1954	2.46e-05
1966	1.59e-05
1978	1.98e-05
1990	3.12e-05
2002	2.67e-05
2014	2.64e-05
2026	1.71e-05
2038	1.83e-05
2050	3.09e-05
2062	3.27e-05
2074	2.04e-05
2086	1.5e-05
2098	2.19e-05
2110	1.14e-05
2122	1.95e-05
2134	2.58e-05
2146	3e-05
2158	3.93e-05
2170	5.31e-05
2182	4.71e-05
2194	5.79e-05
2206	5.79e-05
2218	4.86e-05
2230	4.11e-05
2242	3.63e-05
2254	1.2e-06
2266	2.46e-05
2278	3.24e-05
2290	1.44e-05
2302	1.86e-05
2314	2.67e-05
2326	1.65e-05
2338	9e-06
2350	2.28e-05
2362	4.47e-05
2374	3.06e-05
2386	1.95e-05
2398	3.27e-05
2410	6e-05
2422	7.86e-05
2434	6.87e-05
2446	7.95e-05
2458	7.56e-05
2470	6.27e-05
2482	6.96e-05
2494	6.3e-05
2506	7.86e-05
2518	5.22e-05
2530	6.36e-05
2542	7.47e-05
2554	6.93e-05
2566	6.18e-05
2578	6.45e-05
2590	5.88e-05
2602	5.82e-05
2614	6.72e-05
2626	8.07e-05
2638	7.08e-05
2650	6.45e-05
2662	3.9e-05
2674	5.82e-05
2686	3.87e-05
2698	5.19e-05
2710	7.02e-05
2722	6.3e-05
2734	0.0001104
2746	0.0001155
2758	9.84e-05
2770	0.00012
2782	0.0001035
2794	0.0001341
2806	0.0001593
2818	0.0001995
2830	0.0002871
2842	0.0003969
2854	0.0005514
2866	0.0007671
2878	0.0010755
2890	0.0012975
2902	0.0014979
2914	0.0016458
2926	0.0018054
2938	0.0020862
2950	0.0022365
2962	0.002418
2974	0.0027345
2986	0.0025668
2998	0.0017526
3010	0.000909
3022	0.00054
3034	0.0002871
3046	0.0001998
3058	0.0001488
3070	0.0001512
3082	0.0001626
3094	0.000228
3106	0.0002874
3118	0.0004125
3130	0.0004965
3142	0.0004932
3154	0.0003768
3166	0.0002601
3178	8.94e-05
3190	7.47e-05
3202	6.3e-05
3214	5.64e-05
3226	2.88e-05
3238	2.37e-05
3250	2.19e-05
3262	7.77e-05
3274	3.84e-05
3286	3.33e-05
3298	4.65e-05
3310	4.05e-05
3322	5.01e-05
3334	4.44e-05
3346	3.81e-05
3358	4.89e-05
3370	5.19e-05
3382	4.56e-05
3394	4.47e-05
3406	5.85e-05
3418	6.12e-05
3430	8.88e-05
3442	0.0001086
3454	0.0002652
3466	0.0005217
3478	0.0010134
3490	0.0016932
3502	0.001992
3514	0.0018378
3526	0.0009675
3538	0.0003135
3550	9.42e-05
3562	5.4e-05
3574	9.24e-05
3586	4.74e-05
3598	4.14e-05
3610	1.38e-05
3622	3e-05
3634	1.95e-05
3646	5.58e-05
3658	3.84e-05
3670	4.92e-05
3682	2.97e-05
3694	2.79e-05
3706	2.49e-05
3718	5.97e-05
3730	5.4e-06
3742	5.13e-05
3754	1.32e-05
3766	3e-06
3778	4.14e-05
3790	3.84e-05
3802	4.44e-05
3814	3.72e-05
3826	5.76e-05
3838	2.55e-05
