Infrared Spectrum: Dodecyl isothiocyanate
Formula: C 13 H 25 N S
CAS: 1072-32-8
State: gas
Origin: EPA-IR VAPOR PHASE LIBRARY
1/CM	ABSORBANCE
549.8	0.008443
559.445	0.007443
569.09	0.006113
578.734	0.005523
588.379	0.004153
598.024	0.003663
607.669	0.003013
617.313	0.002373
626.958	0.002133
636.603	0.002093
646.248	0.002213
655.893	0.002883
665.537	0.002823
675.182	0.002683
684.827	0.002923
694.472	0.004393
704.116	0.006013
713.761	0.007163
723.406	0.006953
733.051	0.005903
742.695	0.004963
752.34	0.003893
761.985	0.003793
771.63	0.003513
781.275	0.002723
790.919	0.002443
800.564	0.002273
810.209	0.002093
819.854	0.001993
829.498	0.001453
839.143	0.001693
848.788	0.001603
858.433	0.001683
868.078	0.001943
877.722	0.001973
887.367	0.001973
897.012	0.002243
906.657	0.002323
916.301	0.002463
925.946	0.002443
935.591	0.002513
945.236	0.002513
954.88	0.002563
964.525	0.002633
974.17	0.002303
983.815	0.002353
993.46	0.002313
1003.1	0.002423
1012.75	0.002453
1022.39	0.002933
1032.04	0.002833
1041.68	0.002793
1051.33	0.003283
1060.97	0.003163
1070.62	0.003603
1080.26	0.003233
1089.91	0.003413
1099.55	0.003243
1109.2	0.002933
1118.84	0.003593
1128.49	0.002833
1138.13	0.002903
1147.78	0.002153
1157.42	0.002893
1167.07	0.002663
1176.71	0.002833
1186.36	0.002793
1196	0.002773
1205.64	0.002783
1215.29	0.002883
1224.93	0.003153
1234.58	0.004043
1244.22	0.004383
1253.87	0.004983
1263.51	0.005433
1273.16	0.006323
1282.8	0.007343
1292.45	0.009413
1302.09	0.012033
1311.74	0.014473
1321.38	0.016483
1331.03	0.023063
1340.67	0.038233
1350.32	0.047383
1359.96	0.035163
1369.61	0.023693
1379.25	0.014123
1388.9	0.008753
1398.54	0.005863
1408.18	0.004943
1417.83	0.005123
1427.47	0.006593
1437.12	0.011363
1446.76	0.021583
1456.41	0.036163
1466.05	0.035943
1475.7	0.017013
1485.34	0.007523
1494.99	0.004363
1504.63	0.003013
1514.28	0.002303
1523.92	0.001823
1533.57	0.001643
1543.21	0.001343
1552.86	0.001253
1562.5	0.0011097
1572.15	0.0010844
1581.79	0.0010685
1591.44	0.0008139
1601.08	0.0007802
1610.73	0.000855
1620.37	0.0007999
1630.01	0.0007042
1639.66	0.0007293
1649.3	0.0008452
1658.95	0.0006021
1668.59	0.0007204
1678.24	0.0006897
1687.88	0.0006161
1697.53	0.0005565
1707.17	0.0006868
1716.82	0.0006064
1726.46	0.0006333
1736.11	0.0006358
1745.75	0.0005903
1755.4	0.000716
1765.04	0.0007228
1774.69	0.000669
1784.33	0.0007405
1793.98	0.0007701
1803.62	0.0008172
1813.27	0.0008657
1822.91	0.000983
1832.55	0.001183
1842.2	0.001293
1851.84	0.001533
1861.49	0.001893
1871.13	0.002273
1880.78	0.002873
1890.42	0.003623
1900.07	0.004583
1909.71	0.005683
1919.36	0.007183
1929	0.008963
1938.65	0.011423
1948.29	0.014423
1957.94	0.018353
1967.58	0.023813
1977.23	0.031183
1986.87	0.041643
1996.52	0.056223
2006.16	0.076433
2015.81	0.103633
2025.45	0.140053
2035.1	0.186483
2044.74	0.237473
2054.38	0.276033
2064.03	0.281733
2073.67	0.249833
2083.32	0.197973
2092.96	0.149363
2102.61	0.114063
2112.25	0.090313
2121.9	0.074373
2131.54	0.063373
2141.19	0.055473
2150.83	0.049953
2160.48	0.045983
2170.12	0.043293
2179.77	0.041453
2189.41	0.039703
2199.06	0.036543
2208.7	0.031003
2218.35	0.024613
2227.99	0.018833
2237.64	0.014183
2247.28	0.010813
2256.92	0.008463
2266.57	0.006733
2276.21	0.005493
2285.86	0.004563
2295.5	0.003813
2305.15	0.003263
2314.79	0.002823
2324.44	0.002333
2334.08	0.002113
2343.73	0.001953
2353.37	0.001713
2363.02	0.001533
2372.66	0.001383
2382.31	0.001323
2391.95	0.001273
2401.6	0.001203
2411.24	0.001183
2420.89	0.0011189
2430.53	0.001183
2440.18	0.0011277
2449.82	0.0010453
2459.47	0.0010254
2469.11	0.0010743
2478.75	0.0011177
2488.4	0.001155
2498.04	0.001293
2507.69	0.001343
2517.33	0.001553
2526.98	0.001663
2536.62	0.001813
2546.27	0.001923
2555.91	0.001943
2565.56	0.002063
2575.2	0.002173
2584.85	0.002313
2594.49	0.002383
2604.14	0.002333
2613.78	0.002203
2623.43	0.002323
2633.07	0.002463
2642.72	0.002533
2652.36	0.002853
2662.01	0.003193
2671.65	0.003823
2681.29	0.004283
2690.94	0.004493
2700.58	0.004753
2710.23	0.005173
2719.87	0.005853
2729.52	0.006453
2739.16	0.006723
2748.81	0.006493
2758.45	0.006223
2768.1	0.006173
2777.74	0.006203
2787.39	0.006733
2797.03	0.007813
2806.68	0.009103
2816.32	0.010733
2825.97	0.013683
2835.61	0.018763
2845.26	0.031133
2854.9	0.067933
2864.55	0.104293
2874.19	0.082733
2883.84	0.068603
2893.48	0.061973
2903.12	0.072623
2912.77	0.108013
2922.41	0.182753
2932.06	0.273703
2941.7	0.237533
2951.35	0.162323
2960.99	0.115183
2970.64	0.082523
2980.28	0.042353
2989.93	0.023573
2999.57	0.015443
3009.22	0.011263
3018.86	0.008633
3028.51	0.006813
3038.15	0.005493
3047.8	0.004533
3057.44	0.003803
3067.09	0.003133
3076.73	0.002823
3086.38	0.002313
3096.02	0.002163
3105.67	0.001923
3115.31	0.001723
3124.95	0.001573
3134.6	0.001523
3144.24	0.001453
3153.89	0.001333
3163.53	0.001253
3173.18	0.0010256
3182.82	0.0009911
3192.47	0.0009474
3202.11	0.000764
3211.76	0.0006019
3221.4	0.0004467
3231.05	0.0006778
3240.69	0.0003986
3250.34	0.0005304
3259.98	0.00021637
3269.63	0.00022233
3279.27	0.0002966
3288.92	0.0003435
3298.56	0.0003405
3308.21	0.000192822
3317.85	0.00022569
3327.49	0.00026011
3337.14	0.00025366
3346.78	0.0002914
3356.43	0.0003589
3366.07	0.0004445
3375.72	0.0003218
3385.36	0.0003298
3395.01	0.0003555
3404.65	0.0003016
3414.3	0.0005424
3423.94	0.00026554
3433.59	0.00022894
3443.23	0.0003364
3452.88	0.0003072
3462.52	0.0003164
3472.17	0.0001676
3481.81	0.0003129
3491.46	0.0001759
3501.1	0.00025077
3510.75	0.000182091
3520.39	0.00020839
3530.04	0.000348
3539.68	0.00017482
3549.32	0.0003909
3558.97	0.000190923
3568.61	0.00021287
3578.26	0.0003545
3587.9	0.0001103
3597.55	0.0003942
3607.19	0.0004019
3616.84	0.0005867
3626.48	0.0007465
3636.13	0.0005936
3645.77	0.0005875
3655.42	0.0005655
3665.06	0.0005012
3674.71	0.0004656
3684.35	0.0004871
3694	0.0004207
3703.64	0.0005209
3713.29	0.000525
3722.93	0.0004799
3732.58	0.000506
3742.22	0.0004952
3751.86	0.0006019
3761.51	0.000354
3771.15	0.0004729
3780.8	0.0006692
3790.44	0.0006142
3800.09	0.000834
3809.73	0.0005911
3819.38	0.0006691
3829.02	0.0007817
3838.67	0.0007244
3848.31	0.0006752
3857.96	0.0006177
3867.6	0.0008441
3877.25	0.0009413
3886.89	0.0007087
3896.54	0.0008026
3906.18	0.0010101
3915.83	0.0008992
3925.47	0.0008744
3935.12	0.0009557
3944.76	0.0008124
3954.41	0.0009654
3964.05	0.0011649
3973.69	0.001503
3983.34	0.001573
3992.98	0.001563
