Infrared Spectrum: Vinylimidazole
Formula: C 5 H 6 N 2
CAS: 1072-63-5
State: gas
Instrument: HP-GC/MS/IRD
Origin: NIST Mass Spectrometry Data Center
1/CM	ABSORBANCE
550	6.5e-05
562	0.0001118
574	0.0004368
586	0.0011986
598	0.0018226
610	0.0015964
622	0.0017316
634	0.002509
646	0.0049166
658	0.005148
670	0.0044668
682	0.0020904
694	0.0023608
706	0.003822
718	0.0072644
730	0.0045058
742	0.0029874
754	0.0012688
766	0.0007878
778	0.0014326
790	0.002821
802	0.0041028
814	0.004862
826	0.00338
838	0.0025064
850	0.0030108
862	0.0046904
874	0.0073008
886	0.007709
898	0.0058786
910	0.0038714
922	0.0021684
934	0.00247
946	0.0032474
958	0.004238
970	0.0033358
982	0.003536
994	0.0056602
1006	0.0052156
1018	0.0034112
1030	0.002119
1042	0.0040872
1054	0.0052494
1066	0.0065312
1078	0.0052104
1090	0.004732
1102	0.0029042
1114	0.002886
1126	0.0011726
1138	0.00026
1150	5.72e-05
1162	9.1e-05
1174	0.0001014
1186	0.0001872
1198	0.0011154
1210	0.0076128
1222	0.0140868
1234	0.015041
1246	0.00494
1258	0.0025844
1270	0.0060372
1282	0.0086112
1294	0.0079274
1306	0.0050024
1318	0.0035828
1330	0.002587
1342	0.0016484
1354	0.0010972
1366	0.001781
1378	0.0019838
1390	0.0015678
1402	0.0013598
1414	0.0019162
1426	0.0023634
1438	0.0027846
1450	0.0035594
1462	0.0059566
1474	0.0175916
1486	0.0251784
1498	0.025753
1510	0.0101738
1522	0.006994
1534	0.0028548
1546	0.0017524
1558	0.002301
1570	0.0031122
1582	0.0032162
1594	0.0024544
1606	0.003081
1618	0.0051506
1630	0.0124644
1642	0.0214188
1654	0.0221208
1666	0.012025
1678	0.0041262
1690	0.0017654
1702	0.0013234
1714	0.0010686
1726	0.0006136
1738	0.0004082
1750	0.0003952
1762	0.0002938
1774	0.0002496
1786	0.000169
1798	0.0001066
1810	6.24e-05
1822	2.08e-05
1834	4.68e-05
1846	5.72e-05
1858	3.9e-05
1870	0.0001508
1882	0.000312
1894	0.000429
1906	0.0003198
1918	0.0001846
1930	0.0001378
1942	0.0001196
1954	0.0001378
1966	6.76e-05
1978	4.42e-05
1990	4.42e-05
2002	3.12e-05
2014	3.38e-05
2026	9.62e-05
2038	0.0001222
2050	0.0001144
2062	7.02e-05
2074	8.32e-05
2086	0.0001066
2098	9.1e-05
2110	6.5e-05
2122	9.62e-05
2134	0.0001352
2146	0.0001586
2158	0.000143
2170	6.24e-05
2182	2.08e-05
2194	3.38e-05
2206	3.9e-05
2218	4.94e-05
2230	2.86e-05
2242	1.82e-05
2254	2.34e-05
2266	9.62e-05
2278	0.0001222
2290	0.0001924
2302	0.0002028
2314	0.0002106
2326	0.0001794
2338	0.000117
2350	8.06e-05
2362	0.0001482
2374	0.000143
2386	0.0001482
2398	0.0001872
2410	0.000208
2422	0.0002002
2434	0.0001768
2446	9.1e-05
2458	0.0001092
2470	0.0001274
2482	0.0001066
2494	0.0001794
2506	0.000182
2518	0.000208
2530	0.0001924
2542	0.0002158
2554	0.0002548
2566	0.0002834
2578	0.0002496
2590	0.0002938
2602	0.0002912
2614	0.0002366
2626	0.0002288
2638	0.0002184
2650	0.0002652
2662	0.0002678
2674	0.0002418
2686	0.0002366
2698	0.0003172
2710	0.0003484
2722	0.0002418
2734	0.0001664
2746	0.0002028
2758	0.0001898
2770	0.000208
2782	0.000221
2794	0.000286
2806	0.0002574
2818	0.0002288
2830	0.0001612
2842	0.0001534
2854	0.0002262
2866	0.0002002
2878	0.000195
2890	0.0001638
2902	0.0001482
2914	0.0001456
2926	0.0001872
2938	0.0002392
2950	0.0002912
2962	0.0003432
2974	0.0003042
2986	0.000338
2998	0.0004602
3010	0.0005096
3022	0.0004732
3034	0.0005226
3046	0.000806
3058	0.0008944
3070	0.000832
3082	0.0007826
3094	0.0010582
3106	0.0016016
3118	0.0021502
3130	0.002054
3142	0.001352
3154	0.000767
3166	0.0004966
3178	0.0002522
3190	0.000169
3202	0.0001768
3214	9.88e-05
3226	5.98e-05
3238	9.62e-05
3250	8.84e-05
3262	3.9e-05
3274	0.000104
3286	0.0001144
3298	0.0001768
3310	0.0001404
3322	0.0001872
3334	0.0001222
3346	0.0001196
3358	5.46e-05
3370	8.84e-05
3382	0.0001248
3394	0.0001092
3406	6.76e-05
3418	7.28e-05
3430	5.72e-05
3442	5.72e-05
3454	7.28e-05
3466	0.000117
3478	7.54e-05
3490	9.1e-05
3502	2.86e-05
3514	4.42e-05
3526	4.16e-05
3538	7.28e-05
3550	0.0001924
3562	8.32e-05
3574	8.06e-05
3586	6.76e-05
3598	8.06e-05
3610	8.84e-05
3622	5.2e-05
3634	1.82e-05
3646	9.88e-05
3658	0.0001248
3670	5.72e-05
3682	9.1e-05
3694	9.36e-05
3706	8.58e-05
3718	7.8e-05
3730	0.0001092
3742	0.0001274
3754	0.0001248
3766	0.0001196
3778	7.8e-05
3790	8.32e-05
3802	0.0001404
3814	0.0001508
3826	0.0001118
3838	0.0001378
