Infrared Spectrum: 2-OXAZOLANONE, 5-METHYL-
Formula: C4 H7 N O2
CAS: 1072-70-4
State: LIQUID (NEAT)
Class: COBLENTZ III
Instrument: PERKIN-ELMER 521 (GRATING)
Sampling: TRANSMISSION
Path length: CAPILLARY
Resolution: 4
Origin: SOUTHERN RESEARCH INSTITUTE
1/CM	TRANSMITTANCE
262.533	0.057
273.087	0.06
283.641	0.066
294.195	0.09
304.75	0.132
315.304	0.148
325.858	0.191
336.412	0.238
346.966	0.313
357.52	0.387
368.074	0.461
378.629	0.522
389.183	0.582
399.737	0.633
410.291	0.675
420.845	0.7
431.399	0.704
441.953	0.709
452.508	0.728
463.062	0.755
473.616	0.763
484.17	0.762
494.724	0.751
505.278	0.727
515.832	0.675
526.387	0.662
536.941	0.707
547.495	0.719
558.049	0.713
568.603	0.706
579.157	0.694
589.711	0.682
600.266	0.67
610.82	0.664
621.374	0.661
631.928	0.662
642.482	0.665
653.036	0.67
663.59	0.678
674.145	0.678
684.699	0.666
695.253	0.653
705.807	0.65
716.361	0.664
726.915	0.682
737.469	0.699
748.024	0.711
758.578	0.6371
769.132	0.631
779.686	0.787
790.24	0.818
800.794	0.822
811.348	0.82
821.903	0.808
832.457	0.742
843.011	0.744
853.565	0.824
864.119	0.837
874.673	0.837
885.227	0.828
895.782	0.797
906.336	0.6901
916.89	0.573
927.444	0.643
937.998	0.615
948.552	0.608
959.107	0.4801
969.661	0.5859
980.215	0.742
990.769	0.769
1001.32	0.758
1011.88	0.72
1022.43	0.64
1032.99	0.565
1043.54	0.503
1054.09	0.444
1064.65	0.417
1075.2	0.431
1085.76	0.511
1096.31	0.569
1106.86	0.623
1117.42	0.707
1127.97	0.737
1138.53	0.769
1149.08	0.779
1159.64	0.774
1170.19	0.769
1180.74	0.746
1191.3	0.686
1201.85	0.583
1212.41	0.548
1222.96	0.4561
1233.51	0.387
1244.07	0.429
1254.62	0.604
1265.18	0.719
1275.73	0.719
1286.28	0.674
1296.84	0.627
1307.39	0.628
1317.95	0.664
1328.5	0.686
1339.06	0.603
1349.61	0.524
1360.16	0.58
1370.72	0.5139
1381.27	0.446
1391.83	0.587
1402.38	0.62
1412.93	0.573
1423.49	0.536
1434.04	0.591
1444.6	0.61
1455.15	0.706
1465.71	0.771
1476.26	0.7079
1486.81	0.582
1497.37	0.765
1507.92	0.833
1518.48	0.838
1529.03	0.816
1539.58	0.801
1550.14	0.83
1560.69	0.855
1571.25	0.858
1581.8	0.859
1592.36	0.859
1602.91	0.853
1613.46	0.846
1624.02	0.838
1634.57	0.828
1645.13	0.805
1655.68	0.786
1666.23	0.744
1676.79	0.666
1687.34	0.5609
1697.9	0.443
1708.45	0.286
1719	0.199
1729.56	0.165
1740.11	0.16
1750.67	0.174
1761.22	0.206
1771.78	0.28
1782.33	0.4481
1792.88	0.61
1803.44	0.677
1813.99	0.724
1824.55	0.761
1835.1	0.783
1845.65	0.797
1856.21	0.803
1866.76	0.795
1877.32	0.786
1887.87	0.795
1898.43	0.817
1908.98	0.835
1919.53	0.842
1930.09	0.843
1940.64	0.849
1951.2	0.858
1961.75	0.86
1972.3	0.862
1982.86	0.866
1993.41	0.862
2003.97	0.864
2014.52	0.866
2025.08	0.867
2035.63	0.868
2046.18	0.872
2056.74	0.874
2067.29	0.875
2077.85	0.874
2088.4	0.874
2098.95	0.874
2109.51	0.876
2120.06	0.874
2130.62	0.8741
2141.17	0.8769
2151.72	0.877
2162.28	0.879
2172.83	0.879
2183.39	0.8791
2193.94	0.8787
2204.5	0.8787
2215.05	0.879
2225.6	0.881
2236.16	0.883
2246.71	0.881
2257.27	0.881
2267.82	0.88
2278.37	0.88
2288.93	0.88
2299.48	0.8792
2310.04	0.875
2320.59	0.872
2331.15	0.871
2341.7	0.871
2352.25	0.871
2362.81	0.872
2373.36	0.871
2383.92	0.872
2394.47	0.872
2405.02	0.871
2415.58	0.867
2426.13	0.864
2436.69	0.8623
2447.24	0.862
2457.79	0.858
2468.35	0.855
2478.9	0.85
2489.46	0.849
2500.01	0.849
2510.57	0.851
2521.12	0.854
2531.67	0.8613
2542.23	0.863
2552.78	0.863
2563.34	0.8624
2573.89	0.862
2584.44	0.863
2595	0.862
2605.55	0.862
2616.11	0.863
2626.66	0.863
2637.22	0.864
2647.77	0.864
2658.32	0.862
2668.88	0.858
2679.43	0.854
2689.99	0.85
2700.54	0.8439
2711.09	0.8375
2721.65	0.8325
2732.2	0.826
2742.76	0.823
2753.31	0.824
2763.87	0.8285
2774.42	0.826
2784.97	0.8205
2795.53	0.8135
2806.08	0.7995
2816.64	0.792
2827.19	0.7825
2837.74	0.769
2848.3	0.7527
2858.85	0.7291
2869.41	0.6979
2879.96	0.6629
2890.51	0.6422
2901.07	0.6394
2911.62	0.6614
2922.18	0.6628
2932.73	0.6468
2943.29	0.6734
2953.84	0.6696
2964.39	0.6352
2974.95	0.5779
2985.5	0.5727
2996.06	0.6557
3006.61	0.7357
3017.16	0.7827
3027.72	0.7903
3038.27	0.791
3048.83	0.784
3059.38	0.7771
3069.94	0.767
3080.49	0.7544
3091.04	0.7326
3101.6	0.7145
3112.15	0.6964
3122.71	0.669
3133.26	0.661
3143.81	0.6085
3154.37	0.5938
3164.92	0.5828
3175.48	0.5728
3186.03	0.561
3196.59	0.548
3207.14	0.5376
3217.69	0.5164
3228.25	0.4978
3238.8	0.4723
3249.36	0.455
3259.91	0.4367
3270.46	0.4267
3281.02	0.4215
3291.57	0.417
3302.13	0.417
3312.68	0.418
3323.23	0.4251
3333.79	0.4394
3344.34	0.4522
3354.9	0.4671
3365.45	0.4882
3376.01	0.5091
3386.56	0.5242
3397.11	0.5442
3407.67	0.5651
3418.22	0.5891
3428.78	0.6202
3439.33	0.6563
3449.88	0.6923
3460.44	0.7231
3470.99	0.753
3481.55	0.7781
3492.1	0.7971
3502.66	0.816
3513.21	0.832
3523.76	0.839
3534.32	0.846
3544.87	0.854
3555.43	0.858
3565.98	0.86
3576.53	0.86
3587.09	0.863
3597.64	0.8659
3608.2	0.8699
3618.75	0.872
3629.3	0.874
3639.86	0.8788
3650.41	0.88
3660.97	0.883
3671.52	0.883
3682.08	0.884
3692.63	0.8849
3703.18	0.885
3713.74	0.885
3724.29	0.884
3734.85	0.8849
3745.4	0.884
3755.95	0.884
3766.51	0.884
3777.06	0.884
3787.62	0.884
3798.17	0.883
3808.73	0.884
3819.28	0.881
3829.83	0.881
3840.39	0.8814
3850.94	0.8808
3861.5	0.88
3872.05	0.88
3882.6	0.88
3893.16	0.879
3903.71	0.877
3914.27	0.876
3924.82	0.876
3935.38	0.876
3945.93	0.877
3956.48	0.875
3967.04	0.876
3977.59	0.874
3988.15	0.874
3998.7	0.876
