Infrared Spectrum: 2,7-Dimethyloctane
Formula: C 10 H 22
CAS: 1072-16-8
State: gas
Instrument: HP-GC/MS/IRD
Origin: NIST Mass Spectrometry Data Center
1/CM	ABSORBANCE
550	0.0001599
562	0.0001755
574	0.0002184
586	0.0001404
598	7.41e-05
610	8.19e-05
622	9.75e-05
634	0.0001248
646	0.0001911
658	0.0001404
670	7.8e-05
682	0.0001287
694	0.0001833
706	0.000312
718	0.0004017
730	0.0004095
742	0.0003159
754	0.000234
766	0.0002145
778	0.0001911
790	0.0001677
802	0.0002145
814	0.0002418
826	0.000273
838	0.0002535
850	0.0002262
862	0.0002028
874	0.0002457
886	0.0001872
898	0.0002301
910	0.0003198
922	0.0004329
934	0.0003627
946	0.0003705
958	0.000351
970	0.0002574
982	0.0001404
994	5.46e-05
1006	1.17e-05
1018	1.95e-05
1030	9.75e-05
1042	0.0001482
1054	0.0002652
1066	0.0003705
1078	0.0004329
1090	0.0004524
1102	0.000429
1114	0.0003783
1126	0.0005109
1138	0.0006318
1150	0.0008424
1162	0.0013572
1174	0.0013026
1186	0.0006552
1198	0.0006006
1210	0.0005811
1222	0.000624
1234	0.0006435
1246	0.000624
1258	0.0006552
1270	0.0006942
1282	0.0007137
1294	0.0007449
1306	0.0009009
1318	0.0010023
1330	0.0013533
1342	0.0014976
1354	0.0020475
1366	0.0031278
1378	0.0036543
1390	0.0033657
1402	0.0014625
1414	0.0008931
1426	0.0010101
1438	0.0014547
1450	0.0028275
1462	0.0044421
1474	0.0041223
1486	0.0020982
1498	0.0009945
1510	0.0002925
1522	0.0002106
1534	0.0002964
1546	0.0001443
1558	1.17e-05
1570	0.0003237
1582	0.0003783
1594	0.0003705
1606	0.0003588
1618	0.0002496
1630	0.0002964
1642	0.0002574
1654	6.24e-05
1666	0.0002535
1678	0.000195
1690	0.0002301
1702	6.63e-05
1714	0.0001365
1726	0.0002613
1738	0.0001053
1750	5.07e-05
1762	0.0001521
1774	0.0001326
1786	0.0001404
1798	0.0001638
1810	0.0001911
1822	0.0001677
1834	0.0001989
1846	0.0001209
1858	0.0002223
1870	0.0001521
1882	0.0001989
1894	0.0001989
1906	0.0002145
1918	0.0001326
1930	0.0001677
1942	0.0001326
1954	0.0001755
1966	0.0001521
1978	0.0001599
1990	0.0001365
2002	0.0001599
2014	0.0001365
2026	0.000156
2038	0.0001482
2050	0.0001365
2062	0.0001443
2074	0.0001404
2086	0.0001209
2098	0.0001521
2110	0.0001287
2122	0.0001248
2134	0.0001053
2146	0.0001131
2158	0.0001326
2170	0.0001131
2182	0.0001287
2194	0.0001131
2206	0.0001053
2218	0.0001014
2230	8.97e-05
2242	7.8e-05
2254	6.63e-05
2266	8.19e-05
2278	8.19e-05
2290	8.97e-05
2302	5.46e-05
2314	1.95e-05
2326	1.17e-05
2338	3.9e-05
2350	1.56e-05
2362	1.17e-05
2374	4.68e-05
2386	9.75e-05
2398	9.36e-05
2410	0.0001014
2422	0.0001053
2434	0.000117
2446	0.0001092
2458	0.0001131
2470	0.0001131
2482	0.0001287
2494	0.0001404
2506	0.0001287
2518	0.0001599
2530	0.0001677
2542	0.0001872
2554	0.0002145
2566	0.0002418
2578	0.0002808
2590	0.0003471
2602	0.0003666
2614	0.0004095
2626	0.0004368
2638	0.000429
2650	0.0004173
2662	0.0004368
2674	0.0004485
2686	0.0004758
2698	0.0005031
2710	0.0005694
2722	0.0007293
2734	0.0008151
2746	0.00078
2758	0.0007839
2770	0.0008697
2782	0.0009672
2794	0.0011661
2806	0.0014742
2818	0.0019227
2830	0.0027261
2842	0.0048789
2854	0.008853
2866	0.0123201
2878	0.0156078
2890	0.0155532
2902	0.0179361
2914	0.0231933
2926	0.0298155
2938	0.0317343
2950	0.0292344
2962	0.039
2974	0.0251121
2986	0.0080067
2998	0.0036933
3010	0.0021489
3022	0.0014586
3034	0.0011544
3046	0.0010257
3058	0.0009555
3070	0.0008619
3082	0.0008268
3094	0.0007488
3106	0.000702
3118	0.0006513
3130	0.0005967
3142	0.0006162
3154	0.000585
3166	0.0005889
3178	0.0006006
3190	0.0005343
3202	0.0004368
3214	0.0003666
3226	0.0002964
3238	0.0002223
3250	0.0002301
3262	0.0002418
3274	0.000195
3286	0.0002106
3298	0.0002184
3310	0.0002535
3322	0.0002379
3334	0.0002379
3346	0.000273
3358	0.0002496
3370	0.0002379
3382	0.0002574
3394	0.0002262
3406	0.0002223
3418	0.0002028
3430	0.000195
3442	0.0001716
3454	0.0001833
3466	0.0001755
3478	0.0001677
3490	0.0001677
3502	0.000117
3514	0.0001911
3526	0.0001209
3538	0.0002106
3550	0.0001599
3562	0.0001716
3574	0.0002262
3586	9.36e-05
3598	0.0001872
3610	4.29e-05
3622	0.0001599
3634	0.0001989
3646	0.0001521
3658	0.0001755
3670	8.97e-05
3682	0.0002535
3694	0.0002145
3706	0.0002301
3718	0.000234
3730	0.000195
3742	3.12e-05
3754	0.0001872
3766	0.0002808
3778	0.0003198
3790	0.0003237
3802	0.0002652
3814	0.0003003
3826	0.0003744
3838	0.0002808
