Infrared Spectrum: Dibromophenylphosphine
Formula: C 6 H 5 Br 2 P
CAS: 1073-47-8
State: gas
Origin: EPA-IR VAPOR PHASE LIBRARY
1/CM	ABSORBANCE
501.5	0.00241082
513.074	0.00156082
524.648	0.000650623
536.222	0.000590423
547.796	0.000376523
559.37	0.000300123
570.944	0.000311223
582.518	0.000259323
594.092	0.000339523
605.666	0.000288123
617.24	0.000396023
628.814	0.000319123
640.388	0.000554223
651.962	0.000952623
663.536	0.00272082
675.11	0.00580082
686.684	0.00998082
698.258	0.00793082
709.832	0.00416082
721.406	0.00388082
732.98	0.00769082
744.554	0.00904082
756.128	0.00381082
767.702	0.00177082
779.276	0.000699223
790.85	0.000580023
802.423	0.000485623
813.997	0.000314423
825.571	0.000246723
837.145	0.000139623
848.719	0.000241623
860.293	0.000146323
871.867	0.000160823
883.441	0.000100043
895.015	0.000145223
906.589	7.6113e-05
918.163	0.000103523
929.737	0.000216223
941.311	0.000346423
952.885	0.000298023
964.459	0.000146323
976.033	0.000112123
987.607	0.000490023
999.181	0.00181082
1010.76	0.000475423
1022.33	0.000605223
1033.9	0.000391923
1045.48	0.000598023
1057.05	0.00149082
1068.63	0.00353082
1080.2	0.00688082
1091.77	0.00514082
1103.35	0.00484082
1114.92	0.00250082
1126.49	0.00103082
1138.07	0.000455423
1149.64	0.000216723
1161.22	0.000350623
1172.79	0.000509523
1184.36	0.00120082
1195.94	0.00108082
1207.51	0.000607923
1219.09	0.000516623
1230.66	0.000353223
1242.23	0.000287923
1253.81	0.000234723
1265.38	0.000537623
1276.96	0.000506323
1288.53	0.000649523
1300.1	0.00108082
1311.68	0.00115082
1323.25	0.00102082
1334.83	0.00109082
1346.4	0.000589623
1357.97	0.000435323
1369.55	0.000461223
1381.12	0.000399323
1392.7	0.000359823
1404.27	0.000529223
1415.84	0.00130082
1427.42	0.00295082
1438.99	0.00392082
1450.57	0.00169082
1462.14	0.000988423
1473.71	0.000934223
1485.29	0.00104082
1496.86	0.000311323
1508.44	0.000268123
1520.01	0.000278323
1531.58	0.000177823
1543.16	0.000125123
1554.73	0.000175123
1566.31	0.000366023
1577.88	0.000549923
1589.45	0.000405323
1601.03	0.000269923
1612.6	0.000210323
1624.18	0.000206123
1635.75	0.000230223
1647.32	0.000582523
1658.9	0.000707123
1670.47	0.000301523
1682.05	0.000269223
1693.62	0.000230723
1705.19	0.000236323
1716.77	0.000261523
1728.34	0.000292323
1739.92	0.000362423
1751.49	0.000425323
1763.06	0.000392123
1774.64	0.000462823
1786.21	0.000579223
1797.79	0.00105082
1809.36	0.000648723
1820.93	0.000419023
1832.51	0.000335623
1844.08	0.000223123
1855.66	0.000280223
1867.23	0.000401123
1878.8	0.000620323
1890.38	0.000697823
1901.95	0.000580323
1913.53	0.000264223
1925.1	0.000278023
1936.67	0.000382623
1948.25	0.000595123
1959.82	0.000706723
1971.4	0.000616623
1982.97	0.000291223
1994.54	0.000160223
2006.12	0.000109423
2017.69	0.000108123
2029.27	0.000109323
2040.84	9.1923e-05
2052.41	8.8633e-05
2063.99	8.8653e-05
2075.56	0.000149523
2087.14	0.000119723
2098.71	0.000137223
2110.28	0.000101623
2121.86	0.000100693
2133.43	9.8503e-05
2145.01	0.000121223
2156.58	0.000133823
2168.15	0.000175523
2179.73	0.000198523
2191.3	0.000160223
2202.88	0.000100273
2214.45	9.8563e-05
2226.02	8.4113e-05
2237.6	0.000110123
2249.17	0.000106123
2260.74	9.9643e-05
2272.32	0.000139423
2283.89	0.000139223
2295.47	0.000114723
2307.04	0.000139623
2318.61	0.000224823
2330.19	0.000190823
2341.76	0.000147323
2353.34	0.000147923
2364.91	9.4693e-05
2376.48	0.000112123
2388.06	9.5553e-05
2399.63	0.000126823
2411.21	7.8433e-05
2422.78	7.3263e-05
2434.35	0.000119223
2445.93	9.1263e-05
2457.5	7.8963e-05
2469.08	0.000100503
2480.65	8.2673e-05
2492.22	0.000120523
2503.8	9.8733e-05
2515.37	0.000126523
2526.95	0.000114523
2538.52	0.000126823
2550.09	0.000124123
2561.67	0.000194723
2573.24	0.000190023
2584.82	0.000229723
2596.39	0.000154323
2607.96	0.000167723
2619.54	0.000189223
2631.11	0.000165323
2642.69	0.000148523
2654.26	0.000183023
2665.83	0.000237423
2677.41	0.000192823
2688.98	0.000194523
2700.56	0.000153123
2712.13	0.000105223
2723.7	8.5643e-05
2735.28	8.0653e-05
2746.85	0.000100673
2758.43	3.5353e-05
2770	7.5383e-05
2781.57	9.1753e-05
2793.15	8.8573e-05
2804.72	8.4243e-05
2816.3	8.1073e-05
2827.87	0.000175423
2839.44	0.000142623
2851.02	0.000159223
2862.59	0.000138023
2874.17	0.000151623
2885.74	0.000142623
2897.31	0.000164123
2908.89	0.000196923
2920.46	0.000184123
2932.04	0.000184623
2943.61	0.000138023
2955.18	0.000180923
2966.76	0.000173723
2978.33	0.000269623
2989.91	0.000527023
3001.48	0.000798123
3013.05	0.00133082
3024.63	0.00127082
3036.2	0.00101082
3047.78	0.00162082
3059.35	0.00508082
3070.92	0.00824082
3082.5	0.00577082
3094.07	0.00312082
3105.65	0.00107082
3117.22	0.000530523
3128.79	0.000481623
3140.37	0.000523323
3151.94	0.000496323
3163.52	0.000238023
3175.09	0.000129923
3186.66	0.000147823
3198.24	0.000120623
3209.81	0.000124323
3221.39	0.000154423
3232.96	0.000167423
3244.53	9.3063e-05
3256.11	0.000128623
3267.68	0.000148223
3279.26	0.000135623
3290.83	6.4373e-05
3302.4	0.000106623
3313.98	0.000132023
3325.55	5.9273e-05
3337.13	0.000115623
3348.7	0.000116123
3360.27	0.000111323
3371.85	7.2053e-05
3383.42	7.7213e-05
3395	0.000136123
3406.57	0.000117823
3418.14	7.2143e-05
3429.72	5.9883e-05
3441.29	0.000113423
3452.86	0.000170223
3464.44	0.000124723
3476.01	0.000146023
3487.59	0.000155623
3499.16	0.000140023
3510.73	0.000134723
3522.31	0.000163623
3533.88	0.000143823
3545.46	0.000169923
3557.03	0.000148823
3568.6	7.9103e-05
3580.18	8.8453e-05
3591.75	0.000126423
3603.33	8.5263e-05
3614.9	0.000131923
3626.47	0.000145023
3638.05	0.000167323
3649.62	7.8233e-05
3661.2	0.000156523
3672.77	0.000166823
3684.34	0.000179223
3695.92	0.000178123
3707.49	0.000158023
3719.07	9.0043e-05
3730.64	0.000136623
3742.21	0.000119923
3753.79	0.000214023
3765.36	0.000220623
3776.94	0.000138623
3788.51	7.3313e-05
3800.08	0.000110323
3811.66	0.000190423
3823.23	3.1603e-05
3834.81	4.5673e-05
3846.38	7.8663e-05
3857.95	0.000100513
3869.53	0.000196323
3881.1	0
3892.68	7.0343e-05
3904.25	0.000108323
3915.82	0.000100043
3927.4	0.000119523
3938.97	6.4473e-05
3950.55	0.000155723
3962.12	8.2243e-05
3973.69	0.000129423
3985.27	0.000182223
3996.84	0.000183823
