Infrared Spectrum: 4-Methylmercaptophenol
Formula: C 7 H 8 O S
CAS: 1073-72-9
State: gas
Instrument: HP-GC/MS/IRD
Origin: NIST Mass Spectrometry Data Center
1/CM	ABSORBANCE
550	0.001752
562	0.0015476
574	0.0015622
586	0.001606
598	0.0015914
610	0.0018396
622	0.0055626
634	0.0122494
646	0.0048764
658	0.0003358
670	0
682	7.3e-05
694	0.0001022
706	0.0002628
718	0.0002774
730	0.0001606
742	0.0001606
754	0.0003796
766	0.0011388
778	0.0031682
790	0.00876
802	0.0196662
814	0.0299884
826	0.034821
838	0.020294
850	0.0063656
862	0.002409
874	0.0012556
886	0.0008906
898	0.0008906
910	0.0010512
922	0.0012702
934	0.00146
946	0.002409
958	0.005767
970	0.0087016
982	0.0042048
994	0.0024236
1006	0.003796
1018	0.00365
1030	0.0023068
1042	0.0022776
1054	0.002701
1066	0.0037814
1078	0.0069058
1090	0.0131254
1102	0.0127896
1114	0.0094608
1126	0.0099718
1138	0.011461
1150	0.018469
1162	0.0808694
1174	0.146
1186	0.0734964
1198	0.0241192
1210	0.0147314
1222	0.0155928
1234	0.0233892
1246	0.0652328
1258	0.087746
1270	0.0306454
1282	0.0102638
1294	0.0063802
1306	0.0111106
1318	0.0169068
1330	0.0146876
1342	0.0090812
1354	0.0040588
1366	0.0021608
1378	0.001971
1390	0.0030076
1402	0.0079424
1414	0.0183376
1426	0.0172864
1438	0.0149066
1450	0.0125852
1462	0.0083804
1474	0.0181916
1486	0.0764164
1498	0.0868262
1510	0.0195932
1522	0.0077818
1534	0.0058546
1546	0.0052414
1558	0.0064532
1570	0.0123954
1582	0.0259734
1594	0.0327332
1606	0.024017
1618	0.0088768
1630	0.0034748
1642	0.0021608
1654	0.0015476
1666	0.0011388
1678	0.0009928
1690	0.0009052
1702	0.0007884
1714	0.00073
1726	0.0009052
1738	0.0011242
1750	0.001095
1762	0.0006424
1774	0.0003504
1786	0.000219
1798	0.0003358
1810	0.0004964
1822	0.0005548
1834	0.0008322
1846	0.0012556
1858	0.0016644
1870	0.0020732
1882	0.0020586
1894	0.0014454
1906	0.000657
1918	0.0002774
1930	8.76e-05
1942	5.84e-05
1954	5.84e-05
1966	0.0001606
1978	0.0003212
1990	0.0005402
2002	0.0005694
2014	0.0003504
2026	0.0003212
2038	0.0003212
2050	0.0004526
2062	0.00073
2074	0.0009198
2086	0.0008468
2098	0.0004234
2110	0.0001752
2122	0
2134	0
2146	0
2158	1.46e-05
2170	0
2182	2.92e-05
2194	2.92e-05
2206	5.84e-05
2218	0.0001022
2230	0.0001898
2242	0.0002482
2254	0.0003942
2266	0.0005256
2278	0.0005548
2290	0.0004964
2302	0.0004964
2314	0.0005548
2326	0.0006132
2338	0.0006716
2350	0.0005986
2362	0.0003796
2374	0.000365
2386	0.000584
2398	0.000876
2410	0.0014892
2422	0.0022046
2434	0.0018688
2446	0.0007592
2458	0.0003942
2470	0.0004234
2482	0.0005694
2494	0.0007154
2506	0.0008906
2518	0.0006862
2530	0.0003212
2542	0.0001752
2554	0.0001022
2566	0.0002044
2578	0.0004088
2590	0.0004672
2602	0.0003504
2614	0.0002336
2626	0.0001168
2638	8.76e-05
2650	0.0001898
2662	0.0002774
2674	0.000292
2686	0.0002628
2698	0.0001606
2710	0.0001168
2722	8.76e-05
2734	0.0001898
2746	0.0003942
2758	0.0004088
2770	0.0002044
2782	0.0001606
2794	0.0003212
2806	0.0005694
2818	0.0010804
2830	0.0020732
2842	0.0034602
2854	0.0037084
2866	0.0028908
2878	0.0025988
2890	0.0027156
2902	0.0040734
2914	0.0077818
2926	0.0166878
2938	0.0157534
2950	0.006935
2962	0.004818
2974	0.0052852
2986	0.0085118
2998	0.0107164
3010	0.0082782
3022	0.0110814
3034	0.0130962
3046	0.0080884
3058	0.0069496
3070	0.0075044
3082	0.0067598
3094	0.005767
3106	0.003942
3118	0.0018834
3130	0.0009636
3142	0.0007154
3154	0.0005548
3166	0.000438
3178	0.000365
3190	0.0002336
3202	0.0002044
3214	0.0001314
3226	0.0001752
3238	0.0001314
3250	5.84e-05
3262	4.38e-05
3274	4.38e-05
3286	0
3298	5.84e-05
3310	0.0001022
3322	0.0002336
3334	0.0003796
3346	0.000584
3358	0.0006278
3370	0.0006716
3382	0.0006278
3394	0.0005256
3406	0.0005402
3418	0.0004964
3430	0.0003796
3442	0.000292
3454	0.0002774
3466	0.000219
3478	0.0002336
3490	0.0002628
3502	0.0001752
3514	0.0001314
3526	0.0001606
3538	0.0001898
3550	0.0002336
3562	0.000219
3574	0.0003212
3586	0.0003942
3598	0.0007592
3610	0.0015768
3622	0.0038836
3634	0.0145708
3646	0.0512168
3658	0.0471872
3670	0.0092856
3682	0.0023068
3694	0.0008614
3706	0.000511
3718	0.0004818
3730	0.0004088
3742	0.0003504
3754	0.0002628
3766	0.0002336
3778	0.0001898
3790	0.0002774
3802	0.000292
3814	0.0002774
3826	0.0003358
3838	0.0004672
