Infrared Spectrum: 2,6-Lutidine-N-oxide
Formula: C 7 H 9 N O
CAS: 1073-23-0
State: gas
Origin: EPA-IR VAPOR PHASE LIBRARY
1/CM	ABSORBANCE
549.9	0.00048134
559.547	0.0005561
569.193	0.0007227
578.84	0.00051066
588.486	0.0005686
598.133	0.00054815
607.779	0.0003654
617.426	0.0004463
627.072	0.00048339
636.719	0.000407
646.365	0.000306
656.012	0.0004135
665.658	0.000523
675.305	0.0004367
684.951	0.00052521
694.598	0.0006148
704.245	0.0006077
713.891	0.0007127
723.538	0.0010287
733.184	0.002865
742.831	0.010215
752.477	0.014805
762.124	0.014655
771.77	0.012545
781.417	0.003315
791.063	0.0010446
800.71	0.0011721
810.356	0.0014149
820.003	0.001775
829.649	0.004075
839.296	0.007245
848.943	0.007095
858.589	0.003485
868.236	0.0012508
877.882	0.000775
887.529	0.0006875
897.175	0.0007095
906.822	0.0011768
916.468	0.001655
926.115	0.001875
935.761	0.0014493
945.408	0.0013186
955.054	0.0012759
964.701	0.0014472
974.347	0.002185
983.994	0.002705
993.64	0.002595
1003.29	0.001595
1012.93	0.0011947
1022.58	0.0013718
1032.23	0.001795
1041.87	0.001495
1051.52	0.0013782
1061.17	0.001945
1070.81	0.002675
1080.46	0.003435
1090.11	0.005385
1099.75	0.004825
1109.4	0.003805
1119.05	0.0014162
1128.69	0.000742
1138.34	0.0007764
1147.99	0.0008319
1157.63	0.0009061
1167.28	0.0007966
1176.92	0.0010834
1186.57	0.001655
1196.22	0.002095
1205.86	0.002225
1215.51	0.002195
1225.16	0.002435
1234.8	0.004305
1244.45	0.010755
1254.1	0.026405
1263.74	0.054235
1273.39	0.068315
1283.04	0.057115
1292.68	0.022655
1302.33	0.005395
1311.98	0.002495
1321.62	0.001645
1331.27	0.001465
1340.92	0.001795
1350.56	0.004625
1360.21	0.013235
1369.86	0.018305
1379.5	0.020295
1389.15	0.014775
1398.79	0.010985
1408.44	0.010685
1418.09	0.009385
1427.73	0.008625
1437.38	0.009155
1447.03	0.013495
1456.67	0.014675
1466.32	0.012655
1475.97	0.006785
1485.61	0.007195
1495.26	0.010105
1504.91	0.009705
1514.55	0.005745
1524.2	0.003115
1533.85	0.003415
1543.49	0.005085
1553.14	0.006495
1562.79	0.005835
1572.43	0.003205
1582.08	0.001675
1591.73	0.0014179
1601.37	0.0014155
1611.02	0.001595
1620.67	0.001765
1630.31	0.001815
1639.96	0.0014335
1649.6	0.0011133
1659.25	0.0008026
1668.9	0.0006727
1678.54	0.0006457
1688.19	0.0007692
1697.84	0.0007822
1707.48	0.0007401
1717.13	0.0005898
1726.78	0.0005074
1736.42	0.00053424
1746.07	0.000825
1755.72	0.0011082
1765.36	0.0012542
1775.01	0.0011443
1784.66	0.0008077
1794.3	0.0006477
1803.95	0.0005868
1813.6	0.0007502
1823.24	0.0010189
1832.89	0.0009866
1842.54	0.0006888
1852.18	0.000462306
1861.83	0.00049254
1871.47	0.0006918
1881.12	0.0010535
1890.77	0.001475
1900.41	0.0014063
1910.06	0.0009928
1919.71	0.0006027
1929.35	0.0006054
1939	0.0005946
1948.65	0.0006279
1958.29	0.00054133
1967.94	0.0004343
1977.59	0.000352
1987.23	0.000347
1996.88	0.0003576
2006.53	0.0004104
2016.17	0.0004187
2025.82	0.0003832
2035.47	0.0003588
2045.11	0.0004166
2054.76	0.00050143
2064.41	0.00050343
2074.05	0.00054402
2083.7	0.00049432
2093.35	0.0006405
2102.99	0.0007838
2112.64	0.0009296
2122.28	0.0008388
2131.93	0.00054125
2141.58	0.000354
2151.22	0.0003616
2160.87	0.000367
2170.52	0.0003791
2180.16	0.00047829
2189.81	0.00052938
2199.46	0.0005559
2209.1	0.0006157
2218.75	0.0006502
2228.4	0.0007707
2238.04	0.0008017
2247.69	0.0006565
2257.34	0.0004368
2266.98	0.0004033
2276.63	0.0004352
2286.28	0.000464773
2295.92	0.00051876
2305.57	0.00054882
2315.22	0.0005665
2324.86	0.00051939
2334.51	0.00048252
2344.16	0.00048251
2353.8	0.00054651
2363.45	0.000636
2373.09	0.0006833
2382.74	0.0007143
2392.39	0.0007882
2402.03	0.0007749
2411.68	0.0007561
2421.33	0.0006563
2430.97	0.0007026
2440.62	0.0006543
2450.27	0.0007292
2459.91	0.0007528
2469.56	0.0007661
2479.21	0.0006618
2488.85	0.0005905
2498.5	0.0005616
2508.15	0.0006707
2517.79	0.0010433
2527.44	0.0014441
2537.09	0.001635
2546.73	0.001452
2556.38	0.0010166
2566.03	0.0006535
2575.67	0.00046734
2585.32	0.000344
2594.96	0.0003557
2604.61	0.000311
2614.26	0.000344
2623.9	0.0004407
2633.55	0.0004725
2643.2	0.0006345
2652.84	0.0006476
2662.49	0.00053498
2672.14	0.0005982
2681.78	0.00044655
2691.43	0.000331
2701.08	0.000265
2710.72	0.000296
2720.37	0.0004158
2730.02	0.00047096
2739.66	0.00052104
2749.31	0.0006014
2758.96	0.0006953
2768.6	0.0007462
2778.25	0.0005697
2787.9	0.00048109
2797.54	0.0006458
2807.19	0.0006891
2816.84	0.0007867
2826.48	0.0010356
2836.13	0.0011889
2845.77	0.0012658
2855.42	0.0012561
2865.07	0.0012796
2874.71	0.0014467
2884.36	0.001805
2894.01	0.002275
2903.65	0.002735
2913.3	0.005095
2922.95	0.009615
2932.59	0.010725
2942.24	0.008195
2951.89	0.005205
2961.53	0.005275
2971.18	0.005305
2980.83	0.005385
2990.47	0.006075
3000.12	0.006175
3009.77	0.004505
3019.41	0.002475
3029.06	0.001705
3038.71	0.002275
3048.35	0.003755
3058	0.005015
3067.64	0.004995
3077.29	0.003905
3086.94	0.002665
3096.58	0.002115
3106.23	0.001615
3115.88	0.0014271
3125.52	0.0010767
3135.17	0.0007515
3144.82	0.0004139
3154.46	0.0005644
3164.11	0.00052587
3173.76	0.0004111
3183.4	0.000263
3193.05	0.00026
3202.7	0.000163
3212.34	5.5e-05
3221.99	0.000277
3231.64	0.000349
3241.28	0.00051633
3250.93	0.000282
3260.58	0.000242
3270.22	0.000202
3279.87	0.0003816
3289.52	0.000184
3299.16	0.0003711
3308.81	0.000334
3318.45	9.7e-05
3328.1	8.6e-05
3337.75	0.000339
3347.39	0.0003994
3357.04	0.000257
3366.69	0.000265
3376.33	0.000126
3385.98	0.000238
3395.63	0.000249
3405.27	0.000119
3414.92	0.000309
3424.57	0.000265
3434.21	6.8e-05
3443.86	0.000303
3453.51	0.0003985
3463.15	0.000117
3472.8	0.00035
3482.45	0.0003658
3492.09	0.000348
3501.74	0.00021
3511.39	0.000137
3521.03	0.000226
3530.68	0.0003836
3540.33	0.000247
3549.97	0.000178
3559.62	0.0004128
3569.26	0.000303
3578.91	0.000227
3588.56	0.000286
3598.2	0.0003707
3607.85	0.000338
3617.5	0.000274
3627.14	0.0003826
3636.79	0.0003668
3646.44	0.00032
3656.08	0.000192
3665.73	0.0003639
3675.38	0.000313
3685.02	0.000353
3694.67	0.000301
3704.32	0.00032
3713.96	0.000307
3723.61	0.000227
3733.26	0.000316
3742.9	0.0003674
3752.55	0.000287
3762.2	0.000368
3771.84	0.00049982
3781.49	0.0004164
3791.13	0.0004066
3800.78	0.000292
3810.43	0.00033
3820.07	0.000354
3829.72	0.000325
3839.37	0.0004009
3849.01	0.0003726
3858.66	0.000326
3868.31	0.000337
3877.95	0.000405
3887.6	0.00045283
3897.25	0.000567
3906.89	0.00051622
3916.54	0.00051652
3926.19	0.00051906
3935.83	0.0006704
3945.48	0.000379
3955.13	0.0004206
3964.77	0.00050754
3974.42	0.0003619
3984.07	0.0004304
3993.71	0.000457817
