Infrared Spectrum: 1-Methyl-4-propylbenzene
Formula: C 10 H 14
CAS: 1074-55-1
State: gas
Instrument: HP-GC/MS/IRD
Origin: NIST Mass Spectrometry Data Center
1/CM	ABSORBANCE
550	0.0022196
562	0.0009548
574	0.0004185
586	0.0003999
598	0.000248
610	0.000124
622	9.3e-05
634	1.55e-05
646	0.0001829
658	5.58e-05
670	9.61e-05
682	0.0002356
694	0.0002542
706	0.0004836
718	0.0005549
730	0.0006665
742	0.0010478
754	0.0014911
766	0.0023591
778	0.0046407
790	0.0071951
802	0.0079608
814	0.005301
826	0.0031155
838	0.002449
850	0.0014446
862	0.0009486
874	0.0006603
886	0.0006138
898	0.0005394
910	0.0003999
922	0.000372
934	0.0003441
946	0.000279
958	0.000279
970	0.0003286
982	0.0003379
994	0.0003286
1006	0.0005487
1018	0.0015686
1030	0.0013423
1042	0.0010075
1054	0.0009703
1066	0.0009145
1078	0.0008897
1090	0.0012059
1102	0.0014725
1114	0.0019251
1126	0.0016244
1138	0.0008277
1150	0.0004247
1162	0.0002542
1174	0.0002294
1186	0.0004433
1198	0.0006262
1210	0.0010261
1222	0.0008463
1234	0.0008866
1246	0.0006913
1258	0.0004712
1270	0.0005239
1282	0.0006572
1294	0.0005797
1306	0.0006045
1318	0.000775
1330	0.001364
1342	0.0018631
1354	0.001178
1366	0.001178
1378	0.0019158
1390	0.0021328
1402	0.0016554
1414	0.0019406
1426	0.0023064
1438	0.0026722
1450	0.0034472
1462	0.0040269
1474	0.003565
1486	0.0029977
1498	0.0045725
1510	0.0097898
1522	0.0081437
1534	0.00217
1546	0.001085
1558	0.0007936
1570	0.0006789
1582	0.0006293
1594	0.0005642
1606	0.0006448
1618	0.0007502
1630	0.0006851
1642	0.0005394
1654	0.0004805
1666	0.0003565
1678	0.0003255
1690	0.0002139
1702	0.0002356
1714	0.0001829
1726	0.0001922
1738	0.000248
1750	0.0002046
1762	0.0002914
1774	0.0005425
1786	0.0006572
1798	0.0002604
1810	0.0001302
1822	0.0001054
1834	0.0001426
1846	0.0001798
1858	0.0002201
1870	0.0004588
1882	0.00093
1894	0.0009517
1906	0.0005022
1918	0.0001953
1930	0.0001023
1942	5.89e-05
1954	5.27e-05
1966	3.41e-05
1978	2.48e-05
1990	9.3e-06
2002	1.24e-05
2014	2.48e-05
2026	5.27e-05
2038	2.17e-05
2050	6.2e-06
2062	4.03e-05
2074	3.41e-05
2086	3.41e-05
2098	3.72e-05
2110	2.79e-05
2122	2.79e-05
2134	6.2e-06
2146	3.72e-05
2158	2.48e-05
2170	3.72e-05
2182	3.1e-05
2194	3.41e-05
2206	3.1e-06
2218	1.24e-05
2230	2.17e-05
2242	3.1e-05
2254	2.48e-05
2266	4.34e-05
2278	5.27e-05
2290	9.3e-05
2302	0.0001054
2314	0.000124
2326	6.82e-05
2338	9.92e-05
2350	0.0001085
2362	9.3e-05
2374	6.82e-05
2386	6.51e-05
2398	6.51e-05
2410	6.82e-05
2422	6.2e-05
2434	6.51e-05
2446	3.41e-05
2458	4.34e-05
2470	4.34e-05
2482	2.48e-05
2494	2.79e-05
2506	3.41e-05
2518	4.65e-05
2530	9.92e-05
2542	9.3e-05
2554	7.44e-05
2566	8.68e-05
2578	0.000124
2590	0.0001922
2602	0.0001891
2614	0.0001457
2626	0.0001612
2638	0.0001798
2650	0.0001829
2662	0.0002263
2674	0.0002728
2686	0.0002201
2698	0.0002542
2710	0.0003255
2722	0.0004309
2734	0.0007037
2746	0.0008215
2758	0.0005859
2770	0.0005456
2782	0.0006758
2794	0.000868
2806	0.0011098
2818	0.00155
2830	0.0022785
2842	0.0037975
2854	0.006944
2866	0.0113336
2878	0.0158968
2890	0.014229
2902	0.0120466
2914	0.0163215
2926	0.0263128
2938	0.0309287
2950	0.0231818
2962	0.0210769
2974	0.0220162
2986	0.014167
2998	0.0107198
3010	0.0116591
3022	0.0146444
3034	0.0115506
3046	0.0086955
3058	0.0075206
3070	0.0051863
3082	0.0037014
3094	0.0028613
3106	0.0019499
3118	0.0013392
3130	0.0010509
3142	0.0008246
3154	0.0005425
3166	0.000341
3178	0.0003007
3190	0.0003162
3202	0.0002511
3214	0.0001984
3226	0.000186
3238	0.000155
3250	0.0001581
3262	0.0001333
3274	0.0001643
3286	0.0001209
3298	0.0001085
3310	0.0001519
3322	0.0001116
3334	5.89e-05
3346	4.03e-05
3358	8.37e-05
3370	9.3e-05
3382	4.96e-05
3394	4.34e-05
3406	0.0001178
3418	4.34e-05
3430	0.0001054
3442	0.0001147
3454	8.68e-05
3466	4.34e-05
3478	4.34e-05
3490	6.2e-05
3502	5.27e-05
3514	2.79e-05
3526	3.1e-05
3538	5.89e-05
3550	5.89e-05
3562	0.0001054
3574	4.96e-05
3586	0.0001209
3598	0.000186
3610	0.0001426
3622	8.68e-05
3634	0.0001209
3646	0.0001271
3658	0.0002139
3670	0.0002325
3682	0.0001519
3694	0.0001147
3706	6.51e-05
3718	0.0001116
3730	0.0001519
3742	0.0001581
3754	0.0001395
3766	9.61e-05
3778	0.0001426
3790	0.0001116
3802	0.0002263
3814	0.0001488
3826	0.0001364
3838	0.0002015
