Infrared Spectrum: 4-Nitro-3-picoline-N-oxide
Formula: C 6 H 6 N 2 O 3
CAS: 1074-98-2
State: gas
Origin: EPA-IR VAPOR PHASE LIBRARY
1/CM	ABSORBANCE
549.8	0.000581
559.445	0
569.09	0.0006198
578.734	0.0008498
588.379	0.001914
598.024	0.001684
607.669	0.002544
617.313	0.007244
626.958	0.030234
636.603	0.032714
646.248	0.007944
655.893	0.003214
665.537	0.003914
675.182	0.005734
684.827	0.004654
694.472	0.002504
704.116	0.001694
713.761	0.001474
723.406	0.001464
733.051	0.002794
742.695	0.007084
752.34	0.009614
761.985	0.004864
771.63	0.002424
781.275	0.001724
790.919	0.002034
800.564	0.003014
810.209	0.006754
819.854	0.010224
829.498	0.011754
839.143	0.020924
848.788	0.024914
858.433	0.019624
868.078	0.008674
877.722	0.002504
887.367	0.0008234
897.012	0.0013395
906.657	0.0012539
916.301	0.0009802
925.946	0.000999
935.591	0.0013707
945.236	0.001914
954.88	0.001814
964.525	0.001944
974.17	0.002154
983.815	0.002034
993.46	0.002384
1003.1	0.002034
1012.75	0.002354
1022.39	0.003254
1032.04	0.003954
1041.68	0.004084
1051.33	0.005074
1060.97	0.006114
1070.62	0.013734
1080.26	0.047784
1089.91	0.064564
1099.55	0.029424
1109.2	0.007954
1118.84	0.006694
1128.49	0.004384
1138.13	0.003234
1147.78	0.005574
1157.42	0.005894
1167.07	0.005274
1176.71	0.008234
1186.36	0.008124
1196	0.005524
1205.64	0.008204
1215.29	0.010924
1224.93	0.010624
1234.58	0.009184
1244.22	0.013464
1253.87	0.030764
1263.51	0.032314
1273.16	0.015274
1282.8	0.010824
1292.45	0.014564
1302.09	0.026334
1311.74	0.083174
1321.38	0.235244
1331.03	0.248854
1340.67	0.099404
1350.32	0.070734
1359.96	0.040794
1369.61	0.015934
1379.25	0.011944
1388.9	0.012014
1398.54	0.012104
1408.18	0.010884
1417.83	0.012844
1427.47	0.015594
1437.12	0.018714
1446.76	0.026144
1456.41	0.042044
1466.05	0.056094
1475.7	0.044604
1485.34	0.025604
1494.99	0.024014
1504.63	0.037544
1514.28	0.056774
1523.92	0.059194
1533.57	0.043704
1543.21	0.039364
1552.86	0.054134
1562.5	0.076014
1572.15	0.077324
1581.79	0.058814
1591.44	0.060474
1601.08	0.065974
1610.73	0.041254
1620.37	0.016264
1630.01	0.008704
1639.66	0.005584
1649.3	0.003954
1658.95	0.003674
1668.59	0.003864
1678.24	0.003804
1687.88	0.003174
1697.53	0.002754
1707.17	0.002434
1716.82	0.001824
1726.46	0.001414
1736.11	0.001464
1745.75	0.001554
1755.4	0.001684
1765.04	0.0012038
1774.69	0.0010636
1784.33	0.001151
1793.98	0.0011268
1803.62	0.0011568
1813.27	0.0011847
1822.91	0.0009616
1832.55	0.0010021
1842.2	0.0010909
1851.84	0.0012386
1861.49	0.001544
1871.13	0.001654
1880.78	0.001434
1890.42	0.0010005
1900.07	0.0008926
1909.71	0.0009268
1919.36	0.0011693
1929	0.0012598
1938.65	0.0011816
1948.29	0.0009285
1957.94	0.0008545
1967.58	0.0008266
1977.23	0.0008483
1986.87	0.0007282
1996.52	0.0008048
2006.16	0.0007405
2015.81	0.0006738
2025.45	0.0007389
2035.1	0.0006336
2044.74	0.0009005
2054.38	0.0010562
2064.03	0.0010793
2073.67	0.0012106
2083.32	0.0009755
2092.96	0.0007536
2102.61	0.0005914
2112.25	0.000615
2121.9	0.0006189
2131.54	0.0008231
2141.19	0.0005719
2150.83	0.0007528
2160.48	0.0008886
2170.12	0.000973
2179.77	0.0010914
2189.41	0.0009192
2199.06	0.0008304
2208.7	0.0007775
2218.35	0.0007322
2227.99	0.0009785
2237.64	0.0010344
2247.28	0.0007949
2256.92	0.0005432
2266.57	0.0005681
2276.21	0.0009575
2285.86	0.0009808
2295.5	0.0012235
2305.15	0.0011929
2314.79	0.0009439
2324.44	0.0009759
2334.08	0.0011577
2343.73	0.001484
2353.37	0.001444
2363.02	0.001434
2372.66	0.001564
2382.31	0.0013306
2391.95	0.001744
2401.6	0.002334
2411.24	0.003304
2420.89	0.003694
2430.53	0.003974
2440.18	0.003464
2449.82	0.002354
2459.47	0.001604
2469.11	0.001424
2478.75	0.001444
2488.4	0.0014023
2498.04	0.001734
2507.69	0.001514
2517.33	0.001524
2526.98	0.0010873
2536.62	0.001034
2546.27	0.0011215
2555.91	0.0013048
2565.56	0.001474
2575.2	0.0012886
2584.85	0.0012829
2594.49	0.0012225
2604.14	0.0009587
2613.78	0.0008862
2623.43	0.0012895
2633.07	0.001964
2642.72	0.002354
2652.36	0.002204
2662.01	0.001934
2671.65	0.001484
2681.29	0.0011475
2690.94	0.0012326
2700.58	0.0011276
2710.23	0.001153
2719.87	0.001204
2729.52	0.001544
2739.16	0.0013534
2748.81	0.001454
2758.45	0.0013785
2768.1	0.001454
2777.74	0.0013773
2787.39	0.001444
2797.03	0.0012703
2806.68	0.001414
2816.32	0.001744
2825.97	0.001944
2835.61	0.002264
2845.26	0.002434
2854.9	0.002854
2864.55	0.002864
2874.19	0.002614
2883.84	0.002484
2893.48	0.002504
2903.12	0.002234
2912.77	0.002594
2922.41	0.002864
2932.06	0.002904
2941.7	0.004524
2951.35	0.004854
2960.99	0.004424
2970.64	0.002864
2980.28	0.002794
2989.93	0.004474
2999.57	0.004984
3009.22	0.003924
3018.86	0.002474
3028.51	0.001984
3038.15	0.001744
3047.8	0.001924
3057.44	0.0013733
3067.09	0.0012994
3076.73	0.0011444
3086.38	0.0011997
3096.02	0.001894
3105.67	0.002174
3115.31	0.002694
3124.95	0.002484
3134.6	0.001554
3144.24	0.0012658
3153.89	0.0009772
3163.53	0.001025
3173.18	0.0010334
3182.82	0.0006631
3192.47	0.0007618
3202.11	0.000679
3211.76	0.00048939
3221.4	0.0006296
3231.05	0.00049377
3240.69	0.0005161
3250.34	0.0006716
3259.98	0.0004718
3269.63	0.000337
3279.27	0.000268
3288.92	0.0007111
3298.56	0.0007283
3308.21	0.000293
3317.85	0.0006671
3327.49	0.000633
3337.14	0.0006288
3346.78	0.0005645
3356.43	0.0005331
3366.07	0.000296
3375.72	0.0006809
3385.36	0.0005173
3395.01	0.0005628
3404.65	0.000622
3414.3	0.0005145
3423.94	0.000355
3433.59	0.00040209
3443.23	0.000682
3452.88	0.0008042
3462.52	0.0007473
3472.17	0.000273
3481.81	0.000271
3491.46	0.0005722
3501.1	0.0006208
3510.75	0.0006196
3520.39	0.0005733
3530.04	0.000242
3539.68	0.0007095
3549.32	0.0005552
3558.97	0.000411104
3568.61	0.0006119
3578.26	0.0005193
3587.9	0.000293
3597.55	0.000255
3607.19	0.000295
3616.84	0.00048876
3626.48	0.0003605
3636.13	0.0006893
3645.77	0.0005349
3655.42	0.0007034
3665.06	0.0003129
3674.71	0.0004028
3684.35	0.0003934
3694	0.0005645
3703.64	0.000405752
3713.29	0.0006348
3722.93	0.00050064
3732.58	0.00042816
3742.22	0.0008407
3751.86	0.0007724
3761.51	0.0008291
3771.15	0.0005005
3780.8	0.00043025
3790.44	0.0008133
3800.09	0.0006583
3809.73	0.0009588
3819.38	0.0005429
3829.02	0.0003664
3838.67	0.0003317
3848.31	0.0006221
3857.96	0.000248
3867.6	0.00048403
3877.25	0.0003281
3886.89	0.0003
3896.54	0.0005398
3906.18	0.0007308
3915.83	0.0003358
3925.47	0.0006772
3935.12	0.0006514
3944.76	0.0007536
3954.41	0.0008003
3964.05	0.0008824
3973.69	0.0010352
3983.34	0.000564
3992.98	0.000643
