Infrared Spectrum: 1-Methyl-3-propylbenzene
Formula: C 10 H 14
CAS: 1074-43-7
State: gas
Instrument: HP-GC/MS/IRD
Origin: NIST Mass Spectrometry Data Center
1/CM	ABSORBANCE
550	0.000288
562	0.000189
574	7.5e-05
586	0.000147
598	0.000234
610	0.000348
622	0.000342
634	0.000282
646	0.000504
658	0.000606
670	0.001053
682	0.002808
694	0.006366
706	0.004791
718	0.002364
730	0.002094
742	0.002703
754	0.004983
766	0.009333
778	0.008364
790	0.004599
802	0.002616
814	0.001092
826	0.000489
838	0.000645
850	0.000774
862	0.001284
874	0.001806
886	0.001491
898	0.001293
910	0.001002
922	0.000804
934	0.00057
946	0.000471
958	0.000525
970	0.000549
982	0.000636
994	0.000588
1006	0.000564
1018	0.000513
1030	0.000786
1042	0.001026
1054	0.00126
1066	0.00132
1078	0.001404
1090	0.00183
1102	0.001857
1114	0.001035
1126	0.000534
1138	0.000483
1150	0.000414
1162	0.00048
1174	0.000492
1186	0.000324
1198	0.0003
1210	0.000378
1222	0.000429
1234	0.000564
1246	0.000699
1258	0.000696
1270	0.000711
1282	0.00087
1294	0.000819
1306	0.000729
1318	0.000837
1330	0.001371
1342	0.001767
1354	0.001281
1366	0.001326
1378	0.002244
1390	0.002454
1402	0.001689
1414	0.001731
1426	0.002367
1438	0.003564
1450	0.004656
1462	0.005127
1474	0.005211
1486	0.005676
1498	0.004614
1510	0.002742
1522	0.002139
1534	0.001893
1546	0.001563
1558	0.001389
1570	0.001995
1582	0.003207
1594	0.005412
1606	0.00777
1618	0.00495
1630	0.001401
1642	0.000654
1654	0.000459
1666	0.00051
1678	0.000438
1690	0.000348
1702	0.000219
1714	0.000204
1726	0.000336
1738	0.000357
1750	0.00042
1762	0.00051
1774	0.000573
1786	0.000489
1798	0.000303
1810	0.000258
1822	0.000282
1834	0.000453
1846	0.000612
1858	0.000579
1870	0.000408
1882	0.000207
1894	0.000186
1906	0.000303
1918	0.000531
1930	0.00063
1942	0.000384
1954	0.00018
1966	0.000123
1978	9.3e-05
1990	7.2e-05
2002	6.9e-05
2014	5.1e-05
2026	8.7e-05
2038	0.000111
2050	7.2e-05
2062	7.2e-05
2074	6.3e-05
2086	6.9e-05
2098	4.8e-05
2110	6.9e-05
2122	3.3e-05
2134	5.7e-05
2146	3e-05
2158	4.5e-05
2170	4.8e-05
2182	2.4e-05
2194	3.6e-05
2206	3.9e-05
2218	6.9e-05
2230	2.1e-05
2242	3.9e-05
2254	4.5e-05
2266	7.5e-05
2278	4.8e-05
2290	6.3e-05
2302	9.9e-05
2314	8.4e-05
2326	6.9e-05
2338	0.000108
2350	0.000153
2362	8.7e-05
2374	8.7e-05
2386	0.000129
2398	0.000144
2410	0.00015
2422	0.000156
2434	0.000105
2446	0.000129
2458	0.000108
2470	0.000138
2482	0.000171
2494	0.000129
2506	0.000132
2518	0.000159
2530	0.000153
2542	0.00018
2554	0.000171
2566	0.000195
2578	0.000204
2590	0.000216
2602	0.000249
2614	0.000264
2626	0.000258
2638	0.000231
2650	0.000255
2662	0.000315
2674	0.000423
2686	0.000345
2698	0.00039
2710	0.000411
2722	0.000543
2734	0.000819
2746	0.000924
2758	0.000753
2770	0.000696
2782	0.000849
2794	0.001035
2806	0.001278
2818	0.00168
2830	0.002397
2842	0.003795
2854	0.006717
2866	0.011016
2878	0.015132
2890	0.013746
2902	0.012132
2914	0.016344
2926	0.025296
2938	0.03
2950	0.02364
2962	0.021816
2974	0.021474
2986	0.012477
2998	0.008736
3010	0.01002
3022	0.012396
3034	0.0129
3046	0.010509
3058	0.009345
3070	0.006957
3082	0.003861
3094	0.002826
3106	0.00225
3118	0.001497
3130	0.000855
3142	0.000597
3154	0.000513
3166	0.000474
3178	0.000423
3190	0.000417
3202	0.000375
3214	0.000309
3226	0.000321
3238	0.000231
3250	0.00021
3262	0.000216
3274	0.000171
3286	0.000234
3298	0.000162
3310	0.000171
3322	0.000138
3334	0.000129
3346	0.000123
3358	0.000126
3370	0.000132
3382	0.000153
3394	0.00012
3406	8.4e-05
3418	0.000102
3430	8.4e-05
3442	3.6e-05
3454	0.000117
3466	0.000129
3478	7.5e-05
3490	0.000108
3502	6.3e-05
3514	3.3e-05
3526	7.2e-05
3538	0.000132
3550	0.000111
3562	0.000147
3574	8.7e-05
3586	9.9e-05
3598	7.5e-05
3610	5.7e-05
3622	3e-05
3634	5.4e-05
3646	2.7e-05
3658	6.9e-05
3670	4.5e-05
3682	6.6e-05
3694	0.000105
3706	8.7e-05
3718	0.00015
3730	0.000126
3742	0.000144
3754	0.000123
3766	0.000174
3778	0.000201
3790	0.000186
3802	0.00015
3814	0.000108
3826	0.000186
3838	8.4e-05
