Infrared Spectrum: 1-METHYL-2-N-PROPYL BENZENE
Formula: C10 H14
CAS: 1074-17-5
State: LIQUID
Class: COBLENTZ
Instrument: PERKIN-ELMER
Sampling: TRANSMISSION
Path length: 0.0024 CM
Resolution: 4
Origin: STANDARD OIL OF OHIO
1/CM	TRANSMITTANCE
616.554	0.548
624.993	0.551
633.432	0.561
641.87	0.5819
650.309	0.6089
658.748	0.6319
667.187	0.649
675.626	0.6861
684.065	0.703
692.503	0.7298
700.942	0.7359
709.381	0.7194
717.82	0.6169
726.259	0.418
734.698	0.3101
743.136	0.022
751.575	0.0199
760.014	0.2282
768.453	0.197
776.892	0.6602
785.331	0.7519
793.769	0.6844
802.208	0.7818
810.647	0.8463
819.086	0.8445
827.525	0.8059
835.964	0.8162
844.402	0.8484
852.841	0.8425
861.28	0.8113
869.719	0.8026
878.158	0.823
886.596	0.8344
895.035	0.7854
903.474	0.8291
911.913	0.8512
920.352	0.851
928.791	0.852
937.229	0.8044
945.668	0.7967
954.107	0.852
962.546	0.852
970.985	0.8465
979.424	0.837
987.862	0.8031
996.301	0.811
1004.74	0.839
1013.18	0.8296
1021.62	0.8026
1030.06	0.6803
1038.5	0.6204
1046.93	0.684
1055.37	0.722
1063.81	0.6656
1072.25	0.6209
1080.69	0.754
1089.13	0.7589
1097.57	0.7131
1106.01	0.8328
1114.44	0.824
1122.88	0.6902
1131.32	0.5848
1139.76	0.7917
1148.2	0.83
1156.64	0.8113
1165.08	0.8214
1173.52	0.827
1181.96	0.815
1190.39	0.8426
1198.83	0.8496
1207.27	0.8312
1215.71	0.8179
1224.15	0.7959
1232.59	0.8447
1241.03	0.852
1249.47	0.8433
1257.9	0.8132
1266.34	0.8053
1274.78	0.804
1283.22	0.8113
1291.66	0.8107
1300.1	0.808
1308.54	0.8126
1316.98	0.822
1325.42	0.8098
1333.85	0.7646
1342.29	0.7058
1350.73	0.7654
1359.17	0.7791
1367.61	0.7265
1376.05	0.459
1384.49	0.5264
1392.93	0.7369
1401.37	0.7528
1409.8	0.7368
1418.24	0.6753
1426.68	0.6102
1435.12	0.5821
1443.56	0.4851
1452	0.3414
1460.44	0.1679
1468.88	0.1409
1477.31	0.3312
1485.75	0.3999
1494.19	0.2592
1502.63	0.2693
1511.07	0.7386
1519.51	0.808
1527.95	0.8631
1536.39	0.8687
1544.83	0.8891
1553.26	0.8905
1561.7	0.8905
1570.14	0.8824
1578.58	0.8549
1587.02	0.811
1595.46	0.8295
1603.9	0.7755
1612.34	0.6568
1620.77	0.8649
1629.21	0.8964
1637.65	0.9089
1646.09	0.9175
1654.53	0.917
1662.97	0.9161
1671.41	0.9101
1679.85	0.8971
1688.29	0.896
1696.72	0.8969
1705.16	0.91
1713.6	0.913
1722.04	0.913
1730.48	0.915
1738.92	0.925
1747.36	0.927
1755.8	0.923
1764.23	0.92
1772.67	0.918
1781.11	0.917
1789.55	0.9034
1797.99	0.8782
1806.43	0.8648
1814.87	0.9004
1823.31	0.9126
1831.75	0.8985
1840.18	0.8954
1848.62	0.9211
1857.06	0.93
1865.5	0.9269
1873.94	0.901
1882.38	0.9004
1890.82	0.915
1899.26	0.9062
1907.69	0.8575
1916.13	0.8141
1924.57	0.9017
1933.01	0.915
1941.45	0.89
1949.89	0.867
1958.33	0.8942
1966.77	0.9306
1975.21	0.942
1983.64	0.944
1992.08	0.944
2000.52	0.944
2008.96	0.945
2017.4	0.945
2025.84	0.945
2034.28	0.945
2042.72	0.945
2051.15	0.944
2059.59	0.9443
2068.03	0.945
2076.47	0.945
2084.91	0.945
2093.35	0.945
2101.79	0.945
2110.23	0.945
2118.67	0.944
2127.1	0.944
2135.54	0.945
2143.98	0.944
2152.42	0.9434
2160.86	0.942
2169.3	0.94
2177.74	0.94
2186.18	0.94
2194.61	0.94
2203.05	0.94
2211.49	0.94
2219.93	0.942
2228.37	0.942
2236.81	0.942
2245.25	0.94
2253.69	0.942
2262.13	0.942
2270.56	0.942
2279	0.94
2287.44	0.939
2295.88	0.94
2304.32	0.942
2312.76	0.939
2321.2	0.9334
2329.64	0.9356
2338.07	0.94
2346.51	0.942
2354.95	0.942
2363.39	0.942
2371.83	0.94
2380.27	0.94
2388.71	0.939
2397.15	0.937
2405.59	0.932
2414.02	0.93
2422.46	0.932
2430.9	0.932
2439.34	0.932
2447.78	0.9326
2456.22	0.934
2464.66	0.934
2473.1	0.934
2481.53	0.935
2489.97	0.935
2498.41	0.935
2506.85	0.932
2515.29	0.93
2523.73	0.93
2532.17	0.93
2540.61	0.93
2549.05	0.928
2557.48	0.9214
2565.92	0.917
2574.36	0.917
2582.8	0.915
2591.24	0.913
2599.68	0.913
2608.12	0.913
2616.56	0.913
2625	0.913
2633.43	0.915
2641.87	0.913
2650.31	0.913
2658.75	0.9094
2667.19	0.901
2675.63	0.898
2684.07	0.9022
2692.51	0.91
2700.94	0.9074
2709.38	0.901
2717.82	0.8888
2726.26	0.8731
2734.7	0.8396
2743.14	0.8243
2751.58	0.8769
2760.02	0.883
2768.46	0.879
2776.89	0.8754
2785.33	0.8674
2793.77	0.8504
2802.21	0.8411
2810.65	0.8165
2819.09	0.7886
2827.53	0.7464
2835.97	0.6734
2844.4	0.6302
2852.84	0.5909
2861.28	0.4369
2869.72	0.1949
2878.16	0.0717
2886.6	0.0674
2895.04	0.2253
2903.48	0.2438
2911.92	0.2137
2920.35	0.1663
2928.79	0.0921
2937.23	0.0299
2945.67	0.0236
2954.11	0.037
2962.55	0.0201
2970.99	0.013
2979.43	0.0228
2987.86	0.152
2996.3	0.3435
3004.74	0.4609
3013.18	0.4356
3021.62	0.295
3030.06	0.2189
3038.5	0.2943
3046.94	0.4383
3055.38	0.4396
3063.81	0.4395
3072.25	0.3684
3080.69	0.4123
3089.13	0.5379
3097.57	0.7224
3106.01	0.7284
3114.45	0.7242
3122.89	0.8229
3131.32	0.8652
3139.76	0.874
3148.2	0.874
3156.64	0.874
3165.08	0.8783
3173.52	0.8895
3181.96	0.8986
3190.4	0.901
3198.84	0.901
3207.27	0.901
3215.71	0.9036
3224.15	0.9106
3232.59	0.913
3241.03	0.915
3249.47	0.915
3257.91	0.915
3266.35	0.915
3274.78	0.9156
3283.22	0.917
3291.66	0.917
3300.1	0.917
3308.54	0.917
3316.98	0.915
3325.42	0.915
3333.86	0.915
3342.3	0.915
3350.73	0.915
3359.17	0.913
3367.61	0.913
3376.05	0.915
3384.49	0.913
3392.93	0.913
3401.37	0.913
3409.81	0.912
3418.24	0.91
3426.68	0.908
3435.12	0.906
3443.56	0.905
3452	0.903
3460.44	0.8994
3468.88	0.8924
3477.32	0.8854
3485.76	0.883
3494.19	0.884
3502.63	0.886
3511.07	0.89
3519.51	0.893
3527.95	0.901
3536.39	0.901
3544.83	0.9053
3553.27	0.906
3561.7	0.906
3570.14	0.905
3578.58	0.903
3587.02	0.903
3595.46	0.903
3603.9	0.903
3612.34	0.903
3620.78	0.901
3629.22	0.9
3637.65	0.901
3646.09	0.901
3654.53	0.9003
3662.97	0.901
3671.41	0.9007
3679.85	0.9
3688.29	0.9
3696.73	0.9
3705.17	0.9
3713.6	0.9
3722.04	0.9
3730.48	0.9
3738.92	0.898
3747.36	0.898
3755.8	0.898
3764.24	0.898
3772.68	0.896
3781.11	0.895
3789.55	0.895
3797.99	0.895
3806.43	0.893
3814.87	0.893
3823.31	0.893
3831.75	0.891
3840.19	0.89
3848.63	0.89
3857.06	0.888
3865.5	0.888
3873.94	0.886
3882.38	0.886
3890.82	0.886
3899.26	0.886
3907.7	0.886
3916.14	0.886
3924.57	0.8854
3933.01	0.884
3941.45	0.883
