Infrared Spectrum: (1,2-Dichloroethyl)benzene
Formula: C 8 H 8 Cl 2
CAS: 1074-11-9
State: gas
Origin: EPA-IR VAPOR PHASE LIBRARY
1/CM	ABSORBANCE
549.8	0.001132
559.445	0.001777
569.09	0.001707
578.734	0.001647
588.379	0.002777
598.024	0.003047
607.669	0.002297
617.313	0.002397
626.958	0.001527
636.603	0.001627
646.248	0.002197
655.893	0.003387
665.537	0.005207
675.182	0.007967
684.827	0.013417
694.472	0.022727
704.116	0.031587
713.761	0.027427
723.406	0.013327
733.051	0.011127
742.695	0.009337
752.34	0.005137
761.985	0.005397
771.63	0.006417
781.275	0.004427
790.919	0.003447
800.564	0.003057
810.209	0.002347
819.854	0.001297
829.498	0.001307
839.143	0.0010915
848.788	0.001066
858.433	0.0008196
868.078	0.0009632
877.722	0.0009458
887.367	0.0010498
897.012	0.0010908
906.657	0.001607
916.301	0.001877
925.946	0.002657
935.591	0.004057
945.236	0.004027
954.88	0.002197
964.525	0.001207
974.17	0.0007587
983.815	0.0007181
993.46	0.0010441
1003.1	0.0011737
1012.75	0.001377
1022.39	0.001277
1032.04	0.001937
1041.68	0.001677
1051.33	0.0007641
1060.97	0.001044
1070.62	0.001477
1080.26	0.001287
1089.91	0.0010473
1099.55	0.0009371
1109.2	0.0007391
1118.84	0.0007774
1128.49	0.0008803
1138.13	0.0010097
1147.78	0.001437
1157.42	0.001997
1167.07	0.001537
1176.71	0.002297
1186.36	0.002457
1196	0.004017
1205.64	0.004577
1215.29	0.002857
1224.93	0.002537
1234.58	0.002617
1244.22	0.002307
1253.87	0.002877
1263.51	0.003267
1273.16	0.004007
1282.8	0.003447
1292.45	0.002267
1302.09	0.002397
1311.74	0.002307
1321.38	0.001907
1331.03	0.001747
1340.67	0.001727
1350.32	0.001747
1359.96	0.001457
1369.61	0.0010014
1379.25	0.0009073
1388.9	0.0007625
1398.54	0.0007006
1408.18	0.0007778
1417.83	0.001257
1427.47	0.002247
1437.12	0.003597
1446.76	0.005497
1456.41	0.005557
1466.05	0.002847
1475.7	0.001877
1485.34	0.002667
1494.99	0.003587
1504.63	0.002747
1514.28	0.001297
1523.92	0.0010594
1533.57	0.0009311
1543.21	0.0008115
1552.86	0.0008124
1562.5	0.0007506
1572.15	0.0009248
1581.79	0.0011332
1591.44	0.0012233
1601.08	0.001277
1610.73	0.001037
1620.37	0.0006097
1630.01	0.0005056
1639.66	0.0005097
1649.3	0.0004437
1658.95	0.0005019
1668.59	0.000386
1678.24	0.0004839
1687.88	0.0004715
1697.53	0.0004218
1707.17	0.0003883
1716.82	0.00032919
1726.46	0.0004969
1736.11	0.0006682
1745.75	0.0006474
1755.4	0.000562
1765.04	0.000568
1774.69	0.0006097
1784.33	0.0009362
1793.98	0.0011278
1803.62	0.0009489
1813.27	0.0007103
1822.91	0.0005326
1832.55	0.0004694
1842.2	0.0004569
1851.84	0.0005984
1861.49	0.0007676
1871.13	0.0008968
1880.78	0.0009944
1890.42	0.0009048
1900.07	0.0006016
1909.71	0.0005876
1919.36	0.0006081
1929	0.0008206
1938.65	0.0010501
1948.29	0.0010681
1957.94	0.0010456
1967.58	0.0008178
1977.23	0.0004586
1986.87	0.00042
1996.52	0.0003309
2006.16	0.0004702
2015.81	0.0004047
2025.45	0.00033065
2035.1	0.0004101
2044.74	0.00031316
2054.38	0.00030034
2064.03	0.00030634
2073.67	0.0003811
2083.32	0.00033697
2092.96	0.00033023
2102.61	0.0003553
2112.25	0.0003606
2121.9	0.0004472
2131.54	0.00030294
2141.19	0.0003847
2150.83	0.0004303
2160.48	0.0003686
2170.12	0.00032687
2179.77	0.0004246
2189.41	0.0003707
2199.06	0.00029434
2208.7	0.0003615
2218.35	0.00034448
2227.99	0.00025332
2237.64	0.0003436
2247.28	0.0003994
2256.92	0.0004124
2266.57	0.0003498
2276.21	0.0003647
2285.86	0.0003856
2295.5	0.00030578
2305.15	0.0004804
2314.79	0.0004072
2324.44	0.0003808
2334.08	0.0003922
2343.73	0.0005371
2353.37	0.0004726
2363.02	0.0003847
2372.66	0.0004147
2382.31	0.0004302
2391.95	0.00034342
2401.6	0.0003977
2411.24	0.0004308
2420.89	0.0004212
2430.53	0.0004188
2440.18	0.0003577
2449.82	0.00033541
2459.47	0.0002875
2469.11	0.0003675
2478.75	0.0003919
2488.4	0.00029645
2498.04	0.0003953
2507.69	0.0003659
2517.33	0.0004401
2526.98	0.0004288
2536.62	0.0004085
2546.27	0.0004743
2555.91	0.000467
2565.56	0.00026982
2575.2	0.000427
2584.85	0.00031431
2594.49	0.00032263
2604.14	0.0004305
2613.78	0.0003586
2623.43	0.00034476
2633.07	0.00027128
2642.72	0.0004298
2652.36	0.00032089
2662.01	0.0004102
2671.65	0.0003622
2681.29	0.0004148
2690.94	0.0003555
2700.58	0.0003756
2710.23	0.00027182
2719.87	0.00030815
2729.52	0.00030816
2739.16	0.0004176
2748.81	0.0003841
2758.45	0.0003844
2768.1	0.0003942
2777.74	0.0004299
2787.39	0.0004115
2797.03	0.00032769
2806.68	0.0004432
2816.32	0.00033402
2825.97	0.0003843
2835.61	0.0004447
2845.26	0.0005824
2854.9	0.0007744
2864.55	0.0005733
2874.19	0.000544
2883.84	0.000528
2893.48	0.000677
2903.12	0.0004487
2912.77	0.0005077
2922.41	0.0006605
2932.06	0.000553
2941.7	0.0009084
2951.35	0.001957
2960.99	0.003167
2970.64	0.002907
2980.28	0.003077
2989.93	0.001947
2999.57	0.001337
3009.22	0.001827
3018.86	0.003087
3028.51	0.005097
3038.15	0.006927
3047.8	0.005677
3057.44	0.004447
3067.09	0.006797
3076.73	0.008417
3086.38	0.005807
3096.02	0.004237
3105.67	0.002877
3115.31	0.001897
3124.95	0.0011276
3134.6	0.0003907
3144.24	0.0003719
3153.89	0.00034201
3163.53	0.0004007
3173.18	0.0004683
3182.82	0.0003138
3192.47	0.0005004
3202.11	6.2e-05
3211.76	0.000248497
3221.4	0.00029683
3231.05	0.0003507
3240.69	0.0003496
3250.34	0.0004299
3259.98	0.000356
3269.63	0.0003803
3279.27	0.00028151
3288.92	0.000251134
3298.56	0.00032641
3308.21	0.00032582
3317.85	0.0001663
3327.49	0.00026353
3337.14	0.0001707
3346.78	0.000248192
3356.43	0.00031284
3366.07	0.00032041
3375.72	0.00032315
3385.36	0.0003856
3395.01	0.0003961
3404.65	0.0002354
3414.3	6.4e-05
3423.94	0.00026402
3433.59	0.00026434
3443.23	0.0001582
3452.88	0.0001716
3462.52	0.0004414
3472.17	0.00033912
3481.81	0.000398
3491.46	0.0003625
3501.1	0.0002034
3510.75	5.5e-05
3520.39	0.000255937
3530.04	0.00027294
3539.68	0.0003496
3549.32	0.0003653
3558.97	0.00028297
3568.61	0.0001863
3578.26	0.0004143
3587.9	7.6e-05
3597.55	0.0002215
3607.19	0.00027038
3616.84	0.0003572
3626.48	0.000218
3636.13	0.0003871
3645.77	0.00029697
3655.42	0.00027827
3665.06	0.00027969
3674.71	0.00027956
3684.35	0.0001959
3694	0.0002349
3703.64	0.00033527
3713.29	0.0003545
3722.93	0.0003948
3732.58	0.0002182
3742.22	0.00028874
3751.86	0.0005041
3761.51	0.00032019
3771.15	0.0003556
3780.8	0.000144
3790.44	0.0004399
3800.09	0.000124
3809.73	0.00026449
3819.38	0.00032344
3829.02	0.0003579
3838.67	0.0004616
3848.31	0.0005017
3857.96	0.00031542
3867.6	0.000136
3877.25	0.0003719
3886.89	0.00026128
3896.54	0.0001896
3906.18	0.00032668
3915.83	0.0003925
3925.47	0.0003238
3935.12	0.00030866
3944.76	0.000256377
3954.41	0.0004079
3964.05	0.00026285
3973.69	0.0003922
3983.34	0.00028458
3992.98	0.00029408
