Infrared Spectrum: 1-tert-Butyl-2-methylbenzene
Formula: C 11 H 16
CAS: 1074-92-6
State: gas
Instrument: HP-GC/MS/IRD
Origin: NIST Mass Spectrometry Data Center
1/CM	ABSORBANCE
550	0.000682
562	0.00099
574	0.0004708
586	0.000198
598	0.000176
610	0.0001452
622	9.68e-05
634	8.36e-05
646	6.6e-05
658	0.0001848
670	0.0001342
682	0.0001364
694	0.0002288
706	0.0010604
718	0.0036938
730	0.0050072
742	0.0045848
754	0.0078804
766	0.0037972
778	0.0007546
790	0.0003036
802	0.0001408
814	0.0001364
826	0.0002068
838	0.0002156
850	0.0003102
862	0.0002222
874	4.84e-05
886	1.32e-05
898	5.94e-05
910	0.0001386
922	0.0002332
934	0.0002618
946	0.0001936
958	0.0001386
970	0.0001386
982	0.0002706
994	0.0003014
1006	0.00033
1018	0.0004378
1030	0.0005632
1042	0.0010142
1054	0.0030008
1066	0.0027852
1078	0.001243
1090	0.0013288
1102	0.0005984
1114	0.000286
1126	0.0003542
1138	0.0003784
1150	0.0002838
1162	0.000286
1174	0.0004224
1186	0.0008624
1198	0.0011506
1210	0.0006842
1222	0.000605
1234	0.0013772
1246	0.002574
1258	0.0019932
1270	0.0010604
1282	0.0009394
1294	0.0009592
1306	0.0005236
1318	0.0002288
1330	0.0002728
1342	0.0004488
1354	0.0015884
1366	0.0035992
1378	0.0034386
1390	0.0026928
1402	0.0020416
1414	0.0014278
1426	0.0016632
1438	0.0025476
1450	0.0033528
1462	0.0039446
1474	0.0056958
1486	0.0064592
1498	0.0036014
1510	0.001529
1522	0.0008514
1534	0.0005148
1546	0.0003894
1558	0.0003146
1570	0.0003674
1582	0.000583
1594	0.00088
1606	0.0009064
1618	0.000418
1630	0.000187
1642	0.0001716
1654	0.000187
1666	0.000176
1678	0.0002002
1690	0.0003102
1702	0.0002376
1714	0.000165
1726	0.000121
1738	8.14e-05
1750	8.58e-05
1762	0.0001232
1774	0.0002002
1786	0.0003454
1798	0.0002442
1810	0.0002178
1822	0.0002794
1834	0.0001936
1846	0.0001078
1858	0.000154
1870	0.0002024
1882	0.0002266
1894	0.0003872
1906	0.000462
1918	0.0002794
1930	0.0003234
1942	0.0003366
1954	0.0001474
1966	5.94e-05
1978	6.16e-05
1990	3.96e-05
2002	1.98e-05
2014	2.64e-05
2026	4.4e-06
2038	3.3e-05
2050	4.4e-05
2062	1.1e-05
2074	1.32e-05
2086	2.2e-05
2098	6.6e-06
2110	6.6e-06
2122	1.54e-05
2134	2.2e-05
2146	5.06e-05
2158	3.08e-05
2170	4.4e-06
2182	1.32e-05
2194	2.64e-05
2206	2.42e-05
2218	1.98e-05
2230	1.76e-05
2242	4.4e-05
2254	2.2e-05
2266	1.54e-05
2278	3.08e-05
2290	4.84e-05
2302	3.08e-05
2314	1.54e-05
2326	3.74e-05
2338	4.4e-05
2350	2.86e-05
2362	1.32e-05
2374	2.64e-05
2386	5.72e-05
2398	3.52e-05
2410	4.84e-05
2422	3.3e-05
2434	5.5e-05
2446	2.86e-05
2458	3.96e-05
2470	2.86e-05
2482	2.64e-05
2494	6.6e-06
2506	8.8e-06
2518	2.2e-05
2530	3.3e-05
2542	4.84e-05
2554	7.26e-05
2566	7.7e-05
2578	7.04e-05
2590	5.5e-05
2602	4.18e-05
2614	5.5e-05
2626	3.52e-05
2638	7.7e-05
2650	9.24e-05
2662	0.0001056
2674	0.00011
2686	9.68e-05
2698	0.0001144
2710	0.0001936
2722	0.0002882
2734	0.0003586
2746	0.0003476
2758	0.0003564
2770	0.0003608
2782	0.0004312
2794	0.0005104
2806	0.0005874
2818	0.0007106
2830	0.0009064
2842	0.0012694
2854	0.0020658
2866	0.0040656
2878	0.0070972
2890	0.0081026
2902	0.0080894
2914	0.0095546
2926	0.0112618
2938	0.0124718
2950	0.0150106
2962	0.0204182
2974	0.021219
2986	0.013717
2998	0.0096096
3010	0.0083138
3022	0.007106
3034	0.0052426
3046	0.0045012
3058	0.0063514
3070	0.006468
3082	0.003454
3094	0.0023056
3106	0.0024134
3118	0.0019052
3130	0.0011682
3142	0.0008976
3154	0.000671
3166	0.0004356
3178	0.0003476
3190	0.0003278
3202	0.0002376
3214	0.0002508
3226	0.0001452
3238	0.000132
3250	0.0001144
3262	0.000121
3274	0.000121
3286	0.0001364
3298	9.24e-05
3310	8.36e-05
3322	0.0001122
3334	9.9e-05
3346	0.0001166
3358	0.0001078
3370	0.0001056
3382	9.68e-05
3394	7.7e-05
3406	8.58e-05
3418	6.38e-05
3430	3.74e-05
3442	8.58e-05
3454	7.48e-05
3466	6.16e-05
3478	6.16e-05
3490	8.8e-05
3502	4.84e-05
3514	8.36e-05
3526	7.04e-05
3538	4.84e-05
3550	2.2e-06
3562	3.96e-05
3574	4.18e-05
3586	7.26e-05
3598	6.38e-05
3610	7.26e-05
3622	7.7e-05
3634	7.92e-05
3646	8.8e-05
3658	9.24e-05
3670	8.14e-05
3682	7.92e-05
3694	7.92e-05
3706	9.68e-05
3718	8.58e-05
3730	0.0001122
3742	0.000132
3754	9.02e-05
3766	0.00011
3778	9.68e-05
3790	0.0001166
3802	0.0001034
3814	0.000165
3826	0.0001562
3838	0.0001892
