Infrared Spectrum: CYCLOHEXYLAMINOACETONITRILE
Formula: C8 H14 N2
CAS: 1074-58-4
Class: COBLENTZ
Instrument: PERKIN-ELMER
Sampling: TRANSMISSION
Path length: CAPILLARY
Resolution: 4
Origin: ABBOTT LABORATORIES - WASHBURN
MICROMETERS	TRANSMITTANCE
2.012	0.849
2.05158	0.85
2.09115	0.85
2.13073	0.85
2.1703	0.852
2.20988	0.855
2.24946	0.854
2.28903	0.855
2.32861	0.8372
2.36818	0.837
2.40776	0.839
2.44734	0.8419
2.48691	0.842
2.52649	0.845
2.56606	0.849
2.60564	0.8518
2.64521	0.85
2.68479	0.855
2.72437	0.8522
2.76394	0.8388
2.80352	0.8238
2.84309	0.822
2.88267	0.817
2.92225	0.8069
2.96182	0.7581
3.0014	0.6088
3.04097	0.6616
3.08055	0.7194
3.12013	0.776
3.1597	0.8042
3.19928	0.8201
3.23885	0.825
3.27843	0.8321
3.31801	0.8219
3.35758	0.7131
3.39716	0.2204
3.43673	0.1093
3.47631	0.318
3.51588	0.182
3.55546	0.4942
3.59504	0.6532
3.63461	0.7769
3.67419	0.81
3.71376	0.824
3.75334	0.7972
3.79292	0.779
3.83249	0.8269
3.87207	0.824
3.91164	0.85
3.95122	0.8679
3.9908	0.868
4.03037	0.867
4.06995	0.867
4.10952	0.867
4.1491	0.8699
4.18868	0.865
4.22825	0.864
4.26783	0.8748
4.3074	0.8731
4.34698	0.87
4.38656	0.8591
4.42613	0.852
4.46571	0.8179
4.50528	0.7761
4.54486	0.8489
4.58443	0.847
4.62401	0.849
4.66359	0.852
4.70316	0.852
4.74274	0.854
4.78231	0.854
4.82189	0.854
4.86147	0.8519
4.90104	0.8501
4.94062	0.85
4.98019	0.85
5.01977	0.85
5.05935	0.8492
5.09892	0.853
5.1385	0.8527
5.17807	0.852
5.21765	0.852
5.25723	0.849
5.2968	0.8476
5.33638	0.849
5.37595	0.849
5.41553	0.849
5.4551	0.85
5.49468	0.85
5.53426	0.849
5.57383	0.849
5.61341	0.849
5.65298	0.849
5.69256	0.85
5.73214	0.85
5.77171	0.85
5.81129	0.849
5.85086	0.849
5.89044	0.84
5.93002	0.8281
5.96959	0.8212
6.00917	0.8147
6.04874	0.81
6.08832	0.81
6.1279	0.809
6.16747	0.812
6.20705	0.81
6.24662	0.8135
6.2862	0.8093
6.32578	0.807
6.36535	0.814
6.40493	0.8128
6.4445	0.822
6.48408	0.8191
6.52365	0.82
6.56323	0.8173
6.60281	0.805
6.64238	0.792
6.68196	0.7572
6.72153	0.7045
6.76111	0.6372
6.80069	0.588
6.84026	0.5072
6.87984	0.447
6.91941	0.24
6.95899	0.3444
6.99857	0.5266
7.03814	0.4743
7.07772	0.5064
7.11729	0.6582
7.15687	0.7429
7.19645	0.761
7.23602	0.7463
7.2756	0.6657
7.31517	0.4941
7.35475	0.5869
7.39432	0.6775
7.4339	0.626
7.47348	0.6367
7.51305	0.658
7.55263	0.6372
7.5922	0.6661
7.63178	0.7098
7.67136	0.713
7.71093	0.7392
7.75051	0.7755
7.79008	0.79
7.82966	0.794
7.86924	0.7841
7.90881	0.753
7.94839	0.7074
7.98796	0.6738
8.02754	0.7296
8.06712	0.7539
8.10669	0.7409
8.14627	0.7657
8.18584	0.7755
8.22542	0.7896
8.265	0.8007
8.30457	0.8093
8.34415	0.8098
8.38372	0.81
8.4233	0.8069
8.46287	0.7892
8.50245	0.776
8.54203	0.789
8.5816	0.7827
8.62118	0.757
8.66075	0.7103
8.70033	0.634
8.73991	0.4927
8.77948	0.409
8.81906	0.3676
8.85863	0.3441
8.89821	0.3406
8.93779	0.3764
8.97736	0.4425
9.01694	0.5226
9.05651	0.5786
9.09609	0.608
9.13567	0.608
9.17524	0.634
9.21482	0.6741
9.25439	0.704
9.29397	0.7349
9.33354	0.7582
9.37312	0.766
9.4127	0.7603
9.45227	0.7467
9.49185	0.7471
9.53142	0.766
9.571	0.767
9.61058	0.766
9.65015	0.7523
9.68973	0.7273
9.7293	0.7167
9.76888	0.7136
9.80846	0.7284
9.84803	0.7402
9.88761	0.7613
9.92718	0.7762
9.96676	0.7892
10.0063	0.794
10.0459	0.792
10.0855	0.7827
10.1251	0.7637
10.1646	0.756
10.2042	0.768
10.2438	0.7782
10.2834	0.791
10.3229	0.794
10.3625	0.799
10.4021	0.7991
10.4417	0.791
10.4812	0.7795
10.5208	0.769
10.5604	0.764
10.6	0.766
10.6396	0.766
10.6791	0.766
10.7187	0.7589
10.7583	0.751
10.7979	0.7334
10.8374	0.7007
10.877	0.6697
10.9166	0.6702
10.9562	0.6924
10.9957	0.708
11.0353	0.7104
11.0749	0.7056
11.1145	0.6851
11.154	0.628
11.1936	0.5728
11.2332	0.4505
11.2728	0.3905
11.3123	0.383
11.3519	0.4323
11.3915	0.5195
11.4311	0.538
11.4706	0.5149
11.5102	0.4899
11.5498	0.485
11.5894	0.484
11.6289	0.4743
11.6685	0.4805
11.7081	0.4972
11.7477	0.5421
11.7873	0.5832
11.8268	0.601
11.8664	0.5979
11.906	0.5731
11.9456	0.6187
11.9851	0.6518
12.0247	0.665
12.0643	0.6686
12.1039	0.669
12.1434	0.669
12.183	0.6687
12.2226	0.662
12.2622	0.6509
12.3017	0.636
12.3413	0.6251
12.3809	0.6071
12.4205	0.595
12.46	0.5805
12.4996	0.573
12.5392	0.562
12.5788	0.558
12.6183	0.5568
12.6579	0.557
12.6975	0.558
12.7371	0.555
12.7766	0.5505
12.8162	0.552
12.8558	0.553
12.8954	0.553
12.935	0.552
12.9745	0.545
13.0141	0.5419
13.0537	0.535
13.0933	0.527
13.1328	0.525
13.1724	0.5227
13.212	0.5179
13.2516	0.516
13.2911	0.514
13.3307	0.514
13.3703	0.5148
13.4099	0.5141
13.4494	0.515
13.489	0.515
13.5286	0.517
13.5682	0.517
13.6077	0.517
13.6473	0.5194
13.6869	0.5243
13.7265	0.529
13.766	0.53
13.8056	0.529
13.8452	0.5349
13.8848	0.5417
13.9244	0.5445
13.9639	0.545
14.0035	0.548
14.0431	0.5539
14.0827	0.5588
14.1222	0.5655
14.1618	0.5721
14.2014	0.58
14.241	0.585
14.2805	0.5895
14.3201	0.5937
14.3597	0.6
14.3993	0.601
14.4388	0.603
14.4784	0.6053
14.518	0.6146
14.5576	0.613
14.5971	0.615
14.6367	0.6159
14.6763	0.6227
14.7159	0.625
14.7554	0.625
14.795	0.625
14.8346	0.625
14.8742	0.626
14.9137	0.626
14.9533	0.626
14.9929	0.626
15.0325	0.625
15.0721	0.625
15.1116	0.625
15.1512	0.625
15.1908	0.623
15.2304	0.6222
15.2699	0.616
15.3095	0.613
15.3491	0.61
15.3887	0.6077
15.4282	0.6035
15.4678	0.5993
