Infrared Spectrum: 3,3-Tetramethyleneglutarimide
Formula: C 9 H 13 N O 2
CAS: 1075-89-4
State: gas
Origin: EPA-IR VAPOR PHASE LIBRARY
1/CM	ABSORBANCE
549.9	0.0012453
559.547	0.0013632
569.193	0.0014327
578.84	0.001884
588.486	0.001704
598.133	0.0013665
607.779	0.001484
617.426	0.001664
627.072	0.0013874
636.719	0.0009658
646.365	0.0009123
656.012	0.0009905
665.658	0.0011997
675.305	0.0014244
684.951	0.002124
694.598	0.003484
704.245	0.005994
713.891	0.007224
723.538	0.005254
733.184	0.002944
742.831	0.001644
752.477	0.0011704
762.124	0.0010386
771.77	0.000921
781.417	0.0008737
791.063	0.0007422
800.71	0.0007071
810.356	0.0006938
820.003	0.0006472
829.649	0.0006154
839.296	0.0006054
848.943	0.0005979
858.589	0.0006197
868.236	0.00056846
877.882	0.00049716
887.529	0.00057022
897.175	0.0005901
906.822	0.0006972
916.468	0.0008003
926.115	0.0009416
935.761	0.0009645
945.408	0.0008773
955.054	0.0008786
964.701	0.0008554
974.347	0.0006215
983.994	0.0005023
993.64	0.00051958
1003.29	0.00051124
1012.93	0.0005839
1022.58	0.0006981
1032.23	0.0007123
1041.87	0.0008448
1051.52	0.000752
1061.17	0.0006777
1070.81	0.0006586
1080.46	0.0007164
1090.11	0.0009006
1099.75	0.0009962
1109.4	0.0014495
1119.05	0.002184
1128.69	0.004274
1138.34	0.008024
1147.99	0.008484
1157.63	0.004614
1167.28	0.001794
1176.92	0.0011114
1186.57	0.0010622
1196.22	0.0012618
1205.86	0.002274
1215.51	0.005054
1225.16	0.012044
1234.8	0.019564
1244.45	0.018134
1254.1	0.011054
1263.74	0.007454
1273.39	0.006404
1283.04	0.005564
1292.68	0.004774
1302.33	0.004654
1311.98	0.005214
1321.62	0.005854
1331.27	0.007214
1340.92	0.009554
1350.56	0.009094
1360.21	0.006064
1369.86	0.006244
1379.5	0.008234
1389.15	0.006524
1398.79	0.002994
1408.44	0.001924
1418.09	0.002064
1427.73	0.002414
1437.38	0.002084
1447.03	0.001824
1456.67	0.001804
1466.32	0.001604
1475.97	0.0014131
1485.61	0.0013172
1495.26	0.0009717
1504.91	0.0007057
1514.55	0.0006772
1524.2	0.0005815
1533.85	0.0005767
1543.49	0.00056543
1553.14	0.0006706
1562.79	0.000825
1572.43	0.0009056
1582.08	0.0008774
1591.73	0.0007993
1601.37	0.0007975
1611.02	0.0007878
1620.67	0.000851
1630.31	0.0009728
1639.96	0.0011206
1649.6	0.001504
1659.25	0.001944
1668.9	0.002344
1678.54	0.002764
1688.19	0.003644
1697.84	0.005494
1707.48	0.008854
1717.13	0.017474
1726.78	0.037654
1736.42	0.056344
1746.07	0.054124
1755.72	0.034604
1765.36	0.016994
1775.01	0.009684
1784.66	0.006854
1794.3	0.005164
1803.95	0.003794
1813.6	0.002724
1823.24	0.002114
1832.89	0.001734
1842.54	0.001514
1852.18	0.0012311
1861.83	0.0009922
1871.47	0.0009009
1881.12	0.0008407
1890.77	0.000815
1900.41	0.0007559
1910.06	0.000735
1919.71	0.0006709
1929.35	0.0006558
1939	0.0006239
1948.65	0.0005746
1958.29	0.00053667
1967.94	0.0005367
1977.59	0.00054706
1987.23	0.00050484
1996.88	0.00051058
2006.53	0.00054247
2016.17	0.0005174
2025.82	0.00055272
2035.47	0.0005148
2045.11	0.00051469
2054.76	0.00050293
2064.41	0.00049971
2074.05	0.000476723
2083.7	0.000478295
2093.35	0.00049517
2102.99	0.00049834
2112.64	0.00050243
2122.28	0.0004345
2131.93	0.000479855
2141.58	0.000524
2151.22	0.00051794
2160.87	0.00054779
2170.52	0.0005869
2180.16	0.0005837
2189.81	0.0006055
2199.46	0.0006013
2209.1	0.00054881
2218.75	0.0005517
2228.4	0.00055697
2238.04	0.00053588
2247.69	0.00053478
2257.34	0.00054302
2266.98	0.0005777
2276.63	0.00056089
2286.28	0.0006167
2295.92	0.0006138
2305.57	0.0006124
2315.22	0.000603
2324.86	0.00056661
2334.51	0.00051925
2344.16	0.00056443
2353.8	0.00055199
2363.45	0.00053032
2373.09	0.00056073
2382.74	0.00052634
2392.39	0.00049816
2402.03	0.00051608
2411.68	0.00053667
2421.33	0.000577
2430.97	0.00055872
2440.62	0.00052407
2450.27	0.00053021
2459.91	0.0005869
2469.56	0.0005798
2479.21	0.00057239
2488.85	0.0006081
2498.5	0.00055969
2508.15	0.00055283
2517.79	0.00056457
2527.44	0.0006034
2537.09	0.0005794
2546.73	0.0006091
2556.38	0.0005828
2566.03	0.00055937
2575.67	0.0006074
2585.32	0.0006031
2594.96	0.0005805
2604.61	0.0005964
2614.26	0.00056503
2623.9	0.0005978
2633.55	0.0005955
2643.2	0.00055536
2652.84	0.0005814
2662.49	0.00056746
2672.14	0.00055306
2681.78	0.0006252
2691.43	0.0005803
2701.08	0.0005909
2710.72	0.0006054
2720.37	0.0006806
2730.02	0.0006752
2739.66	0.0006877
2749.31	0.0006837
2758.96	0.0006829
2768.6	0.0005991
2778.25	0.000602
2787.9	0.0006818
2797.54	0.0006561
2807.19	0.0007822
2816.84	0.0008386
2826.48	0.0010798
2836.13	0.0012044
2845.77	0.0013611
2855.42	0.001974
2865.07	0.003254
2874.71	0.004454
2884.36	0.005014
2894.01	0.005004
2903.65	0.005254
2913.3	0.005454
2922.95	0.005424
2932.59	0.006394
2942.24	0.007854
2951.89	0.009594
2961.53	0.012774
2971.18	0.012604
2980.83	0.006984
2990.47	0.003204
3000.12	0.001884
3009.77	0.0012253
3019.41	0.0009796
3029.06	0.0007443
3038.71	0.0007548
3048.35	0.0006252
3058	0.0005952
3067.64	0.00048533
3077.29	0.000417
3086.94	0.0004201
3096.58	0.000362
3106.23	0.0004323
3115.88	0.00046874
3125.52	0.000463
3135.17	0.000474397
3144.82	0.0003849
3154.46	0.000328
3164.11	0.000182
3173.76	0.000322
3183.4	0.000271
3193.05	0.000187
3202.7	9e-05
3212.34	0.0002
3221.99	0.000257
3231.64	0.000213
3241.28	0.000171
3250.93	0.000304
3260.58	4.5e-05
3270.22	6.4e-05
3279.87	7.4e-05
3289.52	0.000254
3299.16	0.0002
3308.81	0.000164
3318.45	0.000187
3328.1	4.6e-05
3337.75	8.8e-05
3347.39	0.00027
3357.04	0.000291
3366.69	0.000264
3376.33	0.000299
3385.98	0.0006719
3395.63	0.002514
3405.27	0.005944
3414.92	0.005174
3424.57	0.001494
3434.21	0.00052138
3443.86	0.00056326
3453.51	0.00053115
3463.15	0.0007372
3472.8	0.0008153
3482.45	0.00056231
3492.09	0.0004493
3501.74	0.000478159
3511.39	0.000175
3521.03	0.000248
3530.68	0.000273
3540.33	0.000225
3549.97	0.000171
3559.62	0.000221
3569.26	0.000212
3578.91	0.000132
3588.56	0.000152
3598.2	0.000198
3607.85	0.000152
3617.5	0.000144
3627.14	0.00014
3636.79	9.5e-05
3646.44	0.000139
3656.08	8.8e-05
3665.73	0.000166
3675.38	0.000139
3685.02	0.000187
3694.67	0.000231
3704.32	0.000193
3713.96	0.000164
3723.61	0.000255
3733.26	0.000286
3742.9	0.000272
3752.55	0.000237
3762.2	0.000314
3771.84	0.000311
3781.49	0.000283
3791.13	0.000226
3800.78	0.00022
3810.43	0.0004538
3820.07	0.000253
3829.72	0.000342
3839.37	0.000281
3849.01	0.000289
3858.66	0.000346
3868.31	0.000188
3877.95	0.000315
3887.6	0.000269
3897.25	0.0003841
3906.89	0.000316
3916.54	0.000351
3926.19	0.000331
3935.83	0.000331
3945.48	0.000322
3955.13	0.0004345
3964.77	0.0004078
3974.42	0.0003763
3984.07	0.000322
3993.71	0.0004187
