Infrared Spectrum: Alpha,Alpha'-DIACETYL-3,3',4,4',5,5',-HEXAMETHOXY-GLUTARANILIDE
Formula: C27 H34 N2 O10
CAS: 107541-85-5
State: SOLID (KBr PRESSING)
Melting point: 156-157 C (DECOMPOSE)
Class: COBLENTZ
Instrument: Not specified, most likely a prism, grating, or hybrid spectrometer.
Sampling: TRANSMISSION
Resolution: 4
Origin: EASTMAN KODAK COMPANY, RESEARCH LABORATORIES, ROCHESTER, N.Y.
MICROMETERS	TRANSMITTANCE
2.193	0.895
2.23289	0.885
2.27277	0.881
2.31266	0.891
2.35255	0.895
2.39243	0.898
2.43232	0.896
2.47221	0.893
2.51209	0.885
2.55198	0.881
2.59187	0.881
2.63175	0.883
2.67164	0.886
2.71153	0.886
2.75141	0.854
2.7913	0.775
2.83119	0.645
2.87107	0.614
2.91096	0.603
2.95085	0.6
2.99073	0.572
3.03062	0.483
3.07051	0.498
3.11039	0.5
3.15028	0.581
3.19017	0.65
3.23005	0.711
3.26994	0.737
3.30983	0.718
3.34971	0.709
3.3896	0.647
3.42949	0.591
3.46937	0.636
3.50926	0.727
3.54915	0.709
3.58903	0.767
3.62892	0.832
3.66881	0.85
3.70869	0.857
3.74858	0.865
3.78847	0.862
3.82835	0.87
3.86824	0.873
3.90813	0.865
3.94801	0.886
3.9879	0.886
4.02779	0.886
4.06768	0.885
4.10756	0.89
4.14745	0.891
4.18734	0.896
4.22722	0.886
4.26711	0.883
4.307	0.883
4.34688	0.886
4.38677	0.898
4.42666	0.901
4.46654	0.903
4.50643	0.903
4.54632	0.909
4.5862	0.911
4.62609	0.9
4.66598	0.896
4.70586	0.898
4.74575	0.896
4.78564	0.903
4.82552	0.904
4.86541	0.908
4.9053	0.908
4.94518	0.904
4.98507	0.9
5.02496	0.896
5.06484	0.896
5.10473	0.9
5.14462	0.898
5.1845	0.908
5.22439	0.911
5.26428	0.918
5.30416	0.911
5.34405	0.909
5.38394	0.903
5.42382	0.908
5.46371	0.904
5.5036	0.893
5.54348	0.883
5.58337	0.878
5.62326	0.862
5.66314	0.824
5.70303	0.811
5.74292	0.773
5.7828	0.704
5.82269	0.521
5.86258	0.237
5.90246	0.252
5.94235	0.413
5.98224	0.44
6.02212	0.401
6.06201	0.35
6.1019	0.322
6.14178	0.483
6.18167	0.49
6.22156	0.263
6.26144	0.173
6.30133	0.378
6.34122	0.6
6.3811	0.64
6.42099	0.603
6.46088	0.506
6.50076	0.36
6.54065	0.354
6.58054	0.39
6.62042	0.395
6.66031	0.224
6.7002	0.27
6.74008	0.488
6.77997	0.618
6.81986	0.568
6.85974	0.36
6.89963	0.322
6.93952	0.255
6.9794	0.418
7.01929	0.408
7.05918	0.378
7.09906	0.255
7.13895	0.196
7.17884	0.422
7.21872	0.536
7.25861	0.604
7.2985	0.639
7.33838	0.634
7.37827	0.539
7.41816	0.481
7.45804	0.485
7.49793	0.519
7.53782	0.539
7.5777	0.501
7.61759	0.493
7.65748	0.508
7.69736	0.529
7.73725	0.522
7.77714	0.557
7.81703	0.58
7.85691	0.572
7.8968	0.58
7.93669	0.608
7.97657	0.611
8.01646	0.601
8.05635	0.49
8.09623	0.35
8.13612	0.231
8.17601	0.209
8.21589	0.273
8.25578	0.37
8.29567	0.44
8.33555	0.493
8.37544	0.488
8.41533	0.473
8.45521	0.483
8.4951	0.462
8.53499	0.483
8.57487	0.54
8.61476	0.552
8.65465	0.555
8.69453	0.501
8.73442	0.419
8.77431	0.35
8.81419	0.224
8.85408	0.111
8.89397	0.095
8.93385	0.111
8.97374	0.206
9.01363	0.342
9.05351	0.4
9.0934	0.455
9.13329	0.503
9.17317	0.563
9.21306	0.616
9.25295	0.65
9.29283	0.67
9.33272	0.678
9.37261	0.688
9.41249	0.704
9.45238	0.726
9.49227	0.734
9.53215	0.734
9.57204	0.736
9.61193	0.722
9.65181	0.706
9.6917	0.691
9.73159	0.711
9.77147	0.726
9.81136	0.731
9.85125	0.713
9.89113	0.649
9.93102	0.529
9.97091	0.463
10.0108	0.437
10.0507	0.442
10.0906	0.49
10.1305	0.54
10.1703	0.585
10.2102	0.619
10.2501	0.642
10.29	0.675
10.3299	0.67
10.3698	0.644
10.4097	0.619
10.4495	0.619
10.4894	0.65
10.5293	0.678
10.5692	0.709
10.6091	0.729
10.649	0.75
10.6889	0.762
10.7288	0.767
10.7686	0.78
10.8085	0.786
10.8484	0.796
10.8883	0.806
10.9282	0.809
10.9681	0.8
11.008	0.798
11.0478	0.8
11.0877	0.8
11.1276	0.816
11.1675	0.822
11.2074	0.831
11.2473	0.836
11.2872	0.842
11.3271	0.842
11.3669	0.845
11.4068	0.847
11.4467	0.849
11.4866	0.857
11.5265	0.857
11.5664	0.855
11.6063	0.859
11.6461	0.854
11.686	0.849
11.7259	0.831
11.7658	0.826
11.8057	0.796
11.8456	0.767
11.8855	0.708
11.9254	0.652
11.9652	0.578
12.0051	0.532
12.045	0.514
12.0849	0.529
12.1248	0.56
12.1647	0.598
12.2046	0.611
12.2444	0.636
12.2843	0.652
12.3242	0.644
12.3641	0.642
12.404	0.639
12.4439	0.659
12.4838	0.7
12.5237	0.729
12.5635	0.739
12.6034	0.75
12.6433	0.737
12.6832	0.701
12.7231	0.69
12.763	0.662
12.8029	0.649
12.8427	0.654
12.8826	0.66
12.9225	0.673
12.9624	0.677
13.0023	0.695
13.0422	0.709
13.0821	0.711
13.122	0.714
13.1618	0.716
13.2017	0.704
13.2416	0.709
13.2815	0.718
13.3214	0.719
13.3613	0.731
13.4012	0.727
13.4411	0.722
13.4809	0.727
13.5208	0.726
13.5607	0.732
13.6006	0.744
13.6405	0.747
13.6804	0.742
13.7203	0.752
13.7601	0.757
13.8	0.762
13.8399	0.759
13.8798	0.749
13.9197	0.749
13.9596	0.744
13.9995	0.74
14.0394	0.727
14.0792	0.726
14.1191	0.721
14.159	0.706
14.1989	0.695
14.2388	0.67
14.2787	0.667
14.3186	0.659
14.3584	0.642
14.3983	0.649
14.4382	0.665
14.4781	0.688
14.518	0.718
14.5579	0.724
14.5978	0.727
14.6377	0.732
14.6775	0.736
14.7174	0.737
14.7573	0.736
14.7972	0.736
14.8371	0.737
14.877	0.729
14.9169	0.727
14.9567	0.719
14.9966	0.704
15.0365	0.704
15.0764	0.7
15.1163	0.686
15.1562	0.677
15.1961	0.672
15.236	0.668
15.2758	0.659
15.3157	0.647
15.3556	0.645
15.3955	0.64
15.4354	0.64
15.4753	0.629
15.5152	0.629
15.555	0.627
15.5949	0.634
15.6348	0.639
15.6747	0.634
15.7146	0.634
15.7545	0.627
15.7944	0.627
15.8343	0.622
