Infrared Spectrum: 4-Vinylbenzoic acid
Formula: C 9 H 8 O 2
CAS: 1075-49-6
State: gas
Origin: EPA-IR VAPOR PHASE LIBRARY
1/CM	ABSORBANCE
549.8	0.00457
559.445	0.00492
569.09	0.00559
578.734	0.00482
588.379	0.00477
598.024	0.00396
607.669	0.00206
617.313	0.00106
626.958	0.00112
636.603	0.00106
646.248	0.00102
655.893	0.0007965
665.537	0.0006541
675.182	0.0008626
684.827	0.00162
694.472	0.00429
704.116	0.01161
713.761	0.01415
723.406	0.00607
733.051	0.00272
742.695	0.00141
752.34	0.00122
761.985	0.00219
771.63	0.00419
781.275	0.0064
790.919	0.00447
800.564	0.00242
810.209	0.00142
819.854	0.000972
829.498	0.00111
839.143	0.00174
848.788	0.00311
858.433	0.00489
868.078	0.00285
877.722	0.00151
887.367	0.0013
897.012	0.00185
906.657	0.00335
916.301	0.00505
925.946	0.00388
935.591	0.00244
945.236	0.0014
954.88	0.00141
964.525	0.00197
974.17	0.00256
983.815	0.00289
993.46	0.00264
1003.1	0.00257
1012.75	0.00504
1022.39	0.00475
1032.04	0.00239
1041.68	0.00239
1051.33	0.00274
1060.97	0.00716
1070.62	0.02037
1080.26	0.03299
1089.91	0.02253
1099.55	0.00689
1109.2	0.00363
1118.84	0.00301
1128.49	0.00247
1138.13	0.00344
1147.78	0.00553
1157.42	0.01307
1167.07	0.02519
1176.71	0.02135
1186.36	0.01363
1196	0.01202
1205.64	0.00677
1215.29	0.00347
1224.93	0.00308
1234.58	0.00267
1244.22	0.00337
1253.87	0.00436
1263.51	0.0052
1273.16	0.00644
1282.8	0.0059
1292.45	0.00452
1302.09	0.00424
1311.74	0.0045
1321.38	0.0062
1331.03	0.00943
1340.67	0.00966
1350.32	0.00767
1359.96	0.01057
1369.61	0.00995
1379.25	0.00436
1388.9	0.00314
1398.54	0.0044
1408.18	0.00421
1417.83	0.00246
1427.47	0.00157
1437.12	0.00108
1446.76	0.0006653
1456.41	0.0007274
1466.05	0.0005828
1475.7	0.0005612
1485.34	0.0007127
1494.99	0.0009187
1504.63	0.00111
1514.28	0.0011
1523.92	0.0007125
1533.57	0.0007883
1543.21	0.0009101
1552.86	0.00131
1562.5	0.0018
1572.15	0.00172
1581.79	0.00148
1591.44	0.00213
1601.08	0.00505
1610.73	0.0072
1620.37	0.00452
1630.01	0.00235
1639.66	0.00166
1649.3	0.0011
1658.95	0.0009094
1668.59	0.0009004
1678.24	0.00124
1687.88	0.00166
1697.53	0.0021
1707.17	0.00251
1716.82	0.00293
1726.46	0.00396
1736.11	0.00888
1745.75	0.02597
1755.4	0.06087
1765.04	0.05763
1774.69	0.01768
1784.33	0.00594
1793.98	0.00322
1803.62	0.00268
1813.27	0.0024
1822.91	0.00213
1832.55	0.00204
1842.2	0.0016
1851.84	0.0009213
1861.49	0.0006595
1871.13	0.0005906
1880.78	0.0006362
1890.42	0.0006574
1900.07	0.0007283
1909.71	0.0007957
1919.36	0.0009521
1929	0.0009077
1938.65	0.0007681
1948.29	0.0005062
1957.94	0.0004314
1967.58	0.0004665
1977.23	0.0003924
1986.87	0.0004178
1996.52	0.0003575
2006.16	0.0002517
2015.81	0.0003532
2025.45	0.0003474
2035.1	0.0003154
2044.74	0.0002685
2054.38	0.0002641
2064.03	0.0003199
2073.67	0.0002931
2083.32	0.0003963
2092.96	0.0003556
2102.61	0.0002785
2112.25	0.0003075
2121.9	0.000306
2131.54	0.0003346
2141.19	0.0003373
2150.83	0.0003317
2160.48	0.000363
2170.12	0.0003657
2179.77	0.0002139
2189.41	0.0003282
2199.06	0.0002098
2208.7	0.0003307
2218.35	0.0002992
2227.99	0.0002331
2237.64	0.0002465
2247.28	0.0002858
2256.92	0.0002811
2266.57	0.0002865
2276.21	0.0002416
2285.86	0.0002925
2295.5	0.0004334
2305.15	0.0003545
2314.79	0.0003378
2324.44	0.0003502
2334.08	0.0004094
2343.73	0.0004275
2353.37	0.0003559
2363.02	0.0003435
2372.66	0.0003327
2382.31	0.0002747
2391.95	0.0003012
2401.6	0.0002604
2411.24	0.0003017
2420.89	0.0005236
2430.53	0.0003186
2440.18	0.0003648
2449.82	0.0003452
2459.47	0.0003604
2469.11	0.000275
2478.75	0.0002077
2488.4	0.0002841
2498.04	0.0002227
2507.69	0.0002944
2517.33	0.000285
2526.98	0.0003192
2536.62	0.000286
2546.27	0.0003381
2555.91	0.0002985
2565.56	0.0002423
2575.2	0.0003618
2584.85	0.0003107
2594.49	0.0002731
2604.14	0.0003748
2613.78	0.0004213
2623.43	0.0003359
2633.07	0.0002144
2642.72	0.0003281
2652.36	0.0002258
2662.01	0.000115
2671.65	0.0002267
2681.29	0.0002311
2690.94	0.0002903
2700.58	0.0001494
2710.23	0.0001587
2719.87	0.0002993
2729.52	0.0002727
2739.16	0.0002679
2748.81	0.0002265
2758.45	0.0002677
2768.1	0.000337
2777.74	0.0002676
2787.39	0.0004118
2797.03	0.0002325
2806.68	0.0002694
2816.32	0.0004589
2825.97	0.0003543
2835.61	0.0003457
2845.26	0.0003281
2854.9	0.0003612
2864.55	0.0005171
2874.19	0.0003238
2883.84	0.0002694
2893.48	0.0003102
2903.12	0.0003751
2912.77	0.0003148
2922.41	0.0002648
2932.06	0.0004415
2941.7	0.0004308
2951.35	0.0003683
2960.99	0.0004864
2970.64	0.0006608
2980.28	0.0007312
2989.93	0.000953
2999.57	0.00133
3009.22	0.0021
3018.86	0.00278
3028.51	0.00185
3038.15	0.00195
3047.8	0.00234
3057.44	0.00214
3067.09	0.00173
3076.73	0.00196
3086.38	0.00222
3096.02	0.00378
3105.67	0.00278
3115.31	0.00109
3124.95	0.0008565
3134.6	0.0005436
3144.24	0.0003758
3153.89	0.0004732
3163.53	0.0003758
3173.18	9.375e-05
3182.82	0.0003351
3192.47	0.0003936
3202.11	0.0003379
3211.76	0.0003686
3221.4	0.0002558
3231.05	0.0001874
3240.69	0.0003953
3250.34	0.0005581
3259.98	0.0003469
3269.63	0.0003098
3279.27	0.0002758
3288.92	0.0004049
3298.56	0.0003622
3308.21	0.0001724
3317.85	0.0003277
3327.49	0.0002312
3337.14	0.0003944
3346.78	0.0004629
3356.43	0.0004127
3366.07	0.0002527
3375.72	0.0002063
3385.36	0.0004786
3395.01	0.0003112
3404.65	9.214e-05
3414.3	0.0002362
3423.94	0.0002983
3433.59	0.0001653
3443.23	0.0003117
3452.88	0.0003214
3462.52	0.0004574
3472.17	0.0003067
3481.81	0.0003201
3491.46	0.0006488
3501.1	0.0007132
3510.75	0.0006801
3520.39	0.0003965
3530.04	0.0004933
3539.68	0.0005441
3549.32	0.0006504
3558.97	0.00112
3568.61	0.00394
3578.26	0.01772
3587.9	0.01873
3597.55	0.00356
3607.19	0.0009405
3616.84	0.000543
3626.48	0.0003539
3636.13	0.0003665
3645.77	0.0002238
3655.42	0.000265
3665.06	0.0003415
3674.71	0.000218
3684.35	0.0002752
3694	0.0004447
3703.64	0.000375
3713.29	0.0001517
3722.93	0.0003566
3732.58	0.0003579
3742.22	0.0003303
3751.86	0.0004229
3761.51	0.0003651
3771.15	0.0004248
3780.8	0.0003935
3790.44	0.0003625
3800.09	0.0003319
3809.73	0.0003341
3819.38	0.0001482
3829.02	0.0003008
3838.67	0.0002785
3848.31	0.0005279
3857.96	0.0002845
3867.6	0.0004705
3877.25	0.0002339
3886.89	0.000208
3896.54	0.0001925
3906.18	0.0003239
3915.83	0.0002003
3925.47	0.0004194
3935.12	0.0001576
3944.76	0.0004711
3954.41	0.0002264
3964.05	0.0002727
3973.69	0.0001615
3983.34	0.0001121
3992.98	0.0003776
