Infrared Spectrum: 1-tert-Butyl-3-methylbenzene
Formula: C 11 H 16
CAS: 1075-38-3
State: gas
Instrument: HP-GC/MS/IRD
Origin: NIST Mass Spectrometry Data Center
1/CM	ABSORBANCE
550	0.0002574
562	9.1e-05
574	0.0002106
586	0.0002652
598	0.0001976
610	8.58e-05
622	0.0001378
634	9.1e-05
646	0.0001716
658	0.0004212
670	0.0004368
682	0.0010244
694	0.0031824
706	0.0047112
718	0.001989
730	0.000494
742	0.0002938
754	0.0006084
766	0.0020176
778	0.0046878
790	0.0030992
802	0.0009802
814	0.0003718
826	0.0002886
838	0.0002132
850	0.0003276
862	0.0005252
874	0.0011024
886	0.001794
898	0.0014716
910	0.0006162
922	0.0004134
934	0.0004264
946	0.0003042
958	0.0003354
970	0.000338
982	0.0003952
994	0.0004082
1006	0.0003978
1018	0.000351
1030	0.000416
1042	0.0004862
1054	0.0005278
1066	0.000507
1078	0.0007332
1090	0.0014378
1102	0.0011492
1114	0.0004576
1126	0.000299
1138	0.0002366
1150	0.0002912
1162	0.000364
1174	0.000468
1186	0.000923
1198	0.002197
1210	0.0017472
1222	0.0008632
1234	0.0005824
1246	0.0005668
1258	0.0013312
1270	0.0029536
1282	0.002197
1294	0.000689
1306	0.0004186
1318	0.0003926
1330	0.000468
1342	0.0007514
1354	0.0018252
1366	0.0033722
1378	0.0028938
1390	0.0021242
1402	0.0019656
1414	0.0014742
1426	0.001677
1438	0.00195
1450	0.0023114
1462	0.003068
1474	0.0039494
1486	0.0048672
1498	0.003484
1510	0.0016198
1522	0.0011648
1534	0.001001
1546	0.0008996
1558	0.0009698
1570	0.0013182
1582	0.0019318
1594	0.0032396
1606	0.0045058
1618	0.0022204
1630	0.0005928
1642	0.000312
1654	0.0002808
1666	0.0003718
1678	0.0003666
1690	0.0002522
1702	0.0001534
1714	0.0001508
1726	0.0001846
1738	0.0002808
1750	0.000351
1762	0.0003666
1774	0.0003484
1786	0.0002834
1798	0.0002132
1810	0.000169
1822	0.0001716
1834	0.0002834
1846	0.0003432
1858	0.0003666
1870	0.0002548
1882	0.0001586
1894	0.0001482
1906	0.0001638
1918	0.0002886
1930	0.000364
1942	0.000234
1954	0.0001456
1966	8.84e-05
1978	8.84e-05
1990	7.54e-05
2002	5.2e-05
2014	6.5e-05
2026	5.98e-05
2038	5.46e-05
2050	6.5e-05
2062	4.16e-05
2074	6.5e-05
2086	4.42e-05
2098	4.16e-05
2110	2.34e-05
2122	3.9e-05
2134	2.86e-05
2146	2.86e-05
2158	6.24e-05
2170	7.8e-05
2182	5.98e-05
2194	5.46e-05
2206	2.86e-05
2218	1.82e-05
2230	4.42e-05
2242	3.9e-05
2254	3.12e-05
2266	9.1e-05
2278	6.24e-05
2290	6.76e-05
2302	7.02e-05
2314	3.64e-05
2326	1.82e-05
2338	3.64e-05
2350	6.24e-05
2362	8.32e-05
2374	0.0001066
2386	0.0001066
2398	0.000117
2410	0.0001248
2422	0.0001118
2434	9.88e-05
2446	7.8e-05
2458	8.32e-05
2470	9.36e-05
2482	8.06e-05
2494	9.62e-05
2506	0.000104
2518	9.88e-05
2530	8.06e-05
2542	9.62e-05
2554	0.0001196
2566	0.0001456
2578	0.0001768
2590	0.0001404
2602	0.0001222
2614	0.0001222
2626	0.0001222
2638	0.0001274
2650	0.0001716
2662	0.000195
2674	0.0001898
2686	0.0001664
2698	0.0001976
2710	0.0002574
2722	0.0003614
2734	0.0004472
2746	0.0004628
2758	0.0003796
2770	0.0003432
2782	0.000364
2794	0.0004316
2806	0.0005954
2818	0.0006864
2830	0.000923
2842	0.0013806
2854	0.0025272
2866	0.005135
2878	0.0072046
2890	0.0069264
2902	0.007683
2914	0.009568
2926	0.0106184
2938	0.0108264
2950	0.0140088
2962	0.0240448
2974	0.0229684
2986	0.0099424
2998	0.0043472
3010	0.0032058
3022	0.0040898
3034	0.0052442
3046	0.0056602
3058	0.004836
3070	0.0037258
3082	0.0028314
3094	0.0019474
3106	0.001326
3118	0.0008294
3130	0.0005044
3142	0.0003848
3154	0.0003536
3166	0.0003744
3178	0.0003666
3190	0.000351
3202	0.0003094
3214	0.0002782
3226	0.0002522
3238	0.0002548
3250	0.0002028
3262	0.0001872
3274	0.0002028
3286	0.0001456
3298	0.0001378
3310	9.88e-05
3322	0.0001118
3334	6.5e-05
3346	0.0001066
3358	0.000143
3370	9.62e-05
3382	0.00013
3394	8.58e-05
3406	2.34e-05
3418	8.32e-05
3430	4.68e-05
3442	0.0001066
3454	7.54e-05
3466	5.2e-06
3478	2.86e-05
3490	3.9e-05
3502	3.12e-05
3514	6.76e-05
3526	3.64e-05
3538	3.38e-05
3550	5.46e-05
3562	9.1e-05
3574	5.98e-05
3586	7.02e-05
3598	4.42e-05
3610	5.98e-05
3622	3.9e-05
3634	2.6e-05
3646	6.76e-05
3658	4.68e-05
3670	4.68e-05
3682	3.9e-05
3694	8.32e-05
3706	4.42e-05
3718	8.32e-05
3730	0.0001144
3742	2.08e-05
3754	5.2e-05
3766	6.24e-05
3778	7.8e-05
3790	9.1e-05
3802	6.24e-05
3814	7.02e-05
3826	5.2e-05
3838	8.06e-05
