Infrared Spectrum: 2-PHENOXY PYRAZINE
Formula: C10 H8 N2 O
CAS: 107697-82-5
State: SOLID (MINERAL OIL MULL)
Melting point: 54-56 C
Class: COBLENTZ
Instrument: Not specified, most likely a prism, grating, or hybrid spectrometer.
Sampling: TRANSMISSION
Resolution: 4
Origin: WYANDOTTE CHEMICALS CORP., WYANDOTTE, MICHIGAN, USA
MICROMETERS	TRANSMITTANCE
2.027	0.406
2.06792	0.404
2.10884	0.409
2.14975	0.399
2.19067	0.397
2.23159	0.399
2.27251	0.406
2.31342	0.407
2.35434	0.407
2.39526	0.409
2.43618	0.412
2.4771	0.411
2.51801	0.419
2.55893	0.426
2.59985	0.424
2.64077	0.428
2.68169	0.431
2.7226	0.424
2.76352	0.421
2.80444	0.409
2.84536	0.418
2.88627	0.409
2.92719	0.409
2.96811	0.409
3.00903	0.409
3.04995	0.418
3.09086	0.412
3.13178	0.401
3.1727	0.401
3.21362	0.368
3.25453	0.283
3.29545	0.273
3.33637	0.129
3.37729	0.088
3.41821	0.095
3.45912	0.114
3.50004	0.18
3.54096	0.581
3.58188	0.617
3.6228	0.612
3.66371	0.587
3.70463	0.592
3.74555	0.595
3.78647	0.607
3.82738	0.622
3.8683	0.614
3.90922	0.621
3.95014	0.626
3.99106	0.648
4.03197	0.643
4.07289	0.634
4.11381	0.643
4.15473	0.648
4.19565	0.651
4.23656	0.641
4.27748	0.636
4.3184	0.639
4.35932	0.655
4.40023	0.677
4.44115	0.674
4.48207	0.696
4.52299	0.706
4.56391	0.708
4.60482	0.704
4.64574	0.716
4.68666	0.708
4.72758	0.73
4.76849	0.737
4.80941	0.72
4.85033	0.726
4.89125	0.744
4.93217	0.75
4.97308	0.762
5.014	0.755
5.05492	0.75
5.09584	0.749
5.13676	0.747
5.17767	0.755
5.21859	0.725
5.25951	0.767
5.30043	0.767
5.34134	0.771
5.38226	0.817
5.42318	0.793
5.4641	0.798
5.50502	0.822
5.54593	0.8
5.58685	0.829
5.62777	0.837
5.66869	0.796
5.7096	0.834
5.75052	0.866
5.79144	0.866
5.83236	0.882
5.87328	0.88
5.91419	0.861
5.95511	0.868
5.99603	0.895
6.03695	0.907
6.07787	0.928
6.11878	0.943
6.1597	0.918
6.20062	0.598
6.24154	0.421
6.28245	0.307
6.32337	0.738
6.36429	0.805
6.40521	0.672
6.44613	0.493
6.48704	0.281
6.52796	0.389
6.56888	0.469
6.6098	0.472
6.65071	0.209
6.69163	0.228
6.73255	0.267
6.77347	0.117
6.81439	0.134
6.8553	0.18
6.89622	0.407
6.93714	0.607
6.97806	0.578
7.01898	0.419
7.05989	0.215
7.10081	0.122
7.14173	0.186
7.18265	0.238
7.22356	0.209
7.26448	0.264
7.3054	0.409
7.34632	0.607
7.38724	0.554
7.42815	0.546
7.46907	0.701
7.50999	0.767
7.55091	0.762
7.59183	0.655
7.63274	0.493
7.67366	0.3
7.71458	0.16
7.7555	0.112
7.79641	0.11
7.83733	0.168
7.87825	0.194
7.91917	0.225
7.96009	0.259
8.001	0.317
8.04192	0.382
8.08284	0.43
8.12376	0.484
8.16467	0.54
8.20559	0.569
8.24651	0.498
8.28743	0.23
8.32835	0.196
8.36926	0.278
8.41018	0.213
8.4511	0.199
8.49202	0.22
8.53294	0.279
8.57385	0.235
8.61477	0.339
8.65569	0.315
8.69661	0.226
8.73752	0.291
8.77844	0.378
8.81936	0.424
8.86028	0.445
8.9012	0.452
8.94211	0.488
8.98303	0.525
9.02395	0.552
9.06487	0.566
9.10578	0.575
9.1467	0.58
9.18762	0.564
9.22854	0.537
9.26946	0.517
9.31037	0.505
9.35129	0.489
9.39221	0.488
9.43313	0.395
9.47405	0.484
9.51496	0.583
9.55588	0.631
9.5968	0.648
9.63772	0.66
9.67863	0.648
9.71955	0.476
9.76047	0.469
9.80139	0.569
9.84231	0.511
9.88322	0.284
9.92414	0.16
9.96506	0.308
10.006	0.54
10.0469	0.617
10.0878	0.6
10.1287	0.631
10.1696	0.667
10.2106	0.67
10.2515	0.653
10.2924	0.641
10.3333	0.639
10.3742	0.667
10.4152	0.697
10.4561	0.708
10.497	0.715
10.5379	0.721
10.5788	0.728
10.6197	0.74
10.6607	0.752
10.7016	0.759
10.7425	0.761
10.7834	0.692
10.8243	0.638
10.8653	0.648
10.9062	0.51
10.9471	0.377
10.988	0.423
11.0289	0.643
11.0698	0.718
11.1108	0.759
11.1517	0.796
11.1926	0.825
11.2335	0.802
11.2744	0.699
11.3153	0.496
11.3563	0.36
11.3972	0.416
11.4381	0.535
11.479	0.598
11.5199	0.636
11.5609	0.66
11.6018	0.658
11.6427	0.658
11.6836	0.639
11.7245	0.578
11.7654	0.474
11.8064	0.279
11.8473	0.179
11.8882	0.245
11.9291	0.418
11.97	0.558
12.011	0.646
12.0519	0.696
12.0928	0.706
12.1337	0.711
12.1746	0.709
12.2155	0.706
12.2565	0.648
12.2974	0.525
12.3383	0.372
12.3792	0.284
12.4201	0.38
12.461	0.544
12.502	0.653
12.5429	0.713
12.5838	0.759
12.6247	0.817
12.6656	0.856
12.7066	0.887
12.7475	0.895
12.7884	0.897
12.8293	0.878
12.8702	0.87
12.9111	0.829
12.9521	0.711
12.993	0.523
13.0339	0.278
13.0748	0.148
13.1157	0.138
13.1567	0.199
13.1976	0.293
13.2385	0.378
13.2794	0.404
13.3203	0.436
13.3612	0.547
13.4022	0.614
13.4431	0.639
13.484	0.662
13.5249	0.677
13.5658	0.694
13.6067	0.701
13.6477	0.706
13.6886	0.715
13.7295	0.732
13.7704	0.755
13.8113	0.767
13.8523	0.769
13.8932	0.788
13.9341	0.81
13.975	0.839
14.0159	0.849
14.0568	0.861
14.0978	0.87
14.1387	0.87
14.1796	0.865
14.2205	0.836
14.2614	0.771
14.3023	0.638
14.3433	0.494
14.3842	0.329
14.4251	0.225
14.466	0.22
14.5069	0.296
14.5479	0.368
14.5888	0.443
14.6297	0.547
14.6706	0.622
14.7115	0.665
14.7524	0.703
14.7934	0.715
14.8343	0.733
14.8752	0.745
14.9161	0.755
14.957	0.759
14.998	0.745
15.0389	0.732
15.0798	0.737
15.1207	0.752
15.1616	0.747
15.2025	0.73
15.2435	0.728
15.2844	0.725
15.3253	0.733
15.3662	0.737
15.4071	0.738
15.448	0.737
15.489	0.738
15.5299	0.738
15.5708	0.737
15.6117	0.738
15.6526	0.732
15.6936	0.725
15.7345	0.718
15.7754	0.703
15.8163	0.692
15.8572	0.679
15.8981	0.651
15.9391	0.641
15.98	0.626
