Infrared Spectrum: 1,4-Cyclohexanedicarboxylic acid
Formula: C 8 H 12 O 4
CAS: 1076-97-7
State: gas
Origin: EPA-IR VAPOR PHASE LIBRARY
1/CM	ABSORBANCE
549.8	0.0125259
559.445	0.0129959
569.09	0.0130159
578.734	0.0129759
588.379	0.0110859
598.024	0.0093559
607.669	0.0078259
617.313	0.0066159
626.958	0.0064959
636.603	0.0073959
646.248	0.0097659
655.893	0.0101959
665.537	0.0071559
675.182	0.0051759
684.827	0.0042459
694.472	0.0044159
704.116	0.0053759
713.761	0.0070959
723.406	0.0078559
733.051	0.0058059
742.695	0.0042759
752.34	0.0039259
761.985	0.0029559
771.63	0.0023559
781.275	0.0016259
790.919	0.0014959
800.564	0.0012759
810.209	0.0008143
819.854	0.0008645
829.498	0.0010415
839.143	0.0020259
848.788	0.0018959
858.433	0.0009885
868.078	0.0010759
877.722	0.0012559
887.367	0.0016059
897.012	0.0019259
906.657	0.0030159
916.301	0.0029159
925.946	0.0022259
935.591	0.0020959
945.236	0.0017259
954.88	0.0010379
964.525	0.0011659
974.17	0.0014959
983.815	0.0019859
993.46	0.0029559
1003.1	0.0048559
1012.75	0.0087459
1022.39	0.0102759
1032.04	0.0079259
1041.68	0.0057959
1051.33	0.0051959
1060.97	0.0078159
1070.62	0.0126059
1080.26	0.0177959
1089.91	0.0237359
1099.55	0.0389959
1109.2	0.0544259
1118.84	0.0528659
1128.49	0.0438959
1138.13	0.0341559
1147.78	0.0283659
1157.42	0.0265659
1167.07	0.0220259
1176.71	0.0142059
1186.36	0.0089859
1196	0.0067559
1205.64	0.0051659
1215.29	0.0053359
1224.93	0.0051959
1234.58	0.0047859
1244.22	0.0040959
1253.87	0.0044959
1263.51	0.0048459
1273.16	0.0052459
1282.8	0.0055759
1292.45	0.0063059
1302.09	0.0065259
1311.74	0.0064359
1321.38	0.0068859
1331.03	0.0074859
1340.67	0.0077159
1350.32	0.0070359
1359.96	0.0058259
1369.61	0.0055759
1379.25	0.0065259
1388.9	0.0066059
1398.54	0.0050159
1408.18	0.0037359
1417.83	0.0030759
1427.47	0.0025359
1437.12	0.0031859
1446.76	0.0052759
1456.41	0.0070259
1466.05	0.0055859
1475.7	0.0027759
1485.34	0.0011959
1494.99	0.0008185
1504.63	0.0006344
1514.28	0.0006423
1523.92	0.0005378
1533.57	0.0004816
1543.21	0.0005039
1552.86	0.0005153
1562.5	0.0006261
1572.15	0.0004981
1581.79	0.0004699
1591.44	0.0004877
1601.08	0.0005514
1610.73	0.0004473
1620.37	0.000432
1630.01	0.0003724
1639.66	0.0004894
1649.3	0.0006105
1658.95	0.0006502
1668.59	0.0007702
1678.24	0.0009174
1687.88	0.0012759
1697.53	0.0018759
1707.17	0.0029459
1716.82	0.0049559
1726.46	0.0094359
1736.11	0.0171159
1745.75	0.0266359
1755.4	0.0461859
1765.04	0.0811159
1774.69	0.0841259
1784.33	0.0496959
1793.98	0.0287459
1803.62	0.0164259
1813.27	0.0080659
1822.91	0.0043559
1832.55	0.0027059
1842.2	0.0016859
1851.84	0.0011559
1861.49	0.0009645
1871.13	0.0008225
1880.78	0.0007725
1890.42	0.0005615
1900.07	0.0006403
1909.71	0.000585
1919.36	0.0005604
1929	0.0005217
1938.65	0.0005537
1948.29	0.0004651
1957.94	0.0004467
1967.58	0.0004744
1977.23	0.000426
1986.87	0.000484
1996.52	0.0004388
2006.16	0.0004447
2015.81	0.0004187
2025.45	0.0004511
2035.1	0.000391
2044.74	0.0003721
2054.38	0.0003368
2064.03	0.0003216
2073.67	0.0002665
2083.32	0.0002206
2092.96	0.0002701
2102.61	0.000298
2112.25	0.0003176
2121.9	0.0003103
2131.54	0.0002788
2141.19	0.0003638
2150.83	0.0003282
2160.48	0.0003356
2170.12	0.0003951
2179.77	0.0003842
2189.41	0.0004424
2199.06	0.0004568
2208.7	0.0005222
2218.35	0.0004748
2227.99	0.0005235
2237.64	0.0004664
2247.28	0.0004044
2256.92	0.0004411
2266.57	0.0004086
2276.21	0.0004
2285.86	0.0003894
2295.5	0.0003428
2305.15	0.0003184
2314.79	0.000382
2324.44	0.0003441
2334.08	0.0002904
2343.73	0.0004248
2353.37	0.0002954
2363.02	0.0003574
2372.66	0.0003205
2382.31	0.0003178
2391.95	0.0003775
2401.6	0.0003085
2411.24	0.0003616
2420.89	0.0003145
2430.53	0.0003065
2440.18	0.0003619
2449.82	0.0003168
2459.47	0.0003567
2469.11	0.0003335
2478.75	0.0003754
2488.4	0.0004455
2498.04	0.0003576
2507.69	0.0003032
2517.33	0.0002886
2526.98	0.0002215
2536.62	0.0002463
2546.27	0.000244
2555.91	0.0001598
2565.56	0.0002746
2575.2	0.00014459
2584.85	0.0002739
2594.49	0.0002952
2604.14	0.0002408
2613.78	0.0003253
2623.43	0.0003228
2633.07	0.0003336
2642.72	0.0002425
2652.36	0.0003241
2662.01	0.0003392
2671.65	0.0003754
2681.29	0.0003346
2690.94	0.0002671
2700.58	0.0002574
2710.23	0.0003329
2719.87	0.0003168
2729.52	0.0002248
2739.16	0.0003139
2748.81	0.0004106
2758.45	0.00014071
2768.1	0.0003645
2777.74	0.000405
2787.39	0.0004637
2797.03	0.0005642
2806.68	0.0004994
2816.32	0.0005504
2825.97	0.0006599
2835.61	0.0009433
2845.26	0.0013059
2854.9	0.0028359
2864.55	0.0054859
2874.19	0.0073959
2883.84	0.0071559
2893.48	0.0065559
2903.12	0.0071359
2912.77	0.0084959
2922.41	0.0099659
2932.06	0.0110559
2941.7	0.0135459
2951.35	0.0198159
2960.99	0.0218059
2970.64	0.0136659
2980.28	0.0055059
2989.93	0.0019159
2999.57	0.0011459
3009.22	0.0007587
3018.86	0.0005647
3028.51	0.0004706
3038.15	0.0004515
3047.8	0.0003352
3057.44	0.0003635
3067.09	0.0004085
3076.73	0.0003221
3086.38	0.000193
3096.02	0.0002964
3105.67	0.0003459
3115.31	0.00015325
3124.95	0.0001648
3134.6	0.0001953
3144.24	0.0002119
3153.89	0.00014984
3163.53	0.00012202
3173.18	6.3178e-05
3182.82	7.603e-05
3192.47	0.0001635
3202.11	0.0002023
3211.76	0.0001317
3221.4	0.00010506
3231.05	0.0003052
3240.69	0.0001695
3250.34	0.000238
3259.98	0.00015192
3269.63	0.00012222
3279.27	0.0001809
3288.92	0.00015387
3298.56	0.0001603
3308.21	0.000157
3317.85	0.0001642
3327.49	0.0002025
3337.14	0.0002007
3346.78	0.0001971
3356.43	0.00014522
3366.07	0.0001872
3375.72	5.5196e-05
3385.36	0.0002862
3395.01	0.0001639
3404.65	0.0001769
3414.3	0.0002108
3423.94	3.25e-05
3433.59	0.00015511
3443.23	0.0002238
3452.88	0.0002412
3462.52	0.0002486
3472.17	0.0003748
3481.81	0.0004433
3491.46	0.0003863
3501.1	0.0006263
3510.75	0.0010959
3520.39	0.0012059
3530.04	0.0013059
3539.68	0.0014859
3549.32	0.0026059
3558.97	0.0091259
3568.61	0.0340659
3578.26	0.0328259
3587.9	0.0073559
3597.55	0.0017859
3607.19	0.0011359
3616.84	0.0007592
3626.48	0.000569
3636.13	0.000503
3645.77	0.000376
3655.42	0.0002621
3665.06	0.00013436
3674.71	0.0002883
3684.35	0.0002947
3694	0.00015233
3703.64	0.00015329
3713.29	0.00011486
3722.93	0.0002284
3732.58	0.000254
3742.22	0.0003338
3751.86	0.000259
3761.51	0.0004289
3771.15	0.0002683
3780.8	0.0003249
3790.44	0.00013947
3800.09	0.0001972
3809.73	9.378e-05
3819.38	6.755e-05
3829.02	0.0001563
3838.67	0.00013104
3848.31	0.0003396
3857.96	0.0001982
3867.6	0.0001779
3877.25	0.0002468
3886.89	0.0002383
3896.54	0.0003268
3906.18	0.0003242
3915.83	0.00014277
3925.47	0.0003017
3935.12	0.0001932
3944.76	0.00013592
3954.41	0.0002111
3964.05	0.0003622
3973.69	0.0003302
3983.34	8.621e-05
3992.98	0.00011073
