Infrared Spectrum: 4-Hydroxycoumarin
Formula: C 9 H 6 O 3
CAS: 1076-38-6
State: gas
Origin: EPA-IR VAPOR PHASE LIBRARY
1/CM	ABSORBANCE
501.5	0.00196
513.074	0.00121
524.648	0.00133
536.222	0.0006823
547.796	0.0006551
559.37	0.000517
570.944	0.000439
582.518	0.0002178
594.092	0.0005456
605.666	0.0003952
617.24	0.0005539
628.814	0.0005989
640.388	0.0003665
651.962	0.0004131
663.536	0.0006136
675.11	0.0006773
686.684	0.0003162
698.258	0.0003573
709.832	0.0005308
721.406	0.0006222
732.98	0.00133
744.554	0.00355
756.128	0.00691
767.702	0.00565
779.276	0.00196
790.85	0.0008294
802.423	0.000879
813.997	0.00146
825.571	0.00246
837.145	0.00246
848.719	0.00195
860.293	0.00171
871.867	0.0008849
883.441	0.0009678
895.015	0.00181
906.589	0.00477
918.163	0.00642
929.737	0.00299
941.311	0.0009736
952.885	0.0005099
964.459	0.0004068
976.033	0.0003472
987.607	0.0004254
999.181	0.000411
1010.76	0.0006771
1022.33	0.0011
1033.9	0.00126
1045.48	0.00131
1057.05	0.00149
1068.63	0.00144
1080.2	0.00221
1091.77	0.0024
1103.35	0.00231
1114.92	0.00409
1126.49	0.00802
1138.07	0.00981
1149.64	0.00709
1161.22	0.00831
1172.79	0.011
1184.36	0.00777
1195.94	0.00673
1207.51	0.0082
1219.09	0.00829
1230.66	0.00781
1242.23	0.00678
1253.81	0.00409
1265.38	0.00349
1276.96	0.0033
1288.53	0.0046
1300.1	0.01028
1311.68	0.01585
1323.25	0.01093
1334.83	0.00444
1346.4	0.00214
1357.97	0.00128
1369.55	0.00141
1381.12	0.00222
1392.7	0.0024
1404.27	0.00175
1415.84	0.00151
1427.42	0.0019
1438.99	0.00225
1450.57	0.0064
1462.14	0.01172
1473.71	0.00572
1485.29	0.00242
1496.86	0.00196
1508.44	0.00137
1520.01	0.000962
1531.58	0.0009828
1543.16	0.00113
1554.73	0.00128
1566.31	0.00207
1577.88	0.00275
1589.45	0.00396
1601.03	0.00765
1612.6	0.0093
1624.18	0.00611
1635.75	0.00669
1647.32	0.00675
1658.9	0.00392
1670.47	0.00246
1682.05	0.00237
1693.62	0.00306
1705.19	0.00658
1716.77	0.01437
1728.34	0.01461
1739.92	0.00755
1751.49	0.00666
1763.06	0.01117
1774.64	0.01611
1786.21	0.01595
1797.79	0.01321
1809.36	0.0224
1820.93	0.01933
1832.51	0.00544
1844.08	0.00209
1855.66	0.00138
1867.23	0.00107
1878.8	0.0009559
1890.38	0.0007155
1901.95	0.0005333
1913.53	0.0004984
1925.1	0.0004914
1936.67	0.0005571
1948.25	0.000547
1959.82	0.0005307
1971.4	0.0005011
1982.97	0.0004068
1994.54	0.0003712
2006.12	0.0003307
2017.69	0.0003315
2029.27	0.0003219
2040.84	0.0003241
2052.41	0.0003297
2063.99	0.0003089
2075.56	0.0002464
2087.14	0.000273
2098.71	0.0002606
2110.28	0.0002521
2121.86	0.0002785
2133.43	0.0002953
2145.01	0.0002919
2156.58	0.0002616
2168.15	0.0002654
2179.73	0.0002737
2191.3	0.0002486
2202.88	0.0002335
2214.45	0.000241
2226.02	0.0002452
2237.6	0.0002709
2249.17	0.0002625
2260.74	0.0002989
2272.32	0.0003292
2283.89	0.0003776
2295.47	0.0003898
2307.04	0.000422
2318.61	0.0003974
2330.19	0.0003732
2341.76	0.0003877
2353.34	0.0003418
2364.91	0.0003632
2376.48	0.0003277
2388.06	0.0002793
2399.63	0.0002843
2411.21	0.0003321
2422.78	0.0003144
2434.35	0.0002709
2445.93	0.0003375
2457.5	0.0003135
2469.08	0.0002548
2480.65	0.0002264
2492.22	0.0002618
2503.8	0.0002616
2515.37	0.0002592
2526.95	0.0002742
2538.52	0.0002516
2550.09	0.0002409
2561.67	0.000257
2573.24	0.0002354
2584.82	0.0002643
2596.39	0.0002556
2607.96	0.0002338
2619.54	0.0002336
2631.11	0.0002489
2642.69	0.0002113
2654.26	0.0001465
2665.83	0.0001822
2677.41	0.000219
2688.98	0.0002526
2700.56	0.0002229
2712.13	0.0002835
2723.7	0.0002967
2735.28	0.0002901
2746.85	0.0002933
2758.43	0.0002615
2770	0.0002584
2781.57	0.0002439
2793.15	0.0001856
2804.72	0.0002473
2816.3	0.0002089
2827.87	0.0001708
2839.44	0.0002171
2851.02	0.0001366
2862.59	0.0001264
2874.17	0.0002141
2885.74	0.0002376
2897.31	0.0003354
2908.89	0.0002923
2920.46	0.0002902
2932.04	0.0002716
2943.61	0.000242
2955.18	0.000201
2966.76	0.0001872
2978.33	0.0002632
2989.91	0.0002346
3001.48	0.0002724
3013.05	0.0003713
3024.63	0.0004102
3036.2	0.0005312
3047.78	0.0007473
3059.35	0.0007371
3070.92	0.00109
3082.5	0.00142
3094.07	0.0012
3105.65	0.0004936
3117.22	0.0002396
3128.79	0.000317
3140.37	0.0003249
3151.94	0.0002892
3163.52	0.0003527
3175.09	0.0002116
3186.66	0.0002604
3198.24	0.000301
3209.81	0.0003246
3221.39	0.0003008
3232.96	0.0003923
3244.53	0.0003498
3256.11	0.0002688
3267.68	0.0003574
3279.26	0.0002948
3290.83	0.0002305
3302.4	0.0003947
3313.98	0.0003128
3325.55	0.0002742
3337.13	0.0002755
3348.7	0.0003631
3360.27	0.0002734
3371.85	0.0002989
3383.42	0.0002906
3395	0.0002043
3406.57	0.0003346
3418.14	0.000448
3429.72	0.0005372
3441.29	0.0004376
3452.86	0.0003357
3464.44	0.0003305
3476.01	0.0002691
3487.59	0.000355
3499.16	0.0003449
3510.73	0.0004145
3522.31	0.0004869
3533.88	0.0004091
3545.46	0.0003755
3557.03	0.0004075
3568.6	0.0004772
3580.18	0.0004194
3591.75	0.0004672
3603.33	0.0006334
3614.9	0.00101
3626.47	0.00223
3638.05	0.00228
3649.62	0.0007412
3661.2	0.0003939
3672.77	0.0002483
3684.34	0.0001904
3695.92	0.0003503
3707.49	0.0001832
3719.07	0.0001629
3730.64	0.0001528
3742.21	0.00027
3753.79	0.0003312
3765.36	0.0001929
3776.94	0.0001724
3788.51	0.0001942
3800.08	0.000152
3811.66	0.0002669
3823.23	0.0002185
3834.81	0.0001557
3846.38	0.00019
3857.95	0.0001324
3869.53	0.0001696
3881.1	0.0002559
3892.68	0.0002192
3904.25	0.0001136
3915.82	0.0002151
3927.4	0.0003548
3938.97	0.0002137
3950.55	0.000264
3962.12	0.0002477
3973.69	0.0002222
3985.27	0.00018
3996.84	0.0001354
