Infrared Spectrum: DL-Thioctic acid
Formula: C 8 H 14 O 2 S 2
CAS: 1077-28-7
State: gas
Origin: EPA-IR VAPOR PHASE LIBRARY
1/CM	ABSORBANCE
549.8	0.016481
559.445	0.018491
569.09	0.019001
578.734	0.018991
588.379	0.020911
598.024	0.021811
607.669	0.022651
617.313	0.021971
626.958	0.020781
636.603	0.017911
646.248	0.013271
655.893	0.010951
665.537	0.009211
675.182	0.008621
684.827	0.007921
694.472	0.007201
704.116	0.006791
713.761	0.006751
723.406	0.006511
733.051	0.007221
742.695	0.007741
752.34	0.006681
761.985	0.005201
771.63	0.004101
781.275	0.003451
790.919	0.003031
800.564	0.002941
810.209	0.002661
819.854	0.002801
829.498	0.002821
839.143	0.003061
848.788	0.003191
858.433	0.003201
868.078	0.003771
877.722	0.003971
887.367	0.003961
897.012	0.003871
906.657	0.003931
916.301	0.004211
925.946	0.004361
935.591	0.004041
945.236	0.003621
954.88	0.003321
964.525	0.003381
974.17	0.003551
983.815	0.004201
993.46	0.005151
1003.1	0.005991
1012.75	0.006991
1022.39	0.008651
1032.04	0.011451
1041.68	0.015221
1051.33	0.018651
1060.97	0.021221
1070.62	0.024141
1080.26	0.027611
1089.91	0.032671
1099.55	0.043861
1109.2	0.064231
1118.84	0.078491
1128.49	0.070601
1138.13	0.055081
1147.78	0.044091
1157.42	0.036301
1167.07	0.030671
1176.71	0.026791
1186.36	0.023521
1196	0.021301
1205.64	0.019531
1215.29	0.018211
1224.93	0.016671
1234.58	0.015341
1244.22	0.015391
1253.87	0.016471
1263.51	0.016401
1273.16	0.015191
1282.8	0.013651
1292.45	0.012761
1302.09	0.011941
1311.74	0.011431
1321.38	0.010961
1331.03	0.010991
1340.67	0.012261
1350.32	0.014491
1359.96	0.016741
1369.61	0.018871
1379.25	0.020551
1388.9	0.018421
1398.54	0.013071
1408.18	0.009871
1417.83	0.009761
1427.47	0.011461
1437.12	0.012621
1446.76	0.013181
1456.41	0.013101
1466.05	0.009551
1475.7	0.005031
1485.34	0.002971
1494.99	0.002131
1504.63	0.001721
1514.28	0.001491
1523.92	0.001271
1533.57	0.0010905
1543.21	0.001141
1552.86	0.001151
1562.5	0.001251
1572.15	0.001231
1581.79	0.001251
1591.44	0.0008348
1601.08	0.0007587
1610.73	0.0007157
1620.37	0.0008589
1630.01	0.0008116
1639.66	0.0008702
1649.3	0.001171
1658.95	0.001161
1668.59	0.001571
1678.24	0.002101
1687.88	0.002551
1697.53	0.003601
1707.17	0.005361
1716.82	0.008241
1726.46	0.013401
1736.11	0.022571
1745.75	0.036971
1755.4	0.056391
1765.04	0.088211
1774.69	0.127201
1784.33	0.111491
1793.98	0.068511
1803.62	0.042241
1813.27	0.022421
1822.91	0.011441
1832.55	0.006411
1842.2	0.004131
1851.84	0.002851
1861.49	0.002181
1871.13	0.001821
1880.78	0.001671
1890.42	0.001561
1900.07	0.001471
1909.71	0.001321
1919.36	0.001261
1929	0.0011359
1938.65	0.0011277
1948.29	0.0010103
1957.94	0.0010946
1967.58	0.0009961
1977.23	0.0009278
1986.87	0.0009193
1996.52	0.0008883
2006.16	0.0009068
2015.81	0.0007953
2025.45	0.0007319
2035.1	0.0008737
2044.74	0.0006663
2054.38	0.0007342
2064.03	0.0007429
2073.67	0.0007243
2083.32	0.000687
2092.96	0.0006991
2102.61	0.0007167
2112.25	0.0007626
2121.9	0.0008533
2131.54	0.0008437
2141.19	0.0008146
2150.83	0.0009332
2160.48	0.0010518
2170.12	0.0009437
2179.77	0.0010015
2189.41	0.0010145
2199.06	0.0010901
2208.7	0.0010915
2218.35	0.0010114
2227.99	0.0010296
2237.64	0.0010805
2247.28	0.0009681
2256.92	0.001088
2266.57	0.0010955
2276.21	0.0009232
2285.86	0.0009196
2295.5	0.0009744
2305.15	0.0007489
2314.79	0.0008953
2324.44	0.0009932
2334.08	0.000886
2343.73	0.0009037
2353.37	0.0008841
2363.02	0.000876
2372.66	0.0007967
2382.31	0.0008421
2391.95	0.0008042
2401.6	0.0008593
2411.24	0.0009145
2420.89	0.0008837
2430.53	0.0008604
2440.18	0.0009129
2449.82	0.000805
2459.47	0.0008625
2469.11	0.0009446
2478.75	0.000732
2488.4	0.0007644
2498.04	0.000672
2507.69	0.0009355
2517.33	0.000747
2526.98	0.0007687
2536.62	0.0007549
2546.27	0.0007441
2555.91	0.0006528
2565.56	0.0007014
2575.2	0.0007312
2584.85	0.0006828
2594.49	0.0007185
2604.14	0.0007572
2613.78	0.0006905
2623.43	0.0009681
2633.07	0.0009282
2642.72	0.0009011
2652.36	0.0011452
2662.01	0.0009855
2671.65	0.0010523
2681.29	0.0010949
2690.94	0.0010157
2700.58	0.0010603
2710.23	0.001181
2719.87	0.0009459
2729.52	0.0008609
2739.16	0.0010939
2748.81	0.0010815
2758.45	0.0009765
2768.1	0.001281
2777.74	0.001341
2787.39	0.001531
2797.03	0.001861
2806.68	0.002121
2816.32	0.002771
2825.97	0.003831
2835.61	0.005851
2845.26	0.009711
2854.9	0.014581
2864.55	0.017781
2874.19	0.018091
2883.84	0.015921
2893.48	0.015841
2903.12	0.020301
2912.77	0.030021
2922.41	0.046611
2932.06	0.064901
2941.7	0.069851
2951.35	0.060101
2960.99	0.041261
2970.64	0.029531
2980.28	0.020811
2989.93	0.011281
2999.57	0.006761
3009.22	0.004321
3018.86	0.003171
3028.51	0.002451
3038.15	0.002041
3047.8	0.001721
3057.44	0.001451
3067.09	0.001221
3076.73	0.0011446
3086.38	0.001181
3096.02	0.000714
3105.67	0.001045
3115.31	0.0008242
3124.95	0.0006813
3134.6	0.0006459
3144.24	0.0007757
3153.89	0.000834
3163.53	0.0007285
3173.18	0.0008012
3182.82	0.0004586
3192.47	0.0005375
3202.11	0.0003343
3211.76	0.0002391
3221.4	0.00022109
3231.05	0.0005102
3240.69	0.0004605
3250.34	0.00021662
3259.98	0.0007143
3269.63	0.0003584
3279.27	0.0004819
3288.92	0.0002983
3298.56	0.0005653
3308.21	0.0005415
3317.85	0.0004983
3327.49	0.0002675
3337.14	0.000463
3346.78	0.0004241
3356.43	0.0003767
3366.07	0.00017234
3375.72	0.00023679
3385.36	0.000521
3395.01	0.0004584
3404.65	0.000321
3414.3	0.0003694
3423.94	0.0006216
3433.59	0.0003784
3443.23	0.0001743
3452.88	0.0005783
3462.52	0.0003739
3472.17	0.0009401
3481.81	0.000747
3491.46	0.0008148
3501.1	0.0010711
3510.75	0.001521
3520.39	0.001661
3530.04	0.002361
3539.68	0.003761
3549.32	0.005551
3558.97	0.011401
3568.61	0.037841
3578.26	0.052911
3587.9	0.014281
3597.55	0.005561
3607.19	0.002651
3616.84	0.001661
3626.48	0.001351
3636.13	0.0010454
3645.77	0.0007629
3655.42	0.0009157
3665.06	0.0007104
3674.71	0.0007958
3684.35	0.0004901
3694	0.000669
3703.64	0.00020251
3713.29	0.0003477
3722.93	0.0003171
3732.58	0.0002964
3742.22	0.0002749
3751.86	0.0004258
3761.51	0.0003845
3771.15	0.000293
3780.8	0.0005275
3790.44	0.0003023
3800.09	7.17e-05
3809.73	0.0004316
3819.38	0.0004603
3829.02	0.0004068
3838.67	0.0004343
3848.31	0.0003163
3857.96	0.000372
3867.6	0.0002812
3877.25	0.00021526
3886.89	0.0003107
3896.54	0.0003458
3906.18	0.0004858
3915.83	0.0003086
3925.47	0.0002378
3935.12	0.0003335
3944.76	0.0002874
3954.41	0.000541
3964.05	0.0006747
3973.69	0.0003466
3983.34	0.000449
3992.98	0.0005504
