Infrared Spectrum: 1,2,3,4-TETRAHYDRO-1-VERATRYL-9-PYRID(3,4,b)INDOLE HYDROCHLORIDE
Formula: C20 H22 N2 O2  * H Cl
CAS: 107894-44-0
State: SOLID (NUJOL MULL)
Class: COBLENTZ
Instrument: PERKIN-ELMER
Sampling: TRANSMISSION
Resolution: 4
Origin: ABBOTT LABORATORIES - WASHBURN
MICROMETERS	TRANSMITTANCE
2.048	0.491
2.08789	0.5049
2.12779	0.52
2.16768	0.5351
2.20758	0.54
2.24747	0.5531
2.28736	0.5601
2.32726	0.56
2.36715	0.551
2.40705	0.5662
2.44694	0.576
2.48683	0.5899
2.52673	0.608
2.56662	0.623
2.60651	0.63
2.64641	0.6421
2.6863	0.6501
2.7262	0.658
2.76609	0.6631
2.80598	0.6578
2.84588	0.653
2.88577	0.652
2.92567	0.6449
2.96556	0.633
3.00545	0.628
3.04535	0.6278
3.08524	0.6075
3.12514	0.4698
3.16503	0.2823
3.20492	0.2444
3.24482	0.3166
3.28471	0.4272
3.3246	0.463
3.3645	0.4476
3.40439	0.1055
3.44429	0.0359
3.48418	0.0312
3.52407	0.06
3.56397	0.2119
3.60386	0.5005
3.64376	0.5331
3.68365	0.5063
3.72354	0.4558
3.76344	0.428
3.80333	0.4041
3.84323	0.4881
3.88312	0.451
3.92301	0.4611
3.96291	0.4499
4.0028	0.5835
4.04269	0.635
4.08259	0.6322
4.12248	0.5929
4.16238	0.5661
4.20227	0.6534
4.24216	0.6881
4.28206	0.71
4.32195	0.729
4.36185	0.7299
4.40174	0.729
4.44163	0.73
4.48153	0.7402
4.52142	0.75
4.56132	0.752
4.60121	0.7522
4.6411	0.755
4.681	0.76
4.72089	0.764
4.76078	0.762
4.80068	0.767
4.84057	0.767
4.88047	0.764
4.92036	0.759
4.96025	0.76
5.00015	0.77
5.04004	0.7749
5.07994	0.7785
5.11983	0.7777
5.15972	0.7795
5.19962	0.7744
5.23951	0.7785
5.27941	0.777
5.3193	0.7791
5.35919	0.789
5.39909	0.7823
5.43898	0.7864
5.47887	0.7931
5.51877	0.7911
5.55866	0.7915
5.59856	0.789
5.63845	0.779
5.67834	0.79
5.71824	0.787
5.75813	0.787
5.79803	0.788
5.83792	0.789
5.87781	0.7846
5.91771	0.774
5.9576	0.7702
5.9975	0.772
6.03739	0.769
6.07728	0.7643
6.11718	0.757
6.15707	0.7225
6.19696	0.6674
6.23686	0.6743
6.27675	0.5958
6.31665	0.6484
6.35654	0.6719
6.39643	0.7084
6.43633	0.761
6.47622	0.755
6.51612	0.7292
6.55601	0.5677
6.5959	0.3013
6.6358	0.4091
6.67569	0.6184
6.71559	0.607
6.75548	0.6208
6.79537	0.3269
6.83527	0.1713
6.87516	0.1615
6.91505	0.2203
6.95495	0.2768
6.99484	0.3062
7.03474	0.4019
7.07463	0.5507
7.11452	0.5478
7.15442	0.6567
7.19431	0.6627
7.23421	0.5285
7.2741	0.3505
7.31399	0.4233
7.35389	0.5394
7.39378	0.583
7.43368	0.6015
7.47357	0.5515
7.51346	0.5442
7.55336	0.5529
7.59325	0.5227
7.63314	0.6048
7.67304	0.5518
7.71293	0.5822
7.75283	0.5243
7.79272	0.5598
7.83261	0.5475
7.87251	0.3389
7.9124	0.3246
7.9523	0.3472
7.99219	0.3731
8.03208	0.4795
8.07198	0.4519
8.11187	0.3214
8.15177	0.3905
8.19166	0.5719
8.23155	0.6486
8.27145	0.6481
8.31134	0.5577
8.35123	0.5518
8.39113	0.6216
8.43102	0.655
8.47092	0.6573
8.51081	0.6212
8.5507	0.6006
8.5906	0.4837
8.63049	0.3717
8.67039	0.3487
8.71028	0.4537
8.75017	0.394
8.79007	0.3979
8.82996	0.5168
8.86986	0.6399
8.90975	0.668
8.94964	0.6817
8.98954	0.6778
9.02943	0.6792
9.06932	0.6961
9.10922	0.706
9.14911	0.712
9.18901	0.7174
9.2289	0.7249
9.26879	0.6932
9.30869	0.7098
9.34858	0.7314
9.38848	0.7309
9.42837	0.6796
9.46826	0.6814
9.50816	0.6913
9.54805	0.5709
9.58795	0.521
9.62784	0.5843
9.66773	0.6323
9.70763	0.6356
9.74752	0.476
9.78741	0.3585
9.82731	0.4205
9.8672	0.6158
9.9071	0.6563
9.94699	0.6241
9.98688	0.6734
10.0268	0.7244
10.0667	0.6937
10.1066	0.6952
10.1465	0.7226
10.1864	0.7433
10.2262	0.744
10.2661	0.737
10.306	0.7536
10.3459	0.7583
10.3858	0.7595
10.4257	0.764
10.4656	0.7632
10.5055	0.7599
10.5454	0.7341
10.5853	0.7184
10.6252	0.7384
10.6651	0.744
10.705	0.749
10.7449	0.7408
10.7848	0.722
10.8247	0.7534
10.8645	0.755
10.9044	0.7618
10.9443	0.773
10.9842	0.7757
11.0241	0.7629
11.064	0.7594
11.1039	0.7755
11.1438	0.78
11.1837	0.7791
11.2236	0.772
11.2635	0.7596
11.3034	0.715
11.3433	0.6718
11.3832	0.7378
11.4231	0.7527
11.463	0.7604
11.5029	0.774
11.5427	0.774
11.5826	0.7766
11.6225	0.7847
11.6624	0.79
11.7023	0.777
11.7422	0.7323
11.7821	0.6315
11.822	0.6266
11.8619	0.7403
11.9018	0.779
11.9417	0.7943
11.9816	0.797
12.0215	0.796
12.0614	0.797
12.1013	0.7885
12.1412	0.7749
12.181	0.7523
12.2209	0.7366
12.2608	0.72
12.3007	0.6593
12.3406	0.6346
12.3805	0.5745
12.4204	0.582
12.4603	0.7108
12.5002	0.7601
12.5401	0.7795
12.58	0.7916
12.6199	0.8003
12.6598	0.807
12.6997	0.797
12.7396	0.7898
12.7795	0.7818
12.8194	0.7635
12.8592	0.7191
12.8991	0.658
12.939	0.6866
12.9789	0.7046
13.0188	0.6997
13.0587	0.6358
13.0986	0.5165
13.1385	0.5062
13.1784	0.5205
13.2183	0.5065
13.2582	0.5606
13.2981	0.5644
13.338	0.4524
13.3779	0.2483
13.4178	0.1428
13.4577	0.4298
13.4975	0.588
13.5374	0.633
13.5773	0.657
13.6172	0.6488
13.6571	0.6356
13.697	0.6
13.7369	0.591
13.7768	0.598
13.8167	0.602
13.8566	0.607
13.8965	0.6207
13.9364	0.6477
13.9763	0.6577
14.0162	0.662
14.0561	0.658
14.096	0.65
14.1358	0.6349
14.1757	0.6202
14.2156	0.612
14.2555	0.612
14.2954	0.6448
14.3353	0.675
14.3752	0.685
14.4151	0.6698
14.455	0.6575
14.4949	0.6321
14.5348	0.5988
14.5747	0.5565
14.6146	0.5113
14.6545	0.4886
14.6944	0.484
14.7343	0.4983
14.7742	0.5211
14.814	0.5505
14.8539	0.5723
14.8938	0.5835
14.9337	0.596
14.9736	0.6142
15.0135	0.632
15.0534	0.6228
15.0933	0.6202
15.1332	0.622
15.1731	0.625
15.213	0.617
15.2529	0.6124
15.2928	0.61
15.3327	0.6077
15.3726	0.598
15.4125	0.5927
