Infrared Spectrum: Heptylbenzene
Formula: C 13 H 20
CAS: 1078-71-3
State: gas
Instrument: HP-GC/MS/IRD
Origin: NIST Mass Spectrometry Data Center
1/CM	ABSORBANCE
550	8.32e-05
562	0.0003424
574	0.00032
586	0.0002016
598	0.0002144
610	0.0001568
622	3.2e-06
634	8.96e-05
646	0.0001664
658	0.0004
670	0.0009792
682	0.0022528
694	0.0058816
706	0.0047168
718	0.0035904
730	0.0041696
742	0.004432
754	0.0023456
766	0.001152
778	0.000704
790	0.0004608
802	0.000416
814	0.0003392
826	0.0002272
838	0.0002272
850	0.0002368
862	0.0002656
874	0.0002944
886	0.0003264
898	0.0004384
910	0.0004736
922	0.0003808
934	0.0003136
946	0.0002048
958	0.0002208
970	0.00024
982	0.0002528
994	0.00032
1006	0.0003936
1018	0.0006176
1030	0.0011648
1042	0.0005088
1054	0.0004608
1066	0.0005984
1078	0.0004896
1090	0.0003488
1102	0.0003456
1114	0.000352
1126	0.0001792
1138	0.0001344
1150	0.0001056
1162	0.000112
1174	0.0001792
1186	0.000256
1198	0.0002336
1210	0.0001856
1222	0.0002016
1234	0.0002464
1246	0.0002336
1258	0.0002912
1270	0.0003392
1282	0.0003776
1294	0.0005184
1306	0.0006112
1318	0.0006464
1330	0.000784
1342	0.0010656
1354	0.001104
1366	0.0009728
1378	0.0009408
1390	0.0008064
1402	0.000576
1414	0.000608
1426	0.0008192
1438	0.0016352
1450	0.003072
1462	0.0034112
1474	0.0023584
1486	0.0020736
1498	0.0030848
1510	0.0009568
1522	0.0005088
1534	0.0003776
1546	0.00032
1558	0.0003712
1570	0.000368
1582	0.0006656
1594	0.0012352
1606	0.00152
1618	0.0005088
1630	0.000224
1642	0.0002176
1654	0.0002368
1666	0.0001408
1678	9.92e-05
1690	0.0001024
1702	0.0001568
1714	0.0001728
1726	0.0001408
1738	0.000192
1750	0.0001856
1762	0.0001312
1774	0.000176
1786	0.0003456
1798	0.0003808
1810	0.0001856
1822	0.0001344
1834	0.0001376
1846	0.0002112
1858	0.0002368
1870	0.000272
1882	0.0002208
1894	0.000144
1906	9.6e-05
1918	0.0001696
1930	0.0003296
1942	0.0003776
1954	0.0002752
1966	8e-05
1978	6.08e-05
1990	4.16e-05
2002	5.12e-05
2014	3.84e-05
2026	2.24e-05
2038	6.08e-05
2050	4.48e-05
2062	3.84e-05
2074	1.28e-05
2086	3.52e-05
2098	3.2e-05
2110	2.56e-05
2122	3.84e-05
2134	2.88e-05
2146	6.4e-06
2158	1.92e-05
2170	1.92e-05
2182	3.84e-05
2194	3.2e-05
2206	4.48e-05
2218	3.52e-05
2230	1.6e-05
2242	3.52e-05
2254	3.84e-05
2266	3.52e-05
2278	4.16e-05
2290	3.84e-05
2302	5.76e-05
2314	0.0001248
2326	9.92e-05
2338	0.000128
2350	9.28e-05
2362	0.0001056
2374	8e-05
2386	4.48e-05
2398	3.84e-05
2410	3.2e-06
2422	2.88e-05
2434	3.52e-05
2446	9.6e-06
2458	3.84e-05
2470	1.92e-05
2482	1.28e-05
2494	4.16e-05
2506	1.92e-05
2518	5.76e-05
2530	5.44e-05
2542	7.04e-05
2554	8.96e-05
2566	9.28e-05
2578	0.0001152
2590	0.0001472
2602	0.00016
2614	0.0001792
2626	0.0001984
2638	0.0002432
2650	0.0002656
2662	0.0002816
2674	0.0003072
2686	0.0003104
2698	0.000272
2710	0.0002912
2722	0.0002976
2734	0.0003456
2746	0.0004064
2758	0.0004384
2770	0.0004832
2782	0.0006336
2794	0.0008256
2806	0.0010016
2818	0.00136
2830	0.0019392
2842	0.0034176
2854	0.0078784
2866	0.0119616
2878	0.0098944
2890	0.008176
2902	0.0092736
2914	0.0148832
2926	0.0266208
2938	0.0312224
2950	0.0192768
2962	0.0138976
2974	0.0106528
2986	0.004736
2998	0.0030304
3010	0.0030368
3022	0.0044096
3034	0.0059712
3046	0.0035616
3058	0.003488
3070	0.0052736
3082	0.0034816
3094	0.0023616
3106	0.0014912
3118	0.000832
3130	0.0004192
3142	0.0003072
3154	0.0002656
3166	0.0002496
3178	0.0001952
3190	0.0001696
3202	0.000144
3214	0.0001184
3226	0.0001056
3238	9.28e-05
3250	4.8e-05
3262	7.36e-05
3274	4.16e-05
3286	7.36e-05
3298	2.56e-05
3310	5.12e-05
3322	4.48e-05
3334	3.52e-05
3346	2.56e-05
3358	5.44e-05
3370	4.8e-05
3382	6.4e-05
3394	4.16e-05
3406	7.04e-05
3418	3.84e-05
3430	1.28e-05
3442	8e-05
3454	4.8e-05
3466	4.8e-05
3478	6.72e-05
3490	3.84e-05
3502	4.16e-05
3514	3.2e-05
3526	1.6e-05
3538	4.16e-05
3550	7.04e-05
3562	7.68e-05
3574	6.72e-05
3586	8.64e-05
3598	8.96e-05
3610	0.0001472
3622	8.64e-05
3634	0.0001248
3646	0.0001632
3658	0.000128
3670	0.0001536
3682	0.0001248
3694	0.0001472
3706	0.0001312
3718	0.0001248
3730	0.0001504
3742	0.0001888
3754	0.000176
3766	0.0001216
3778	0.0001536
3790	0.0001056
3802	0.0001632
3814	0.0001728
3826	0.0001568
3838	0.0001632
