Infrared Spectrum: 2-Trimethylsilyloxybenzaldehyde
Formula: C 10 H 14 O 2 Si
CAS: 1078-31-5
State: gas
Origin: EPA-IR VAPOR PHASE LIBRARY
1/CM	ABSORBANCE
549.8	0.002019
559.445	0.001999
569.09	0.000848
578.734	0.001699
588.379	0.003319
598.024	0.002389
607.669	0.005019
617.313	0.008379
626.958	0.011039
636.603	0.012849
646.248	0.009979
655.893	0.009429
665.537	0.008139
675.182	0.009319
684.827	0.015999
694.472	0.024919
704.116	0.036629
713.761	0.043619
723.406	0.036279
733.051	0.032169
742.695	0.042019
752.34	0.077619
761.985	0.117689
771.63	0.088929
781.275	0.049849
790.919	0.035639
800.564	0.041559
810.209	0.056829
819.854	0.077329
829.498	0.123409
839.143	0.219039
848.788	0.300069
858.433	0.235169
868.078	0.140389
877.722	0.088099
887.367	0.066189
897.012	0.058089
906.657	0.086769
916.301	0.252929
925.946	0.395919
935.591	0.216779
945.236	0.076979
954.88	0.033799
964.525	0.019689
974.17	0.013979
983.815	0.011549
993.46	0.010369
1003.1	0.008709
1012.75	0.007549
1022.39	0.009729
1032.04	0.019609
1041.68	0.017769
1051.33	0.007099
1060.97	0.005329
1070.62	0.005719
1080.26	0.010439
1089.91	0.021929
1099.55	0.029409
1109.2	0.021799
1118.84	0.015129
1128.49	0.008679
1138.13	0.012389
1147.78	0.037089
1157.42	0.043339
1167.07	0.019939
1176.71	0.025379
1186.36	0.032619
1196	0.026779
1205.64	0.020119
1215.29	0.022919
1224.93	0.044259
1234.58	0.127729
1244.22	0.273529
1253.87	0.272989
1263.51	0.219349
1273.16	0.231639
1282.8	0.200409
1292.45	0.151739
1302.09	0.111769
1311.74	0.067669
1321.38	0.037899
1331.03	0.027379
1340.67	0.022119
1350.32	0.018369
1359.96	0.016469
1369.61	0.018249
1379.25	0.033679
1388.9	0.077419
1398.54	0.063469
1408.18	0.027699
1417.83	0.021509
1427.47	0.022189
1437.12	0.032929
1446.76	0.076599
1456.41	0.117179
1466.05	0.095589
1475.7	0.183619
1485.34	0.163189
1494.99	0.054559
1504.63	0.026129
1514.28	0.017849
1523.92	0.013749
1533.57	0.010869
1543.21	0.010769
1552.86	0.014469
1562.5	0.025939
1572.15	0.047719
1581.79	0.062529
1591.44	0.099729
1601.08	0.124179
1610.73	0.055469
1620.37	0.023169
1630.01	0.017559
1639.66	0.014699
1649.3	0.013819
1658.95	0.016799
1668.59	0.022749
1678.24	0.029329
1687.88	0.052619
1697.53	0.142839
1707.17	0.248579
1716.82	0.206379
1726.46	0.111629
1736.11	0.035509
1745.75	0.014459
1755.4	0.008809
1765.04	0.006219
1774.69	0.006009
1784.33	0.006049
1793.98	0.006729
1803.62	0.006679
1813.27	0.005939
1822.91	0.004699
1832.55	0.004249
1842.2	0.003829
1851.84	0.003609
1861.49	0.003839
1871.13	0.004049
1880.78	0.003739
1890.42	0.003639
1900.07	0.003779
1909.71	0.004559
1919.36	0.005279
1929	0.004679
1938.65	0.005449
1948.29	0.006479
1957.94	0.005719
1967.58	0.004669
1977.23	0.004109
1986.87	0.003909
1996.52	0.003749
2006.16	0.003349
2015.81	0.002769
2025.45	0.002629
2035.1	0.002229
2044.74	0.001989
2054.38	0.001789
2064.03	0.001829
2073.67	0.002019
2083.32	0.001949
2092.96	0.001869
2102.61	0.002129
2112.25	0.002189
2121.9	0.001959
2131.54	0.001949
2141.19	0.001749
2150.83	0.002189
2160.48	0.001889
2170.12	0.001499
2179.77	0.001679
2189.41	0.001899
2199.06	0.001989
2208.7	0.001327
2218.35	0.001359
2227.99	0.001339
2237.64	0.001369
2247.28	0.001549
2256.92	0.001339
2266.57	0.001409
2276.21	0.001509
2285.86	0.001609
2295.5	0.001659
2305.15	0.001829
2314.79	0.001719
2324.44	0.001349
2334.08	0.001399
2343.73	0.0012837
2353.37	0.0012403
2363.02	0.0013171
2372.66	0.001349
2382.31	0.0011688
2391.95	0.001639
2401.6	0.001619
2411.24	0.001599
2420.89	0.001203
2430.53	0.0011337
2440.18	0.0011
2449.82	0.001649
2459.47	0.001879
2469.11	0.002269
2478.75	0.002739
2488.4	0.003099
2498.04	0.002729
2507.69	0.002729
2517.33	0.002489
2526.98	0.002719
2536.62	0.002449
2546.27	0.002169
2555.91	0.002129
2565.56	0.002659
2575.2	0.002679
2584.85	0.002299
2594.49	0.002199
2604.14	0.001839
2613.78	0.001689
2623.43	0.001669
2633.07	0.002319
2642.72	0.002369
2652.36	0.002949
2662.01	0.003359
2671.65	0.003289
2681.29	0.004719
2690.94	0.007059
2700.58	0.010009
2710.23	0.017539
2719.87	0.024049
2729.52	0.015489
2739.16	0.013619
2748.81	0.019579
2758.45	0.014289
2768.1	0.007909
2777.74	0.006879
2787.39	0.007109
2797.03	0.008209
2806.68	0.011609
2816.32	0.015509
2825.97	0.018229
2835.61	0.025169
2845.26	0.044999
2854.9	0.048559
2864.55	0.025309
2874.19	0.014649
2883.84	0.011309
2893.48	0.012659
2903.12	0.016169
2912.77	0.015639
2922.41	0.011819
2932.06	0.010519
2941.7	0.015029
2951.35	0.029939
2960.99	0.057079
2970.64	0.055079
2980.28	0.029409
2989.93	0.015629
2999.57	0.010799
3009.22	0.009659
3018.86	0.011319
3028.51	0.012809
3038.15	0.015589
3047.8	0.014599
3057.44	0.014339
3067.09	0.023559
3076.73	0.036199
3086.38	0.027339
3096.02	0.012709
3105.67	0.008289
3115.31	0.005289
3124.95	0.004669
3134.6	0.003709
3144.24	0.003309
3153.89	0.003039
3163.53	0.002669
3173.18	0.002739
3182.82	0.002399
3192.47	0.002279
3202.11	0.002089
3211.76	0.001769
3221.4	0.002079
3231.05	0.002449
3240.69	0.002079
3250.34	0.001839
3259.98	0.001258
3269.63	0.001589
3279.27	0.0009349
3288.92	0.001849
3298.56	0.001629
3308.21	0.001399
3317.85	0.001799
3327.49	0.0012693
3337.14	0.001609
3346.78	0.001339
3356.43	0.001589
3366.07	0.0013236
3375.72	0.002149
3385.36	0.003249
3395.01	0.004399
3404.65	0.003289
3414.3	0.002959
3423.94	0.002209
3433.59	0.002409
3443.23	0.001489
3452.88	0.0013106
3462.52	0.0011274
3472.17	0.0002941
3481.81	0.0009346
3491.46	0.0007029
3501.1	0.0010702
3510.75	0.001073
3520.39	0.0008991
3530.04	0.0007787
3539.68	0.0009733
3549.32	0.0013112
3558.97	0.001739
3568.61	0.001539
3578.26	0.0007099
3587.9	0.0008255
3597.55	0.0012171
3607.19	0.0013002
3616.84	0.0012889
3626.48	0.001409
3636.13	0.0007846
3645.77	0.001599
3655.42	0.0011826
3665.06	0.001469
3674.71	0.0012796
3684.35	0.0012863
3694	0.001449
3703.64	0.001509
3713.29	0.001599
3722.93	0.0010156
3732.58	0.001899
3742.22	0.001759
3751.86	0.001879
3761.51	0.001689
3771.15	0.001769
3780.8	0.001809
3790.44	0.001829
3800.09	0.002129
3809.73	0.0012968
3819.38	0.001439
3829.02	0.001429
3838.67	0.0010639
3848.31	0.0006939
3857.96	0.00031948
3867.6	0.00032761
3877.25	0.0012352
3886.89	0.0004934
3896.54	0.0005714
3906.18	0.0006068
3915.83	0.0009138
3925.47	0.0007444
3935.12	0.0009309
3944.76	0.0007612
3954.41	0.00040028
3964.05	0.0009161
3973.69	0.0006397
3983.34	0.0010915
3992.98	0.0009368
