Infrared Spectrum: P-PHENYLAZO CARBANILIC ACID, SANTALOL ESTER
Formula: C28 H33 N3 O2
CAS: 107894-67-7
State: SOLID (1.5 mg / 100 mg KBr)
Melting point: 106-108 C
Class: COBLENTZ
Instrument: Not specified, most likely a grating spectrometer.
Sampling: TRANSMISSION
Resolution: 4
Origin: CITRUS EXPERIMENT STATION, UNIVERSITY OF FLORIDA (G. EDWARDS)
MICROMETERS	TRANSMITTANCE
2.027	0.414
2.06019	0.42
2.09338	0.426
2.12657	0.43
2.15976	0.432
2.19294	0.435
2.22613	0.442
2.25932	0.444
2.29251	0.447
2.3257	0.452
2.35889	0.456
2.39208	0.462
2.42527	0.466
2.45845	0.47
2.49164	0.479
2.52483	0.488
2.55802	0.492
2.59121	0.498
2.6244	0.496
2.65759	0.504
2.69078	0.513
2.72396	0.515
2.75715	0.509
2.79034	0.511
2.82353	0.508
2.85672	0.512
2.88991	0.512
2.9231	0.504
2.95629	0.498
2.98947	0.464
3.02266	0.47
3.05585	0.508
3.08904	0.533
3.12223	0.54
3.15542	0.547
3.18861	0.551
3.2218	0.549
3.25498	0.535
3.28817	0.552
3.32136	0.541
3.35455	0.444
3.38774	0.451
3.42093	0.503
3.45412	0.508
3.48731	0.552
3.52049	0.595
3.55368	0.603
3.58687	0.608
3.62006	0.612
3.65325	0.616
3.68644	0.62
3.71963	0.627
3.75282	0.632
3.78601	0.636
3.81919	0.64
3.85238	0.643
3.88557	0.644
3.91876	0.647
3.95195	0.652
3.98514	0.656
4.01833	0.659
4.05152	0.659
4.0847	0.668
4.11789	0.672
4.15108	0.672
4.18427	0.673
4.21746	0.675
4.25065	0.675
4.28384	0.675
4.31703	0.677
4.35021	0.685
4.3834	0.691
4.41659	0.693
4.44978	0.699
4.48297	0.701
4.51616	0.704
4.54935	0.708
4.58254	0.711
4.61572	0.713
4.64891	0.716
4.6821	0.719
4.71529	0.721
4.74848	0.724
4.78167	0.728
4.81486	0.731
4.84805	0.733
4.88123	0.736
4.91442	0.736
4.94761	0.736
4.9808	0.737
5.01399	0.74
5.04718	0.745
5.08037	0.747
5.11356	0.748
5.14674	0.75
5.17993	0.752
5.21312	0.748
5.24631	0.756
5.2795	0.764
5.31269	0.765
5.34588	0.765
5.37907	0.766
5.41226	0.769
5.44544	0.772
5.47863	0.773
5.51182	0.773
5.54501	0.773
5.5782	0.774
5.61139	0.774
5.64458	0.77
5.67777	0.752
5.71095	0.664
5.74414	0.607
5.77733	0.604
5.81052	0.561
5.84371	0.533
5.8769	0.561
5.91009	0.664
5.94328	0.735
5.97646	0.749
6.00965	0.765
6.04284	0.768
6.07603	0.776
6.10922	0.78
6.14241	0.774
6.1756	0.732
6.20879	0.609
6.24197	0.527
6.27516	0.604
6.30835	0.716
6.34154	0.772
6.37473	0.745
6.40792	0.616
6.44111	0.536
6.4743	0.448
6.50748	0.471
6.54067	0.563
6.57386	0.621
6.60705	0.655
6.64024	0.695
6.67343	0.731
6.70662	0.747
6.73981	0.765
6.77299	0.743
6.80618	0.728
6.83937	0.688
6.87256	0.705
6.90575	0.696
6.93894	0.695
6.97213	0.753
7.00532	0.78
7.03851	0.743
7.07169	0.633
7.10488	0.669
7.13807	0.776
7.17126	0.79
7.20445	0.789
7.23764	0.773
7.27083	0.754
7.30402	0.773
7.3372	0.789
7.37039	0.801
7.40358	0.8
7.43677	0.8
7.46996	0.778
7.50315	0.768
7.53634	0.725
7.56953	0.681
7.60271	0.653
7.6359	0.619
7.66909	0.631
7.70228	0.72
7.73547	0.789
7.76866	0.801
7.80185	0.813
7.83504	0.808
7.86822	0.801
7.90141	0.794
7.9346	0.785
7.96779	0.77
8.00098	0.745
8.03417	0.697
8.06736	0.595
8.10055	0.507
8.13373	0.458
8.16692	0.442
8.20011	0.455
8.2333	0.464
8.26649	0.49
8.29968	0.54
8.33287	0.601
8.36606	0.693
8.39924	0.761
8.43243	0.798
8.46562	0.833
8.49881	0.854
8.532	0.861
8.56519	0.857
8.59838	0.844
8.63157	0.789
8.66476	0.707
8.69794	0.736
8.73113	0.768
8.76432	0.765
8.79751	0.817
8.8307	0.864
8.86389	0.874
8.89708	0.874
8.93027	0.872
8.96345	0.86
8.99664	0.853
9.02983	0.834
9.06302	0.853
9.09621	0.87
9.1294	0.873
9.16259	0.873
9.19578	0.87
9.22896	0.86
9.26215	0.844
9.29534	0.833
9.32853	0.81
9.36172	0.782
9.39491	0.749
9.4281	0.707
9.46129	0.672
9.49447	0.663
9.52766	0.664
9.56085	0.668
9.59404	0.671
9.62723	0.683
9.66042	0.716
9.69361	0.75
9.7268	0.782
9.75998	0.794
9.79317	0.789
9.82636	0.776
9.85955	0.794
9.89274	0.801
9.92593	0.83
9.95912	0.853
9.99231	0.869
10.0255	0.886
10.0587	0.902
10.0919	0.909
10.1251	0.91
10.1583	0.909
10.1914	0.893
10.2246	0.87
10.2578	0.852
10.291	0.854
10.3242	0.861
10.3574	0.869
10.3906	0.87
10.4238	0.88
10.4569	0.9
10.4901	0.91
10.5233	0.917
10.5565	0.92
10.5897	0.921
10.6229	0.921
10.6561	0.922
10.6893	0.924
10.7225	0.924
10.7556	0.924
10.7888	0.924
10.822	0.921
10.8552	0.924
10.8884	0.928
10.9216	0.934
10.9548	0.938
10.988	0.945
11.0212	0.946
11.0543	0.949
11.0875	0.952
11.1207	0.956
11.1539	0.961
11.1871	0.96
11.2203	0.95
11.2535	0.94
11.2867	0.93
11.3199	0.924
11.353	0.921
11.3862	0.914
11.4194	0.91
11.4526	0.912
11.4858	0.926
11.519	0.928
11.5522	0.925
11.5854	0.916
11.6186	0.913
11.6517	0.904
11.6849	0.876
11.7181	0.846
11.7513	0.812
11.7845	0.778
11.8177	0.756
11.8509	0.747
11.8841	0.76
11.9173	0.792
11.9504	0.829
11.9836	0.861
12.0168	0.886
12.05	0.905
12.0832	0.916
12.1164	0.92
12.1496	0.92
12.1828	0.921
12.216	0.922
12.2491	0.924
12.2823	0.93
12.3155	0.936
12.3487	0.941
12.3819	0.946
12.4151	0.946
12.4483	0.948
12.4815	0.953
12.5147	0.96
12.5478	0.964
12.581	0.966
12.6142	0.966
12.6474	0.966
12.6806	0.965
12.7138	0.964
12.747	0.96
12.7802	0.954
12.8134	0.953
12.8465	0.945
12.8797	0.93
12.9129	0.914
12.9461	0.888
12.9793	0.85
13.0125	0.82
13.0457	0.749
13.0789	0.729
13.1121	0.739
13.1452	0.778
13.1784	0.82
13.2116	0.868
13.2448	0.9
13.278	0.906
13.3112	0.91
13.3444	0.92
13.3776	0.921
13.4108	0.926
13.4439	0.932
13.4771	0.928
13.5103	0.93
13.5435	0.934
13.5767	0.936
13.6099	0.934
13.6431	0.93
13.6763	0.933
13.7094	0.93
13.7426	0.93
13.7758	0.929
13.809	0.924
13.8422	0.913
13.8754	0.896
13.9086	0.87
13.9418	0.877
13.975	0.889
14.0081	0.89
14.0413	0.898
14.0745	0.904
14.1077	0.909
14.1409	0.912
14.1741	0.905
14.2073	0.898
14.2405	0.896
14.2737	0.892
14.3068	0.884
14.34	0.869
14.3732	0.866
14.4064	0.857
14.4396	0.841
14.4728	0.806
14.506	0.776
14.5392	0.736
14.5724	0.72
14.6055	0.732
14.6387	0.765
14.6719	0.788
14.7051	0.821
14.7383	0.838
14.7715	0.854
14.8047	0.864
14.8379	0.865
14.8711	0.858
14.9042	0.822
14.9374	0.784
14.9706	0.789
15.0038	0.861
15.037	0.905
