Infrared Spectrum: 1,2,3,4,5,6,7,8-Octahydroanthracene
Formula: C 14 H 18
CAS: 1079-71-6
State: gas
Instrument: HP-GC/MS/IRD
Origin: NIST Mass Spectrometry Data Center
1/CM	ABSORBANCE
550	0.0002337
562	0.0001311
574	7.41e-05
586	0.0002223
598	0.0001197
610	0.0001596
622	7.41e-05
634	0.0001368
646	5.7e-05
658	9.69e-05
670	0.0001026
682	0.0001083
694	0.0002109
706	0.0001881
718	0.0001767
730	0.0001368
742	0.0002223
754	0.000228
766	0.0003135
778	0.0003534
790	0.0003249
802	0.0003819
814	0.0007581
826	0.0006954
838	0.0008094
850	0.0020976
862	0.0022686
874	0.0010773
886	0.0005472
898	0.0005415
910	0.0007695
922	0.0014136
934	0.0013167
946	0.0005928
958	0.0005244
970	0.0006555
982	0.000684
994	0.0003363
1006	0.0001881
1018	0.000171
1030	0.0001938
1042	0.0001539
1054	0.0001767
1066	0.000342
1078	0.0003135
1090	0.0002394
1102	0.0001881
1114	0.0002223
1126	0.0003762
1138	0.0005871
1150	0.0005187
1162	0.0003477
1174	0.0004047
1186	0.0003591
1198	0.0004104
1210	0.000399
1222	0.0004902
1234	0.0009462
1246	0.001995
1258	0.0011172
1270	0.0009747
1282	0.0014421
1294	0.0013338
1306	0.0011172
1318	0.0007638
1330	0.0011742
1342	0.0027474
1354	0.0029013
1366	0.0005814
1378	0.0003477
1390	0.0004104
1402	0.0006954
1414	0.001083
1426	0.0015732
1438	0.0033972
1450	0.0046398
1462	0.0036594
1474	0.0022173
1486	0.0025137
1498	0.0054264
1510	0.0045714
1522	0.0009405
1534	0.0003876
1546	0.0002565
1558	0.0001311
1570	0.000171
1582	0.0001653
1594	0.0001368
1606	0.0001254
1618	0.0001083
1630	8.55e-05
1642	6.27e-05
1654	2.28e-05
1666	0.0001026
1678	8.55e-05
1690	7.41e-05
1702	6.84e-05
1714	0.0001425
1726	0.0003534
1738	0.0003876
1750	0.0002109
1762	0.0001425
1774	0.0001311
1786	0.0001368
1798	0.0001995
1810	0.0002622
1822	0.0001482
1834	6.84e-05
1846	2.85e-05
1858	4.56e-05
1870	2.85e-05
1882	2.85e-05
1894	4.56e-05
1906	4.56e-05
1918	2.28e-05
1930	2.85e-05
1942	2.85e-05
1954	7.41e-05
1966	4.56e-05
1978	6.27e-05
1990	4.56e-05
2002	5.7e-05
2014	7.98e-05
2026	3.42e-05
2038	3.42e-05
2050	2.28e-05
2062	1.71e-05
2074	3.99e-05
2086	5.7e-05
2098	4.56e-05
2110	2.28e-05
2122	5.13e-05
2134	5.13e-05
2146	4.56e-05
2158	5.7e-05
2170	5.13e-05
2182	5.7e-05
2194	5.13e-05
2206	5.7e-05
2218	6.84e-05
2230	6.27e-05
2242	6.27e-05
2254	5.7e-05
2266	7.41e-05
2278	3.99e-05
2290	7.41e-05
2302	7.98e-05
2314	9.12e-05
2326	6.27e-05
2338	2.28e-05
2350	1.71e-05
2362	3.42e-05
2374	3.42e-05
2386	7.41e-05
2398	7.98e-05
2410	0.0001197
2422	0.000114
2434	9.12e-05
2446	9.12e-05
2458	5.7e-05
2470	7.98e-05
2482	6.84e-05
2494	9.69e-05
2506	0.000114
2518	0.0001482
2530	0.0001539
2542	0.0001197
2554	9.69e-05
2566	0.0001026
2578	0.0001767
2590	0.0002166
2602	0.0002052
2614	0.0002394
2626	0.0002622
2638	0.0003249
2650	0.0004845
2662	0.0007866
2674	0.0005814
2686	0.0004446
2698	0.0003705
2710	0.0003306
2722	0.0003135
2734	0.0003534
2746	0.0004845
2758	0.0006156
2770	0.0007923
2782	0.0009405
2794	0.0010602
2806	0.0013794
2818	0.0018354
2830	0.0033801
2842	0.0090972
2854	0.0142728
2866	0.0174762
2878	0.014022
2890	0.011685
2902	0.0127338
2914	0.0187644
2926	0.038019
2938	0.0548511
2950	0.0433257
2962	0.0108243
2974	0.0051357
2986	0.0060534
2998	0.009576
3010	0.005586
3022	0.0017841
3034	0.0009234
3046	0.0006156
3058	0.0004788
3070	0.0004047
3082	0.0003534
3094	0.0003762
3106	0.0004674
3118	0.0005073
3130	0.0004161
3142	0.0002622
3154	0.0002223
3166	0.0001881
3178	0.0001767
3190	0.0001824
3202	0.000171
3214	0.0001539
3226	0.0001938
3238	0.0002109
3250	0.0001482
3262	0.0001482
3274	0.0001482
3286	0.0001254
3298	7.98e-05
3310	8.55e-05
3322	9.69e-05
3334	9.69e-05
3346	8.55e-05
3358	0.0001368
3370	0.0001311
3382	0.000114
3394	0.0001197
3406	9.69e-05
3418	0.0001311
3430	0.0001425
3442	0.0001368
3454	0.0001083
3466	9.69e-05
3478	6.84e-05
3490	9.12e-05
3502	0.0001083
3514	0.0001197
3526	0.000114
3538	0.000114
3550	0.0001197
3562	0.0001026
3574	0.0001425
3586	5.13e-05
3598	8.55e-05
3610	8.55e-05
3622	9.69e-05
3634	0.0001197
3646	6.84e-05
3658	0.0001197
3670	0.0001026
3682	0.0001539
3694	0.0001596
3706	0.000171
3718	0.0001596
3730	0.0001653
3742	0.0001881
3754	0.0001539
3766	0.0001824
3778	0.0001938
3790	0.0002166
3802	0.0001824
3814	0.0002166
3826	0.0002451
3838	0.0001881
