Infrared Spectrum: 3,4-DICHLOROBENZOIC ACID, 3,4-DIMETHYLPHENYL ESTER
Formula: C15 H12 Cl2 O2
CAS: 107922-19-0
State: SOLUTION (10% IN CCl4 FOR 5000-1350 CM^-^1, 10% IN CS2 FOR 1350-625 CM^-^1)
Class: COBLENTZ
Instrument: Not specified, most likely a prism, grating, or hybrid spectrometer.
Sampling: TRANSMISSION
Path length: 0.01 CM, 0.01 CM
Resolution: 4
Origin: DOW CHEMICAL COMPANY
MICROMETERS	TRANSMITTANCE
2.035	0.899
2.07414	0.899
2.11327	0.899
2.15241	0.896
2.19154	0.904
2.23068	0.899
2.26982	0.898
2.30895	0.898
2.34809	0.898
2.38722	0.899
2.42636	0.901
2.4655	0.902
2.50463	0.904
2.54377	0.904
2.5829	0.907
2.62204	0.906
2.66118	0.906
2.70031	0.904
2.73945	0.904
2.77858	0.902
2.81772	0.901
2.85686	0.896
2.89599	0.883
2.93513	0.898
2.97426	0.902
3.0134	0.896
3.05254	0.896
3.09167	0.893
3.13081	0.883
3.16994	0.875
3.20908	0.857
3.24821	0.818
3.28735	0.8
3.32649	0.766
3.36562	0.7
3.40476	0.64
3.44389	0.69
3.48303	0.752
3.52217	0.825
3.5613	0.873
3.60044	0.885
3.63957	0.883
3.67871	0.883
3.71785	0.898
3.75698	0.901
3.79612	0.902
3.83525	0.901
3.87439	0.901
3.91353	0.888
3.95266	0.902
3.9918	0.906
4.03093	0.906
4.07007	0.906
4.10921	0.901
4.14834	0.902
4.18748	0.902
4.22661	0.898
4.26575	0.885
4.30489	0.881
4.34402	0.881
4.38316	0.888
4.42229	0.901
4.46143	0.906
4.50057	0.909
4.5397	0.911
4.57884	0.909
4.61797	0.907
4.65711	0.904
4.69625	0.899
4.73538	0.898
4.77452	0.909
4.81365	0.906
4.85279	0.911
4.89193	0.906
4.93106	0.909
4.9702	0.904
5.00933	0.902
5.04847	0.894
5.08761	0.893
5.12674	0.904
5.16588	0.894
5.20501	0.88
5.24415	0.889
5.28329	0.902
5.32242	0.877
5.36156	0.867
5.40069	0.88
5.43983	0.878
5.47897	0.867
5.5181	0.828
5.55724	0.817
5.59637	0.815
5.63551	0.799
5.67464	0.618
5.71378	0.307
5.75292	0.076
5.79205	0.176
5.83119	0.401
5.87032	0.715
5.90946	0.794
5.9486	0.82
5.98773	0.825
6.02687	0.838
6.066	0.844
6.10514	0.82
6.14428	0.757
6.18341	0.689
6.22255	0.579
6.26168	0.443
6.30082	0.3
6.33996	0.433
6.37909	0.43
6.41823	0.368
6.45736	0.401
6.4965	0.454
6.53564	0.535
6.57477	0.555
6.61391	0.529
6.65304	0.351
6.69218	0.237
6.73132	0.6
6.77045	0.548
6.80959	0.336
6.84872	0.43
6.88786	0.519
6.927	0.634
6.96613	0.741
7.00527	0.768
7.0444	0.76
7.08354	0.747
7.12268	0.703
7.16181	0.611
7.20095	0.446
7.24008	0.255
7.27922	0.592
7.31836	0.724
7.35749	0.813
7.39663	0.817
7.43576	0.807
7.4749	0.799
7.51404	0.784
7.55317	0.762
7.59231	0.72
7.63144	0.634
7.67058	0.525
7.70972	0.404
7.74885	0.278
7.78799	0.148
7.82712	0.088
7.86626	0.043
7.90539	0.046
7.94453	0.252
7.98367	0.367
8.0228	0.179
8.06194	0.029
8.10107	0.017
8.14021	0.032
8.17935	0.186
8.21848	0.459
8.25762	0.579
8.29675	0.558
8.33589	0.446
8.37503	0.174
8.41416	0.156
8.4533	0.454
8.49243	0.598
8.53157	0.6
8.57071	0.542
8.60984	0.365
8.64898	0.165
8.68811	0.135
8.72725	0.334
8.76639	0.419
8.80552	0.425
8.84466	0.449
8.88379	0.451
8.92293	0.409
8.96207	0.344
9.0012	0.294
9.04034	0.38
9.07947	0.414
9.11861	0.454
9.15775	0.436
9.19688	0.239
9.23602	0.148
9.27515	0.134
9.31429	0.077
9.35343	0.245
9.39256	0.483
9.4317	0.645
9.47083	0.689
9.50997	0.702
9.54911	0.705
9.58824	0.666
9.62738	0.529
9.66651	0.279
9.70565	0.241
9.74479	0.495
9.78392	0.548
9.82306	0.603
9.86219	0.677
9.90133	0.707
9.94047	0.692
9.9796	0.632
10.0187	0.588
10.0579	0.669
10.097	0.781
10.1361	0.818
10.1753	0.836
10.2144	0.844
10.2536	0.849
10.2927	0.849
10.3318	0.849
10.371	0.849
10.4101	0.844
10.4492	0.839
10.4884	0.831
10.5275	0.812
10.5666	0.757
10.6058	0.669
10.6449	0.652
10.684	0.681
10.7232	0.739
10.7623	0.788
10.8015	0.807
10.8406	0.812
10.8797	0.8
10.9189	0.778
10.958	0.733
10.9971	0.631
11.0363	0.54
11.0754	0.5
11.1145	0.423
11.1537	0.385
11.1928	0.419
11.232	0.514
11.2711	0.593
11.3102	0.639
11.3494	0.658
11.3885	0.666
11.4276	0.661
11.4668	0.65
11.5059	0.631
11.545	0.597
11.5842	0.553
11.6233	0.5
11.6624	0.485
11.7016	0.543
11.7407	0.598
11.7799	0.631
11.819	0.658
11.8581	0.669
11.8973	0.655
11.9364	0.6
11.9755	0.521
12.0147	0.487
12.0538	0.538
12.0929	0.618
12.1321	0.637
12.1712	0.593
12.2104	0.498
12.2495	0.398
12.2886	0.414
12.3278	0.551
12.3669	0.629
12.406	0.671
12.4452	0.681
12.4843	0.686
12.5234	0.681
12.5626	0.671
12.6017	0.653
12.6408	0.624
12.68	0.574
12.7191	0.514
12.7583	0.467
12.7974	0.467
12.8365	0.553
12.8757	0.618
12.9148	0.658
12.9539	0.674
12.9931	0.679
13.0322	0.663
13.0713	0.629
13.1105	0.543
13.1496	0.467
13.1888	0.415
13.2279	0.372
13.267	0.263
13.3062	0.15
13.3453	0.144
13.3844	0.27
13.4236	0.435
13.4627	0.574
13.5018	0.639
13.541	0.671
13.5801	0.684
13.6192	0.695
13.6584	0.699
13.6975	0.69
13.7367	0.679
13.7758	0.669
13.8149	0.668
13.8541	0.677
13.8932	0.689
13.9323	0.699
13.9715	0.705
14.0106	0.707
14.0497	0.7
14.0889	0.697
14.128	0.69
14.1671	0.682
14.2063	0.669
14.2454	0.647
14.2846	0.61
14.3237	0.582
14.3628	0.582
14.402	0.597
14.4411	0.603
14.4802	0.598
14.5194	0.59
14.5585	0.588
14.5976	0.587
14.6368	0.574
14.6759	0.54
14.7151	0.487
14.7542	0.419
14.7933	0.378
14.8325	0.377
14.8716	0.419
14.9107	0.456
14.9499	0.487
14.989	0.511
15.0281	0.525
15.0673	0.521
15.1064	0.512
15.1455	0.504
15.1847	0.496
15.2238	0.487
15.263	0.477
15.3021	0.469
15.3412	0.462
15.3804	0.457
15.4195	0.451
15.4586	0.446
15.4978	0.44
15.5369	0.433
15.576	0.427
15.6152	0.42
15.6543	0.415
15.6935	0.411
15.7326	0.406
15.7717	0.399
15.8109	0.396
15.85	0.393
15.8891	0.391
