Infrared Spectrum: Phenylhydroquinone
Formula: C 12 H 10 O 2
CAS: 1079-21-6
State: gas
Instrument: HP-GC/MS/IRD
Origin: NIST Mass Spectrometry Data Center
1/CM	ABSORBANCE
550	0.001034
562	0.000671
574	0.000539
586	0.0009328
598	0.0014938
610	0.000935
622	0.0009702
634	0.0015928
646	0.00066
658	0.0006974
670	0.0011616
682	0.0016588
694	0.0043802
706	0.0055264
718	0.0039468
730	0.0024574
742	0.0047454
754	0.008074
766	0.0043054
778	0.0027082
790	0.0050248
802	0.0039358
814	0.0034716
826	0.0021626
838	0.0013728
850	0.001683
862	0.0015972
874	0.0016434
886	0.0018744
898	0.0022286
910	0.000902
922	0.0004224
934	0.0001166
946	8.14e-05
958	0.0001518
970	0.0002552
982	0.000264
994	0.0002464
1006	0.0004312
1018	0.0007568
1030	0.0006666
1042	0.0005544
1054	0.0005346
1066	0.0010912
1078	0.0012848
1090	0.00143
1102	0.001496
1114	0.002497
1126	0.0022528
1138	0.0033484
1150	0.0107052
1162	0.0197032
1174	0.02024
1186	0.0160556
1198	0.0094094
1210	0.0068046
1222	0.0072006
1234	0.0078826
1246	0.0056606
1258	0.0054362
1270	0.0072336
1282	0.0098582
1294	0.0066264
1306	0.0040634
1318	0.0040106
1330	0.0050028
1342	0.00253
1354	0.0008536
1366	0.0006292
1378	0.0006072
1390	0.0006578
1402	0.0010296
1414	0.0019426
1426	0.0034738
1438	0.0052052
1450	0.0056496
1462	0.0052668
1474	0.0076912
1486	0.0202378
1498	0.0160776
1510	0.0073546
1522	0.002629
1534	0.0014498
1546	0.0011044
1558	0.0010516
1570	0.001397
1582	0.001859
1594	0.002871
1606	0.0027368
1618	0.0014586
1630	0.001188
1642	0.0007612
1654	0.0010296
1666	0.0018744
1678	0.002365
1690	0.0011132
1702	0.0006116
1714	0.0004488
1726	0.0003322
1738	0.000429
1750	0.0004774
1762	0.0003388
1774	0.000253
1786	0.0002442
1798	0.0003432
1810	0.0003938
1822	0.000297
1834	0.000352
1846	0.0002728
1858	0.0003432
1870	0.0004994
1882	0.000396
1894	0.0003872
1906	0.000242
1918	0.0001848
1930	0.0002376
1942	0.0003982
1954	0.0004664
1966	0.0003454
1978	0.000198
1990	0.000154
2002	0.000165
2014	0.0001782
2026	0.0001562
2038	0.0001562
2050	0.0001386
2062	0.0001496
2074	0.0001474
2086	0.0001474
2098	0.0001276
2110	0.0001276
2122	8.8e-05
2134	0.0001056
2146	7.92e-05
2158	8.36e-05
2170	8.14e-05
2182	8.14e-05
2194	8.8e-05
2206	8.8e-05
2218	8.8e-05
2230	8.58e-05
2242	7.04e-05
2254	8.58e-05
2266	9.9e-05
2278	0.0001144
2290	0.0001298
2302	0.0001386
2314	0.0001606
2326	0.0001804
2338	0.00022
2350	0.000209
2362	0.000264
2374	0.0003124
2386	0.0002772
2398	0.0002596
2410	0.0002068
2422	0.0001936
2434	0.0001782
2446	0.000198
2458	0.000187
2470	0.0002068
2482	0.0001738
2494	0.000187
2506	0.0001584
2518	0.0001056
2530	6.6e-05
2542	5.94e-05
2554	4.62e-05
2566	6.38e-05
2578	4.4e-05
2590	6.82e-05
2602	7.04e-05
2614	8.14e-05
2626	7.7e-05
2638	5.72e-05
2650	9.68e-05
2662	8.36e-05
2674	6.6e-05
2686	3.08e-05
2698	4.4e-06
2710	3.08e-05
2722	1.32e-05
2734	1.54e-05
2746	5.06e-05
2758	1.76e-05
2770	5.5e-05
2782	3.08e-05
2794	3.74e-05
2806	1.76e-05
2818	5.5e-05
2830	3.96e-05
2842	3.96e-05
2854	5.5e-05
2866	7.04e-05
2878	8.36e-05
2890	0.0001254
2902	0.0001034
2914	0.000121
2926	0.0001386
2938	0.00011
2950	0.0001144
2962	9.9e-05
2974	0.0001782
2986	0.0002508
2998	0.0003784
3010	0.0009394
3022	0.0025564
3034	0.0036674
3046	0.0027874
3058	0.0034254
3070	0.0049016
3082	0.0032516
3094	0.0019316
3106	0.0010318
3118	0.0006072
3130	0.0003498
3142	0.0002926
3154	0.0002464
3166	0.000143
3178	8.58e-05
3190	0.0001298
3202	0.0001716
3214	0.0001034
3226	0.00011
3238	0.0001166
3250	0.0001562
3262	0.0001364
3274	0.000165
3286	0.0001342
3298	0.0001298
3310	0.000187
3322	0.0001958
3334	0.0002266
3346	0.0002244
3358	0.000187
3370	0.0001584
3382	0.000242
3394	0.0003344
3406	0.0002794
3418	0.000275
3430	0.0003212
3442	0.0002464
3454	0.0002002
3466	0.000253
3478	0.0002464
3490	0.0002222
3502	0.0002684
3514	0.0003894
3526	0.0004114
3538	0.0003058
3550	0.0003058
3562	0.0004708
3574	0.0006336
3586	0.0018062
3598	0.011781
3610	0.0083644
3622	0.0016698
3634	0.001694
3646	0.0055528
3658	0.009174
3670	0.0021714
3682	0.0005412
3694	0.000297
3706	0.0002618
3718	0.0001892
3730	0.0002046
3742	0.0002684
3754	0.0002508
3766	0.0002046
3778	0.0002112
3790	0.0002156
3802	0.0002442
3814	0.0002398
3826	0.0002816
3838	0.000308
