Infrared Spectrum: DIMETHYL CARBOCAMPESTERYLOXY GLUTARATE
Formula: C36 H59 N O6
CAS: 107928-38-1
State: SOLID (KBr PRESSING)
Melting point: 121-122 C
Class: COBLENTZ
Instrument: Not specified, most likely a prism, grating, or hybrid spectrometer.
Sampling: TRANSMISSION
Resolution: 4
Origin: EASTMAN KODAK COMPANY, RESEARCH LABORATORIES, ROCHESTER, N.Y.
MICROMETERS	TRANSMITTANCE
2.049	0.771
2.08405	0.773
2.11911	0.773
2.15416	0.771
2.18921	0.762
2.22426	0.76
2.25932	0.767
2.29437	0.771
2.32942	0.773
2.36447	0.776
2.39953	0.78
2.43458	0.781
2.46963	0.783
2.50469	0.788
2.53974	0.794
2.57479	0.799
2.60984	0.802
2.6449	0.802
2.67995	0.802
2.715	0.801
2.75005	0.757
2.78511	0.692
2.82016	0.633
2.85521	0.572
2.89027	0.534
2.92532	0.499
2.96037	0.472
2.99542	0.537
3.03048	0.61
3.06553	0.659
3.10058	0.698
3.13563	0.719
3.17069	0.734
3.20574	0.743
3.24079	0.746
3.27585	0.715
3.3109	0.616
3.34595	0.329
3.381	0.122
3.41606	0.246
3.45111	0.303
3.48616	0.366
3.52121	0.661
3.55627	0.781
3.59132	0.799
3.62637	0.804
3.66143	0.808
3.69648	0.816
3.73153	0.818
3.76658	0.823
3.80164	0.83
3.83669	0.827
3.87174	0.83
3.9068	0.835
3.94185	0.851
3.9769	0.853
4.01195	0.855
4.04701	0.855
4.08206	0.858
4.11711	0.86
4.15216	0.863
4.18722	0.87
4.22227	0.888
4.25732	0.9
4.29238	0.902
4.32743	0.888
4.36248	0.874
4.39753	0.872
4.43259	0.87
4.46764	0.874
4.50269	0.872
4.53774	0.869
4.5728	0.865
4.60785	0.87
4.6429	0.872
4.67796	0.869
4.71301	0.869
4.74806	0.867
4.78311	0.865
4.81817	0.87
4.85322	0.869
4.88827	0.869
4.92332	0.874
4.95838	0.876
4.99343	0.879
5.02848	0.877
5.06354	0.87
5.09859	0.869
5.13364	0.87
5.16869	0.869
5.20375	0.869
5.2388	0.869
5.27385	0.869
5.3089	0.869
5.34396	0.867
5.37901	0.867
5.41406	0.865
5.44912	0.86
5.48417	0.851
5.51922	0.83
5.55427	0.802
5.58933	0.79
5.62438	0.75
5.65943	0.621
5.69448	0.375
5.72954	0.24
5.76459	0.162
5.79964	0.148
5.8347	0.144
5.86975	0.165
5.9048	0.197
5.93985	0.34
5.97491	0.46
6.00996	0.547
6.04501	0.63
6.08006	0.675
6.11512	0.712
6.15017	0.732
6.18522	0.753
6.22028	0.778
6.25533	0.788
6.29038	0.799
6.32543	0.792
6.36049	0.781
6.39554	0.755
6.43059	0.694
6.46564	0.593
6.5007	0.509
6.53575	0.417
6.5708	0.441
6.60586	0.486
6.64091	0.535
6.67596	0.598
6.71101	0.656
6.74607	0.671
6.78112	0.588
6.81617	0.429
6.85123	0.411
6.88628	0.401
6.92133	0.382
6.95638	0.336
6.99144	0.474
7.02649	0.6
7.06154	0.621
7.09659	0.623
7.13165	0.63
7.1667	0.616
7.20175	0.532
7.23681	0.41
7.27186	0.371
7.30691	0.415
7.34196	0.434
7.37702	0.471
7.41207	0.502
7.44712	0.479
7.48217	0.462
7.51723	0.448
7.55228	0.478
7.58733	0.495
7.62239	0.476
7.65744	0.443
7.69249	0.439
7.72754	0.439
7.7626	0.436
7.79765	0.411
7.8327	0.371
7.86775	0.312
7.90281	0.31
7.93786	0.321
7.97291	0.326
8.00797	0.314
8.04302	0.31
8.07807	0.307
8.11312	0.312
8.14818	0.324
8.18323	0.333
8.21828	0.312
8.25333	0.294
8.28839	0.289
8.32344	0.291
8.35849	0.321
8.39355	0.361
8.4286	0.404
8.46365	0.413
8.4987	0.399
8.53376	0.392
8.56881	0.42
8.60386	0.452
8.63891	0.476
8.67397	0.502
8.70902	0.546
8.74407	0.563
8.77913	0.582
8.81418	0.6
8.84923	0.621
8.88428	0.631
8.91934	0.642
8.95439	0.656
8.98944	0.666
9.02449	0.661
9.05955	0.656
9.0946	0.633
9.12965	0.6
9.16471	0.591
9.19976	0.582
9.23481	0.561
9.26986	0.546
9.30492	0.523
9.33997	0.499
9.37502	0.46
9.41007	0.415
9.44513	0.387
9.48018	0.38
9.51523	0.387
9.55029	0.425
9.58534	0.457
9.62039	0.502
9.65544	0.541
9.6905	0.551
9.72555	0.558
9.7606	0.554
9.79565	0.547
9.83071	0.539
9.86576	0.542
9.90081	0.56
9.93587	0.602
9.97092	0.626
10.006	0.643
10.041	0.64
10.0761	0.633
10.1111	0.635
10.1462	0.652
10.1812	0.668
10.2163	0.684
10.2513	0.703
10.2864	0.715
10.3214	0.738
10.3565	0.743
10.3916	0.732
10.4266	0.713
10.4617	0.706
10.4967	0.722
10.5318	0.722
10.5668	0.722
10.6019	0.726
10.6369	0.732
10.672	0.75
10.707	0.762
10.7421	0.774
10.7771	0.778
10.8122	0.773
10.8472	0.771
10.8823	0.787
10.9173	0.79
10.9524	0.794
10.9874	0.795
11.0225	0.801
11.0576	0.809
11.0926	0.808
11.1277	0.804
11.1627	0.79
11.1978	0.788
11.2328	0.785
11.2679	0.774
11.3029	0.771
11.338	0.771
11.373	0.783
11.4081	0.787
11.4431	0.787
11.4782	0.785
11.5132	0.79
11.5483	0.794
11.5833	0.797
11.6184	0.794
11.6535	0.797
11.6885	0.795
11.7236	0.785
11.7586	0.79
11.7937	0.79
11.8287	0.783
11.8638	0.781
11.8988	0.776
11.9339	0.774
11.9689	0.788
12.004	0.792
12.039	0.783
12.0741	0.783
12.1091	0.783
12.1442	0.781
12.1792	0.792
12.2143	0.792
12.2493	0.788
12.2844	0.792
12.3195	0.785
12.3545	0.787
12.3896	0.781
12.4246	0.767
12.4597	0.762
12.4947	0.764
12.5298	0.773
12.5648	0.776
12.5999	0.783
12.6349	0.771
12.67	0.759
12.705	0.748
12.7401	0.729
12.7751	0.724
12.8102	0.736
12.8452	0.738
12.8803	0.748
12.9153	0.766
12.9504	0.781
12.9855	0.783
13.0205	0.799
13.0556	0.801
13.0906	0.804
13.1257	0.806
13.1607	0.813
13.1958	0.816
13.2308	0.811
13.2659	0.813
13.3009	0.818
13.336	0.809
13.371	0.806
13.4061	0.811
13.4411	0.816
13.4762	0.811
13.5112	0.813
13.5463	0.815
13.5814	0.816
13.6164	0.811
13.6515	0.813
13.6865	0.816
13.7216	0.813
13.7566	0.813
13.7917	0.818
13.8267	0.823
13.8618	0.82
13.8968	0.815
13.9319	0.821
13.9669	0.823
14.002	0.821
14.037	0.821
14.0721	0.821
14.1071	0.821
14.1422	0.823
14.1772	0.821
14.2123	0.813
14.2474	0.806
14.2824	0.811
14.3175	0.804
14.3525	0.804
14.3876	0.809
14.4226	0.813
14.4577	0.816
14.4927	0.816
14.5278	0.815
14.5628	0.809
14.5979	0.813
14.6329	0.809
14.668	0.806
14.703	0.804
14.7381	0.802
14.7731	0.802
14.8082	0.802
14.8432	0.802
14.8783	0.802
14.9134	0.802
14.9484	0.801
14.9835	0.801
15.0185	0.797
15.0536	0.792
15.0886	0.794
15.1237	0.794
15.1587	0.792
15.1938	0.792
15.2288	0.792
15.2639	0.792
15.2989	0.788
15.334	0.788
15.369	0.788
15.4041	0.788
15.4391	0.785
15.4742	0.783
15.5093	0.781
15.5443	0.78
15.5794	0.781
15.6144	0.78
15.6495	0.78
15.6845	0.781
15.7196	0.781
15.7546	0.781
15.7897	0.78
15.8247	0.778
15.8598	0.776
15.8948	0.774
15.9299	0.771
15.9649	0.769
16	0.764
