Infrared Spectrum: Phloroglucinol
Formula: C 6 H 6 O 3
CAS: 108-73-6
State: gas
Instrument: HP-GC/MS/IRD
Origin: NIST Mass Spectrometry Data Center
1/CM	ABSORBANCE
550	0.000523
562	0.000409
574	0.000223
586	0.000163
598	0.000178
610	0.00021
622	0.000191
634	0.000113
646	0.000252
658	0.000566
670	0.00116
682	0.000441
694	4.9e-05
706	4e-06
718	8.6e-05
730	2.4e-05
742	4.4e-05
754	4e-05
766	0.000148
778	0.000314
790	0.000437
802	0.000775
814	0.001276
826	0.001258
838	0.001021
850	0.000445
862	0.000198
874	0.000164
886	0.000179
898	0.000242
910	0.000225
922	0.000192
934	0.000121
946	0.000107
958	0.000199
970	0.000529
982	0.001855
994	0.00328
1006	0.002912
1018	0.001164
1030	0.0004
1042	0.000196
1054	0.000205
1066	0.000317
1078	0.000375
1090	0.000644
1102	0.001158
1114	0.002576
1126	0.005798
1138	0.009468
1150	0.008717
1162	0.004344
1174	0.001275
1186	0.001473
1198	0.00337
1210	0.004758
1222	0.003526
1234	0.00155
1246	0.000625
1258	0.000476
1270	0.000532
1282	0.000855
1294	0.001097
1306	0.001163
1318	0.001028
1330	0.00083
1342	0.000806
1354	0.000706
1366	0.000435
1378	0.000398
1390	0.000441
1402	0.000452
1414	0.000403
1426	0.000364
1438	0.000391
1450	0.000408
1462	0.000842
1474	0.0022
1486	0.003101
1498	0.002533
1510	0.002176
1522	0.001974
1534	0.000924
1546	0.000492
1558	0.000464
1570	0.000681
1582	0.001602
1594	0.003882
1606	0.006055
1618	0.00649
1630	0.006134
1642	0.00394
1654	0.001722
1666	0.001126
1678	0.000924
1690	0.000577
1702	0.00037
1714	0.000318
1726	0.000412
1738	0.000517
1750	0.000396
1762	0.00024
1774	0.000144
1786	7.7e-05
1798	7.1e-05
1810	4.6e-05
1822	7.4e-05
1834	6e-05
1846	5e-05
1858	3.6e-05
1870	2.4e-05
1882	3.9e-05
1894	3.2e-05
1906	2.3e-05
1918	1.7e-05
1930	1.7e-05
1942	2.9e-05
1954	3e-06
1966	1.8e-05
1978	3.2e-05
1990	3e-05
2002	4.5e-05
2014	3.1e-05
2026	1.9e-05
2038	9e-06
2050	8e-06
2062	2.9e-05
2074	1.5e-05
2086	3.3e-05
2098	2.8e-05
2110	4.6e-05
2122	7.6e-05
2134	9.7e-05
2146	8.9e-05
2158	9.2e-05
2170	5.4e-05
2182	6.7e-05
2194	6.6e-05
2206	6.9e-05
2218	5.8e-05
2230	6e-05
2242	5.7e-05
2254	4.7e-05
2266	4.1e-05
2278	6e-05
2290	8.3e-05
2302	8.9e-05
2314	9.2e-05
2326	0.000122
2338	0.000138
2350	0.000148
2362	0.00015
2374	0.000119
2386	6.4e-05
2398	4.4e-05
2410	7.1e-05
2422	9e-05
2434	0.000109
2446	9.6e-05
2458	7.3e-05
2470	8.1e-05
2482	0.000131
2494	0.000132
2506	0.00017
2518	0.000101
2530	4.9e-05
2542	2e-05
2554	3.7e-05
2566	4e-05
2578	4.4e-05
2590	1.4e-05
2602	2e-05
2614	4.4e-05
2626	3.5e-05
2638	3.6e-05
2650	4.6e-05
2662	3.3e-05
2674	2e-05
2686	3.4e-05
2698	1.4e-05
2710	4.4e-05
2722	3e-05
2734	1.8e-05
2746	4e-05
2758	1.1e-05
2770	3.6e-05
2782	4.2e-05
2794	7e-06
2806	7.1e-05
2818	6.8e-05
2830	5.8e-05
2842	5.6e-05
2854	6.7e-05
2866	4.3e-05
2878	4e-05
2890	2e-05
2902	3.6e-05
2914	4.1e-05
2926	4.3e-05
2938	3.4e-05
2950	9.5e-05
2962	3.9e-05
2974	5.6e-05
2986	2.6e-05
2998	4.1e-05
3010	4e-05
3022	0.000134
3034	0.000173
3046	0.00023
3058	0.000211
3070	0.000164
3082	7.3e-05
3094	4.4e-05
3106	4.4e-05
3118	8e-06
3130	4.4e-05
3142	1.1e-05
3154	5e-05
3166	8e-06
3178	2.4e-05
3190	3.6e-05
3202	4.6e-05
3214	1.5e-05
3226	2.6e-05
3238	6.7e-05
3250	1.5e-05
3262	2.2e-05
3274	4.3e-05
3286	2.4e-05
3298	6e-05
3310	4.2e-05
3322	9e-05
3334	0.000105
3346	0.000105
3358	0.000104
3370	9.7e-05
3382	0.000102
3394	9.4e-05
3406	9.7e-05
3418	0.000118
3430	0.000117
3442	0.000113
3454	0.000118
3466	9.1e-05
3478	0.000109
3490	7.3e-05
3502	3.9e-05
3514	8.7e-05
3526	0.000113
3538	8.5e-05
3550	0.000121
3562	0.000109
3574	0.000115
3586	0.00016
3598	0.000118
3610	0.000253
3622	0.000457
3634	0.001605
3646	0.00474
3658	0.004746
3670	0.00151
3682	0.000252
3694	0.000167
3706	0.000122
3718	0.000102
3730	3.2e-05
3742	8.6e-05
3754	9.2e-05
3766	0.000104
3778	8.9e-05
3790	0.000132
3802	0.000101
3814	0.0001
3826	0.000101
3838	0.000117
