Infrared Spectrum: CYANURIC ACID
Formula: C3 H3 N3 O3
CAS: 108-80-5
State: SOLID (MINERAL OIL MULL)
Class: COBLENTZ
Instrument: Not specified, most likely a prism, grating, or hybrid spectrometer.
Sampling: TRANSMISSION
Resolution: 4
Origin: WYANDOTTE CHEMICALS CORP., WYANDOTTE, MICHIGAN, USA
MICROMETERS	TRANSMITTANCE
2.021	0.671
2.06205	0.699
2.10311	0.7
2.14416	0.714
2.18521	0.719
2.22626	0.728
2.26732	0.735
2.30837	0.753
2.34942	0.765
2.39048	0.786
2.43153	0.796
2.47258	0.798
2.51363	0.815
2.55469	0.844
2.59574	0.842
2.63679	0.866
2.67785	0.875
2.7189	0.864
2.75995	0.873
2.801	0.868
2.84206	0.856
2.88311	0.841
2.92416	0.822
2.96521	0.842
3.00627	0.762
3.04732	0.505
3.08837	0.162
3.12943	0.117
3.17048	0.182
3.21153	0.162
3.25258	0.104
3.29364	0.155
3.33469	0.14
3.37574	0.041
3.4168	0.049
3.45785	0.09
3.4989	0.092
3.53995	0.247
3.58101	0.358
3.62206	0.497
3.66311	0.553
3.70417	0.576
3.74522	0.627
3.78627	0.67
3.82732	0.716
3.86838	0.729
3.90943	0.745
3.95048	0.753
3.99154	0.77
4.03259	0.719
4.07364	0.769
4.11469	0.782
4.15575	0.823
4.1968	0.827
4.23785	0.823
4.2789	0.846
4.31996	0.876
4.36101	0.9
4.40206	0.864
4.44312	0.904
4.48417	0.919
4.52522	0.929
4.56627	0.933
4.60733	0.938
4.64838	0.945
4.68943	0.953
4.73049	0.94
4.77154	0.854
4.81259	0.967
4.85364	0.955
4.8947	0.947
4.93575	0.947
4.9768	0.981
5.01786	0.979
5.05891	0.97
5.09996	0.957
5.14101	0.929
5.18207	0.921
5.22312	0.892
5.26417	0.894
5.30523	0.858
5.34628	0.81
5.38733	0.752
5.42838	0.661
5.46944	0.596
5.51049	0.504
5.55154	0.406
5.5926	0.244
5.63365	0.121
5.6747	0.121
5.71575	0.095
5.75681	0.076
5.79786	0.039
5.83891	0.034
5.87996	0.035
5.92102	0.044
5.96207	0.066
6.00312	0.124
6.04418	0.184
6.08523	0.244
6.12628	0.304
6.16733	0.362
6.20839	0.384
6.24944	0.406
6.29049	0.466
6.33155	0.555
6.3726	0.584
6.41365	0.641
6.4547	0.649
6.49576	0.671
6.53681	0.634
6.57786	0.581
6.61892	0.425
6.65997	0.263
6.70102	0.148
6.74207	0.087
6.78313	0.051
6.82418	0.041
6.86523	0.051
6.90629	0.126
6.94734	0.182
6.98839	0.141
7.02944	0.061
7.0705	0.097
7.11155	0.082
7.1526	0.056
7.19365	0.119
7.23471	0.152
7.27576	0.184
7.31681	0.263
7.35787	0.321
7.39892	0.36
7.43997	0.388
7.48102	0.415
7.52208	0.446
7.56313	0.461
7.60418	0.488
7.64524	0.499
7.68629	0.512
7.72734	0.531
7.76839	0.538
7.80945	0.557
7.8505	0.567
7.89155	0.577
7.93261	0.593
7.97366	0.606
8.01471	0.61
8.05576	0.606
8.09682	0.611
8.13787	0.622
8.17892	0.629
8.21998	0.634
8.26103	0.647
8.30208	0.658
8.34313	0.668
8.38419	0.676
8.42524	0.685
8.46629	0.692
8.50735	0.692
8.5484	0.695
8.58945	0.705
8.6305	0.711
8.67156	0.716
8.71261	0.729
8.75366	0.747
8.79471	0.755
8.83577	0.762
8.87682	0.762
8.91787	0.764
8.95893	0.77
8.99998	0.774
9.04103	0.779
9.08208	0.781
9.12314	0.782
9.16419	0.786
9.20524	0.784
9.2463	0.782
9.28735	0.779
9.3284	0.721
9.36945	0.55
9.41051	0.364
9.45156	0.476
9.49261	0.413
9.53367	0.408
9.57472	0.562
9.61577	0.63
9.65682	0.656
9.69788	0.676
9.73893	0.688
9.77998	0.699
9.82104	0.707
9.86209	0.714
9.90314	0.717
9.94419	0.719
9.98525	0.712
10.0263	0.707
10.0674	0.716
10.1084	0.724
10.1495	0.728
10.1905	0.731
10.2316	0.728
10.2726	0.728
10.3137	0.728
10.3547	0.728
10.3958	0.731
10.4368	0.731
10.4779	0.733
10.5189	0.735
10.56	0.736
10.601	0.74
10.6421	0.741
10.6831	0.741
10.7242	0.736
10.7653	0.736
10.8063	0.738
10.8474	0.74
10.8884	0.736
10.9295	0.733
10.9705	0.733
11.0116	0.733
11.0526	0.729
11.0937	0.726
11.1347	0.723
11.1758	0.714
11.2168	0.704
11.2579	0.695
11.2989	0.683
11.34	0.673
11.381	0.668
11.4221	0.654
11.4631	0.635
11.5042	0.623
11.5453	0.6
11.5863	0.581
11.6274	0.555
11.6684	0.526
11.7095	0.502
11.7505	0.487
11.7916	0.47
11.8326	0.463
11.8737	0.475
11.9147	0.499
11.9558	0.521
11.9968	0.541
12.0379	0.57
12.0789	0.574
12.12	0.564
12.161	0.552
12.2021	0.519
12.2432	0.499
12.2842	0.464
12.3253	0.429
12.3663	0.384
12.4074	0.357
12.4484	0.331
12.4895	0.323
12.5305	0.321
12.5716	0.331
12.6126	0.35
12.6537	0.372
12.6947	0.401
12.7358	0.447
12.7768	0.494
12.8179	0.531
12.8589	0.57
12.9	0.606
12.941	0.644
12.9821	0.654
13.0232	0.649
13.0642	0.579
13.1053	0.485
13.1463	0.538
13.1874	0.644
13.2284	0.716
13.2695	0.75
13.3105	0.76
13.3516	0.752
13.3926	0.695
13.4337	0.62
13.4747	0.591
13.5158	0.644
13.5568	0.694
13.5979	0.738
13.6389	0.758
13.68	0.777
13.7211	0.793
13.7621	0.801
13.8032	0.806
13.8442	0.813
13.8853	0.82
13.9263	0.815
13.9674	0.835
14.0084	0.846
14.0495	0.852
14.0905	0.859
14.1316	0.866
14.1726	0.863
14.2137	0.87
14.2547	0.864
14.2958	0.868
14.3368	0.859
14.3779	0.851
14.419	0.837
14.46	0.791
14.5011	0.697
14.5421	0.62
14.5832	0.652
14.6242	0.745
14.6653	0.794
14.7063	0.82
14.7474	0.82
14.7884	0.82
14.8295	0.822
14.8705	0.82
14.9116	0.815
14.9526	0.825
14.9937	0.811
15.0347	0.77
15.0758	0.738
15.1168	0.753
15.1579	0.782
15.199	0.791
15.24	0.777
15.2811	0.776
15.3221	0.77
15.3632	0.76
15.4042	0.748
15.4453	0.745
15.4863	0.724
15.5274	0.723
15.5684	0.719
15.6095	0.712
15.6505	0.705
15.6916	0.695
15.7326	0.69
15.7737	0.682
15.8147	0.666
15.8558	0.652
15.8969	0.647
15.9379	0.641
15.979	0.623
