Infrared Spectrum: D-LACTONE OF 5-HYDROXY-2-HEXENOIC ACID
Formula: C6 H8 O2
CAS: 108-54-3
State: SOLUTION (1% CCl4 FOR 5000-1330, 1% CS2 FOR 1330-625 CM^-^1)
Class: COBLENTZ
Instrument: Not specified, most likely a prism, grating, or hybrid spectrometer.
Sampling: TRANSMISSION
Path length: 0.11 CM, 0.11 CM
Resolution: 4
Origin: DOW CHEMICAL COMPANY
MICROMETERS	TRANSMITTANCE
2.048	0.88
2.08906	0.879
2.13011	0.882
2.17117	0.88
2.21222	0.879
2.25328	0.872
2.29433	0.875
2.33539	0.879
2.37644	0.88
2.4175	0.88
2.45856	0.886
2.49961	0.887
2.54067	0.891
2.58172	0.894
2.62278	0.896
2.66383	0.896
2.70489	0.892
2.74595	0.896
2.787	0.875
2.82806	0.852
2.86911	0.806
2.91017	0.79
2.95122	0.818
2.99228	0.821
3.03333	0.816
3.07439	0.799
3.11545	0.789
3.1565	0.777
3.19756	0.756
3.23861	0.715
3.27967	0.649
3.32072	0.632
3.36178	0.45
3.40284	0.501
3.44389	0.498
3.48495	0.71
3.526	0.721
3.56706	0.768
3.60811	0.772
3.64917	0.768
3.69022	0.772
3.73128	0.761
3.77234	0.767
3.81339	0.767
3.85445	0.773
3.8955	0.782
3.93656	0.794
3.97761	0.795
4.01867	0.807
4.05973	0.819
4.10078	0.828
4.14184	0.824
4.18289	0.812
4.22395	0.777
4.265	0.734
4.30606	0.69
4.34711	0.678
4.38817	0.741
4.42923	0.821
4.47028	0.855
4.51134	0.87
4.55239	0.882
4.59345	0.887
4.6345	0.891
4.67556	0.889
4.71662	0.879
4.75767	0.87
4.79873	0.863
4.83978	0.865
4.88084	0.86
4.92189	0.852
4.96295	0.828
5.004	0.821
5.04506	0.829
5.08612	0.84
5.12717	0.845
5.16823	0.87
5.20928	0.86
5.25034	0.826
5.29139	0.838
5.33245	0.809
5.37351	0.773
5.41456	0.748
5.45562	0.763
5.49667	0.751
5.53773	0.7
5.57878	0.661
5.61984	0.568
5.66089	0.362
5.70195	0.117
5.74301	0.032
5.78406	0.032
5.82512	0.068
5.86617	0.164
5.90723	0.219
5.94828	0.445
5.98934	0.664
6.0304	0.69
6.07145	0.646
6.11251	0.549
6.15356	0.501
6.19462	0.392
6.23567	0.193
6.27673	0.069
6.31778	0.04
6.35884	0.035
6.3999	0.032
6.44095	0.025
6.48201	0.028
6.52306	0.035
6.56412	0.049
6.60517	0.085
6.64623	0.17
6.68729	0.297
6.72834	0.462
6.7694	0.579
6.81045	0.591
6.85151	0.551
6.89256	0.562
6.93362	0.588
6.97467	0.525
7.01573	0.462
7.05679	0.564
7.09784	0.5
7.1389	0.386
7.17995	0.163
7.22101	0.108
7.26206	0.239
7.30312	0.484
7.34418	0.568
7.38523	0.547
7.42629	0.687
7.46734	0.707
7.5084	0.649
7.54945	0.654
7.59051	0.639
7.63156	0.578
7.67262	0.515
7.71368	0.551
7.75473	0.562
7.79579	0.559
7.83684	0.547
7.8779	0.486
7.91895	0.272
7.96001	0.083
8.00107	0.051
8.04212	0.022
8.08318	0.066
8.12423	0.188
8.16529	0.2
8.20634	0.287
8.2474	0.36
8.28845	0.481
8.32951	0.646
8.37057	0.705
8.41162	0.715
8.45268	0.707
8.49373	0.673
8.53479	0.559
8.57584	0.491
8.6169	0.61
8.65796	0.726
8.69901	0.744
8.74007	0.7
8.78112	0.668
8.82218	0.624
8.86323	0.51
8.90429	0.35
8.94534	0.261
8.9864	0.285
9.02746	0.115
9.06851	0.061
9.10957	0.29
9.15062	0.414
9.19168	0.527
9.23273	0.569
9.27379	0.578
9.31484	0.591
9.3559	0.508
9.39696	0.345
9.43801	0.066
9.47907	0.032
9.52012	0.168
9.56118	0.328
9.60223	0.489
9.64329	0.63
9.68435	0.727
9.7254	0.777
9.76646	0.801
9.80751	0.816
9.84857	0.807
9.88962	0.799
9.93068	0.758
9.97173	0.663
10.0128	0.498
10.0538	0.348
10.0949	0.42
10.136	0.637
10.177	0.726
10.2181	0.741
10.2591	0.693
10.3002	0.637
10.3412	0.647
10.3823	0.591
10.4233	0.438
10.4644	0.197
10.5055	0.185
10.5465	0.392
10.5876	0.588
10.6286	0.683
10.6697	0.717
10.7107	0.731
10.7518	0.717
10.7928	0.675
10.8339	0.629
10.875	0.693
10.916	0.744
10.9571	0.751
10.9981	0.748
11.0392	0.734
11.0802	0.702
11.1213	0.663
11.1623	0.603
11.2034	0.515
11.2445	0.448
11.2855	0.335
11.3266	0.239
11.3676	0.227
11.4087	0.227
11.4497	0.197
11.4908	0.166
11.5318	0.141
11.5729	0.117
11.614	0.091
11.655	0.078
11.6961	0.061
11.7371	0.051
11.7782	0.042
11.8192	0.035
11.8603	0.103
11.9013	0.253
11.9424	0.365
11.9835	0.45
12.0245	0.527
12.0656	0.544
12.1066	0.54
12.1477	0.51
12.1887	0.448
12.2298	0.311
12.2708	0.12
12.3119	0.011
12.353	0.013
12.394	0.124
12.4351	0.304
12.4761	0.435
12.5172	0.518
12.5582	0.557
12.5993	0.586
12.6404	0.602
12.6814	0.62
12.7225	0.637
12.7635	0.661
12.8046	0.69
12.8456	0.715
12.8867	0.729
12.9277	0.741
12.9688	0.746
13.0099	0.746
13.0509	0.738
13.092	0.736
13.133	0.732
13.1741	0.724
13.2151	0.717
13.2562	0.702
13.2972	0.69
13.3383	0.676
13.3794	0.666
13.4204	0.654
13.4615	0.646
13.5025	0.647
13.5436	0.661
13.5846	0.668
13.6257	0.671
13.6667	0.671
13.7078	0.666
13.7489	0.659
13.7899	0.656
13.831	0.649
13.872	0.639
13.9131	0.625
13.9541	0.612
13.9952	0.598
14.0362	0.585
14.0773	0.568
14.1184	0.556
14.1594	0.53
14.2005	0.503
14.2415	0.476
14.2826	0.448
14.3236	0.438
14.3647	0.438
14.4057	0.448
14.4468	0.447
14.4879	0.44
14.5289	0.437
14.57	0.43
14.611	0.421
14.6521	0.416
14.6931	0.408
14.7342	0.397
14.7752	0.387
14.8163	0.377
14.8574	0.372
14.8984	0.367
14.9395	0.358
14.9805	0.348
15.0216	0.324
15.0626	0.295
15.1037	0.267
15.1447	0.234
15.1858	0.198
15.2269	0.159
15.2679	0.137
15.309	0.125
15.35	0.125
15.3911	0.136
15.4321	0.154
15.4732	0.175
15.5142	0.187
15.5553	0.198
15.5964	0.209
15.6374	0.215
15.6785	0.224
15.7195	0.232
15.7606	0.238
15.8016	0.241
15.8427	0.239
15.8837	0.239
15.9248	0.232
