Infrared Spectrum: MALEIC ANHYDRIDE
Formula: C4 H2 O3
CAS: 108-31-6
State: SOLID (MINERAL OIL MULL)
Class: COBLENTZ
Instrument: Not specified, most likely a prism, grating, or hybrid spectrometer.
Sampling: TRANSMISSION
Resolution: 4
Origin: WYANDOTTE CHEMICALS CORP., WYANDOTTE, MICHIGAN, USA
MICROMETERS	TRANSMITTANCE
2.02	0.603
2.05967	0.609
2.09935	0.614
2.13902	0.621
2.1787	0.619
2.21837	0.606
2.25804	0.609
2.29772	0.608
2.33739	0.604
2.37707	0.626
2.41674	0.634
2.45641	0.642
2.49609	0.649
2.53576	0.656
2.57544	0.664
2.61511	0.669
2.65478	0.679
2.69446	0.679
2.73413	0.654
2.77381	0.581
2.81348	0.631
2.85315	0.654
2.89283	0.671
2.9325	0.676
2.97218	0.68
3.01185	0.679
3.05153	0.685
3.0912	0.674
3.13087	0.634
3.17055	0.623
3.21022	0.365
3.2499	0.525
3.28957	0.603
3.32924	0.471
3.36892	0.077
3.40859	0.028
3.44827	0.042
3.48794	0.057
3.52761	0.138
3.56729	0.499
3.60696	0.667
3.64664	0.733
3.68631	0.73
3.72598	0.743
3.76566	0.752
3.80533	0.765
3.84501	0.78
3.88468	0.793
3.92435	0.809
3.96403	0.814
4.0037	0.833
4.04338	0.834
4.08305	0.838
4.12272	0.852
4.1624	0.852
4.20207	0.854
4.24175	0.854
4.28142	0.833
4.32109	0.838
4.36077	0.864
4.40044	0.856
4.44012	0.879
4.47979	0.902
4.51946	0.917
4.55914	0.928
4.59881	0.93
4.63849	0.919
4.67816	0.811
4.71783	0.892
4.75751	0.862
4.79718	0.905
4.83686	0.94
4.87653	0.947
4.91621	0.945
4.95588	0.925
4.99555	0.91
5.03523	0.9
5.0749	0.786
5.11458	0.748
5.15425	0.74
5.19392	0.651
5.2336	0.476
5.27327	0.641
5.31295	0.514
5.35262	0.347
5.39229	0.216
5.43197	0.107
5.47164	0.203
5.51132	0.163
5.55099	0.092
5.59066	0.071
5.63034	0.057
5.67001	0.052
5.70969	0.074
5.74936	0.099
5.78903	0.147
5.82871	0.19
5.86838	0.211
5.90806	0.241
5.94773	0.28
5.9874	0.335
6.02708	0.366
6.06675	0.411
6.10643	0.363
6.1461	0.452
6.18577	0.442
6.22545	0.292
6.26512	0.371
6.3048	0.525
6.34447	0.522
6.38414	0.55
6.42382	0.588
6.46349	0.588
6.50317	0.596
6.54284	0.614
6.58251	0.631
6.62219	0.629
6.66186	0.616
6.70154	0.565
6.74121	0.4
6.78089	0.226
6.82056	0.14
6.86023	0.236
6.89991	0.319
6.93958	0.454
6.97926	0.596
7.01893	0.676
7.0586	0.689
7.09828	0.608
7.13795	0.49
7.17763	0.504
7.2173	0.386
7.25697	0.289
7.29665	0.441
7.33632	0.53
7.376	0.596
7.41567	0.603
7.45534	0.603
7.49502	0.603
7.53469	0.593
7.57437	0.552
7.61404	0.398
7.65371	0.246
7.69339	0.16
7.73306	0.099
7.77274	0.142
7.81241	0.342
7.85208	0.181
7.89176	0.161
7.93143	0.413
7.97111	0.391
8.01078	0.095
8.05045	0.102
8.09013	0.142
8.1298	0.241
8.16948	0.441
8.20915	0.568
8.24882	0.646
8.2885	0.695
8.32817	0.738
8.36785	0.773
8.40752	0.803
8.44719	0.821
8.48687	0.823
8.52654	0.819
8.56622	0.833
8.60589	0.846
8.64557	0.844
8.68524	0.842
8.72491	0.866
8.76459	0.89
8.80426	0.892
8.84394	0.871
8.88361	0.801
8.92328	0.694
8.96296	0.677
9.00263	0.695
9.04231	0.786
9.08198	0.823
9.12165	0.806
9.16133	0.781
9.201	0.738
9.24068	0.618
9.28035	0.391
9.32002	0.155
9.3597	0.08
9.39937	0.072
9.43905	0.046
9.47872	0.08
9.51839	0.188
9.55807	0.348
9.59774	0.499
9.63742	0.588
9.67709	0.614
9.71676	0.649
9.75644	0.705
9.79611	0.745
9.83579	0.781
9.87546	0.8
9.91513	0.819
9.95481	0.834
9.99448	0.847
10.0342	0.859
10.0738	0.867
10.1135	0.867
10.1532	0.874
10.1929	0.871
10.2325	0.852
10.2722	0.833
10.3119	0.828
10.3515	0.829
10.3912	0.768
10.4309	0.649
10.4706	0.652
10.5102	0.73
10.5499	0.743
10.5896	0.752
10.6293	0.728
10.6689	0.7
10.7086	0.667
10.7483	0.626
10.788	0.573
10.8276	0.476
10.8673	0.376
10.907	0.279
10.9467	0.181
10.9863	0.147
11.026	0.125
11.0657	0.1
11.1054	0.066
11.145	0.054
11.1847	0.056
11.2244	0.072
11.2641	0.09
11.3037	0.112
11.3434	0.123
11.3831	0.138
11.4227	0.15
11.4624	0.114
11.5021	0.11
11.5418	0.229
11.5814	0.284
11.6211	0.31
11.6608	0.319
11.7005	0.302
11.7401	0.247
11.7798	0.135
11.8195	0.076
11.8592	0.054
11.8988	0.046
11.9385	0.039
11.9782	0.038
12.0179	0.039
12.0575	0.042
12.0972	0.049
12.1369	0.064
12.1766	0.095
12.2162	0.143
12.2559	0.201
12.2956	0.251
12.3353	0.322
12.3749	0.375
12.4146	0.429
12.4543	0.471
12.4939	0.512
12.5336	0.548
12.5733	0.573
12.613	0.591
12.6526	0.609
12.6923	0.628
12.732	0.644
12.7717	0.659
12.8113	0.677
12.851	0.699
12.8907	0.717
12.9304	0.732
12.97	0.742
13.0097	0.714
13.0494	0.722
13.0891	0.752
13.1287	0.766
13.1684	0.775
13.2081	0.786
13.2478	0.796
13.2874	0.806
13.3271	0.816
13.3668	0.823
13.4065	0.829
13.4461	0.829
13.4858	0.831
13.5255	0.831
13.5651	0.833
13.6048	0.838
13.6445	0.844
13.6842	0.849
13.7238	0.851
13.7635	0.852
13.8032	0.852
13.8429	0.847
13.8825	0.842
13.9222	0.846
13.9619	0.844
14.0016	0.841
14.0412	0.824
14.0809	0.766
14.1206	0.692
14.1603	0.591
14.1999	0.485
14.2396	0.401
14.2793	0.312
14.319	0.203
14.3586	0.132
14.3983	0.123
14.438	0.132
14.4776	0.148
14.5173	0.163
14.557	0.19
14.5967	0.214
14.6363	0.241
14.676	0.269
14.7157	0.295
14.7554	0.322
14.795	0.347
14.8347	0.371
14.8744	0.396
14.9141	0.421
14.9537	0.446
14.9934	0.464
15.0331	0.48
15.0728	0.495
15.1124	0.51
15.1521	0.527
15.1918	0.545
15.2315	0.555
15.2711	0.566
15.3108	0.573
15.3505	0.575
15.3902	0.578
15.4298	0.575
15.4695	0.58
15.5092	0.585
15.5488	0.583
15.5885	0.578
15.6282	0.558
15.6679	0.535
15.7075	0.52
15.7472	0.52
15.7869	0.528
15.8266	0.54
15.8662	0.55
15.9059	0.555
15.9456	0.558
15.9853	0.558
