Infrared Spectrum: Bis(2-Chloroisopropyl)ether
Formula: C 6 H 12 Cl 2 O
CAS: 108-60-1
State: gas
Instrument: HP-GC/MS/IRD
Origin: NIST Mass Spectrometry Data Center
1/CM	ABSORBANCE
550	0.0001884
562	2.76e-05
574	0.0003264
586	0.0004392
598	0.0003552
610	0.0002844
622	0.0002976
634	0.000288
646	0.0003756
658	0.0003552
670	0.0004284
682	0.000606
694	0.00093
706	0.0014976
718	0.0013572
730	0.0016764
742	0.003882
754	0.0058368
766	0.0037572
778	0.0015564
790	0.0009996
802	0.000852
814	0.000846
826	0.0008424
838	0.0010152
850	0.0012396
862	0.0010452
874	0.0010212
886	0.0011784
898	0.0011496
910	0.0011184
922	0.0010116
934	0.000828
946	0.0007272
958	0.0008508
970	0.0013476
982	0.001986
994	0.001362
1006	0.0009192
1018	0.0009192
1030	0.0013284
1042	0.0020184
1054	0.003012
1066	0.0053076
1078	0.0094896
1090	0.012
1102	0.0085296
1114	0.006078
1126	0.00741
1138	0.0077064
1150	0.0045348
1162	0.0024816
1174	0.0016452
1186	0.001488
1198	0.0024528
1210	0.0024456
1222	0.0015264
1234	0.0010644
1246	0.001518
1258	0.0023508
1270	0.001884
1282	0.0012348
1294	0.0010656
1306	0.0013272
1318	0.0024624
1330	0.003108
1342	0.0021744
1354	0.0015528
1366	0.0021564
1378	0.0039252
1390	0.0033576
1402	0.0014856
1414	0.000978
1426	0.0015228
1438	0.0024072
1450	0.0023916
1462	0.001776
1474	0.000984
1486	0.0005748
1498	0.0004296
1510	0.000396
1522	0.0003888
1534	0.0003204
1546	0.0002892
1558	0.000288
1570	0.0002892
1582	0.0002316
1594	0.0002292
1606	0.0002436
1618	0.0002448
1630	0.0002424
1642	0.0002568
1654	0.000252
1666	0.0002172
1678	0.0002136
1690	0.00021
1702	0.0002016
1714	0.0001932
1726	0.0001584
1738	0.0001884
1750	0.0001932
1762	0.0001884
1774	0.0001848
1786	0.0001764
1798	0.0001548
1810	0.0001776
1822	0.00018
1834	0.0001776
1846	0.0001812
1858	0.0001812
1870	0.0001992
1882	0.0001872
1894	0.0001956
1906	0.0002004
1918	0.0001584
1930	0.0001704
1942	0.0001764
1954	0.0001524
1966	0.0001272
1978	0.0001272
1990	0.0001332
2002	0.0001152
2014	0.00012
2026	9.24e-05
2038	0.0001008
2050	0.0001008
2062	8.88e-05
2074	8.76e-05
2086	5.88e-05
2098	4.92e-05
2110	5.88e-05
2122	8.16e-05
2134	4.92e-05
2146	4.2e-05
2158	5.76e-05
2170	5.64e-05
2182	6.36e-05
2194	7.8e-05
2206	8.28e-05
2218	9.84e-05
2230	9.72e-05
2242	2.76e-05
2254	4.56e-05
2266	4.44e-05
2278	3.72e-05
2290	1.92e-05
2302	7.2e-06
2314	2.4e-05
2326	0.0001032
2338	5.28e-05
2350	5.76e-05
2362	9.6e-05
2374	3.36e-05
2386	4.68e-05
2398	5.04e-05
2410	2.76e-05
2422	6.12e-05
2434	5.88e-05
2446	0.000108
2458	8.64e-05
2470	7.92e-05
2482	0.0001368
2494	7.92e-05
2506	0.0001152
2518	0.000156
2530	0.0001464
2542	0.0001404
2554	0.0001368
2566	0.000156
2578	0.0001572
2590	0.000198
2602	0.0002208
2614	0.000186
2626	0.0002304
2638	0.0002568
2650	0.0002304
2662	0.0002652
2674	0.0002976
2686	0.000288
2698	0.0003012
2710	0.0002964
2722	0.000306
2734	0.0003012
2746	0.0003348
2758	0.0003444
2770	0.0003168
2782	0.0003468
2794	0.0003852
2806	0.0004308
2818	0.0005076
2830	0.0006012
2842	0.0008508
2854	0.0010812
2866	0.0014568
2878	0.0018324
2890	0.0019956
2902	0.002424
2914	0.0023928
2926	0.002244
2938	0.0028992
2950	0.0032088
2962	0.0041664
2974	0.0053292
2986	0.0064488
2998	0.0049056
3010	0.0026688
3022	0.0011796
3034	0.0006732
3046	0.0004668
3058	0.0004332
3070	0.0003732
3082	0.0003672
3094	0.0004452
3106	0.0003888
3118	0.0003624
3130	0.000312
3142	0.0003192
3154	0.0003276
3166	0.0002604
3178	0.0002724
3190	0.0003036
3202	0.0002556
3214	0.0003216
3226	0.00027
3238	0.0002136
3250	0.0001884
3262	0.0001824
3274	0.0002064
3286	0.000174
3298	0.0001584
3310	0.0002064
3322	0.0001332
3334	0.0002016
3346	0.0001944
3358	0.0001728
3370	0.000126
3382	0.0001716
3394	0.0001668
3406	0.000228
3418	0.000108
3430	0.0001812
3442	0.000168
3454	0.0001092
3466	0.0001368
3478	0.0001092
3490	0.0001332
3502	9.12e-05
3514	0.0001092
3526	5.88e-05
3538	5.52e-05
3550	4.8e-06
3562	5.4e-05
3574	7.08e-05
3586	8.88e-05
3598	0.000102
3610	8.04e-05
3622	8.76e-05
3634	6.48e-05
3646	2.76e-05
3658	0.0001308
3670	8.16e-05
3682	3.84e-05
3694	6.36e-05
3706	0.0001392
3718	0.000114
3730	9.72e-05
3742	0.0001128
3754	0.0001584
3766	0.0001632
3778	7.44e-05
3790	0.0001344
3802	0.0001776
3814	0.000108
3826	9.72e-05
3838	0.0001116
