Infrared Spectrum: 2-Amino-4-methylpyrimidine
Formula: C 5 H 7 N 3
CAS: 108-52-1
State: gas
Instrument: HP-GC/MS/IRD
Origin: NIST Mass Spectrometry Data Center
1/CM	ABSORBANCE
550	0.00044
562	0.000224
574	0.000272
586	0.000332
598	0.000308
610	0.000226
622	0.00025
634	0.000186
646	0.000186
658	0.00028
670	0.000338
682	0.000482
694	0.000728
706	0.001066
718	0.00118
730	0.00103
742	0.00108
754	0.001152
766	0.001134
778	0.00125
790	0.001762
802	0.002794
814	0.001984
826	0.001226
838	0.000744
850	0.000592
862	0.000468
874	0.00038
886	0.000338
898	0.000342
910	0.000346
922	0.000372
934	0.000372
946	0.000308
958	0.000198
970	0.000242
982	0.000264
994	0.0003
1006	0.000274
1018	0.000188
1030	0.000132
1042	0.000136
1054	0.000154
1066	0.000184
1078	0.000148
1090	5.8e-05
1102	4e-06
1114	1.6e-05
1126	3.4e-05
1138	6.8e-05
1150	8.4e-05
1162	8.8e-05
1174	0.000202
1186	0.00054
1198	0.000834
1210	0.00077
1222	0.000384
1234	0.000318
1246	0.00049
1258	0.000628
1270	0.00054
1282	0.000242
1294	0.000138
1306	0.000128
1318	0.000148
1330	0.000292
1342	0.000364
1354	0.000376
1366	0.000656
1378	0.000902
1390	0.00088
1402	0.001124
1414	0.003298
1426	0.007238
1438	0.009528
1450	0.00839
1462	0.005988
1474	0.002992
1486	0.001272
1498	0.001244
1510	0.001452
1522	0.001736
1534	0.002304
1546	0.003622
1558	0.00609
1570	0.010718
1582	0.015312
1594	0.02
1606	0.017216
1618	0.00969
1630	0.002958
1642	0.001306
1654	0.000824
1666	0.000522
1678	0.00031
1690	0.000172
1702	0.000118
1714	7.4e-05
1726	6.4e-05
1738	8.6e-05
1750	7e-05
1762	6.8e-05
1774	5.8e-05
1786	4.4e-05
1798	2.6e-05
1810	2.4e-05
1822	1.2e-05
1834	1e-05
1846	0
1858	1e-05
1870	5e-05
1882	5e-05
1894	5e-05
1906	3.8e-05
1918	6.8e-05
1930	7.4e-05
1942	8.6e-05
1954	7.8e-05
1966	3.6e-05
1978	2.6e-05
1990	2e-05
2002	2e-05
2014	3.2e-05
2026	4.4e-05
2038	2.8e-05
2050	4.2e-05
2062	3.4e-05
2074	3e-05
2086	2.6e-05
2098	2.8e-05
2110	2.8e-05
2122	6.6e-05
2134	7.6e-05
2146	7e-05
2158	5.2e-05
2170	4.4e-05
2182	8.2e-05
2194	8.4e-05
2206	7.8e-05
2218	3.4e-05
2230	6e-06
2242	2e-06
2254	1.6e-05
2266	2.2e-05
2278	2e-05
2290	2.4e-05
2302	1.4e-05
2314	4.8e-05
2326	6e-05
2338	6.8e-05
2350	6.2e-05
2362	7.2e-05
2374	6.6e-05
2386	4.4e-05
2398	3.6e-05
2410	1.6e-05
2422	1.6e-05
2434	1.2e-05
2446	1.6e-05
2458	2.2e-05
2470	2.2e-05
2482	1e-05
2494	3e-05
2506	4e-05
2518	5.6e-05
2530	4.2e-05
2542	5.6e-05
2554	4.6e-05
2566	4.6e-05
2578	2e-05
2590	2.4e-05
2602	1.8e-05
2614	4e-06
2626	5.2e-05
2638	6e-05
2650	4.6e-05
2662	5.6e-05
2674	2.8e-05
2686	3e-05
2698	2.8e-05
2710	3e-05
2722	3.4e-05
2734	1e-05
2746	3.2e-05
2758	1.4e-05
2770	2.6e-05
2782	2.4e-05
2794	1.6e-05
2806	2.6e-05
2818	4.6e-05
2830	7.8e-05
2842	7e-05
2854	0.00011
2866	0.00015
2878	0.000136
2890	0.00014
2902	0.000188
2914	0.000304
2926	0.000522
2938	0.000616
2950	0.00046
2962	0.000308
2974	0.000302
2986	0.000426
2998	0.000588
3010	0.000636
3022	0.000668
3034	0.000716
3046	0.000748
3058	0.00072
3070	0.000682
3082	0.000576
3094	0.000374
3106	0.0002
3118	0.000144
3130	0.000114
3142	0.000114
3154	0.000102
3166	0.000132
3178	9.2e-05
3190	7.6e-05
3202	7.2e-05
3214	5.4e-05
3226	4.6e-05
3238	3.6e-05
3250	6e-05
3262	5e-05
3274	5.8e-05
3286	2.8e-05
3298	4.2e-05
3310	3.8e-05
3322	6e-06
3334	4e-05
3346	3.4e-05
3358	6.6e-05
3370	9.6e-05
3382	0.000116
3394	0.00018
3406	0.000356
3418	0.000704
3430	0.00128
3442	0.00178
3454	0.001718
3466	0.000992
3478	0.000422
3490	0.000278
3502	0.000336
3514	0.000474
3526	0.000634
3538	0.000864
3550	0.001
3562	0.001124
3574	0.000918
3586	0.000556
3598	0.000328
3610	0.000186
3622	0.000174
3634	0.00015
3646	0.000118
3658	0.00011
3670	0.000124
3682	0.000114
3694	0.000112
3706	0.00011
3718	9.4e-05
3730	9.8e-05
3742	0.000112
3754	0.000134
3766	0.00012
3778	7e-05
3790	0.000118
3802	0.00012
3814	9.2e-05
3826	0.00012
3838	0.00011
