Infrared Spectrum: MALONAMIDE
Formula: C3 H6 N2 O2
CAS: 108-13-4
State: SOLID (MULL)
Melting point: 171-173 C
Class: COBLENTZ
Instrument: Not specified, most likely a prism, grating, or hybrid spectrometer.
Sampling: TRANSMISSION
Resolution: 4
Origin: WYANDOTTE CHEMICALS CORP., WYANDOTTE, MICHIGAN, USA
MICROMETERS	TRANSMITTANCE
2.079	0.855
2.11903	0.851
2.15906	0.853
2.19908	0.865
2.23911	0.855
2.27914	0.855
2.31917	0.865
2.35919	0.873
2.39922	0.883
2.43925	0.893
2.47928	0.903
2.51931	0.905
2.55933	0.928
2.59936	0.933
2.63939	0.938
2.67942	0.94
2.71945	0.94
2.75947	0.93
2.7995	0.903
2.83953	0.845
2.87956	0.752
2.91958	0.544
2.95961	0.247
2.99964	0.098
3.03967	0.096
3.0797	0.124
3.11972	0.113
3.15975	0.059
3.19978	0.066
3.23981	0.184
3.27984	0.291
3.31986	0.319
3.35989	0.108
3.39992	0.064
3.43995	0.138
3.47997	0.164
3.52	0.301
3.56003	0.519
3.60006	0.565
3.64009	0.688
3.68011	0.718
3.72014	0.77
3.76017	0.798
3.8002	0.816
3.84022	0.828
3.88025	0.836
3.92028	0.846
3.96031	0.856
4.00034	0.868
4.04036	0.888
4.08039	0.891
4.12042	0.898
4.16045	0.901
4.20048	0.895
4.2405	0.878
4.28053	0.88
4.32056	0.89
4.36059	0.903
4.40061	0.921
4.44064	0.91
4.48067	0.903
4.5207	0.931
4.56073	0.945
4.60075	0.955
4.64078	0.961
4.68081	0.965
4.72084	0.966
4.76086	0.966
4.80089	0.965
4.84092	0.961
4.88095	0.966
4.92098	0.973
4.961	0.975
5.00103	0.975
5.04106	0.976
5.08109	0.976
5.12112	0.976
5.16114	0.973
5.20117	0.968
5.2412	0.956
5.28123	0.935
5.32125	0.916
5.36128	0.901
5.40131	0.883
5.44134	0.865
5.48137	0.838
5.52139	0.797
5.56142	0.758
5.60145	0.718
5.64148	0.675
5.68151	0.645
5.72153	0.562
5.76156	0.424
5.80159	0.302
5.84162	0.133
5.88164	0.068
5.92167	0.054
5.9617	0.044
6.00173	0.043
6.04176	0.061
6.08178	0.081
6.12181	0.083
6.16184	0.078
6.20187	0.076
6.24189	0.093
6.28192	0.111
6.32195	0.148
6.36198	0.188
6.40201	0.252
6.44203	0.271
6.48206	0.324
6.52209	0.351
6.56212	0.371
6.60215	0.372
6.64217	0.366
6.6822	0.361
6.72223	0.347
6.76226	0.294
6.80228	0.183
6.84231	0.164
6.88234	0.151
6.92237	0.211
6.9624	0.239
7.00242	0.169
7.04245	0.171
7.08248	0.099
7.12251	0.103
7.16253	0.138
7.20256	0.183
7.24259	0.199
7.28262	0.274
7.32265	0.319
7.36267	0.357
7.4027	0.384
7.44273	0.402
7.48276	0.429
7.52279	0.445
7.56281	0.454
7.60284	0.469
7.64287	0.489
7.6829	0.512
7.72292	0.53
7.76295	0.562
7.80298	0.582
7.84301	0.57
7.88304	0.286
7.92306	0.211
7.96309	0.4
8.00312	0.492
8.04315	0.544
8.08318	0.572
8.1232	0.602
8.16323	0.618
8.20326	0.627
8.24329	0.638
8.28331	0.635
8.32334	0.562
8.36337	0.376
8.4034	0.261
8.44343	0.381
8.48345	0.547
8.52348	0.62
8.56351	0.658
8.60354	0.697
8.64356	0.705
8.68359	0.67
8.72362	0.542
8.76365	0.459
8.80368	0.603
8.8437	0.642
8.88373	0.61
8.92376	0.7
8.96379	0.752
9.00382	0.762
9.04384	0.777
9.08387	0.783
9.1239	0.788
9.16393	0.79
9.20395	0.79
9.24398	0.79
9.28401	0.79
9.32404	0.788
9.36407	0.787
9.40409	0.8
9.44412	0.806
9.48415	0.808
9.52418	0.808
9.5642	0.811
9.60423	0.813
9.64426	0.815
9.68429	0.816
9.72432	0.821
9.76434	0.826
9.80437	0.826
9.8444	0.83
9.88443	0.833
9.92446	0.836
9.96448	0.84
10.0045	0.845
10.0445	0.845
10.0846	0.848
10.1246	0.85
10.1646	0.853
10.2047	0.85
10.2447	0.841
10.2847	0.84
10.3247	0.84
10.3648	0.833
10.4048	0.826
10.4448	0.783
10.4848	0.7
10.5249	0.67
10.5649	0.725
10.6049	0.808
10.645	0.841
10.685	0.845
10.725	0.843
10.765	0.843
10.8051	0.833
10.8451	0.81
10.8851	0.687
10.9252	0.552
10.9652	0.715
11.0052	0.76
11.0452	0.687
11.0853	0.584
11.1253	0.628
11.1653	0.707
11.2053	0.76
11.2454	0.793
11.2854	0.806
11.3254	0.823
11.3655	0.831
11.4055	0.838
11.4455	0.838
11.4855	0.83
11.5256	0.83
11.5656	0.825
11.6056	0.818
11.6457	0.808
11.6857	0.801
11.7257	0.792
11.7657	0.783
11.8058	0.773
11.8458	0.762
11.8858	0.752
11.9258	0.74
11.9659	0.727
12.0059	0.722
12.0459	0.713
12.086	0.708
12.126	0.703
12.166	0.698
12.206	0.692
12.2461	0.685
12.2861	0.675
12.3261	0.665
12.3662	0.658
12.4062	0.647
12.4462	0.633
12.4862	0.62
12.5263	0.602
12.5663	0.592
12.6063	0.58
12.6463	0.57
12.6864	0.569
12.7264	0.574
12.7664	0.58
12.8065	0.587
12.8465	0.592
12.8865	0.6
12.9265	0.603
12.9666	0.608
13.0066	0.617
13.0466	0.62
13.0867	0.627
13.1267	0.625
13.1667	0.625
13.2067	0.62
13.2468	0.613
13.2868	0.605
13.3268	0.595
13.3668	0.584
13.4069	0.567
13.4469	0.547
13.4869	0.524
13.527	0.502
13.567	0.475
13.607	0.454
13.647	0.44
13.6871	0.429
13.7271	0.43
13.7671	0.422
13.8072	0.415
13.8472	0.397
13.8872	0.384
13.9272	0.371
13.9673	0.356
14.0073	0.344
14.0473	0.334
14.0874	0.319
14.1274	0.312
14.1674	0.304
14.2074	0.299
14.2475	0.292
14.2875	0.286
14.3275	0.281
14.3675	0.276
14.4076	0.276
14.4476	0.277
14.4876	0.279
14.5277	0.282
14.5677	0.289
14.6077	0.297
14.6477	0.299
14.6878	0.306
14.7278	0.311
14.7678	0.317
14.8079	0.322
14.8479	0.327
14.8879	0.337
14.9279	0.349
14.968	0.359
15.008	0.364
15.048	0.381
15.088	0.397
15.1281	0.402
15.1681	0.399
15.2081	0.4
15.2482	0.404
15.2882	0.41
15.3282	0.419
15.3682	0.42
15.4083	0.425
15.4483	0.43
15.4883	0.429
15.5284	0.43
15.5684	0.432
15.6084	0.432
15.6484	0.432
15.6885	0.434
15.7285	0.435
15.7685	0.444
15.8085	0.454
15.8486	0.46
15.8886	0.457
15.9286	0.467
15.9687	0.474
16.0087	0.474
