Infrared Spectrum: 3-Methyl-5-pyrazolone
Formula: C 4 H 6 N 2 O
CAS: 108-26-9
State: gas
Origin: EPA-IR VAPOR PHASE LIBRARY
1/CM	ABSORBANCE
549.8	0.001268
559.445	0.0010802
569.09	0.0009874
578.734	0.0007812
588.379	0.0010483
598.024	0.0008062
607.669	0.0006719
617.313	0.0009888
626.958	0.0011349
636.603	0.001458
646.248	0.001448
655.893	0.0010811
665.537	0.0008024
675.182	0.0006895
684.827	0.0006375
694.472	0.0005771
704.116	0.0005276
713.761	0.000447
723.406	0.0007044
733.051	0.0010291
742.695	0.001918
752.34	0.002578
761.985	0.003088
771.63	0.002988
781.275	0.002328
790.919	0.002098
800.564	0.001648
810.209	0.001778
819.854	0.001758
829.498	0.001988
839.143	0.002248
848.788	0.002838
858.433	0.002948
868.078	0.002968
877.722	0.002558
887.367	0.002188
897.012	0.001858
906.657	0.001758
916.301	0.001748
925.946	0.001568
935.591	0.001288
945.236	0.0009671
954.88	0.0008376
964.525	0.0011479
974.17	0.001668
983.815	0.001598
993.46	0.001668
1003.1	0.001358
1012.75	0.001308
1022.39	0.001708
1032.04	0.002258
1041.68	0.001708
1051.33	0.002308
1060.97	0.002938
1070.62	0.002718
1080.26	0.001838
1089.91	0.0009321
1099.55	0.001548
1109.2	0.002818
1118.84	0.003298
1128.49	0.003438
1138.13	0.002168
1147.78	0.001718
1157.42	0.001738
1167.07	0.001918
1176.71	0.001958
1186.36	0.003378
1196	0.005898
1205.64	0.007938
1215.29	0.008198
1224.93	0.006288
1234.58	0.004688
1244.22	0.004248
1253.87	0.003258
1263.51	0.002178
1273.16	0.001798
1282.8	0.001768
1292.45	0.002218
1302.09	0.002918
1311.74	0.002848
1321.38	0.002498
1331.03	0.001518
1340.67	0.001508
1350.32	0.001668
1359.96	0.001868
1369.61	0.001988
1379.25	0.002148
1388.9	0.002108
1398.54	0.002118
1408.18	0.001828
1417.83	0.001658
1427.47	0.001478
1437.12	0.001578
1446.76	0.001638
1456.41	0.002088
1466.05	0.002468
1475.7	0.003498
1485.34	0.004858
1494.99	0.006238
1504.63	0.006758
1514.28	0.006868
1523.92	0.005778
1533.57	0.004308
1543.21	0.001998
1552.86	0.001788
1562.5	0.002948
1572.15	0.005838
1581.79	0.007778
1591.44	0.007458
1601.08	0.004558
1610.73	0.001668
1620.37	0.0010692
1630.01	0.0008212
1639.66	0.0007371
1649.3	0.0006913
1658.95	0.0007778
1668.59	0.0009471
1678.24	0.0010031
1687.88	0.0010223
1697.53	0.001258
1707.17	0.001388
1716.82	0.002158
1726.46	0.003138
1736.11	0.005078
1745.75	0.009418
1755.4	0.017258
1765.04	0.023968
1774.69	0.022948
1784.33	0.015658
1793.98	0.005168
1803.62	0.002158
1813.27	0.001368
1822.91	0.0009647
1832.55	0.0008138
1842.2	0.0006219
1851.84	0.0005064
1861.49	0.0005137
1871.13	0.0004943
1880.78	0.0004931
1890.42	0.0005147
1900.07	0.0005061
1909.71	0.0004358
1919.36	0.0004764
1929	0.0003617
1938.65	0.0003593
1948.29	0.0004108
1957.94	0.0003459
1967.58	0.0004201
1977.23	0.0004053
1986.87	0.0003602
1996.52	0.0004165
2006.16	0.0003683
2015.81	0.0003616
2025.45	0.0003113
2035.1	0.0002796
2044.74	0.0002866
2054.38	0.0002877
2064.03	0.0003291
2073.67	0.0003633
2083.32	0.000351
2092.96	0.0003468
2102.61	0.0003872
2112.25	0.0003597
2121.9	0.0003975
2131.54	0.0003274
2141.19	0.0003676
2150.83	0.0004038
2160.48	0.0003194
2170.12	0.0003432
2179.77	0.00026178
2189.41	0.00026741
2199.06	0.00026823
2208.7	0.0003126
2218.35	0.0003031
2227.99	0.0003368
2237.64	0.0004247
2247.28	0.0003403
2256.92	0.0003056
2266.57	0.0003493
2276.21	0.0003911
2285.86	0.0003368
2295.5	0.0004231
2305.15	0.0004109
2314.79	0.0004189
2324.44	0.0003361
2334.08	0.0003232
2343.73	0.000397
2353.37	0.0003509
2363.02	0.0003958
2372.66	0.0003682
2382.31	0.0003285
2391.95	0.0003111
2401.6	0.0003479
2411.24	0.0003451
2420.89	0.0003179
2430.53	0.0004028
2440.18	0.00024027
2449.82	0.0002924
2459.47	0.0003019
2469.11	0.0003399
2478.75	0.0003442
2488.4	0.0004265
2498.04	0.0003327
2507.69	0.0003249
2517.33	0.0003466
2526.98	0.0004064
2536.62	0.0003322
2546.27	0.0003777
2555.91	0.0003002
2565.56	0.0002917
2575.2	0.0003147
2584.85	0.0003581
2594.49	0.0003422
2604.14	0.0003264
2613.78	0.0004456
2623.43	0.0003992
2633.07	0.0003716
2642.72	0.0004387
2652.36	0.0004114
2662.01	0.000354
2671.65	0.0002912
2681.29	0.0004157
2690.94	0.0003602
2700.58	0.0004439
2710.23	0.0003268
2719.87	0.0003998
2729.52	0.0003122
2739.16	0.0003267
2748.81	0.0004572
2758.45	0.0004057
2768.1	0.0004599
2777.74	0.0004262
2787.39	0.000391
2797.03	0.0004908
2806.68	0.0004598
2816.32	0.0004471
2825.97	0.0004273
2835.61	0.000584
2845.26	0.0008021
2854.9	0.0007804
2864.55	0.000888
2874.19	0.0010735
2883.84	0.001057
2893.48	0.0010656
2903.12	0.0010978
2912.77	0.001418
2922.41	0.001988
2932.06	0.002388
2941.7	0.002488
2951.35	0.001948
2960.99	0.001838
2970.64	0.001398
2980.28	0.001228
2989.93	0.001318
2999.57	0.0011084
3009.22	0.001208
3018.86	0.0010129
3028.51	0.0010839
3038.15	0.0008477
3047.8	0.0006988
3057.44	0.0007254
3067.09	0.0005995
3076.73	0.0006275
3086.38	0.0007532
3096.02	0.0005672
3105.67	0.000416
3115.31	0.0003846
3124.95	0.0005132
3134.6	0.0003289
3144.24	0.0003698
3153.89	0.000368
3163.53	0.0002819
3173.18	0.00024292
3182.82	0.0002789
3192.47	0.00017239
3202.11	0.00018881
3211.76	0.0001294
3221.4	0.00023205
3231.05	0.0001323
3240.69	0.00017598
3250.34	0.0003958
3259.98	0.0003499
3269.63	0.00023187
3279.27	0.00027753
3288.92	0.000187488
3298.56	0.0002861
3308.21	6.3e-05
3317.85	0.00022468
3327.49	0.0002862
3337.14	0.00026432
3346.78	0.00027036
3356.43	5.8e-05
3366.07	0.0001346
3375.72	0.00023467
3385.36	0.00025785
3395.01	0.00028
3404.65	0.000178701
3414.3	0.0003554
3423.94	0.00019551
3433.59	0.0003745
3443.23	0.0003923
3452.88	0.0005948
3462.52	0.001378
3472.17	0.002368
3481.81	0.003548
3491.46	0.004378
3501.1	0.005048
3510.75	0.004488
3520.39	0.003558
3530.04	0.002478
3539.68	0.0011229
3549.32	0.0009416
3558.97	0.0004316
3568.61	0.0005935
3578.26	0.0004975
3587.9	0.0004434
3597.55	0.0007226
3607.19	0.001156
3616.84	0.003538
3626.48	0.003448
3636.13	0.003978
3645.77	0.001818
3655.42	0.0010103
3665.06	0.0007876
3674.71	0.0007009
3684.35	0.0005413
3694	0.0003331
3703.64	0.0003882
3713.29	0.0004402
3722.93	0.0004992
3732.58	0.0004236
3742.22	0.0003726
3751.86	0.0003117
3761.51	0.00025498
3771.15	0.00024662
3780.8	0.0002709
3790.44	0.0003267
3800.09	0.0004291
3809.73	0.0003141
3819.38	0.00020298
3829.02	0.00027609
3838.67	0.0003238
3848.31	0.0004048
3857.96	0.0004964
3867.6	0.0003564
3877.25	0.0001274
3886.89	0.0004441
3896.54	0.0004222
3906.18	0.0003834
3915.83	8.67e-05
3925.47	0.0003602
3935.12	0.0003395
3944.76	0.00021469
3954.41	0.00016913
3964.05	0.0003838
3973.69	0.00023865
3983.34	0.0001667
3992.98	0.0003956
