Infrared Spectrum: Thiophenol
Formula: C 6 H 6 S
CAS: 108-98-5
State: gas
Instrument: HP-GC/MS/IRD
Origin: NIST Mass Spectrometry Data Center
1/CM	ABSORBANCE
550	7.3e-05
562	0.000247
574	0.000168
586	6.2e-05
598	9.8e-05
610	0.0002
622	0.000231
634	0.000264
646	0.000432
658	0.00101
670	0.002208
682	0.003428
694	0.003836
706	0.004997
718	0.006412
730	0.01
742	0.005464
754	0.002622
766	0.000703
778	0.00034
790	0.000176
802	0.000168
814	0.000155
826	0.000208
838	0.000156
850	0.000228
862	0.00019
874	0.000288
886	0.000439
898	0.000668
910	0.000771
922	0.0007
934	0.000351
946	0.000232
958	0.000149
970	0.000276
982	0.000317
994	0.000431
1006	0.000668
1018	0.001659
1030	0.001514
1042	0.000681
1054	0.000488
1066	0.000702
1078	0.001394
1090	0.001798
1102	0.001535
1114	0.001201
1126	0.001011
1138	0.000303
1150	0.000193
1162	0.000118
1174	8.4e-05
1186	8.4e-05
1198	5.8e-05
1210	8e-05
1222	0.000102
1234	6.4e-05
1246	5.2e-05
1258	6.9e-05
1270	0.0001
1282	0.000173
1294	0.000257
1306	0.000285
1318	0.000255
1330	0.000212
1342	0.000168
1354	0.000204
1366	0.000234
1378	0.000166
1390	0.000154
1402	0.00021
1414	0.000461
1426	0.001085
1438	0.001542
1450	0.001443
1462	0.001671
1474	0.004022
1486	0.003995
1498	0.00133
1510	0.000464
1522	0.000311
1534	0.000304
1546	0.000393
1558	0.000744
1570	0.001756
1582	0.002899
1594	0.002224
1606	0.001001
1618	0.000521
1630	0.000302
1642	0.000215
1654	0.000184
1666	0.000136
1678	0.000147
1690	0.000168
1702	0.000216
1714	0.000252
1726	0.000277
1738	0.000259
1750	0.000225
1762	0.000227
1774	0.000358
1786	0.000444
1798	0.000363
1810	0.000239
1822	0.000227
1834	0.000248
1846	0.000334
1858	0.000352
1870	0.000406
1882	0.000295
1894	0.000154
1906	0.000168
1918	0.000308
1930	0.000376
1942	0.000477
1954	0.000341
1966	0.000178
1978	0.000106
1990	8.3e-05
2002	6.3e-05
2014	6.4e-05
2026	4.3e-05
2038	6.1e-05
2050	4.1e-05
2062	3.2e-05
2074	2e-05
2086	2.4e-05
2098	3.2e-05
2110	1.8e-05
2122	2.6e-05
2134	1.3e-05
2146	2e-05
2158	1.6e-05
2170	4.5e-05
2182	0
2194	2.4e-05
2206	1.9e-05
2218	1.1e-05
2230	2.1e-05
2242	2.1e-05
2254	5.4e-05
2266	6.6e-05
2278	5.6e-05
2290	8.4e-05
2302	3.6e-05
2314	0.000119
2326	0.000106
2338	9.2e-05
2350	8.9e-05
2362	7.8e-05
2374	1.6e-05
2386	5.2e-05
2398	7.7e-05
2410	9.4e-05
2422	0.000112
2434	5.7e-05
2446	4.7e-05
2458	6.6e-05
2470	9.5e-05
2482	9.4e-05
2494	8.9e-05
2506	7.8e-05
2518	9.2e-05
2530	7e-05
2542	9.6e-05
2554	0.000108
2566	0.000122
2578	0.00015
2590	0.000198
2602	0.000164
2614	0.000137
2626	0.000103
2638	7e-05
2650	9.2e-05
2662	0.000136
2674	0.000136
2686	0.000115
2698	0.000127
2710	0.000108
2722	9.2e-05
2734	0.000109
2746	0.000103
2758	9.9e-05
2770	0.000121
2782	0.000113
2794	0.000109
2806	8.5e-05
2818	0.000102
2830	0.000117
2842	0.0001
2854	0.000173
2866	0.000153
2878	0.000171
2890	0.000162
2902	0.000162
2914	0.0002
2926	0.000161
2938	0.000189
2950	0.000155
2962	0.000134
2974	0.000178
2986	0.000259
2998	0.000588
3010	0.001016
3022	0.001348
3034	0.001488
3046	0.001517
3058	0.002776
3070	0.004657
3082	0.004547
3094	0.002876
3106	0.001108
3118	0.000401
3130	0.000233
3142	0.000151
3154	0.000187
3166	0.00013
3178	8.3e-05
3190	3.4e-05
3202	7.6e-05
3214	4.8e-05
3226	9.3e-05
3238	9.2e-05
3250	3.8e-05
3262	6.4e-05
3274	6.6e-05
3286	8.5e-05
3298	9.3e-05
3310	9e-05
3322	8.5e-05
3334	0.000103
3346	3.7e-05
3358	8.1e-05
3370	7.2e-05
3382	6e-05
3394	9.1e-05
3406	6.5e-05
3418	5.9e-05
3430	9.2e-05
3442	6.4e-05
3454	5.7e-05
3466	6.3e-05
3478	0.000119
3490	7.6e-05
3502	0.000121
3514	4.7e-05
3526	4.8e-05
3538	0.000107
3550	3.8e-05
3562	7.6e-05
3574	3.9e-05
3586	3.1e-05
3598	7e-05
3610	6.7e-05
3622	9.2e-05
3634	0.0001
3646	7.8e-05
3658	1.9e-05
3670	0.000107
3682	0.000134
3694	9e-05
3706	0.000103
3718	9.2e-05
3730	5.1e-05
3742	0.000132
3754	9.1e-05
3766	0.000141
3778	5.6e-05
3790	9e-05
3802	8.1e-05
3814	6.7e-05
3826	7.7e-05
3838	9.3e-05
