Infrared Spectrum: BENZENE, 1-BROMO-3-CHLORO-
Formula: C6 H4 Br Cl
CAS: 108-37-2
State: SOLUTION (10% IN CCl4 FOR 3800-1333 AND 10% IN CS2 FOR 1333-440 CM^-^1) VS. SOLVENT
Class: COBLENTZ III
Instrument: DOW KBr FOREPRISM-GRATING
Instrument parameters: BLAZED AT 3.5, 12.0, 20.0 MICRON, CHANGED AT 5.0, 7.5, 14.9 MICRON
Sampling: TRANSMISSION
Path length: 0.011, 0.011 CM
Resolution: 4
Origin: DOW CHEMICAL COMPANY
1/CM	TRANSMITTANCE
429.565	0.967
438.261	0.963
446.956	0.964
455.652	0.964
464.348	0.964
473.043	0.964
481.739	0.965
490.435	0.965
499.13	0.976
507.826	0.976
516.522	0.976
525.217	0.983
533.913	0.986
542.609	0.986
551.304	0.991
560	1
568.696	0.993
577.391	0.993
586.087	0.998
594.783	0.997
603.478	0.993
612.174	1.001
620.87	0.998
629.565	0.985
638.261	0.979
646.957	0.914
655.652	0.955
664.348	0.37
673.044	0.904
681.739	0.956
690.435	0.997
699.131	1.001
707.826	0.998
716.522	0.976
725.218	0.972
733.913	0.933
742.609	0.801
751.305	0.081
760	0.361
768.696	0.009
777.392	0.7751
786.087	0.955
794.783	0.976
803.479	0.976
812.174	0.952
820.87	0.99
829.566	0.991
838.261	0.991
846.957	0.979
855.653	0.869
864.348	0.237
873.044	0.915
881.74	0.956
890.435	0.959
899.131	0.98
907.827	0.991
916.522	0.997
925.218	0.995
933.914	0.991
942.609	0.97
951.305	0.976
960.001	0.964
968.696	0.976
977.392	0.97
986.088	0.94
994.783	0.897
1003.48	0.957
1012.17	0.98
1020.87	0.976
1029.57	0.965
1038.26	0.882
1046.96	0.891
1055.65	0.716
1064.35	0.538
1073.04	0.5729
1081.74	0.867
1090.44	0.833
1099.13	0.5089
1107.83	0.816
1116.52	0.841
1125.22	0.978
1133.91	0.982
1142.61	0.978
1151.31	0.945
1160	0.927
1168.7	0.965
1177.39	0.976
1186.09	1
1194.78	0.971
1203.48	1.006
1212.17	1.013
1220.87	1.02
1229.57	1.019
1238.26	1.001
1246.96	0.991
1255.65	0.935
1264.35	0.991
1273.04	0.982
1281.74	0.907
1290.44	0.98
1299.13	0.974
1307.83	0.991
1316.52	0.976
1325.22	0.941
1333.91	0.998
1342.61	0.998
1351.31	1
1360	0.99
1368.7	0.989
1377.39	0.964
1386.09	0.8129
1394.78	0.6321
1403.48	0.6589
1412.18	0.775
1420.87	0.843
1429.57	0.949
1438.26	0.946
1446.96	0.742
1455.65	0.2068
1464.35	0.3916
1473.04	0.7563
1481.74	0.882
1490.44	0.758
1499.13	0.961
1507.83	0.983
1516.52	0.979
1525.22	0.978
1533.91	0.964
1542.61	0.927
1551.31	0.8319
1560	0.549
1568.7	0.0389
1577.39	0.2972
1586.09	0.8711
1594.78	0.961
1603.48	0.96
1612.18	0.979
1620.87	0.97
1629.57	0.98
1638.26	0.978
1646.96	0.976
1655.65	0.971
1664.35	0.953
1673.05	0.987
1681.74	1.001
1690.44	1.002
1699.13	1.004
1707.83	1.001
1716.52	0.991
1725.22	0.964
1733.91	0.926
1742.61	0.982
1751.31	0.994
1760	0.993
1768.7	0.989
1777.39	0.98
1786.09	0.964
1794.78	1.001
1803.48	1.006
1812.18	1.006
1820.87	1.005
1829.57	1.002
1838.26	1.001
1846.96	0.99
1855.65	0.948
1864.35	0.974
1873.05	0.994
1881.74	1.006
1890.44	1.009
1899.13	1.009
1907.83	1.006
1916.52	0.995
1925.22	0.978
1933.92	0.956
1942.61	1.004
1951.31	1.01
1960	1.009
1968.7	1.012
1977.39	1.012
1986.09	1.012
1994.78	1.002
2003.48	1.001
2012.18	1.001
2020.87	1.001
2029.57	1.005
2038.26	1.002
2046.96	1.001
2055.65	0.997
2064.35	1.002
2073.05	1.002
2081.74	1.001
2090.44	1.001
2099.13	1.001
2107.83	1.001
2116.52	1.002
2125.22	1.001
2133.92	1
2142.61	0.998
2151.31	0.998
2160	0.998
2168.7	0.998
2177.39	0.998
2186.09	0.998
2194.79	1
2203.48	1
2212.18	0.998
2220.87	0.997
2229.57	0.997
2238.26	0.997
2246.96	1
2255.65	1.001
2264.35	1
2273.05	0.997
2281.74	1.001
2290.44	1.001
2299.13	1.001
2307.83	1.001
2316.52	0.997
2325.22	0.985
2333.92	0.997
2342.61	0.995
2351.31	0.998
2360	1
2368.7	0.998
2377.39	1
2386.09	0.997
2394.79	0.989
2403.48	0.997
2412.18	1
2420.87	1.001
2429.57	1.001
2438.26	1
2446.96	0.998
2455.66	1
2464.35	1.001
2473.05	1.001
2481.74	1.001
2490.44	1
2499.13	0.998
2507.83	0.994
2516.52	1.001
2525.22	1.001
2533.92	1.001
2542.61	1
2551.31	1
2560	0.995
2568.7	1
2577.39	1
2586.09	1.001
2594.79	1.001
2603.48	1.001
2612.18	1
2620.87	0.998
2629.57	1
2638.26	0.998
2646.96	0.998
2655.66	0.994
2664.35	0.993
2673.05	1
2681.74	0.995
2690.44	1.002
2699.13	1.001
2707.83	0.997
2716.52	1.001
2725.22	1.001
2733.92	0.995
2742.61	1.004
2751.31	1.004
2760	1.005
2768.7	1.005
2777.39	1.004
2786.09	1.004
2794.79	1.001
2803.48	1
2812.18	0.997
2820.87	1
2829.57	1.001
2838.26	0.997
2846.96	0.989
2855.66	0.994
2864.35	1
2873.05	1.001
2881.74	1.001
2890.44	1.002
2899.13	1.001
2907.83	0.991
2916.53	0.995
2925.22	0.998
2933.92	1.001
2942.61	1.001
2951.31	1.001
2960	1
2968.7	1
2977.39	1
2986.09	1
2994.79	0.997
3003.48	0.994
3012.18	1
3020.87	0.997
3029.57	0.991
3038.26	0.986
3046.96	0.974
3055.66	0.893
3064.35	0.878
3073.05	0.9339
3081.74	0.96
3090.44	0.959
3099.13	0.974
3107.83	0.98
3116.53	0.982
3125.22	0.98
3133.92	0.975
3142.61	0.972
3151.31	0.983
3160	0.99
3168.7	0.993
3177.4	0.994
3186.09	0.998
3194.79	0.997
3203.48	0.998
3212.18	0.998
3220.87	0.998
3229.57	0.998
3238.26	0.998
3246.96	0.998
3255.66	0.995
3264.35	0.995
3273.05	0.994
3281.74	0.994
3290.44	0.991
3299.13	0.993
3307.83	0.993
3316.53	0.993
3325.22	0.993
3333.92	0.993
3342.61	0.993
3351.31	0.991
3360	0.991
3368.7	0.99
3377.4	0.99
3386.09	0.989
3394.79	0.986
3403.48	0.989
3412.18	0.99
3420.87	0.993
3429.57	0.991
3438.27	0.995
3446.96	0.997
3455.66	1
3464.35	0.998
3473.05	1
3481.74	1.001
3490.44	1.001
3499.13	1.001
3507.83	1.002
3516.53	1.004
3525.22	1.005
3533.92	1.002
3542.61	1.005
3551.31	1.008
3560	1.008
3568.7	1.008
3577.4	1.009
3586.09	1.009
3594.79	1.008
3603.48	1.008
3612.18	1.009
3620.87	1.009
3629.57	1.008
3638.27	1.008
3646.96	1.006
3655.66	1.008
3664.35	1.008
3673.05	1.006
3681.74	1.002
3690.44	1.001
3699.14	1
3707.83	0.998
3716.53	0.998
3725.22	0.998
3733.92	1.002
3742.61	1.002
