Infrared Spectrum: 3-DIMETHYLAMINO-2-PROPANOL
Formula: C5 H13 N O
CAS: 108-16-7
State: SOLUTION (10% IN CHCl3)
Class: COBLENTZ
Instrument: PERKIN-ELMER
Sampling: TRANSMISSION
Path length: 0.010 CM CELL
Resolution: 4
Origin: ABBOTT LABORATORIES - WASHBURN
MICROMETERS	TRANSMITTANCE
2.008	0.894
2.04789	0.894
2.08779	0.897
2.12768	0.8959
2.16758	0.894
2.20747	0.902
2.24736	0.9019
2.28726	0.9
2.32715	0.891
2.36705	0.8889
2.40694	0.891
2.44683	0.896
2.48673	0.896
2.52662	0.897
2.56651	0.902
2.60641	0.904
2.6463	0.9051
2.6862	0.907
2.72609	0.8921
2.76598	0.8626
2.80588	0.7754
2.84577	0.555
2.88567	0.4681
2.92556	0.5567
2.96545	0.6526
3.00535	0.7044
3.04524	0.7452
3.08514	0.765
3.12503	0.772
3.16492	0.7831
3.20482	0.7999
3.24471	0.8148
3.28461	0.825
3.3245	0.7507
3.36439	0.2233
3.40429	0.1886
3.44418	0.287
3.48408	0.2571
3.52397	0.2601
3.56386	0.2159
3.60376	0.1636
3.64365	0.5453
3.68354	0.6715
3.72344	0.7851
3.76333	0.8148
3.80323	0.8412
3.84312	0.871
3.88301	0.8858
3.92291	0.891
3.9628	0.892
4.0027	0.9
4.04259	0.899
4.08248	0.902
4.12238	0.907
4.16227	0.91
4.20217	0.9071
4.24206	0.91
4.28195	0.91
4.32185	0.91
4.36174	0.909
4.40164	0.902
4.44153	0.902
4.48142	0.899
4.52132	0.899
4.56121	0.8991
4.6011	0.899
4.641	0.899
4.68089	0.899
4.72079	0.899
4.76068	0.887
4.80057	0.886
4.84047	0.887
4.88036	0.892
4.92026	0.891
4.96015	0.891
5.00004	0.891
5.03994	0.889
5.07983	0.889
5.11973	0.889
5.15962	0.889
5.19951	0.889
5.23941	0.889
5.2793	0.8863
5.3192	0.886
5.35909	0.876
5.39898	0.876
5.43888	0.886
5.47877	0.886
5.51866	0.887
5.55856	0.887
5.59845	0.8854
5.63835	0.879
5.67824	0.877
5.71813	0.879
5.75803	0.881
5.79792	0.881
5.83782	0.877
5.87771	0.871
5.9176	0.8672
5.9575	0.8589
5.99739	0.856
6.03729	0.8516
6.07718	0.851
6.11707	0.848
6.15697	0.8483
6.19686	0.849
6.23676	0.8522
6.27665	0.8585
6.31654	0.871
6.35644	0.8729
6.39633	0.8802
6.43623	0.886
6.47612	0.8917
6.51601	0.8935
6.55591	0.8822
6.5958	0.872
6.63569	0.8477
6.67559	0.8107
6.71548	0.778
6.75538	0.7351
6.79527	0.613
6.83516	0.2519
6.87506	0.177
6.91495	0.2248
6.95485	0.387
6.99474	0.5425
7.03463	0.5943
7.07453	0.5202
7.11442	0.3438
7.15432	0.4234
7.19421	0.5638
7.2341	0.6152
7.274	0.4696
7.31389	0.4902
7.35379	0.6491
7.39368	0.688
7.43357	0.6577
7.47347	0.6178
7.51336	0.4588
7.55325	0.2427
7.59315	0.3716
7.63304	0.6001
7.67294	0.638
7.71283	0.5848
7.75272	0.4641
7.79262	0.3466
7.83251	0.2585
7.87241	0.1602
7.9123	0.133
7.95219	0.1814
7.99209	0.3875
8.03198	0.5394
8.07188	0.6273
8.11177	0.6755
8.15166	0.7025
8.19156	0.7274
8.23145	0.737
8.27135	0.7422
8.31124	0.7251
8.35113	0.655
8.39103	0.6927
8.43092	0.7305
8.47082	0.742
8.51071	0.747
8.5506	0.749
8.5905	0.746
8.63039	0.7134
8.67028	0.6717
8.71018	0.6722
8.75007	0.6641
8.78997	0.5892
8.82986	0.4206
8.86975	0.2512
8.90965	0.3997
8.94954	0.5216
8.98944	0.584
9.02933	0.615
9.06922	0.5926
9.10912	0.4329
9.14901	0.3863
9.18891	0.4952
9.2288	0.4857
9.26869	0.417
9.30859	0.4152
9.34848	0.3873
9.38838	0.262
9.42827	0.2094
9.46816	0.2636
9.50806	0.3245
9.54795	0.3371
9.58784	0.2324
9.62774	0.1292
9.66763	0.1125
9.70753	0.1177
9.74742	0.2548
9.78731	0.3975
9.82721	0.533
9.8671	0.6072
9.907	0.6564
9.94689	0.6749
9.98678	0.7061
10.0267	0.7352
10.0666	0.7521
10.1065	0.765
10.1464	0.773
10.1863	0.7779
10.2261	0.783
10.266	0.788
10.3059	0.788
10.3458	0.787
10.3857	0.7773
10.4256	0.772
10.4655	0.7582
10.5054	0.7287
10.5453	0.6705
10.5852	0.579
10.6251	0.4166
10.665	0.2322
10.7049	0.2655
10.7448	0.4095
10.7847	0.5954
10.8246	0.6495
10.8645	0.7067
10.9043	0.7372
10.9442	0.7392
10.9841	0.762
11.024	0.773
11.0639	0.775
11.1038	0.7797
11.1437	0.7875
11.1836	0.792
11.2235	0.793
11.2634	0.795
11.3033	0.7963
11.3432	0.798
11.3831	0.798
11.423	0.799
11.4629	0.7975
11.5028	0.7992
11.5426	0.793
11.5825	0.7807
11.6224	0.7672
11.6623	0.7502
11.7022	0.7231
11.7421	0.6756
11.782	0.6446
11.8219	0.5784
11.8618	0.5
11.9017	0.4483
11.9416	0.2901
11.9815	0.1894
12.0214	0.2546
12.0613	0.3972
12.1012	0.5178
12.1411	0.6017
12.1809	0.6414
12.2208	0.673
12.2607	0.6848
12.3006	0.691
12.3405	0.689
12.3804	0.689
12.4203	0.6914
12.4602	0.693
12.5001	0.6931
12.54	0.694
12.5799	0.693
12.6198	0.693
12.6597	0.693
12.6996	0.693
12.7395	0.693
12.7794	0.693
12.8193	0.693
12.8591	0.693
12.899	0.693
12.9389	0.693
12.9788	0.693
13.0187	0.694
13.0586	0.696
13.0985	0.694
13.1384	0.689
13.1783	0.689
13.2182	0.689
13.2581	0.689
13.298	0.689
13.3379	0.691
13.3778	0.693
13.4177	0.693
13.4576	0.691
13.4974	0.689
13.5373	0.6929
13.5772	0.693
13.6171	0.696
13.657	0.7034
13.6969	0.7247
13.7368	0.7684
13.7767	0.7956
13.8166	0.8092
13.8565	0.818
13.8964	0.825
13.9363	0.828
13.9762	0.828
14.0161	0.8256
14.056	0.8186
14.0959	0.813
14.1358	0.8095
14.1756	0.808
14.2155	0.8
14.2554	0.798
14.2953	0.7948
14.3352	0.788
14.3751	0.788
14.415	0.785
14.4549	0.778
14.4948	0.775
14.5347	0.7754
14.5746	0.775
14.6145	0.775
14.6544	0.773
14.6943	0.77
14.7342	0.767
14.7741	0.765
14.8139	0.764
14.8538	0.762
14.8937	0.7612
14.9336	0.759
14.9735	0.759
15.0134	0.759
15.0533	0.759
15.0932	0.7587
15.1331	0.7518
15.173	0.74
15.2129	0.74
15.2528	0.737
15.2927	0.737
15.3326	0.737
15.3725	0.735
15.4124	0.737
15.4523	0.7355
