Infrared Spectrum: 2,6-Dimethylpyrazine
Formula: C 6 H 8 N 2
CAS: 108-50-9
State: gas
Instrument: HP-GC/MS/IRD
Origin: NIST Mass Spectrometry Data Center
1/CM	ABSORBANCE
550	0.0002873
562	0.0006656
574	0.0007085
586	8.45e-05
598	5.2e-05
610	0.0001365
622	0.0001183
634	0.0001677
646	0.0001768
658	0.0001885
670	0.0001456
682	0.0002743
694	0.000611
706	0.0006565
718	0.0007501
730	0.0008944
742	0.0014534
754	0.0008801
766	0.0004654
778	0.0002548
790	0.0002236
802	0.0002119
814	0.0003731
826	0.0004277
838	0.0011011
850	0.0017732
862	0.0031564
874	0.0017199
886	0.000858
898	0.0005369
910	0.000689
922	0.0013923
934	0.0021047
946	0.0020215
958	0.001391
970	0.0013559
982	0.0012844
994	0.002054
1006	0.0042146
1018	0.0051168
1030	0.0044629
1042	0.0025948
1054	0.0021684
1066	0.0020007
1078	0.0016276
1090	0.0013221
1102	0.0010036
1114	0.0010179
1126	0.0013299
1138	0.0025649
1150	0.0054756
1162	0.0061321
1174	0.0041769
1186	0.0014885
1198	0.0008359
1210	0.0005551
1222	0.0007358
1234	0.003016
1246	0.0073567
1258	0.0075842
1270	0.0035282
1282	0.0020371
1294	0.0013702
1306	0.0009971
1318	0.0009126
1330	0.0007605
1342	0.0009204
1354	0.0015483
1366	0.0028444
1378	0.0045461
1390	0.0056225
1402	0.0094263
1414	0.013
1426	0.0106418
1438	0.0052858
1450	0.0043667
1462	0.0039923
1474	0.0036192
1486	0.003523
1498	0.0042289
1510	0.0058916
1522	0.0088036
1534	0.0106691
1546	0.008151
1558	0.0030758
1570	0.0018811
1582	0.001313
1594	0.0008476
1606	0.0005928
1618	0.000468
1630	0.0003978
1642	0.0003003
1654	0.000273
1666	0.0002392
1678	0.0002392
1690	0.0002808
1702	0.0003432
1714	0.0004225
1726	0.0003835
1738	0.000286
1750	0.0002184
1762	0.0002808
1774	0.0004758
1786	0.0005668
1798	0.0004459
1810	0.0002366
1822	0.0002093
1834	0.0002145
1846	0.0002574
1858	0.0002691
1870	0.0002561
1882	0.0001976
1894	0.0001703
1906	0.0001807
1918	0.0001976
1930	0.0002496
1942	0.000325
1954	0.0003627
1966	0.0002821
1978	0.0001976
1990	0.0001547
2002	0.0001131
2014	9.1e-05
2026	6.89e-05
2038	7.41e-05
2050	5.85e-05
2062	6.11e-05
2074	0.0001313
2086	0.0001404
2098	0.0001391
2110	0.0001157
2122	9.36e-05
2134	6.37e-05
2146	1.56e-05
2158	9.1e-06
2170	1.17e-05
2182	1.69e-05
2194	1.82e-05
2206	7.8e-06
2218	3.12e-05
2230	3.38e-05
2242	4.16e-05
2254	4.68e-05
2266	5.46e-05
2278	4.81e-05
2290	6.63e-05
2302	0.0001196
2314	0.000117
2326	0.0001261
2338	9.36e-05
2350	0.0001157
2362	0.0001066
2374	9.88e-05
2386	0.0001183
2398	0.0001378
2410	0.0002171
2422	0.000182
2434	0.0002158
2446	0.0001924
2458	0.0001482
2470	0.0001404
2482	0.0001625
2494	0.0001456
2506	0.0001612
2518	0.0001664
2530	0.0001326
2542	0.0001079
2554	0.0001066
2566	9.75e-05
2578	0.0001079
2590	0.0001677
2602	0.0001378
2614	0.0001092
2626	0.0001508
2638	0.0001885
2650	0.0001235
2662	0.0001508
2674	0.0001352
2686	0.0001196
2698	0.0001495
2710	0.0001612
2722	0.0002275
2734	0.0003913
2746	0.000351
2758	0.0003055
2770	0.0002561
2782	0.0003081
2794	0.0003731
2806	0.0004745
2818	0.0005447
2830	0.0007267
2842	0.0010855
2854	0.0016185
2866	0.0019929
2878	0.001911
2890	0.0017992
2902	0.0022958
2914	0.0035113
2926	0.0058435
2938	0.0069537
2950	0.0056433
2962	0.0037843
2974	0.0037817
2986	0.0037791
2998	0.0033332
3010	0.0029224
3022	0.004875
3034	0.009529
3046	0.0099164
3058	0.0052286
3070	0.002158
3082	0.0014586
3094	0.0012285
3106	0.0009789
3118	0.0006942
3130	0.0005096
3142	0.0003406
3154	0.0002444
3166	0.0002158
3178	0.0002106
3190	0.0001859
3202	0.0001768
3214	0.0002145
3226	0.0002275
3238	0.0001209
3250	0.0001209
3262	0.0001092
3274	0.0001521
3286	0.0001014
3298	0.0001885
3310	0.0001781
3322	0.0001378
3334	0.0001209
3346	0.0001365
3358	0.0001534
3370	0.0001014
3382	0.0001131
3394	0.0001027
3406	0.0001196
3418	0.0001001
3430	0.0001586
3442	0.0001118
3454	0.0001001
3466	0.0001027
3478	0.000156
3490	8.97e-05
3502	0.0001729
3514	7.02e-05
3526	6.5e-05
3538	3.77e-05
3550	4.03e-05
3562	0.0001118
3574	0.0001534
3586	9.1e-06
3598	7.93e-05
3610	6.11e-05
3622	9.1e-05
3634	8.32e-05
3646	3.25e-05
3658	0.0001092
3670	0.000104
3682	3.77e-05
3694	0.0001053
3706	9.36e-05
3718	6.11e-05
3730	3.9e-05
3742	5.46e-05
3754	0.0001131
3766	0.0001144
3778	0.0001066
3790	0.0001014
3802	0.0001651
3814	0.0001209
3826	0.0001079
3838	0.0001105
