Infrared Spectrum: Hexanedioic acid, diisooctyl ester
Formula: C22 H42 O4
CAS: 108-63-4
State: SOLUTION (10% CCl4 FOR 2.7-7.5, 10% CS2 FOR 7.5-26 MICRON) VS SOLVENT
Class: COBLENTZ
Instrument: DOW KBr FOREPRISM-GRATING
Instrument parameters: BLAZED AT 3.5, 12.0, 20.0 MICRON AND CHANGED AT 5.0, 7.5, 14.9 MICRON
Sampling: TRANSMISSION
Path length: 0.011 CM, 0.011 CM
Resolution: 2
Origin: DOW CHEMICAL COMPANY
1/CM	TRANSMITTANCE
3800	0.8614
3791	0.861
3782	0.8606
3773	0.8604
3764	0.8612
3755	0.8618
3746	0.8625
3737	0.8631
3728	0.8636
3719	0.8634
3710	0.8633
3701	0.8632
3692	0.8628
3683	0.8625
3674	0.8627
3665	0.8635
3656	0.8643
3647	0.8651
3638	0.866
3629	0.8668
3620	0.8675
3611	0.8687
3602	0.8702
3593	0.8717
3584	0.8731
3575	0.874
3566	0.8749
3557	0.8758
3548	0.8767
3539	0.8775
3530	0.8787
3521	0.8798
3512	0.881
3503	0.8823
3494	0.8831
3485	0.8831
3476	0.882
3467	0.871
3458	0.8617
3449	0.8565
3440	0.8586
3431	0.8664
3422	0.8767
3413	0.8834
3404	0.8868
3395	0.8891
3386	0.8899
3377	0.8907
3368	0.8911
3359	0.8912
3350	0.8913
3341	0.8913
3332	0.8913
3323	0.8912
3314	0.8911
3305	0.891
3296	0.8909
3287	0.8908
3278	0.8907
3269	0.8905
3260	0.8904
3251	0.8903
3242	0.8902
3233	0.8892
3224	0.8868
3215	0.8845
3206	0.8807
3197	0.8781
3188	0.8759
3179	0.8743
3170	0.8731
3161	0.8723
3152	0.8727
3143	0.8731
3134	0.8738
3125	0.8743
3116	0.8742
3107	0.8738
3098	0.8718
3089	0.8685
3080	0.8653
3071	0.8599
3062	0.8534
3053	0.8467
3044	0.8391
3035	0.8285
3026	0.8151
3017	0.778
3008	0.6373
2999	0.4819
2990	0.3782
2981	0.2744
2972	0.0613
2963	0.0137
2954	0.0113
2945	0.05
2936	0.0574
2927	0.0556
2918	0.0729
2909	0.1014
2900	0.1631
2891	0.2201
2882	0.2421
2873	0.1205
2864	0.1933
2855	0.3039
2846	0.4437
2837	0.5778
2828	0.6822
2819	0.7287
2810	0.7618
2801	0.7848
2792	0.8008
2783	0.8124
2774	0.8214
2765	0.8278
2756	0.8318
2747	0.8328
2738	0.8316
2729	0.8268
2720	0.825
2711	0.8262
2702	0.8315
2693	0.8353
2684	0.8384
2675	0.8403
2666	0.8421
2657	0.8432
2648	0.8444
2639	0.8454
2630	0.8461
2621	0.8468
2612	0.8471
2603	0.8473
2594	0.8489
2585	0.8507
2576	0.8548
2567	0.8585
2558	0.8617
2549	0.8641
2540	0.8665
2531	0.8675
2522	0.8687
2513	0.8698
2504	0.8708
2495	0.8718
2486	0.8728
2477	0.8736
2468	0.8741
2459	0.8745
2450	0.8751
2441	0.8742
2432	0.8725
2423	0.8712
2414	0.8701
2405	0.8694
2396	0.8688
2387	0.8689
2378	0.869
2369	0.8691
2360	0.8691
2351	0.8691
2342	0.869
2333	0.869
2324	0.8684
2315	0.8674
2306	0.8659
2297	0.8648
2288	0.8639
2279	0.864
2270	0.8646
2261	0.8651
2252	0.8659
2243	0.8668
2234	0.8675
2225	0.8687
2216	0.8699
2207	0.8711
2198	0.8728
2189	0.8753
2180	0.8784
2171	0.8804
2162	0.8783
2153	0.8774
2144	0.8768
2135	0.8761
2126	0.8753
2117	0.8744
2108	0.8735
2099	0.8725
2090	0.8717
2081	0.8709
2072	0.8703
2063	0.8697
2054	0.8691
2045	0.8686
2036	0.8684
2027	0.8683
2018	0.8682
2009	0.869
2000	0.8721
1991	0.8699
1982	0.8673
1973	0.8678
1964	0.8685
1955	0.8693
1946	0.87
1937	0.8702
1928	0.8702
1919	0.8702
1910	0.8706
1901	0.8705
1892	0.8698
1883	0.8691
1874	0.8678
1865	0.8661
1856	0.8644
1847	0.8624
1838	0.8601
1829	0.8562
1820	0.8501
1811	0.8444
1802	0.8314
1793	0.8172
1784	0.7993
1775	0.7731
1766	0.7322
1757	0.6417
1748	0.3093
1739	0.0133
1730	0.0029
1721	0.1061
1712	0.3666
1703	0.6092
1694	0.6489
1685	0.6961
1676	0.7521
1667	0.785
1658	0.8034
1649	0.8146
1640	0.8235
1631	0.8311
1622	0.8371
1613	0.8423
1604	0.8467
1595	0.8507
1586	0.8535
1577	0.8543
1568	0.854
1559	0.8565
1550	0.8586
1541	0.8584
1532	0.8543
1523	0.8488
1514	0.8417
1505	0.8253
1496	0.8018
1487	0.7671
1478	0.4819
1469	0.2218
1460	0.2395
1451	0.3966
1442	0.549
1433	0.566
1424	0.5431
1415	0.5703
1406	0.6736
1397	0.4737
1388	0.3775
1379	0.3514
1370	0.3522
1361	0.3491
1352	0.4
1343	0.4647
1334	0.4967
1325	0.5555
1316	0.5054
1307	0.4669
1298	0.4739
1289	0.424
1280	0.377
1271	0.383
1262	0.3182
1253	0.2562
1244	0.2288
1235	0.2188
1226	0.2284
1217	0.2394
1208	0.2333
1199	0.2183
1190	0.1834
1181	0.1348
1172	0.0996
1163	0.0989
1154	0.1623
1145	0.18
1136	0.1576
1127	0.2772
1118	0.4618
1109	0.6134
1100	0.6676
1091	0.6747
1082	0.4977
1073	0.4168
1064	0.4512
1055	0.4914
1046	0.5522
1037	0.5836
1028	0.6069
1019	0.6212
1010	0.6224
1001	0.6201
992	0.5947
983	0.5812
974	0.591
965	0.6139
956	0.6547
947	0.7007
938	0.7264
929	0.746
920	0.7478
911	0.7443
902	0.7586
893	0.7797
884	0.7951
875	0.8018
866	0.8138
857	0.8331
848	0.8502
839	0.8468
830	0.8361
821	0.8359
812	0.8405
803	0.8436
794	0.8418
785	0.8374
776	0.8218
767	0.8076
758	0.7974
749	0.7868
740	0.7915
731	0.7999
722	0.8161
713	0.8392
704	0.8491
695	0.8584
686	0.8681
677	0.8739
668	0.8695
659	0.8816
650	0.8717
641	0.8645
632	0.8649
623	0.8597
614	0.8451
605	0.8337
596	0.8306
587	0.8306
578	0.8305
569	0.8312
560	0.8393
551	0.846
542	0.8473
533	0.8471
524	0.8377
515	0.8385
506	0.8421
497	0.8434
488	0.843
479	0.8374
470	0.8338
461	0.8309
452	0.8284
443	0.8262
434	0.8242
425	0.8246
416	0.8259
407	0.828
398	0.8302
