Infrared Spectrum: VALERIC ACID, 4-HYDROXY-, Gamma-LACTONE
Formula: C5 H8 O2
CAS: 108-29-2
State: SOLUTION (10% CCl4 FOR 2.0-7.5, 10% CS2 FOR 7.5-16.0 MICRON)
Class: COBLENTZ III
Instrument: BAIRD (PRISM)
Instrument parameters: NaCl PRISM
Sampling: TRANSMISSION
Path length: 0.013 CM, AND 0.013 CM
Resolution: 2
Origin: DOW CHEMICAL COMPANY
1/CM	TRANSMITTANCE
627	0.5826
636	0.5685
645	0.51
654	0.5364
663	0.6912
672	0.7637
681	0.8085
690	0.8321
699	0.8398
708	0.8616
717	0.8846
726	0.8986
735	0.8968
744	0.8957
753	0.8921
762	0.8855
771	0.8681
780	0.8333
789	0.7721
798	0.6221
807	0.6207
816	0.6869
825	0.6123
834	0.8154
843	0.8421
852	0.8315
861	0.7938
870	0.7778
879	0.674
888	0.3616
897	0.2607
906	0.6326
915	0.67
924	0.6458
933	0.4122
942	0.0308
951	0.3623
960	0.4102
969	0.6183
978	0.7192
987	0.6544
996	0.3193
1005	0.4994
1014	0.7182
1023	0.7142
1032	0.6138
1041	0.3842
1050	0.265
1059	0.1078
1068	0.3244
1077	0.5085
1086	0.3278
1095	0.3
1104	0.2349
1113	0.0879
1122	0.1187
1131	0.3502
1140	0.4049
1149	0.29
1158	0.1094
1167	0.0001
1176	0.0126
1185	0.0553
1194	0.0447
1203	0.1238
1212	0.2046
1221	0.1406
1230	0.327
1239	0.5117
1248	0.581
1257	0.6071
1266	0.5577
1275	0.4579
1284	0.5179
1293	0.5676
1302	0.4227
1311	0.5967
1320	0.6231
1329	0.6227
1338	0.3616
1347	0.1746
1356	0.3755
1365	0.4872
1374	0.5605
1383	0.3327
1392	0.2755
1401	0.6079
1410	0.6443
1419	0.5178
1428	0.4158
1437	0.6051
1446	0.5701
1455	0.4741
1464	0.3289
1473	0.6525
1482	0.7738
1491	0.8082
1500	0.83
1509	0.8438
1518	0.854
1527	0.8625
1536	0.8681
1545	0.8695
1554	0.8639
1563	0.8445
1572	0.8404
1581	0.8362
1590	0.8158
1599	0.786
1608	0.7776
1617	0.7782
1626	0.7808
1635	0.7946
1644	0.8044
1653	0.7903
1662	0.7783
1671	0.7661
1680	0.7414
1689	0.7068
1698	0.6625
1707	0.5293
1716	0.3942
1725	0.2762
1734	0.1779
1743	0.1139
1752	0.0649
1761	0.0052
1770	0.0013
1779	0.0058
1788	0.0181
1797	0.0666
1806	0.2188
1815	0.3944
1824	0.532
1833	0.6803
1842	0.7322
1851	0.7587
1860	0.7745
1869	0.7895
1878	0.8054
1887	0.8212
1896	0.8348
1905	0.8439
1914	0.8481
1923	0.8518
1932	0.8552
1941	0.8583
1950	0.8602
1959	0.862
1968	0.8643
1977	0.8667
1986	0.8694
1995	0.8731
2004	0.8787
2013	0.8805
2022	0.8737
2031	0.8671
2040	0.8618
2049	0.8628
2058	0.8647
2067	0.8667
2076	0.8701
2085	0.8735
2094	0.8771
2103	0.8807
2112	0.8837
2121	0.8853
2130	0.8858
2139	0.8861
2148	0.8848
2157	0.8836
2166	0.8823
2175	0.8811
2184	0.8791
2193	0.877
2202	0.8749
2211	0.8715
2220	0.8691
2229	0.8684
2238	0.8674
2247	0.8665
2256	0.8666
2265	0.865
2274	0.8612
2283	0.8605
2292	0.8612
2301	0.862
2310	0.8621
2319	0.8614
2328	0.8605
2337	0.8612
2346	0.863
2355	0.8656
2364	0.8645
2373	0.8642
2382	0.8659
2391	0.8695
2400	0.873
2409	0.8727
2418	0.872
2427	0.8718
2436	0.8724
2445	0.8733
2454	0.8753
2463	0.8757
2472	0.8756
2481	0.8744
2490	0.8733
2499	0.8734
2508	0.8752
2517	0.8768
2526	0.8782
2535	0.878
2544	0.8778
2553	0.8775
2562	0.8768
2571	0.876
2580	0.8753
2589	0.875
2598	0.8743
2607	0.8708
2616	0.8671
2625	0.8639
2634	0.8625
2643	0.8612
2652	0.8616
2661	0.8634
2670	0.8652
2679	0.8654
2688	0.8653
2697	0.8651
2706	0.8631
2715	0.861
2724	0.8605
2733	0.86
2742	0.8596
2751	0.8581
2760	0.8562
2769	0.8543
2778	0.85
2787	0.8456
2796	0.8395
2805	0.833
2814	0.8258
2823	0.8153
2832	0.7971
2841	0.7545
2850	0.7119
2859	0.6697
2868	0.6276
2877	0.5858
2886	0.5443
2895	0.503
2904	0.462
2913	0.4212
2922	0.3808
2931	0.3405
2940	0.3005
2949	0.2904
2958	0.3455
2967	0.4296
2976	0.5134
2985	0.5966
2994	0.6792
3003	0.7578
3012	0.7875
3021	0.7994
3030	0.8034
3039	0.8045
3048	0.8056
3057	0.8065
3066	0.8075
3075	0.8086
3084	0.8097
3093	0.8106
3102	0.8117
3111	0.8125
3120	0.8136
3129	0.8147
3138	0.8156
3147	0.8165
3156	0.8175
3165	0.8185
3174	0.8195
3183	0.8204
3192	0.8214
3201	0.8223
3210	0.8232
3219	0.8242
3228	0.8251
3237	0.826
3246	0.8268
3255	0.8278
3264	0.8287
3273	0.8296
3282	0.8306
3291	0.8314
3300	0.8323
3309	0.8331
3318	0.8341
3327	0.8349
3336	0.8358
3345	0.837
3354	0.8386
3363	0.8403
3372	0.8421
3381	0.844
3390	0.8464
3399	0.8484
3408	0.85
3417	0.8505
3426	0.8495
3435	0.8461
3444	0.8408
3453	0.8358
3462	0.8318
3471	0.8286
3480	0.8268
3489	0.8275
3498	0.8287
3507	0.8325
3516	0.8394
3525	0.8471
3534	0.8581
3543	0.8752
3552	0.8836
3561	0.8865
3570	0.8877
3579	0.8886
3588	0.8896
3597	0.8905
3606	0.8915
3615	0.8924
3624	0.8933
3633	0.8943
3642	0.8951
3651	0.8959
3660	0.8966
3669	0.8974
3678	0.8982
3687	0.8989
3696	0.8988
3705	0.8986
3714	0.8987
3723	0.8992
3732	0.8996
3741	0.9001
3750	0.9017
3759	0.9032
3768	0.9018
3777	0.9002
3786	0.8984
3795	0.8966
3804	0.8949
3813	0.8937
3822	0.8925
3831	0.8915
3840	0.8903
3849	0.8891
3858	0.8881
3867	0.8875
3876	0.8871
3885	0.8867
3894	0.8864
3903	0.8863
3912	0.8863
3921	0.8862
3930	0.8862
3939	0.8861
3948	0.8861
3957	0.8862
3966	0.8863
3975	0.8864
3984	0.8865
3993	0.8864
