Infrared Spectrum: 1-Methoxy-2-propyl acetate
Formula: C 6 H 12 O 3
CAS: 108-65-6
State: gas
Origin: EPA-IR VAPOR PHASE LIBRARY
1/CM	ABSORBANCE
549.8	0.0004076
559.445	0.0004812
569.09	0.0006624
578.734	0.0007662
588.379	0.0006068
598.024	0.001932
607.669	0.003062
617.313	0.002572
626.958	0.002152
636.603	0.001882
646.248	0.001642
655.893	0.0010448
665.537	0.0006522
675.182	0.0005383
684.827	0.00036
694.472	0.0003557
704.116	0.00014251
713.761	0.0002472
723.406	0.0003857
733.051	0.00015401
742.695	0.0003869
752.34	0.0002828
761.985	0.0002873
771.63	0.0005819
781.275	0.0007512
790.919	0.0007876
800.564	0.0009131
810.209	0.001332
819.854	0.002362
829.498	0.002712
839.143	0.002582
848.788	0.002222
858.433	0.001942
868.078	0.002172
877.722	0.002772
887.367	0.003392
897.012	0.003342
906.657	0.003412
916.301	0.003792
925.946	0.004522
935.591	0.005902
945.236	0.007602
954.88	0.009272
964.525	0.009632
974.17	0.008382
983.815	0.007882
993.46	0.008802
1003.1	0.011942
1012.75	0.014942
1022.39	0.014252
1032.04	0.010342
1041.68	0.009872
1051.33	0.013102
1060.97	0.020862
1070.62	0.028062
1080.26	0.029012
1089.91	0.029902
1099.55	0.035222
1109.2	0.041882
1118.84	0.044422
1128.49	0.037472
1138.13	0.024252
1147.78	0.019232
1157.42	0.019362
1167.07	0.017172
1176.71	0.013822
1186.36	0.013962
1196	0.019072
1205.64	0.027202
1215.29	0.042242
1224.93	0.082432
1234.58	0.122632
1244.22	0.106352
1253.87	0.050642
1263.51	0.024802
1273.16	0.015432
1282.8	0.010572
1292.45	0.007652
1302.09	0.005672
1311.74	0.004562
1321.38	0.003922
1331.03	0.003812
1340.67	0.004762
1350.32	0.007702
1359.96	0.014832
1369.61	0.025692
1379.25	0.027352
1388.9	0.017652
1398.54	0.010092
1408.18	0.005742
1417.83	0.004172
1427.47	0.004282
1437.12	0.005272
1446.76	0.007032
1456.41	0.008552
1466.05	0.008082
1475.7	0.005952
1485.34	0.003972
1494.99	0.002962
1504.63	0.002392
1514.28	0.002272
1523.92	0.002232
1533.57	0.002132
1543.21	0.002032
1552.86	0.002042
1562.5	0.001892
1572.15	0.001752
1581.79	0.001702
1591.44	0.001622
1601.08	0.001502
1610.73	0.001442
1620.37	0.001322
1630.01	0.001262
1639.66	0.001272
1649.3	0.001462
1658.95	0.001642
1668.59	0.001802
1678.24	0.002122
1687.88	0.002492
1697.53	0.003292
1707.17	0.004802
1716.82	0.007032
1726.46	0.010682
1736.11	0.020752
1745.75	0.045692
1755.4	0.071992
1765.04	0.064832
1774.69	0.033262
1784.33	0.013162
1793.98	0.006942
1803.62	0.004842
1813.27	0.003522
1822.91	0.002742
1832.55	0.002232
1842.2	0.001832
1851.84	0.001622
1861.49	0.001362
1871.13	0.001152
1880.78	0.0011077
1890.42	0.0010291
1900.07	0.0009564
1909.71	0.0009792
1919.36	0.0008708
1929	0.0007694
1938.65	0.0007371
1948.29	0.000646
1957.94	0.0006364
1967.58	0.0005815
1977.23	0.000612
1986.87	0.0005962
1996.52	0.0007072
2006.16	0.0007818
2015.81	0.0009266
2025.45	0.0008644
2035.1	0.0009861
2044.74	0.0010983
2054.38	0.001272
2064.03	0.001282
2073.67	0.001342
2083.32	0.001172
2092.96	0.001122
2102.61	0.0010435
2112.25	0.0010133
2121.9	0.0008732
2131.54	0.0008243
2141.19	0.0006703
2150.83	0.0005896
2160.48	0.0006302
2170.12	0.000541
2179.77	0.0006355
2189.41	0.0004685
2199.06	0.0005269
2208.7	0.0005535
2218.35	0.0004711
2227.99	0.0005183
2237.64	0.0005627
2247.28	0.0005812
2256.92	0.0005543
2266.57	0.0004731
2276.21	0.0003892
2285.86	0.0005001
2295.5	0.000433
2305.15	0.000523
2314.79	0.0004736
2324.44	0.000635
2334.08	0.000519
2343.73	0.0004616
2353.37	0.0003032
2363.02	0.0003977
2372.66	0.0004675
2382.31	0.0004206
2391.95	0.0005339
2401.6	0.0005123
2411.24	0.0005078
2420.89	0.0004968
2430.53	0.00043
2440.18	0.0004108
2449.82	0.0005621
2459.47	0.0006138
2469.11	0.0005341
2478.75	0.0005794
2488.4	0.0005035
2498.04	0.0004417
2507.69	0.000425
2517.33	0.0004504
2526.98	0.000358
2536.62	0.0003623
2546.27	0.0003455
2555.91	0.0003925
2565.56	0.0004107
2575.2	0.000507
2584.85	0.0006125
2594.49	0.0006509
2604.14	0.000666
2613.78	0.0006009
2623.43	0.0006295
2633.07	0.0005677
2642.72	0.0006424
2652.36	0.0006664
2662.01	0.0006316
2671.65	0.0006086
2681.29	0.000667
2690.94	0.0007893
2700.58	0.0009741
2710.23	0.0009643
2719.87	0.001172
2729.52	0.001432
2739.16	0.001732
2748.81	0.002032
2758.45	0.002162
2768.1	0.002312
2777.74	0.002552
2787.39	0.002762
2797.03	0.003672
2806.68	0.005562
2816.32	0.009252
2825.97	0.011932
2835.61	0.012452
2845.26	0.011882
2854.9	0.011422
2864.55	0.012552
2874.19	0.014802
2883.84	0.017012
2893.48	0.017592
2903.12	0.016682
2912.77	0.015782
2922.41	0.016572
2932.06	0.019592
2941.7	0.020452
2951.35	0.017792
2960.99	0.014062
2970.64	0.013912
2980.28	0.018052
2989.93	0.021622
2999.57	0.017272
3009.22	0.009322
3018.86	0.005042
3028.51	0.003612
3038.15	0.003242
3047.8	0.002762
3057.44	0.002442
3067.09	0.002452
3076.73	0.002222
3086.38	0.001852
3096.02	0.001642
3105.67	0.001432
3115.31	0.0010994
3124.95	0.001152
3134.6	0.001122
3144.24	0.0008491
3153.89	0.0006698
3163.53	0.000646
3173.18	0.0005708
3182.82	0.0005718
3192.47	0.0005116
3202.11	0.0005767
3211.76	0.0003809
3221.4	0.0004987
3231.05	0.0004463
3240.69	0.0003495
3250.34	0.0003903
3259.98	0.0002265
3269.63	0.00014418
3279.27	0.0002451
3288.92	0.0003346
3298.56	0.0005549
3308.21	0.0002576
3317.85	7.7e-05
3327.49	0.0002235
3337.14	0.0002904
3346.78	0.000339
3356.43	0.0002906
3366.07	0.0002164
3375.72	0.0002818
3385.36	0.00015873
3395.01	0.0002743
3404.65	0.0004018
3414.3	0.00017409
3423.94	0.0005259
3433.59	0.00021183
3443.23	0.00020424
3452.88	0.000418
3462.52	0.0003506
3472.17	0.0006746
3481.81	0.0006836
3491.46	0.0009465
3501.1	0.0009743
3510.75	0.0008039
3520.39	0.0006801
3530.04	0.000434
3539.68	0.0001294
3549.32	0.0004053
3558.97	0.0003982
3568.61	0.00017185
3578.26	0.0004519
3587.9	0.00019133
3597.55	0.00017171
3607.19	0.000386
3616.84	0.0003616
3626.48	0.0002866
3636.13	0.00016219
3645.77	0.0003209
3655.42	0.00019747
3665.06	0.00015598
3674.71	0.0002977
3684.35	0.0002636
3694	0.0003922
3703.64	0.00013023
3713.29	0.00012857
3722.93	0.0001789
3732.58	0.00016357
3742.22	0.00010813
3751.86	8.06e-05
3761.51	0.00019674
3771.15	0.0004171
3780.8	0.0003266
3790.44	0.00021042
3800.09	0.0002975
3809.73	0.0003056
3819.38	0.000324
3829.02	9.16e-05
3838.67	0.0003886
3848.31	0.0002758
3857.96	0.0002819
3867.6	0.0004146
3877.25	0.000239
3886.89	0.0002958
3896.54	0.0004322
3906.18	0.0003726
3915.83	0.0002262
3925.47	0.0004266
3935.12	0.0004905
3944.76	0.0004454
3954.41	0.0004993
3964.05	0.0005062
3973.69	0.0006262
3983.34	0.0002942
3992.98	0.0004014
