Infrared Spectrum: Phosphonic acid, benzyl-, diethyl ester
Formula: C11 H17 O3 P
CAS: 1080-32-6
State: SOLUTION (10% CCl4 FOR 3800-1340, 10% CS2 FOR 1340-400 CM^-^1)
Class: COBLENTZ III
Instrument: DOW KBr FOREPRISM-GRATING
Instrument parameters: BLAZED AT 3.5, 12.0, 20.0 MICRON AND CHANGED AT 5.0, 7.5, 14.9 MICRON
Sampling: TRANSMISSION
Path length: 0.011 CM, 0.011 CM
Resolution: 2
Origin: DOW CHEMICAL COMPANY
1/CM	TRANSMITTANCE
3798	0.9132
3789	0.9137
3780	0.9141
3771	0.9125
3762	0.9094
3753	0.9058
3744	0.9047
3735	0.9068
3726	0.9099
3717	0.911
3708	0.9119
3699	0.9023
3690	0.8785
3681	0.8754
3672	0.8898
3663	0.9061
3654	0.9014
3645	0.9087
3636	0.9109
3627	0.9121
3618	0.9133
3609	0.9137
3600	0.9128
3591	0.912
3582	0.9105
3573	0.9091
3564	0.9061
3555	0.9059
3546	0.9036
3537	0.9005
3528	0.8963
3519	0.893
3510	0.8899
3501	0.8863
3492	0.8825
3483	0.8787
3474	0.8749
3465	0.8707
3456	0.8657
3447	0.8614
3438	0.8633
3429	0.8684
3420	0.8745
3411	0.8801
3402	0.8854
3393	0.8905
3384	0.8952
3375	0.8999
3366	0.9043
3357	0.9083
3348	0.9114
3339	0.9131
3330	0.9148
3321	0.9163
3312	0.9195
3303	0.9188
3294	0.9195
3285	0.9199
3276	0.9207
3267	0.9209
3258	0.9194
3249	0.9174
3240	0.9158
3231	0.9142
3222	0.9122
3213	0.9115
3204	0.9104
3195	0.9132
3186	0.9134
3177	0.9132
3168	0.9136
3159	0.9156
3150	0.9155
3141	0.9133
3132	0.9131
3123	0.9073
3114	0.8815
3105	0.8668
3096	0.749
3087	0.7713
3078	0.7989
3069	0.6609
3060	0.7684
3051	0.7862
3042	0.5942
3033	0.6112
3024	0.7244
3015	0.6876
3006	0.5293
2997	0.3118
2988	0.2012
2979	0.4046
2970	0.5215
2961	0.586
2952	0.6149
2943	0.5498
2934	0.4985
2925	0.5556
2916	0.4827
2907	0.4607
2898	0.5902
2889	0.7802
2880	0.7769
2871	0.7456
2862	0.8338
2853	0.8646
2844	0.8783
2835	0.8862
2826	0.8876
2817	0.8943
2808	0.9018
2799	0.9057
2790	0.9062
2781	0.9041
2772	0.904
2763	0.9078
2754	0.9104
2745	0.9083
2736	0.9092
2727	0.9122
2718	0.9158
2709	0.9199
2700	0.9231
2691	0.9254
2682	0.928
2673	0.9285
2664	0.9285
2655	0.9299
2646	0.9297
2637	0.9278
2628	0.9282
2619	0.9269
2610	0.9249
2601	0.9236
2592	0.9245
2583	0.9255
2574	0.9273
2565	0.929
2556	0.9306
2547	0.9318
2538	0.9324
2529	0.9326
2520	0.9313
2511	0.9299
2502	0.9283
2493	0.9268
2484	0.9253
2475	0.9242
2466	0.9221
2457	0.9219
2448	0.9237
2439	0.9242
2430	0.9248
2421	0.9253
2412	0.9255
2403	0.9269
2394	0.9259
2385	0.9224
2376	0.9212
2367	0.9176
2358	0.9189
2349	0.9175
2340	0.9161
2331	0.9157
2322	0.9211
2313	0.9219
2304	0.9235
2295	0.9266
2286	0.9273
2277	0.9265
2268	0.9246
2259	0.9246
2250	0.9229
2241	0.9233
2232	0.9235
2223	0.9247
2214	0.9242
2205	0.9252
2196	0.926
2187	0.9254
2178	0.9275
2169	0.9285
2160	0.9278
2151	0.9286
2142	0.9295
2133	0.9303
2124	0.9308
2115	0.9309
2106	0.931
2097	0.9293
2088	0.9305
2079	0.9302
2070	0.9301
2061	0.9304
2052	0.9316
2043	0.9311
2034	0.9316
2025	0.9325
2016	0.9331
2007	0.9302
1998	0.9166
1989	0.9094
1980	0.9053
1971	0.8937
1962	0.8901
1953	0.8854
1944	0.8639
1935	0.8814
1926	0.8941
1917	0.8987
1908	0.8998
1899	0.8901
1890	0.876
1881	0.8679
1872	0.8585
1863	0.8723
1854	0.8801
1845	0.884
1836	0.8822
1827	0.8736
1818	0.8709
1809	0.8639
1800	0.8528
1791	0.8607
1782	0.8683
1773	0.8672
1764	0.8696
1755	0.8638
1746	0.8565
1737	0.8626
1728	0.8755
1719	0.8753
1710	0.884
1701	0.8706
1692	0.8911
1683	0.8821
1674	0.8873
1665	0.8877
1656	0.8674
1647	0.8801
1638	0.8705
1629	0.8653
1620	0.859
1611	0.7274
1602	0.7729
1593	0.7929
1584	0.8427
1575	0.8463
1566	0.7426
1557	0.7743
1548	0.8557
1539	0.871
1530	0.8707
1521	0.8743
1512	0.8355
1503	0.4111
1494	0.5519
1485	0.6917
1476	0.7174
1467	0.7519
1458	0.3921
1449	0.5254
1440	0.7235
1431	0.8007
1422	0.7965
1413	0.6382
1404	0.6238
1395	0.3896
1386	0.68
1377	0.7455
1368	0.7158
1359	0.847
1350	0.8572
1341	0.8333
1332	0.8282
1323	0.8088
1314	0.7861
1305	0.7253
1296	0.5867
1287	0.4776
1278	0.3478
1269	0.1123
1260	0.0428
1251	0.0195
1242	0.1211
1233	0.2721
1224	0.4426
1215	0.703
1206	0.7558
1197	0.6734
1188	0.5536
1179	0.6779
1170	0.6115
1161	0.418
1152	0.6343
1143	0.6848
1134	0.6797
1125	0.6596
1116	0.6289
1107	0.4557
1098	0.2596
1089	0.3998
1080	0.3838
1071	0.1063
1062	0.0181
1053	0.013
1044	0.0372
1035	0.0152
1026	0.0098
1017	0.0627
1008	0.3861
999	0.5219
990	0.5587
981	0.3833
972	0.1063
963	0.0265
954	0.035
945	0.0758
936	0.2258
927	0.4745
918	0.6637
909	0.6555
900	0.7909
891	0.8185
882	0.8245
873	0.7978
864	0.7689
855	0.4477
846	0.3381
837	0.3554
828	0.2702
819	0.4805
810	0.3733
801	0.3565
792	0.506
783	0.5425
774	0.3782
765	0.5443
756	0.6022
747	0.5547
738	0.7771
729	0.809
720	0.7614
711	0.5579
702	0.2385
693	0.3562
684	0.8409
675	0.9131
666	0.9269
657	0.9286
648	0.9062
639	0.9437
630	0.9549
621	0.9274
612	0.951
603	0.9478
594	0.7717
585	0.4445
576	0.8798
567	0.9347
558	0.9262
549	0.8488
540	0.5056
531	0.1234
522	0.4504
513	0.7283
504	0.7641
495	0.6659
486	0.6762
477	0.7848
468	0.8178
459	0.7942
450	0.811
