Infrared Spectrum: 3,4-DIACETYL-5-THIONE-1,3,4-THIADIAZOLIDONE-2-AZINE
Formula: C12 H12 N6 O4 S4
CAS: 108040-17-1
State: SOLID (KBr PELLET)
Class: COBLENTZ
Instrument: Not specified, most likely a prism, grating, or hybrid spectrometer.
Sampling: TRANSMISSION
Resolution: 4
Origin: NORBERT PETRI
MICROMETERS	TRANSMITTANCE
2.006	0.742
2.04216	0.754
2.07832	0.759
2.11448	0.766
2.15064	0.77
2.1868	0.776
2.22296	0.783
2.25912	0.788
2.29528	0.793
2.33144	0.797
2.3676	0.799
2.40376	0.807
2.43992	0.814
2.47608	0.815
2.51224	0.819
2.5484	0.821
2.58456	0.822
2.62072	0.83
2.65688	0.833
2.69304	0.838
2.7292	0.837
2.76536	0.811
2.80152	0.724
2.83768	0.667
2.87384	0.611
2.91	0.583
2.94616	0.575
2.98232	0.604
3.01848	0.667
3.05464	0.702
3.0908	0.725
3.12696	0.741
3.16312	0.758
3.19928	0.776
3.23544	0.781
3.27161	0.799
3.30777	0.81
3.34393	0.807
3.38009	0.805
3.41625	0.802
3.45241	0.77
3.48857	0.819
3.52473	0.834
3.56089	0.853
3.59705	0.87
3.63321	0.872
3.66937	0.879
3.70553	0.881
3.74169	0.884
3.77785	0.889
3.81401	0.894
3.85017	0.896
3.88633	0.899
3.92249	0.901
3.95865	0.902
3.99481	0.907
4.03097	0.908
4.06713	0.908
4.10329	0.911
4.13945	0.911
4.17561	0.913
4.21177	0.915
4.24793	0.922
4.28409	0.922
4.32025	0.922
4.35641	0.921
4.39257	0.923
4.42873	0.932
4.46489	0.934
4.50105	0.938
4.53721	0.939
4.57337	0.942
4.60953	0.941
4.64569	0.941
4.68185	0.944
4.71801	0.945
4.75417	0.945
4.79033	0.945
4.82649	0.947
4.86265	0.95
4.89881	0.947
4.93497	0.95
4.97113	0.951
5.00729	0.952
5.04345	0.952
5.07961	0.957
5.11577	0.953
5.15193	0.955
5.18809	0.956
5.22425	0.957
5.26041	0.956
5.29657	0.956
5.33273	0.957
5.36889	0.955
5.40505	0.95
5.44121	0.936
5.47737	0.901
5.51353	0.893
5.54969	0.873
5.58585	0.837
5.62201	0.736
5.65817	0.396
5.69433	0.331
5.73049	0.456
5.76666	0.442
5.80282	0.229
5.83898	0.222
5.87514	0.554
5.9113	0.723
5.94746	0.758
5.98362	0.788
6.01978	0.814
6.05594	0.819
6.0921	0.805
6.12826	0.794
6.16442	0.799
6.20058	0.815
6.23674	0.824
6.2729	0.832
6.30906	0.824
6.34522	0.668
6.38138	0.467
6.41754	0.54
6.4537	0.82
6.48986	0.832
6.52602	0.87
6.56218	0.889
6.59834	0.894
6.6345	0.901
6.67066	0.902
6.70682	0.905
6.74298	0.9
6.77914	0.894
6.8153	0.871
6.85146	0.854
6.88762	0.845
6.92378	0.813
6.95994	0.752
6.9961	0.641
7.03226	0.588
7.06842	0.651
7.10458	0.751
7.14074	0.766
7.1769	0.765
7.21306	0.719
7.24922	0.54
7.28538	0.383
7.32154	0.39
7.3577	0.371
7.39386	0.719
7.43002	0.802
7.46618	0.811
7.50234	0.752
7.5385	0.701
7.57466	0.685
7.61082	0.612
7.64698	0.464
7.68314	0.275
7.7193	0.134
7.75546	0.089
7.79162	0.133
7.82778	0.276
7.86394	0.39
7.9001	0.421
7.93626	0.376
7.97242	0.25
8.00858	0.121
8.04474	0.105
8.0809	0.242
8.11706	0.35
8.15322	0.271
8.18938	0.166
8.22554	0.128
8.2617	0.139
8.29787	0.211
8.33403	0.32
8.37019	0.427
8.40635	0.514
8.44251	0.582
8.47867	0.623
8.51483	0.639
8.55099	0.603
8.58715	0.489
8.62331	0.533
8.65947	0.564
8.69563	0.498
8.73179	0.475
8.76795	0.576
8.80411	0.648
8.84027	0.673
8.87643	0.663
8.91259	0.667
8.94875	0.707
8.98491	0.735
9.02107	0.751
9.05723	0.764
9.09339	0.765
9.12955	0.764
9.16571	0.762
9.20187	0.718
9.23803	0.62
9.27419	0.469
9.31035	0.432
9.34651	0.541
9.38267	0.652
9.41883	0.717
9.45499	0.758
9.49115	0.777
9.52731	0.785
9.56347	0.779
9.59963	0.694
9.63579	0.621
9.67195	0.621
9.70811	0.618
9.74427	0.701
9.78043	0.75
9.81659	0.762
9.85275	0.783
9.88891	0.802
9.92507	0.815
9.96123	0.83
9.99739	0.831
10.0336	0.833
10.0697	0.841
10.1059	0.837
10.142	0.825
10.1782	0.815
10.2144	0.766
10.2505	0.688
10.2867	0.484
10.3228	0.407
10.359	0.584
10.3952	0.723
10.4313	0.798
10.4675	0.834
10.5036	0.861
10.5398	0.879
10.576	0.884
10.6121	0.891
10.6483	0.899
10.6844	0.902
10.7206	0.902
10.7568	0.894
10.7929	0.882
10.8291	0.889
10.8652	0.905
10.9014	0.908
10.9376	0.915
10.9737	0.917
11.0099	0.919
11.046	0.921
11.0822	0.918
11.1184	0.922
11.1545	0.923
11.1907	0.921
11.2268	0.922
11.263	0.925
11.2992	0.93
11.3353	0.93
11.3715	0.932
11.4076	0.939
11.4438	0.94
11.48	0.939
11.5161	0.941
11.5523	0.952
11.5884	0.952
11.6246	0.952
11.6608	0.952
11.6969	0.952
11.7331	0.953
11.7692	0.952
11.8054	0.952
11.8416	0.953
11.8777	0.949
11.9139	0.939
11.95	0.907
11.9862	0.878
12.0224	0.879
12.0585	0.905
12.0947	0.921
12.1308	0.928
12.167	0.932
12.2032	0.936
12.2393	0.935
12.2755	0.928
12.3116	0.9
12.3478	0.887
12.384	0.882
12.4201	0.893
12.4563	0.908
12.4924	0.922
12.5286	0.928
12.5648	0.932
12.6009	0.939
12.6371	0.938
12.6732	0.936
12.7094	0.936
12.7456	0.939
12.7817	0.936
12.8179	0.935
12.854	0.938
12.8902	0.938
12.9264	0.932
12.9625	0.925
12.9987	0.921
13.0348	0.918
13.071	0.919
13.1072	0.916
13.1433	0.908
13.1795	0.899
13.2156	0.876
13.2518	0.841
13.288	0.794
13.3241	0.777
13.3603	0.813
13.3964	0.853
13.4326	0.875
13.4688	0.889
13.5049	0.9
13.5411	0.906
13.5772	0.91
13.6134	0.91
13.6496	0.907
13.6857	0.906
13.7219	0.901
13.758	0.896
13.7942	0.873
13.8304	0.85
13.8665	0.821
13.9027	0.774
13.9388	0.711
13.975	0.56
14.0112	0.41
14.0473	0.309
14.0835	0.27
14.1196	0.282
14.1558	0.421
14.192	0.549
14.2281	0.651
14.2643	0.741
14.3004	0.786
14.3366	0.815
14.3728	0.842
14.4089	0.856
14.4451	0.867
14.4812	0.867
14.5174	0.873
14.5536	0.878
14.5897	0.881
14.6259	0.881
14.6621	0.882
14.6982	0.882
14.7344	0.887
14.7705	0.884
14.8067	0.883
14.8429	0.881
14.879	0.871
14.9152	0.851
14.9513	0.831
14.9875	0.828
15.0237	0.828
15.0598	0.841
15.096	0.839
15.1321	0.836
15.1683	0.834
15.2045	0.844
15.2406	0.858
15.2768	0.867
15.3129	0.872
15.3491	0.877
