Infrared Spectrum: CYCLOTRISILAZANE, NONAMETHYL-
Formula: C9 H27 N3 Si3
CAS: 1080-38-2
State: LIQUID (NEAT)
Class: COBLENTZ III
Instrument: PERKIN-ELMER 21 (GRATING)
Instrument parameters: NaCl PRISM, FILTER CHANGE AT 1025 CM^-^1
Sampling: TRANSMISSION
Path length: CAPILLARY
Resolution: 2
Origin: SOUTHERN RESEARCH INSTITUTE (W.C. COBURN, JR.)
1/CM	TRANSMITTANCE
605.161	0.488
614.085	0.492
623.01	0.497
631.934	0.501
640.858	0.5186
649.783	0.5346
658.707	0.5315
667.631	0.521
676.555	0.52
685.48	0.536
694.404	0.5673
703.328	0.5709
712.253	0.564
721.177	0.5686
730.101	0.606
739.026	0.604
747.95	0.598
756.874	0.601
765.798	0.5571
774.723	0.4202
783.647	0.334
792.571	0.3295
801.496	0.3576
810.42	0.4173
819.344	0.4909
828.269	0.4825
837.193	0.3271
846.117	0.308
855.041	0.3206
863.966	0.4355
872.89	0.489
881.814	0.452
890.739	0.3081
899.663	0.2025
908.587	0.2371
917.512	0.325
926.436	0.4306
935.36	0.5538
944.285	0.675
953.209	0.7355
962.133	0.7649
971.057	0.772
979.982	0.7715
988.906	0.7666
997.83	0.7501
1006.75	0.7311
1015.68	0.6941
1024.6	0.6384
1033.53	0.5342
1042.45	0.4912
1051.38	0.4557
1060.3	0.3845
1069.22	0.3291
1078.15	0.3526
1087.07	0.3852
1096	0.3222
1104.92	0.2825
1113.85	0.376
1122.77	0.5082
1131.69	0.6357
1140.62	0.7137
1149.54	0.7289
1158.47	0.729
1167.39	0.7148
1176.32	0.6742
1185.24	0.6033
1194.16	0.6148
1203.09	0.6867
1212.01	0.7552
1220.94	0.774
1229.86	0.7553
1238.79	0.7227
1247.71	0.5784
1256.64	0.2358
1265.56	0.4546
1274.48	0.6809
1283.41	0.7499
1292.33	0.7707
1301.26	0.777
1310.18	0.78
1319.11	0.781
1328.03	0.7808
1336.95	0.7646
1345.88	0.7438
1354.8	0.7082
1363.73	0.6321
1372.65	0.5836
1381.58	0.591
1390.5	0.6378
1399.42	0.6716
1408.35	0.687
1417.27	0.7021
1426.2	0.7243
1435.12	0.7272
1444.05	0.7361
1452.97	0.7409
1461.89	0.743
1470.82	0.743
1479.74	0.7502
1488.67	0.7644
1497.59	0.779
1506.52	0.7876
1515.44	0.7985
1524.36	0.8065
1533.29	0.8097
1542.21	0.8116
1551.14	0.818
1560.06	0.8151
1568.99	0.8211
1577.91	0.819
1586.83	0.827
1595.76	0.827
1604.68	0.826
1613.61	0.831
1622.53	0.831
1631.46	0.829
1640.38	0.838
1649.3	0.8362
1658.23	0.8468
1667.15	0.838
1676.08	0.836
1685	0.8369
1693.93	0.8362
1702.85	0.843
1711.77	0.838
1720.7	0.847
1729.62	0.843
1738.55	0.847
1747.47	0.847
1756.4	0.8446
1765.32	0.843
1774.24	0.846
1783.17	0.845
1792.09	0.845
1801.02	0.845
1809.94	0.846
1818.87	0.846
1827.79	0.847
1836.71	0.846
1845.64	0.846
1854.56	0.846
1863.49	0.846
1872.41	0.845
1881.34	0.845
1890.26	0.8461
1899.18	0.846
1908.11	0.843
1917.03	0.841
1925.96	0.841
1934.88	0.841
1943.81	0.841
1952.73	0.84
1961.66	0.84
1970.58	0.841
1979.5	0.842
1988.43	0.8431
1997.35	0.845
2006.28	0.845
2015.2	0.845
2024.13	0.845
2033.05	0.845
2041.97	0.845
2050.9	0.845
2059.82	0.843
2068.75	0.843
2077.67	0.842
2086.6	0.841
2095.52	0.841
2104.44	0.84
2113.37	0.841
2122.29	0.841
2131.22	0.842
2140.14	0.8419
2149.07	0.842
2157.99	0.842
2166.91	0.841
2175.84	0.842
2184.76	0.841
2193.69	0.838
2202.61	0.837
2211.54	0.8379
2220.46	0.841
2229.38	0.8448
2238.31	0.845
2247.23	0.842
2256.16	0.8459
2265.08	0.846
2274.01	0.845
2282.93	0.841
2291.85	0.8429
2300.78	0.8411
2309.7	0.8448
2318.63	0.8479
2327.55	0.854
2336.48	0.8559
2345.4	0.859
2354.32	0.859
2363.25	0.864
2372.17	0.8561
2381.1	0.8451
2390.02	0.8401
2398.95	0.84
2407.87	0.8409
2416.79	0.841
2425.72	0.837
2434.64	0.8321
2443.57	0.829
2452.49	0.831
2461.42	0.831
2470.34	0.8311
2479.26	0.831
2488.19	0.832
2497.11	0.8271
2506.04	0.827
2514.96	0.827
2523.89	0.827
2532.81	0.827
2541.73	0.827
2550.66	0.8261
2559.58	0.8231
2568.51	0.823
2577.43	0.823
2586.36	0.824
2595.28	0.8231
2604.2	0.822
2613.13	0.821
2622.05	0.817
2630.98	0.8141
2639.9	0.812
2648.83	0.809
2657.75	0.809
2666.67	0.808
2675.6	0.809
2684.52	0.808
2693.45	0.8042
2702.37	0.7962
2711.3	0.796
2720.22	0.793
2729.15	0.7881
2738.07	0.7801
2746.99	0.7701
2755.92	0.7522
2764.84	0.7175
2773.77	0.6666
2782.69	0.582
2791.62	0.5441
2800.54	0.5633
2809.46	0.6413
2818.39	0.657
2827.31	0.6442
2836.24	0.6063
2845.16	0.5746
2854.09	0.5117
2863.01	0.4642
2871.93	0.4491
2880.86	0.4459
2889.78	0.4599
2898.71	0.4699
2907.63	0.472
2916.56	0.4691
2925.48	0.4532
2934.4	0.4401
2943.33	0.435
2952.25	0.4595
2961.18	0.5326
2970.1	0.6199
2979.03	0.6805
2987.95	0.7216
2996.87	0.7457
3005.8	0.7598
3014.72	0.7688
3023.65	0.776
3032.57	0.782
3041.5	0.7878
3050.42	0.7909
3059.34	0.7939
3068.27	0.795
3077.19	0.798
3086.12	0.7989
3095.04	0.799
3103.97	0.8
3112.89	0.802
3121.81	0.802
3130.74	0.8
3139.66	0.8
3148.59	0.8
3157.51	0.802
3166.44	0.803
3175.36	0.802
3184.28	0.799
3193.21	0.799
3202.13	0.799
3211.06	0.798
3219.98	0.799
3228.91	0.799
3237.83	0.798
3246.75	0.798
3255.68	0.796
3264.6	0.7941
3273.53	0.7931
3282.45	0.791
3291.38	0.7891
3300.3	0.7852
3309.22	0.7849
3318.15	0.782
3327.07	0.78
3336	0.775
3344.92	0.7701
3353.85	0.7621
3362.77	0.758
3371.69	0.7521
3380.62	0.7482
3389.54	0.743
3398.47	0.738
3407.39	0.734
3416.32	0.73
3425.24	0.7299
3434.17	0.7419
3443.09	0.7688
3452.01	0.7858
3460.94	0.7949
3469.86	0.8
3478.79	0.803
3487.71	0.803
3496.64	0.803
3505.56	0.803
3514.48	0.8031
3523.41	0.8049
3532.33	0.805
3541.26	0.805
3550.18	0.805
3559.11	0.807
3568.03	0.805
3576.95	0.804
3585.88	0.804
3594.8	0.804
3603.73	0.804
3612.65	0.807
3621.58	0.808
3630.5	0.8052
3639.42	0.805
3648.35	0.805
3657.27	0.805
3666.2	0.805
3675.12	0.805
3684.05	0.805
3692.97	0.807
3701.89	0.807
3710.82	0.805
3719.74	0.805
3728.67	0.804
3737.59	0.804
3746.52	0.8049
3755.44	0.805
3764.36	0.812
3773.29	0.813
3782.21	0.813
3791.14	0.8092
3800.06	0.808
3808.99	0.808
3817.91	0.807
3826.83	0.808
3835.76	0.808
3844.68	0.81
3853.61	0.81
3862.53	0.81
3871.46	0.81
3880.38	0.81
3889.3	0.81
3898.23	0.8118
3907.15	0.812
3916.08	0.814
3925	0.813
3933.93	0.812
3942.85	0.81
3951.77	0.81
3960.7	0.81
3969.62	0.808
3978.55	0.808
3987.47	0.805
3996.4	0.807
4005.32	0.807
