Infrared Spectrum: HYPOXANTHINE, 1-ALLYL-9-BENZYL-
Formula: C15 H14 N4 O
CAS: 108160-10-7
State: SOLID (1 mg / 650 mg KBr DISC)
Class: COBLENTZ III
Instrument: PERKIN-ELMER 521 (GRATING)
Instrument parameters: FILTER CHANGE AT 3130, 2475, 2000, 620 CM^-^1, GRATING FOR 2000, 620 CM^-^1
Sampling: TRANSMISSION
Resolution: 4
Origin: SOUTHERN RESEARCH INSTITUTE
1/CM	TRANSMITTANCE
233.813	0.231
243.048	0.256
252.284	0.321
261.519	0.374
270.754	0.425
279.99	0.479
289.225	0.557
298.46	0.588
307.696	0.61
316.931	0.641
326.166	0.674
335.402	0.698
344.637	0.706
353.872	0.737
363.108	0.761
372.343	0.768
381.578	0.796
390.814	0.81
400.049	0.82
409.284	0.826
418.52	0.798
427.755	0.832
436.991	0.843
446.226	0.822
455.461	0.848
464.697	0.861
473.932	0.867
483.167	0.871
492.403	0.874
501.638	0.874
510.873	0.872
520.109	0.868
529.344	0.81
538.579	0.811
547.815	0.824
557.05	0.858
566.285	0.879
575.521	0.884
584.756	0.868
593.991	0.844
603.227	0.865
612.462	0.877
621.697	0.88
630.933	0.871
640.168	0.731
649.403	0.811
658.639	0.781
667.874	0.814
677.109	0.873
686.345	0.864
695.58	0.778
704.815	0.868
714.051	0.744
723.286	0.469
732.521	0.83
741.757	0.905
750.992	0.911
760.227	0.834
769.463	0.916
778.698	0.903
787.933	0.745
797.169	0.912
806.404	0.916
815.639	0.916
824.875	0.914
834.11	0.909
843.346	0.88
852.581	0.887
861.816	0.892
871.052	0.916
880.287	0.911
889.522	0.9
898.758	0.879
907.993	0.856
917.228	0.814
926.464	0.845
935.699	0.862
944.934	0.859
954.17	0.82
963.405	0.824
972.64	0.809
981.876	0.807
991.111	0.867
1000.35	0.892
1009.58	0.895
1018.82	0.894
1028.05	0.852
1037.29	0.874
1046.52	0.835
1055.76	0.866
1064.99	0.848
1074.23	0.816
1083.46	0.875
1092.7	0.873
1101.94	0.858
1111.17	0.857
1120.41	0.865
1129.64	0.816
1138.88	0.696
1148.11	0.818
1157.35	0.865
1166.58	0.839
1175.82	0.65
1185.05	0.742
1194.29	0.773
1203.52	0.819
1212.76	0.707
1221.99	0.655
1231.23	0.765
1240.47	0.892
1249.7	0.891
1258.94	0.887
1268.17	0.848
1277.41	0.787
1286.64	0.845
1295.88	0.861
1305.11	0.865
1314.35	0.875
1323.58	0.852
1332.82	0.75
1342.05	0.561
1351.29	0.585
1360.52	0.665
1369.76	0.828
1379	0.843
1388.23	0.836
1397.47	0.869
1406.7	0.819
1415.94	0.849
1425.17	0.737
1434.41	0.692
1443.64	0.832
1452.88	0.715
1462.11	0.871
1471.35	0.885
1480.58	0.88
1489.82	0.75
1499.05	0.749
1508.29	0.658
1517.53	0.774
1526.76	0.807
1536	0.604
1545.23	0.431
1554.47	0.746
1563.7	0.814
1572.94	0.614
1582.17	0.72
1591.41	0.829
1600.64	0.864
1609.88	0.857
1619.11	0.836
1628.35	0.798
1637.58	0.717
1646.82	0.659
1656.06	0.7
1665.29	0.591
1674.53	0.449
1683.76	0.221
1693	0.204
1702.23	0.327
1711.47	0.599
1720.7	0.704
1729.94	0.803
1739.17	0.841
1748.41	0.877
1757.64	0.902
1766.88	0.916
1776.11	0.922
1785.35	0.924
1794.59	0.926
1803.82	0.925
1813.06	0.923
1822.29	0.924
1831.53	0.93
1840.76	0.934
1850	0.935
1859.23	0.934
1868.47	0.932
1877.7	0.931
1886.94	0.932
1896.17	0.932
1905.41	0.932
1914.65	0.928
1923.88	0.921
1933.12	0.909
1942.35	0.912
1951.59	0.916
1960.82	0.925
1970.06	0.928
1979.29	0.929
1988.53	0.934
1997.76	0.936
2007	0.934
2016.23	0.932
2025.47	0.931
2034.7	0.931
2043.94	0.931
2053.18	0.931
2062.41	0.931
2071.65	0.93
2080.88	0.93
2090.12	0.929
2099.35	0.929
2108.59	0.928
2117.82	0.929
2127.06	0.929
2136.29	0.929
2145.53	0.929
2154.76	0.929
2164	0.928
2173.23	0.927
2182.47	0.926
2191.71	0.926
2200.94	0.926
2210.18	0.926
2219.41	0.925
2228.65	0.925
2237.88	0.924
2247.12	0.924
2256.35	0.924
2265.59	0.923
2274.82	0.923
2284.06	0.922
2293.29	0.922
2302.53	0.921
2311.76	0.92
2321	0.919
2330.24	0.919
2339.47	0.919
2348.71	0.918
2357.94	0.918
2367.18	0.917
2376.41	0.916
2385.65	0.916
2394.88	0.916
2404.12	0.916
2413.35	0.916
2422.59	0.916
2431.82	0.915
2441.06	0.914
2450.29	0.912
2459.53	0.909
2468.77	0.907
2478	0.906
2487.24	0.904
2496.47	0.903
2505.71	0.901
2514.94	0.9
2524.18	0.9
2533.41	0.899
2542.65	0.899
2551.88	0.899
2561.12	0.899
2570.35	0.898
2579.59	0.898
2588.82	0.898
2598.06	0.897
2607.3	0.897
2616.53	0.897
2625.77	0.897
2635	0.897
2644.24	0.897
2653.47	0.895
2662.71	0.894
2671.94	0.893
2681.18	0.89
2690.41	0.888
2699.65	0.887
2708.88	0.885
2718.12	0.886
2727.36	0.887
2736.59	0.887
2745.83	0.885
2755.06	0.882
2764.3	0.881
2773.53	0.881
2782.77	0.879
2792	0.877
2801.24	0.877
2810.47	0.876
2819.71	0.875
2828.94	0.873
2838.18	0.858
2847.41	0.854
2856.65	0.857
2865.89	0.858
2875.12	0.857
2884.36	0.854
2893.59	0.847
2902.83	0.837
2912.06	0.818
2921.3	0.803
2930.53	0.813
2939.77	0.833
2949	0.816
2958.24	0.799
2967.47	0.822
2976.71	0.817
2985.94	0.778
2995.18	0.81
3004.42	0.826
3013.65	0.813
3022.89	0.744
3032.12	0.689
3041.36	0.749
3050.59	0.822
3059.83	0.834
3069.06	0.834
3078.3	0.821
3087.53	0.771
3096.77	0.791
3106	0.863
3115.24	0.868
3124.47	0.865
3133.71	0.863
3142.95	0.862
3152.18	0.863
3161.42	0.863
3170.65	0.863
3179.89	0.861
3189.12	0.861
3198.36	0.859
3207.59	0.857
3216.83	0.855
3226.06	0.853
3235.3	0.851
3244.53	0.845
3253.77	0.841
3263	0.839
3272.24	0.839
3281.48	0.837
3290.71	0.836
3299.95	0.833
3309.18	0.83
3318.42	0.828
3327.65	0.82
3336.89	0.813
3346.12	0.807
3355.36	0.8
3364.59	0.793
3373.83	0.788
3383.06	0.783
3392.3	0.779
3401.53	0.776
3410.77	0.773
3420.01	0.771
3429.24	0.772
3438.48	0.773
3447.71	0.774
3456.95	0.774
3466.18	0.775
3475.42	0.777
3484.65	0.778
3493.89	0.78
3503.12	0.784
3512.36	0.788
3521.59	0.794
3530.83	0.798
3540.07	0.803
3549.3	0.808
3558.54	0.813
3567.77	0.817
3577.01	0.823
3586.24	0.827
3595.48	0.832
3604.71	0.837
3613.95	0.842
3623.18	0.847
3632.42	0.85
3641.65	0.854
3650.89	0.856
3660.12	0.855
3669.36	0.854
3678.6	0.855
3687.83	0.857
3697.07	0.859
3706.3	0.861
3715.54	0.861
3724.77	0.86
3734.01	0.859
3743.24	0.858
3752.48	0.858
3761.71	0.858
3770.95	0.859
3780.18	0.86
3789.42	0.861
3798.65	0.861
3807.89	0.861
