Infrared Spectrum: FORMALDEHYDE, 2,4-DINITROPHENYLHYDRAZONE
Formula: C7 H6 N4 O4
CAS: 1081-15-8
State: SOLID (KBr PELLET)
Class: COBLENTZ
Instrument: Not specified, most likely a prism, grating, or hybrid spectrometer.
Sampling: TRANSMISSION
Resolution: 4
Origin: FLORIDA CITRUS EXPERIMENT STATION
MICROMETERS	TRANSMITTANCE
2.033	0.335
2.06645	0.34
2.09989	0.342
2.13334	0.344
2.16678	0.351
2.20023	0.353
2.23368	0.358
2.26712	0.359
2.30057	0.361
2.33401	0.361
2.36746	0.366
2.40091	0.371
2.43435	0.377
2.4678	0.381
2.50124	0.383
2.53469	0.386
2.56814	0.393
2.60158	0.397
2.63503	0.398
2.66847	0.4
2.70192	0.4
2.73537	0.4
2.76881	0.398
2.80226	0.395
2.8357	0.393
2.86915	0.391
2.90259	0.393
2.93604	0.405
2.96949	0.42
3.00293	0.449
3.03638	0.276
3.06982	0.395
3.10327	0.426
3.13672	0.449
3.17016	0.463
3.20361	0.465
3.23705	0.412
3.2705	0.433
3.30395	0.444
3.33739	0.445
3.37084	0.441
3.40428	0.425
3.43773	0.441
3.47118	0.442
3.50462	0.449
3.53807	0.456
3.57151	0.464
3.60496	0.467
3.63841	0.471
3.67185	0.472
3.7053	0.477
3.73874	0.479
3.77219	0.479
3.80564	0.483
3.83908	0.487
3.87253	0.492
3.90597	0.493
3.93942	0.502
3.97287	0.507
4.00631	0.511
4.03976	0.511
4.0732	0.511
4.10665	0.51
4.1401	0.514
4.17354	0.516
4.20699	0.522
4.24043	0.527
4.27388	0.534
4.30733	0.54
4.34077	0.542
4.37422	0.542
4.40766	0.543
4.44111	0.543
4.47456	0.548
4.508	0.553
4.54145	0.554
4.57489	0.557
4.60834	0.563
4.64178	0.57
4.67523	0.573
4.70868	0.578
4.74212	0.583
4.77557	0.589
4.80901	0.591
4.84246	0.594
4.87591	0.595
4.90935	0.594
4.9428	0.601
4.97624	0.61
5.00969	0.614
5.04314	0.609
5.07658	0.589
5.11003	0.601
5.14347	0.612
5.17692	0.626
5.21037	0.637
5.24381	0.644
5.27726	0.649
5.3107	0.66
5.34415	0.661
5.3776	0.659
5.41104	0.652
5.44449	0.677
5.47793	0.684
5.51138	0.684
5.54483	0.691
5.57827	0.707
5.61172	0.718
5.64516	0.726
5.67861	0.731
5.71206	0.734
5.7455	0.753
5.77895	0.763
5.81239	0.77
5.84584	0.797
5.87929	0.808
5.91273	0.806
5.94618	0.802
5.97962	0.795
6.01307	0.782
6.04652	0.742
6.07996	0.601
6.11341	0.502
6.14685	0.371
6.1803	0.136
6.21374	0.111
6.24719	0.191
6.28064	0.193
6.31408	0.194
6.34753	0.303
6.38097	0.426
6.41442	0.561
6.44787	0.6
6.48131	0.514
6.51476	0.453
6.5482	0.303
6.58165	0.153
6.6151	0.175
6.64854	0.222
6.68199	0.297
6.71543	0.366
6.74888	0.43
6.78233	0.496
6.81577	0.554
6.84922	0.561
6.88266	0.5
6.91611	0.46
6.94956	0.382
6.983	0.485
7.01645	0.465
7.04989	0.441
7.08334	0.561
7.11679	0.653
7.15023	0.761
7.18368	0.761
7.21712	0.743
7.25057	0.714
7.28402	0.613
7.31746	0.514
7.35091	0.386
7.38435	0.302
7.4178	0.311
7.45125	0.221
7.48469	0.077
7.51814	0.092
7.55158	0.173
7.58503	0.142
7.61848	0.063
7.65192	0.111
7.68537	0.183
7.71881	0.241
7.75226	0.271
7.78571	0.253
7.81915	0.221
7.8526	0.213
7.88604	0.23
7.91949	0.285
7.95293	0.316
7.98638	0.34
8.01983	0.379
8.05327	0.395
8.08672	0.413
8.12016	0.422
8.15361	0.402
8.18706	0.41
8.2205	0.451
8.25395	0.484
8.28739	0.507
8.32084	0.489
8.35429	0.422
8.38773	0.263
8.42118	0.302
8.45462	0.355
8.48807	0.401
8.52152	0.437
8.55496	0.464
8.58841	0.504
8.62185	0.53
8.6553	0.547
8.68875	0.535
8.72219	0.481
8.75564	0.342
8.78908	0.311
8.82253	0.355
8.85598	0.332
8.88942	0.311
8.92287	0.289
8.95631	0.289
8.98976	0.327
9.02321	0.363
9.05665	0.394
9.0901	0.413
9.12354	0.428
9.15699	0.444
9.19044	0.457
9.22388	0.473
9.25733	0.492
9.29077	0.511
9.32422	0.514
9.35767	0.468
9.39111	0.327
9.42456	0.382
9.458	0.441
9.49145	0.472
9.5249	0.491
9.55834	0.514
9.59179	0.523
9.62523	0.528
9.65868	0.534
9.69212	0.528
9.72557	0.518
9.75902	0.514
9.79246	0.495
9.82591	0.452
9.85935	0.401
9.8928	0.398
9.92625	0.432
9.95969	0.461
9.99314	0.479
10.0266	0.481
10.06	0.477
10.0935	0.463
10.1269	0.402
10.1604	0.311
10.1938	0.351
10.2273	0.441
10.2607	0.483
10.2942	0.495
10.3276	0.53
10.361	0.55
10.3945	0.555
10.4279	0.562
10.4614	0.563
10.4948	0.573
10.5283	0.575
10.5617	0.581
10.5952	0.582
10.6286	0.587
10.6621	0.589
10.6955	0.59
10.7289	0.586
10.7624	0.575
10.7958	0.536
10.8293	0.446
10.8627	0.363
10.8962	0.402
10.9296	0.464
10.9631	0.522
10.9965	0.542
11.03	0.561
11.0634	0.567
11.0969	0.573
11.1303	0.581
11.1637	0.583
11.1972	0.589
11.2306	0.59
11.2641	0.593
11.2975	0.597
11.331	0.601
11.3644	0.602
11.3979	0.605
11.4313	0.609
11.4648	0.612
11.4982	0.614
11.5317	0.616
11.5651	0.617
11.5985	0.621
11.632	0.62
11.6654	0.621
11.6989	0.625
11.7323	0.621
11.7658	0.617
11.7992	0.604
11.8327	0.585
11.8661	0.578
11.8996	0.583
11.933	0.587
11.9665	0.574
11.9999	0.539
12.0333	0.461
12.0668	0.267
12.1002	0.291
12.1337	0.391
12.1671	0.48
12.2006	0.54
12.234	0.561
12.2675	0.581
12.3009	0.59
12.3344	0.601
12.3678	0.608
12.4012	0.613
12.4347	0.617
12.4681	0.62
12.5016	0.622
12.535	0.622
12.5685	0.624
12.6019	0.624
12.6354	0.624
12.6688	0.624
12.7023	0.626
12.7357	0.628
12.7692	0.629
12.8026	0.632
12.836	0.633
12.8695	0.637
12.9029	0.638
12.9364	0.638
12.9698	0.638
13.0033	0.637
13.0367	0.632
13.0702	0.621
13.1036	0.621
13.1371	0.622
13.1705	0.605
13.204	0.589
13.2374	0.591
13.2708	0.601
13.3043	0.595
13.3377	0.581
13.3712	0.551
13.4046	0.493
13.4381	0.406
13.4715	0.347
13.505	0.382
13.5384	0.456
13.5719	0.54
13.6053	0.582
13.6387	0.601
13.6722	0.62
13.7056	0.622
13.7391	0.616
13.7725	0.591
13.806	0.534
13.8394	0.481
13.8729	0.452
13.9063	0.465
13.9398	0.511
13.9732	0.542
14.0067	0.563
14.0401	0.575
14.0735	0.586
14.107	0.593
14.1404	0.598
14.1739	0.601
14.2073	0.602
14.2408	0.606
14.2742	0.606
14.3077	0.606
14.3411	0.606
14.3746	0.606
14.408	0.604
14.4415	0.601
14.4749	0.594
14.5083	0.579
14.5418	0.565
14.5752	0.557
14.6087	0.557
14.6421	0.566
14.6756	0.581
14.709	0.597
14.7425	0.604
14.7759	0.609
14.8094	0.61
14.8428	0.609
14.8762	0.604
14.9097	0.602
14.9431	0.601
14.9766	0.6
15.01	0.6
