Infrared Spectrum: Nonylbenzene
Formula: C 15 H 24
CAS: 1081-77-2
State: gas
Instrument: HP-GC/MS/IRD
Origin: NIST Mass Spectrometry Data Center
1/CM	ABSORBANCE
550	0.0003477
562	0.0003904
574	0.0005307
586	0.0002562
598	0.0001891
610	0.0001586
622	1.83e-05
634	0.0001647
646	0.000244
658	0.0005368
670	0.001403
682	0.00305
694	0.008235
706	0.0065697
718	0.0051606
730	0.0058987
742	0.0064538
754	0.0033489
766	0.0015982
778	0.0009028
790	0.0006527
802	0.0004575
814	0.0003355
826	0.0003111
838	0.0003477
850	0.000305
862	0.0003111
874	0.0004026
886	0.0004514
898	0.0005795
910	0.0005978
922	0.0003599
934	0.0002745
946	0.0002806
958	0.0002745
970	0.0003111
982	0.0003233
994	0.0003111
1006	0.0004148
1018	0.000732
1030	0.0016531
1042	0.0007381
1054	0.0005795
1066	0.0007076
1078	0.00061
1090	0.0003538
1102	0.0003416
1114	0.0004392
1126	0.0002196
1138	0.0001464
1150	0.0001891
1162	0.000183
1174	0.0002684
1186	0.0003233
1198	0.0003782
1210	0.0003111
1222	0.0002562
1234	0.0003233
1246	0.0003477
1258	0.000366
1270	0.0004697
1282	0.0005917
1294	0.0008113
1306	0.0010126
1318	0.0010492
1330	0.0012139
1342	0.0017202
1354	0.0019337
1366	0.0015921
1378	0.0013969
1390	0.001098
1402	0.0008052
1414	0.000854
1426	0.0011956
1438	0.0025193
1450	0.004941
1462	0.0055998
1474	0.0036478
1486	0.0028975
1498	0.0043127
1510	0.0013115
1522	0.000671
1534	0.0005124
1546	0.0004209
1558	0.0005063
1570	0.0005246
1582	0.0009089
1594	0.0016775
1606	0.0020618
1618	0.0006893
1630	0.0003111
1642	0.0002501
1654	0.0002989
1666	0.0001464
1678	0.0001281
1690	0.000122
1702	0.0002196
1714	0.0001891
1726	0.0001769
1738	0.0002684
1750	0.0002074
1762	0.0001525
1774	0.0002501
1786	0.0004392
1798	0.0005185
1810	0.0002501
1822	0.0001464
1834	0.0001342
1846	0.0002074
1858	0.0003111
1870	0.0003416
1882	0.0002379
1894	0.0001098
1906	9.76e-05
1918	0.0001952
1930	0.0003843
1942	0.0004453
1954	0.0003721
1966	7.93e-05
1978	3.66e-05
1990	2.44e-05
2002	3.05e-05
2014	3.66e-05
2026	4.88e-05
2038	6.71e-05
2050	6.71e-05
2062	3.66e-05
2074	4.27e-05
2086	3.05e-05
2098	2.44e-05
2110	1.83e-05
2122	0
2134	0
2146	1.22e-05
2158	4.27e-05
2170	3.05e-05
2182	4.88e-05
2194	5.49e-05
2206	4.27e-05
2218	3.66e-05
2230	2.44e-05
2242	3.66e-05
2254	4.27e-05
2266	4.27e-05
2278	7.93e-05
2290	6.71e-05
2302	7.93e-05
2314	0.0001281
2326	9.76e-05
2338	0.000122
2350	0.000122
2362	8.54e-05
2374	8.54e-05
2386	0.0001098
2398	0.0001098
2410	0.0001037
2422	0.0001098
2434	0.0001098
2446	9.76e-05
2458	0.0001281
2470	0.0001098
2482	0.0001037
2494	0.000122
2506	0.0001342
2518	0.000183
2530	0.0001952
2542	0.0002135
2554	0.0002074
2566	0.0002562
2578	0.0002928
2590	0.0003233
2602	0.0003599
2614	0.0003965
2626	0.0004392
2638	0.0004941
2650	0.000549
2662	0.0005917
2674	0.0006344
2686	0.0006588
2698	0.0006344
2710	0.0005734
2722	0.0006039
2734	0.0006832
2746	0.0007625
2758	0.0008235
2770	0.0009516
2782	0.0011773
2794	0.0015006
2806	0.0018544
2818	0.0024888
2830	0.0036173
2842	0.0062952
2854	0.0152073
2866	0.022753
2878	0.016653
2890	0.0138043
2902	0.0167079
2914	0.0273463
2926	0.0508679
2938	0.0579317
2950	0.0321287
2962	0.0213073
2974	0.0155428
2986	0.0071736
2998	0.0047153
3010	0.0045201
3022	0.0063684
3034	0.0086193
3046	0.0050569
3058	0.0050264
3070	0.0075579
3082	0.0049837
3094	0.0034099
3106	0.0022143
3118	0.001281
3130	0.0007381
3142	0.0005856
3154	0.000488
3166	0.000488
3178	0.0003843
3190	0.0003538
3202	0.0002745
3214	0.0002806
3226	0.0002135
3238	0.0001891
3250	0.0001708
3262	0.0001586
3274	0.0001647
3286	0.0001281
3298	0.0001159
3310	0.0001098
3322	0.0001281
3334	0.0001403
3346	9.15e-05
3358	0.0001464
3370	0.0001281
3382	0.0001159
3394	7.93e-05
3406	7.32e-05
3418	9.76e-05
3430	5.49e-05
3442	6.1e-05
3454	7.93e-05
3466	6.1e-05
3478	3.66e-05
3490	6.71e-05
3502	7.93e-05
3514	3.05e-05
3526	2.44e-05
3538	3.66e-05
3550	4.88e-05
3562	5.49e-05
3574	6.71e-05
3586	0.000122
3598	0.0001159
3610	0.0001403
3622	0.0001403
3634	0.0001708
3646	0.0001952
3658	0.0001586
3670	0.0002196
3682	0.000122
3694	0.0001403
3706	0.0001098
3718	0.0001342
3730	0.0001769
3742	0.000183
3754	0.0002074
3766	0.0001159
3778	0.0001159
3790	0.000122
3802	0.0001586
3814	0.0001586
3826	0.0001891
3838	0.0002379
