Infrared Spectrum: N-(4-Acetylphenyl)maleimide
Formula: C 12 H 9 N O 3
CAS: 1082-85-5
State: gas
Origin: EPA-IR VAPOR PHASE LIBRARY
1/CM	ABSORBANCE
549.8	0.00072
559.445	0
569.09	0.0010995
578.734	0.0010973
588.379	0.002822
598.024	0.004722
607.669	0.002692
617.313	0.0011341
626.958	0.0015552
636.603	0.002042
646.248	0.006062
655.893	0.007112
665.537	0.002352
675.182	0.003102
684.827	0.004862
694.472	0.008432
704.116	0.004742
713.761	0.002232
723.406	0.002462
733.051	0.002172
742.695	0.0010197
752.34	0.0014609
761.985	0.0012263
771.63	0.0013194
781.275	0.000714
790.919	0.0013426
800.564	0.0017981
810.209	0.002232
819.854	0.006262
829.498	0.011882
839.143	0.010242
848.788	0.004462
858.433	0.001992
868.078	0.0016115
877.722	0.001642
887.367	0.0010751
897.012	0.001251
906.657	0.0010425
916.301	0.0009816
925.946	0.001182
935.591	0.002922
945.236	0.005972
954.88	0.005172
964.525	0.002962
974.17	0.002222
983.815	0.0017862
993.46	0.001912
1003.1	0.0017642
1012.75	0.003322
1022.39	0.003952
1032.04	0.001831
1041.68	0.0009817
1051.33	0.002232
1060.97	0.003792
1070.62	0.003032
1080.26	0.003522
1089.91	0.001912
1099.55	0.0018187
1109.2	0.003302
1118.84	0.003812
1128.49	0.008272
1138.13	0.012772
1147.78	0.011002
1157.42	0.006042
1167.07	0.002922
1176.71	0.003412
1186.36	0.001912
1196	0.004252
1205.64	0.006492
1215.29	0.003882
1224.93	0.002222
1234.58	0.005072
1244.22	0.011472
1253.87	0.025432
1263.51	0.019272
1273.16	0.010372
1282.8	0.008152
1292.45	0.005832
1302.09	0.003832
1311.74	0.004112
1321.38	0.004742
1331.03	0.005722
1340.67	0.008142
1350.32	0.014422
1359.96	0.027042
1369.61	0.048622
1379.25	0.049472
1388.9	0.025892
1398.54	0.016282
1408.18	0.010472
1417.83	0.007752
1427.47	0.005732
1437.12	0.004682
1446.76	0.003202
1456.41	0.002542
1466.05	0.002262
1475.7	0.002262
1485.34	0.002852
1494.99	0.003552
1504.63	0.008472
1514.28	0.010592
1523.92	0.003722
1533.57	0.002372
1543.21	0.002172
1552.86	0.002042
1562.5	0.002282
1572.15	0.003212
1581.79	0.004232
1591.44	0.006782
1601.08	0.012672
1610.73	0.010412
1620.37	0.003692
1630.01	0.002802
1639.66	0.002732
1649.3	0.002392
1658.95	0.002722
1668.59	0.003192
1678.24	0.004052
1687.88	0.006792
1697.53	0.017652
1707.17	0.029172
1716.82	0.021372
1726.46	0.036852
1736.11	0.076992
1745.75	0.064902
1755.4	0.020792
1765.04	0.007502
1774.69	0.004862
1784.33	0.004302
1793.98	0.003382
1803.62	0.002092
1813.27	0.001912
1822.91	0.0013939
1832.55	0.0014896
1842.2	0.0013778
1851.84	0.0014183
1861.49	0.0014052
1871.13	0.0017262
1880.78	0.0017969
1890.42	0.001902
1900.07	0.001902
1909.71	0.0017822
1919.36	0.0015334
1929	0.0014471
1938.65	0.0012915
1948.29	0.0011746
1957.94	0.0012616
1967.58	0.0012415
1977.23	0.0011555
1986.87	0.001084
1996.52	0.0010297
2006.16	0.0009122
2015.81	0.0012914
2025.45	0.001238
2035.1	0.0011451
2044.74	0.0011751
2054.38	0.0011794
2064.03	0.0011274
2073.67	0.00085808
2083.32	0.0011069
2092.96	0.0010122
2102.61	0.0010226
2112.25	0.0010655
2121.9	0.0011224
2131.54	0.000964
2141.19	0.0009919
2150.83	0.0009772
2160.48	0.0010505
2170.12	0.00091908
2179.77	0.0009748
2189.41	0.0009668
2199.06	0.0009723
2208.7	0.0009366
2218.35	0.00088924
2227.99	0.00087302
2237.64	0.0009364
2247.28	0.0009343
2256.92	0.00088211
2266.57	0.00089391
2276.21	0.000975
2285.86	0.0010737
2295.5	0.0009956
2305.15	0.0010821
2314.79	0.00125
2324.44	0.0010144
2334.08	0.0011202
2343.73	0.0009935
2353.37	0.0011034
2363.02	0.0011891
2372.66	0.0012073
2382.31	0.0010227
2391.95	0.0010606
2401.6	0.0011109
2411.24	0.0008758
2420.89	0.0008829
2430.53	0.0011377
2440.18	0.00093044
2449.82	0.0010655
2459.47	0.0010294
2469.11	0.0009627
2478.75	0.0010132
2488.4	0.00092218
2498.04	0.0011981
2507.69	0.0010777
2517.33	0.0011982
2526.98	0.0010181
2536.62	0.0013718
2546.27	0.0010849
2555.91	0.0010707
2565.56	0.0010814
2575.2	0.0009699
2584.85	0.0009654
2594.49	0.0012702
2604.14	0.00085915
2613.78	0.0008198
2623.43	0.0007935
2633.07	0.000968
2642.72	0.0011698
2652.36	0.0010189
2662.01	0.00090847
2671.65	0.000627
2681.29	0.0007764
2690.94	0.000562
2700.58	0.0010202
2710.23	0.00084654
2719.87	0.001061
2729.52	0.000612
2739.16	0.0010179
2748.81	0.0007925
2758.45	0.000699
2768.1	0.0009441
2777.74	0.00092872
2787.39	0.00090063
2797.03	0.0009191
2806.68	0.0010782
2816.32	0.0012
2825.97	0.0011878
2835.61	0.0009785
2845.26	0.0009769
2854.9	0.00092118
2864.55	0.0010276
2874.19	0.0009579
2883.84	0.00084367
2893.48	0.0012904
2903.12	0.0012805
2912.77	0.00089932
2922.41	0.0010355
2932.06	0.0013264
2941.7	0.0014398
2951.35	0.0014271
2960.99	0.0011746
2970.64	0.0013292
2980.28	0.001263
2989.93	0.0013552
2999.57	0.0012937
3009.22	0.0015979
3018.86	0.001972
3028.51	0.0016235
3038.15	0.0012565
3047.8	0.0012824
3057.44	0.001932
3067.09	0.001852
3076.73	0.0012759
3086.38	0.0012463
3096.02	0.001355
3105.67	0.0011498
3115.31	0.0011926
3124.95	0.0013176
3134.6	0.0010173
3144.24	0.0011771
3153.89	0.00086748
3163.53	0.0007659
3173.18	0.00085724
3182.82	0.0010831
3192.47	0.0010313
3202.11	0.000595
3211.76	0.0010742
3221.4	0.000644
3231.05	0.0009707
3240.69	0.0007496
3250.34	0.0009573
3259.98	0.0008079
3269.63	0.0011327
3279.27	0.000464
3288.92	0.0008073
3298.56	0.00083553
3308.21	0.000638
3317.85	0.00089516
3327.49	0.000987
3337.14	0.0007799
3346.78	0.0007359
3356.43	0.0009544
3366.07	0.000407
3375.72	0.000466
3385.36	0.0010311
3395.01	0.00133
3404.65	0.001188
3414.3	0.000454
3423.94	0.0009644
3433.59	0.00082716
3443.23	0.00088757
3452.88	0.0009494
3462.52	0.0010693
3472.17	0.0008079
3481.81	0.0011088
3491.46	0.0012557
3501.1	0.0011173
3510.75	0.0018117
3520.39	0.0015858
3530.04	0.0009726
3539.68	0.0012288
3549.32	0.00073
3558.97	0.000686
3568.61	0.000624
3578.26	0.001019
3587.9	0.000704
3597.55	0.00084579
3607.19	0.0007623
3616.84	0.000651
3626.48	0.0011141
3636.13	0.00092017
3645.77	0.0010249
3655.42	0.000593
3665.06	0.000634
3674.71	0.000688
3684.35	0.000595
3694	0.0010912
3703.64	0.0007344
3713.29	0.00082
3722.93	0.000609
3732.58	0.0007525
3742.22	0.0009689
3751.86	0.0010208
3761.51	0.0010085
3771.15	0.000605
3780.8	0.000485
3790.44	0.001034
3800.09	0.000275
3809.73	0.00090101
3819.38	0.000669
3829.02	0.000711
3838.67	0.000456
3848.31	0.0011619
3857.96	0.0009983
3867.6	0.00085486
3877.25	0.0007496
3886.89	0.00056
3896.54	0.0010286
3906.18	0.000981
3915.83	0.0009835
3925.47	0.00086549
3935.12	0.0008196
3944.76	0.0010513
3954.41	0.000602
3964.05	0.00085601
3973.69	0.000706
3983.34	0.0008035
3992.98	0.000824
