Infrared Spectrum: 2-BROMO-1-CHLORO PENTANE
Formula: C5 H10 Br Cl
CAS: 108200-26-6
State: LIQUID
Class: COBLENTZ
Instrument: Not specified, most likely a prism, grating, or hybrid spectrometer.
Sampling: TRANSMISSION
Path length: 0.003 CM
Resolution: 4
Origin: WYANDOTTE CHEMICALS CORP., WYANDOTTE, MICHIGAN, USA
MICROMETERS	TRANSMITTANCE
2.082	0.948
2.12281	0.947
2.16363	0.94
2.20444	0.93
2.24526	0.93
2.28607	0.921
2.32689	0.931
2.3677	0.933
2.40852	0.942
2.44933	0.938
2.49015	0.938
2.53096	0.936
2.57178	0.935
2.61259	0.938
2.65341	0.938
2.69422	0.938
2.73503	0.936
2.77585	0.948
2.81666	0.943
2.85748	0.933
2.89829	0.919
2.93911	0.918
2.97992	0.906
3.02074	0.901
3.06155	0.889
3.10237	0.865
3.14318	0.858
3.184	0.851
3.22481	0.846
3.26563	0.822
3.30644	0.781
3.34725	0.505
3.38807	0.449
3.42888	0.492
3.4697	0.66
3.51051	0.671
3.55133	0.754
3.59214	0.807
3.63296	0.836
3.67377	0.846
3.71459	0.846
3.7554	0.85
3.79622	0.858
3.83703	0.87
3.87785	0.887
3.91866	0.89
3.95947	0.89
4.00029	0.885
4.0411	0.877
4.08192	0.873
4.12273	0.875
4.16355	0.868
4.20436	0.875
4.24518	0.884
4.28599	0.884
4.32681	0.897
4.36762	0.908
4.40844	0.909
4.44925	0.896
4.49007	0.896
4.53088	0.897
4.57169	0.901
4.61251	0.909
4.65332	0.911
4.69414	0.913
4.73495	0.918
4.77577	0.916
4.81658	0.916
4.8574	0.918
4.89821	0.919
4.93903	0.919
4.97984	0.921
5.02066	0.918
5.06147	0.911
5.10229	0.911
5.1431	0.909
5.18391	0.909
5.22473	0.911
5.26554	0.911
5.30636	0.916
5.34717	0.918
5.38799	0.914
5.4288	0.911
5.46962	0.909
5.51043	0.909
5.55125	0.909
5.59206	0.909
5.63288	0.909
5.67369	0.906
5.71451	0.901
5.75532	0.897
5.79613	0.879
5.83695	0.856
5.87776	0.848
5.91858	0.826
5.95939	0.805
6.00021	0.809
6.04102	0.812
6.08184	0.817
6.12265	0.81
6.16347	0.819
6.20428	0.817
6.2451	0.824
6.28591	0.841
6.32673	0.848
6.36754	0.848
6.40836	0.848
6.44917	0.848
6.48998	0.848
6.5308	0.848
6.57161	0.839
6.61243	0.829
6.65324	0.822
6.69406	0.812
6.73487	0.78
6.77569	0.71
6.8165	0.545
6.85732	0.349
6.89813	0.206
6.93895	0.255
6.97976	0.361
7.02058	0.548
7.06139	0.669
7.1022	0.701
7.14302	0.734
7.18383	0.695
7.22465	0.497
7.26546	0.306
7.30628	0.689
7.34709	0.754
7.38791	0.763
7.42872	0.72
7.46954	0.65
7.51035	0.683
7.55117	0.577
7.59198	0.693
7.6328	0.759
7.67361	0.773
7.71442	0.776
7.75524	0.751
7.79605	0.678
7.83687	0.514
7.87768	0.517
7.9185	0.531
7.95931	0.568
8.00013	0.478
8.04094	0.441
8.08176	0.567
8.12257	0.509
8.16339	0.313
8.2042	0.275
8.24502	0.54
8.28583	0.632
8.32664	0.672
8.36746	0.678
8.40827	0.643
8.44909	0.56
8.4899	0.417
8.53072	0.182
8.57153	0.1
8.61235	0.299
8.65316	0.425
8.69398	0.584
8.73479	0.662
8.77561	0.688
8.81642	0.703
8.85724	0.698
8.89805	0.635
8.93886	0.628
8.97968	0.609
9.02049	0.649
9.06131	0.669
9.10212	0.681
9.14294	0.708
9.18375	0.72
9.22457	0.718
9.26538	0.696
9.3062	0.618
9.34701	0.388
9.38783	0.323
9.42864	0.536
9.46946	0.645
9.51027	0.683
9.55108	0.691
9.5919	0.701
9.63271	0.7
9.67353	0.718
9.71434	0.727
9.75516	0.708
9.79597	0.672
9.83679	0.62
9.8776	0.516
9.91842	0.366
9.95923	0.12
10	0.199
10.0409	0.381
10.0817	0.516
10.1225	0.616
10.1633	0.7
10.2041	0.742
10.2449	0.763
10.2857	0.771
10.3266	0.775
10.3674	0.771
10.4082	0.775
10.449	0.778
10.4898	0.79
10.5306	0.798
10.5715	0.802
10.6123	0.812
10.6531	0.807
10.6939	0.798
10.7347	0.798
10.7755	0.807
10.8163	0.781
10.8572	0.776
10.898	0.749
10.9388	0.691
10.9796	0.579
11.0204	0.502
11.0612	0.471
11.102	0.485
11.1429	0.568
11.1837	0.678
11.2245	0.742
11.2653	0.776
11.3061	0.773
11.3469	0.749
11.3877	0.758
11.4286	0.744
11.4694	0.751
11.5102	0.773
11.551	0.768
11.5918	0.737
11.6326	0.746
11.6734	0.766
11.7143	0.798
11.7551	0.81
11.7959	0.817
11.8367	0.817
11.8775	0.816
11.9183	0.821
11.9592	0.831
12	0.839
12.0408	0.846
12.0816	0.848
12.1224	0.846
12.1632	0.848
12.204	0.85
12.2449	0.85
12.2857	0.85
12.3265	0.848
12.3673	0.841
12.4081	0.838
12.4489	0.838
12.4897	0.836
12.5306	0.819
12.5714	0.812
12.6122	0.798
12.653	0.792
12.6938	0.797
12.7346	0.802
12.7754	0.8
12.8163	0.79
12.8571	0.788
12.8979	0.785
12.9387	0.788
12.9795	0.788
13.0203	0.785
13.0611	0.787
13.102	0.776
13.1428	0.766
13.1836	0.746
13.2244	0.708
13.2652	0.643
13.306	0.565
13.3468	0.516
13.3877	0.483
13.4285	0.477
13.4693	0.504
13.5101	0.533
13.5509	0.558
13.5917	0.555
13.6326	0.521
13.6734	0.465
13.7142	0.381
13.755	0.277
13.7958	0.201
13.8366	0.158
13.8774	0.124
13.9183	0.124
13.9591	0.132
13.9999	0.148
14.0407	0.185
14.0815	0.26
14.1223	0.34
14.1631	0.454
14.204	0.548
14.2448	0.618
14.2856	0.671
14.3264	0.701
14.3672	0.72
14.408	0.746
14.4488	0.759
14.4897	0.77
14.5305	0.78
14.5713	0.787
14.6121	0.785
14.6529	0.778
14.6937	0.77
14.7345	0.764
14.7754	0.761
14.8162	0.758
14.857	0.756
14.8978	0.758
14.9386	0.758
14.9794	0.761
15.0203	0.754
15.0611	0.752
15.1019	0.749
15.1427	0.756
15.1835	0.749
15.2243	0.749
15.2651	0.758
15.306	0.752
15.3468	0.756
15.3876	0.756
15.4284	0.754
15.4692	0.754
15.51	0.751
15.5508	0.751
15.5917	0.752
15.6325	0.751
15.6733	0.751
15.7141	0.751
15.7549	0.742
15.7957	0.739
15.8365	0.737
15.8774	0.732
15.9182	0.727
15.959	0.718
