Infrared Spectrum: 1,4-Diphenylbutane
Formula: C 16 H 18
CAS: 1083-56-3
State: gas
Instrument: HP-GC/MS/IRD
Origin: NIST Mass Spectrometry Data Center
1/CM	ABSORBANCE
550	0.000217
562	0.0003486
574	0.0003955
586	0.0002282
598	0.0002226
610	0.0001113
622	8.68e-05
634	0.0001274
646	0.000133
658	0.0002982
670	0.0007154
682	0.0017045
694	0.0044877
706	0.0034545
718	0.0023821
730	0.0030982
742	0.0038325
754	0.0017346
766	0.0007189
778	0.0003605
790	0.0001554
802	0.0001449
814	0.0001148
826	0.000105
838	7.21e-05
850	0.0001246
862	6.09e-05
874	0.0001316
886	0.0001281
898	0.0002128
910	0.0002268
922	9.38e-05
934	5.18e-05
946	6.58e-05
958	2.1e-05
970	3.29e-05
982	0.0001008
994	7.77e-05
1006	0.0001638
1018	0.000294
1030	0.000938
1042	0.0003675
1054	0.0002142
1066	0.0003955
1078	0.000287
1090	0.000203
1102	0.0001337
1114	8.26e-05
1126	7e-07
1138	6.16e-05
1150	1.68e-05
1162	6.58e-05
1174	0.0001421
1186	0.0002191
1198	0.0002247
1210	0.0001687
1222	0.0001484
1234	0.0001743
1246	0.0001085
1258	5.81e-05
1270	7.14e-05
1282	0.000112
1294	0.0001225
1306	0.0001631
1318	0.0002191
1330	0.0003199
1342	0.0004053
1354	0.0004214
1366	0.0002702
1378	0.0001729
1390	0.0001113
1402	0.0001281
1414	0.0001694
1426	0.0002702
1438	0.00063
1450	0.001393
1462	0.0011606
1474	0.0006251
1486	0.0010031
1498	0.0022057
1510	0.0004277
1522	0.0002044
1534	0.0001624
1546	0.0001085
1558	0.0001526
1570	0.0002324
1582	0.0004872
1594	0.0009415
1606	0.0011571
1618	0.0003577
1630	0.0001365
1642	0.0001176
1654	7.28e-05
1666	8.33e-05
1678	7.77e-05
1690	4.2e-05
1702	6.16e-05
1714	7.7e-05
1726	8.96e-05
1738	9.52e-05
1750	7.7e-05
1762	9.73e-05
1774	0.0001218
1786	0.0002289
1798	0.0003052
1810	0.0001645
1822	0.0001071
1834	7.42e-05
1846	9.8e-05
1858	0.0001967
1870	0.0002233
1882	0.0001743
1894	9.38e-05
1906	4.69e-05
1918	0.0001253
1930	0.0002303
1942	0.0002933
1954	0.0002506
1966	8.96e-05
1978	3.36e-05
1990	2.87e-05
2002	2.8e-05
2014	4.97e-05
2026	2.45e-05
2038	3.92e-05
2050	4.55e-05
2062	1.82e-05
2074	4.41e-05
2086	1.75e-05
2098	4.55e-05
2110	2.66e-05
2122	2.1e-05
2134	3.64e-05
2146	1.96e-05
2158	4.06e-05
2170	5.74e-05
2182	4.97e-05
2194	7.7e-05
2206	1.89e-05
2218	5.67e-05
2230	3.08e-05
2242	1.26e-05
2254	4.48e-05
2266	3.92e-05
2278	6.51e-05
2290	6.51e-05
2302	6.72e-05
2314	7.14e-05
2326	7.77e-05
2338	8.68e-05
2350	5.53e-05
2362	8.26e-05
2374	4.48e-05
2386	5.18e-05
2398	7.35e-05
2410	8.12e-05
2422	6.58e-05
2434	2.03e-05
2446	3.43e-05
2458	3.71e-05
2470	3.92e-05
2482	5.39e-05
2494	5.25e-05
2506	5.46e-05
2518	5.81e-05
2530	4.9e-05
2542	7.42e-05
2554	7e-05
2566	6.3e-05
2578	6.23e-05
2590	0.0001001
2602	8.68e-05
2614	9.73e-05
2626	0.0001148
2638	0.0001064
2650	9.45e-05
2662	0.0001344
2674	0.0001498
2686	0.0001008
2698	0.0001022
2710	8.89e-05
2722	3.01e-05
2734	9.8e-05
2746	0.0001365
2758	0.0001134
2770	0.0001204
2782	0.0002114
2794	0.0002331
2806	0.0002408
2818	0.0002835
2830	0.0004284
2842	0.0007105
2854	0.0016275
2866	0.0026747
2878	0.0018543
2890	0.0013531
2902	0.0017038
2914	0.0029183
2926	0.0050449
2938	0.007
2950	0.0046116
2962	0.0015918
2974	0.0007595
2986	0.0005656
2998	0.0007119
3010	0.0013489
3022	0.0026747
3034	0.0043722
3046	0.0023457
3058	0.0024024
3070	0.0040586
3082	0.0026061
3094	0.0017353
3106	0.0010892
3118	0.0005656
3130	0.0002191
3142	0.0001596
3154	0.0001442
3166	9.38e-05
3178	6.3e-05
3190	4.76e-05
3202	0.0001064
3214	9.24e-05
3226	6.37e-05
3238	9.1e-05
3250	9.87e-05
3262	8.54e-05
3274	4.48e-05
3286	7.56e-05
3298	7.42e-05
3310	7.28e-05
3322	0.0001036
3334	0.0001008
3346	0.0001092
3358	7.49e-05
3370	5.6e-05
3382	8.89e-05
3394	0.0001344
3406	9.94e-05
3418	3.92e-05
3430	7.98e-05
3442	0.0001015
3454	7.56e-05
3466	6.51e-05
3478	6.23e-05
3490	9.03e-05
3502	9.8e-05
3514	3.85e-05
3526	8.96e-05
3538	0.0001162
3550	2.31e-05
3562	9.45e-05
3574	0.000105
3586	5.11e-05
3598	0.0001071
3610	2.8e-05
3622	9.66e-05
3634	0.0001757
3646	9.03e-05
3658	7.7e-05
3670	0.0001288
3682	8.54e-05
3694	9.73e-05
3706	6.86e-05
3718	0.000126
3730	7.35e-05
3742	7.7e-05
3754	8.33e-05
3766	8.96e-05
3778	0
3790	0.0001568
3802	0.0001169
3814	0.0001218
3826	5.6e-05
3838	0.0001015
