Infrared Spectrum: 3-PHENYL PROPIOPHENONE
Formula: C15 H14 O
CAS: 1083-30-3
State: SOLUTION (10% IN CCl4 FOR 5000-1350 CM^-^1, 10% IN CS2 FOR 1350-625 CM^-^1)
Class: COBLENTZ
Instrument: Not specified, most likely a prism, grating, or hybrid spectrometer.
Sampling: TRANSMISSION
Path length: 0.01 CM, 0.01 CM
Resolution: 4
Origin: DOW CHEMICAL COMPANY
MICROMETERS	TRANSMITTANCE
2.057	0.833
2.09628	0.833
2.13555	0.829
2.17483	0.842
2.2141	0.844
2.25338	0.844
2.29266	0.847
2.33193	0.85
2.37121	0.854
2.41048	0.85
2.44976	0.841
2.48903	0.867
2.52831	0.868
2.56759	0.868
2.60686	0.87
2.64614	0.87
2.68541	0.867
2.72469	0.867
2.76397	0.855
2.80324	0.846
2.84252	0.844
2.88179	0.836
2.92107	0.823
2.96035	0.805
2.99962	0.834
3.0389	0.839
3.07817	0.842
3.11745	0.844
3.15673	0.836
3.196	0.768
3.23528	0.623
3.27455	0.544
3.31383	0.623
3.3531	0.67
3.39238	0.617
3.43166	0.711
3.47093	0.784
3.51021	0.829
3.54948	0.842
3.58876	0.857
3.62804	0.867
3.66731	0.871
3.70659	0.876
3.74586	0.88
3.78514	0.884
3.82442	0.888
3.86369	0.891
3.90297	0.894
3.94224	0.897
3.98152	0.902
4.02079	0.905
4.06007	0.907
4.09935	0.91
4.13862	0.91
4.1779	0.905
4.21717	0.899
4.25645	0.894
4.29573	0.899
4.335	0.905
4.37428	0.909
4.41355	0.918
4.45283	0.931
4.49211	0.936
4.53138	0.94
4.57066	0.943
4.60993	0.944
4.64921	0.946
4.68849	0.946
4.72776	0.946
4.76704	0.948
4.80631	0.948
4.84559	0.948
4.88486	0.944
4.92414	0.941
4.96342	0.935
5.00269	0.923
5.04197	0.888
5.08124	0.86
5.12052	0.875
5.1598	0.91
5.19907	0.901
5.23835	0.889
5.27762	0.888
5.3169	0.896
5.35618	0.91
5.39545	0.907
5.43473	0.904
5.474	0.86
5.51328	0.87
5.55255	0.889
5.59183	0.899
5.63111	0.878
5.67038	0.876
5.70966	0.86
5.74893	0.858
5.78821	0.815
5.82749	0.687
5.86676	0.473
5.90604	0.085
5.94531	0.26
5.98459	0.658
6.02387	0.727
6.06314	0.797
6.10242	0.799
6.14169	0.743
6.18097	0.619
6.22025	0.356
6.25952	0.457
6.2988	0.405
6.33807	0.508
6.37735	0.502
6.41662	0.444
6.4559	0.45
6.49518	0.536
6.53445	0.576
6.57373	0.625
6.613	0.628
6.65228	0.497
6.69156	0.774
6.73083	0.792
6.77011	0.794
6.80938	0.662
6.84866	0.29
6.88794	0.499
6.92721	0.726
6.96649	0.779
7.00576	0.711
7.04504	0.633
7.08431	0.714
7.12359	0.769
7.16287	0.74
7.20214	0.696
7.24142	0.617
7.28069	0.473
7.31997	0.41
7.35925	0.557
7.39852	0.641
7.4378	0.627
7.47707	0.627
7.51635	0.627
7.55563	0.576
7.5949	0.606
7.63418	0.609
7.67345	0.549
7.71273	0.429
7.75201	0.453
7.79128	0.567
7.83056	0.589
7.86983	0.594
7.90911	0.623
7.94838	0.632
7.98766	0.586
8.02694	0.544
8.06621	0.479
8.10549	0.487
8.14476	0.596
8.18404	0.588
8.22332	0.452
8.26259	0.298
8.30187	0.329
8.34114	0.57
8.38042	0.658
8.4197	0.531
8.45897	0.474
8.49825	0.703
8.53752	0.742
8.5768	0.729
8.61607	0.711
8.65535	0.771
8.69463	0.797
8.7339	0.821
8.77318	0.847
8.81245	0.867
8.85173	0.876
8.89101	0.876
8.93028	0.88
8.96956	0.875
9.00883	0.858
9.04811	0.852
9.08739	0.85
9.12666	0.868
9.16594	0.863
9.20521	0.803
9.24449	0.711
9.28377	0.666
9.32304	0.799
9.36232	0.841
9.40159	0.852
9.44087	0.811
9.48014	0.792
9.51942	0.799
9.5587	0.777
9.59797	0.794
9.63725	0.755
9.67652	0.653
9.7158	0.619
9.75508	0.74
9.79435	0.816
9.83363	0.837
9.8729	0.841
9.91218	0.777
9.95146	0.669
9.99073	0.752
10.03	0.774
10.0693	0.734
10.1086	0.669
10.1478	0.602
10.1871	0.507
10.2264	0.426
10.2657	0.406
10.3049	0.521
10.3442	0.659
10.3835	0.745
10.4228	0.811
10.462	0.833
10.5013	0.837
10.5406	0.829
10.5799	0.834
10.6191	0.831
10.6584	0.818
10.6977	0.811
10.737	0.799
10.7762	0.777
10.8155	0.776
10.8548	0.797
10.8941	0.808
10.9334	0.824
10.9726	0.828
11.0119	0.815
11.0512	0.81
11.0905	0.829
11.1297	0.834
11.169	0.842
11.2083	0.837
11.2476	0.828
11.2868	0.818
11.3261	0.808
11.3654	0.795
11.4047	0.782
11.4439	0.766
11.4832	0.756
11.5225	0.745
11.5618	0.729
11.601	0.713
11.6403	0.701
11.6796	0.695
11.7189	0.698
11.7581	0.703
11.7974	0.713
11.8367	0.727
11.876	0.748
11.9153	0.769
11.9545	0.794
11.9938	0.807
12.0331	0.818
12.0724	0.821
12.1116	0.823
12.1509	0.826
12.1902	0.826
12.2295	0.821
12.2687	0.82
12.308	0.813
12.3473	0.81
12.3866	0.808
12.4258	0.802
12.4651	0.797
12.5044	0.789
12.5437	0.781
12.5829	0.771
12.6222	0.766
12.6615	0.756
12.7008	0.747
12.74	0.721
12.7793	0.695
12.8186	0.683
12.8579	0.688
12.8971	0.698
12.9364	0.695
12.9757	0.687
13.015	0.677
13.0543	0.662
13.0935	0.638
13.1328	0.594
13.1721	0.534
13.2114	0.455
13.2506	0.35
13.2899	0.246
13.3292	0.145
13.3685	0.077
13.4077	0.042
13.447	0.038
13.4863	0.061
13.5256	0.119
13.5648	0.223
13.6041	0.307
13.6434	0.393
13.6827	0.444
13.7219	0.489
13.7612	0.528
13.8005	0.546
13.8398	0.559
13.879	0.567
13.9183	0.567
13.9576	0.564
13.9969	0.559
14.0361	0.549
14.0754	0.529
14.1147	0.484
14.154	0.408
14.1933	0.316
14.2325	0.194
14.2718	0.098
14.3111	0.045
14.3504	0.038
14.3896	0.058
14.4289	0.066
14.4682	0.058
14.5075	0.077
14.5467	0.153
14.586	0.273
14.6253	0.387
14.6646	0.457
14.7038	0.491
14.7431	0.504
14.7824	0.505
14.8217	0.507
14.8609	0.51
14.9002	0.508
14.9395	0.521
14.9788	0.529
15.018	0.526
15.0573	0.504
15.0966	0.481
15.1359	0.457
15.1751	0.435
15.2144	0.431
15.2537	0.435
15.293	0.444
15.3323	0.453
15.3715	0.455
15.4108	0.458
15.4501	0.46
15.4894	0.457
15.5286	0.452
15.5679	0.452
15.6072	0.452
15.6465	0.447
15.6857	0.444
15.725	0.44
15.7643	0.435
15.8036	0.431
15.8428	0.427
15.8821	0.429
