Infrared Spectrum: 4-(p-Nitrobenzyl)-pyridine
Formula: C 12 H 10 N 2 O 2
CAS: 1083-48-3
State: gas
Instrument: HP-GC/MS/IRD
Origin: NIST Mass Spectrometry Data Center
1/CM	ABSORBANCE
550	0.0004743
562	0.0005559
574	0.0024582
586	0.0034629
598	0.0013158
610	0.0004233
622	0.0002754
634	0.0005916
646	0.0008874
658	0.0005304
670	0.0009894
682	0.0024072
694	0.0036771
706	0.0030039
718	0.0026112
730	0.0043962
742	0.0052632
754	0.0027132
766	0.0042024
778	0.0115362
790	0.0060792
802	0.0033507
814	0.0041718
826	0.0042432
838	0.0039168
850	0.0103785
862	0.0132906
874	0.0039984
886	0.0016269
898	0.0008874
910	0.0008466
922	0.0008415
934	0.0006222
946	0.0003621
958	0.0003774
970	0.0002907
982	0.0004896
994	0.0012087
1006	0.0008874
1018	0.0032079
1030	0.0002856
1042	1.02e-05
1054	0.0001632
1066	0.0011118
1078	0.00102
1090	0.0011526
1102	0.002703
1114	0.0028662
1126	0.000867
1138	0.0003519
1150	0.000357
1162	0.0006426
1174	0.001632
1186	0.0025959
1198	0.0018054
1210	0.0018615
1222	0.0021828
1234	0.0016983
1246	0.001071
1258	0.0011373
1270	0.0014433
1282	0.0017748
1294	0.0021471
1306	0.0032232
1318	0.0052581
1330	0.0112047
1342	0.033456
1354	0.0474708
1366	0.0160803
1378	0.0065841
1390	0.0047226
1402	0.0051255
1414	0.0063903
1426	0.004692
1438	0.003723
1450	0.0026469
1462	0.0020349
1474	0.0029988
1486	0.007191
1498	0.0102612
1510	0.0093228
1522	0.0176919
1534	0.0341649
1546	0.036873
1558	0.020451
1570	0.0139995
1582	0.0160344
1594	0.030753
1606	0.0191505
1618	0.0067524
1630	0.0025602
1642	0.001785
1654	0.0014382
1666	0.0010812
1678	0.0008109
1690	0.0007344
1702	0.0006273
1714	0.0004998
1726	0.0005355
1738	0.0004896
1750	0.0004182
1762	0.0003978
1774	0.0004998
1786	0.0007854
1798	0.0006477
1810	0.0002958
1822	0.0002601
1834	0.0003468
1846	0.0002856
1858	0.0001683
1870	0.0001326
1882	0.0001836
1894	0.0003111
1906	0.0006018
1918	0.0011118
1930	0.0011679
1942	0.0006426
1954	0.0003264
1966	0.0002142
1978	0.0001224
1990	0.0001122
2002	8.16e-05
2014	6.12e-05
2026	8.67e-05
2038	6.63e-05
2050	5.1e-05
2062	9.69e-05
2074	8.16e-05
2086	7.14e-05
2098	4.59e-05
2110	2.55e-05
2122	8.16e-05
2134	7.65e-05
2146	7.14e-05
2158	5.61e-05
2170	3.06e-05
2182	5.1e-06
2194	6.12e-05
2206	0.0001071
2218	9.69e-05
2230	3.06e-05
2242	0
2254	2.04e-05
2266	4.59e-05
2278	0.0001071
2290	0.0001173
2302	0.0001377
2314	0.0001224
2326	8.16e-05
2338	8.67e-05
2350	8.67e-05
2362	0.000153
2374	0.0001428
2386	0.0001428
2398	0.0001683
2410	0.0001632
2422	0.000204
2434	0.0002142
2446	0.0002652
2458	0.0003519
2470	0.0002448
2482	0.0001173
2494	8.67e-05
2506	7.14e-05
2518	7.14e-05
2530	5.1e-05
2542	3.57e-05
2554	4.08e-05
2566	4.59e-05
2578	3.06e-05
2590	7.14e-05
2602	0.0001377
2614	0.000102
2626	0.0001173
2638	9.69e-05
2650	9.18e-05
2662	7.14e-05
2674	0.0001275
2686	0.0001887
2698	0.0002652
2710	0.0002907
2722	0.0002397
2734	0.0001989
2746	0.0001734
2758	0.0001428
2770	0.0001683
2782	0.0001275
2794	0.0001785
2806	0.0001683
2818	0.0002703
2830	0.0005049
2842	0.0008364
2854	0.0012546
2866	0.001224
2878	0.0011832
2890	0.0012036
2902	0.0013668
2914	0.0021981
2926	0.003315
2938	0.003264
2950	0.0021879
2962	0.0016371
2974	0.001734
2986	0.0019023
2998	0.0019482
3010	0.0021777
3022	0.0040494
3034	0.0052326
3046	0.0055131
3058	0.0066504
3070	0.0071604
3082	0.0053346
3094	0.0021318
3106	0.0010098
3118	0.0004029
3130	0.0001632
3142	0.0001224
3154	0.0001632
3166	0.0001377
3178	0.0001071
3190	0.0001224
3202	0.0001734
3214	0.0001887
3226	0.0001122
3238	3.57e-05
3250	8.67e-05
3262	9.69e-05
3274	2.55e-05
3286	0.0001275
3298	9.18e-05
3310	5.1e-05
3322	6.63e-05
3334	6.63e-05
3346	6.12e-05
3358	5.1e-05
3370	0.0001071
3382	0.000102
3394	0.0001326
3406	0.0001428
3418	6.12e-05
3430	0.0001122
3442	7.65e-05
3454	9.69e-05
3466	0.0001428
3478	0.0001224
3490	0.0001275
3502	0.0001581
3514	0.0001224
3526	8.16e-05
3538	0.0001479
3550	0.0001224
3562	0.0001581
3574	0.000153
3586	0.0001632
3598	0.0001479
3610	0.0001377
3622	9.69e-05
3634	0.0001479
3646	0.0001785
3658	0.0002142
3670	0.0002193
3682	0.0002244
3694	0.000357
3706	0.0002397
3718	0.0002397
3730	0.0001938
3742	0.000255
3754	0.0002244
3766	0.0001479
3778	0.0002346
3790	0.0002091
3802	0.0001275
3814	0.000204
3826	0.0001734
3838	0.0002397
