Infrared Spectrum: 3-(Trifluoromethoxy)phenylacetonitrile
Formula: C9 H6 F3 N O
CAS: 108307-56-8
State: gas
Origin: EPA-IR VAPOR PHASE LIBRARY
1/CM	ABSORBANCE
549.8	0.0019062
559.445	0
569.09	0.0020735
578.734	0.000612
588.379	0.0017852
598.024	0.001164
607.669	0.00311
617.313	0.00404
626.958	0.00755
636.603	0.0102
646.248	0.00455
655.893	0.0020405
665.537	0.003
675.182	0.00422
684.827	0.00865
694.472	0.01061
704.116	0.01059
713.761	0.00662
723.406	0.00442
733.051	0.0024
742.695	0.00311
752.34	0.00583
761.985	0.0063
771.63	0.0086
781.275	0.00997
790.919	0.01074
800.564	0.00634
810.209	0.00318
819.854	0.00015
829.498	0.002274
839.143	0.00379
848.788	0.00673
858.433	0.00918
868.078	0.008
877.722	0.00507
887.367	0.00403
897.012	0.00379
906.657	0.00328
916.301	0.00371
925.946	0.00393
935.591	0.00419
945.236	0.00314
954.88	0.00317
964.525	0.00302
974.17	0.00413
983.815	0.00457
993.46	0.00353
1003.1	0.00517
1012.75	0.00381
1022.39	0.00291
1032.04	0.0019267
1041.68	0.0019319
1051.33	0.00237
1060.97	0.0033
1070.62	0.00388
1080.26	0.00596
1089.91	0.00476
1099.55	0.00315
1109.2	0.00578
1118.84	0.00363
1128.49	0.00689
1138.13	0.01043
1147.78	0.01845
1157.42	0.02545
1167.07	0.0438
1176.71	0.08115
1186.36	0.12914
1196	0.13478
1205.64	0.13081
1215.29	0.1892
1224.93	0.21878
1234.58	0.13715
1244.22	0.11242
1253.87	0.16961
1263.51	0.28175
1273.16	0.29936
1282.8	0.13759
1292.45	0.05158
1302.09	0.02768
1311.74	0.02046
1321.38	0.01617
1331.03	0.01124
1340.67	0.00792
1350.32	0.00545
1359.96	0.00434
1369.61	0.00422
1379.25	0.0037
1388.9	0.00392
1398.54	0.00473
1408.18	0.00539
1417.83	0.00645
1427.47	0.00856
1437.12	0.01067
1446.76	0.01696
1456.41	0.01493
1466.05	0.00767
1475.7	0.00909
1485.34	0.01815
1494.99	0.02194
1504.63	0.01051
1514.28	0.00536
1523.92	0.00397
1533.57	0.00344
1543.21	0.0041
1552.86	0.00422
1562.5	0.00523
1572.15	0.00647
1581.79	0.01067
1591.44	0.01779
1601.08	0.01895
1610.73	0.02129
1620.37	0.01341
1630.01	0.00548
1639.66	0.00327
1649.3	0.00251
1658.95	0.002122
1668.59	0.0024
1678.24	0.002121
1687.88	0.0020883
1697.53	0.0024
1707.17	0.00247
1716.82	0.0021198
1726.46	0.00232
1736.11	0.0020211
1745.75	0.0020698
1755.4	0.00267
1765.04	0.0026
1774.69	0.00257
1784.33	0.0021827
1793.98	0.0021862
1803.62	0.0020254
1813.27	0.0018115
1822.91	0.0019733
1832.55	0.0021443
1842.2	0.0020074
1851.84	0.0018358
1861.49	0.0019526
1871.13	0.00245
1880.78	0.0020835
1890.42	0.0019068
1900.07	0.0022124
1909.71	0.00234
1919.36	0.00232
1929	0.00258
1938.65	0.00258
1948.29	0.0019215
1957.94	0.0019157
1967.58	0.0018169
1977.23	0.0018881
1986.87	0.0017947
1996.52	0.0018125
2006.16	0.0020714
2015.81	0.0019854
2025.45	0.0017104
2035.1	0.0017919
2044.74	0.0020705
2054.38	0.00234
2064.03	0.0022187
2073.67	0.0021942
2083.32	0.00254
2092.96	0.0021519
2102.61	0.0020732
2112.25	0.0020037
2121.9	0.00249
2131.54	0.00261
2141.19	0.00242
2150.83	0.0021423
2160.48	0.0016338
2170.12	0.0017926
2179.77	0.0020382
2189.41	0.0016889
2199.06	0.0018605
2208.7	0.0016521
2218.35	0.0015228
2227.99	0.0016962
2237.64	0.0020783
2247.28	0.0019504
2256.92	0.0022653
2266.57	0.0019199
2276.21	0.0019414
2285.86	0.0019059
2295.5	0.0019083
2305.15	0.0016704
2314.79	0.0018309
2324.44	0.002164
2334.08	0.0018364
2343.73	0.0020383
2353.37	0.0020702
2363.02	0.0022461
2372.66	0.0021882
2382.31	0.0019064
2391.95	0.0017108
2401.6	0.0022283
2411.24	0.0021834
2420.89	0.0020792
2430.53	0.003
2440.18	0.00302
2449.82	0.0032
2459.47	0.00258
2469.11	0.00273
2478.75	0.00246
2488.4	0.00268
2498.04	0.00253
2507.69	0.00251
2517.33	0.0020676
2526.98	0.0020402
2536.62	0.0022645
2546.27	0.0020274
2555.91	0.0017505
2565.56	0.0014283
2575.2	0.0015355
2584.85	0.0020435
2594.49	0.0016896
2604.14	0.0016536
2613.78	0.0014293
2623.43	0.0018721
2633.07	0.0019238
2642.72	0.00132332
2652.36	0.0014589
2662.01	0.0016403
2671.65	0.0015463
2681.29	0.0012266
2690.94	0.0012069
2700.58	0.0014758
2710.23	0.00128876
2719.87	0.0018838
2729.52	0.0015677
2739.16	0.0016478
2748.81	0.0016057
2758.45	0.0016751
2768.1	0.0018255
2777.74	0.0015882
2787.39	0.00133061
2797.03	0.0015598
2806.68	0.0014479
2816.32	0.0016207
2825.97	0.0016167
2835.61	0.0012397
2845.26	0.0019689
2854.9	0.0017983
2864.55	0.0017396
2874.19	0.0017254
2883.84	0.001086
2893.48	0.0015308
2903.12	0.0016678
2912.77	0.0016305
2922.41	0.0020459
2932.06	0.00265
2941.7	0.00265
2951.35	0.0021659
2960.99	0.0020502
2970.64	0.00162
2980.28	0.001009
2989.93	0.0017811
2999.57	0.0012424
3009.22	0.00130633
3018.86	0.0014861
3028.51	0.00243
3038.15	0.00304
3047.8	0.00362
3057.44	0.00344
3067.09	0.00341
3076.73	0.00427
3086.38	0.00419
3096.02	0.00255
3105.67	0.0017923
3115.31	0.0017974
3124.95	0.0015091
3134.6	0.0012152
3144.24	0.0014551
3153.89	0.0012304
3163.53	0.0015896
3173.18	0.0016652
3182.82	0.00238
3192.47	0.0020809
3202.11	0.0016963
3211.76	0.0019716
3221.4	0.0013347
3231.05	0.0013867
3240.69	0.0014613
3250.34	0.0014362
3259.98	0.0014359
3269.63	0.0014494
3279.27	0.0018402
3288.92	0.001139
3298.56	0.001089
3308.21	0.000989
3317.85	0.0013645
3327.49	0.0015415
3337.14	0.0017338
3346.78	0.0016691
3356.43	0.000991
3366.07	0.00134102
3375.72	0.001171
3385.36	0.0021509
3395.01	0.0019363
3404.65	0.0016214
3414.3	0.0014731
3423.94	0.001597
3433.59	0.00238
3443.23	0.000926
3452.88	0.00132155
3462.52	0.000747
3472.17	0.0014697
3481.81	0.000962
3491.46	0.0012387
3501.1	0.001159
3510.75	0.0012273
3520.39	0.0012605
3530.04	0.0015632
3539.68	0.0019956
3549.32	0.001172
3558.97	0.001065
3568.61	0.000648
3578.26	0.0012007
3587.9	0.001112
3597.55	0.0012381
3607.19	0.0021846
3616.84	0.0018051
3626.48	0.0018009
3636.13	0.000442
3645.77	0.0016705
3655.42	0.00133668
3665.06	0.001143
3674.71	0.0017698
3684.35	0.0015596
3694	0.0016578
3703.64	0.000442
3713.29	0.0014165
3722.93	0.001116
3732.58	0.00137572
3742.22	0.000536
3751.86	0.0013901
3761.51	0.000693
3771.15	0.0017151
3780.8	0.0016465
3790.44	0.0015889
3800.09	0.0016715
3809.73	0.0019195
3819.38	0.001117
3829.02	0.002149
3838.67	0.00087
3848.31	0.0014978
3857.96	0.0018267
3867.6	0.0014743
3877.25	0.00128301
3886.89	0.00133589
3896.54	0.000715
3906.18	0.00130022
3915.83	0.0017846
3925.47	0.001165
3935.12	0.0012596
3944.76	0.0016446
3954.41	0.0018619
3964.05	0.0019881
3973.69	0.0014984
3983.34	0.000582
3992.98	0.0019994
