Infrared Spectrum: 8-QUINOLINOL, 5,7-DINITRO-
Formula: C9 H5 N3 O5
CAS: 1084-32-8
State: SOLID (SPLIT MULL), FLUOROLUBE FOR 3800-1330 CM^-^1, NUJOL FOR 1330-400 CM^-^1
Class: COBLENTZ III
Instrument: BECKMAN IR-9 (GRATING)
Instrument parameters: ORDER CHANGES: 670, 1200, 2000 CM^-^1
Sampling: TRANSMISSION
Resolution: 2
Origin: DOW CHEMICAL COMPANY
1/CM	TRANSMITTANCE
404	0.6598
413	0.6611
422	0.6534
431	0.6445
440	0.6798
449	0.6907
458	0.7815
467	0.8355
476	0.8648
485	0.8855
494	0.8934
503	0.8807
512	0.8216
521	0.5836
530	0.8805
539	0.9246
548	0.9321
557	0.9317
566	0.9297
575	0.9249
584	0.9127
593	0.8967
602	0.904
611	0.871
620	0.5996
629	0.7476
638	0.882
647	0.8596
656	0.7651
665	0.6515
674	0.8349
683	0.7921
692	0.7431
701	0.5429
710	0.448
719	0.7286
728	0.6706
737	0.561
746	0.3337
755	0.6669
764	0.7125
773	0.7854
782	0.8025
791	0.7769
800	0.5201
809	0.7662
818	0.7292
827	0.4755
836	0.2382
845	0.7303
854	0.7448
863	0.7738
872	0.7839
881	0.7687
890	0.7494
899	0.7276
908	0.7064
917	0.6871
926	0.6467
935	0.3994
944	0.5084
953	0.6342
962	0.6878
971	0.6699
980	0.6401
989	0.6092
998	0.5458
1007	0.4453
1016	0.2018
1025	0.5568
1034	0.5825
1043	0.5568
1052	0.5145
1061	0.4697
1070	0.6006
1079	0.5887
1088	0.5974
1097	0.5974
1106	0.5544
1115	0.276
1124	0.5668
1133	0.5599
1142	0.5297
1151	0.4666
1160	0.2435
1169	0.3932
1178	0.2351
1187	0.3653
1196	0.2394
1205	0.0987
1214	0.123
1223	0.2745
1232	0.3098
1241	0.1686
1250	0.0339
1259	0.0104
1268	0.0204
1277	0.0262
1286	0.0498
1295	0.148
1304	0.0703
1313	0.244
1322	0.0688
1331	0.1811
1340	0.2179
1349	0.1357
1358	0.5305
1367	0.5705
1376	0.5906
1385	0.6347
1394	0.6792
1403	0.472
1412	0.5597
1421	0.6571
1430	0.6543
1439	0.6015
1448	0.5497
1457	0.4946
1466	0.39
1475	0.5264
1484	0.4837
1493	0.4748
1502	0.4359
1511	0.3187
1520	0.1629
1529	0.4204
1538	0.3549
1547	0.1541
1556	0.1392
1565	0.5339
1574	0.3488
1583	0.0856
1592	0.1987
1601	0.3009
1610	0.6215
1619	0.7343
1628	0.7234
1637	0.4192
1646	0.277
1655	0.6139
1664	0.7925
1673	0.8404
1682	0.8424
1691	0.8363
1700	0.829
1709	0.8183
1718	0.7505
1727	0.7143
1736	0.7668
1745	0.7748
1754	0.7696
1763	0.7631
1772	0.7558
1781	0.7492
1790	0.7485
1799	0.7475
1808	0.7428
1817	0.7375
1826	0.7318
1835	0.7237
1844	0.7128
1853	0.7042
1862	0.696
1871	0.6895
1880	0.6882
1889	0.6896
1898	0.6954
1907	0.698
1916	0.6936
1925	0.6883
1934	0.6775
1943	0.6648
1952	0.6551
1961	0.6521
1970	0.6539
1979	0.6568
1988	0.6591
1997	0.6611
2006	0.6603
2015	0.6621
2024	0.6587
2033	0.6508
2042	0.6406
2051	0.6331
2060	0.6281
2069	0.6304
2078	0.6306
2087	0.6301
2096	0.6293
2105	0.6262
2114	0.6227
2123	0.619
2132	0.6153
2141	0.611
2150	0.6068
2159	0.6025
2168	0.5982
2177	0.5938
2186	0.5893
2195	0.5847
2204	0.5798
2213	0.5748
2222	0.5697
2231	0.5645
2240	0.5594
2249	0.5542
2258	0.5491
2267	0.5439
2276	0.5387
2285	0.5341
2294	0.5307
2303	0.5275
2312	0.5247
2321	0.5222
2330	0.5212
2339	0.5205
2348	0.5197
2357	0.5188
2366	0.5183
2375	0.5177
2384	0.5171
2393	0.5162
2402	0.5152
2411	0.514
2420	0.5126
2429	0.5108
2438	0.5096
2447	0.5081
2456	0.5062
2465	0.5044
2474	0.5024
2483	0.5004
2492	0.4984
2501	0.4964
2510	0.4943
2519	0.4914
2528	0.4886
2537	0.4859
2546	0.4835
2555	0.4799
2564	0.476
2573	0.4729
2582	0.4698
2591	0.4665
2600	0.4634
2609	0.4602
2618	0.4581
2627	0.456
2636	0.454
2645	0.4506
2654	0.4467
2663	0.4428
2672	0.4389
2681	0.435
2690	0.4314
2699	0.4278
2708	0.4242
2717	0.4203
2726	0.4145
2735	0.4086
2744	0.4028
2753	0.3968
2762	0.3918
2771	0.3844
2780	0.3768
2789	0.369
2798	0.3614
2807	0.3552
2816	0.349
2825	0.3424
2834	0.3355
2843	0.3282
2852	0.3199
2861	0.3121
2870	0.3045
2879	0.2971
2888	0.2906
2897	0.2841
2906	0.2755
2915	0.2665
2924	0.2606
2933	0.254
2942	0.245
2951	0.2502
2960	0.2537
2969	0.2583
2978	0.2652
2987	0.2726
2996	0.276
3005	0.2798
3014	0.2956
3023	0.3
3032	0.3007
3041	0.3149
3050	0.3421
3059	0.3605
3068	0.3648
3077	0.3625
3086	0.3595
3095	0.3527
3104	0.3658
3113	0.394
3122	0.4036
3131	0.416
3140	0.416
3149	0.4156
3158	0.4244
3167	0.437
3176	0.452
3185	0.4564
3194	0.4568
3203	0.4546
3212	0.4523
3221	0.4499
3230	0.4475
3239	0.4451
3248	0.4424
3257	0.4397
3266	0.4371
3275	0.4346
3284	0.4321
3293	0.4295
3302	0.4269
3311	0.4243
3320	0.422
3329	0.4202
3338	0.4184
3347	0.4165
3356	0.4147
3365	0.4126
3374	0.4105
3383	0.4084
3392	0.4064
3401	0.4046
3410	0.4028
3419	0.401
3428	0.3993
3437	0.3974
3446	0.3952
3455	0.3929
3464	0.3914
3473	0.39
3482	0.3887
3491	0.3873
3500	0.3857
3509	0.3841
3518	0.3824
3527	0.3807
3536	0.3791
3545	0.3774
3554	0.3758
3563	0.3742
3572	0.3727
3581	0.371
3590	0.3696
3599	0.368
3608	0.3664
3617	0.3648
3626	0.363
3635	0.3614
3644	0.3598
3653	0.3584
3662	0.3572
3671	0.3559
3680	0.3547
3689	0.3534
3698	0.3524
3707	0.3516
3716	0.3509
3725	0.35
3734	0.3498
3743	0.35
3752	0.3495
3761	0.3489
3770	0.3484
3779	0.3479
3788	0.3468
3797	0.3446
