Infrared Spectrum: (2S)-Bornane-10,2-sultam
Formula: C 10 H 17 N O 2 S
CAS: 108448-77-7
State: gas
Origin: EPA-IR VAPOR PHASE LIBRARY
1/CM	ABSORBANCE
549.8	0.01261
559.445	0.01682
569.09	0.02034
578.734	0.02344
588.379	0.01891
598.024	0.0131
607.669	0.01482
617.313	0.01543
626.958	0.01318
636.603	0.0122
646.248	0.01361
655.893	0.0145
665.537	0.01476
675.182	0.01522
684.827	0.01317
694.472	0.0089
704.116	0.00756
713.761	0.00699
723.406	0.01128
733.051	0.01489
742.695	0.01621
752.34	0.01738
761.985	0.01453
771.63	0.01088
781.275	0.01132
790.919	0.0119
800.564	0.01106
810.209	0.01304
819.854	0.0174
829.498	0.02182
839.143	0.01646
848.788	0.01624
858.433	0.01512
868.078	0.00858
877.722	0.00606
887.367	0.00633
897.012	0.00617
906.657	0.00495
916.301	0.00491
925.946	0.00584
935.591	0.0061
945.236	0.00564
954.88	0.00547
964.525	0.00419
974.17	0.00308
983.815	0.0024
993.46	0.00277
1003.1	0.00383
1012.75	0.0047
1022.39	0.00569
1032.04	0.00468
1041.68	0.00434
1051.33	0.00716
1060.97	0.01552
1070.62	0.02426
1080.26	0.02577
1089.91	0.01343
1099.55	0.00839
1109.2	0.00976
1118.84	0.01643
1128.49	0.02883
1138.13	0.07811
1147.78	0.0788
1157.42	0.04885
1167.07	0.0758
1176.71	0.08246
1186.36	0.03939
1196	0.01787
1205.64	0.0192
1215.29	0.03023
1224.93	0.02809
1234.58	0.01888
1244.22	0.01963
1253.87	0.02412
1263.51	0.02896
1273.16	0.03097
1282.8	0.02917
1292.45	0.02796
1302.09	0.02252
1311.74	0.02093
1321.38	0.02144
1331.03	0.03147
1340.67	0.06126
1350.32	0.11474
1359.96	0.11663
1369.61	0.06887
1379.25	0.03933
1388.9	0.03833
1398.54	0.04596
1408.18	0.03343
1417.83	0.02148
1427.47	0.01499
1437.12	0.00949
1446.76	0.01075
1456.41	0.01615
1466.05	0.01768
1475.7	0.01635
1485.34	0.01465
1494.99	0.00898
1504.63	0.0043
1514.28	0.00305
1523.92	0.00228
1533.57	0.00206
1543.21	0.0016232
1552.86	0.0015625
1562.5	0.001683
1572.15	0.0016633
1581.79	0.0013725
1591.44	0.0012602
1601.08	0.0013713
1610.73	0.0013929
1620.37	0.0015619
1630.01	0.0012333
1639.66	0.0012768
1649.3	0.0012811
1658.95	0.0011669
1668.59	0.001084
1678.24	0.0011901
1687.88	0.0012255
1697.53	0.0010294
1707.17	0.001022
1716.82	0.0008485
1726.46	0.001016
1736.11	0.0010052
1745.75	0.0007908
1755.4	0.0008296
1765.04	0.000696122
1774.69	0.0008089
1784.33	0.0008293
1793.98	0.0008154
1803.62	0.00073734
1813.27	0.0010013
1822.91	0.0006381
1832.55	0.0009043
1842.2	0.0010578
1851.84	0.00070849
1861.49	0.0006088
1871.13	0.0007739
1880.78	0.00075307
1890.42	0.0009349
1900.07	0.000883
1909.71	0.00105
1919.36	0.0010669
1929	0.0010518
1938.65	0.0009009
1948.29	0.0008867
1957.94	0.00073226
1967.58	0.0009776
1977.23	0.0010077
1986.87	0.0010621
1996.52	0.0010053
2006.16	0.0009455
2015.81	0.0009883
2025.45	0.0008178
2035.1	0.0008172
2044.74	0.0009432
2054.38	0.0009127
2064.03	0.0009975
2073.67	0.0011096
2083.32	0.0009586
2092.96	0.0011311
2102.61	0.0011487
2112.25	0.0009668
2121.9	0.0009008
2131.54	0.0011095
2141.19	0.0008408
2150.83	0.0010004
2160.48	0.0007956
2170.12	0.0009359
2179.77	0.0008675
2189.41	0.0010102
2199.06	0.0008965
2208.7	0.0010899
2218.35	0.0010154
2227.99	0.0009775
2237.64	0.0014236
2247.28	0.001171
2256.92	0.0012992
2266.57	0.0012498
2276.21	0.001374
2285.86	0.0014803
2295.5	0.00131
2305.15	0.0016132
2314.79	0.0013708
2324.44	0.0012722
2334.08	0.0012267
2343.73	0.0011534
2353.37	0.001151
2363.02	0.0011078
2372.66	0.0012023
2382.31	0.0010231
2391.95	0.00094
2401.6	0.0013455
2411.24	0.0012083
2420.89	0.0010695
2430.53	0.0010443
2440.18	0.0011086
2449.82	0.0009592
2459.47	0.0011774
2469.11	0.0013309
2478.75	0.0012777
2488.4	0.0016496
2498.04	0.0014424
2507.69	0.00158
2517.33	0.001521
2526.98	0.0015939
2536.62	0.001214
2546.27	0.0012398
2555.91	0.0014572
2565.56	0.0014128
2575.2	0.0014834
2584.85	0.0012082
2594.49	0.0013094
2604.14	0.0011516
2613.78	0.0011932
2623.43	0.0013046
2633.07	0.0014673
2642.72	0.0011598
2652.36	0.001513
2662.01	0.0013249
2671.65	0.0015239
2681.29	0.0012491
2690.94	0.001434
2700.58	0.0015453
2710.23	0.0015561
2719.87	0.00171
2729.52	0.00177
2739.16	0.00201
2748.81	0.00219
2758.45	0.00239
2768.1	0.00225
2777.74	0.00198
2787.39	0.00242
2797.03	0.00212
2806.68	0.00237
2816.32	0.00218
2825.97	0.00284
2835.61	0.00329
2845.26	0.00396
2854.9	0.00522
2864.55	0.00822
2874.19	0.01585
2883.84	0.0328
2893.48	0.04683
2903.12	0.04341
2912.77	0.03492
2922.41	0.03537
2932.06	0.0415
2941.7	0.05613
2951.35	0.08935
2960.99	0.12191
2970.64	0.12546
2980.28	0.05625
2989.93	0.02677
2999.57	0.0297
3009.22	0.02201
3018.86	0.01141
3028.51	0.00732
3038.15	0.00461
3047.8	0.00319
3057.44	0.00287
3067.09	0.00238
3076.73	0.00287
3086.38	0.00185
3096.02	0.00204
3105.67	0.00234
3115.31	0.00182
3124.95	0.00212
3134.6	0.00228
3144.24	0.00227
3153.89	0.00173
3163.53	0.0016615
3173.18	0.0013286
3182.82	0.0013645
3192.47	0.0012201
3202.11	0.0011367
3211.76	0.0009337
3221.4	0.0015328
3231.05	0.0009152
3240.69	0.0011863
3250.34	0.001183
3259.98	0.0009106
3269.63	0.0012551
3279.27	0.0008231
3288.92	0.0012195
3298.56	0.0010567
3308.21	0.0010091
3317.85	0.0011014
3327.49	0.0016167
3337.14	0.0018
3346.78	0.00365
3356.43	0.00827
3366.07	0.01452
3375.72	0.01457
3385.36	0.00818
3395.01	0.00334
3404.65	0.00186
3414.3	0.00208
3423.94	0.0010971
3433.59	0.0016547
3443.23	0.000904
3452.88	0.0012084
3462.52	0.0009497
3472.17	0.00075116
3481.81	0.0009299
3491.46	0.0006406
3501.1	0.0008566
3510.75	0.0009084
3520.39	0.000553
3530.04	0.0008997
3539.68	0.0008301
3549.32	0.000508
3558.97	0.0006744
3568.61	0.0006376
3578.26	0
3587.9	0.00076509
3597.55	0.0009091
3607.19	0.000243
3616.84	0.0006217
3626.48	0.0006612
3636.13	0.000495
3645.77	0.00074961
3655.42	0.0012436
3665.06	0.0008401
3674.71	0.000522
3684.35	0.000436
3694	0.0008422
3703.64	0.0008546
3713.29	0.0006224
3722.93	0.0008859
3732.58	0.0014553
3742.22	0.000536
3751.86	0.000432
3761.51	0.0010729
3771.15	0.0009671
3780.8	0.0010788
3790.44	0.001052
3800.09	0.0009329
3809.73	0.0016493
3819.38	0.000422
3829.02	0.0008604
3838.67	0.0012437
3848.31	0.0011233
3857.96	0.0009289
3867.6	0.0010133
3877.25	0.0009753
3886.89	0.0009072
3896.54	0.0010458
3906.18	0.0007166
3915.83	0.0011763
3925.47	0.0007006
3935.12	0.00071071
3944.76	0.000848
3954.41	0.0012561
3964.05	0.000341
3973.69	0.0011129
3983.34	0.0011668
3992.98	0.0005996
