Infrared Spectrum: Heptyl-p-hydroxy benzoate
Formula: C 14 H 20 O 3
CAS: 1085-12-7
State: gas
Origin: EPA-IR VAPOR PHASE LIBRARY
1/CM	ABSORBANCE
501.5	0.003646
513.074	0.002856
524.648	0.002106
536.222	0.001686
547.796	0.001636
559.37	0.001846
570.944	0.001756
582.518	0.001476
594.092	0.001806
605.666	0.004136
617.24	0.008876
628.814	0.002746
640.388	0.002016
651.962	0.001566
663.536	0.0014318
675.11	0.002076
686.684	0.003706
698.258	0.003296
709.832	0.002066
721.406	0.001816
732.98	0.001836
744.554	0.002656
756.128	0.006146
767.702	0.010726
779.276	0.006566
790.85	0.003446
802.423	0.003446
813.997	0.003676
825.571	0.004356
837.145	0.007966
848.719	0.009716
860.293	0.005396
871.867	0.002966
883.441	0.002146
895.015	0.002046
906.589	0.001956
918.163	0.001906
929.737	0.002306
941.311	0.002956
952.885	0.003566
964.459	0.003776
976.033	0.003466
987.607	0.003116
999.181	0.003486
1010.76	0.006826
1022.33	0.004846
1033.9	0.003746
1045.48	0.004126
1057.05	0.005546
1068.63	0.008376
1080.2	0.018056
1091.77	0.043806
1103.35	0.059676
1114.92	0.042086
1126.49	0.018166
1138.07	0.013126
1149.64	0.021106
1161.22	0.071636
1172.79	0.036996
1184.36	0.035276
1195.94	0.030826
1207.51	0.012276
1219.09	0.011946
1230.66	0.014796
1242.23	0.025036
1253.81	0.071586
1265.38	0.137236
1276.96	0.074796
1288.53	0.024416
1300.1	0.017186
1311.68	0.014816
1323.25	0.013336
1334.83	0.008526
1346.4	0.005536
1357.97	0.005526
1369.55	0.005336
1381.12	0.006926
1392.7	0.006196
1404.27	0.004246
1415.84	0.005166
1427.42	0.008646
1438.99	0.008676
1450.57	0.007146
1462.14	0.008356
1473.71	0.007036
1485.29	0.004756
1496.86	0.006316
1508.44	0.016376
1520.01	0.008326
1531.58	0.003126
1543.16	0.002616
1554.73	0.002946
1566.31	0.004126
1577.88	0.007056
1589.45	0.015706
1601.03	0.025926
1612.6	0.028146
1624.18	0.011476
1635.75	0.004716
1647.32	0.002956
1658.9	0.002566
1670.47	0.002476
1682.05	0.002986
1693.62	0.004226
1705.19	0.006456
1716.77	0.015266
1728.34	0.044956
1739.92	0.064636
1751.49	0.021146
1763.06	0.006316
1774.64	0.003266
1786.21	0.002476
1797.79	0.002046
1809.36	0.001566
1820.93	0.001178
1832.51	0.0010071
1844.08	0.0008832
1855.66	0.0008577
1867.23	0.0009316
1878.8	0.0011992
1890.38	0.0013469
1901.95	0.0013744
1913.53	0.0013583
1925.1	0.0010699
1936.67	0.0008888
1948.25	0.0007308
1959.82	0.0006774
1971.4	0.0006563
1982.97	0.0006418
1994.54	0.0006435
2006.12	0.0006796
2017.69	0.0007255
2029.27	0.0008167
2040.84	0.0007638
2052.41	0.0008726
2063.99	0.0009504
2075.56	0.0008497
2087.14	0.0007639
2098.71	0.000754
2110.28	0.0007388
2121.86	0.0006413
2133.43	0.0005828
2145.01	0.0004544
2156.58	0.0003905
2168.15	0.0003923
2179.73	0.0003919
2191.3	0.0003844
2202.88	0.0004272
2214.45	0.0004126
2226.02	0.0004411
2237.6	0.0004355
2249.17	0.0004355
2260.74	0.00046118
2272.32	0.000468979
2283.89	0.0004059
2295.47	0.0004202
2307.04	0.00049048
2318.61	0.0005543
2330.19	0.00055083
2341.76	0.0005758
2353.34	0.0005802
2364.91	0.0005987
2376.48	0.0006347
2388.06	0.0006096
2399.63	0.0006037
2411.21	0.0006968
2422.78	0.0008552
2434.35	0.000836
2445.93	0.0008356
2457.5	0.0007303
2469.08	0.00053307
2480.65	0.0004554
2492.22	0.00050587
2503.8	0.00053271
2515.37	0.0006994
2526.95	0.0007181
2538.52	0.00051695
2550.09	0.00046214
2561.67	0.00045732
2573.24	0.00049498
2584.82	0.00054163
2596.39	0.0005858
2607.96	0.0005753
2619.54	0.0006022
2631.11	0.000607
2642.69	0.0006446
2654.26	0.0007366
2665.83	0.0007163
2677.41	0.0007016
2688.98	0.0007046
2700.56	0.0006843
2712.13	0.0006399
2723.7	0.000683
2735.28	0.0008003
2746.85	0.0009111
2758.43	0.0010643
2770	0.0011116
2781.57	0.0011562
2793.15	0.0012762
2804.72	0.001546
2816.3	0.001986
2827.87	0.002776
2839.44	0.004296
2851.02	0.008046
2862.59	0.015056
2874.17	0.015596
2885.74	0.013886
2897.31	0.013586
2908.89	0.018256
2920.46	0.027226
2932.04	0.040786
2943.61	0.039126
2955.18	0.030526
2966.76	0.030466
2978.33	0.018336
2989.91	0.009406
3001.48	0.005516
3013.05	0.004296
3024.63	0.003476
3036.2	0.003926
3047.78	0.003436
3059.35	0.002016
3070.92	0.002466
3082.5	0.002666
3094.07	0.001381
3105.65	0.0010813
3117.22	0.0008491
3128.79	0.0007207
3140.37	0.00050074
3151.94	0.0003832
3163.52	0.000373
3175.09	0.000356
3186.66	0.0004109
3198.24	0.000402
3209.81	0.000229
3221.39	0.000169
3232.96	0.000147
3244.53	0.000164
3256.11	0.000134
3267.68	0.000114
3279.26	6.3e-05
3290.83	0.000138
3302.4	0.000186
3313.98	0.000248
3325.55	0.000305
3337.13	0.000341
3348.7	0.000285
3360.27	0.000239
3371.85	0.00021
3383.42	0.000201
3395	0.000217
3406.57	0.000199
3418.14	0.000177
3429.72	0.000288
3441.29	0.0004026
3452.86	0.000603
3464.44	0.00050337
3476.01	0.000291
3487.59	0.000196
3499.16	0.000113
3510.73	5e-05
3522.31	2.7e-05
3533.88	9.5e-05
3545.46	7.5e-05
3557.03	2.4e-05
3568.6	6.5e-05
3580.18	0.000125
3591.75	0.000247
3603.33	0.0004232
3614.9	0.0008288
3626.47	0.002306
3638.05	0.011116
3649.62	0.024526
3661.2	0.004466
3672.77	0.0010605
3684.34	0.00046459
3695.92	0.000317
3707.49	0.00016
3719.07	0.000183
3730.64	8.2e-05
3742.21	6.5e-05
3753.79	0.00011
3765.36	0.000127
3776.94	4.6e-05
3788.51	0.000113
3800.08	7.6e-05
3811.66	9.4e-05
3823.23	4.5e-05
3834.81	0.0001
3846.38	0.000114
3857.95	0.000151
3869.53	0.000108
3881.1	0.000189
3892.68	0.000197
3904.25	0.000166
3915.82	0.000207
3927.4	9.1e-05
3938.97	0.000236
3950.55	0.000184
3962.12	0.000194
3973.69	0.00016
3985.27	0.000225
3996.84	0.000101
