Infrared Spectrum: Methyl 3-Ethoxybenzoate
Formula: C 10 H 12 O 3
CAS: 108593-47-1
State: gas
Origin: EPA-IR VAPOR PHASE LIBRARY
1/CM	ABSORBANCE
549.9	0.00381
559.547	0.0036
569.193	0.00371
578.84	0.0033674
588.486	0.0033515
598.133	0.0033743
607.779	0.0027228
617.426	0.002168
627.072	0.002001
636.719	0.002102
646.365	0.00258669
656.012	0.0035212
665.658	0.00583
675.305	0.01009
684.951	0.01477
694.598	0.00896
704.245	0.0043
713.891	0.0032795
723.538	0.00386
733.184	0.0065
742.831	0.01917
752.477	0.04486
762.124	0.04113
771.77	0.02546
781.417	0.02211
791.063	0.01636
800.71	0.01068
810.356	0.00708
820.003	0.00515
829.649	0.00495
839.296	0.00562
848.943	0.00703
858.589	0.00899
868.236	0.01017
877.882	0.0106
887.529	0.01076
897.175	0.0118
906.822	0.01491
916.468	0.01608
926.115	0.01506
935.761	0.01174
945.408	0.00781
955.054	0.00612
964.701	0.00649
974.347	0.01043
983.994	0.0191
993.64	0.02721
1003.29	0.02915
1012.93	0.0199
1022.58	0.02269
1032.23	0.03916
1041.87	0.0604
1051.52	0.06077
1061.17	0.04443
1070.81	0.04759
1080.46	0.05565
1090.11	0.07312
1099.75	0.10476
1109.4	0.08829
1119.05	0.05328
1128.69	0.02766
1138.34	0.01818
1147.99	0.0171
1157.63	0.0212
1167.28	0.02283
1176.92	0.02238
1186.57	0.0312
1196.22	0.04927
1205.86	0.09184
1215.51	0.13821
1225.16	0.12583
1234.8	0.08022
1244.45	0.05525
1254.1	0.07138
1263.74	0.16292
1273.39	0.3039
1283.04	0.30561
1292.68	0.21446
1302.33	0.11972
1311.98	0.07617
1321.62	0.04847
1331.27	0.03051
1340.92	0.02226
1350.56	0.01656
1360.21	0.01357
1369.86	0.01319
1379.5	0.01611
1389.15	0.02421
1398.79	0.02578
1408.44	0.0191
1418.09	0.01927
1427.73	0.0334
1437.38	0.07573
1447.03	0.09494
1456.67	0.04246
1466.32	0.02511
1475.97	0.03463
1485.61	0.0465
1495.26	0.03053
1504.91	0.01408
1514.55	0.00962
1524.2	0.00824
1533.85	0.00787
1543.49	0.00885
1553.14	0.01106
1562.79	0.01603
1572.43	0.02998
1582.08	0.05446
1591.73	0.06076
1601.37	0.05174
1611.02	0.03488
1620.67	0.01801
1630.31	0.01089
1639.96	0.00814
1649.6	0.00674
1659.25	0.00613
1668.9	0.00595
1678.54	0.00635
1688.19	0.00843
1697.84	0.0136
1707.48	0.01789
1717.13	0.02038
1726.78	0.04042
1736.42	0.13099
1746.07	0.20394
1755.72	0.07673
1765.36	0.02227
1775.01	0.01715
1784.66	0.01627
1794.3	0.01142
1803.95	0.00698
1813.6	0.00486
1823.24	0.00391
1832.89	0.0034643
1842.54	0.0035105
1852.18	0.00358
1861.83	0.00388
1871.47	0.00419
1881.12	0.00392
1890.77	0.0034353
1900.41	0.0032593
1910.06	0.0032286
1919.71	0.0035103
1929.35	0.00396
1939	0.00405
1948.65	0.0035037
1958.29	0.0032496
1967.94	0.0033194
1977.59	0.0033764
1987.23	0.003441
1996.88	0.0032596
2006.53	0.0029008
2016.17	0.0027776
2025.82	0.00262597
2035.47	0.0027171
2045.11	0.0030643
2054.76	0.00356
2064.41	0.00405
2074.05	0.00424
2083.7	0.00405
2093.35	0.00365
2102.99	0.0031231
2112.64	0.0026755
2122.28	0.002495
2131.93	0.0025046
2141.58	0.002448
2151.22	0.002313
2160.87	0.002146
2170.52	0.002061
2180.16	0.001896
2189.81	0.001872
2199.46	0.001806
2209.1	0.001779
2218.75	0.001728
2228.4	0.001729
2238.04	0.001696
2247.69	0.001695
2257.34	0.00167
2266.98	0.001669
2276.63	0.001645
2286.28	0.001709
2295.92	0.001722
2305.57	0.001809
2315.22	0.001942
2324.86	0.002017
2334.51	0.001926
2344.16	0.001904
2353.8	0.001904
2363.45	0.001942
2373.09	0.001956
2382.74	0.001922
2392.39	0.00192
2402.03	0.001893
2411.68	0.002012
2421.33	0.002104
2430.97	0.00212
2440.62	0.002037
2450.27	0.001955
2459.91	0.001912
2469.56	0.001898
2479.21	0.0021
2488.85	0.002205
2498.5	0.002239
2508.15	0.002209
2517.79	0.002148
2527.44	0.002044
2537.09	0.001979
2546.73	0.002044
2556.38	0.002211
2566.03	0.00226
2575.67	0.002319
2585.32	0.002335
2594.96	0.002286
2604.61	0.002057
2614.26	0.001861
2623.9	0.0016
2633.55	0.00147
2643.2	0.00152
2652.84	0.00149
2662.49	0.00151
2672.14	0.00154
2681.78	0.00141
2691.43	0.0015
2701.08	0.00145
2710.72	0.001558
2720.37	0.001745
2730.02	0.001855
2739.66	0.001921
2749.31	0.001929
2758.96	0.001984
2768.6	0.00195
2778.25	0.002025
2787.9	0.00209
2797.54	0.002268
2807.19	0.0025347
2816.84	0.0031729
2826.48	0.00401
2836.13	0.00571
2845.77	0.00967
2855.42	0.01019
2865.07	0.00918
2874.71	0.01221
2884.36	0.0169
2894.01	0.01942
2903.65	0.02093
2913.3	0.02311
2922.95	0.02342
2932.59	0.02381
2942.24	0.02962
2951.89	0.04002
2961.53	0.05097
2971.18	0.03436
2980.83	0.03558
2990.47	0.04077
3000.12	0.02912
3009.77	0.01819
3019.41	0.01411
3029.06	0.01341
3038.71	0.01252
3048.35	0.01026
3058	0.00828
3067.64	0.01023
3077.29	0.01351
3086.94	0.01178
3096.58	0.0074
3106.23	0.00477
3115.88	0.0034244
3125.52	0.00212
3135.17	0.00143
3144.82	0.001
3154.46	0.00083
3164.11	0.00094
3173.76	0.00086
3183.4	0.00079
3193.05	0.0008
3202.7	0.00057
3212.34	0.00055
3221.99	0.00046
3231.64	7e-05
3241.28	0.00019
3250.93	0.00015
3260.58	2e-05
3270.22	5e-05
3279.87	8e-05
3289.52	1e-05
3299.16	0
3308.81	3e-05
3318.45	0.00033
3328.1	0.00048
3337.75	0.0003
3347.39	0.00031
3357.04	0.00024
3366.69	0.00038
3376.33	0.00022
3385.98	0.00038
3395.63	0.00042
3405.27	0.00042
3414.92	0.00053
3424.57	0.00062
3434.21	0.00064
3443.86	0.00086
3453.51	0.0011
3463.15	0.001789
3472.8	0.002274
3482.45	0.00149
3492.09	0.00096
3501.74	0.00072
3511.39	0.00076
3521.03	0.00072
3530.68	0.00072
3540.33	0.00066
3549.97	0.00075
3559.62	0.00094
3569.26	0.00076
3578.91	0.00087
3588.56	0.00092
3598.2	0.00086
3607.85	0.00093
3617.5	0.00088
3627.14	0.00089
3636.79	0.00085
3646.44	0.00094
3656.08	0.00105
3665.73	0.00107
3675.38	0.00094
3685.02	0.00111
3694.67	0.00108
3704.32	0.00108
3713.96	0.00121
3723.61	0.00114
3733.26	0.00121
3742.9	0.00128
3752.55	0.00125
3762.2	0.00116
3771.84	0.0012
3781.49	0.00105
3791.13	0.00108
3800.78	0.00126
3810.43	0.00116
3820.07	0.00123
3829.72	0.00117
3839.37	0.00132
3849.01	0.00132
3858.66	0.00125
3868.31	0.00125
3877.95	0.00127
3887.6	0.00127
3897.25	0.00128
3906.89	0.00127
3916.54	0.00121
3926.19	0.00137
3935.83	0.00128
3945.48	0.00119
3955.13	0.00143
3964.77	0.00139
3974.42	0.00143
3984.07	0.00134
3993.71	0.00143
