Infrared Spectrum: Alloxazine, 7,8-dimethyl-
Formula: C12 H10 N4 O2
CAS: 1086-80-2
State: SOLID (SPLIT MULL), FLUOROLUBE FOR 3800-1330 CM^-^1, NUJOL FOR 1330-450 CM^-^1
Class: COBLENTZ III
Instrument: DOW KBr FOREPRISM-GRATING
Instrument parameters: BLAZED AT 3.5, 12.0, 20.0 MICRON AND CHANGED AT 5.0, 7.5, 14.9 MICRON
Sampling: TRANSMISSION
Resolution: 2
Origin: DOW CHEMICAL COMPANY
1/CM	TRANSMITTANCE
3800	0.6876
3791	0.6883
3782	0.6891
3773	0.6903
3764	0.6918
3755	0.6946
3746	0.6994
3737	0.704
3728	0.7045
3719	0.7047
3710	0.7051
3701	0.7055
3692	0.7058
3683	0.7065
3674	0.7071
3665	0.7069
3656	0.7058
3647	0.7019
3638	0.6975
3629	0.6926
3620	0.6876
3611	0.6825
3602	0.6772
3593	0.6721
3584	0.6644
3575	0.6554
3566	0.6547
3557	0.6517
3548	0.6475
3539	0.6426
3530	0.6374
3521	0.6337
3512	0.6352
3503	0.6386
3494	0.6412
3485	0.6418
3476	0.6414
3467	0.6401
3458	0.6388
3449	0.6371
3440	0.635
3431	0.6291
3422	0.6205
3413	0.6155
3404	0.6158
3395	0.617
3386	0.6215
3377	0.6264
3368	0.6319
3359	0.6371
3350	0.6391
3341	0.6335
3332	0.622
3323	0.6089
3314	0.5931
3305	0.571
3296	0.5498
3287	0.5219
3278	0.494
3269	0.4597
3260	0.3708
3251	0.3098
3242	0.2978
3233	0.3023
3224	0.3129
3215	0.318
3206	0.3085
3197	0.2963
3188	0.2902
3179	0.2988
3170	0.3244
3161	0.344
3152	0.3549
3143	0.3577
3134	0.3659
3125	0.3825
3116	0.393
3107	0.3802
3098	0.362
3089	0.3408
3080	0.3107
3071	0.2778
3062	0.2761
3053	0.2993
3044	0.3226
3035	0.3525
3026	0.3838
3017	0.4052
3008	0.4231
2999	0.4364
2990	0.4491
2981	0.4627
2972	0.4741
2963	0.4843
2954	0.4939
2945	0.5036
2936	0.5093
2927	0.5101
2918	0.5173
2909	0.5287
2900	0.5357
2891	0.539
2882	0.5373
2873	0.5364
2864	0.5269
2855	0.5033
2846	0.4534
2837	0.4897
2828	0.5186
2819	0.5459
2810	0.5714
2801	0.5933
2792	0.6089
2783	0.6177
2774	0.6255
2765	0.6328
2756	0.639
2747	0.6451
2738	0.651
2729	0.6569
2720	0.6631
2711	0.669
2702	0.6743
2693	0.6796
2684	0.6841
2675	0.6884
2666	0.6928
2657	0.6971
2648	0.7015
2639	0.706
2630	0.7093
2621	0.7122
2612	0.7139
2603	0.7146
2594	0.7162
2585	0.7194
2576	0.7226
2567	0.726
2558	0.7294
2549	0.7319
2540	0.7341
2531	0.7351
2522	0.7356
2513	0.7354
2504	0.7356
2495	0.7357
2486	0.7361
2477	0.7361
2468	0.736
2459	0.7371
2450	0.7408
2441	0.7444
2432	0.7468
2423	0.7475
2414	0.7483
2405	0.7485
2396	0.7488
2387	0.7491
2378	0.7495
2369	0.7498
2360	0.7501
2351	0.7508
2342	0.7515
2333	0.7522
2324	0.7531
2315	0.7539
2306	0.7545
2297	0.7555
2288	0.7572
2279	0.76
2270	0.7633
2261	0.7668
2252	0.7703
2243	0.774
2234	0.7775
2225	0.7819
2216	0.7878
2207	0.7944
2198	0.7986
2189	0.8026
2180	0.8071
2171	0.8114
2162	0.8147
2153	0.8178
2144	0.8204
2135	0.823
2126	0.8249
2117	0.8267
2108	0.8284
2099	0.8299
2090	0.8314
2081	0.8331
2072	0.835
2063	0.8368
2054	0.8392
2045	0.8445
2036	0.8477
2027	0.849
2018	0.8506
2009	0.8518
2000	0.848
1991	0.8578
1982	0.8624
1973	0.864
1964	0.8687
1955	0.8708
1946	0.8708
1937	0.8705
1928	0.869
1919	0.8666
1910	0.8656
1901	0.8667
1892	0.8681
1883	0.8684
1874	0.8702
1865	0.8706
1856	0.8727
1847	0.8744
1838	0.8737
1829	0.8653
1820	0.8442
1811	0.815
1802	0.801
1793	0.8078
1784	0.7789
1775	0.7076
1766	0.5921
1757	0.3855
1748	0.0882
1739	0.0928
1730	0.0494
1721	0.0326
1712	0.0728
1703	0.0881
1694	0.2659
1685	0.4247
1676	0.5212
1667	0.5624
1658	0.5843
1649	0.5932
1640	0.5802
1631	0.5152
1622	0.545
1613	0.5645
1604	0.581
1595	0.5194
1586	0.1321
1577	0.328
1568	0.3271
1559	0.41
1550	0.576
1541	0.6084
1532	0.6134
1523	0.6178
1514	0.6124
1505	0.4959
1496	0.3746
1487	0.2858
1478	0.4896
1469	0.4415
1460	0.4686
1451	0.4673
1442	0.476
1433	0.4898
1424	0.4427
1415	0.4657
1406	0.6114
1397	0.6419
1388	0.5192
1379	0.543
1370	0.2669
1361	0.2297
1352	0.4029
1343	0.2926
1334	0.1893
1325	0.3975
1316	0.5784
1307	0.6119
1298	0.6323
1289	0.5438
1280	0.3198
1271	0.4222
1262	0.4912
1253	0.5552
1244	0.6271
1235	0.6515
1226	0.592
1217	0.4419
1208	0.6508
1199	0.6787
1190	0.6197
1181	0.6726
1172	0.7214
1163	0.7353
1154	0.7548
1145	0.7657
1136	0.7112
1127	0.7737
1118	0.7885
1109	0.7921
1100	0.7954
1091	0.811
1082	0.8181
1073	0.8221
1064	0.8216
1055	0.8191
1046	0.8131
1037	0.7998
1028	0.6965
1019	0.7488
1010	0.7301
1001	0.5009
992	0.763
983	0.808
974	0.8061
965	0.8094
956	0.813
947	0.8121
938	0.8117
929	0.8104
920	0.8054
911	0.79
902	0.7141
893	0.6608
884	0.5868
875	0.5746
866	0.6751
857	0.6322
848	0.6352
839	0.6818
830	0.72
821	0.7418
812	0.6056
803	0.7426
794	0.6334
785	0.6272
776	0.6401
767	0.6739
758	0.7028
749	0.5979
740	0.5777
731	0.5889
722	0.6378
713	0.748
704	0.7854
695	0.8031
686	0.7821
677	0.7962
668	0.8161
659	0.7668
650	0.8231
641	0.8545
632	0.8605
623	0.8653
614	0.8716
605	0.7371
596	0.8514
587	0.8486
578	0.6336
569	0.8125
560	0.8447
551	0.8399
542	0.8536
533	0.796
524	0.7367
515	0.841
506	0.8592
497	0.8527
488	0.8533
479	0.7333
470	0.7384
