Infrared Spectrum: Semicarbazide, 4-methyl-1-(5-nitro-2-furoyl)-3-thio-,
Formula: C7 H8 N4 O4 S
CAS: 108630-85-9
State: SOLID (KBr DISC)
Class: COBLENTZ III
Instrument: PERKIN-ELMER 21 (GRATING)
Instrument parameters: FILTER AT ABOUT 10 MICRONS
Resolution: 2
Origin: ABBOTT LABORATORIES
1/CM	TRANSMITTANCE
648	0.6296
657	0.6315
666	0.6284
675	0.6297
684	0.633
693	0.641
702	0.6535
711	0.6699
720	0.6785
729	0.6712
738	0.4353
747	0.632
756	0.568
765	0.6421
774	0.6469
783	0.6236
792	0.6523
801	0.6454
810	0.3585
819	0.4443
828	0.5497
837	0.642
846	0.6505
855	0.5207
864	0.5545
873	0.6748
882	0.6931
891	0.687
900	0.701
909	0.7014
918	0.6969
927	0.6907
936	0.679
945	0.6598
954	0.5883
963	0.51
972	0.5214
981	0.6551
990	0.6514
999	0.6205
1008	0.5154
1017	0.4031
1026	0.4362
1035	0.4119
1044	0.4525
1053	0.5603
1062	0.5887
1071	0.5516
1080	0.4875
1089	0.4839
1098	0.5874
1107	0.618
1116	0.6132
1125	0.5915
1134	0.5632
1143	0.5257
1152	0.5298
1161	0.5624
1170	0.5473
1179	0.4903
1188	0.427
1197	0.4767
1206	0.4897
1215	0.4227
1224	0.3083
1233	0.2758
1242	0.1596
1251	0.0828
1260	0.2051
1269	0.352
1278	0.4367
1287	0.4249
1296	0.4146
1305	0.4525
1314	0.4651
1323	0.4548
1332	0.3615
1341	0.1514
1350	0.1291
1359	0.236
1368	0.3934
1377	0.3014
1386	0.329
1395	0.4495
1404	0.5324
1413	0.5
1422	0.4928
1431	0.4915
1440	0.4503
1449	0.3607
1458	0.2873
1467	0.2799
1476	0.2971
1485	0.349
1494	0.3754
1503	0.3445
1512	0.295
1521	0.2201
1530	0.1397
1539	0.0888
1548	0.0937
1557	0.1191
1566	0.1258
1575	0.2073
1584	0.2734
1593	0.3036
1602	0.4633
1611	0.57
1620	0.5901
1629	0.5944
1638	0.5887
1647	0.5729
1656	0.5485
1665	0.5142
1674	0.4093
1683	0.3031
1692	0.2221
1701	0.2318
1710	0.3138
1719	0.4572
1728	0.6216
1737	0.6865
1746	0.7129
1755	0.7277
1764	0.7338
1773	0.7377
1782	0.7411
1791	0.7444
1800	0.7477
1809	0.7509
1818	0.754
1827	0.7569
1836	0.7587
1845	0.7612
1854	0.7649
1863	0.7671
1872	0.7695
1881	0.7686
1890	0.7677
1899	0.7668
1908	0.766
1917	0.7652
1926	0.7642
1935	0.7631
1944	0.7621
1953	0.7611
1962	0.7603
1971	0.7598
1980	0.7593
1989	0.7588
1998	0.7584
2007	0.7579
2016	0.7574
2025	0.7567
2034	0.7561
2043	0.7554
2052	0.7549
2061	0.7543
2070	0.7541
2079	0.7542
2088	0.7544
2097	0.7545
2106	0.7546
2115	0.7547
2124	0.7549
2133	0.755
2142	0.7552
2151	0.7554
2160	0.7556
2169	0.7558
2178	0.756
2187	0.7562
2196	0.7564
2205	0.7567
2214	0.7568
2223	0.7571
2232	0.7572
2241	0.7575
2250	0.7576
2259	0.7577
2268	0.7578
2277	0.7579
2286	0.7579
2295	0.758
2304	0.7581
2313	0.7584
2322	0.7588
2331	0.7592
2340	0.7596
2349	0.76
2358	0.7605
2367	0.7609
2376	0.7611
2385	0.7607
2394	0.7603
2403	0.76
2412	0.7592
2421	0.7572
2430	0.7551
2439	0.7531
2448	0.7515
2457	0.751
2466	0.7504
2475	0.7499
2484	0.75
2493	0.7501
2502	0.7498
2511	0.7493
2520	0.7484
2529	0.7475
2538	0.7466
2547	0.7457
2556	0.7446
2565	0.7433
2574	0.7421
2583	0.7408
2592	0.7396
2601	0.7377
2610	0.7358
2619	0.7338
2628	0.7319
2637	0.7301
2646	0.7281
2655	0.7254
2664	0.7223
2673	0.7193
2682	0.7163
2691	0.7133
2700	0.7099
2709	0.7055
2718	0.7012
2727	0.6968
2736	0.6925
2745	0.6882
2754	0.6836
2763	0.6784
2772	0.6732
2781	0.6682
2790	0.663
2799	0.6565
2808	0.6499
2817	0.6433
2826	0.6357
2835	0.627
2844	0.6183
2853	0.6096
2862	0.6008
2871	0.5921
2880	0.5835
2889	0.5706
2898	0.5554
2907	0.5413
2916	0.5303
2925	0.5248
2934	0.5218
2943	0.5205
2952	0.5196
2961	0.5194
2970	0.5192
2979	0.5191
2988	0.5191
2997	0.5201
3006	0.5192
3015	0.5176
3024	0.5123
3033	0.4984
3042	0.4847
3051	0.471
3060	0.4573
3069	0.4438
3078	0.4304
3087	0.417
3096	0.4037
3105	0.3904
3114	0.3773
3123	0.3642
3132	0.3476
3141	0.3324
3150	0.322
3159	0.3156
3168	0.3138
3177	0.3144
3186	0.315
3195	0.3172
3204	0.3207
3213	0.3245
3222	0.3306
3231	0.3349
3240	0.3374
3249	0.3387
3258	0.3397
3267	0.3407
3276	0.3416
3285	0.3426
3294	0.3456
3303	0.3487
3312	0.3517
3321	0.355
3330	0.3599
3339	0.3649
3348	0.3703
3357	0.392
3366	0.4282
3375	0.4642
3384	0.5098
3393	0.5629
3402	0.5729
3411	0.5797
3420	0.586
3429	0.5922
3438	0.5985
3447	0.6042
3456	0.609
3465	0.6137
3474	0.6185
3483	0.6231
3492	0.6278
3501	0.6326
3510	0.6375
3519	0.6423
3528	0.6471
3537	0.6519
3546	0.6567
3555	0.6615
3564	0.6665
3573	0.6714
3582	0.6764
3591	0.6813
3600	0.6874
3609	0.6976
3618	0.7089
3627	0.7205
3636	0.727
3645	0.7319
3654	0.7358
3663	0.7397
3672	0.7416
3681	0.7426
3690	0.7437
3699	0.7447
3708	0.7448
3717	0.7448
3726	0.7448
3735	0.7448
3744	0.7444
3753	0.7441
3762	0.7438
3771	0.7433
3780	0.743
3789	0.7427
3798	0.7423
3807	0.7419
3816	0.7416
3825	0.7412
3834	0.7408
3843	0.7405
3852	0.7401
3861	0.7397
3870	0.7393
3879	0.739
3888	0.7388
3897	0.7385
3906	0.7382
3915	0.7379
3924	0.7376
3933	0.7373
3942	0.737
3951	0.7367
3960	0.7361
3969	0.7355
3978	0.7349
3987	0.7343
3996	0.7337
