Infrared Spectrum: p-Dicyclohexylbenzene
Formula: C 18 H 26
CAS: 1087-02-1
State: gas
Origin: EPA-IR VAPOR PHASE LIBRARY
1/CM	ABSORBANCE
501.5	0.0004047
513.074	0.0003943
524.648	0.0006462
536.222	0.0012523
547.796	0.002791
559.37	0.002901
570.944	0.0011452
582.518	0.0006929
594.092	0.0004469
605.666	0.00033411
617.24	0.0003804
628.814	0.00034816
640.388	0.0005127
651.962	0.0004035
663.536	0.00036795
675.11	0.00032467
686.684	0.00030253
698.258	0.0003904
709.832	0.0003891
721.406	0.00045
732.98	0.0004672
744.554	0.0005856
756.128	0.0008209
767.702	0.0008963
779.276	0.0008958
790.85	0.0010491
802.423	0.001691
813.997	0.004731
825.571	0.004851
837.145	0.001631
848.719	0.0010725
860.293	0.0012686
871.867	0.0009015
883.441	0.0007924
895.015	0.0008663
906.589	0.0006639
918.163	0.000503
929.737	0.0004904
941.311	0.00036057
952.885	0.00035674
964.459	0.0004872
976.033	0.00057
987.607	0.001551
999.181	0.002811
1010.76	0.001991
1022.33	0.001911
1033.9	0.0010062
1045.48	0.0004232
1057.05	0.0004094
1068.63	0.0003761
1080.2	0.00036274
1091.77	0.0005101
1103.35	0.0008043
1114.92	0.0006725
1126.49	0.0006808
1138.07	0.0005836
1149.64	0.0004131
1161.22	0.0004408
1172.79	0.0005168
1184.36	0.0006654
1195.94	0.0005882
1207.51	0.0003922
1219.09	0.0004969
1230.66	0.0006387
1242.23	0.0005355
1253.81	0.0008749
1265.38	0.001521
1276.96	0.0009547
1288.53	0.0007978
1300.1	0.0008634
1311.68	0.0009361
1323.25	0.0009554
1334.83	0.0010444
1346.4	0.002421
1357.97	0.001691
1369.55	0.0011435
1381.12	0.0008129
1392.7	0.0007056
1404.27	0.000912
1415.84	0.001281
1427.42	0.001471
1438.99	0.002841
1450.57	0.007091
1462.14	0.004421
1473.71	0.002041
1485.29	0.001961
1496.86	0.002361
1508.44	0.004821
1520.01	0.003981
1531.58	0.001291
1543.16	0.0006991
1554.73	0.0005341
1566.31	0.0005336
1577.88	0.0004267
1589.45	0.00034953
1601.03	0.00031813
1612.6	0.00034961
1624.18	0.00036098
1635.75	0.0004893
1647.32	0.0005497
1658.9	0.0003805
1670.47	0.000275438
1682.05	0.00028111
1693.62	0.00026493
1705.19	0.00028174
1716.77	0.00026937
1728.34	0.00026389
1739.92	0.00028921
1751.49	0.00032621
1763.06	0.0004299
1774.64	0.0005999
1786.21	0.0004635
1797.79	0.00028801
1809.36	0.0002605
1820.93	0.0002549
1832.51	0.0002685
1844.08	0.00026416
1855.66	0.00028613
1867.23	0.00032968
1878.8	0.0004359
1890.38	0.0006539
1901.95	0.0005599
1913.53	0.00032541
1925.1	0.000274634
1936.67	0.000275144
1948.25	0.000272049
1959.82	0.000273974
1971.4	0.000270788
1982.97	0.0002368
1994.54	0.000241
2006.12	0.000207
2017.69	0.0002298
2029.27	0.0002481
2040.84	0.0002537
2052.41	0.0002402
2063.99	0.0002136
2075.56	0.0002405
2087.14	0.0002399
2098.71	0.00026231
2110.28	0.00028228
2121.86	0.0002509
2133.43	0.00026721
2145.01	0.000270047
2156.58	0.0002489
2168.15	0.0002587
2179.73	0.00028443
2191.3	0.00032859
2202.88	0.00031882
2214.45	0.00033903
2226.02	0.00033695
2237.6	0.00032946
2249.17	0.00032163
2260.74	0.00029204
2272.32	0.0002399
2283.89	0.0002456
2295.47	0.0002446
2307.04	0.000237
2318.61	0.0002582
2330.19	0.00032345
2341.76	0.00036028
2353.34	0.00037049
2364.91	0.0003772
2376.48	0.0003753
2388.06	0.00036754
2399.63	0.00034658
2411.21	0.00030661
2422.78	0.00028414
2434.35	0.0002927
2445.93	0.00026103
2457.5	0.0002025
2469.08	0.00031941
2480.65	0.0004339
2492.22	0.00036597
2503.8	0.00030582
2515.37	0.00033698
2526.95	0.0003913
2538.52	0.00032778
2550.09	0.00034737
2561.67	0.0004073
2573.24	0.0004531
2584.82	0.0005526
2596.39	0.0005609
2607.96	0.0006211
2619.54	0.0006553
2631.11	0.000694
2642.69	0.0007949
2654.26	0.001031
2665.83	0.0011316
2677.41	0.0009625
2688.98	0.0007771
2700.56	0.0006939
2712.13	0.0006429
2723.7	0.0005414
2735.28	0.0005605
2746.85	0.0006771
2758.43	0.0006376
2770	0.0008022
2781.57	0.0010364
2793.15	0.001401
2804.72	0.001601
2816.3	0.001951
2827.87	0.002621
2839.44	0.004681
2851.02	0.013961
2862.59	0.032841
2874.17	0.018961
2885.74	0.009911
2897.31	0.010611
2908.89	0.019361
2920.46	0.039981
2932.04	0.089541
2943.61	0.067841
2955.18	0.016271
2966.76	0.005591
2978.33	0.003411
2989.91	0.002941
3001.48	0.002941
3013.05	0.004331
3024.63	0.005621
3036.2	0.003401
3047.78	0.003061
3059.35	0.002581
3070.92	0.002041
3082.5	0.001801
3094.07	0.001511
3105.65	0.0009745
3117.22	0.0006986
3128.79	0.0006584
3140.37	0.0005444
3151.94	0.000528
3163.52	0.0003889
3175.09	0.0002007
3186.66	0.0002575
3198.24	0.0001881
3209.81	0.000131
3221.39	0.000204
3232.96	0.000168
3244.53	0.000137
3256.11	0.000117
3267.68	0.000156
3279.26	0.0001732
3290.83	0.000159
3302.4	0.000166
3313.98	6.1e-05
3325.55	0.00014
3337.13	0.00013
3348.7	0.0001742
3360.27	0.000154
3371.85	0.000153
3383.42	0.000147
3395	0.000137
3406.57	9.9e-05
3418.14	0.0001972
3429.72	0.000157
3441.29	0.000171
3452.86	7.2e-05
3464.44	3.9e-05
3476.01	7.7e-05
3487.59	2e-06
3499.16	4.1e-05
3510.73	4.6e-05
3522.31	3.5e-05
3533.88	3.1e-05
3545.46	9.2e-05
3557.03	6e-05
3568.6	6.3e-05
3580.18	5.5e-05
3591.75	2.2e-05
3603.33	5.5e-05
3614.9	9.9e-05
3626.47	2.1e-05
3638.05	1.7e-05
3649.62	9.2e-05
3661.2	5.4e-05
3672.77	0.000101
3684.34	0.000154
3695.92	6.5e-05
3707.49	7.4e-05
3719.07	0.000137
3730.64	0.000128
3742.21	0.00013
3753.79	6.3e-05
3765.36	0.00011
3776.94	0.000148
3788.51	5.4e-05
3800.08	0.000142
3811.66	0.000112
3823.23	0.000163
3834.81	0.00011
3846.38	0
3857.95	0.000104
3869.53	4.9e-05
3881.1	0.000126
3892.68	8.9e-05
3904.25	0.0001744
3915.82	0.000155
3927.4	0.000207
3938.97	0.000141
3950.55	0.000168
3962.12	8.6e-05
3973.69	9.3e-05
3985.27	0.000144
3996.84	8.2e-05
