Infrared Spectrum: Pyrimidine, 5-amino-4-hydrazino-, hydrochloride
Formula: C4 H8 Cl N5
CAS: 108801-16-7
State: SOLID (0.8 mg / 650 mg KBr DISC)
Class: COBLENTZ III
Instrument: PERKIN-ELMER 21 (GRATING)
Instrument parameters: FILTER CHANGE ABOUT 1070 CM^-^1
Resolution: 2
Origin: SOUTHERN RESEARCH INSTITUTE
1/CM	TRANSMITTANCE
622	0.7691
630	0.772
638	0.7937
646	0.8203
654	0.8333
662	0.836
670	0.836
678	0.8331
686	0.8305
694	0.8275
702	0.8234
710	0.8183
718	0.8124
726	0.8049
734	0.7935
742	0.7571
750	0.6671
758	0.5883
766	0.8058
774	0.8027
782	0.7951
790	0.7868
798	0.7782
806	0.7689
814	0.7586
822	0.7392
830	0.7031
838	0.6245
846	0.4646
854	0.7608
862	0.7662
870	0.7609
878	0.749
886	0.7387
894	0.7211
902	0.6899
910	0.6363
918	0.5583
926	0.6754
934	0.7363
942	0.7347
950	0.7254
958	0.7133
966	0.6964
974	0.6745
982	0.6398
990	0.5933
998	0.5321
1006	0.4068
1014	0.3039
1022	0.4121
1030	0.6322
1038	0.6705
1046	0.673
1054	0.6728
1062	0.6674
1070	0.5797
1078	0.6439
1086	0.6245
1094	0.5751
1102	0.6116
1110	0.6102
1118	0.5889
1126	0.5441
1134	0.4888
1142	0.3425
1150	0.2971
1158	0.5202
1166	0.6487
1174	0.664
1182	0.653
1190	0.6294
1198	0.5932
1206	0.5961
1214	0.6619
1222	0.6705
1230	0.6694
1238	0.6618
1246	0.6468
1254	0.6327
1262	0.6148
1270	0.5957
1278	0.6038
1286	0.6549
1294	0.6548
1302	0.6278
1310	0.6049
1318	0.5871
1326	0.6339
1334	0.6682
1342	0.6564
1350	0.6123
1358	0.4731
1366	0.5183
1374	0.6429
1382	0.6299
1390	0.5806
1398	0.5494
1406	0.4475
1414	0.4062
1422	0.5052
1430	0.5191
1438	0.5729
1446	0.5616
1454	0.4574
1462	0.2522
1470	0.1999
1478	0.3022
1486	0.6504
1494	0.6498
1502	0.5816
1510	0.5286
1518	0.4126
1526	0.4013
1534	0.258
1542	0.1459
1550	0.3806
1558	0.5442
1566	0.5566
1574	0.5506
1582	0.4821
1590	0.3823
1598	0.2303
1606	0.2296
1614	0.2949
1622	0.1597
1630	0.0448
1638	0.1152
1646	0.2912
1654	0.3584
1662	0.5154
1670	0.6944
1678	0.7104
1686	0.7387
1694	0.8217
1702	0.8484
1710	0.8506
1718	0.8494
1726	0.8475
1734	0.8444
1742	0.8402
1750	0.834
1758	0.8279
1766	0.8223
1774	0.8165
1782	0.8102
1790	0.8035
1798	0.7968
1806	0.789
1814	0.7722
1822	0.7553
1830	0.7342
1838	0.7284
1846	0.7326
1854	0.7403
1862	0.748
1870	0.7461
1878	0.7375
1886	0.7237
1894	0.711
1902	0.6968
1910	0.6858
1918	0.6902
1926	0.6981
1934	0.7088
1942	0.7179
1950	0.7179
1958	0.7151
1966	0.7062
1974	0.6959
1982	0.6844
1990	0.6675
1998	0.6461
2006	0.6326
2014	0.6363
2022	0.6528
2030	0.6661
2038	0.6774
2046	0.6893
2054	0.6981
2062	0.7017
2070	0.702
2078	0.7012
2086	0.6998
2094	0.698
2102	0.6965
2110	0.6954
2118	0.6936
2126	0.6914
2134	0.6898
2142	0.6869
2150	0.6835
2158	0.6818
2166	0.6807
2174	0.68
2182	0.6791
2190	0.6781
2198	0.6765
2206	0.6737
2214	0.6705
2222	0.6673
2230	0.6641
2238	0.661
2246	0.6572
2254	0.6528
2262	0.6478
2270	0.6427
2278	0.6372
2286	0.6306
2294	0.6244
2302	0.6192
2310	0.6145
2318	0.6094
2326	0.6061
2334	0.6046
2342	0.6031
2350	0.6017
2358	0.6001
2366	0.5976
2374	0.5944
2382	0.5896
2390	0.5832
2398	0.5761
2406	0.5692
2414	0.5625
2422	0.5554
2430	0.5478
2438	0.5392
2446	0.5308
2454	0.5227
2462	0.5167
2470	0.5109
2478	0.5062
2486	0.5024
2494	0.4979
2502	0.4922
2510	0.487
2518	0.4751
2526	0.4615
2534	0.4552
2542	0.4478
2550	0.4407
2558	0.4336
2566	0.4262
2574	0.4179
2582	0.4096
2590	0.4011
2598	0.3925
2606	0.3835
2614	0.3741
2622	0.3666
2630	0.3597
2638	0.3534
2646	0.3463
2654	0.3386
2662	0.3311
2670	0.3242
2678	0.3178
2686	0.3111
2694	0.3043
2702	0.298
2710	0.2919
2718	0.2858
2726	0.2802
2734	0.2749
2742	0.2701
2750	0.2657
2758	0.2614
2766	0.2576
2774	0.2541
2782	0.2557
2790	0.2655
2798	0.2675
2806	0.265
2814	0.2604
2822	0.2539
2830	0.2463
2838	0.2358
2846	0.2288
2854	0.2256
2862	0.2251
2870	0.225
2878	0.2257
2886	0.2277
2894	0.2315
2902	0.237
2910	0.2374
2918	0.2371
2926	0.2367
2934	0.2361
2942	0.2342
2950	0.2189
2958	0.2043
2966	0.1969
2974	0.1946
2982	0.1981
2990	0.2065
2998	0.2224
3006	0.2419
3014	0.2577
3022	0.2733
3030	0.2869
3038	0.297
3046	0.3006
3054	0.2989
3062	0.2921
3070	0.2829
3078	0.2738
3086	0.2708
3094	0.2695
3102	0.2677
3110	0.2529
3118	0.2321
3126	0.2069
3134	0.1796
3142	0.1502
3150	0.1209
3158	0.0992
3166	0.0889
3174	0.0898
3182	0.105
3190	0.1258
3198	0.149
3206	0.1708
3214	0.1806
3222	0.1817
3230	0.1781
3238	0.1732
3246	0.1728
3254	0.1763
3262	0.1814
3270	0.1831
3278	0.1795
3286	0.1723
3294	0.1603
3302	0.1581
3310	0.1601
3318	0.1645
3326	0.1756
3334	0.1858
3342	0.1899
3350	0.1967
3358	0.2177
3366	0.2627
3374	0.3399
3382	0.3939
3390	0.4314
3398	0.4463
3406	0.4555
3414	0.4617
3422	0.4649
3430	0.4669
3438	0.4709
3446	0.4752
3454	0.4798
3462	0.4849
3470	0.4902
3478	0.4963
3486	0.5027
3494	0.5091
3502	0.5161
3510	0.5251
3518	0.5368
3526	0.5466
3534	0.5565
3542	0.5669
3550	0.5738
3558	0.5793
3566	0.5922
3574	0.608
3582	0.624
3590	0.6366
3598	0.646
3606	0.6506
3614	0.6524
3622	0.6649
3630	0.6682
3638	0.6691
3646	0.6694
3654	0.6692
3662	0.6688
3670	0.6686
3678	0.6688
3686	0.669
3694	0.6686
3702	0.6682
3710	0.6678
3718	0.6672
3726	0.666
3734	0.6638
3742	0.661
3750	0.6606
3758	0.6621
3766	0.6624
3774	0.66
3782	0.657
3790	0.6541
3798	0.6518
