Infrared Spectrum: 4,7,13,16-TETRAOXA-1,10-DITHIACYCLOOCTADECANE-1,1,10,10-TETRAOXIDE
Formula: C12 H24 O8 S2
CAS: 108846-58-8
State: SOLID (KBr PRESSING)
Melting point: 237-238 C
Class: COBLENTZ
Instrument: Not specified, most likely a prism, grating, or hybrid spectrometer.
Sampling: TRANSMISSION
Resolution: 4
Origin: EASTMAN KODAK COMPANY, RESEARCH LABORATORIES, ROCHESTER, N.Y.
MICROMETERS	TRANSMITTANCE
2.087	0.846
2.1221	0.849
2.1572	0.853
2.1923	0.846
2.22739	0.842
2.26249	0.842
2.29759	0.849
2.33269	0.858
2.36779	0.86
2.40289	0.86
2.43798	0.853
2.47308	0.849
2.50818	0.856
2.54328	0.854
2.57838	0.854
2.61348	0.86
2.64857	0.868
2.68367	0.877
2.71877	0.87
2.75387	0.861
2.78897	0.826
2.82407	0.77
2.85916	0.736
2.89426	0.706
2.92936	0.697
2.96446	0.713
2.99956	0.744
3.03466	0.784
3.06975	0.795
3.10485	0.809
3.13995	0.816
3.17505	0.835
3.21015	0.847
3.24525	0.844
3.28035	0.833
3.31544	0.802
3.35054	0.706
3.38564	0.75
3.42074	0.435
3.45584	0.403
3.49094	0.543
3.52603	0.678
3.56113	0.758
3.59623	0.795
3.63133	0.844
3.66643	0.849
3.70153	0.867
3.73662	0.87
3.77172	0.882
3.80682	0.902
3.84192	0.898
3.87702	0.893
3.91212	0.895
3.94721	0.896
3.98231	0.9
4.01741	0.903
4.05251	0.905
4.08761	0.903
4.12271	0.902
4.1578	0.891
4.1929	0.893
4.228	0.905
4.2631	0.91
4.2982	0.923
4.3333	0.921
4.3684	0.907
4.40349	0.886
4.43859	0.895
4.47369	0.9
4.50879	0.9
4.54389	0.902
4.57899	0.903
4.61408	0.903
4.64918	0.905
4.68428	0.903
4.71938	0.905
4.75448	0.905
4.78958	0.905
4.82467	0.895
4.85977	0.886
4.89487	0.895
4.92997	0.896
4.96507	0.896
5.00017	0.888
5.03526	0.879
5.07036	0.877
5.10546	0.9
5.14056	0.898
5.17566	0.896
5.21076	0.898
5.24585	0.898
5.28095	0.905
5.31605	0.905
5.35115	0.903
5.38625	0.896
5.42135	0.888
5.45645	0.888
5.49154	0.895
5.52664	0.898
5.56174	0.893
5.59684	0.884
5.63194	0.882
5.66704	0.874
5.70213	0.849
5.73723	0.844
5.77233	0.839
5.80743	0.818
5.84253	0.811
5.87763	0.826
5.91272	0.844
5.94782	0.856
5.98292	0.854
6.01802	0.835
6.05312	0.833
6.08822	0.821
6.12331	0.814
6.15841	0.804
6.19351	0.807
6.22861	0.816
6.26371	0.821
6.29881	0.83
6.3339	0.837
6.369	0.837
6.4041	0.84
6.4392	0.844
6.4743	0.849
6.5094	0.83
6.54449	0.828
6.57959	0.83
6.61469	0.818
6.64979	0.793
6.68489	0.65
6.71999	0.741
6.75509	0.753
6.79018	0.541
6.82528	0.631
6.86038	0.751
6.89548	0.673
6.93058	0.652
6.96568	0.631
7.00077	0.618
7.03587	0.729
7.07097	0.725
7.10607	0.641
7.14117	0.655
7.17627	0.596
7.21136	0.615
7.24646	0.631
7.28156	0.423
7.31666	0.615
7.35176	0.552
7.38686	0.232
7.42195	0.624
7.45705	0.702
7.49215	0.66
7.52725	0.543
7.56235	0.351
7.59745	0.181
7.63254	0.115
7.66764	0.302
7.70274	0.484
7.73784	0.503
7.77294	0.424
7.80804	0.194
7.84314	0.062
7.87823	0.124
7.91333	0.354
7.94843	0.548
7.98353	0.508
8.01863	0.412
8.05373	0.25
8.08882	0.367
8.12392	0.554
8.15902	0.685
8.19412	0.692
8.22922	0.687
8.26432	0.68
8.29941	0.627
8.33451	0.541
8.36961	0.444
8.40471	0.508
8.43981	0.592
8.47491	0.618
8.51	0.618
8.5451	0.596
8.5802	0.559
8.6153	0.494
8.6504	0.391
8.6855	0.302
8.72059	0.195
8.75569	0.083
8.79079	0.054
8.82589	0.036
8.86099	0.038
8.89609	0.076
8.93119	0.08
8.96628	0.055
9.00138	0.034
9.03648	0.041
9.07158	0.096
9.10668	0.197
9.14178	0.255
9.17687	0.36
9.21197	0.26
9.24707	0.211
9.28217	0.361
9.31727	0.461
9.35237	0.522
9.38746	0.526
9.42256	0.337
9.45766	0.416
9.49276	0.513
9.52786	0.438
9.56296	0.353
9.59805	0.466
9.63315	0.484
9.66825	0.442
9.70335	0.533
9.73845	0.569
9.77355	0.555
9.80864	0.333
9.84374	0.277
9.87884	0.458
9.91394	0.573
9.94904	0.603
9.98414	0.627
10.0192	0.655
10.0543	0.669
10.0894	0.673
10.1245	0.673
10.1596	0.673
10.1947	0.683
10.2298	0.68
10.2649	0.669
10.3	0.662
10.3351	0.639
10.3702	0.638
10.4053	0.671
10.4404	0.687
10.4755	0.697
10.5106	0.704
10.5457	0.713
10.5808	0.715
10.6159	0.715
10.651	0.715
10.6861	0.711
10.7212	0.697
10.7563	0.667
10.7914	0.617
10.8265	0.463
10.8616	0.337
10.8967	0.438
10.9318	0.548
10.9669	0.61
11.002	0.645
11.0371	0.667
11.0722	0.676
11.1073	0.68
11.1424	0.676
11.1775	0.657
11.2126	0.606
11.2477	0.493
11.2828	0.545
11.3179	0.613
11.353	0.657
11.3881	0.667
11.4232	0.671
11.4583	0.68
11.4934	0.683
11.5285	0.683
11.5636	0.683
11.5987	0.688
11.6338	0.692
11.6689	0.688
11.704	0.688
11.7391	0.687
11.7742	0.681
11.8093	0.687
11.8444	0.683
11.8794	0.681
11.9145	0.674
11.9496	0.673
11.9847	0.662
12.0198	0.652
12.0549	0.629
12.09	0.58
12.1251	0.451
12.1602	0.346
12.1953	0.398
12.2304	0.468
12.2655	0.489
12.3006	0.52
12.3357	0.566
12.3708	0.596
12.4059	0.601
12.441	0.611
12.4761	0.632
12.5112	0.615
12.5463	0.617
12.5814	0.627
12.6165	0.617
12.6516	0.618
12.6867	0.625
12.7218	0.629
12.7569	0.629
12.792	0.629
12.8271	0.625
12.8622	0.624
12.8973	0.611
12.9324	0.615
12.9675	0.604
13.0026	0.611
13.0377	0.611
13.0728	0.608
13.1079	0.604
13.143	0.596
13.1781	0.59
13.2132	0.587
13.2483	0.575
13.2834	0.543
13.3185	0.506
13.3536	0.449
13.3887	0.337
13.4238	0.3
13.4589	0.37
13.494	0.451
13.5291	0.506
13.5642	0.531
13.5993	0.55
13.6344	0.557
13.6695	0.545
13.7046	0.555
13.7397	0.548
13.7748	0.526
13.8099	0.517
13.845	0.454
13.8801	0.335
13.9152	0.232
13.9503	0.237
13.9854	0.295
14.0205	0.368
14.0555	0.393
14.0906	0.417
14.1257	0.444
14.1608	0.463
14.1959	0.47
14.231	0.473
14.2661	0.48
14.3012	0.486
14.3363	0.487
14.3714	0.489
14.4065	0.503
14.4416	0.515
14.4767	0.512
14.5118	0.522
14.5469	0.517
14.582	0.522
14.6171	0.527
14.6522	0.517
14.6873	0.519
14.7224	0.522
14.7575	0.517
14.7926	0.519
14.8277	0.524
14.8628	0.522
14.8979	0.527
14.933	0.594
14.9681	0.522
15.0032	0.402
15.0383	0.513
15.0734	0.519
15.1085	0.508
15.1436	0.519
15.1787	0.512
15.2138	0.506
15.2489	0.505
15.284	0.503
15.3191	0.508
15.3542	0.51
15.3893	0.503
15.4244	0.484
15.4595	0.496
15.4946	0.501
15.5297	0.487
15.5648	0.487
15.5999	0.494
15.635	0.496
15.6701	0.496
15.7052	0.498
15.7403	0.491
15.7754	0.494
15.8105	0.493
15.8456	0.487
15.8807	0.484
15.9158	0.482
15.9509	0.48
15.986	0.477
