Infrared Spectrum: 2,4-DIISOPROPYLHEXAHYDROPYRANO[2,3-d] m-DIOXIN
Formula: C13 H24 O3
CAS: 108989-86-2
State: LIQUID
Boiling point: 128 C AT 12 mmHg
Class: COBLENTZ
Instrument: Not specified, most likely a prism, grating, or hybrid spectrometer.
Sampling: TRANSMISSION
Path length: 0.003 CM
Resolution: 4
Origin: TENNESSEE EASTMAN COMPANY, RESEARCH LABORATORIES
MICROMETERS	TRANSMITTANCE
2.082	0.994
2.12297	0.994
2.16395	0.993
2.20492	0.989
2.2459	0.948
2.28687	0.926
2.32785	0.936
2.36882	0.943
2.40979	0.943
2.45077	0.94
2.49174	0.948
2.53272	0.95
2.57369	0.95
2.61467	0.948
2.65564	0.952
2.69662	0.953
2.73759	0.945
2.77856	0.916
2.81954	0.87
2.86051	0.868
2.90149	0.889
2.94246	0.912
2.98344	0.926
3.02441	0.933
3.06538	0.933
3.10636	0.931
3.14733	0.912
3.18831	0.921
3.22928	0.919
3.27026	0.885
3.31123	0.561
3.35221	0
3.39318	0.035
3.43415	0.061
3.47513	0.175
3.5161	0.416
3.55708	0.61
3.59805	0.672
3.63903	0.699
3.68	0.701
3.72097	0.735
3.76195	0.79
3.80292	0.808
3.8439	0.825
3.88487	0.873
3.92585	0.924
3.96682	0.933
4.0078	0.941
4.04877	0.941
4.08974	0.948
4.13072	0.95
4.17169	0.95
4.21267	0.938
4.25364	0.904
4.29462	0.904
4.33559	0.931
4.37656	0.94
4.41754	0.94
4.45851	0.941
4.49949	0.948
4.54046	0.947
4.58144	0.945
4.62241	0.941
4.66339	0.94
4.70436	0.938
4.74533	0.931
4.78631	0.933
4.82728	0.936
4.86826	0.936
4.90923	0.938
4.95021	0.938
4.99118	0.938
5.03215	0.935
5.07313	0.935
5.1141	0.938
5.15508	0.938
5.19605	0.938
5.23703	0.941
5.278	0.943
5.31898	0.94
5.35995	0.941
5.40092	0.943
5.4419	0.943
5.48287	0.943
5.52385	0.943
5.56482	0.936
5.6058	0.935
5.64677	0.928
5.68774	0.907
5.72872	0.861
5.76969	0.872
5.81067	0.877
5.85164	0.88
5.89262	0.878
5.93359	0.877
5.97457	0.877
6.01554	0.882
6.05651	0.861
6.09749	0.88
6.13846	0.889
6.17944	0.897
6.22041	0.902
6.26139	0.911
6.30236	0.914
6.34333	0.894
6.38431	0.872
6.42528	0.878
6.46626	0.848
6.50723	0.858
6.54821	0.841
6.58918	0.831
6.63016	0.808
6.67113	0.747
6.7121	0.489
6.75308	0.122
6.79405	0.199
6.83503	0.252
6.876	0.401
6.91698	0.467
6.95795	0.68
6.99892	0.639
7.0399	0.494
7.08087	0.416
7.12185	0.431
7.16282	0.184
7.2038	0.168
7.24477	0.228
7.28575	0.254
7.32672	0.204
7.36769	0.279
7.40867	0.322
7.44964	0.554
7.49062	0.515
7.53159	0.436
7.57257	0.529
7.61354	0.58
7.65451	0.476
7.69549	0.484
7.73646	0.397
7.77744	0.281
7.81841	0.464
7.85939	0.465
7.90036	0.351
7.94134	0.631
7.98231	0.713
8.02328	0.732
8.06426	0.735
8.10523	0.675
8.14621	0.508
8.18718	0.45
8.22816	0.588
8.26913	0.511
8.3101	0.307
8.35108	0.179
8.39205	0.298
8.43303	0.341
8.474	0.262
8.51498	0.071
8.55595	0.022
8.59693	0.02
8.6379	0.046
8.67887	0.11
8.71985	0.112
8.76082	0.063
8.8018	0.047
8.84277	0.023
8.88375	0.039
8.92472	0.068
8.96569	0.042
9.00667	0.015
9.04764	0.006
9.08862	0.008
9.12959	0.051
9.17057	0.139
9.21154	0.167
9.25252	0.16
9.29349	0.196
9.33446	0.257
9.37544	0.194
9.41641	0.088
9.45739	0.064
9.49836	0.071
9.53934	0.071
9.58031	0.069
9.62128	0.076
9.66226	0.061
9.70323	0.069
9.74421	0.107
9.78518	0.078
9.82616	0.088
9.86713	0.1
9.90811	0.092
9.94908	0.092
9.99005	0.078
10.031	0.064
10.072	0.114
10.113	0.179
10.154	0.187
10.1949	0.17
10.2359	0.155
10.2769	0.083
10.3178	0.037
10.3588	0.039
10.3998	0.066
10.4408	0.116
10.4817	0.216
10.5227	0.325
10.5637	0.361
10.6047	0.423
10.6456	0.479
10.6866	0.484
10.7276	0.474
10.7686	0.441
10.8095	0.308
10.8505	0.242
10.8915	0.423
10.9325	0.488
10.9734	0.273
11.0144	0.365
11.0554	0.576
11.0964	0.627
11.1373	0.627
11.1783	0.706
11.2193	0.773
11.2603	0.8
11.3012	0.805
11.3422	0.793
11.3832	0.749
11.4242	0.532
11.4651	0.348
11.5061	0.343
11.5471	0.375
11.5881	0.496
11.629	0.571
11.67	0.573
11.711	0.607
11.752	0.699
11.7929	0.757
11.8339	0.757
11.8749	0.773
11.9158	0.812
11.9568	0.831
11.9978	0.846
12.0388	0.865
12.0797	0.868
12.1207	0.868
12.1617	0.87
12.2027	0.873
12.2436	0.873
12.2846	0.875
12.3256	0.872
12.3666	0.865
12.4075	0.817
12.4485	0.75
12.4895	0.697
12.5305	0.747
12.5714	0.825
12.6124	0.854
12.6534	0.863
12.6944	0.866
12.7353	0.868
12.7763	0.868
12.8173	0.866
12.8583	0.863
12.8992	0.832
12.9402	0.774
12.9812	0.761
13.0222	0.802
13.0631	0.834
13.1041	0.846
13.1451	0.851
13.1861	0.851
13.227	0.849
13.268	0.841
13.309	0.834
13.35	0.817
13.3909	0.759
13.4319	0.667
13.4729	0.508
13.5139	0.484
13.5548	0.622
13.5958	0.725
13.6368	0.774
13.6777	0.79
13.7187	0.795
13.7597	0.793
13.8007	0.784
13.8416	0.776
13.8826	0.757
13.9236	0.728
13.9646	0.708
14.0055	0.701
14.0465	0.701
14.0875	0.701
14.1285	0.682
14.1694	0.665
14.2104	0.662
14.2514	0.675
14.2924	0.691
14.3333	0.699
14.3743	0.699
14.4153	0.699
14.4563	0.701
14.4972	0.706
14.5382	0.711
14.5792	0.706
14.6202	0.694
14.6611	0.672
14.7021	0.653
14.7431	0.643
14.7841	0.641
14.825	0.646
14.866	0.648
14.907	0.634
14.948	0.626
14.9889	0.624
15.0299	0.634
15.0709	0.634
15.1119	0.627
15.1528	0.621
15.1938	0.609
15.2348	0.602
15.2757	0.597
15.3167	0.588
15.3577	0.581
15.3987	0.578
15.4396	0.571
15.4806	0.566
15.5216	0.559
15.5626	0.552
15.6035	0.549
15.6445	0.546
15.6855	0.539
15.7265	0.539
15.7674	0.535
15.8084	0.532
15.8494	0.53
15.8904	0.525
15.9313	0.523
15.9723	0.522
