Infrared Spectrum: INDENO[1,2-c]PYRAZOL-4-ONE, 3-ETHYL-, HYDRAZONE
Formula: C12 H12 N4
CAS: 108952-68-7
State: SOLID (KBr DISC)
Class: COBLENTZ III
Instrument: PERKIN-ELMER 21 (GRATING)
Instrument parameters: NaCl PRISM
Sampling: TRANSMISSION
Resolution: 2
Origin: SMITH KLINE & FRENCH LABS.
MICROMETERS	TRANSMITTANCE
2.009	0.287
2.04333	0.288
2.07766	0.293
2.11198	0.295
2.14631	0.297
2.18064	0.299
2.21497	0.309
2.2493	0.311
2.28362	0.312
2.31795	0.337
2.35228	0.332
2.38661	0.333
2.42093	0.349
2.45526	0.358
2.48959	0.365
2.52392	0.383
2.55825	0.388
2.59257	0.397
2.6269	0.4
2.66123	0.408
2.69556	0.41
2.72989	0.416
2.76421	0.431
2.79854	0.446
2.83287	0.44
2.8672	0.449
2.90153	0.452
2.93585	0.47
2.97018	0.469
3.00451	0.358
3.03884	0.352
3.07316	0.359
3.10749	0.33
3.14182	0.24
3.17615	0.18
3.21048	0.196
3.2448	0.19
3.27913	0.198
3.31346	0.199
3.34779	0.201
3.38212	0.207
3.41644	0.204
3.45077	0.201
3.4851	0.2
3.51943	0.202
3.55376	0.205
3.58808	0.22
3.62241	0.281
3.65674	0.29
3.69107	0.299
3.72539	0.301
3.75972	0.325
3.79405	0.338
3.82838	0.37
3.86271	0.389
3.89703	0.41
3.93136	0.415
3.96569	0.424
4.00002	0.431
4.03435	0.438
4.06867	0.452
4.103	0.464
4.13733	0.477
4.17166	0.475
4.20599	0.491
4.24031	0.512
4.27464	0.512
4.30897	0.512
4.3433	0.513
4.37763	0.519
4.41195	0.533
4.44628	0.534
4.48061	0.544
4.51494	0.553
4.54926	0.563
4.58359	0.573
4.61792	0.575
4.65225	0.589
4.68658	0.6
4.7209	0.602
4.75523	0.603
4.78956	0.606
4.82389	0.617
4.85822	0.627
4.89254	0.629
4.92687	0.628
4.9612	0.639
4.99553	0.651
5.02986	0.649
5.06418	0.66
5.09851	0.65
5.13284	0.649
5.16717	0.669
5.20149	0.674
5.23582	0.665
5.27015	0.669
5.30448	0.683
5.33881	0.683
5.37313	0.689
5.40746	0.691
5.44179	0.7
5.47612	0.709
5.51045	0.709
5.54477	0.68
5.5791	0.702
5.61343	0.711
5.64776	0.716
5.68209	0.72
5.71641	0.717
5.75074	0.701
5.78507	0.717
5.8194	0.724
5.85372	0.718
5.88805	0.713
5.92238	0.715
5.95671	0.72
5.99104	0.724
6.02536	0.729
6.05969	0.673
6.09402	0.621
6.12835	0.645
6.16268	0.413
6.197	0.496
6.23133	0.572
6.26566	0.408
6.29999	0.411
6.33432	0.36
6.36864	0.501
6.40297	0.612
6.4373	0.673
6.47163	0.718
6.50595	0.76
6.54028	0.804
6.57461	0.678
6.60894	0.338
6.64327	0.389
6.67759	0.577
6.71192	0.734
6.74625	0.761
6.78058	0.399
6.81491	0.286
6.84923	0.364
6.88356	0.442
6.91789	0.303
6.95222	0.326
6.98655	0.322
7.02087	0.42
7.0552	0.519
7.08953	0.53
7.12386	0.372
7.15818	0.437
7.19251	0.522
7.22684	0.551
7.26117	0.519
7.2955	0.579
7.32982	0.649
7.36415	0.682
7.39848	0.712
7.43281	0.732
7.46714	0.723
7.50146	0.603
7.53579	0.504
7.57012	0.599
7.60445	0.541
7.63878	0.512
7.6731	0.539
7.70743	0.586
7.74176	0.64
7.77609	0.627
7.81041	0.599
7.84474	0.663
7.87907	0.698
7.9134	0.629
7.94773	0.491
7.98205	0.53
8.01638	0.605
8.05071	0.669
8.08504	0.709
8.11937	0.732
8.15369	0.745
8.18802	0.761
8.22235	0.771
8.25668	0.767
8.29101	0.75
8.32533	0.728
8.35966	0.734
8.39399	0.711
8.42832	0.652
8.46264	0.559
8.49697	0.43
8.5313	0.383
8.56563	0.413
8.59996	0.493
8.63428	0.552
8.66861	0.651
8.70294	0.661
8.73727	0.614
8.7716	0.671
8.80592	0.724
8.84025	0.75
8.87458	0.757
8.90891	0.761
8.94324	0.744
8.97756	0.706
9.01189	0.709
9.04622	0.751
9.08055	0.786
9.11487	0.783
9.1492	0.8
9.18353	0.814
9.21786	0.837
9.25219	0.856
9.28651	0.86
9.32084	0.805
9.35517	0.68
9.3895	0.514
9.42383	0.481
9.45815	0.579
9.49248	0.682
9.52681	0.7
9.56114	0.639
9.59547	0.655
9.62979	0.682
9.66412	0.718
9.69845	0.74
9.73278	0.754
9.76711	0.781
9.80143	0.751
9.83576	0.711
9.87009	0.781
9.90442	0.823
9.93874	0.85
9.97307	0.861
10.0074	0.878
10.0417	0.894
10.0761	0.9
10.1104	0.904
10.1447	0.842
10.179	0.777
10.2134	0.733
10.2477	0.793
10.282	0.843
10.3164	0.882
10.3507	0.852
10.385	0.578
10.4193	0.282
10.4537	0.462
10.488	0.58
10.5223	0.669
10.5566	0.723
10.591	0.755
10.6253	0.784
10.6596	0.781
10.694	0.732
10.7283	0.755
10.7626	0.743
10.7969	0.671
10.8313	0.613
10.8656	0.589
10.8999	0.602
10.9343	0.667
10.9686	0.721
11.0029	0.766
11.0372	0.779
11.0716	0.799
11.1059	0.81
11.1402	0.821
11.1745	0.828
11.2089	0.831
11.2432	0.831
11.2775	0.826
11.3119	0.82
11.3462	0.809
11.3805	0.8
11.4148	0.783
11.4492	0.762
11.4835	0.733
11.5178	0.656
11.5522	0.602
11.5865	0.624
11.6208	0.636
11.6551	0.63
11.6895	0.619
11.7238	0.614
11.7581	0.607
11.7925	0.605
11.8268	0.608
11.8611	0.621
11.8954	0.634
11.9298	0.64
11.9641	0.645
11.9984	0.665
12.0327	0.669
12.0671	0.673
12.1014	0.685
12.1357	0.69
12.1701	0.685
12.2044	0.691
12.2387	0.691
12.273	0.688
12.3074	0.685
12.3417	0.683
12.376	0.68
12.4104	0.676
12.4447	0.677
12.479	0.671
12.5133	0.662
12.5477	0.666
12.582	0.644
12.6163	0.638
12.6506	0.639
12.685	0.644
12.7193	0.641
12.7536	0.633
12.788	0.618
12.8223	0.57
12.8566	0.502
12.8909	0.369
12.9253	0.272
12.9596	0.26
12.9939	0.293
13.0283	0.421
13.0626	0.501
13.0969	0.519
13.1312	0.378
13.1656	0.276
13.1999	0.317
13.2342	0.389
13.2686	0.414
13.3029	0.431
13.3372	0.435
13.3715	0.435
13.4059	0.429
13.4402	0.425
13.4745	0.419
13.5088	0.409
13.5432	0.386
13.5775	0.371
13.6118	0.356
13.6462	0.338
13.6805	0.281
13.7148	0.202
13.7491	0.162
13.7835	0.18
13.8178	0.211
13.8521	0.299
13.8865	0.331
13.9208	0.36
13.9551	0.396
13.9894	0.41
14.0238	0.422
14.0581	0.421
14.0924	0.424
14.1267	0.431
14.1611	0.442
14.1954	0.466
14.2297	0.492
14.2641	0.5
14.2984	0.523
14.3327	0.544
14.367	0.57
14.4014	0.581
14.4357	0.602
14.47	0.624
14.5044	0.643
14.5387	0.655
14.573	0.65
14.6073	0.611
14.6417	0.6
14.676	0.601
14.7103	0.619
14.7447	0.64
14.779	0.66
14.8133	0.669
14.8476	0.666
14.882	0.643
14.9163	0.597
14.9506	0.553
14.9849	0.526
15.0193	0.507
15.0536	0.502
15.0879	0.501
15.1223	0.509
15.1566	0.524
15.1909	0.552
15.2252	0.589
15.2596	0.608
15.2939	0.619
15.3282	0.629
15.3626	0.638
15.3969	0.647
15.4312	0.671
15.4655	0.682
15.4999	0.696
15.5342	0.704
