Infrared Spectrum: 1-Indanamine, N,N-dimethyl-3-phenyl-, hydrochloride
Formula: C17 H20 Cl N
CAS: 108975-84-4
State: SOLID (KBr DISC)
Class: COBLENTZ III
Instrument: PERKIN-ELMER 21 (GRATING)
Instrument parameters: NaCl PRISM
Sampling: TRANSMISSION
Resolution: 2
Origin: SMITH KLINE & FRENCH LABS.
1/CM	TRANSMITTANCE
4000	0.3455
3991	0.3458
3982	0.346
3973	0.3464
3964	0.3468
3955	0.3472
3946	0.3476
3937	0.3482
3928	0.3486
3919	0.3491
3910	0.3496
3901	0.3503
3892	0.3509
3883	0.3516
3874	0.3524
3865	0.353
3856	0.3538
3847	0.3545
3838	0.3552
3829	0.3557
3820	0.3562
3811	0.3568
3802	0.3574
3793	0.3579
3784	0.3584
3775	0.359
3766	0.3595
3757	0.36
3748	0.3605
3739	0.3609
3730	0.3614
3721	0.3618
3712	0.3624
3703	0.3629
3694	0.363
3685	0.3632
3676	0.3636
3667	0.3638
3658	0.364
3649	0.3643
3640	0.3645
3631	0.3647
3622	0.3649
3613	0.365
3604	0.3653
3595	0.3652
3586	0.365
3577	0.365
3568	0.3645
3559	0.3641
3550	0.3636
3541	0.363
3532	0.3604
3523	0.3562
3514	0.3521
3505	0.348
3496	0.3438
3487	0.3408
3478	0.3399
3469	0.3394
3460	0.3389
3451	0.3387
3442	0.3366
3433	0.3329
3424	0.3297
3415	0.3271
3406	0.3254
3397	0.3246
3388	0.3242
3379	0.3242
3370	0.3245
3361	0.3249
3352	0.3253
3343	0.3258
3334	0.3262
3325	0.3268
3316	0.3275
3307	0.3284
3298	0.33
3289	0.3337
3280	0.3374
3271	0.3409
3262	0.3446
3253	0.3482
3244	0.3518
3235	0.3556
3226	0.36
3217	0.3643
3208	0.3687
3199	0.373
3190	0.3766
3181	0.38
3172	0.3834
3163	0.3868
3154	0.3904
3145	0.3932
3136	0.3947
3127	0.3959
3118	0.3968
3109	0.3977
3100	0.3984
3091	0.3989
3082	0.3994
3073	0.3998
3064	0.4
3055	0.4004
3046	0.3978
3037	0.3873
3028	0.3732
3019	0.3588
3010	0.3524
3001	0.3516
2992	0.3547
2983	0.3574
2974	0.3578
2965	0.3576
2956	0.3526
2947	0.3444
2938	0.3372
2929	0.3316
2920	0.3275
2911	0.3273
2902	0.3334
2893	0.3442
2884	0.3584
2875	0.3657
2866	0.3716
2857	0.3782
2848	0.3862
2839	0.3994
2830	0.4189
2821	0.4426
2812	0.4675
2803	0.4768
2794	0.4819
2785	0.4873
2776	0.4953
2767	0.501
2758	0.5051
2749	0.5073
2740	0.5095
2731	0.5126
2722	0.5153
2713	0.5165
2704	0.5162
2695	0.5158
2686	0.5141
2677	0.5096
2668	0.4931
2659	0.4833
2650	0.4787
2641	0.471
2632	0.4614
2623	0.4529
2614	0.4345
2605	0.3927
2596	0.388
2587	0.3764
2578	0.3616
2569	0.3428
2560	0.3229
2551	0.3026
2542	0.2818
2533	0.2623
2524	0.255
2515	0.2539
2506	0.2545
2497	0.2556
2488	0.2591
2479	0.2664
2470	0.2692
2461	0.2687
2452	0.2662
2443	0.2613
2434	0.242
2425	0.2416
2416	0.2402
2407	0.2333
2398	0.2192
2389	0.2044
2380	0.1944
2371	0.192
2362	0.1948
2353	0.1999
2344	0.205
2335	0.2063
2326	0.1994
2317	0.1798
2308	0.1324
2299	0.0952
2290	0.0917
2281	0.0837
2272	0.0774
2263	0.0789
2254	0.0931
2245	0.1032
2236	0.1107
2227	0.1229
2218	0.1406
2209	0.1544
2200	0.1785
2191	0.2048
2182	0.2257
2173	0.2444
2164	0.2565
2155	0.2694
2146	0.2833
2137	0.2981
2128	0.3209
2119	0.3359
2110	0.3562
2101	0.3877
2092	0.4057
2083	0.4253
2074	0.4564
2065	0.4705
2056	0.4837
2047	0.5022
2038	0.5082
2029	0.5157
2020	0.5339
2011	0.5391
2002	0.5404
1993	0.5394
1984	0.5542
1975	0.5614
1966	0.5546
1957	0.5709
1948	0.5888
1939	0.6004
1930	0.6189
1921	0.6225
1912	0.6197
1903	0.6265
1894	0.6297
1885	0.6295
1876	0.6537
1867	0.6618
1858	0.6622
1849	0.6621
1840	0.663
1831	0.6612
1822	0.6589
1813	0.6726
1804	0.685
1795	0.6912
1786	0.6926
1777	0.6922
1768	0.6861
1759	0.6828
1750	0.6904
1741	0.6918
1732	0.6924
1723	0.7006
1714	0.7031
1705	0.7042
1696	0.7025
1687	0.6953
1678	0.6814
1669	0.6687
1660	0.6643
1651	0.6569
1642	0.6244
1633	0.6041
1624	0.6067
1615	0.6006
1606	0.5214
1597	0.511
1588	0.586
1579	0.6239
1570	0.6411
1561	0.646
1552	0.6584
1543	0.6576
1534	0.6778
1525	0.6903
1516	0.6962
1507	0.5873
1498	0.3192
1489	0.2832
1480	0.2045
1471	0.2072
1462	0.1925
1453	0.1411
1444	0.2995
1435	0.4701
1426	0.2425
1417	0.3786
1408	0.3868
1399	0.4915
1390	0.5822
1381	0.6043
1372	0.6076
1363	0.4167
1354	0.2834
1345	0.5801
1336	0.6246
1327	0.6518
1318	0.5707
1309	0.6331
1300	0.6235
1291	0.5687
1282	0.6404
1273	0.6447
1264	0.6706
1255	0.5998
1246	0.6746
1237	0.7098
1228	0.699
1219	0.6994
1210	0.6456
1201	0.6447
1192	0.4857
1183	0.435
1174	0.6007
1165	0.6195
1156	0.3452
1147	0.604
1138	0.5665
1129	0.6464
1120	0.6855
1111	0.6949
1102	0.7039
1093	0.6891
1084	0.6944
1075	0.5668
1066	0.6678
1057	0.6162
1048	0.6767
1039	0.6461
1030	0.4856
1021	0.2469
1012	0.4766
1003	0.2984
994	0.4145
985	0.6417
976	0.4867
967	0.5698
958	0.3979
949	0.6371
940	0.6933
931	0.7448
922	0.7676
913	0.7674
904	0.7961
895	0.8048
886	0.8
877	0.8061
868	0.7997
859	0.6808
850	0.7299
841	0.8151
832	0.8299
823	0.8378
814	0.7693
805	0.7661
796	0.7901
787	0.6858
778	0.1017
769	0.4121
760	0.2451
751	0.6539
742	0.6467
733	0.6285
724	0.6288
715	0.7458
706	0.3206
697	0.5271
688	0.735
679	0.7518
670	0.7312
661	0.7395
