Infrared Spectrum: 3,4-DIACETYL-5-OXO-1,3,4-THIADIAZOLIDONE-2-AZINE
Formula: C12 H12 N6 O6 S2
CAS: 108952-44-9
State: SOLID (KBr PELLET)
Class: COBLENTZ
Instrument: Not specified, most likely a prism, grating, or hybrid spectrometer.
Sampling: TRANSMISSION
Resolution: 4
Origin: NORBERT PETRI
MICROMETERS	TRANSMITTANCE
2.036	0.776
2.07208	0.783
2.10816	0.783
2.14423	0.79
2.18031	0.794
2.21639	0.794
2.25247	0.802
2.28855	0.811
2.32463	0.817
2.3607	0.817
2.39678	0.819
2.43286	0.82
2.46894	0.825
2.50502	0.828
2.5411	0.83
2.57717	0.835
2.61325	0.837
2.64933	0.849
2.68541	0.851
2.72149	0.855
2.75757	0.855
2.79364	0.84
2.82972	0.797
2.8658	0.746
2.90188	0.73
2.93796	0.708
2.97404	0.71
3.01011	0.749
3.04619	0.782
3.08227	0.789
3.11835	0.8
3.15443	0.814
3.19051	0.818
3.22658	0.819
3.26266	0.825
3.29874	0.834
3.33482	0.825
3.3709	0.824
3.40698	0.823
3.44305	0.795
3.47913	0.831
3.51521	0.847
3.55129	0.855
3.58737	0.87
3.62345	0.877
3.65952	0.886
3.6956	0.895
3.73168	0.901
3.76776	0.904
3.80384	0.907
3.83992	0.906
3.87599	0.906
3.91207	0.909
3.94815	0.911
3.98423	0.914
4.02031	0.917
4.05639	0.918
4.09246	0.921
4.12854	0.922
4.16462	0.92
4.2007	0.918
4.23678	0.924
4.27286	0.939
4.30893	0.941
4.34501	0.949
4.38109	0.944
4.41717	0.941
4.45325	0.939
4.48932	0.929
4.5254	0.935
4.56148	0.938
4.59756	0.941
4.63364	0.941
4.66972	0.939
4.70579	0.939
4.74187	0.932
4.77795	0.928
4.81403	0.932
4.85011	0.935
4.88619	0.938
4.92226	0.94
4.95834	0.938
4.99442	0.938
5.0305	0.935
5.06658	0.926
5.10266	0.921
5.13873	0.917
5.17481	0.916
5.21089	0.915
5.24697	0.907
5.28305	0.898
5.31913	0.889
5.3552	0.872
5.39128	0.841
5.42736	0.817
5.46344	0.771
5.49952	0.67
5.5356	0.579
5.57167	0.349
5.60775	0.078
5.64383	0.09
5.67991	0.324
5.71599	0.472
5.75207	0.512
5.78814	0.319
5.82422	0.168
5.8603	0.267
5.89638	0.288
5.93246	0.474
5.96854	0.596
6.00461	0.656
6.04069	0.716
6.07677	0.753
6.11285	0.772
6.14893	0.778
6.18501	0.788
6.22108	0.799
6.25716	0.806
6.29324	0.737
6.32932	0.487
6.3654	0.501
6.40148	0.755
6.43755	0.829
6.47363	0.853
6.50971	0.871
6.54579	0.887
6.58187	0.898
6.61795	0.894
6.65402	0.899
6.6901	0.898
6.72618	0.898
6.76226	0.893
6.79834	0.891
6.83441	0.864
6.87049	0.859
6.90657	0.825
6.94265	0.777
6.97873	0.691
7.01481	0.611
7.05088	0.592
7.08696	0.693
7.12304	0.736
7.15912	0.736
7.1952	0.69
7.23128	0.615
7.26735	0.472
7.30343	0.387
7.33951	0.388
7.37559	0.317
7.41167	0.694
7.44775	0.721
7.48382	0.688
7.5199	0.616
7.55598	0.503
7.59206	0.376
7.62814	0.271
7.66422	0.151
7.70029	0.083
7.73637	0.077
7.77245	0.071
7.80853	0.096
7.84461	0.271
7.88069	0.439
7.91676	0.474
7.95284	0.405
7.98892	0.369
8.025	0.354
8.06108	0.33
8.09716	0.256
8.13323	0.182
8.16931	0.187
8.20539	0.313
8.24147	0.411
8.27755	0.369
8.31363	0.332
8.3497	0.363
8.38578	0.484
8.42186	0.57
8.45794	0.624
8.49402	0.659
8.5301	0.69
8.56617	0.707
8.60225	0.721
8.63833	0.728
8.67441	0.732
8.71049	0.74
8.74657	0.751
8.78264	0.746
8.81872	0.759
8.8548	0.763
8.89088	0.728
8.92696	0.727
8.96304	0.761
8.99911	0.782
9.03519	0.799
9.07127	0.802
9.10735	0.815
9.14343	0.823
9.1795	0.828
9.21558	0.834
9.25166	0.84
9.28774	0.845
9.32382	0.851
9.3599	0.854
9.39597	0.855
9.43205	0.859
9.46813	0.858
9.50421	0.847
9.54029	0.832
9.57637	0.738
9.61244	0.653
9.64852	0.615
9.6846	0.621
9.72068	0.719
9.75676	0.785
9.79284	0.811
9.82891	0.836
9.86499	0.847
9.90107	0.853
9.93715	0.861
9.97323	0.869
10.0093	0.874
10.0454	0.872
10.0815	0.865
10.1175	0.807
10.1536	0.698
10.1897	0.575
10.2258	0.594
10.2619	0.733
10.2979	0.819
10.334	0.849
10.3701	0.875
10.4062	0.892
10.4422	0.903
10.4783	0.911
10.5144	0.92
10.5505	0.924
10.5866	0.928
10.6226	0.93
10.6587	0.917
10.6948	0.903
10.7309	0.906
10.767	0.922
10.803	0.933
10.8391	0.944
10.8752	0.949
10.9113	0.951
10.9473	0.95
10.9834	0.952
11.0195	0.952
11.0556	0.96
11.0917	0.963
11.1277	0.967
11.1638	0.967
11.1999	0.969
11.236	0.978
11.272	0.979
11.3081	0.98
11.3442	0.98
11.3803	0.98
11.4164	0.98
11.4524	0.979
11.4885	0.98
11.5246	0.98
11.5607	0.989
11.5968	0.991
11.6328	0.991
11.6689	0.99
11.705	0.991
11.7411	0.984
11.7771	0.939
11.8132	0.897
11.8493	0.924
11.8854	0.96
11.9215	0.98
11.9575	0.985
11.9936	0.986
12.0297	0.986
12.0658	0.975
12.1018	0.917
12.1379	0.852
12.174	0.845
12.2101	0.886
12.2462	0.922
12.2822	0.937
12.3183	0.949
12.3544	0.953
12.3905	0.96
12.4266	0.963
12.4626	0.97
12.4987	0.976
12.5348	0.979
12.5709	0.983
12.6069	0.99
12.643	0.995
12.6791	0.993
12.7152	0.996
12.7513	0.996
12.7873	0.991
12.8234	0.989
12.8595	0.98
12.8956	0.966
12.9316	0.933
12.9677	0.895
13.0038	0.87
13.0399	0.865
13.076	0.898
13.112	0.932
13.1481	0.955
13.1842	0.966
13.2203	0.974
13.2564	0.976
13.2924	0.975
13.3285	0.961
13.3646	0.952
13.4007	0.953
13.4367	0.951
13.4728	0.949
13.5089	0.929
13.545	0.88
13.5811	0.794
13.6171	0.737
13.6532	0.78
13.6893	0.846
13.7254	0.899
13.7615	0.927
13.7975	0.943
13.8336	0.947
13.8697	0.953
13.9058	0.956
13.9418	0.96
13.9779	0.952
14.014	0.947
14.0501	0.935
14.0862	0.917
14.1222	0.892
14.1583	0.84
14.1944	0.776
14.2305	0.663
14.2665	0.514
14.3026	0.394
14.3387	0.338
14.3748	0.322
14.4109	0.301
14.4469	0.324
14.483	0.433
14.5191	0.552
14.5552	0.644
14.5913	0.714
14.6273	0.767
14.6634	0.801
14.6995	0.82
14.7356	0.84
14.7716	0.86
14.8077	0.865
14.8438	0.872
14.8799	0.874
14.916	0.877
14.952	0.891
14.9881	0.894
15.0242	0.895
15.0603	0.893
15.0963	0.894
15.1324	0.895
15.1685	0.895
15.2046	0.898
15.2407	0.895
15.2767	0.892
15.3128	0.874
15.3489	0.791
15.385	0.767
