Infrared Spectrum: Beta-ETHOXYETHYL ADIPATE
Formula: C14 H26 O6
CAS: 109-44-4
State: SOLUTION (10% CCl4 FOR 2.5-7.5, 10% CS2 FOR 7.5-16 MICRON)
Class: COBLENTZ
Instrument: Not specified, most likely a prism, grating, or hybrid spectrometer.
Sampling: TRANSMISSION
Path length: 0.01 CM, 0.01 CM
Resolution: 4
Origin: DOW CHEMICAL COMPANY
MICROMETERS	TRANSMITTANCE
2.032	0.9
2.07096	0.9
2.10993	0.9
2.14889	0.896
2.18785	0.891
2.22682	0.882
2.26578	0.867
2.30474	0.861
2.34371	0.864
2.38267	0.872
2.42164	0.875
2.4606	0.877
2.49956	0.877
2.53853	0.887
2.57749	0.885
2.61645	0.896
2.65542	0.904
2.69438	0.891
2.73334	0.888
2.77231	0.885
2.81127	0.887
2.85023	0.879
2.8892	0.864
2.92816	0.867
2.96712	0.887
3.00609	0.888
3.04505	0.885
3.08402	0.887
3.12298	0.885
3.16194	0.887
3.20091	0.883
3.23987	0.883
3.27883	0.866
3.3178	0.798
3.35676	0.537
3.39572	0.167
3.43469	0.291
3.47365	0.237
3.51261	0.295
3.55158	0.6
3.59054	0.683
3.6295	0.779
3.66847	0.804
3.70743	0.835
3.7464	0.872
3.78536	0.887
3.82432	0.882
3.86329	0.885
3.90225	0.898
3.94121	0.9
3.98018	0.9
4.01914	0.9
4.0581	0.9
4.09707	0.9
4.13603	0.901
4.17499	0.895
4.21396	0.885
4.25292	0.89
4.29188	0.891
4.33085	0.885
4.36981	0.88
4.40878	0.888
4.44774	0.888
4.4867	0.898
4.52567	0.898
4.56463	0.9
4.60359	0.9
4.64256	0.901
4.68152	0.901
4.72048	0.901
4.75945	0.9
4.79841	0.893
4.83737	0.893
4.87634	0.89
4.9153	0.887
4.95427	0.887
4.99323	0.88
5.03219	0.87
5.07116	0.869
5.11012	0.87
5.14908	0.87
5.18805	0.879
5.22701	0.887
5.26597	0.887
5.30494	0.888
5.3439	0.887
5.38286	0.887
5.42183	0.88
5.46079	0.872
5.49975	0.851
5.53872	0.82
5.57768	0.8
5.61665	0.743
5.65561	0.63
5.69457	0.42
5.73354	0.154
5.7725	0.054
5.81146	0.148
5.85043	0.364
5.88939	0.587
5.92835	0.711
5.96732	0.788
6.00628	0.837
6.04524	0.838
6.08421	0.853
6.12317	0.861
6.16213	0.848
6.2011	0.814
6.24006	0.761
6.27903	0.682
6.31799	0.64
6.35695	0.617
6.39592	0.574
6.43488	0.529
6.47384	0.498
6.51281	0.548
6.55177	0.603
6.59073	0.64
6.6297	0.685
6.66866	0.729
6.70762	0.696
6.74659	0.646
6.78555	0.64
6.82451	0.508
6.86348	0.427
6.90244	0.409
6.94141	0.43
6.98037	0.522
7.01933	0.52
7.0583	0.527
7.09726	0.603
7.13622	0.55
7.17519	0.408
7.21415	0.23
7.25311	0.282
7.29208	0.367
7.33104	0.437
7.37	0.404
7.40897	0.354
7.44793	0.427
7.48689	0.546
7.52586	0.561
7.56482	0.501
7.60379	0.483
7.64275	0.456
7.68171	0.414
7.72068	0.367
7.75964	0.311
7.7986	0.285
7.83757	0.288
7.87653	0.287
7.91549	0.248
7.95446	0.203
7.99342	0.175
8.03238	0.156
8.07135	0.156
8.11031	0.187
8.14927	0.206
8.18824	0.209
8.2272	0.211
8.26617	0.208
8.30513	0.196
8.34409	0.166
8.38306	0.135
8.42202	0.096
8.46098	0.067
8.49995	0.056
8.53891	0.056
8.57787	0.064
8.61684	0.082
8.6558	0.098
8.69476	0.093
8.73373	0.059
8.77269	0.041
8.81165	0.024
8.85062	0.017
8.88958	0.017
8.92855	0.019
8.96751	0.037
9.00647	0.104
9.04544	0.166
9.0844	0.22
9.12336	0.27
9.16233	0.309
9.20129	0.319
9.24025	0.311
9.27922	0.29
9.31818	0.29
9.35714	0.314
9.39611	0.32
9.43507	0.312
9.47404	0.283
9.513	0.254
9.55196	0.275
9.59093	0.309
9.62989	0.346
9.66885	0.396
9.70782	0.451
9.74678	0.5
9.78574	0.564
9.82471	0.614
9.86367	0.646
9.90263	0.674
9.9416	0.698
9.98056	0.72
10.0195	0.743
10.0585	0.754
10.0975	0.767
10.1364	0.779
10.1754	0.783
10.2143	0.79
10.2533	0.785
10.2923	0.761
10.3312	0.741
10.3702	0.716
10.4092	0.682
10.4481	0.662
10.4871	0.646
10.5261	0.641
10.565	0.645
10.604	0.658
10.6429	0.679
10.6819	0.698
10.7209	0.719
10.7598	0.735
10.7988	0.74
10.8378	0.741
10.8767	0.738
10.9157	0.737
10.9546	0.741
10.9936	0.751
11.0326	0.767
11.0715	0.785
11.1105	0.803
11.1495	0.804
11.1884	0.808
11.2274	0.791
11.2664	0.764
11.3053	0.73
11.3443	0.703
11.3832	0.683
11.4222	0.662
11.4612	0.641
11.5001	0.617
11.5391	0.596
11.5781	0.579
11.617	0.574
11.656	0.569
11.695	0.577
11.7339	0.6
11.7729	0.63
11.8118	0.666
11.8508	0.693
11.8898	0.712
11.9287	0.724
11.9677	0.733
12.0067	0.748
12.0456	0.761
12.0846	0.772
12.1236	0.782
12.1625	0.79
12.2015	0.791
12.2404	0.79
12.2794	0.788
12.3184	0.801
12.3573	0.808
12.3963	0.819
12.4353	0.824
12.4742	0.82
12.5132	0.809
12.5522	0.803
12.5911	0.8
12.6301	0.804
12.669	0.812
12.708	0.819
12.747	0.824
12.7859	0.83
12.8249	0.833
12.8639	0.835
12.9028	0.835
12.9418	0.835
12.9808	0.835
13.0197	0.83
13.0587	0.825
13.0976	0.82
13.1366	0.811
13.1756	0.804
13.2145	0.801
13.2535	0.793
13.2925	0.79
13.3314	0.79
13.3704	0.791
13.4094	0.8
13.4483	0.803
13.4873	0.806
13.5262	0.806
13.5652	0.804
13.6042	0.8
13.6431	0.795
13.6821	0.79
13.7211	0.79
13.76	0.795
13.799	0.795
13.838	0.79
13.8769	0.785
13.9159	0.777
13.9548	0.774
13.9938	0.77
14.0328	0.766
14.0717	0.759
14.1107	0.756
14.1497	0.751
14.1886	0.748
14.2276	0.743
14.2665	0.735
14.3055	0.732
14.3445	0.727
14.3834	0.724
14.4224	0.72
14.4614	0.714
14.5003	0.709
14.5393	0.7
14.5783	0.691
14.6172	0.687
14.6562	0.672
14.6951	0.664
14.7341	0.654
14.7731	0.641
14.812	0.637
14.851	0.625
14.89	0.62
14.9289	0.614
14.9679	0.609
15.0069	0.6
15.0458	0.59
15.0848	0.575
15.1237	0.567
15.1627	0.553
15.2017	0.538
15.2406	0.527
15.2796	0.517
15.3186	0.509
15.3575	0.504
15.3965	0.5
15.4355	0.493
15.4744	0.488
15.5134	0.485
15.5523	0.48
15.5913	0.477
15.6303	0.472
15.6692	0.466
15.7082	0.462
15.7472	0.459
15.7861	0.456
15.8251	0.453
15.8641	0.448
15.903	0.448
