Infrared Spectrum: 2-Methylpiperidine
Formula: C 6 H 13 N
CAS: 109-05-7
State: gas
Instrument: HP-GC/MS/IRD
Origin: NIST Mass Spectrometry Data Center
1/CM	ABSORBANCE
550	0.00114
562	0.001124
574	0.000592
586	0.000368
598	6.4e-05
610	0.000104
622	6.4e-05
634	0.000204
646	0.000432
658	0.000728
670	0.001236
682	0.00208
694	0.003516
706	0.00546
718	0.006596
730	0.005976
742	0.00336
754	0.001416
766	0.0006
778	0.000484
790	0.000532
802	0.000556
814	0.000652
826	0.000956
838	0.00094
850	0.000432
862	0.000284
874	0.000288
886	0.000472
898	0.000736
910	0.00062
922	0.000328
934	8.8e-05
946	7.2e-05
958	0.000196
970	0.000416
982	0.000404
994	0.000304
1006	0.000264
1018	0.000136
1030	0.00024
1042	0.000708
1054	0.001228
1066	0.001512
1078	0.001852
1090	0.001932
1102	0.002748
1114	0.004036
1126	0.003892
1138	0.002432
1150	0.001448
1162	0.001228
1174	0.000772
1186	0.00046
1198	0.000496
1210	0.000864
1222	0.000788
1234	0.000684
1246	0.000716
1258	0.00098
1270	0.001024
1282	0.0008
1294	0.001188
1306	0.002032
1318	0.00374
1330	0.003724
1342	0.002832
1354	0.00172
1366	0.002544
1378	0.003104
1390	0.002316
1402	0.000912
1414	0.001264
1426	0.002788
1438	0.004136
1450	0.004684
1462	0.003932
1474	0.00222
1486	0.000848
1498	0.000312
1510	0.000104
1522	6.4e-05
1534	0
1546	3.6e-05
1558	3.2e-05
1570	2.8e-05
1582	1.2e-05
1594	3.6e-05
1606	4.4e-05
1618	5.6e-05
1630	2e-05
1642	2.8e-05
1654	3.6e-05
1666	5.6e-05
1678	5.6e-05
1690	6.8e-05
1702	5.6e-05
1714	3.2e-05
1726	8e-06
1738	2e-05
1750	2.4e-05
1762	5.2e-05
1774	8e-05
1786	6.4e-05
1798	7.2e-05
1810	8e-05
1822	7.6e-05
1834	8.8e-05
1846	8.8e-05
1858	0.0001
1870	6e-05
1882	5.2e-05
1894	4e-05
1906	5.6e-05
1918	4.8e-05
1930	6.4e-05
1942	5.2e-05
1954	8e-05
1966	6e-05
1978	7.6e-05
1990	7.2e-05
2002	7.6e-05
2014	9.2e-05
2026	0.0001
2038	0.000108
2050	8.8e-05
2062	6.8e-05
2074	7.2e-05
2086	8e-05
2098	7.6e-05
2110	8e-05
2122	6e-05
2134	8e-05
2146	0.000108
2158	0.000124
2170	0.000132
2182	0.000128
2194	0.000124
2206	0.00012
2218	0.00012
2230	0.000104
2242	0.0001
2254	8e-05
2266	8.4e-05
2278	6.8e-05
2290	8.4e-05
2302	8e-05
2314	8.4e-05
2326	0.000112
2338	9.6e-05
2350	9.2e-05
2362	0.000104
2374	5.6e-05
2386	7.2e-05
2398	8.4e-05
2410	9.2e-05
2422	9.6e-05
2434	0.00012
2446	0.000144
2458	0.000172
2470	0.00018
2482	0.000204
2494	0.000184
2506	0.000164
2518	0.000196
2530	0.000212
2542	0.000208
2554	0.000272
2566	0.000384
2578	0.000596
2590	0.000852
2602	0.001016
2614	0.000984
2626	0.001044
2638	0.001056
2650	0.001092
2662	0.001092
2674	0.001216
2686	0.001368
2698	0.001636
2710	0.002016
2722	0.002536
2734	0.00266
2746	0.002536
2758	0.002784
2770	0.004032
2782	0.006076
2794	0.008032
2806	0.008548
2818	0.007136
2830	0.006008
2842	0.006992
2854	0.009548
2866	0.010848
2878	0.00964
2890	0.008712
2902	0.011496
2914	0.020248
2926	0.033428
2938	0.04
2950	0.03148
2962	0.019924
2974	0.011432
2986	0.005296
2998	0.002044
3010	0.00082
3022	0.000564
3034	0.0004
3046	0.000408
3058	0.000428
3070	0.000444
3082	0.000468
3094	0.000468
3106	0.000396
3118	0.000308
3130	0.000292
3142	0.00032
3154	0.00032
3166	0.000328
3178	0.000292
3190	0.000216
3202	0.000196
3214	0.000144
3226	0.000184
3238	0.000136
3250	0.000144
3262	0.000184
3274	0.000152
3286	0.000168
3298	0.000164
3310	0.000164
3322	0.000184
3334	0.0002
3346	0.000172
3358	0.0002
3370	0.000168
3382	0.00012
3394	0.000144
3406	0.000124
3418	0.0001
3430	9.6e-05
3442	0.000156
3454	0.00012
3466	0.000152
3478	0.0001
3490	0.000132
3502	0.00014
3514	0.000152
3526	8.4e-05
3538	8.8e-05
3550	9.6e-05
3562	8.8e-05
3574	0.000104
3586	0.000184
3598	0.00014
3610	0.000104
3622	0.000112
3634	0.000164
3646	0.000132
3658	0.000152
3670	0.000176
3682	0.000128
3694	0.000116
3706	0.000128
3718	7.6e-05
3730	0.00012
3742	0.00018
3754	0.00014
3766	0.00014
3778	0.000176
3790	0.000204
3802	0.000168
3814	0.000164
3826	0.000188
3838	0.00018
