Infrared Spectrum: N-Methylpiperizine
Formula: C 5 H 12 N 2
CAS: 109-01-3
State: gas
Origin: EPA-IR VAPOR PHASE LIBRARY
1/CM	ABSORBANCE
549.8	0.004269
559.445	0.008259
569.09	0.011939
578.734	0.013949
588.379	0.011539
598.024	0.008129
607.669	0.004819
617.313	0.002769
626.958	0.0015172
636.603	0.0013642
646.248	0.0014685
655.893	0.002069
665.537	0.002579
675.182	0.003289
684.827	0.004429
694.472	0.005769
704.116	0.007659
713.761	0.010319
723.406	0.014409
733.051	0.020869
742.695	0.029969
752.34	0.037289
761.985	0.038859
771.63	0.035099
781.275	0.026339
790.919	0.015649
800.564	0.008499
810.209	0.004429
819.854	0.003279
829.498	0.002849
839.143	0.002809
848.788	0.002899
858.433	0.003069
868.078	0.003539
877.722	0.004589
887.367	0.005719
897.012	0.005919
906.657	0.005179
916.301	0.003939
925.946	0.002449
935.591	0.001709
945.236	0.0013235
954.88	0.0012925
964.525	0.0016017
974.17	0.002619
983.815	0.005969
993.46	0.010199
1003.1	0.013519
1012.75	0.013389
1022.39	0.009129
1032.04	0.007689
1041.68	0.007829
1051.33	0.008939
1060.97	0.010139
1070.62	0.007809
1080.26	0.005909
1089.91	0.006419
1099.55	0.008089
1109.2	0.011889
1118.84	0.018789
1128.49	0.029609
1138.13	0.044819
1147.78	0.049249
1157.42	0.043939
1167.07	0.025999
1176.71	0.014199
1186.36	0.008569
1196	0.004349
1205.64	0.002249
1215.29	0.0013344
1224.93	0.0011584
1234.58	0.0015316
1244.22	0.002339
1253.87	0.005099
1263.51	0.010849
1273.16	0.020819
1282.8	0.020729
1292.45	0.018899
1302.09	0.014539
1311.74	0.015109
1321.38	0.012729
1331.03	0.014659
1340.67	0.009839
1350.32	0.009269
1359.96	0.011409
1369.61	0.010489
1379.25	0.008319
1388.9	0.004899
1398.54	0.002849
1408.18	0.003439
1417.83	0.004829
1427.47	0.008529
1437.12	0.016249
1446.76	0.025339
1456.41	0.028339
1466.05	0.021429
1475.7	0.012099
1485.34	0.006339
1494.99	0.003269
1504.63	0.002049
1514.28	0.0015901
1523.92	0.0014255
1533.57	0.001287
1543.21	0.0011558
1552.86	0.0011556
1562.5	0.0011601
1572.15	0.0010498
1581.79	0.0010925
1591.44	0.0010858
1601.08	0.0011105
1610.73	0.0011418
1620.37	0.0011482
1630.01	0.0012445
1639.66	0.0012738
1649.3	0.0012445
1658.95	0.0013405
1668.59	0.0012335
1678.24	0.0012063
1687.88	0.0011308
1697.53	0.0011245
1707.17	0.0009851
1716.82	0.0009758
1726.46	0.000987
1736.11	0.0009554
1745.75	0.0009572
1755.4	0.000908
1765.04	0.0009786
1774.69	0.001017
1784.33	0.0010285
1793.98	0.0010075
1803.62	0.0009377
1813.27	0.0010034
1822.91	0.0010197
1832.55	0.0010644
1842.2	0.0010382
1851.84	0.0010235
1861.49	0.0010379
1871.13	0.0010304
1880.78	0.0011592
1890.42	0.0013048
1900.07	0.0014973
1909.71	0.001669
1919.36	0.001568
1929	0.0015544
1938.65	0.001367
1948.29	0.0012423
1957.94	0.0010932
1967.58	0.0010496
1977.23	0.0009038
1986.87	0.0009305
1996.52	0.0009463
2006.16	0.0010328
2015.81	0.0010492
2025.45	0.0011918
2035.1	0.0013425
2044.74	0.0014376
2054.38	0.0014931
2064.03	0.0013862
2073.67	0.0012028
2083.32	0.0011362
2092.96	0.0010678
2102.61	0.0009476
2112.25	0.0008965
2121.9	0.0010456
2131.54	0.0009576
2141.19	0.0010967
2150.83	0.000997
2160.48	0.0010438
2170.12	0.0011715
2179.77	0.0011689
2189.41	0.0010835
2199.06	0.001125
2208.7	0.0011953
2218.35	0.0012263
2227.99	0.0012322
2237.64	0.0013566
2247.28	0.001364
2256.92	0.0013627
2266.57	0.0014162
2276.21	0.0014646
2285.86	0.0016128
2295.5	0.0015994
2305.15	0.0015723
2314.79	0.0014711
2324.44	0.0013704
2334.08	0.0014251
2343.73	0.0013684
2353.37	0.0013409
2363.02	0.001219
2372.66	0.0012544
2382.31	0.0011579
2391.95	0.0011449
2401.6	0.0011474
2411.24	0.0011198
2420.89	0.0012201
2430.53	0.0013316
2440.18	0.0014291
2449.82	0.0015782
2459.47	0.001629
2469.11	0.001789
2478.75	0.001739
2488.4	0.001709
2498.04	0.002009
2507.69	0.002139
2517.33	0.002309
2526.98	0.002249
2536.62	0.002019
2546.27	0.001999
2555.91	0.002039
2565.56	0.002089
2575.2	0.002099
2584.85	0.002239
2594.49	0.002589
2604.14	0.003179
2613.78	0.003959
2623.43	0.004819
2633.07	0.005759
2642.72	0.006709
2652.36	0.008279
2662.01	0.010299
2671.65	0.012279
2681.29	0.013269
2690.94	0.012869
2700.58	0.012369
2710.23	0.013399
2719.87	0.016819
2729.52	0.022589
2739.16	0.027979
2748.81	0.035199
2758.45	0.044559
2768.1	0.056539
2777.74	0.073339
2787.39	0.077939
2797.03	0.080639
2806.68	0.074319
2816.32	0.063359
2825.97	0.060679
2835.61	0.056409
2845.26	0.054479
2854.9	0.042239
2864.55	0.034139
2874.19	0.030419
2883.84	0.032769
2893.48	0.035379
2903.12	0.040479
2912.77	0.051259
2922.41	0.071799
2932.06	0.098679
2941.7	0.121299
2951.35	0.105949
2960.99	0.088359
2970.64	0.045959
2980.28	0.025979
2989.93	0.012839
2999.57	0.005919
3009.22	0.003319
3018.86	0.002559
3028.51	0.002269
3038.15	0.002099
3047.8	0.001929
3057.44	0.001959
3067.09	0.001989
3076.73	0.001859
3086.38	0.001859
3096.02	0.001679
3105.67	0.0015842
3115.31	0.0015308
3124.95	0.0013143
3134.6	0.0012103
3144.24	0.0013251
3153.89	0.0012128
3163.53	0.0013919
3173.18	0.0013422
3182.82	0.0013671
3192.47	0.0013344
3202.11	0.0012251
3211.76	0.0011328
3221.4	0.0011059
3231.05	0.0007296
3240.69	0.0009211
3250.34	0.0008527
3259.98	0.0008541
3269.63	0.000776
3279.27	0.000618
3288.92	0.0005871
3298.56	0.00067185
3308.21	0.0009171
3317.85	0.000976
3327.49	0.0010475
3337.14	0.0010906
3346.78	0.0008407
3356.43	0.00068329
3366.07	0.000499
3375.72	0.000439
3385.36	0.00067728
3395.01	0.000501
3404.65	0.000386
3414.3	0.000238
3423.94	0.000419
3433.59	9.7e-05
3443.23	0.000386
3452.88	0.000398
3462.52	0.000262
3472.17	2.1e-05
3481.81	0.000303
3491.46	0.000425
3501.1	0.000374
3510.75	0.000275
3520.39	0.000409
3530.04	0.000161
3539.68	0.000264
3549.32	0.000236
3558.97	0.00039
3568.61	0.000219
3578.26	0.000234
3587.9	6.5e-05
3597.55	0.000454
3607.19	0.000297
3616.84	0.000385
3626.48	0.000103
3636.13	8e-05
3645.77	0.000248
3655.42	0.000432
3665.06	0.000314
3674.71	0.000333
3684.35	0.000558
3694	0.000373
3703.64	0.0005884
3713.29	0.000419
3722.93	0.000307
3732.58	0.000391
3742.22	0.000265
3751.86	0.000297
3761.51	0.000146
3771.15	0.000261
3780.8	0.000255
3790.44	0.0005291
3800.09	0.000271
3809.73	0.000317
3819.38	0.000397
3829.02	0.0007654
3838.67	0.000392
3848.31	0.00042
3857.96	0.0005683
3867.6	0.000369
3877.25	0.000278
3886.89	0.000341
3896.54	0.000484
3906.18	0.000452
3915.83	0.00069183
3925.47	0.00066292
3935.12	0.0007745
3944.76	0.0007734
3954.41	0.0008474
3964.05	0.0007594
3973.69	0.0007237
3983.34	0.0007907
3992.98	0.001012
