Infrared Spectrum: 3-PYRIDINOL
Formula: C5 H5 N O
CAS: 109-00-2
State: SOLID (OIL MULL)
Class: COBLENTZ III
Instrument: PERKIN-ELMER 521 (GRATING)
Instrument parameters: FILTERS AT 3150, 2500, 2000, 1150, 700, 410. GRATING CHANGES: 2000, 630 CM^-^1
Sampling: TRANSMISSION
Resolution: 2
Origin: STANDARD OIL OF OHIO
1/CM	TRANSMITTANCE
472.551	0.275
481.257	0.273
489.963	0.304
498.67	0.336
507.376	0.367
516.082	0.419
524.788	0.451
533.494	0.504
542.201	0.545
550.907	0.522
559.613	0.63
568.319	0.668
577.025	0.69
585.731	0.724
594.438	0.738
603.144	0.751
611.85	0.759
620.556	0.744
629.262	0.715
637.969	0.381
646.675	0.824
655.381	0.866
664.087	0.879
672.793	0.873
681.5	0.856
690.206	0.803
698.912	0.4531
707.618	0.7599
716.324	0.789
725.031	0.795
733.737	0.81
742.443	0.827
751.149	0.828
759.855	0.821
768.562	0.808
777.268	0.798
785.974	0.778
794.68	0.544
803.386	0.48
812.092	0.761
820.799	0.732
829.505	0.691
838.211	0.6141
846.917	0.572
855.623	0.771
864.33	0.787
873.036	0.772
881.742	0.751
890.448	0.669
899.154	0.696
907.861	0.707
916.567	0.7239
925.273	0.706
933.979	0.73
942.685	0.721
951.392	0.708
960.098	0.697
968.804	0.703
977.51	0.693
986.216	0.73
994.923	0.743
1003.63	0.736
1012.33	0.708
1021.04	0.6259
1029.75	0.697
1038.45	0.655
1047.16	0.606
1055.87	0.707
1064.57	0.763
1073.28	0.738
1081.98	0.72
1090.69	0.684
1099.4	0.586
1108.1	0.7009
1116.81	0.745
1125.52	0.71
1134.22	0.746
1142.93	0.722
1151.63	0.701
1160.34	0.68
1169.05	0.639
1177.75	0.4572
1186.46	0.6199
1195.16	0.687
1203.87	0.631
1212.58	0.577
1221.28	0.562
1229.99	0.498
1238.7	0.2749
1247.4	0.498
1256.11	0.565
1264.81	0.46
1273.52	0.284
1282.23	0.3219
1290.93	0.362
1299.64	0.7
1308.35	0.515
1317.05	0.684
1325.76	0.716
1334.46	0.666
1343.17	0.656
1351.88	0.606
1360.58	0.484
1369.29	0.303
1377.99	0.277
1386.7	0.507
1395.41	0.633
1404.11	0.687
1412.82	0.683
1421.53	0.662
1430.23	0.5999
1438.94	0.446
1447.64	0.343
1456.35	0.228
1465.06	0.216
1473.76	0.226
1482.47	0.2771
1491.18	0.528
1499.88	0.6
1508.59	0.637
1517.29	0.644
1526	0.636
1534.71	0.604
1543.41	0.556
1552.12	0.471
1560.82	0.346
1569.53	0.242
1578.24	0.4251
1586.94	0.746
1595.65	0.763
1604.36	0.692
1613.06	0.708
1621.77	0.715
1630.47	0.707
1639.18	0.689
1647.89	0.675
1656.59	0.661
1665.3	0.654
1674.01	0.634
1682.71	0.634
1691.42	0.626
1700.12	0.604
1708.83	0.587
1717.54	0.586
1726.24	0.584
1734.95	0.573
1743.66	0.555
1752.36	0.562
1761.07	0.56
1769.77	0.545
1778.48	0.532
1787.19	0.524
1795.89	0.522
1804.6	0.53
1813.3	0.55
1822.01	0.565
1830.72	0.563
1839.42	0.559
1848.13	0.556
1856.84	0.557
1865.54	0.561
1874.25	0.565
1882.95	0.573
1891.66	0.583
1900.37	0.604
1909.07	0.616
1917.78	0.636
1926.49	0.649
1935.19	0.65
1943.9	0.661
1952.6	0.662
1961.31	0.663
1970.02	0.667
1978.72	0.673
1987.43	0.677
1996.13	0.686
2004.84	0.69
2013.55	0.692
2022.25	0.693
2030.96	0.697
2039.67	0.7015
2048.37	0.7059
2057.08	0.709
2065.78	0.7091
2074.49	0.708
2083.2	0.706
2091.9	0.7036
2100.61	0.702
2109.32	0.6938
2118.02	0.6863
2126.73	0.68
2135.43	0.6791
2144.14	0.6763
2152.85	0.6721
2161.55	0.6656
2170.26	0.6573
2178.96	0.651
2187.67	0.65
2196.38	0.6437
2205.08	0.6372
2213.79	0.6351
2222.5	0.6256
2231.2	0.62
2239.91	0.619
2248.61	0.6127
2257.32	0.6049
2266.03	0.5957
2274.73	0.592
2283.44	0.5885
2292.15	0.584
2300.85	0.5805
2309.56	0.575
2318.26	0.5678
2326.97	0.5606
2335.68	0.5558
2344.38	0.5516
2353.09	0.5476
2361.79	0.5423
2370.5	0.5378
2379.21	0.5333
2387.91	0.5278
2396.62	0.525
2405.33	0.5219
2414.03	0.5184
2422.74	0.514
2431.44	0.5192
2440.15	0.5178
2448.86	0.515
2457.56	0.514
2466.27	0.514
2474.98	0.516
2483.68	0.5192
2492.39	0.532
2501.09	0.5233
2509.8	0.521
2518.51	0.5194
2527.21	0.5201
2535.92	0.53
2544.62	0.5361
2553.33	0.5425
2562.04	0.532
2570.74	0.534
2579.45	0.538
2588.16	0.541
2596.86	0.5509
2605.57	0.5634
2614.27	0.575
2622.98	0.5676
2631.69	0.5572
2640.39	0.5579
2649.1	0.5619
2657.81	0.5674
2666.51	0.572
2675.22	0.5908
2683.92	0.5979
2692.63	0.5966
2701.34	0.5901
2710.04	0.5806
2718.75	0.5809
2727.45	0.5904
2736.16	0.6123
2744.87	0.62
2753.57	0.6133
2762.28	0.6027
2770.99	0.5904
2779.69	0.5863
2788.4	0.5758
2797.1	0.5621
2805.81	0.5484
2814.52	0.5125
2823.22	0.4619
2831.93	0.3626
2840.64	0.1437
2849.34	0.0445
2858.05	0.0435
2866.75	0.07
2875.46	0.1121
2884.17	0.1078
2892.87	0.0622
2901.58	0.0283
2910.28	0.0136
2918.99	0.007
2927.7	0.0107
2936.4	0.0242
2945.11	0.032
2953.82	0.0322
2962.52	0.0518
2971.23	0.2011
2979.93	0.3456
2988.64	0.4484
2997.35	0.5103
3006.05	0.551
3014.76	0.5877
3023.47	0.6214
3032.17	0.6392
3040.88	0.6503
3049.58	0.657
3058.29	0.6634
3067	0.6873
3075.7	0.7034
3084.41	0.7201
3093.11	0.727
3101.82	0.7346
3110.53	0.737
3119.23	0.7406
3127.94	0.757
3136.65	0.7625
3145.35	0.772
3154.06	0.7745
3162.76	0.779
3171.47	0.782
3180.18	0.787
3188.88	0.793
3197.59	0.7999
3206.3	0.8049
3215	0.8089
3223.71	0.813
3232.41	0.8149
3241.12	0.8168
3249.83	0.8199
3258.53	0.8204
3267.24	0.821
3275.94	0.822
3284.65	0.824
3293.36	0.824
3302.06	0.824
3310.77	0.824
3319.48	0.824
3328.18	0.824
3336.89	0.822
3345.59	0.8207
3354.3	0.82
3363.01	0.82
3371.71	0.82
3380.42	0.819
3389.13	0.82
3397.83	0.82
3406.54	0.82
3415.24	0.8187
3423.95	0.8165
3432.66	0.815
3441.36	0.814
3450.07	0.8142
3458.77	0.8153
3467.48	0.813
3476.19	0.8137
3484.89	0.814
3493.6	0.812
3502.31	0.812
3511.01	0.8106
3519.72	0.81
3528.42	0.809
3537.13	0.809
3545.84	0.809
3554.54	0.808
3563.25	0.808
3571.96	0.8029
3580.66	0.7935
3589.37	0.798
3598.07	0.795
3606.78	0.7911
3615.49	0.7942
3624.19	0.795
3632.9	0.795
3641.6	0.793
3650.31	0.793
3659.02	0.792
3667.72	0.791
3676.43	0.789
3685.14	0.7865
3693.84	0.784
3702.55	0.783
3711.25	0.783
3719.96	0.785
3728.67	0.785
3737.37	0.784
3746.08	0.783
3754.79	0.7795
3763.49	0.774
3772.2	0.7725
3780.9	0.769
3789.61	0.769
3798.32	0.767
3807.02	0.763
3815.73	0.763
3824.43	0.763
3833.14	0.765
3841.85	0.762
3850.55	0.7601
3859.26	0.7563
3867.97	0.7514
3876.67	0.753
3885.38	0.754
3894.08	0.7537
3902.79	0.7502
