Infrared Spectrum: DIETHYLENE GLYCOL DISTEARATE
Formula: C40 H78 O5
CAS: 109-30-8
State: SOLUTION (10% CCl4 FOR 2.5-7.5, 10% CS2 FOR 7.5-16 MICRON)
Class: COBLENTZ
Instrument: Not specified, most likely a prism, grating, or hybrid spectrometer.
Sampling: TRANSMISSION
Path length: 0.01 CM, 0.01 CM
Resolution: 4
Origin: DOW CHEMICAL COMPANY
MICROMETERS	TRANSMITTANCE
1.999	0.888
2.03799	0.882
2.07697	0.883
2.11596	0.882
2.15494	0.88
2.19393	0.875
2.23292	0.856
2.2719	0.849
2.31089	0.851
2.34987	0.854
2.38886	0.859
2.42785	0.867
2.46683	0.873
2.50582	0.875
2.5448	0.88
2.58379	0.88
2.62278	0.882
2.66176	0.875
2.70075	0.878
2.73973	0.869
2.77872	0.87
2.81771	0.873
2.85669	0.87
2.89568	0.88
2.93466	0.883
2.97365	0.883
3.01264	0.882
3.05162	0.877
3.09061	0.873
3.12959	0.867
3.16858	0.862
3.20757	0.849
3.24655	0.825
3.28554	0.768
3.32452	0.581
3.36351	0.155
3.4025	0.053
3.44148	0.166
3.48047	0.226
3.51945	0.675
3.55844	0.783
3.59743	0.815
3.63641	0.827
3.6754	0.83
3.71438	0.831
3.75337	0.852
3.79236	0.864
3.83134	0.873
3.87033	0.88
3.90931	0.883
3.9483	0.885
3.98729	0.89
4.02627	0.89
4.06526	0.893
4.10424	0.888
4.14323	0.89
4.18222	0.885
4.2212	0.875
4.26019	0.873
4.29917	0.875
4.33816	0.878
4.37715	0.883
4.41613	0.89
4.45512	0.894
4.4941	0.896
4.53309	0.896
4.57208	0.894
4.61106	0.898
4.65005	0.898
4.68903	0.903
4.72802	0.896
4.76701	0.894
4.80599	0.893
4.84498	0.888
4.88396	0.886
4.92295	0.886
4.96194	0.885
5.00092	0.883
5.03991	0.888
5.07889	0.886
5.11788	0.886
5.15687	0.89
5.19585	0.893
5.23484	0.888
5.27382	0.891
5.31281	0.888
5.35179	0.885
5.39078	0.885
5.42977	0.88
5.46875	0.873
5.50774	0.862
5.54672	0.836
5.58571	0.812
5.6247	0.726
5.66368	0.544
5.70267	0.234
5.74165	0.079
5.78064	0.348
5.81963	0.652
5.85861	0.757
5.8976	0.806
5.93658	0.844
5.97557	0.857
6.01456	0.87
6.05354	0.872
6.09253	0.864
6.13151	0.844
6.1705	0.817
6.20949	0.759
6.24847	0.681
6.28746	0.63
6.32644	0.602
6.36543	0.554
6.40442	0.494
6.4434	0.474
6.48239	0.558
6.52137	0.61
6.56036	0.651
6.59935	0.688
6.63833	0.749
6.67732	0.76
6.7163	0.731
6.75529	0.562
6.79428	0.29
6.83326	0.363
6.87225	0.497
6.91123	0.546
6.95022	0.641
6.98921	0.667
7.02819	0.665
7.06718	0.735
7.10616	0.715
7.14515	0.638
7.18414	0.612
7.22312	0.56
7.26211	0.57
7.30109	0.591
7.34008	0.594
7.37907	0.575
7.41805	0.599
7.45704	0.651
7.49602	0.66
7.53501	0.63
7.574	0.602
7.61298	0.575
7.65197	0.549
7.69095	0.536
7.72994	0.536
7.76893	0.533
7.80791	0.523
7.8469	0.52
7.88588	0.502
7.92487	0.46
7.96386	0.416
8.00284	0.405
8.04183	0.42
8.08081	0.441
8.1198	0.457
8.15879	0.474
8.19777	0.479
8.23676	0.47
8.27574	0.452
8.31473	0.423
8.35372	0.379
8.3927	0.334
8.43169	0.281
8.47067	0.234
8.50966	0.219
8.54865	0.229
8.58763	0.274
8.62662	0.319
8.6656	0.336
8.70459	0.303
8.74358	0.248
8.78256	0.229
8.82155	0.26
8.86053	0.315
8.89952	0.342
8.93851	0.344
8.97749	0.368
9.01648	0.424
9.05546	0.473
9.09445	0.489
9.13344	0.502
9.17242	0.529
9.21141	0.558
9.25039	0.576
9.28938	0.588
9.32837	0.592
9.36735	0.591
9.40634	0.579
9.44532	0.57
9.48431	0.563
9.5233	0.571
9.56228	0.592
9.60127	0.623
9.64025	0.659
9.67924	0.691
9.71823	0.718
9.75721	0.746
9.7962	0.76
9.83518	0.77
9.87417	0.78
9.91316	0.788
9.95214	0.793
9.99113	0.799
10.0301	0.804
10.0691	0.807
10.1081	0.809
10.1471	0.814
10.1861	0.809
10.225	0.802
10.264	0.786
10.303	0.772
10.342	0.759
10.381	0.752
10.42	0.752
10.459	0.76
10.4979	0.765
10.5369	0.775
10.5759	0.778
10.6149	0.781
10.6539	0.786
10.6929	0.786
10.7319	0.785
10.7708	0.783
10.8098	0.783
10.8488	0.785
10.8878	0.785
10.9268	0.786
10.9658	0.788
11.0048	0.785
11.0437	0.781
11.0827	0.78
11.1217	0.775
11.1607	0.765
11.1997	0.754
11.2387	0.743
11.2777	0.725
11.3167	0.707
11.3556	0.683
11.3946	0.668
11.4336	0.652
11.4726	0.639
11.5116	0.628
11.5506	0.618
11.5896	0.609
11.6285	0.602
11.6675	0.604
11.7065	0.61
11.7455	0.625
11.7845	0.647
11.8235	0.673
11.8625	0.702
11.9014	0.728
11.9404	0.747
11.9794	0.757
12.0184	0.764
12.0574	0.767
12.0964	0.768
12.1354	0.77
12.1743	0.77
12.2133	0.773
12.2523	0.767
12.2913	0.765
12.3303	0.765
12.3693	0.764
12.4083	0.768
12.4472	0.768
12.4862	0.768
12.5252	0.768
12.5642	0.768
12.6032	0.768
12.6422	0.768
12.6812	0.768
12.7201	0.768
12.7591	0.77
12.7981	0.772
12.8371	0.77
12.8761	0.772
12.9151	0.773
12.9541	0.772
12.993	0.77
13.032	0.77
13.071	0.77
13.11	0.767
13.149	0.765
13.188	0.765
13.227	0.762
13.266	0.76
13.3049	0.759
13.3439	0.752
13.3829	0.747
13.4219	0.739
13.4609	0.73
13.4999	0.723
13.5389	0.714
13.5778	0.699
13.6168	0.689
13.6558	0.673
13.6948	0.655
13.7338	0.638
13.7728	0.61
13.8118	0.586
13.8507	0.563
13.8897	0.55
13.9287	0.567
13.9677	0.589
14.0067	0.609
14.0457	0.625
14.0847	0.639
14.1236	0.647
14.1626	0.652
14.2016	0.655
14.2406	0.657
14.2796	0.654
14.3186	0.651
14.3576	0.646
14.3965	0.642
14.4355	0.644
14.4745	0.641
14.5135	0.638
14.5525	0.634
14.5915	0.631
14.6305	0.625
14.6694	0.62
14.7084	0.61
14.7474	0.602
14.7864	0.6
14.8254	0.591
14.8644	0.581
14.9034	0.571
14.9423	0.562
14.9813	0.558
15.0203	0.555
15.0593	0.542
15.0983	0.531
15.1373	0.521
15.1763	0.512
15.2152	0.502
15.2542	0.491
15.2932	0.478
15.3322	0.471
15.3712	0.465
15.4102	0.458
15.4492	0.452
15.4882	0.445
15.5271	0.439
15.5661	0.431
15.6051	0.426
15.6441	0.421
15.6831	0.416
15.7221	0.41
15.7611	0.402
15.8	0.395
15.839	0.389
15.878	0.386
