Infrared Spectrum: Nonanedioic acid, dihexyl ester
Formula: C21 H40 O4
CAS: 109-31-9
State: SOLUTION, 10% CCl4 FOR 2.7-7.5, 10% CS2 FOR 7.5-26 MICRON) VS SOLVENT
Class: COBLENTZ III
Instrument: DOW KBr FOREPRISM-GRATING
Instrument parameters: BLAZED AT 3.5, 12.0, 20.0 MICRON AND CHANGED AT 5.0, 7.5, 14.9 MICRON
Sampling: TRANSMISSION
Path length: 0.011 CM, 0.011 CM
Resolution: 2
Origin: DOW CHEMICAL COMPANY
1/CM	TRANSMITTANCE
3800	0.8598
3791	0.8593
3782	0.8588
3773	0.8586
3764	0.8585
3755	0.8585
3746	0.8584
3737	0.8583
3728	0.8587
3719	0.8591
3710	0.8595
3701	0.8598
3692	0.86
3683	0.8592
3674	0.859
3665	0.8595
3656	0.8608
3647	0.862
3638	0.8617
3629	0.8582
3620	0.8598
3611	0.8618
3602	0.8638
3593	0.8657
3584	0.8678
3575	0.8704
3566	0.8702
3557	0.8694
3548	0.8692
3539	0.8696
3530	0.8705
3521	0.8724
3512	0.8743
3503	0.8764
3494	0.8782
3485	0.8794
3476	0.8798
3467	0.8758
3458	0.8671
3449	0.8591
3440	0.855
3431	0.863
3422	0.8705
3413	0.8773
3404	0.8839
3395	0.8889
3386	0.8902
3377	0.8874
3368	0.8858
3359	0.8849
3350	0.8842
3341	0.8849
3332	0.8856
3323	0.886
3314	0.8865
3305	0.8868
3296	0.8874
3287	0.8878
3278	0.8884
3269	0.8888
3260	0.8891
3251	0.889
3242	0.8882
3233	0.8874
3224	0.8862
3215	0.8845
3206	0.8827
3197	0.8808
3188	0.8789
3179	0.8771
3170	0.8754
3161	0.8737
3152	0.8724
3143	0.8717
3134	0.8713
3125	0.8706
3116	0.8692
3107	0.8674
3098	0.8651
3089	0.8621
3080	0.8582
3071	0.8525
3062	0.8446
3053	0.8362
3044	0.8267
3035	0.8131
3026	0.7998
3017	0.7808
3008	0.7318
2999	0.6389
2990	0.3494
2981	0.1531
2972	0.0325
2963	0.0234
2954	0.048
2945	0.048
2936	0.0257
2927	0.0304
2918	0.0882
2909	0.1552
2900	0.218
2891	0.2733
2882	0.1155
2873	0.1693
2864	0.1421
2855	0.2022
2846	0.5134
2837	0.6105
2828	0.6804
2819	0.7251
2810	0.7585
2801	0.7801
2792	0.7975
2783	0.809
2774	0.8165
2765	0.8214
2756	0.8228
2747	0.8193
2738	0.8161
2729	0.8151
2720	0.8197
2711	0.8236
2702	0.8268
2693	0.8289
2684	0.8301
2675	0.8309
2666	0.8318
2657	0.8349
2648	0.839
2639	0.8421
2630	0.8446
2621	0.8459
2612	0.8456
2603	0.8453
2594	0.8459
2585	0.8478
2576	0.8507
2567	0.8538
2558	0.856
2549	0.8577
2540	0.8595
2531	0.8609
2522	0.8623
2513	0.8636
2504	0.8648
2495	0.8657
2486	0.8666
2477	0.8671
2468	0.8677
2459	0.868
2450	0.8675
2441	0.8671
2432	0.8667
2423	0.8659
2414	0.8651
2405	0.8639
2396	0.8624
2387	0.862
2378	0.8625
2369	0.8635
2360	0.8642
2351	0.8647
2342	0.8654
2333	0.8647
2324	0.8604
2315	0.8573
2306	0.8584
2297	0.8596
2288	0.8609
2279	0.8621
2270	0.8632
2261	0.8643
2252	0.8654
2243	0.8664
2234	0.8674
2225	0.8683
2216	0.8689
2207	0.8694
2198	0.8699
2189	0.8716
2180	0.8781
2171	0.8715
2162	0.8699
2153	0.8699
2144	0.8702
2135	0.8699
2126	0.869
2117	0.8678
2108	0.8667
2099	0.8658
2090	0.8649
2081	0.864
2072	0.8633
2063	0.8625
2054	0.8623
2045	0.8621
2036	0.8618
2027	0.8614
2018	0.8617
2009	0.8621
2000	0.8668
1991	0.8689
1982	0.8698
1973	0.8706
1964	0.8704
1955	0.8698
1946	0.8694
1937	0.8693
1928	0.8691
1919	0.869
1910	0.8688
1901	0.8683
1892	0.8678
1883	0.8668
1874	0.8657
1865	0.8654
1856	0.8642
1847	0.8611
1838	0.8582
1829	0.8561
1820	0.849
1811	0.8371
1802	0.8208
1793	0.8035
1784	0.7781
1775	0.7465
1766	0.6831
1757	0.557
1748	0.2878
1739	0.0074
1730	0.0022
1721	0.0358
1712	0.3574
1703	0.5412
1694	0.6183
1685	0.6997
1676	0.75
1667	0.7765
1658	0.7964
1649	0.8118
1640	0.8227
1631	0.8309
1622	0.8363
1613	0.8421
1604	0.8471
1595	0.8513
1586	0.8536
1577	0.8503
1568	0.8503
1559	0.8521
1550	0.8556
1541	0.8568
1532	0.8498
1523	0.8399
1514	0.8287
1505	0.8147
1496	0.7937
1487	0.744
1478	0.4815
1469	0.1849
1460	0.2509
1451	0.4414
1442	0.5352
1433	0.5843
1424	0.5101
1415	0.6146
1406	0.6718
1397	0.4199
1388	0.3575
1379	0.388
1370	0.4548
1361	0.3952
1352	0.3958
1343	0.4326
1334	0.4662
1325	0.4951
1316	0.443
1307	0.4281
1298	0.4182
1289	0.4155
1280	0.3676
1271	0.3209
1262	0.2722
1253	0.225
1244	0.2004
1235	0.2113
1226	0.2316
1217	0.2463
1208	0.2402
1199	0.1937
1190	0.1296
1181	0.0782
1172	0.0602
1163	0.0808
1154	0.1623
1145	0.2395
1136	0.2932
1127	0.3139
1118	0.4059
1109	0.4927
1100	0.4576
1091	0.4095
1082	0.4393
1073	0.5122
1064	0.5572
1055	0.5733
1046	0.5624
1037	0.5729
1028	0.5764
1019	0.5508
1010	0.4596
1001	0.4578
992	0.5447
983	0.631
974	0.6589
965	0.6615
956	0.6365
947	0.6433
938	0.6971
929	0.7134
920	0.7243
911	0.7331
902	0.7278
893	0.7264
884	0.7414
875	0.7544
866	0.761
857	0.7719
848	0.7918
839	0.804
830	0.7728
821	0.7598
812	0.7771
803	0.7903
794	0.7937
785	0.7781
776	0.7128
767	0.7291
758	0.7548
749	0.759
740	0.7736
731	0.7568
722	0.7357
713	0.7968
704	0.8104
695	0.8245
686	0.8367
677	0.8405
668	0.8473
659	0.8556
650	0.838
641	0.8333
632	0.8297
623	0.829
614	0.814
605	0.8028
596	0.8018
587	0.8021
578	0.8036
569	0.8086
560	0.8137
551	0.8171
542	0.8199
533	0.8137
524	0.8062
515	0.8069
506	0.8078
497	0.8065
488	0.7885
479	0.7903
470	0.7944
461	0.7975
452	0.7996
443	0.8001
434	0.8001
425	0.8006
416	0.8015
407	0.804
398	0.8069
