Infrared Spectrum: ACETAMIDE, N-(Beta,3,4-TRIHYDROXYPHENETHYL)-, 3,4-DIACETATE
Formula: C14 H17 N O6
CAS: 109038-67-7
State: SOLID (1 mg / 200 mg KBr DISC)
Class: COBLENTZ III
Instrument: PERKIN-ELMER 21 (GRATING)
Instrument parameters: FILTER AT ABOUT 10 MICRONS
Sampling: TRANSMISSION
Resolution: 2
1/CM	TRANSMITTANCE
4000	0.7564
3991	0.7571
3982	0.7578
3973	0.7587
3964	0.7595
3955	0.7601
3946	0.7607
3937	0.7612
3928	0.7618
3919	0.7624
3910	0.7628
3901	0.7634
3892	0.7639
3883	0.7642
3874	0.7646
3865	0.7651
3856	0.7656
3847	0.7658
3838	0.7661
3829	0.7664
3820	0.7667
3811	0.7668
3802	0.7668
3793	0.7668
3784	0.7667
3775	0.7658
3766	0.7649
3757	0.7641
3748	0.7625
3739	0.7605
3730	0.7583
3721	0.7561
3712	0.7526
3703	0.7482
3694	0.7421
3685	0.7351
3676	0.7275
3667	0.7171
3658	0.7071
3649	0.6993
3640	0.6919
3631	0.6636
3622	0.6507
3613	0.6398
3604	0.6289
3595	0.6179
3586	0.6068
3577	0.5957
3568	0.5845
3559	0.5732
3550	0.562
3541	0.5507
3532	0.5392
3523	0.5278
3514	0.5162
3505	0.5047
3496	0.493
3487	0.4814
3478	0.4696
3469	0.4577
3460	0.4487
3451	0.4449
3442	0.4432
3433	0.444
3424	0.4487
3415	0.453
3406	0.456
3397	0.4567
3388	0.4431
3379	0.4284
3370	0.4136
3361	0.4023
3352	0.4022
3343	0.4186
3334	0.4601
3325	0.5027
3316	0.5422
3307	0.563
3298	0.5783
3289	0.5905
3280	0.6007
3271	0.6106
3262	0.6218
3253	0.6318
3244	0.6404
3235	0.6524
3226	0.663
3217	0.675
3208	0.6799
3199	0.6828
3190	0.6819
3181	0.6778
3172	0.6718
3163	0.6672
3154	0.6651
3145	0.6655
3136	0.6749
3127	0.6878
3118	0.7007
3109	0.7139
3100	0.7254
3091	0.733
3082	0.7365
3073	0.7383
3064	0.7395
3055	0.7399
3046	0.7393
3037	0.7358
3028	0.7269
3019	0.7106
3010	0.6911
3001	0.6761
2992	0.6725
2983	0.6728
2974	0.6857
2965	0.7075
2956	0.7204
2947	0.7217
2938	0.7221
2929	0.7234
2920	0.7255
2911	0.7278
2902	0.7308
2893	0.7349
2884	0.7425
2875	0.7525
2866	0.7621
2857	0.7681
2848	0.7719
2839	0.7758
2830	0.7797
2821	0.7834
2812	0.7871
2803	0.7904
2794	0.7933
2785	0.7947
2776	0.796
2767	0.7971
2758	0.7982
2749	0.7991
2740	0.8001
2731	0.8011
2722	0.8019
2713	0.803
2704	0.8042
2695	0.8053
2686	0.8065
2677	0.8075
2668	0.8088
2659	0.8098
2650	0.8104
2641	0.8111
2632	0.8117
2623	0.8124
2614	0.8131
2605	0.814
2596	0.815
2587	0.8158
2578	0.8168
2569	0.8178
2560	0.8187
2551	0.8194
2542	0.8199
2533	0.8205
2524	0.8211
2515	0.8218
2506	0.822
2497	0.8223
2488	0.8224
2479	0.8223
2470	0.8221
2461	0.8218
2452	0.8217
2443	0.8215
2434	0.8212
2425	0.821
2416	0.8206
2407	0.8203
2398	0.8198
2389	0.8206
2380	0.8227
2371	0.8248
2362	0.8267
2353	0.8283
2344	0.8296
2335	0.8308
2326	0.832
2317	0.8331
2308	0.8337
2299	0.8337
2290	0.8338
2281	0.8338
2272	0.8328
2263	0.8318
2254	0.8291
2245	0.8287
2236	0.8295
2227	0.8299
2218	0.8303
2209	0.8305
2200	0.8305
2191	0.8302
2182	0.8294
2173	0.8284
2164	0.8251
2155	0.8211
2146	0.8185
2137	0.8171
2128	0.8164
2119	0.8158
2110	0.8149
2101	0.813
2092	0.8111
2083	0.8097
2074	0.8076
2065	0.8068
2056	0.8065
2047	0.8061
2038	0.8058
2029	0.8051
2020	0.8048
2011	0.8041
2002	0.8035
1993	0.8028
1984	0.8022
1975	0.801
1966	0.7989
1957	0.7922
1948	0.7858
1939	0.7792
1930	0.7726
1921	0.7674
1912	0.7646
1903	0.7587
1894	0.7501
1885	0.7387
1876	0.726
1867	0.7118
1858	0.6869
1849	0.6576
1840	0.6387
1831	0.6126
1822	0.5676
1813	0.5103
1804	0.4179
1795	0.2364
1786	0.2057
1777	0.2662
1768	0.4452
1759	0.6185
1750	0.6972
1741	0.7358
1732	0.7475
1723	0.748
1714	0.7382
1705	0.6925
1696	0.6148
1687	0.5378
1678	0.4678
1669	0.3968
1660	0.3262
1651	0.3007
1642	0.3512
1633	0.4412
1624	0.5255
1615	0.5572
1606	0.5674
1597	0.5638
1588	0.4984
1579	0.4107
1570	0.4005
1561	0.4641
1552	0.5264
1543	0.5783
1534	0.5957
1525	0.4867
1516	0.4123
1507	0.5516
1498	0.6456
1489	0.6562
1480	0.6187
1471	0.5941
1462	0.526
1453	0.5156
1444	0.454
1435	0.4381
1426	0.5114
1417	0.5551
1408	0.5604
1399	0.4806
1390	0.3558
1381	0.2903
1372	0.5445
1363	0.6604
1354	0.6965
1345	0.6894
1336	0.6664
1327	0.6207
1318	0.6025
1309	0.5747
1300	0.5562
1291	0.5399
1282	0.4803
1273	0.4306
1264	0.3548
1255	0.3743
1246	0.446
1237	0.3274
1228	0.1983
1219	0.098
1210	0.1061
1201	0.1537
1192	0.2794
1183	0.2157
1174	0.2287
1165	0.3773
1156	0.4619
1147	0.4681
1138	0.5473
1129	0.5849
1120	0.4753
1111	0.3478
1102	0.3484
1093	0.3645
1084	0.4721
1075	0.5481
1066	0.5259
1057	0.4799
1048	0.5165
1039	0.5878
1030	0.6209
1021	0.4662
1012	0.4486
1003	0.5755
994	0.6451
985	0.6796
976	0.68
967	0.6196
958	0.6608
949	0.6464
940	0.7081
931	0.7421
922	0.665
913	0.5778
904	0.4938
895	0.4804
886	0.6355
877	0.6356
868	0.7124
859	0.6761
850	0.6661
841	0.5712
832	0.5799
823	0.7235
814	0.7618
805	0.7604
796	0.6954
787	0.7305
778	0.719
769	0.755
760	0.7708
751	0.7728
742	0.7668
733	0.7533
724	0.7365
715	0.6951
706	0.7058
697	0.6957
688	0.6989
679	0.7281
670	0.7321
