Infrared Spectrum: 3,4-DICHLOROBENZOIC ACID, 4-SEC-BUTYLPHENYL ESTER
Formula: C17 H16 Cl2 O2
CAS: 109157-31-5
State: SOLUTION (10% IN CCl4 FOR 5000-1350 CM^-^1, 10% IN CS2 FOR 1350-625 CM^-^1)
Class: COBLENTZ
Instrument: Not specified, most likely a prism, grating, or hybrid spectrometer.
Sampling: TRANSMISSION
Path length: 0.01 CM, 0.01 CM
Resolution: 4
Origin: DOW CHEMICAL COMPANY
MICROMETERS	TRANSMITTANCE
2.026	0.869
2.06522	0.871
2.10443	0.862
2.14365	0.871
2.18286	0.872
2.22208	0.872
2.26129	0.862
2.30051	0.866
2.33972	0.869
2.37894	0.871
2.41815	0.867
2.45737	0.874
2.49658	0.877
2.5358	0.88
2.57501	0.879
2.61423	0.876
2.65344	0.884
2.69266	0.877
2.73187	0.88
2.77109	0.871
2.8103	0.869
2.84952	0.866
2.88873	0.858
2.92795	0.871
2.96716	0.861
3.00638	0.862
3.04559	0.861
3.08481	0.853
3.12402	0.84
3.16324	0.833
3.20245	0.812
3.24167	0.781
3.28088	0.753
3.3201	0.734
3.35931	0.474
3.39853	0.398
3.43774	0.556
3.47696	0.593
3.51617	0.82
3.55539	0.856
3.5946	0.871
3.63382	0.876
3.67303	0.877
3.71225	0.88
3.75146	0.89
3.79068	0.89
3.82989	0.889
3.86911	0.884
3.90832	0.882
3.94754	0.898
3.98675	0.9
4.02597	0.907
4.06518	0.908
4.1044	0.903
4.14361	0.895
4.18283	0.9
4.22204	0.876
4.26126	0.871
4.30047	0.876
4.33969	0.88
4.3789	0.887
4.41812	0.908
4.45733	0.924
4.49655	0.929
4.53576	0.929
4.57498	0.921
4.61419	0.918
4.65341	0.911
4.69262	0.908
4.73184	0.913
4.77106	0.918
4.81027	0.924
4.84949	0.916
4.8887	0.91
4.92792	0.893
4.96713	0.889
5.00635	0.897
5.04556	0.889
5.08478	0.903
5.12399	0.911
5.16321	0.902
5.20242	0.876
5.24164	0.88
5.28085	0.851
5.32007	0.893
5.35928	0.885
5.3985	0.884
5.43771	0.879
5.47693	0.861
5.51614	0.833
5.55536	0.822
5.59457	0.81
5.63379	0.725
5.673	0.481
5.71222	0.11
5.75143	0.13
5.79065	0.577
5.82986	0.753
5.86908	0.781
5.90829	0.835
5.94751	0.831
5.98672	0.818
6.02594	0.827
6.06515	0.838
6.10437	0.827
6.14358	0.802
6.1828	0.711
6.22201	0.553
6.26123	0.368
6.30044	0.433
6.33966	0.494
6.37887	0.404
6.41809	0.402
6.4573	0.432
6.49652	0.535
6.53573	0.562
6.57495	0.491
6.61416	0.314
6.65338	0.35
6.69259	0.613
6.73181	0.628
6.77102	0.471
6.81024	0.329
6.84945	0.548
6.88867	0.696
6.92788	0.745
6.9671	0.753
7.00631	0.716
7.04553	0.729
7.08474	0.745
7.12396	0.701
7.16317	0.564
7.20239	0.309
7.2416	0.386
7.28082	0.722
7.32003	0.776
7.35925	0.787
7.39847	0.768
7.43768	0.786
7.4769	0.802
7.51611	0.789
7.55533	0.771
7.59454	0.698
7.63376	0.611
7.67297	0.5
7.71219	0.42
7.7514	0.226
7.79062	0.097
7.82983	0.05
7.86905	0.029
7.90826	0.185
7.94748	0.468
7.98669	0.425
8.02591	0.115
8.06512	0.037
8.10434	0.042
8.14355	0.15
8.18277	0.309
8.22198	0.225
8.2612	0.076
8.30041	0.045
8.33963	0.017
8.37884	0.128
8.41806	0.43
8.45727	0.579
8.49649	0.482
8.5357	0.195
8.57492	0.311
8.61413	0.646
8.65335	0.725
8.69256	0.693
8.73178	0.613
8.77099	0.549
8.81021	0.528
8.84942	0.559
8.88864	0.611
8.92785	0.725
8.96707	0.763
9.00628	0.721
9.0455	0.65
9.08471	0.546
9.12393	0.401
9.16314	0.195
9.20236	0.166
9.24157	0.154
9.28079	0.081
9.32	0.236
9.35922	0.365
9.39843	0.448
9.43765	0.57
9.47686	0.716
9.51608	0.763
9.55529	0.748
9.59451	0.646
9.63372	0.394
9.67294	0.199
9.71215	0.626
9.75137	0.683
9.79058	0.522
9.8298	0.414
9.86901	0.69
9.90823	0.799
9.94744	0.812
9.98666	0.768
10.0259	0.755
10.0651	0.849
10.1043	0.884
10.1435	0.898
10.1827	0.903
10.222	0.903
10.2612	0.903
10.3004	0.902
10.3396	0.882
10.3788	0.854
10.418	0.82
10.4572	0.84
10.4965	0.872
10.5357	0.889
10.5749	0.892
10.6141	0.869
10.6533	0.859
10.6925	0.88
10.7317	0.887
10.771	0.887
10.8102	0.88
10.8494	0.871
10.8886	0.854
10.9278	0.804
10.967	0.704
11.0063	0.608
11.0455	0.588
11.0847	0.541
11.1239	0.549
11.1631	0.528
11.2023	0.427
11.2415	0.383
11.2808	0.543
11.32	0.628
11.3592	0.659
11.3984	0.668
11.4376	0.672
11.4768	0.662
11.516	0.646
11.5553	0.613
11.5945	0.58
11.6337	0.562
11.6729	0.553
11.7121	0.53
11.7513	0.489
11.7906	0.433
11.8298	0.399
11.869	0.404
11.9082	0.409
11.9474	0.378
11.9866	0.344
12.0258	0.37
12.0651	0.44
12.1043	0.512
12.1435	0.546
12.1827	0.551
12.2219	0.539
12.2611	0.531
12.3003	0.541
12.3396	0.587
12.3788	0.629
12.418	0.668
12.4572	0.69
12.4964	0.698
12.5356	0.698
12.5749	0.701
12.6141	0.696
12.6533	0.683
12.6925	0.675
12.7317	0.688
12.7709	0.693
12.8101	0.675
12.8494	0.631
12.8886	0.579
12.9278	0.549
12.967	0.57
13.0062	0.621
13.0454	0.668
13.0847	0.686
13.1239	0.662
13.1631	0.606
13.2023	0.508
13.2415	0.368
13.2807	0.185
13.3199	0.101
13.3592	0.21
13.3984	0.417
13.4376	0.605
13.4768	0.68
13.516	0.707
13.5552	0.719
13.5944	0.727
13.6337	0.734
13.6729	0.729
13.7121	0.722
13.7513	0.716
13.7905	0.704
13.8297	0.68
13.869	0.668
13.9082	0.688
13.9474	0.704
13.9866	0.717
14.0258	0.724
14.065	0.722
14.1042	0.722
14.1435	0.719
14.1827	0.711
14.2219	0.701
14.2611	0.693
14.3003	0.683
14.3395	0.678
14.3787	0.665
14.418	0.65
14.4572	0.632
14.4964	0.621
14.5356	0.619
14.5748	0.619
14.614	0.61
14.6533	0.582
14.6925	0.526
14.7317	0.476
14.7709	0.427
14.8101	0.417
14.8493	0.44
14.8885	0.464
14.9278	0.502
14.967	0.543
15.0062	0.562
15.0454	0.559
15.0846	0.549
15.1238	0.544
15.163	0.531
15.2023	0.522
15.2415	0.513
15.2807	0.505
15.3199	0.499
15.3591	0.494
15.3983	0.489
15.4376	0.482
15.4768	0.474
15.516	0.469
15.5552	0.46
15.5944	0.455
15.6336	0.448
15.6728	0.442
15.7121	0.435
15.7513	0.427
15.7905	0.419
15.8297	0.412
15.8689	0.411
