Infrared Spectrum: 2-Fluoro-6-(trifluoromethyl)benzoyl chloride
Formula: C 8 H 3 Cl F 4 O
CAS: 109227-12-5
State: gas
Origin: EPA-IR VAPOR PHASE LIBRARY
1/CM	ABSORBANCE
549.8	0.00448
559.445	0.00497
569.09	0.00571
578.734	0.00521
588.379	0.00523
598.024	0.00306
607.669	0.00333
617.313	0.00348
626.958	0.00356
636.603	0.00391
646.248	0.00359
655.893	0.00484
665.537	0.01421
675.182	0.02961
684.827	0.02049
694.472	0.00853
704.116	0.00509
713.761	0.00409
723.406	0.00648
733.051	0.01404
742.695	0.01512
752.34	0.01028
761.985	0.00922
771.63	0.00379
781.275	0.00335
790.919	0.00663
800.564	0.01729
810.209	0.01219
819.854	0.00859
829.498	0.00531
839.143	0.00592
848.788	0.00992
858.433	0.02292
868.078	0.05279
877.722	0.06198
887.367	0.0302
897.012	0.01604
906.657	0.02908
916.301	0.03337
925.946	0.01222
935.591	0.0075
945.236	0.0064
954.88	0.00386
964.525	0.00427
974.17	0.00336
983.815	0.0027646
993.46	0.0025481
1003.1	0.0027778
1012.75	0.0027552
1022.39	0.00368
1032.04	0.0021034
1041.68	0.0036
1051.33	0.00326
1060.97	0.00471
1070.62	0.00554
1080.26	0.00354
1089.91	0.0039
1099.55	0.00741
1109.2	0.00769
1118.84	0.01782
1128.49	0.04119
1138.13	0.03814
1147.78	0.04829
1157.42	0.09863
1167.07	0.11155
1176.71	0.06601
1186.36	0.07508
1196	0.06291
1205.64	0.04311
1215.29	0.01786
1224.93	0.01139
1234.58	0.0103
1244.22	0.01018
1253.87	0.02674
1263.51	0.04041
1273.16	0.01688
1282.8	0.01177
1292.45	0.01404
1302.09	0.02341
1311.74	0.06226
1321.38	0.119
1331.03	0.07389
1340.67	0.01848
1350.32	0.00758
1359.96	0.00562
1369.61	0.0046
1379.25	0.00413
1388.9	0.00402
1398.54	0.00372
1408.18	0.00341
1417.83	0.00354
1427.47	0.00453
1437.12	0.00684
1446.76	0.014
1456.41	0.02758
1466.05	0.02936
1475.7	0.01658
1485.34	0.00856
1494.99	0.00493
1504.63	0.00328
1514.28	0.00325
1523.92	0.00324
1533.57	0.0029
1543.21	0.0028726
1552.86	0.00324
1562.5	0.00368
1572.15	0.00554
1581.79	0.00808
1591.44	0.00752
1601.08	0.00593
1610.73	0.00769
1620.37	0.006
1630.01	0.00405
1639.66	0.00339
1649.3	0.00337
1658.95	0.0034
1668.59	0.00304
1678.24	0.00307
1687.88	0.0027835
1697.53	0.0037
1707.17	0.00408
1716.82	0.00472
1726.46	0.00647
1736.11	0.0083
1745.75	0.0086
1755.4	0.00882
1765.04	0.00899
1774.69	0.01017
1784.33	0.01377
1793.98	0.02981
1803.62	0.06074
1813.27	0.05895
1822.91	0.0263
1832.55	0.01027
1842.2	0.00685
1851.84	0.00548
1861.49	0.00467
1871.13	0.00481
1880.78	0.00437
1890.42	0.00298
1900.07	0.0027701
1909.71	0.0028175
1919.36	0.0024107
1929	0.0027555
1938.65	0.00331
1948.29	0.00307
1957.94	0.0022712
1967.58	0.0022428
1977.23	0.001781
1986.87	0.0018344
1996.52	0.00193151
2006.16	0.001597
2015.81	0.0020165
2025.45	0.001604
2035.1	0.0018038
2044.74	0.0020352
2054.38	0.0020921
2064.03	0.0020021
2073.67	0.00195051
2083.32	0.0021829
2092.96	0.0019934
2102.61	0.001801
2112.25	0.00190739
2121.9	0.00162
2131.54	0.0017
2141.19	0.001691
2150.83	0.001702
2160.48	0.00145
2170.12	0.001351
2179.77	0.0018069
2189.41	0.001762
2199.06	0.00167
2208.7	0.001774
2218.35	0.0018587
2227.99	0.001641
2237.64	0.001651
2247.28	0.001783
2256.92	0.0020201
2266.57	0.001838
2276.21	0.00194948
2285.86	0.0020021
2295.5	0.0018162
2305.15	0.001641
2314.79	0.001627
2324.44	0.0008
2334.08	0.001676
2343.73	0.001396
2353.37	0.001652
2363.02	0.002004
2372.66	0.0020128
2382.31	0.0020474
2391.95	0.001782
2401.6	0.001535
2411.24	0.0018207
2420.89	0.001587
2430.53	0.001689
2440.18	0.001022
2449.82	0.001317
2459.47	0.00137
2469.11	0.00124
2478.75	0.001317
2488.4	0.001604
2498.04	0.001547
2507.69	0.0018774
2517.33	0.001573
2526.98	0.001597
2536.62	0.001649
2546.27	0.001241
2555.91	0.000933
2565.56	0.001497
2575.2	0.001186
2584.85	0.001295
2594.49	0.001588
2604.14	0.001485
2613.78	0.001428
2623.43	0.001485
2633.07	0.001387
2642.72	0.001062
2652.36	0.001056
2662.01	0.001291
2671.65	0.001223
2681.29	0.000971
2690.94	0.001653
2700.58	0.001656
2710.23	0.001069
2719.87	0.001052
2729.52	0.001234
2739.16	0.001519
2748.81	0.001482
2758.45	0.001334
2768.1	0.00087
2777.74	0.001096
2787.39	0.001228
2797.03	0.000992
2806.68	0.000926
2816.32	0.001199
2825.97	0.00082
2835.61	0.001139
2845.26	0.00104
2854.9	0.00116
2864.55	0.001185
2874.19	0.001418
2883.84	0.00076
2893.48	0.001189
2903.12	0.00083
2912.77	0.001013
2922.41	0.00058
2932.06	0.001095
2941.7	0.00057
2951.35	0.000916
2960.99	0.001497
2970.64	0.001017
2980.28	0.00076
2989.93	0.00063
2999.57	0.001749
3009.22	0.001148
3018.86	0.000972
3028.51	0.000992
3038.15	0.00084
3047.8	0.001554
3057.44	0.001031
3067.09	0.00095
3076.73	0.001389
3086.38	0.00193474
3096.02	0.0020026
3105.67	0.001574
3115.31	0.00142
3124.95	0.00057
3134.6	0.001297
3144.24	0.001096
3153.89	0.00079
3163.53	0.001275
3173.18	0.001019
3182.82	0.001182
3192.47	0.001416
3202.11	0.00068
3211.76	0.00135
3221.4	0.001465
3231.05	0.001564
3240.69	0.001402
3250.34	0.0006
3259.98	0.00037
3269.63	0.001038
3279.27	0.001429
3288.92	0.001374
3298.56	0.0011
3308.21	0.001405
3317.85	0.0019545
3327.49	0.00098
3337.14	0.00083
3346.78	0.00061
3356.43	0.001142
3366.07	0.001071
3375.72	0.001659
3385.36	0.001341
3395.01	0.00156
3404.65	0.0021792
3414.3	0.001676
3423.94	0.001025
3433.59	0.001469
3443.23	0.00194239
3452.88	0.001232
3462.52	0.00145
3472.17	0.001151
3481.81	0.001379
3491.46	0.000991
3501.1	0.00023
3510.75	0.00154
3520.39	0.00084
3530.04	0.00165
3539.68	0.001426
3549.32	0.0022369
3558.97	0.0024939
3568.61	0.001779
3578.26	0.0022643
3587.9	0.0021252
3597.55	0.0018604
3607.19	0.00127
3616.84	0.0018384
3626.48	0.00177
3636.13	0.001578
3645.77	0.001541
3655.42	0.001705
3665.06	0.000924
3674.71	0.001649
3684.35	0.001514
3694	0.00076
3703.64	0.0018838
3713.29	0.001341
3722.93	0.00176
3732.58	0.00071
3742.22	0.001076
3751.86	0.001262
3761.51	0.001128
3771.15	0.000995
3780.8	0.001107
3790.44	0.001167
3800.09	0.0018167
3809.73	0.00071
3819.38	0
3829.02	0.00059
3838.67	0.00052
3848.31	0.001681
3857.96	0.00076
3867.6	0.001322
3877.25	0.001601
3886.89	0.001712
3896.54	0.001037
3906.18	0.001263
3915.83	0.001251
3925.47	0.001552
3935.12	0.001418
3944.76	0.000998
3954.41	0.00075
3964.05	0.001585
3973.69	0.00061
3983.34	0.001238
3992.98	0.00076
