Infrared Spectrum: Benzyl alcohol, Alpha-[1-(dimethylamino)ethyl]-, acetate, hydrochloride
Formula: C13 H20 Cl N O2
CAS: 109220-85-1
State: SOLID (NUJOL MULL)
Class: COBLENTZ III
Instrument: PERKIN-ELMER 21 (GRATING)
Instrument parameters: FILTER AT ABOUT 10 MICRONS
Resolution: 2
Origin: ABBOTT LABORATORIES
1/CM	TRANSMITTANCE
657	0.6808
666	0.6702
675	0.5782
684	0.7287
693	0.7135
702	0.4312
711	0.7449
720	0.7199
729	0.7042
738	0.4729
747	0.6294
756	0.7753
765	0.7939
774	0.7848
783	0.7303
792	0.8243
801	0.8276
810	0.815
819	0.8112
828	0.8046
837	0.7826
846	0.7481
855	0.8006
864	0.8049
873	0.8025
882	0.7695
891	0.7649
900	0.7432
909	0.639
918	0.7271
927	0.7555
936	0.7403
945	0.7108
954	0.746
963	0.7146
972	0.5553
981	0.6663
990	0.6831
999	0.5364
1008	0.6683
1017	0.5113
1026	0.3974
1035	0.6298
1044	0.5866
1053	0.4535
1062	0.668
1071	0.5066
1080	0.6949
1089	0.4802
1098	0.6578
1107	0.7491
1116	0.7494
1125	0.743
1134	0.7235
1143	0.6551
1152	0.5119
1161	0.6606
1170	0.6909
1179	0.6141
1188	0.6167
1197	0.5286
1206	0.5575
1215	0.4844
1224	0.2365
1233	0.0945
1242	0.251
1251	0.5586
1260	0.6631
1269	0.657
1278	0.6798
1287	0.6666
1296	0.6356
1305	0.6408
1314	0.6459
1323	0.6866
1332	0.6674
1341	0.6412
1350	0.5471
1359	0.4605
1368	0.2807
1377	0.4213
1386	0.623
1395	0.6948
1404	0.6536
1413	0.6588
1422	0.5695
1431	0.4536
1440	0.3066
1449	0.2045
1458	0.1884
1467	0.3744
1476	0.5383
1485	0.4746
1494	0.697
1503	0.7579
1512	0.7557
1521	0.7522
1530	0.748
1539	0.7453
1548	0.7445
1557	0.7466
1566	0.7414
1575	0.7306
1584	0.7384
1593	0.7295
1602	0.7505
1611	0.7571
1620	0.7529
1629	0.7448
1638	0.7316
1647	0.7234
1656	0.7241
1665	0.7165
1674	0.696
1683	0.6642
1692	0.622
1701	0.5786
1710	0.5065
1719	0.3524
1728	0.1642
1737	0.3714
1746	0.6226
1755	0.737
1764	0.773
1773	0.783
1782	0.7908
1791	0.7949
1800	0.7967
1809	0.7952
1818	0.7938
1827	0.7926
1836	0.7928
1845	0.7939
1854	0.7902
1863	0.785
1872	0.7835
1881	0.7827
1890	0.7815
1899	0.7799
1908	0.778
1917	0.7761
1926	0.7745
1935	0.773
1944	0.7702
1953	0.7643
1962	0.7535
1971	0.7537
1980	0.7563
1989	0.7564
1998	0.7536
2007	0.7484
2016	0.7418
2025	0.7332
2034	0.7219
2043	0.7164
2052	0.7117
2061	0.7026
2070	0.6913
2079	0.6779
2088	0.6627
2097	0.6462
2106	0.6301
2115	0.6157
2124	0.6044
2133	0.5931
2142	0.5793
2151	0.565
2160	0.5485
2169	0.5327
2178	0.518
2187	0.4999
2196	0.4796
2205	0.4574
2214	0.4304
2223	0.401
2232	0.3737
2241	0.3498
2250	0.3268
2259	0.3046
2268	0.2837
2277	0.2631
2286	0.248
2295	0.2482
2304	0.2515
2313	0.2602
2322	0.2696
2331	0.2776
2340	0.2851
2349	0.2921
2358	0.3017
2367	0.3176
2376	0.3576
2385	0.4067
2394	0.4265
2403	0.432
2412	0.4353
2421	0.4425
2430	0.5093
2439	0.5336
2448	0.5413
2457	0.5359
2466	0.5255
2475	0.5306
2484	0.5492
2493	0.5537
2502	0.553
2511	0.55
2520	0.5456
2529	0.5496
2538	0.574
2547	0.5853
2556	0.5958
2565	0.6063
2574	0.6214
2583	0.6444
2592	0.6482
2601	0.6521
2610	0.657
2619	0.6646
2628	0.6728
2637	0.6812
2646	0.687
2655	0.687
2664	0.6867
2673	0.6862
2682	0.6858
2691	0.6862
2700	0.689
2709	0.6888
2718	0.6868
2727	0.6801
2736	0.6648
2745	0.646
2754	0.6319
2763	0.6138
2772	0.5746
2781	0.5222
2790	0.4225
2799	0.3235
2808	0.2251
2817	0.1165
2826	0.0785
2835	0.0756
2844	0.0735
2853	0.0709
2862	0.0377
2871	0.0306
2880	0.0305
2889	0.033
2898	0.0399
2907	0.0535
2916	0.0753
2925	0.123
2934	0.2057
2943	0.2879
2952	0.3695
2961	0.4847
2970	0.5511
2979	0.5787
2988	0.5956
2997	0.6105
3006	0.6222
3015	0.6332
3024	0.644
3033	0.6557
3042	0.6645
3051	0.6715
3060	0.6752
3069	0.6764
3078	0.6779
3087	0.6797
3096	0.6816
3105	0.6833
3114	0.6853
3123	0.6871
3132	0.6888
3141	0.6899
3150	0.6909
3159	0.692
3168	0.6923
3177	0.6923
3186	0.6923
3195	0.6922
3204	0.6916
3213	0.6909
3222	0.6901
3231	0.6893
3240	0.6883
3249	0.6872
3258	0.6862
3267	0.6849
3276	0.6835
3285	0.6822
3294	0.6808
3303	0.6795
3312	0.6781
3321	0.6769
3330	0.6757
3339	0.6746
3348	0.6743
3357	0.6741
3366	0.6741
3375	0.6751
3384	0.6761
3393	0.6772
3402	0.6783
3411	0.6795
3420	0.6805
3429	0.6805
3438	0.6805
3447	0.6805
3456	0.6802
3465	0.68
3474	0.6797
3483	0.6793
3492	0.679
3501	0.6785
3510	0.6779
3519	0.6774
3528	0.6768
3537	0.6763
3546	0.6758
3555	0.6752
3564	0.6745
3573	0.6738
3582	0.6731
3591	0.6724
3600	0.6717
3609	0.671
3618	0.6703
3627	0.6695
3636	0.6686
3645	0.6678
3654	0.6668
3663	0.666
3672	0.665
3681	0.6639
3690	0.6627
3699	0.6616
3708	0.6604
3717	0.6593
3726	0.6582
3735	0.6571
3744	0.656
3753	0.6548
3762	0.6537
3771	0.6526
3780	0.6515
3789	0.6504
3798	0.6496
3807	0.6491
3816	0.6485
3825	0.648
3834	0.6475
3843	0.647
3852	0.6467
3861	0.6463
3870	0.6458
3879	0.6455
3888	0.6447
3897	0.643
3906	0.6406
3915	0.6376
3924	0.6355
3933	0.6339
3942	0.6326
3951	0.6314
3960	0.6306
3969	0.6299
3978	0.6294
3987	0.629
3996	0.6285
