Infrared Spectrum: Phenyl acridine-9-carboxylate
Formula: C 20 H 13 N O 2
CAS: 109392-90-7
State: gas
Origin: EPA-IR VAPOR PHASE LIBRARY
1/CM	ABSORBANCE
549.8	0.001698
559.445	0.0012701
569.09	0.0016891
578.734	0.002107
588.379	0.0014916
598.024	0.003667
607.669	0.002187
617.313	0.002077
626.958	0.0016765
636.603	0.003517
646.248	0.004347
655.893	0.002427
665.537	0.002467
675.182	0.002807
684.827	0.004707
694.472	0.003527
704.116	0.003477
713.761	0.003707
723.406	0.004577
733.051	0.007537
742.695	0.010187
752.34	0.014787
761.985	0.009227
771.63	0.005007
781.275	0.003107
790.919	0.003267
800.564	0.002547
810.209	0.002627
819.854	0.003837
829.498	0.003817
839.143	0.002137
848.788	0.002007
858.433	0.003667
868.078	0.002417
877.722	0.002247
887.367	0.002157
897.012	0.002477
906.657	0.002307
916.301	0.002017
925.946	0.0016293
935.591	0.0016704
945.236	0.002117
954.88	0.003127
964.525	0.007217
974.17	0.013707
983.815	0.006037
993.46	0.003307
1003.1	0.002817
1012.75	0.004957
1022.39	0.003777
1032.04	0.0016389
1041.68	0.000457
1051.33	0.0017071
1060.97	0.002437
1070.62	0.0010594
1080.26	0.002767
1089.91	0.0014017
1099.55	0.003507
1109.2	0.004657
1118.84	0.006757
1128.49	0.010857
1138.13	0.023997
1147.78	0.013077
1157.42	0.042287
1167.07	0.039537
1176.71	0.020387
1186.36	0.055037
1196	0.046667
1205.64	0.019337
1215.29	0.009807
1224.93	0.008327
1234.58	0.006927
1244.22	0.006457
1253.87	0.004897
1263.51	0.003207
1273.16	0.004377
1282.8	0.005997
1292.45	0.005047
1302.09	0.002777
1311.74	0.003227
1321.38	0.002967
1331.03	0.003647
1340.67	0.006477
1350.32	0.008537
1359.96	0.004587
1369.61	0.002857
1379.25	0.002427
1388.9	0.002107
1398.54	0.0018644
1408.18	0.002237
1417.83	0.002087
1427.47	0.001937
1437.12	0.002887
1446.76	0.002707
1456.41	0.003477
1466.05	0.004787
1475.7	0.004507
1485.34	0.009817
1494.99	0.012917
1504.63	0.004817
1514.28	0.006627
1523.92	0.004347
1533.57	0.002417
1543.21	0.002987
1552.86	0.003687
1562.5	0.002447
1572.15	0.002727
1581.79	0.004497
1591.44	0.007627
1601.08	0.004507
1610.73	0.002987
1620.37	0.002187
1630.01	0.002017
1639.66	0.0015805
1649.3	0.0017978
1658.95	0.0016571
1668.59	0.001967
1678.24	0.001947
1687.88	0.002047
1697.53	0.002597
1707.17	0.003177
1716.82	0.003767
1726.46	0.003347
1736.11	0.003807
1745.75	0.005547
1755.4	0.012127
1765.04	0.025827
1774.69	0.010807
1784.33	0.004807
1793.98	0.002967
1803.62	0.002857
1813.27	0.002337
1822.91	0.002497
1832.55	0.0018443
1842.2	0.0017855
1851.84	0.0012559
1861.49	0.0015345
1871.13	0.0014377
1880.78	0.0013054
1890.42	0.0014082
1900.07	0.0017578
1909.71	0.0018587
1919.36	0.0018938
1929	0.0018781
1938.65	0.001957
1948.29	0.002367
1957.94	0.0018589
1967.58	0.0013711
1977.23	0.0015245
1986.87	0.0014652
1996.52	0.0014242
2006.16	0.0015516
2015.81	0.0016135
2025.45	0.0012926
2035.1	0.0013516
2044.74	0.0013961
2054.38	0.0013294
2064.03	0.0012692
2073.67	0.0010935
2083.32	0.0011918
2092.96	0.0011942
2102.61	0.0013645
2112.25	0.0012814
2121.9	0.0010502
2131.54	0.0013127
2141.19	0.00100235
2150.83	0.0013471
2160.48	0.0013879
2170.12	0.0012093
2179.77	0.0010728
2189.41	0.0012329
2199.06	0.0011109
2208.7	0.0010787
2218.35	0.0011166
2227.99	0.0011023
2237.64	0.0010772
2247.28	0.0010599
2256.92	0.0012077
2266.57	0.0011411
2276.21	0.0012461
2285.86	0.0011353
2295.5	0.00095933
2305.15	0.0011906
2314.79	0.0012908
2324.44	0.0014222
2334.08	0.00101957
2343.73	0.00100963
2353.37	0.0014157
2363.02	0.0013077
2372.66	0.0010963
2382.31	0.0012896
2391.95	0.001375
2401.6	0.0011645
2411.24	0.0011741
2420.89	0.0011101
2430.53	0.00076
2440.18	0.0012957
2449.82	0.000786
2459.47	0.000723
2469.11	0.0010378
2478.75	0.00101826
2488.4	0.000736
2498.04	0.00114
2507.69	0.0013817
2517.33	0.0008454
2526.98	0.0011689
2536.62	0.0014564
2546.27	0.0010324
2555.91	0.0010345
2565.56	0.001322
2575.2	0.0013072
2584.85	0.0013139
2594.49	0.00096424
2604.14	0.000936125
2613.78	0.0011143
2623.43	0.0011723
2633.07	0.00095068
2642.72	0.000713
2652.36	0.0008724
2662.01	0.00097308
2671.65	0.0011717
2681.29	0.00095
2690.94	0.0008
2700.58	0.00094241
2710.23	0.0012432
2719.87	0.000869
2729.52	0.0008565
2739.16	0.000824
2748.81	0.0011211
2758.45	0.001245
2768.1	0.000748
2777.74	0.0008609
2787.39	0.00094041
2797.03	0.0008935
2806.68	0.0012123
2816.32	0.000651
2825.97	0.000799
2835.61	0.0012481
2845.26	0.00095902
2854.9	0.0010353
2864.55	0.0010477
2874.19	0.0009782
2883.84	0.001276
2893.48	0.00095141
2903.12	0.0013093
2912.77	0.001108
2922.41	0.0010801
2932.06	0.0010489
2941.7	0.0014239
2951.35	0.0011941
2960.99	0.0014151
2970.64	0.000762
2980.28	0.000697
2989.93	0.0012908
2999.57	0.0010271
3009.22	0.0017351
3018.86	0.0016742
3028.51	0.002227
3038.15	0.002777
3047.8	0.005077
3057.44	0.005217
3067.09	0.005677
3076.73	0.008917
3086.38	0.007767
3096.02	0.004347
3105.67	0.002527
3115.31	0.001475
3124.95	0.00095674
3134.6	0.0011297
3144.24	0.0015084
3153.89	0.000693
3163.53	0.0009035
3173.18	0.000811
3182.82	0.0008673
3192.47	0.001164
3202.11	0.0010302
3211.76	0.00093885
3221.4	0.0010477
3231.05	0.0013872
3240.69	0.0008661
3250.34	0.0013452
3259.98	0.000775
3269.63	0.000589
3279.27	0.000646
3288.92	0.0009574
3298.56	0.0012025
3308.21	0.000812
3317.85	0.0012675
3327.49	0.001967
3337.14	0.0013937
3346.78	0.0011885
3356.43	0.00096016
3366.07	0.0011132
3375.72	0.001343
3385.36	0.000436
3395.01	0.000809
3404.65	0.000615
3414.3	0.001296
3423.94	0.0015027
3433.59	0.00099028
3443.23	0.0012787
3452.88	0.0018208
3462.52	0.000576
3472.17	0.0011005
3481.81	0.0012938
3491.46	0.000706
3501.1	0.0008708
3510.75	0.0010785
3520.39	0.0014429
3530.04	0.0018747
3539.68	0.0010304
3549.32	0.00092523
3558.97	0.000589
3568.61	0.0010965
3578.26	0.00096889
3587.9	0.0013598
3597.55	0.002047
3607.19	0.0017758
3616.84	0.00094474
3626.48	0.00097721
3636.13	0.00068
3645.77	0.0012988
3655.42	0.0010359
3665.06	0
3674.71	0.0012575
3684.35	0.0010433
3694	0.000804
3703.64	0.0010478
3713.29	0.000626
3722.93	0.00076
3732.58	0.000748
3742.22	0.00057
3751.86	0.0012518
3761.51	0.0010399
3771.15	0.000687
3780.8	0.000789
3790.44	0.0011146
3800.09	0.0013554
3809.73	0.0010452
3819.38	0.000812
3829.02	0.000463
3838.67	0.000655
3848.31	0.0013941
3857.96	0.0013146
3867.6	0.0010574
3877.25	0.000936629
3886.89	0.00097375
3896.54	0.0016137
3906.18	0.0012924
3915.83	0.0015661
3925.47	0.0010456
3935.12	0.0010641
3944.76	0.000815
3954.41	0.000749
3964.05	0.000927846
3973.69	0.0012161
3983.34	0.001456
3992.98	0.0012498
