Infrared Spectrum: 4-CHLORO-17Beta-HYDROXYANDROST-4-EN-3-ONE
Formula: C19 H27 Cl O2
CAS: 1093-58-9
State: SOLID (KBr DISC)
Class: COBLENTZ III
Instrument: BECKMAN IR-7
Sampling: TRANSMISSION
Resolution: 4
Origin: THE WORCESTER FOUNDATION FOR EXPERIMENTAL BIOLOGY, Neal L. McNiven
1/CM	TRANSMITTANCE
600	0.616
608.755	0.607
617.509	0.614
626.264	0.65
635.018	0.691
643.773	0.729
652.528	0.697
661.282	0.763
670.037	0.801
678.791	0.821
687.546	0.765
696.3	0.801
705.055	0.819
713.81	0.877
722.564	0.871
731.319	0.863
740.073	0.881
748.828	0.891
757.583	0.888
766.337	0.864
775.092	0.804
783.846	0.896
792.601	0.893
801.355	0.88
810.11	0.6601
818.865	0.736
827.619	0.86
836.374	0.766
845.128	0.791
853.883	0.6258
862.638	0.883
871.392	0.911
880.147	0.915
888.901	0.867
897.656	0.751
906.41	0.864
915.165	0.886
923.92	0.832
932.674	0.849
941.429	0.836
950.183	0.679
958.938	0.657
967.693	0.627
976.447	0.752
985.202	0.58
993.956	0.75
1002.71	0.598
1011.47	0.655
1020.22	0.549
1028.97	0.552
1037.73	0.608
1046.48	0.522
1055.24	0.418
1063.99	0.495
1072.75	0.4469
1081.5	0.646
1090.26	0.766
1099.01	0.791
1107.77	0.696
1116.52	0.601
1125.28	0.668
1134.03	0.603
1142.78	0.692
1151.54	0.778
1160.29	0.724
1169.05	0.729
1177.8	0.509
1186.56	0.484
1195.31	0.705
1204.07	0.782
1212.82	0.557
1221.58	0.689
1230.33	0.787
1239.08	0.682
1247.84	0.694
1256.59	0.681
1265.35	0.608
1274.1	0.623
1282.86	0.614
1291.61	0.49
1300.37	0.728
1309.12	0.649
1317.88	0.727
1326.63	0.636
1335.39	0.695
1344.14	0.644
1352.89	0.708
1361.65	0.742
1370.4	0.681
1379.16	0.585
1387.91	0.641
1396.67	0.673
1405.42	0.677
1414.18	0.456
1422.93	0.617
1431.69	0.5539
1440.44	0.511
1449.19	0.53
1457.95	0.66
1466.7	0.609
1475.46	0.761
1484.21	0.861
1492.97	0.887
1501.72	0.897
1510.48	0.901
1519.23	0.901
1527.99	0.898
1536.74	0.886
1545.5	0.862
1554.25	0.839
1563	0.784
1571.76	0.413
1580.51	0.433
1589.27	0.748
1598.02	0.848
1606.78	0.859
1615.53	0.849
1624.29	0.83
1633.04	0.78
1641.8	0.708
1650.55	0.714
1659.3	0.715
1668.06	0.639
1676.81	0.322
1685.57	0.129
1694.32	0.2081
1703.08	0.573
1711.83	0.748
1720.59	0.816
1729.34	0.84
1738.1	0.858
1746.85	0.883
1755.61	0.896
1764.36	0.91
1773.11	0.923
1781.87	0.93
1790.62	0.936
1799.38	0.949
1808.13	0.953
1816.89	0.956
1825.64	0.958
1834.4	0.956
1843.15	0.954
1851.91	0.954
1860.66	0.954
1869.41	0.955
1878.17	0.956
1886.92	0.955
1895.68	0.953
1904.43	0.952
1913.19	0.952
1921.94	0.953
1930.7	0.953
1939.45	0.952
1948.21	0.949
1956.96	0.944
1965.72	0.948
1974.47	0.947
1983.22	0.944
1991.98	0.945
2000.73	0.944
2009.49	0.944
2018.24	0.943
2027	0.943
2035.75	0.943
2044.51	0.943
2053.26	0.943
2062.02	0.943
2070.77	0.943
2079.52	0.943
2088.28	0.943
2097.03	0.944
2105.79	0.944
2114.54	0.944
2123.3	0.944
2132.05	0.944
2140.81	0.944
2149.56	0.945
2158.32	0.945
2167.07	0.944
2175.83	0.944
2184.58	0.944
2193.33	0.9411
2202.09	0.939
2210.84	0.937
2219.6	0.9329
2228.35	0.9279
2237.11	0.925
2245.86	0.9239
2254.62	0.923
2263.37	0.92
2272.13	0.9188
2280.88	0.917
2289.63	0.9124
2298.39	0.9087
2307.14	0.9087
2315.9	0.907
2324.65	0.908
2333.41	0.909
2342.16	0.91
2350.92	0.91
2359.67	0.91
2368.43	0.909
2377.18	0.9074
2385.94	0.9058
2394.69	0.9033
2403.44	0.8996
2412.2	0.8973
2420.95	0.8953
2429.71	0.893
2438.46	0.891
2447.22	0.8882
2455.97	0.8861
2464.73	0.8841
2473.48	0.8821
2482.24	0.8801
2490.99	0.877
2499.75	0.875
2508.5	0.8719
2517.25	0.87
2526.01	0.8679
2534.76	0.8668
2543.52	0.8658
2552.27	0.8638
2561.03	0.8608
2569.78	0.859
2578.54	0.858
2587.29	0.856
2596.05	0.854
2604.8	0.851
2613.55	0.8486
2622.31	0.8475
2631.06	0.8455
2639.82	0.8399
2648.57	0.8323
2657.33	0.83
2666.08	0.8284
2674.84	0.827
2683.59	0.827
2692.35	0.826
2701.1	0.8242
2709.86	0.822
2718.61	0.8192
2727.36	0.8162
2736.12	0.814
2744.87	0.8111
2753.63	0.8091
2762.38	0.8002
2771.14	0.793
2779.89	0.7889
2788.65	0.7768
2797.4	0.768
2806.16	0.7328
2814.91	0.7079
2823.66	0.6806
2832.42	0.623
2841.17	0.4179
2849.93	0.3843
2858.68	0.3635
2867.44	0.4013
2876.19	0.4006
2884.95	0.371
2893.7	0.3333
2902.46	0.2622
2911.21	0.284
2919.97	0.254
2928.72	0.2276
2937.47	0.2416
2946.23	0.2529
2954.98	0.275
2963.74	0.3149
2972.49	0.4003
2981.25	0.5061
2990	0.6148
2998.76	0.7056
3007.51	0.7487
3016.27	0.7832
3025.02	0.787
3033.77	0.7889
3042.53	0.79
3051.28	0.79
3060.04	0.7889
3068.79	0.7849
3077.55	0.7819
3086.3	0.7779
3095.06	0.7705
3103.81	0.7616
3112.57	0.7546
3121.32	0.7443
3130.08	0.7341
3138.83	0.729
3147.58	0.7253
3156.34	0.7151
3165.09	0.7028
3173.85	0.6931
3182.6	0.687
3191.36	0.672
3200.11	0.6563
3208.87	0.6332
3217.62	0.6232
3226.38	0.6117
3235.13	0.6093
3243.88	0.6059
3252.64	0.6013
3261.39	0.591
3270.15	0.5809
3278.9	0.5615
3287.66	0.5446
3296.41	0.5304
3305.17	0.5214
3313.92	0.4977
3322.68	0.4821
3331.43	0.474
3340.19	0.4659
3348.94	0.458
3357.69	0.4569
3366.45	0.4549
3375.2	0.454
3383.96	0.4552
3392.71	0.456
3401.47	0.458
3410.22	0.4583
3418.98	0.46
3427.73	0.4613
3436.49	0.4659
3445.24	0.4764
3453.99	0.4814
3462.75	0.4849
3471.5	0.491
3480.26	0.5053
3489.01	0.539
3497.77	0.5722
3506.52	0.6047
3515.28	0.6329
3524.03	0.6702
3532.79	0.6964
3541.54	0.7125
3550.3	0.7314
3559.05	0.7511
3567.8	0.7635
3576.56	0.7707
3585.31	0.7871
3594.07	0.7931
3602.82	0.7842
3611.58	0.766
3620.33	0.7842
3629.09	0.7992
3637.84	0.8073
3646.6	0.81
3655.35	0.8085
3664.1	0.8026
3672.86	0.798
3681.61	0.7993
3690.37	0.8036
3699.12	0.8139
3707.88	0.8194
3716.63	0.8248
3725.39	0.8274
3734.14	0.83
3742.9	0.8315
3751.65	0.832
3760.41	0.831
3769.16	0.8289
3777.91	0.8254
3786.67	0.824
3795.42	0.822
3804.18	0.8193
3812.93	0.8173
3821.69	0.8162
3830.44	0.816
3839.2	0.816
3847.95	0.816
3856.71	0.816
3865.46	0.816
3874.21	0.816
3882.97	0.816
3891.72	0.814
3900.48	0.814
3909.23	0.8139
3917.99	0.812
3926.74	0.812
3935.5	0.812
3944.25	0.812
3953.01	0.812
3961.76	0.812
3970.52	0.812
3979.27	0.812
3988.02	0.812
