Infrared Spectrum: 4,4'-BIPHENYLBIS(GLYOXAL-2-HYDRATE)
Formula: C16 H14 O6
CAS: 1094-85-5
State: SOLID (OIL MULL)
Class: COBLENTZ III
Instrument: PERKIN-ELMER 21 (GRATING)
Instrument parameters: NaCl PRISM
Sampling: TRANSMISSION
Resolution: 2
Origin: SMITH KLINE & FRENCH LABS.
1/CM	TRANSMITTANCE
666	0.5125
675	0.6627
684	0.7078
693	0.6866
702	0.7217
711	0.7162
720	0.6333
729	0.4322
738	0.5929
747	0.6966
756	0.7315
765	0.7344
774	0.7401
783	0.7608
792	0.6986
801	0.4135
810	0.5118
819	0.7476
828	0.761
837	0.7554
846	0.7242
855	0.4251
864	0.6494
873	0.8055
882	0.8291
891	0.827
900	0.825
909	0.7982
918	0.7661
927	0.7376
936	0.6869
945	0.5635
954	0.3134
963	0.4678
972	0.389
981	0.6515
990	0.6654
999	0.6005
1008	0.4884
1017	0.3893
1026	0.4073
1035	0.2914
1044	0.4638
1053	0.5893
1062	0.6509
1071	0.655
1080	0.6448
1089	0.5967
1098	0.4991
1107	0.3724
1116	0.2826
1125	0.2598
1134	0.4588
1143	0.6022
1152	0.6853
1161	0.704
1170	0.6997
1179	0.6794
1188	0.6361
1197	0.6102
1206	0.4716
1215	0.3415
1224	0.2998
1233	0.4033
1242	0.5344
1251	0.6014
1260	0.5821
1269	0.5652
1278	0.5896
1287	0.582
1296	0.589
1305	0.6312
1314	0.6492
1323	0.6329
1332	0.6332
1341	0.6522
1350	0.6311
1359	0.5458
1368	0.4215
1377	0.2933
1386	0.4889
1395	0.5132
1404	0.6081
1413	0.6337
1422	0.6039
1431	0.5531
1440	0.3464
1449	0.2505
1458	0.1708
1467	0.2525
1476	0.4288
1485	0.6218
1494	0.7215
1503	0.7589
1512	0.7656
1521	0.7663
1530	0.7888
1539	0.7583
1548	0.7337
1557	0.6894
1566	0.7902
1575	0.7709
1584	0.7651
1593	0.7356
1602	0.5565
1611	0.4874
1620	0.7821
1629	0.7773
1638	0.761
1647	0.7118
1656	0.6792
1665	0.6472
1674	0.5608
1683	0.394
1692	0.1681
1701	0.3011
1710	0.5601
1719	0.742
1728	0.8082
1737	0.8254
1746	0.8365
1755	0.8499
1764	0.8586
1773	0.8635
1782	0.8706
1791	0.868
1800	0.8638
1809	0.8638
1818	0.8681
1827	0.8692
1836	0.8696
1845	0.868
1854	0.8655
1863	0.8623
1872	0.8579
1881	0.8535
1890	0.8495
1899	0.8456
1908	0.8418
1917	0.838
1926	0.8343
1935	0.8335
1944	0.8351
1953	0.8375
1962	0.8405
1971	0.8406
1980	0.8398
1989	0.8388
1998	0.837
2007	0.8349
2016	0.8329
2025	0.8316
2034	0.8303
2043	0.829
2052	0.8277
2061	0.827
2070	0.8265
2079	0.8247
2088	0.8211
2097	0.819
2106	0.8181
2115	0.8213
2124	0.8144
2133	0.8046
2142	0.8028
2151	0.804
2160	0.8056
2169	0.8068
2178	0.8062
2187	0.8051
2196	0.8036
2205	0.8019
2214	0.7995
2223	0.7965
2232	0.7923
2241	0.7872
2250	0.7815
2259	0.779
2268	0.7763
2277	0.7726
2286	0.7689
2295	0.7649
2304	0.7535
2313	0.7451
2322	0.7415
2331	0.7397
2340	0.7388
2349	0.738
2358	0.738
2367	0.738
2376	0.738
2385	0.7378
2394	0.7371
2403	0.735
2412	0.7328
2421	0.7305
2430	0.7278
2439	0.7252
2448	0.7224
2457	0.719
2466	0.7151
2475	0.7113
2484	0.7074
2493	0.7031
2502	0.6987
2511	0.6944
2520	0.6898
2529	0.6852
2538	0.6808
2547	0.6763
2556	0.671
2565	0.6655
2574	0.6605
2583	0.6563
2592	0.6521
2601	0.6474
2610	0.6411
2619	0.6348
2628	0.6304
2637	0.629
2646	0.6277
2655	0.6218
2664	0.6084
2673	0.5979
2682	0.5975
2691	0.5979
2700	0.5989
2709	0.5993
2718	0.5994
2727	0.5996
2736	0.5998
2745	0.5998
2754	0.5967
2763	0.588
2772	0.5695
2781	0.548
2790	0.5133
2799	0.4688
2808	0.3746
2817	0.2809
2826	0.1809
2835	0.1281
2844	0.1157
2853	0.1116
2862	0.1093
2871	0.1078
2880	0.1035
2889	0.101
2898	0.1012
2907	0.1019
2916	0.1033
2925	0.1053
2934	0.108
2943	0.1157
2952	0.1269
2961	0.1483
2970	0.2127
2979	0.2806
2988	0.3482
2997	0.3924
3006	0.4163
3015	0.4304
3024	0.4378
3033	0.4449
3042	0.4506
3051	0.4544
3060	0.4557
3069	0.4567
3078	0.4571
3087	0.4571
3096	0.4569
3105	0.4552
3114	0.453
3123	0.4508
3132	0.4466
3141	0.4411
3150	0.4345
3159	0.4257
3168	0.4169
3177	0.4085
3186	0.4002
3195	0.392
3204	0.3838
3213	0.3756
3222	0.3673
3231	0.3591
3240	0.3507
3249	0.3419
3258	0.3326
3267	0.3233
3276	0.3145
3285	0.3059
3294	0.2971
3303	0.2876
3312	0.2742
3321	0.2562
3330	0.2363
3339	0.2192
3348	0.2036
3357	0.1915
3366	0.1892
3375	0.1896
3384	0.1916
3393	0.1983
3402	0.2058
3411	0.2151
3420	0.2301
3429	0.2499
3438	0.2664
3447	0.3055
3456	0.346
3465	0.3863
3474	0.4263
3483	0.4662
3492	0.5058
3501	0.5453
3510	0.5785
3519	0.6049
3528	0.6168
3537	0.6249
3546	0.6317
3555	0.6342
3564	0.6357
3573	0.6363
3582	0.6364
3591	0.6359
3600	0.6354
3609	0.6349
3618	0.6337
3627	0.6322
3636	0.6306
3645	0.629
3654	0.6267
3663	0.6244
3672	0.6216
3681	0.6185
3690	0.6154
3699	0.6124
3708	0.6093
3717	0.6063
3726	0.6031
3735	0.6
3744	0.5969
3753	0.5939
3762	0.5909
3771	0.5883
3780	0.5861
3789	0.5838
3798	0.5815
3807	0.5793
3816	0.5769
3825	0.5745
3834	0.572
3843	0.5697
3852	0.5674
3861	0.565
3870	0.5625
3879	0.5599
3888	0.5573
3897	0.5546
3906	0.552
3915	0.5494
3924	0.5468
3933	0.5442
3942	0.5416
3951	0.5391
3960	0.5365
3969	0.5339
3978	0.5315
3987	0.5295
3996	0.5282
