Infrared Spectrum: 4-P-TOLYLSULFONYLHYDRAZO-6-METHYL-1,3,3a,7-TETRAZAINDENE
Formula: C13 H14 N6 O2 S
CAS: 109445-77-4
State: SOLID (KBr PRESSING)
Melting point: 240 C
Class: COBLENTZ
Instrument: Not specified, most likely a prism, grating, or hybrid spectrometer.
Sampling: TRANSMISSION
Resolution: 4
Origin: EASTMAN KODAK COMPANY, RESEARCH LABORATORIES, ROCHESTER, N.Y.
MICROMETERS	TRANSMITTANCE
2.031	0.82
2.06612	0.816
2.10124	0.809
2.13636	0.804
2.17149	0.799
2.20661	0.799
2.24173	0.799
2.27685	0.794
2.31197	0.795
2.34709	0.799
2.38221	0.808
2.41733	0.818
2.45246	0.82
2.48758	0.816
2.5227	0.818
2.55782	0.827
2.59294	0.834
2.62806	0.839
2.66318	0.853
2.6983	0.86
2.73343	0.862
2.76855	0.816
2.80367	0.67
2.83879	0.539
2.87391	0.476
2.90903	0.411
2.94415	0.383
2.97927	0.378
3.0144	0.396
3.04952	0.403
3.08464	0.378
3.11976	0.319
3.15488	0.284
3.19	0.272
3.22512	0.242
3.26024	0.214
3.29537	0.204
3.33049	0.198
3.36561	0.2
3.40073	0.209
3.43585	0.218
3.47097	0.235
3.50609	0.235
3.54122	0.228
3.57634	0.221
3.61146	0.221
3.64658	0.23
3.6817	0.26
3.71682	0.286
3.75194	0.31
3.78706	0.34
3.82219	0.369
3.85731	0.375
3.89243	0.399
3.92755	0.432
3.96267	0.457
3.99779	0.492
4.03291	0.52
4.06803	0.546
4.10316	0.579
4.13828	0.603
4.1734	0.64
4.20852	0.65
4.24364	0.656
4.27876	0.673
4.31388	0.717
4.349	0.762
4.38413	0.78
4.41925	0.801
4.45437	0.813
4.48949	0.828
4.52461	0.844
4.55973	0.851
4.59485	0.86
4.62997	0.876
4.6651	0.879
4.70022	0.89
4.73534	0.888
4.77046	0.893
4.80558	0.895
4.8407	0.897
4.87582	0.9
4.91095	0.904
4.94607	0.905
4.98119	0.91
5.01631	0.907
5.05143	0.907
5.08655	0.907
5.12167	0.905
5.15679	0.902
5.19192	0.891
5.22704	0.902
5.26216	0.919
5.29728	0.923
5.3324	0.931
5.36752	0.933
5.40264	0.935
5.43776	0.94
5.47289	0.928
5.50801	0.924
5.54313	0.919
5.57825	0.94
5.61337	0.954
5.64849	0.949
5.68361	0.954
5.71873	0.942
5.75386	0.928
5.78898	0.919
5.8241	0.867
5.85922	0.799
5.89434	0.685
5.92946	0.527
5.96458	0.272
5.9997	0.127
6.03483	0.148
6.06995	0.183
6.10507	0.082
6.14019	0.048
6.17531	0.052
6.21043	0.05
6.24555	0.043
6.28067	0.047
6.3158	0.061
6.35092	0.136
6.38604	0.232
6.42116	0.319
6.45628	0.373
6.4914	0.399
6.52652	0.401
6.56165	0.357
6.59677	0.261
6.63189	0.312
6.66701	0.389
6.70213	0.481
6.73725	0.61
6.77237	0.614
6.80749	0.563
6.84262	0.504
6.87774	0.375
6.91286	0.352
6.94798	0.322
6.9831	0.324
7.01822	0.345
7.05334	0.373
7.08846	0.431
7.12359	0.472
7.15871	0.507
7.19383	0.609
7.22895	0.605
7.26407	0.57
7.29919	0.534
7.33431	0.373
7.36943	0.099
7.40456	0.116
7.43968	0.104
7.4748	0.102
7.50992	0.146
7.54504	0.24
7.58016	0.31
7.61528	0.308
7.6504	0.312
7.68553	0.376
7.72065	0.499
7.75577	0.542
7.79089	0.645
7.82601	0.713
7.86113	0.701
7.89625	0.659
7.93138	0.462
7.9665	0.319
8.00162	0.504
8.03674	0.649
8.07186	0.745
8.10698	0.767
8.1421	0.72
8.17722	0.692
8.21235	0.654
8.24747	0.654
8.28259	0.633
8.31771	0.476
8.35283	0.263
8.38795	0.148
8.42307	0.223
8.45819	0.352
8.49332	0.212
8.52844	0.052
8.56356	0.048
8.59868	0.094
8.6338	0.242
8.66892	0.399
8.70404	0.544
8.73916	0.656
8.77429	0.727
8.80941	0.78
8.84453	0.804
8.87965	0.802
8.91477	0.769
8.94989	0.804
8.98501	0.827
9.02013	0.823
9.05526	0.801
9.09038	0.692
9.1255	0.488
9.16062	0.369
9.19574	0.485
9.23086	0.624
9.26598	0.673
9.30111	0.703
9.33623	0.734
9.37135	0.771
9.40647	0.794
9.44159	0.804
9.47671	0.806
9.51183	0.804
9.54695	0.783
9.58208	0.753
9.6172	0.729
9.65232	0.726
9.68744	0.743
9.72256	0.762
9.75768	0.755
9.7928	0.713
9.82792	0.715
9.86305	0.726
9.89817	0.715
9.93329	0.722
9.96841	0.738
10.0035	0.741
10.0387	0.734
10.0738	0.732
10.1089	0.734
10.144	0.732
10.1791	0.732
10.2143	0.734
10.2494	0.739
10.2845	0.752
10.3196	0.762
10.3547	0.778
10.3899	0.792
10.425	0.799
10.4601	0.799
10.4952	0.808
10.5303	0.821
10.5655	0.828
10.6006	0.818
10.6357	0.806
10.6708	0.809
10.706	0.815
10.7411	0.828
10.7762	0.832
10.8113	0.834
10.8464	0.832
10.8816	0.835
10.9167	0.839
10.9518	0.841
10.9869	0.841
11.022	0.839
11.0572	0.799
11.0923	0.808
11.1274	0.853
11.1625	0.869
11.1977	0.874
11.2328	0.876
11.2679	0.877
11.303	0.879
11.3381	0.879
11.3733	0.877
11.4084	0.881
11.4435	0.881
11.4786	0.874
11.5137	0.87
11.5489	0.865
11.584	0.865
11.6191	0.865
11.6542	0.855
11.6894	0.837
11.7245	0.816
11.7596	0.797
11.7947	0.774
11.8298	0.743
11.865	0.732
11.9001	0.722
11.9352	0.692
11.9703	0.65
12.0054	0.568
12.0406	0.471
12.0757	0.363
12.1108	0.349
12.1459	0.34
12.1811	0.321
12.2162	0.319
12.2513	0.308
12.2864	0.303
12.3215	0.335
12.3567	0.345
12.3918	0.349
12.4269	0.397
12.462	0.465
12.4971	0.539
12.5323	0.579
12.5674	0.619
12.6025	0.626
12.6376	0.574
12.6727	0.521
12.7079	0.478
12.743	0.462
12.7781	0.472
12.8132	0.49
12.8484	0.476
12.8835	0.418
12.9186	0.375
12.9537	0.479
12.9888	0.541
13.024	0.553
13.0591	0.546
13.0942	0.542
13.1293	0.541
13.1644	0.554
13.1996	0.586
13.2347	0.621
13.2698	0.645
13.3049	0.657
13.3401	0.654
13.3752	0.654
13.4103	0.656
13.4454	0.663
13.4805	0.663
13.5157	0.652
13.5508	0.624
13.5859	0.589
13.621	0.553
13.6561	0.506
13.6913	0.485
13.7264	0.469
13.7615	0.453
13.7966	0.452
13.8318	0.452
13.8669	0.458
13.902	0.462
13.9371	0.46
13.9722	0.453
14.0074	0.439
14.0425	0.418
14.0776	0.397
14.1127	0.373
14.1478	0.354
14.183	0.342
14.2181	0.338
14.2532	0.345
14.2883	0.345
14.3234	0.343
14.3586	0.35
14.3937	0.366
14.4288	0.375
14.4639	0.382
14.4991	0.39
14.5342	0.392
14.5693	0.394
14.6044	0.404
14.6395	0.411
14.6747	0.411
14.7098	0.41
14.7449	0.408
14.78	0.413
14.8151	0.446
14.8503	0.472
14.8854	0.492
14.9205	0.53
14.9556	0.567
14.9908	0.572
15.0259	0.561
15.061	0.567
15.0961	0.57
15.1312	0.572
15.1664	0.57
15.2015	0.561
15.2366	0.554
15.2717	0.561
15.3068	0.572
15.342	0.584
15.3771	0.598
15.4122	0.605
15.4473	0.61
15.4825	0.612
15.5176	0.612
15.5527	0.614
15.5878	0.614
15.6229	0.612
15.6581	0.61
15.6932	0.61
15.7283	0.61
15.7634	0.612
15.7985	0.617
15.8337	0.623
15.8688	0.631
15.9039	0.638
15.939	0.649
