Infrared Spectrum: CARBANILIC ACID, n-HEPTYL ESTER
Formula: C14 H21 N O2
CAS: 109562-39-2
State: SOLID (1.8 mg / 100 mg KBr)
Melting point: 60 C
Class: COBLENTZ
Instrument: Not specified, most likely a grating spectrometer.
Sampling: TRANSMISSION
Resolution: 4
Origin: CITRUS EXPERIMENT STATION, UNIVERSITY OF FLORIDA (G. EDWARDS)
MICROMETERS	TRANSMITTANCE
2.013	0.609
2.04611	0.611
2.07923	0.614
2.11234	0.621
2.14545	0.623
2.17856	0.626
2.21168	0.627
2.24479	0.631
2.2779	0.635
2.31102	0.64
2.34413	0.643
2.37724	0.647
2.41035	0.65
2.44347	0.654
2.47658	0.659
2.50969	0.66
2.54281	0.664
2.57592	0.667
2.60903	0.664
2.64214	0.676
2.67526	0.68
2.70837	0.686
2.74148	0.687
2.7746	0.687
2.80771	0.69
2.84082	0.69
2.87393	0.678
2.90705	0.662
2.94016	0.623
2.97327	0.414
3.00639	0.316
3.0395	0.567
3.07261	0.648
3.10572	0.674
3.13884	0.683
3.17195	0.662
3.20506	0.68
3.23818	0.647
3.27129	0.672
3.3044	0.684
3.33751	0.421
3.37063	0.44
3.40374	0.519
3.43685	0.559
3.46997	0.464
3.50308	0.666
3.53619	0.724
3.5693	0.719
3.60242	0.746
3.63553	0.747
3.66864	0.744
3.70176	0.746
3.73487	0.757
3.76798	0.756
3.80109	0.756
3.83421	0.76
3.86732	0.76
3.90043	0.769
3.93355	0.772
3.96666	0.773
3.99977	0.776
4.03289	0.779
4.066	0.781
4.09911	0.783
4.13222	0.781
4.16534	0.776
4.19845	0.773
4.23156	0.777
4.26468	0.78
4.29779	0.788
4.3309	0.787
4.36401	0.791
4.39713	0.795
4.43024	0.795
4.46335	0.795
4.49647	0.793
4.52958	0.799
4.56269	0.8
4.5958	0.801
4.62892	0.803
4.66203	0.805
4.69514	0.807
4.72826	0.805
4.76137	0.805
4.79448	0.805
4.82759	0.808
4.86071	0.808
4.89382	0.809
4.92693	0.807
4.96005	0.807
4.99316	0.812
5.02627	0.812
5.05938	0.8
5.0925	0.795
5.12561	0.809
5.15872	0.809
5.19184	0.813
5.22495	0.809
5.25806	0.796
5.29117	0.797
5.32429	0.807
5.3574	0.809
5.39051	0.809
5.42363	0.8
5.45674	0.793
5.48985	0.785
5.52296	0.784
5.55608	0.781
5.58919	0.78
5.6223	0.772
5.65542	0.748
5.68853	0.683
5.72164	0.563
5.75475	0.444
5.78787	0.329
5.82098	0.264
5.85409	0.215
5.88721	0.285
5.92032	0.583
5.95343	0.668
5.98654	0.683
6.01966	0.746
6.05277	0.763
6.08588	0.751
6.119	0.727
6.15211	0.603
6.18522	0.534
6.21833	0.305
6.25145	0.416
6.28456	0.675
6.31767	0.75
6.35079	0.695
6.3839	0.492
6.41701	0.295
6.45012	0.304
6.48324	0.378
6.51635	0.557
6.54946	0.613
6.58258	0.55
6.61569	0.473
6.6488	0.594
6.68191	0.586
6.71503	0.628
6.74814	0.565
6.78125	0.61
6.81437	0.67
6.84748	0.577
6.88059	0.357
6.9137	0.363
6.94682	0.593
6.97993	0.704
7.01304	0.748
7.04616	0.773
7.07927	0.784
7.11238	0.771
7.14549	0.735
7.17861	0.746
7.21172	0.74
7.24483	0.757
7.27795	0.755
7.31106	0.747
7.34417	0.747
7.37728	0.74
7.4104	0.723
7.44351	0.686
7.47662	0.561
7.50974	0.551
7.54285	0.268
7.57596	0.363
7.60908	0.5
7.64219	0.428
7.6753	0.627
7.70841	0.694
7.74153	0.716
7.77464	0.687
7.80775	0.638
7.84087	0.671
7.87398	0.635
7.90709	0.55
7.9402	0.477
7.97332	0.392
8.00643	0.232
8.03954	0.097
8.07266	0.098
8.10577	0.199
8.13888	0.283
8.17199	0.345
8.20511	0.466
8.23822	0.557
8.27133	0.63
8.30445	0.69
8.33756	0.723
8.37067	0.739
8.40378	0.75
8.4369	0.712
8.47001	0.75
8.50312	0.784
8.53624	0.783
8.56935	0.76
8.60246	0.771
8.63557	0.811
8.66869	0.823
8.7018	0.84
8.73491	0.84
8.76803	0.837
8.80114	0.829
8.83425	0.821
8.86736	0.832
8.90048	0.837
8.93359	0.836
8.9667	0.832
8.99982	0.828
9.03293	0.82
9.06604	0.812
9.09915	0.783
9.13227	0.719
9.16538	0.566
9.19849	0.496
9.23161	0.505
9.26472	0.456
9.29783	0.59
9.33094	0.647
9.36406	0.631
9.39717	0.549
9.43028	0.409
9.4634	0.49
9.49651	0.66
9.52962	0.625
9.56273	0.551
9.59585	0.679
9.62896	0.736
9.66207	0.706
9.69519	0.545
9.7283	0.603
9.76141	0.648
9.79452	0.726
9.82764	0.788
9.86075	0.823
9.89386	0.836
9.92698	0.845
9.96009	0.844
9.9932	0.795
10.0263	0.813
10.0594	0.853
10.0925	0.863
10.1257	0.865
10.1588	0.869
10.1919	0.867
10.225	0.849
10.2581	0.813
10.2912	0.797
10.3243	0.804
10.3574	0.84
10.3906	0.852
10.4237	0.867
10.4568	0.872
10.4899	0.877
10.523	0.882
10.5561	0.885
10.5892	0.885
10.6223	0.884
10.6555	0.885
10.6886	0.894
10.7217	0.897
10.7548	0.901
10.7879	0.897
10.821	0.893
10.8541	0.89
10.8872	0.885
10.9204	0.881
10.9535	0.859
10.9866	0.779
11.0197	0.811
11.0528	0.869
11.0859	0.886
11.119	0.894
11.1522	0.894
11.1853	0.902
11.2184	0.897
11.2515	0.9
11.2846	0.902
11.3177	0.913
11.3508	0.913
11.3839	0.906
11.4171	0.913
11.4502	0.91
11.4833	0.909
11.5164	0.91
11.5495	0.91
11.5826	0.902
11.6157	0.894
11.6488	0.881
11.682	0.867
11.7151	0.836
11.7482	0.821
11.7813	0.844
11.8144	0.849
11.8475	0.832
11.8806	0.797
11.9137	0.835
11.9469	0.863
11.98	0.871
12.0131	0.882
12.0462	0.889
12.0793	0.897
12.1124	0.908
12.1455	0.91
12.1787	0.912
12.2118	0.913
12.2449	0.914
12.278	0.92
12.3111	0.921
12.3442	0.921
12.3773	0.913
12.4104	0.92
12.4436	0.912
12.4767	0.913
12.5098	0.914
12.5429	0.914
12.576	0.912
12.6091	0.913
12.6422	0.909
12.6753	0.898
12.7085	0.89
12.7416	0.875
12.7747	0.859
12.8078	0.823
12.8409	0.772
12.874	0.776
12.9071	0.751
12.9402	0.666
12.9734	0.599
13.0065	0.647
13.0396	0.711
13.0727	0.724
13.1058	0.734
13.1389	0.74
13.172	0.726
13.2052	0.703
13.2383	0.671
13.2714	0.63
13.3045	0.543
13.3376	0.478
13.3707	0.469
13.4038	0.515
13.4369	0.586
13.4701	0.635
13.5032	0.702
13.5363	0.736
13.5694	0.768
13.6025	0.785
13.6356	0.795
13.6687	0.796
13.7018	0.791
13.735	0.776
13.7681	0.771
13.8012	0.793
13.8343	0.804
13.8674	0.817
13.9005	0.819
13.9336	0.816
13.9667	0.808
13.9999	0.8
14.033	0.793
14.0661	0.789
14.0992	0.763
14.1323	0.744
14.1654	0.719
14.1985	0.683
14.2316	0.648
14.2648	0.621
14.2979	0.61
14.331	0.623
14.3641	0.626
14.3972	0.621
14.4303	0.625
14.4634	0.642
14.4966	0.674
14.5297	0.692
14.5628	0.715
14.5959	0.716
14.629	0.714
14.6621	0.711
14.6952	0.703
14.7283	0.704
14.7615	0.704
14.7946	0.708
14.8277	0.699
14.8608	0.691
14.8939	0.68
14.927	0.672
14.9601	0.724
