Infrared Spectrum: 4,4'-DIBENZYL-[2,2'-AZO-1,3,4-THIADIAZOL-5-ONE]
Formula: C18 H14 N6 O2 S2
CAS: 109511-03-7
State: SOLID (KBr PELLET)
Class: COBLENTZ
Instrument: Not specified, most likely a prism, grating, or hybrid spectrometer.
Sampling: TRANSMISSION
Resolution: 4
Origin: NORBERT PETRI
MICROMETERS	TRANSMITTANCE
2.012	0.45
2.04811	0.457
2.08422	0.471
2.12033	0.478
2.15644	0.482
2.19255	0.492
2.22866	0.5
2.26478	0.506
2.30089	0.515
2.337	0.522
2.37311	0.532
2.40922	0.54
2.44533	0.551
2.48144	0.555
2.51755	0.56
2.55366	0.566
2.58977	0.572
2.62588	0.577
2.66199	0.582
2.6981	0.589
2.73422	0.591
2.77033	0.589
2.80644	0.576
2.84255	0.562
2.87866	0.552
2.91477	0.543
2.95088	0.544
2.98699	0.556
3.0231	0.566
3.05921	0.587
3.09532	0.599
3.13143	0.613
3.16754	0.626
3.20366	0.629
3.23977	0.637
3.27588	0.63
3.31199	0.617
3.3481	0.639
3.38421	0.641
3.42032	0.644
3.45643	0.652
3.49254	0.673
3.52865	0.676
3.56476	0.686
3.60087	0.696
3.63698	0.705
3.6731	0.71
3.70921	0.714
3.74532	0.725
3.78143	0.733
3.81754	0.73
3.85365	0.739
3.88976	0.747
3.92587	0.75
3.96198	0.753
3.99809	0.755
4.0342	0.76
4.07031	0.763
4.10642	0.762
4.14253	0.772
4.17865	0.773
4.21476	0.773
4.25087	0.772
4.28698	0.772
4.32309	0.769
4.3592	0.778
4.39531	0.791
4.43142	0.796
4.46753	0.801
4.50364	0.807
4.53975	0.813
4.57586	0.808
4.61197	0.809
4.64809	0.827
4.6842	0.835
4.72031	0.84
4.75642	0.841
4.79253	0.846
4.82864	0.847
4.86475	0.851
4.90086	0.857
4.93697	0.861
4.97308	0.864
5.00919	0.867
5.0453	0.866
5.08141	0.869
5.11753	0.873
5.15364	0.875
5.18975	0.879
5.22586	0.879
5.26197	0.866
5.29808	0.858
5.33419	0.867
5.3703	0.872
5.40641	0.89
5.44252	0.897
5.47863	0.904
5.51474	0.908
5.55085	0.907
5.58697	0.913
5.62308	0.917
5.65919	0.903
5.6953	0.889
5.73141	0.869
5.76752	0.747
5.80363	0.571
5.83974	0.32
5.87585	0.187
5.91196	0.065
5.94807	0.046
5.98418	0.042
6.02029	0.244
6.05641	0.339
6.09252	0.364
6.12863	0.477
6.16474	0.555
6.20085	0.621
6.23696	0.658
6.27307	0.7
6.30918	0.734
6.34529	0.756
6.3814	0.783
6.41751	0.794
6.45362	0.819
6.48973	0.825
6.52585	0.841
6.56196	0.834
6.59807	0.735
6.63418	0.442
6.67029	0.164
6.7064	0.375
6.74251	0.652
6.77862	0.684
6.81473	0.75
6.85084	0.678
6.88695	0.529
6.92306	0.707
6.95917	0.622
6.99529	0.694
7.0314	0.762
7.06751	0.79
7.10362	0.806
7.13973	0.803
7.17584	0.808
7.21195	0.812
7.24806	0.823
7.28417	0.83
7.32028	0.75
7.35639	0.669
7.3925	0.746
7.42861	0.673
7.46472	0.482
7.50084	0.315
7.53695	0.315
7.57306	0.297
7.60917	0.479
7.64528	0.578
7.68139	0.584
7.7175	0.475
7.75361	0.582
7.78972	0.663
7.82583	0.671
7.86194	0.676
7.89805	0.699
7.93416	0.713
7.97028	0.707
8.00639	0.561
8.0425	0.344
8.07861	0.202
8.11472	0.233
8.15083	0.427
8.18694	0.578
8.22305	0.649
8.25916	0.672
8.29527	0.673
8.33138	0.674
8.36749	0.678
8.4036	0.735
8.43972	0.762
8.47583	0.778
8.51194	0.785
8.54805	0.779
8.58416	0.772
8.62027	0.78
8.65638	0.795
8.69249	0.838
8.7286	0.844
8.76471	0.834
8.80082	0.786
8.83693	0.587
8.87304	0.375
8.90916	0.18
8.94527	0.299
8.98138	0.367
9.01749	0.482
9.0536	0.552
9.08971	0.662
9.12582	0.714
9.16193	0.728
9.19804	0.761
9.23415	0.762
9.27026	0.637
9.30637	0.528
9.34248	0.666
9.3786	0.749
9.41471	0.781
9.45082	0.799
9.48693	0.818
9.52304	0.836
9.55915	0.839
9.59526	0.848
9.63137	0.852
9.66748	0.845
9.70359	0.808
9.7397	0.79
9.77581	0.834
9.81192	0.855
9.84804	0.87
9.88415	0.873
9.92026	0.879
9.95637	0.875
9.99248	0.867
10.0286	0.887
10.0647	0.897
10.1008	0.897
10.1369	0.9
10.173	0.903
10.2091	0.913
10.2453	0.913
10.2814	0.903
10.3175	0.88
10.3536	0.87
10.3897	0.861
10.4258	0.831
10.4619	0.773
10.498	0.629
10.5341	0.507
10.5703	0.529
10.6064	0.649
10.6425	0.688
10.6786	0.683
10.7147	0.755
10.7508	0.823
10.7869	0.857
10.823	0.88
10.8591	0.885
10.8952	0.883
10.9314	0.856
10.9675	0.851
11.0036	0.883
11.0397	0.9
11.0758	0.909
11.1119	0.913
11.148	0.917
11.1841	0.919
11.2202	0.926
11.2564	0.928
11.2925	0.928
11.3286	0.929
11.3647	0.933
11.4008	0.934
11.4369	0.939
11.473	0.941
11.5091	0.94
11.5452	0.942
11.5814	0.941
11.6175	0.945
11.6536	0.943
11.6897	0.937
11.7258	0.936
11.7619	0.933
11.798	0.936
11.8341	0.951
11.8702	0.954
11.9063	0.956
11.9425	0.958
11.9786	0.959
12.0147	0.959
12.0508	0.957
12.0869	0.948
12.123	0.937
12.1591	0.934
12.1952	0.937
12.2313	0.942
12.2675	0.948
12.3036	0.952
12.3397	0.953
12.3758	0.952
12.4119	0.952
12.448	0.951
12.4841	0.952
12.5202	0.954
12.5563	0.954
12.5925	0.959
12.6286	0.962
12.6647	0.961
12.7008	0.959
12.7369	0.959
12.773	0.959
12.8091	0.951
12.8452	0.946
12.8813	0.939
12.9174	0.924
12.9536	0.889
12.9897	0.797
13.0258	0.66
13.0619	0.54
13.098	0.567
13.1341	0.71
13.1702	0.812
13.2063	0.835
13.2424	0.836
13.2786	0.831
13.3147	0.859
13.3508	0.87
13.3869	0.879
13.423	0.762
13.4591	0.602
13.4952	0.488
13.5313	0.503
13.5674	0.616
13.6036	0.639
13.6397	0.609
13.6758	0.619
13.7119	0.667
13.748	0.695
13.7841	0.714
13.8202	0.756
13.8563	0.792
13.8924	0.83
13.9286	0.846
13.9647	0.862
14.0008	0.869
14.0369	0.878
14.073	0.881
14.1091	0.875
14.1452	0.864
14.1813	0.842
14.2174	0.795
14.2535	0.697
14.2897	0.607
14.3258	0.523
14.3619	0.44
14.398	0.367
14.4341	0.436
14.4702	0.638
14.5063	0.766
14.5424	0.816
14.5785	0.84
14.6147	0.847
14.6508	0.852
14.6869	0.853
14.723	0.844
14.7591	0.82
14.7952	0.792
14.8313	0.764
14.8674	0.742
14.9035	0.742
14.9397	0.742
14.9758	0.764
15.0119	0.803
15.048	0.823
15.0841	0.831
15.1202	0.831
15.1563	0.82
15.1924	0.786
15.2285	0.741
15.2646	0.75
15.3008	0.811
15.3369	0.841
15.373	0.844
