Infrared Spectrum: 3-HEPTANONE, DL-6-DIMETHYLAMINO-4,4-DIPHENYL-, HYDROCHLORIDE
Formula: C21 H28 Cl N O
CAS: 1095-90-5
State: SOLID (1 mg / 200 mg KCl DISC)
Melting point: 235 C
Class: COBLENTZ III
Instrument: PERKIN-ELMER 21 (GRATING)
Instrument parameters: FILTER AT ABOUT 10 MICRONS
Sampling: TRANSMISSION
Resolution: 2
1/CM	TRANSMITTANCE
4000	0.6604
3991	0.6606
3982	0.661
3973	0.6619
3964	0.6632
3955	0.6644
3946	0.6656
3937	0.6668
3928	0.668
3919	0.6692
3910	0.6704
3901	0.6715
3892	0.6728
3883	0.6739
3874	0.6751
3865	0.6761
3856	0.6772
3847	0.6785
3838	0.6796
3829	0.6808
3820	0.6818
3811	0.683
3802	0.6843
3793	0.6854
3784	0.6865
3775	0.6874
3766	0.6884
3757	0.6893
3748	0.6903
3739	0.6911
3730	0.6921
3721	0.6932
3712	0.6941
3703	0.695
3694	0.6957
3685	0.6965
3676	0.6972
3667	0.6981
3658	0.6989
3649	0.6996
3640	0.7
3631	0.7004
3622	0.7006
3613	0.7008
3604	0.7011
3595	0.7012
3586	0.7012
3577	0.7012
3568	0.7012
3559	0.7005
3550	0.6996
3541	0.6987
3532	0.6978
3523	0.6969
3514	0.6956
3505	0.6939
3496	0.6921
3487	0.6904
3478	0.6885
3469	0.6865
3460	0.684
3451	0.6815
3442	0.679
3433	0.6767
3424	0.6748
3415	0.6728
3406	0.671
3397	0.669
3388	0.6685
3379	0.6705
3370	0.6726
3361	0.6755
3352	0.6787
3343	0.6819
3334	0.6851
3325	0.6885
3316	0.6915
3307	0.6946
3298	0.6976
3289	0.7008
3280	0.7044
3271	0.708
3262	0.7118
3253	0.7158
3244	0.719
3235	0.7218
3226	0.7246
3217	0.7265
3208	0.7275
3199	0.7278
3190	0.7275
3181	0.7274
3172	0.7283
3163	0.7291
3154	0.7322
3145	0.7375
3136	0.7393
3127	0.7401
3118	0.7406
3109	0.738
3100	0.7285
3091	0.728
3082	0.7278
3073	0.7269
3064	0.7062
3055	0.6661
3046	0.6272
3037	0.621
3028	0.6174
3019	0.6162
3010	0.6198
3001	0.6245
2992	0.6269
2983	0.626
2974	0.6049
2965	0.5639
2956	0.5429
2947	0.5448
2938	0.5506
2929	0.5542
2920	0.5616
2911	0.5777
2902	0.5931
2893	0.6086
2884	0.6242
2875	0.6399
2866	0.644
2857	0.6465
2848	0.6578
2839	0.6769
2830	0.6955
2821	0.7028
2812	0.7028
2803	0.7039
2794	0.7106
2785	0.7195
2776	0.7261
2767	0.7285
2758	0.7288
2749	0.7296
2740	0.7318
2731	0.7355
2722	0.7385
2713	0.739
2704	0.7321
2695	0.719
2686	0.7104
2677	0.7099
2668	0.7088
2659	0.6888
2650	0.6721
2641	0.6574
2632	0.6455
2623	0.635
2614	0.6266
2605	0.6184
2596	0.6108
2587	0.6031
2578	0.5941
2569	0.5846
2560	0.5724
2551	0.5456
2542	0.5437
2533	0.5494
2524	0.5544
2515	0.5488
2506	0.5286
2497	0.5007
2488	0.4904
2479	0.487
2470	0.4696
2461	0.4225
2452	0.375
2443	0.3272
2434	0.3018
2425	0.2985
2416	0.2939
2407	0.2784
2398	0.2591
2389	0.2566
2380	0.2602
2371	0.2659
2362	0.2732
2353	0.2859
2344	0.313
2335	0.3368
2326	0.3566
2317	0.3859
2308	0.4185
2299	0.4553
2290	0.4824
2281	0.5127
2272	0.5325
2263	0.5514
2254	0.5695
2245	0.5867
2236	0.6065
2227	0.6246
2218	0.6389
2209	0.6525
2200	0.6661
2191	0.6787
2182	0.6911
2173	0.703
2164	0.7141
2155	0.7239
2146	0.7315
2137	0.7382
2128	0.7441
2119	0.7499
2110	0.7558
2101	0.7615
2092	0.7674
2083	0.7728
2074	0.7784
2065	0.7837
2056	0.7886
2047	0.7936
2038	0.7986
2029	0.8039
2020	0.8085
2011	0.8119
2002	0.8128
1993	0.8104
1984	0.8058
1975	0.8026
1966	0.801
1957	0.8096
1948	0.8194
1939	0.8268
1930	0.8309
1921	0.8314
1912	0.8289
1903	0.8264
1894	0.8281
1885	0.8349
1876	0.8477
1867	0.8537
1858	0.8505
1849	0.8532
1840	0.8498
1831	0.848
1822	0.8516
1813	0.8628
1804	0.8675
1795	0.868
1786	0.8617
1777	0.8612
1768	0.8627
1759	0.8686
1750	0.8765
1741	0.8786
1732	0.8736
1723	0.8314
1714	0.4141
1705	0.281
1696	0.5945
1687	0.7455
1678	0.7801
1669	0.7874
1660	0.8078
1651	0.82
1642	0.8237
1633	0.8273
1624	0.83
1615	0.8292
1606	0.7918
1597	0.7517
1588	0.8072
1579	0.8069
1570	0.8277
1561	0.8459
1552	0.8608
1543	0.8687
1534	0.8712
1525	0.882
1516	0.8807
1507	0.83
1498	0.5574
1489	0.5084
1480	0.5306
1471	0.496
1462	0.5224
1453	0.4898
1444	0.5082
1435	0.6175
1426	0.6488
1417	0.6428
1408	0.6408
1399	0.7149
1390	0.6754
1381	0.7464
1372	0.5875
1363	0.7256
1354	0.7619
1345	0.6983
1336	0.6745
1327	0.7251
1318	0.7771
1309	0.8161
1300	0.8436
1291	0.85
1282	0.8505
1273	0.8485
1264	0.8566
1255	0.8656
1246	0.8715
1237	0.8681
1228	0.8718
1219	0.8841
1210	0.8811
1201	0.8451
1192	0.7904
1183	0.801
1174	0.8171
1165	0.8012
1156	0.7412
1147	0.8085
1138	0.676
1129	0.5986
1120	0.7488
1111	0.5973
1102	0.5849
1093	0.6444
1084	0.6057
1075	0.7655
1066	0.7374
1057	0.763
1048	0.7674
1039	0.8364
1030	0.7182
1021	0.8092
1012	0.8126
1003	0.6192
994	0.746
985	0.8221
976	0.8412
967	0.874
958	0.8832
949	0.8471
940	0.5957
931	0.7768
922	0.8124
913	0.8567
904	0.8788
895	0.9111
886	0.9125
877	0.9158
868	0.9205
859	0.9136
850	0.9187
841	0.9399
832	0.9358
823	0.9025
814	0.8871
805	0.9233
796	0.9358
787	0.9231
778	0.897
769	0.3945
760	0.6582
751	0.8241
742	0.8906
733	0.8928
724	0.6881
715	0.632
706	0.2376
697	0.6896
688	0.8221
679	0.8509
670	0.8538
