Infrared Spectrum: ACETIC ACID, PHOSPHONO-, p,p-DIISOPROPYL C-BENZYL ESTER
Formula: C15 H23 O5 P
CAS: 109643-29-0
State: LIQUID (NEAT)
Class: COBLENTZ III
Instrument: PERKIN-ELMER 21 (GRATING)
Instrument parameters: FILTER CHANGE ABOUT 1085 CM^-^1
Sampling: TRANSMISSION
Path length: CAPILLARY
Resolution: 4
Origin: SOUTHERN RESEARCH INSTITUTE
1/CM	TRANSMITTANCE
601.213	0.446
609.672	0.441
618.131	0.4459
626.591	0.458
635.05	0.4805
643.509	0.5057
651.968	0.5155
660.427	0.522
668.887	0.5172
677.346	0.5222
685.805	0.5163
694.264	0.4705
702.723	0.2986
711.183	0.3781
719.642	0.4252
728.101	0.4076
736.56	0.3475
745.019	0.2774
753.479	0.2565
761.938	0.3083
770.397	0.448
778.856	0.5354
787.315	0.6222
795.775	0.6183
804.234	0.5576
812.693	0.4835
821.152	0.4457
829.611	0.4305
838.071	0.483
846.53	0.5592
854.989	0.5722
863.448	0.6038
871.907	0.6042
880.367	0.5469
888.826	0.4263
897.285	0.3814
905.744	0.414
914.203	0.434
922.663	0.4796
931.122	0.4725
939.581	0.3938
948.04	0.3871
956.499	0.3683
964.959	0.2747
973.418	0.1361
981.877	0.042
990.336	0.025
998.795	0.0234
1007.25	0.027
1015.71	0.037
1024.17	0.0486
1032.63	0.1305
1041.09	0.2686
1049.55	0.4129
1058.01	0.4897
1066.47	0.521
1074.93	0.536
1083.39	0.4977
1091.85	0.4627
1100.31	0.3066
1108.77	0.0942
1117.22	0.1193
1125.68	0.1309
1134.14	0.2219
1142.6	0.2655
1151.06	0.2841
1159.52	0.4032
1167.98	0.4098
1176.44	0.3824
1184.9	0.28
1193.36	0.3867
1201.82	0.3594
1210.28	0.3125
1218.73	0.258
1227.19	0.2849
1235.65	0.2712
1244.11	0.1877
1252.57	0.0979
1261.03	0.056
1269.49	0.039
1277.95	0.039
1286.41	0.0616
1294.87	0.1233
1303.33	0.2407
1311.79	0.3221
1320.25	0.4259
1328.7	0.4733
1337.16	0.489
1345.62	0.5014
1354.08	0.4911
1362.54	0.47
1371	0.4498
1379.46	0.3016
1387.92	0.2389
1396.38	0.2209
1404.84	0.3914
1413.3	0.4042
1421.76	0.5035
1430.21	0.5917
1438.67	0.5792
1447.13	0.5285
1455.59	0.4282
1464.05	0.3675
1472.51	0.38
1480.97	0.4842
1489.43	0.5951
1497.89	0.5866
1506.35	0.5097
1514.81	0.6624
1523.27	0.685
1531.73	0.684
1540.18	0.6839
1548.64	0.683
1557.1	0.683
1565.56	0.686
1574.02	0.685
1582.48	0.6792
1590.94	0.6573
1599.4	0.6616
1607.86	0.6567
1616.32	0.6537
1624.78	0.6667
1633.24	0.651
1641.69	0.6564
1650.15	0.653
1658.61	0.654
1667.07	0.6424
1675.53	0.6259
1683.99	0.6109
1692.45	0.59
1700.91	0.5397
1709.37	0.5012
1717.83	0.4176
1726.29	0.2317
1734.75	0.0899
1743.21	0.0797
1751.66	0.1629
1760.12	0.2582
1768.58	0.4382
1777.04	0.5819
1785.5	0.6242
1793.96	0.6475
1802.42	0.6531
1810.88	0.6569
1819.34	0.6591
1827.8	0.6692
1836.26	0.675
1844.72	0.68
1853.17	0.684
1861.63	0.684
1870.09	0.6841
1878.55	0.6781
1887.01	0.679
1895.47	0.681
1903.93	0.6852
1912.39	0.691
1920.85	0.697
1929.31	0.699
1937.77	0.699
1946.23	0.6973
1954.69	0.69
1963.14	0.687
1971.6	0.6844
1980.06	0.6907
1988.52	0.6946
1996.98	0.702
2005.44	0.7015
2013.9	0.702
2022.36	0.701
2030.82	0.704
2039.28	0.704
2047.74	0.705
2056.2	0.703
2064.65	0.705
2073.11	0.708
2081.57	0.708
2090.03	0.704
2098.49	0.7065
2106.95	0.7105
2115.41	0.709
2123.87	0.707
2132.33	0.704
2140.79	0.7105
2149.25	0.7135
2157.71	0.711
2166.17	0.716
2174.62	0.71
2183.08	0.718
2191.54	0.71
2200	0.711
2208.46	0.707
2216.92	0.712
2225.38	0.7085
2233.84	0.707
2242.3	0.707
2250.76	0.707
2259.22	0.704
2267.68	0.704
2276.13	0.704
2284.59	0.704
2293.05	0.704
2301.51	0.703
2309.97	0.704
2318.43	0.702
2326.89	0.701
2335.35	0.7045
2343.81	0.703
2352.27	0.7035
2360.73	0.718
2369.19	0.722
2377.65	0.722
2386.1	0.722
2394.56	0.725
2403.02	0.717
2411.48	0.719
2419.94	0.717
2428.4	0.709
2436.86	0.706
2445.32	0.7155
2453.78	0.713
2462.24	0.7135
2470.7	0.712
2479.16	0.709
2487.61	0.705
2496.07	0.705
2504.53	0.709
2512.99	0.707
2521.45	0.7085
2529.91	0.709
2538.37	0.715
2546.83	0.717
2555.29	0.7145
2563.75	0.7025
2572.21	0.72
2580.67	0.714
2589.13	0.719
2597.58	0.714
2606.04	0.716
2614.5	0.716
2622.96	0.714
2631.42	0.711
2639.88	0.714
2648.34	0.715
2656.8	0.715
2665.26	0.716
2673.72	0.724
2682.18	0.725
2690.64	0.7225
2699.09	0.7195
2707.55	0.7155
2716.01	0.721
2724.47	0.7205
2732.93	0.714
2741.39	0.71
2749.85	0.708
2758.31	0.709
2766.77	0.709
2775.23	0.7085
2783.69	0.702
2792.15	0.7025
2800.61	0.6935
2809.06	0.677
2817.52	0.675
2825.98	0.6735
2834.44	0.6635
2842.9	0.6525
2851.36	0.6335
2859.82	0.594
2868.28	0.555
2876.74	0.547
2885.2	0.535
2893.66	0.527
2902.12	0.514
2910.57	0.461
2919.03	0.4055
2927.49	0.37
2935.95	0.3665
2944.41	0.381
2952.87	0.385
2961.33	0.362
2969.79	0.2645
2978.25	0.2405
2986.71	0.265
2995.17	0.4205
3003.63	0.49
3012.09	0.566
3020.54	0.573
3029	0.57
3037.46	0.569
3045.92	0.578
3054.38	0.5915
3062.84	0.5945
3071.3	0.598
3079.76	0.6115
3088.22	0.6445
3096.68	0.6555
3105.14	0.665
3113.6	0.6805
3122.05	0.691
3130.51	0.697
3138.97	0.6985
3147.43	0.701
3155.89	0.696
3164.35	0.6925
3172.81	0.697
3181.27	0.697
3189.73	0.699
3198.19	0.698
3206.65	0.693
3215.11	0.6915
3223.57	0.696
3232.02	0.698
3240.48	0.697
3248.94	0.695
3257.4	0.6985
3265.86	0.701
3274.32	0.7045
3282.78	0.708
3291.24	0.707
3299.7	0.705
3308.16	0.702
3316.62	0.697
3325.08	0.693
3333.53	0.691
3341.99	0.69
3350.45	0.687
3358.91	0.687
3367.37	0.689
3375.83	0.688
3384.29	0.682
3392.75	0.677
3401.21	0.6745
3409.67	0.669
3418.13	0.661
3426.59	0.6545
3435.05	0.6435
3443.5	0.6335
3451.96	0.6215
3460.42	0.615
3468.88	0.615
3477.34	0.615
3485.8	0.6185
3494.26	0.628
3502.72	0.631
3511.18	0.635
3519.64	0.632
3528.1	0.631
3536.56	0.629
3545.01	0.6295
3553.47	0.6375
3561.93	0.643
3570.39	0.6445
3578.85	0.6495
3587.31	0.658
3595.77	0.663
3604.23	0.6715
3612.69	0.674
3621.15	0.674
3629.61	0.674
3638.07	0.674
3646.53	0.675
3654.98	0.677
3663.44	0.677
3671.9	0.677
3680.36	0.68
3688.82	0.688
3697.28	0.6985
3705.74	0.7045
3714.2	0.7095
3722.66	0.71
3731.12	0.7095
3739.58	0.708
3748.04	0.707
3756.49	0.705
3764.95	0.705
3773.41	0.7085
3781.87	0.711
3790.33	0.711
3798.79	0.711
3807.25	0.71
