Infrared Spectrum: N-Octadecyl m-nitrobenzamide
Formula: C 25 H 42 N 2 O 3
CAS: 109799-65-7
State: gas
Origin: EPA-IR VAPOR PHASE LIBRARY
1/CM	ABSORBANCE
549.8	0.0003874
559.445	0.0003414
569.09	0.0003923
578.734	0.0005867
588.379	0.0002358
598.024	0.0001588
607.669	0.0004123
617.313	0.0002229
626.958	0.0002984
636.603	0.0005012
646.248	0.0004427
655.893	0.000629
665.537	0.0004332
675.182	0.0007382
684.827	0.0006668
694.472	0.00101
704.116	0.0023
713.761	0.00344
723.406	0.00273
733.051	0.00146
742.695	0.0007404
752.34	0.0007071
761.985	0.0006654
771.63	0.000569
781.275	0.0006594
790.919	0.0007713
800.564	0.00103
810.209	0.0011
819.854	0.0009033
829.498	0.000736
839.143	0.0007687
848.788	0.0006806
858.433	0.000808
868.078	0.0007036
877.722	0.0007431
887.367	0.000843
897.012	0.0008851
906.657	0.0009174
916.301	0.0006478
925.946	0.0005364
935.591	0.000566
945.236	0.0004713
954.88	0.0002983
964.525	9.849e-05
974.17	0.0002021
983.815	0.0002967
993.46	0.0002874
1003.1	0.0002535
1012.75	0.0004467
1022.39	0.0004585
1032.04	0.0005977
1041.68	0.0006338
1051.33	0.000533
1060.97	0.0007169
1070.62	0.0005395
1080.26	0.00115
1089.91	0.00119
1099.55	0.0007079
1109.2	0.0002967
1118.84	0.0007397
1128.49	0.0006694
1138.13	0.0008132
1147.78	0.00198
1157.42	0.00189
1167.07	0.00124
1176.71	0.00111
1186.36	0.0009393
1196	0.00115
1205.64	0.00128
1215.29	0.00172
1224.93	0.00183
1234.58	0.00172
1244.22	0.00216
1253.87	0.00325
1263.51	0.00373
1273.16	0.00287
1282.8	0.00239
1292.45	0.00265
1302.09	0.00261
1311.74	0.00235
1321.38	0.00201
1331.03	0.00222
1340.67	0.00394
1350.32	0.0071
1359.96	0.00503
1369.61	0.00235
1379.25	0.00164
1388.9	0.00136
1398.54	0.0012
1408.18	0.00108
1417.83	0.00134
1427.47	0.00148
1437.12	0.00211
1446.76	0.00267
1456.41	0.00369
1466.05	0.0041
1475.7	0.00415
1485.34	0.00378
1494.99	0.00589
1504.63	0.00861
1514.28	0.00706
1523.92	0.00468
1533.57	0.00462
1543.21	0.00742
1552.86	0.00568
1562.5	0.00251
1572.15	0.00192
1581.79	0.00179
1591.44	0.00153
1601.08	0.00146
1610.73	0.00169
1620.37	0.00181
1630.01	0.00127
1639.66	0.0013
1649.3	0.00151
1658.95	0.00176
1668.59	0.00199
1678.24	0.00252
1687.88	0.00394
1697.53	0.00792
1707.17	0.00663
1716.82	0.0032
1726.46	0.00202
1736.11	0.00164
1745.75	0.00129
1755.4	0.00115
1765.04	0.0009449
1774.69	0.000914
1784.33	0.0009426
1793.98	0.0009137
1803.62	0.0008483
1813.27	0.0008439
1822.91	0.0008267
1832.55	0.0008123
1842.2	0.0008668
1851.84	0.000732
1861.49	0.0008324
1871.13	0.0008221
1880.78	0.0007891
1890.42	0.0007768
1900.07	0.0007733
1909.71	0.0008302
1919.36	0.0008611
1929	0.0007869
1938.65	0.0007726
1948.29	0.0007771
1957.94	0.0008276
1967.58	0.0007913
1977.23	0.00076
1986.87	0.0007929
1996.52	0.0007506
2006.16	0.0007694
2015.81	0.0007769
2025.45	0.0007795
2035.1	0.0008192
2044.74	0.0008017
2054.38	0.0008117
2064.03	0.000796
2073.67	0.0007959
2083.32	0.000827
2092.96	0.0008226
2102.61	0.0008089
2112.25	0.0008252
2121.9	0.0007869
2131.54	0.0007884
2141.19	0.0008459
2150.83	0.0008156
2160.48	0.0008089
2170.12	0.0008628
2179.77	0.0008159
2189.41	0.0008441
2199.06	0.0008323
2208.7	0.000826
2218.35	0.0008576
2227.99	0.0008485
2237.64	0.0007983
2247.28	0.0008658
2256.92	0.0009091
2266.57	0.0008644
2276.21	0.0009054
2285.86	0.0009111
2295.5	0.0009724
2305.15	0.0008899
2314.79	0.0009134
2324.44	0.0008576
2334.08	0.0007503
2343.73	0.0008518
2353.37	0.0008098
2363.02	0.0005897
2372.66	0.0009159
2382.31	0.0009085
2391.95	0.0009209
2401.6	0.0008457
2411.24	0.0008786
2420.89	0.0009385
2430.53	0.0009125
2440.18	0.0009867
2449.82	0.0009006
2459.47	0.0009248
2469.11	0.000925
2478.75	0.0009667
2488.4	0.001
2498.04	0.0009379
2507.69	0.0009245
2517.33	0.0009118
2526.98	0.0009848
2536.62	0.000991
2546.27	0.0009495
2555.91	0.00105
2565.56	0.0009742
2575.2	0.0009995
2584.85	0.00103
2594.49	0.00101
2604.14	0.00107
2613.78	0.001
2623.43	0.00109
2633.07	0.00106
2642.72	0.00117
2652.36	0.00107
2662.01	0.0012
2671.65	0.00111
2681.29	0.00118
2690.94	0.00114
2700.58	0.00129
2710.23	0.00122
2719.87	0.00122
2729.52	0.00116
2739.16	0.00121
2748.81	0.00122
2758.45	0.00123
2768.1	0.00129
2777.74	0.00124
2787.39	0.00139
2797.03	0.00151
2806.68	0.00153
2816.32	0.0018
2825.97	0.00195
2835.61	0.00248
2845.26	0.00356
2854.9	0.00698
2864.55	0.00932
2874.19	0.00647
2883.84	0.0052
2893.48	0.00526
2903.12	0.00675
2912.77	0.00974
2922.41	0.01605
2932.06	0.02425
2941.7	0.01736
2951.35	0.00932
2960.99	0.00643
2970.64	0.0051
2980.28	0.00326
2989.93	0.00238
2999.57	0.00194
3009.22	0.00171
3018.86	0.0016
3028.51	0.00162
3038.15	0.00148
3047.8	0.00151
3057.44	0.00145
3067.09	0.00154
3076.73	0.00167
3086.38	0.00165
3096.02	0.00149
3105.67	0.00142
3115.31	0.0013
3124.95	0.00136
3134.6	0.00148
3144.24	0.00139
3153.89	0.00144
3163.53	0.00145
3173.18	0.00147
3182.82	0.00152
3192.47	0.00146
3202.11	0.00147
3211.76	0.00148
3221.4	0.00152
3231.05	0.00149
3240.69	0.00141
3250.34	0.00144
3259.98	0.0014
3269.63	0.00135
3279.27	0.00145
3288.92	0.00134
3298.56	0.00137
3308.21	0.00141
3317.85	0.00135
3327.49	0.00139
3337.14	0.00116
3346.78	0.00127
3356.43	0.00143
3366.07	0.00127
3375.72	0.00125
3385.36	0.00133
3395.01	0.00129
3404.65	0.00126
3414.3	0.00128
3423.94	0.00131
3433.59	0.00119
3443.23	0.0013
3452.88	0.00133
3462.52	0.00147
3472.17	0.0015
3481.81	0.00148
3491.46	0.00132
3501.1	0.00128
3510.75	0.00126
3520.39	0.00118
3530.04	0.00114
3539.68	0.0012
3549.32	0.00114
3558.97	0.00135
3568.61	0.00144
3578.26	0.00121
3587.9	0.00134
3597.55	0.00111
3607.19	0.00131
3616.84	0.0013
3626.48	0.00121
3636.13	0.00118
3645.77	0.00114
3655.42	0.00117
3665.06	0.00118
3674.71	0.0012
3684.35	0.00117
3694	0.00115
3703.64	0.00109
3713.29	0.00126
3722.93	0.00139
3732.58	0.00124
3742.22	0.00127
3751.86	0.00118
3761.51	0.00107
3771.15	0.00106
3780.8	0.00122
3790.44	0.00125
3800.09	0.00117
3809.73	0.00114
3819.38	0.00122
3829.02	0.00126
3838.67	0.00135
3848.31	0.00113
3857.96	0.0012
3867.6	0.00118
3877.25	0.00133
3886.89	0.0012
3896.54	0.00121
3906.18	0.00134
3915.83	0.00123
3925.47	0.00132
3935.12	0.00126
3944.76	0.00125
3954.41	0.00122
3964.05	0.00127
3973.69	0.00117
3983.34	0.00125
3992.98	0.00121
