Infrared Spectrum: 5Beta-PREGNANE-3Alpha,17Alpha,20Alpha-TRIOL
Formula: C21 H36 O3
CAS: 1098-45-9
State: SOLID (KBr DISC)
Class: COBLENTZ III
Instrument: BECKMAN IR-7
Sampling: TRANSMISSION
Resolution: 4
Origin: THE WORCESTER FOUNDATION FOR EXPERIMENTAL BIOLOGY, Neal L. McNiven
1/CM	TRANSMITTANCE
594.896	0.498
603.646	0.367
612.396	0.421
621.146	0.425
629.896	0.5259
638.646	0.539
647.396	0.612
656.146	0.658
664.896	0.645
673.646	0.626
682.396	0.579
691.146	0.543
699.896	0.487
708.646	0.397
717.396	0.3389
726.146	0.472
734.896	0.55
743.646	0.626
752.396	0.688
761.146	0.74
769.896	0.776
778.646	0.797
787.396	0.772
796.146	0.731
804.896	0.839
813.646	0.795
822.396	0.83
831.147	0.877
839.897	0.582
848.647	0.846
857.397	0.843
866.147	0.811
874.897	0.5211
883.647	0.201
892.397	0.6959
901.147	0.7
909.897	0.546
918.647	0.529
927.397	0.6798
936.147	0.775
944.897	0.4959
953.647	0.6
962.397	0.145
971.147	0.2729
979.897	0.6689
988.647	0.384
997.397	0.469
1006.15	0.281
1014.9	0.121
1023.65	0.2119
1032.4	0.137
1041.15	0.208
1049.9	0.336
1058.65	0.37
1067.4	0.37
1076.15	0.535
1084.9	0.56
1093.65	0.495
1102.4	0.31
1111.15	0.291
1119.9	0.228
1128.65	0.227
1137.4	0.583
1146.15	0.648
1154.9	0.522
1163.65	0.627
1172.4	0.567
1181.15	0.702
1189.9	0.553
1198.65	0.684
1207.4	0.487
1216.15	0.593
1224.9	0.595
1233.65	0.527
1242.4	0.281
1251.15	0.4032
1259.9	0.544
1268.65	0.533
1277.4	0.502
1286.15	0.2701
1294.9	0.131
1303.65	0.361
1312.4	0.334
1321.15	0.483
1329.9	0.387
1338.65	0.554
1347.4	0.597
1356.15	0.429
1364.9	0.15
1373.65	0.221
1382.4	0.288
1391.15	0.558
1399.9	0.561
1408.65	0.451
1417.4	0.421
1426.15	0.453
1434.9	0.238
1443.65	0.26
1452.4	0.173
1461.15	0.397
1469.9	0.4341
1478.65	0.73
1487.4	0.783
1496.15	0.806
1504.9	0.822
1513.65	0.837
1522.4	0.843
1531.15	0.851
1539.9	0.854
1548.65	0.856
1557.4	0.857
1566.15	0.859
1574.9	0.863
1583.65	0.862
1592.4	0.86
1601.15	0.857
1609.9	0.843
1618.65	0.835
1627.4	0.832
1636.15	0.833
1644.9	0.84
1653.65	0.848
1662.4	0.856
1671.15	0.863
1679.9	0.871
1688.65	0.875
1697.4	0.88
1706.15	0.883
1714.9	0.881
1723.65	0.881
1732.4	0.879
1741.15	0.886
1749.9	0.89
1758.65	0.894
1767.4	0.901
1776.15	0.907
1784.9	0.91
1793.65	0.908
1802.4	0.909
1811.15	0.915
1819.9	0.916
1828.65	0.918
1837.4	0.918
1846.15	0.917
1854.9	0.917
1863.65	0.92
1872.4	0.919
1881.15	0.918
1889.9	0.919
1898.65	0.918
1907.4	0.915
1916.15	0.913
1924.9	0.912
1933.65	0.912
1942.4	0.913
1951.15	0.914
1959.9	0.914
1968.65	0.919
1977.4	0.92
1986.15	0.921
1994.9	0.922
2003.65	0.923
2012.4	0.923
2021.15	0.924
2029.9	0.924
2038.65	0.924
2047.4	0.924
2056.15	0.924
2064.9	0.924
2073.65	0.924
2082.4	0.9235
2091.15	0.923
2099.9	0.9225
2108.65	0.9205
2117.4	0.9194
2126.15	0.917
2134.9	0.9154
2143.65	0.9134
2152.4	0.912
2161.15	0.9093
2169.9	0.909
2178.65	0.9063
2187.4	0.9032
2196.15	0.8929
2204.9	0.8854
2213.65	0.884
2222.4	0.883
2231.15	0.883
2239.9	0.8811
2248.65	0.88
2257.4	0.878
2266.15	0.877
2274.9	0.876
2283.65	0.875
2292.4	0.875
2301.15	0.875
2309.9	0.875
2318.65	0.8729
2327.4	0.8708
2336.15	0.8668
2344.9	0.8636
2353.65	0.8598
2362.4	0.854
2371.15	0.8517
2379.9	0.8487
2388.65	0.847
2397.4	0.846
2406.15	0.845
2414.9	0.843
2423.65	0.8426
2432.4	0.8411
2441.15	0.8395
2449.9	0.8355
2458.65	0.8315
2467.4	0.8279
2476.15	0.8244
2484.9	0.8228
2493.65	0.822
2502.4	0.8204
2511.15	0.8163
2519.9	0.811
2528.65	0.809
2537.4	0.8083
2546.15	0.8063
2554.9	0.8042
2563.65	0.7958
2572.4	0.7855
2581.15	0.7841
2589.9	0.782
2598.65	0.7801
2607.4	0.7761
2616.15	0.7681
2624.9	0.7551
2633.65	0.7351
2642.4	0.7026
2651.15	0.681
2659.9	0.6821
2668.65	0.6881
2677.4	0.69
2686.15	0.6846
2694.9	0.6757
2703.65	0.6926
2712.4	0.6974
2721.15	0.7
2729.9	0.701
2738.65	0.701
2747.4	0.7
2756.15	0.6997
2764.9	0.6946
2773.65	0.6906
2782.4	0.6857
2791.15	0.6746
2799.9	0.6472
2808.65	0.5889
2817.4	0.5333
2826.15	0.276
2834.9	0.0851
2843.65	0.0191
2852.4	0.0247
2861.15	0.0749
2869.9	0.146
2878.65	0.1513
2887.4	0.0676
2896.15	0.0059
2904.9	0
2913.65	0
2922.4	0
2931.15	0
2939.9	0.0137
2948.65	0.047
2957.4	0.1296
2966.15	0.182
2974.9	0.276
2983.65	0.3661
2992.4	0.4439
3001.15	0.4877
3009.9	0.613
3018.65	0.7007
3027.4	0.7243
3036.15	0.7322
3044.9	0.7341
3053.65	0.734
3062.4	0.733
3071.15	0.729
3079.9	0.7235
3088.65	0.7147
3097.4	0.7042
3106.15	0.6984
3114.9	0.6897
3123.65	0.6736
3132.4	0.6638
3141.15	0.6486
3149.9	0.628
3158.65	0.6024
3167.4	0.5703
3176.15	0.5535
3184.9	0.5272
3193.65	0.4914
3202.4	0.4494
3211.15	0.4035
3219.9	0.356
3228.65	0.3228
3237.4	0.2833
3246.15	0.2334
3254.9	0.1849
3263.65	0.1479
3272.4	0.1138
3281.15	0.0783
3289.9	0.0541
3298.65	0.0423
3307.4	0.0284
3316.15	0.0233
3324.9	0.0082
3333.65	0.0041
3342.4	0.004
3351.15	0.008
3359.9	0.0191
3368.65	0.025
3377.4	0.0281
3386.15	0.0295
3394.9	0.0495
3403.65	0.0854
3412.4	0.1152
3421.15	0.1407
3429.9	0.1769
3438.65	0.2236
3447.4	0.2716
3456.15	0.3238
3464.9	0.3749
3473.65	0.4181
3482.4	0.4756
3491.15	0.5188
3499.9	0.5529
3508.65	0.5843
3517.4	0.6185
3526.15	0.6553
3534.9	0.6745
3543.65	0.6063
3552.4	0.3394
3561.15	0.3013
3569.9	0.4984
3578.65	0.6884
3587.4	0.7199
3596.15	0.7697
3604.9	0.7934
3613.65	0.8021
3622.4	0.8132
3631.15	0.8235
3639.9	0.8298
3648.65	0.8318
3657.4	0.8388
3666.15	0.8439
3674.9	0.8478
3683.65	0.8499
3692.4	0.8529
3701.15	0.854
3709.9	0.855
3718.65	0.856
3727.4	0.856
3736.15	0.856
3744.9	0.857
3753.65	0.857
3762.4	0.857
3771.15	0.857
3779.9	0.856
3788.65	0.856
3797.4	0.856
3806.15	0.855
3814.9	0.854
3823.65	0.8527
3832.4	0.851
3841.15	0.8487
3849.9	0.8473
3858.65	0.846
3867.4	0.846
3876.15	0.844
3884.9	0.844
3893.65	0.844
3902.4	0.844
3911.15	0.844
3919.9	0.843
3928.65	0.843
3937.4	0.843
3946.15	0.843
3954.9	0.844
3963.65	0.8447
3972.4	0.846
3981.15	0.846
3989.9	0.847
3998.65	0.8472
