Infrared Spectrum: PHOSPHONIC ACID, 2,4-HEXADIENOYL-, DIETHYL ESTER
Formula: C10 H17 O4 P
CAS: 109844-00-0
State: LIQUID
Class: COBLENTZ
Instrument: Not specified, most likely a prism, grating, or hybrid spectrometer.
Sampling: TRANSMISSION
Path length: 0.003 CM
Resolution: 4
Origin: TENNESSEE EASTMAN COMPANY, RESEARCH LABORATORIES
MICROMETERS	TRANSMITTANCE
2.084	0.981
2.12383	0.981
2.16366	0.978
2.20349	0.978
2.24332	0.971
2.28315	0.944
2.32298	0.938
2.36281	0.949
2.40264	0.958
2.44247	0.959
2.4823	0.958
2.52213	0.959
2.56196	0.966
2.60179	0.973
2.64162	0.979
2.68145	0.978
2.72128	0.979
2.76111	0.979
2.80094	0.978
2.84077	0.968
2.8806	0.954
2.92042	0.914
2.96025	0.904
3.00008	0.889
3.03991	0.876
3.07974	0.859
3.11957	0.826
3.1594	0.808
3.19923	0.784
3.23906	0.771
3.27889	0.732
3.31872	0.602
3.35855	0.32
3.39838	0.517
3.43821	0.464
3.47804	0.652
3.51787	0.737
3.5577	0.792
3.59753	0.836
3.63736	0.853
3.67719	0.859
3.71702	0.879
3.75685	0.883
3.79668	0.886
3.83651	0.886
3.87634	0.884
3.91617	0.888
3.956	0.889
3.99583	0.893
4.03566	0.893
4.07549	0.894
4.11532	0.896
4.15515	0.881
4.19498	0.878
4.23481	0.879
4.27464	0.908
4.31447	0.916
4.3543	0.904
4.39413	0.888
4.43396	0.893
4.47379	0.893
4.51362	0.893
4.55344	0.893
4.59327	0.891
4.6331	0.891
4.67293	0.891
4.71276	0.893
4.75259	0.891
4.79242	0.894
4.83225	0.899
4.87208	0.899
4.91191	0.899
4.95174	0.904
4.99157	0.904
5.0314	0.909
5.07123	0.903
5.11106	0.906
5.15089	0.909
5.19072	0.908
5.23055	0.908
5.27038	0.903
5.31021	0.903
5.35004	0.891
5.38987	0.878
5.4297	0.873
5.46953	0.861
5.50936	0.859
5.54919	0.859
5.58902	0.853
5.62885	0.797
5.66868	0.741
5.70851	0.722
5.74834	0.684
5.78817	0.637
5.828	0.624
5.86783	0.497
5.90766	0.601
5.94749	0.736
5.98732	0.749
6.02715	0.632
6.06698	0.601
6.10681	0.378
6.14664	0.382
6.18646	0.166
6.22629	0.202
6.26612	0.368
6.30595	0.442
6.34578	0.248
6.38561	0.424
6.42544	0.692
6.46527	0.759
6.5051	0.781
6.54493	0.797
6.58476	0.808
6.62459	0.819
6.66442	0.801
6.70425	0.751
6.74408	0.642
6.78391	0.656
6.82374	0.686
6.86357	0.622
6.9034	0.48
6.94323	0.52
6.98306	0.661
7.02289	0.729
7.06272	0.729
7.10255	0.707
7.14238	0.609
7.18221	0.444
7.22204	0.545
7.26187	0.58
7.3017	0.565
7.34153	0.57
7.38136	0.686
7.42119	0.721
7.46102	0.692
7.50085	0.612
7.54068	0.542
7.58051	0.579
7.62034	0.607
7.66017	0.564
7.7	0.49
7.73983	0.378
7.77966	0.34
7.81948	0.267
7.85931	0.158
7.89914	0.081
7.93897	0.05
7.9788	0.045
8.01863	0.073
8.05846	0.166
8.09829	0.217
8.13812	0.243
8.17795	0.302
8.21778	0.355
8.25761	0.353
8.29744	0.292
8.33727	0.34
8.3771	0.42
8.41693	0.435
8.45676	0.427
8.49659	0.4
8.53642	0.327
8.57625	0.275
8.61608	0.33
8.65591	0.422
8.69574	0.445
8.73557	0.367
8.7754	0.317
8.81523	0.315
8.85506	0.332
8.89489	0.332
8.93472	0.33
8.97455	0.335
9.01438	0.322
9.05421	0.255
9.09404	0.188
9.13387	0.18
9.1737	0.202
9.21353	0.21
9.25336	0.198
9.29319	0.148
9.33302	0.116
9.37285	0.09
9.41268	0.058
9.45251	0.038
9.49233	0.026
9.53216	0.021
9.57199	0.018
9.61182	0.016
9.65165	0.015
9.69148	0.013
9.73131	0.011
9.77114	0.011
9.81097	0.011
9.8508	0.013
9.89063	0.018
9.93046	0.045
9.97029	0.071
10.0101	0.116
10.05	0.16
10.0898	0.175
10.1296	0.15
10.1694	0.108
10.2093	0.07
10.2491	0.05
10.2889	0.048
10.3288	0.05
10.3686	0.053
10.4084	0.061
10.4482	0.07
10.4881	0.088
10.5279	0.103
10.5677	0.128
10.6076	0.16
10.6474	0.191
10.6872	0.242
10.7271	0.31
10.7669	0.363
10.8067	0.427
10.8465	0.489
10.8864	0.545
10.9262	0.587
10.966	0.619
11.0059	0.641
11.0457	0.654
11.0855	0.672
11.1254	0.679
11.1652	0.686
11.205	0.686
11.2448	0.652
11.2847	0.642
11.3245	0.644
11.3643	0.657
11.4042	0.664
11.444	0.671
11.4838	0.677
11.5237	0.692
11.5635	0.704
11.6033	0.721
11.6431	0.722
11.683	0.727
11.7228	0.726
11.7626	0.712
11.8025	0.692
11.8423	0.667
11.8821	0.637
11.9219	0.614
11.9618	0.582
12.0016	0.565
12.0414	0.562
12.0813	0.569
12.1211	0.57
12.1609	0.555
12.2008	0.52
12.2406	0.487
12.2804	0.455
12.3202	0.422
12.3601	0.41
12.3999	0.383
12.4397	0.375
12.4796	0.36
12.5194	0.353
12.5592	0.347
12.5991	0.348
12.6389	0.362
12.6787	0.4
12.7185	0.424
12.7584	0.455
12.7982	0.467
12.838	0.469
12.8779	0.465
12.9177	0.454
12.9575	0.442
12.9974	0.43
13.0372	0.427
13.077	0.432
13.1168	0.444
13.1567	0.459
13.1965	0.472
13.2363	0.485
13.2762	0.497
13.316	0.51
13.3558	0.517
13.3957	0.524
13.4355	0.527
13.4753	0.527
13.5151	0.525
13.555	0.522
13.5948	0.514
13.6346	0.509
13.6745	0.505
13.7143	0.507
13.7541	0.522
13.7939	0.557
13.8338	0.584
13.8736	0.629
13.9134	0.661
13.9533	0.684
13.9931	0.699
14.0329	0.704
14.0728	0.704
14.1126	0.704
14.1524	0.702
14.1922	0.701
14.2321	0.692
14.2719	0.689
14.3117	0.687
14.3516	0.686
14.3914	0.686
14.4312	0.686
14.4711	0.687
14.5109	0.687
14.5507	0.687
14.5905	0.684
14.6304	0.677
14.6702	0.664
14.71	0.659
14.7499	0.651
14.7897	0.642
14.8295	0.639
14.8694	0.632
14.9092	0.629
14.949	0.627
14.9888	0.626
15.0287	0.626
15.0685	0.624
15.1083	0.621
15.1482	0.612
15.188	0.609
15.2278	0.607
15.2676	0.606
15.3075	0.602
15.3473	0.599
15.3871	0.599
15.427	0.597
15.4668	0.592
15.5066	0.59
15.5465	0.589
15.5863	0.584
15.6261	0.584
15.6659	0.577
15.7058	0.572
15.7456	0.567
15.7854	0.562
15.8253	0.562
15.8651	0.562
15.9049	0.559
15.9448	0.555
15.9846	0.554
