Infrared Spectrum: PHENOTHIAZINE, 10-(3-DIMETHYLAMINOPROPYL)-2-(TRIFLUOROMETHYL)-, HYDROCHLORIDE
Formula: C18 H20 Cl F3 N2 S
CAS: 1098-60-8
State: SOLID (0.9 mg / 200 mg KCl DISC) VS KCl
Melting point: 173-174 C DECOMP.
Class: COBLENTZ III
Instrument: PERKIN-ELMER 21 (GRATING)
Instrument parameters: FILTER AT ABOUT 10 MICRONS
Sampling: TRANSMISSION
Resolution: 2
1/CM	TRANSMITTANCE
4000	0.6197
3991	0.6207
3982	0.6218
3973	0.6229
3964	0.624
3955	0.6251
3946	0.6262
3937	0.6275
3928	0.628
3919	0.6283
3910	0.6285
3901	0.6285
3892	0.6283
3883	0.6281
3874	0.628
3865	0.6294
3856	0.6324
3847	0.6357
3838	0.6388
3829	0.64
3820	0.6401
3811	0.6403
3802	0.6407
3793	0.6412
3784	0.6418
3775	0.6422
3766	0.6428
3757	0.6433
3748	0.6441
3739	0.6453
3730	0.6464
3721	0.6475
3712	0.6488
3703	0.65
3694	0.6511
3685	0.6521
3676	0.6532
3667	0.6542
3658	0.6553
3649	0.6561
3640	0.6571
3631	0.6578
3622	0.6587
3613	0.6591
3604	0.6595
3595	0.6597
3586	0.6597
3577	0.6588
3568	0.6571
3559	0.6549
3550	0.6541
3541	0.6536
3532	0.6521
3523	0.6499
3514	0.6469
3505	0.644
3496	0.6431
3487	0.6424
3478	0.6419
3469	0.6417
3460	0.6414
3451	0.6411
3442	0.6411
3433	0.6408
3424	0.6411
3415	0.6414
3406	0.6417
3397	0.6444
3388	0.6488
3379	0.6535
3370	0.658
3361	0.6585
3352	0.6589
3343	0.6599
3334	0.6617
3325	0.6648
3316	0.6676
3307	0.6711
3298	0.675
3289	0.6778
3280	0.6801
3271	0.6808
3262	0.6815
3253	0.6821
3244	0.6828
3235	0.6836
3226	0.6843
3217	0.6848
3208	0.6853
3199	0.6865
3190	0.6884
3181	0.6905
3172	0.6925
3163	0.6944
3154	0.6951
3145	0.6955
3136	0.6944
3127	0.6924
3118	0.6881
3109	0.6828
3100	0.6776
3091	0.6725
3082	0.6681
3073	0.6643
3064	0.6615
3055	0.6598
3046	0.6593
3037	0.6607
3028	0.6641
3019	0.6664
3010	0.6664
3001	0.6633
2992	0.6519
2983	0.6397
2974	0.6322
2965	0.631
2956	0.6312
2947	0.6318
2938	0.6331
2929	0.6345
2920	0.6367
2911	0.6391
2902	0.6418
2893	0.645
2884	0.6501
2875	0.6591
2866	0.6655
2857	0.6711
2848	0.6768
2839	0.6822
2830	0.6878
2821	0.6934
2812	0.6993
2803	0.7041
2794	0.7071
2785	0.7084
2776	0.7088
2767	0.7092
2758	0.7093
2749	0.7094
2740	0.7092
2731	0.709
2722	0.7083
2713	0.7071
2704	0.7031
2695	0.693
2686	0.6843
2677	0.6754
2668	0.6657
2659	0.655
2650	0.6408
2641	0.636
2632	0.6336
2623	0.6306
2614	0.625
2605	0.6171
2596	0.599
2587	0.5614
2578	0.5412
2569	0.5334
2560	0.5339
2551	0.543
2542	0.5527
2533	0.5558
2524	0.548
2515	0.5376
2506	0.5388
2497	0.5392
2488	0.5209
2479	0.4967
2470	0.4496
2461	0.4383
2452	0.4401
2443	0.4462
2434	0.4539
2425	0.463
2416	0.4727
2407	0.4831
2398	0.4939
2389	0.5041
2380	0.5137
2371	0.5235
2362	0.5343
2353	0.5456
2344	0.5578
2335	0.5757
2326	0.5967
2317	0.6169
2308	0.634
2299	0.6461
2290	0.6539
2281	0.6605
2272	0.6668
2263	0.6722
2254	0.6778
2245	0.6835
2236	0.6889
2227	0.6945
2218	0.6999
2209	0.7053
2200	0.7106
2191	0.7158
2182	0.7211
2173	0.7261
2164	0.7311
2155	0.7353
2146	0.7389
2137	0.7405
2128	0.7428
2119	0.7455
2110	0.7487
2101	0.7517
2092	0.7548
2083	0.7575
2074	0.7604
2065	0.7632
2056	0.7661
2047	0.7691
2038	0.7721
2029	0.7753
2020	0.7786
2011	0.7818
2002	0.7851
1993	0.7881
1984	0.7895
1975	0.7907
1966	0.7908
1957	0.7908
1948	0.7915
1939	0.7936
1930	0.7968
1921	0.8001
1912	0.8024
1903	0.8028
1894	0.7987
1885	0.7958
1876	0.799
1867	0.8021
1858	0.8065
1849	0.8112
1840	0.8168
1831	0.8208
1822	0.8225
1813	0.8192
1804	0.8188
1795	0.8211
1786	0.8248
1777	0.8287
1768	0.828
1759	0.8238
1750	0.8245
1741	0.8295
1732	0.8359
1723	0.8399
1714	0.8421
1705	0.8428
1696	0.843
1687	0.8448
1678	0.8485
1669	0.8521
1660	0.8568
1651	0.8537
1642	0.8516
1633	0.8575
1624	0.8578
1615	0.7634
1606	0.7132
1597	0.784
1588	0.8176
1579	0.7515
1570	0.7618
1561	0.8421
1552	0.8678
1543	0.8821
1534	0.8874
1525	0.8921
1516	0.8867
1507	0.8218
1498	0.7207
1489	0.602
1480	0.5269
1471	0.3404
1462	0.4553
1453	0.5235
1444	0.5697
1435	0.3718
1426	0.3799
1417	0.489
1408	0.5687
1399	0.6089
1390	0.6442
1381	0.7278
1372	0.8183
1363	0.8212
1354	0.6114
1345	0.3141
1336	0.3127
1327	0.2078
1318	0.4074
1309	0.4857
1300	0.6036
1291	0.5366
1282	0.5892
1273	0.7037
1264	0.6193
1255	0.4459
1246	0.3492
1237	0.4538
1228	0.5677
1219	0.6475
1210	0.7086
1201	0.761
1192	0.7719
1183	0.7171
1174	0.4704
1165	0.3477
1156	0.4658
1147	0.3712
1138	0.5203
1129	0.4444
1120	0.2059
1111	0.1624
1102	0.3868
1093	0.5042
1084	0.457
1075	0.4167
1066	0.5677
1057	0.6095
1048	0.6324
1039	0.5744
1030	0.6165
1021	0.6506
1012	0.7043
1003	0.6586
994	0.6917
985	0.726
976	0.7378
967	0.6604
958	0.7443
949	0.6769
940	0.5865
931	0.6637
922	0.7153
913	0.7244
904	0.7282
895	0.7118
886	0.7295
877	0.6858
868	0.6807
859	0.7599
850	0.7906
841	0.8025
832	0.8112
823	0.749
814	0.6495
805	0.7726
796	0.7918
787	0.819
778	0.8314
769	0.8098
760	0.5736
751	0.4427
742	0.6908
733	0.7276
724	0.7135
715	0.7675
706	0.8062
697	0.7638
688	0.808
679	0.7632
670	0.8099
