Infrared Spectrum: 1-HYDROXY-2-(N-METHYL) NAPHTHANILIDE
Formula: C18 H15 N O2
CAS: 109812-63-7
State: SOLID (KBr PRESSING)
Melting point: 124-126 C
Class: COBLENTZ
Instrument: Not specified, most likely a prism, grating, or hybrid spectrometer.
Sampling: TRANSMISSION
Resolution: 4
Origin: EASTMAN KODAK COMPANY, RESEARCH LABORATORIES, ROCHESTER, N.Y.
MICROMETERS	TRANSMITTANCE
2.026	0.592
2.06113	0.61
2.09626	0.632
2.13139	0.646
2.16651	0.66
2.20164	0.67
2.23677	0.674
2.2719	0.675
2.30703	0.677
2.34216	0.681
2.37729	0.686
2.41242	0.703
2.44754	0.703
2.48267	0.719
2.5178	0.729
2.55293	0.736
2.58806	0.74
2.62319	0.757
2.65832	0.772
2.69345	0.779
2.72857	0.783
2.7637	0.783
2.79883	0.779
2.83396	0.745
2.86909	0.72
2.90422	0.707
2.93935	0.691
2.97448	0.689
3.0096	0.696
3.04473	0.717
3.07986	0.741
3.11499	0.753
3.15012	0.757
3.18525	0.759
3.22038	0.76
3.2555	0.752
3.29063	0.681
3.32576	0.662
3.36089	0.67
3.39602	0.677
3.43115	0.637
3.46628	0.653
3.50141	0.672
3.53653	0.682
3.57166	0.682
3.60679	0.681
3.64192	0.684
3.67705	0.675
3.71218	0.663
3.74731	0.648
3.78244	0.651
3.81756	0.668
3.85269	0.679
3.88782	0.682
3.92295	0.71
3.95808	0.738
3.99321	0.757
4.02834	0.776
4.06347	0.798
4.09859	0.807
4.13372	0.818
4.16885	0.83
4.20398	0.83
4.23911	0.844
4.27424	0.857
4.30937	0.87
4.34449	0.863
4.37962	0.856
4.41475	0.85
4.44988	0.85
4.48501	0.85
4.52014	0.859
4.55527	0.87
4.5904	0.875
4.62552	0.885
4.66065	0.887
4.69578	0.889
4.73091	0.89
4.76604	0.897
4.80117	0.901
4.8363	0.902
4.87143	0.909
4.90655	0.92
4.94168	0.937
4.97681	0.942
5.01194	0.948
5.04707	0.956
5.0822	0.927
5.11733	0.916
5.15246	0.918
5.18758	0.923
5.22271	0.941
5.25784	0.953
5.29297	0.941
5.3281	0.927
5.36323	0.939
5.39836	0.951
5.43348	0.961
5.46861	0.949
5.50374	0.951
5.53887	0.935
5.574	0.932
5.60913	0.949
5.64426	0.956
5.67939	0.958
5.71451	0.932
5.74964	0.923
5.78477	0.918
5.8199	0.918
5.85503	0.923
5.89016	0.934
5.92529	0.935
5.96042	0.92
5.99554	0.894
6.03067	0.875
6.0658	0.861
6.10093	0.632
6.13606	0.341
6.17119	0.199
6.20632	0.389
6.24144	0.195
6.27657	0.157
6.3117	0.043
6.34683	0.024
6.38196	0.109
6.41709	0.28
6.45222	0.58
6.48735	0.649
6.52247	0.681
6.5576	0.71
6.59273	0.729
6.62786	0.76
6.66299	0.556
6.69812	0.294
6.73325	0.259
6.76838	0.388
6.8035	0.265
6.83863	0.095
6.87376	0.102
6.90889	0.292
6.94402	0.412
6.97915	0.355
7.01428	0.166
7.04941	0.091
7.08453	0.043
7.11966	0.064
7.15479	0.181
7.18992	0.138
7.22505	0.081
7.26018	0.157
7.29531	0.221
7.33043	0.303
7.36556	0.398
7.40069	0.471
7.43582	0.461
7.47095	0.447
7.50608	0.547
7.54121	0.622
7.57634	0.506
7.61146	0.291
7.64659	0.207
7.68172	0.294
7.71685	0.325
7.75198	0.124
7.78711	0.053
7.82224	0.083
7.85737	0.228
7.89249	0.407
7.92762	0.497
7.96275	0.495
7.99788	0.568
8.03301	0.639
8.06814	0.7
8.10327	0.708
8.1384	0.738
8.17352	0.752
8.20865	0.748
8.24378	0.682
8.27891	0.72
8.31404	0.779
8.34917	0.788
8.3843	0.774
8.41942	0.684
8.45455	0.584
8.48968	0.681
8.52481	0.689
8.55994	0.767
8.59507	0.781
8.6302	0.679
8.66533	0.594
8.70045	0.383
8.73558	0.412
8.77071	0.639
8.80584	0.745
8.84097	0.729
8.8761	0.559
8.91123	0.322
8.94636	0.289
8.98148	0.488
9.01661	0.649
9.05174	0.679
9.08687	0.41
9.122	0.365
9.15713	0.549
9.19226	0.642
9.22739	0.679
9.26251	0.67
9.29764	0.637
9.33277	0.741
9.3679	0.802
9.40303	0.833
9.43816	0.845
9.47329	0.852
9.50841	0.85
9.54354	0.805
9.57867	0.63
9.6138	0.31
9.64893	0.353
9.68406	0.604
9.71919	0.696
9.75432	0.712
9.78944	0.717
9.82457	0.781
9.8597	0.819
9.89483	0.852
9.92996	0.866
9.96509	0.833
10.0002	0.854
10.0353	0.875
10.0705	0.882
10.1056	0.854
10.1407	0.85
10.1759	0.875
10.211	0.892
10.2461	0.883
10.2812	0.798
10.3164	0.84
10.3515	0.837
10.3866	0.816
10.4218	0.845
10.4569	0.864
10.492	0.875
10.5271	0.873
10.5623	0.84
10.5974	0.814
10.6325	0.854
10.6677	0.861
10.7028	0.856
10.7379	0.854
10.773	0.807
10.8082	0.724
10.8433	0.752
10.8784	0.771
10.9136	0.74
10.9487	0.608
10.9838	0.693
11.0189	0.774
11.0541	0.79
11.0892	0.797
11.1243	0.783
11.1595	0.771
11.1946	0.741
11.2297	0.684
11.2649	0.604
11.3	0.509
11.3351	0.462
11.3702	0.412
11.4054	0.4
11.4405	0.383
11.4756	0.417
11.5108	0.481
11.5459	0.542
11.581	0.599
11.6161	0.67
11.6513	0.703
11.6864	0.741
11.7215	0.772
11.7567	0.795
11.7918	0.805
11.8269	0.798
11.862	0.7
11.8972	0.689
11.9323	0.76
11.9674	0.79
12.0026	0.824
12.0377	0.84
12.0728	0.85
12.1079	0.854
12.1431	0.852
12.1782	0.812
12.2133	0.641
12.2485	0.303
12.2836	0.126
12.3187	0.195
12.3538	0.454
12.389	0.592
12.4241	0.681
12.4592	0.715
12.4944	0.714
12.5295	0.532
12.5646	0.405
12.5997	0.693
12.6349	0.771
12.67	0.804
12.7051	0.831
12.7403	0.835
12.7754	0.833
12.8105	0.811
12.8456	0.755
12.8808	0.656
12.9159	0.419
12.951	0.31
12.9862	0.117
13.0213	0.057
13.0564	0.201
13.0915	0.422
13.1267	0.561
13.1618	0.672
13.1969	0.733
13.2321	0.762
13.2672	0.786
13.3023	0.788
13.3374	0.797
13.3726	0.814
13.4077	0.821
13.4428	0.821
13.478	0.819
13.5131	0.802
13.5482	0.79
13.5833	0.741
13.6185	0.599
13.6536	0.412
13.6887	0.402
13.7239	0.4
13.759	0.299
13.7941	0.331
13.8292	0.551
13.8644	0.651
13.8995	0.701
13.9346	0.736
13.9698	0.757
14.0049	0.767
14.04	0.767
14.0751	0.755
14.1103	0.75
14.1454	0.707
14.1805	0.63
14.2157	0.485
14.2508	0.322
14.2859	0.133
14.321	0.084
14.3562	0.117
14.3913	0.225
14.4264	0.308
14.4616	0.436
14.4967	0.523
14.5318	0.589
14.5669	0.632
14.6021	0.651
14.6372	0.655
14.6723	0.658
14.7075	0.66
14.7426	0.67
14.7777	0.662
14.8128	0.662
14.848	0.66
14.8831	0.656
14.9182	0.63
14.9534	0.592
14.9885	0.625
15.0236	0.642
15.0588	0.582
15.0939	0.518
15.129	0.471
15.1641	0.448
15.1993	0.464
15.2344	0.5
15.2695	0.509
15.3047	0.528
15.3398	0.53
15.3749	0.532
15.41	0.533
15.4452	0.535
15.4803	0.533
15.5154	0.533
15.5506	0.528
15.5857	0.523
15.6208	0.523
15.6559	0.523
15.6911	0.523
15.7262	0.521
15.7613	0.511
15.7965	0.499
15.8316	0.495
15.8667	0.497
15.9018	0.497
15.937	0.497
15.9721	0.495
