Infrared Spectrum: 4-Chlorobenzyl diphenyl carbinol
Formula: C 20 H 17 Cl O
CAS: 109936-21-2
State: gas
Origin: EPA-IR VAPOR PHASE LIBRARY
1/CM	ABSORBANCE
549.8	0.001517
559.445	0.002327
569.09	0.001327
578.734	0.002097
588.379	0.003537
598.024	0.009677
607.669	0.005737
617.313	0.003327
626.958	0.005787
636.603	0.002777
646.248	0.002177
655.893	0.002857
665.537	0.005887
675.182	0.007867
684.827	0.009817
694.472	0.025337
704.116	0.023417
713.761	0.009307
723.406	0.011607
733.051	0.007857
742.695	0.006427
752.34	0.010777
761.985	0.008717
771.63	0.007507
781.275	0.003437
790.919	0.003457
800.564	0.005677
810.209	0.008217
819.854	0.013247
829.498	0.006707
839.143	0.003737
848.788	0.002597
858.433	0.002107
868.078	0.003147
877.722	0.002537
887.367	0.001777
897.012	0.002597
906.657	0.003277
916.301	0.002147
925.946	0.002177
935.591	0.003077
945.236	0.002507
954.88	0.002427
964.525	0.002117
974.17	0.002927
983.815	0.003307
993.46	0.005097
1003.1	0.007317
1012.75	0.014807
1022.39	0.010557
1032.04	0.009487
1041.68	0.010657
1051.33	0.007707
1060.97	0.004007
1070.62	0.004687
1080.26	0.008297
1089.91	0.011357
1099.55	0.019437
1109.2	0.008037
1118.84	0.004857
1128.49	0.003987
1138.13	0.003807
1147.78	0.004487
1157.42	0.004527
1167.07	0.005127
1176.71	0.004827
1186.36	0.005747
1196	0.006177
1205.64	0.005027
1215.29	0.004517
1224.93	0.005757
1234.58	0.005257
1244.22	0.005307
1253.87	0.004557
1263.51	0.004807
1273.16	0.004737
1282.8	0.005457
1292.45	0.005137
1302.09	0.004947
1311.74	0.005177
1321.38	0.006097
1331.03	0.006997
1340.67	0.007217
1350.32	0.005927
1359.96	0.004207
1369.61	0.003177
1379.25	0.002687
1388.9	0.002307
1398.54	0.002827
1408.18	0.003557
1417.83	0.003007
1427.47	0.003547
1437.12	0.006217
1446.76	0.010227
1456.41	0.005597
1466.05	0.003747
1475.7	0.006077
1485.34	0.018797
1494.99	0.031677
1504.63	0.008907
1514.28	0.003117
1523.92	0.002137
1533.57	0.001597
1543.21	0.001417
1552.86	0.001076
1562.5	0.001427
1572.15	0.001747
1581.79	0.002317
1591.44	0.004697
1601.08	0.005067
1610.73	0.002237
1620.37	0.001457
1630.01	0.0011829
1639.66	0.001487
1649.3	0.001227
1658.95	0.0011171
1668.59	0.0009833
1678.24	0.0008337
1687.88	0.0008741
1697.53	0.0007089
1707.17	0.0008273
1716.82	0.0007232
1726.46	0.0009725
1736.11	0.0011379
1745.75	0.0008958
1755.4	0.001011
1765.04	0.001197
1774.69	0.001407
1784.33	0.001337
1793.98	0.001767
1803.62	0.001727
1813.27	0.001277
1822.91	0.0009679
1832.55	0.0006935
1842.2	0.0007311
1851.84	0.0008942
1861.49	0.0011647
1871.13	0.001237
1880.78	0.001867
1890.42	0.001897
1900.07	0.001287
1909.71	0.0010374
1919.36	0.000927
1929	0.0011058
1938.65	0.001487
1948.29	0.001617
1957.94	0.001597
1967.58	0.0009665
1977.23	0.0006351
1986.87	0.0005846
1996.52	0.0004238
2006.16	0.000423
2015.81	0.0004501
2025.45	0.0005691
2035.1	0.0003781
2044.74	0.0004469
2054.38	0.00023341
2064.03	0.0004808
2073.67	0.0004505
2083.32	0.0004717
2092.96	0.0003915
2102.61	0.0003542
2112.25	0.0004167
2121.9	0.0003027
2131.54	0.0005184
2141.19	0.0003467
2150.83	0.0003068
2160.48	0.0002986
2170.12	0.0002811
2179.77	0.0003553
2189.41	0.0001681
2199.06	0.0002655
2208.7	0.0003483
2218.35	0.0003305
2227.99	0.0003232
2237.64	0.0004802
2247.28	0.0003244
2256.92	0.0003704
2266.57	0.0003022
2276.21	0.00026487
2285.86	0.0005109
2295.5	0.0003158
2305.15	0.0003608
2314.79	0.0005907
2324.44	0.0004553
2334.08	0.0004758
2343.73	0.0006157
2353.37	0.0002991
2363.02	0.000568
2372.66	0.0003291
2382.31	0.00027737
2391.95	0.0001233
2401.6	0.0004059
2411.24	0.0003081
2420.89	0.0002988
2430.53	0.000379
2440.18	0.0003944
2449.82	0.000545
2459.47	0.0004214
2469.11	0.0004069
2478.75	0.00027876
2488.4	0.000195466
2498.04	0.0003438
2507.69	0.0003021
2517.33	0.0005352
2526.98	0.0003596
2536.62	0.0004432
2546.27	0.0004993
2555.91	0.0003532
2565.56	0.0003693
2575.2	0.0005106
2584.85	0.0003809
2594.49	0.0005694
2604.14	0.0004225
2613.78	0.0004367
2623.43	0.0003634
2633.07	0.0003836
2642.72	0.0004873
2652.36	0.000514
2662.01	0.0001495
2671.65	0.0003023
2681.29	0.00021179
2690.94	0.0003578
2700.58	0.0001563
2710.23	0.0002421
2719.87	0.00020896
2729.52	8.8e-05
2739.16	0.00027988
2748.81	0.0005038
2758.45	0.0002991
2768.1	0.0003495
2777.74	0.0004995
2787.39	0.0003738
2797.03	0.0004441
2806.68	0.0004484
2816.32	0.0004217
2825.97	0.0005831
2835.61	0.0006105
2845.26	0.0008504
2854.9	0.001367
2864.55	0.001457
2874.19	0.0008885
2883.84	0.0010266
2893.48	0.0010637
2903.12	0.0010251
2912.77	0.001597
2922.41	0.002697
2932.06	0.004137
2941.7	0.003757
2951.35	0.003407
2960.99	0.003807
2970.64	0.002467
2980.28	0.001387
2989.93	0.001717
2999.57	0.001747
3009.22	0.002327
3018.86	0.004397
3028.51	0.008587
3038.15	0.010717
3047.8	0.008047
3057.44	0.009917
3067.09	0.017027
3076.73	0.013277
3086.38	0.010037
3096.02	0.008297
3105.67	0.004447
3115.31	0.002517
3124.95	0.001357
3134.6	0.0009559
3144.24	0.0011008
3153.89	0.0005595
3163.53	0.0005604
3173.18	0.000861
3182.82	0.0004883
3192.47	0.0004888
3202.11	0.0005813
3211.76	0.0004441
3221.4	0.000491
3231.05	0.000189065
3240.69	0.0003795
3250.34	0.00023874
3259.98	0.000438
3269.63	0.0007635
3279.27	0.000322
3288.92	0.00013
3298.56	0.0005995
3308.21	0.0005838
3317.85	0.0003071
3327.49	0.0004793
3337.14	0.0005063
3346.78	0.0009311
3356.43	0.0004909
3366.07	0.0006053
3375.72	0.000538
3385.36	0.000407
3395.01	0.0005408
3404.65	0.0003539
3414.3	0.0004487
3423.94	0.0005658
3433.59	0.0006997
3443.23	0.000102
3452.88	0.0006523
3462.52	0.000584
3472.17	0.0004456
3481.81	0.0002929
3491.46	0.0005253
3501.1	0.0004873
3510.75	0.00021293
3520.39	0.0006637
3530.04	0.0003333
3539.68	0.0002933
3549.32	0.0004759
3558.97	0.0008078
3568.61	0.001068
3578.26	0.001247
3587.9	0.002347
3597.55	0.003627
3607.19	0.002937
3616.84	0.002447
3626.48	0.003607
3636.13	0.004197
3645.77	0.001697
3655.42	0.0010296
3665.06	0.000721
3674.71	0.0007593
3684.35	0.0006326
3694	0.000832
3703.64	0.0006686
3713.29	0.0005268
3722.93	0.0004235
3732.58	0.0005004
3742.22	0.0006393
3751.86	0.000775
3761.51	0.0004475
3771.15	0.0004506
3780.8	0.0002991
3790.44	0.0004478
3800.09	0.0005406
3809.73	0.0002874
3819.38	0.0008206
3829.02	0.0004097
3838.67	0.0003637
3848.31	0.000586
3857.96	0.0007531
3867.6	0.0006993
3877.25	0.000464
3886.89	0.0006269
3896.54	0.0004741
3906.18	0.0007486
3915.83	0.000679
3925.47	0.0006389
3935.12	0.0008349
3944.76	0.0006874
3954.41	0.0005869
3964.05	0.000457
3973.69	0.0005959
3983.34	0.0004792
3992.98	0.0005381
