Infrared Spectrum: 3-ACETYL-5-METHYLMERCAPTO-1,3,4-THIADIAZOLIDONE-2-AZINE
Formula: C10 H12 N6 O2 S4
CAS: 109967-13-7
State: SOLID (KBr PELLET)
Class: COBLENTZ
Instrument: Not specified, most likely a prism, grating, or hybrid spectrometer.
Sampling: TRANSMISSION
Resolution: 4
Origin: NORBERT PETRI
MICROMETERS	TRANSMITTANCE
2.036	0.55
2.0721	0.555
2.10819	0.558
2.14429	0.562
2.18038	0.569
2.21648	0.573
2.25257	0.579
2.28867	0.59
2.32476	0.597
2.36086	0.6
2.39695	0.618
2.43305	0.623
2.46914	0.625
2.50524	0.63
2.54133	0.638
2.57743	0.656
2.61352	0.663
2.64962	0.669
2.68571	0.669
2.72181	0.676
2.7579	0.686
2.794	0.682
2.83009	0.675
2.86619	0.66
2.90228	0.649
2.93838	0.658
2.97447	0.66
3.01057	0.667
3.04666	0.673
3.08276	0.683
3.11885	0.686
3.15495	0.692
3.19104	0.694
3.22714	0.705
3.26323	0.713
3.29933	0.713
3.33542	0.703
3.37152	0.717
3.40761	0.723
3.44371	0.715
3.4798	0.733
3.5159	0.746
3.55199	0.752
3.58809	0.766
3.62418	0.772
3.66028	0.78
3.69637	0.787
3.73247	0.787
3.76856	0.791
3.80466	0.798
3.84075	0.804
3.87685	0.806
3.91294	0.809
3.94904	0.819
3.98513	0.825
4.02123	0.825
4.05732	0.825
4.09342	0.829
4.12951	0.829
4.16561	0.837
4.2017	0.842
4.2378	0.843
4.27389	0.838
4.30999	0.838
4.34608	0.841
4.38218	0.842
4.41827	0.844
4.45437	0.85
4.49046	0.856
4.52656	0.859
4.56265	0.87
4.59875	0.871
4.63484	0.876
4.67094	0.877
4.70703	0.88
4.74313	0.886
4.77922	0.89
4.81532	0.894
4.85141	0.9
4.88751	0.895
4.9236	0.899
4.9597	0.9
4.99579	0.91
5.03189	0.91
5.06798	0.915
5.10408	0.916
5.14017	0.918
5.17627	0.924
5.21236	0.929
5.24846	0.93
5.28455	0.929
5.32065	0.932
5.35674	0.932
5.39284	0.936
5.42893	0.943
5.46503	0.947
5.50112	0.958
5.53722	0.963
5.57331	0.957
5.60941	0.922
5.6455	0.882
5.6816	0.761
5.71769	0.406
5.75379	0.223
5.78988	0.229
5.82598	0.13
5.86207	0.461
5.89817	0.661
5.93426	0.707
5.97036	0.781
6.00645	0.813
6.04255	0.823
6.07864	0.83
6.11474	0.819
6.15083	0.71
6.18693	0.392
6.22302	0.143
6.25912	0.172
6.29521	0.374
6.33131	0.574
6.3674	0.681
6.4035	0.728
6.43959	0.798
6.47569	0.826
6.51178	0.613
6.54788	0.305
6.58397	0.574
6.62007	0.707
6.65616	0.793
6.69226	0.818
6.72835	0.83
6.76445	0.842
6.80054	0.838
6.83664	0.837
6.87273	0.836
6.90883	0.84
6.94492	0.826
6.98102	0.736
7.01711	0.704
7.05321	0.677
7.08931	0.723
7.1254	0.783
7.1615	0.8
7.19759	0.819
7.23369	0.818
7.26978	0.763
7.30588	0.59
7.34197	0.301
7.37807	0.36
7.41416	0.729
7.45026	0.802
7.48635	0.804
7.52245	0.76
7.55854	0.665
7.59464	0.543
7.63073	0.37
7.66683	0.206
7.70292	0.094
7.73902	0.08
7.77511	0.109
7.81121	0.21
7.8473	0.24
7.8834	0.282
7.91949	0.366
7.95559	0.476
7.99168	0.576
8.02778	0.652
8.06387	0.707
8.09997	0.747
8.13606	0.762
8.17216	0.772
8.20825	0.769
8.24435	0.776
8.28044	0.793
8.31654	0.806
8.35263	0.806
8.38873	0.815
8.42482	0.832
8.46092	0.833
8.49701	0.801
8.53311	0.797
8.5692	0.736
8.6053	0.583
8.64139	0.549
8.67749	0.624
8.71358	0.699
8.74968	0.747
8.78577	0.786
8.82187	0.797
8.85796	0.823
8.89406	0.84
8.93015	0.844
8.96625	0.848
9.00234	0.854
9.03844	0.861
9.07453	0.864
9.11063	0.852
9.14672	0.836
9.18282	0.824
9.21891	0.768
9.25501	0.727
9.2911	0.776
9.3272	0.763
9.36329	0.656
9.39939	0.449
9.43548	0.289
9.47158	0.398
9.50767	0.613
9.54377	0.712
9.57986	0.757
9.61596	0.77
9.65205	0.776
9.68815	0.763
9.72424	0.756
9.76034	0.797
9.79643	0.837
9.83253	0.861
9.86862	0.87
9.90472	0.875
9.94081	0.877
9.97691	0.88
10.013	0.882
10.0491	0.88
10.0852	0.849
10.1213	0.767
10.1574	0.733
10.1935	0.695
10.2296	0.549
10.2657	0.433
10.3018	0.379
10.3379	0.358
10.374	0.575
10.41	0.689
10.4461	0.78
10.4822	0.816
10.5183	0.837
10.5544	0.861
10.5905	0.876
10.6266	0.888
10.6627	0.895
10.6988	0.911
10.7349	0.917
10.771	0.917
10.8071	0.923
10.8432	0.929
10.8793	0.934
10.9154	0.936
10.9515	0.938
10.9876	0.939
11.0237	0.938
11.0598	0.936
11.0959	0.933
11.1319	0.928
11.168	0.934
11.2041	0.939
11.2402	0.949
11.2763	0.95
11.3124	0.943
11.3485	0.93
11.3846	0.92
11.4207	0.909
11.4568	0.909
11.4929	0.913
11.529	0.912
11.5651	0.911
11.6012	0.892
11.6373	0.83
11.6734	0.747
11.7095	0.621
11.7456	0.449
11.7817	0.31
11.8178	0.334
11.8538	0.526
11.8899	0.658
11.926	0.747
11.9621	0.826
11.9982	0.848
12.0343	0.88
12.0704	0.886
12.1065	0.899
12.1426	0.907
12.1787	0.911
12.2148	0.92
12.2509	0.922
12.287	0.932
12.3231	0.935
12.3592	0.938
12.3953	0.946
12.4314	0.938
12.4675	0.949
12.5036	0.949
12.5397	0.946
12.5758	0.952
12.6118	0.947
12.6479	0.956
12.684	0.956
12.7201	0.955
12.7562	0.961
12.7923	0.952
12.8284	0.957
12.8645	0.962
12.9006	0.953
12.9367	0.957
12.9728	0.96
13.0089	0.957
13.045	0.961
13.0811	0.953
13.1172	0.955
13.1533	0.958
13.1894	0.953
13.2255	0.957
13.2616	0.956
13.2977	0.94
13.3337	0.94
13.3698	0.923
13.4059	0.869
13.442	0.792
13.4781	0.75
13.5142	0.749
13.5503	0.833
13.5864	0.876
13.6225	0.888
13.6586	0.924
13.6947	0.933
13.7308	0.935
13.7669	0.947
13.803	0.955
13.8391	0.952
13.8752	0.952
13.9113	0.958
13.9474	0.956
13.9835	0.952
14.0196	0.951
14.0556	0.924
14.0917	0.888
14.1278	0.882
14.1639	0.898
14.2	0.915
14.2361	0.927
14.2722	0.934
14.3083	0.93
14.3444	0.928
14.3805	0.918
14.4166	0.837
14.4527	0.717
14.4888	0.604
14.5249	0.613
14.561	0.722
14.5971	0.798
14.6332	0.831
14.6693	0.853
14.7054	0.872
14.7415	0.895
14.7775	0.903
14.8136	0.901
14.8497	0.907
14.8858	0.913
14.9219	0.913
14.958	0.906
14.9941	0.911
15.0302	0.918
15.0663	0.918
15.1024	0.921
15.1385	0.927
15.1746	0.928
15.2107	0.928
15.2468	0.928
15.2829	0.93
15.319	0.923
15.3551	0.924
