Infrared Spectrum: ANILINE, o-tert-BUTYL-N-METHYL-
Formula: C11 H17 N
CAS: 109932-97-0
State: LIQUID (NEAT)
Class: COBLENTZ III
Instrument: BECKMAN IR-4 (HYBRID PRISM-GRATING)
Instrument parameters: NaCl PRISM
Sampling: TRANSMISSION
Path length: CAPILLARY
Resolution: 2
Origin: MONSANTO (J. FREEMAN)
1/CM	TRANSMITTANCE
3937.01	0.8984
3928.18	0.8989
3919.35	0.8994
3910.52	0.8999
3901.69	0.9005
3892.86	0.901
3884.03	0.9013
3875.2	0.9015
3866.37	0.9017
3857.54	0.902
3848.71	0.9021
3839.88	0.9025
3831.05	0.903
3822.22	0.9033
3813.39	0.9038
3804.56	0.9043
3795.73	0.9049
3786.9	0.9053
3778.07	0.9054
3769.24	0.9052
3760.41	0.905
3751.58	0.9045
3742.75	0.9041
3733.92	0.9036
3725.09	0.903
3716.26	0.9021
3707.43	0.901
3698.6	0.8998
3689.77	0.8988
3680.95	0.8975
3672.12	0.8965
3663.29	0.8953
3654.46	0.8935
3645.63	0.8917
3636.8	0.8898
3627.97	0.8876
3619.14	0.8855
3610.31	0.8832
3601.48	0.8804
3592.65	0.8773
3583.82	0.8739
3574.99	0.8693
3566.16	0.8645
3557.33	0.8548
3548.5	0.8461
3539.67	0.8359
3530.84	0.8105
3522.01	0.7465
3513.18	0.6818
3504.35	0.6167
3495.52	0.5562
3486.69	0.5465
3477.86	0.5699
3469.03	0.6719
3460.2	0.7694
3451.37	0.7995
3442.54	0.8093
3433.71	0.8278
3424.88	0.8573
3416.05	0.8677
3407.22	0.8699
3398.39	0.8706
3389.56	0.8712
3380.73	0.8739
3371.9	0.8766
3363.07	0.8791
3354.24	0.8809
3345.41	0.8828
3336.58	0.8845
3327.75	0.8858
3318.92	0.8869
3310.09	0.888
3301.26	0.8885
3292.43	0.8889
3283.6	0.8893
3274.77	0.8894
3265.94	0.8893
3257.11	0.8892
3248.28	0.8891
3239.45	0.8886
3230.62	0.8881
3221.79	0.8875
3212.96	0.887
3204.13	0.8864
3195.3	0.8854
3186.48	0.8845
3177.65	0.8832
3168.82	0.8813
3159.99	0.8793
3151.16	0.8749
3142.33	0.8656
3133.5	0.8534
3124.67	0.835
3115.84	0.8098
3107.01	0.7737
3098.18	0.7373
3089.35	0.7008
3080.52	0.6649
3071.69	0.6583
3062.86	0.6653
3054.03	0.6764
3045.2	0.6811
3036.37	0.6799
3027.54	0.6427
3018.71	0.5711
3009.88	0.499
3001.05	0.4266
2992.22	0.3537
2983.39	0.2804
2974.56	0.2066
2965.73	0.1775
2956.9	0.1977
2948.07	0.237
2939.24	0.2765
2930.41	0.3122
2921.58	0.3153
2912.75	0.3204
2903.92	0.3284
2895.09	0.3391
2886.26	0.3561
2877.43	0.3799
2868.6	0.5125
2859.77	0.671
2850.94	0.6891
2842.11	0.6554
2833.28	0.6101
2824.45	0.5666
2815.62	0.5702
2806.79	0.7728
2797.96	0.8235
2789.13	0.8582
2780.3	0.8712
2771.47	0.8757
2762.64	0.8783
2753.81	0.8807
2744.98	0.8834
2736.15	0.8872
2727.32	0.8949
2718.49	0.9013
2709.66	0.9054
2700.83	0.9073
2692.01	0.9087
2683.18	0.9097
2674.35	0.9108
2665.52	0.9113
2656.69	0.9114
2647.86	0.91
2639.03	0.9062
2630.2	0.8983
2621.37	0.8942
2612.54	0.8917
2603.71	0.8896
2594.88	0.8883
2586.05	0.8871
2577.22	0.8892
2568.39	0.8948
2559.56	0.9009
2550.73	0.9066
2541.9	0.9103
2533.07	0.9142
2524.24	0.917
2515.41	0.9189
2506.58	0.9205
2497.75	0.9214
2488.92	0.9224
2480.09	0.9234
2471.26	0.9244
2462.43	0.9253
2453.6	0.9263
2444.77	0.9268
2435.94	0.9258
2427.11	0.9238
2418.28	0.9221
2409.45	0.9221
2400.62	0.9248
2391.79	0.9326
2382.96	0.9393
2374.13	0.9414
2365.3	0.9428
2356.47	0.9439
2347.64	0.9446
2338.81	0.9422
2329.98	0.9386
2321.15	0.936
2312.32	0.9331
2303.49	0.9307
2294.66	0.93
2285.83	0.9302
2277	0.9307
2268.17	0.9313
2259.34	0.9319
2250.51	0.9325
2241.68	0.933
2232.85	0.9335
2224.02	0.9334
2215.19	0.9332
2206.36	0.9331
2197.54	0.9331
2188.71	0.933
2179.88	0.933
2171.05	0.9331
2162.22	0.9332
2153.39	0.9336
2144.56	0.9334
2135.73	0.9317
2126.9	0.9289
2118.07	0.9264
2109.24	0.9264
2100.41	0.9286
2091.58	0.9292
2082.75	0.9299
2073.92	0.9302
2065.09	0.9305
2056.26	0.9308
2047.43	0.9311
2038.6	0.9316
2029.77	0.932
2020.94	0.9324
2012.11	0.9327
2003.28	0.9327
1994.45	0.9328
1985.62	0.9328
1976.79	0.9327
1967.96	0.9327
1959.13	0.9313
1950.3	0.9265
1941.47	0.917
1932.64	0.9074
1923.81	0.903
1914.98	0.905
1906.15	0.8984
1897.32	0.8885
1888.49	0.8953
1879.66	0.9127
1870.83	0.9164
1862	0.9157
1853.17	0.918
1844.34	0.9211
1835.51	0.923
1826.68	0.921
1817.85	0.9182
1809.02	0.9171
1800.19	0.9171
1791.36	0.9133
1782.53	0.9064
1773.7	0.9025
1764.87	0.9108
1756.04	0.9213
1747.21	0.9238
1738.38	0.9195
1729.55	0.9166
1720.72	0.9143
1711.89	0.9127
1703.07	0.9105
1694.24	0.8978
1685.41	0.8868
1676.58	0.8866
1667.75	0.8854
1658.92	0.8813
1650.09	0.8728
1641.26	0.8586
1632.43	0.8247
1623.6	0.746
1614.77	0.6669
1605.94	0.3017
1597.11	0.4444
1588.28	0.437
1579.45	0.4719
1570.62	0.7825
1561.79	0.8234
1552.96	0.7765
1544.13	0.6775
1535.3	0.5774
1526.47	0.3679
1517.64	0.1085
1508.81	0.2166
1499.98	0.4449
1491.15	0.3999
1482.32	0.367
1473.49	0.4712
1464.66	0.4534
1455.83	0.2494
1447	0.369
1438.17	0.4611
1429.34	0.4689
1420.51	0.7064
1411.68	0.7393
1402.85	0.5886
1394.02	0.7517
1385.19	0.8244
1376.36	0.6127
1367.53	0.672
1358.7	0.864
1349.87	0.866
1341.04	0.8517
1332.21	0.7635
1323.38	0.6239
1314.55	0.2315
1305.72	0.2004
1296.89	0.479
1288.06	0.64
1279.23	0.6746
1270.4	0.4209
1261.57	0.3726
1252.74	0.549
1243.91	0.5274
1235.08	0.7397
1226.25	0.8419
1217.42	0.8495
1208.6	0.813
1199.77	0.627
1190.94	0.7327
1182.11	0.7388
1173.28	0.3786
1164.45	0.5862
1155.62	0.8031
1146.79	0.8569
1137.96	0.8624
1129.13	0.839
1120.3	0.7331
1111.47	0.6203
1102.64	0.7632
1093.81	0.7909
1084.98	0.8852
1076.15	0.8794
1067.32	0.8492
1058.49	0.554
1049.66	0.5641
1040.83	0.833
1032	0.8797
1023.17	0.8789
1014.34	0.8715
1005.51	0.9149
996.679	0.9225
987.85	0.9266
979.02	0.9277
970.19	0.9264
961.36	0.9177
952.53	0.9176
943.7	0.92
934.871	0.8842
926.041	0.8093
917.211	0.9007
908.381	0.9269
899.551	0.9332
890.722	0.9363
881.892	0.9359
873.062	0.935
864.232	0.9291
855.402	0.9184
846.572	0.8424
837.743	0.8199
828.913	0.8978
820.083	0.911
811.253	0.9149
802.423	0.8834
793.594	0.8289
784.764	0.8496
775.934	0.8425
767.104	0.7921
758.274	0.6197
749.444	0.1787
740.615	0.1197
731.785	0.5697
722.955	0.7437
714.125	0.7734
705.295	0.7696
696.465	0.7614
687.636	0.764
678.806	0.7397
669.976	0.7079
661.146	0.6812
652.316	0.6507
643.487	0.6444
634.657	0.6559
