Infrared Spectrum: 4-Amino-3-bromo-5-chlorobenzotrifluoride
Formula: C 7 H 4 Br Cl F 3 N
CAS: 109919-26-8
State: gas
Origin: EPA-IR VAPOR PHASE LIBRARY
1/CM	ABSORBANCE
549.8	0.004095
559.445	0.005525
569.09	0.004765
578.734	0.005025
588.379	0.004355
598.024	0.005055
607.669	0.005545
617.313	0.005365
626.958	0.006345
636.603	0.010085
646.248	0.025495
655.893	0.061175
665.537	0.043375
675.182	0.008865
684.827	0.006335
694.472	0.008775
704.116	0.012605
713.761	0.016745
723.406	0.018145
733.051	0.011915
742.695	0.018275
752.34	0.038175
761.985	0.051385
771.63	0.033645
781.275	0.021425
790.919	0.014915
800.564	0.011385
810.209	0.009775
819.854	0.008215
829.498	0.007025
839.143	0.007025
848.788	0.006065
858.433	0.005335
868.078	0.013795
877.722	0.039775
887.367	0.046515
897.012	0.014655
906.657	0.008025
916.301	0.006275
925.946	0.006035
935.591	0.005195
945.236	0.004565
954.88	0.003945
964.525	0.004665
974.17	0.004595
983.815	0.004245
993.46	0.003905
1003.1	0.004105
1012.75	0.006325
1022.39	0.004775
1032.04	0.004835
1041.68	0.007595
1051.33	0.009105
1060.97	0.012015
1070.62	0.015685
1080.26	0.017395
1089.91	0.021375
1099.55	0.053385
1109.2	0.046175
1118.84	0.026905
1128.49	0.060575
1138.13	0.186805
1147.78	0.232815
1157.42	0.064715
1167.07	0.116775
1176.71	0.190685
1186.36	0.055685
1196	0.018615
1205.64	0.011545
1215.29	0.012775
1224.93	0.015455
1234.58	0.021635
1244.22	0.016625
1253.87	0.011795
1263.51	0.023075
1273.16	0.091695
1282.8	0.148575
1292.45	0.066305
1302.09	0.065585
1311.74	0.155815
1321.38	0.364235
1331.03	0.313185
1340.67	0.079065
1350.32	0.019735
1359.96	0.015235
1369.61	0.012225
1379.25	0.010295
1388.9	0.010205
1398.54	0.021615
1408.18	0.047765
1417.83	0.028395
1427.47	0.010005
1437.12	0.006325
1446.76	0.004975
1456.41	0.004235
1466.05	0.005295
1475.7	0.010855
1485.34	0.022125
1494.99	0.014845
1504.63	0.003995
1514.28	0.002885
1523.92	0.004375
1533.57	0.006135
1543.21	0.006165
1552.86	0.008975
1562.5	0.014165
1572.15	0.012605
1581.79	0.017325
1591.44	0.016465
1601.08	0.020585
1610.73	0.053335
1620.37	0.109805
1630.01	0.067205
1639.66	0.023915
1649.3	0.013255
1658.95	0.008785
1668.59	0.005005
1678.24	0.003895
1687.88	0.002865
1697.53	0.002235
1707.17	0.002805
1716.82	0.002325
1726.46	0.002395
1736.11	0.002155
1745.75	0.002415
1755.4	0.003775
1765.04	0.007115
1774.69	0.007615
1784.33	0.003785
1793.98	0.002535
1803.62	0.002295
1813.27	0.001995
1822.91	0.001885
1832.55	0.002035
1842.2	0.001755
1851.84	0.001535
1861.49	0.001555
1871.13	0.001595
1880.78	0.001695
1890.42	0.001525
1900.07	0.001435
1909.71	0.001615
1919.36	0.001485
1929	0.001775
1938.65	0.001615
1948.29	0.0013913
1957.94	0.001405
1967.58	0.001585
1977.23	0.0013098
1986.87	0.001405
1996.52	0.001405
2006.16	0.001535
2015.81	0.001515
2025.45	0.001565
2035.1	0.001585
2044.74	0.001835
2054.38	0.001495
2064.03	0.001405
2073.67	0.001455
2083.32	0.001465
2092.96	0.0013513
2102.61	0.001485
2112.25	0.001615
2121.9	0.001515
2131.54	0.001515
2141.19	0.002005
2150.83	0.001695
2160.48	0.001535
2170.12	0.001475
2179.77	0.001835
2189.41	0.001905
2199.06	0.002195
2208.7	0.001825
2218.35	0.001585
2227.99	0.001645
2237.64	0.001935
2247.28	0.002005
2256.92	0.002085
2266.57	0.002195
2276.21	0.002375
2285.86	0.002315
2295.5	0.001775
2305.15	0.001795
2314.79	0.001855
2324.44	0.001735
2334.08	0.001705
2343.73	0.001935
2353.37	0.001605
2363.02	0.0012478
2372.66	0.001605
2382.31	0.001855
2391.95	0.001525
2401.6	0.0013697
2411.24	0.0009728
2420.89	0.001347
2430.53	0.001405
2440.18	0.001384
2449.82	0.0012354
2459.47	0.001405
2469.11	0.001575
2478.75	0.0012511
2488.4	0.001545
2498.04	0.001975
2507.69	0.001835
2517.33	0.001535
2526.98	0.001395
2536.62	0.001865
2546.27	0.002185
2555.91	0.002065
2565.56	0.001665
2575.2	0.0010783
2584.85	0.0013289
2594.49	0.001735
2604.14	0.001965
2613.78	0.002265
2623.43	0.002385
2633.07	0.002285
2642.72	0.002145
2652.36	0.001685
2662.01	0.001645
2671.65	0.0012321
2681.29	0.0011954
2690.94	0.0011558
2700.58	0.0012008
2710.23	0.0010777
2719.87	0.0011388
2729.52	0.0007948
2739.16	0.0009155
2748.81	0.0013567
2758.45	0.0011542
2768.1	0.0010432
2777.74	0.0010286
2787.39	0.0005447
2797.03	0.0008284
2806.68	0.0012938
2816.32	0.0010087
2825.97	0.0006733
2835.61	0.0009347
2845.26	0.0010456
2854.9	0.0010223
2864.55	0.0012276
2874.19	0.0012981
2883.84	0.0012893
2893.48	0.001281
2903.12	0.0012292
2912.77	0.001875
2922.41	0.001415
2932.06	0.001825
2941.7	0.001705
2951.35	0.001495
2960.99	0.002055
2970.64	0.001475
2980.28	0.0013195
2989.93	0.0009248
2999.57	0.0011853
3009.22	0.0008726
3018.86	0.001395
3028.51	0.001339
3038.15	0.0012501
3047.8	0.0010163
3057.44	0.001455
3067.09	0.001795
3076.73	0.0011832
3086.38	0.0013017
3096.02	0.001825
3105.67	0.001845
3115.31	0.002065
3124.95	0.001845
3134.6	0.0009206
3144.24	0.0013101
3153.89	0.0012593
3163.53	0.001545
3173.18	0.0011995
3182.82	0.001485
3192.47	0.001545
3202.11	0.0013853
3211.76	0.0010202
3221.4	0.0008835
3231.05	0.0009781
3240.69	0.0013798
3250.34	0.0012351
3259.98	0.0012159
3269.63	0.000661
3279.27	0.0009904
3288.92	0.0010147
3298.56	0.0008625
3308.21	0.0012334
3317.85	0.0008682
3327.49	0.0007657
3337.14	0.00093
3346.78	0.001172
3356.43	0.0012069
3366.07	0.001905
3375.72	0.002635
3385.36	0.004365
3395.01	0.009775
3404.65	0.017285
3414.3	0.019805
3423.94	0.019785
3433.59	0.014275
3443.23	0.003895
3452.88	0.002685
3462.52	0.002825
3472.17	0.005075
3481.81	0.007595
3491.46	0.010925
3501.1	0.016115
3510.75	0.019475
3520.39	0.016795
3530.04	0.019295
3539.68	0.013095
3549.32	0.003695
3558.97	0.002195
3568.61	0.001715
3578.26	0.001675
3587.9	0.0013029
3597.55	0.001575
3607.19	0.0003832
3616.84	0.0010779
3626.48	0.0008467
3636.13	0.0009939
3645.77	0.0008621
3655.42	0.0009512
3665.06	4e-06
3674.71	0.0010007
3684.35	0.0012998
3694	0.0011744
3703.64	0.0012696
3713.29	0.0005022
3722.93	0.0005372
3732.58	0.0006024
3742.22	0.0005915
3751.86	0
3761.51	0.0007855
3771.15	0.001011
3780.8	0.000294
3790.44	0.0008178
3800.09	0.0006828
3809.73	0.0011376
3819.38	0.001555
3829.02	0.001415
3838.67	0.0009198
3848.31	0.0008376
3857.96	0.0011672
3867.6	0.001565
3877.25	0.0009516
3886.89	0.0012955
3896.54	0.0010856
3906.18	0.0011123
3915.83	0.0012743
3925.47	0.0013412
3935.12	0.0009085
3944.76	0.0013118
3954.41	0.001845
3964.05	0.0012273
3973.69	0.001495
3983.34	0.001725
3992.98	0.0012133
