Infrared Spectrum: 2-PROPENAMIDE, N,N'-METHYLENEBIS-
Formula: C7 H10 N2 O2
CAS: 110-26-9
State: SOLID (SPLIT MULL, FLUOROLUBE FOR 3800-1330 AND NUJOL FOR 1330-450 CM ^-^1)
Melting point: ABOVE 300 C
Class: COBLENTZ III
Instrument: DOW KBr FOREPRISM-GRATING
Instrument parameters: BLAZED AT 3.5, 12.0, 20.0 MICRON, CHANGED AT 5.0, 7.5, 14.9 MICRON
Sampling: TRANSMISSION
Resolution: 4
Origin: DOW CHEMICAL COMPANY
1/CM	TRANSMITTANCE
441.436	0.779
449.937	0.779
458.439	0.769
466.94	0.725
475.441	0.68
483.942	0.777
492.444	0.845
500.945	0.86
509.446	0.867
517.947	0.875
526.449	0.882
534.95	0.883
543.451	0.882
551.952	0.88
560.454	0.877
568.955	0.875
577.456	0.873
585.958	0.864
594.459	0.851
602.96	0.822
611.461	0.76
619.963	0.723
628.464	0.7041
636.965	0.7128
645.466	0.714
653.968	0.6041
662.469	0.482
670.97	0.416
679.471	0.377
687.973	0.477
696.474	0.629
704.975	0.7419
713.477	0.747
721.978	0.76
730.479	0.817
738.98	0.852
747.482	0.882
755.983	0.9
764.484	0.904
772.985	0.91
781.487	0.911
789.988	0.905
798.489	0.882
806.991	0.7002
815.492	0.8013
823.993	0.922
832.494	0.898
840.996	0.814
849.497	0.922
857.998	0.925
866.499	0.923
875.001	0.917
883.502	0.905
892.003	0.901
900.504	0.892
909.006	0.832
917.507	0.889
926.008	0.883
934.51	0.87
943.011	0.833
951.512	0.648
960.013	0.632
968.515	0.6993
977.016	0.794
985.517	0.5612
994.018	0.4919
1002.52	0.852
1011.02	0.877
1019.52	0.87
1028.02	0.829
1036.52	0.847
1045.03	0.816
1053.53	0.826
1062.03	0.795
1070.53	0.5511
1079.03	0.85
1087.53	0.855
1096.03	0.835
1104.53	0.804
1113.04	0.651
1121.54	0.213
1130.04	0.7999
1138.54	0.823
1147.04	0.817
1155.54	0.807
1164.04	0.795
1172.55	0.78
1181.05	0.776
1189.55	0.758
1198.05	0.727
1206.55	0.676
1215.05	0.5041
1223.55	0.1583
1232.05	0.1419
1240.56	0.438
1249.06	0.6388
1257.56	0.763
1266.06	0.766
1274.56	0.747
1283.06	0.701
1291.56	0.638
1300.06	0.4071
1308.57	0.4265
1317.07	0.602
1325.57	0.626
1334.07	0.617
1342.57	0.632
1351.07	0.694
1359.57	0.702
1368.07	0.691
1376.58	0.557
1385.08	0.2847
1393.58	0.825
1402.08	0.7142
1410.58	0.4
1419.08	0.833
1427.58	0.81
1436.08	0.814
1444.59	0.852
1453.09	0.85
1461.59	0.832
1470.09	0.807
1478.59	0.795
1487.09	0.78
1495.59	0.758
1504.09	0.717
1512.6	0.676
1521.1	0.569
1529.6	0.382
1538.1	0.069
1546.6	0.033
1555.1	0.2507
1563.6	0.6519
1572.1	0.68
1580.61	0.65
1589.11	0.5261
1597.61	0.438
1606.11	0.2851
1614.61	0.107
1623.11	0.048
1631.61	0.129
1640.11	0.675
1648.62	0.3472
1657.12	0.023
1665.62	0.047
1674.12	0.4267
1682.62	0.7079
1691.12	0.813
1699.62	0.876
1708.12	0.914
1716.63	0.932
1725.13	0.954
1733.63	0.977
1742.13	0.989
1750.63	0.995
1759.13	0.997
1767.63	1
1776.14	1.004
1784.64	1.011
1793.14	1.017
1801.64	1.017
1810.14	1.023
1818.64	1.025
1827.14	1.026
1835.64	1.026
1844.15	1.025
1852.65	1.025
1861.15	1.025
1869.65	1.023
1878.15	1.022
1886.65	1.019
1895.15	1.016
1903.65	1.01
1912.16	0.989
1920.66	1
1929.16	0.992
1937.66	0.985
1946.16	1.01
1954.66	1.016
1963.16	1.017
1971.66	1.011
1980.17	1.014
1988.67	1.013
1997.17	1.011
2005.67	1.011
2014.17	1.011
2022.67	1.01
2031.17	1.008
2039.67	1.005
2048.18	1.002
2056.68	1
2065.18	0.9975
2073.68	0.995
2082.18	0.994
2090.68	0.9939
2099.18	0.991
2107.68	0.992
2116.19	0.9914
2124.69	0.991
2133.19	0.991
2141.69	0.991
2150.19	0.989
2158.69	0.991
2167.19	0.989
2175.69	0.988
2184.2	0.9854
2192.7	0.9847
2201.2	0.983
2209.7	0.982
2218.2	0.98
2226.7	0.977
2235.2	0.973
2243.7	0.9698
2252.21	0.967
2260.71	0.967
2269.21	0.967
2277.71	0.966
2286.21	0.9633
2294.71	0.961
2303.21	0.96
2311.71	0.9548
2320.22	0.9564
2328.72	0.9572
2337.22	0.958
2345.72	0.958
2354.22	0.9585
2362.72	0.958
2371.22	0.958
2379.73	0.9585
2388.23	0.961
2396.73	0.961
2405.23	0.9585
2413.73	0.957
2422.23	0.954
2430.73	0.9517
2439.23	0.951
2447.74	0.952
2456.24	0.952
2464.74	0.955
2473.24	0.957
2481.74	0.957
2490.24	0.957
2498.74	0.9547
2507.24	0.954
2515.75	0.9533
2524.25	0.951
2532.75	0.9506
2541.25	0.95
2549.75	0.95
2558.25	0.95
2566.75	0.948
2575.25	0.95
2583.76	0.95
2592.26	0.95
2600.76	0.947
2609.26	0.9422
2617.76	0.942
2626.26	0.942
2634.76	0.942
2643.26	0.9381
2651.77	0.9311
2660.27	0.925
2668.77	0.9254
2677.27	0.926
2685.77	0.926
2694.27	0.923
2702.77	0.9225
2711.27	0.919
2719.78	0.9165
2728.28	0.913
2736.78	0.9055
2745.28	0.892
2753.78	0.868
2762.28	0.845
2770.78	0.849
2779.28	0.858
2787.79	0.8695
2796.29	0.8921
2804.79	0.898
2813.29	0.895
2821.79	0.8915
2830.29	0.8828
2838.79	0.8567
2847.29	0.8301
2855.8	0.8491
2864.3	0.8722
2872.8	0.8826
2881.3	0.882
2889.8	0.8772
2898.3	0.8718
2906.8	0.8582
2915.3	0.8416
2923.81	0.8208
2932.31	0.822
2940.81	0.8181
2949.31	0.7938
2957.81	0.6999
2966.31	0.7676
2974.81	0.8039
2983.31	0.8127
2991.82	0.7676
3000.32	0.7972
3008.82	0.816
3017.32	0.8127
3025.82	0.7966
3034.32	0.7383
3042.82	0.7336
3051.33	0.6991
3059.83	0.6142
3068.33	0.532
3076.83	0.5718
3085.33	0.7119
3093.83	0.7517
3102.33	0.7478
3110.83	0.7765
3119.34	0.786
3127.84	0.785
3136.34	0.7742
3144.84	0.7585
3153.34	0.7404
3161.84	0.7114
3170.34	0.6759
3178.84	0.67
3187.35	0.6727
3195.85	0.6608
3204.35	0.6125
3212.85	0.5768
3221.35	0.5517
3229.85	0.5286
3238.35	0.5101
3246.85	0.4707
3255.36	0.421
3263.86	0.3958
3272.36	0.34
3280.86	0.2275
3289.36	0.1188
3297.86	0.0701
3306.36	0.0256
3314.86	0.023
3323.37	0.0441
3331.87	0.1792
3340.37	0.3337
3348.87	0.484
3357.37	0.6074
3365.87	0.6897
3374.37	0.7533
3382.87	0.7928
3391.38	0.8143
3399.88	0.8386
3408.38	0.8557
3416.88	0.8758
3425.38	0.8914
3433.88	0.901
3442.38	0.9089
3450.88	0.914
3459.39	0.9179
3467.89	0.92
3476.39	0.922
3484.89	0.923
3493.39	0.922
3501.89	0.922
3510.39	0.922
3518.89	0.922
3527.4	0.922
3535.9	0.922
3544.4	0.923
3552.9	0.923
3561.4	0.923
3569.9	0.9189
3578.4	0.905
3586.9	0.9201
3595.41	0.922
3603.91	0.9201
3612.41	0.922
3620.91	0.922
3629.41	0.922
3637.91	0.9199
3646.41	0.919
3654.92	0.919
3663.42	0.9164
3671.92	0.911
3680.42	0.911
3688.92	0.911
3697.42	0.913
3705.92	0.913
3714.42	0.911
3722.93	0.91
3731.43	0.91
3739.93	0.911
3748.43	0.911
3756.93	0.91
3765.43	0.908
3773.93	0.904
3782.43	0.904
3790.94	0.904
