Infrared Spectrum: 1,4-Dichloro-2-butene
Formula: C 4 H 6 Cl 2
CAS: 110-57-6
State: gas
Instrument: HP-GC/MS/IRD
Origin: NIST Mass Spectrometry Data Center
1/CM	ABSORBANCE
550	0.0001463
562	1.87e-05
574	7.26e-05
586	0.0001716
598	0.0001386
610	0.0003069
622	0.0003685
634	0.0004169
646	0.0007909
658	0.0015972
670	0.0034188
682	0.0056243
694	0.0065846
706	0.0090849
718	0.011
730	0.0086625
742	0.0056496
754	0.0027588
766	0.001551
778	0.0010626
790	0.0006347
802	0.0004807
814	0.0003718
826	0.0002024
838	9.57e-05
850	7.92e-05
862	0.0002189
874	0.0002948
886	0.0004334
898	0.0006765
910	0.0009867
922	0.001397
934	0.0026015
946	0.0049368
958	0.0075328
970	0.0065714
982	0.0034925
994	0.0017457
1006	0.0010802
1018	0.0009262
1030	0.0007766
1042	0.0006545
1054	0.0006985
1066	0.0012397
1078	0.0017182
1090	0.0008195
1102	0.0002816
1114	0.0001364
1126	0.0002266
1138	0.00066
1150	0.0006589
1162	0.0004345
1174	0.000374
1186	0.0002948
1198	0.0003916
1210	0.0005863
1222	0.0013431
1234	0.0041646
1246	0.0101926
1258	0.009185
1270	0.0056353
1282	0.0045595
1294	0.003322
1306	0.0034111
1318	0.0037829
1330	0.0022561
1342	0.0009856
1354	0.0006512
1366	0.0004334
1378	0.000286
1390	0.0002332
1402	0.0002816
1414	0.0004279
1426	0.0007832
1438	0.0014553
1450	0.0015818
1462	0.0009735
1474	0.0004587
1486	0.0001804
1498	8.69e-05
1510	6.16e-05
1522	5.28e-05
1534	2.97e-05
1546	4.4e-05
1558	9.9e-06
1570	2.64e-05
1582	6.6e-06
1594	2.31e-05
1606	4.95e-05
1618	5.17e-05
1630	0.0001001
1642	0.0001408
1654	0.000143
1666	0.00022
1678	0.0002618
1690	0.0001298
1702	7.59e-05
1714	8.69e-05
1726	7.81e-05
1738	0.0001254
1750	0.0001804
1762	0.0001738
1774	0.000132
1786	0.0001133
1798	8.69e-05
1810	7.59e-05
1822	6.6e-05
1834	7.15e-05
1846	8.25e-05
1858	0.0001584
1870	0.0001298
1882	0.0001408
1894	0.0001034
1906	6.38e-05
1918	2.86e-05
1930	1.98e-05
1942	4.18e-05
1954	1.65e-05
1966	2.09e-05
1978	2.97e-05
1990	3.3e-05
2002	2.53e-05
2014	1.43e-05
2026	6.49e-05
2038	4.62e-05
2050	6.38e-05
2062	3.52e-05
2074	7.26e-05
2086	7.48e-05
2098	5.72e-05
2110	4.95e-05
2122	5.5e-05
2134	4.84e-05
2146	3.41e-05
2158	4.84e-05
2170	4.95e-05
2182	3.52e-05
2194	4.29e-05
2206	8.58e-05
2218	6.16e-05
2230	9.24e-05
2242	5.94e-05
2254	6.49e-05
2266	0.0001078
2278	9.57e-05
2290	0.0001023
2302	8.69e-05
2314	0.0001045
2326	0.0001496
2338	0.0001782
2350	0.0001771
2362	0.0001353
2374	0.0001518
2386	0.0001353
2398	0.0001045
2410	8.58e-05
2422	6.71e-05
2434	4.4e-05
2446	1.87e-05
2458	3.63e-05
2470	4.07e-05
2482	4.95e-05
2494	0.0001023
2506	8.47e-05
2518	8.03e-05
2530	7.7e-05
2542	2.75e-05
2554	2.31e-05
2566	3.08e-05
2578	2.75e-05
2590	2.09e-05
2602	4.95e-05
2614	4.18e-05
2626	2.64e-05
2638	5.5e-05
2650	4.4e-05
2662	8.25e-05
2674	9.79e-05
2686	0.000165
2698	0.0002222
2710	0.0001958
2722	0.0001727
2734	0.0001485
2746	0.0001243
2758	9.35e-05
2770	8.25e-05
2782	8.25e-05
2794	7.15e-05
2806	0.0001221
2818	0.0001496
2830	0.0002189
2842	0.000352
2854	0.0005775
2866	0.0007568
2878	0.0007414
2890	0.0006061
2902	0.0005324
2914	0.0005951
2926	0.0009779
2938	0.00198
2950	0.0034683
2962	0.0043901
2974	0.0040073
2986	0.0030712
2998	0.0023771
3010	0.0019811
3022	0.0017116
3034	0.0016775
3046	0.0016555
3058	0.0012133
3070	0.0007458
3082	0.000407
3094	0.0002552
3106	0.0001738
3118	0.0001628
3130	0.000121
3142	0.0001078
3154	0.0001111
3166	0.000121
3178	0.0001199
3190	0.0001177
3202	0.000132
3214	7.15e-05
3226	6.27e-05
3238	9.68e-05
3250	0.0001023
3262	8.47e-05
3274	8.47e-05
3286	0.0001056
3298	6.71e-05
3310	9.79e-05
3322	1.54e-05
3334	0.0001166
3346	8.69e-05
3358	5.61e-05
3370	7.92e-05
3382	2.64e-05
3394	0.0001001
3406	0.0001111
3418	3.08e-05
3430	5.72e-05
3442	3.85e-05
3454	9.79e-05
3466	0.0001155
3478	8.58e-05
3490	8.36e-05
3502	9.13e-05
3514	0.0001782
3526	0.0001089
3538	0.0001408
3550	8.25e-05
3562	0.0001045
3574	7.48e-05
3586	8.36e-05
3598	7.7e-05
3610	9.35e-05
3622	0.0001298
3634	6.82e-05
3646	0.000121
3658	0.0001078
3670	0.0001188
3682	0.0001375
3694	8.58e-05
3706	0.0001221
3718	0.0001111
3730	0.0001089
3742	5.83e-05
3754	7.59e-05
3766	0.0001188
3778	0.0001243
3790	0.0001584
3802	5.28e-05
3814	7.81e-05
3826	8.8e-05
3838	9.57e-05
