Infrared Spectrum: 2-Methylundecanal
Formula: C 12 H 24 O
CAS: 110-41-8
State: gas
Instrument: HP-GC/MS/IRD
Origin: NIST Mass Spectrometry Data Center
1/CM	ABSORBANCE
550	0.0004746
562	0.0001638
574	0.000168
586	0.0001386
598	1.26e-05
610	1.68e-05
622	0.0001092
634	0.0002142
646	0.0002604
658	0.0001596
670	0.0002394
682	0.0002142
694	0.0002856
706	0.000483
718	0.0007728
730	0.0007686
742	0.0006762
754	0.0006006
766	0.0005376
778	0.0005712
790	0.0005838
802	0.0006846
814	0.0007308
826	0.000651
838	0.0006678
850	0.0005964
862	0.000651
874	0.000714
886	0.0008736
898	0.0012054
910	0.0016506
922	0.001785
934	0.001323
946	0.0008736
958	0.0006384
970	0.0004872
982	0.000441
994	0.0003192
1006	0.0003318
1018	0.0002982
1030	0.0003402
1042	0.0003864
1054	0.0003192
1066	0.0003444
1078	0.0003738
1090	0.000399
1102	0.0004536
1114	0.0005292
1126	0.000504
1138	0.000588
1150	0.0005124
1162	0.000441
1174	0.0004662
1186	0.0004158
1198	0.000378
1210	0.0002856
1222	0.0002982
1234	0.0002814
1246	0.0002982
1258	0.000399
1270	0.0004578
1282	0.0005544
1294	0.0006846
1306	0.0007854
1318	0.0007938
1330	0.0008694
1342	0.0011886
1354	0.0013566
1366	0.0013734
1378	0.001743
1390	0.0014658
1402	0.0010584
1414	0.0008106
1426	0.0009324
1438	0.0016128
1450	0.0031584
1462	0.0043386
1474	0.002898
1486	0.0012558
1498	0.000651
1510	0.0004242
1522	0.0002898
1534	0.0002226
1546	0.0002058
1558	0.0001974
1570	0.0001596
1582	0.0001512
1594	0.000147
1606	0.0001554
1618	0.0001638
1630	0.00021
1642	0.0002898
1654	0.0003906
1666	0.0005754
1678	0.000861
1690	0.001323
1702	0.002142
1714	0.0037086
1726	0.007602
1738	0.014259
1750	0.0114366
1762	0.0050442
1774	0.002478
1786	0.0014574
1798	0.0009744
1810	0.0006384
1822	0.0004536
1834	0.0003108
1846	0.0002226
1858	0.000147
1870	9.66e-05
1882	7.98e-05
1894	7.14e-05
1906	7.14e-05
1918	2.94e-05
1930	1.68e-05
1942	4.2e-05
1954	1.26e-05
1966	8.4e-06
1978	2.1e-05
1990	4.2e-06
2002	0
2014	5.88e-05
2026	4.62e-05
2038	5.88e-05
2050	3.78e-05
2062	5.04e-05
2074	3.78e-05
2086	5.04e-05
2098	3.78e-05
2110	1.26e-05
2122	4.2e-06
2134	0
2146	4.2e-06
2158	2.52e-05
2170	3.36e-05
2182	0
2194	1.68e-05
2206	1.26e-05
2218	3.78e-05
2230	3.36e-05
2242	5.04e-05
2254	3.78e-05
2266	3.78e-05
2278	1.68e-05
2290	2.52e-05
2302	2.94e-05
2314	4.62e-05
2326	6.3e-05
2338	5.04e-05
2350	4.2e-05
2362	7.56e-05
2374	4.2e-05
2386	2.52e-05
2398	3.36e-05
2410	5.46e-05
2422	5.04e-05
2434	2.94e-05
2446	5.04e-05
2458	5.04e-05
2470	4.62e-05
2482	5.46e-05
2494	7.98e-05
2506	7.98e-05
2518	0.0001176
2530	0.000126
2542	0.0001764
2554	0.000168
2566	0.0001932
2578	0.0002646
2590	0.0003192
2602	0.00042
2614	0.0005586
2626	0.0007644
2638	0.0009744
2650	0.0012852
2662	0.0017556
2674	0.002562
2686	0.0038598
2698	0.0049266
2710	0.0042126
2722	0.0030996
2734	0.0025326
2746	0.0022722
2758	0.0021672
2770	0.0022512
2782	0.0025704
2794	0.0032802
2806	0.0038136
2818	0.0034356
2830	0.0036498
2842	0.005271
2854	0.0110124
2866	0.0165102
2878	0.0134694
2890	0.0112686
2902	0.0124446
2914	0.0195006
2926	0.0351834
2938	0.0401898
2950	0.0239568
2962	0.0171192
2974	0.0148638
2986	0.0081228
2998	0.0038136
3010	0.0021714
3022	0.001491
3034	0.0011382
3046	0.0008988
3058	0.000756
3070	0.000672
3082	0.0005922
3094	0.000525
3106	0.0004872
3118	0.000441
3130	0.000399
3142	0.0003402
3154	0.0003444
3166	0.0002856
3178	0.0002436
3190	0.0002058
3202	0.0001806
3214	0.0001554
3226	0.0001428
3238	9.24e-05
3250	8.82e-05
3262	5.04e-05
3274	5.46e-05
3286	5.04e-05
3298	4.2e-05
3310	3.36e-05
3322	4.2e-05
3334	9.24e-05
3346	2.94e-05
3358	7.98e-05
3370	8.82e-05
3382	7.14e-05
3394	5.88e-05
3406	9.66e-05
3418	0.0001302
3430	0.0001638
3442	0.0002016
3454	0.0002814
3466	0.0003318
3478	0.0002562
3490	0.0001428
3502	8.4e-05
3514	9.66e-05
3526	6.72e-05
3538	4.62e-05
3550	4.2e-06
3562	3.36e-05
3574	6.72e-05
3586	0.0001134
3598	4.62e-05
3610	8.82e-05
3622	9.66e-05
3634	0.000126
3646	9.66e-05
3658	8.4e-05
3670	6.72e-05
3682	5.46e-05
3694	5.88e-05
3706	9.24e-05
3718	7.98e-05
3730	9.66e-05
3742	0.0001134
3754	0.0001218
3766	8.82e-05
3778	7.14e-05
3790	8.4e-05
3802	9.24e-05
3814	0.0001512
3826	9.66e-05
3838	7.98e-05
