Infrared Spectrum: 2-Heptanone
Formula: C 7 H 14 O
CAS: 110-43-0
State: gas
Instrument: HP-GC/MS/IRD
Origin: NIST Mass Spectrometry Data Center
1/CM	ABSORBANCE
550	0.0007308
562	0.0006156
574	0.000639
586	0.0007434
598	0.0007974
610	0.0003996
622	0.0002016
634	0.0001494
646	0.0001206
658	7.74e-05
670	0.0001044
682	0.0001098
694	0.000252
706	0.0004392
718	0.0006084
730	0.000495
742	0.0003474
754	0.0002736
766	0.0002466
778	0.000261
790	0.0001746
802	0.0001278
814	0.0001638
826	1.44e-05
838	0.000144
850	0.00018
862	0.0001818
874	0.0001944
886	0.0002358
898	0.0003492
910	0.000531
922	0.0008712
934	0.0010566
946	0.0009702
958	0.0008676
970	0.0008352
982	0.000765
994	0.000585
1006	0.0005418
1018	0.0005382
1030	0.0004716
1042	0.000405
1054	0.0003762
1066	0.0003402
1078	0.0003726
1090	0.0005922
1102	0.0008118
1114	0.001053
1126	0.0012798
1138	0.002034
1150	0.0042786
1162	0.0063936
1174	0.0049266
1186	0.0030114
1198	0.002682
1210	0.0029628
1222	0.0030636
1234	0.0025668
1246	0.001935
1258	0.0015318
1270	0.001467
1282	0.0015768
1294	0.0016686
1306	0.0016794
1318	0.0018378
1330	0.0024822
1342	0.0039222
1354	0.0065934
1366	0.0070722
1378	0.0043182
1390	0.0027162
1402	0.0022392
1414	0.0023886
1426	0.0025416
1438	0.0025902
1450	0.0028404
1462	0.0029412
1474	0.0022338
1486	0.0013554
1498	0.0008622
1510	0.000693
1522	0.000612
1534	0.0005724
1546	0.0005094
1558	0.0004644
1570	0.0004032
1582	0.0003762
1594	0.0003582
1606	0.0003132
1618	0.0003294
1630	0.0003546
1642	0.0004284
1654	0.0005634
1666	0.0008352
1678	0.0014634
1690	0.0026406
1702	0.0050094
1714	0.009666
1726	0.0151416
1738	0.014292
1750	0.007929
1762	0.0034038
1774	0.0016002
1786	0.0008118
1798	0.000468
1810	0.0003042
1822	0.0002358
1834	0.0001656
1846	0.0001548
1858	0.0001404
1870	0.000117
1882	9e-05
1894	7.74e-05
1906	9e-05
1918	8.1e-05
1930	7.02e-05
1942	7.92e-05
1954	6.66e-05
1966	5.76e-05
1978	3.96e-05
1990	4.68e-05
2002	2.7e-05
2014	3.42e-05
2026	4.14e-05
2038	6.3e-05
2050	5.76e-05
2062	6.48e-05
2074	6.48e-05
2086	3.78e-05
2098	6.66e-05
2110	7.02e-05
2122	7.56e-05
2134	7.92e-05
2146	8.82e-05
2158	8.1e-05
2170	5.76e-05
2182	4.68e-05
2194	3.78e-05
2206	3.96e-05
2218	3.42e-05
2230	3.6e-05
2242	3.96e-05
2254	3.78e-05
2266	4.68e-05
2278	3.78e-05
2290	3.78e-05
2302	5.58e-05
2314	4.68e-05
2326	3.78e-05
2338	4.32e-05
2350	6.12e-05
2362	1.44e-05
2374	2.7e-05
2386	3.78e-05
2398	3.96e-05
2410	7.2e-06
2422	2.88e-05
2434	4.14e-05
2446	4.5e-05
2458	2.7e-05
2470	3.96e-05
2482	3.6e-05
2494	2.52e-05
2506	4.32e-05
2518	4.68e-05
2530	4.86e-05
2542	5.76e-05
2554	6.66e-05
2566	7.56e-05
2578	9.36e-05
2590	7.56e-05
2602	7.92e-05
2614	7.56e-05
2626	9.36e-05
2638	0.000117
2650	0.0001368
2662	0.0001854
2674	0.000216
2686	0.0002124
2698	0.0002124
2710	0.0002376
2722	0.0002556
2734	0.0002934
2746	0.0003402
2758	0.0003618
2770	0.0004032
2782	0.0004986
2794	0.000666
2806	0.000873
2818	0.0011718
2830	0.0015696
2842	0.0024984
2854	0.004383
2866	0.006651
2878	0.0081594
2890	0.0083034
2902	0.0085716
2914	0.0108
2926	0.0148608
2938	0.0179154
2950	0.0170982
2962	0.0160632
2974	0.0132714
2986	0.0067878
2998	0.0036324
3010	0.0026496
3022	0.0019764
3034	0.0014148
3046	0.001134
3058	0.0009792
3070	0.0008658
3082	0.000747
3094	0.0006264
3106	0.0005004
3118	0.000396
3130	0.0003294
3142	0.0002628
3154	0.0002718
3166	0.0002106
3178	0.0001764
3190	0.0001386
3202	0.0001314
3214	0.0001044
3226	0.0001224
3238	6.84e-05
3250	7.56e-05
3262	6.12e-05
3274	6.3e-05
3286	7.74e-05
3298	2.7e-05
3310	6.66e-05
3322	6.12e-05
3334	4.32e-05
3346	5.76e-05
3358	7.92e-05
3370	9.18e-05
3382	0.0001152
3394	0.0001476
3406	0.0001458
3418	0.0002214
3430	0.0003042
3442	0.0003402
3454	0.0003042
3466	0.0002358
3478	0.0001134
3490	9.9e-05
3502	7.2e-05
3514	3.6e-05
3526	9e-06
3538	1.98e-05
3550	3.6e-05
3562	3.78e-05
3574	3.96e-05
3586	2.52e-05
3598	4.5e-05
3610	8.64e-05
3622	5.58e-05
3634	3.6e-05
3646	7.38e-05
3658	5.22e-05
3670	6.3e-05
3682	6.66e-05
3694	8.64e-05
3706	8.82e-05
3718	6.84e-05
3730	7.92e-05
3742	6.48e-05
3754	5.58e-05
3766	9.72e-05
3778	0.0001152
3790	4.86e-05
3802	9.36e-05
3814	8.82e-05
3826	6.3e-05
3838	9.18e-05
