Infrared Spectrum: Sorbic acid
Formula: C6 H8 O2
CAS: 110-44-1
State: SOLID (SPLIT MULL) NaCl PLATE FOR 3800-1333 CM^-^1, KBr PLATE FOR 1333-400 CM^-^1
Class: COBLENTZ II
Instrument: BECKMAN IR-9 (GRATING)
Instrument parameters: ORDER CHANGES: 670, 1200, 2000 CM^-^1
Sampling: TRANSMISSION
Resolution: 2
Origin: DOW CHEMICAL COMPANY
1/CM	TRANSMITTANCE
3792	0.6591
3783	0.6601
3774	0.6615
3765	0.6628
3756	0.6643
3747	0.6667
3738	0.6692
3729	0.6721
3720	0.6754
3711	0.6785
3702	0.681
3693	0.6834
3684	0.6858
3675	0.6881
3666	0.6905
3657	0.6928
3648	0.6954
3639	0.6978
3630	0.7001
3621	0.7025
3612	0.705
3603	0.7075
3594	0.7103
3585	0.7128
3576	0.7161
3567	0.7193
3558	0.7225
3549	0.7258
3540	0.7282
3531	0.7306
3522	0.7331
3513	0.7358
3504	0.7384
3495	0.7411
3486	0.7441
3477	0.7468
3468	0.7505
3459	0.7544
3450	0.7588
3441	0.7632
3432	0.7675
3423	0.7718
3414	0.776
3405	0.7801
3396	0.7838
3387	0.7872
3378	0.7914
3369	0.795
3360	0.7965
3351	0.7976
3342	0.7972
3333	0.7967
3324	0.7953
3315	0.7934
3306	0.791
3297	0.7898
3288	0.7887
3279	0.786
3270	0.7832
3261	0.78
3252	0.7765
3243	0.7732
3234	0.7692
3225	0.7612
3216	0.7534
3207	0.7456
3198	0.7378
3189	0.7287
3180	0.7204
3171	0.7121
3162	0.7037
3153	0.6946
3144	0.6856
3135	0.6724
3126	0.6586
3117	0.6425
3108	0.6237
3099	0.6064
3090	0.5908
3081	0.5742
3072	0.5578
3063	0.5478
3054	0.5445
3045	0.5332
3036	0.5047
3027	0.4832
3018	0.4883
3009	0.4877
3000	0.4778
2991	0.4666
2982	0.4526
2973	0.4481
2964	0.4567
2955	0.4619
2946	0.4706
2937	0.4707
2928	0.4677
2919	0.4677
2910	0.468
2901	0.4686
2892	0.4693
2883	0.4743
2874	0.4799
2865	0.4792
2856	0.4731
2847	0.4657
2838	0.4585
2829	0.4606
2820	0.4648
2811	0.4762
2802	0.4905
2793	0.507
2784	0.5255
2775	0.5239
2766	0.5233
2757	0.5229
2748	0.5229
2739	0.5241
2730	0.5297
2721	0.5337
2712	0.5252
2703	0.5177
2694	0.5134
2685	0.5131
2676	0.5098
2667	0.501
2658	0.4939
2649	0.4896
2640	0.4951
2631	0.5012
2622	0.5042
2613	0.5051
2604	0.5056
2595	0.501
2586	0.4924
2577	0.4837
2568	0.4831
2559	0.4836
2550	0.4888
2541	0.496
2532	0.4967
2523	0.4995
2514	0.5091
2505	0.5177
2496	0.5249
2487	0.5317
2478	0.5383
2469	0.5446
2460	0.5493
2451	0.555
2442	0.5606
2433	0.5658
2424	0.5702
2415	0.5734
2406	0.5786
2397	0.5896
2388	0.5998
2379	0.6088
2370	0.6162
2361	0.6201
2352	0.6221
2343	0.6246
2334	0.6272
2325	0.6288
2316	0.6298
2307	0.6317
2298	0.6392
2289	0.6487
2280	0.6567
2271	0.664
2262	0.6708
2253	0.6775
2244	0.6853
2235	0.6951
2226	0.7033
2217	0.7095
2208	0.7156
2199	0.7201
2190	0.7258
2181	0.7318
2172	0.7365
2163	0.7415
2154	0.7444
2145	0.7442
2136	0.7368
2127	0.7276
2118	0.7075
2109	0.7015
2100	0.6992
2091	0.6995
2082	0.6992
2073	0.6985
2064	0.6985
2055	0.6988
2046	0.6993
2037	0.6999
2028	0.7011
2019	0.7028
2010	0.7062
2001	0.7071
1992	0.7057
1983	0.7096
1974	0.7148
1965	0.7167
1956	0.7136
1947	0.7107
1938	0.7175
1929	0.7211
1920	0.7215
1911	0.7212
1902	0.7214
1893	0.7218
1884	0.7231
1875	0.7257
1866	0.7326
1857	0.7394
1848	0.7399
1839	0.7317
1830	0.7386
1821	0.7393
1812	0.7383
1803	0.7392
1794	0.7387
1785	0.7388
1776	0.7485
1767	0.7636
1758	0.7719
1749	0.7806
1740	0.7834
1731	0.7787
1722	0.7305
1713	0.5973
1704	0.2626
1695	0.1452
1686	0.1546
1677	0.1615
1668	0.2894
1659	0.449
1650	0.5306
1641	0.15
1632	0.2598
1623	0.3547
1614	0.2492
1605	0.3092
1596	0.4204
1587	0.4562
1578	0.5235
1569	0.5676
1560	0.5929
1551	0.6131
1542	0.634
1533	0.6555
1524	0.6649
1515	0.6775
1506	0.6957
1497	0.7028
1488	0.7197
1479	0.7441
1470	0.7541
1461	0.7484
1452	0.6862
1443	0.5992
1434	0.5623
1425	0.4323
1416	0.3446
1407	0.4539
1398	0.601
1389	0.63
1380	0.3894
1371	0.5942
1362	0.6912
1353	0.6806
1344	0.5516
1335	0.2796
1326	0.2682
1317	0.4264
1308	0.5218
1299	0.4066
1290	0.5153
1281	0.4073
1272	0.1933
1263	0.0929
1254	0.3546
1245	0.4723
1236	0.5455
1227	0.579
1218	0.5988
1209	0.5253
1200	0.5115
1191	0.6178
1182	0.6476
1173	0.6561
1164	0.5764
1155	0.2774
1146	0.5271
1137	0.5879
1128	0.6338
1119	0.6481
1110	0.6587
1101	0.6591
1092	0.6521
1083	0.6568
1074	0.6608
1065	0.6628
1056	0.6621
1047	0.6574
1038	0.6553
1029	0.6588
1020	0.653
1011	0.6194
1002	0.2698
993	0.4614
984	0.6543
975	0.5897
966	0.6407
957	0.6169
948	0.4751
939	0.5647
930	0.4897
921	0.4277
912	0.5339
903	0.6274
894	0.6676
885	0.6861
876	0.57
867	0.6967
858	0.7232
849	0.7257
840	0.7221
831	0.7221
822	0.7299
813	0.7192
804	0.7139
795	0.7606
786	0.7638
777	0.7651
768	0.7656
759	0.7651
750	0.7619
741	0.7493
732	0.7178
723	0.7051
714	0.7254
705	0.5467
696	0.6805
687	0.7428
678	0.7678
669	0.7819
660	0.7821
651	0.7819
642	0.7821
633	0.7825
624	0.7801
615	0.7704
606	0.7457
597	0.7188
588	0.7396
579	0.7722
570	0.7908
561	0.7914
552	0.7857
543	0.7755
534	0.7654
525	0.7565
516	0.7457
507	0.7331
498	0.7153
489	0.6951
480	0.5927
471	0.5612
462	0.6474
453	0.6271
444	0.5996
435	0.5828
426	0.5792
417	0.5857
408	0.5918
