Infrared Spectrum: Beta-ISO-PROPOXYPROPIONITRILE
Formula: C6 H11 N O
CAS: 110-47-4
State: LIQUID
Boiling point: 61-62.5 C AT 7 mmHg
Class: COBLENTZ
Instrument: Not specified, most likely a prism, grating, or hybrid spectrometer.
Sampling: TRANSMISSION
Path length: 0.003 CM
Resolution: 4
Origin: WYANDOTTE CHEMICALS CORP., WYANDOTTE, MICHIGAN, USA
MICROMETERS	TRANSMITTANCE
2.124	1.001
2.16382	0.965
2.20365	0.966
2.24347	0.988
2.2833	0.986
2.32312	0.975
2.36294	0.975
2.40277	0.981
2.44259	0.991
2.48242	0.996
2.52224	1.008
2.56206	1.008
2.60189	1.009
2.64171	1.001
2.68153	0.981
2.72136	0.978
2.76118	0.963
2.80101	0.963
2.84083	0.986
2.88065	0.993
2.92048	1.003
2.9603	1
3.00013	1.008
3.03995	0.996
3.07977	0.978
3.1196	0.97
3.15942	0.975
3.19925	0.95
3.23907	0.908
3.27889	0.556
3.31872	0.117
3.35854	0.181
3.39837	0.181
3.43819	0.162
3.47801	0.606
3.51784	0.784
3.55766	0.807
3.59749	0.865
3.63731	0.92
3.67713	0.946
3.71696	0.961
3.75678	0.882
3.7966	0.968
3.83643	0.993
3.87625	1.003
3.91608	1.003
3.9559	1.003
3.99572	0.996
4.03555	0.995
4.07537	1.008
4.1152	1
4.15502	1.006
4.19484	1.006
4.23467	1.009
4.27449	1.006
4.31432	1.003
4.35414	0.995
4.39396	0.98
4.43379	0.843
4.47361	0.451
4.51344	0.951
4.55326	0.983
4.59308	0.981
4.63291	0.976
4.67273	0.986
4.71256	1.001
4.75238	1.004
4.7922	1.004
4.83203	1.004
4.87185	1.003
4.91167	1.008
4.9515	1.006
4.99132	1.004
5.03115	1.004
5.07097	1.006
5.11079	1.003
5.15062	1.003
5.19044	1
5.23027	0.99
5.27009	0.976
5.30991	0.973
5.34974	0.986
5.38956	0.993
5.42939	1.006
5.46921	1.008
5.50903	1.009
5.54886	1.008
5.58868	1.011
5.62851	1.006
5.66833	1.001
5.70815	0.971
5.74798	0.963
5.7878	0.98
5.82762	0.986
5.86745	0.983
5.90727	0.988
5.9471	0.988
5.98692	0.983
6.02674	0.971
6.06657	0.958
6.10639	0.971
6.14622	0.98
6.18604	0.983
6.22586	0.983
6.26569	0.983
6.30551	0.986
6.34534	0.983
6.38516	0.981
6.42498	0.975
6.46481	0.971
6.50463	0.97
6.54446	0.96
6.58428	0.925
6.6241	0.83
6.66393	0.523
6.70375	0.508
6.74358	0.375
6.7834	0.473
6.82322	0.571
6.86305	0.651
6.90287	0.661
6.94269	0.509
6.98252	0.368
7.02234	0.433
7.06217	0.465
7.10199	0.438
7.14181	0.252
7.18164	0.093
7.22146	0.139
7.26129	0.315
7.30111	0.541
7.34093	0.491
7.38076	0.242
7.42058	0.152
7.46041	0.315
7.50023	0.568
7.54005	0.725
7.57988	0.795
7.6197	0.813
7.65953	0.845
7.69935	0.847
7.73917	0.825
7.779	0.779
7.81882	0.702
7.85864	0.652
7.89847	0.622
7.93829	0.722
7.97812	0.782
8.01794	0.762
8.05776	0.666
8.09759	0.5
8.13741	0.571
8.17724	0.691
8.21706	0.762
8.25688	0.77
8.29671	0.752
8.33653	0.696
8.37636	0.524
8.41618	0.235
8.456	0.164
8.49583	0.269
8.53565	0.28
8.57548	0.199
8.6153	0.081
8.65512	0.041
8.69495	0.031
8.73477	0.036
8.7746	0.034
8.81442	0.031
8.85424	0.038
8.89407	0.063
8.93389	0.089
8.97371	0.051
9.01354	0.033
9.05336	0.029
9.09319	0.031
9.13301	0.044
9.17283	0.094
9.21266	0.189
9.25248	0.229
9.29231	0.192
9.33213	0.272
9.37195	0.397
9.41178	0.534
9.4516	0.622
9.49143	0.672
9.53125	0.725
9.57107	0.772
9.6109	0.817
9.65072	0.84
9.69055	0.852
9.73037	0.852
9.77019	0.835
9.81002	0.833
9.84984	0.847
9.88967	0.862
9.92949	0.877
9.96931	0.888
10.0091	0.898
10.049	0.903
10.0888	0.91
10.1286	0.903
10.1684	0.893
10.2083	0.87
10.2481	0.842
10.2879	0.792
10.3277	0.715
10.3676	0.568
10.4074	0.37
10.4472	0.222
10.487	0.194
10.5268	0.328
10.5667	0.466
10.6065	0.599
10.6463	0.671
10.6861	0.702
10.726	0.734
10.7658	0.739
10.8056	0.734
10.8454	0.73
10.8853	0.742
10.9251	0.722
10.9649	0.7
11.0047	0.8
11.0446	0.86
11.0844	0.9
11.1242	0.918
11.164	0.93
11.2039	0.935
11.2437	0.936
11.2835	0.936
11.3233	0.933
11.3632	0.923
11.403	0.905
11.4428	0.853
11.4826	0.813
11.5224	0.837
11.5623	0.88
11.6021	0.89
11.6419	0.9
11.6817	0.905
11.7216	0.897
11.7614	0.883
11.8012	0.848
11.841	0.813
11.8809	0.794
11.9207	0.818
11.9605	0.835
12.0003	0.853
12.0402	0.853
12.08	0.847
12.1198	0.823
12.1596	0.799
12.1995	0.808
12.2393	0.832
12.2791	0.852
12.3189	0.86
12.3587	0.862
12.3986	0.862
12.4384	0.842
12.4782	0.797
12.518	0.725
12.5579	0.622
12.5977	0.607
12.6375	0.659
12.6773	0.724
12.7172	0.747
12.757	0.759
12.7968	0.774
12.8366	0.805
12.8765	0.828
12.9163	0.838
12.9561	0.85
12.9959	0.865
13.0358	0.878
13.0756	0.885
13.1154	0.9
13.1552	0.906
13.1951	0.913
13.2349	0.915
13.2747	0.921
13.3145	0.921
13.3543	0.921
13.3942	0.921
13.434	0.926
13.4738	0.93
13.5136	0.941
13.5535	0.951
13.5933	0.955
13.6331	0.956
13.6729	0.963
13.7128	0.97
13.7526	0.973
13.7924	0.973
13.8322	0.971
13.8721	0.971
13.9119	0.975
13.9517	0.978
13.9915	0.978
14.0314	0.975
14.0712	0.978
14.111	0.978
14.1508	0.973
14.1906	0.98
14.2305	0.981
14.2703	0.98
14.3101	0.98
14.3499	0.978
14.3898	0.978
14.4296	0.978
14.4694	0.975
14.5092	0.975
14.5491	0.968
14.5889	0.968
14.6287	0.97
14.6685	0.968
14.7084	0.966
14.7482	0.966
14.788	0.965
14.8278	0.963
14.8677	0.961
14.9075	0.955
14.9473	0.948
14.9871	0.94
15.027	0.933
15.0668	0.935
15.1066	0.945
15.1464	0.946
15.1862	0.943
15.2261	0.936
15.2659	0.933
15.3057	0.931
15.3455	0.928
15.3854	0.925
15.4252	0.923
15.465	0.918
15.5048	0.908
15.5447	0.905
15.5845	0.898
15.6243	0.895
15.6641	0.895
15.704	0.89
15.7438	0.885
15.7836	0.877
15.8234	0.877
15.8633	0.872
15.9031	0.868
15.9429	0.865
15.9827	0.863
