Infrared Spectrum: Dihexyl adipate
Formula: C18 H34 O4
CAS: 110-33-8
State: SOLUTION (10% CCl4 FOR 2.7-7.5, 10% CS2 FOR 7.5-26 MICRON) VS SOLVENT
Class: COBLENTZ III
Instrument: DOW KBr FOREPRISM-GRATING
Instrument parameters: BLAZED AT 3.5, 12.0, 20.0 MICRON AND CHANGED AT 5.0, 7.5, 14.9 MICRON
Sampling: TRANSMISSION
Path length: 0.011 CM, 0.011 CM
Resolution: 2
Origin: DOW CHEMICAL COMPANY
1/CM	TRANSMITTANCE
3800	0.8563
3791	0.8566
3782	0.8571
3773	0.8577
3764	0.8586
3755	0.8595
3746	0.86
3737	0.8604
3728	0.8609
3719	0.8614
3710	0.862
3701	0.8625
3692	0.8632
3683	0.8638
3674	0.8648
3665	0.866
3656	0.8671
3647	0.8683
3638	0.8696
3629	0.8706
3620	0.8716
3611	0.8725
3602	0.8735
3593	0.8736
3584	0.8738
3575	0.8738
3566	0.8737
3557	0.8736
3548	0.8746
3539	0.8758
3530	0.8771
3521	0.8785
3512	0.8799
3503	0.8812
3494	0.8824
3485	0.8833
3476	0.8835
3467	0.8816
3458	0.8746
3449	0.8602
3440	0.8511
3431	0.8489
3422	0.8546
3413	0.8671
3404	0.8773
3395	0.8828
3386	0.8863
3377	0.8891
3368	0.891
3359	0.8928
3350	0.8946
3341	0.8955
3332	0.8962
3323	0.8968
3314	0.8974
3305	0.8978
3296	0.8984
3287	0.8989
3278	0.8995
3269	0.9
3260	0.9001
3251	0.9
3242	0.9004
3233	0.9002
3224	0.8974
3215	0.8932
3206	0.8884
3197	0.8852
3188	0.8832
3179	0.882
3170	0.8816
3161	0.8817
3152	0.8823
3143	0.8834
3134	0.8883
3125	0.8868
3116	0.8875
3107	0.8877
3098	0.8873
3089	0.8852
3080	0.883
3071	0.8795
3062	0.8763
3053	0.8718
3044	0.8655
3035	0.852
3026	0.8278
3017	0.8087
3008	0.7636
2999	0.4912
2990	0.2522
2981	0.1089
2972	0.0554
2963	0.0289
2954	0.0312
2945	0.1166
2936	0.0897
2927	0.1167
2918	0.158
2909	0.186
2900	0.2225
2891	0.3846
2882	0.3241
2873	0.2104
2864	0.4441
2855	0.5229
2846	0.6197
2837	0.6557
2828	0.7265
2819	0.7588
2810	0.79
2801	0.8148
2792	0.8359
2783	0.8475
2774	0.8528
2765	0.8559
2756	0.8573
2747	0.8575
2738	0.8489
2729	0.8365
2720	0.8354
2711	0.8435
2702	0.851
2693	0.8588
2684	0.8653
2675	0.8677
2666	0.8693
2657	0.8702
2648	0.8708
2639	0.8706
2630	0.8703
2621	0.8701
2612	0.8699
2603	0.8701
2594	0.8713
2585	0.874
2576	0.8782
2567	0.8825
2558	0.8873
2549	0.8892
2540	0.8899
2531	0.8906
2522	0.8901
2513	0.8871
2504	0.8848
2495	0.885
2486	0.8854
2477	0.8858
2468	0.8863
2459	0.8866
2450	0.8871
2441	0.8874
2432	0.8878
2423	0.8881
2414	0.8884
2405	0.8866
2396	0.8821
2387	0.8811
2378	0.8809
2369	0.881
2360	0.8813
2351	0.882
2342	0.883
2333	0.8842
2324	0.8857
2315	0.8818
2306	0.8807
2297	0.8818
2288	0.8827
2279	0.8833
2270	0.8839
2261	0.8852
2252	0.8866
2243	0.8878
2234	0.8893
2225	0.89
2216	0.8904
2207	0.8903
2198	0.8904
2189	0.8934
2180	0.9021
2171	0.9038
2162	0.8999
2153	0.8996
2144	0.8993
2135	0.8986
2126	0.8975
2117	0.8967
2108	0.8963
2099	0.8959
2090	0.8955
2081	0.895
2072	0.8945
2063	0.8941
2054	0.8938
2045	0.8934
2036	0.8932
2027	0.8928
2018	0.8932
2009	0.8933
2000	0.8931
1991	0.8825
1982	0.8802
1973	0.8828
1964	0.8856
1955	0.8866
1946	0.8834
1937	0.8823
1928	0.8831
1919	0.8833
1910	0.8825
1901	0.8811
1892	0.8802
1883	0.8801
1874	0.8803
1865	0.8801
1856	0.879
1847	0.8771
1838	0.8736
1829	0.868
1820	0.8618
1811	0.8528
1802	0.8418
1793	0.829
1784	0.8099
1775	0.7826
1766	0.7446
1757	0.6705
1748	0.3909
1739	0.035
1730	0.0034
1721	0.0018
1712	0.2072
1703	0.502
1694	0.6137
1685	0.6543
1676	0.7396
1667	0.7771
1658	0.7981
1649	0.8134
1640	0.8259
1631	0.8363
1622	0.8455
1613	0.8528
1604	0.8559
1595	0.8582
1586	0.8639
1577	0.8639
1568	0.8677
1559	0.8727
1550	0.8754
1541	0.8755
1532	0.8699
1523	0.8621
1514	0.8467
1505	0.8275
1496	0.7992
1487	0.7533
1478	0.595
1469	0.2685
1460	0.2745
1451	0.383
1442	0.5375
1433	0.5412
1424	0.5099
1415	0.631
1406	0.6928
1397	0.5082
1388	0.3007
1379	0.1675
1370	0.1979
1361	0.3745
1352	0.4234
1343	0.3714
1334	0.4066
1325	0.4967
1316	0.4751
1307	0.428
1298	0.4374
1289	0.33
1280	0.3147
1271	0.3176
1262	0.2211
1253	0.1588
1244	0.162
1235	0.1852
1226	0.1999
1217	0.1879
1208	0.1856
1199	0.15
1190	0.1255
1181	0.1109
1172	0.1114
1163	0.13
1154	0.2248
1145	0.1634
1136	0.1511
1127	0.0917
1118	0.0409
1109	0.4266
1100	0.5817
1091	0.6136
1082	0.5172
1073	0.4139
1064	0.3626
1055	0.4817
1046	0.5224
1037	0.4212
1028	0.5876
1019	0.5555
1010	0.4646
1001	0.5875
992	0.743
983	0.7587
974	0.6022
965	0.6436
956	0.6884
947	0.6317
938	0.648
929	0.664
920	0.6686
911	0.7265
902	0.7008
893	0.7799
884	0.6912
875	0.7306
866	0.7711
857	0.8258
848	0.8368
839	0.8334
830	0.8094
821	0.7138
812	0.7981
803	0.7968
794	0.818
785	0.8146
776	0.8234
767	0.809
758	0.7793
749	0.7924
740	0.8018
731	0.8132
722	0.834
713	0.8425
704	0.8427
695	0.8428
686	0.8602
677	0.8606
668	0.8711
659	0.8674
650	0.8439
641	0.8428
632	0.8423
623	0.8316
614	0.8146
605	0.8038
596	0.8026
587	0.7993
578	0.8051
569	0.8162
560	0.8264
551	0.8307
542	0.8311
533	0.826
524	0.8155
515	0.7851
506	0.7656
497	0.7556
488	0.7541
479	0.7788
470	0.7885
461	0.7925
452	0.7949
443	0.7964
434	0.7971
425	0.7982
416	0.7994
407	0.8011
398	0.8039
