Infrared Spectrum: Hexanedioic acid, decyl octyl ester
Formula: C24 H46 O4
CAS: 110-29-2
State: SOLUTION (10% CCl4 FOR 2.7-7.5, 10% CS2 FOR 7.5-26 MICRON) VS SOLVENT
Class: COBLENTZ III
Instrument: DOW KBr FOREPRISM-GRATING
Instrument parameters: BLAZED AT 3.5, 12.0, 20.0 MICRON AND CHANGED AT 5.0, 7.5, 14.9 MICRON
Sampling: TRANSMISSION
Path length: 0.011 CM, 0.011 CM
Resolution: 2
Origin: DOW CHEMICAL COMPANY
1/CM	TRANSMITTANCE
3800	0.8521
3791	0.8524
3782	0.8527
3773	0.8528
3764	0.8533
3755	0.8536
3746	0.854
3737	0.8544
3728	0.8548
3719	0.8552
3710	0.8556
3701	0.8559
3692	0.8564
3683	0.8566
3674	0.8568
3665	0.8568
3656	0.8568
3647	0.8565
3638	0.8551
3629	0.8512
3620	0.8453
3611	0.8474
3602	0.8507
3593	0.8537
3584	0.8565
3575	0.8581
3566	0.858
3557	0.8568
3548	0.8555
3539	0.8541
3530	0.8536
3521	0.8534
3512	0.8542
3503	0.8568
3494	0.8603
3485	0.8639
3476	0.8673
3467	0.8688
3458	0.8661
3449	0.8561
3440	0.85
3431	0.8504
3422	0.856
3413	0.8635
3404	0.8711
3395	0.8764
3386	0.8787
3377	0.8797
3368	0.8799
3359	0.8798
3350	0.8797
3341	0.8792
3332	0.8788
3323	0.8782
3314	0.8775
3305	0.8767
3296	0.8765
3287	0.8763
3278	0.876
3269	0.8755
3260	0.8752
3251	0.8747
3242	0.8743
3233	0.873
3224	0.8718
3215	0.8705
3206	0.8692
3197	0.8678
3188	0.8666
3179	0.8651
3170	0.8638
3161	0.8618
3152	0.8599
3143	0.8578
3134	0.8559
3125	0.854
3116	0.8518
3107	0.8502
3098	0.8486
3089	0.8455
3080	0.841
3071	0.8358
3062	0.8304
3053	0.8232
3044	0.814
3035	0.8032
3026	0.7888
3017	0.7721
3008	0.7532
2999	0.7091
2990	0.5532
2981	0.4212
2972	0.2696
2963	0.1171
2954	0.0379
2945	0.0357
2936	0.0384
2927	0.0184
2918	0.0164
2909	0.0397
2900	0.1108
2891	0.1936
2882	0.2765
2873	0.2892
2864	0.1575
2855	0.0581
2846	0.0892
2837	0.4741
2828	0.6093
2819	0.6749
2810	0.7087
2801	0.7372
2792	0.7604
2783	0.7771
2774	0.7906
2765	0.8006
2756	0.8064
2747	0.81
2738	0.8121
2729	0.8119
2720	0.8093
2711	0.8114
2702	0.8156
2693	0.8204
2684	0.8193
2675	0.8172
2666	0.815
2657	0.8158
2648	0.8188
2639	0.8218
2630	0.8244
2621	0.8271
2612	0.8295
2603	0.8318
2594	0.8342
2585	0.8367
2576	0.8392
2567	0.8416
2558	0.844
2549	0.8462
2540	0.8483
2531	0.8504
2522	0.8525
2513	0.8546
2504	0.8567
2495	0.8588
2486	0.8598
2477	0.8605
2468	0.8606
2459	0.8606
2450	0.8608
2441	0.8609
2432	0.8605
2423	0.8595
2414	0.8587
2405	0.8586
2396	0.8585
2387	0.8583
2378	0.8582
2369	0.8578
2360	0.8577
2351	0.8573
2342	0.857
2333	0.8565
2324	0.856
2315	0.8554
2306	0.8548
2297	0.856
2288	0.8571
2279	0.8583
2270	0.8594
2261	0.8605
2252	0.8613
2243	0.8621
2234	0.863
2225	0.8638
2216	0.8649
2207	0.8663
2198	0.8671
2189	0.8684
2180	0.8718
2171	0.8766
2162	0.8713
2153	0.8707
2144	0.8703
2135	0.87
2126	0.8692
2117	0.8678
2108	0.8662
2099	0.8645
2090	0.8633
2081	0.8621
2072	0.8613
2063	0.8607
2054	0.8601
2045	0.8594
2036	0.8595
2027	0.86
2018	0.8607
2009	0.8617
2000	0.8632
1991	0.8623
1982	0.8585
1973	0.8598
1964	0.8597
1955	0.8601
1946	0.8605
1937	0.8611
1928	0.8614
1919	0.8616
1910	0.8617
1901	0.8616
1892	0.8606
1883	0.8595
1874	0.8578
1865	0.8549
1856	0.8543
1847	0.8525
1838	0.8484
1829	0.8433
1820	0.8377
1811	0.8308
1802	0.8186
1793	0.8024
1784	0.7803
1775	0.7568
1766	0.7103
1757	0.5954
1748	0.3576
1739	0.0289
1730	0.0038
1721	0.1236
1712	0.2745
1703	0.4112
1694	0.593
1685	0.6964
1676	0.7569
1667	0.7821
1658	0.8015
1649	0.8171
1640	0.8281
1631	0.8374
1622	0.8437
1613	0.8477
1604	0.8487
1595	0.8432
1586	0.8468
1577	0.8359
1568	0.8389
1559	0.841
1550	0.8421
1541	0.8436
1532	0.8378
1523	0.8341
1514	0.8273
1505	0.8156
1496	0.7971
1487	0.7656
1478	0.5722
1469	0.2293
1460	0.2803
1451	0.3874
1442	0.5182
1433	0.5586
1424	0.5327
1415	0.6069
1406	0.6493
1397	0.4879
1388	0.4686
1379	0.4294
1370	0.459
1361	0.3987
1352	0.4223
1343	0.4703
1334	0.5183
1325	0.5614
1316	0.521
1307	0.4546
1298	0.4409
1289	0.3494
1280	0.3232
1271	0.3246
1262	0.2899
1253	0.264
1244	0.2577
1235	0.2565
1226	0.2862
1217	0.2869
1208	0.2843
1199	0.262
1190	0.2143
1181	0.1733
1172	0.1337
1163	0.147
1154	0.2332
1145	0.2294
1136	0.2082
1127	0.3429
1118	0.5056
1109	0.6574
1100	0.7085
1091	0.6911
1082	0.5288
1073	0.4341
1064	0.4802
1055	0.5245
1046	0.566
1037	0.5962
1028	0.6189
1019	0.637
1010	0.6386
1001	0.6539
992	0.6654
983	0.6571
974	0.6588
965	0.6689
956	0.6818
947	0.7008
938	0.7355
929	0.7499
920	0.7537
911	0.7515
902	0.756
893	0.7712
884	0.7749
875	0.7836
866	0.7989
857	0.8156
848	0.8382
839	0.8375
830	0.8336
821	0.8355
812	0.835
803	0.8309
794	0.822
785	0.8117
776	0.798
767	0.7828
758	0.7689
749	0.7567
740	0.7393
731	0.7433
722	0.673
713	0.7784
704	0.8134
695	0.842
686	0.8534
677	0.8612
668	0.8721
659	0.8766
650	0.8589
641	0.8593
632	0.8586
623	0.8561
614	0.8514
605	0.8454
596	0.8365
587	0.8294
578	0.8238
569	0.831
560	0.8365
551	0.8396
542	0.8408
533	0.8351
524	0.8228
515	0.8242
506	0.8268
497	0.8298
488	0.8304
479	0.8309
470	0.8314
461	0.8317
452	0.832
443	0.8318
434	0.8308
425	0.8297
416	0.8287
407	0.8286
398	0.8284
