Infrared Spectrum: t-Butyl peroxide
Formula: C 8 H 18 O 2
CAS: 110-05-4
State: gas
Instrument: HP-GC/MS/IRD
Origin: NIST Mass Spectrometry Data Center
1/CM	ABSORBANCE
550	0.000897
562	0.0007365
574	0.0003585
586	6.45e-05
598	0.000312
610	0.0001575
622	0.000213
634	1.65e-05
646	2.55e-05
658	5.85e-05
670	0.000315
682	0.000117
694	0.000147
706	0.000147
718	7.05e-05
730	8.85e-05
742	0.000222
754	0.000303
766	0.0002415
778	0.000279
790	0.0004545
802	0.0005445
814	0.000402
826	0.0001185
838	0.000318
850	0.000483
862	0.0008325
874	0.000993
886	0.000906
898	0.0008355
910	0.0007965
922	0.0007605
934	0.0006435
946	0.0005745
958	0.0005415
970	0.0006225
982	0.0007995
994	0.0009735
1006	0.0010425
1018	0.0011115
1030	0.0013395
1042	0.001023
1054	0.001482
1066	0.001563
1078	0.001236
1090	0.0011685
1102	0.000933
1114	0.0011085
1126	0.0011325
1138	0.0009465
1150	0.001248
1162	0.001779
1174	0.003381
1186	0.0069075
1198	0.009636
1210	0.0096675
1222	0.0079815
1234	0.0072465
1246	0.002532
1258	0.0010515
1270	0.0008025
1282	0.0004545
1294	0.0006285
1306	0.001137
1318	0.0017415
1330	0.003303
1342	0.0061905
1354	0.0080835
1366	0.0100335
1378	0.0087675
1390	0.0057735
1402	0.00315
1414	0.0026445
1426	0.0025815
1438	0.002649
1450	0.0025845
1462	0.0022605
1474	0.0020295
1486	0.0015645
1498	0.0013365
1510	0.001305
1522	0.0012465
1534	0.0011385
1546	0.0011385
1558	0.001125
1570	0.0008745
1582	0.0007095
1594	0.0006285
1606	0.0005595
1618	0.000456
1630	0.000378
1642	0.0004125
1654	0.000621
1666	0.0009255
1678	0.001866
1690	0.003906
1702	0.0077865
1714	0.0116685
1726	0.013641
1738	0.0148215
1750	0.0135645
1762	0.009573
1774	0.0057255
1786	0.0033705
1798	0.002067
1810	0.001113
1822	0.0006
1834	0.000327
1846	0.0001845
1858	0.0001455
1870	0.000111
1882	5.25e-05
1894	3.15e-05
1906	9e-06
1918	5.7e-05
1930	1.35e-05
1942	3e-05
1954	2.4e-05
1966	2.55e-05
1978	3.15e-05
1990	3.6e-05
2002	4.5e-06
2014	1.5e-05
2026	2.7e-05
2038	3.6e-05
2050	6.9e-05
2062	8.25e-05
2074	0.0001665
2086	0.00021
2098	0.000279
2110	0.000297
2122	0.0003135
2134	0.0002475
2146	0.000228
2158	0.0001785
2170	0.0002445
2182	0.0002145
2194	0.000186
2206	0.000165
2218	0.000114
2230	0.0001155
2242	6e-05
2254	8.25e-05
2266	9.6e-05
2278	0.0001155
2290	0.000183
2302	0.000318
2314	0.000498
2326	0.0006135
2338	0.000618
2350	0.0004845
2362	0.000888
2374	0.000579
2386	0.0001545
2398	5.4e-05
2410	3.3e-05
2422	4.8e-05
2434	6.15e-05
2446	7.2e-05
2458	3.15e-05
2470	1.65e-05
2482	3.45e-05
2494	5.25e-05
2506	6.75e-05
2518	8.25e-05
2530	6.75e-05
2542	0.0001065
2554	0.000132
2566	0.0001875
2578	0.0001665
2590	0.000204
2602	0.000165
2614	0.0001335
2626	0.000168
2638	0.0001695
2650	0.0002415
2662	0.000216
2674	0.0002835
2686	0.000321
2698	0.00036
2710	0.000486
2722	0.000627
2734	0.000873
2746	0.000975
2758	0.0009705
2770	0.001098
2782	0.001224
2794	0.001392
2806	0.0019185
2818	0.0019725
2830	0.001851
2842	0.0019335
2854	0.0020805
2866	0.0027975
2878	0.0030285
2890	0.0034065
2902	0.003585
2914	0.0045225
2926	0.005397
2938	0.005592
2950	0.005691
2962	0.0055935
2974	0.006579
2986	0.006654
2998	0.0057675
3010	0.004737
3022	0.003903
3034	0.0033225
3046	0.002637
3058	0.002184
3070	0.0018225
3082	0.0014985
3094	0.001281
3106	0.001011
3118	0.000771
3130	0.0005475
3142	0.000504
3154	0.000369
3166	0.000306
3178	0.000273
3190	0.0001815
3202	0.000213
3214	0.0002085
3226	0.000264
3238	0.0001545
3250	0.0001965
3262	0.0001995
3274	0.0001575
3286	7.05e-05
3298	0.000126
3310	6e-05
3322	4.2e-05
3334	0.000114
3346	0.000111
3358	0.0001065
3370	0.0001125
3382	0.0002145
3394	0.000156
3406	0.000333
3418	0.0003795
3430	0.0004365
3442	0.00048
3454	0.0006
3466	0.0004305
3478	0.0003285
3490	0.000309
3502	0.0002265
3514	0.0002085
3526	0.0001755
3538	0.000252
3550	0.00012
3562	0.000153
3574	6.9e-05
3586	0.000276
3598	0.00021
3610	0.0002055
3622	0.0001245
3634	0.00018
3646	0.0003375
3658	0.00024
3670	0.000252
3682	0.0002355
3694	0.000111
3706	0.00021
3718	0.0002325
3730	0.000228
3742	0.000225
3754	0.000381
3766	0.0001785
3778	0.000207
3790	0.000201
3802	0.0001935
3814	0.0002415
3826	0.000228
3838	0.0003045
