Infrared Spectrum: n-Butyl myristate
Formula: C 18 H 36 O 2
CAS: 110-36-1
State: gas
Origin: EPA-IR VAPOR PHASE LIBRARY
1/CM	ABSORBANCE
549.9	0.00032
559.547	0.00019
569.193	0.00032
578.84	0.00055
588.486	0.001073
598.133	0.00138
607.779	0.001469
617.426	0.001312
627.072	0.001444
636.719	0.001489
646.365	0.001407
656.012	0.001239
665.658	0.001146
675.305	0.001334
684.951	0.0018811
694.598	0.00304
704.245	0.00494
713.891	0.00754
723.538	0.0086
733.184	0.00833
742.831	0.00776
752.477	0.00683
762.124	0.00598
771.77	0.00531
781.417	0.00488
791.063	0.00448
800.71	0.0044
810.356	0.00438
820.003	0.00482
829.649	0.0055
839.296	0.00601
848.943	0.00581
858.589	0.00561
868.236	0.00566
877.882	0.00594
887.529	0.00617
897.175	0.00645
906.822	0.00677
916.468	0.00681
926.115	0.00717
935.761	0.00868
945.408	0.01204
955.054	0.01498
964.701	0.01661
974.347	0.01641
983.994	0.01485
993.64	0.01582
1003.29	0.02039
1012.93	0.02597
1022.58	0.02821
1032.23	0.02475
1041.87	0.02114
1051.52	0.02395
1061.17	0.03367
1070.81	0.03931
1080.46	0.03671
1090.11	0.03563
1099.75	0.0397
1109.4	0.04938
1119.05	0.05396
1128.69	0.05603
1138.34	0.07594
1147.99	0.11059
1157.63	0.1324
1167.28	0.13978
1176.92	0.13116
1186.57	0.10993
1196.22	0.09388
1205.86	0.08727
1215.51	0.08689
1225.16	0.08959
1234.8	0.0919
1244.45	0.08876
1254.1	0.07557
1263.74	0.06168
1273.39	0.05229
1283.04	0.04515
1292.68	0.04171
1302.33	0.04081
1311.98	0.03868
1321.62	0.03501
1331.27	0.03546
1340.92	0.04122
1350.56	0.04558
1360.21	0.04054
1369.86	0.03114
1379.5	0.02681
1389.15	0.02722
1398.79	0.01889
1408.44	0.01439
1418.09	0.01544
1427.73	0.02103
1437.38	0.02783
1447.03	0.03751
1456.67	0.05153
1466.32	0.05159
1475.97	0.03212
1485.61	0.01693
1495.26	0.0102
1504.91	0.00711
1514.55	0.00543
1524.2	0.00448
1533.85	0.00383
1543.49	0.00327
1553.14	0.00296
1562.79	0.0027196
1572.43	0.0025725
1582.08	0.0024822
1591.73	0.0024329
1601.37	0.0024506
1611.02	0.0024106
1620.67	0.0024719
1630.31	0.0025028
1639.96	0.0026941
1649.6	0.00297
1659.25	0.00334
1668.9	0.00398
1678.54	0.00495
1688.19	0.00678
1697.84	0.01006
1707.48	0.01605
1717.13	0.02499
1726.78	0.04218
1736.42	0.0838
1746.07	0.17566
1755.72	0.19561
1765.36	0.09301
1775.01	0.04058
1784.66	0.02158
1794.3	0.01251
1803.95	0.00784
1813.6	0.00532
1823.24	0.00396
1832.89	0.0031
1842.54	0.0025765
1852.18	0.0022242
1861.83	0.0019986
1871.47	0.00179811
1881.12	0.0017112
1890.77	0.0016475
1900.41	0.001585
1910.06	0.00161
1919.71	0.001575
1929.35	0.001563
1939	0.001533
1948.65	0.001576
1958.29	0.001559
1967.94	0.0016606
1977.59	0.001626
1987.23	0.0016658
1996.88	0.001645
2006.53	0.00175601
2016.17	0.0018662
2025.82	0.001969
2035.47	0.0020349
2045.11	0.0019238
2054.76	0.0018407
2064.41	0.0016768
2074.05	0.001551
2083.7	0.001461
2093.35	0.001323
2102.99	0.001246
2112.64	0.001159
2122.28	0.00114
2131.93	0.001064
2141.58	0.001042
2151.22	0.001021
2160.87	0.001003
2170.52	0.000994
2180.16	0.001006
2189.81	0.000962
2199.46	0.000927
2209.1	0.000909
2218.75	0.000886
2228.4	0.000879
2238.04	0.000881
2247.69	0.000867
2257.34	0.000903
2266.98	0.000991
2276.63	0.000989
2286.28	0.001016
2295.92	0.001096
2305.57	0.001123
2315.22	0.001124
2324.86	0.001119
2334.51	0.001128
2344.16	0.001121
2353.8	0.001045
2363.45	0.000968
2373.09	0.00104
2382.74	0.00109
2392.39	0.001054
2402.03	0.001032
2411.68	0.001008
2421.33	0.000974
2430.97	0.000915
2440.62	0.000899
2450.27	0.000843
2459.91	0.000823
2469.56	0.000776
2479.21	0.000813
2488.85	0.000797
2498.5	0.000856
2508.15	0.000921
2517.79	0.001044
2527.44	0.001205
2537.09	0.001269
2546.73	0.001251
2556.38	0.001433
2566.03	0.001561
2575.67	0.00182863
2585.32	0.0019026
2594.96	0.0020454
2604.61	0.0022544
2614.26	0.0024319
2623.9	0.0026729
2633.55	0.00293
2643.2	0.00333
2652.84	0.00365
2662.49	0.00411
2672.14	0.00464
2681.78	0.00489
2691.43	0.00492
2701.08	0.00458
2710.72	0.00439
2720.37	0.00455
2730.02	0.00495
2739.66	0.00572
2749.31	0.00617
2758.96	0.00654
2768.6	0.00699
2778.25	0.00804
2787.9	0.0097
2797.54	0.01181
2807.19	0.01471
2816.84	0.01887
2826.48	0.0252
2836.13	0.03584
2845.77	0.06238
2855.42	0.13614
2865.07	0.19187
2874.71	0.15328
2884.36	0.13123
2894.01	0.1233
2903.65	0.15521
2913.3	0.23124
2922.95	0.38047
2932.59	0.54004
2942.24	0.43392
2951.89	0.28385
2961.53	0.24413
2971.18	0.22266
2980.83	0.12838
2990.47	0.06961
3000.12	0.04123
3009.77	0.02711
3019.41	0.01971
3029.06	0.01524
3038.71	0.01184
3048.35	0.00915
3058	0.0072
3067.64	0.00608
3077.29	0.00513
3086.94	0.00432
3096.58	0.00394
3106.23	0.00328
3115.88	0.00302
3125.52	0.00277
3135.17	0.0026245
3144.82	0.0022486
3154.46	0.0021098
3164.11	0.0019043
3173.76	0.0017294
3183.4	0.001472
3193.05	0.001502
3202.7	0.001204
3212.34	0.000853
3221.99	0.0007
3231.64	0.00053
3241.28	0.00049
3250.93	0.00034
3260.58	0.00018
3270.22	0.00031
3279.87	0.00041
3289.52	0.0002
3299.16	0.00017
3308.81	0.00039
3318.45	0.00032
3328.1	0.00031
3337.75	0.00021
3347.39	0.00027
3357.04	0.00033
3366.69	0.00042
3376.33	0.0004
3385.98	0.00039
3395.63	0.00039
3405.27	0.00046
3414.92	0.00064
3424.57	0.00046
3434.21	0.0005
3443.86	0.00055
3453.51	0.000743
3463.15	0.001185
3472.8	0.00156
3482.45	0.0019868
3492.09	0.00177709
3501.74	0.001032
3511.39	0.0006
3521.03	0.00036
3530.68	0.00032
3540.33	0.00035
3549.97	0.00011
3559.62	0.00013
3569.26	0.0001
3578.91	0.00033
3588.56	0.00032
3598.2	0.00032
3607.85	0.00043
3617.5	0.00053
3627.14	0.00049
3636.79	0.00063
3646.44	0.00062
3656.08	0.00063
3665.73	0.0006
3675.38	0.00051
3685.02	0.00062
3694.67	0.00062
3704.32	0.00069
3713.96	0.00068
3723.61	0.00066
3733.26	0.00061
3742.9	0.00071
3752.55	0.00056
3762.2	0.00073
3771.84	0.00074
3781.49	0.00067
3791.13	0.000743
3800.78	0.000744
3810.43	0.000808
3820.07	0.000811
3829.72	0.000776
3839.37	0.000845
3849.01	0.000779
3858.66	0.000919
3868.31	0.000796
3877.95	0.000908
3887.6	0.000886
3897.25	0.00087
3906.89	0.000968
3916.54	0.000993
3926.19	0.001031
3935.83	0.001072
3945.48	0.001067
3955.13	0.001149
3964.77	0.001051
3974.42	0.001327
3984.07	0.001387
3993.71	0.001346
