Infrared Spectrum: PENTANEDIOIC ACID
Formula: C5 H8 O4
CAS: 110-94-1
State: SOLID (NUJOL MULL)
Class: COBLENTZ III
Instrument: DOW KBr FOREPRISM-GRATING
Instrument parameters: BLAZED AT 3.5, 12.0, 20.0 MICRON, CHANGED AT 5.0, 7.5, 14.9 MICRON
Sampling: TRANSMISSION
Resolution: 4
Origin: DOW CHEMICAL COMPANY
1/CM	TRANSMITTANCE
449.659	1.008
458.191	1.008
466.724	1.002
475.256	0.996
483.789	1.03
492.321	1.072
500.854	1.068
509.386	1.056
517.919	1.041
526.451	1.046
534.983	1.084
543.516	1.081
552.048	1.072
560.581	1.058
569.113	1.048
577.646	1.02
586.178	1.006
594.711	1.014
603.243	1.045
611.775	1.053
620.308	1.049
628.84	1.044
637.373	1.032
645.905	1.02
654.438	1.009
662.97	1.002
671.503	0.99
680.035	0.978
688.567	0.968
697.1	0.973
705.632	0.997
714.165	0.994
722.697	0.993
731.23	0.997
739.762	0.997
748.295	0.996
756.827	0.974
765.359	0.958
773.892	0.988
782.424	0.986
790.957	0.981
799.489	0.978
808.022	0.973
816.554	0.969
825.087	0.964
833.619	0.954
842.151	0.948
850.684	0.917
859.216	0.93
867.749	0.916
876.281	0.89
884.814	0.842
893.346	0.829
901.879	0.786
910.411	0.704
918.943	0.646
927.476	0.66
936.008	0.73
944.541	0.792
953.073	0.869
961.606	0.916
970.138	0.937
978.671	0.956
987.203	0.964
995.735	0.966
1004.27	0.969
1012.8	0.968
1021.33	0.968
1029.87	0.966
1038.4	0.964
1046.93	0.957
1055.46	0.948
1064	0.886
1072.53	0.954
1081.06	0.961
1089.59	0.966
1098.12	0.965
1106.66	0.965
1115.19	0.966
1123.72	0.958
1132.25	0.946
1140.79	0.921
1149.32	0.901
1157.85	0.852
1166.38	0.81
1174.92	0.878
1183.45	0.86
1191.98	0.805
1200.51	0.669
1209.05	0.437
1217.58	0.564
1226.11	0.862
1234.64	0.806
1243.18	0.849
1251.71	0.833
1260.24	0.694
1268.77	0.513
1277.31	0.748
1285.84	0.722
1294.37	0.66
1302.9	0.458
1311.44	0.4581
1319.97	0.7901
1328.5	0.88
1337.03	0.872
1345.57	0.822
1354.1	0.834
1362.63	0.837
1371.16	0.824
1379.7	0.804
1388.23	0.845
1396.76	0.81
1405.29	0.6179
1413.83	0.59
1422.36	0.665
1430.89	0.524
1439.42	0.5171
1447.96	0.69
1456.49	0.712
1465.02	0.662
1473.55	0.852
1482.08	0.936
1490.62	0.945
1499.15	0.945
1507.68	0.942
1516.21	0.94
1524.75	0.934
1533.28	0.93
1541.81	0.929
1550.34	0.926
1558.88	0.922
1567.41	0.917
1575.94	0.913
1584.47	0.908
1593.01	0.901
1601.54	0.893
1610.07	0.882
1618.6	0.869
1627.14	0.85
1635.67	0.826
1644.2	0.81
1652.73	0.773
1661.27	0.736
1669.8	0.674
1678.33	0.562
1686.86	0.3119
1695.4	0.101
1703.93	0.134
1712.46	0.194
1720.99	0.3461
1729.53	0.6541
1738.06	0.816
1746.59	0.865
1755.12	0.88
1763.66	0.881
1772.19	0.881
1780.72	0.886
1789.25	0.9
1797.79	0.908
1806.32	0.912
1814.85	0.913
1823.38	0.913
1831.92	0.914
1840.45	0.922
1848.98	0.925
1857.51	0.926
1866.04	0.926
1874.58	0.926
1883.11	0.926
1891.64	0.928
1900.17	0.93
1908.71	0.932
1917.24	0.932
1925.77	0.932
1934.3	0.932
1942.84	0.932
1951.37	0.932
1959.9	0.953
1968.43	0.926
1976.97	0.929
1985.5	0.93
1994.03	0.933
2002.56	0.945
2011.1	0.945
2019.63	0.946
2028.16	0.9455
2036.69	0.9415
2045.23	0.9375
2053.76	0.935
2062.29	0.9325
2070.82	0.93
2079.36	0.9255
2087.89	0.923
2096.42	0.9205
2104.95	0.917
2113.49	0.915
2122.02	0.9135
2130.55	0.912
2139.08	0.91
2147.62	0.912
2156.15	0.91
2164.68	0.91
2173.21	0.909
2181.75	0.909
2190.28	0.908
2198.81	0.905
2207.34	0.9
2215.88	0.8951
2224.41	0.892
2232.94	0.884
2241.47	0.881
2250	0.881
2258.54	0.881
2267.07	0.8831
2275.6	0.8815
2284.13	0.878
2292.67	0.8735
2301.2	0.8696
2309.73	0.8627
2318.26	0.8566
2326.8	0.857
2335.33	0.8511
2343.86	0.853
2352.39	0.8454
2360.93	0.8432
2369.46	0.8414
2377.99	0.8431
2386.52	0.838
2395.06	0.832
2403.59	0.826
2412.12	0.8206
2420.65	0.8151
2429.19	0.812
2437.72	0.8096
2446.25	0.801
2454.78	0.793
2463.32	0.7877
2471.85	0.7812
2480.38	0.7726
2488.91	0.7606
2497.45	0.7543
2505.98	0.741
2514.51	0.7312
2523.04	0.7155
2531.58	0.7032
2540.11	0.6936
2548.64	0.693
2557.17	0.694
2565.71	0.6936
2574.24	0.6856
2582.77	0.6638
2591.3	0.6508
2599.84	0.6456
2608.37	0.6414
2616.9	0.6392
2625.43	0.6336
2633.96	0.6296
2642.5	0.6342
2651.03	0.6404
2659.56	0.6376
2668.09	0.6312
2676.63	0.629
2685.16	0.6246
2693.69	0.6149
2702.22	0.61
2710.76	0.6181
2719.29	0.6349
2727.82	0.6494
2736.35	0.652
2744.89	0.646
2753.42	0.6355
2761.95	0.6205
2770.48	0.609
2779.02	0.6094
2787.55	0.612
2796.08	0.61
2804.61	0.5999
2813.15	0.5838
2821.68	0.5673
2830.21	0.5482
2838.74	0.5047
2847.28	0.3724
2855.81	0.2996
2864.34	0.3644
2872.87	0.3738
2881.41	0.3806
2889.94	0.3475
2898.47	0.2871
2907	0.2279
2915.54	0.1712
2924.07	0.1417
2932.6	0.1968
2941.13	0.2787
2949.67	0.275
2958.2	0.2908
2966.73	0.3577
2975.26	0.4314
2983.8	0.4757
2992.33	0.5124
3000.86	0.5367
3009.39	0.537
3017.92	0.5353
3026.46	0.5247
3034.99	0.5194
3043.52	0.5203
3052.05	0.5266
3060.59	0.5373
3069.12	0.5513
3077.65	0.5626
3086.18	0.5706
3094.72	0.5773
3103.25	0.5853
3111.78	0.5953
3120.31	0.6122
3128.85	0.6313
3137.38	0.6505
3145.91	0.6709
3154.44	0.6869
3162.98	0.6979
3171.51	0.7112
3180.04	0.7189
3188.57	0.7266
3197.11	0.7373
3205.64	0.7472
3214.17	0.7603
3222.7	0.7709
3231.24	0.7812
3239.77	0.796
3248.3	0.8013
3256.83	0.8123
3265.37	0.8243
3273.9	0.8323
3282.43	0.8412
3290.96	0.8493
3299.5	0.8566
3308.03	0.864
3316.56	0.868
3325.09	0.869
3333.63	0.8723
3342.16	0.877
3350.69	0.8826
3359.22	0.8905
3367.76	0.8945
3376.29	0.897
3384.82	0.9
3393.35	0.9043
3401.88	0.9065
3410.42	0.909
3418.95	0.909
3427.48	0.91
3436.01	0.91
3444.55	0.912
3453.08	0.912
3461.61	0.912
3470.14	0.912
3478.68	0.912
3487.21	0.912
3495.74	0.912
3504.27	0.912
3512.81	0.912
3521.34	0.91
3529.87	0.91
3538.4	0.909
3546.94	0.909
3555.47	0.909
3564	0.908
3572.53	0.906
3581.07	0.906
3589.6	0.905
3598.13	0.904
3606.66	0.902
3615.2	0.9
3623.73	0.898
3632.26	0.897
3640.79	0.897
3649.33	0.896
3657.86	0.896
3666.39	0.894
3674.92	0.893
3683.46	0.893
3691.99	0.893
3700.52	0.893
3709.05	0.8928
3717.59	0.892
3726.12	0.892
3734.65	0.892
3743.18	0.89
3751.72	0.889
3760.25	0.89
3768.78	0.89
3777.31	0.89
3785.84	0.889
3794.38	0.8876
