Infrared Spectrum: DIGLYCOLIC ACID
Formula: C4 H6 O5
CAS: 110-99-6
State: SOLID (SPLIT MULL)
Class: COBLENTZ III
Instrument: BECKMAN IR-9 (GRATING)
Instrument parameters: ORDER CHANGES: 670, 1200, 2000 CM^-^1
Sampling: TRANSMISSION
Resolution: 2
Origin: DOW CHEMICAL COMPANY
1/CM	TRANSMITTANCE
3816	0.9646
3807	0.9656
3798	0.967
3789	0.9686
3780	0.9711
3771	0.9736
3762	0.9762
3753	0.9787
3744	0.9798
3735	0.9806
3726	0.9824
3717	0.9844
3708	0.9864
3699	0.9883
3690	0.9902
3681	0.9917
3672	0.993
3663	0.9943
3654	0.9957
3645	0.9967
3636	0.997
3627	0.9971
3618	0.9971
3609	0.9968
3600	0.9968
3591	0.9971
3582	0.997
3573	0.9968
3564	0.9962
3555	0.9953
3546	0.9943
3537	0.9935
3528	0.9928
3519	0.9916
3510	0.9888
3501	0.9861
3492	0.983
3483	0.9783
3474	0.9734
3465	0.9681
3456	0.9628
3447	0.9574
3438	0.9502
3429	0.9421
3420	0.9334
3411	0.9198
3402	0.9002
3393	0.8805
3384	0.8618
3375	0.8466
3366	0.8339
3357	0.8223
3348	0.8078
3339	0.7808
3330	0.7583
3321	0.7406
3312	0.7061
3303	0.6787
3294	0.6515
3285	0.6252
3276	0.6021
3267	0.5773
3258	0.5499
3249	0.5235
3240	0.498
3231	0.4675
3222	0.4408
3213	0.4145
3204	0.3899
3195	0.368
3186	0.3494
3177	0.3312
3168	0.3099
3159	0.291
3150	0.2743
3141	0.2534
3132	0.2362
3123	0.221
3114	0.2075
3105	0.1917
3096	0.1791
3087	0.17
3078	0.1629
3069	0.1557
3060	0.1492
3051	0.1473
3042	0.1482
3033	0.1505
3024	0.1544
3015	0.1595
3006	0.16
2997	0.1529
2988	0.1422
2979	0.1385
2970	0.1471
2961	0.1492
2952	0.1298
2943	0.1161
2934	0.1217
2925	0.1389
2916	0.1439
2907	0.1437
2898	0.1425
2889	0.1416
2880	0.1456
2871	0.1566
2862	0.1735
2853	0.1879
2844	0.2015
2835	0.2145
2826	0.2255
2817	0.2363
2808	0.2476
2799	0.2581
2790	0.2668
2781	0.2733
2772	0.2761
2763	0.2785
2754	0.2868
2745	0.3042
2736	0.3194
2727	0.3309
2718	0.3382
2709	0.3412
2700	0.3398
2691	0.3064
2682	0.2905
2673	0.2876
2664	0.2909
2655	0.3038
2646	0.315
2637	0.3254
2628	0.3318
2619	0.3353
2610	0.3382
2601	0.3399
2592	0.3407
2583	0.3409
2574	0.3199
2565	0.2962
2556	0.3079
2547	0.3309
2538	0.351
2529	0.3816
2520	0.405
2511	0.4281
2502	0.4474
2493	0.4532
2484	0.4143
2475	0.4025
2466	0.4385
2457	0.4737
2448	0.513
2439	0.5335
2430	0.5494
2421	0.567
2412	0.5779
2403	0.588
2394	0.6008
2385	0.6146
2376	0.625
2367	0.6349
2358	0.6448
2349	0.6547
2340	0.6646
2331	0.6726
2322	0.6808
2313	0.6864
2304	0.6918
2295	0.7007
2286	0.7096
2277	0.718
2268	0.7225
2259	0.7228
2250	0.7255
2241	0.7322
2232	0.7444
2223	0.7585
2214	0.7688
2205	0.7764
2196	0.7821
2187	0.7892
2178	0.7961
2169	0.803
2160	0.8018
2151	0.7946
2142	0.7924
2133	0.7961
2124	0.7918
2115	0.7928
2106	0.8091
2097	0.8265
2088	0.8401
2079	0.8492
2070	0.8525
2061	0.8452
2052	0.8395
2043	0.8456
2034	0.8506
2025	0.8553
2016	0.8578
2007	0.8595
1998	0.8618
1989	0.8635
1980	0.8637
1971	0.862
1962	0.8567
1953	0.8491
1944	0.8417
1935	0.827
1926	0.8122
1917	0.8061
1908	0.8098
1899	0.8118
1890	0.8122
1881	0.8108
1872	0.7968
1863	0.789
1854	0.7804
1845	0.7656
1836	0.7465
1827	0.7256
1818	0.7044
1809	0.6838
1800	0.6584
1791	0.6176
1782	0.5198
1773	0.4549
1764	0.4056
1755	0.2405
1746	0.0733
1737	0.0209
1728	0.0044
1719	0.0042
1710	0.0045
1701	0.0089
1692	0.0671
1683	0.2118
1674	0.3698
1665	0.4723
1656	0.5283
1647	0.5722
1638	0.6131
1629	0.6478
1620	0.6771
1611	0.7049
1602	0.7368
1593	0.7601
1584	0.7761
1575	0.7911
1566	0.8064
1557	0.8211
1548	0.8307
1539	0.8385
1530	0.847
1521	0.8464
1512	0.839
1503	0.8324
1494	0.8281
1485	0.8225
1476	0.8074
1467	0.7618
1458	0.6896
1449	0.4784
1440	0.3294
1431	0.2684
1422	0.1536
1413	0.2368
1404	0.4339
1395	0.5231
1386	0.6047
1377	0.6862
1368	0.7025
1359	0.6718
1350	0.5832
1341	0.5726
1332	0.5655
1323	0.4884
1314	0.3464
1305	0.395
1296	0.3905
1287	0.1315
1278	0.0962
1269	0.0467
1260	0.0041
1251	0.004
1242	0.009
1233	0.1264
1224	0.2895
1215	0.4525
1206	0.4876
1197	0.4808
1188	0.4643
1179	0.4327
1170	0.3695
1161	0.0993
1152	0.0037
1143	0.017
1134	0.0985
1125	0.2001
1116	0.2653
1107	0.304
1098	0.3328
1089	0.3566
1080	0.3791
1071	0.383
1062	0.3297
1053	0.4491
1044	0.4969
1035	0.5157
1026	0.5257
1017	0.5289
1008	0.5242
999	0.2914
990	0.4077
981	0.2195
972	0.0248
963	0.2338
954	0.3097
945	0.2345
936	0.1115
927	0.0323
918	0.0415
909	0.1357
900	0.2852
891	0.1356
882	0.4148
873	0.4891
864	0.5926
855	0.6454
846	0.6836
837	0.7069
828	0.7268
819	0.7464
810	0.759
801	0.7637
792	0.7622
783	0.7539
774	0.7437
765	0.7565
756	0.7635
747	0.7515
738	0.7261
729	0.6951
720	0.6362
711	0.5742
702	0.1653
693	0.0582
684	0.208
675	0.4404
666	0.5492
657	0.6362
648	0.7208
639	0.7867
630	0.8255
621	0.853
612	0.8651
603	0.8702
594	0.8653
585	0.8337
576	0.7651
567	0.7789
558	0.7995
549	0.8153
540	0.7569
531	0.6572
522	0.48
513	0.6483
504	0.6406
495	0.6347
486	0.6899
477	0.6832
468	0.6785
459	0.6732
450	0.6635
441	0.6441
432	0.6084
423	0.5251
414	0.3837
405	0.2675
