Infrared Spectrum: Dihydropyran
Formula: C 5 H 8 O
CAS: 110-87-2
State: gas
Instrument: HP-GC/MS/IRD
Origin: NIST Mass Spectrometry Data Center
1/CM	ABSORBANCE
550	0.0001989
562	5.33e-05
574	0.0002392
586	0.00013
598	0.0001404
610	8.84e-05
622	0.0001014
634	0.000117
646	0.0001937
658	0.0001963
670	0.00026
682	0.0003861
694	0.0010062
706	0.0020345
718	0.002496
730	0.0044044
742	0.0028574
754	0.0023452
766	0.0009399
778	0.0005915
790	0.0002678
802	0.0003198
814	0.0006708
826	0.0010088
838	0.0011687
850	0.0013494
862	0.0014092
874	0.0025571
886	0.0033657
898	0.0033748
910	0.0028717
922	0.0019227
934	0.0016068
946	0.0013169
958	0.0006604
970	0.0003549
982	0.000299
994	0.0004524
1006	0.0005915
1018	0.0008346
1030	0.0013559
1042	0.0028223
1054	0.0071019
1066	0.012493
1078	0.0119769
1090	0.0105794
1102	0.0036374
1114	0.0009113
1126	0.0004355
1138	0.0003536
1150	0.0004407
1162	0.0004758
1174	0.0006734
1186	0.0008229
1198	0.0012506
1210	0.0026546
1222	0.0059618
1234	0.0101569
1246	0.0107016
1258	0.0092027
1270	0.0038805
1282	0.0011986
1294	0.0006968
1306	0.0007085
1318	0.0007683
1330	0.0008411
1342	0.0007579
1354	0.0006565
1366	0.0006214
1378	0.0007046
1390	0.0007098
1402	0.0006838
1414	0.0006877
1426	0.0006955
1438	0.0012688
1450	0.0011752
1462	0.0011778
1474	0.001027
1486	0.0005759
1498	0.0003796
1510	0.0002665
1522	0.000208
1534	0.0002132
1546	0.0002496
1558	0.0002522
1570	0.000312
1582	0.0004368
1594	0.0006747
1606	0.001508
1618	0.0035152
1630	0.0064246
1642	0.0081991
1654	0.0075569
1666	0.0049478
1678	0.0015223
1690	0.000546
1702	0.0003575
1714	0.0003211
1726	0.0002639
1738	0.0002639
1750	0.0002561
1762	0.0002509
1774	0.0002379
1786	0.0002223
1798	0.0002561
1810	0.0003094
1822	0.0003653
1834	0.0003627
1846	0.0002626
1858	0.0002067
1870	0.000208
1882	0.000195
1894	0.0002795
1906	0.0002769
1918	0.0003068
1930	0.000247
1942	0.0002639
1954	0.0003575
1966	0.0003445
1978	0.0003601
1990	0.0002652
2002	0.0001924
2014	0.000156
2026	0.0001352
2038	0.0001079
2050	0.0001196
2062	0.0001651
2074	0.0001534
2086	0.000169
2098	0.0001443
2110	0.000208
2122	0.0001963
2134	0.0002288
2146	0.0002184
2158	0.0002171
2170	0.000195
2182	0.0001807
2194	0.0001482
2206	0.0001209
2218	9.23e-05
2230	9.49e-05
2242	6.76e-05
2254	5.98e-05
2266	9.23e-05
2278	0.0001157
2290	0.000117
2302	0.0001495
2314	0.0001534
2326	0.0001703
2338	0.0001196
2350	8.84e-05
2362	3.9e-05
2374	5.2e-05
2386	5.85e-05
2398	5.98e-05
2410	5.46e-05
2422	4.42e-05
2434	4.55e-05
2446	6.5e-05
2458	9.62e-05
2470	9.49e-05
2482	9.75e-05
2494	8.97e-05
2506	8.45e-05
2518	8.71e-05
2530	4.94e-05
2542	6.89e-05
2554	5.72e-05
2566	9.75e-05
2578	0.0001053
2590	9.88e-05
2602	0.0001235
2614	0.0001469
2626	9.88e-05
2638	0.0002106
2650	0.000234
2662	0.0001937
2674	0.000182
2686	0.0002249
2698	0.0002262
2710	0.0003562
2722	0.0003913
2734	0.0003757
2746	0.0003237
2758	0.0003367
2770	0.0003263
2782	0.0003198
2794	0.0003146
2806	0.0004225
2818	0.0005473
2830	0.0009399
2842	0.0026884
2854	0.0046982
2866	0.0065624
2878	0.0079534
2890	0.0051649
2902	0.0048685
2914	0.0057499
2926	0.0076713
2938	0.0106431
2950	0.0108108
2962	0.0087126
2974	0.0077844
2986	0.0053716
2998	0.0033969
3010	0.0011128
3022	0.0005434
3034	0.0005213
3046	0.0011622
3058	0.0024024
3070	0.0029419
3082	0.0029107
3094	0.0017238
3106	0.000728
3118	0.000221
3130	0.0001677
3142	6.24e-05
3154	8.84e-05
3166	0.0001144
3178	8.58e-05
3190	0.0001638
3202	0.0001183
3214	0.0001638
3226	0.0001248
3238	0.0001274
3250	0.0001131
3262	0.0001547
3274	9.36e-05
3286	0.0001287
3298	0.0001716
3310	0.0001079
3322	8.97e-05
3334	0.0001443
3346	7.8e-05
3358	0.0001352
3370	3.25e-05
3382	0.0001534
3394	6.24e-05
3406	0.0001183
3418	0.0001105
3430	0.0001287
3442	0.0001157
3454	0.0001469
3466	0.0001976
3478	0.0001287
3490	0.0001508
3502	0.0001157
3514	0.0001313
3526	5.46e-05
3538	0.0001066
3550	0.0001378
3562	0.0001833
3574	0.0001196
3586	0.000156
3598	0.0002821
3610	0.0001027
3622	0.0001105
3634	0.0001963
3646	0.0001612
3658	0.0001443
3670	0.0001391
3682	0.0002028
3694	0.0001937
3706	0.0001729
3718	0.0001859
3730	0.0001066
3742	0.0002808
3754	0.0001417
3766	0.0002067
3778	0.0001417
3790	0.0002106
3802	0.0002496
3814	0.000247
3826	0.0002678
3838	0.000208
