Infrared Spectrum: 2-PROPANONE SEMICARBAZONE
Formula: C4 H9 N3 O
CAS: 110-20-3
State: SOLID (SPLIT MULL)
Class: COBLENTZ II
Instrument: DOW KBr FOREPRISM-GRATING
Instrument parameters: BLAZED AT 3.5, 12.0, 20.0 MICRON, AND CHANGED AT 5.0, 7.5, 14.9 MICRON
Sampling: TRANSMISSION
Resolution: 2
Origin: DOW CHEMICAL COMPANY
1/CM	TRANSMITTANCE
372.526	0.887
381.257	0.887
389.988	0.887
398.719	0.887
407.45	0.887
416.181	0.884
424.913	0.881
433.644	0.874
442.375	0.873
451.106	0.868
459.837	0.855
468.568	0.824
477.299	0.696
486.03	0.829
494.761	0.865
503.492	0.877
512.224	0.884
520.955	0.885
529.686	0.884
538.417	0.874
547.148	0.858
555.879	0.844
564.61	0.825
573.341	0.793
582.072	0.752
590.803	0.695
599.534	0.635
608.266	0.557
616.997	0.404
625.728	0.397
634.459	0.363
643.19	0.367
651.921	0.51
660.652	0.659
669.383	0.674
678.114	0.568
686.845	0.484
695.576	0.534
704.308	0.64
713.039	0.693
721.77	0.688
730.501	0.737
739.232	0.741
747.963	0.765
756.694	0.814
765.425	0.84
774.156	0.843
782.887	0.824
791.619	0.904
800.35	0.944
809.081	0.956
817.812	0.961
826.543	0.952
835.274	0.936
844.005	0.971
852.736	0.98
861.467	0.987
870.198	0.99
878.929	0.99
887.661	0.983
896.392	0.985
905.123	0.989
913.854	0.989
922.585	0.985
931.316	0.976
940.047	0.963
948.778	0.959
957.509	0.948
966.24	0.926
974.971	0.94
983.703	0.945
992.434	0.931
1001.16	0.918
1009.9	0.914
1018.63	0.888
1027.36	0.838
1036.09	0.85
1044.82	0.819
1053.55	0.783
1062.28	0.809
1071.01	0.753
1079.74	0.752
1088.48	0.771
1097.21	0.73
1105.94	0.678
1114.67	0.541
1123.4	0.333
1132.13	0.257
1140.86	0.142
1149.59	0.225
1158.32	0.429
1167.06	0.536
1175.79	0.6
1184.52	0.628
1193.25	0.644
1201.98	0.648
1210.71	0.655
1219.44	0.662
1228.17	0.672
1236.9	0.67
1245.64	0.663
1254.37	0.643
1263.1	0.506
1271.83	0.228
1280.56	0.595
1289.29	0.642
1298.02	0.647
1306.75	0.634
1315.48	0.61
1324.22	0.613
1332.95	0.677
1341.68	0.619
1350.41	0.578
1359.14	0.557
1367.87	0.624
1376.6	0.718
1385.33	0.616
1394.06	0.7
1402.8	0.795
1411.53	0.789
1420.26	0.726
1428.99	0.688
1437.72	0.67
1446.45	0.741
1455.18	0.77
1463.91	0.795
1472.64	0.823
1481.37	0.82
1490.11	0.802
1498.84	0.779
1507.57	0.745
1516.3	0.708
1525.03	0.64
1533.76	0.515
1542.49	0.325
1551.22	0.208
1559.95	0.3762
1568.69	0.689
1577.42	0.761
1586.15	0.778
1594.88	0.757
1603.61	0.682
1612.34	0.5209
1621.07	0.4961
1629.8	0.668
1638.53	0.572
1647.27	0.574
1656	0.619
1664.73	0.482
1673.46	0.24
1682.19	0.164
1690.92	0.306
1699.65	0.602
1708.38	0.7451
1717.11	0.85
1725.85	0.892
1734.58	0.921
1743.31	0.937
1752.04	0.953
1760.77	0.959
1769.5	0.967
1778.23	0.97
1786.96	0.97
1795.69	0.971
1804.43	0.972
1813.16	0.976
1821.89	0.978
1830.62	0.978
1839.35	0.979
1848.08	0.979
1856.81	0.978
1865.54	0.978
1874.27	0.979
1883.01	0.978
1891.74	0.979
1900.47	0.982
1909.2	0.98
1917.93	0.979
1926.66	0.979
1935.39	0.979
1944.12	0.979
1952.85	0.979
1961.59	0.979
1970.32	0.978
1979.05	0.978
1987.78	0.974
1996.51	0.963
2005.24	0.9589
2013.97	0.956
2022.7	0.955
2031.43	0.953
2040.16	0.952
2048.9	0.9504
2057.63	0.948
2066.36	0.948
2075.09	0.948
2083.82	0.948
2092.55	0.946
2101.28	0.944
2110.01	0.9413
2118.74	0.938
2127.48	0.936
2136.21	0.9314
2144.94	0.9274
2153.67	0.9251
2162.4	0.923
2171.13	0.923
2179.86	0.923
2188.59	0.923
2197.32	0.923
2206.06	0.923
2214.79	0.923
2223.52	0.9203
2232.25	0.9162
2240.98	0.911
2249.71	0.909
2258.44	0.907
2267.17	0.904
2275.9	0.903
2284.64	0.903
2293.37	0.902
2302.1	0.897
2310.83	0.895
2319.56	0.895
2328.29	0.893
2337.02	0.8931
2345.75	0.897
2354.48	0.8968
2363.22	0.8962
2371.95	0.9023
2380.68	0.903
2389.41	0.904
2398.14	0.904
2406.87	0.904
2415.6	0.904
2424.33	0.906
2433.06	0.906
2441.8	0.906
2450.53	0.904
2459.26	0.9022
2467.99	0.902
2476.72	0.9
2485.45	0.9
2494.18	0.9
2502.91	0.9
2511.64	0.899
2520.38	0.899
2529.11	0.899
2537.84	0.8967
2546.57	0.892
2555.3	0.892
2564.03	0.889
2572.76	0.8915
2581.49	0.892
2590.22	0.892
2598.95	0.891
2607.69	0.889
2616.42	0.889
2625.15	0.8854
2633.88	0.8811
2642.61	0.88
2651.34	0.878
2660.07	0.877
2668.8	0.877
2677.53	0.8769
2686.27	0.8757
2695	0.873
2703.73	0.87
2712.46	0.8673
2721.19	0.863
2729.92	0.859
2738.65	0.856
2747.38	0.8505
2756.11	0.847
2764.85	0.8433
2773.58	0.84
2782.31	0.8342
2791.04	0.8376
2799.77	0.8397
2808.5	0.842
2817.23	0.844
2825.96	0.843
2834.69	0.835
2843.43	0.836
2852.16	0.8318
2860.89	0.8265
2869.62	0.8197
2878.35	0.8127
2887.08	0.795
2895.81	0.781
2904.54	0.761
2913.27	0.7706
2922.01	0.797
2930.74	0.7943
2939.47	0.7839
2948.2	0.793
2956.93	0.7932
2965.66	0.7825
2974.39	0.7672
2983.12	0.711
2991.85	0.7462
3000.59	0.751
3009.32	0.7449
3018.05	0.7308
3026.78	0.7185
3035.51	0.7058
3044.24	0.6909
3052.97	0.6644
3061.7	0.6462
3070.43	0.6315
3079.17	0.6463
3087.9	0.6816
3096.63	0.6913
3105.36	0.6774
3114.09	0.6549
3122.82	0.6205
3131.55	0.5747
3140.28	0.5217
3149.01	0.4582
3157.75	0.4045
3166.48	0.3676
3175.21	0.3633
3183.94	0.3962
3192.67	0.4521
3201.4	0.4859
3210.13	0.5074
3218.86	0.5066
3227.59	0.499
3236.32	0.5035
3245.06	0.5034
3253.79	0.4942
3262.52	0.5161
3271.25	0.5531
3279.98	0.557
3288.71	0.5377
3297.44	0.5048
3306.17	0.4518
3314.9	0.427
3323.64	0.4281
3332.37	0.4476
3341.1	0.4937
3349.83	0.5759
3358.56	0.6153
3367.29	0.6365
3376.02	0.6769
3384.75	0.7406
3393.48	0.8241
3402.22	0.8741
3410.95	0.9053
3419.68	0.9296
3428.41	0.9417
3437.14	0.9475
3445.87	0.9518
3454.6	0.952
3463.33	0.952
3472.06	0.952
3480.8	0.949
3489.53	0.9479
3498.26	0.945
3506.99	0.9437
3515.72	0.941
3524.45	0.94
3533.18	0.938
3541.91	0.9366
3550.64	0.934
3559.38	0.9305
3568.11	0.9279
3576.84	0.926
3585.57	0.925
3594.3	0.923
3603.03	0.9223
3611.76	0.9194
3620.49	0.917
3629.22	0.9141
3637.96	0.912
3646.69	0.91
3655.42	0.908
3664.15	0.9069
3672.88	0.904
3681.61	0.903
3690.34	0.903
3699.07	0.9027
3707.8	0.8996
3716.54	0.896
3725.27	0.894
3734	0.8915
3742.73	0.8898
3751.46	0.8883
3760.19	0.8873
3768.92	0.887
3777.65	0.885
3786.38	0.885
