Infrared Spectrum: Vinylphenylacetonitrile
Formula: C 10 H 9 N
CAS: 110013-89-3
State: gas
Origin: EPA-IR VAPOR PHASE LIBRARY
1/CM	ABSORBANCE
549.8	0.0006318
559.445	0.001416
569.09	0.0007913
578.734	0.0011612
588.379	0.0010713
598.024	0.0011766
607.669	0.0008661
617.313	0.0006281
626.958	0.0005861
636.603	0.0005066
646.248	0.0006459
655.893	0.0005918
665.537	0.0008981
675.182	0.0009951
684.827	0.0012696
694.472	0.001556
704.116	0.001926
713.761	0.002046
723.406	0.002006
733.051	0.001456
742.695	0.0011283
752.34	0.001396
761.985	0.001516
771.63	0.001506
781.275	0.001846
790.919	0.002396
800.564	0.004426
810.209	0.007956
819.854	0.010566
829.498	0.010156
839.143	0.007066
848.788	0.004526
858.433	0.002956
868.078	0.002416
877.722	0.002426
887.367	0.003076
897.012	0.005106
906.657	0.008396
916.301	0.010616
925.946	0.007936
935.591	0.004596
945.236	0.002866
954.88	0.002696
964.525	0.003436
974.17	0.004616
983.815	0.005446
993.46	0.004706
1003.1	0.003436
1012.75	0.004586
1022.39	0.004086
1032.04	0.002226
1041.68	0.001666
1051.33	0.0009944
1060.97	0.0007779
1070.62	0.0009125
1080.26	0.0011445
1089.91	0.0008201
1099.55	0.0011786
1109.2	0.001696
1118.84	0.001726
1128.49	0.0012954
1138.13	0.0005825
1147.78	0.00042035
1157.42	0.0006946
1167.07	0.001171
1176.71	0.000725
1186.36	0.0011949
1196	0.0009916
1205.64	0.0007684
1215.29	0.0008008
1224.93	0.0011835
1234.58	0.000795
1244.22	0.0005209
1253.87	0.0007161
1263.51	0.0009839
1273.16	0.0009626
1282.8	0.001466
1292.45	0.001766
1302.09	0.001736
1311.74	0.0012643
1321.38	0.0008699
1331.03	0.0007195
1340.67	0.000668
1350.32	0.0006686
1359.96	0.0007323
1369.61	0.0008357
1379.25	0.0011712
1388.9	0.001986
1398.54	0.003176
1408.18	0.004156
1417.83	0.004976
1427.47	0.005266
1437.12	0.003386
1446.76	0.001746
1456.41	0.0010949
1466.05	0.0009382
1475.7	0.0008677
1485.34	0.0011341
1494.99	0.002426
1504.63	0.008576
1514.28	0.011326
1523.92	0.003796
1533.57	0.0012598
1543.21	0.001237
1552.86	0.0012929
1562.5	0.001346
1572.15	0.0012479
1581.79	0.0011209
1591.44	0.0009575
1601.08	0.0010464
1610.73	0.001586
1620.37	0.002556
1630.01	0.004256
1639.66	0.003606
1649.3	0.001786
1658.95	0.0011037
1668.59	0.0008131
1678.24	0.0007689
1687.88	0.000635
1697.53	0.0004891
1707.17	0.0004622
1716.82	0.0004997
1726.46	0.00038214
1736.11	0.0004842
1745.75	0.0005563
1755.4	0.0005937
1765.04	0.0006343
1774.69	0.0009276
1784.33	0.0011278
1793.98	0.0008982
1803.62	0.0005483
1813.27	0.0007852
1822.91	0.001686
1832.55	0.002536
1842.2	0.001766
1851.84	0.0009099
1861.49	0.0006393
1871.13	0.0007632
1880.78	0.0008347
1890.42	0.0009813
1900.07	0.0011867
1909.71	0.0011002
1919.36	0.0008072
1929	0.0005712
1938.65	0.0004689
1948.29	0.0004594
1957.94	0.00036092
1967.58	0.00037592
1977.23	0.00038728
1986.87	0.000330304
1996.52	0.0002363
2006.16	0.0002732
2015.81	0.0002478
2025.45	0.0002658
2035.1	0.0002493
2044.74	0.00033989
2054.38	0.00034225
2064.03	0.00033763
2073.67	0.00033771
2083.32	0.0002597
2092.96	0.000258
2102.61	0.0002875
2112.25	0.00036201
2121.9	0.00031624
2131.54	0.000269
2141.19	0.0002862
2150.83	0.0002688
2160.48	0.0002975
2170.12	0.000185
2179.77	0.0002452
2189.41	0.000217
2199.06	0.000254
2208.7	0.000217
2218.35	0.0002502
2227.99	0.00035564
2237.64	0.0005477
2247.28	0.0007202
2256.92	0.000922
2266.57	0.0007291
2276.21	0.00041468
2285.86	0.00036598
2295.5	0.00037007
2305.15	0.00035645
2314.79	0.00039611
2324.44	0.00039827
2334.08	0.0004658
2343.73	0.00035438
2353.37	0.00035595
2363.02	0.00040093
2372.66	0.0003011
2382.31	0.0002423
2391.95	0.0002449
2401.6	0.000302
2411.24	0.00031605
2420.89	0.0002383
2430.53	0.0003037
2440.18	0.000215
2449.82	0.0002481
2459.47	0.0002591
2469.11	0.000146
2478.75	0.000331276
2488.4	0.000179
2498.04	0.0002566
2507.69	0.0002472
2517.33	0.0002472
2526.98	0.00031711
2536.62	0.000214
2546.27	0.0003185
2555.91	0.0003037
2565.56	0.0002595
2575.2	0.000429
2584.85	0.00033701
2594.49	0.00035141
2604.14	0.0002408
2613.78	0.00037777
2623.43	0.00041348
2633.07	0.000331729
2642.72	0.0003016
2652.36	0.000293
2662.01	0.0002549
2671.65	0.0002559
2681.29	0.000237
2690.94	0.0002341
2700.58	0.0002813
2710.23	0.00035325
2719.87	0.00034283
2729.52	0.0003126
2739.16	0.00041169
2748.81	0.00036717
2758.45	0.0002538
2768.1	0.000157
2777.74	0.000222
2787.39	0.00040448
2797.03	0.000218
2806.68	0.0004635
2816.32	0.000467
2825.97	0.0006135
2835.61	0.0006097
2845.26	0.00045
2854.9	0.0005483
2864.55	0.000444
2874.19	0.0005042
2883.84	0.0004738
2893.48	0.000498
2903.12	0.0006874
2912.77	0.0012155
2922.41	0.001866
2932.06	0.002506
2941.7	0.001966
2951.35	0.001496
2960.99	0.001446
2970.64	0.001876
2980.28	0.002206
2989.93	0.002836
2999.57	0.003456
3009.22	0.005836
3018.86	0.007996
3028.51	0.007376
3038.15	0.006826
3047.8	0.005546
3057.44	0.005266
3067.09	0.004906
3076.73	0.004706
3086.38	0.005436
3096.02	0.007716
3105.67	0.004816
3115.31	0.001896
3124.95	0.0012885
3134.6	0.0011574
3144.24	0.0005975
3153.89	0.0008381
3163.53	0.0006166
3173.18	0.0006292
3182.82	0.000501
3192.47	0.0004646
3202.11	0.0006775
3211.76	0.0002654
3221.4	0.0002764
3231.05	0.000449
3240.69	0.0003156
3250.34	0.00038686
3259.98	0.00041574
3269.63	0.000223
3279.27	0.0002443
3288.92	0.0003071
3298.56	0.0003105
3308.21	0.00038888
3317.85	0.000394
3327.49	0.00035069
3337.14	0.00032305
3346.78	0.00034771
3356.43	0.00033974
3366.07	0.00046
3375.72	0.00016
3385.36	0.0003037
3395.01	0.0005476
3404.65	0.0004867
3414.3	0.0002317
3423.94	0.00037633
3433.59	0.0003078
3443.23	0.0003141
3452.88	9.8e-05
3462.52	0.000129
3472.17	0.000209
3481.81	0.0002612
3491.46	0.0002448
3501.1	0.0002661
3510.75	0.000236
3520.39	0.000244
3530.04	0.0002524
3539.68	0.0004808
3549.32	0.00035647
3558.97	0.00034847
3568.61	0.000504
3578.26	0.00037082
3587.9	0.000309
3597.55	0.00036359
3607.19	0.00035755
3616.84	0.00037014
3626.48	0.0004737
3636.13	0.00036921
3645.77	0.0005321
3655.42	0.00036411
3665.06	0.000216
3674.71	0.00036238
3684.35	0.0004504
3694	0.00035605
3703.64	0.00035695
3713.29	0.0004383
3722.93	0.00039214
3732.58	0.0005106
3742.22	0.0004335
3751.86	0.00035387
3761.51	0.00040766
3771.15	0.00033847
3780.8	0.00039994
3790.44	0.000221
3800.09	0.0004303
3809.73	0.000221
3819.38	0.0005452
3829.02	0.00036336
3838.67	0.0005102
3848.31	0.0004457
3857.96	0.0006215
3867.6	0.0005258
3877.25	0.0004476
3886.89	0.0005144
3896.54	0.0004785
3906.18	0.0005247
3915.83	0.000333833
3925.47	0.0005376
3935.12	0.00037858
3944.76	0.0004962
3954.41	0.000187
3964.05	0.0005198
3973.69	0.00042417
3983.34	0.0004409
3992.98	0.0004262
