Infrared Spectrum: 1-Naphthylamine, 2-tert-butyl-
Formula: C14 H17 N
CAS: 110014-56-7
State: LIQUID (NEAT)
Class: COBLENTZ III
Instrument: BECKMAN IR-4 (HYBRID PRISM-GRATING)
Instrument parameters: NaCl PRISM
Sampling: TRANSMISSION
Path length: CAPILLARY
Resolution: 2
Origin: MONSANTO (J. FREEMAN)
1/CM	TRANSMITTANCE
4000	0.8559
3991	0.8564
3982	0.8571
3973	0.8575
3964	0.8583
3955	0.8589
3946	0.8596
3937	0.8604
3928	0.8612
3919	0.862
3910	0.8634
3901	0.8653
3892	0.8671
3883	0.869
3874	0.8707
3865	0.8713
3856	0.8717
3847	0.8717
3838	0.8717
3829	0.8717
3820	0.8728
3811	0.8746
3802	0.8764
3793	0.878
3784	0.8795
3775	0.881
3766	0.8817
3757	0.882
3748	0.8824
3739	0.8827
3730	0.883
3721	0.8831
3712	0.8821
3703	0.8812
3694	0.8802
3685	0.8792
3676	0.8778
3667	0.8763
3658	0.8748
3649	0.8732
3640	0.8716
3631	0.8696
3622	0.8677
3613	0.8649
3604	0.8605
3595	0.8535
3586	0.8445
3577	0.8254
3568	0.8133
3559	0.8033
3550	0.7868
3541	0.7087
3532	0.6151
3523	0.5407
3514	0.533
3505	0.5496
3496	0.5759
3487	0.6025
3478	0.6292
3469	0.6561
3460	0.6831
3451	0.6862
3442	0.603
3433	0.5012
3424	0.4945
3415	0.5074
3406	0.5385
3397	0.5697
3388	0.6012
3379	0.6329
3370	0.6646
3361	0.6965
3352	0.7286
3343	0.7608
3334	0.7999
3325	0.8206
3316	0.8402
3307	0.8459
3298	0.8485
3289	0.8492
3280	0.8481
3271	0.845
3262	0.8395
3253	0.835
3244	0.8317
3235	0.832
3226	0.8375
3217	0.8434
3208	0.8491
3199	0.8533
3190	0.8555
3181	0.8568
3172	0.8568
3163	0.8557
3154	0.8537
3145	0.848
3136	0.84
3127	0.8301
3118	0.8182
3109	0.7932
3100	0.7534
3091	0.7231
3082	0.5001
3073	0.484
3064	0.5146
3055	0.5488
3046	0.5833
3037	0.6134
3028	0.5928
3019	0.5041
3010	0.4131
3001	0.3214
2992	0.2293
2983	0.1821
2974	0.2016
2965	0.2494
2956	0.2975
2947	0.3414
2938	0.361
2929	0.383
2920	0.3976
2911	0.4064
2902	0.4175
2893	0.4275
2884	0.4355
2875	0.5168
2866	0.6116
2857	0.7069
2848	0.7955
2839	0.8121
2830	0.8278
2821	0.8446
2812	0.857
2803	0.8644
2794	0.8721
2785	0.8778
2776	0.8814
2767	0.8825
2758	0.8817
2749	0.8792
2740	0.878
2731	0.882
2722	0.8898
2713	0.8975
2704	0.9024
2695	0.9059
2686	0.909
2677	0.9113
2668	0.9131
2659	0.9147
2650	0.9161
2641	0.9161
2632	0.9153
2623	0.9145
2614	0.9141
2605	0.914
2596	0.9143
2587	0.9168
2578	0.9202
2569	0.9243
2560	0.9266
2551	0.9283
2542	0.9266
2533	0.9238
2524	0.9194
2515	0.9153
2506	0.9125
2497	0.9112
2488	0.9117
2479	0.9135
2470	0.915
2461	0.916
2452	0.917
2443	0.917
2434	0.9166
2425	0.9163
2416	0.9161
2407	0.9162
2398	0.92
2389	0.931
2380	0.9416
2371	0.9481
2362	0.9489
2353	0.9473
2344	0.9425
2335	0.9368
2326	0.9314
2317	0.9255
2308	0.921
2299	0.919
2290	0.9185
2281	0.9194
2272	0.9201
2263	0.9207
2254	0.9213
2245	0.922
2236	0.9227
2227	0.9234
2218	0.9241
2209	0.9245
2200	0.9251
2191	0.9256
2182	0.9261
2173	0.9267
2164	0.9273
2155	0.928
2146	0.928
2137	0.9275
2128	0.9268
2119	0.9259
2110	0.9249
2101	0.9236
2092	0.923
2083	0.9278
2074	0.9313
2065	0.9307
2056	0.9299
2047	0.9285
2038	0.9263
2029	0.924
2020	0.9225
2011	0.9251
2002	0.926
1993	0.9167
1984	0.9132
1975	0.9127
1966	0.904
1957	0.8808
1948	0.859
1939	0.8663
1930	0.8734
1921	0.8654
1912	0.8658
1903	0.85
1894	0.8291
1885	0.8375
1876	0.8609
1867	0.8931
1858	0.9034
1849	0.902
1840	0.8831
1831	0.8689
1822	0.8728
1813	0.8703
1804	0.8636
1795	0.8821
1786	0.9002
1777	0.9032
1768	0.89
1759	0.8657
1750	0.8331
1741	0.8299
1732	0.8437
1723	0.8392
1714	0.8256
1705	0.8092
1696	0.8058
1687	0.7918
1678	0.7468
1669	0.6898
1660	0.6157
1651	0.5158
1642	0.3922
1633	0.2674
1624	0.1411
1615	0.1656
1606	0.3297
1597	0.4226
1588	0.5331
1579	0.6287
1570	0.4245
1561	0.5521
1552	0.7625
1543	0.7651
1534	0.7225
1525	0.6435
1516	0.4826
1507	0.581
1498	0.6815
1489	0.5325
1480	0.424
1471	0.4257
1462	0.4624
1453	0.5885
1444	0.6722
1435	0.5916
1426	0.5057
1417	0.5103
1408	0.243
1399	0.195
1390	0.1013
1381	0.1834
1372	0.2101
1363	0.2434
1354	0.5241
1345	0.5566
1336	0.7575
1327	0.8101
1318	0.8249
1309	0.8375
1300	0.8428
1291	0.8225
1282	0.755
1273	0.6384
1264	0.7269
1255	0.484
1246	0.4104
1237	0.5592
1228	0.6884
1219	0.6572
1210	0.7136
1201	0.6039
1192	0.6299
1183	0.7598
1174	0.645
1165	0.8107
1156	0.7897
1147	0.8216
1138	0.6876
1129	0.7264
1120	0.628
1111	0.4078
1102	0.5367
1093	0.7405
1084	0.8
1075	0.713
1066	0.6936
1057	0.8042
1048	0.8194
1039	0.8164
1030	0.6207
1021	0.6126
1012	0.7115
1003	0.8088
994	0.8207
985	0.8169
976	0.8051
967	0.7944
958	0.7849
949	0.7061
940	0.7031
931	0.7321
922	0.7846
913	0.8001
904	0.8012
895	0.7903
886	0.7576
877	0.639
868	0.7048
859	0.5741
850	0.5425
841	0.7201
832	0.7203
823	0.6822
814	0.5917
805	0.2267
796	0.1238
787	0.4472
778	0.5931
769	0.6228
760	0.5478
751	0.4952
742	0.1848
733	0.2491
724	0.4754
715	0.4753
706	0.5179
697	0.5012
688	0.4419
679	0.3243
670	0.5703
661	0.5938
652	0.643
643	0.6389
634	0.6157
