Infrared Spectrum: 2,6-Dibromo-4-nitrotoluene
Formula: C 7 H 5 Br 2 N O 2
CAS: 110127-07-6
State: gas
Origin: EPA-IR VAPOR PHASE LIBRARY
1/CM	ABSORBANCE
549.9	0.00324
559.547	0.0031228
569.193	0.00362
578.84	0.00364
588.486	0.00331
598.133	0.0028117
607.779	0.0023894
617.426	0.0023865
627.072	0.0026001
636.719	0.00393
646.365	0.00582
656.012	0.01972
665.658	0.04213
675.305	0.01569
684.951	0.01698
694.598	0.01352
704.245	0.01001
713.891	0.01874
723.538	0.03636
733.184	0.09562
742.831	0.09758
752.477	0.01921
762.124	0.00846
771.77	0.00775
781.417	0.02165
791.063	0.06827
800.71	0.02977
810.356	0.00627
820.003	0.00321
829.649	0.0028567
839.296	0.00381
848.943	0.00394
858.589	0.00349
868.236	0.00547
877.882	0.01035
887.529	0.03192
897.175	0.04683
906.822	0.01536
916.468	0.00554
926.115	0.0048
935.761	0.00377
945.408	0.00367
955.054	0.00512
964.701	0.00896
974.347	0.01524
983.994	0.0218
993.64	0.02647
1003.29	0.02237
1012.93	0.01348
1022.58	0.0106
1032.23	0.01035
1041.87	0.01071
1051.52	0.0102
1061.17	0.00798
1070.81	0.0063
1080.46	0.00522
1090.11	0.00485
1099.75	0.00506
1109.4	0.00915
1119.05	0.03777
1128.69	0.06792
1138.34	0.02171
1147.99	0.00683
1157.63	0.00339
1167.28	0.00328
1176.92	0.00491
1186.57	0.00599
1196.22	0.00415
1205.86	0.00441
1215.51	0.00455
1225.16	0.00624
1234.8	0.00709
1244.45	0.00738
1254.1	0.00628
1263.74	0.00574
1273.39	0.00675
1283.04	0.00622
1292.68	0.00595
1302.33	0.00788
1311.98	0.01183
1321.62	0.02551
1331.27	0.0755
1340.92	0.25434
1350.56	0.3604
1360.21	0.0963
1369.86	0.07779
1379.5	0.06574
1389.15	0.04001
1398.79	0.0288
1408.44	0.0268
1418.09	0.02447
1427.73	0.03784
1437.38	0.03247
1447.03	0.01839
1456.67	0.01473
1466.32	0.01684
1475.97	0.02668
1485.61	0.02795
1495.26	0.02815
1504.91	0.03022
1514.55	0.04549
1524.2	0.1086
1533.85	0.28638
1543.49	0.40328
1553.14	0.13193
1562.79	0.05055
1572.43	0.03979
1582.08	0.04552
1591.73	0.03597
1601.37	0.01372
1611.02	0.00989
1620.67	0.01265
1630.31	0.01501
1639.96	0.00859
1649.6	0.00452
1659.25	0.00445
1668.9	0.00459
1678.54	0.00403
1688.19	0.00321
1697.84	0.00336
1707.48	0.00332
1717.13	0.002737
1726.78	0.0026285
1736.42	0.0025755
1746.07	0.0031118
1755.72	0.00466
1765.36	0.0073
1775.01	0.00866
1784.66	0.00626
1794.3	0.00354
1803.95	0.0020929
1813.6	0.001574
1823.24	0.001419
1832.89	0.001463
1842.54	0.001517
1852.18	0.00164
1861.83	0.001593
1871.47	0.001467
1881.12	0.001409
1890.77	0.001499
1900.41	0.00153
1910.06	0.00148
1919.71	0.001556
1929.35	0.001516
1939	0.001504
1948.65	0.00142
1958.29	0.00129
1967.94	0.001299
1977.59	0.001265
1987.23	0.001362
1996.88	0.001394
2006.53	0.001565
2016.17	0.001788
2025.82	0.001641
2035.47	0.001528
2045.11	0.001553
2054.76	0.001552
2064.41	0.00149
2074.05	0.001425
2083.7	0.001463
2093.35	0.001392
2102.99	0.001284
2112.64	0.001233
2122.28	0.00116
2131.93	0.00112
2141.58	0.00113
2151.22	0.00107
2160.87	0.001157
2170.52	0.001218
2180.16	0.001245
2189.81	0.001148
2199.46	0.00112
2209.1	0.001196
2218.75	0.00126
2228.4	0.001421
2238.04	0.001534
2247.69	0.001542
2257.34	0.0014
2266.98	0.00124
2276.63	0.0011
2286.28	0.00112
2295.92	0.001165
2305.57	0.001285
2315.22	0.001374
2324.86	0.00148
2334.51	0.001329
2344.16	0.0011
2353.8	0.00111
2363.45	0.001267
2373.09	0.00134
2382.74	0.001366
2392.39	0.001366
2402.03	0.001455
2411.68	0.001549
2421.33	0.001678
2430.97	0.001898
2440.62	0.001845
2450.27	0.001755
2459.91	0.001991
2469.56	0.0024493
2479.21	0.00220098
2488.85	0.001716
2498.5	0.00157
2508.15	0.001495
2517.79	0.001528
2527.44	0.001772
2537.09	0.002022
2546.73	0.001682
2556.38	0.001337
2566.03	0.0011
2575.67	0.001245
2585.32	0.001412
2594.96	0.001428
2604.61	0.001206
2614.26	0.00107
2623.9	0.001185
2633.55	0.001168
2643.2	0.001146
2652.84	0.001275
2662.49	0.001509
2672.14	0.002057
2681.78	0.0028174
2691.43	0.0030792
2701.08	0.0024953
2710.72	0.002273
2720.37	0.001781
2730.02	0.001217
2739.66	0.001165
2749.31	0.001241
2758.96	0.001238
2768.6	0.001268
2778.25	0.001456
2787.9	0.001777
2797.54	0.001915
2807.19	0.0021262
2816.84	0.0023012
2826.48	0.0023092
2836.13	0.0025525
2845.77	0.0029059
2855.42	0.00369
2865.07	0.00506
2874.71	0.00664
2884.36	0.0064
2894.01	0.00375
2903.65	0.003075
2913.3	0.00379
2922.95	0.00532
2932.59	0.00734
2942.24	0.0077
2951.89	0.0058
2961.53	0.00458
2971.18	0.00347
2980.83	0.0025875
2990.47	0.00214614
3000.12	0.0021254
3009.77	0.002005
3019.41	0.00220298
3029.06	0.0022188
3038.71	0.0023851
3048.35	0.0024634
3058	0.00214052
3067.64	0.0024492
3077.29	0.00329
3086.94	0.00827
3096.58	0.02138
3106.23	0.0173
3115.88	0.00616
3125.52	0.0030697
3135.17	0.001593
3144.82	0.00104
3154.46	0.00104
3164.11	0.001227
3173.76	0.00112
3183.4	0.00066
3193.05	0.00021
3202.7	0.00016
3212.34	8e-05
3221.99	9e-05
3231.64	0.00021
3241.28	0.00023
3250.93	8e-05
3260.58	0.00028
3270.22	0.00011
3279.87	0.00025
3289.52	0.00021
3299.16	0.00019
3308.81	0.00013
3318.45	0.00029
3328.1	0.00053
3337.75	0.00031
3347.39	0.00031
3357.04	0.00049
3366.69	0.00045
3376.33	0.00052
3385.98	0.00048
3395.63	0.00046
3405.27	0.00044
3414.92	0.00056
3424.57	0.00059
3434.21	0.00068
3443.86	0.00086
3453.51	0.00069
3463.15	0.00063
3472.8	0.00079
3482.45	0.00076
3492.09	0.00069
3501.74	0.00085
3511.39	0.00068
3521.03	0.00071
3530.68	0.00093
3540.33	0.00087
3549.97	0.00091
3559.62	0.001
3569.26	0.00089
3578.91	0.00103
3588.56	0.00095
3598.2	0.001
3607.85	0.00092
3617.5	0.00097
3627.14	0.00097
3636.79	0.00108
3646.44	0.001
3656.08	0.00098
3665.73	0.00101
3675.38	0.0011
3685.02	0.00104
3694.67	0.001143
3704.32	0.00102
3713.96	0.001
3723.61	0.00107
3733.26	0.0011
3742.9	0.00106
3752.55	0.001162
3762.2	0.00112
3771.84	0.00111
3781.49	0.00104
3791.13	0.00108
3800.78	0.00112
3810.43	0.00105
3820.07	0.001218
3829.72	0.001279
3839.37	0.001431
3849.01	0.00112
3858.66	0.00108
3868.31	0.001193
3877.95	0.001223
3887.6	0.001414
3897.25	0.001312
3906.89	0.001248
3916.54	0.00111
3926.19	0.0011
3935.83	0.001202
3945.48	0.001142
3955.13	0.001229
3964.77	0.001191
3974.42	0.00111
3984.07	0.001186
3993.71	0.00127
