Infrared Spectrum: 1-HYDROXY-2-(2,4,6-TRIMETHYL) NAPHTHANILIDE
Formula: C20 H19 N O2
CAS: 110150-56-6
State: SOLID (KBr PRESSING)
Melting point: 152-154 C
Class: COBLENTZ
Instrument: Not specified, most likely a prism, grating, or hybrid spectrometer.
Sampling: TRANSMISSION
Resolution: 4
Origin: EASTMAN KODAK COMPANY, RESEARCH LABORATORIES, ROCHESTER, N.Y.
MICROMETERS	TRANSMITTANCE
2.051	0.758
2.08615	0.774
2.12131	0.774
2.15646	0.781
2.19162	0.779
2.22677	0.779
2.26192	0.789
2.29708	0.796
2.33223	0.795
2.36739	0.791
2.40254	0.795
2.43769	0.803
2.47285	0.814
2.508	0.812
2.54316	0.817
2.57831	0.819
2.61347	0.829
2.64862	0.833
2.68377	0.84
2.71893	0.843
2.75408	0.84
2.78924	0.829
2.82439	0.805
2.85954	0.784
2.8947	0.732
2.92985	0.708
2.96501	0.687
3.00016	0.677
3.03531	0.539
3.07047	0.498
3.10562	0.666
3.14078	0.71
3.17593	0.725
3.21108	0.734
3.24624	0.739
3.28139	0.72
3.31655	0.671
3.3517	0.652
3.38685	0.633
3.42201	0.611
3.45716	0.595
3.49232	0.664
3.52747	0.663
3.56263	0.692
3.59778	0.711
3.63293	0.729
3.66809	0.755
3.70324	0.758
3.7384	0.762
3.77355	0.765
3.8087	0.779
3.84386	0.791
3.87901	0.812
3.91417	0.826
3.94932	0.824
3.98447	0.831
4.01963	0.842
4.05478	0.85
4.08994	0.855
4.12509	0.859
4.16024	0.861
4.1954	0.869
4.23055	0.888
4.26571	0.895
4.30086	0.899
4.33602	0.902
4.37117	0.899
4.40632	0.899
4.44148	0.904
4.47663	0.899
4.51179	0.901
4.54694	0.901
4.58209	0.904
4.61725	0.906
4.6524	0.909
4.68756	0.913
4.72271	0.913
4.75786	0.913
4.79302	0.916
4.82817	0.914
4.86333	0.902
4.89848	0.904
4.93363	0.914
4.96879	0.913
5.00394	0.913
5.0391	0.914
5.07425	0.906
5.1094	0.897
5.14456	0.902
5.17971	0.899
5.21487	0.902
5.25002	0.911
5.28518	0.904
5.32033	0.909
5.35548	0.899
5.39064	0.899
5.42579	0.901
5.46095	0.904
5.4961	0.906
5.53125	0.907
5.56641	0.913
5.60156	0.913
5.63672	0.913
5.67187	0.909
5.70702	0.899
5.74218	0.887
5.77733	0.871
5.81249	0.864
5.84764	0.862
5.88279	0.864
5.91795	0.862
5.9531	0.864
5.98826	0.862
6.02341	0.833
6.05856	0.791
6.09372	0.651
6.12887	0.454
6.16403	0.392
6.19918	0.352
6.23434	0.331
6.26949	0.201
6.30464	0.401
6.3398	0.526
6.37495	0.637
6.41011	0.661
6.44526	0.63
6.48041	0.572
6.51557	0.309
6.55072	0.119
6.58588	0.125
6.62103	0.196
6.65618	0.182
6.69134	0.142
6.72649	0.284
6.76165	0.447
6.7968	0.501
6.83195	0.451
6.86711	0.468
6.90226	0.578
6.93742	0.612
6.97257	0.626
7.00773	0.635
7.04288	0.644
7.07803	0.501
7.11319	0.456
7.14834	0.598
7.1835	0.592
7.21865	0.475
7.2538	0.501
7.28896	0.526
7.32411	0.536
7.35927	0.553
7.39442	0.592
7.42957	0.647
7.46473	0.657
7.49988	0.567
7.53504	0.423
7.57019	0.369
7.60534	0.44
7.6405	0.486
7.67565	0.598
7.71081	0.612
7.74596	0.517
7.78111	0.385
7.81627	0.251
7.85142	0.321
7.88658	0.522
7.92173	0.625
7.95689	0.44
7.99204	0.375
8.02719	0.508
8.06235	0.675
8.0975	0.762
8.13266	0.765
8.16781	0.72
8.20296	0.689
8.23812	0.663
8.27327	0.546
8.30843	0.666
8.34358	0.753
8.37873	0.781
8.41389	0.772
8.44904	0.784
8.4842	0.805
8.51935	0.758
8.5545	0.743
8.58966	0.786
8.62481	0.769
8.65997	0.746
8.69512	0.696
8.73027	0.718
8.76543	0.762
8.80058	0.798
8.83574	0.819
8.87089	0.836
8.90605	0.84
8.9412	0.845
8.97635	0.847
9.01151	0.847
9.04666	0.843
9.08182	0.833
9.11697	0.817
9.15212	0.781
9.18728	0.758
9.22243	0.755
9.25759	0.781
9.29274	0.807
9.32789	0.824
9.36305	0.836
9.3982	0.843
9.43336	0.843
9.46851	0.845
9.50366	0.84
9.53882	0.835
9.57397	0.809
9.60913	0.777
9.64428	0.758
9.67944	0.76
9.71459	0.762
9.74974	0.729
9.7849	0.725
9.82005	0.788
9.85521	0.814
9.89036	0.829
9.92551	0.843
9.96067	0.852
9.99582	0.862
10.031	0.861
10.0661	0.868
10.1013	0.866
10.1364	0.875
10.1716	0.869
10.2067	0.871
10.2419	0.864
10.2771	0.866
10.3122	0.855
10.3474	0.819
10.3825	0.809
10.4177	0.817
10.4528	0.833
10.488	0.807
10.5231	0.77
10.5583	0.687
10.5934	0.68
10.6286	0.736
10.6637	0.758
10.6989	0.767
10.7341	0.744
10.7692	0.793
10.8044	0.824
10.8395	0.861
10.8747	0.847
10.9098	0.852
10.945	0.855
10.9801	0.852
11.0153	0.861
11.0504	0.857
11.0856	0.857
11.1208	0.848
11.1559	0.843
11.1911	0.843
11.2262	0.838
11.2614	0.835
11.2965	0.807
11.3317	0.772
11.3668	0.756
11.402	0.762
11.4371	0.777
11.4723	0.781
11.5074	0.788
11.5426	0.758
11.5778	0.744
11.6129	0.765
11.6481	0.767
11.6832	0.765
11.7184	0.734
11.7535	0.68
11.7887	0.581
11.8238	0.458
11.859	0.618
11.8941	0.71
11.9293	0.732
11.9645	0.736
11.9996	0.737
12.0348	0.725
12.0699	0.704
12.1051	0.69
12.1402	0.661
12.1754	0.697
12.2105	0.69
12.2457	0.649
12.2808	0.572
12.316	0.463
12.3511	0.371
12.3863	0.303
12.4215	0.289
12.4566	0.314
12.4918	0.371
12.5269	0.414
12.5621	0.454
12.5972	0.543
12.6324	0.623
12.6675	0.649
12.7027	0.673
12.7378	0.685
12.773	0.678
12.8081	0.67
12.8433	0.649
12.8785	0.562
12.9136	0.421
12.9488	0.248
12.9839	0.161
13.0191	0.237
13.0542	0.406
13.0894	0.524
13.1245	0.616
13.1597	0.682
13.1948	0.727
13.23	0.737
13.2652	0.744
13.3003	0.763
13.3355	0.767
13.3706	0.76
13.4058	0.767
13.4409	0.774
13.4761	0.77
13.5112	0.76
13.5464	0.755
13.5815	0.753
13.6167	0.748
13.6518	0.75
13.687	0.756
13.7222	0.762
13.7573	0.753
13.7925	0.746
13.8276	0.73
13.8628	0.659
13.8979	0.605
13.9331	0.637
13.9682	0.666
14.0034	0.675
14.0385	0.649
14.0737	0.628
14.1088	0.661
14.144	0.687
14.1792	0.699
14.2143	0.697
14.2495	0.692
14.2846	0.687
14.3198	0.682
14.3549	0.673
14.3901	0.677
14.4252	0.678
14.4604	0.677
14.4955	0.666
14.5307	0.659
14.5659	0.656
14.601	0.654
14.6362	0.635
14.6713	0.623
14.7065	0.609
14.7416	0.588
14.7768	0.574
14.8119	0.555
14.8471	0.531
14.8822	0.505
14.9174	0.475
14.9525	0.458
14.9877	0.494
15.0229	0.519
15.058	0.512
15.0932	0.498
15.1283	0.498
15.1635	0.5
15.1986	0.501
15.2338	0.501
15.2689	0.505
15.3041	0.505
15.3392	0.505
15.3744	0.5
15.4095	0.501
15.4447	0.491
15.4799	0.484
15.515	0.47
15.5502	0.461
15.5853	0.456
15.6205	0.456
15.6556	0.453
15.6908	0.451
15.7259	0.451
15.7611	0.453
15.7962	0.458
15.8314	0.465
15.8666	0.461
15.9017	0.467
15.9369	0.465
15.972	0.46
16.0072	0.461
