Infrared Spectrum: CARBANILIC ACID, n-UNDECYL ESTER
Formula: C18 H29 N O2
CAS: 110273-47-7
State: SOLID (2.0 mg / 100 mg KBr)
Melting point: 57.5-58 C
Class: COBLENTZ
Instrument: Not specified, most likely a grating spectrometer.
Sampling: TRANSMISSION
Resolution: 4
Origin: CITRUS EXPERIMENT STATION, UNIVERSITY OF FLORIDA (G. EDWARDS)
MICROMETERS	TRANSMITTANCE
2.04	0.834
2.0731	0.836
2.10619	0.838
2.13929	0.84
2.17239	0.84
2.20549	0.838
2.23858	0.837
2.27168	0.837
2.30478	0.837
2.33788	0.84
2.37097	0.842
2.40407	0.846
2.43717	0.846
2.47027	0.848
2.50336	0.849
2.53646	0.85
2.56956	0.853
2.60266	0.856
2.63575	0.86
2.66885	0.852
2.70195	0.857
2.73505	0.86
2.76814	0.858
2.80124	0.857
2.83434	0.86
2.86743	0.86
2.90053	0.849
2.93363	0.828
2.96673	0.77
2.99982	0.437
3.03292	0.517
3.06602	0.77
3.09912	0.814
3.13221	0.824
3.16531	0.817
3.19841	0.822
3.23151	0.805
3.2646	0.808
3.2977	0.82
3.3308	0.785
3.3639	0.546
3.39699	0.422
3.43009	0.601
3.46319	0.61
3.49629	0.541
3.52938	0.837
3.56248	0.841
3.59558	0.86
3.62867	0.869
3.66177	0.869
3.69487	0.868
3.72797	0.87
3.76106	0.874
3.79416	0.872
3.82726	0.873
3.86036	0.88
3.89345	0.882
3.92655	0.882
3.95965	0.881
3.99275	0.881
4.02584	0.881
4.05894	0.884
4.09204	0.882
4.12514	0.881
4.15823	0.878
4.19133	0.873
4.22443	0.873
4.25753	0.88
4.29062	0.888
4.32372	0.886
4.35682	0.885
4.38991	0.886
4.42301	0.888
4.45611	0.882
4.48921	0.881
4.5223	0.884
4.5554	0.892
4.5885	0.894
4.6216	0.889
4.65469	0.889
4.68779	0.888
4.72089	0.881
4.75399	0.89
4.78708	0.885
4.82018	0.889
4.85328	0.892
4.88638	0.886
4.91947	0.882
4.95257	0.886
4.98567	0.885
5.01877	0.882
5.05186	0.881
5.08496	0.877
5.11806	0.869
5.15115	0.878
5.18425	0.884
5.21735	0.882
5.25045	0.88
5.28354	0.87
5.31664	0.866
5.34974	0.872
5.38284	0.88
5.41593	0.87
5.44903	0.868
5.48213	0.865
5.51523	0.846
5.54832	0.848
5.58142	0.85
5.61452	0.837
5.64762	0.84
5.68071	0.82
5.71381	0.754
5.74691	0.688
5.78001	0.617
5.8131	0.438
5.8462	0.277
5.8793	0.378
5.91239	0.505
5.94549	0.734
5.97859	0.776
6.01169	0.8
6.04478	0.833
6.07788	0.837
6.11098	0.82
6.14408	0.777
6.17717	0.654
6.21027	0.574
6.24337	0.4
6.27647	0.61
6.30956	0.802
6.34266	0.789
6.37576	0.692
6.40886	0.382
6.44195	0.256
6.47505	0.469
6.50815	0.566
6.54125	0.709
6.57434	0.716
6.60744	0.626
6.64054	0.612
6.67363	0.672
6.70673	0.705
6.73983	0.656
6.77293	0.601
6.80602	0.649
6.83912	0.686
6.87222	0.636
6.90532	0.342
6.93841	0.612
6.97151	0.752
7.00461	0.794
7.03771	0.814
7.0708	0.82
7.1039	0.818
7.137	0.8
7.1701	0.774
7.20319	0.79
7.23629	0.793
7.26939	0.801
7.30249	0.797
7.33558	0.804
7.36868	0.798
7.40178	0.8
7.43487	0.777
7.46797	0.752
7.50107	0.656
7.53417	0.564
7.56726	0.353
7.60036	0.542
7.63346	0.513
7.66656	0.616
7.69965	0.752
7.73275	0.789
7.76585	0.793
7.79895	0.79
7.83204	0.776
7.86514	0.704
7.89824	0.678
7.93134	0.628
7.96443	0.549
7.99753	0.378
8.03063	0.136
8.06373	0.141
8.09682	0.161
8.12992	0.332
8.16302	0.522
8.19612	0.593
8.22921	0.681
8.26231	0.722
8.29541	0.75
8.3285	0.784
8.3616	0.804
8.3947	0.817
8.4278	0.805
8.46089	0.79
8.49399	0.814
8.52709	0.84
8.56019	0.845
8.59328	0.825
8.62638	0.842
8.65948	0.852
8.69258	0.866
8.72567	0.866
8.75877	0.864
8.79187	0.858
8.82497	0.854
8.85806	0.849
8.89116	0.85
8.92426	0.85
8.95736	0.84
8.99045	0.825
9.02355	0.806
9.05665	0.761
9.08974	0.669
9.12284	0.648
9.15594	0.721
9.18904	0.745
9.22213	0.746
9.25523	0.773
9.28833	0.766
9.32143	0.681
9.35452	0.516
9.38762	0.461
9.42072	0.412
9.45382	0.445
9.48691	0.57
9.52001	0.714
9.55311	0.769
9.58621	0.794
9.6193	0.801
9.6524	0.8
9.6855	0.732
9.7186	0.676
9.75169	0.693
9.78479	0.72
9.81789	0.781
9.85098	0.821
9.88408	0.838
9.91718	0.852
9.95028	0.854
9.98337	0.842
10.0165	0.794
10.0496	0.833
10.0827	0.858
10.1158	0.865
10.1489	0.858
10.182	0.86
10.2151	0.861
10.2482	0.857
10.2813	0.848
10.3143	0.832
10.3474	0.81
10.3805	0.84
10.4136	0.854
10.4467	0.862
10.4798	0.869
10.5129	0.872
10.546	0.876
10.5791	0.878
10.6122	0.88
10.6453	0.877
10.6784	0.88
10.7115	0.878
10.7446	0.88
10.7777	0.88
10.8108	0.873
10.8439	0.878
10.877	0.881
10.9101	0.877
10.9432	0.87
10.9763	0.856
11.0094	0.809
11.0425	0.838
11.0756	0.866
11.1087	0.881
11.1418	0.878
11.1749	0.874
11.208	0.872
11.2411	0.872
11.2742	0.874
11.3073	0.881
11.3404	0.882
11.3735	0.884
11.4066	0.888
11.4397	0.89
11.4728	0.892
11.5059	0.88
11.539	0.892
11.572	0.88
11.6051	0.87
11.6382	0.88
11.6713	0.864
11.7044	0.844
11.7375	0.822
11.7706	0.814
11.8037	0.834
11.8368	0.83
11.8699	0.813
11.903	0.825
11.9361	0.85
11.9692	0.866
12.0023	0.873
12.0354	0.873
12.0685	0.873
12.1016	0.874
12.1347	0.874
12.1678	0.874
12.2009	0.874
12.234	0.877
12.2671	0.884
12.3002	0.884
12.3333	0.89
12.3664	0.89
12.3995	0.889
12.4326	0.886
12.4657	0.885
12.4988	0.882
12.5319	0.882
12.565	0.882
12.5981	0.881
12.6312	0.878
12.6643	0.872
12.6974	0.877
12.7305	0.87
12.7636	0.858
12.7967	0.846
12.8298	0.84
12.8628	0.82
12.8959	0.753
12.929	0.692
12.9621	0.68
12.9952	0.728
13.0283	0.761
13.0614	0.745
13.0945	0.73
13.1276	0.74
13.1607	0.745
13.1938	0.737
13.2269	0.712
13.26	0.666
13.2931	0.626
13.3262	0.578
13.3593	0.578
13.3924	0.614
13.4255	0.686
13.4586	0.737
13.4917	0.765
13.5248	0.786
13.5579	0.789
13.591	0.79
13.6241	0.796
13.6572	0.801
13.6903	0.8
13.7234	0.79
13.7565	0.781
13.7896	0.774
13.8227	0.772
13.8558	0.789
13.8889	0.801
13.922	0.804
13.9551	0.8
13.9882	0.792
14.0213	0.781
14.0544	0.769
14.0875	0.757
14.1205	0.74
14.1536	0.725
14.1867	0.714
14.2198	0.705
14.2529	0.702
14.286	0.702
14.3191	0.702
14.3522	0.7
14.3853	0.698
14.4184	0.701
14.4515	0.71
14.4846	0.722
14.5177	0.733
14.5508	0.75
14.5839	0.761
14.617	0.772
14.6501	0.781
14.6832	0.789
14.7163	0.792
14.7494	0.8
14.7825	0.808
14.8156	0.809
14.8487	0.806
14.8818	0.801
14.9149	0.785
14.948	0.81
14.9811	0.817
