Infrared Spectrum: IMIDAZOLE, 5-(METHYLSULFONYL)-4-NITRO-
Formula: C4 H5 N3 O4 S
CAS: 110299-87-1
State: SOLID (0.7 mg / 650 mg KBr DISC) VS ONE NaCl WINDOW IN BEAM
Class: COBLENTZ III
Instrument: PERKIN-ELMER 21 (GRATING)
Instrument parameters: FILTER CHANGE AT ABOUT 1075 CM^-^1.
Sampling: TRANSMISSION
Resolution: 2
Origin: SOUTHERN RESEARCH INSTITUTE
1/CM	TRANSMITTANCE
629.95	0.904
639.545	0.7511
649.14	0.7779
658.736	0.9498
668.331	0.957
677.926	0.953
687.521	0.9345
697.116	0.9273
706.712	0.9154
716.307	0.9044
725.902	0.8843
735.497	0.8539
745.092	0.8042
754.688	0.4954
764.283	0.4716
773.878	0.852
783.473	0.8325
793.068	0.8073
802.663	0.7934
812.259	0.7658
821.854	0.7017
831.449	0.3901
841.044	0.79
850.639	0.7451
860.235	0.6511
869.83	0.3927
879.425	0.7536
889.02	0.801
898.615	0.7797
908.211	0.7094
917.806	0.646
927.401	0.6321
936.996	0.4703
946.591	0.357
956.187	0.194
965.782	0.7235
975.377	0.8445
984.972	0.847
994.567	0.8403
1004.16	0.8181
1013.76	0.7931
1023.35	0.7828
1032.95	0.771
1042.54	0.7298
1052.14	0.7038
1061.73	0.621
1071.33	0.7158
1080.92	0.7331
1090.52	0.7203
1100.11	0.7073
1109.71	0.703
1119.3	0.6815
1128.9	0.6323
1138.5	0.504
1148.09	0.3182
1157.69	0.3428
1167.28	0.3172
1176.88	0.4482
1186.47	0.738
1196.07	0.7164
1205.66	0.6255
1215.26	0.4585
1224.85	0.1816
1234.45	0.4862
1244.04	0.76
1253.64	0.7238
1263.23	0.6873
1272.83	0.7036
1282.42	0.6349
1292.02	0.5338
1301.61	0.3607
1311.21	0.1361
1320.8	0.0358
1330.4	0.0624
1339.99	0.6182
1349.59	0.5613
1359.18	0.3017
1368.78	0.0396
1378.38	0.458
1387.97	0.7056
1397.57	0.698
1407.16	0.7027
1416.76	0.653
1426.35	0.6182
1435.95	0.3343
1445.54	0.2486
1455.14	0.5296
1464.73	0.3173
1474.33	0.2944
1483.92	0.6872
1493.52	0.6729
1503.11	0.5451
1512.71	0.3203
1522.3	0.2979
1531.9	0.397
1541.49	0.3746
1551.09	0.599
1560.68	0.7673
1570.28	0.8244
1579.87	0.8204
1589.47	0.8066
1599.06	0.8
1608.66	0.796
1618.25	0.795
1627.85	0.8014
1637.45	0.8074
1647.04	0.8123
1656.64	0.8283
1666.23	0.8392
1675.83	0.8484
1685.42	0.847
1695.02	0.8419
1704.61	0.833
1714.21	0.82
1723.8	0.8011
1733.4	0.7789
1742.99	0.777
1752.59	0.7919
1762.18	0.7712
1771.78	0.7638
1781.37	0.776
1790.97	0.773
1800.56	0.7664
1810.16	0.767
1819.75	0.77
1829.35	0.7695
1838.94	0.7679
1848.54	0.7758
1858.13	0.7854
1867.73	0.7993
1877.33	0.811
1886.92	0.8177
1896.52	0.8292
1906.11	0.8363
1915.71	0.8401
1925.3	0.8411
1934.9	0.844
1944.49	0.845
1954.09	0.846
1963.68	0.847
1973.28	0.847
1982.87	0.8478
1992.47	0.852
2002.06	0.854
2011.66	0.852
2021.25	0.851
2030.85	0.848
2040.44	0.847
2050.04	0.844
2059.63	0.84
2069.23	0.8383
2078.82	0.836
2088.42	0.834
2098.01	0.832
2107.61	0.8273
2117.2	0.826
2126.8	0.822
2136.4	0.82
2145.99	0.8176
2155.59	0.815
2165.18	0.8096
2174.78	0.8023
2184.37	0.796
2193.97	0.792
2203.56	0.788
2213.16	0.7823
2222.75	0.7793
2232.35	0.773
2241.94	0.772
2251.54	0.7533
2261.13	0.7383
2270.73	0.73
2280.32	0.7236
2289.92	0.721
2299.51	0.7153
2309.11	0.7093
2318.7	0.704
2328.3	0.6913
2337.89	0.6773
2347.49	0.6588
2357.08	0.6473
2366.68	0.634
2376.28	0.6273
2385.87	0.627
2395.47	0.6253
2405.06	0.605
2414.66	0.5843
2424.25	0.5693
2433.85	0.5573
2443.44	0.5486
2453.04	0.5216
2462.63	0.509
2472.23	0.498
2481.82	0.498
2491.42	0.4926
2501.01	0.4674
2510.61	0.4424
2520.2	0.4298
2529.8	0.4133
2539.39	0.3966
2548.99	0.3783
2558.58	0.38
2568.18	0.389
2577.77	0.3957
2587.37	0.4016
2596.96	0.3943
2606.56	0.378
2616.15	0.382
2625.75	0.3854
2635.35	0.403
2644.94	0.403
2654.54	0.4003
2664.13	0.396
2673.73	0.3926
2683.32	0.3866
2692.92	0.382
2702.51	0.3736
2712.11	0.3663
2721.7	0.3633
2731.3	0.3593
2740.89	0.3429
2750.49	0.328
2760.08	0.326
2769.68	0.33
2779.27	0.3412
2788.87	0.3736
2798.46	0.4253
2808.06	0.4719
2817.65	0.4954
2827.25	0.5003
2836.84	0.4511
2846.44	0.4238
2856.03	0.4153
2865.63	0.414
2875.23	0.415
2884.82	0.419
2894.42	0.4227
2904.01	0.442
2913.61	0.4897
2923.2	0.4846
2932.8	0.4656
2942.39	0.4548
2951.99	0.4473
2961.58	0.4343
2971.18	0.4314
2980.77	0.4439
2990.37	0.5029
2999.96	0.5284
3009.56	0.5397
3019.15	0.5784
3028.75	0.5914
3038.34	0.6
3047.94	0.6107
3057.53	0.6252
3067.13	0.6544
3076.72	0.6704
3086.32	0.6822
3095.91	0.688
3105.51	0.6853
3115.1	0.655
3124.7	0.627
3134.3	0.6764
3143.89	0.7407
3153.49	0.7494
3163.08	0.751
3172.68	0.7473
3182.27	0.74
3191.87	0.741
3201.46	0.742
3211.06	0.74
3220.65	0.738
3230.25	0.735
3239.84	0.734
3249.44	0.7293
3259.03	0.7253
3268.63	0.72
3278.22	0.7143
3287.82	0.7083
3297.41	0.7013
3307.01	0.6926
3316.6	0.6866
3326.2	0.6793
3335.79	0.6703
3345.39	0.664
3354.98	0.6573
3364.58	0.6466
3374.18	0.639
3383.77	0.636
3393.37	0.635
3402.96	0.636
3412.56	0.642
3422.15	0.644
3431.75	0.6477
3441.34	0.653
3450.94	0.6587
3460.53	0.6657
3470.13	0.67
3479.72	0.6717
3489.32	0.6767
3498.91	0.691
3508.51	0.7007
3518.1	0.7064
3527.7	0.7107
3537.29	0.7167
3546.89	0.7267
3556.48	0.7441
3566.08	0.754
3575.67	0.7577
3585.27	0.7657
3594.86	0.767
3604.46	0.767
3614.05	0.7707
3623.65	0.777
3633.25	0.779
3642.84	0.779
3652.44	0.779
3662.03	0.779
3671.63	0.779
3681.22	0.78
3690.82	0.783
3700.41	0.7806
3710.01	0.7783
3719.6	0.776
3729.2	0.775
3738.79	0.7723
3748.39	0.77
3757.98	0.77
3767.58	0.766
3777.17	0.769
3786.77	0.77
3796.36	0.77
3805.96	0.767
3815.55	0.765
3825.15	0.763
3834.74	0.7593
3844.34	0.758
3853.93	0.757
3863.53	0.7533
3873.13	0.753
3882.72	0.752
3892.32	0.745
3901.91	0.746
3911.51	0.747
3921.1	0.745
3930.7	0.744
3940.29	0.742
3949.89	0.745
3959.48	0.745
3969.08	0.741
3978.67	0.742
3988.27	0.746
3997.86	0.742
4007.46	0.745
4017.05	0.745
