Infrared Spectrum: Carbamic acid, N,N-diethyl-, anhydride with dibenzyl phosphate
Formula: C19 H24 N O5 P
CAS: 110376-81-3
State: LIQUID (NEAT)
Class: COBLENTZ III
Instrument: PERKIN-ELMER 21 (GRATING)
Instrument parameters: FILTER CHANGE ABOUT 1010 CM^-^1
Sampling: TRANSMISSION
Path length: CAPILLARY
Resolution: 2
Origin: SOUTHERN RESEARCH INSTITUTE
1/CM	TRANSMITTANCE
598.495	0.667
607.524	0.6558
616.552	0.6724
625.581	0.7111
634.61	0.7711
643.638	0.806
652.667	0.811
661.695	0.8234
670.724	0.8213
679.753	0.7978
688.781	0.6497
697.81	0.3232
706.839	0.7362
715.867	0.7373
724.896	0.5711
733.925	0.3098
742.953	0.2927
751.982	0.4156
761.011	0.6023
770.039	0.6054
779.068	0.5858
788.096	0.5733
797.125	0.5708
806.154	0.5787
815.182	0.6048
824.211	0.6024
833.24	0.5914
842.268	0.5612
851.297	0.4995
860.326	0.3487
869.354	0.246
878.383	0.3083
887.412	0.4019
896.44	0.4781
905.469	0.4958
914.497	0.4843
923.526	0.4672
932.555	0.4512
941.583	0.337
950.612	0.1848
959.641	0.1066
968.669	0.1183
977.698	0.1663
986.727	0.2248
995.755	0.1852
1004.78	0.1188
1013.81	0.0753
1022.84	0.0728
1031.87	0.0874
1040.9	0.1084
1049.93	0.1547
1058.96	0.2703
1067.98	0.304
1077.01	0.3447
1086.04	0.3513
1095.07	0.4138
1104.1	0.4571
1113.13	0.5509
1122.16	0.6139
1131.18	0.612
1140.21	0.5977
1149.24	0.4556
1158.27	0.3395
1167.3	0.4604
1176.33	0.5547
1185.36	0.5771
1194.39	0.61
1203.41	0.5905
1212.44	0.4846
1221.47	0.3256
1230.5	0.4418
1239.53	0.481
1248.56	0.454
1257.59	0.3676
1266.61	0.2146
1275.64	0.1715
1284.67	0.1794
1293.7	0.199
1302.73	0.2521
1311.76	0.3529
1320.79	0.4547
1329.81	0.593
1338.84	0.6284
1347.87	0.6291
1356.9	0.6047
1365.93	0.5782
1374.96	0.5209
1383.99	0.4306
1393.02	0.4453
1402.04	0.5719
1411.07	0.5528
1420.1	0.4947
1429.13	0.2765
1438.16	0.3365
1447.19	0.4697
1456.22	0.4433
1465.24	0.3299
1474.27	0.4146
1483.3	0.4023
1492.33	0.5176
1501.36	0.5099
1510.39	0.6027
1519.42	0.642
1528.45	0.6524
1537.47	0.6574
1546.5	0.6615
1555.53	0.6722
1564.56	0.674
1573.59	0.6707
1582.62	0.6658
1591.65	0.6535
1600.67	0.6544
1609.7	0.6409
1618.73	0.6323
1627.76	0.6294
1636.79	0.6284
1645.82	0.6243
1654.85	0.621
1663.87	0.6107
1672.9	0.586
1681.93	0.543
1690.96	0.4743
1699.99	0.4068
1709.02	0.3555
1718.05	0.1912
1727.08	0.0834
1736.1	0.0769
1745.13	0.119
1754.16	0.3314
1763.19	0.4976
1772.22	0.5905
1781.25	0.6464
1790.28	0.6571
1799.3	0.6543
1808.33	0.6523
1817.36	0.6566
1826.39	0.6631
1835.42	0.6702
1844.45	0.6772
1853.48	0.6839
1862.5	0.6896
1871.53	0.6793
1880.56	0.675
1889.59	0.6761
1898.62	0.6775
1907.65	0.6812
1916.68	0.6842
1925.71	0.6845
1934.73	0.6882
1943.76	0.6841
1952.79	0.6747
1961.82	0.6752
1970.85	0.6772
1979.88	0.6809
1988.91	0.6878
1997.93	0.6871
2006.96	0.6877
2015.99	0.6894
2025.02	0.6917
2034.05	0.6979
2043.08	0.6959
2052.11	0.6942
2061.13	0.6955
2070.16	0.6971
2079.19	0.6963
2088.22	0.6947
2097.25	0.6962
2106.28	0.6957
2115.31	0.6956
2124.34	0.6979
2133.36	0.6977
2142.39	0.6966
2151.42	0.6949
2160.45	0.6937
2169.48	0.6928
2178.51	0.6912
2187.54	0.6898
2196.56	0.6956
2205.59	0.695
2214.62	0.6954
2223.65	0.6982
2232.68	0.6936
2241.71	0.6905
2250.74	0.69
2259.77	0.6879
2268.79	0.6884
2277.82	0.689
2286.85	0.6899
2295.88	0.6905
2304.91	0.6908
2313.94	0.691
2322.97	0.6913
2331.99	0.6921
2341.02	0.689
2350.05	0.6808
2359.08	0.6763
2368.11	0.6737
2377.14	0.6709
2386.17	0.6738
2395.19	0.6774
2404.22	0.6767
2413.25	0.6755
2422.28	0.674
2431.31	0.6705
2440.34	0.6687
2449.37	0.6672
2458.4	0.6664
2467.42	0.6678
2476.45	0.6671
2485.48	0.6651
2494.51	0.6681
2503.54	0.6698
2512.57	0.6683
2521.6	0.6673
2530.62	0.6727
2539.65	0.6766
2548.68	0.6785
2557.71	0.6813
2566.74	0.6835
2575.77	0.68
2584.8	0.6728
2593.82	0.6703
2602.85	0.6727
2611.88	0.6754
2620.91	0.6749
2629.94	0.6734
2638.97	0.6765
2648	0.6773
2657.03	0.674
2666.05	0.6699
2675.08	0.6662
2684.11	0.6653
2693.14	0.6654
2702.17	0.6659
2711.2	0.6668
2720.23	0.665
2729.25	0.6613
2738.28	0.6585
2747.31	0.6571
2756.34	0.6618
2765.37	0.6671
2774.4	0.6542
2783.43	0.651
2792.45	0.6484
2801.48	0.6452
2810.51	0.6428
2819.54	0.638
2828.57	0.6213
2837.6	0.6122
2846.63	0.6007
2855.66	0.583
2864.68	0.5733
2873.71	0.5638
2882.74	0.5545
2891.77	0.5421
2900.8	0.5196
2909.83	0.519
2918.86	0.5171
2927.88	0.4974
2936.91	0.4689
2945.94	0.457
2954.97	0.4479
2964	0.434
2973.03	0.4168
2982.06	0.407
2991.08	0.4397
3000.11	0.4859
3009.14	0.5167
3018.17	0.5355
3027.2	0.5573
3036.23	0.5584
3045.26	0.5563
3054.29	0.5557
3063.31	0.5606
3072.34	0.5748
3081.37	0.5815
3090.4	0.5912
3099.43	0.6029
3108.46	0.6104
3117.49	0.6324
3126.51	0.6438
3135.54	0.6471
3144.57	0.6472
3153.6	0.6461
3162.63	0.6456
3171.66	0.645
3180.69	0.6444
3189.72	0.6452
3198.74	0.6465
3207.77	0.6496
3216.8	0.6496
3225.83	0.6468
3234.86	0.6452
3243.89	0.6506
3252.92	0.6533
3261.94	0.6523
3270.97	0.6535
3280	0.6465
3289.03	0.6409
3298.06	0.639
3307.09	0.6374
3316.12	0.6354
3325.14	0.6321
3334.17	0.63
3343.2	0.6274
3352.23	0.6221
3361.26	0.6216
3370.29	0.6212
3379.32	0.6194
3388.35	0.6138
3397.37	0.614
3406.4	0.6142
3415.43	0.6138
3424.46	0.6117
3433.49	0.6049
3442.52	0.5981
3451.55	0.5936
3460.57	0.5933
3469.6	0.601
3478.63	0.6079
3487.66	0.6046
3496.69	0.6061
3505.72	0.6072
3514.75	0.6054
3523.77	0.6032
3532.8	0.6084
3541.83	0.6181
3550.86	0.6227
3559.89	0.623
3568.92	0.6223
3577.95	0.6267
3586.98	0.6335
3596	0.6382
3605.03	0.6489
3614.06	0.6543
3623.09	0.6553
3632.12	0.6581
3641.15	0.6569
3650.18	0.6592
3659.2	0.6617
3668.23	0.662
3677.26	0.6649
3686.29	0.6703
3695.32	0.6721
3704.35	0.677
3713.38	0.681
3722.4	0.6825
3731.43	0.6819
3740.46	0.6807
3749.49	0.6768
3758.52	0.6765
3767.55	0.6793
3776.58	0.6803
3785.61	0.6851
3794.63	0.6862
3803.66	0.6864
3812.69	0.6889
3821.72	0.6943
3830.75	0.6973
3839.78	0.6951
3848.81	0.6903
3857.83	0.6878
3866.86	0.6899
3875.89	0.6957
3884.92	0.6953
3893.95	0.6939
3902.98	0.6923
