Infrared Spectrum: ACETANILIDE, 6-tert-BUTYL-2,4-DIMETHYL-
Formula: C14 H21 N O
CAS: 110491-71-9
State: SOLID (OIL MULL)
Class: COBLENTZ III
Instrument: BECKMAN IR-4 (HYBRID PRISM-GRATING)
Instrument parameters: NaCl PRISM
Sampling: TRANSMISSION
Resolution: 2
Origin: MONSANTO (J. FREEMAN)
1/CM	TRANSMITTANCE
3921.57	0.8071
3912.78	0.8078
3903.99	0.8083
3895.21	0.8088
3886.42	0.8093
3877.63	0.8098
3868.84	0.8103
3860.06	0.8108
3851.27	0.8112
3842.48	0.8118
3833.69	0.8121
3824.91	0.8125
3816.12	0.813
3807.33	0.8134
3798.54	0.8138
3789.76	0.8142
3780.97	0.8146
3772.18	0.8149
3763.39	0.8151
3754.61	0.8153
3745.82	0.8155
3737.03	0.8158
3728.24	0.8161
3719.46	0.8161
3710.67	0.8161
3701.88	0.8162
3693.09	0.8164
3684.3	0.8165
3675.52	0.8165
3666.73	0.8165
3657.94	0.8167
3649.15	0.8167
3640.37	0.8168
3631.58	0.8168
3622.79	0.8167
3614	0.8165
3605.22	0.8164
3596.43	0.8162
3587.64	0.8161
3578.85	0.816
3570.07	0.8158
3561.28	0.8155
3552.49	0.815
3543.7	0.8147
3534.92	0.8143
3526.13	0.8138
3517.34	0.8131
3508.55	0.8124
3499.76	0.8117
3490.98	0.8111
3482.19	0.8104
3473.4	0.8096
3464.61	0.8085
3455.83	0.8075
3447.04	0.8063
3438.25	0.8048
3429.46	0.8031
3420.68	0.8013
3411.89	0.7995
3403.1	0.7965
3394.31	0.7935
3385.53	0.7902
3376.74	0.7839
3367.95	0.7769
3359.16	0.7673
3350.38	0.7527
3341.59	0.7116
3332.8	0.6474
3324.01	0.583
3315.23	0.518
3306.44	0.4529
3297.65	0.3873
3288.86	0.3215
3280.07	0.2552
3271.29	0.1885
3262.5	0.1534
3253.71	0.1534
3244.92	0.2737
3236.14	0.4056
3227.35	0.5376
3218.56	0.632
3209.77	0.6519
3200.99	0.6611
3192.2	0.675
3183.41	0.6946
3174.62	0.7144
3165.84	0.7343
3157.05	0.7544
3148.26	0.7676
3139.47	0.7709
3130.69	0.7718
3121.9	0.771
3113.11	0.7683
3104.32	0.7638
3095.53	0.7531
3086.75	0.7392
3077.96	0.722
3069.17	0.6981
3060.38	0.6763
3051.6	0.6572
3042.81	0.6316
3034.02	0.6017
3025.23	0.5875
3016.45	0.5545
3007.66	0.5247
2998.87	0.4901
2990.08	0.3772
2981.3	0.2602
2972.51	0.1452
2963.72	0.1165
2954.93	0.0991
2946.15	0.0788
2937.36	0.0752
2928.57	0.0767
2919.78	0.1073
2911	0.1645
2902.21	0.2221
2893.42	0.2664
2884.63	0.2612
2875.84	0.2476
2867.06	0.2351
2858.27	0.3118
2849.48	0.6411
2840.69	0.7208
2831.91	0.7343
2823.12	0.7442
2814.33	0.7526
2805.54	0.7607
2796.76	0.7719
2787.97	0.783
2779.18	0.7953
2770.39	0.8072
2761.61	0.8148
2752.82	0.8185
2744.03	0.8216
2735.24	0.8256
2726.46	0.8289
2717.67	0.8313
2708.88	0.8333
2700.09	0.8347
2691.31	0.836
2682.52	0.8373
2673.73	0.8388
2664.94	0.8404
2656.15	0.8421
2647.37	0.8438
2638.58	0.8456
2629.79	0.8472
2621	0.8488
2612.22	0.8504
2603.43	0.8519
2594.64	0.8536
2585.85	0.8551
2577.07	0.8563
2568.28	0.8575
2559.49	0.8588
2550.7	0.8601
2541.92	0.8615
2533.13	0.8629
2524.34	0.8643
2515.55	0.8655
2506.77	0.8662
2497.98	0.867
2489.19	0.8678
2480.4	0.8685
2471.61	0.869
2462.83	0.8696
2454.04	0.8702
2445.25	0.8708
2436.46	0.8714
2427.68	0.8718
2418.89	0.872
2410.1	0.8719
2401.31	0.8716
2392.53	0.8766
2383.74	0.8833
2374.95	0.8866
2366.16	0.8871
2357.38	0.8875
2348.59	0.8879
2339.8	0.8882
2331.01	0.8864
2322.23	0.8835
2313.44	0.882
2304.65	0.8817
2295.86	0.8814
2287.08	0.8812
2278.29	0.8817
2269.5	0.8824
2260.71	0.8832
2251.92	0.8845
2243.14	0.8858
2234.35	0.8872
2225.56	0.8885
2216.77	0.8896
2207.99	0.8904
2199.2	0.8912
2190.41	0.892
2181.62	0.8928
2172.84	0.8934
2164.05	0.8941
2155.26	0.8948
2146.47	0.8955
2137.69	0.8961
2128.9	0.8963
2120.11	0.8964
2111.32	0.8964
2102.54	0.8965
2093.75	0.8965
2084.96	0.8962
2076.17	0.8957
2067.39	0.8952
2058.6	0.8947
2049.81	0.8942
2041.02	0.8938
2032.23	0.8935
2023.45	0.8941
2014.66	0.8949
2005.87	0.8964
1997.08	0.8982
1988.3	0.8998
1979.51	0.9009
1970.72	0.9018
1961.93	0.9028
1953.15	0.9036
1944.36	0.9044
1935.57	0.9051
1926.78	0.9055
1918	0.9058
1909.21	0.9062
1900.42	0.9065
1891.63	0.9067
1882.85	0.9068
1874.06	0.907
1865.27	0.9068
1856.48	0.9068
1847.69	0.9067
1838.91	0.9068
1830.12	0.9063
1821.33	0.9032
1812.54	0.9005
1803.76	0.9005
1794.97	0.9007
1786.18	0.8971
1777.39	0.8991
1768.61	0.9052
1759.82	0.9038
1751.03	0.8986
1742.24	0.9009
1733.46	0.9049
1724.67	0.8984
1715.88	0.8861
1707.09	0.8592
1698.31	0.7794
1689.52	0.5982
1680.73	0.2976
1671.94	0.2047
1663.16	0.1021
1654.37	0.2699
1645.58	0.5151
1636.79	0.7032
1628	0.7286
1619.22	0.6868
1610.43	0.5615
1601.64	0.7215
1592.85	0.7989
1584.07	0.8065
1575.28	0.8054
1566.49	0.7912
1557.7	0.7395
1548.92	0.5643
1540.13	0.2711
1531.34	0.2256
1522.55	0.3652
1513.77	0.5047
1504.98	0.5594
1496.19	0.5854
1487.4	0.4737
1478.62	0.4359
1469.83	0.3923
1461.04	0.3823
1452.25	0.4009
1443.46	0.4172
1434.68	0.4862
1425.89	0.6132
1417.1	0.6523
1408.31	0.6663
1399.53	0.6475
1390.74	0.5864
1381.95	0.4884
1373.16	0.4107
1364.38	0.586
1355.59	0.7172
1346.8	0.7548
1338.01	0.7873
1329.23	0.7998
1320.44	0.7967
1311.65	0.7174
1302.86	0.6821
1294.08	0.5673
1285.29	0.3753
1276.5	0.5702
1267.71	0.7481
1258.93	0.7688
1250.14	0.8596
1241.35	0.8859
1232.56	0.8887
1223.77	0.8721
1214.99	0.7952
1206.2	0.8546
1197.41	0.8806
1188.62	0.9061
1179.84	0.9159
1171.05	0.9184
1162.26	0.916
1153.47	0.8881
1144.69	0.8954
1135.9	0.9223
1127.11	0.9285
1118.32	0.9293
1109.54	0.9289
1100.75	0.9278
1091.96	0.9271
1083.17	0.9256
1074.39	0.9225
1065.6	0.9187
1056.81	0.912
1048.02	0.8933
1039.24	0.7822
1030.45	0.8618
1021.66	0.8678
1012.87	0.7925
1004.08	0.8293
995.297	0.887
986.509	0.8966
977.722	0.8343
968.934	0.8437
960.147	0.9003
951.359	0.9253
942.571	0.929
933.784	0.9277
924.996	0.9058
916.209	0.9266
907.421	0.8792
898.633	0.9342
889.846	0.9418
881.058	0.9429
872.271	0.938
863.483	0.8928
854.695	0.495
845.908	0.9052
837.12	0.9084
828.333	0.923
819.545	0.9489
810.757	0.9493
801.97	0.9517
793.182	0.9517
784.395	0.9426
775.607	0.9457
766.819	0.9414
758.032	0.9301
749.244	0.906
740.456	0.7995
731.669	0.8402
722.881	0.7668
714.094	0.7972
705.306	0.8554
696.518	0.9017
687.731	0.9283
678.943	0.9497
670.156	0.96
661.368	0.9648
652.58	0.9392
643.793	0.8982
635.005	0.8695
