Infrared Spectrum: Imidazole, 4-amino-1-methyl-5-(phenylmercapto)-, hydrochloride
Formula: C10 H12 Cl N3 S
CAS: 110438-43-2
State: SOLID (0.8 mg / 650 mg KBr DISC)
Class: COBLENTZ III
Instrument: PERKIN-ELMER 21 (GRATING)
Instrument parameters: FILTER CHANGE ABOUT 1075 CM^-^1
Sampling: TRANSMISSION
Resolution: 2
Origin: SOUTHERN RESEARCH INSTITUTE
1/CM	TRANSMITTANCE
622.487	0.9921
631.52	0.9943
640.554	0.9843
649.587	0.9691
658.62	0.9438
667.654	0.9207
676.687	0.7574
685.72	0.6308
694.754	0.7317
703.787	0.8904
712.82	0.8686
721.854	0.8413
730.887	0.6432
739.921	0.393
748.954	0.6665
757.987	0.7864
767.021	0.7664
776.054	0.7323
785.087	0.7257
794.121	0.7359
803.154	0.76
812.187	0.7938
821.221	0.8394
830.254	0.8777
839.287	0.9019
848.321	0.9172
857.354	0.9273
866.387	0.9325
875.421	0.9335
884.454	0.9317
893.487	0.9283
902.521	0.9316
911.554	0.9381
920.587	0.9363
929.621	0.9302
938.654	0.9222
947.688	0.9155
956.721	0.9104
965.754	0.9055
974.788	0.889
983.821	0.8612
992.854	0.8153
1001.89	0.8028
1010.92	0.7668
1019.95	0.7775
1028.99	0.8564
1038.02	0.841
1047.05	0.8232
1056.09	0.7665
1065.12	0.679
1074.15	0.7155
1083.19	0.7798
1092.22	0.7764
1101.25	0.7598
1110.29	0.7358
1119.32	0.7341
1128.35	0.7496
1137.39	0.8161
1146.42	0.847
1155.45	0.8608
1164.49	0.8686
1173.52	0.8658
1182.55	0.8624
1191.59	0.8435
1200.62	0.8438
1209.65	0.8588
1218.69	0.866
1227.72	0.8609
1236.75	0.8474
1245.79	0.8229
1254.82	0.7637
1263.85	0.7211
1272.89	0.7126
1281.92	0.7625
1290.95	0.7901
1299.99	0.7775
1309.02	0.8163
1318.05	0.8599
1327.09	0.8752
1336.12	0.8821
1345.15	0.8772
1354.19	0.869
1363.22	0.8547
1372.25	0.8325
1381.29	0.8007
1390.32	0.759
1399.35	0.7277
1408.39	0.7228
1417.42	0.7028
1426.45	0.6623
1435.49	0.4376
1444.52	0.5681
1453.56	0.7676
1462.59	0.7625
1471.62	0.6374
1480.66	0.7195
1489.69	0.833
1498.72	0.8241
1507.76	0.8026
1516.79	0.7862
1525.82	0.7728
1534.86	0.7252
1543.89	0.7093
1552.92	0.5642
1561.96	0.5484
1570.99	0.557
1580.02	0.6005
1589.06	0.5664
1598.09	0.4344
1607.12	0.2852
1616.16	0.161
1625.19	0.1838
1634.22	0.3277
1643.26	0.6509
1652.29	0.7393
1661.32	0.7917
1670.36	0.8278
1679.39	0.852
1688.42	0.8637
1697.46	0.8717
1706.49	0.88
1715.52	0.8836
1724.56	0.8922
1733.59	0.9062
1742.62	0.921
1751.66	0.9256
1760.69	0.9251
1769.72	0.9252
1778.76	0.9268
1787.79	0.9289
1796.82	0.9325
1805.86	0.9321
1814.89	0.9301
1823.92	0.9272
1832.96	0.9247
1841.99	0.923
1851.02	0.9214
1860.06	0.9206
1869.09	0.9224
1878.12	0.9233
1887.16	0.9239
1896.19	0.923
1905.22	0.9216
1914.26	0.9198
1923.29	0.9162
1932.32	0.9125
1941.36	0.9105
1950.39	0.9112
1959.42	0.9123
1968.46	0.9136
1977.49	0.9144
1986.52	0.9141
1995.56	0.9124
2004.59	0.9113
2013.62	0.9098
2022.66	0.9074
2031.69	0.9049
2040.72	0.9021
2049.76	0.8988
2058.79	0.8969
2067.82	0.8951
2076.86	0.8934
2085.89	0.8917
2094.92	0.8897
2103.96	0.8875
2112.99	0.8858
2122.02	0.8844
2131.06	0.8833
2140.09	0.8826
2149.12	0.8823
2158.16	0.8817
2167.19	0.88
2176.22	0.8782
2185.26	0.876
2194.29	0.8741
2203.32	0.8727
2212.36	0.8705
2221.39	0.8677
2230.42	0.8649
2239.46	0.862
2248.49	0.8589
2257.52	0.8556
2266.56	0.8524
2275.59	0.8493
2284.62	0.8463
2293.66	0.8422
2302.69	0.8365
2311.72	0.8344
2320.76	0.834
2329.79	0.8332
2338.82	0.8316
2347.86	0.8302
2356.89	0.8287
2365.92	0.8271
2374.96	0.8246
2383.99	0.8219
2393.02	0.8166
2402.06	0.8098
2411.09	0.8035
2420.12	0.7976
2429.16	0.7916
2438.19	0.7854
2447.22	0.7784
2456.26	0.7717
2465.29	0.7653
2474.32	0.7572
2483.36	0.7503
2492.39	0.7418
2501.42	0.7341
2510.46	0.7274
2519.49	0.7219
2528.52	0.7174
2537.56	0.7133
2546.59	0.7109
2555.62	0.7096
2564.66	0.7086
2573.69	0.7042
2582.72	0.6974
2591.76	0.6898
2600.79	0.6777
2609.82	0.6652
2618.86	0.6562
2627.89	0.6489
2636.92	0.6416
2645.96	0.6344
2654.99	0.627
2664.02	0.6193
2673.06	0.6133
2682.09	0.6076
2691.12	0.6027
2700.16	0.598
2709.19	0.5943
2718.22	0.5894
2727.26	0.577
2736.29	0.5703
2745.32	0.5632
2754.36	0.5601
2763.39	0.5596
2772.42	0.5596
2781.46	0.5583
2790.49	0.5576
2799.52	0.5535
2808.56	0.5458
2817.59	0.5364
2826.62	0.5268
2835.66	0.518
2844.69	0.5104
2853.72	0.5036
2862.76	0.4963
2871.79	0.4886
2880.82	0.4779
2889.86	0.4664
2898.89	0.4586
2907.92	0.453
2916.96	0.4478
2925.99	0.4427
2935.02	0.4376
2944.06	0.4306
2953.09	0.4235
2962.12	0.415
2971.16	0.406
2980.19	0.3973
2989.22	0.3889
2998.26	0.3803
3007.29	0.3731
3016.32	0.367
3025.36	0.3616
3034.39	0.3572
3043.42	0.3546
3052.46	0.3512
3061.49	0.3454
3070.52	0.3339
3079.56	0.3158
3088.59	0.2986
3097.62	0.2933
3106.66	0.2985
3115.69	0.3098
3124.72	0.3588
3133.76	0.4004
3142.79	0.426
3151.82	0.4336
3160.86	0.4335
3169.89	0.4296
3178.92	0.4209
3187.96	0.4112
3196.99	0.4017
3206.02	0.3948
3215.06	0.3962
3224.09	0.4066
3233.12	0.423
3242.16	0.4417
3251.19	0.4606
3260.22	0.4765
3269.26	0.4865
3278.29	0.5029
3287.32	0.5208
3296.36	0.5348
3305.39	0.5499
3314.42	0.5681
3323.46	0.5869
3332.49	0.605
3341.52	0.6214
3350.56	0.6356
3359.59	0.6478
3368.62	0.6607
3377.66	0.6729
3386.69	0.6831
3395.72	0.6933
3404.76	0.7039
3413.79	0.7142
3422.82	0.7231
3431.86	0.7295
3440.89	0.7319
3449.92	0.7476
3458.96	0.7567
3467.99	0.7612
3477.03	0.7648
3486.06	0.7678
3495.09	0.7714
3504.13	0.7747
3513.16	0.7782
3522.19	0.7814
3531.23	0.7864
3540.26	0.7923
3549.29	0.7983
3558.33	0.8015
3567.36	0.807
3576.39	0.8141
3585.43	0.8145
3594.46	0.8143
3603.49	0.8138
3612.53	0.8133
3621.56	0.8134
3630.59	0.8119
3639.63	0.8093
3648.66	0.8104
3657.69	0.8112
3666.73	0.811
3675.76	0.8105
3684.79	0.8103
3693.83	0.8079
3702.86	0.8045
3711.89	0.8031
3720.93	0.8026
3729.96	0.8018
3738.99	0.8011
3748.03	0.8002
3757.06	0.7993
3766.09	0.7977
3775.13	0.7952
3784.16	0.7941
3793.19	0.7934
3802.23	0.7934
3811.26	0.7934
3820.29	0.7935
3829.33	0.7937
3838.36	0.7938
3847.39	0.7938
3856.43	0.7936
3865.46	0.7933
3874.49	0.794
3883.53	0.7931
3892.56	0.7882
3901.59	0.7838
3910.63	0.7817
3919.66	0.781
3928.69	0.7812
3937.73	0.7811
3946.76	0.7805
3955.79	0.7793
3964.83	0.7771
3973.86	0.7783
3982.89	0.7781
3991.93	0.7781
4000.96	0.7782
4009.99	0.7784
