Infrared Spectrum: N-(N-PROPYL)-DODECANAMIDE
Formula: C15 H31 N O
CAS: 110790-31-3
State: SOLID (MULL IN COCONITRILE OIL)
Class: COBLENTZ
Instrument: PERKIN-ELMER
Sampling: TRANSMISSION
Resolution: 4
1/CM	TRANSMITTANCE
463.91	0.63
472.933	0.63
481.955	0.632
490.978	0.633
500	0.633
509.023	0.633
518.045	0.632
527.068	0.632
536.091	0.652
545.113	0.722
554.136	0.844
563.158	0.87
572.181	0.875
581.203	0.877
590.226	0.863
599.248	0.863
608.271	0.894
617.294	0.914
626.316	0.918
635.339	0.913
644.361	0.906
653.384	0.896
662.406	0.885
671.429	0.848
680.452	0.752
689.474	0.64
698.497	0.7919
707.519	0.816
716.542	0.7291
725.564	0.632
734.587	0.642
743.61	0.652
752.632	0.7129
761.655	0.744
770.677	0.705
779.7	0.686
788.722	0.7949
797.745	0.821
806.768	0.819
815.79	0.834
824.813	0.87
833.835	0.89
842.858	0.889
851.88	0.89
860.903	0.889
869.925	0.851
878.948	0.868
887.971	0.858
896.993	0.89
906.016	0.896
915.038	0.889
924.061	0.89
933.083	0.889
942.106	0.875
951.129	0.822
960.151	0.853
969.174	0.841
978.196	0.817
987.219	0.843
996.241	0.879
1005.26	0.885
1014.29	0.88
1023.31	0.867
1032.33	0.872
1041.35	0.873
1050.38	0.865
1059.4	0.86
1068.42	0.816
1077.44	0.85
1086.47	0.858
1095.49	0.868
1104.51	0.839
1113.53	0.764
1122.56	0.751
1131.58	0.831
1140.6	0.821
1149.63	0.783
1158.65	0.708
1167.67	0.838
1176.69	0.793
1185.72	0.778
1194.74	0.838
1203.76	0.819
1212.78	0.783
1221.81	0.679
1230.83	0.683
1239.85	0.73
1248.87	0.724
1257.9	0.744
1266.92	0.693
1275.94	0.65
1284.96	0.594
1293.99	0.616
1303.01	0.642
1312.03	0.698
1321.05	0.766
1330.08	0.737
1339.1	0.725
1348.12	0.674
1357.14	0.657
1366.17	0.543
1375.19	0.536
1384.21	0.6279
1393.23	0.649
1402.26	0.62
1411.28	0.606
1420.3	0.579
1429.32	0.4241
1438.35	0.333
1447.37	0.466
1456.39	0.364
1465.41	0.349
1474.44	0.5569
1483.46	0.64
1492.48	0.638
1501.51	0.621
1510.53	0.587
1519.55	0.533
1528.57	0.439
1537.6	0.258
1546.62	0.114
1555.64	0.163
1564.66	0.3809
1573.69	0.57
1582.71	0.628
1591.73	0.621
1600.75	0.5401
1609.78	0.473
1618.8	0.335
1627.82	0.069
1636.84	0.037
1645.87	0.1069
1654.89	0.3269
1663.91	0.48
1672.93	0.592
1681.96	0.724
1690.98	0.817
1700	0.846
1709.02	0.862
1718.05	0.868
1727.07	0.873
1736.09	0.88
1745.11	0.89
1754.14	0.897
1763.16	0.902
1772.18	0.906
1781.2	0.909
1790.23	0.908
1799.25	0.913
1808.27	0.911
1817.29	0.911
1826.32	0.911
1835.34	0.909
1844.36	0.909
1853.39	0.909
1862.41	0.909
1871.43	0.909
1880.45	0.909
1889.48	0.909
1898.5	0.909
1907.52	0.909
1916.54	0.909
1925.57	0.908
1934.59	0.908
1943.61	0.908
1952.63	0.908
1961.66	0.906
1970.68	0.904
1979.7	0.904
1988.72	0.902
1997.75	0.901
2006.77	0.901
2015.79	0.901
2024.81	0.899
2033.84	0.899
2042.86	0.899
2051.88	0.897
2060.9	0.897
2069.93	0.896
2078.95	0.896
2087.97	0.894
2096.99	0.894
2106.02	0.894
2115.04	0.894
2124.06	0.894
2133.08	0.892
2142.11	0.892
2151.13	0.892
2160.15	0.892
2169.18	0.892
2178.2	0.892
2187.22	0.892
2196.24	0.892
2205.27	0.892
2214.29	0.892
2223.31	0.892
2232.33	0.892
2241.36	0.892
2250.38	0.892
2259.4	0.89
2268.42	0.89
2277.45	0.8897
2286.47	0.889
2295.49	0.889
2304.51	0.889
2313.54	0.889
2322.56	0.889
2331.58	0.889
2340.6	0.889
2349.63	0.889
2358.65	0.889
2367.67	0.889
2376.69	0.889
2385.72	0.889
2394.74	0.889
2403.76	0.887
2412.78	0.887
2421.81	0.887
2430.83	0.8855
2439.85	0.8841
2448.87	0.8838
2457.9	0.8814
2466.92	0.88
2475.94	0.879
2484.96	0.877
2493.99	0.875
2503.01	0.873
2512.03	0.872
2521.06	0.87
2530.08	0.8682
2539.1	0.865
2548.12	0.8627
2557.15	0.86
2566.17	0.86
2575.19	0.858
2584.21	0.853
2593.24	0.851
2602.26	0.847
2611.28	0.8416
2620.3	0.8392
2629.33	0.8378
2638.35	0.8354
2647.37	0.834
2656.39	0.8333
2665.42	0.833
2674.44	0.833
2683.46	0.8324
2692.48	0.83
2701.51	0.8263
2710.53	0.8144
2719.55	0.809
2728.57	0.807
2737.6	0.807
2746.62	0.8027
2755.64	0.7933
2764.66	0.7828
2773.69	0.7737
2782.71	0.7519
2791.73	0.7273
2800.75	0.7042
2809.78	0.6754
2818.8	0.6315
2827.82	0.5481
2836.84	0.3669
2845.87	0.1197
2854.89	0.1716
2863.91	0.2535
2872.94	0.2724
2881.96	0.2615
2890.98	0.1721
2900	0.0977
2909.03	0.0835
2918.05	0.1028
2927.07	0.1259
2936.09	0.1497
2945.12	0.158
2954.14	0.1858
2963.16	0.3474
2972.18	0.5474
2981.21	0.6634
2990.23	0.7202
2999.25	0.7456
3008.27	0.756
3017.3	0.759
3026.32	0.759
3035.34	0.758
3044.36	0.7505
3053.39	0.734
3062.41	0.684
3071.43	0.6174
3080.45	0.562
3089.48	0.586
3098.5	0.6478
3107.52	0.7134
3116.54	0.7446
3125.57	0.759
3134.59	0.766
3143.61	0.7652
3152.63	0.7592
3161.66	0.7462
3170.68	0.729
3179.7	0.6919
3188.73	0.6472
3197.75	0.6346
3206.77	0.6284
3215.79	0.62
3224.82	0.5959
3233.84	0.5682
3242.86	0.513
3251.88	0.4495
3260.91	0.3427
3269.93	0.2246
3278.95	0.1265
3287.97	0.0552
3297	0.0513
3306.02	0.1115
3315.04	0.2066
3324.06	0.3706
3333.09	0.5057
3342.11	0.6048
3351.13	0.6664
3360.15	0.7266
3369.18	0.7628
3378.2	0.7817
3387.22	0.7965
3396.24	0.8118
3405.27	0.8281
3414.29	0.8441
3423.31	0.8549
3432.33	0.863
3441.36	0.868
3450.38	0.87
3459.4	0.87
3468.42	0.87
3477.45	0.87
3486.47	0.87
3495.49	0.87
3504.51	0.87
3513.54	0.87
3522.56	0.87
3531.58	0.8671
3540.61	0.867
3549.63	0.8657
3558.65	0.867
3567.67	0.865
3576.7	0.8621
3585.72	0.86
3594.74	0.86
3603.76	0.858
3612.79	0.856
3621.81	0.8598
3630.83	0.86
3639.85	0.86
3648.88	0.86
3657.9	0.858
3666.92	0.858
3675.94	0.858
3684.97	0.858
3693.99	0.858
3703.01	0.86
3712.03	0.86
3721.06	0.86
3730.08	0.86
3739.1	0.86
3748.12	0.86
3757.15	0.858
3766.17	0.8559
3775.19	0.855
3784.21	0.854
3793.24	0.851
3802.26	0.851
3811.28	0.8509
3820.3	0.85
3829.33	0.85
3838.35	0.85
3847.37	0.8501
3856.39	0.85
3865.42	0.85
3874.44	0.85
3883.46	0.848
3892.49	0.848
3901.51	0.846
3910.53	0.846
3919.55	0.844
3928.58	0.844
3937.6	0.844
3946.62	0.843
3955.64	0.843
3964.67	0.843
3973.69	0.8417
3982.71	0.841
