Infrared Spectrum: SULFIDE, n-PROPYL-
Formula: C6 H14 S
CAS: 111-47-7
State: SOLUTION (10% CCl4 FOR 2-7.6, 10% CS2 FOR 7.5-16 CM^-^1)
Class: COBLENTZ III
Instrument: BAIRD (GRATING)
Instrument parameters: NaCl PRISM
Sampling: TRANSMISSION
Path length: 0.021 CM, 0.011 CM
Resolution: 2
Origin: DOW CHEMICAL COMPANY
1/CM	TRANSMITTANCE
4000	0.8815
3991	0.8827
3982	0.8853
3973	0.8887
3964	0.8923
3955	0.8964
3946	0.8997
3937	0.9006
3928	0.9005
3919	0.9003
3910	0.9
3901	0.8995
3892	0.8989
3883	0.8984
3874	0.8978
3865	0.8975
3856	0.8974
3847	0.8974
3838	0.8971
3829	0.8971
3820	0.8971
3811	0.897
3802	0.8968
3793	0.8968
3784	0.8967
3775	0.8966
3766	0.8965
3757	0.8965
3748	0.8964
3739	0.8964
3730	0.8964
3721	0.8964
3712	0.8963
3703	0.8963
3694	0.8963
3685	0.8962
3676	0.8962
3667	0.8962
3658	0.8961
3649	0.8961
3640	0.8961
3631	0.896
3622	0.896
3613	0.896
3604	0.8959
3595	0.8958
3586	0.8957
3577	0.8956
3568	0.8955
3559	0.8954
3550	0.8953
3541	0.8952
3532	0.8951
3523	0.895
3514	0.8949
3505	0.8937
3496	0.8921
3487	0.8901
3478	0.8865
3469	0.8825
3460	0.8785
3451	0.8731
3442	0.8714
3433	0.8715
3424	0.8716
3415	0.8717
3406	0.8717
3397	0.8718
3388	0.8725
3379	0.8732
3370	0.8738
3361	0.8745
3352	0.8753
3343	0.8759
3334	0.8765
3325	0.8771
3316	0.8777
3307	0.8783
3298	0.8781
3289	0.8778
3280	0.8764
3271	0.8748
3262	0.873
3253	0.8712
3244	0.8694
3235	0.8675
3226	0.8658
3217	0.8644
3208	0.8635
3199	0.8631
3190	0.8633
3181	0.8646
3172	0.8667
3163	0.8683
3154	0.8697
3145	0.8705
3136	0.8711
3127	0.8706
3118	0.8684
3109	0.8655
3100	0.8614
3091	0.8571
3082	0.8505
3073	0.8432
3064	0.8302
3055	0.8147
3046	0.8011
3037	0.7865
3028	0.7422
3019	0.6749
3010	0.6506
3001	0.5679
2992	0.5283
2983	0.4705
2974	0.362
2965	0.2529
2956	0.143
2947	0.0553
2938	0.0618
2929	0.0755
2920	0.092
2911	0.1291
2902	0.2469
2893	0.2684
2884	0.2891
2875	0.3131
2866	0.3562
2857	0.4215
2848	0.4872
2839	0.5608
2830	0.6868
2821	0.7647
2812	0.8051
2803	0.828
2794	0.8475
2785	0.868
2776	0.8809
2767	0.8838
2758	0.8843
2749	0.8845
2740	0.8848
2731	0.8889
2722	0.8975
2713	0.902
2704	0.9024
2695	0.9011
2686	0.8975
2677	0.8945
2668	0.8953
2659	0.8998
2650	0.9052
2641	0.9115
2632	0.9174
2623	0.9195
2614	0.9198
2605	0.9209
2596	0.9231
2587	0.9296
2578	0.9324
2569	0.9325
2560	0.9324
2551	0.9324
2542	0.9323
2533	0.9323
2524	0.9324
2515	0.9324
2506	0.934
2497	0.9374
2488	0.9392
2479	0.9399
2470	0.9401
2461	0.9403
2452	0.9398
2443	0.939
2434	0.9381
2425	0.9381
2416	0.9408
2407	0.9517
2398	0.9568
2389	0.9587
2380	0.9567
2371	0.9524
2362	0.947
2353	0.9411
2344	0.9346
2335	0.9289
2326	0.9241
2317	0.9209
2308	0.9197
2299	0.9198
2290	0.9214
2281	0.9278
2272	0.9378
2263	0.9415
2254	0.9421
2245	0.9423
2236	0.9425
2227	0.9456
2218	0.9475
2209	0.948
2200	0.9486
2191	0.9485
2182	0.9484
2173	0.9482
2164	0.948
2155	0.9478
2146	0.9475
2137	0.9473
2128	0.947
2119	0.9467
2110	0.9465
2101	0.9463
2092	0.9471
2083	0.9483
2074	0.9487
2065	0.9489
2056	0.9487
2047	0.9481
2038	0.9475
2029	0.9471
2020	0.9468
2011	0.9468
2002	0.9471
1993	0.9475
1984	0.948
1975	0.9483
1966	0.9489
1957	0.9495
1948	0.9503
1939	0.9518
1930	0.9535
1921	0.9546
1912	0.9548
1903	0.9545
1894	0.9531
1885	0.9517
1876	0.9513
1867	0.9508
1858	0.9508
1849	0.9517
1840	0.9525
1831	0.9533
1822	0.9539
1813	0.9552
1804	0.9571
1795	0.9577
1786	0.9577
1777	0.9567
1768	0.9554
1759	0.9534
1750	0.951
1741	0.9487
1732	0.9461
1723	0.942
1714	0.9382
1705	0.9333
1696	0.9181
1687	0.9128
1678	0.9125
1669	0.9104
1660	0.9008
1651	0.8925
1642	0.893
1633	0.8934
1624	0.8793
1615	0.8227
1606	0.7724
1597	0.7112
1588	0.6701
1579	0.6507
1570	0.6133
1561	0.5412
1552	0.5009
1543	0.5321
1534	0.6228
1525	0.6611
1516	0.7025
1507	0.7448
1498	0.7771
1489	0.7746
1480	0.6899
1471	0.4078
1462	0.274
1453	0.3787
1444	0.551
1435	0.6086
1426	0.6582
1417	0.7272
1408	0.8136
1399	0.8238
1390	0.7383
1381	0.5276
1372	0.8384
1363	0.8692
1354	0.8717
1345	0.7842
1336	0.7999
1327	0.8486
1318	0.8078
1309	0.7518
1300	0.6417
1291	0.539
1282	0.6993
1273	0.8134
1264	0.8148
1255	0.7704
1246	0.6372
1237	0.4565
1228	0.5027
1219	0.7683
1210	0.8106
1201	0.8434
1192	0.8775
1183	0.8964
1174	0.9028
1165	0.9109
1156	0.9127
1147	0.9168
1138	0.9118
1129	0.9054
1120	0.8951
1111	0.8725
1102	0.7951
1093	0.7497
1084	0.7688
1075	0.8081
1066	0.8285
1057	0.8182
1048	0.804
1039	0.8121
1030	0.8482
1021	0.8905
1012	0.9005
1003	0.9098
994	0.9228
985	0.9244
976	0.9374
967	0.9418
958	0.9433
949	0.942
940	0.9387
931	0.932
922	0.9095
913	0.8878
904	0.8433
895	0.6791
886	0.7135
877	0.7656
868	0.761
859	0.7115
850	0.689
841	0.7533
832	0.8015
823	0.8266
814	0.8368
805	0.837
796	0.7851
787	0.7208
778	0.7106
769	0.794
760	0.7997
751	0.7771
742	0.6919
733	0.6746
724	0.6835
715	0.6778
706	0.6846
697	0.6895
688	0.666
679	0.6227
670	0.5873
661	0.543
652	0.4924
643	0.4655
634	0.4558
