Infrared Spectrum: Bis(2-methoxyethyl)ether
Formula: C 6 H 14 O 3
CAS: 111-96-6
State: gas
Origin: EPA-IR VAPOR PHASE LIBRARY
1/CM	ABSORBANCE
501.5	0.004644
513.074	0.005734
524.648	0.006574
536.222	0.006634
547.796	0.006264
559.37	0.005154
570.944	0.003814
582.518	0.002304
594.092	0.001544
605.666	0.001015
617.24	0.0006177
628.814	0.00035645
640.388	0.000104
651.962	6e-05
663.536	0.000166
675.11	0.000136
686.684	0.000203
698.258	0.000223
709.832	0.0002654
721.406	0.00040587
732.98	0.000552
744.554	0.0007132
756.128	0.0010564
767.702	0.001464
779.276	0.002254
790.85	0.003534
802.423	0.005414
813.997	0.008464
825.571	0.013084
837.145	0.019044
848.719	0.024694
860.293	0.025814
871.867	0.022064
883.441	0.017644
895.015	0.015614
906.589	0.018134
918.163	0.025104
929.737	0.032084
941.311	0.032864
952.885	0.030274
964.459	0.029814
976.033	0.030154
987.607	0.030724
999.181	0.031794
1010.76	0.035894
1022.33	0.045094
1033.9	0.049354
1045.48	0.046534
1057.05	0.050464
1068.63	0.067364
1080.2	0.102634
1091.77	0.160794
1103.35	0.243514
1114.92	0.337854
1126.49	0.362044
1138.07	0.294714
1149.64	0.213734
1161.22	0.147334
1172.79	0.103284
1184.36	0.089544
1195.94	0.095804
1207.51	0.081534
1219.09	0.050674
1230.66	0.037894
1242.23	0.036954
1253.81	0.036624
1265.38	0.033364
1276.96	0.032474
1288.53	0.033484
1300.1	0.030964
1311.68	0.025394
1323.25	0.024424
1334.83	0.026284
1346.4	0.033754
1357.97	0.038534
1369.55	0.027674
1381.12	0.018974
1392.7	0.014914
1404.27	0.012364
1415.84	0.011334
1427.42	0.013184
1438.99	0.020934
1450.57	0.035584
1462.14	0.043124
1473.71	0.032754
1485.29	0.020144
1496.86	0.011984
1508.44	0.007734
1520.01	0.005874
1531.58	0.004874
1543.16	0.004164
1554.73	0.003664
1566.31	0.003304
1577.88	0.002984
1589.45	0.002724
1601.03	0.002554
1612.6	0.002304
1624.18	0.002184
1635.75	0.002014
1647.32	0.001884
1658.9	0.001794
1670.47	0.001674
1682.05	0.001584
1693.62	0.001494
1705.19	0.001374
1716.77	0.0011976
1728.34	0.0010953
1739.92	0.0009998
1751.49	0.000936
1763.06	0.0008437
1774.64	0.0007795
1786.21	0.0007175
1797.79	0.0007071
1809.36	0.0006902
1820.93	0.0007342
1832.51	0.0007554
1844.08	0.0008
1855.66	0.0008725
1867.23	0.0009938
1878.8	0.0011607
1890.38	0.001374
1901.95	0.001744
1913.53	0.002254
1925.1	0.002884
1936.67	0.003544
1948.25	0.004214
1959.82	0.004704
1971.4	0.004994
1982.97	0.005134
1994.54	0.005124
2006.12	0.004984
2017.69	0.004754
2029.27	0.004504
2040.84	0.004374
2052.41	0.004304
2063.99	0.004284
2075.56	0.004344
2087.14	0.004404
2098.71	0.004224
2110.28	0.003864
2121.86	0.003694
2133.43	0.003624
2145.01	0.003394
2156.58	0.003014
2168.15	0.002594
2179.73	0.002244
2191.3	0.002024
2202.88	0.001864
2214.45	0.001804
2226.02	0.001864
2237.6	0.001894
2249.17	0.001984
2260.74	0.001944
2272.32	0.001794
2283.89	0.001654
2295.47	0.001564
2307.04	0.001454
2318.61	0.001394
2330.19	0.001364
2341.76	0.0013115
2353.34	0.0012609
2364.91	0.0012222
2376.48	0.001374
2388.06	0.001524
2399.63	0.001604
2411.21	0.001534
2422.78	0.001364
2434.35	0.0012813
2445.93	0.0012434
2457.5	0.0012412
2469.08	0.0012806
2480.65	0.0013143
2492.22	0.001364
2503.8	0.001434
2515.37	0.001544
2526.95	0.001664
2538.52	0.001754
2550.09	0.001954
2561.67	0.002194
2573.24	0.002544
2584.82	0.003014
2596.39	0.003514
2607.96	0.003714
2619.54	0.003734
2631.11	0.003794
2642.69	0.004024
2654.26	0.004354
2665.83	0.004864
2677.41	0.005864
2688.98	0.007424
2700.56	0.009864
2712.13	0.012734
2723.7	0.014614
2735.28	0.015114
2746.85	0.015904
2758.43	0.017874
2770	0.021554
2781.57	0.027644
2793.15	0.038224
2804.72	0.057564
2816.3	0.092324
2827.87	0.124454
2839.44	0.129654
2851.02	0.142814
2862.59	0.170554
2874.17	0.198734
2885.74	0.210464
2897.31	0.203384
2908.89	0.193564
2920.46	0.190384
2932.04	0.190294
2943.61	0.170044
2955.18	0.136744
2966.76	0.108294
2978.33	0.092694
2989.91	0.090834
3001.48	0.065644
3013.05	0.035294
3024.63	0.021954
3036.2	0.016184
3047.78	0.013074
3059.35	0.011004
3070.92	0.009344
3082.5	0.007884
3094.07	0.006514
3105.65	0.005384
3117.22	0.004324
3128.79	0.003574
3140.37	0.002984
3151.94	0.002514
3163.52	0.002224
3175.09	0.001984
3186.66	0.001754
3198.24	0.001534
3209.81	0.001374
3221.39	0.0011916
3232.96	0.0010849
3244.53	0.0009793
3256.11	0.0008825
3267.68	0.0008522
3279.26	0.0007385
3290.83	0.0006714
3302.4	0.0006612
3313.98	0.0006522
3325.55	0.0006115
3337.13	0.0005774
3348.7	0.0005479
3360.27	0.0005485
3371.85	0.0005031
3383.42	0.0004444
3395	0.0004773
3406.57	0.0005227
3418.14	0.0004988
3429.72	0.0004889
3441.29	0.0004741
3452.86	0.0005166
3464.44	0.00035471
3476.01	0.00035452
3487.59	0.0002892
3499.16	0.0003001
3510.73	0.000209
3522.31	0.000226
3533.88	0.0002528
3545.46	0.000158
3557.03	0.000254
3568.6	0.000201
3580.18	0.000237
3591.75	0.000178
3603.33	0.0002477
3614.9	0.0002731
3626.47	0.0002416
3638.05	0.0002739
3649.62	0.0002897
3661.2	0.00036821
3672.77	0.0004744
3684.34	0.000565
3695.92	0.0006081
3707.49	0.0007159
3719.07	0.0006999
3730.64	0.0007405
3742.21	0.000728
3753.79	0.0007538
3765.36	0.0007015
3776.94	0.0007646
3788.51	0.0007592
3800.08	0.0007124
3811.66	0.0008297
3823.23	0.0008374
3834.81	0.0008566
3846.38	0.0009524
3857.95	0.0010306
3869.53	0.0010704
3881.1	0.0011153
3892.68	0.0012043
3904.25	0.001354
3915.82	0.001574
3927.4	0.001784
3938.97	0.001924
3950.55	0.002094
3962.12	0.002244
3973.69	0.002404
3985.27	0.002494
3996.84	0.002564
