Infrared Spectrum: Squalane
Formula: C 30 H 62
CAS: 111-01-3
State: gas
Instrument: HP-GC/MS/IRD
Origin: NIST Mass Spectrometry Data Center
1/CM	ABSORBANCE
550	0.0003486
562	0.0002037
574	0.000168
586	0.0001029
598	0.0001428
610	0.000126
622	6.51e-05
634	0.0001218
646	3.15e-05
658	2.1e-06
670	1.89e-05
682	0.0001134
694	0.0001512
706	0.0001995
718	0.0002037
730	0.0003528
742	0.0003486
754	0.0001785
766	0.0002037
778	0.0001848
790	0.0001575
802	0.0001827
814	0.0002058
826	0.0001932
838	0.0002604
850	0.0002058
862	0.0001596
874	0.000168
886	0.0001491
898	0.0001932
910	0.0002058
922	0.0002856
934	0.0003045
946	0.0002625
958	0.0002226
970	0.0002142
982	0.0001911
994	0.0001974
1006	0.0001512
1018	0.0001848
1030	0.0001848
1042	0.0002352
1054	0.0002331
1066	0.0001659
1078	0.0001638
1090	0.0001827
1102	0.0001596
1114	0.0002247
1126	0.000315
1138	0.0004389
1150	0.0005838
1162	0.0006405
1174	0.0005985
1186	0.000462
1198	0.0004326
1210	0.0004221
1222	0.0003885
1234	0.0004158
1246	0.0004284
1258	0.0004095
1270	0.0004347
1282	0.0004893
1294	0.0004977
1306	0.000567
1318	0.0006384
1330	0.000756
1342	0.0009051
1354	0.0011571
1366	0.0015372
1378	0.002268
1390	0.0015393
1402	0.0006489
1414	0.000483
1426	0.0005376
1438	0.0008841
1450	0.0017934
1462	0.0028602
1474	0.0019257
1486	0.0007854
1498	0.0004158
1510	0.0002814
1522	0.0001995
1534	0.0001827
1546	0.0001827
1558	0.0001533
1570	0.0001323
1582	0.0001449
1594	9.66e-05
1606	9.87e-05
1618	0.0001029
1630	0.0001197
1642	0.0001302
1654	0.0001239
1666	0.000147
1678	0.0001344
1690	0.0001302
1702	0.0001386
1714	0.0001134
1726	0.0001281
1738	0.0001176
1750	8.61e-05
1762	7.77e-05
1774	0.0001029
1786	8.61e-05
1798	0.0001008
1810	8.61e-05
1822	9.45e-05
1834	7.35e-05
1846	8.61e-05
1858	7.14e-05
1870	7.14e-05
1882	7.77e-05
1894	6.3e-05
1906	6.09e-05
1918	4.83e-05
1930	5.04e-05
1942	4.2e-05
1954	5.67e-05
1966	4.41e-05
1978	5.25e-05
1990	4.2e-05
2002	4.2e-05
2014	4.62e-05
2026	5.67e-05
2038	3.57e-05
2050	5.46e-05
2062	5.25e-05
2074	3.57e-05
2086	4.62e-05
2098	3.15e-05
2110	3.78e-05
2122	3.78e-05
2134	3.15e-05
2146	4.83e-05
2158	3.57e-05
2170	4.2e-05
2182	5.04e-05
2194	3.99e-05
2206	4.41e-05
2218	3.99e-05
2230	1.89e-05
2242	2.94e-05
2254	1.68e-05
2266	3.99e-05
2278	4.2e-05
2290	4.62e-05
2302	4.2e-05
2314	3.78e-05
2326	1.68e-05
2338	3.15e-05
2350	1.89e-05
2362	1.26e-05
2374	4.2e-06
2386	3.57e-05
2398	3.99e-05
2410	1.47e-05
2422	3.78e-05
2434	5.25e-05
2446	5.46e-05
2458	2.94e-05
2470	6.3e-06
2482	3.15e-05
2494	3.57e-05
2506	2.94e-05
2518	5.46e-05
2530	7.56e-05
2542	9.03e-05
2554	9.66e-05
2566	0.0001302
2578	0.0001344
2590	0.0001638
2602	0.0001806
2614	0.0001827
2626	0.0002079
2638	0.0002184
2650	0.0002037
2662	0.0002331
2674	0.0002583
2686	0.0002919
2698	0.0002961
2710	0.0003213
2722	0.0003423
2734	0.0004221
2746	0.0003738
2758	0.000378
2770	0.0004347
2782	0.0005187
2794	0.0006468
2806	0.0008568
2818	0.0011592
2830	0.0016212
2842	0.0029925
2854	0.006573
2866	0.0077868
2878	0.0092736
2890	0.008295
2902	0.0112329
2914	0.0147819
2926	0.0191856
2938	0.0197001
2950	0.0140931
2962	0.0183267
2974	0.0102123
2986	0.0032151
2998	0.0014994
3010	0.0009681
3022	0.0007266
3034	0.0005649
3046	0.0004494
3058	0.0004179
3070	0.0003444
3082	0.0003465
3094	0.0003276
3106	0.0002688
3118	0.0002625
3130	0.0002499
3142	0.0002016
3154	0.0001848
3166	0.0002415
3178	0.0002058
3190	0.0001743
3202	0.0001449
3214	0.0001197
3226	9.66e-05
3238	6.3e-05
3250	5.04e-05
3262	7.35e-05
3274	6.72e-05
3286	9.87e-05
3298	7.77e-05
3310	6.09e-05
3322	7.77e-05
3334	0.0001029
3346	7.98e-05
3358	9.24e-05
3370	5.04e-05
3382	7.14e-05
3394	3.99e-05
3406	0
3418	6.72e-05
3430	5.67e-05
3442	6.09e-05
3454	7.35e-05
3466	3.57e-05
3478	2.1e-06
3490	4.62e-05
3502	2.1e-05
3514	8.19e-05
3526	3.36e-05
3538	8.19e-05
3550	3.99e-05
3562	0
3574	6.72e-05
3586	2.1e-05
3598	4.83e-05
3610	9.24e-05
3622	0.000105
3634	8.61e-05
3646	5.25e-05
3658	6.09e-05
3670	7.98e-05
3682	4.83e-05
3694	6.93e-05
3706	5.88e-05
3718	0.0001155
3730	2.31e-05
3742	5.25e-05
3754	3.36e-05
3766	2.1e-05
3778	4.62e-05
3790	2.52e-05
3802	7.77e-05
3814	6.72e-05
3826	7.56e-05
3838	5.25e-05
