Infrared Spectrum: 3-Ethoxy-1-propanol
Formula: C 5 H 12 O 2
CAS: 111-35-3
State: gas
Instrument: HP-GC/MS/IRD
Origin: NIST Mass Spectrometry Data Center
1/CM	ABSORBANCE
550	0.000426
562	0.000264
574	0.000279
586	0.000291
598	8.4e-05
610	0.000138
622	0.000102
634	6.3e-05
646	5.4e-05
658	6e-06
670	0.000135
682	0.00012
694	7.2e-05
706	0.000108
718	0.000126
730	0.000111
742	0.00021
754	0.000261
766	0.000483
778	0.000594
790	0.000675
802	0.000615
814	0.000591
826	0.000615
838	0.000741
850	0.00099
862	0.001212
874	0.001296
886	0.001185
898	0.001077
910	0.001296
922	0.001725
934	0.002277
946	0.002694
958	0.002844
970	0.002883
982	0.00306
994	0.003468
1006	0.004476
1018	0.006948
1030	0.009693
1042	0.010833
1054	0.011415
1066	0.012843
1078	0.014289
1090	0.016173
1102	0.020562
1114	0.027549
1126	0.029412
1138	0.020859
1150	0.011103
1162	0.007314
1174	0.00579
1186	0.004575
1198	0.003696
1210	0.003219
1222	0.002865
1234	0.002625
1246	0.002481
1258	0.002586
1270	0.00273
1282	0.002811
1294	0.002811
1306	0.002556
1318	0.002316
1330	0.002511
1342	0.003795
1354	0.005244
1366	0.005853
1378	0.006855
1390	0.006531
1402	0.004551
1414	0.003942
1426	0.003417
1438	0.002775
1450	0.002271
1462	0.002115
1474	0.002334
1486	0.001938
1498	0.001131
1510	0.000693
1522	0.000402
1534	0.00027
1546	0.000216
1558	0.000144
1570	0.000138
1582	0.00012
1594	9.9e-05
1606	0.000102
1618	8.7e-05
1630	6.9e-05
1642	5.4e-05
1654	3.6e-05
1666	3.3e-05
1678	3e-05
1690	2.7e-05
1702	3e-05
1714	9e-06
1726	2.1e-05
1738	1.5e-05
1750	9e-06
1762	6e-06
1774	9e-06
1786	9e-06
1798	3.3e-05
1810	3.3e-05
1822	5.7e-05
1834	8.4e-05
1846	7.5e-05
1858	0.000102
1870	0.000126
1882	0.000165
1894	0.000195
1906	0.00021
1918	0.000213
1930	0.000219
1942	0.000249
1954	0.000225
1966	0.000252
1978	0.000276
1990	0.000291
2002	0.000237
2014	0.000165
2026	0.000129
2038	0.000141
2050	0.000135
2062	0.000117
2074	0.000129
2086	7.2e-05
2098	7.8e-05
2110	7.2e-05
2122	9e-05
2134	7.8e-05
2146	8.7e-05
2158	9e-05
2170	4.5e-05
2182	6e-05
2194	4.5e-05
2206	3e-05
2218	7.5e-05
2230	4.8e-05
2242	6e-05
2254	3e-05
2266	3.9e-05
2278	3e-05
2290	1.2e-05
2302	2.4e-05
2314	3.3e-05
2326	3e-06
2338	9e-06
2350	1.5e-05
2362	1.5e-05
2374	2.1e-05
2386	2.4e-05
2398	5.7e-05
2410	6.6e-05
2422	7.5e-05
2434	1.2e-05
2446	3.6e-05
2458	4.8e-05
2470	6.3e-05
2482	5.4e-05
2494	6e-05
2506	3.3e-05
2518	4.5e-05
2530	7.2e-05
2542	6e-05
2554	7.2e-05
2566	0.000129
2578	0.000138
2590	0.000144
2602	0.000234
2614	0.000234
2626	0.000285
2638	0.000291
2650	0.00033
2662	0.000441
2674	0.000555
2686	0.000678
2698	0.000846
2710	0.001074
2722	0.001233
2734	0.001407
2746	0.001623
2758	0.001839
2770	0.002106
2782	0.002544
2794	0.003033
2806	0.003624
2818	0.004371
2830	0.00567
2842	0.008535
2854	0.013176
2866	0.018303
2878	0.020487
2890	0.018504
2902	0.015108
2914	0.014028
2926	0.016113
2938	0.018858
2950	0.018837
2962	0.016203
2974	0.014574
2986	0.011655
2998	0.006738
3010	0.003549
3022	0.002088
3034	0.001362
3046	0.000996
3058	0.000717
3070	0.000522
3082	0.000411
3094	0.000348
3106	0.000285
3118	0.000312
3130	0.000264
3142	0.000165
3154	0.000129
3166	0.000171
3178	0.000162
3190	0.000165
3202	0.000135
3214	9.9e-05
3226	9e-05
3238	4.8e-05
3250	6.6e-05
3262	5.1e-05
3274	6.6e-05
3286	0
3298	3e-06
3310	4.5e-05
3322	6.6e-05
3334	3e-05
3346	6.9e-05
3358	6.3e-05
3370	9.9e-05
3382	9.3e-05
3394	4.8e-05
3406	0.000117
3418	0.000147
3430	0.000183
3442	0.000222
3454	0.000243
3466	0.000243
3478	0.000288
3490	0.000222
3502	0.00024
3514	0.000303
3526	0.000204
3538	0.000297
3550	0.000366
3562	0.000549
3574	0.001305
3586	0.002949
3598	0.003246
3610	0.002367
3622	0.001425
3634	0.00102
3646	0.001173
3658	0.001863
3670	0.00222
3682	0.001737
3694	0.000825
3706	0.000459
3718	0.000336
3730	0.000312
3742	0.000249
3754	0.000225
3766	0.000237
3778	0.000159
3790	0.000186
3802	0.000189
3814	0.000201
3826	0.000162
3838	0.000201
