Infrared Spectrum: 1-Heptylamine
Formula: C 7 H 17 N
CAS: 111-68-2
State: gas
Origin: EPA-IR VAPOR PHASE LIBRARY
1/CM	ABSORBANCE
501.5	0.00168
513.074	0.00201
524.648	0.00196
536.222	0.00193
547.796	0.00197
559.37	0.00205
570.944	0.00202
582.518	0.0022
594.092	0.00247
605.666	0.00263
617.24	0.00288
628.814	0.00314
640.388	0.00355
651.962	0.00396
663.536	0.00424
675.11	0.00492
686.684	0.00556
698.258	0.00673
709.832	0.00866
721.406	0.01132
732.98	0.01456
744.554	0.01839
756.128	0.02203
767.702	0.02385
779.276	0.02248
790.85	0.01718
802.423	0.01141
813.997	0.00834
825.571	0.00678
837.145	0.00585
848.719	0.00509
860.293	0.00449
871.867	0.00404
883.441	0.00374
895.015	0.00351
906.589	0.00335
918.163	0.00317
929.737	0.00292
941.311	0.00275
952.885	0.00256
964.459	0.00255
976.033	0.00245
987.607	0.0025
999.181	0.00265
1010.76	0.00289
1022.33	0.00341
1033.9	0.00414
1045.48	0.00485
1057.05	0.00615
1068.63	0.00757
1080.2	0.00664
1091.77	0.00508
1103.35	0.00348
1114.92	0.00265
1126.49	0.00191
1138.07	0.00152
1149.64	0.00133
1161.22	0.00123
1172.79	0.00108
1184.36	0.00111
1195.94	0.00105
1207.51	0.00127
1219.09	0.00123
1230.66	0.00131
1242.23	0.00144
1253.81	0.00162
1265.38	0.00183
1276.96	0.00202
1288.53	0.0024
1300.1	0.00288
1311.68	0.003
1323.25	0.00309
1334.83	0.00381
1346.4	0.00486
1357.97	0.00555
1369.55	0.00618
1381.12	0.00726
1392.7	0.00632
1404.27	0.00408
1415.84	0.00323
1427.42	0.0038
1438.99	0.00589
1450.57	0.00899
1462.14	0.01089
1473.71	0.00925
1485.29	0.00556
1496.86	0.00326
1508.44	0.0023
1520.01	0.00193
1531.58	0.00174
1543.16	0.00171
1554.73	0.00173
1566.31	0.00189
1577.88	0.00224
1589.45	0.00298
1601.03	0.00428
1612.6	0.00641
1624.18	0.00735
1635.75	0.00537
1647.32	0.00324
1658.9	0.00203
1670.47	0.00152
1682.05	0.00117
1693.62	0.0009742
1705.19	0.0008352
1716.77	0.0007804
1728.34	0.000744
1739.92	0.0006939
1751.49	0.0007028
1763.06	0.0006719
1774.64	0.0006697
1786.21	0.0006539
1797.79	0.0006683
1809.36	0.0006676
1820.93	0.0006707
1832.51	0.0006332
1844.08	0.0006097
1855.66	0.0005646
1867.23	0.0004984
1878.8	0.0004091
1890.38	0.0003663
1901.95	0.0003252
1913.53	0.0003255
1925.1	0.0003148
1936.67	0.0002762
1948.25	0.0002639
1959.82	0.0002513
1971.4	0.0002615
1982.97	0.0002855
1994.54	0.0002874
2006.12	0.0002877
2017.69	0.0003423
2029.27	0.0003896
2040.84	0.000404
2052.41	0.0003651
2063.99	0.0003452
2075.56	0.0003156
2087.14	0.0003158
2098.71	0.0003256
2110.28	0.0003184
2121.86	0.0003147
2133.43	0.0003499
2145.01	0.0003074
2156.58	0.0003251
2168.15	0.0003245
2179.73	0.0003053
2191.3	0.0003125
2202.88	0.0003141
2214.45	0.0003356
2226.02	0.0003195
2237.6	0.0003423
2249.17	0.0003823
2260.74	0.0004126
2272.32	0.0004493
2283.89	0.0004397
2295.47	0.000416
2307.04	0.0003939
2318.61	0.0004338
2330.19	0.0004295
2341.76	0.0004346
2353.34	0.0004335
2364.91	0.0004559
2376.48	0.000453
2388.06	0.0004353
2399.63	0.0004537
2411.21	0.00042
2422.78	0.0004422
2434.35	0.0004522
2445.93	0.0004077
2457.5	0.0003897
2469.08	0.0004335
2480.65	0.0004133
2492.22	0.0004316
2503.8	0.000462
2515.37	0.0005273
2526.95	0.0005802
2538.52	0.0006711
2550.09	0.0007179
2561.67	0.0007651
2573.24	0.0008511
2584.82	0.0009385
2596.39	0.00106
2607.96	0.00112
2619.54	0.00126
2631.11	0.00139
2642.69	0.00153
2654.26	0.0018
2665.83	0.00205
2677.41	0.00224
2688.98	0.00238
2700.56	0.00243
2712.13	0.00256
2723.7	0.00281
2735.28	0.00326
2746.85	0.00361
2758.43	0.00371
2770	0.00388
2781.57	0.00433
2793.15	0.00526
2804.72	0.00668
2816.3	0.00903
2827.87	0.01344
2839.44	0.02252
2851.02	0.03893
2862.59	0.05371
2874.17	0.05402
2885.74	0.0473
2897.31	0.04596
2908.89	0.06448
2920.46	0.10281
2932.04	0.13072
2943.61	0.11131
2955.18	0.07637
2966.76	0.06143
2978.33	0.03936
2989.91	0.01829
3001.48	0.01032
3013.05	0.00707
3024.63	0.00524
3036.2	0.00413
3047.78	0.00328
3059.35	0.00272
3070.92	0.00232
3082.5	0.002
3094.07	0.00188
3105.65	0.00161
3117.22	0.0014
3128.79	0.00134
3140.37	0.00126
3151.94	0.00122
3163.52	0.00111
3175.09	0.00106
3186.66	0.0009932
3198.24	0.0008625
3209.81	0.0007862
3221.39	0.0007076
3232.96	0.0006903
3244.53	0.0005649
3256.11	0.0006011
3267.68	0.0005298
3279.26	0.0004942
3290.83	0.0005582
3302.4	0.000487
3313.98	0.0005435
3325.55	0.0006552
3337.13	0.0009204
3348.7	0.00103
3360.27	0.0008143
3371.85	0.0006757
3383.42	0.0005839
3395	0.0005617
3406.57	0.0006891
3418.14	0.0005363
3429.72	0.000453
3441.29	0.0004241
3452.86	0.0004192
3464.44	0.0003493
3476.01	0.0003904
3487.59	0.0003818
3499.16	0.0003774
3510.73	0.0003238
3522.31	0.0003547
3533.88	0.0003701
3545.46	0.000354
3557.03	0.0003441
3568.6	0.0004311
3580.18	0.000397
3591.75	0.0004442
3603.33	0.0004266
3614.9	0.0004883
3626.47	0.0005153
3638.05	0.0005054
3649.62	0.0005142
3661.2	0.0005527
3672.77	0.0005154
3684.34	0.0004757
3695.92	0.0004657
3707.49	0.0005482
3719.07	0.0004806
3730.64	0.0004725
3742.21	0.0004726
3753.79	0.0004662
3765.36	0.0005185
3776.94	0.000476
3788.51	0.0004965
3800.08	0.0005593
3811.66	0.0005177
3823.23	0.0003989
3834.81	0.000498
3846.38	0.0004814
3857.95	0.0005756
3869.53	0.0005536
3881.1	0.0005836
3892.68	0.0005844
3904.25	0.0005831
3915.82	0.0005068
3927.4	0.000577
3938.97	0.0006002
3950.55	0.0005949
3962.12	0.000632
3973.69	0.0006755
3985.27	0.0006727
3996.84	0.0006575
