Infrared Spectrum: 1,4-BUTANEDIAMINE, N,N,N',N'-TETRAMETHYL-
Formula: C8 H20 N2
CAS: 111-51-3
State: LIQUID (NEAT)
Class: COBLENTZ III
Instrument: BECKMAN IR-9 (GRATING)
Instrument parameters: ORDER CHANGES: 670, 1200, 2000 CM^-^1
Sampling: TRANSMISSION
Path length: CAPILLARY
Resolution: 2
Origin: DOW CHEMICAL COMPANY
1/CM	TRANSMITTANCE
409	0.4288
418	0.4674
427	0.5482
436	0.5962
445	0.6305
454	0.6628
463	0.685
472	0.7019
481	0.7035
490	0.6999
499	0.7093
508	0.7201
517	0.7284
526	0.7311
535	0.729
544	0.7489
553	0.7558
562	0.7655
571	0.7743
580	0.7819
589	0.7888
598	0.7947
607	0.8012
616	0.8061
625	0.8065
634	0.8092
643	0.8115
652	0.8137
661	0.8161
670	0.8186
679	0.82
688	0.8209
697	0.819
706	0.8146
715	0.8051
724	0.7922
733	0.7688
742	0.7506
751	0.7612
760	0.7754
769	0.7736
778	0.7471
787	0.684
796	0.6683
805	0.7118
814	0.7337
823	0.7194
832	0.6784
841	0.5112
850	0.4452
859	0.5933
868	0.6871
877	0.73
886	0.7648
895	0.7743
904	0.7711
913	0.7621
922	0.7778
931	0.794
940	0.7961
949	0.7906
958	0.7886
967	0.76
976	0.6822
985	0.6718
994	0.6899
1003	0.6728
1012	0.6669
1021	0.6597
1030	0.5481
1039	0.3522
1048	0.2211
1057	0.513
1066	0.4612
1075	0.5723
1084	0.6131
1093	0.6558
1102	0.4852
1111	0.7031
1120	0.7295
1129	0.6549
1138	0.5831
1147	0.5947
1156	0.5196
1165	0.5524
1174	0.6059
1183	0.6724
1192	0.7089
1201	0.7139
1210	0.7105
1219	0.7228
1228	0.6787
1237	0.6515
1246	0.611
1255	0.6041
1264	0.4939
1273	0.3634
1282	0.5752
1291	0.651
1300	0.6323
1309	0.66
1318	0.6671
1327	0.7469
1336	0.7689
1345	0.7599
1354	0.7622
1363	0.7371
1372	0.6538
1381	0.5503
1390	0.5169
1399	0.7287
1408	0.7483
1417	0.7658
1426	0.7421
1435	0.5743
1444	0.4603
1453	0.3526
1462	0.2434
1471	0.1871
1480	0.4222
1489	0.643
1498	0.7335
1507	0.7644
1516	0.7767
1525	0.7828
1534	0.7878
1543	0.7926
1552	0.7978
1561	0.7997
1570	0.8024
1579	0.8053
1588	0.803
1597	0.8006
1606	0.7982
1615	0.7955
1624	0.7949
1633	0.7961
1642	0.7944
1651	0.7907
1660	0.779
1669	0.7562
1678	0.7331
1687	0.7305
1696	0.7372
1705	0.7806
1714	0.8164
1723	0.8392
1732	0.8465
1741	0.8521
1750	0.8568
1759	0.8598
1768	0.862
1777	0.8633
1786	0.8643
1795	0.8648
1804	0.8654
1813	0.8654
1822	0.8655
1831	0.8648
1840	0.8631
1849	0.8615
1858	0.8603
1867	0.8591
1876	0.8578
1885	0.8578
1894	0.8577
1903	0.8577
1912	0.8577
1921	0.8578
1930	0.8587
1939	0.8588
1948	0.858
1957	0.8578
1966	0.8521
1975	0.8578
1984	0.8567
1993	0.8551
2002	0.8518
2011	0.8495
2020	0.8484
2029	0.8474
2038	0.8468
2047	0.8466
2056	0.8463
2065	0.8461
2074	0.8459
2083	0.8447
2092	0.8435
2101	0.8435
2110	0.8441
2119	0.8447
2128	0.8454
2137	0.8468
2146	0.8484
2155	0.8488
2164	0.8487
2173	0.8484
2182	0.8481
2191	0.8477
2200	0.847
2209	0.8467
2218	0.8465
2227	0.8433
2236	0.8404
2245	0.842
2254	0.8425
2263	0.8421
2272	0.8397
2281	0.8375
2290	0.8363
2299	0.8364
2308	0.8365
2317	0.8366
2326	0.837
2335	0.8378
2344	0.8385
2353	0.8384
2362	0.8381
2371	0.8377
2380	0.8373
2389	0.8367
2398	0.8361
2407	0.8348
2416	0.8341
2425	0.8336
2434	0.8336
2443	0.8339
2452	0.8341
2461	0.832
2470	0.8299
2479	0.8274
2488	0.8218
2497	0.8149
2506	0.8056
2515	0.8025
2524	0.8028
2533	0.8037
2542	0.8055
2551	0.8071
2560	0.8085
2569	0.8095
2578	0.8094
2587	0.8071
2596	0.801
2605	0.7896
2614	0.7868
2623	0.785
2632	0.7818
2641	0.7697
2650	0.7498
2659	0.7254
2668	0.7001
2677	0.6853
2686	0.6749
2695	0.6676
2704	0.6019
2713	0.5343
2722	0.4485
2731	0.3797
2740	0.3599
2749	0.3264
2758	0.1585
2767	0.0705
2776	0.0556
2785	0.0708
2794	0.0792
2803	0.2079
2812	0.2403
2821	0.1106
2830	0.1699
2839	0.3282
2848	0.3616
2857	0.2973
2866	0.1751
2875	0.2165
2884	0.2854
2893	0.3001
2902	0.2942
2911	0.2735
2920	0.2473
2929	0.1957
2938	0.0957
2947	0.0574
2956	0.0596
2965	0.1676
2974	0.1734
2983	0.1656
2992	0.373
3001	0.5627
3010	0.623
3019	0.6788
3028	0.7018
3037	0.7161
3046	0.7256
3055	0.7325
3064	0.7383
3073	0.7428
3082	0.7461
3091	0.7471
3100	0.7478
3109	0.7481
3118	0.7483
3127	0.748
3136	0.7465
3145	0.7448
3154	0.7422
3163	0.7387
3172	0.7346
3181	0.7295
3190	0.7245
3199	0.72
3208	0.7155
3217	0.7111
3226	0.7088
3235	0.7074
3244	0.7065
3253	0.7053
3262	0.7036
3271	0.7011
3280	0.6984
3289	0.6958
3298	0.6938
3307	0.6919
3316	0.6915
3325	0.6928
3334	0.694
3343	0.6939
3352	0.6932
3361	0.6912
3370	0.6889
3379	0.6867
3388	0.6876
3397	0.6905
3406	0.6949
3415	0.6995
3424	0.7038
3433	0.7074
3442	0.7104
3451	0.7133
3460	0.7169
3469	0.7228
3478	0.7296
3487	0.7357
3496	0.7418
3505	0.7478
3514	0.7534
3523	0.7585
3532	0.7634
3541	0.7687
3550	0.7742
3559	0.7797
3568	0.7856
3577	0.7921
3586	0.7981
3595	0.8034
3604	0.8096
3613	0.8155
3622	0.8212
3631	0.8271
3640	0.8323
3649	0.8355
3658	0.8368
3667	0.8367
3676	0.8362
3685	0.8345
3694	0.836
3703	0.8414
3712	0.847
3721	0.8511
3730	0.8521
3739	0.8527
3748	0.8532
3757	0.8533
3766	0.853
3775	0.8521
3784	0.8514
3793	0.8506
