Infrared Spectrum: 4-Methoxybutanol
Formula: C 5 H 12 O 2
CAS: 111-32-0
State: gas
Instrument: HP-GC/MS/IRD
Origin: NIST Mass Spectrometry Data Center
1/CM	ABSORBANCE
550	0.0002262
562	0.0002496
574	0.0001313
586	0.0001209
598	7.93e-05
610	0.0001014
622	8.84e-05
634	3.25e-05
646	6.89e-05
658	8.45e-05
670	5.98e-05
682	5.33e-05
694	0.0001014
706	0.0001027
718	0.0001287
730	0.0001274
742	0.0001612
754	0.0001573
766	0.0001365
778	0.00013
790	0.0002119
802	0.0002509
814	0.0002821
826	0.0003367
838	0.000377
850	0.0003978
862	0.0004628
874	0.0005265
886	0.0005473
898	0.000689
910	0.0009555
922	0.0014417
934	0.0019682
946	0.0023426
958	0.0023998
970	0.0023244
982	0.002379
994	0.0027092
1006	0.0031317
1018	0.0038402
1030	0.0050713
1042	0.0061503
1054	0.0068419
1066	0.0065338
1078	0.0055731
1090	0.005759
1102	0.0072956
1114	0.0100373
1126	0.0114322
1138	0.0085254
1150	0.00481
1162	0.0035919
1174	0.0034047
1186	0.0035087
1198	0.0033748
1210	0.0028444
1222	0.0023751
1234	0.0020163
1246	0.0017953
1258	0.0016302
1270	0.001443
1282	0.0012909
1294	0.0011375
1306	0.0010036
1318	0.000962
1330	0.0010062
1342	0.0011362
1354	0.0012727
1366	0.0016445
1378	0.0025662
1390	0.0028483
1402	0.0019708
1414	0.0012389
1426	0.0011882
1438	0.0014339
1450	0.0016887
1462	0.0017524
1474	0.001547
1486	0.0010712
1498	0.0005811
1510	0.0003887
1522	0.0002587
1534	0.0002145
1546	0.0001716
1558	0.0001313
1570	0.0001144
1582	0.0001118
1594	7.93e-05
1606	8.97e-05
1618	5.07e-05
1630	5.46e-05
1642	5.59e-05
1654	4.03e-05
1666	5.07e-05
1678	2.86e-05
1690	3.9e-05
1702	4.03e-05
1714	2.47e-05
1726	2.47e-05
1738	3.51e-05
1750	3.51e-05
1762	4.16e-05
1774	1.95e-05
1786	1.69e-05
1798	1.43e-05
1810	0
1822	1.04e-05
1834	2.6e-06
1846	4.16e-05
1858	3.12e-05
1870	3.9e-05
1882	6.24e-05
1894	5.85e-05
1906	6.37e-05
1918	5.72e-05
1930	8.71e-05
1942	7.15e-05
1954	9.88e-05
1966	0.0001027
1978	0.0001079
1990	0.0001248
2002	0.0001274
2014	0.0001183
2026	0.0001664
2038	0.0001755
2050	0.0001924
2062	0.0001937
2074	0.0001924
2086	0.0001651
2098	0.0001157
2110	0.000104
2122	0.0001105
2134	6.11e-05
2146	6.89e-05
2158	6.5e-05
2170	5.85e-05
2182	5.33e-05
2194	3.25e-05
2206	3.51e-05
2218	3.9e-05
2230	5.33e-05
2242	4.29e-05
2254	5.33e-05
2266	3.9e-05
2278	1.17e-05
2290	3.51e-05
2302	4.03e-05
2314	4.29e-05
2326	4.81e-05
2338	2.47e-05
2350	2.99e-05
2362	3.25e-05
2374	6.76e-05
2386	6.89e-05
2398	6.63e-05
2410	4.81e-05
2422	5.59e-05
2434	7.41e-05
2446	4.42e-05
2458	7.67e-05
2470	6.5e-05
2482	6.24e-05
2494	5.85e-05
2506	3.38e-05
2518	6.89e-05
2530	8.06e-05
2542	7.54e-05
2554	8.97e-05
2566	9.1e-05
2578	0.0001196
2590	0.0001274
2602	0.0001755
2614	0.0001794
2626	0.0001976
2638	0.0002106
2650	0.0002015
2662	0.0002652
2674	0.0003211
2686	0.0003549
2698	0.0004732
2710	0.000559
2722	0.0007306
2734	0.0008593
2746	0.0009854
2758	0.0009984
2770	0.0010907
2782	0.0013182
2794	0.0017927
2806	0.0029328
2818	0.0044694
2830	0.0056329
2842	0.0063336
2854	0.0074581
2866	0.0093483
2878	0.0101751
2890	0.0097045
2902	0.009412
2914	0.0100776
2926	0.0118508
2938	0.013
2950	0.0115908
2962	0.0085254
2974	0.0057694
2986	0.0044603
2998	0.0032565
3010	0.0018239
3022	0.0010803
3034	0.0007618
3046	0.0005954
3058	0.0005096
3070	0.0004212
3082	0.0003627
3094	0.0003198
3106	0.0002236
3118	0.0002067
3130	0.00013
3142	0.0001261
3154	8.32e-05
3166	9.62e-05
3178	8.84e-05
3190	3.77e-05
3202	9.75e-05
3214	6.37e-05
3226	7.93e-05
3238	6.11e-05
3250	2.73e-05
3262	6.37e-05
3274	5.33e-05
3286	3.77e-05
3298	3.38e-05
3310	3.51e-05
3322	5.2e-05
3334	5.72e-05
3346	8.45e-05
3358	0.0001053
3370	7.28e-05
3382	0.0001014
3394	0.0001157
3406	9.88e-05
3418	0.0001378
3430	0.0001378
3442	0.0001417
3454	0.0001157
3466	0.0001157
3478	0.0001963
3490	0.0002249
3502	0.0002704
3514	0.0004641
3526	0.0005967
3538	0.0006747
3550	0.000637
3562	0.0005343
3574	0.0004693
3586	0.0005005
3598	0.0004017
3610	0.0003913
3622	0.0003523
3634	0.0004225
3646	0.0006162
3658	0.0010764
3670	0.0013208
3682	0.0009464
3694	0.0004758
3706	0.0002561
3718	0.0002067
3730	0.000195
3742	0.0001469
3754	0.0001287
3766	0.0001066
3778	9.49e-05
3790	0.0001209
3802	9.23e-05
3814	0.0001469
3826	0.0001898
3838	0.0001365
