Infrared Spectrum: 2-Octene(c,t)
Formula: C 8 H 16
CAS: 111-67-1
State: gas
Instrument: HP-GC/MS/IRD
Origin: NIST Mass Spectrometry Data Center
1/CM	ABSORBANCE
550	0.0002624
562	6.4e-05
574	0.0003072
586	0.0006304
598	0.000448
610	0.0004448
622	0.0004832
634	0.0007648
646	0.00112
658	0.0017024
670	0.0024416
682	0.0035104
694	0.003952
706	0.0032576
718	0.0022816
730	0.0016032
742	0.0012544
754	0.0008768
766	0.0007456
778	0.0006592
790	0.0004448
802	0.0004
814	0.0003328
826	0.0004576
838	0.0004512
850	0.0004384
862	0.0004224
874	0.000432
886	0.0004736
898	0.0005792
910	0.0006496
922	0.0008192
934	0.0008192
946	0.0006816
958	0.0007264
970	0.0009664
982	0.0010976
994	0.0009664
1006	0.0007456
1018	0.0007104
1030	0.0006848
1042	0.0006176
1054	0.0004544
1066	0.0004192
1078	0.0004288
1090	0.0003648
1102	0.0003648
1114	0.0003136
1126	0.0002336
1138	0.000256
1150	0.000144
1162	8.96e-05
1174	8.64e-05
1186	0.0001568
1198	0.0001728
1210	0.000192
1222	0.0001728
1234	0.0002848
1246	0.0003264
1258	0.0004192
1270	0.0005216
1282	0.0006304
1294	0.0006944
1306	0.0008192
1318	0.000992
1330	0.001088
1342	0.001248
1354	0.0013312
1366	0.001504
1378	0.001824
1390	0.0019104
1402	0.0021376
1414	0.0019904
1426	0.0017408
1438	0.0022816
1450	0.0031104
1462	0.0033856
1474	0.0026336
1486	0.0016
1498	0.0010208
1510	0.0007872
1522	0.0006912
1534	0.0006432
1546	0.0005728
1558	0.0005024
1570	0.0004128
1582	0.0003872
1594	0.000368
1606	0.0003744
1618	0.0004384
1630	0.0005568
1642	0.0007936
1654	0.000976
1666	0.0008352
1678	0.0005312
1690	0.0003552
1702	0.000288
1714	0.0002528
1726	0.000208
1738	0.0001504
1750	0.0001504
1762	0.0001536
1774	0.0001312
1786	0.0001056
1798	0.0001152
1810	0.0001088
1822	0.0001184
1834	8.32e-05
1846	9.92e-05
1858	0.0001056
1870	9.92e-05
1882	8.32e-05
1894	0.0001088
1906	7.36e-05
1918	7.68e-05
1930	0.0001056
1942	9.92e-05
1954	8.96e-05
1966	0.0001024
1978	0.0001184
1990	0.000144
2002	0.000128
2014	0.0001344
2026	0.000112
2038	9.28e-05
2050	0.0001024
2062	8.32e-05
2074	8e-05
2086	8e-05
2098	7.04e-05
2110	5.76e-05
2122	8.96e-05
2134	5.76e-05
2146	8.64e-05
2158	6.08e-05
2170	6.72e-05
2182	8.64e-05
2194	8.64e-05
2206	9.6e-05
2218	7.04e-05
2230	9.6e-05
2242	8.64e-05
2254	0.0001088
2266	0.0001184
2278	0.0001152
2290	0.0001248
2302	0.000128
2314	0.0001504
2326	0.0001376
2338	0.0001568
2350	0.0001696
2362	0.000176
2374	0.0001376
2386	0.0001632
2398	0.0001536
2410	0.0001632
2422	0.000176
2434	0.0001664
2446	0.000176
2458	0.0001696
2470	0.0001632
2482	0.0001856
2494	0.0001792
2506	0.0001824
2518	0.0001984
2530	0.0002592
2542	0.0002496
2554	0.0002656
2566	0.000288
2578	0.0003008
2590	0.0002944
2602	0.0003104
2614	0.0003264
2626	0.0003712
2638	0.0004064
2650	0.0004512
2662	0.0005248
2674	0.000496
2686	0.0005504
2698	0.0005184
2710	0.0005728
2722	0.000704
2734	0.0007936
2746	0.000864
2758	0.000896
2770	0.0009216
2782	0.0010752
2794	0.0013248
2806	0.0016544
2818	0.0021376
2830	0.00312
2842	0.0052
2854	0.0093312
2866	0.0131424
2878	0.0141408
2890	0.0130496
2902	0.0136352
2914	0.0197088
2926	0.029008
2938	0.0314432
2950	0.0247264
2962	0.0212672
2974	0.0177408
2986	0.010112
2998	0.0070592
3010	0.0080128
3022	0.0097952
3034	0.0075968
3046	0.0043104
3058	0.0026176
3070	0.0019552
3082	0.0015776
3094	0.0012064
3106	0.0009408
3118	0.0008352
3130	0.0007168
3142	0.0005984
3154	0.0005696
3166	0.0005088
3178	0.0004672
3190	0.0004672
3202	0.0004192
3214	0.0003744
3226	0.000352
3238	0.0003392
3250	0.0003264
3262	0.0003648
3274	0.0003104
3286	0.0003296
3298	0.0002464
3310	0.0002368
3322	0.000256
3334	0.0002112
3346	0.000272
3358	0.0002432
3370	0.0002528
3382	0.0002144
3394	0.0001824
3406	0.0001536
3418	0.0002816
3430	0.0002336
3442	0.000176
3454	0.0001664
3466	0.0001696
3478	0.0001376
3490	0.0001472
3502	0.0001152
3514	0.000144
3526	0.0001632
3538	0.0001344
3550	0.0001408
3562	0.0001472
3574	0.0001184
3586	0.00016
3598	8e-05
3610	0.0001152
3622	0.0001792
3634	0.0001856
3646	0.0001536
3658	0.000192
3670	0.000128
3682	0.0001728
3694	0.0001888
3706	0.0001536
3718	0.0001664
3730	0.000192
3742	0.0001632
3754	0.0001344
3766	0.0001408
3778	0.000192
3790	0.0001888
3802	0.0001792
3814	0.0001184
3826	0.0002176
3838	0.0001984
