Infrared Spectrum: 2,4-Hexadiene-1-ol
Formula: C 6 H 10 O
CAS: 111-28-4
State: gas
Instrument: HP-GC/MS/IRD
Origin: NIST Mass Spectrometry Data Center
1/CM	ABSORBANCE
550	0.0003492
562	3.24e-05
574	0
586	7.56e-05
598	0.0002088
610	0.000207
622	0.0002475
634	0.0002952
646	0.0002763
658	0.0003636
670	0.000432
682	0.0004734
694	0.0004536
706	0.0004005
718	0.0004518
730	0.0004122
742	0.0004842
754	0.0003897
766	0.000477
778	0.0004437
790	0.0004329
802	0.0004248
814	0.0004104
826	0.0004671
838	0.0005436
850	0.000567
862	0.0007353
874	0.0008973
886	0.0011979
898	0.00171
910	0.0021348
922	0.0028107
934	0.0033597
946	0.0038466
958	0.0051417
970	0.0069192
982	0.0083628
994	0.0089523
1006	0.0085833
1018	0.0063126
1030	0.0037836
1042	0.0027693
1054	0.0025875
1066	0.0028836
1078	0.0031293
1090	0.0033741
1102	0.002709
1114	0.0016893
1126	0.0011853
1138	0.0009837
1150	0.0009918
1162	0.001035
1174	0.0010692
1186	0.0010881
1198	0.001116
1210	0.0011475
1222	0.0011304
1234	0.0010935
1246	0.001062
1258	0.0010566
1270	0.0010629
1282	0.0011259
1294	0.0012159
1306	0.0012663
1318	0.0013383
1330	0.0013185
1342	0.0014733
1354	0.0019278
1366	0.0029889
1378	0.0038349
1390	0.003411
1402	0.0022653
1414	0.001656
1426	0.0013554
1438	0.0012897
1450	0.0012096
1462	0.0011493
1474	0.001035
1486	0.0007542
1498	0.0006237
1510	0.0006399
1522	0.0005499
1534	0.0004464
1546	0.0004509
1558	0.0004905
1570	0.000387
1582	0.0003618
1594	0.0003933
1606	0.0005148
1618	0.0006651
1630	0.0007011
1642	0.0007416
1654	0.001026
1666	0.0008604
1678	0.0005112
1690	0.0005058
1702	0.0008028
1714	0.000666
1726	0.0002808
1738	0.0002574
1750	0.0002349
1762	0.000234
1774	0.0002826
1786	0.0003528
1798	0.0004905
1810	0.0005004
1822	0.0004482
1834	0.0002988
1846	0.0002493
1858	0.0001656
1870	0.0001674
1882	0.0001161
1894	0.0001188
1906	9.63e-05
1918	0.0001071
1930	9.09e-05
1942	8.28e-05
1954	9.36e-05
1966	0.0001269
1978	0.0001269
1990	0.000135
2002	0.0001341
2014	0.0001305
2026	8.73e-05
2038	6.84e-05
2050	7.47e-05
2062	4.77e-05
2074	2.97e-05
2086	4.05e-05
2098	4.23e-05
2110	1.08e-05
2122	2.34e-05
2134	4.14e-05
2146	4.05e-05
2158	9e-06
2170	2.34e-05
2182	1.62e-05
2194	2.79e-05
2206	3.96e-05
2218	4.41e-05
2230	2.61e-05
2242	4.32e-05
2254	2.07e-05
2266	1.62e-05
2278	1.8e-05
2290	3.24e-05
2302	3.78e-05
2314	4.32e-05
2326	3.51e-05
2338	3.96e-05
2350	6.84e-05
2362	8.46e-05
2374	9.72e-05
2386	9.18e-05
2398	0.000108
2410	8.28e-05
2422	7.92e-05
2434	6.3e-05
2446	6.12e-05
2458	9.45e-05
2470	8.46e-05
2482	4.32e-05
2494	5.49e-05
2506	6.93e-05
2518	5.13e-05
2530	5.49e-05
2542	9.18e-05
2554	8.01e-05
2566	7.65e-05
2578	6.21e-05
2590	8.01e-05
2602	0.0001071
2614	9.72e-05
2626	8.19e-05
2638	0.0001134
2650	0.0001278
2662	0.0001116
2674	0.0001287
2686	0.0001827
2698	0.0001881
2710	0.0002457
2722	0.0003069
2734	0.0004293
2746	0.0004896
2758	0.0004131
2770	0.0004086
2782	0.0004698
2794	0.0005436
2806	0.0006678
2818	0.0007947
2830	0.001107
2842	0.0016362
2854	0.0026865
2866	0.0041355
2878	0.004527
2890	0.0039951
2902	0.0037287
2914	0.004095
2926	0.0052065
2938	0.0046512
2950	0.0035865
2962	0.0031743
2974	0.0028548
2986	0.0027531
2998	0.0031644
3010	0.0039078
3022	0.004257
3034	0.0035469
3046	0.0023877
3058	0.001611
3070	0.0010755
3082	0.0008181
3094	0.0006993
3106	0.0005562
3118	0.0003591
3130	0.0002502
3142	0.000234
3154	0.0001431
3166	0.0001602
3178	0.0001305
3190	9.99e-05
3202	8.37e-05
3214	0.0001035
3226	9.81e-05
3238	0.0001377
3250	6.57e-05
3262	5.76e-05
3274	9.99e-05
3286	0.0001026
3298	2.16e-05
3310	7.65e-05
3322	5.76e-05
3334	2.7e-05
3346	5.67e-05
3358	5.94e-05
3370	4.86e-05
3382	9e-05
3394	6.03e-05
3406	4.32e-05
3418	8.46e-05
3430	4.32e-05
3442	0.0001017
3454	9.27e-05
3466	6.48e-05
3478	4.14e-05
3490	4.95e-05
3502	5.67e-05
3514	6.21e-05
3526	9.81e-05
3538	6.84e-05
3550	8.01e-05
3562	8.19e-05
3574	7.38e-05
3586	0.000135
3598	0.0001152
3610	0.0002637
3622	0.0003834
3634	0.0005679
3646	0.000819
3658	0.0011736
3670	0.0010692
3682	0.0006156
3694	0.0003204
3706	0.0001485
3718	0.0001287
3730	0.0001575
3742	0.0002142
3754	0.000135
3766	6.84e-05
3778	0.0001017
3790	1.17e-05
3802	0.0001053
3814	5.85e-05
3826	7.92e-05
3838	8.73e-05
