Infrared Spectrum: Ethylene glycol monostearate
Formula: C20 H40 O3
CAS: 111-60-4
State: SOLUTION (10% CCl4 FOR 2.7-7.5, CS2 FOR 7.5-26 MICRON) VS SOLVENT
Class: COBLENTZ III
Instrument: DOW KBr FOREPRISM-GRATING
Instrument parameters: BLAZED AT 3.5, 12.0, 20.0 MICRON AND CHANGED AT 5.0, 7.5, 14.9 MICRON
Sampling: TRANSMISSION
Path length: 0.011 CM, 0.011 CM
Resolution: 2
Origin: DOW CHEMICAL COMPANY
1/CM	TRANSMITTANCE
3792	0.8575
3783	0.8575
3774	0.8574
3765	0.8581
3756	0.8587
3747	0.8593
3738	0.8541
3729	0.853
3720	0.8532
3711	0.8545
3702	0.8581
3693	0.8597
3684	0.8571
3675	0.8537
3666	0.8523
3657	0.8512
3648	0.847
3639	0.8308
3630	0.8046
3621	0.7771
3612	0.7699
3603	0.7847
3594	0.8121
3585	0.8204
3576	0.8221
3567	0.8124
3558	0.799
3549	0.7871
3540	0.7765
3531	0.7675
3522	0.7618
3513	0.7599
3504	0.7607
3495	0.7625
3486	0.764
3477	0.7655
3468	0.766
3459	0.7664
3450	0.7726
3441	0.7828
3432	0.7926
3423	0.8018
3414	0.8108
3405	0.8196
3396	0.8283
3387	0.8364
3378	0.8437
3369	0.8504
3360	0.8549
3351	0.8595
3342	0.8636
3333	0.8673
3324	0.8709
3315	0.8745
3306	0.8778
3297	0.8811
3288	0.8837
3279	0.8855
3270	0.8864
3261	0.887
3252	0.8877
3243	0.8883
3234	0.8885
3225	0.8887
3216	0.8886
3207	0.8883
3198	0.8882
3189	0.8883
3180	0.8883
3171	0.888
3162	0.8874
3153	0.8857
3144	0.8841
3135	0.8825
3126	0.8806
3117	0.8786
3108	0.8765
3099	0.8736
3090	0.8696
3081	0.8648
3072	0.8584
3063	0.8511
3054	0.8449
3045	0.8365
3036	0.8231
3027	0.808
3018	0.7867
3009	0.7524
3000	0.6962
2991	0.5251
2982	0.4094
2973	0.2182
2964	0.1038
2955	0.0908
2946	0.0475
2937	0.0139
2928	0.0087
2919	0.0119
2910	0.0452
2901	0.1312
2892	0.224
2883	0.2855
2874	0.1854
2865	0.0297
2856	0.02
2847	0.3679
2838	0.5012
2829	0.6059
2820	0.6765
2811	0.7328
2802	0.7611
2793	0.7807
2784	0.7951
2775	0.8072
2766	0.8168
2757	0.8236
2748	0.8283
2739	0.8259
2730	0.8255
2721	0.8293
2712	0.8321
2703	0.8316
2694	0.828
2685	0.8245
2676	0.8235
2667	0.8258
2658	0.8298
2649	0.8339
2640	0.8382
2631	0.8424
2622	0.8467
2613	0.8509
2604	0.8544
2595	0.8573
2586	0.8603
2577	0.8632
2568	0.8658
2559	0.8683
2550	0.8708
2541	0.8733
2532	0.8748
2523	0.8758
2514	0.8768
2505	0.878
2496	0.8792
2487	0.8803
2478	0.8816
2469	0.8827
2460	0.8828
2451	0.8828
2442	0.8818
2433	0.8808
2424	0.8798
2415	0.8787
2406	0.8781
2397	0.878
2388	0.8787
2379	0.8794
2370	0.8801
2361	0.8807
2352	0.8812
2343	0.8799
2334	0.8774
2325	0.874
2316	0.8717
2307	0.8707
2298	0.8712
2289	0.8721
2280	0.8734
2271	0.8748
2262	0.8762
2253	0.8774
2244	0.8787
2235	0.88
2226	0.8813
2217	0.8818
2208	0.8825
2199	0.8832
2190	0.8871
2181	0.8925
2172	0.887
2163	0.8857
2154	0.8856
2145	0.8855
2136	0.8854
2127	0.8855
2118	0.886
2109	0.8864
2100	0.8854
2091	0.8843
2082	0.8833
2073	0.882
2064	0.8806
2055	0.8793
2046	0.8784
2037	0.8775
2028	0.8771
2019	0.8795
2010	0.8836
2001	0.8835
1992	0.8833
1983	0.8831
1974	0.8828
1965	0.883
1956	0.8834
1947	0.8839
1938	0.8847
1929	0.8855
1920	0.8862
1911	0.8854
1902	0.8844
1893	0.8834
1884	0.8827
1875	0.8818
1866	0.8808
1857	0.8804
1848	0.8804
1839	0.8768
1830	0.8723
1821	0.8665
1812	0.8611
1803	0.8536
1794	0.843
1785	0.828
1776	0.8015
1767	0.75
1758	0.4944
1749	0.1427
1740	0.0221
1731	0.1022
1722	0.2916
1713	0.4819
1704	0.6322
1695	0.7114
1686	0.7741
1677	0.8126
1668	0.8311
1659	0.8411
1650	0.8466
1641	0.8512
1632	0.8559
1623	0.8609
1614	0.8666
1605	0.8718
1596	0.8758
1587	0.878
1578	0.8762
1569	0.877
1560	0.8793
1551	0.8818
1542	0.8775
1533	0.8697
1524	0.8644
1515	0.8588
1506	0.8482
1497	0.833
1488	0.8067
1479	0.7218
1470	0.2645
1461	0.3294
1452	0.4739
1443	0.4934
1434	0.6174
1425	0.6258
1416	0.6301
1407	0.6798
1398	0.6454
1389	0.533
1380	0.446
1371	0.54
1362	0.5658
1353	0.5386
1344	0.5585
1335	0.5807
1326	0.5759
1317	0.5429
1308	0.5215
1299	0.5079
1290	0.498
1281	0.4728
1272	0.4472
1263	0.4487
1254	0.4172
1245	0.3909
1236	0.3907
1227	0.4009
1218	0.4097
1209	0.4092
1200	0.3847
1191	0.3295
1182	0.2763
1173	0.212
1164	0.1974
1155	0.2312
1146	0.3262
1137	0.4908
1128	0.5489
1119	0.4107
1110	0.4415
1101	0.5046
1092	0.469
1083	0.4583
1074	0.4586
1065	0.516
1056	0.5399
1047	0.5562
1038	0.5693
1029	0.6018
1020	0.6356
1011	0.6695
1002	0.7034
993	0.7303
984	0.7419
975	0.7444
966	0.728
957	0.7143
948	0.7187
939	0.725
930	0.7308
921	0.7361
912	0.7407
903	0.7489
894	0.7432
885	0.7258
876	0.7258
867	0.7468
858	0.7692
849	0.7865
840	0.79
831	0.7914
822	0.7976
813	0.8036
804	0.8068
795	0.8095
786	0.8075
777	0.7975
768	0.796
759	0.7946
750	0.7874
741	0.7725
732	0.7424
723	0.6018
714	0.7181
705	0.775
696	0.8061
687	0.816
678	0.8232
669	0.8246
660	0.84
651	0.8317
642	0.8292
633	0.8242
624	0.8165
615	0.809
606	0.8025
597	0.7962
588	0.7908
579	0.7861
570	0.7888
561	0.7924
552	0.7925
543	0.7901
534	0.7788
525	0.7654
516	0.7614
507	0.7593
498	0.761
489	0.7624
480	0.7637
471	0.7651
462	0.7665
453	0.7682
444	0.7701
435	0.771
426	0.7718
417	0.7725
408	0.773
399	0.7719
