Infrared Spectrum: Beta,Beta'-THIODIPROPIONITRILE
Formula: C6 H8 N2 S
CAS: 111-97-7
State: LIQUID (NEAT)
Class: COBLENTZ III
Instrument: PERKIN-ELMER 521 (GRATING)
Sampling: TRANSMISSION
Path length: 0.0024 CM
Resolution: 4
Origin: STANDARD OIL OF OHIO
1/CM	TRANSMITTANCE
648.554	0.712
657.752	0.7009
666.951	0.764
676.149	0.785
685.348	0.7579
694.546	0.8139
703.745	0.83
712.943	0.7842
722.141	0.7136
731.34	0.66
740.538	0.691
749.737	0.6692
758.935	0.648
768.134	0.7078
777.332	0.7746
786.53	0.802
795.729	0.8007
804.927	0.8318
814.126	0.8669
823.324	0.884
832.523	0.894
841.721	0.8949
850.919	0.895
860.118	0.892
869.316	0.8871
878.515	0.8741
887.713	0.8315
896.912	0.7112
906.11	0.362
915.308	0.6388
924.507	0.7469
933.705	0.7763
942.904	0.73
952.102	0.7542
961.301	0.7229
970.499	0.6598
979.697	0.6098
988.896	0.7266
998.094	0.815
1007.29	0.7757
1016.49	0.7649
1025.69	0.7873
1034.89	0.8613
1044.09	0.8877
1053.28	0.8977
1062.48	0.895
1071.68	0.9
1080.88	0.903
1090.08	0.8982
1099.28	0.8759
1108.48	0.8462
1117.67	0.822
1126.87	0.8563
1136.07	0.875
1145.27	0.8643
1154.47	0.8157
1163.67	0.7892
1172.86	0.754
1182.06	0.8061
1191.26	0.8157
1200.46	0.7176
1209.66	0.6717
1218.86	0.7406
1228.05	0.6329
1237.25	0.4764
1246.45	0.7433
1255.65	0.792
1264.85	0.7485
1274.05	0.5401
1283.25	0.2189
1292.44	0.3911
1301.64	0.6284
1310.84	0.6832
1320.04	0.5053
1329.24	0.4949
1338.44	0.7675
1347.63	0.8171
1356.83	0.823
1366.03	0.8192
1375.23	0.8022
1384.43	0.7787
1393.63	0.7244
1402.83	0.552
1412.02	0.2378
1421.22	0.0773
1430.42	0.133
1439.62	0.1966
1448.82	0.4581
1458.02	0.7727
1467.21	0.8189
1476.41	0.854
1485.61	0.865
1494.81	0.879
1504.01	0.8929
1513.21	0.8994
1522.4	0.911
1531.6	0.9033
1540.8	0.9
1550	0.9084
1559.2	0.909
1568.4	0.9141
1577.6	0.916
1586.79	0.911
1595.99	0.905
1605.19	0.896
1614.39	0.8783
1623.59	0.8703
1632.79	0.8723
1641.98	0.892
1651.18	0.9047
1660.38	0.912
1669.58	0.912
1678.78	0.9003
1687.98	0.8987
1697.17	0.9193
1706.37	0.925
1715.57	0.928
1724.77	0.9185
1733.97	0.9193
1743.17	0.9239
1752.37	0.9376
1761.56	0.938
1770.76	0.943
1779.96	0.942
1789.16	0.9398
1798.36	0.932
1807.56	0.9362
1816.75	0.941
1825.95	0.9496
1835.15	0.945
1844.35	0.95
1853.55	0.9516
1862.75	0.951
1871.94	0.95
1881.14	0.947
1890.34	0.9464
1899.54	0.945
1908.74	0.943
1917.94	0.941
1927.14	0.9384
1936.33	0.941
1945.53	0.943
1954.73	0.942
1963.93	0.9384
1973.13	0.938
1982.33	0.934
1991.52	0.938
2000.72	0.9381
2009.92	0.937
2019.12	0.939
2028.32	0.9425
2037.52	0.945
2046.72	0.946
2055.91	0.946
2065.11	0.9465
2074.31	0.9415
2083.51	0.939
2092.71	0.941
2101.91	0.939
2111.1	0.937
2120.3	0.933
2129.5	0.935
2138.7	0.933
2147.9	0.9325
2157.1	0.934
2166.29	0.934
2175.49	0.93
2184.69	0.9229
2193.89	0.8909
2203.09	0.9035
2212.29	0.8933
2221.49	0.8647
2230.68	0.7327
2239.88	0.4858
2249.08	0.2537
2258.28	0.1673
2267.48	0.6697
2276.68	0.8407
2285.87	0.8886
2295.07	0.9
2304.27	0.903
2313.47	0.9005
2322.67	0.8971
2331.87	0.9075
2341.06	0.921
2350.26	0.9171
2359.46	0.9251
2368.66	0.9285
2377.86	0.925
2387.06	0.926
2396.26	0.9255
2405.45	0.922
2414.65	0.9205
2423.85	0.9192
2433.05	0.9155
2442.25	0.9175
2451.45	0.924
2460.64	0.9269
2469.84	0.926
2479.04	0.9269
2488.24	0.9285
2497.44	0.9329
2506.64	0.937
2515.83	0.939
2525.03	0.9356
2534.23	0.934
2543.43	0.934
2552.63	0.93
2561.83	0.933
2571.03	0.9335
2580.22	0.933
2589.42	0.934
2598.62	0.9295
2607.82	0.921
2617.02	0.9159
2626.22	0.909
2635.41	0.9019
2644.61	0.903
2653.81	0.9125
2663.01	0.9255
2672.21	0.935
2681.41	0.942
2690.61	0.946
2699.8	0.9439
2709	0.9375
2718.2	0.934
2727.4	0.933
2736.6	0.9269
2745.8	0.922
2754.99	0.924
2764.19	0.9285
2773.39	0.932
2782.59	0.93
2791.79	0.9245
2800.99	0.9125
2810.18	0.8985
2819.38	0.8714
2828.58	0.8459
2837.78	0.84
2846.98	0.8375
2856.18	0.8095
2865.38	0.8055
2874.57	0.813
2883.77	0.8079
2892.97	0.7909
2902.17	0.7484
2911.37	0.7017
2920.57	0.5935
2929.76	0.3932
2938.96	0.2955
2948.16	0.3894
2957.36	0.4905
2966.56	0.4645
2975.76	0.5499
2984.95	0.6041
2994.15	0.6484
3003.35	0.7137
3012.55	0.7612
3021.75	0.7855
3030.95	0.8015
3040.15	0.809
3049.34	0.8155
3058.54	0.8296
3067.74	0.8435
3076.94	0.8631
3086.14	0.877
3095.34	0.8851
3104.53	0.8955
3113.73	0.9021
3122.93	0.9085
3132.13	0.913
3141.33	0.909
3150.53	0.9
3159.72	0.894
3168.92	0.891
3178.12	0.898
3187.32	0.9045
3196.52	0.9171
3205.72	0.922
3214.92	0.922
3224.11	0.924
3233.31	0.921
3242.51	0.9245
3251.71	0.92
3260.91	0.912
3270.11	0.9165
3279.3	0.9311
3288.5	0.939
3297.7	0.9481
3306.9	0.947
3316.1	0.945
3325.3	0.949
3334.5	0.949
3343.69	0.9481
3352.89	0.951
3362.09	0.95
3371.29	0.9515
3380.49	0.955
3389.69	0.958
3398.88	0.9571
3408.08	0.956
3417.28	0.9585
3426.48	0.9551
3435.68	0.956
3444.88	0.951
3454.07	0.943
3463.27	0.941
3472.47	0.939
3481.67	0.9285
3490.87	0.9229
3500.07	0.9165
3509.27	0.9058
3518.46	0.896
3527.66	0.887
3536.86	0.8815
3546.06	0.879
3555.26	0.887
3564.46	0.8905
3573.65	0.8849
3582.85	0.883
3592.05	0.884
3601.25	0.8799
3610.45	0.8735
3619.65	0.871
3628.84	0.8681
3638.04	0.8705
3647.24	0.8781
3656.44	0.8931
3665.64	0.9063
3674.84	0.938
3684.04	0.9495
3693.23	0.9635
3702.43	0.971
3711.63	0.9725
3720.83	0.9685
3730.03	0.9755
3739.23	0.9725
3748.42	0.973
3757.62	0.9765
3766.82	0.9725
3776.02	0.9795
3785.22	0.979
3794.42	0.984
3803.61	0.983
3812.81	0.9744
3822.01	0.976
3831.21	0.968
3840.41	0.9701
3849.61	0.9701
3858.81	0.9699
3868	0.972
3877.2	0.9696
3886.4	0.9685
3895.6	0.9725
3904.8	0.96
3914	0.9614
3923.19	0.9598
3932.39	0.962
3941.59	0.9571
3950.79	0.9571
