Infrared Spectrum: 9-Octadecenoic acid, 2-methoxyethyl ester
Formula: C21 H40 O3
CAS: 111-10-4
State: SOLUTION (10% CCl4 FOR 2.7-7.5, 10% CS2 FOR 7.5-26 MICRON) VS SOLVENT
Class: COBLENTZ III
Instrument: DOW KBr FOREPRISM-GRATING
Instrument parameters: BLAZED AT 3.5, 12.0, 20.0 MICRON AND CHANGED AT 5.0, 7.5, 14.9 MICRON
Sampling: TRANSMISSION
Path length: 0.011 CM, 0.011 CM
Resolution: 2
Origin: DOW CHEMICAL COMPANY
1/CM	TRANSMITTANCE
3794	0.862
3785	0.8614
3776	0.8607
3767	0.8603
3758	0.8609
3749	0.8618
3740	0.8621
3731	0.8625
3722	0.8625
3713	0.8625
3704	0.8625
3695	0.8627
3686	0.8628
3677	0.8631
3668	0.8633
3659	0.8632
3650	0.8631
3641	0.8627
3632	0.8618
3623	0.8607
3614	0.8584
3605	0.8548
3596	0.8541
3587	0.8554
3578	0.8578
3569	0.8596
3560	0.8599
3551	0.8565
3542	0.8514
3533	0.8462
3524	0.846
3515	0.8471
3506	0.8484
3497	0.8491
3488	0.8497
3479	0.85
3470	0.8491
3461	0.8447
3452	0.8411
3443	0.841
3434	0.8433
3425	0.8461
3416	0.8483
3407	0.8504
3398	0.8518
3389	0.8525
3380	0.8532
3371	0.8537
3362	0.8548
3353	0.8566
3344	0.8584
3335	0.8601
3326	0.8612
3317	0.8624
3308	0.8636
3299	0.8647
3290	0.8659
3281	0.8671
3272	0.8678
3263	0.8687
3254	0.8696
3245	0.87
3236	0.8702
3227	0.8703
3218	0.8697
3209	0.8689
3200	0.8678
3191	0.8668
3182	0.866
3173	0.8654
3164	0.8647
3155	0.8635
3146	0.8624
3137	0.8608
3128	0.8592
3119	0.8574
3110	0.8546
3101	0.8506
3092	0.8465
3083	0.8414
3074	0.8355
3065	0.8295
3056	0.8218
3047	0.8105
3038	0.7971
3029	0.7688
3020	0.7312
3011	0.6928
3002	0.5137
2993	0.4538
2984	0.4158
2975	0.3553
2966	0.155
2957	0.1009
2948	0.0826
2939	0.0339
2930	0.0146
2921	0.0126
2912	0.053
2903	0.1104
2894	0.1677
2885	0.2202
2876	0.1854
2867	0.126
2858	0.0415
2849	0.1452
2840	0.3544
2831	0.496
2822	0.5194
2813	0.5881
2804	0.6386
2795	0.7081
2786	0.7624
2777	0.781
2768	0.7937
2759	0.8017
2750	0.8054
2741	0.8042
2732	0.8017
2723	0.801
2714	0.8055
2705	0.8168
2696	0.8237
2687	0.8225
2678	0.8218
2669	0.823
2660	0.8253
2651	0.8274
2642	0.83
2633	0.8327
2624	0.8353
2615	0.838
2606	0.8408
2597	0.8436
2588	0.8465
2579	0.8493
2570	0.8521
2561	0.8549
2552	0.8574
2543	0.8598
2534	0.8623
2525	0.8647
2516	0.867
2507	0.8688
2498	0.8707
2489	0.8725
2480	0.8742
2471	0.875
2462	0.8758
2453	0.8765
2444	0.8773
2435	0.8768
2426	0.8758
2417	0.874
2408	0.8731
2399	0.8725
2390	0.8725
2381	0.8732
2372	0.8741
2363	0.8755
2354	0.8768
2345	0.8775
2336	0.8778
2327	0.8758
2318	0.873
2309	0.8713
2300	0.8727
2291	0.8742
2282	0.8752
2273	0.8761
2264	0.877
2255	0.8774
2246	0.878
2237	0.8789
2228	0.8798
2219	0.8804
2210	0.8811
2201	0.8814
2192	0.8806
2183	0.8838
2174	0.8841
2165	0.8786
2156	0.8793
2147	0.8799
2138	0.8804
2129	0.8809
2120	0.8803
2111	0.8796
2102	0.8789
2093	0.8771
2084	0.8753
2075	0.8739
2066	0.8737
2057	0.8735
2048	0.8734
2039	0.8731
2030	0.8723
2021	0.8731
2012	0.8747
2003	0.8751
1994	0.8755
1985	0.8764
1976	0.8775
1967	0.8785
1958	0.8796
1949	0.8798
1940	0.8793
1931	0.8797
1922	0.8808
1913	0.8817
1904	0.8818
1895	0.882
1886	0.882
1877	0.8817
1868	0.8815
1859	0.8815
1850	0.8791
1841	0.8762
1832	0.8736
1823	0.8701
1814	0.8652
1805	0.8578
1796	0.8402
1787	0.8224
1778	0.7991
1769	0.7645
1760	0.6734
1751	0.4275
1742	0.1138
1733	0.0306
1724	0.2202
1715	0.4415
1706	0.5443
1697	0.6168
1688	0.701
1679	0.758
1670	0.7753
1661	0.7964
1652	0.8032
1643	0.8158
1634	0.8236
1625	0.826
1616	0.8425
1607	0.8533
1598	0.8587
1589	0.8621
1580	0.8646
1571	0.8668
1562	0.8693
1553	0.8716
1544	0.8724
1535	0.8682
1526	0.8625
1517	0.8557
1508	0.8468
1499	0.833
1490	0.8111
1481	0.7704
1472	0.408
1463	0.3245
1454	0.3564
1445	0.4692
1436	0.5362
1427	0.6404
1418	0.6127
1409	0.6135
1400	0.6309
1391	0.6471
1382	0.4767
1373	0.5138
1364	0.5754
1355	0.5689
1346	0.5485
1337	0.5794
1328	0.5878
1319	0.5604
1310	0.5464
1301	0.5032
1292	0.4946
1283	0.4745
1274	0.4649
1265	0.4704
1256	0.4302
1247	0.3562
1238	0.3572
1229	0.4115
1220	0.4254
1211	0.4028
1202	0.3022
1193	0.2872
1184	0.2584
1175	0.2174
1166	0.2283
1157	0.295
1148	0.3454
1139	0.2521
1130	0.1542
1121	0.262
1112	0.3698
1103	0.3887
1094	0.3794
1085	0.4123
1076	0.5219
1067	0.5652
1058	0.5758
1049	0.5258
1040	0.4723
1031	0.4777
1022	0.616
1013	0.6711
1004	0.704
995	0.7139
986	0.6925
977	0.6793
968	0.634
959	0.6774
950	0.7155
941	0.726
932	0.7291
923	0.7384
914	0.7548
905	0.7682
896	0.776
887	0.7767
878	0.7668
869	0.7093
860	0.6865
851	0.7247
842	0.7411
833	0.7654
824	0.7951
815	0.8126
806	0.8212
797	0.8278
788	0.8313
779	0.824
770	0.8101
761	0.8047
752	0.7951
743	0.7678
734	0.7283
725	0.639
716	0.7078
707	0.7482
698	0.7731
689	0.7883
680	0.8101
671	0.8244
662	0.8391
653	0.8339
644	0.8357
635	0.8375
626	0.8335
617	0.8168
608	0.8065
599	0.8043
590	0.8033
581	0.8051
572	0.8099
563	0.8146
554	0.8138
545	0.7955
536	0.7715
527	0.7761
518	0.786
509	0.7938
500	0.7995
491	0.8021
482	0.8037
473	0.8041
464	0.8039
455	0.8036
446	0.8034
437	0.8036
428	0.804
419	0.8045
410	0.8053
401	0.8067
