Infrared Spectrum: 1-Bromooctane
Formula: C 8 H 17 Br
CAS: 111-83-1
State: gas
Instrument: HP-GC/MS/IRD
Origin: NIST Mass Spectrometry Data Center
1/CM	ABSORBANCE
550	0.0004983
562	0.0010131
574	0.001089
586	0.0004752
598	8.58e-05
610	4.29e-05
622	0.0002937
634	0.0006072
646	0.0013497
658	0.0010824
670	0.0003366
682	0.000198
694	0.0002013
706	0.0003927
718	0.000726
730	0.0007458
742	0.000726
754	0.000528
766	0.0004917
778	0.0003663
790	0.0002673
802	0.0002838
814	0.0002343
826	0.0001617
838	0.0001551
850	0.0001452
862	0.0002145
874	0.0002574
886	0.0003168
898	0.000297
910	0.00033
922	0.0003432
934	0.0002541
946	0.0002343
958	0.0002079
970	0.0002079
982	0.000198
994	0.0002013
1006	0.0002046
1018	0.000264
1030	0.0002772
1042	0.0002475
1054	0.0002079
1066	0.0001881
1078	0.0001485
1090	0.0001254
1102	0.0001122
1114	6.6e-05
1126	4.95e-05
1138	4.62e-05
1150	7.26e-05
1162	0.0001947
1174	0.0002541
1186	0.0004092
1198	0.0007689
1210	0.0012738
1222	0.0021516
1234	0.0023529
1246	0.002574
1258	0.0031185
1270	0.0027423
1282	0.0021285
1294	0.0017721
1306	0.00132
1318	0.0009669
1330	0.0008415
1342	0.0010791
1354	0.0011979
1366	0.0009636
1378	0.0009603
1390	0.0008712
1402	0.0005742
1414	0.0006501
1426	0.0011253
1438	0.0023001
1450	0.0031185
1462	0.0034122
1474	0.0023166
1486	0.0010593
1498	0.0005742
1510	0.0004059
1522	0.0002805
1534	0.0002145
1546	0.0001716
1558	0.0001485
1570	0.0001155
1582	6.93e-05
1594	5.28e-05
1606	4.29e-05
1618	6.6e-05
1630	2.97e-05
1642	4.95e-05
1654	7.26e-05
1666	6.6e-05
1678	6.27e-05
1690	3.3e-05
1702	4.62e-05
1714	3.3e-05
1726	4.29e-05
1738	4.29e-05
1750	4.29e-05
1762	1.65e-05
1774	4.29e-05
1786	3.96e-05
1798	4.29e-05
1810	2.64e-05
1822	2.64e-05
1834	3.63e-05
1846	2.97e-05
1858	2.31e-05
1870	2.31e-05
1882	0
1894	2.64e-05
1906	9.9e-06
1918	2.97e-05
1930	3.3e-05
1942	3.63e-05
1954	9.9e-06
1966	1.32e-05
1978	1.65e-05
1990	1.65e-05
2002	1.65e-05
2014	6.27e-05
2026	5.94e-05
2038	6.93e-05
2050	5.94e-05
2062	3.63e-05
2074	3.96e-05
2086	3.96e-05
2098	1.98e-05
2110	1.98e-05
2122	6.6e-06
2134	4.29e-05
2146	2.31e-05
2158	2.31e-05
2170	3.3e-05
2182	3.3e-05
2194	3.63e-05
2206	5.28e-05
2218	2.97e-05
2230	2.31e-05
2242	4.62e-05
2254	2.31e-05
2266	3.96e-05
2278	9.9e-06
2290	2.64e-05
2302	3.3e-05
2314	6.27e-05
2326	4.95e-05
2338	7.26e-05
2350	8.58e-05
2362	6.93e-05
2374	7.26e-05
2386	4.62e-05
2398	6.93e-05
2410	6.6e-05
2422	5.28e-05
2434	4.62e-05
2446	5.94e-05
2458	5.61e-05
2470	5.61e-05
2482	5.94e-05
2494	7.26e-05
2506	4.29e-05
2518	9.57e-05
2530	9.24e-05
2542	0.0001188
2554	9.9e-05
2566	0.0001254
2578	0.0001485
2590	0.0001584
2602	0.0001584
2614	0.0001881
2626	0.0002211
2638	0.0002376
2650	0.0003003
2662	0.0003564
2674	0.0003795
2686	0.0004224
2698	0.0003828
2710	0.0003861
2722	0.0003894
2734	0.0004422
2746	0.0005148
2758	0.000495
2770	0.0005511
2782	0.0006996
2794	0.0009273
2806	0.001188
2818	0.0015939
2830	0.0023859
2842	0.0041613
2854	0.0085173
2866	0.0127083
2878	0.011517
2890	0.0099297
2902	0.0107217
2914	0.0160578
2926	0.0276111
2938	0.0327921
2950	0.0232914
2962	0.018315
2974	0.0154341
2986	0.0070224
2998	0.0038676
3010	0.0033
3022	0.0023397
3034	0.0013332
3046	0.0008811
3058	0.0007293
3070	0.0005742
3082	0.0005478
3094	0.0003993
3106	0.0003531
3118	0.0003696
3130	0.0002937
3142	0.0003036
3154	0.000264
3166	0.0002739
3178	0.0002442
3190	0.0002442
3202	0.0002013
3214	0.0001452
3226	0.0001782
3238	0.0001617
3250	0.0001089
3262	8.25e-05
3274	0.0001089
3286	5.28e-05
3298	9.57e-05
3310	6.6e-05
3322	0.0001023
3334	0.0001056
3346	0.0001122
3358	8.91e-05
3370	8.91e-05
3382	8.25e-05
3394	6.6e-05
3406	4.62e-05
3418	8.58e-05
3430	6.93e-05
3442	6.6e-05
3454	3.96e-05
3466	5.94e-05
3478	2.64e-05
3490	4.95e-05
3502	5.94e-05
3514	2.97e-05
3526	9.9e-06
3538	5.28e-05
3550	2.31e-05
3562	4.95e-05
3574	7.92e-05
3586	6.93e-05
3598	5.94e-05
3610	8.25e-05
3622	0.0001188
3634	6.6e-05
3646	9.9e-05
3658	9.9e-05
3670	0.0001023
3682	7.59e-05
3694	0.0001089
3706	0.000132
3718	9.57e-05
3730	0.0001419
3742	0.0001221
3754	0.0001089
3766	0.0001188
3778	0.0001155
3790	0.0001188
3802	0.0001716
3814	0.0001551
3826	0.0001254
3838	0.0002013
