Infrared Spectrum: Adipoyl dichloride
Formula: C 6 H 8 Cl 2 O 2
CAS: 111-50-2
State: gas
Instrument: HP-GC/MS/IRD
Origin: NIST Mass Spectrometry Data Center
1/CM	ABSORBANCE
550	0.00705
562	0.0068902
574	0.009964
586	0.008507
598	0.0052922
610	0.002303
622	0.0004606
634	5.64e-05
646	0.000376
658	0.0008366
670	0.0053204
682	0.0086104
694	0.0078396
706	0.004888
718	0.0059502
730	0.008272
742	0.0079054
754	0.0075482
766	0.006345
778	0.00564
790	0.0051136
802	0.0038634
814	0.0029516
826	0.0029328
838	0.0030832
850	0.0032806
862	0.0038822
874	0.003901
886	0.0037412
898	0.0051136
910	0.0086668
922	0.014382
934	0.0204638
946	0.0200408
958	0.0188282
970	0.0206236
982	0.0216106
994	0.0211594
1006	0.0201818
1018	0.0171738
1030	0.0117312
1042	0.0085352
1054	0.0074354
1066	0.0076234
1078	0.0079618
1090	0.0077174
1102	0.0058656
1114	0.0036472
1126	0.0030456
1138	0.0034404
1150	0.0045402
1162	0.0063074
1174	0.0062322
1186	0.004371
1198	0.0034028
1210	0.0025944
1222	0.0022748
1234	0.0022654
1246	0.0021526
1258	0.0020116
1270	0.002303
1282	0.0024816
1294	0.002444
1306	0.0021996
1318	0.0018894
1330	0.0023594
1342	0.0033182
1354	0.0038822
1366	0.0040984
1378	0.0037976
1390	0.003572
1402	0.0041924
1414	0.0057622
1426	0.0052076
1438	0.003995
1450	0.0042394
1462	0.0041266
1474	0.0019928
1486	0.0007708
1498	0.0003008
1510	9.4e-06
1522	9.4e-06
1534	4.7e-05
1546	0.000141
1558	0.0002632
1570	0.0009588
1582	0.0014758
1594	0.0011938
1606	0.0012032
1618	0.0015322
1630	0.001739
1642	0.002021
1654	0.0022466
1666	0.0020116
1678	0.002491
1690	0.0037318
1702	0.0063826
1714	0.0101426
1726	0.0109416
1738	0.008507
1750	0.0110732
1762	0.0160928
1774	0.0239982
1786	0.0431272
1798	0.078819
1810	0.0920166
1822	0.0575374
1834	0.0262072
1846	0.0124362
1858	0.0073038
1870	0.0050384
1882	0.0037788
1894	0.0029328
1906	0.0023124
1918	0.0018612
1930	0.001551
1942	0.0012878
1954	0.0011468
1966	0.0009588
1978	0.0008178
1990	0.0007614
2002	0.000705
2014	0.0006392
2026	0.0005734
2038	0.000564
2050	0.0006298
2062	0.0008554
2074	0.0012126
2086	0.0016356
2098	0.0029328
2110	0.0071534
2122	0.017343
2134	0.0253894
2146	0.0196084
2158	0.0055366
2170	0.0024722
2182	0.0013536
2194	0.0007332
2206	0.0004982
2218	0.0004794
2230	0.0005076
2242	0.000564
2254	0.000611
2266	0.0006392
2278	0.0009212
2290	0.001645
2302	0.0029986
2314	0.004747
2326	0.0057528
2338	0.0052734
2350	0.0044368
2362	0.0074072
2374	0.0054708
2386	0.00141
2398	0.0003102
2410	0.0002538
2422	0.000188
2434	0.0001786
2446	9.4e-05
2458	6.58e-05
2470	6.58e-05
2482	6.58e-05
2494	1.88e-05
2506	4.7e-05
2518	9.4e-05
2530	4.7e-05
2542	0.0001222
2554	0.0001128
2566	9.4e-05
2578	9.4e-06
2590	5.64e-05
2602	0.0001598
2614	4.7e-05
2626	0.0003478
2638	0.0001786
2650	0.0005452
2662	0.0001222
2674	0.0005358
2686	0.0001504
2698	0.0004794
2710	0.0002632
2722	0.0005264
2734	0.0003854
2746	0.0006016
2758	0.0005546
2770	0.0007802
2782	0.0005358
2794	0.0011092
2806	0.0005358
2818	0.001645
2830	0.0009024
2842	0.0021808
2854	0.0015228
2866	0.0032336
2878	0.0040608
2890	0.0041642
2902	0.0039762
2914	0.0042676
2926	0.0075106
2938	0.0084506
2950	0.0105092
2962	0.0131882
2974	0.0105186
2986	0.006862
2998	0.0046248
3010	0.0021056
3022	0.0008648
3034	0.0010058
3046	0.0011844
3058	0.0008742
3070	0.0006204
3082	0.000329
3094	0.0002444
3106	0.0002256
3118	0.0002068
3130	0.0002444
3142	0.0002162
3154	0.0002068
3166	9.4e-05
3178	0.0001598
3190	0.0002162
3202	0.0001034
3214	8.46e-05
3226	0.0001034
3238	9.4e-06
3250	9.4e-05
3262	5.64e-05
3274	1.88e-05
3286	8.46e-05
3298	6.58e-05
3310	9.4e-05
3322	0.0001222
3334	5.64e-05
3346	4.7e-05
3358	6.58e-05
3370	4.7e-05
3382	4.7e-05
3394	5.64e-05
3406	0.0001504
3418	0.0001504
3430	0.0001974
3442	7.52e-05
3454	7.52e-05
3466	1.88e-05
3478	0.0001034
3490	0.0002726
3502	0.0003196
3514	0.0003102
3526	0.0002632
3538	0.0002914
3550	0.0004042
3562	0.000705
3574	0.0012972
3586	0.0016168
3598	0.0015698
3610	0.0010716
3622	0.0006956
3634	0.0005734
3646	0.0003572
3658	0.0001316
3670	0.0001598
3682	6.58e-05
3694	0.0001222
3706	7.52e-05
3718	9.4e-06
3730	3.76e-05
3742	5.64e-05
3754	9.4e-06
3766	1.88e-05
3778	8.46e-05
3790	9.4e-06
3802	9.4e-06
3814	4.7e-05
3826	9.4e-06
3838	9.4e-06
