Infrared Spectrum: DIETHYLENETRIAMINE
Formula: C4 H13 N3
CAS: 111-40-0
State: LIQUID (NEAT)
Class: COBLENTZ III
Instrument: BECKMAN IR-4 (HYBRID PRISM-GRATING)
Sampling: TRANSMISSION
Path length: CAPILLARY
Resolution: 4
Origin: UNIVERSITY OF FLORIDA
MICROMETERS	TRANSMITTANCE
0.959	0.877
0.995619	0.878
1.03224	0.879
1.06886	0.879
1.10548	0.879
1.1421	0.878
1.17872	0.877
1.21534	0.877
1.25196	0.875
1.28857	0.87
1.32519	0.876
1.36181	0.886
1.39843	0.885
1.43505	0.884
1.47167	0.884
1.50829	0.884
1.54491	0.884
1.58153	0.884
1.61815	0.886
1.65477	0.89
1.69139	0.89
1.72801	0.89
1.76463	0.888
1.80125	0.886
1.83787	0.885
1.87449	0.881
1.9111	0.869
1.94772	0.869
1.98434	0.881
2.02096	0.872
2.05758	0.873
2.0942	0.877
2.13082	0.878
2.16744	0.875
2.20406	0.869
2.24068	0.856
2.2773	0.852
2.31392	0.853
2.35054	0.861
2.38716	0.868
2.42378	0.871
2.4604	0.877
2.49702	0.879
2.53363	0.879
2.57025	0.878
2.60687	0.876
2.64349	0.871
2.68011	0.869
2.71673	0.861
2.75335	0.854
2.78997	0.842
2.82659	0.822
2.86321	0.795
2.89983	0.751
2.93645	0.672
2.97307	0.454
3.00969	0.324
3.04631	0.283
3.08293	0.312
3.11955	0.419
3.15617	0.498
3.19278	0.615
3.2294	0.71
3.26602	0.741
3.30264	0.737
3.33926	0.688
3.37588	0.444
3.4125	0.139
3.44912	0.134
3.48574	0.14
3.52236	0.139
3.55898	0.167
3.5956	0.349
3.63222	0.491
3.66884	0.564
3.70546	0.639
3.74208	0.675
3.7787	0.73
3.81531	0.781
3.85193	0.818
3.88855	0.837
3.92517	0.853
3.96179	0.862
3.99841	0.869
4.03503	0.871
4.07165	0.877
4.10827	0.881
4.14489	0.882
4.18151	0.882
4.21813	0.879
4.25475	0.882
4.29137	0.882
4.32799	0.882
4.36461	0.883
4.40123	0.882
4.43784	0.882
4.47446	0.883
4.51108	0.883
4.5477	0.884
4.58432	0.884
4.62094	0.885
4.65756	0.882
4.69418	0.881
4.7308	0.879
4.76742	0.877
4.80404	0.876
4.84066	0.874
4.87728	0.871
4.9139	0.87
4.95052	0.867
4.98714	0.864
5.02376	0.859
5.06037	0.858
5.09699	0.853
5.13361	0.851
5.17023	0.849
5.20685	0.849
5.24347	0.849
5.28009	0.852
5.31671	0.856
5.35333	0.86
5.38995	0.861
5.42657	0.863
5.46319	0.864
5.49981	0.865
5.53643	0.865
5.57305	0.864
5.60967	0.862
5.64629	0.858
5.6829	0.854
5.71952	0.846
5.75614	0.842
5.79276	0.838
5.82938	0.817
5.866	0.806
5.90262	0.792
5.93924	0.774
5.97586	0.753
6.01248	0.72
6.0491	0.68
6.08572	0.63
6.12234	0.566
6.15896	0.512
6.19558	0.421
6.2322	0.385
6.26882	0.376
6.30544	0.402
6.34205	0.466
6.37867	0.531
6.41529	0.617
6.45191	0.669
6.48853	0.703
6.52515	0.709
6.56177	0.708
6.59839	0.702
6.63501	0.684
6.67163	0.661
6.70825	0.612
6.74487	0.555
6.78149	0.445
6.81811	0.378
6.85473	0.361
6.89135	0.369
6.92797	0.416
6.96458	0.51
7.0012	0.643
7.03782	0.718
7.07444	0.734
7.11106	0.727
7.14768	0.693
7.1843	0.655
7.22092	0.64
7.25754	0.637
7.29416	0.621
7.33078	0.574
7.3674	0.55
7.40402	0.552
7.44064	0.569
7.47726	0.592
7.51388	0.614
7.5505	0.646
7.58711	0.646
7.62373	0.631
7.66035	0.621
7.69697	0.626
7.73359	0.639
7.77021	0.659
7.80683	0.673
7.84345	0.678
7.88007	0.67
7.91669	0.674
7.95331	0.68
7.98993	0.691
8.02655	0.694
8.06317	0.694
8.09979	0.695
8.13641	0.698
8.17303	0.701
8.20964	0.704
8.24626	0.702
8.28288	0.698
8.3195	0.687
8.35612	0.672
8.39274	0.663
8.42936	0.659
8.46598	0.652
8.5026	0.648
8.53922	0.629
8.57584	0.62
8.61246	0.616
8.64908	0.601
8.6857	0.58
8.72232	0.535
8.75894	0.472
8.79556	0.411
8.83217	0.347
8.86879	0.324
8.90541	0.332
8.94203	0.368
8.97865	0.418
9.01527	0.472
9.05189	0.492
9.08851	0.498
9.12513	0.492
9.16175	0.471
9.19837	0.449
9.23499	0.44
9.27161	0.431
9.30823	0.42
9.34485	0.407
9.38147	0.391
9.41809	0.397
9.45471	0.4
9.49132	0.416
9.52794	0.435
9.56456	0.441
9.60118	0.439
9.6378	0.436
9.67442	0.437
9.71104	0.448
9.74766	0.459
9.78428	0.484
9.8209	0.5
9.85752	0.516
9.89414	0.521
9.93076	0.521
9.96738	0.521
10.004	0.525
10.0406	0.527
10.0772	0.528
10.1139	0.526
10.1505	0.521
10.1871	0.518
10.2237	0.508
10.2603	0.496
10.297	0.48
10.3336	0.458
10.3702	0.437
10.4068	0.411
10.4434	0.389
10.48	0.37
10.5167	0.341
10.5533	0.327
10.5899	0.302
10.6265	0.28
10.6631	0.263
10.6998	0.248
10.7364	0.229
10.773	0.217
10.8096	0.205
10.8462	0.197
10.8829	0.184
10.9195	0.175
10.9561	0.169
10.9927	0.167
11.0293	0.161
11.066	0.159
11.1026	0.158
11.1392	0.159
11.1758	0.161
11.2124	0.16
11.2491	0.162
11.2857	0.164
11.3223	0.165
11.3589	0.167
11.3955	0.165
11.4322	0.162
11.4688	0.161
11.5054	0.161
11.542	0.159
11.5786	0.156
11.6153	0.156
11.6519	0.151
11.6885	0.149
11.7251	0.147
11.7617	0.145
11.7983	0.145
11.835	0.143
11.8716	0.141
11.9082	0.14
11.9448	0.141
11.9814	0.14
12.0181	0.141
12.0547	0.144
12.0913	0.148
12.1279	0.151
12.1645	0.158
12.2012	0.162
12.2378	0.169
12.2744	0.172
12.311	0.181
12.3476	0.186
12.3843	0.191
12.4209	0.194
12.4575	0.199
12.4941	0.201
12.5307	0.201
12.5674	0.202
12.604	0.203
12.6406	0.204
12.6772	0.204
12.7138	0.205
12.7505	0.205
12.7871	0.205
12.8237	0.206
12.8603	0.206
12.8969	0.206
12.9335	0.207
12.9702	0.209
13.0068	0.213
13.0434	0.218
13.08	0.218
13.1166	0.229
13.1533	0.231
13.1899	0.24
13.2265	0.249
13.2631	0.251
13.2997	0.257
13.3364	0.265
13.373	0.271
13.4096	0.279
13.4462	0.287
13.4828	0.298
13.5195	0.307
13.5561	0.312
13.5927	0.32
13.6293	0.329
13.6659	0.34
13.7026	0.344
13.7392	0.35
13.7758	0.358
13.8124	0.364
13.849	0.369
13.8857	0.374
13.9223	0.382
13.9589	0.39
13.9955	0.397
14.0321	0.401
14.0688	0.407
14.1054	0.412
14.142	0.419
14.1786	0.421
14.2152	0.43
14.2518	0.436
14.2885	0.438
14.3251	0.443
14.3617	0.448
14.3983	0.449
14.4349	0.453
14.4716	0.457
14.5082	0.46
14.5448	0.462
14.5814	0.466
14.618	0.469
14.6547	0.471
14.6913	0.477
14.7279	0.479
14.7645	0.482
14.8011	0.484
14.8378	0.484
14.8744	0.482
14.911	0.483
14.9476	0.483
14.9842	0.481
