Infrared Spectrum: 1-Octanethiol
Formula: C 8 H 18 S
CAS: 111-88-6
State: gas
Instrument: HP-GC/MS/IRD
Origin: NIST Mass Spectrometry Data Center
1/CM	ABSORBANCE
550	0.000238
562	7.14e-05
574	0.0002448
586	6.12e-05
598	4.42e-05
610	6.8e-06
622	0.0001258
634	0.0001156
646	0.0001156
658	0.000153
670	0.0002142
682	0.0001904
694	0.0004012
706	0.000629
718	0.0007548
730	0.0007922
742	0.0006358
754	0.0004726
766	0.0004692
778	0.0004182
790	0.0003298
802	0.000272
814	0.0002482
826	0.0002414
838	0.0002142
850	0.0002346
862	0.000204
874	0.0002448
886	0.000255
898	0.000323
910	0.0003026
922	0.0002482
934	0.000221
946	0.0002244
958	0.0002244
970	0.000221
982	0.0001802
994	0.0001292
1006	0.000187
1018	0.0002142
1030	0.0002142
1042	0.0003502
1054	0.0003026
1066	0.000221
1078	0.0001836
1090	0.0001462
1102	0.0001802
1114	0.0001972
1126	0.0001598
1138	0.0001258
1150	0.0001462
1162	0.0001904
1174	0.000255
1186	0.000221
1198	0.0002312
1210	0.0003332
1222	0.0004862
1234	0.000697
1246	0.0008942
1258	0.0009996
1270	0.0012852
1282	0.001462
1294	0.0014484
1306	0.001309
1318	0.0010064
1330	0.0008296
1342	0.0009996
1354	0.0010812
1366	0.0009418
1378	0.0009214
1390	0.0007956
1402	0.0005712
1414	0.0006086
1426	0.0009724
1438	0.00187
1450	0.0026452
1462	0.002975
1474	0.0020502
1486	0.000986
1498	0.0005236
1510	0.00034
1522	0.0002618
1534	0.0001904
1546	0.0001666
1558	0.0001326
1570	0.0001088
1582	0.0001088
1594	8.84e-05
1606	8.5e-05
1618	7.14e-05
1630	3.74e-05
1642	6.46e-05
1654	5.1e-05
1666	6.46e-05
1678	7.48e-05
1690	6.46e-05
1702	6.12e-05
1714	4.08e-05
1726	5.78e-05
1738	5.44e-05
1750	3.06e-05
1762	3.74e-05
1774	2.72e-05
1786	5.1e-05
1798	2.38e-05
1810	1.02e-05
1822	3.4e-06
1834	2.04e-05
1846	1.36e-05
1858	1.7e-05
1870	1.7e-05
1882	2.04e-05
1894	4.08e-05
1906	2.04e-05
1918	1.36e-05
1930	4.08e-05
1942	2.04e-05
1954	2.04e-05
1966	2.72e-05
1978	2.04e-05
1990	2.38e-05
2002	3.4e-05
2014	2.72e-05
2026	3.74e-05
2038	6.8e-05
2050	4.76e-05
2062	5.44e-05
2074	3.74e-05
2086	3.4e-05
2098	6.8e-06
2110	2.04e-05
2122	2.72e-05
2134	2.72e-05
2146	3.74e-05
2158	5.1e-05
2170	4.76e-05
2182	2.72e-05
2194	1.02e-05
2206	1.7e-05
2218	2.04e-05
2230	1.02e-05
2242	4.42e-05
2254	1.02e-05
2266	1.7e-05
2278	1.7e-05
2290	4.08e-05
2302	9.18e-05
2314	0.0001428
2326	0.0002346
2338	0.0002448
2350	0.0001734
2362	0.0003298
2374	0.00017
2386	6.12e-05
2398	7.82e-05
2410	6.8e-05
2422	5.44e-05
2434	3.74e-05
2446	2.38e-05
2458	5.1e-05
2470	4.08e-05
2482	7.14e-05
2494	7.82e-05
2506	6.46e-05
2518	9.18e-05
2530	9.86e-05
2542	0.0001258
2554	0.0001292
2566	0.0001836
2578	0.0002924
2590	0.0004352
2602	0.0003638
2614	0.0003026
2626	0.0002516
2638	0.0002652
2650	0.0002686
2662	0.0003468
2674	0.0003978
2686	0.0003978
2698	0.0003808
2710	0.0003774
2722	0.0003638
2734	0.000459
2746	0.0005202
2758	0.0005202
2770	0.0005712
2782	0.0007174
2794	0.000901
2806	0.001156
2818	0.0015402
2830	0.0022066
2842	0.0040596
2854	0.008602
2866	0.012257
2878	0.0108018
2890	0.0090066
2902	0.0099892
2914	0.0162656
2926	0.0288932
2938	0.0332248
2950	0.0227256
2962	0.0175576
2974	0.0136986
2986	0.0059092
2998	0.0029444
3010	0.001921
3022	0.0014008
3034	0.0009894
3046	0.000799
3058	0.0005984
3070	0.0005372
3082	0.0004454
3094	0.0003638
3106	0.0003094
3118	0.0003094
3130	0.000306
3142	0.0002822
3154	0.0002244
3166	0.000221
3178	0.0002244
3190	0.0002176
3202	0.0001836
3214	0.0001462
3226	0.0001564
3238	8.84e-05
3250	9.52e-05
3262	0.0001462
3274	0.0001122
3286	7.48e-05
3298	7.14e-05
3310	0.0001156
3322	0.000119
3334	2.38e-05
3346	8.84e-05
3358	9.52e-05
3370	7.14e-05
3382	9.18e-05
3394	0.0001258
3406	6.8e-05
3418	0.000119
3430	9.18e-05
3442	3.74e-05
3454	3.74e-05
3466	1.36e-05
3478	7.82e-05
3490	6.8e-05
3502	6.8e-06
3514	4.42e-05
3526	3.74e-05
3538	7.14e-05
3550	6.46e-05
3562	7.14e-05
3574	6.46e-05
3586	0.000102
3598	2.38e-05
3610	8.5e-05
3622	0.000136
3634	4.42e-05
3646	6.8e-05
3658	6.46e-05
3670	8.5e-05
3682	0.000136
3694	0.0001394
3706	7.48e-05
3718	9.18e-05
3730	5.44e-05
3742	6.8e-05
3754	8.84e-05
3766	0.0001088
3778	8.16e-05
3790	5.78e-05
3802	9.18e-05
3814	7.48e-05
3826	0.0001088
3838	1.02e-05
