Infrared Spectrum: MONO OLEIN
Formula: C21 H40 O4
CAS: 111-03-5
State: SOLUTION (9% CS2 FOR 5000-2380 AND 1330-625, 9% C2Cl4 FOR 2380-1330 CM^-^1)
Class: COBLENTZ
Instrument: PERKIN-ELMER
Sampling: TRANSMISSION
Path length: 0.01 CM, 0.01 CM
Resolution: 4
Origin: HORMEL INSTITUTE
MICROMETERS	TRANSMITTANCE
2.034	0.9
2.06786	0.898
2.10172	0.901
2.13558	0.901
2.16944	0.9
2.2033	0.9
2.23716	0.9
2.27102	0.889
2.30487	0.877
2.33873	0.876
2.37259	0.874
2.40645	0.877
2.44031	0.879
2.47417	0.883
2.50803	0.886
2.54189	0.888
2.57575	0.889
2.60961	0.891
2.64347	0.891
2.67733	0.891
2.71119	0.889
2.74505	0.861
2.77891	0.757
2.81277	0.605
2.84662	0.506
2.88048	0.413
2.91434	0.381
2.9482	0.379
2.98206	0.396
3.01592	0.437
3.04978	0.501
3.08364	0.583
3.1175	0.655
3.15136	0.71
3.18522	0.757
3.21908	0.781
3.25294	0.794
3.2868	0.788
3.32066	0.596
3.35452	0.537
3.38837	0.14
3.42223	0.052
3.45609	0.223
3.48995	0.174
3.52381	0.377
3.55767	0.713
3.59153	0.783
3.62539	0.805
3.65925	0.813
3.69311	0.823
3.72697	0.828
3.76083	0.83
3.79469	0.838
3.82855	0.85
3.86241	0.855
3.89627	0.861
3.93012	0.862
3.96398	0.871
3.99784	0.874
4.0317	0.876
4.06556	0.881
4.09942	0.883
4.13328	0.884
4.16714	0.884
4.201	0.884
4.23486	0.881
4.26872	0.883
4.30258	0.889
4.33644	0.893
4.3703	0.893
4.40416	0.894
4.43802	0.896
4.47187	0.896
4.50573	0.896
4.53959	0.896
4.57345	0.896
4.60731	0.896
4.64117	0.896
4.67503	0.896
4.70889	0.896
4.74275	0.894
4.77661	0.894
4.81047	0.893
4.84433	0.893
4.87819	0.893
4.91205	0.893
4.94591	0.893
4.97976	0.893
5.01362	0.893
5.04748	0.893
5.08134	0.893
5.1152	0.893
5.14906	0.893
5.18292	0.893
5.21678	0.893
5.25064	0.893
5.2845	0.893
5.31836	0.893
5.35222	0.893
5.38608	0.893
5.41994	0.884
5.4538	0.883
5.48766	0.877
5.52151	0.871
5.55537	0.862
5.58923	0.849
5.62309	0.813
5.65695	0.71
5.69081	0.41
5.72467	0.184
5.75853	0.24
5.79239	0.289
5.82625	0.445
5.86011	0.632
5.89397	0.727
5.92783	0.783
5.96169	0.798
5.99555	0.803
6.02941	0.796
6.06326	0.815
6.09712	0.827
6.13098	0.833
6.16484	0.838
6.1987	0.849
6.23256	0.852
6.26642	0.854
6.30028	0.854
6.33414	0.854
6.368	0.854
6.40186	0.854
6.43572	0.854
6.46958	0.854
6.50344	0.854
6.5373	0.852
6.57116	0.849
6.60501	0.842
6.63887	0.833
6.67273	0.816
6.70659	0.788
6.74045	0.737
6.77431	0.549
6.80817	0.376
6.84203	0.383
6.87589	0.462
6.90975	0.501
6.94361	0.527
6.97747	0.576
7.01133	0.564
7.04519	0.561
7.07905	0.579
7.11291	0.566
7.14676	0.549
7.18062	0.525
7.21448	0.501
7.24834	0.503
7.2822	0.537
7.31606	0.549
7.34992	0.552
7.38378	0.552
7.41764	0.547
7.4515	0.54
7.48536	0.533
7.51922	0.528
7.55308	0.518
7.58694	0.513
7.6208	0.513
7.65465	0.515
7.68851	0.513
7.72237	0.513
7.75623	0.503
7.79009	0.483
7.82395	0.464
7.85781	0.464
7.89167	0.462
7.92553	0.457
7.95939	0.445
7.99325	0.433
8.02711	0.418
8.06097	0.411
8.09483	0.42
8.12869	0.43
8.16255	0.44
8.1964	0.442
8.23026	0.437
8.26412	0.43
8.29798	0.416
8.33184	0.389
8.3657	0.357
8.39956	0.333
8.43342	0.315
8.46728	0.289
8.50114	0.279
8.535	0.276
8.56886	0.291
8.60272	0.33
8.63658	0.379
8.67044	0.432
8.7043	0.471
8.73815	0.491
8.77201	0.505
8.80587	0.508
8.83973	0.479
8.87359	0.42
8.90745	0.381
8.94131	0.362
8.97517	0.372
9.00903	0.408
9.04289	0.435
9.07675	0.449
9.11061	0.449
9.14447	0.449
9.17833	0.45
9.21219	0.454
9.24605	0.462
9.2799	0.464
9.31376	0.452
9.34762	0.432
9.38148	0.398
9.41534	0.372
9.4492	0.345
9.48306	0.338
9.51692	0.337
9.55078	0.345
9.58464	0.367
9.6185	0.401
9.65236	0.428
9.68622	0.461
9.72008	0.491
9.75394	0.52
9.7878	0.54
9.82165	0.549
9.85551	0.562
9.88937	0.577
9.92323	0.588
9.95709	0.591
9.99095	0.6
10.0248	0.6
10.0587	0.596
10.0925	0.593
10.1264	0.591
10.1602	0.594
10.1941	0.615
10.228	0.633
10.2618	0.659
10.2957	0.676
10.3295	0.691
10.3634	0.705
10.3973	0.71
10.4311	0.716
10.465	0.718
10.4988	0.72
10.5327	0.718
10.5666	0.716
10.6004	0.705
10.6343	0.694
10.6681	0.689
10.702	0.681
10.7359	0.676
10.7697	0.676
10.8036	0.676
10.8374	0.679
10.8713	0.689
10.9052	0.7
10.939	0.71
10.9729	0.718
11.0067	0.73
11.0406	0.74
11.0745	0.742
11.1083	0.747
11.1422	0.754
11.176	0.757
11.2099	0.757
11.2437	0.757
11.2776	0.757
11.3115	0.755
11.3453	0.75
11.3792	0.744
11.413	0.737
11.4469	0.733
11.4808	0.73
11.5146	0.73
11.5485	0.728
11.5823	0.728
11.6162	0.728
11.6501	0.727
11.6839	0.727
11.7178	0.727
11.7516	0.728
11.7855	0.732
11.8194	0.74
11.8532	0.744
11.8871	0.749
11.9209	0.757
11.9548	0.759
11.9887	0.761
12.0225	0.766
12.0564	0.771
12.0902	0.772
12.1241	0.772
12.158	0.774
12.1918	0.774
12.2257	0.776
12.2595	0.777
12.2934	0.779
12.3272	0.783
12.3611	0.786
12.395	0.788
12.4288	0.789
12.4627	0.789
12.4965	0.789
12.5304	0.791
12.5643	0.791
12.5981	0.793
12.632	0.793
12.6658	0.793
12.6997	0.791
12.7336	0.791
12.7674	0.789
12.8013	0.788
12.8351	0.786
12.869	0.784
12.9029	0.781
12.9367	0.779
12.9706	0.774
13.0044	0.769
13.0383	0.761
13.0722	0.754
13.106	0.742
13.1399	0.73
13.1737	0.72
13.2076	0.716
13.2415	0.716
13.2753	0.716
13.3092	0.716
13.343	0.716
13.3769	0.716
13.4107	0.715
13.4446	0.708
13.4785	0.703
13.5123	0.694
13.5462	0.686
13.58	0.671
13.6139	0.657
13.6478	0.649
13.6816	0.64
13.7155	0.627
13.7493	0.611
13.7832	0.596
13.8171	0.577
13.8509	0.572
13.8848	0.571
13.9186	0.572
13.9525	0.584
13.9864	0.601
14.0202	0.61
14.0541	0.62
14.0879	0.627
14.1218	0.635
14.1557	0.642
14.1895	0.647
14.2234	0.647
14.2572	0.649
14.2911	0.654
14.325	0.657
14.3588	0.657
14.3927	0.657
14.4265	0.659
14.4604	0.659
14.4942	0.659
14.5281	0.659
14.562	0.659
14.5958	0.661
14.6297	0.659
14.6635	0.662
14.6974	0.666
14.7313	0.669
14.7651	0.674
14.799	0.676
14.8328	0.679
14.8667	0.684
14.9006	0.691
14.9344	0.691
14.9683	0.691
15.0021	0.696
15.036	0.703
15.0699	0.703
15.1037	0.705
15.1376	0.706
15.1714	0.708
15.2053	0.71
15.2392	0.713
15.273	0.715
15.3069	0.716
15.3407	0.716
15.3746	0.716
15.4085	0.72
15.4423	0.72
15.4762	0.722
15.51	0.727
