Infrared Spectrum: PIMELIC ACID
Formula: C7 H12 O4
CAS: 111-16-0
State: SOLID (KBr PELLET)
Melting point: 104.5-105 C
Class: COBLENTZ
Instrument: Not specified, most likely a prism, grating, or hybrid spectrometer.
Sampling: TRANSMISSION
Resolution: 4
Origin: TENNESSEE EASTMAN COMPANY, RESEARCH LABORATORIES
MICROMETERS	TRANSMITTANCE
2.034	0.757
2.07486	0.757
2.11571	0.76
2.15657	0.762
2.19742	0.769
2.23828	0.772
2.27913	0.777
2.31999	0.779
2.36084	0.784
2.4017	0.794
2.44256	0.8
2.48341	0.805
2.52427	0.81
2.56512	0.811
2.60598	0.815
2.64683	0.82
2.68769	0.823
2.72855	0.823
2.7694	0.81
2.81026	0.8
2.85111	0.791
2.89197	0.777
2.93282	0.77
2.97368	0.762
3.01453	0.747
3.05539	0.712
3.09625	0.654
3.1371	0.581
3.17796	0.517
3.21881	0.413
3.25967	0.377
3.30052	0.34
3.34138	0.357
3.38224	0.251
3.42309	0.343
3.46395	0.389
3.5048	0.507
3.54566	0.56
3.58651	0.567
3.62737	0.586
3.66822	0.594
3.70908	0.565
3.74994	0.582
3.79079	0.589
3.83165	0.601
3.8725	0.656
3.91336	0.676
3.95421	0.688
3.99507	0.757
4.03592	0.8
4.07678	0.83
4.11764	0.858
4.15849	0.88
4.19935	0.9
4.2402	0.899
4.28106	0.895
4.32191	0.909
4.36277	0.935
4.40363	0.943
4.44448	0.948
4.48534	0.95
4.52619	0.953
4.56705	0.95
4.6079	0.95
4.64876	0.952
4.68961	0.953
4.73047	0.957
4.77133	0.955
4.81218	0.953
4.85304	0.955
4.89389	0.952
4.93475	0.953
4.9756	0.952
5.01646	0.953
5.05732	0.95
5.09817	0.948
5.13903	0.943
5.17988	0.943
5.22074	0.943
5.26159	0.936
5.30245	0.931
5.3433	0.924
5.38416	0.923
5.42502	0.919
5.46587	0.902
5.50673	0.878
5.54758	0.849
5.58844	0.839
5.62929	0.825
5.67015	0.8
5.711	0.736
5.75186	0.584
5.79272	0.263
5.83357	0.049
5.87443	0.032
5.91528	0.09
5.95614	0.463
5.99699	0.68
6.03785	0.758
6.07871	0.823
6.11956	0.846
6.16042	0.878
6.20127	0.904
6.24213	0.923
6.28298	0.933
6.32384	0.926
6.36469	0.926
6.40555	0.916
6.44641	0.917
6.48726	0.917
6.52812	0.917
6.56897	0.916
6.60983	0.912
6.65068	0.921
6.69154	0.911
6.7324	0.866
6.77325	0.627
6.81411	0.738
6.85496	0.714
6.89582	0.548
6.93667	0.377
6.97753	0.47
7.01838	0.504
7.05924	0.393
7.1001	0.647
7.14095	0.789
7.18181	0.852
7.22266	0.871
7.26352	0.856
7.30437	0.856
7.34523	0.818
7.38608	0.726
7.42694	0.692
7.4678	0.8
7.50865	0.858
7.54951	0.827
7.59036	0.707
7.63122	0.565
7.67207	0.533
7.71293	0.478
7.75379	0.55
7.79464	0.49
7.8355	0.21
7.87635	0.22
7.91721	0.509
7.95806	0.705
7.99892	0.692
8.03977	0.675
8.08063	0.77
8.12149	0.606
8.16234	0.7
8.2032	0.729
8.24405	0.702
8.28491	0.401
8.32576	0.488
8.36662	0.745
8.40748	0.834
8.44833	0.866
8.48919	0.887
8.53004	0.9
8.5709	0.909
8.61175	0.916
8.65261	0.914
8.69346	0.894
8.73432	0.794
8.77518	0.835
8.81603	0.899
8.85689	0.917
8.89774	0.921
8.9386	0.923
8.97945	0.924
9.02031	0.926
9.06116	0.919
9.10202	0.894
9.14288	0.839
9.18373	0.762
9.22459	0.858
9.26544	0.899
9.3063	0.919
9.34715	0.921
9.38801	0.926
9.42887	0.929
9.46972	0.929
9.51058	0.933
9.55143	0.929
9.59229	0.924
9.63314	0.9
9.674	0.883
9.71485	0.87
9.75571	0.871
9.79657	0.887
9.83742	0.892
9.87828	0.902
9.91913	0.911
9.95999	0.917
10.0008	0.917
10.0417	0.917
10.0826	0.911
10.1234	0.909
10.1643	0.902
10.2051	0.895
10.246	0.887
10.2868	0.875
10.3277	0.858
10.3685	0.849
10.4094	0.837
10.4503	0.822
10.4911	0.8
10.532	0.762
10.5728	0.724
10.6137	0.658
10.6545	0.611
10.6954	0.567
10.7362	0.524
10.7771	0.49
10.818	0.478
10.8588	0.475
10.8997	0.502
10.9405	0.548
10.9814	0.6
11.0222	0.656
11.0631	0.702
11.1039	0.74
11.1448	0.767
11.1857	0.794
11.2265	0.822
11.2674	0.837
11.3082	0.852
11.3491	0.868
11.3899	0.882
11.4308	0.895
11.4716	0.909
11.5125	0.928
11.5534	0.938
11.5942	0.945
11.6351	0.952
11.6759	0.953
11.7168	0.96
11.7576	0.965
11.7985	0.97
11.8393	0.976
11.8802	0.977
11.9211	0.976
11.9619	0.969
12.0028	0.965
12.0436	0.977
12.0845	0.991
12.1253	0.994
12.1662	0.998
12.207	1
12.2479	1
12.2888	1
12.3296	1
12.3705	1
12.4113	1
12.4522	1.003
12.493	1.003
12.5339	1
12.5747	1
12.6156	1
12.6565	1
12.6973	1
12.7382	0.998
12.779	0.998
12.8199	0.998
12.8607	1
12.9016	1
12.9424	0.996
12.9833	0.994
13.0242	0.993
13.065	0.993
13.1059	0.994
13.1467	0.996
13.1876	0.996
13.2284	0.996
13.2693	0.994
13.3101	0.989
13.351	0.982
13.3919	0.979
13.4327	0.967
13.4736	0.948
13.5144	0.919
13.5553	0.864
13.5961	0.818
13.637	0.81
13.6778	0.856
13.7187	0.914
13.7596	0.941
13.8004	0.95
13.8413	0.952
13.8821	0.953
13.923	0.953
13.9638	0.952
14.0047	0.948
14.0455	0.94
14.0864	0.928
14.1273	0.911
14.1681	0.894
14.209	0.876
14.2498	0.854
14.2907	0.842
14.3315	0.832
14.3724	0.827
14.4132	0.818
14.4541	0.82
14.495	0.818
14.5358	0.818
14.5767	0.82
14.6175	0.822
14.6584	0.822
14.6992	0.822
14.7401	0.818
14.781	0.817
14.8218	0.813
14.8627	0.81
14.9035	0.8
14.9444	0.784
14.9852	0.777
15.0261	0.777
15.0669	0.789
15.1078	0.793
15.1487	0.788
15.1895	0.781
15.2304	0.77
15.2712	0.762
15.3121	0.752
15.3529	0.743
15.3938	0.733
15.4346	0.723
15.4755	0.721
15.5164	0.716
15.5572	0.702
15.5981	0.697
15.6389	0.688
15.6798	0.682
15.7206	0.671
15.7615	0.663
15.8023	0.652
15.8432	0.644
15.8841	0.632
15.9249	0.627
15.9658	0.62
