Infrared Spectrum: Methyl-2-octynoate
Formula: C 9 H 14 O 2
CAS: 111-12-6
State: gas
Instrument: HP-GC/MS/IRD
Origin: NIST Mass Spectrometry Data Center
1/CM	ABSORBANCE
550	0.0009504
562	0.0004488
574	0.0002552
586	0.00022
598	6.16e-05
610	4.4e-05
622	0
634	7.04e-05
646	7.92e-05
658	4.4e-05
670	0.000176
682	0.0001056
694	0.0001496
706	0.00022
718	0.0005632
730	0.0012672
742	0.0020592
754	0.002816
766	0.0026312
778	0.0019008
790	0.0013112
802	0.0016016
814	0.0016808
826	0.0010296
838	0.0006336
850	0.0004752
862	0.0003872
874	0.00044
886	0.0005632
898	0.0006776
910	0.0006424
922	0.0005896
934	0.0005456
946	0.0006864
958	0.0008448
970	0.0008712
982	0.0007304
994	0.0006248
1006	0.0006952
1018	0.0009592
1030	0.0015312
1042	0.0030712
1054	0.0069784
1066	0.0123112
1078	0.0165
1090	0.0092664
1102	0.0050072
1114	0.0031592
1126	0.0019712
1138	0.0017072
1150	0.0017864
1162	0.0021208
1174	0.0025696
1186	0.0034496
1198	0.0049896
1210	0.0088528
1222	0.019404
1234	0.0463672
1246	0.0852808
1258	0.0661584
1270	0.0259864
1282	0.0124168
1294	0.0072336
1306	0.0049544
1318	0.0046288
1330	0.0050688
1342	0.003432
1354	0.0025608
1366	0.0020328
1378	0.0018216
1390	0.0017952
1402	0.0016456
1414	0.0020768
1426	0.0043824
1438	0.0103928
1450	0.0047256
1462	0.0038544
1474	0.002904
1486	0.00176
1498	0.0012496
1510	0.0009944
1522	0.0007744
1534	0.0005808
1546	0.000528
1558	0.0005192
1570	0.0004928
1582	0.0004752
1594	0.0004576
1606	0.0004312
1618	0.0004224
1630	0.0004928
1642	0.000572
1654	0.0007304
1666	0.0009064
1678	0.001408
1690	0.0026488
1702	0.0055704
1714	0.012496
1726	0.0262592
1738	0.0445368
1750	0.0279048
1762	0.0127424
1774	0.004224
1786	0.001496
1798	0.0007216
1810	0.00044
1822	0.0003168
1834	0.0002024
1846	0.0001496
1858	9.68e-05
1870	8.8e-05
1882	7.92e-05
1894	8.8e-05
1906	5.28e-05
1918	5.28e-05
1930	3.52e-05
1942	2.64e-05
1954	6.16e-05
1966	8.8e-05
1978	0.0001144
1990	0.000132
2002	0.0002024
2014	0.0002992
2026	0.000308
2038	0.0002816
2050	0.0002464
2062	0.0002288
2074	0.000132
2086	5.28e-05
2098	1.76e-05
2110	0
2122	4.4e-05
2134	0.0001144
2146	0.00022
2158	0.0003432
2170	0.0005632
2182	0.0011
2194	0.0021296
2206	0.0043648
2218	0.0096624
2230	0.0164824
2242	0.0142296
2254	0.0055176
2266	0.0020768
2278	0.0012672
2290	0.0010648
2302	0.0011352
2314	0.0011704
2326	0.0011
2338	0.0007744
2350	0.0004224
2362	0.0004752
2374	0.0002816
2386	0.0001584
2398	0.0001144
2410	8.8e-05
2422	7.92e-05
2434	6.16e-05
2446	7.92e-05
2458	5.28e-05
2470	9.68e-05
2482	9.68e-05
2494	8.8e-05
2506	2.64e-05
2518	0
2530	2.64e-05
2542	2.64e-05
2554	8.8e-06
2566	2.64e-05
2578	5.28e-05
2590	5.28e-05
2602	3.52e-05
2614	5.28e-05
2626	8.8e-05
2638	0.0001232
2650	0.0002112
2662	0.00022
2674	0.00022
2686	0.0001936
2698	0.0002112
2710	0.0001584
2722	0.000176
2734	0.0002112
2746	0.0002904
2758	0.0002728
2770	0.0002904
2782	0.0003784
2794	0.0005016
2806	0.0007128
2818	0.0009944
2830	0.0016192
2842	0.0029392
2854	0.0046288
2866	0.0068464
2878	0.0081224
2890	0.007216
2902	0.0071192
2914	0.0095392
2926	0.0140184
2938	0.0208648
2950	0.0222816
2962	0.0216744
2974	0.0152416
2986	0.00726
2998	0.0043384
3010	0.0033352
3022	0.0027192
3034	0.0021208
3046	0.0015576
3058	0.0011088
3070	0.0008624
3082	0.0007568
3094	0.00066
3106	0.0005808
3118	0.0004488
3130	0.0003696
3142	0.000308
3154	0.000308
3166	0.0002816
3178	0.0002728
3190	0.0002464
3202	0.0002112
3214	0.0001672
3226	6.16e-05
3238	0.0001056
3250	7.04e-05
3262	4.4e-05
3274	6.16e-05
3286	7.92e-05
3298	8.8e-05
3310	8.8e-05
3322	4.4e-05
3334	0.0001056
3346	7.04e-05
3358	3.52e-05
3370	7.04e-05
3382	4.4e-05
3394	7.04e-05
3406	6.16e-05
3418	0.0001496
3430	0.0002288
3442	0.0003608
3454	0.0005456
3466	0.0005016
3478	0.0003696
3490	0.00022
3502	0.000176
3514	0.0001232
3526	7.04e-05
3538	7.92e-05
3550	6.16e-05
3562	0
3574	6.16e-05
3586	9.68e-05
3598	6.16e-05
3610	4.4e-05
3622	5.28e-05
3634	7.92e-05
3646	8.8e-05
3658	6.16e-05
3670	9.68e-05
3682	7.92e-05
3694	0.0001232
3706	7.92e-05
3718	8.8e-05
3730	0.0001056
3742	0.0001232
3754	7.92e-05
3766	0.0001232
3778	9.68e-05
3790	7.04e-05
3802	0.0001056
3814	9.68e-05
3826	0.0001056
3838	0.0001232
