Infrared Spectrum: Dipropyl ether
Formula: C 6 H 14 O
CAS: 111-43-3
State: gas
Instrument: HP-GC/MS/IRD
Origin: NIST Mass Spectrometry Data Center
1/CM	ABSORBANCE
550	0.0002553
562	0.0003108
574	0.0002479
586	0.0002257
598	0.0001369
610	0.0001332
622	0.0002072
634	2.96e-05
646	0.0001184
658	1.85e-05
670	0.0001295
682	0.0001036
694	9.62e-05
706	5.18e-05
718	0.0001406
730	0.0002738
742	0.0002886
754	0.0004736
766	0.0003589
778	0.0004144
790	0.0003145
802	0.000259
814	0.0002035
826	0.000296
838	0.0004662
850	0.0005957
862	0.0009435
874	0.001184
886	0.0016021
898	0.0019351
910	0.0023495
922	0.0027195
934	0.0030969
946	0.0032819
958	0.0029526
970	0.0023532
982	0.0022681
994	0.003441
1006	0.0056166
1018	0.0064269
1030	0.0050579
1042	0.0044141
1054	0.0049469
1066	0.0069523
1078	0.0123728
1090	0.0184852
1102	0.0249121
1114	0.0336071
1126	0.0367817
1138	0.0269693
1150	0.0147926
1162	0.0083398
1174	0.0049395
1186	0.0031524
1198	0.0022681
1210	0.001887
1222	0.0017575
1234	0.0019573
1246	0.0023828
1258	0.0028453
1270	0.0030414
1282	0.0029045
1294	0.0026381
1306	0.0022348
1318	0.0018574
1330	0.0023421
1342	0.0035002
1354	0.0050764
1366	0.0067118
1378	0.0074
1390	0.0055167
1402	0.0028083
1414	0.0021349
1426	0.0022348
1438	0.003108
1450	0.0045991
1462	0.005698
1474	0.0053539
1486	0.0035742
1498	0.0019462
1510	0.0011063
1522	0.000703
1534	0.0005143
1546	0.0004107
1558	0.0002664
1570	0.0002405
1582	0.0002849
1594	0.0002368
1606	0.0002738
1618	0.0001998
1630	0.0002109
1642	0.0001554
1654	9.62e-05
1666	0.0001443
1678	9.62e-05
1690	0.0001036
1702	6.29e-05
1714	7.77e-05
1726	3.33e-05
1738	3.7e-06
1750	3.7e-06
1762	3.7e-05
1774	3.7e-06
1786	1.85e-05
1798	2.59e-05
1810	7.03e-05
1822	6.29e-05
1834	9.62e-05
1846	7.03e-05
1858	0.0001813
1870	0.000185
1882	0.0001961
1894	0.0001776
1906	0.0001628
1918	0.0001591
1930	0.000148
1942	0.0001739
1954	0.0001702
1966	0.0001702
1978	0.000185
1990	0.0001702
2002	0.0002442
2014	0.0002516
2026	0.0002812
2038	0.0003552
2050	0.0003811
2062	0.0003774
2074	0.0003293
2086	0.0003034
2098	0.0001665
2110	0.0001073
2122	4.44e-05
2134	3.7e-05
2146	8.14e-05
2158	7.77e-05
2170	9.99e-05
2182	0.0001036
2194	0.0001221
2206	0.0001332
2218	9.99e-05
2230	6.66e-05
2242	7.03e-05
2254	7.4e-05
2266	9.25e-05
2278	0.0001332
2290	6.66e-05
2302	5.18e-05
2314	4.81e-05
2326	4.81e-05
2338	2.59e-05
2350	0
2362	4.07e-05
2374	8.51e-05
2386	7.4e-05
2398	0.0001147
2410	8.88e-05
2422	9.99e-05
2434	3.7e-05
2446	3.7e-06
2458	2.22e-05
2470	1.11e-05
2482	5.92e-05
2494	1.85e-05
2506	1.85e-05
2518	8.14e-05
2530	6.66e-05
2542	6.29e-05
2554	0.0001036
2566	0.0001924
2578	0.0002331
2590	0.0003145
2602	0.0003774
2614	0.0004033
2626	0.0003848
2638	0.000407
2650	0.0004588
2662	0.0006401
2674	0.0008066
2686	0.0009583
2698	0.0012358
2710	0.0016132
2722	0.0020461
2734	0.0024198
2746	0.0026825
2758	0.0028897
2770	0.0031894
2782	0.0039553
2794	0.004736
2806	0.0056166
2818	0.0068746
2830	0.0099271
2842	0.0162245
2854	0.0247641
2866	0.0304991
2878	0.0308062
2890	0.0267732
2902	0.0221519
2914	0.0227698
2926	0.0286269
2938	0.0358049
2950	0.0368557
2962	0.0352203
2974	0.0351648
2986	0.0260147
2998	0.0128871
3010	0.0061494
3022	0.0036889
3034	0.0025493
3046	0.0019721
3058	0.0015466
3070	0.0012987
3082	0.0011803
3094	0.0011359
3106	0.0010397
3118	0.0009028
3130	0.0007511
3142	0.0006586
3154	0.0006512
3166	0.0005513
3178	0.0004921
3190	0.0003959
3202	0.0003589
3214	0.0002812
3226	0.0002479
3238	0.0002479
3250	0.0002331
3262	0.0001739
3274	5.92e-05
3286	0.0001739
3298	9.99e-05
3310	0.0001887
3322	6.29e-05
3334	8.51e-05
3346	0.0001887
3358	0.0001369
3370	9.99e-05
3382	0.0001258
3394	0.0001369
3406	0.0001517
3418	0.0001517
3430	0.0001813
3442	0.0001258
3454	0.0001406
3466	0.0001221
3478	0.0001998
3490	0.0002146
3502	0.0002146
3514	0.0001073
3526	0.0001924
3538	0.0001776
3550	0.0001739
3562	0.0001628
3574	0.0002405
3586	0.0001591
3598	0.0001554
3610	0.0002368
3622	0.0001702
3634	0.000222
3646	0.0002738
3658	0.0002516
3670	0.0002886
3682	0.0002627
3694	0.0002072
3706	0.0002331
3718	0.0002442
3730	0.000148
3742	0.0001887
3754	0.0002442
3766	0.0002923
3778	0.0002812
3790	0.0003515
3802	0.0003626
3814	0.000333
3826	0.0002627
3838	0.0003737
