Infrared Spectrum: Hexylamine
Formula: C 6 H 15 N
CAS: 111-26-2
State: gas
Origin: EPA-IR VAPOR PHASE LIBRARY
1/CM	ABSORBANCE
501.5	0.00158
513.074	0.00169
524.648	0.00177
536.222	0.00172
547.796	0.00153
559.37	0.00173
570.944	0.00179
582.518	0.0019
594.092	0.00213
605.666	0.00227
617.24	0.00257
628.814	0.00269
640.388	0.003
651.962	0.00339
663.536	0.0038
675.11	0.00426
686.684	0.00478
698.258	0.00574
709.832	0.00725
721.406	0.00957
732.98	0.01242
744.554	0.01591
756.128	0.01914
767.702	0.02112
779.276	0.01972
790.85	0.01483
802.423	0.00992
813.997	0.00717
825.571	0.00561
837.145	0.00475
848.719	0.00422
860.293	0.00381
871.867	0.00351
883.441	0.00334
895.015	0.00324
906.589	0.00307
918.163	0.00301
929.737	0.00284
941.311	0.00253
952.885	0.00228
964.459	0.0022
976.033	0.00212
987.607	0.00213
999.181	0.00239
1010.76	0.00274
1022.33	0.00312
1033.9	0.00341
1045.48	0.00375
1057.05	0.00486
1068.63	0.00572
1080.2	0.00551
1091.77	0.00458
1103.35	0.00341
1114.92	0.00241
1126.49	0.00194
1138.07	0.0015
1149.64	0.00122
1161.22	0.00103
1172.79	0.0009399
1184.36	0.000771
1195.94	0.0009821
1207.51	0.00105
1219.09	0.00119
1230.66	0.00122
1242.23	0.0012
1253.81	0.00132
1265.38	0.00155
1276.96	0.0017
1288.53	0.00192
1300.1	0.00221
1311.68	0.00235
1323.25	0.00244
1334.83	0.00301
1346.4	0.00374
1357.97	0.00437
1369.55	0.0051
1381.12	0.00594
1392.7	0.00539
1404.27	0.00355
1415.84	0.00274
1427.42	0.00317
1438.99	0.0047
1450.57	0.00684
1462.14	0.00817
1473.71	0.00718
1485.29	0.00465
1496.86	0.0028
1508.44	0.00197
1520.01	0.0016
1531.58	0.00149
1543.16	0.00143
1554.73	0.00148
1566.31	0.00166
1577.88	0.00199
1589.45	0.00262
1601.03	0.00375
1612.6	0.00557
1624.18	0.00624
1635.75	0.00472
1647.32	0.00286
1658.9	0.0018
1670.47	0.00131
1682.05	0.00107
1693.62	0.0009022
1705.19	0.0008034
1716.77	0.0007537
1728.34	0.0007051
1739.92	0.0006938
1751.49	0.0006615
1763.06	0.0006734
1774.64	0.0006554
1786.21	0.0006474
1797.79	0.0006603
1809.36	0.0006516
1820.93	0.0006385
1832.51	0.0006214
1844.08	0.0005782
1855.66	0.000533
1867.23	0.0004828
1878.8	0.0004219
1890.38	0.0003655
1901.95	0.0003378
1913.53	0.0003179
1925.1	0.0002945
1936.67	0.0003024
1948.25	0.0002778
1959.82	0.0002603
1971.4	0.0002517
1982.97	0.0002462
1994.54	0.000261
2006.12	0.000277
2017.69	0.0003425
2029.27	0.0003507
2040.84	0.0003524
2052.41	0.0003511
2063.99	0.0003535
2075.56	0.000314
2087.14	0.00031
2098.71	0.0003212
2110.28	0.0003189
2121.86	0.0003125
2133.43	0.0003121
2145.01	0.000332
2156.58	0.0003219
2168.15	0.0003006
2179.73	0.0003227
2191.3	0.0003285
2202.88	0.0003332
2214.45	0.0003608
2226.02	0.0003732
2237.6	0.0003727
2249.17	0.0004131
2260.74	0.000445
2272.32	0.0004762
2283.89	0.0004314
2295.47	0.0004204
2307.04	0.000396
2318.61	0.0004259
2330.19	0.0004024
2341.76	0.000407
2353.34	0.0004342
2364.91	0.0004292
2376.48	0.0003886
2388.06	0.0003725
2399.63	0.0004126
2411.21	0.000385
2422.78	0.0003912
2434.35	0.0003811
2445.93	0.0004042
2457.5	0.0003896
2469.08	0.000377
2480.65	0.000374
2492.22	0.0004342
2503.8	0.0004124
2515.37	0.00046
2526.95	0.0004982
2538.52	0.000576
2550.09	0.0006121
2561.67	0.0006685
2573.24	0.0007464
2584.82	0.0008067
2596.39	0.0008706
2607.96	0.0009376
2619.54	0.0009969
2631.11	0.00113
2642.69	0.00125
2654.26	0.00142
2665.83	0.00162
2677.41	0.00184
2688.98	0.0019
2700.56	0.00197
2712.13	0.00209
2723.7	0.00235
2735.28	0.00268
2746.85	0.00297
2758.43	0.00306
2770	0.00322
2781.57	0.00353
2793.15	0.00416
2804.72	0.00522
2816.3	0.00721
2827.87	0.01096
2839.44	0.01803
2851.02	0.02907
2862.59	0.03858
2874.17	0.04079
2885.74	0.03742
2897.31	0.03685
2908.89	0.04963
2920.46	0.07408
2932.04	0.09109
2943.61	0.08153
2955.18	0.06146
2966.76	0.05008
2978.33	0.03359
2989.91	0.01582
3001.48	0.00847
3013.05	0.00552
3024.63	0.00416
3036.2	0.0033
3047.78	0.00259
3059.35	0.00219
3070.92	0.00182
3082.5	0.00163
3094.07	0.00145
3105.65	0.00126
3117.22	0.00117
3128.79	0.00105
3140.37	0.0009502
3151.94	0.0008701
3163.52	0.0008517
3175.09	0.0008176
3186.66	0.0007951
3198.24	0.0007223
3209.81	0.0006403
3221.39	0.0005784
3232.96	0.0004339
3244.53	0.0003492
3256.11	0.0004399
3267.68	0.0003768
3279.26	0.000363
3290.83	0.0003377
3302.4	0.0003711
3313.98	0.0003771
3325.55	0.0004973
3337.13	0.0006897
3348.7	0.000848
3360.27	0.0006704
3371.85	0.0004538
3383.42	0.0003754
3395	0.0004467
3406.57	0.0004247
3418.14	0.0004662
3429.72	0.0003908
3441.29	0.0003626
3452.86	0.0002327
3464.44	0.0002439
3476.01	0.0002089
3487.59	0.0002279
3499.16	0.0002062
3510.73	0.0002007
3522.31	0.000195
3533.88	0.0002564
3545.46	0.0002495
3557.03	0.0001631
3568.6	0.0002544
3580.18	0.000152
3591.75	0.000246
3603.33	0.0002023
3614.9	0.0002115
3626.47	0.0002858
3638.05	0.0002565
3649.62	0.0003658
3661.2	0.0003689
3672.77	0.000311
3684.34	0.00027
3695.92	0.0003801
3707.49	0.0003387
3719.07	0.0003088
3730.64	0.000296
3742.21	0.0003447
3753.79	0.0003169
3765.36	0.0002651
3776.94	0.0003062
3788.51	0.0002947
3800.08	0.0002382
3811.66	0.0003752
3823.23	0.0003535
3834.81	0.0003968
3846.38	0.000305
3857.95	0.0003076
3869.53	0.0003196
3881.1	0.0004512
3892.68	0.0003531
3904.25	0.000389
3915.82	0.0003677
3927.4	0.0003381
3938.97	0.0004409
3950.55	0.0004185
3962.12	0.000425
3973.69	0.000413
3985.27	0.0005151
3996.84	0.0005423
