Infrared Spectrum: ETHYLENEDIAMINE, N-ETHYL-N'-METHYL-
Formula: C5 H14 N2
CAS: 111-37-5
State: SOLUTION (10% CCl4 FOR 3800-400 CM^-^1) VS SOLVENT
Class: COBLENTZ
Instrument: BECKMAN IR-9 (GRATING)
Instrument parameters: ORDER CHANGES: 670, 1200, 2000 CM^-^1
Sampling: TRANSMISSION
Path length: 0.010 CM
Resolution: 2
Origin: DOW CHEMICAL COMPANY
1/CM	TRANSMITTANCE
401	1.0037
410	0.977
419	0.9498
428	0.9212
437	0.8933
446	0.8731
455	0.851
464	0.8787
473	0.9036
482	0.888
491	0.8795
500	0.8625
509	0.8458
518	0.8366
527	0.8315
536	0.8294
545	0.8457
554	0.867
563	0.8809
572	0.8915
581	0.899
590	0.9018
599	0.9015
608	0.9025
617	0.9125
626	0.9051
635	0.8774
644	0.8525
653	0.8295
662	0.7989
671	0.7619
680	0.7051
689	0.6005
698	0.5058
707	0.4338
716	0.345
725	0.2869
734	0.2594
743	0.2543
752	0.2501
761	0.2471
770	0.2434
779	0.2394
788	0.2352
797	0.2288
806	0.2191
815	0.2339
824	0.7638
833	0.7558
842	0.7601
851	0.7665
860	0.7541
869	0.7301
878	0.7071
887	0.7049
896	0.7208
905	0.7547
914	0.7707
923	0.7662
932	0.7571
941	0.7946
950	0.8359
959	0.8654
968	0.8846
977	0.9117
986	0.8698
995	0.8755
1004	0.8218
1013	0.7822
1022	0.8075
1031	0.7057
1040	0.6478
1049	0.6778
1058	0.7332
1067	0.7541
1076	0.7548
1085	0.7262
1094	0.6117
1103	0.36
1112	0.3286
1121	0.2709
1130	0.2351
1139	0.2561
1148	0.3364
1157	0.4471
1166	0.5493
1175	0.6337
1184	0.7483
1193	0.8088
1202	0.8377
1211	0.8678
1220	0.8846
1229	0.8406
1238	0.7542
1247	0.7504
1256	0.7621
1265	0.7786
1274	0.7388
1283	0.7708
1292	0.7583
1301	0.7614
1310	0.7931
1319	0.8325
1328	0.7725
1337	0.6672
1346	0.6437
1355	0.6492
1364	0.6684
1373	0.5866
1382	0.5452
1391	0.6205
1400	0.7268
1409	0.7969
1418	0.7722
1427	0.6747
1436	0.4114
1445	0.2048
1454	0.2298
1463	0.2194
1472	0.2422
1481	0.3559
1490	0.6789
1499	0.7708
1508	0.8567
1517	0.905
1526	0.9405
1535	0.9609
1544	0.9858
1553	1.0174
1562	1.0244
1571	0.9918
1580	0.9718
1589	0.9342
1598	0.9302
1607	0.9363
1616	0.9259
1625	0.9031
1634	0.8837
1643	0.8741
1652	0.8702
1661	0.8718
1670	0.8794
1679	0.8571
1688	0.8564
1697	0.907
1706	0.9286
1715	0.9307
1724	0.9511
1733	0.9778
1742	0.983
1751	0.9877
1760	0.991
1769	0.9944
1778	0.9958
1787	0.997
1796	0.998
1805	0.9965
1814	0.9946
1823	0.9923
1832	0.9906
1841	0.9898
1850	0.9884
1859	0.9863
1868	0.984
1877	0.9821
1886	0.9808
1895	0.9793
1904	0.9778
1913	0.9781
1922	0.9782
1931	0.978
1940	0.9787
1949	0.9804
1958	0.983
1967	0.9852
1976	0.9854
1985	0.9847
1994	0.9848
2003	0.9853
2012	0.9867
2021	0.9883
2030	0.9894
2039	0.9898
2048	0.9886
2057	0.9859
2066	0.9816
2075	0.979
2084	0.9787
2093	0.9799
2102	0.9808
2111	0.9801
2120	0.9782
2129	0.9759
2138	0.973
2147	0.9693
2156	0.9671
2165	0.9671
2174	0.9687
2183	0.9685
2192	0.9674
2201	0.9657
2210	0.9639
2219	0.9621
2228	0.9604
2237	0.9586
2246	0.9571
2255	0.9557
2264	0.9554
2273	0.9552
2282	0.9552
2291	0.9553
2300	0.9553
2309	0.9547
2318	0.9528
2327	0.9505
2336	0.9482
2345	0.945
2354	0.9418
2363	0.9386
2372	0.9338
2381	0.9286
2390	0.9228
2399	0.9181
2408	0.9115
2417	0.8971
2426	0.8803
2435	0.8727
2444	0.8786
2453	0.8878
2462	0.8818
2471	0.8701
2480	0.8646
2489	0.8698
2498	0.8793
2507	0.8778
2516	0.8686
2525	0.8659
2534	0.8636
2543	0.8602
2552	0.8555
2561	0.8494
2570	0.8418
2579	0.8325
2588	0.8216
2597	0.8093
2606	0.7953
2615	0.7767
2624	0.7622
2633	0.7475
2642	0.7287
2651	0.6996
2660	0.6845
2669	0.6741
2678	0.604
2687	0.5818
2696	0.572
2705	0.5655
2714	0.5504
2723	0.5205
2732	0.4651
2741	0.4188
2750	0.395
2759	0.3853
2768	0.3018
2777	0.2231
2786	0.1542
2795	0.0645
2804	0.0393
2813	0.0438
2822	0.05
2831	0.0511
2840	0.0596
2849	0.0685
2858	0.0843
2867	0.1396
2876	0.1501
2885	0.1058
2894	0.0926
2903	0.0853
2912	0.098
2921	0.1162
2930	0.1115
2939	0.0866
2948	0.0579
2957	0.0607
2966	0.0674
2975	0.0462
2984	0.0375
2993	0.2615
3002	0.481
3011	0.5409
3020	0.5864
3029	0.6212
3038	0.6618
3047	0.6935
3056	0.7214
3065	0.7395
3074	0.7522
3083	0.7628
3092	0.7707
3101	0.7772
3110	0.7824
3119	0.7862
3128	0.7889
3137	0.7888
3146	0.7861
3155	0.7818
3164	0.7767
3173	0.7717
3182	0.768
3191	0.7692
3200	0.7708
3209	0.7731
3218	0.7761
3227	0.7781
3236	0.7764
3245	0.7693
3254	0.7608
3263	0.7517
3272	0.7411
3281	0.7294
3290	0.7168
3299	0.7034
3308	0.6891
3317	0.6737
3326	0.659
3335	0.6511
3344	0.6531
3353	0.6745
3362	0.6982
3371	0.7245
3380	0.7367
3389	0.7453
3398	0.7511
3407	0.7561
3416	0.7614
3425	0.7668
3434	0.7726
3443	0.7787
3452	0.7851
3461	0.7928
3470	0.8011
3479	0.8092
3488	0.8174
3497	0.8263
3506	0.8366
3515	0.8471
3524	0.8577
3533	0.8675
3542	0.8768
3551	0.886
3560	0.8948
3569	0.9036
3578	0.9125
3587	0.9217
3596	0.9308
3605	0.9375
3614	0.9446
3623	0.9503
3632	0.9567
3641	0.9611
3650	0.9644
3659	0.9625
3668	0.9496
3677	0.9221
3686	0.8963
3695	0.9378
3704	0.9577
3713	0.9714
3722	0.9788
3731	0.9824
3740	0.9839
3749	0.9848
3758	0.9856
3767	0.9859
3776	0.9867
3785	0.9878
3794	0.9874
