Infrared Spectrum: Heptanal
Formula: C7 H14 O
CAS: 111-71-7
State: SOLUTION (10% CCl4 FOR 3800-1350, 10% CS2 FOR 1350-450 CM^-^1)
Class: COBLENTZ III
Instrument: DOW KBr FOREPRISM-GRATING
Instrument parameters: BLAZED AT 3.5, 12.0, 20.0 MICRON AND CHANGED AT 5.0, 7.5, 14.9 MICRON
Sampling: TRANSMISSION
Path length: 0.011 CM, 0.011 CM
Resolution: 2
Origin: DOW CHEMICAL COMPANY
1/CM	TRANSMITTANCE
3800	0.9147
3791	0.916
3782	0.9144
3773	0.9145
3764	0.9145
3755	0.9171
3746	0.9205
3737	0.9233
3728	0.9212
3719	0.9171
3710	0.9171
3701	0.9155
3692	0.9062
3683	0.8948
3674	0.8933
3665	0.8994
3656	0.9076
3647	0.9008
3638	0.9011
3629	0.8884
3620	0.8847
3611	0.8556
3602	0.7817
3593	0.794
3584	0.8274
3575	0.8497
3566	0.8545
3557	0.8518
3548	0.8424
3539	0.8268
3530	0.8122
3521	0.8056
3512	0.8007
3503	0.7955
3494	0.7905
3485	0.7849
3476	0.7785
3467	0.7715
3458	0.7631
3449	0.7537
3440	0.7443
3431	0.7344
3422	0.7439
3413	0.7517
3404	0.7587
3395	0.7658
3386	0.7762
3377	0.7863
3368	0.7954
3359	0.8047
3350	0.8133
3341	0.8216
3332	0.8295
3323	0.8358
3314	0.8421
3305	0.8473
3296	0.8497
3287	0.8528
3278	0.8571
3269	0.8585
3260	0.8595
3251	0.8603
3242	0.8592
3233	0.8582
3224	0.857
3215	0.8551
3206	0.8518
3197	0.851
3188	0.8495
3179	0.8462
3170	0.844
3161	0.8425
3152	0.8411
3143	0.8379
3134	0.8374
3125	0.8357
3116	0.8339
3107	0.8324
3098	0.8318
3089	0.8297
3080	0.8216
3071	0.8172
3062	0.8066
3053	0.7968
3044	0.7931
3035	0.7867
3026	0.7714
3017	0.7571
3008	0.7317
2999	0.6983
2990	0.6563
2981	0.585
2972	0.4688
2963	0.0474
2954	0.0184
2945	0.028
2936	0.0283
2927	0.0128
2918	0.0146
2909	0.0454
2900	0.0829
2891	0.1564
2882	0.2265
2873	0.176
2864	0.0946
2855	0.0571
2846	0.1793
2837	0.3799
2828	0.4987
2819	0.4987
2810	0.4774
2801	0.5174
2792	0.6184
2783	0.6993
2774	0.7445
2765	0.7666
2756	0.7652
2747	0.754
2738	0.7291
2729	0.6772
2720	0.5873
2711	0.5022
2702	0.5464
2693	0.6851
2684	0.7309
2675	0.7596
2666	0.7821
2657	0.8079
2648	0.8235
2639	0.8345
2630	0.8438
2621	0.8529
2612	0.8605
2603	0.8671
2594	0.8709
2585	0.8747
2576	0.8786
2567	0.883
2558	0.8878
2549	0.8918
2540	0.8954
2531	0.8985
2522	0.901
2513	0.9034
2504	0.906
2495	0.9076
2486	0.9092
2477	0.9121
2468	0.9135
2459	0.9151
2450	0.9157
2441	0.9177
2432	0.9187
2423	0.9189
2414	0.919
2405	0.9198
2396	0.9185
2387	0.9202
2378	0.9231
2369	0.9231
2360	0.9301
2351	0.9386
2342	0.9357
2333	0.9253
2324	0.9177
2315	0.9149
2306	0.9157
2297	0.9165
2288	0.9146
2279	0.9144
2270	0.9128
2261	0.9131
2252	0.9137
2243	0.9129
2234	0.9097
2225	0.9119
2216	0.9128
2207	0.9132
2198	0.9139
2189	0.9117
2180	0.9109
2171	0.9117
2162	0.9101
2153	0.9099
2144	0.9098
2135	0.9095
2126	0.9106
2117	0.9112
2108	0.9109
2099	0.9098
2090	0.9114
2081	0.9142
2072	0.9066
2063	0.9065
2054	0.9076
2045	0.9053
2036	0.9044
2027	0.9049
2018	0.9053
2009	0.9052
2000	0.8943
1991	0.8893
1982	0.895
1973	0.8936
1964	0.8932
1955	0.8945
1946	0.8921
1937	0.8919
1928	0.8916
1919	0.8913
1910	0.8904
1901	0.8911
1892	0.8908
1883	0.889
1874	0.8872
1865	0.8826
1856	0.8814
1847	0.879
1838	0.878
1829	0.8716
1820	0.8615
1811	0.8452
1802	0.8337
1793	0.825
1784	0.8102
1775	0.7869
1766	0.7541
1757	0.6499
1748	0.4585
1739	0.2827
1730	0.0344
1721	0.0983
1712	0.239
1703	0.4727
1694	0.6696
1685	0.724
1676	0.7934
1667	0.8354
1658	0.8536
1649	0.8659
1640	0.8661
1631	0.8735
1622	0.8759
1613	0.8795
1604	0.8886
1595	0.8752
1586	0.8333
1577	0.838
1568	0.833
1559	0.8245
1550	0.8125
1541	0.8237
1532	0.7987
1523	0.8327
1514	0.8382
1505	0.832
1496	0.824
1487	0.8065
1478	0.7755
1469	0.2683
1460	0.3278
1451	0.4406
1442	0.5827
1433	0.6441
1424	0.657
1415	0.5758
1406	0.5471
1397	0.6662
1388	0.5901
1379	0.4392
1370	0.594
1361	0.6442
1352	0.6752
1343	0.6608
1334	0.6994
1325	0.7292
1316	0.7463
1307	0.7431
1298	0.7308
1289	0.7438
1280	0.7371
1271	0.7367
1262	0.7486
1253	0.7494
1244	0.7607
1235	0.7614
1226	0.7496
1217	0.7525
1208	0.7605
1199	0.7445
1190	0.7393
1181	0.7197
1172	0.7058
1163	0.6521
1154	0.554
1145	0.3817
1136	0.4341
1127	0.5236
1118	0.5259
1109	0.4983
1100	0.5995
1091	0.6737
1082	0.698
1073	0.6747
1064	0.6719
1055	0.6219
1046	0.6058
1037	0.6284
1028	0.6547
1019	0.6698
1010	0.6589
1001	0.6669
992	0.6912
983	0.7097
974	0.7016
965	0.6511
956	0.5748
947	0.579
938	0.6512
929	0.7139
920	0.7743
911	0.8291
902	0.8277
893	0.8456
884	0.8748
875	0.881
866	0.8631
857	0.8549
848	0.823
839	0.8498
830	0.8791
821	0.9032
812	0.926
803	0.9394
794	0.9463
785	0.9435
776	0.9329
767	0.9203
758	0.9172
749	0.9244
740	0.9087
731	0.8591
722	0.7397
713	0.8799
704	0.9232
695	0.9273
686	0.914
677	0.9224
668	0.9407
659	0.923
650	0.9107
641	0.9354
632	0.9416
623	0.9396
614	0.941
605	0.9505
596	0.9564
587	0.9521
578	0.9501
569	0.9425
560	0.9311
551	0.9181
542	0.9046
533	0.8965
524	0.8921
515	0.9055
506	0.9108
497	0.9098
488	0.9076
479	0.9075
470	0.9093
461	0.9022
452	0.9016
