Infrared Spectrum: 3,3'-Thiodipropionic acid
Formula: C6 H10 O4 S
CAS: 111-17-1
State: SOLID (SPLIT MULL), FLUOROLUBE FOR 3800-1330 CM^-^1, NUJOL FOR 1330-400 CM^-^1
Melting point: 132 C
Class: COBLENTZ II
Instrument: DOW KBr FOREPRISM-GRATING
Instrument parameters: BLAZED AT 3.5, 12.0, 20.0 MICRON AND CHANGED AT 5.0, 7.5, 14.9 MICRON
Sampling: TRANSMISSION
Resolution: 2
Origin: DOW CHEMICAL COMPANY
1/CM	TRANSMITTANCE
388	0.8048
397	0.8125
406	0.825
415	0.8411
424	0.8606
433	0.8827
442	0.8906
451	0.8887
460	0.8857
469	0.8778
478	0.811
487	0.6133
496	0.7244
505	0.88
514	0.8805
523	0.8609
532	0.9061
541	0.9136
550	0.9108
559	0.9057
568	0.8886
577	0.8987
586	0.8993
595	0.8963
604	0.8816
613	0.8684
622	0.8416
631	0.7683
640	0.7001
649	0.6304
658	0.456
667	0.5952
676	0.8005
685	0.8759
694	0.8553
703	0.8659
712	0.822
721	0.7021
730	0.7347
739	0.724
748	0.7907
757	0.7808
766	0.7384
775	0.6224
784	0.7382
793	0.679
802	0.7026
811	0.7049
820	0.7388
829	0.6648
838	0.7287
847	0.7167
856	0.6851
865	0.6517
874	0.6112
883	0.5496
892	0.441
901	0.3662
910	0.2721
919	0.1884
928	0.1822
937	0.2333
946	0.3024
955	0.3797
964	0.4528
973	0.5979
982	0.6747
991	0.7138
1000	0.7183
1009	0.7254
1018	0.7205
1027	0.713
1036	0.71
1045	0.6915
1054	0.7564
1063	0.7554
1072	0.7521
1081	0.7495
1090	0.7448
1099	0.7262
1108	0.7037
1117	0.6915
1126	0.6701
1135	0.6289
1144	0.5793
1153	0.4025
1162	0.5546
1171	0.5535
1180	0.4994
1189	0.3994
1198	0.1819
1207	0.4258
1216	0.5352
1225	0.4535
1234	0.3011
1243	0.1753
1252	0.1217
1261	0.1745
1270	0.388
1279	0.3549
1288	0.2846
1297	0.4446
1306	0.5862
1315	0.5905
1324	0.5074
1333	0.3634
1342	0.3847
1351	0.5419
1360	0.5627
1369	0.5385
1378	0.4895
1387	0.4143
1396	0.2942
1405	0.1241
1414	0.1498
1423	0.1212
1432	0.1045
1441	0.3088
1450	0.7242
1459	0.8675
1468	0.8705
1477	0.8638
1486	0.8528
1495	0.8268
1504	0.8183
1513	0.8108
1522	0.7917
1531	0.7626
1540	0.7333
1549	0.7081
1558	0.6838
1567	0.6576
1576	0.63
1585	0.5952
1594	0.5552
1603	0.5012
1612	0.4562
1621	0.4193
1630	0.3622
1639	0.3065
1648	0.2562
1657	0.2034
1666	0.1475
1675	0.0707
1684	0.0229
1693	0.0176
1702	0.0309
1711	0.0859
1720	0.114
1729	0.1407
1738	0.3473
1747	0.576
1756	0.7986
1765	0.8982
1774	0.9098
1783	0.9124
1792	0.9501
1801	0.9497
1810	0.9336
1819	0.9324
1828	0.9475
1837	0.9402
1846	0.9274
1855	0.9142
1864	0.9021
1873	0.8945
1882	0.8891
1891	0.8859
1900	0.8828
1909	0.8814
1918	0.8807
1927	0.8771
1936	0.8685
1945	0.8578
1954	0.8455
1963	0.8332
1972	0.8238
1981	0.8146
1990	0.8068
1999	0.7999
2008	0.7865
2017	0.7793
2026	0.7725
2035	0.7661
2044	0.7604
2053	0.7508
2062	0.7332
2071	0.7296
2080	0.7261
2089	0.7141
2098	0.6994
2107	0.6855
2116	0.6717
2125	0.6585
2134	0.6461
2143	0.6362
2152	0.6288
2161	0.6217
2170	0.6132
2179	0.6083
2188	0.6073
2197	0.601
2206	0.5908
2215	0.5794
2224	0.5651
2233	0.5518
2242	0.5342
2251	0.5187
2260	0.5112
2269	0.5073
2278	0.4977
2287	0.487
2296	0.4757
2305	0.4592
2314	0.4429
2323	0.4306
2332	0.4177
2341	0.4127
2350	0.4093
2359	0.4059
2368	0.4018
2377	0.3966
2386	0.3882
2395	0.378
2404	0.3666
2413	0.3559
2422	0.3457
2431	0.3359
2440	0.3264
2449	0.3166
2458	0.3096
2467	0.3012
2476	0.2922
2485	0.282
2494	0.2734
2503	0.266
2512	0.2575
2521	0.2497
2530	0.248
2539	0.2423
2548	0.2318
2557	0.2211
2566	0.2173
2575	0.2212
2584	0.2296
2593	0.2328
2602	0.2307
2611	0.2261
2620	0.2215
2629	0.2169
2638	0.2132
2647	0.2115
2656	0.2143
2665	0.2214
2674	0.2338
2683	0.2444
2692	0.2454
2701	0.2397
2710	0.2313
2719	0.2234
2728	0.2179
2737	0.2153
2746	0.2156
2755	0.2194
2764	0.2249
2773	0.2243
2782	0.2169
2791	0.206
2800	0.1973
2809	0.1902
2818	0.1834
2827	0.177
2836	0.1715
2845	0.1667
2854	0.1622
2863	0.1577
2872	0.153
2881	0.1496
2890	0.1477
2899	0.1463
2908	0.1436
2917	0.1384
2926	0.138
2935	0.142
2944	0.1511
2953	0.1599
2962	0.1679
2971	0.1761
2980	0.1815
2989	0.1826
2998	0.1804
3007	0.1778
3016	0.1734
3025	0.1736
3034	0.1817
3043	0.1944
3052	0.2103
3061	0.2211
3070	0.2272
3079	0.2332
3088	0.2391
3097	0.2482
3106	0.2658
3115	0.2796
3124	0.3
3133	0.3206
3142	0.3395
3151	0.3624
3160	0.3852
3169	0.4037
3178	0.4219
3187	0.4427
3196	0.4594
3205	0.4769
3214	0.5002
3223	0.5325
3232	0.5591
3241	0.5843
3250	0.6037
3259	0.6245
3268	0.6518
3277	0.6728
3286	0.6914
3295	0.7068
3304	0.7098
3313	0.7087
3322	0.7075
3331	0.7097
3340	0.7161
3349	0.7262
3358	0.7328
3367	0.7306
3376	0.7276
3385	0.7244
3394	0.7208
3403	0.7158
3412	0.7084
3421	0.6978
3430	0.6862
3439	0.6744
3448	0.6621
3457	0.6522
3466	0.6422
3475	0.6343
3484	0.6262
3493	0.6185
3502	0.6109
3511	0.6032
3520	0.596
3529	0.5893
3538	0.5827
3547	0.5762
3556	0.5709
3565	0.5655
3574	0.5602
3583	0.5549
3592	0.5508
3601	0.5466
3610	0.5425
3619	0.5384
3628	0.5339
3637	0.5294
3646	0.5249
3655	0.5205
3664	0.516
3673	0.5117
3682	0.5073
3691	0.5028
3700	0.4986
3709	0.4944
3718	0.4902
3727	0.486
3736	0.4819
3745	0.4777
3754	0.4736
3763	0.4695
3772	0.4655
3781	0.4617
3790	0.458
3799	0.456
