Infrared Spectrum: SEBACIC ACID
Formula: C10 H18 O4
CAS: 111-20-6
State: SOLID (MULL, KEL-F OIL FOR 2-7.5 AND MINERAL OIL FOR 7.5-16 MICRONS)
Melting point: 132-134 C
Class: COBLENTZ
Instrument: Not specified, most likely a prism, grating, or hybrid spectrometer.
Sampling: TRANSMISSION
Resolution: 4
Origin: WYANDOTTE CHEMICALS CORP., WYANDOTTE, MICHIGAN, USA
MICROMETERS	TRANSMITTANCE
2.022	0.721
2.06086	0.734
2.09972	0.744
2.13858	0.749
2.17744	0.766
2.2163	0.762
2.25516	0.775
2.29402	0.778
2.33289	0.796
2.37175	0.809
2.41061	0.825
2.44947	0.83
2.48833	0.831
2.52719	0.847
2.56605	0.883
2.60491	0.868
2.64377	0.907
2.68263	0.914
2.72149	0.92
2.76035	0.933
2.79921	0.94
2.83807	0.941
2.87693	0.948
2.91579	0.948
2.95466	0.935
2.99352	0.899
3.03238	0.834
3.07124	0.723
3.1101	0.603
3.14896	0.488
3.18782	0.393
3.22668	0.307
3.26554	0.25
3.3044	0.218
3.34326	0.177
3.38212	0.05
3.42098	0.067
3.45984	0.11
3.4987	0.097
3.53756	0.205
3.57643	0.252
3.61529	0.266
3.65415	0.283
3.69301	0.291
3.73187	0.275
3.77073	0.27
3.80959	0.281
3.84845	0.292
3.88731	0.325
3.92617	0.325
3.96503	0.339
4.00389	0.389
4.04275	0.42
4.08161	0.477
4.12047	0.506
4.15934	0.529
4.1982	0.564
4.23706	0.569
4.27592	0.567
4.31478	0.592
4.35364	0.629
4.3925	0.673
4.43136	0.676
4.47022	0.676
4.50908	0.7
4.54794	0.726
4.5868	0.745
4.62566	0.744
4.66452	0.758
4.70338	0.776
4.74224	0.799
4.78111	0.805
4.81997	0.82
4.85883	0.841
4.89769	0.844
4.93655	0.846
4.97541	0.862
5.01427	0.867
5.05313	0.868
5.09199	0.87
5.13085	0.868
5.16971	0.864
5.20857	0.865
5.24743	0.859
5.28629	0.854
5.32515	0.857
5.36402	0.834
5.40288	0.839
5.44174	0.815
5.4806	0.813
5.51946	0.792
5.55832	0.728
5.59718	0.715
5.63604	0.694
5.6749	0.686
5.71376	0.676
5.75262	0.597
5.79148	0.302
5.83034	0.029
5.8692	0.032
5.90806	0.03
5.94692	0.043
5.98579	0.145
6.02465	0.31
6.06351	0.449
6.10237	0.548
6.14123	0.605
6.18009	0.671
6.21895	0.711
6.25781	0.744
6.29667	0.757
6.33553	0.789
6.37439	0.789
6.41325	0.825
6.45211	0.8
6.49097	0.834
6.52983	0.825
6.56869	0.844
6.60756	0.826
6.64642	0.847
6.68528	0.844
6.72414	0.83
6.763	0.661
6.80186	0.432
6.84072	0.511
6.87958	0.462
6.91844	0.333
6.9573	0.161
6.99616	0.152
7.03502	0.216
7.07388	0.14
7.11274	0.291
7.1516	0.488
7.19047	0.603
7.22933	0.656
7.26819	0.656
7.30705	0.644
7.34591	0.566
7.38477	0.407
7.42363	0.435
7.46249	0.572
7.50135	0.498
7.54021	0.37
7.57907	0.415
7.61793	0.21
7.65679	0.084
7.69565	0.059
7.73451	0.1
7.77337	0.152
7.81224	0.289
7.8511	0.422
7.88996	0.503
7.92882	0.451
7.96768	0.236
8.00654	0.268
8.0454	0.124
8.08426	0.113
8.12312	0.158
8.16198	0.31
8.20084	0.38
8.2397	0.487
8.27856	0.572
8.31742	0.588
8.35628	0.449
8.39514	0.134
8.43401	0.147
8.47287	0.334
8.51173	0.501
8.55059	0.58
8.58945	0.632
8.62831	0.666
8.66717	0.694
8.70603	0.713
8.74489	0.736
8.78375	0.754
8.82261	0.745
8.86147	0.733
8.90033	0.754
8.93919	0.771
8.97805	0.779
9.01692	0.792
9.05578	0.791
9.09464	0.8
9.1335	0.8
9.17236	0.8
9.21122	0.799
9.25008	0.794
9.28894	0.778
9.3278	0.755
9.36666	0.711
9.40552	0.737
9.44438	0.742
9.48324	0.69
9.5221	0.566
9.56096	0.626
9.59982	0.689
9.63869	0.71
9.67755	0.723
9.71641	0.721
9.75527	0.718
9.79413	0.716
9.83299	0.7
9.87185	0.687
9.91071	0.656
9.94957	0.598
9.98843	0.593
10.0273	0.631
10.0662	0.629
10.105	0.622
10.1439	0.598
10.1827	0.572
10.2216	0.537
10.2605	0.503
10.2993	0.469
10.3382	0.432
10.377	0.398
10.4159	0.359
10.4548	0.333
10.4936	0.307
10.5325	0.286
10.5713	0.266
10.6102	0.242
10.6491	0.215
10.6879	0.189
10.7268	0.16
10.7656	0.145
10.8045	0.148
10.8434	0.158
10.8822	0.179
10.9211	0.213
10.9599	0.254
10.9988	0.288
11.0377	0.315
11.0765	0.333
11.1154	0.368
11.1543	0.417
11.1931	0.446
11.232	0.467
11.2708	0.498
11.3097	0.54
11.3486	0.58
11.3874	0.601
11.4263	0.631
11.4651	0.65
11.504	0.668
11.5429	0.676
11.5817	0.689
11.6206	0.687
11.6594	0.684
11.6983	0.653
11.7372	0.621
11.776	0.674
11.8149	0.741
11.8537	0.763
11.8926	0.771
11.9315	0.778
11.9703	0.791
12.0092	0.799
12.048	0.804
12.0869	0.813
12.1258	0.815
12.1646	0.822
12.2035	0.83
12.2423	0.833
12.2812	0.838
12.3201	0.844
12.3589	0.847
12.3978	0.857
12.4367	0.855
12.4755	0.862
12.5144	0.87
12.5532	0.87
12.5921	0.875
12.631	0.878
12.6698	0.886
12.7087	0.888
12.7475	0.886
12.7864	0.889
12.8253	0.896
12.8641	0.891
12.903	0.893
12.9418	0.883
12.9807	0.883
13.0196	0.878
13.0584	0.873
13.0973	0.862
13.1361	0.846
13.175	0.8
13.2139	0.733
13.2527	0.656
13.2916	0.673
13.3304	0.775
13.3693	0.836
13.4082	0.854
13.447	0.854
13.4859	0.849
13.5247	0.851
13.5636	0.843
13.6025	0.838
13.6413	0.83
13.6802	0.817
13.7191	0.779
13.7579	0.733
13.7968	0.65
13.8356	0.598
13.8745	0.598
13.9134	0.637
13.9522	0.699
13.9911	0.763
14.0299	0.8
14.0688	0.823
14.1077	0.834
14.1465	0.844
14.1854	0.841
14.2242	0.844
14.2631	0.838
14.302	0.83
14.3408	0.825
14.3797	0.813
14.4185	0.804
14.4574	0.781
14.4963	0.754
14.5351	0.726
14.574	0.69
14.6128	0.653
14.6517	0.603
14.6906	0.551
14.7294	0.504
14.7683	0.469
14.8072	0.449
14.846	0.438
14.8849	0.438
14.9237	0.456
14.9626	0.482
15.0015	0.506
15.0403	0.524
15.0792	0.548
15.118	0.59
15.1569	0.622
15.1958	0.637
15.2346	0.652
15.2735	0.66
15.3123	0.671
15.3512	0.684
15.3901	0.694
15.4289	0.694
15.4678	0.699
15.5066	0.697
15.5455	0.695
15.5844	0.699
15.6232	0.697
15.6621	0.69
15.7009	0.687
15.7398	0.687
15.7787	0.682
15.8175	0.674
15.8564	0.663
15.8952	0.658
15.9341	0.652
15.973	0.647
