Infrared Spectrum: PROPIONIC ACID, 3-DIETHYL-PHOSPHONO-, METHYL ESTER
Formula: C8 H17 O5 P
CAS: 1112-94-3
Class: COBLENTZ
Instrument: Not specified, most likely a prism, grating, or hybrid spectrometer.
Sampling: TRANSMISSION
Path length: SMEAR
Resolution: 4
Origin: TENNESSEE EASTMAN COMPANY, RESEARCH LABORATORIES
MICROMETERS	TRANSMITTANCE
2.072	0.901
2.11178	0.905
2.15157	0.91
2.19135	0.91
2.23113	0.908
2.27091	0.906
2.3107	0.906
2.35048	0.91
2.39026	0.911
2.43005	0.915
2.46983	0.918
2.50961	0.92
2.54939	0.925
2.58918	0.93
2.62896	0.93
2.66874	0.933
2.70853	0.92
2.74831	0.88
2.78809	0.831
2.82788	0.796
2.86766	0.758
2.90744	0.731
2.94722	0.775
2.98701	0.831
3.02679	0.86
3.06657	0.873
3.10636	0.883
3.14614	0.898
3.18592	0.908
3.2257	0.91
3.26549	0.901
3.30527	0.851
3.34505	0.631
3.38484	0.64
3.42462	0.676
3.4644	0.798
3.50418	0.853
3.54397	0.898
3.58375	0.91
3.62353	0.921
3.66332	0.928
3.7031	0.933
3.74288	0.936
3.78266	0.94
3.82245	0.941
3.86223	0.941
3.90201	0.946
3.9418	0.948
3.98158	0.951
4.02136	0.953
4.06115	0.953
4.10093	0.953
4.14071	0.955
4.18049	0.955
4.22028	0.96
4.26006	0.98
4.29984	0.975
4.33963	0.956
4.37941	0.955
4.41919	0.956
4.45897	0.958
4.49876	0.958
4.53854	0.958
4.57832	0.958
4.61811	0.958
4.65789	0.956
4.69767	0.953
4.73745	0.953
4.77724	0.951
4.81702	0.951
4.8568	0.951
4.89659	0.951
4.93637	0.951
4.97615	0.95
5.01594	0.956
5.05572	0.951
5.0955	0.951
5.13528	0.951
5.17507	0.955
5.21485	0.955
5.25463	0.955
5.29442	0.95
5.3342	0.948
5.37398	0.933
5.41376	0.935
5.45355	0.93
5.49333	0.926
5.53311	0.921
5.5729	0.903
5.61268	0.886
5.65246	0.838
5.69224	0.591
5.73203	0.321
5.77181	0.411
5.81159	0.63
5.85138	0.771
5.89116	0.813
5.93094	0.85
5.97072	0.853
6.01051	0.848
6.05029	0.848
6.09007	0.831
6.12986	0.845
6.16964	0.861
6.20942	0.868
6.24921	0.883
6.28899	0.901
6.32877	0.905
6.36855	0.903
6.40834	0.898
6.44812	0.901
6.4879	0.896
6.52769	0.898
6.56747	0.89
6.60725	0.881
6.64703	0.878
6.68682	0.868
6.7266	0.808
6.76638	0.796
6.80617	0.78
6.84595	0.743
6.88573	0.653
6.92551	0.591
6.9653	0.651
7.00508	0.696
7.04486	0.75
7.08465	0.773
7.12443	0.748
7.16421	0.683
7.20399	0.72
7.24378	0.751
7.28356	0.68
7.32334	0.641
7.36313	0.698
7.40291	0.768
7.44269	0.805
7.48248	0.81
7.52226	0.833
7.56204	0.83
7.60182	0.775
7.64161	0.71
7.68139	0.665
7.72117	0.626
7.76096	0.616
7.80074	0.61
7.84052	0.56
7.8803	0.453
7.92009	0.37
7.95987	0.33
7.99965	0.306
8.03944	0.298
8.07922	0.308
8.119	0.351
8.15878	0.4
8.19857	0.441
8.23835	0.5
8.27813	0.528
8.31792	0.531
8.3577	0.523
8.39748	0.521
8.43726	0.511
8.47705	0.5
8.51683	0.5
8.55661	0.5
8.5964	0.52
8.63618	0.576
8.67596	0.596
8.71575	0.598
8.75553	0.6
8.79531	0.623
8.83509	0.656
8.87488	0.696
8.91466	0.71
8.95444	0.71
8.99423	0.683
9.03401	0.638
9.07379	0.583
9.11357	0.583
9.15336	0.61
9.19314	0.618
9.23292	0.576
9.27271	0.521
9.31249	0.446
9.35227	0.366
9.39205	0.32
9.43184	0.273
9.47162	0.25
9.5114	0.246
9.55119	0.25
9.59097	0.251
9.63075	0.243
9.67054	0.221
9.71032	0.213
9.7501	0.213
9.78988	0.263
9.82967	0.333
9.86945	0.418
9.90923	0.511
9.94902	0.58
9.9888	0.615
10.0286	0.621
10.0684	0.605
10.1081	0.56
10.1479	0.486
10.1877	0.421
10.2275	0.353
10.2673	0.321
10.3071	0.311
10.3468	0.311
10.3866	0.321
10.4264	0.36
10.4662	0.388
10.506	0.411
10.5458	0.421
10.5855	0.441
10.6253	0.476
10.6651	0.516
10.7049	0.585
10.7447	0.64
10.7845	0.703
10.8242	0.753
10.864	0.798
10.9038	0.821
10.9436	0.841
10.9834	0.848
11.0232	0.85
11.0629	0.851
11.1027	0.851
11.1425	0.853
11.1823	0.86
11.2221	0.868
11.2619	0.875
11.3016	0.881
11.3414	0.885
11.3812	0.886
11.421	0.883
11.4608	0.881
11.5005	0.875
11.5403	0.871
11.5801	0.865
11.6199	0.858
11.6597	0.851
11.6995	0.841
11.7392	0.828
11.779	0.815
11.8188	0.793
11.8586	0.773
11.8984	0.733
11.9382	0.676
11.9779	0.63
12.0177	0.585
12.0575	0.58
12.0973	0.59
12.1371	0.611
12.1769	0.63
12.2166	0.643
12.2564	0.648
12.2962	0.651
12.336	0.653
12.3758	0.651
12.4156	0.646
12.4553	0.626
12.4951	0.608
12.5349	0.596
12.5747	0.59
12.6145	0.591
12.6543	0.611
12.694	0.636
12.7338	0.658
12.7736	0.678
12.8134	0.693
12.8532	0.703
12.893	0.715
12.9327	0.723
12.9725	0.73
13.0123	0.738
13.0521	0.741
13.0919	0.75
13.1316	0.758
13.1714	0.775
13.2112	0.783
13.251	0.798
13.2908	0.803
13.3306	0.816
13.3703	0.831
13.4101	0.84
13.4499	0.843
13.4897	0.845
13.5295	0.843
13.5693	0.845
13.609	0.846
13.6488	0.846
13.6886	0.846
13.7284	0.845
13.7682	0.843
13.808	0.84
13.8477	0.833
13.8875	0.831
13.9273	0.83
13.9671	0.828
14.0069	0.825
14.0467	0.823
14.0864	0.821
14.1262	0.82
14.166	0.82
14.2058	0.82
14.2456	0.82
14.2854	0.818
14.3251	0.82
14.3649	0.821
14.4047	0.821
14.4445	0.825
14.4843	0.826
14.524	0.828
14.5638	0.83
14.6036	0.835
14.6434	0.838
14.6832	0.84
14.723	0.841
14.7627	0.843
14.8025	0.843
14.8423	0.845
14.8821	0.845
14.9219	0.846
14.9617	0.846
15.0014	0.848
15.0412	0.846
15.081	0.846
15.1208	0.846
15.1606	0.846
15.2004	0.845
15.2401	0.846
15.2799	0.845
15.3197	0.843
15.3595	0.841
15.3993	0.84
15.4391	0.838
15.4788	0.835
15.5186	0.835
15.5584	0.831
15.5982	0.831
15.638	0.828
15.6778	0.823
15.7175	0.821
15.7573	0.821
15.7971	0.821
15.8369	0.818
15.8767	0.815
15.9165	0.811
15.9562	0.81
15.996	0.841
16.0358	0.808
