Infrared Spectrum: TETRAVINYLSILANE
Formula: C8 H12 Si
CAS: 1112-55-6
State: SOLID (BETWEEN SALTS)
Class: COBLENTZ
Instrument: BECKMAN IR-4 (HYBRID PRISM-GRATING)
Sampling: TRANSMISSION
Resolution: 4
Origin: PENINSULAR CHEMRESEARCH, INC., GAINESVILLE, FLORIDA
MICROMETERS	TRANSMITTANCE
2.015	0.982
2.04991	0.977
2.08483	0.97
2.11974	0.962
2.15466	0.967
2.18957	0.958
2.22448	0.955
2.2594	0.953
2.29431	0.956
2.32922	0.96
2.36414	0.968
2.39905	0.968
2.43397	0.957
2.46888	0.957
2.50379	0.96
2.53871	0.956
2.57362	0.95
2.60853	0.948
2.64345	0.948
2.67836	0.947
2.71328	0.947
2.74819	0.957
2.7831	0.967
2.81802	0.972
2.85293	0.98
2.88784	0.981
2.92276	0.971
2.95767	0.97
2.99259	0.961
3.0275	0.962
3.06241	0.962
3.09733	0.961
3.13224	0.95
3.16715	0.938
3.20207	0.898
3.23698	0.798
3.2719	0.633
3.30681	0.71
3.34172	0.662
3.37664	0.638
3.41155	0.787
3.44646	0.928
3.48138	0.941
3.51629	0.96
3.55121	0.971
3.58612	0.978
3.62103	0.978
3.65595	0.976
3.69086	0.98
3.72578	0.981
3.76069	0.983
3.7956	0.985
3.83052	0.981
3.86543	0.981
3.90034	0.981
3.93526	0.98
3.97017	0.98
4.00509	0.98
4.04	0.98
4.07491	0.98
4.10983	0.971
4.14474	0.968
4.17965	0.96
4.21457	0.948
4.24948	0.95
4.2844	0.958
4.31931	0.96
4.35422	0.953
4.38914	0.95
4.42405	0.96
4.45896	0.975
4.49388	0.976
4.52879	0.976
4.56371	0.977
4.59862	0.975
4.63353	0.97
4.66845	0.96
4.70336	0.962
4.73827	0.971
4.77319	0.975
4.8081	0.973
4.84302	0.971
4.87793	0.967
4.91284	0.951
4.94776	0.941
4.98267	0.943
5.01758	0.948
5.0525	0.946
5.08741	0.941
5.12233	0.918
5.15724	0.877
5.19215	0.826
5.22707	0.887
5.26198	0.948
5.29689	0.967
5.33181	0.97
5.36672	0.967
5.40164	0.967
5.43655	0.967
5.47146	0.968
5.50638	0.97
5.54129	0.963
5.57621	0.961
5.61112	0.96
5.64603	0.961
5.68095	0.958
5.71586	0.957
5.75077	0.96
5.78569	0.965
5.8206	0.966
5.85552	0.968
5.89043	0.967
5.92534	0.967
5.96026	0.967
5.99517	0.962
6.03008	0.957
6.065	0.957
6.09991	0.947
6.13483	0.931
6.16974	0.907
6.20465	0.882
6.23957	0.778
6.27448	0.691
6.30939	0.837
6.34431	0.92
6.37922	0.928
6.41414	0.931
6.44905	0.928
6.48396	0.925
6.51888	0.928
6.55379	0.93
6.5887	0.931
6.62362	0.932
6.65853	0.931
6.69345	0.932
6.72836	0.931
6.76327	0.918
6.79819	0.901
6.8331	0.891
6.86801	0.89
6.90293	0.878
6.93784	0.85
6.97276	0.821
7.00767	0.752
7.04258	0.631
7.0775	0.467
7.11241	0.345
7.14733	0.591
7.18224	0.748
7.21715	0.86
7.25207	0.882
7.28698	0.905
7.32189	0.91
7.35681	0.918
7.39172	0.918
7.42664	0.916
7.46155	0.906
7.49646	0.876
7.53138	0.86
7.56629	0.911
7.6012	0.917
7.63612	0.922
7.67103	0.922
7.70595	0.918
7.74086	0.912
7.77577	0.9
7.81069	0.875
7.8456	0.851
7.88051	0.862
7.91543	0.898
7.95034	0.908
7.98526	0.911
8.02017	0.913
8.05508	0.91
8.09	0.907
8.12491	0.902
8.15982	0.9
8.19474	0.895
8.22965	0.888
8.26457	0.882
8.29948	0.885
8.33439	0.882
8.36931	0.881
8.40422	0.878
8.43913	0.871
8.47405	0.852
8.50896	0.841
8.54388	0.847
8.57879	0.851
8.6137	0.852
8.64862	0.851
8.68353	0.842
8.71844	0.836
8.75336	0.821
8.78827	0.817
8.82319	0.828
8.8581	0.836
8.89301	0.843
8.92793	0.84
8.96284	0.831
8.99776	0.828
9.03267	0.812
9.06758	0.801
9.1025	0.792
9.13741	0.782
9.17232	0.773
9.20724	0.758
9.24215	0.741
9.27707	0.712
9.31198	0.708
9.34689	0.708
9.38181	0.701
9.41672	0.708
9.45163	0.71
9.48655	0.71
9.52146	0.71
9.55638	0.708
9.59129	0.706
9.6262	0.697
9.66112	0.676
9.69603	0.662
9.73094	0.611
9.76586	0.541
9.80077	0.448
9.83569	0.338
9.8706	0.228
9.90551	0.185
9.94043	0.228
9.97534	0.35
10.0103	0.48
10.0452	0.592
10.0801	0.667
10.115	0.702
10.1499	0.721
10.1848	0.711
10.2197	0.688
10.2547	0.637
10.2896	0.561
10.3245	0.448
10.3594	0.32
10.3943	0.208
10.4292	0.155
10.4641	0.178
10.499	0.262
10.534	0.378
10.5689	0.501
10.6038	0.592
10.6387	0.647
10.6736	0.697
10.7085	0.737
10.7434	0.765
10.7784	0.778
10.8133	0.797
10.8482	0.811
10.8831	0.818
10.918	0.827
10.9529	0.832
10.9878	0.84
11.0228	0.847
11.0577	0.851
11.0926	0.853
11.1275	0.856
11.1624	0.86
11.1973	0.863
11.2322	0.868
11.2672	0.87
11.3021	0.871
11.337	0.872
11.3719	0.876
11.4068	0.877
11.4417	0.878
11.4766	0.88
11.5115	0.878
11.5465	0.878
11.5814	0.878
11.6163	0.88
11.6512	0.88
11.6861	0.88
11.721	0.88
11.7559	0.878
11.7909	0.877
11.8258	0.873
11.8607	0.866
11.8956	0.861
11.9305	0.855
11.9654	0.842
12.0003	0.832
12.0353	0.827
12.0702	0.83
12.1051	0.837
12.14	0.838
12.1749	0.841
12.2098	0.848
12.2447	0.85
12.2797	0.848
12.3146	0.85
12.3495	0.847
12.3844	0.846
12.4193	0.851
12.4542	0.852
12.4891	0.856
12.524	0.858
12.559	0.86
12.5939	0.851
12.6288	0.84
12.6637	0.827
12.6986	0.822
12.7335	0.822
12.7684	0.821
12.8034	0.818
12.8383	0.813
12.8732	0.803
12.9081	0.795
12.943	0.791
12.9779	0.788
13.0128	0.787
13.0478	0.788
13.0827	0.788
13.1176	0.777
13.1525	0.758
13.1874	0.73
13.2223	0.696
13.2572	0.648
13.2921	0.607
13.3271	0.551
13.362	0.487
13.3969	0.42
13.4318	0.357
13.4667	0.277
13.5016	0.22
13.5365	0.18
13.5715	0.141
13.6064	0.117
13.6413	0.106
13.6762	0.1
13.7111	0.11
13.746	0.115
13.7809	0.131
13.8159	0.147
13.8508	0.163
13.8857	0.166
13.9206	0.167
13.9555	0.175
13.9904	0.18
14.0253	0.183
14.0603	0.186
14.0952	0.185
14.1301	0.18
14.165	0.177
14.1999	0.178
14.2348	0.187
14.2697	0.201
14.3046	0.231
14.3396	0.258
14.3745	0.297
14.4094	0.331
14.4443	0.372
14.4792	0.417
14.5141	0.46
14.549	0.5
14.584	0.536
14.6189	0.562
14.6538	0.577
14.6887	0.597
14.7236	0.603
14.7585	0.608
14.7934	0.607
14.8284	0.602
14.8633	0.592
14.8982	0.583
14.9331	0.577
14.968	0.571
15.0029	0.565
