Infrared Spectrum: DIMETHOXYDIMETHYLSILANE
Formula: C4 H12 O2 Si
CAS: 1112-39-6
State: SOLUTION (10% IN CCl4 FOR 3800-1300, 2% IN CS2 FOR 1300-650, AND 10% IN CCl4 FOR 650-250 CM^-^1)
Boiling point: 82 C
Class: COBLENTZ II
Instrument: PERKIN-ELMER 521 (GRATING)
Instrument parameters: FILTERS AT 3150, 2500, 2000, 1150, 700, 410. GRATING CHANGES: 2000, 630 CM^-^1
Sampling: TRANSMISSION
Path length: 0.012 CM, 0.011 CM, AND 0.011 CM
Resolution: 2
Origin: DOW CORNING CORP.
1/CM	TRANSMITTANCE
241.964	0.674
251.315	0.699
260.667	0.734
270.018	0.747
279.369	0.754
288.72	0.761
298.072	0.758
307.423	0.745
316.774	0.723
326.125	0.65
335.477	0.574
344.828	0.617
354.179	0.55
363.53	0.349
372.882	0.374
382.233	0.516
391.584	0.719
400.936	0.813
410.287	0.851
419.638	0.861
428.989	0.87
438.341	0.876
447.692	0.88
457.043	0.872
466.394	0.884
475.746	0.891
485.097	0.895
494.448	0.895
503.799	0.891
513.151	0.899
522.502	0.899
531.853	0.895
541.204	0.891
550.556	0.891
559.907	0.893
569.258	0.893
578.61	0.891
587.961	0.888
597.312	0.852
606.663	0.826
616.015	0.86
625.366	0.885
634.717	0.888
644.068	0.888
653.42	0.888
662.771	0.888
672.122	0.888
681.473	0.888
690.825	0.884
700.176	0.883
709.527	0.871
718.879	0.8
728.23	0.772
737.581	0.821
746.932	0.86
756.284	0.87
765.635	0.865
774.986	0.847
784.337	0.752
793.689	0.51
803.04	0.613
812.391	0.793
821.742	0.774
831.094	0.69
840.445	0.436
849.796	0.416
859.148	0.371
868.499	0.672
877.85	0.791
887.201	0.84
896.553	0.862
905.904	0.871
915.255	0.874
924.606	0.876
933.958	0.88
943.309	0.88
952.66	0.88
962.011	0.881
971.363	0.883
980.714	0.876
990.065	0.883
999.417	0.879
1008.77	0.881
1018.12	0.88
1027.47	0.875
1036.82	0.869
1046.17	0.842
1055.52	0.805
1064.88	0.695
1074.23	0.412
1083.58	0.251
1092.93	0.374
1102.28	0.558
1111.63	0.689
1120.98	0.762
1130.33	0.794
1139.69	0.812
1149.04	0.813
1158.39	0.807
1167.74	0.784
1177.09	0.722
1186.44	0.699
1195.79	0.768
1205.14	0.818
1214.5	0.835
1223.85	0.837
1233.2	0.826
1242.55	0.776
1251.9	0.529
1261.25	0.821
1270.6	0.846
1279.95	0.846
1289.31	0.846
1298.66	0.758
1308.01	0.755
1317.36	0.755
1326.71	0.743
1336.06	0.711
1345.41	0.742
1354.76	0.766
1364.12	0.768
1373.47	0.757
1382.82	0.715
1392.17	0.621
1401.52	0.607
1410.87	0.646
1420.22	0.66
1429.57	0.65
1438.93	0.603
1448.28	0.509
1457.63	0.441
1466.98	0.486
1476.33	0.608
1485.68	0.689
1495.03	0.745
1504.38	0.774
1513.74	0.796
1523.09	0.81
1532.44	0.831
1541.79	0.836
1551.14	0.838
1560.49	0.836
1569.84	0.84
1579.19	0.845
1588.55	0.846
1597.9	0.851
1607.25	0.856
1616.6	0.862
1625.95	0.866
1635.3	0.867
1644.65	0.862
1654.01	0.861
1663.36	0.864
1672.71	0.866
1682.06	0.857
1691.41	0.844
1700.76	0.841
1710.11	0.854
1719.46	0.859
1728.82	0.846
1738.17	0.869
1747.52	0.88
1756.87	0.884
1766.22	0.885
1775.57	0.879
1784.92	0.872
1794.27	0.844
1803.63	0.807
1812.98	0.806
1822.33	0.821
1831.68	0.84
1841.03	0.869
1850.38	0.867
1859.73	0.857
1869.08	0.849
1878.44	0.871
1887.79	0.877
1897.14	0.876
1906.49	0.871
1915.84	0.859
1925.19	0.852
1934.54	0.846
1943.89	0.846
1953.25	0.861
1962.6	0.871
1971.95	0.876
1981.3	0.874
1990.65	0.874
2000	0.893
2009.35	0.9011
2018.7	0.905
2028.06	0.9049
2037.41	0.9027
2046.76	0.8957
2056.11	0.891
2065.46	0.8914
2074.81	0.9068
2084.16	0.91
2093.51	0.91
2102.87	0.9037
2112.22	0.899
2121.57	0.894
2130.92	0.8845
2140.27	0.8726
2149.62	0.8595
2158.97	0.8605
2168.32	0.8662
2177.68	0.8738
2187.03	0.8836
2196.38	0.8937
2205.73	0.898
2215.08	0.901
2224.43	0.9038
2233.78	0.9058
2243.13	0.909
2252.49	0.911
2261.84	0.911
2271.19	0.911
2280.54	0.911
2289.89	0.911
2299.24	0.91
2308.59	0.91
2317.94	0.91
2327.3	0.91
2336.65	0.91
2346	0.91
2355.35	0.91
2364.7	0.91
2374.05	0.911
2383.4	0.911
2392.76	0.911
2402.11	0.911
2411.46	0.913
2420.81	0.913
2430.16	0.913
2439.51	0.913
2448.86	0.913
2458.21	0.9119
2467.57	0.91
2476.92	0.909
2486.27	0.9053
2495.62	0.9003
2504.97	0.9007
2514.32	0.9088
2523.67	0.9084
2533.02	0.904
2542.38	0.908
2551.73	0.906
2561.08	0.904
2570.43	0.904
2579.78	0.895
2589.13	0.888
2598.48	0.883
2607.83	0.8809
2617.19	0.879
2626.54	0.875
2635.89	0.876
2645.24	0.8762
2654.59	0.8832
2663.94	0.89
2673.29	0.8916
2682.64	0.894
2692	0.894
2701.35	0.893
2710.7	0.8896
2720.05	0.8835
2729.4	0.8795
2738.75	0.8755
2748.1	0.8704
2757.45	0.8574
2766.81	0.8457
2776.16	0.8261
2785.51	0.8025
2794.86	0.7709
2804.21	0.7209
2813.56	0.6367
2822.91	0.4438
2832.26	0.0352
2841.62	0.1772
2850.97	0.4768
2860.32	0.554
2869.67	0.5431
2879.02	0.4997
2888.37	0.416
2897.72	0.2448
2907.07	0.201
2916.43	0.2061
2925.78	0.1994
2935.13	0.0468
2944.48	0.066
2953.83	0.0684
2963.18	0.0464
2972.53	0.0641
2981.88	0.1835
2991.24	0.3185
3000.59	0.4503
3009.94	0.5246
3019.29	0.5849
3028.64	0.6358
3037.99	0.6806
3047.34	0.7108
3056.69	0.7596
3066.05	0.7883
3075.4	0.8126
3084.75	0.831
3094.1	0.843
3103.45	0.8548
3112.8	0.8714
3122.15	0.881
3131.51	0.8849
3140.86	0.8909
3150.21	0.894
3159.56	0.895
3168.91	0.895
3178.26	0.895
3187.61	0.8961
3196.96	0.899
3206.32	0.901
3215.67	0.904
3225.02	0.906
3234.37	0.908
3243.72	0.91
3253.07	0.91
3262.42	0.91
3271.77	0.908
3281.13	0.908
3290.48	0.908
3299.83	0.908
3309.18	0.906
3318.53	0.9035
3327.88	0.901
3337.23	0.901
3346.58	0.903
3355.94	0.904
3365.29	0.905
3374.64	0.9057
3383.99	0.906
3393.34	0.906
3402.69	0.906
3412.04	0.905
3421.39	0.904
3430.75	0.904
3440.1	0.903
3449.45	0.905
3458.8	0.905
3468.15	0.901
3477.5	0.8989
3486.85	0.896
3496.2	0.8959
3505.56	0.896
3514.91	0.898
3524.26	0.8992
3533.61	0.903
3542.96	0.904
3552.31	0.904
3561.66	0.904
3571.01	0.904
3580.37	0.903
3589.72	0.903
3599.07	0.903
3608.42	0.9
3617.77	0.9
3627.12	0.894
3636.47	0.893
3645.82	0.895
3655.18	0.896
3664.53	0.896
3673.88	0.894
3683.23	0.894
3692.58	0.8932
3701.93	0.893
3711.28	0.893
3720.63	0.8949
3729.99	0.895
3739.34	0.893
3748.69	0.889
3758.04	0.89
3767.39	0.894
3776.74	0.8991
3786.09	0.905
3795.44	0.9008
