Infrared Spectrum: Dimethoate oxygen analog
Formula: C 5 H 12 N O 4 P S
CAS: 1113-02-6
State: gas
Instrument: HP-GC/MS/IRD
Origin: NIST Mass Spectrometry Data Center
1/CM	ABSORBANCE
550	0.0074675
562	0.017342
574	0.0233015
586	0.0249545
598	0.0281445
610	0.0254185
622	0.01334
634	0.0066555
646	0.003915
658	0.002552
670	0.001856
682	0.0021895
694	0.0029145
706	0.0023925
718	0.00232
730	0.0041325
742	0.0100195
754	0.0239685
766	0.0419775
778	0.040049
790	0.0241425
802	0.01566
814	0.0194735
826	0.027347
838	0.015399
850	0.0047415
862	0.0018995
874	0.000812
886	0.000667
898	0.000609
910	0.000145
922	5.8e-05
934	0.0003045
946	0.000667
958	0.001305
970	0.0024215
982	0.004292
994	0.008265
1006	0.0183715
1018	0.045704
1030	0.101891
1042	0.145
1054	0.122772
1066	0.080736
1078	0.044254
1090	0.02407
1102	0.017777
1114	0.01508
1126	0.0130065
1138	0.012064
1150	0.011977
1162	0.012238
1174	0.0156745
1186	0.017835
1198	0.0143695
1210	0.012093
1222	0.013021
1234	0.01624
1246	0.02378
1258	0.0364675
1270	0.048517
1282	0.054752
1294	0.036714
1306	0.0155585
1318	0.0076125
1330	0.00493
1342	0.0038425
1354	0.0035235
1366	0.0032335
1378	0.0033495
1390	0.0044515
1402	0.0078155
1414	0.0110055
1426	0.0087145
1438	0.0070325
1450	0.008961
1462	0.010846
1474	0.013456
1486	0.017603
1498	0.0231275
1510	0.0268685
1522	0.027753
1534	0.0262885
1546	0.0221995
1558	0.0165445
1570	0.0109765
1582	0.00696
1594	0.004582
1606	0.003103
1618	0.0022765
1630	0.0020445
1642	0.002378
1654	0.003567
1666	0.006206
1678	0.010672
1690	0.023693
1702	0.066004
1714	0.093583
1726	0.0402665
1738	0.016878
1750	0.007598
1762	0.00348
1774	0.0017255
1786	0.001247
1798	0.001218
1810	0.0013485
1822	0.001334
1834	0.0010875
1846	0.0008555
1858	0.0008845
1870	0.0009425
1882	0.0008845
1894	0.000696
1906	0.000435
1918	0.000232
1930	0.0001305
1942	5.8e-05
1954	4.35e-05
1966	5.8e-05
1978	5.8e-05
1990	0.0001015
2002	0.0001305
2014	7.25e-05
2026	2.9e-05
2038	5.8e-05
2050	7.25e-05
2062	0.0001015
2074	0.0001305
2086	0.0001595
2098	0.0001885
2110	0.000203
2122	0.0001885
2134	7.25e-05
2146	4.35e-05
2158	0
2170	1.45e-05
2182	4.35e-05
2194	5.8e-05
2206	8.7e-05
2218	8.7e-05
2230	5.8e-05
2242	5.8e-05
2254	0.0001015
2266	0.000116
2278	0.000145
2290	0.0001305
2302	8.7e-05
2314	5.8e-05
2326	2.9e-05
2338	2.9e-05
2350	2.9e-05
2362	1.45e-05
2374	1.45e-05
2386	5.8e-05
2398	2.9e-05
2410	4.35e-05
2422	2.9e-05
2434	5.8e-05
2446	7.25e-05
2458	7.25e-05
2470	8.7e-05
2482	4.35e-05
2494	7.25e-05
2506	2.9e-05
2518	5.8e-05
2530	7.25e-05
2542	0.000116
2554	0.000174
2566	0.000232
2578	0.0002465
2590	0.0002175
2602	0.0002755
2614	0.0002755
2626	0.000319
2638	0.000348
2650	0.0003045
2662	0.000203
2674	0.0001885
2686	0.000203
2698	0.0001595
2710	0.000174
2722	0.000203
2734	0.000232
2746	0.0002465
2758	0.000319
2770	0.0004785
2782	0.0006815
2794	0.0010585
2806	0.0019285
2818	0.0029145
2830	0.002929
2842	0.00377
2854	0.00783
2866	0.009048
2878	0.006003
2890	0.006757
2902	0.00841
2914	0.010498
2926	0.012383
2938	0.015428
2950	0.023084
2962	0.031842
2974	0.0187775
2986	0.010556
2998	0.0092655
3010	0.008671
3022	0.0083375
3034	0.007105
3046	0.0055245
3058	0.004756
3070	0.004263
3082	0.0036975
3094	0.0030885
3106	0.0024505
3118	0.001943
3130	0.0015515
3142	0.0012325
3154	0.0009715
3166	0.000783
3178	0.0007105
3190	0.000667
3202	0.000638
3214	0.000667
3226	0.000783
3238	0.0009135
3250	0.001073
3262	0.0012905
3274	0.001595
3286	0.001856
3298	0.0021315
3310	0.002465
3322	0.002929
3334	0.004002
3346	0.0063945
3358	0.009947
3370	0.0117885
3382	0.0104835
3394	0.008468
3406	0.0068005
3418	0.0053215
3430	0.00493
3442	0.0060755
3454	0.0057275
3466	0.0034365
3478	0.002262
3490	0.0015225
3502	0.00087
3514	0.0005075
3526	0.0002465
3538	0.0001885
3550	0.000174
3562	0.0001015
3574	0.0001305
3586	7.25e-05
3598	0.0001015
3610	7.25e-05
3622	5.8e-05
3634	8.7e-05
3646	8.7e-05
3658	7.25e-05
3670	0.000145
3682	5.8e-05
3694	5.8e-05
3706	4.35e-05
3718	4.35e-05
3730	5.8e-05
3742	4.35e-05
3754	1.45e-05
3766	2.9e-05
3778	7.25e-05
3790	2.9e-05
3802	1.45e-05
3814	5.8e-05
3826	2.9e-05
3838	7.25e-05
