Infrared Spectrum: N-Methyldiacetamide
Formula: C 5 H 9 N O 2
CAS: 1113-68-4
State: gas
Origin: EPA-IR VAPOR PHASE LIBRARY
1/CM	ABSORBANCE
549.8	0.004236
559.445	0.005206
569.09	0.004066
578.734	0.002806
588.379	0.003966
598.024	0.007926
607.669	0.011376
617.313	0.010456
626.958	0.006336
636.603	0.002956
646.248	0.001436
655.893	0.0009606
665.537	0.0008512
675.182	0.001246
684.827	0.0011414
694.472	0.001206
704.116	0.0004608
713.761	0.00025643
723.406	0.0003508
733.051	0.00029573
742.695	0.00029106
752.34	0.00025991
761.985	0.0001793
771.63	0.0001339
781.275	0.0003084
790.919	0.00027233
800.564	0.00027305
810.209	0.0005545
819.854	0.0004876
829.498	0.0006228
839.143	0.0008017
848.788	0.0007939
858.433	0.001246
868.078	0.001716
877.722	0.003286
887.367	0.005556
897.012	0.005946
906.657	0.004516
916.301	0.001606
925.946	0.0009995
935.591	0.001356
945.236	0.002486
954.88	0.005406
964.525	0.012236
974.17	0.017326
983.815	0.020116
993.46	0.019036
1003.1	0.017046
1012.75	0.011916
1022.39	0.006656
1032.04	0.005666
1041.68	0.005526
1051.33	0.004326
1060.97	0.004246
1070.62	0.004086
1080.26	0.003956
1089.91	0.004926
1099.55	0.006666
1109.2	0.009656
1118.84	0.015236
1128.49	0.022876
1138.13	0.027596
1147.78	0.026316
1157.42	0.020276
1167.07	0.015126
1176.71	0.011606
1186.36	0.009206
1196	0.008366
1205.64	0.008256
1215.29	0.010406
1224.93	0.015896
1234.58	0.029026
1244.22	0.048796
1253.87	0.063106
1263.51	0.060336
1273.16	0.045426
1282.8	0.039636
1292.45	0.047766
1302.09	0.054406
1311.74	0.052316
1321.38	0.039176
1331.03	0.022916
1340.67	0.012296
1350.32	0.013186
1359.96	0.028306
1369.61	0.043716
1379.25	0.044616
1388.9	0.025776
1398.54	0.014206
1408.18	0.013836
1417.83	0.016226
1427.47	0.016326
1437.12	0.013916
1446.76	0.010736
1456.41	0.009426
1466.05	0.008396
1475.7	0.007156
1485.34	0.005996
1494.99	0.005126
1504.63	0.004456
1514.28	0.003956
1523.92	0.003726
1533.57	0.003426
1543.21	0.003216
1552.86	0.003006
1562.5	0.002816
1572.15	0.002806
1581.79	0.002716
1591.44	0.002716
1601.08	0.002656
1610.73	0.002956
1620.37	0.003256
1630.01	0.003586
1639.66	0.004336
1649.3	0.005716
1658.95	0.007196
1668.59	0.009926
1678.24	0.015066
1687.88	0.022316
1697.53	0.034576
1707.17	0.070776
1716.82	0.129616
1726.46	0.132566
1736.11	0.091906
1745.75	0.026056
1755.4	0.010286
1765.04	0.006946
1774.69	0.005816
1784.33	0.004976
1793.98	0.004616
1803.62	0.003516
1813.27	0.002306
1822.91	0.001446
1832.55	0.0011087
1842.2	0.0010646
1851.84	0.0010664
1861.49	0.0010381
1871.13	0.0009903
1880.78	0.0007677
1890.42	0.0006
1900.07	0.0006232
1909.71	0.0005547
1919.36	0.0007118
1929	0.0008459
1938.65	0.0009838
1948.29	0.0009222
1957.94	0.0007873
1967.58	0.0007532
1977.23	0.0007769
1986.87	0.0008582
1996.52	0.0007499
2006.16	0.000671
2015.81	0.0005489
2025.45	0.0003935
2035.1	0.0004143
2044.74	0.0004908
2054.38	0.0005003
2064.03	0.0004523
2073.67	0.0004087
2083.32	0.0003642
2092.96	0.0004459
2102.61	0.0005599
2112.25	0.000584
2121.9	0.0007155
2131.54	0.000714
2141.19	0.0007048
2150.83	0.0007217
2160.48	0.0007091
2170.12	0.0005702
2179.77	0.0003685
2189.41	0.0003137
2199.06	0.0003313
2208.7	0.0003322
2218.35	0.00023415
2227.99	0.00024475
2237.64	0.0003355
2247.28	0.0003295
2256.92	0.000369
2266.57	0.0004894
2276.21	0.0004591
2285.86	0.0003325
2295.5	0.0003575
2305.15	0.0003534
2314.79	0.0003317
2324.44	0.00027252
2334.08	0.0003609
2343.73	0.0003239
2353.37	0.0002984
2363.02	0.0003101
2372.66	0.0003104
2382.31	0.0003341
2391.95	0.00029233
2401.6	0.0003817
2411.24	0.0002834
2420.89	0.00024089
2430.53	0.00021134
2440.18	0.00026479
2449.82	0.00018705
2459.47	0.00021092
2469.11	0.00026892
2478.75	0.00025248
2488.4	0.0003403
2498.04	0.0003808
2507.69	0.0003888
2517.33	0.0003492
2526.98	0.0003706
2536.62	0.00028753
2546.27	0.000343
2555.91	0.0004077
2565.56	0.000393
2575.2	0.0004527
2584.85	0.0004872
2594.49	0.0004481
2604.14	0.0005516
2613.78	0.0004306
2623.43	0.0004836
2633.07	0.0002882
2642.72	0.00027682
2652.36	0.00027143
2662.01	0.00022441
2671.65	0.00022815
2681.29	0.0003534
2690.94	0.0003745
2700.58	0.0003412
2710.23	0.0003255
2719.87	0.0003417
2729.52	0.00027711
2739.16	0.00026988
2748.81	0.0002566
2758.45	0.0002298
2768.1	0.0001742
2777.74	0.0003649
2787.39	0.0004049
2797.03	0.0004694
2806.68	0.0004909
2816.32	0.0007211
2825.97	0.0009011
2835.61	0.0011747
2845.26	0.001306
2854.9	0.0011897
2864.55	0.001256
2874.19	0.001476
2883.84	0.001636
2893.48	0.001996
2903.12	0.002676
2912.77	0.003176
2922.41	0.003886
2932.06	0.005006
2941.7	0.006796
2951.35	0.008356
2960.99	0.008786
2970.64	0.008076
2980.28	0.007016
2989.93	0.006166
2999.57	0.005296
3009.22	0.005326
3018.86	0.005096
3028.51	0.004276
3038.15	0.003196
3047.8	0.002216
3057.44	0.001756
3067.09	0.001576
3076.73	0.001386
3086.38	0.0011756
3096.02	0.0009961
3105.67	0.0011069
3115.31	0.000938
3124.95	0.0008074
3134.6	0.0007648
3144.24	0.0007299
3153.89	0.0005683
3163.53	0.0005892
3173.18	0.0005912
3182.82	0.0004105
3192.47	0.0004425
3202.11	0.0004736
3211.76	0.0004295
3221.4	0.0004119
3231.05	0.00021766
3240.69	0.00025859
3250.34	0.00018874
3259.98	0.0003614
3269.63	0.00024255
3279.27	0.00022876
3288.92	0.000199807
3298.56	0.0003534
3308.21	0.00022789
3317.85	0.0001135
3327.49	0.00026614
3337.14	0.0003501
3346.78	0.0003225
3356.43	0.0004373
3366.07	0.00028562
3375.72	0.0005418
3385.36	0.0005263
3395.01	0.000856
3404.65	0.0010455
3414.3	0.001446
3423.94	0.001816
3433.59	0.001806
3443.23	0.001476
3452.88	0.0007189
3462.52	0.0005542
3472.17	0.0004773
3481.81	0.0003783
3491.46	0.000421
3501.1	0.00021498
3510.75	0.0004001
3520.39	0.00027032
3530.04	0.0001055
3539.68	0.0003623
3549.32	2.2e-05
3558.97	0.0003753
3568.61	0.00023933
3578.26	0.0004
3587.9	0.0001747
3597.55	0.00026679
3607.19	0.00028654
3616.84	0.0003663
3626.48	0.00019148
3636.13	0.0001837
3645.77	0.0001305
3655.42	0.00025648
3665.06	0.0001731
3674.71	0.00021483
3684.35	0.0001654
3694	0.0001061
3703.64	0.0001219
3713.29	0.0003495
3722.93	9.2e-05
3732.58	0.0001431
3742.22	7.8e-05
3751.86	0.00027668
3761.51	0.0001666
3771.15	5.6e-05
3780.8	9.5e-05
3790.44	0.00022519
3800.09	0.0001279
3809.73	0.0003233
3819.38	3.9e-05
3829.02	0.0001266
3838.67	0.0001523
3848.31	0.0001685
3857.96	0.00019219
3867.6	8.8e-05
3877.25	0.0001632
3886.89	4.6e-05
3896.54	0.0001321
3906.18	0.0001679
3915.83	0.00028643
3925.47	0.000181
3935.12	4.2e-05
3944.76	0.0001606
3954.41	0.00021635
3964.05	0.00022427
3973.69	0.000122
3983.34	0.0003344
3992.98	0.00025224
