Infrared Spectrum: 3-Pentanone, 2,4-dimethyl-, oxime
Formula: C7 H15 N O
CAS: 1113-74-2
State: LIQUID (NEAT)
Class: COBLENTZ III
Instrument: BAIRD (GRATING)
Instrument parameters: NaCl PRISM
Path length: 0.003 CM
Resolution: 2
Origin: WYANDOTTE CHEMICALS CORP.
1/CM	TRANSMITTANCE
626	0.586
635	0.5715
644	0.5486
653	0.5209
662	0.5235
671	0.5036
680	0.4905
689	0.485
698	0.5162
707	0.4822
716	0.4009
725	0.3553
734	0.3245
743	0.274
752	0.2413
761	0.2483
770	0.301
779	0.3764
788	0.4381
797	0.4716
806	0.458
815	0.5341
824	0.5998
833	0.6321
842	0.6484
851	0.6085
860	0.4755
869	0.2763
878	0.3872
887	0.5946
896	0.4951
905	0.4953
914	0.3358
923	0.1105
932	0.024
941	0.0074
950	0.0176
959	0.0691
968	0.1026
977	0.17
986	0.3402
995	0.5879
1004	0.6642
1013	0.6366
1022	0.4315
1031	0.38
1040	0.5882
1049	0.63
1058	0.6978
1067	0.5604
1076	0.6386
1085	0.7013
1094	0.5833
1103	0.3926
1112	0.3971
1121	0.3851
1130	0.5327
1139	0.6996
1148	0.7183
1157	0.6141
1166	0.5806
1175	0.6423
1184	0.7588
1193	0.775
1202	0.7664
1211	0.7266
1220	0.6364
1229	0.6327
1238	0.5585
1247	0.5994
1256	0.7022
1265	0.6358
1274	0.5847
1283	0.6334
1292	0.662
1301	0.6294
1310	0.5491
1319	0.4621
1328	0.4312
1337	0.4765
1346	0.4645
1355	0.467
1364	0.4326
1373	0.2563
1382	0.1981
1391	0.1507
1400	0.2049
1409	0.3809
1418	0.365
1427	0.3055
1436	0.2467
1445	0.1499
1454	0.1025
1463	0.0788
1472	0.0418
1481	0.0247
1490	0.0873
1499	0.2329
1508	0.407
1517	0.4735
1526	0.5846
1535	0.6364
1544	0.6738
1553	0.7011
1562	0.7217
1571	0.7374
1580	0.751
1589	0.7638
1598	0.775
1607	0.7843
1616	0.7919
1625	0.7931
1634	0.7801
1643	0.7563
1652	0.7218
1661	0.6537
1670	0.56
1679	0.5476
1688	0.5941
1697	0.7628
1706	0.79
1715	0.767
1724	0.7297
1733	0.7272
1742	0.8017
1751	0.8344
1760	0.852
1769	0.8649
1778	0.8726
1787	0.8769
1796	0.8797
1805	0.8818
1814	0.8829
1823	0.8832
1832	0.886
1841	0.8901
1850	0.8891
1859	0.8878
1868	0.886
1877	0.8862
1886	0.8869
1895	0.8889
1904	0.8949
1913	0.8994
1922	0.9026
1931	0.9112
1940	0.9132
1949	0.9147
1958	0.9158
1967	0.9169
1976	0.918
1985	0.9186
1994	0.9191
2003	0.9192
2012	0.9191
2021	0.9191
2030	0.919
2039	0.919
2048	0.9189
2057	0.9189
2066	0.9189
2075	0.9191
2084	0.9193
2093	0.9195
2102	0.9198
2111	0.9203
2120	0.921
2129	0.9227
2138	0.9239
2147	0.9234
2156	0.9218
2165	0.92
2174	0.9179
2183	0.9152
2192	0.9125
2201	0.9097
2210	0.9069
2219	0.905
2228	0.9037
2237	0.9046
2246	0.9058
2255	0.905
2264	0.903
2273	0.9
2282	0.9038
2291	0.9088
2300	0.9079
2309	0.9026
2318	0.8918
2327	0.8888
2336	0.8891
2345	0.8895
2354	0.8901
2363	0.8903
2372	0.89
2381	0.8896
2390	0.8881
2399	0.8847
2408	0.8855
2417	0.8876
2426	0.8897
2435	0.8917
2444	0.8925
2453	0.8904
2462	0.8848
2471	0.8841
2480	0.8844
2489	0.884
2498	0.8813
2507	0.8762
2516	0.8707
2525	0.8643
2534	0.8576
2543	0.8513
2552	0.8452
2561	0.8387
2570	0.8323
2579	0.8262
2588	0.8198
2597	0.8132
2606	0.8066
2615	0.7996
2624	0.7921
2633	0.785
2642	0.7782
2651	0.7713
2660	0.7633
2669	0.7553
2678	0.7465
2687	0.7359
2696	0.7236
2705	0.7079
2714	0.6926
2723	0.6786
2732	0.6644
2741	0.6502
2750	0.6298
2759	0.6049
2768	0.5781
2777	0.5581
2786	0.5339
2795	0.5086
2804	0.4778
2813	0.4417
2822	0.4005
2831	0.3678
2840	0.3371
2849	0.3065
2858	0.2761
2867	0.2241
2876	0.1866
2885	0.1395
2894	0.0569
2903	0.0292
2912	0.0227
2921	0.0205
2930	0.0189
2939	0.0162
2948	0.0137
2957	0.0115
2966	0.01
2975	0.0086
2984	0.0074
2993	0.0065
3002	0.006
3011	0.0064
3020	0.008
3029	0.0356
3038	0.0863
3047	0.1368
3056	0.1527
3065	0.1531
3074	0.1409
3083	0.1254
3092	0.1099
3101	0.0946
3110	0.0793
3119	0.0642
3128	0.0492
3137	0.0419
3146	0.0382
3155	0.0352
3164	0.032
3173	0.0283
3182	0.0247
3191	0.0225
3200	0.0204
3209	0.0182
3218	0.0161
3227	0.0141
3236	0.0125
3245	0.0108
3254	0.01
3263	0.0095
3272	0.0092
3281	0.0089
3290	0.009
3299	0.01
3308	0.0113
3317	0.0128
3326	0.0147
3335	0.0172
3344	0.0198
3353	0.0235
3362	0.0282
3371	0.0355
3380	0.0451
3389	0.0553
3398	0.066
3407	0.0784
3416	0.0901
3425	0.1011
3434	0.1117
3443	0.1217
3452	0.134
3461	0.1504
3470	0.1668
3479	0.1984
3488	0.2255
3497	0.2456
3506	0.2643
3515	0.283
3524	0.3036
3533	0.3435
3542	0.3769
3551	0.417
3560	0.4412
3569	0.4597
3578	0.4773
3587	0.5069
3596	0.5493
3605	0.5857
3614	0.6424
3623	0.7052
3632	0.7285
3641	0.7485
3650	0.7668
3659	0.7919
3668	0.8121
3677	0.8282
3686	0.8412
3695	0.8535
3704	0.865
3713	0.8761
3722	0.887
3731	0.8987
3740	0.9069
3749	0.913
3758	0.9181
3767	0.9224
3776	0.9259
3785	0.9292
3794	0.932
3803	0.9345
3812	0.9368
3821	0.939
3830	0.9414
3839	0.944
3848	0.9458
3857	0.9464
3866	0.9461
3875	0.9455
3884	0.9447
3893	0.9439
3902	0.9426
3911	0.9414
3920	0.9404
3929	0.9394
3938	0.9383
3947	0.9373
3956	0.9364
3965	0.936
3974	0.9357
3983	0.9356
3992	0.9356
