Infrared Spectrum: Tillam
Formula: C 10 H 21 N O S
CAS: 1114-71-2
State: gas
Instrument: HP-GC/MS/IRD
Origin: NIST Mass Spectrometry Data Center
1/CM	ABSORBANCE
550	0.000396
562	0.00011
574	0.00022
586	0.000165
598	0.000319
610	0.00044
622	0.000594
634	0.000902
646	0.002035
658	0.00539
670	0.006391
682	0.002893
694	0.002013
706	0.002596
718	0.002266
730	0.002288
742	0.00275
754	0.002244
766	0.001738
778	0.002805
790	0.004499
802	0.003168
814	0.001969
826	0.002596
838	0.004235
850	0.006171
862	0.005236
874	0.0033
886	0.004004
898	0.003685
910	0.002398
922	0.002002
934	0.003344
946	0.005181
958	0.004499
970	0.003454
982	0.00286
994	0.002871
1006	0.002706
1018	0.002211
1030	0.002508
1042	0.003344
1054	0.005093
1066	0.00869
1078	0.01199
1090	0.019624
1102	0.031218
1114	0.037367
1126	0.023815
1138	0.008734
1150	0.005236
1162	0.005104
1174	0.007909
1186	0.016687
1198	0.023397
1210	0.019778
1222	0.02893
1234	0.038401
1246	0.022968
1258	0.016929
1270	0.016665
1282	0.015059
1294	0.011649
1306	0.010989
1318	0.009801
1330	0.007788
1342	0.009669
1354	0.013365
1366	0.018315
1378	0.026675
1390	0.031009
1402	0.029447
1414	0.017226
1426	0.009977
1438	0.010142
1450	0.013079
1462	0.015994
1474	0.01188
1486	0.005379
1498	0.003289
1510	0.002409
1522	0.001914
1534	0.001606
1546	0.001441
1558	0.001375
1570	0.001463
1582	0.001639
1594	0.001925
1606	0.002332
1618	0.003542
1630	0.006017
1642	0.010373
1654	0.030074
1666	0.098593
1678	0.070301
1690	0.014289
1702	0.005775
1714	0.003311
1726	0.002156
1738	0.001606
1750	0.001331
1762	0.001056
1774	0.000847
1786	0.000627
1798	0.00044
1810	0.000363
1822	0.000308
1834	0.000275
1846	0.000231
1858	0.000231
1870	0.000209
1882	0.000187
1894	0.000209
1906	0.000176
1918	0.000143
1930	0.000132
1942	9.9e-05
1954	7.7e-05
1966	5.5e-05
1978	5.5e-05
1990	2.2e-05
2002	3.3e-05
2014	7.7e-05
2026	0.000121
2038	0.000165
2050	0.000165
2062	0.000198
2074	0.000187
2086	0.000165
2098	0.000132
2110	0.00011
2122	7.7e-05
2134	3.3e-05
2146	5.5e-05
2158	4.4e-05
2170	7.7e-05
2182	6.6e-05
2194	8.8e-05
2206	5.5e-05
2218	7.7e-05
2230	8.8e-05
2242	6.6e-05
2254	3.3e-05
2266	3.3e-05
2278	1.1e-05
2290	3.3e-05
2302	5.5e-05
2314	0.00011
2326	0.000143
2338	0.000154
2350	0.000176
2362	0.000143
2374	0.000165
2386	0.000143
2398	0.000165
2410	0.000209
2422	0.000242
2434	0.000187
2446	0.000154
2458	9.9e-05
2470	0.000121
2482	0.000165
2494	0.000176
2506	0.00022
2518	0.00022
2530	0.000143
2542	0.000132
2554	0.000132
2566	0.000143
2578	0.000154
2590	0.000132
2602	0.000154
2614	0.000231
2626	0.000308
2638	0.00033
2650	0.000396
2662	0.000528
2674	0.000594
2686	0.000638
2698	0.000627
2710	0.000682
2722	0.000759
2734	0.000968
2746	0.001221
2758	0.001199
2770	0.001298
2782	0.001584
2794	0.002002
2806	0.002387
2818	0.002893
2830	0.003608
2842	0.004961
2854	0.007953
2866	0.015389
2878	0.023584
2890	0.023584
2902	0.019668
2914	0.024552
2926	0.035431
2938	0.046167
2950	0.042625
2962	0.044187
2974	0.053493
2986	0.030899
2998	0.014971
3010	0.007612
3022	0.004873
3034	0.00363
3046	0.002794
3058	0.002233
3070	0.001859
3082	0.001573
3094	0.00132
3106	0.001188
3118	0.001078
3130	0.000979
3142	0.000902
3154	0.000869
3166	0.000869
3178	0.000682
3190	0.000638
3202	0.000517
3214	0.000385
3226	0.000319
3238	0.000286
3250	0.00022
3262	0.000264
3274	0.000264
3286	0.000275
3298	0.000407
3310	0.000715
3322	0.000924
3334	0.000594
3346	0.000429
3358	0.000275
3370	0.000275
3382	0.000198
3394	0.000176
3406	0.000176
3418	0.000154
3430	0.000132
3442	0.000143
3454	0.000132
3466	0.000132
3478	7.7e-05
3490	0.00011
3502	3.3e-05
3514	6.6e-05
3526	5.5e-05
3538	5.5e-05
3550	8.8e-05
3562	0.000143
3574	8.8e-05
3586	7.7e-05
3598	0.000121
3610	6.6e-05
3622	0.000187
3634	0.000176
3646	0.000154
3658	0.000154
3670	0.000187
3682	0.000209
3694	0.000187
3706	0.000165
3718	0.000209
3730	0.000198
3742	0.000132
3754	0.000242
3766	0.000275
3778	0.000231
3790	0.000209
3802	0.000209
3814	0.000297
3826	0.000198
3838	0.000209
