Infrared Spectrum: N-Beta-HYDROXYETHYL-N,N'-BIS-(4-(6-METHYL)-1,3,3a,7-TETRAZAINDENYL)ETHYLENEDIAMINE
Formula: C16 H20 N10 O
CAS: 111472-54-9
State: SOLID (KBr PRESSING)
Melting point: 236-238 C
Class: COBLENTZ
Instrument: Not specified, most likely a prism, grating, or hybrid spectrometer.
Sampling: TRANSMISSION
Resolution: 4
Origin: EASTMAN KODAK COMPANY, RESEARCH LABORATORIES, ROCHESTER, N.Y.
MICROMETERS	TRANSMITTANCE
2.042	0.637
2.07714	0.635
2.11228	0.635
2.14742	0.635
2.18257	0.635
2.21771	0.635
2.25285	0.635
2.28799	0.637
2.32313	0.639
2.35827	0.641
2.39341	0.648
2.42855	0.653
2.4637	0.653
2.49884	0.653
2.53398	0.656
2.56912	0.662
2.60426	0.665
2.6394	0.667
2.67454	0.672
2.70969	0.675
2.74483	0.679
2.77997	0.681
2.81511	0.66
2.85025	0.616
2.88539	0.573
2.92053	0.54
2.95568	0.513
2.99082	0.493
3.02596	0.419
3.0611	0.337
3.09624	0.336
3.13138	0.35
3.16652	0.378
3.20166	0.397
3.23681	0.414
3.27195	0.425
3.30709	0.472
3.34223	0.482
3.37737	0.482
3.41251	0.456
3.44765	0.479
3.4828	0.508
3.51794	0.548
3.55308	0.601
3.58822	0.63
3.62336	0.651
3.6585	0.67
3.69364	0.681
3.72878	0.698
3.76393	0.707
3.79907	0.719
3.83421	0.731
3.86935	0.742
3.90449	0.75
3.93963	0.761
3.97477	0.766
4.00992	0.773
4.04506	0.777
4.0802	0.782
4.11534	0.789
4.15048	0.797
4.18562	0.803
4.22076	0.803
4.2559	0.803
4.29105	0.808
4.32619	0.82
4.36133	0.829
4.39647	0.836
4.43161	0.843
4.46675	0.844
4.50189	0.848
4.53704	0.851
4.57218	0.851
4.60732	0.855
4.64246	0.858
4.6776	0.858
4.71274	0.86
4.74788	0.862
4.78303	0.862
4.81817	0.865
4.85331	0.869
4.88845	0.869
4.92359	0.872
4.95873	0.874
4.99387	0.876
5.02901	0.881
5.06416	0.883
5.0993	0.886
5.13444	0.888
5.16958	0.891
5.20472	0.897
5.23986	0.9
5.275	0.904
5.31015	0.904
5.34529	0.911
5.38043	0.918
5.41557	0.918
5.45071	0.918
5.48585	0.921
5.52099	0.928
5.55613	0.932
5.59128	0.932
5.62642	0.933
5.66156	0.937
5.6967	0.937
5.73184	0.935
5.76698	0.932
5.80212	0.932
5.83727	0.926
5.87241	0.904
5.90755	0.832
5.94269	0.707
5.97783	0.597
6.01297	0.531
6.04811	0.452
6.08326	0.277
6.1184	0.069
6.15354	0.228
6.18868	0.303
6.22382	0.177
6.25896	0.151
6.2941	0.034
6.32924	0.127
6.36439	0.331
6.39953	0.311
6.43467	0.13
6.46981	0.141
6.50495	0.398
6.54009	0.465
6.57523	0.501
6.61038	0.505
6.64552	0.508
6.68066	0.513
6.7158	0.651
6.75094	0.66
6.78608	0.621
6.82122	0.501
6.85636	0.477
6.89151	0.301
6.92665	0.257
6.96179	0.275
6.99693	0.44
7.03207	0.465
7.06721	0.47
7.10235	0.512
7.1375	0.569
7.17264	0.583
7.20778	0.613
7.24292	0.641
7.27806	0.576
7.3132	0.604
7.34834	0.667
7.38348	0.635
7.41863	0.47
7.45377	0.336
7.48891	0.397
7.52405	0.508
7.55919	0.454
7.59433	0.385
7.62947	0.435
7.66462	0.52
7.69976	0.52
7.7349	0.541
7.77004	0.653
7.80518	0.698
7.84032	0.698
7.87546	0.679
7.91061	0.667
7.94575	0.358
7.98089	0.273
8.01603	0.592
8.05117	0.651
8.08631	0.621
8.12145	0.668
8.15659	0.703
8.19174	0.439
8.22688	0.29
8.26202	0.297
8.29716	0.405
8.3323	0.357
8.36744	0.506
8.40258	0.632
8.43773	0.602
8.47287	0.421
8.50801	0.39
8.54315	0.5
8.57829	0.625
8.61343	0.66
8.64857	0.547
8.68371	0.529
8.71886	0.581
8.754	0.614
8.78914	0.621
8.82428	0.684
8.85942	0.724
8.89456	0.763
8.9297	0.792
8.96485	0.804
8.99999	0.81
9.03513	0.804
9.07027	0.712
9.10541	0.491
9.14055	0.581
9.17569	0.707
9.21084	0.736
9.24598	0.7
9.28112	0.548
9.31626	0.599
9.3514	0.637
9.38654	0.628
9.42168	0.648
9.45682	0.66
9.49197	0.662
9.52711	0.606
9.56225	0.59
9.59739	0.625
9.63253	0.653
9.66767	0.656
9.70281	0.632
9.73796	0.618
9.7731	0.601
9.80824	0.667
9.84338	0.712
9.87852	0.763
9.91366	0.79
9.9488	0.801
9.98394	0.813
10.0191	0.827
10.0542	0.837
10.0894	0.844
10.1245	0.848
10.1597	0.853
10.1948	0.857
10.2299	0.86
10.2651	0.864
10.3002	0.867
10.3354	0.871
10.3705	0.871
10.4056	0.871
10.4408	0.86
10.4759	0.817
10.5111	0.808
10.5462	0.811
10.5813	0.813
10.6165	0.857
10.6516	0.874
10.6868	0.886
10.7219	0.895
10.7571	0.902
10.7922	0.9
10.8273	0.846
10.8625	0.844
10.8976	0.883
10.9328	0.9
10.9679	0.907
11.003	0.914
11.0382	0.914
11.0733	0.918
11.1085	0.918
11.1436	0.891
11.1788	0.885
11.2139	0.914
11.249	0.925
11.2842	0.933
11.3193	0.937
11.3545	0.935
11.3896	0.921
11.4247	0.925
11.4599	0.933
11.495	0.94
11.5302	0.942
11.5653	0.944
11.6004	0.947
11.6356	0.951
11.6707	0.952
11.7059	0.952
11.741	0.952
11.7762	0.952
11.8113	0.951
11.8464	0.947
11.8816	0.942
11.9167	0.935
11.9519	0.932
11.987	0.916
12.0221	0.867
12.0573	0.836
12.0924	0.827
12.1276	0.777
12.1627	0.773
12.1978	0.764
12.233	0.754
12.2681	0.756
12.3033	0.752
12.3384	0.745
12.3736	0.719
12.4087	0.721
12.4438	0.775
12.479	0.81
12.5141	0.832
12.5493	0.844
12.5844	0.851
12.6195	0.855
12.6547	0.855
12.6898	0.846
12.725	0.817
12.7601	0.777
12.7953	0.74
12.8304	0.679
12.8655	0.533
12.9007	0.461
12.9358	0.547
12.971	0.688
13.0061	0.78
13.0412	0.804
13.0764	0.81
13.1115	0.815
13.1467	0.815
13.1818	0.815
13.2169	0.817
13.2521	0.818
13.2872	0.825
13.3224	0.827
13.3575	0.829
13.3927	0.831
13.4278	0.832
13.4629	0.834
13.4981	0.839
13.5332	0.841
13.5684	0.841
13.6035	0.841
13.6386	0.839
13.6738	0.839
13.7089	0.836
13.7441	0.832
13.7792	0.824
13.8144	0.818
13.8495	0.811
13.8846	0.804
13.9198	0.79
13.9549	0.782
13.9901	0.771
14.0252	0.757
14.0603	0.745
14.0955	0.735
14.1306	0.712
14.1658	0.689
14.2009	0.663
14.236	0.634
14.2712	0.609
14.3063	0.599
14.3415	0.597
14.3766	0.632
14.4118	0.675
14.4469	0.696
14.482	0.707
14.5172	0.712
14.5523	0.719
14.5875	0.726
14.6226	0.733
14.6577	0.74
14.6929	0.743
14.728	0.747
14.7632	0.747
14.7983	0.745
14.8335	0.735
14.8686	0.721
14.9037	0.703
14.9389	0.677
14.974	0.675
15.0092	0.681
15.0443	0.686
15.0794	0.684
15.1146	0.684
15.1497	0.681
15.1849	0.675
15.22	0.672
15.2551	0.672
15.2903	0.674
15.3254	0.675
15.3606	0.677
15.3957	0.677
15.4309	0.677
15.466	0.675
15.5011	0.667
15.5363	0.662
15.5714	0.66
15.6066	0.66
15.6417	0.662
15.6768	0.665
15.712	0.668
15.7471	0.677
15.7823	0.681
15.8174	0.691
15.8525	0.695
15.8877	0.7
15.9228	0.702
15.958	0.703
15.9931	0.703
