Infrared Spectrum: 1,2,4-BENZENETRIOL, TRIBUTYRATE
Formula: C18 H24 O6
CAS: 111443-88-0
Class: COBLENTZ
Instrument: Not specified, most likely a prism, grating, or hybrid spectrometer.
Sampling: TRANSMISSION
Path length: 0.0025 CM
Resolution: 4
Origin: TENNESSEE EASTMAN COMPANY, RESEARCH LABORATORIES
MICROMETERS	TRANSMITTANCE
2.043	0.966
2.08287	0.968
2.12274	0.968
2.16261	0.966
2.20247	0.968
2.24234	0.966
2.28221	0.964
2.32208	0.961
2.36195	0.961
2.40182	0.961
2.44169	0.963
2.48155	0.963
2.52142	0.963
2.56129	0.971
2.60116	0.976
2.64103	0.974
2.6809	0.978
2.72077	0.966
2.76063	0.963
2.8005	0.953
2.84037	0.946
2.88024	0.934
2.92011	0.939
2.95998	0.951
2.99985	0.956
3.03971	0.956
3.07958	0.959
3.11945	0.961
3.15932	0.958
3.19919	0.953
3.23906	0.941
3.27893	0.924
3.31879	0.924
3.35866	0.667
3.39853	0.56
3.4384	0.739
3.47827	0.679
3.51814	0.889
3.55801	0.921
3.59787	0.941
3.63774	0.949
3.67761	0.949
3.71748	0.953
3.75735	0.956
3.79722	0.956
3.83709	0.961
3.87695	0.964
3.91682	0.964
3.95669	0.964
3.99656	0.963
4.03643	0.963
4.0763	0.964
4.11617	0.963
4.15603	0.963
4.1959	0.959
4.23577	0.961
4.27564	1.001
4.31551	0.978
4.35538	0.953
4.39525	0.948
4.43511	0.951
4.47498	0.951
4.51485	0.951
4.55472	0.953
4.59459	0.951
4.63446	0.953
4.67433	0.958
4.71419	0.958
4.75406	0.953
4.79393	0.949
4.8338	0.948
4.87367	0.941
4.91354	0.939
4.95341	0.938
4.99327	0.936
5.03314	0.949
5.07301	0.941
5.11288	0.943
5.15275	0.943
5.19262	0.939
5.23249	0.933
5.27235	0.929
5.31222	0.918
5.35209	0.928
5.39196	0.899
5.43183	0.894
5.4717	0.874
5.51157	0.838
5.55143	0.774
5.5913	0.539
5.63117	0.29
5.67104	0.146
5.71091	0.273
5.75078	0.601
5.79065	0.716
5.83051	0.787
5.87038	0.846
5.91025	0.854
5.95012	0.878
5.98999	0.879
6.02986	0.883
6.06973	0.908
6.10959	0.886
6.14946	0.883
6.18933	0.859
6.2292	0.741
6.26907	0.826
6.30894	0.881
6.34881	0.908
6.38867	0.901
6.42854	0.889
6.46841	0.896
6.50828	0.861
6.54815	0.854
6.58802	0.752
6.62789	0.519
6.66775	0.323
6.70762	0.607
6.74749	0.762
6.78736	0.651
6.82723	0.612
6.8671	0.639
6.90697	0.722
6.94683	0.742
6.9867	0.667
7.02657	0.632
7.06644	0.649
7.10631	0.766
7.14618	0.801
7.18605	0.742
7.22591	0.617
7.26578	0.614
7.30565	0.567
7.34552	0.557
7.38539	0.587
7.42526	0.639
7.46513	0.691
7.50499	0.757
7.54486	0.789
7.58473	0.791
7.6246	0.704
7.66447	0.626
7.70434	0.614
7.74421	0.632
7.78407	0.636
7.82394	0.602
7.86381	0.534
7.90368	0.53
7.94355	0.564
7.98342	0.525
8.02329	0.499
8.06315	0.457
8.10302	0.534
8.14289	0.611
8.18276	0.637
8.22263	0.619
8.2625	0.54
8.30237	0.485
8.34223	0.41
8.3821	0.33
8.42197	0.268
8.46184	0.242
8.50171	0.233
8.54158	0.237
8.58145	0.245
8.62131	0.222
8.66118	0.176
8.70105	0.128
8.74092	0.111
8.78079	0.111
8.82066	0.131
8.86053	0.196
8.90039	0.285
8.94026	0.355
8.98013	0.333
9.02	0.263
9.05987	0.252
9.09974	0.258
9.13961	0.28
9.17947	0.315
9.21934	0.337
9.25921	0.337
9.29908	0.373
9.33895	0.487
9.37882	0.572
9.41869	0.639
9.45855	0.682
9.49842	0.704
9.53829	0.707
9.57816	0.699
9.61803	0.666
9.6579	0.614
9.69777	0.627
9.73763	0.724
9.7775	0.786
9.81737	0.801
9.85724	0.809
9.89711	0.826
9.93698	0.851
9.97685	0.863
10.0167	0.871
10.0566	0.871
10.0965	0.868
10.1363	0.844
10.1762	0.779
10.2161	0.669
10.2559	0.602
10.2958	0.601
10.3357	0.711
10.3755	0.797
10.4154	0.834
10.4553	0.849
10.4951	0.851
10.535	0.848
10.5749	0.829
10.6147	0.803
10.6546	0.769
10.6945	0.721
10.7343	0.666
10.7742	0.616
10.8141	0.59
10.854	0.582
10.8938	0.582
10.9337	0.602
10.9736	0.622
11.0134	0.657
11.0533	0.686
11.0932	0.702
11.133	0.707
11.1729	0.709
11.2128	0.711
11.2526	0.712
11.2925	0.712
11.3324	0.712
11.3722	0.722
11.4121	0.741
11.452	0.751
11.4919	0.757
11.5317	0.772
11.5716	0.794
11.6115	0.804
11.6513	0.804
11.6912	0.801
11.7311	0.801
11.7709	0.797
11.8108	0.791
11.8507	0.782
11.8905	0.771
11.9304	0.757
11.9703	0.749
12.0101	0.742
12.05	0.746
12.0899	0.769
12.1297	0.794
12.1696	0.811
12.2095	0.824
12.2494	0.829
12.2892	0.828
12.3291	0.819
12.369	0.809
12.4088	0.804
12.4487	0.801
12.4886	0.797
12.5284	0.797
12.5683	0.799
12.6082	0.808
12.648	0.813
12.6879	0.821
12.7278	0.829
12.7676	0.836
12.8075	0.848
12.8474	0.849
12.8873	0.851
12.9271	0.849
12.967	0.851
13.0069	0.851
13.0467	0.851
13.0866	0.844
13.1265	0.833
13.1663	0.821
13.2062	0.806
13.2461	0.796
13.2859	0.789
13.3258	0.787
13.3657	0.792
13.4055	0.811
13.4454	0.819
13.4853	0.824
13.5251	0.829
13.565	0.831
13.6049	0.833
13.6448	0.833
13.6846	0.833
13.7245	0.833
13.7644	0.833
13.8042	0.833
13.8441	0.831
13.884	0.828
13.9238	0.824
13.9637	0.821
14.0036	0.818
14.0434	0.814
14.0833	0.813
14.1232	0.811
14.163	0.806
14.2029	0.804
14.2428	0.801
14.2827	0.799
14.3225	0.794
14.3624	0.789
14.4023	0.787
14.4421	0.784
14.482	0.779
14.5219	0.772
14.5617	0.771
14.6016	0.766
14.6415	0.761
14.6813	0.757
14.7212	0.752
14.7611	0.749
14.8009	0.747
14.8408	0.741
14.8807	0.737
14.9205	0.732
14.9604	0.726
15.0003	0.726
15.0402	0.721
15.08	0.712
15.1199	0.704
15.1598	0.701
15.1996	0.701
15.2395	0.692
15.2794	0.689
15.3192	0.684
15.3591	0.677
15.399	0.674
15.4388	0.671
15.4787	0.666
15.5186	0.664
15.5584	0.661
15.5983	0.656
15.6382	0.654
15.6781	0.652
15.7179	0.652
15.7578	0.651
15.7977	0.649
15.8375	0.647
15.8774	0.642
15.9173	0.642
15.9571	0.642
15.997	0.642
