Infrared Spectrum: N,N-Diethylbutyramide
Formula: C 8 H 17 N O
CAS: 1114-76-7
State: gas
Origin: EPA-IR VAPOR PHASE LIBRARY
1/CM	ABSORBANCE
549.8	0.0012256
559.445	0.001693
569.09	0.002053
578.734	0.002693
588.379	0.002943
598.024	0.003013
607.669	0.002403
617.313	0.001653
626.958	0.0009573
636.603	0.0008334
646.248	0.0007025
655.893	0.0008014
665.537	0.0010186
675.182	0.0006677
684.827	0.0009183
694.472	0.0010369
704.116	0.0012108
713.761	0.0008654
723.406	0.0011869
733.051	0.0007266
742.695	0.0011543
752.34	0.001473
761.985	0.001663
771.63	0.002333
781.275	0.003863
790.919	0.005723
800.564	0.005253
810.209	0.005053
819.854	0.004553
829.498	0.002493
839.143	0.001543
848.788	0.001503
858.433	0.001723
868.078	0.001933
877.722	0.002653
887.367	0.002963
897.012	0.002193
906.657	0.001673
916.301	0.001553
925.946	0.001853
935.591	0.001823
945.236	0.001823
954.88	0.001473
964.525	0.0009594
974.17	0.0011596
983.815	0.001191
993.46	0.001733
1003.1	0.002333
1012.75	0.002813
1022.39	0.003483
1032.04	0.003973
1041.68	0.005513
1051.33	0.008193
1060.97	0.012833
1070.62	0.017703
1080.26	0.020173
1089.91	0.020273
1099.55	0.016383
1109.2	0.011673
1118.84	0.009673
1128.49	0.011453
1138.13	0.018163
1147.78	0.020293
1157.42	0.013033
1167.07	0.006923
1176.71	0.004713
1186.36	0.004923
1196	0.006733
1205.64	0.011843
1215.29	0.020303
1224.93	0.025153
1234.58	0.025563
1244.22	0.029793
1253.87	0.032233
1263.51	0.029333
1273.16	0.026453
1282.8	0.021513
1292.45	0.016243
1302.09	0.015703
1311.74	0.015973
1321.38	0.013213
1331.03	0.011763
1340.67	0.014503
1350.32	0.018983
1359.96	0.023253
1369.61	0.026603
1379.25	0.032023
1388.9	0.032183
1398.54	0.030443
1408.18	0.041513
1417.83	0.051763
1427.47	0.044283
1437.12	0.030873
1446.76	0.028843
1456.41	0.032283
1466.05	0.030753
1475.7	0.024383
1485.34	0.016373
1494.99	0.009323
1504.63	0.006513
1514.28	0.005253
1523.92	0.004523
1533.57	0.004023
1543.21	0.003363
1552.86	0.002963
1562.5	0.002943
1572.15	0.002793
1581.79	0.002953
1591.44	0.003183
1601.08	0.003663
1610.73	0.004583
1620.37	0.006253
1630.01	0.009153
1639.66	0.014033
1649.3	0.027143
1658.95	0.068913
1668.59	0.133823
1678.24	0.131363
1687.88	0.056513
1697.53	0.017453
1707.17	0.008533
1716.82	0.005673
1726.46	0.004363
1736.11	0.003593
1745.75	0.002913
1755.4	0.002383
1765.04	0.001963
1774.69	0.001713
1784.33	0.001433
1793.98	0.001373
1803.62	0.0012243
1813.27	0.0010364
1822.91	0.000962
1832.55	0.0008916
1842.2	0.0008088
1851.84	0.0008779
1861.49	0.0008071
1871.13	0.000717
1880.78	0.0007441
1890.42	0.0007791
1900.07	0.000708
1909.71	0.0007441
1919.36	0.0006714
1929	0.0006067
1938.65	0.0006993
1948.29	0.0006094
1957.94	0.000632
1967.58	0.0006206
1977.23	0.0006563
1986.87	0.0005865
1996.52	0.0005582
2006.16	0.0005812
2015.81	0.000555
2025.45	0.0005454
2035.1	0.0005246
2044.74	0.0005334
2054.38	0.0005504
2064.03	0.0005742
2073.67	0.0005973
2083.32	0.0006686
2092.96	0.0006918
2102.61	0.0005953
2112.25	0.000634
2121.9	0.0006107
2131.54	0.00056
2141.19	0.000586
2150.83	0.0005948
2160.48	0.0006415
2170.12	0.0006238
2179.77	0.0006037
2189.41	0.0005028
2199.06	0.0005534
2208.7	0.0005278
2218.35	0.0006627
2227.99	0.0005188
2237.64	0.000636
2247.28	0.0005546
2256.92	0.000551
2266.57	0.0004715
2276.21	0.0006167
2285.86	0.0005746
2295.5	0.0005718
2305.15	0.0005748
2314.79	0.0005853
2324.44	0.0006666
2334.08	0.0005698
2343.73	0.000607
2353.37	0.0006442
2363.02	0.0006157
2372.66	0.0005417
2382.31	0.0005838
2391.95	0.0006662
2401.6	0.0006389
2411.24	0.0006638
2420.89	0.000727
2430.53	0.0006609
2440.18	0.0006932
2449.82	0.0006474
2459.47	0.0006206
2469.11	0.0007127
2478.75	0.0006161
2488.4	0.0005879
2498.04	0.0006826
2507.69	0.0005974
2517.33	0.0005544
2526.98	0.0005639
2536.62	0.0007492
2546.27	0.0006918
2555.91	0.0007622
2565.56	0.0006681
2575.2	0.0006024
2584.85	0.0004684
2594.49	0.0006008
2604.14	0.0006024
2613.78	0.0007513
2623.43	0.0006587
2633.07	0.0007069
2642.72	0.0006976
2652.36	0.0007795
2662.01	0.0008628
2671.65	0.0010089
2681.29	0.0012138
2690.94	0.001393
2700.58	0.001363
2710.23	0.0012914
2719.87	0.001343
2729.52	0.001513
2739.16	0.001833
2748.81	0.001913
2758.45	0.001823
2768.1	0.001853
2777.74	0.002063
2787.39	0.002413
2797.03	0.002933
2806.68	0.003453
2816.32	0.004153
2825.97	0.005123
2835.61	0.005863
2845.26	0.006973
2854.9	0.009283
2864.55	0.014053
2874.19	0.023283
2883.84	0.030683
2893.48	0.029853
2903.12	0.028293
2912.77	0.030673
2922.41	0.036673
2932.06	0.047563
2941.7	0.053323
2951.35	0.048043
2960.99	0.051743
2970.64	0.068083
2980.28	0.069943
2989.93	0.052243
2999.57	0.032053
3009.22	0.017893
3018.86	0.010833
3028.51	0.007733
3038.15	0.005703
3047.8	0.004473
3057.44	0.003893
3067.09	0.003453
3076.73	0.002853
3086.38	0.002743
3096.02	0.002333
3105.67	0.002333
3115.31	0.002213
3124.95	0.001893
3134.6	0.001703
3144.24	0.001633
3153.89	0.001603
3163.53	0.001533
3173.18	0.001483
3182.82	0.0011496
3192.47	0.0010179
3202.11	0.0009874
3211.76	0.0007371
3221.4	0.0007969
3231.05	0.0005959
3240.69	0.0004886
3250.34	0.0005484
3259.98	0.0004318
3269.63	0.0006842
3279.27	0.0006338
3288.92	0.0005608
3298.56	0.0009316
3308.21	0.0011515
3317.85	0.001403
3327.49	0.001483
3337.14	0.001403
3346.78	0.0010192
3356.43	0.0006911
3366.07	0.0004997
3375.72	0.0004691
3385.36	0.000497
3395.01	0.0005524
3404.65	0.00039996
3414.3	0.0002687
3423.94	0.0003221
3433.59	0.00032602
3443.23	0.00041408
3452.88	0.00043216
3462.52	0.0004761
3472.17	0.0005493
3481.81	0.00035244
3491.46	0.0003171
3501.1	0.00036065
3510.75	0.000174
3520.39	0.00040333
3530.04	0.0005512
3539.68	0.000205
3549.32	0.00033035
3558.97	0.000305
3568.61	0.00021
3578.26	0.0002895
3587.9	0.0004941
3597.55	0.00039715
3607.19	0.0003044
3616.84	0.0002641
3626.48	0.00035609
3636.13	0.000206
3645.77	0.0003017
3655.42	0.0002331
3665.06	0.00036391
3674.71	0.0002863
3684.35	0.0004884
3694	0.00038682
3703.64	0.000278
3713.29	0.0002723
3722.93	0.000226
3732.58	0.00042757
3742.22	0.0005311
3751.86	0.0003191
3761.51	0.00040517
3771.15	0.0002959
3780.8	0.000335532
3790.44	0.0004333
3800.09	0.00041954
3809.73	0.0005216
3819.38	0.00040756
3829.02	0.00041478
3838.67	0.000334901
3848.31	0.00032352
3857.96	0.0002683
3867.6	0.000336655
3877.25	0.0005189
3886.89	0.000301
3896.54	0.00036306
3906.18	0.0004994
3915.83	0.0002496
3925.47	0.0004514
3935.12	0.00036067
3944.76	0.00042572
3954.41	0.0004574
3964.05	0.0005292
3973.69	0.0006224
3983.34	0.0004332
3992.98	0.00048
