Infrared Spectrum: Methyl 9,10-dihydroxystearate
Formula: C 19 H 38 O 4
CAS: 1115-01-1
State: gas
Origin: EPA-IR VAPOR PHASE LIBRARY
1/CM	ABSORBANCE
549.8	0.00218
559.445	0.00234
569.09	0.00179
578.734	0.00156
588.379	0.00118
598.024	0.0014
607.669	0.0017
617.313	0.00148
626.958	0.00157
636.603	0.00148
646.248	0.0017
655.893	0.00175
665.537	0.00181
675.182	0.00204
684.827	0.00191
694.472	0.00202
704.116	0.00254
713.761	0.00301
723.406	0.00339
733.051	0.00357
742.695	0.00313
752.34	0.00298
761.985	0.0027
771.63	0.00261
781.275	0.00286
790.919	0.00275
800.564	0.0031
810.209	0.00354
819.854	0.00376
829.498	0.00454
839.143	0.00478
848.788	0.00498
858.433	0.00513
868.078	0.00491
877.722	0.00468
887.367	0.00431
897.012	0.00422
906.657	0.00431
916.301	0.00454
925.946	0.0047
935.591	0.00457
945.236	0.00512
954.88	0.00555
964.525	0.00663
974.17	0.00776
983.815	0.00962
993.46	0.01189
1003.1	0.01428
1012.75	0.01664
1022.39	0.01861
1032.04	0.01914
1041.68	0.0193
1051.33	0.01966
1060.97	0.01889
1070.62	0.01764
1080.26	0.01681
1089.91	0.0159
1099.55	0.01527
1109.2	0.0154
1118.84	0.01607
1128.49	0.01765
1138.13	0.02154
1147.78	0.02734
1157.42	0.03301
1167.07	0.03694
1176.71	0.03706
1186.36	0.03397
1196	0.03301
1205.64	0.03145
1215.29	0.02965
1224.93	0.02916
1234.58	0.02942
1244.22	0.02912
1253.87	0.02712
1263.51	0.02362
1273.16	0.02006
1282.8	0.01788
1292.45	0.01646
1302.09	0.0157
1311.74	0.01513
1321.38	0.01451
1331.03	0.0145
1340.67	0.0158
1350.32	0.01768
1359.96	0.01792
1369.61	0.01577
1379.25	0.01321
1388.9	0.0109
1398.54	0.00866
1408.18	0.0075
1417.83	0.00762
1427.47	0.01024
1437.12	0.01749
1446.76	0.01668
1456.41	0.01739
1466.05	0.01554
1475.7	0.00895
1485.34	0.00503
1494.99	0.00345
1504.63	0.00273
1514.28	0.00218
1523.92	0.00188
1533.57	0.00173
1543.21	0.00159
1552.86	0.00156
1562.5	0.00139
1572.15	0.00129
1581.79	0.00126
1591.44	0.00105
1601.08	0.00104
1610.73	0.0009595
1620.37	0.0008503
1630.01	0.0008627
1639.66	0.0009287
1649.3	0.0009152
1658.95	0.0009179
1668.59	0.0011
1678.24	0.00135
1687.88	0.0017
1697.53	0.00246
1707.17	0.00392
1716.82	0.00667
1726.46	0.01197
1736.11	0.02176
1745.75	0.03522
1755.4	0.0513
1765.04	0.04372
1774.69	0.02574
1784.33	0.01323
1793.98	0.00594
1803.62	0.00289
1813.27	0.00169
1822.91	0.00118
1832.55	0.0008932
1842.2	0.0008029
1851.84	0.0006777
1861.49	0.0006603
1871.13	0.0006171
1880.78	0.0005665
1890.42	0.0005013
1900.07	0.0005516
1909.71	0.0005303
1919.36	0.000499
1929	0.0005176
1938.65	0.0005099
1948.29	0.0006448
1957.94	0.000639
1967.58	0.0006474
1977.23	0.0007575
1986.87	0.0007677
1996.52	0.0008242
2006.16	0.0008756
2015.81	0.0009309
2025.45	0.0009499
2035.1	0.001
2044.74	0.000911
2054.38	0.0008736
2064.03	0.0009079
2073.67	0.0007859
2083.32	0.000738
2092.96	0.0006316
2102.61	0.0005744
2112.25	0.0005119
2121.9	0.0004774
2131.54	0.0004798
2141.19	0.0004945
2150.83	0.0004956
2160.48	0.0003982
2170.12	0.0004422
2179.77	0.0004673
2189.41	0.0003783
2199.06	0.000342
2208.7	0.0004304
2218.35	0.0003673
2227.99	0.0002688
2237.64	0.0003906
2247.28	0.0003981
2256.92	0.0003783
2266.57	0.0003878
2276.21	0.0004228
2285.86	0.0003755
2295.5	0.0004055
2305.15	0.000459
2314.79	0.0005064
2324.44	0.000473
2334.08	0.0004831
2343.73	0.0005652
2353.37	0.0005017
2363.02	0.0004939
2372.66	0.0003972
2382.31	0.0005454
2391.95	0.0005823
2401.6	0.000518
2411.24	0.0005132
2420.89	0.000506
2430.53	0.0004972
2440.18	0.0004816
2449.82	0.0004366
2459.47	0.0004681
2469.11	0.000369
2478.75	0.0003587
2488.4	0.0004797
2498.04	0.000511
2507.69	0.0005627
2517.33	0.0005711
2526.98	0.0005884
2536.62	0.0007087
2546.27	0.0007488
2555.91	0.0007153
2565.56	0.0007316
2575.2	0.0009246
2584.85	0.0009278
2594.49	0.00117
2604.14	0.00116
2613.78	0.00127
2623.43	0.00137
2633.07	0.00143
2642.72	0.00151
2652.36	0.00175
2662.01	0.00174
2671.65	0.00206
2681.29	0.00194
2690.94	0.00202
2700.58	0.00197
2710.23	0.00207
2719.87	0.002
2729.52	0.00213
2739.16	0.00223
2748.81	0.00243
2758.45	0.00262
2768.1	0.00274
2777.74	0.00313
2787.39	0.00359
2797.03	0.00426
2806.68	0.00519
2816.32	0.0064
2825.97	0.00869
2835.61	0.01238
2845.26	0.02048
2854.9	0.03894
2864.55	0.05803
2874.19	0.04899
2883.84	0.0405
2893.48	0.03777
2903.12	0.04615
2912.77	0.06657
2922.41	0.09986
2932.06	0.13838
2941.7	0.12755
2951.35	0.0894
2960.99	0.0661
2970.64	0.04623
2980.28	0.02498
2989.93	0.01537
2999.57	0.01138
3009.22	0.00885
3018.86	0.00697
3028.51	0.00603
3038.15	0.00464
3047.8	0.00357
3057.44	0.00295
3067.09	0.00239
3076.73	0.00225
3086.38	0.002
3096.02	0.00174
3105.67	0.0016
3115.31	0.00138
3124.95	0.00128
3134.6	0.000978
3144.24	0.0008388
3153.89	0.00101
3163.53	0.0008658
3173.18	0.0007117
3182.82	0.0005593
3192.47	0.0006434
3202.11	0.0004639
3211.76	0.0003799
3221.4	0.0004031
3231.05	0.0002754
3240.69	0.0002842
3250.34	0.0003343
3259.98	0.0004541
3269.63	0.0002421
3279.27	0.0002431
3288.92	0.0001695
3298.56	0.0003005
3308.21	0.0002891
3317.85	0.0003951
3327.49	0.000436
3337.14	0.0003531
3346.78	0.0002981
3356.43	0.0005374
3366.07	0.000458
3375.72	0.0003818
3385.36	0.0004241
3395.01	0.0005415
3404.65	0.0002765
3414.3	0.0005617
3423.94	0.0004565
3433.59	0.0005426
3443.23	0.0004571
3452.88	0.0004931
3462.52	0.0007258
3472.17	0.0006556
3481.81	0.0009233
3491.46	0.0009393
3501.1	0.0009485
3510.75	0.0009632
3520.39	0.0008718
3530.04	0.0008712
3539.68	0.0007309
3549.32	0.0008864
3558.97	0.00105
3568.61	0.00113
3578.26	0.00152
3587.9	0.00196
3597.55	0.00287
3607.19	0.00424
3616.84	0.00516
3626.48	0.00511
3636.13	0.00488
3645.77	0.00489
3655.42	0.00523
3665.06	0.0043
3674.71	0.00263
3684.35	0.00147
3694	0.00108
3703.64	0.0008203
3713.29	0.0006749
3722.93	0.0007263
3732.58	0.0005799
3742.22	0.0008683
3751.86	0.0006762
3761.51	0.0007629
3771.15	0.0006613
3780.8	0.0006174
3790.44	0.0007612
3800.09	0.0004871
3809.73	0.0007328
3819.38	0.0005532
3829.02	0.0005557
3838.67	0.0007906
3848.31	0.0006069
3857.96	0.0007526
3867.6	0.0006341
3877.25	0.0004714
3886.89	0.0005275
3896.54	0.0007019
3906.18	0.0005442
3915.83	0.0007144
3925.47	0.0008239
3935.12	0.0009047
3944.76	0.0005294
3954.41	0.0004624
3964.05	0.0005976
3973.69	0.0005631
3983.34	0.0006357
3992.98	0.0003835
