Infrared Spectrum: n-AMYLGLYCINE
Formula: C7 H15 N O2
CAS: 1115-90-8
State: SOLID (KBr PELLET)
Class: COBLENTZ
Instrument: PERKIN-ELMER
Sampling: TRANSMISSION
Resolution: 4
Origin: ABBOTT LABORATORIES - WASHBURN
MICROMETERS	TRANSMITTANCE
2.027	0.448
2.06079	0.451
2.09457	0.451
2.12836	0.453
2.16214	0.456
2.19593	0.461
2.22971	0.467
2.2635	0.473
2.29728	0.472
2.33107	0.4751
2.36485	0.482
2.39864	0.4899
2.43242	0.5021
2.46621	0.5051
2.49999	0.509
2.53378	0.512
2.56756	0.5188
2.60135	0.524
2.63513	0.524
2.66892	0.524
2.7027	0.5239
2.73649	0.522
2.77027	0.5019
2.80406	0.4767
2.83784	0.4461
2.87163	0.4262
2.90541	0.412
2.9392	0.423
2.97298	0.436
3.00677	0.455
3.04055	0.4511
3.07434	0.4248
3.10812	0.3918
3.14191	0.3359
3.17569	0.2657
3.20948	0.2115
3.24326	0.1668
3.27705	0.1399
3.31083	0.1201
3.34462	0.0932
3.3784	0.0649
3.41219	0.065
3.44597	0.087
3.47976	0.106
3.51354	0.1598
3.54733	0.2123
3.58111	0.238
3.6149	0.253
3.64868	0.2688
3.68247	0.2908
3.71625	0.296
3.75004	0.2991
3.78382	0.3398
3.81761	0.3569
3.85139	0.3622
3.88518	0.3905
3.91896	0.4329
3.95275	0.4559
3.98653	0.4752
4.02032	0.5123
4.0541	0.532
4.08789	0.543
4.12167	0.5609
4.15546	0.5709
4.18924	0.5883
4.22303	0.612
4.25681	0.609
4.2906	0.6051
4.32438	0.5903
4.35817	0.6051
4.39195	0.617
4.42574	0.62
4.45952	0.6261
4.49331	0.6311
4.52709	0.634
4.56088	0.634
4.59466	0.6291
4.62845	0.6202
4.66223	0.6069
4.69602	0.593
4.7298	0.583
4.76359	0.578
4.79737	0.5881
4.83116	0.597
4.86494	0.604
4.89873	0.6149
4.93251	0.6244
4.9663	0.6342
5.00008	0.644
5.03387	0.644
5.06765	0.649
5.10144	0.653
5.13522	0.653
5.16901	0.6553
5.20279	0.6601
5.23658	0.6619
5.27036	0.663
5.30415	0.6575
5.33793	0.6626
5.37172	0.6614
5.4055	0.6639
5.43929	0.659
5.47307	0.6563
5.50686	0.659
5.54064	0.6565
5.57443	0.6466
5.60821	0.6421
5.642	0.634
5.67578	0.6294
5.70957	0.6137
5.74335	0.606
5.77714	0.5828
5.81092	0.569
5.84471	0.5609
5.87849	0.5275
5.91228	0.4877
5.94606	0.4054
5.97985	0.2709
6.01363	0.16
6.04742	0.1459
6.0812	0.13
6.11499	0.0926
6.14877	0.081
6.18256	0.086
6.21634	0.084
6.25013	0.0764
6.28391	0.0162
6.3177	0.02
6.35148	0.0526
6.38527	0.1669
6.41905	0.2437
6.45284	0.2991
6.48662	0.3014
6.52041	0.281
6.55419	0.2673
6.58798	0.2359
6.62176	0.2541
6.65555	0.3069
6.68933	0.3604
6.72312	0.4111
6.7569	0.439
6.79069	0.3817
6.82447	0.3695
6.85826	0.3745
6.89204	0.3962
6.92583	0.406
6.95961	0.3971
6.9934	0.3198
7.02718	0.1789
7.06097	0.118
7.09475	0.1785
7.12854	0.2547
7.16232	0.326
7.19611	0.3919
7.22989	0.409
7.26368	0.4279
7.29746	0.4181
7.33125	0.3794
7.36503	0.3132
7.39882	0.2151
7.4326	0.1595
7.46639	0.2278
7.50017	0.265
7.53396	0.2394
7.56774	0.3081
7.60153	0.4014
7.63532	0.397
7.6691	0.4672
7.70289	0.5184
7.73667	0.5524
7.77046	0.5721
7.80424	0.5825
7.83803	0.5605
7.87181	0.5237
7.9056	0.5665
7.93938	0.6035
7.97317	0.6222
8.00695	0.629
8.04074	0.631
8.07452	0.6291
8.10831	0.6158
8.14209	0.5936
8.17588	0.5876
8.20966	0.62
8.24345	0.6301
8.27723	0.6349
8.31102	0.639
8.3448	0.6425
8.37859	0.644
8.41237	0.6334
8.44616	0.6089
8.47994	0.6139
8.51373	0.6191
8.54751	0.6059
8.5813	0.5922
8.61508	0.5536
8.64887	0.5298
8.68265	0.5395
8.71644	0.5767
8.75022	0.6006
8.78401	0.6106
8.81779	0.6085
8.85158	0.5942
8.88536	0.5646
8.91915	0.4925
8.95293	0.5319
8.98672	0.5855
9.0205	0.6115
9.05429	0.6282
9.08807	0.6376
9.12186	0.6364
9.15564	0.635
9.18943	0.6239
9.22321	0.5943
9.257	0.5117
9.29078	0.5126
9.32457	0.606
9.35835	0.624
9.39214	0.6386
9.42592	0.6484
9.45971	0.649
9.49349	0.6522
9.52728	0.6551
9.56106	0.663
9.59485	0.6688
9.62863	0.675
9.66242	0.676
9.6962	0.676
9.72999	0.6761
9.76377	0.678
9.79756	0.6779
9.83134	0.681
9.86513	0.683
9.89891	0.6873
9.9327	0.692
9.96648	0.692
10.0003	0.69
10.0341	0.6893
10.0678	0.69
10.1016	0.688
10.1354	0.688
10.1692	0.6859
10.203	0.68
10.2368	0.6751
10.2705	0.671
10.3043	0.67
10.3381	0.67
10.3719	0.671
10.4057	0.6755
10.4395	0.6818
10.4733	0.6906
10.507	0.693
10.5408	0.6935
10.5746	0.692
10.6084	0.683
10.6422	0.6763
10.676	0.6515
10.7098	0.6489
10.7435	0.6538
10.7773	0.6673
10.8111	0.681
10.8449	0.6861
10.8787	0.6924
10.9125	0.693
10.9462	0.693
10.98	0.692
11.0138	0.6859
11.0476	0.6696
11.0814	0.6438
11.1152	0.6057
11.149	0.59
11.1827	0.6008
11.2165	0.627
11.2503	0.6441
11.2841	0.653
11.3179	0.6472
11.3517	0.6333
11.3855	0.6378
11.4192	0.656
11.453	0.661
11.4868	0.6663
11.5206	0.6759
11.5544	0.6809
11.5882	0.6845
11.6219	0.686
11.6557	0.6848
11.6895	0.68
11.7233	0.689
11.7571	0.688
11.7909	0.6857
11.8247	0.6827
11.8584	0.6778
11.8922	0.6693
11.926	0.6579
11.9598	0.6512
11.9936	0.648
12.0274	0.6527
12.0612	0.6625
12.0949	0.6719
12.1287	0.6755
12.1625	0.6851
12.1963	0.6927
12.2301	0.6937
12.2639	0.702
12.2976	0.7017
12.3314	0.703
12.3652	0.7049
12.399	0.703
12.4328	0.6982
12.4666	0.6904
12.5004	0.69
12.5341	0.6954
12.5679	0.7025
12.6017	0.7026
12.6355	0.695
12.6693	0.693
12.7031	0.688
12.7369	0.6759
12.7706	0.668
12.8044	0.661
12.8382	0.6412
12.872	0.639
12.9058	0.6501
12.9396	0.6673
12.9733	0.6693
13.0071	0.676
13.0409	0.68
13.0747	0.678
13.1085	0.676
13.1423	0.676
13.1761	0.6758
13.2098	0.6795
13.2436	0.6641
13.2774	0.666
13.3112	0.664
13.345	0.6673
13.3788	0.6724
13.4126	0.6722
13.4463	0.674
13.4801	0.673
13.5139	0.671
13.5477	0.6634
13.5815	0.6529
13.6153	0.6419
13.6491	0.629
13.6828	0.6141
13.7166	0.6021
13.7504	0.5878
13.7842	0.5665
13.818	0.561
13.8518	0.561
13.8855	0.5791
13.9193	0.5974
13.9531	0.6189
13.9869	0.6243
14.0207	0.615
14.0545	0.6097
14.0883	0.5902
14.122	0.5732
14.1558	0.5562
14.1896	0.5435
14.2234	0.5255
14.2572	0.5027
14.291	0.4905
14.3248	0.4774
14.3585	0.482
14.3923	0.5044
14.4261	0.5251
14.4599	0.5417
14.4937	0.56
14.5275	0.57
14.5612	0.5749
14.595	0.5795
14.6288	0.578
14.6626	0.58
14.6964	0.581
14.7302	0.578
14.764	0.58
14.7977	0.578
14.8315	0.5757
14.8653	0.571
14.8991	0.5708
14.9329	0.5715
14.9667	0.58
15.0005	0.5601
15.0342	0.546
15.068	0.553
15.1018	0.549
15.1356	0.553
15.1694	0.553
15.2032	0.551
15.2369	0.551
15.2707	0.5488
15.3045	0.5482
15.3383	0.5413
15.3721	0.5379
15.4059	0.5389
