Infrared Spectrum: Tri-sec-butyl aconitate
Formula: C18 H30 O6
CAS: 111530-50-8
State: SOLUTION (10% CCl4 FOR 2.7-7.5, 10% CS2 FOR 7.5-26 MICRON) VS SOLVENT
Class: COBLENTZ III
Instrument: DOW KBr FOREPRISM-GRATING
Instrument parameters: BLAZED AT 3.5, 12.0, 20.0 MICRON AND CHANGED AT 5.0, 7.5, 14.9 MICRON
Sampling: TRANSMISSION
Path length: 0.011 CM, 0.011 CM
Resolution: 2
Origin: DOW CHEMICAL COMPANY
1/CM	TRANSMITTANCE
3790	0.8539
3781	0.862
3772	0.8648
3763	0.8648
3754	0.8639
3745	0.8605
3736	0.8496
3727	0.8478
3718	0.8518
3709	0.8553
3700	0.858
3691	0.8586
3682	0.8593
3673	0.8598
3664	0.8564
3655	0.8592
3646	0.8618
3637	0.8546
3628	0.8631
3619	0.865
3610	0.8608
3601	0.8621
3592	0.8649
3583	0.8692
3574	0.8718
3565	0.8723
3556	0.8723
3547	0.8715
3538	0.871
3529	0.8718
3520	0.8727
3511	0.8739
3502	0.878
3493	0.8807
3484	0.8817
3475	0.8817
3466	0.8794
3457	0.876
3448	0.8716
3439	0.8653
3430	0.8578
3421	0.8508
3412	0.8461
3403	0.8468
3394	0.8567
3385	0.8682
3376	0.8733
3367	0.8758
3358	0.8771
3349	0.8782
3340	0.8789
3331	0.8793
3322	0.8798
3313	0.8799
3304	0.8801
3295	0.8802
3286	0.8804
3277	0.8803
3268	0.88
3259	0.8796
3250	0.8791
3241	0.8786
3232	0.8778
3223	0.8771
3214	0.875
3205	0.8708
3196	0.869
3187	0.8641
3178	0.8625
3169	0.8612
3160	0.8611
3151	0.8615
3142	0.863
3133	0.8644
3124	0.865
3115	0.8645
3106	0.8588
3097	0.8524
3088	0.8466
3079	0.8423
3070	0.8394
3061	0.8382
3052	0.8374
3043	0.8317
3034	0.8201
3025	0.8003
3016	0.7561
3007	0.6292
2998	0.4
2989	0.1379
2980	0.0421
2971	0.1049
2962	0.2376
2953	0.3249
2944	0.1722
2935	0.2063
2926	0.3088
2917	0.4112
2908	0.5139
2899	0.5559
2890	0.4194
2881	0.3359
2872	0.5062
2863	0.6383
2854	0.655
2845	0.7122
2836	0.7608
2827	0.7648
2818	0.7841
2809	0.8086
2800	0.8275
2791	0.8395
2782	0.8471
2773	0.8517
2764	0.8525
2755	0.8496
2746	0.8393
2737	0.8321
2728	0.8296
2719	0.8296
2710	0.8352
2701	0.8458
2692	0.853
2683	0.8548
2674	0.8565
2665	0.8575
2656	0.8586
2647	0.8589
2638	0.8592
2629	0.859
2620	0.8586
2611	0.8578
2602	0.8575
2593	0.8578
2584	0.8588
2575	0.8612
2566	0.8633
2557	0.8644
2548	0.8656
2539	0.866
2530	0.8664
2521	0.867
2512	0.8671
2503	0.8653
2494	0.8639
2485	0.8636
2476	0.864
2467	0.8649
2458	0.8658
2449	0.8666
2440	0.8674
2431	0.8677
2422	0.8673
2413	0.8643
2404	0.8612
2395	0.859
2386	0.8584
2377	0.8587
2368	0.8598
2359	0.8612
2350	0.8618
2341	0.862
2332	0.8621
2323	0.8628
2314	0.8637
2305	0.8646
2296	0.8655
2287	0.867
2278	0.8686
2269	0.8693
2260	0.8695
2251	0.8697
2242	0.8699
2233	0.87
2224	0.8701
2215	0.8702
2206	0.8712
2197	0.8714
2188	0.871
2179	0.8745
2170	0.8732
2161	0.872
2152	0.8723
2143	0.873
2134	0.8737
2125	0.8743
2116	0.8746
2107	0.8748
2098	0.875
2089	0.8752
2080	0.8753
2071	0.8747
2062	0.8741
2053	0.8735
2044	0.8731
2035	0.8735
2026	0.8739
2017	0.8741
2008	0.8737
1999	0.8731
1990	0.8721
1981	0.8718
1972	0.8717
1963	0.8714
1954	0.871
1945	0.8706
1936	0.8702
1927	0.8699
1918	0.8694
1909	0.8687
1900	0.8686
1891	0.8683
1882	0.8661
1873	0.8631
1864	0.8592
1855	0.8552
1846	0.8508
1837	0.8448
1828	0.8352
1819	0.8273
1810	0.8182
1801	0.8007
1792	0.7826
1783	0.7656
1774	0.7372
1765	0.6833
1756	0.5806
1747	0.2635
1738	0.0159
1729	0.0098
1720	0.0086
1711	0.0077
1702	0.0938
1693	0.4212
1684	0.5458
1675	0.586
1666	0.5998
1657	0.42
1648	0.4174
1639	0.6285
1630	0.7281
1621	0.7676
1612	0.7908
1603	0.8078
1594	0.8194
1585	0.8266
1576	0.8271
1567	0.828
1558	0.8325
1549	0.8378
1540	0.8407
1531	0.8375
1522	0.8308
1513	0.8214
1504	0.808
1495	0.7932
1486	0.7745
1477	0.6785
1468	0.2622
1459	0.205
1450	0.3338
1441	0.5852
1432	0.6524
1423	0.6436
1414	0.4518
1405	0.5796
1396	0.5618
1387	0.158
1378	0.2369
1369	0.3528
1360	0.282
1351	0.3094
1342	0.4429
1333	0.4688
1324	0.234
1315	0.1287
1306	0.2534
1297	0.2735
1288	0.209
1279	0.0256
1270	0.0098
1261	0.0519
1252	0.1156
1243	0.1262
1234	0.1914
1225	0.1433
1216	0.1538
1207	0.162
1198	0.0745
1189	0.0423
1180	0.014
1171	0.0083
1162	0.0619
1153	0.3416
1144	0.4515
1135	0.474
1126	0.101
1117	0.1319
1108	0.1403
1099	0.1858
1090	0.049
1081	0.1506
1072	0.5304
1063	0.6354
1054	0.6946
1045	0.7149
1036	0.7044
1027	0.2393
1018	0.5428
1009	0.5455
1000	0.2068
991	0.1744
982	0.3359
973	0.4278
964	0.3554
955	0.5578
946	0.5996
937	0.5649
928	0.7218
919	0.7261
910	0.5335
901	0.4749
892	0.6557
883	0.6116
874	0.4383
865	0.3887
856	0.6282
847	0.7414
838	0.6922
829	0.6671
820	0.7436
811	0.7444
802	0.6531
793	0.4679
784	0.5237
775	0.6415
766	0.7215
757	0.763
748	0.791
739	0.8061
730	0.8111
721	0.8146
712	0.8218
703	0.8278
694	0.8293
685	0.8263
676	0.8186
667	0.8099
658	0.8128
649	0.7971
640	0.7978
631	0.801
622	0.8005
613	0.7921
604	0.7814
595	0.7724
586	0.7636
577	0.7591
568	0.7595
559	0.7631
550	0.7681
541	0.7719
532	0.774
523	0.7758
514	0.7754
505	0.7601
496	0.7569
487	0.7578
478	0.7598
469	0.7607
460	0.7448
451	0.7318
442	0.7288
433	0.7272
424	0.7262
415	0.7264
406	0.7275
397	0.7293
