Infrared Spectrum: ACETONITRILE, (METHYLENEDINITRILO)TETRA-
Formula: C9 H10 N6
CAS: 1116-43-4
State: SOLID (OIL MULL, CsBr PLATES)
Class: COBLENTZ III
Instrument: PERKIN-ELMER 521 (GRATING)
Instrument parameters: FILTERS AT 3150, 2500, 2000, 1150, 700, 410. GRATING CHANGES: 2000, 630 CM^-^1
Sampling: TRANSMISSION
Resolution: 2
Origin: STANDARD OIL OF OHIO
1/CM	TRANSMITTANCE
257.885	0.897
267.553	0.892
277.22	0.877
286.888	0.772
296.556	0.489
306.223	0.64
315.891	0.63
325.559	0.901
335.226	0.867
344.894	0.889
354.562	0.919
364.23	0.946
373.897	0.946
383.565	0.946
393.233	0.948
402.9	0.921
412.568	0.821
422.236	0.855
431.903	0.919
441.571	0.927
451.239	0.926
460.906	0.926
470.574	0.926
480.242	0.927
489.909	0.928
499.577	0.928
509.245	0.927
518.912	0.924
528.58	0.92
538.248	0.914
547.915	0.857
557.583	0.802
567.251	0.872
576.919	0.918
586.586	0.906
596.254	0.892
605.922	0.919
615.589	0.919
625.257	0.919
634.925	0.92
644.592	0.919
654.26	0.921
663.928	0.918
673.595	0.92
683.263	0.909
692.931	0.861
702.598	0.825
712.266	0.803
721.934	0.844
731.601	0.859
741.269	0.885
750.937	0.886
760.605	0.886
770.272	0.887
779.94	0.874
789.608	0.885
799.275	0.883
808.943	0.872
818.611	0.843
828.278	0.773
837.946	0.54
847.614	0.236
857.281	0.14
866.949	0.526
876.617	0.779
886.284	0.82
895.952	0.831
905.62	0.822
915.287	0.773
924.955	0.651
934.623	0.675
944.29	0.663
953.958	0.1
963.626	0.219
973.294	0.785
982.961	0.833
992.629	0.834
1002.3	0.784
1011.96	0.461
1021.63	0.446
1031.3	0.804
1040.97	0.846
1050.63	0.848
1060.3	0.848
1069.97	0.845
1079.64	0.836
1089.31	0.81
1098.97	0.789
1108.64	0.7
1118.31	0.498
1127.98	0.08
1137.64	0.416
1147.31	0.5
1156.98	0.295
1166.65	0.507
1176.31	0.219
1185.98	0.69
1195.65	0.795
1205.32	0.822
1214.99	0.824
1224.65	0.814
1234.32	0.59
1243.99	0.8
1253.66	0.8
1263.32	0.775
1272.99	0.619
1282.66	0.245
1292.33	0.528
1301.99	0.693
1311.66	0.637
1321.33	0.351
1331	0.238
1340.67	0.257
1350.33	0.571
1360	0.506
1369.67	0.595
1379.34	0.593
1389	0.242
1398.67	0.265
1408.34	0.161
1418.01	0.137
1427.67	0.457
1437.34	0.401
1447.01	0.344
1456.68	0.42
1466.35	0.716
1476.01	0.815
1485.68	0.833
1495.35	0.846
1505.02	0.857
1514.68	0.861
1524.35	0.865
1534.02	0.867
1543.69	0.866
1553.35	0.854
1563.02	0.843
1572.69	0.838
1582.36	0.838
1592.03	0.843
1601.69	0.845
1611.36	0.845
1621.03	0.842
1630.7	0.831
1640.36	0.845
1650.03	0.854
1659.7	0.861
1669.37	0.868
1679.03	0.869
1688.7	0.866
1698.37	0.863
1708.04	0.865
1717.71	0.865
1727.37	0.868
1737.04	0.873
1746.71	0.874
1756.38	0.872
1766.04	0.874
1775.71	0.874
1785.38	0.871
1795.05	0.872
1804.71	0.881
1814.38	0.879
1824.05	0.873
1833.72	0.869
1843.38	0.877
1853.05	0.871
1862.72	0.878
1872.39	0.878
1882.06	0.873
1891.72	0.872
1901.39	0.875
1911.06	0.875
1920.73	0.875
1930.39	0.877
1940.06	0.873
1949.73	0.871
1959.4	0.86
1969.06	0.867
1978.73	0.867
1988.4	0.86
1998.07	0.851
2007.74	0.846
2017.4	0.84
2027.07	0.8509
2036.74	0.861
2046.41	0.865
2056.07	0.865
2065.74	0.865
2075.41	0.866
2085.08	0.865
2094.74	0.865
2104.41	0.862
2114.08	0.862
2123.75	0.859
2133.42	0.856
2143.08	0.8589
2152.75	0.8571
2162.42	0.851
2172.09	0.845
2181.75	0.8421
2191.42	0.845
2201.09	0.845
2210.76	0.8371
2220.42	0.8282
2230.09	0.6783
2239.76	0.6246
2249.43	0.8337
2259.1	0.8372
2268.76	0.8321
2278.43	0.827
2288.1	0.833
2297.77	0.8301
2307.43	0.833
2317.1	0.8321
2326.77	0.8241
2336.44	0.82
2346.1	0.82
2355.77	0.824
2365.44	0.821
2375.11	0.82
2384.78	0.825
2394.44	0.8269
2404.11	0.8326
2413.78	0.838
2423.45	0.838
2433.11	0.838
2442.78	0.8361
2452.45	0.834
2462.12	0.833
2471.78	0.8312
2481.45	0.8185
2491.12	0.816
2500.79	0.816
2510.46	0.816
2520.12	0.818
2529.79	0.818
2539.46	0.818
2549.13	0.816
2558.79	0.816
2568.46	0.8122
2578.13	0.808
2587.8	0.807
2597.46	0.806
2607.13	0.804
2616.8	0.8022
2626.47	0.7984
2636.13	0.7892
2645.8	0.7802
2655.47	0.781
2665.14	0.781
2674.81	0.781
2684.47	0.7848
2694.14	0.784
2703.81	0.784
2713.48	0.7749
2723.14	0.768
2732.81	0.7635
2742.48	0.759
2752.15	0.759
2761.81	0.7517
2771.48	0.7292
2781.15	0.6325
2790.82	0.689
2800.49	0.6638
2810.15	0.6297
2819.82	0.5759
2829.49	0.4206
2839.16	0.2675
2848.82	0.1189
2858.49	0.1098
2868.16	0.1234
2877.83	0.1702
2887.49	0.1326
2897.16	0.1116
2906.83	0.0765
2916.5	0.0472
2926.17	0.0481
2935.83	0.0556
2945.5	0.0497
2955.17	0.0813
2964.84	0.1496
2974.5	0.225
2984.17	0.1844
2993.84	0.3273
3003.51	0.5615
3013.17	0.6198
3022.84	0.6417
3032.51	0.659
3042.18	0.673
3051.85	0.68
3061.51	0.6996
3071.18	0.702
3080.85	0.7
3090.52	0.702
3100.18	0.7093
3109.85	0.7186
3119.52	0.7366
3129.19	0.7386
3138.85	0.7407
3148.52	0.7358
3158.19	0.74
3167.86	0.74
3177.53	0.739
3187.19	0.742
3196.86	0.743
3206.53	0.743
3216.2	0.743
3225.86	0.743
3235.53	0.7424
3245.2	0.739
3254.87	0.7364
3264.53	0.734
3274.2	0.734
3283.87	0.733
3293.54	0.7268
3303.21	0.72
3312.87	0.7194
3322.54	0.7154
3332.21	0.7084
3341.88	0.704
3351.54	0.701
3361.21	0.6989
3370.88	0.691
3380.55	0.6864
3390.21	0.683
3399.88	0.683
3409.55	0.683
3419.22	0.6856
3428.88	0.6915
3438.55	0.697
3448.22	0.7005
3457.89	0.7065
3467.56	0.7131
3477.22	0.715
3486.89	0.718
3496.56	0.7195
3506.23	0.7245
3515.89	0.729
3525.56	0.732
3535.23	0.7335
3544.9	0.737
3554.56	0.7395
3564.23	0.743
3573.9	0.743
3583.57	0.7495
3593.24	0.755
3602.9	0.7615
3612.57	0.765
3622.24	0.766
3631.91	0.7665
3641.57	0.767
3651.24	0.768
3660.91	0.769
3670.58	0.7715
3680.24	0.772
3689.91	0.772
3699.58	0.773
3709.25	0.774
3718.92	0.775
3728.58	0.7805
3738.25	0.781
3747.92	0.78
3757.59	0.772
3767.25	0.7701
3776.92	0.769
3786.59	0.769
3796.26	0.768
3805.92	0.768
3815.59	0.768
3825.26	0.768
3834.93	0.768
3844.6	0.768
3854.26	0.769
3863.93	0.7676
3873.6	0.765
3883.27	0.765
3892.93	0.765
3902.6	0.765
3912.27	0.765
