Infrared Spectrum: cis-4-Methyl-1,4-hexadiene
Formula: C 7 H 12
CAS: 1116-90-1
State: gas
Instrument: HP-GC/MS/IRD
Origin: NIST Mass Spectrometry Data Center
1/CM	ABSORBANCE
550	0.000244
562	0.000294
574	0.000272
586	0.000319
598	0.000377
610	0.00068
622	0.000766
634	0.000452
646	0.000207
658	0
670	0.000131
682	0.000127
694	0.000118
706	0.000137
718	8.3e-05
730	0.000177
742	0.000164
754	0.000174
766	0.000478
778	0.000866
790	0.001285
802	0.001679
814	0.002284
826	0.00168
838	0.00102
850	0.000733
862	0.000748
874	0.000905
886	0.001606
898	0.003317
910	0.004985
922	0.004351
934	0.0023
946	0.00139
958	0.001182
970	0.001442
982	0.002147
994	0.002437
1006	0.001893
1018	0.001359
1030	0.001425
1042	0.001405
1054	0.00125
1066	0.001034
1078	0.000792
1090	0.000618
1102	0.000599
1114	0.000559
1126	0.000422
1138	0.000282
1150	0.000289
1162	0.000277
1174	0.00035
1186	0.000373
1198	0.000324
1210	0.000228
1222	0.000426
1234	0.000577
1246	0.000593
1258	0.000506
1270	0.000544
1282	0.000581
1294	0.000547
1306	0.000469
1318	0.00046
1330	0.000554
1342	0.000862
1354	0.001045
1366	0.001304
1378	0.001732
1390	0.001759
1402	0.00126
1414	0.001331
1426	0.001737
1438	0.002296
1450	0.00257
1462	0.002007
1474	0.001308
1486	0.000828
1498	0.000662
1510	0.000627
1522	0.000581
1534	0.000554
1546	0.000524
1558	0.000452
1570	0.000456
1582	0.000442
1594	0.000518
1606	0.000733
1618	0.001213
1630	0.002156
1642	0.0022
1654	0.001106
1666	0.000427
1678	0.000283
1690	0.00016
1702	0.000129
1714	0.000106
1726	0.000107
1738	8.1e-05
1750	0.000102
1762	8.4e-05
1774	0.000105
1786	0.000118
1798	0.000183
1810	0.000354
1822	0.000566
1834	0.000607
1846	0.000433
1858	0.000243
1870	0.000142
1882	0.000106
1894	8.3e-05
1906	8.8e-05
1918	8.8e-05
1930	6.2e-05
1942	5e-05
1954	4.8e-05
1966	8.9e-05
1978	6e-05
1990	4.5e-05
2002	2.9e-05
2014	4.7e-05
2026	5.6e-05
2038	3.1e-05
2050	3.2e-05
2062	3.6e-05
2074	5.4e-05
2086	3.5e-05
2098	1.9e-05
2110	2.8e-05
2122	4.5e-05
2134	5.2e-05
2146	2.5e-05
2158	4.2e-05
2170	5.4e-05
2182	2.2e-05
2194	6.1e-05
2206	4.3e-05
2218	1.4e-05
2230	5.2e-05
2242	1.7e-05
2254	3e-05
2266	3.9e-05
2278	3.3e-05
2290	4.1e-05
2302	4.2e-05
2314	7.4e-05
2326	5.2e-05
2338	2.6e-05
2350	3.8e-05
2362	5.6e-05
2374	7.3e-05
2386	8.3e-05
2398	6.9e-05
2410	7.9e-05
2422	9.8e-05
2434	0.000107
2446	8.4e-05
2458	7.8e-05
2470	8.5e-05
2482	6.4e-05
2494	8.6e-05
2506	9.4e-05
2518	9.4e-05
2530	0.0001
2542	9.8e-05
2554	0.000122
2566	0.000116
2578	0.000137
2590	8.4e-05
2602	0.000128
2614	0.00011
2626	9.2e-05
2638	0.000107
2650	0.000104
2662	0.000142
2674	0.000156
2686	0.000185
2698	0.000227
2710	0.000288
2722	0.000383
2734	0.0005
2746	0.000474
2758	0.000426
2770	0.000375
2782	0.000439
2794	0.00056
2806	0.000749
2818	0.001053
2830	0.00155
2842	0.002402
2854	0.003766
2866	0.00519
2878	0.005852
2890	0.00612
2902	0.006844
2914	0.008505
2926	0.009856
2938	0.009681
2950	0.007563
2962	0.007125
2974	0.008126
2986	0.007836
2998	0.00584
3010	0.004844
3022	0.004599
3034	0.004243
3046	0.003588
3058	0.002875
3070	0.002927
3082	0.003454
3094	0.002853
3106	0.001498
3118	0.000836
3130	0.000599
3142	0.00044
3154	0.000398
3166	0.000339
3178	0.00018
3190	0.000211
3202	0.000261
3214	0.00018
3226	0.000201
3238	0.000163
3250	0.000191
3262	0.00019
3274	0.000168
3286	0.000139
3298	0.000136
3310	0.00013
3322	0.00016
3334	0.000147
3346	0.000128
3358	0.000107
3370	0.000118
3382	0.000139
3394	8.4e-05
3406	0.000104
3418	0.000144
3430	0.000135
3442	0.000137
3454	0.000108
3466	0.000149
3478	8.5e-05
3490	0.000139
3502	0.000126
3514	0.000164
3526	0.000117
3538	0.000118
3550	0.000163
3562	0.000101
3574	9.9e-05
3586	9.4e-05
3598	7.1e-05
3610	0.000118
3622	0.000129
3634	7.2e-05
3646	4.6e-05
3658	8.4e-05
3670	8e-06
3682	5.7e-05
3694	0.00015
3706	0.000152
3718	9.4e-05
3730	4.9e-05
3742	0.000147
3754	0.000144
3766	0.000122
3778	0.000135
3790	6e-05
3802	8.7e-05
3814	0.000108
3826	0.000118
3838	0.000163
