Infrared Spectrum: 3-Chlorooctane
Formula: C 8 H 17 Cl
CAS: 1117-79-9
State: gas
Instrument: HP-GC/MS/IRD
Origin: NIST Mass Spectrometry Data Center
1/CM	ABSORBANCE
550	0.0005796
562	0.000126
574	3.96e-05
586	0.0002232
598	0.0004968
610	0.000918
622	0.000918
634	0.000864
646	0.0010332
658	0.0013932
670	0.001458
682	0.000918
694	0.000432
706	0.000378
718	0.000666
730	0.0010116
742	0.0008928
754	0.000648
766	0.000756
778	0.0008856
790	0.0012348
802	0.0016524
814	0.0019368
826	0.0014688
838	0.001188
850	0.0013644
862	0.0016704
874	0.0017172
886	0.0015876
898	0.001332
910	0.0009144
922	0.0005148
934	0.0003888
946	0.0004104
958	0.0006084
970	0.0006264
982	0.0004716
994	0.0002772
1006	0.0002808
1018	0.0002376
1030	0.000288
1042	0.0003528
1054	0.0003816
1066	0.0004608
1078	0.0005328
1090	0.0005256
1102	0.0005652
1114	0.0006048
1126	0.0006588
1138	0.0007308
1150	0.0004896
1162	0.0003312
1174	0.0003024
1186	0.0005364
1198	0.0007416
1210	0.0009468
1222	0.0015732
1234	0.002088
1246	0.0018972
1258	0.001386
1270	0.0014292
1282	0.0019116
1294	0.0024984
1306	0.0024948
1318	0.0020736
1330	0.00171
1342	0.0015192
1354	0.0013284
1366	0.0014004
1378	0.002052
1390	0.002394
1402	0.0012348
1414	0.000972
1426	0.0013932
1438	0.0025776
1450	0.0042552
1462	0.0055152
1474	0.0040428
1486	0.0017964
1498	0.000882
1510	0.00054
1522	0.0004032
1534	0.000306
1546	0.000252
1558	0.0002448
1570	0.0002232
1582	0.00018
1594	0.0001368
1606	0.000144
1618	0.0001116
1630	0.0001332
1642	0.0001008
1654	9.72e-05
1666	0.0001044
1678	9.72e-05
1690	6.84e-05
1702	7.2e-05
1714	4.68e-05
1726	4.68e-05
1738	6.12e-05
1750	4.32e-05
1762	2.88e-05
1774	4.32e-05
1786	1.8e-05
1798	2.88e-05
1810	2.16e-05
1822	6.48e-05
1834	3.96e-05
1846	2.52e-05
1858	3.24e-05
1870	3.24e-05
1882	1.8e-05
1894	4.32e-05
1906	1.8e-05
1918	2.16e-05
1930	5.04e-05
1942	1.8e-05
1954	3.96e-05
1966	4.32e-05
1978	4.68e-05
1990	2.16e-05
2002	2.16e-05
2014	4.68e-05
2026	5.4e-05
2038	6.48e-05
2050	5.4e-05
2062	5.76e-05
2074	4.68e-05
2086	6.48e-05
2098	5.4e-05
2110	0
2122	2.52e-05
2134	1.8e-05
2146	2.52e-05
2158	2.52e-05
2170	5.04e-05
2182	1.8e-05
2194	4.68e-05
2206	2.88e-05
2218	3.6e-05
2230	3.24e-05
2242	1.08e-05
2254	4.68e-05
2266	5.4e-05
2278	6.12e-05
2290	8.64e-05
2302	6.84e-05
2314	9.36e-05
2326	0.0001296
2338	0.0001152
2350	0.0001296
2362	0.0001224
2374	0.000126
2386	0.0001656
2398	0.0001404
2410	0.0001584
2422	0.0001548
2434	0.000162
2446	0.0001368
2458	0.0001368
2470	0.0001224
2482	0.0001404
2494	0.00018
2506	0.0001476
2518	0.00018
2530	0.0002016
2542	0.0002088
2554	0.0002304
2566	0.0002592
2578	0.0002772
2590	0.0002844
2602	0.0002844
2614	0.000288
2626	0.0002916
2638	0.0003528
2650	0.000378
2662	0.0004428
2674	0.0004968
2686	0.0005076
2698	0.000504
2710	0.0005328
2722	0.0005868
2734	0.0007164
2746	0.0008136
2758	0.0007956
2770	0.0008496
2782	0.0009864
2794	0.001206
2806	0.001494
2818	0.0019584
2830	0.0027468
2842	0.0045432
2854	0.0082188
2866	0.0123624
2878	0.0143676
2890	0.0142524
2902	0.0139284
2914	0.0185688
2926	0.026568
2938	0.0342324
2950	0.035172
2962	0.0318492
2974	0.0292932
2986	0.0156528
2998	0.0068904
3010	0.0036252
3022	0.0025344
3034	0.0019044
3046	0.0014976
3058	0.0013068
3070	0.001188
3082	0.0010584
3094	0.0009396
3106	0.000792
3118	0.0006948
3130	0.0005868
3142	0.00054
3154	0.0005436
3166	0.000486
3178	0.0004824
3190	0.0004248
3202	0.0003816
3214	0.0002628
3226	0.0002664
3238	0.0001908
3250	0.0002124
3262	0.0001548
3274	0.0001116
3286	0.000144
3298	0.0001224
3310	0.0001332
3322	0.0001368
3334	0.0001008
3346	9e-05
3358	0.0001404
3370	0.0001008
3382	0.0001188
3394	9.36e-05
3406	6.84e-05
3418	7.56e-05
3430	3.96e-05
3442	7.56e-05
3454	0.0001008
3466	9e-05
3478	3.6e-05
3490	5.4e-05
3502	1.8e-05
3514	5.4e-05
3526	3.96e-05
3538	8.64e-05
3550	5.76e-05
3562	7.56e-05
3574	6.12e-05
3586	0.0001116
3598	0.0001224
3610	9e-05
3622	0.0001152
3634	0.0001656
3646	0.0001476
3658	0.0001224
3670	0.000144
3682	0.0001404
3694	0.0001692
3706	0.0001512
3718	0.0001692
3730	0.0001044
3742	0.0001296
3754	0.0001332
3766	0.0001476
3778	0.000198
3790	0.0001656
3802	0.0001224
3814	0.0001944
3826	0.0001836
3838	0.0002124
