Infrared Spectrum: SILANE, ISOBUTYLTRIMETHYL-
Formula: C7 H18 Si
CAS: 1118-09-8
State: SOLUTION (5% CCl4 FOR 3800-1300, 6% CS2 FOR 1300-630, AND 5% CCl4 FOR 630-250) VS SOLVENT
Class: COBLENTZ III
Instrument: PERKIN-ELMER 521 (GRATING)
Instrument parameters: FILTERS AT 3150, 2500, 2000, 1150, 700, 410. GRATING CHANGES: 2000, 630
Sampling: TRANSMISSION
Path length: 0.011 CM, 0.011 CM, AND 0.021 CM
Resolution: 2
Origin: DOW CORNING CORP.
1/CM	TRANSMITTANCE
221	0.7691
230	0.7686
239	0.7808
248	0.788
257	0.8169
266	0.8224
275	0.8409
284	0.8566
293	0.8771
302	0.8837
311	0.8866
320	0.8771
329	0.8434
338	0.7265
347	0.88
356	0.899
365	0.8967
374	0.9003
383	0.8942
392	0.8711
401	0.8463
410	0.8685
419	0.8482
428	0.845
437	0.886
446	0.8888
455	0.8904
464	0.8913
473	0.8913
482	0.8921
491	0.8808
500	0.8868
509	0.8962
518	0.8966
527	0.8958
536	0.8965
545	0.9025
554	0.9055
563	0.9075
572	0.9064
581	0.9052
590	0.9035
599	0.8328
608	0.8353
617	0.9088
626	0.9209
635	0.9163
644	0.9143
653	0.8902
662	0.8599
671	0.7951
680	0.5646
689	0.3714
698	0.7918
707	0.8471
716	0.8609
725	0.8528
734	0.834
743	0.7825
752	0.5582
761	0.6743
770	0.7244
779	0.6189
788	0.7105
797	0.6936
806	0.6016
815	0.4267
824	0.2094
833	0.0326
842	0.0663
851	0.0602
860	0.095
869	0.4422
878	0.6316
887	0.7811
896	0.8225
905	0.8668
914	0.8759
923	0.8798
932	0.874
941	0.8316
950	0.8108
959	0.8825
968	0.9011
977	0.9063
986	0.9068
995	0.9031
1004	0.8947
1013	0.8608
1022	0.7758
1031	0.5227
1040	0.8192
1049	0.852
1058	0.8524
1067	0.8414
1076	0.7807
1085	0.583
1094	0.8176
1103	0.8586
1112	0.8705
1121	0.8788
1130	0.8804
1139	0.8728
1148	0.8296
1157	0.7515
1166	0.8665
1175	0.8818
1184	0.871
1193	0.8475
1202	0.7736
1211	0.586
1220	0.7051
1229	0.6696
1238	0.4581
1247	0.118
1256	0.4402
1265	0.7743
1274	0.7808
1283	0.7531
1292	0.7342
1301	0.8307
1310	0.821
1319	0.6974
1328	0.7928
1337	0.8402
1346	0.8336
1355	0.7437
1364	0.7068
1373	0.7037
1382	0.7839
1391	0.7856
1400	0.6844
1409	0.6768
1418	0.7693
1427	0.8056
1436	0.7818
1445	0.6785
1454	0.6205
1463	0.5749
1472	0.8358
1481	0.8739
1490	0.8855
1499	0.8932
1508	0.8977
1517	0.8992
1526	0.8983
1535	0.897
1544	0.8995
1553	0.9087
1562	0.9118
1571	0.9148
1580	0.9175
1589	0.9189
1598	0.92
1607	0.9208
1616	0.9217
1625	0.9218
1634	0.9218
1643	0.9221
1652	0.9225
1661	0.9234
1670	0.9244
1679	0.9254
1688	0.9266
1697	0.9278
1706	0.929
1715	0.9302
1724	0.9311
1733	0.9313
1742	0.9314
1751	0.9314
1760	0.9312
1769	0.9309
1778	0.9301
1787	0.9294
1796	0.9289
1805	0.9286
1814	0.9287
1823	0.928
1832	0.9259
1841	0.9221
1850	0.929
1859	0.9321
1868	0.932
1877	0.9318
1886	0.931
1895	0.93
1904	0.9286
1913	0.9255
1922	0.9134
1931	0.9138
1940	0.9256
1949	0.9292
1958	0.9308
1967	0.932
1976	0.9321
1985	0.9307
1994	0.932
2003	0.9416
2012	0.9415
2021	0.9409
2030	0.9401
2039	0.9394
2048	0.9387
2057	0.9378
2066	0.9378
2075	0.9378
2084	0.9378
2093	0.9378
2102	0.9388
2111	0.9395
2120	0.9397
2129	0.9394
2138	0.939
2147	0.9385
2156	0.9383
2165	0.9382
2174	0.9381
2183	0.9378
2192	0.9375
2201	0.9371
2210	0.9368
2219	0.9364
2228	0.936
2237	0.9357
2246	0.9356
2255	0.9371
2264	0.9389
2273	0.9405
2282	0.9421
2291	0.9439
2300	0.9454
2309	0.946
2318	0.9466
2327	0.946
2336	0.9436
2345	0.942
2354	0.9413
2363	0.9414
2372	0.9414
2381	0.9413
2390	0.9409
2399	0.9402
2408	0.9395
2417	0.9387
2426	0.9378
2435	0.9368
2444	0.9362
2453	0.9355
2462	0.9351
2471	0.9354
2480	0.9358
2489	0.9373
2498	0.9365
2507	0.9356
2516	0.9349
2525	0.9342
2534	0.934
2543	0.9338
2552	0.933
2561	0.9321
2570	0.9312
2579	0.9278
2588	0.9194
2597	0.9102
2606	0.9011
2615	0.9004
2624	0.923
2633	0.9227
2642	0.9213
2651	0.9239
2660	0.9292
2669	0.9288
2678	0.9274
2687	0.9251
2696	0.9156
2705	0.9037
2714	0.9018
2723	0.9162
2732	0.9155
2741	0.9089
2750	0.8938
2759	0.8664
2768	0.8456
2777	0.8321
2786	0.8321
2795	0.8273
2804	0.8287
2813	0.8289
2822	0.8082
2831	0.743
2840	0.6633
2849	0.5927
2858	0.4466
2867	0.3062
2876	0.3612
2885	0.3156
2894	0.2795
2903	0.4695
2912	0.4524
2921	0.3625
2930	0.348
2939	0.1917
2948	0.0368
2957	0.0858
2966	0.3174
2975	0.5618
2984	0.776
2993	0.8169
3002	0.8624
3011	0.8748
3020	0.8823
3029	0.8894
3038	0.8947
3047	0.8996
3056	0.9071
3065	0.9086
3074	0.9099
3083	0.9108
3092	0.9127
3101	0.9157
3110	0.9195
3119	0.9234
3128	0.9253
3137	0.9254
3146	0.9252
3155	0.925
3164	0.9257
3173	0.9264
3182	0.9278
3191	0.9294
3200	0.9318
3209	0.9346
3218	0.9375
3227	0.9406
3236	0.9425
3245	0.9437
3254	0.9444
3263	0.9444
3272	0.9445
3281	0.9443
3290	0.9441
3299	0.9445
3308	0.9452
3317	0.9462
3326	0.9471
3335	0.9462
3344	0.9452
3353	0.9447
3362	0.9446
3371	0.9453
3380	0.9461
3389	0.9468
3398	0.9475
3407	0.9482
3416	0.9487
3425	0.9489
3434	0.9493
3443	0.9494
3452	0.9492
3461	0.9489
3470	0.9487
3479	0.9484
3488	0.948
3497	0.9475
3506	0.9471
3515	0.9467
3524	0.9463
3533	0.9459
3542	0.9456
3551	0.9447
3560	0.9439
3569	0.9433
3578	0.9442
3587	0.9463
3596	0.9471
3605	0.9467
3614	0.945
3623	0.9421
3632	0.9381
3641	0.9374
3650	0.9368
3659	0.936
3668	0.9352
3677	0.9345
3686	0.9339
3695	0.9336
3704	0.9334
3713	0.9331
3722	0.9324
3731	0.9316
3740	0.9308
3749	0.9337
3758	0.9378
3767	0.9382
3776	0.9371
3785	0.9362
3794	0.9351
