Infrared Spectrum: 4-Amino-3-penten-2-one
Formula: C 5 H 9 N O
CAS: 1118-66-7
State: gas
Origin: EPA-IR VAPOR PHASE LIBRARY
1/CM	ABSORBANCE
551.7	0.00457
563.274	0.00368
574.848	0.00305
586.421	0.00364
597.995	0.00533
609.569	0.00784
621.143	0.01016
632.717	0.00904
644.291	0.0054
655.864	0.00378
667.438	0.00437
679.012	0.00646
690.586	0.00959
702.16	0.01302
713.734	0.01459
725.307	0.01454
736.881	0.0148
748.455	0.01648
760.029	0.01955
771.603	0.01876
783.177	0.01666
794.75	0.01308
806.324	0.01006
817.898	0.00738
829.472	0.0055
841.046	0.00496
852.619	0.0055
864.193	0.00738
875.767	0.00938
887.341	0.00871
898.915	0.00588
910.489	0.00382
922.062	0.00342
933.636	0.00329
945.21	0.00377
956.784	0.00477
968.358	0.00651
979.932	0.00764
991.505	0.00679
1003.08	0.00569
1014.65	0.00514
1026.23	0.0051
1037.8	0.00476
1049.37	0.00473
1060.95	0.0044
1072.52	0.00402
1084.1	0.00402
1095.67	0.00348
1107.24	0.00344
1118.82	0.00338
1130.39	0.00375
1141.97	0.00401
1153.54	0.00547
1165.11	0.0091
1176.69	0.01737
1188.26	0.01904
1199.83	0.01348
1211.41	0.00846
1222.98	0.00901
1234.56	0.01198
1246.13	0.0177
1257.7	0.02476
1269.28	0.02884
1280.85	0.02681
1292.42	0.02154
1304	0.01705
1315.57	0.01437
1327.15	0.0113
1338.72	0.01165
1350.29	0.01785
1361.87	0.02059
1373.44	0.01477
1385.02	0.01079
1396.59	0.00995
1408.16	0.01031
1419.74	0.01164
1431.31	0.01236
1442.88	0.01249
1454.46	0.01172
1466.03	0.01152
1477.61	0.01239
1489.18	0.01561
1500.75	0.02169
1512.33	0.03176
1523.9	0.05019
1535.48	0.06836
1547.05	0.06888
1558.62	0.05031
1570.2	0.03786
1581.77	0.04142
1593.34	0.0551
1604.92	0.07789
1616.49	0.08742
1628.07	0.07394
1639.64	0.06394
1651.21	0.06345
1662.79	0.0546
1674.36	0.02978
1685.93	0.01237
1697.51	0.00587
1709.08	0.00375
1720.66	0.00309
1732.23	0.00283
1743.8	0.00264
1755.38	0.00245
1766.95	0.00214
1778.53	0.00174
1790.1	0.00148
1801.67	0.00141
1813.25	0.00138
1824.82	0.00127
1836.39	0.00116
1847.97	0.00104
1859.54	0.0009841
1871.12	0.00108
1882.69	0.00122
1894.26	0.00116
1905.84	0.00107
1917.41	0.0008547
1928.99	0.0007301
1940.56	0.0007127
1952.13	0.00072
1963.71	0.0007478
1975.28	0.0008253
1986.85	0.0008108
1998.43	0.000678
2010	0.0006169
2021.58	0.0005291
2033.15	0.0005248
2044.72	0.0005397
2056.3	0.0005507
2067.87	0.000585
2079.44	0.0006263
2091.02	0.0006906
2102.59	0.0006888
2114.17	0.0005921
2125.74	0.0005188
2137.31	0.0005166
2148.89	0.0005434
2160.46	0.0005998
2172.04	0.0006536
2183.61	0.0006274
2195.18	0.0005576
2206.76	0.0005143
2218.33	0.0005418
2229.9	0.0005747
2241.48	0.0005725
2253.05	0.0005982
2264.63	0.0006564
2276.2	0.0006579
2287.77	0.0006378
2299.35	0.000603
2310.92	0.0006324
2322.5	0.0005271
2334.07	0.0005373
2345.64	0.0005402
2357.22	0.0006555
2368.79	0.0006223
2380.36	0.0005787
2391.94	0.0006814
2403.51	0.0007459
2415.09	0.000769
2426.66	0.000786
2438.23	0.000749
2449.81	0.0007487
2461.38	0.0006897
2472.96	0.0006472
2484.53	0.0006867
2496.1	0.0007335
2507.68	0.0006565
2519.25	0.0006156
2530.82	0.0005827
2542.4	0.0006002
2553.97	0.0005503
2565.55	0.0004053
2577.12	0.0004528
2588.69	0.0003743
2600.27	0.0004619
2611.84	0.0004154
2623.41	0.0004332
2634.99	0.0004757
2646.56	0.0004086
2658.14	0.0004282
2669.71	0.0004389
2681.28	0.0004764
2692.86	0.0005103
2704.43	0.0006273
2716.01	0.0007362
2727.58	0.0008682
2739.15	0.0009332
2750.73	0.0009045
2762.3	0.0009015
2773.87	0.0008128
2785.45	0.0009517
2797.02	0.00106
2808.6	0.00119
2820.17	0.00143
2831.74	0.00185
2843.32	0.00227
2854.89	0.00259
2866.47	0.00287
2878.04	0.00298
2889.61	0.00313
2901.19	0.00392
2912.76	0.00621
2924.33	0.0094
2935.91	0.00976
2947.48	0.00732
2959.06	0.00561
2970.63	0.00493
2982.2	0.00455
2993.78	0.00453
3005.35	0.00494
3016.92	0.00507
3028.5	0.00484
3040.07	0.00482
3051.65	0.00478
3063.22	0.00458
3074.79	0.00418
3086.37	0.00332
3097.94	0.00259
3109.52	0.00213
3121.09	0.00203
3132.66	0.00228
3144.24	0.00262
3155.81	0.00304
3167.38	0.00383
3178.96	0.0046
3190.53	0.00518
3202.11	0.00509
3213.68	0.00473
3225.25	0.00437
3236.83	0.00431
3248.4	0.00434
3259.98	0.00447
3271.55	0.00423
3283.12	0.00398
3294.7	0.00371
3306.27	0.00297
3317.84	0.00242
3329.42	0.00183
3340.99	0.00145
3352.57	0.00122
3364.14	0.0011
3375.71	0.00104
3387.29	0.00102
3398.86	0.00109
3410.43	0.00109
3422.01	0.0012
3433.58	0.00132
3445.16	0.00143
3456.73	0.00207
3468.3	0.00286
3479.88	0.00441
3491.45	0.00679
3503.03	0.01018
3514.6	0.01215
3526.17	0.01017
3537.75	0.00577
3549.32	0.00263
3560.89	0.00141
3572.47	0.0008455
3584.04	0.0006611
3595.62	0.000544
3607.19	0.0004111
3618.76	0.0004638
3630.34	0.0004007
3641.91	0.000422
3653.49	0.0004187
3665.06	0.0003019
3676.63	0.0003584
3688.21	0.0004016
3699.78	0.0003856
3711.35	0.0002689
3722.93	0.0003013
3734.5	0.0002972
3746.08	0.0003244
3757.65	0.0003796
3769.22	0.0002913
3780.8	0.0003514
3792.37	0.0002509
3803.94	0.0002507
3815.52	0.0002714
3827.09	0.000337
3838.67	0.0002074
3850.24	0.0002474
3861.81	0.0002761
3873.39	0.0002966
3884.96	0.0002952
3896.54	0.0003226
3908.11	0.0002804
3919.68	0.0003386
3931.26	0.0004654
3942.83	0.000464
3954.4	0.0004309
3965.98	0.0004156
3977.55	0.0004815
3989.13	0.0003711
4000.7	0.0004272
