Infrared Spectrum: 3-Aminocrotonitrile
Formula: C 4 H 6 N 2
CAS: 1118-61-2
State: gas
Instrument: HP-GC/MS/IRD
Origin: NIST Mass Spectrometry Data Center
1/CM	ABSORBANCE
550	0.0008418
562	0.0010051
574	0.0012167
586	0.0013754
598	0.0017158
610	0.0020102
622	0.0023529
634	0.002691
646	0.0029624
658	0.003174
670	0.0037007
682	0.0043769
694	0.0048898
706	0.0056028
718	0.0043079
730	0.0033258
742	0.0025438
754	0.0025047
766	0.0024587
778	0.0022448
790	0.0019941
802	0.0018239
814	0.001748
826	0.0016928
838	0.001679
850	0.0015571
862	0.001587
874	0.001564
886	0.0014191
898	0.0012052
910	0.0009223
922	0.0008326
934	0.0008648
946	0.000851
958	0.0007222
970	0.0006624
982	0.0005957
994	0.0005704
1006	0.0005382
1018	0.0005635
1030	0.0005129
1042	0.0004255
1054	0.000322
1066	0.0002645
1078	0.0001817
1090	0.0002116
1102	0.0002139
1114	0.0002714
1126	0.0002691
1138	0.0002139
1150	0.0001288
1162	8.74e-05
1174	0
1186	2.3e-05
1198	0.0001104
1210	0.0002001
1222	0.0004048
1234	0.0007774
1246	0.001357
1258	0.0017181
1270	0.0020401
1282	0.0017618
1294	0.0012075
1306	0.0005474
1318	0.0004738
1330	0.0005957
1342	0.0009752
1354	0.0019711
1366	0.0035397
1378	0.0053153
1390	0.0065757
1402	0.0064469
1414	0.0057684
1426	0.0034385
1438	0.0022149
1450	0.0016008
1462	0.0013018
1474	0.0010304
1486	0.0008441
1498	0.000736
1510	0.00069
1522	0.0007153
1534	0.0008073
1546	0.0009085
1558	0.0011086
1570	0.0015088
1582	0.0025553
1594	0.0052417
1606	0.0089148
1618	0.0129168
1630	0.0197087
1642	0.0228183
1654	0.0207253
1666	0.0102488
1678	0.0040986
1690	0.0019803
1702	0.0011477
1714	0.0008234
1726	0.0006578
1738	0.0004991
1750	0.0004002
1762	0.0003496
1774	0.0002898
1786	0.000276
1798	0.0002645
1810	0.0002599
1822	0.0002162
1834	0.0002392
1846	0.0002024
1858	0.0002093
1870	0.0001978
1882	0.0001771
1894	0.0002001
1906	0.0002116
1918	0.0002047
1930	0.0001955
1942	0.0001886
1954	0.0001886
1966	0.0002139
1978	0.0001932
1990	0.0001909
2002	0.0001978
2014	0.000184
2026	0.0001978
2038	0.0002116
2050	0.0002116
2062	0.0002323
2074	0.0002185
2086	0.00023
2098	0.00023
2110	0.0002047
2122	0.0002231
2134	0.0002576
2146	0.0003266
2158	0.0003841
2170	0.0005727
2182	0.001265
2194	0.0038939
2206	0.0065274
2218	0.0066102
2230	0.0030613
2242	0.0008809
2254	0.0005106
2266	0.0004439
2278	0.0003611
2290	0.0003128
2302	0.0002829
2314	0.0002668
2326	0.0002507
2338	0.0002461
2350	0.0002507
2362	0.000276
2374	0.0002714
2386	0.0002622
2398	0.0002323
2410	0.0002599
2422	0.0002484
2434	0.0002047
2446	0.0002231
2458	0.0002392
2470	0.0002668
2482	0.0002921
2494	0.0003174
2506	0.0003013
2518	0.0003197
2530	0.0002852
2542	0.0002277
2554	0.0002047
2566	0.0001748
2578	0.0002047
2590	0.0001817
2602	0.0002415
2614	0.0001978
2626	0.00023
2638	0.000253
2650	0.0002415
2662	0.000276
2674	0.0002622
2686	0.000253
2698	0.0002323
2710	0.0002461
2722	0.0002875
2734	0.000322
2746	0.0003634
2758	0.0003657
2770	0.0003565
2782	0.0004117
2794	0.0004715
2806	0.0005037
2818	0.0004508
2830	0.0004531
2842	0.0004577
2854	0.0005819
2866	0.0007751
2878	0.0008533
2890	0.0008694
2902	0.0009177
2914	0.0012489
2926	0.002116
2938	0.0022908
2950	0.0018216
2962	0.0013593
2974	0.0011845
2986	0.0011845
2998	0.0011615
3010	0.0011592
3022	0.0009867
3034	0.0007682
3046	0.0006256
3058	0.0006486
3070	0.0006417
3082	0.0006946
3094	0.0008349
3106	0.0007383
3118	0.0005474
3130	0.0003749
3142	0.0002691
3154	0.000299
3166	0.0003036
3178	0.0003381
3190	0.00046
3202	0.0004738
3214	0.0005589
3226	0.0005658
3238	0.0004876
3250	0.0004715
3262	0.0003266
3274	0.0003956
3286	0.0003542
3298	0.0003657
3310	0.0003266
3322	0.0002898
3334	0.0002346
3346	0.000322
3358	0.0003749
3370	0.0005865
3382	0.000943
3394	0.0016077
3406	0.0024012
3418	0.0027439
3430	0.0027163
3442	0.0018653
3454	0.00115
3466	0.0008648
3478	0.0009292
3490	0.0012719
3502	0.0017825
3514	0.0026151
3526	0.0030452
3538	0.0026197
3550	0.0015088
3562	0.0008602
3574	0.0005635
3586	0.0004209
3598	0.0002967
3610	0.0002898
3622	0.0002484
3634	0.000207
3646	0.0002346
3658	0.0002024
3670	0.0002484
3682	0.0003335
3694	0.0002737
3706	0.0002001
3718	0.0002231
3730	0.0002484
3742	0.0002806
3754	0.0001748
3766	0.0002484
3778	0.0002553
3790	0.00023
3802	0.0002576
3814	0.0003059
3826	0.0003841
3838	0.0003335
