Infrared Spectrum: TETRAMETHYL-1,3-DISILOXANEDIOL
Formula: C4 H14 O3 Si2
CAS: 1118-15-6
State: SOLUTION (10% CCl4 FOR 3800-1300, 2% CS2 FOR 1300-650, AND 10% CCl4 FOR 650-250)
Melting point: 67-68 C
Class: COBLENTZ III
Instrument: PERKIN-ELMER 521 (GRATING)
Instrument parameters: FILTERS AT 3150, 2500, 2000, 1150, 700, 410. GRATING CHANGES: 2000, 630
Path length: 0.012 CM, 0.012 CM, AND 0.012 CM
Resolution: 2
Origin: DOW CORNING CORP.
1/CM	TRANSMITTANCE
236	0.5684
245	0.5642
254	0.5845
263	0.5789
272	0.5795
281	0.6229
290	0.5618
299	0.5165
308	0.5732
317	0.5243
326	0.567
335	0.6411
344	0.6183
353	0.5094
362	0.4091
371	0.3643
380	0.2598
389	0.3148
398	0.4629
407	0.6944
416	0.7677
425	0.7886
434	0.792
443	0.7859
452	0.7773
461	0.7691
470	0.7629
479	0.7579
488	0.7548
497	0.7529
506	0.7459
515	0.7336
524	0.7131
533	0.6837
542	0.6261
551	0.5199
560	0.6396
569	0.679
578	0.6739
587	0.6572
596	0.6356
605	0.6187
614	0.6025
623	0.5858
632	0.5575
641	0.4772
650	0.5412
659	0.7857
668	0.796
677	0.8136
686	0.8037
695	0.7939
704	0.8055
713	0.8076
722	0.8016
731	0.7913
740	0.7734
749	0.7449
758	0.7099
767	0.6563
776	0.6057
785	0.5559
794	0.5144
803	0.4784
812	0.4532
821	0.559
830	0.5427
839	0.4968
848	0.4622
857	0.4533
866	0.5191
875	0.5186
884	0.4823
893	0.4256
902	0.4539
911	0.4989
920	0.6031
929	0.7001
938	0.7608
947	0.7829
956	0.7952
965	0.8023
974	0.8015
983	0.7916
992	0.7749
1001	0.7373
1010	0.6871
1019	0.6221
1028	0.557
1037	0.4864
1046	0.4267
1055	0.3741
1064	0.3729
1073	0.4121
1082	0.4595
1091	0.5003
1100	0.5421
1109	0.5858
1118	0.6355
1127	0.6844
1136	0.7165
1145	0.7377
1154	0.7569
1163	0.7752
1172	0.7876
1181	0.7965
1190	0.803
1199	0.8094
1208	0.8173
1217	0.818
1226	0.8169
1235	0.8145
1244	0.7693
1253	0.4869
1262	0.6362
1271	0.7546
1280	0.7743
1289	0.784
1298	0.778
1307	0.6278
1316	0.644
1325	0.65
1334	0.6457
1343	0.654
1352	0.691
1361	0.7056
1370	0.707
1379	0.698
1388	0.6393
1397	0.5401
1406	0.5048
1415	0.614
1424	0.6782
1433	0.6847
1442	0.6827
1451	0.702
1460	0.7415
1469	0.756
1478	0.7634
1487	0.7713
1496	0.7764
1505	0.7787
1514	0.7817
1523	0.7852
1532	0.7825
1541	0.7795
1550	0.7864
1559	0.7879
1568	0.7862
1577	0.7384
1586	0.7109
1595	0.74
1604	0.772
1613	0.8003
1622	0.828
1631	0.8439
1640	0.8524
1649	0.8557
1658	0.8584
1667	0.8616
1676	0.8671
1685	0.8752
1694	0.8758
1703	0.8745
1712	0.8678
1721	0.8632
1730	0.8656
1739	0.8696
1748	0.8741
1757	0.878
1766	0.8809
1775	0.8822
1784	0.8831
1793	0.8832
1802	0.8833
1811	0.8833
1820	0.888
1829	0.8904
1838	0.8902
1847	0.8891
1856	0.888
1865	0.8869
1874	0.885
1883	0.8811
1892	0.8688
1901	0.8525
1910	0.854
1919	0.8648
1928	0.8628
1937	0.8537
1946	0.8446
1955	0.8543
1964	0.8601
1973	0.8588
1982	0.8608
1991	0.8603
2000	0.8534
2009	0.8548
2018	0.8564
2027	0.845
2036	0.8305
2045	0.8246
2054	0.8234
2063	0.8242
2072	0.8248
2081	0.8246
2090	0.8236
2099	0.8206
2108	0.8176
2117	0.8142
2126	0.8097
2135	0.8051
2144	0.8001
2153	0.7958
2162	0.7924
2171	0.7911
2180	0.7908
2189	0.7912
2198	0.7921
2207	0.7932
2216	0.7942
2225	0.7937
2234	0.795
2243	0.7963
2252	0.7964
2261	0.7955
2270	0.7945
2279	0.7934
2288	0.7947
2297	0.8004
2306	0.8061
2315	0.8114
2324	0.813
2333	0.8115
2342	0.8154
2351	0.8201
2360	0.8231
2369	0.8237
2378	0.8228
2387	0.8197
2396	0.8213
2405	0.8239
2414	0.8255
2423	0.8267
2432	0.8281
2441	0.8294
2450	0.8298
2459	0.8293
2468	0.829
2477	0.8297
2486	0.828
2495	0.8232
2504	0.8228
2513	0.8266
2522	0.8293
2531	0.8288
2540	0.8282
2549	0.8273
2558	0.8254
2567	0.8224
2576	0.8191
2585	0.8157
2594	0.8123
2603	0.809
2612	0.8058
2621	0.8025
2630	0.7994
2639	0.7962
2648	0.7918
2657	0.7872
2666	0.7824
2675	0.7775
2684	0.7726
2693	0.7665
2702	0.7602
2711	0.7526
2720	0.7441
2729	0.7352
2738	0.726
2747	0.7153
2756	0.7039
2765	0.6864
2774	0.6608
2783	0.648
2792	0.6339
2801	0.6177
2810	0.6105
2819	0.6041
2828	0.5927
2837	0.5747
2846	0.557
2855	0.5403
2864	0.5225
2873	0.5036
2882	0.4766
2891	0.4527
2900	0.4024
2909	0.3567
2918	0.391
2927	0.3799
2936	0.3514
2945	0.3068
2954	0.2394
2963	0.102
2972	0.1234
2981	0.2161
2990	0.2893
2999	0.2876
3008	0.2785
3017	0.2663
3026	0.2477
3035	0.2308
3044	0.2158
3053	0.202
3062	0.1902
3071	0.1806
3080	0.1712
3089	0.1611
3098	0.1522
3107	0.1444
3116	0.1366
3125	0.1288
3134	0.1217
3143	0.1168
3152	0.112
3161	0.1064
3170	0.1002
3179	0.0945
3188	0.089
3197	0.0849
3206	0.0814
3215	0.0779
3224	0.0752
3233	0.0727
3242	0.0713
3251	0.0705
3260	0.071
3269	0.0719
3278	0.0729
3287	0.075
3296	0.0777
3305	0.0807
3314	0.0839
3323	0.0877
3332	0.0919
3341	0.0956
3350	0.1022
3359	0.1105
3368	0.1219
3377	0.1347
3386	0.1499
3395	0.163
3404	0.1791
3413	0.1957
3422	0.2144
3431	0.2336
3440	0.2538
3449	0.2797
3458	0.3057
3467	0.3311
3476	0.3571
3485	0.3937
3494	0.4297
3503	0.453
3512	0.4762
3521	0.5018
3530	0.5304
3539	0.5556
3548	0.5946
3557	0.6355
3566	0.6781
3575	0.7052
3584	0.7268
3593	0.7444
3602	0.7576
3611	0.7709
3620	0.7857
3629	0.7979
3638	0.8058
3647	0.8084
3656	0.8039
3665	0.7948
3674	0.7853
3683	0.7704
3692	0.7518
3701	0.7424
3710	0.7648
3719	0.8504
3728	0.8572
3737	0.8638
3746	0.8697
3755	0.8659
3764	0.8623
3773	0.8713
3782	0.878
3791	0.8822
3800	0.8864
3809	0.8889
