Infrared Spectrum: Acetoacetic acid, allyl ester
Formula: C7 H10 O3
CAS: 1118-84-9
State: SOLUTION (10% CCl4 FOR 3800-1330, 10% CS2 FOR 1330-400 CM^-^1)
Class: COBLENTZ III
Instrument: DOW KBr FOREPRISM-GRATING
Instrument parameters: BLAZED AT 3.5, 12.0, 20.0 MICRON AND CHANGED AT 5.0, 7.5, 14.9 MICRON
Sampling: TRANSMISSION
Path length: 0.011 CM, 0.011 CM
Resolution: 2
Origin: DOW CHEMICAL COMPANY
1/CM	TRANSMITTANCE
3800	0.9172
3791	0.9188
3782	0.917
3773	0.9186
3764	0.9171
3755	0.916
3746	0.9155
3737	0.9172
3728	0.9172
3719	0.9156
3710	0.9158
3701	0.9106
3692	0.8998
3683	0.8947
3674	0.8961
3665	0.9008
3656	0.8994
3647	0.8893
3638	0.8784
3629	0.8576
3620	0.8484
3611	0.8506
3602	0.8562
3593	0.8441
3584	0.8261
3575	0.8181
3566	0.8148
3557	0.8133
3548	0.8151
3539	0.8157
3530	0.8173
3521	0.8172
3512	0.8187
3503	0.8203
3494	0.821
3485	0.8213
3476	0.8214
3467	0.8202
3458	0.819
3449	0.8172
3440	0.8156
3431	0.8176
3422	0.8276
3413	0.8389
3404	0.8471
3395	0.8524
3386	0.8542
3377	0.8561
3368	0.857
3359	0.8573
3350	0.8576
3341	0.8578
3332	0.8578
3323	0.8575
3314	0.8562
3305	0.8558
3296	0.8511
3287	0.8486
3278	0.8475
3269	0.8474
3260	0.8463
3251	0.8451
3242	0.8445
3233	0.8431
3224	0.841
3215	0.8392
3206	0.8356
3197	0.834
3188	0.8287
3179	0.8208
3170	0.8144
3161	0.8102
3152	0.8064
3143	0.8006
3134	0.7963
3125	0.7887
3116	0.7744
3107	0.7429
3098	0.6531
3089	0.6325
3080	0.6651
3071	0.705
3062	0.7267
3053	0.7376
3044	0.7375
3035	0.6992
3026	0.6543
3017	0.6174
3008	0.598
2999	0.5872
2990	0.5902
2981	0.6149
2972	0.605
2963	0.5314
2954	0.4837
2945	0.5365
2936	0.5643
2927	0.6413
2918	0.6821
2909	0.6966
2900	0.7004
2891	0.6971
2882	0.7037
2873	0.7181
2864	0.7242
2855	0.7318
2846	0.7522
2837	0.7707
2828	0.7851
2819	0.8013
2810	0.8101
2801	0.8173
2792	0.822
2783	0.8254
2774	0.8297
2765	0.8342
2756	0.8409
2747	0.8479
2738	0.8535
2729	0.8577
2720	0.8614
2711	0.8659
2702	0.8706
2693	0.8764
2684	0.8789
2675	0.8799
2666	0.8786
2657	0.8785
2648	0.8768
2639	0.8754
2630	0.876
2621	0.8784
2612	0.8797
2603	0.8809
2594	0.8824
2585	0.8837
2576	0.8849
2567	0.8859
2558	0.8867
2549	0.8876
2540	0.8889
2531	0.8904
2522	0.892
2513	0.8933
2504	0.8948
2495	0.8961
2486	0.8974
2477	0.901
2468	0.9029
2459	0.9049
2450	0.9049
2441	0.9072
2432	0.9072
2423	0.9062
2414	0.9053
2405	0.9054
2396	0.9038
2387	0.903
2378	0.9061
2369	0.9074
2360	0.9114
2351	0.9167
2342	0.9131
2333	0.9123
2324	0.9166
2315	0.9178
2306	0.9196
2297	0.9229
2288	0.9232
2279	0.925
2270	0.926
2261	0.9271
2252	0.9286
2243	0.9286
2234	0.9284
2225	0.9288
2216	0.9258
2207	0.9236
2198	0.9207
2189	0.9172
2180	0.9172
2171	0.919
2162	0.9179
2153	0.9194
2144	0.922
2135	0.9242
2126	0.9252
2117	0.9254
2108	0.9254
2099	0.9252
2090	0.9249
2081	0.9246
2072	0.9245
2063	0.9241
2054	0.9255
2045	0.9234
2036	0.923
2027	0.9237
2018	0.9251
2009	0.9252
2000	0.8953
1991	0.9199
1982	0.9258
1973	0.9283
1964	0.9383
1955	0.9386
1946	0.9323
1937	0.9308
1928	0.9293
1919	0.928
1910	0.9253
1901	0.9202
1892	0.9156
1883	0.9085
1874	0.8942
1865	0.8893
1856	0.8917
1847	0.8875
1838	0.8831
1829	0.8772
1820	0.8676
1811	0.8523
1802	0.8188
1793	0.7805
1784	0.7201
1775	0.5537
1766	0.2827
1757	0.0608
1748	0.0219
1739	0.0232
1730	0.0261
1721	0.0115
1712	0.0705
1703	0.2723
1694	0.428
1685	0.4517
1676	0.4408
1667	0.234
1658	0.0907
1649	0.0943
1640	0.1251
1631	0.0855
1622	0.2747
1613	0.4689
1604	0.5422
1595	0.6174
1586	0.7123
1577	0.7612
1568	0.7585
1559	0.746
1550	0.8352
1541	0.8404
1532	0.8341
1523	0.8494
1514	0.8541
1505	0.8481
1496	0.8258
1487	0.8072
1478	0.7628
1469	0.6373
1460	0.3116
1451	0.2241
1442	0.3008
1433	0.3176
1424	0.2775
1415	0.2013
1406	0.2813
1397	0.5103
1388	0.5545
1379	0.3953
1370	0.3164
1361	0.1331
1352	0.388
1343	0.3942
1334	0.4236
1325	0.3237
1316	0.144
1307	0.202
1298	0.2594
1289	0.2568
1280	0.203
1271	0.1531
1262	0.1757
1253	0.1519
1244	0.068
1235	0.0201
1226	0.0135
1217	0.0729
1208	0.2098
1199	0.256
1190	0.2093
1181	0.1758
1172	0.1586
1163	0.1495
1154	0.0347
1145	0.0495
1136	0.2417
1127	0.4565
1118	0.5915
1109	0.6793
1100	0.7098
1091	0.7393
1082	0.7999
1073	0.8153
1064	0.7991
1055	0.7167
1046	0.4928
1037	0.383
1028	0.3178
1019	0.425
1010	0.4714
1001	0.3828
992	0.2058
983	0.1845
974	0.3558
965	0.517
956	0.6415
947	0.6456
938	0.4024
929	0.2064
920	0.2732
911	0.4752
902	0.6487
893	0.7629
884	0.7958
875	0.8044
866	0.7845
857	0.7524
848	0.6716
839	0.566
830	0.5291
821	0.6334
812	0.6765
803	0.5097
794	0.6343
785	0.8862
776	0.9358
767	0.9442
758	0.9443
749	0.8794
740	0.6018
731	0.8525
722	0.9286
713	0.9541
704	0.9671
695	0.9795
686	0.9867
677	0.9961
668	0.9689
659	0.9045
650	0.8801
641	0.8865
632	0.8751
623	0.8582
614	0.8495
605	0.8769
596	0.8958
587	0.9051
578	0.8854
569	0.8466
560	0.8398
551	0.7365
542	0.6358
533	0.746
524	0.8452
515	0.9098
506	0.9252
497	0.9109
488	0.9115
479	0.9231
470	0.9328
461	0.9358
452	0.9364
443	0.9342
434	0.9232
425	0.8858
416	0.7557
407	0.5728
398	0.3805
389	0.2823
