Infrared Spectrum: UREA, tert-BUTYL-
Formula: C5 H12 N2 O
CAS: 1118-12-3
State: SOLID (SPLIT MULL), FLUOROLUBE FOR 3800-1330 CM^-^1, NUJOL FOR 1330-400 CM^-^1
Class: COBLENTZ III
Instrument: BECKMAN IR-9 (GRATING)
Instrument parameters: ORDER CHANGES: 670, 1200, 2000 CM^-^1
Sampling: TRANSMISSION
Resolution: 2
Origin: DOW CHEMICAL COMPANY
1/CM	TRANSMITTANCE
402	0.4929
411	0.5099
420	0.5362
429	0.5776
438	0.6289
447	0.6894
456	0.7218
465	0.7504
474	0.771
483	0.7832
492	0.7858
501	0.7847
510	0.7818
519	0.7767
528	0.7607
537	0.6822
546	0.759
555	0.7733
564	0.7651
573	0.7467
582	0.7211
591	0.691
600	0.6699
609	0.6753
618	0.6911
627	0.7256
636	0.7699
645	0.8012
654	0.8101
663	0.8132
672	0.8244
681	0.8498
690	0.8595
699	0.8644
708	0.8597
717	0.8209
726	0.7803
735	0.8161
744	0.8381
753	0.8541
762	0.8566
771	0.8451
780	0.8154
789	0.8288
798	0.859
807	0.8736
816	0.8764
825	0.877
834	0.8768
843	0.8767
852	0.8762
861	0.8755
870	0.8741
879	0.8709
888	0.8611
897	0.8553
906	0.8535
915	0.8433
924	0.8486
933	0.8442
942	0.8465
951	0.8431
960	0.8377
969	0.8331
978	0.8396
987	0.8489
996	0.8527
1005	0.8525
1014	0.8505
1023	0.8471
1032	0.8431
1041	0.8424
1050	0.8499
1059	0.8511
1068	0.8455
1077	0.8378
1086	0.8297
1095	0.8238
1104	0.8101
1113	0.7925
1122	0.7758
1131	0.7643
1140	0.7684
1149	0.7797
1158	0.79
1167	0.8004
1176	0.8089
1185	0.8108
1194	0.8031
1203	0.7836
1212	0.7495
1221	0.658
1230	0.5841
1239	0.74
1248	0.5854
1257	0.7681
1266	0.7949
1275	0.7993
1284	0.7999
1293	0.7975
1302	0.7915
1311	0.7928
1320	0.7915
1329	0.6865
1338	0.5896
1347	0.5237
1356	0.4275
1365	0.2778
1374	0.6185
1383	0.674
1392	0.4921
1401	0.7246
1410	0.7496
1419	0.7569
1428	0.7571
1437	0.7467
1446	0.6981
1455	0.5604
1464	0.6725
1473	0.7056
1482	0.6858
1491	0.7491
1500	0.7575
1509	0.7414
1518	0.7192
1527	0.6878
1536	0.5817
1545	0.3534
1554	0.1979
1563	0.2081
1572	0.3394
1581	0.5223
1590	0.582
1599	0.542
1608	0.2742
1617	0.2502
1626	0.4372
1635	0.5378
1644	0.3188
1653	0.1005
1662	0.2385
1671	0.4988
1680	0.6535
1689	0.7471
1698	0.7865
1707	0.8145
1716	0.8331
1725	0.8486
1734	0.8554
1743	0.8577
1752	0.8609
1761	0.865
1770	0.8682
1779	0.8712
1788	0.8734
1797	0.8743
1806	0.8755
1815	0.8771
1824	0.8791
1833	0.8807
1842	0.8812
1851	0.8817
1860	0.8821
1869	0.8807
1878	0.8812
1887	0.8834
1896	0.8875
1905	0.8888
1914	0.8894
1923	0.8906
1932	0.8916
1941	0.8925
1950	0.8906
1959	0.8789
1968	0.8899
1977	0.8877
1986	0.8846
1995	0.8833
2004	0.8818
2013	0.8806
2022	0.879
2031	0.8775
2040	0.876
2049	0.8746
2058	0.8734
2067	0.8721
2076	0.871
2085	0.8704
2094	0.87
2103	0.8694
2112	0.869
2121	0.8685
2130	0.8681
2139	0.8677
2148	0.8674
2157	0.867
2166	0.8666
2175	0.8662
2184	0.8652
2193	0.8636
2202	0.862
2211	0.8604
2220	0.8578
2229	0.8537
2238	0.8485
2247	0.8444
2256	0.8404
2265	0.8365
2274	0.8338
2283	0.8311
2292	0.8289
2301	0.827
2310	0.825
2319	0.8244
2328	0.8235
2337	0.8206
2346	0.8207
2355	0.8256
2364	0.8268
2373	0.828
2382	0.8353
2391	0.8447
2400	0.8471
2409	0.8477
2418	0.8475
2427	0.8468
2436	0.8461
2445	0.8454
2454	0.8454
2463	0.8465
2472	0.8484
2481	0.8503
2490	0.8521
2499	0.8541
2508	0.8561
2517	0.8581
2526	0.8601
2535	0.8617
2544	0.8617
2553	0.8616
2562	0.8616
2571	0.8616
2580	0.8615
2589	0.8612
2598	0.8609
2607	0.8605
2616	0.859
2625	0.8571
2634	0.8563
2643	0.8611
2652	0.862
2661	0.8618
2670	0.8608
2679	0.8575
2688	0.8535
2697	0.8498
2706	0.8461
2715	0.8421
2724	0.8383
2733	0.8366
2742	0.835
2751	0.8328
2760	0.8308
2769	0.8295
2778	0.8292
2787	0.8288
2796	0.8277
2805	0.8266
2814	0.8256
2823	0.8248
2832	0.8201
2841	0.8058
2850	0.7851
2859	0.7693
2868	0.7554
2877	0.7481
2886	0.7582
2895	0.7371
2904	0.7115
2913	0.6896
2922	0.6718
2931	0.6618
2940	0.6714
2949	0.6978
2958	0.6041
2967	0.5485
2976	0.52
2985	0.6671
2994	0.7428
3003	0.7491
3012	0.7851
3021	0.8094
3030	0.8164
3039	0.8192
3048	0.8183
3057	0.8131
3066	0.8053
3075	0.7925
3084	0.7775
3093	0.7675
3102	0.7671
3111	0.7738
3120	0.7772
3129	0.7744
3138	0.7692
3147	0.7628
3156	0.7554
3165	0.744
3174	0.7246
3183	0.6974
3192	0.6582
3201	0.6169
3210	0.5853
3219	0.569
3228	0.5739
3237	0.6135
3246	0.643
3255	0.6518
3264	0.648
3273	0.6354
3282	0.6039
3291	0.5799
3300	0.5712
3309	0.5651
3318	0.5497
3327	0.4598
3336	0.3482
3345	0.2658
3354	0.3837
3363	0.5458
3372	0.6232
3381	0.6682
3390	0.683
3399	0.6771
3408	0.6448
3417	0.5917
3426	0.5155
3435	0.4392
3444	0.3639
3453	0.4999
3462	0.6396
3471	0.7217
3480	0.7814
3489	0.8188
3498	0.8421
3507	0.8545
3516	0.8609
3525	0.8639
3534	0.8659
3543	0.867
3552	0.8682
3561	0.8691
3570	0.8742
3579	0.8728
3588	0.8713
3597	0.8723
3606	0.8728
3615	0.8725
3624	0.8716
3633	0.8707
3642	0.8701
3651	0.8696
3660	0.8692
3669	0.8687
3678	0.8681
3687	0.8674
3696	0.8667
3705	0.866
3714	0.8654
3723	0.8648
3732	0.8644
3741	0.8639
3750	0.8637
3759	0.8638
3768	0.8639
3777	0.8639
3786	0.8639
3795	0.8639
