Infrared Spectrum: Dimethyl glutarate
Formula: C 7 H 12 O 4
CAS: 1119-40-0
State: gas
Origin: EPA-IR VAPOR PHASE LIBRARY
1/CM	ABSORBANCE
549.8	0.0004177
559.445	0.00079
569.09	0.0008551
578.734	0.000919
588.379	0.001291
598.024	0.001301
607.669	0.001301
617.313	0.001861
626.958	0.001551
636.603	0.001671
646.248	0.001391
655.893	0.0010424
665.537	0.0007961
675.182	0.0008549
684.827	0.0009514
694.472	0.0010253
704.116	0.0010678
713.761	0.0012372
723.406	0.001441
733.051	0.001381
742.695	0.001521
752.34	0.001531
761.985	0.001661
771.63	0.002061
781.275	0.002871
790.919	0.003661
800.564	0.004611
810.209	0.005181
819.854	0.005341
829.498	0.005631
839.143	0.006121
848.788	0.005611
858.433	0.005261
868.078	0.005521
877.722	0.005351
887.367	0.004581
897.012	0.003451
906.657	0.001971
916.301	0.001611
925.946	0.001176
935.591	0.001301
945.236	0.001571
954.88	0.001911
964.525	0.003331
974.17	0.004701
983.815	0.006971
993.46	0.010021
1003.1	0.011951
1012.75	0.012651
1022.39	0.014051
1032.04	0.015461
1041.68	0.016471
1051.33	0.016461
1060.97	0.016391
1070.62	0.014781
1080.26	0.011301
1089.91	0.009741
1099.55	0.009181
1109.2	0.010561
1118.84	0.015261
1128.49	0.024921
1138.13	0.041781
1147.78	0.061061
1157.42	0.073681
1167.07	0.079721
1176.71	0.077791
1186.36	0.070241
1196	0.068201
1205.64	0.064621
1215.29	0.059981
1224.93	0.058101
1234.58	0.058801
1244.22	0.056791
1253.87	0.049701
1263.51	0.040111
1273.16	0.031491
1282.8	0.024941
1292.45	0.020901
1302.09	0.020331
1311.74	0.021371
1321.38	0.021511
1331.03	0.020951
1340.67	0.020521
1350.32	0.020421
1359.96	0.020611
1369.61	0.019021
1379.25	0.014751
1388.9	0.009761
1398.54	0.006841
1408.18	0.007111
1417.83	0.009681
1427.47	0.016081
1437.12	0.028311
1446.76	0.023921
1456.41	0.015641
1466.05	0.010931
1475.7	0.007351
1485.34	0.005251
1494.99	0.004031
1504.63	0.003341
1514.28	0.002931
1523.92	0.002711
1533.57	0.002651
1543.21	0.002501
1552.86	0.002531
1562.5	0.002401
1572.15	0.002301
1581.79	0.002251
1591.44	0.002031
1601.08	0.001891
1610.73	0.001871
1620.37	0.001791
1630.01	0.001701
1639.66	0.001811
1649.3	0.001951
1658.95	0.002061
1668.59	0.002391
1678.24	0.002891
1687.88	0.003731
1697.53	0.005481
1707.17	0.008861
1716.82	0.015141
1726.46	0.026571
1736.11	0.048361
1745.75	0.083611
1755.4	0.122041
1765.04	0.119181
1774.69	0.076721
1784.33	0.038461
1793.98	0.017041
1803.62	0.007921
1813.27	0.004281
1822.91	0.002941
1832.55	0.002201
1842.2	0.001871
1851.84	0.001641
1861.49	0.001591
1871.13	0.001551
1880.78	0.001501
1890.42	0.001441
1900.07	0.001371
1909.71	0.001341
1919.36	0.001218
1929	0.001311
1938.65	0.001341
1948.29	0.001391
1957.94	0.001491
1967.58	0.001631
1977.23	0.001721
1986.87	0.001821
1996.52	0.001881
2006.16	0.001981
2015.81	0.001951
2025.45	0.001941
2035.1	0.002031
2044.74	0.001971
2054.38	0.001971
2064.03	0.001971
2073.67	0.001791
2083.32	0.001651
2092.96	0.001421
2102.61	0.0012363
2112.25	0.0010984
2121.9	0.001004
2131.54	0.000914
2141.19	0.0008272
2150.83	0.0007877
2160.48	0.0008834
2170.12	0.0007665
2179.77	0.0007425
2189.41	0.0007051
2199.06	0.000679
2208.7	0.0006535
2218.35	0.0006586
2227.99	0.0005963
2237.64	0.0005927
2247.28	0.0005425
2256.92	0.0006057
2266.57	0.0005267
2276.21	0.0005099
2285.86	0.0005879
2295.5	0.0006119
2305.15	0.0006876
2314.79	0.0007168
2324.44	0.0006697
2334.08	0.0007254
2343.73	0.0005945
2353.37	0.0006235
2363.02	0.0005965
2372.66	0.0007778
2382.31	0.0007034
2391.95	0.0007732
2401.6	0.0006318
2411.24	0.0006726
2420.89	0.0006359
2430.53	0.0005183
2440.18	0.0006586
2449.82	0.0006291
2459.47	0.0005667
2469.11	0.0005782
2478.75	0.0005364
2488.4	0.0005797
2498.04	0.0005197
2507.69	0.000509
2517.33	0.0004597
2526.98	0.0004861
2536.62	0.0005156
2546.27	0.000498
2555.91	0.000523
2565.56	0.0005977
2575.2	0.0006241
2584.85	0.0006549
2594.49	0.0006734
2604.14	0.0007099
2613.78	0.0007431
2623.43	0.0007057
2633.07	0.0006856
2642.72	0.0007198
2652.36	0.0007367
2662.01	0.0005671
2671.65	0.0005612
2681.29	0.000685
2690.94	0.0006405
2700.58	0.0006151
2710.23	0.0006146
2719.87	0.0005875
2729.52	0.0006431
2739.16	0.0006271
2748.81	0.0006924
2758.45	0.0005813
2768.1	0.0006934
2777.74	0.0007331
2787.39	0.00094
2797.03	0.0009892
2806.68	0.0011039
2816.32	0.001531
2825.97	0.001931
2835.61	0.003191
2845.26	0.005421
2854.9	0.006081
2864.55	0.004291
2874.19	0.004191
2883.84	0.004801
2893.48	0.005821
2903.12	0.007201
2912.77	0.008811
2922.41	0.010771
2932.06	0.013451
2941.7	0.018081
2951.35	0.027821
2960.99	0.037611
2970.64	0.026231
2980.28	0.016361
2989.93	0.013141
2999.57	0.011551
3009.22	0.009961
3018.86	0.008711
3028.51	0.007571
3038.15	0.006151
3047.8	0.004371
3057.44	0.003541
3067.09	0.002861
3076.73	0.002511
3086.38	0.002451
3096.02	0.002181
3105.67	0.002101
3115.31	0.001621
3124.95	0.001381
3134.6	0.0011959
3144.24	0.0011118
3153.89	0.0006896
3163.53	0.0007901
3173.18	0.0008018
3182.82	0.0007312
3192.47	0.0007262
3202.11	0.0005455
3211.76	0.0004821
3221.4	0.0006047
3231.05	0.0005145
3240.69	0.0005715
3250.34	0.0006244
3259.98	0.0005599
3269.63	0.00034681
3279.27	0.0004625
3288.92	0.0005517
3298.56	0.0004466
3308.21	0.0004992
3317.85	0.0003886
3327.49	0.0004125
3337.14	0.000375
3346.78	0.000445
3356.43	0.0005613
3366.07	0.000398
3375.72	0.0004269
3385.36	0.000431
3395.01	0.0005804
3404.65	0.0005009
3414.3	0.0005982
3423.94	0.0006156
3433.59	0.0004748
3443.23	0.0006963
3452.88	0.0005978
3462.52	0.0008426
3472.17	0.0010027
3481.81	0.001331
3491.46	0.001731
3501.1	0.001811
3510.75	0.001491
3520.39	0.0011769
3530.04	0.0008201
3539.68	0.000729
3549.32	0.0007191
3558.97	0.0005355
3568.61	0.00029702
3578.26	0.0004437
3587.9	0.0003708
3597.55	0.0004622
3607.19	0.000425
3616.84	0.000549
3626.48	0.0004203
3636.13	0.0006297
3645.77	0.0004626
3655.42	0.0005351
3665.06	0.0004484
3674.71	0.00062
3684.35	0.0004533
3694	0.0003999
3703.64	0.0004757
3713.29	0.00034988
3722.93	0.000452
3732.58	0.0004107
3742.22	0.000545
3751.86	0.0004906
3761.51	0.0004396
3771.15	0.00027193
3780.8	0.0005557
3790.44	0.0004567
3800.09	0.0006216
3809.73	0.00037017
3819.38	0.0005744
3829.02	0.0004586
3838.67	0.000515
3848.31	0.00028032
3857.96	0.0006877
3867.6	0.0005624
3877.25	0.0003758
3886.89	0.0006318
3896.54	0.0005699
3906.18	0.0006165
3915.83	0.0008939
3925.47	0.0006863
3935.12	0.0007161
3944.76	0.0007083
3954.41	0.0005009
3964.05	0.0006758
3973.69	0.0006108
3983.34	0.0007498
3992.98	0.0007373
