Infrared Spectrum: 6-Heptenoic acid
Formula: C 7 H 12 O 2
CAS: 1119-60-4
State: gas
Origin: EPA-IR VAPOR PHASE LIBRARY
1/CM	ABSORBANCE
549.8	0.019051
559.445	0.021541
569.09	0.020421
578.734	0.021341
588.379	0.022811
598.024	0.024641
607.669	0.024531
617.313	0.023751
626.958	0.022361
636.603	0.018881
646.248	0.014681
655.893	0.011641
665.537	0.009611
675.182	0.008611
684.827	0.007381
694.472	0.007301
704.116	0.007561
713.761	0.007181
723.406	0.007281
733.051	0.007591
742.695	0.008201
752.34	0.006441
761.985	0.005331
771.63	0.003711
781.275	0.003431
790.919	0.002931
800.564	0.003001
810.209	0.003031
819.854	0.005151
829.498	0.002811
839.143	0.003161
848.788	0.003931
858.433	0.004281
868.078	0.005131
877.722	0.006921
887.367	0.007371
897.012	0.010871
906.657	0.017271
916.301	0.022021
925.946	0.016491
935.591	0.010111
945.236	0.008491
954.88	0.007041
964.525	0.007021
974.17	0.008201
983.815	0.011001
993.46	0.014391
1003.1	0.012591
1012.75	0.012081
1022.39	0.012451
1032.04	0.013951
1041.68	0.015921
1051.33	0.017311
1060.97	0.019161
1070.62	0.023591
1080.26	0.029531
1089.91	0.041321
1099.55	0.052021
1109.2	0.061601
1118.84	0.067331
1128.49	0.067941
1138.13	0.058461
1147.78	0.045891
1157.42	0.035561
1167.07	0.029881
1176.71	0.024851
1186.36	0.022341
1196	0.019671
1205.64	0.018361
1215.29	0.013961
1224.93	0.012251
1234.58	0.010941
1244.22	0.011361
1253.87	0.010611
1263.51	0.010801
1273.16	0.010851
1282.8	0.011071
1292.45	0.010621
1302.09	0.010141
1311.74	0.009521
1321.38	0.009361
1331.03	0.009901
1340.67	0.012061
1350.32	0.014161
1359.96	0.016371
1369.61	0.017971
1379.25	0.019151
1388.9	0.017101
1398.54	0.012801
1408.18	0.010031
1417.83	0.010121
1427.47	0.010621
1437.12	0.011531
1446.76	0.012061
1456.41	0.011411
1466.05	0.008901
1475.7	0.005581
1485.34	0.003681
1494.99	0.003031
1504.63	0.002461
1514.28	0.001981
1523.92	0.001891
1533.57	0.0017634
1543.21	0.0017851
1552.86	0.001881
1562.5	0.0015101
1572.15	0.0016094
1581.79	0.0016752
1591.44	0.001951
1601.08	0.001971
1610.73	0.002491
1620.37	0.004041
1630.01	0.006651
1639.66	0.009381
1649.3	0.007461
1658.95	0.003751
1668.59	0.002831
1678.24	0.002921
1687.88	0.003451
1697.53	0.004111
1707.17	0.005571
1716.82	0.008411
1726.46	0.013741
1736.11	0.022761
1745.75	0.037711
1755.4	0.060471
1765.04	0.095461
1774.69	0.126241
1784.33	0.116711
1793.98	0.076361
1803.62	0.043671
1813.27	0.023871
1822.91	0.013321
1832.55	0.008691
1842.2	0.005821
1851.84	0.003951
1861.49	0.002931
1871.13	0.002271
1880.78	0.002101
1890.42	0.002121
1900.07	0.001871
1909.71	0.0018062
1919.36	0.0017943
1929	0.0016228
1938.65	0.0016166
1948.29	0.001449
1957.94	0.0014445
1967.58	0.0015841
1977.23	0.0016607
1986.87	0.0015029
1996.52	0.0012516
2006.16	0.0013292
2015.81	0.0013908
2025.45	0.0012646
2035.1	0.0011792
2044.74	0.0013185
2054.38	0.0012587
2064.03	0.0010143
2073.67	0.00092553
2083.32	0.00089508
2092.96	0.0009763
2102.61	0.0011128
2112.25	0.0010679
2121.9	0.0012095
2131.54	0.0011757
2141.19	0.0011307
2150.83	0.0011019
2160.48	0.0014192
2170.12	0.0011911
2179.77	0.0012626
2189.41	0.0013599
2199.06	0.001225
2208.7	0.0013817
2218.35	0.001274
2227.99	0.0013589
2237.64	0.001561
2247.28	0.0013862
2256.92	0.0011682
2266.57	0.0009966
2276.21	0.0011003
2285.86	0.0010743
2295.5	0.0010979
2305.15	0.0013086
2314.79	0.001338
2324.44	0.0012483
2334.08	0.0010618
2343.73	0.0011613
2353.37	0.0011993
2363.02	0.0011835
2372.66	0.0011183
2382.31	0.0011659
2391.95	0.0011233
2401.6	0.0010682
2411.24	0.0010776
2420.89	0.0011547
2430.53	0.0009913
2440.18	0.00089269
2449.82	0.0008239
2459.47	0.0011033
2469.11	0.0009593
2478.75	0.0007761
2488.4	0.0010673
2498.04	0.0010917
2507.69	0.0010149
2517.33	0.0011298
2526.98	0.0010746
2536.62	0.0011909
2546.27	0.0011117
2555.91	0.00084408
2565.56	0.00092002
2575.2	0.0010604
2584.85	0.0010604
2594.49	0.0010454
2604.14	0.001253
2613.78	0.0011432
2623.43	0.0011075
2633.07	0.001084
2642.72	0.0013319
2652.36	0.0013491
2662.01	0.0015847
2671.65	0.0013859
2681.29	0.0013825
2690.94	0.0011591
2700.58	0.0014789
2710.23	0.0018013
2719.87	0.0013336
2729.52	0.0012908
2739.16	0.0016346
2748.81	0.0014018
2758.45	0.001695
2768.1	0.0013968
2777.74	0.0018272
2787.39	0.0016822
2797.03	0.002011
2806.68	0.002501
2816.32	0.002931
2825.97	0.004031
2835.61	0.005371
2845.26	0.008701
2854.9	0.012681
2864.55	0.015821
2874.19	0.016621
2883.84	0.015451
2893.48	0.014921
2903.12	0.018101
2912.77	0.025481
2922.41	0.034691
2932.06	0.043691
2941.7	0.046971
2951.35	0.041521
2960.99	0.031901
2970.64	0.023291
2980.28	0.018771
2989.93	0.016481
2999.57	0.013511
3009.22	0.011061
3018.86	0.008051
3028.51	0.005931
3038.15	0.005381
3047.8	0.004821
3057.44	0.005881
3067.09	0.007231
3076.73	0.009751
3086.38	0.013111
3096.02	0.009371
3105.67	0.004271
3115.31	0.002631
3124.95	0.002391
3134.6	0.0015779
3144.24	0.0012886
3153.89	0.0016104
3163.53	0.0015905
3173.18	0.0014454
3182.82	0.00092179
3192.47	0.0013816
3202.11	0.00092568
3211.76	0.0014258
3221.4	0.000995
3231.05	0.00084289
3240.69	0.00084478
3250.34	0.00092781
3259.98	0.0011241
3269.63	0.000499
3279.27	0.0010084
3288.92	0.0010872
3298.56	0.00090657
3308.21	0.0011051
3317.85	0.000557
3327.49	0.00088092
3337.14	0.001074
3346.78	0.000840631
3356.43	0.000571
3366.07	0.000497
3375.72	0.0007649
3385.36	0.0007976
3395.01	0.001095
3404.65	0.000646
3414.3	0.000669
3423.94	0.000684
3433.59	0.000628
3443.23	0.0009461
3452.88	0.000641
3462.52	0.000577
3472.17	0.001459
3481.81	0.00091992
3491.46	0.0013628
3501.1	0.0012546
3510.75	0.0018086
3520.39	0.002291
3530.04	0.002761
3539.68	0.003281
3549.32	0.006121
3558.97	0.012631
3568.61	0.041051
3578.26	0.046351
3587.9	0.017481
3597.55	0.005751
3607.19	0.003731
3616.84	0.001931
3626.48	0.0016128
3636.13	0.0015726
3645.77	0.0015421
3655.42	0.0011457
3665.06	0.000533
3674.71	0.0012225
3684.35	0.001216
3694	0.001258
3703.64	0.0013724
3713.29	0.0010544
3722.93	0.00091909
3732.58	0.0011076
3742.22	0.0007366
3751.86	0.000637
3761.51	0.00083188
3771.15	0.00092193
3780.8	0.000715
3790.44	0.0010515
3800.09	0.0011084
3809.73	0.00084754
3819.38	0.000254
3829.02	0.00086497
3838.67	0.0007859
3848.31	0.0007676
3857.96	0.0010277
3867.6	0.000699
3877.25	0.0009945
3886.89	0.000452
3896.54	0.0012981
3906.18	0.00090037
3915.83	0.00089906
3925.47	0.000348
3935.12	0.0009676
3944.76	0.000398
3954.41	0.000834169
3964.05	0.0008017
3973.69	0.000492
3983.34	0.0009389
3992.98	0.0010432
