Infrared Spectrum: 2-Heptyne
Formula: C 7 H 12
CAS: 1119-65-9
State: gas
Instrument: HP-GC/MS/IRD
Origin: NIST Mass Spectrometry Data Center
1/CM	ABSORBANCE
550	0.0008424
562	0.0004706
574	0.0005122
586	0.0003588
598	0.0002548
610	0.0002392
622	0.0002288
634	0.0002678
646	0.0001508
658	0.000156
670	0.0002444
682	0.0001846
694	0.0001638
706	0.0001534
718	0.0002132
730	0.0002158
742	0.0003718
754	0.0004394
766	0.0003926
778	0.0002548
790	0.0002236
802	0.000143
814	9.88e-05
826	0
838	3.9e-05
850	3.9e-05
862	0
874	9.1e-05
886	0.0001092
898	0.000169
910	0.0001196
922	9.36e-05
934	0.0001378
946	0.0002054
958	0.0002106
970	0.000208
982	0.00013
994	0.000117
1006	0.0001014
1018	0.000104
1030	0.000104
1042	0.000156
1054	0.0001508
1066	0.0002028
1078	0.000286
1090	0.0002964
1102	0.0003536
1114	0.0002236
1126	0.0001404
1138	0.0001352
1150	0.0001378
1162	0.0001586
1174	0.0001326
1186	0.0001508
1198	0.0002158
1210	0.0002496
1222	0.0002548
1234	0.0002938
1246	0.000468
1258	0.0005304
1270	0.0004134
1282	0.0005928
1294	0.0009308
1306	0.0011128
1318	0.0015236
1330	0.001976
1342	0.0017472
1354	0.0014534
1366	0.001547
1378	0.0019292
1390	0.0016406
1402	0.001066
1414	0.001079
1426	0.0015496
1438	0.0022594
1450	0.0028184
1462	0.0029224
1474	0.0022672
1486	0.0014586
1498	0.0011102
1510	0.0007826
1522	0.0005798
1534	0.0005538
1546	0.0005122
1558	0.000377
1570	0.0003536
1582	0.0002834
1594	0.0002548
1606	0.0002002
1618	0.0001768
1630	0.0001664
1642	0.0001352
1654	0.0001118
1666	7.28e-05
1678	4.94e-05
1690	8.06e-05
1702	6.5e-05
1714	5.2e-05
1726	4.16e-05
1738	6.5e-05
1750	2.86e-05
1762	4.94e-05
1774	4.68e-05
1786	4.42e-05
1798	5.2e-06
1810	1.82e-05
1822	4.68e-05
1834	3.9e-05
1846	3.9e-05
1858	2.08e-05
1870	1.3e-05
1882	2.08e-05
1894	2.6e-05
1906	3.38e-05
1918	3.64e-05
1930	2.08e-05
1942	2.08e-05
1954	1.3e-05
1966	2.08e-05
1978	2.08e-05
1990	1.82e-05
2002	3.12e-05
2014	7.8e-05
2026	7.02e-05
2038	0.0001066
2050	0.0001456
2062	0.0001196
2074	6.5e-05
2086	2.86e-05
2098	4.16e-05
2110	2.86e-05
2122	2.6e-05
2134	1.3e-05
2146	0
2158	7.8e-06
2170	1.56e-05
2182	3.64e-05
2194	3.9e-05
2206	2.34e-05
2218	1.82e-05
2230	3.64e-05
2242	3.38e-05
2254	1.56e-05
2266	5.2e-06
2278	2.6e-05
2290	2.86e-05
2302	1.56e-05
2314	2.6e-06
2326	2.86e-05
2338	3.12e-05
2350	7.54e-05
2362	2.6e-05
2374	5.46e-05
2386	3.38e-05
2398	4.42e-05
2410	8.84e-05
2422	0.000104
2434	9.36e-05
2446	5.98e-05
2458	5.98e-05
2470	4.16e-05
2482	4.68e-05
2494	4.94e-05
2506	4.68e-05
2518	7.8e-05
2530	0.0001014
2542	7.28e-05
2554	7.02e-05
2566	8.32e-05
2578	9.1e-05
2590	5.72e-05
2602	5.72e-05
2614	7.02e-05
2626	8.06e-05
2638	9.36e-05
2650	0.0002002
2662	0.0002158
2674	0.0001768
2686	0.0002054
2698	0.0001768
2710	0.000156
2722	0.0002938
2734	0.0004082
2746	0.0005824
2758	0.0005928
2770	0.000481
2782	0.0005538
2794	0.0006474
2806	0.0008034
2818	0.0010478
2830	0.001651
2842	0.0029406
2854	0.0053794
2866	0.0086268
2878	0.0104754
2890	0.0092404
2902	0.0085644
2914	0.0124592
2926	0.0209638
2938	0.026
2950	0.021151
2962	0.0177112
2974	0.0146484
2986	0.0077116
2998	0.0039156
3010	0.0025532
3022	0.0019422
3034	0.001768
3046	0.0012922
3058	0.0010296
3070	0.0007176
3082	0.0005824
3094	0.0005304
3106	0.0003822
3118	0.0003276
3130	0.0002808
3142	0.0002496
3154	0.0002184
3166	0.0002158
3178	0.0001586
3190	0.0001456
3202	8.58e-05
3214	0.0001066
3226	4.16e-05
3238	0.000104
3250	2.08e-05
3262	4.68e-05
3274	7.02e-05
3286	8.32e-05
3298	3.64e-05
3310	9.1e-05
3322	3.64e-05
3334	4.94e-05
3346	0.0001274
3358	6.76e-05
3370	0.000143
3382	3.64e-05
3394	7.02e-05
3406	6.5e-05
3418	4.42e-05
3430	0.0001066
3442	7.02e-05
3454	0.0001222
3466	0.0001066
3478	6.24e-05
3490	3.9e-05
3502	1.3e-05
3514	4.94e-05
3526	3.64e-05
3538	8.32e-05
3550	6.24e-05
3562	6.5e-05
3574	9.36e-05
3586	0.0001066
3598	7.54e-05
3610	8.58e-05
3622	0.0001014
3634	5.46e-05
3646	0.0001404
3658	0.0001274
3670	0.0001508
3682	0.000117
3694	0.0001482
3706	0.0001742
3718	9.88e-05
3730	0.0001222
3742	0.0001196
3754	0.0001196
3766	0.000169
3778	8.06e-05
3790	0.0001404
3802	0.0001534
3814	5.46e-05
3826	0.0001274
3838	0.0001352
