Infrared Spectrum: Dodecanal
Formula: C 12 H 24 O
CAS: 112-54-9
State: gas
Instrument: HP-GC/MS/IRD
Origin: NIST Mass Spectrometry Data Center
1/CM	ABSORBANCE
550	0.00033
562	0.0001518
574	0.0002706
586	0.0001584
598	9.9e-05
610	5.94e-05
622	0.0001848
634	0.0002112
646	0.0001122
658	0.0004158
670	0.0004224
682	0.0004752
694	0.0005214
706	0.000792
718	0.0011682
730	0.001089
742	0.0008712
754	0.000693
766	0.0006468
778	0.0004884
790	0.0005544
802	0.0004884
814	0.0004488
826	0.0004752
838	0.000627
850	0.00066
862	0.0006732
874	0.0006798
886	0.0006864
898	0.0007326
910	0.0006666
922	0.0006996
934	0.000726
946	0.0007326
958	0.000825
970	0.0008514
982	0.000957
994	0.001056
1006	0.0011484
1018	0.0011814
1030	0.0011154
1042	0.0010362
1054	0.0009834
1066	0.0009702
1078	0.0009306
1090	0.0008184
1102	0.0007854
1114	0.000726
1126	0.000792
1138	0.0007062
1150	0.000627
1162	0.0006402
1174	0.0006336
1186	0.0006402
1198	0.0006204
1210	0.0006006
1222	0.0005676
1234	0.0006072
1246	0.0006864
1258	0.0007788
1270	0.0008844
1282	0.0009702
1294	0.001122
1306	0.00132
1318	0.0013464
1330	0.0015246
1342	0.0021714
1354	0.0025872
1366	0.002211
1378	0.002046
1390	0.0023232
1402	0.0018414
1414	0.0020724
1426	0.0023232
1438	0.0026202
1450	0.004191
1462	0.0054054
1474	0.003498
1486	0.001518
1498	0.0007656
1510	0.0005214
1522	0.000363
1534	0.000297
1546	0.0002178
1558	0.0002046
1570	0.0001518
1582	0.000165
1594	0.000132
1606	0.0001716
1618	0.0001914
1630	0.0002508
1642	0.0003432
1654	0.0004884
1666	0.0007128
1678	0.0011814
1690	0.0019272
1702	0.0031746
1714	0.0052536
1726	0.010164
1738	0.0195888
1750	0.0161568
1762	0.0079398
1774	0.0043494
1786	0.0025344
1798	0.0015048
1810	0.0009438
1822	0.0005808
1834	0.0004158
1846	0.0002838
1858	0.0002244
1870	0.0001716
1882	0.000132
1894	0.0001122
1906	5.28e-05
1918	5.94e-05
1930	8.58e-05
1942	5.28e-05
1954	5.94e-05
1966	1.98e-05
1978	3.3e-05
1990	3.96e-05
2002	3.96e-05
2014	4.62e-05
2026	7.92e-05
2038	7.26e-05
2050	7.26e-05
2062	6.6e-05
2074	2.64e-05
2086	3.3e-05
2098	1.98e-05
2110	1.98e-05
2122	2.64e-05
2134	5.28e-05
2146	1.32e-05
2158	3.3e-05
2170	3.96e-05
2182	4.62e-05
2194	3.96e-05
2206	3.96e-05
2218	2.64e-05
2230	3.96e-05
2242	1.98e-05
2254	3.96e-05
2266	1.98e-05
2278	3.3e-05
2290	3.3e-05
2302	2.64e-05
2314	1.32e-05
2326	1.98e-05
2338	0
2350	6.6e-06
2362	1.32e-05
2374	0
2386	6.6e-06
2398	1.32e-05
2410	1.32e-05
2422	4.62e-05
2434	1.32e-05
2446	4.62e-05
2458	4.62e-05
2470	5.28e-05
2482	5.28e-05
2494	5.28e-05
2506	7.26e-05
2518	0.0001122
2530	0.0001386
2542	0.0001584
2554	0.0002244
2566	0.0002508
2578	0.0003366
2590	0.0003894
2602	0.0005148
2614	0.0006864
2626	0.0008646
2638	0.0011682
2650	0.0014586
2662	0.0019272
2674	0.0025806
2686	0.0037026
2698	0.0057684
2710	0.00858
2722	0.0058938
2734	0.0040854
2746	0.0034254
2758	0.0031614
2770	0.0031878
2782	0.0036894
2794	0.0050424
2806	0.0068244
2818	0.0068772
2830	0.006369
2842	0.0083028
2854	0.0169356
2866	0.0252846
2878	0.0195954
2890	0.016731
2902	0.019833
2914	0.0307362
2926	0.0558228
2938	0.0627924
2950	0.037785
2962	0.0243012
2974	0.0167376
2986	0.0076032
2998	0.0042834
3010	0.0028446
3022	0.0020922
3034	0.001551
3046	0.0011946
3058	0.0009966
3070	0.0008184
3082	0.000693
3094	0.0005808
3106	0.0005148
3118	0.0005016
3130	0.0004422
3142	0.0004026
3154	0.0004422
3166	0.0003168
3178	0.0002508
3190	0.0002706
3202	0.0002442
3214	0.0002244
3226	0.0001188
3238	6.6e-05
3250	0.0001056
3262	9.24e-05
3274	6.6e-05
3286	9.9e-05
3298	3.3e-05
3310	0
3322	7.92e-05
3334	9.9e-05
3346	7.26e-05
3358	9.24e-05
3370	0.000165
3382	0.0001848
3394	0.0001254
3406	0.000165
3418	0.0001716
3430	0.000297
3442	0.00033
3454	0.0004356
3466	0.0004818
3478	0.0004092
3490	0.0003102
3502	0.0002508
3514	0.0001716
3526	9.24e-05
3538	0.0001386
3550	6.6e-05
3562	0.0001056
3574	0.0001122
3586	0.0001386
3598	0.0001386
3610	0.0001716
3622	0.0001584
3634	0.0001452
3646	0.0001584
3658	0.0002112
3670	0.0002178
3682	0.0002244
3694	0.0002178
3706	0.000198
3718	0.0001782
3730	0.000231
3742	0.0001782
3754	0.0001584
3766	0.000231
3778	0.0001188
3790	0.0002046
3802	0.000165
3814	0.000264
3826	0.0002244
3838	0.0002376
