Infrared Spectrum: N-Nonylamine
Formula: C 9 H 21 N
CAS: 112-20-9
State: gas
Origin: EPA-IR VAPOR PHASE LIBRARY
1/CM	ABSORBANCE
549.8	0.002051
559.445	0.002301
569.09	0.002291
578.734	0.002321
588.379	0.002491
598.024	0.002451
607.669	0.002881
617.313	0.002801
626.958	0.003291
636.603	0.003351
646.248	0.003561
655.893	0.004231
665.537	0.004531
675.182	0.005241
684.827	0.005791
694.472	0.006721
704.116	0.008151
713.761	0.010361
723.406	0.012591
733.051	0.015561
742.695	0.018621
752.34	0.021721
761.985	0.024311
771.63	0.025141
781.275	0.023201
790.919	0.017931
800.564	0.012621
810.209	0.009511
819.854	0.007541
829.498	0.006551
839.143	0.006041
848.788	0.005031
858.433	0.004931
868.078	0.004301
877.722	0.003941
887.367	0.003931
897.012	0.003861
906.657	0.003741
916.301	0.003791
925.946	0.003411
935.591	0.003251
945.236	0.003141
954.88	0.002951
964.525	0.002941
974.17	0.002951
983.815	0.002891
993.46	0.003101
1003.1	0.002911
1012.75	0.003271
1022.39	0.003761
1032.04	0.004061
1041.68	0.004891
1051.33	0.005851
1060.97	0.007081
1070.62	0.008281
1080.26	0.007541
1089.91	0.006121
1099.55	0.004771
1109.2	0.003091
1118.84	0.002311
1128.49	0.001901
1138.13	0.001771
1147.78	0.001511
1157.42	0.001631
1167.07	0.0011218
1176.71	0.001341
1186.36	0.0011866
1196	0.0012595
1205.64	0.0011268
1215.29	0.0009684
1224.93	0.0012093
1234.58	0.001371
1244.22	0.001441
1253.87	0.001641
1263.51	0.001551
1273.16	0.001961
1282.8	0.002331
1292.45	0.002971
1302.09	0.003541
1311.74	0.003781
1321.38	0.003681
1331.03	0.004191
1340.67	0.005431
1350.32	0.006651
1359.96	0.007171
1369.61	0.007281
1379.25	0.008031
1388.9	0.007541
1398.54	0.005251
1408.18	0.003821
1417.83	0.003611
1427.47	0.004241
1437.12	0.006431
1446.76	0.010101
1456.41	0.013781
1466.05	0.014461
1475.7	0.010581
1485.34	0.006111
1494.99	0.003741
1504.63	0.002791
1514.28	0.002211
1523.92	0.001951
1533.57	0.001861
1543.21	0.001781
1552.86	0.001751
1562.5	0.001891
1572.15	0.002201
1581.79	0.002651
1591.44	0.003141
1601.08	0.004371
1610.73	0.006251
1620.37	0.007881
1630.01	0.006871
1639.66	0.004531
1649.3	0.002921
1658.95	0.002131
1668.59	0.001601
1678.24	0.001253
1687.88	0.0010444
1697.53	0.0009423
1707.17	0.0008658
1716.82	0.0006966
1726.46	0.0007067
1736.11	0.000707
1745.75	0.0006669
1755.4	0.0006869
1765.04	0.0005932
1774.69	0.0006425
1784.33	0.0006719
1793.98	0.0006562
1803.62	0.0006876
1813.27	0.0006764
1822.91	0.0006934
1832.55	0.0007169
1842.2	0.0005873
1851.84	0.0006074
1861.49	0.000629
1871.13	0.0004655
1880.78	0.00040677
1890.42	0.0004393
1900.07	0.00037523
1909.71	0.00033779
1919.36	0.00030606
1929	0.000313901
1938.65	0.0002609
1948.29	0.00038415
1957.94	0.0002796
1967.58	0.00032267
1977.23	0.0002824
1986.87	0.000311766
1996.52	0.00032842
2006.16	0.00037981
2015.81	0.000433
2025.45	0.000471
2035.1	0.0005207
2044.74	0.0004876
2054.38	0.0004841
2064.03	0.0004487
2073.67	0.0004418
2083.32	0.0004531
2092.96	0.0004577
2102.61	0.00040451
2112.25	0.00040144
2121.9	0.00036358
2131.54	0.000316815
2141.19	0.0004214
2150.83	0.0004591
2160.48	0.00038292
2170.12	0.0004534
2179.77	0.0004501
2189.41	0.0004174
2199.06	0.0004358
2208.7	0.00038857
2218.35	0.00033831
2227.99	0.0004649
2237.64	0.0005078
2247.28	0.00037086
2256.92	0.00036742
2266.57	0.0004954
2276.21	0.0004304
2285.86	0.00038675
2295.5	0.00038728
2305.15	0.0004691
2314.79	0.0005038
2324.44	0.0004514
2334.08	0.0004808
2343.73	0.0005165
2353.37	0.0004837
2363.02	0.00037454
2372.66	0.0005111
2382.31	0.0004871
2391.95	0.0004799
2401.6	0.0004606
2411.24	0.0004298
2420.89	0.000477
2430.53	0.0004807
2440.18	0.0005201
2449.82	0.0004727
2459.47	0.0005335
2469.11	0.000435
2478.75	0.0004254
2488.4	0.0005082
2498.04	0.0005601
2507.69	0.0006615
2517.33	0.0007001
2526.98	0.0007723
2536.62	0.0009407
2546.27	0.0008781
2555.91	0.0007702
2565.56	0.0010303
2575.2	0.0010253
2584.85	0.0012095
2594.49	0.0012914
2604.14	0.001331
2613.78	0.001391
2623.43	0.001681
2633.07	0.001691
2642.72	0.001971
2652.36	0.002161
2662.01	0.002321
2671.65	0.002731
2681.29	0.002781
2690.94	0.003021
2700.58	0.002941
2710.23	0.002901
2719.87	0.003161
2729.52	0.003561
2739.16	0.003951
2748.81	0.004091
2758.45	0.004381
2768.1	0.004391
2777.74	0.004781
2787.39	0.005451
2797.03	0.006701
2806.68	0.008121
2816.32	0.010781
2825.97	0.014701
2835.61	0.021461
2845.26	0.036111
2854.9	0.062091
2864.55	0.078481
2874.19	0.069231
2883.84	0.057411
2893.48	0.052571
2903.12	0.064071
2912.77	0.096061
2922.41	0.154411
2932.06	0.197381
2941.7	0.164361
2951.35	0.103621
2960.99	0.075981
2970.64	0.063801
2980.28	0.035681
2989.93	0.018981
2999.57	0.012271
3009.22	0.008821
3018.86	0.006751
3028.51	0.005241
3038.15	0.004201
3047.8	0.003341
3057.44	0.002941
3067.09	0.002571
3076.73	0.002311
3086.38	0.002001
3096.02	0.002001
3105.67	0.001561
3115.31	0.001601
3124.95	0.001451
3134.6	0.001341
3144.24	0.0012332
3153.89	0.0012952
3163.53	0.001361
3173.18	0.0009775
3182.82	0.0010381
3192.47	0.0011503
3202.11	0.0008353
3211.76	0.0007073
3221.4	0.0006494
3231.05	0.0007404
3240.69	0.0007286
3250.34	0.0004627
3259.98	0.00040368
3269.63	0.00040555
3279.27	0.0005336
3288.92	0.000432
3298.56	0.0003452
3308.21	0.0005702
3317.85	0.0005624
3327.49	0.0006232
3337.14	0.001013
3346.78	0.0008951
3356.43	0.0009526
3366.07	0.000623
3375.72	0.0005101
3385.36	0.0005176
3395.01	0.0006496
3404.65	0.0004734
3414.3	0.0005888
3423.94	0.0004175
3433.59	0.0004119
3443.23	0.0004384
3452.88	0.000214
3462.52	0.000545
3472.17	0.000125
3481.81	0.0004416
3491.46	0.000205
3501.1	8.4e-05
3510.75	0.000201
3520.39	0.000142
3530.04	0.00013
3539.68	0.000197
3549.32	4.6e-05
3558.97	0.00035395
3568.61	0.0002387
3578.26	0.000206
3587.9	0.00040429
3597.55	0.0004819
3607.19	0.0004381
3616.84	0.00039757
3626.48	0.0004751
3636.13	0.00039265
3645.77	0.0004801
3655.42	0.00033558
3665.06	0.0005484
3674.71	0.00037277
3684.35	0.00030603
3694	0.00037047
3703.64	0.00037042
3713.29	0.0004311
3722.93	0.00034709
3732.58	0.0004222
3742.22	0.0004561
3751.86	0.00038802
3761.51	0.00035606
3771.15	0.0005188
3780.8	0.000316518
3790.44	0.0004115
3800.09	0.0006153
3809.73	0.00034746
3819.38	0.00040686
3829.02	0.0005206
3838.67	0.000486
3848.31	0.0005017
3857.96	0.0002225
3867.6	0.000146
3877.25	0.0005494
3886.89	0.00038873
3896.54	0.0002612
3906.18	0.0007364
3915.83	0.00035787
3925.47	0.0004401
3935.12	0.0006867
3944.76	0.0005608
3954.41	0.0006581
3964.05	0.0006802
3973.69	0.0006348
3983.34	0.0006574
3992.98	0.0005888
