Infrared Spectrum: Undecanal
Formula: C 11 H 22 O
CAS: 112-44-7
State: gas
Instrument: HP-GC/MS/IRD
Origin: NIST Mass Spectrometry Data Center
1/CM	ABSORBANCE
550	0.000209
562	0.0002695
574	9.35e-05
586	0
598	0.000176
610	9.9e-05
622	0.000154
634	0.000165
646	0.000286
658	0.0003355
670	0.000462
682	0.0005335
694	0.0005995
706	0.0007865
718	0.001023
730	0.000968
742	0.0009075
754	0.0007425
766	0.0006875
778	0.00066
790	0.0005995
802	0.0005665
814	0.0005775
826	0.0006875
838	0.0006765
850	0.0007535
862	0.0007095
874	0.000737
886	0.0007535
898	0.000726
910	0.0007205
922	0.0007205
934	0.000825
946	0.0009075
958	0.0008855
970	0.0009295
982	0.001001
994	0.0011165
1006	0.001155
1018	0.0011495
1030	0.0010285
1042	0.0010395
1054	0.000979
1066	0.0010395
1078	0.0009845
1090	0.0008195
1102	0.000693
1114	0.000803
1126	0.0007975
1138	0.000726
1150	0.000715
1162	0.000748
1174	0.0007095
1186	0.0007095
1198	0.000671
1210	0.0006875
1222	0.000649
1234	0.000671
1246	0.000704
1258	0.0007975
1270	0.0008965
1282	0.001023
1294	0.001111
1306	0.0012815
1318	0.001331
1330	0.0014905
1342	0.002024
1354	0.0023595
1366	0.0020845
1378	0.0019745
1390	0.002244
1402	0.001826
1414	0.002002
1426	0.002233
1438	0.002442
1450	0.003751
1462	0.0047575
1474	0.0031185
1486	0.0014575
1498	0.0007865
1510	0.000561
1522	0.0004345
1534	0.0003575
1546	0.000297
1558	0.000319
1570	0.0002585
1582	0.00022
1594	0.0002255
1606	0.000253
1618	0.0003025
1630	0.00033
1642	0.000407
1654	0.0006215
1666	0.0007975
1678	0.0012045
1690	0.0018975
1702	0.003135
1714	0.005093
1726	0.0097405
1738	0.0187055
1750	0.0155045
1762	0.007656
1774	0.004202
1786	0.0024585
1798	0.001496
1810	0.0009295
1822	0.000616
1834	0.000462
1846	0.0003575
1858	0.000275
1870	0.000231
1882	0.000165
1894	0.000143
1906	0.000132
1918	0.00011
1930	0.0001045
1942	9.9e-05
1954	6.05e-05
1966	9.35e-05
1978	6.6e-05
1990	7.15e-05
2002	8.25e-05
2014	5.5e-05
2026	0.0001155
2038	9.35e-05
2050	7.7e-05
2062	5.5e-05
2074	6.05e-05
2086	6.05e-05
2098	6.05e-05
2110	3.85e-05
2122	4.95e-05
2134	5.5e-05
2146	4.95e-05
2158	6.05e-05
2170	4.95e-05
2182	5.5e-05
2194	5.5e-05
2206	2.75e-05
2218	3.85e-05
2230	3.85e-05
2242	1.65e-05
2254	3.3e-05
2266	2.2e-05
2278	4.95e-05
2290	5.5e-05
2302	3.85e-05
2314	6.05e-05
2326	8.8e-05
2338	0.0001155
2350	8.8e-05
2362	0.0001265
2374	8.25e-05
2386	6.6e-05
2398	8.8e-05
2410	8.8e-05
2422	7.7e-05
2434	8.25e-05
2446	0.0001155
2458	0.00011
2470	0.000143
2482	0.000132
2494	0.000132
2506	0.000176
2518	0.0001925
2530	0.00022
2542	0.0002695
2554	0.0002695
2566	0.0003355
2578	0.0003905
2590	0.0004345
2602	0.0005555
2614	0.0007095
2626	0.000935
2638	0.0012045
2650	0.0015235
2662	0.0019305
2674	0.002552
2686	0.0035695
2698	0.005632
2710	0.008195
2722	0.0057255
2734	0.0039215
2746	0.003333
2758	0.003069
2770	0.00308
2782	0.0035585
2794	0.0048345
2806	0.0064295
2818	0.0063635
2830	0.0058355
2842	0.007359
2854	0.014421
2866	0.0212905
2878	0.0173635
2890	0.0149435
2902	0.017358
2914	0.026444
2926	0.046728
2938	0.0528825
2950	0.0335225
2962	0.022253
2974	0.0156585
2986	0.0071225
2998	0.004004
3010	0.0027005
3022	0.001925
3034	0.001463
3046	0.001155
3058	0.000957
3070	0.0008085
3082	0.000649
3094	0.0005885
3106	0.000561
3118	0.0005005
3130	0.0004455
3142	0.0004235
3154	0.0003685
3166	0.000341
3178	0.000253
3190	0.000231
3202	0.000242
3214	0.0001815
3226	0.0001485
3238	0.000121
3250	9.9e-05
3262	7.15e-05
3274	9.9e-05
3286	2.75e-05
3298	7.15e-05
3310	8.8e-05
3322	6.6e-05
3334	0.0001045
3346	4.95e-05
3358	3.85e-05
3370	9.35e-05
3382	8.8e-05
3394	9.35e-05
3406	0.0001155
3418	0.000132
3430	0.000187
3442	0.000198
3454	0.0003245
3466	0.000429
3478	0.0003245
3490	0.0002145
3502	0.00011
3514	2.75e-05
3526	6.05e-05
3538	5.5e-05
3550	5.5e-05
3562	0
3574	1.1e-05
3586	7.7e-05
3598	6.05e-05
3610	7.15e-05
3622	6.6e-05
3634	0.0001045
3646	0.0001265
3658	0.000132
3670	0.0001375
3682	0.000143
3694	0.0001155
3706	0.00011
3718	8.8e-05
3730	0.0001155
3742	0.000143
3754	0.0001155
3766	0.000132
3778	0.0001045
3790	9.9e-05
3802	0.0001815
3814	8.25e-05
3826	0.0001155
3838	0.0001595
