Infrared Spectrum: 1-Chlorododecane
Formula: C 12 H 25 Cl
CAS: 112-52-7
State: gas
Instrument: HP-GC/MS/IRD
Origin: NIST Mass Spectrometry Data Center
1/CM	ABSORBANCE
550	0.0001197
562	6.3e-05
574	0.0001134
586	9.45e-05
598	0.0001953
610	0.0002772
622	0.0004599
634	0.0006426
646	0.0012348
658	0.0020475
670	0.0016002
682	0.0010521
694	0.0011403
706	0.001638
718	0.0024759
730	0.00315
742	0.0031563
754	0.0022743
766	0.0016758
778	0.0012663
790	0.0009954
802	0.0008568
814	0.0008568
826	0.0007308
838	0.0007119
850	0.0007245
862	0.0007245
874	0.000756
886	0.0007749
898	0.0007875
910	0.0006993
922	0.0006678
934	0.0006363
946	0.00063
958	0.0006237
970	0.0006174
982	0.0006804
994	0.0006867
1006	0.0006867
1018	0.0007245
1030	0.0007371
1042	0.0007308
1054	0.0006993
1066	0.0006174
1078	0.0005544
1090	0.0004473
1102	0.0004284
1114	0.0003906
1126	0.0003087
1138	0.000315
1150	0.0003339
1162	0.0003654
1174	0.0003528
1186	0.0004032
1198	0.0004284
1210	0.0004599
1222	0.0005733
1234	0.0006993
1246	0.0009891
1258	0.0013482
1270	0.0018522
1282	0.0024507
1294	0.0030366
1306	0.0029799
1318	0.0025074
1330	0.0019278
1342	0.0020223
1354	0.0021861
1366	0.0018207
1378	0.0014742
1390	0.0012033
1402	0.000882
1414	0.0009198
1426	0.0013419
1438	0.0026208
1450	0.0047502
1462	0.0055377
1474	0.0035532
1486	0.0015561
1498	0.0009135
1510	0.000693
1522	0.0005985
1534	0.0004284
1546	0.0003906
1558	0.000504
1570	0.0002646
1582	0.0001827
1594	0.0001638
1606	0.0001638
1618	0.0002583
1630	0.0001638
1642	0.0001701
1654	0.0003465
1666	0.0001575
1678	0.0001764
1690	0.0001386
1702	0.000252
1714	0.0001701
1726	8.19e-05
1738	0.0001449
1750	0.0001386
1762	8.82e-05
1774	0.0001323
1786	6.93e-05
1798	0.0001071
1810	6.3e-05
1822	4.41e-05
1834	6.93e-05
1846	7.56e-05
1858	1.89e-05
1870	4.41e-05
1882	2.52e-05
1894	3.78e-05
1906	1.26e-05
1918	5.04e-05
1930	0
1942	0
1954	1.89e-05
1966	1.26e-05
1978	1.26e-05
1990	0
2002	3.15e-05
2014	3.15e-05
2026	6.93e-05
2038	7.56e-05
2050	3.78e-05
2062	5.04e-05
2074	6.3e-05
2086	3.78e-05
2098	3.15e-05
2110	1.89e-05
2122	3.78e-05
2134	6.3e-06
2146	3.15e-05
2158	2.52e-05
2170	2.52e-05
2182	4.41e-05
2194	3.78e-05
2206	1.89e-05
2218	1.89e-05
2230	3.15e-05
2242	3.78e-05
2254	3.15e-05
2266	4.41e-05
2278	6.3e-05
2290	6.93e-05
2302	6.93e-05
2314	6.3e-05
2326	7.56e-05
2338	6.3e-05
2350	8.82e-05
2362	7.56e-05
2374	8.19e-05
2386	9.45e-05
2398	0.0001134
2410	0.0001134
2422	0.0001449
2434	0.0001134
2446	0.0001008
2458	0.0001071
2470	0.0001386
2482	0.0001323
2494	0.0001512
2506	0.0001827
2518	0.0002079
2530	0.0002331
2542	0.0002394
2554	0.0002646
2566	0.0002583
2578	0.0003087
2590	0.0003528
2602	0.0003717
2614	0.0003843
2626	0.0004851
2638	0.000504
2650	0.0005544
2662	0.0006174
2674	0.0007119
2686	0.0007434
2698	0.0007371
2710	0.0007119
2722	0.0007308
2734	0.0007875
2746	0.0008505
2758	0.0009198
2770	0.001008
2782	0.0012411
2794	0.001575
2806	0.0020097
2818	0.0026901
2830	0.0038871
2842	0.0067599
2854	0.0158697
2866	0.0238518
2878	0.0176967
2890	0.0145215
2902	0.0176022
2914	0.0285516
2926	0.053235
2938	0.0595539
2950	0.0353052
2962	0.0247716
2974	0.0174636
2986	0.0087318
2998	0.0065394
3010	0.0037107
3022	0.0023688
3034	0.0017136
3046	0.0013167
3058	0.0010458
3070	0.0009009
3082	0.0007686
3094	0.0006741
3106	0.0006111
3118	0.0005418
3130	0.0004977
3142	0.0004725
3154	0.000441
3166	0.0004347
3178	0.000378
3190	0.0003528
3202	0.0003024
3214	0.0002835
3226	0.0002583
3238	0.0002583
3250	0.0001953
3262	0.0001953
3274	0.0001953
3286	0.0001449
3298	0.0001512
3310	0.0001512
3322	0.0001323
3334	0.000126
3346	0.0001764
3358	0.0001323
3370	0.0001386
3382	0.0001071
3394	0.000126
3406	9.45e-05
3418	0.0001197
3430	9.45e-05
3442	8.19e-05
3454	8.19e-05
3466	8.82e-05
3478	4.41e-05
3490	8.82e-05
3502	3.78e-05
3514	3.78e-05
3526	4.41e-05
3538	1.26e-05
3550	4.41e-05
3562	6.3e-05
3574	1.26e-05
3586	9.45e-05
3598	0.000126
3610	0.0001575
3622	0.0001323
3634	0.0001764
3646	0.000252
3658	0.0001764
3670	0.0002709
3682	0.0001512
3694	0.0001953
3706	0.0001638
3718	0.000189
3730	0.000189
3742	0.0002646
3754	0.0002583
3766	0.0001764
3778	0.0001764
3790	0.0002142
3802	0.0002016
3814	0.0002016
3826	0.0001953
3838	0.0002772
