Infrared Spectrum: Myristoyl chloride
Formula: C14 H27 Cl O
CAS: 112-64-1
State: gas
Origin: EPA-IR VAPOR PHASE LIBRARY
1/CM	ABSORBANCE
549.8	0.003866
559.445	0.005236
569.09	0.007056
578.734	0.007016
588.379	0.006716
598.024	0.005306
607.669	0.003816
617.313	0.002436
626.958	0.001956
636.603	0.002126
646.248	0.002076
655.893	0.002496
665.537	0.003026
675.182	0.005386
684.827	0.006796
694.472	0.005486
704.116	0.005466
713.761	0.007226
723.406	0.008026
733.051	0.007766
742.695	0.005916
752.34	0.004876
761.985	0.004216
771.63	0.003626
781.275	0.003296
790.919	0.002826
800.564	0.002916
810.209	0.002756
819.854	0.002716
829.498	0.002676
839.143	0.002746
848.788	0.003006
858.433	0.003316
868.078	0.003576
877.722	0.003696
887.367	0.004176
897.012	0.004846
906.657	0.005676
916.301	0.006856
925.946	0.008456
935.591	0.009856
945.236	0.010806
954.88	0.011496
964.525	0.010906
974.17	0.010656
983.815	0.010266
993.46	0.009926
1003.1	0.008956
1012.75	0.008086
1022.39	0.007356
1032.04	0.006646
1041.68	0.005326
1051.33	0.004206
1060.97	0.003976
1070.62	0.003416
1080.26	0.003076
1089.91	0.003146
1099.55	0.002646
1109.2	0.002706
1118.84	0.003206
1128.49	0.003256
1138.13	0.002736
1147.78	0.002606
1157.42	0.002596
1167.07	0.002376
1176.71	0.002426
1186.36	0.002696
1196	0.002816
1205.64	0.002716
1215.29	0.002546
1224.93	0.002636
1234.58	0.002386
1244.22	0.002386
1253.87	0.002166
1263.51	0.002546
1273.16	0.002516
1282.8	0.002836
1292.45	0.003016
1302.09	0.003106
1311.74	0.003216
1321.38	0.002986
1331.03	0.003246
1340.67	0.003956
1350.32	0.004586
1359.96	0.004196
1369.61	0.003526
1379.25	0.003026
1388.9	0.002636
1398.54	0.002406
1408.18	0.003006
1417.83	0.003446
1427.47	0.003606
1437.12	0.004096
1446.76	0.006166
1456.41	0.008736
1466.05	0.008666
1475.7	0.005016
1485.34	0.002426
1494.99	0.001586
1504.63	0.0011642
1514.28	0.0009356
1523.92	0.0007161
1533.57	0.0007013
1543.21	0.0007181
1552.86	0.0006353
1562.5	0.0006134
1572.15	0.0006249
1581.79	0.0006134
1591.44	0.000507
1601.08	0.0005094
1610.73	0.0005493
1620.37	0.0005645
1630.01	0.000674
1639.66	0.0006495
1649.3	0.0007003
1658.95	0.0006946
1668.59	0.0007257
1678.24	0.0007513
1687.88	0.0007721
1697.53	0.0008573
1707.17	0.0010358
1716.82	0.0011301
1726.46	0.0012805
1736.11	0.001616
1745.75	0.002196
1755.4	0.003256
1765.04	0.005296
1774.69	0.008746
1784.33	0.015506
1793.98	0.027406
1803.62	0.041716
1813.27	0.042086
1822.91	0.026866
1832.55	0.014696
1842.2	0.008136
1851.84	0.004986
1861.49	0.003526
1871.13	0.002596
1880.78	0.002106
1890.42	0.001746
1900.07	0.001586
1909.71	0.001386
1919.36	0.0011872
1929	0.0010918
1938.65	0.0009954
1948.29	0.0009542
1957.94	0.000916
1967.58	0.0008273
1977.23	0.0007605
1986.87	0.0007616
1996.52	0.000728
2006.16	0.0007023
2015.81	0.0007464
2025.45	0.0007252
2035.1	0.0006761
2044.74	0.0006774
2054.38	0.0006282
2064.03	0.0007085
2073.67	0.0007299
2083.32	0.0007673
2092.96	0.0009592
2102.61	0.0012326
2112.25	0.001756
2121.9	0.002356
2131.54	0.001876
2141.19	0.0011974
2150.83	0.000809
2160.48	0.0006674
2170.12	0.0005606
2179.77	0.0004806
2189.41	0.0005628
2199.06	0.0004927
2208.7	0.0005842
2218.35	0.0005852
2227.99	0.0005846
2237.64	0.0006596
2247.28	0.0006348
2256.92	0.0005952
2266.57	0.0006063
2276.21	0.0005144
2285.86	0.0005293
2295.5	0.000479
2305.15	0.0004986
2314.79	0.0005259
2324.44	0.000559
2334.08	0.0005911
2343.73	0.0005845
2353.37	0.0004781
2363.02	0.0005462
2372.66	0.0005202
2382.31	0.0005452
2391.95	0.0005023
2401.6	0.0005807
2411.24	0.0005111
2420.89	0.0005414
2430.53	0.0004548
2440.18	0.0005321
2449.82	0.000527
2459.47	0.0005061
2469.11	0.0004722
2478.75	0.0004968
2488.4	0.0005602
2498.04	0.000522
2507.69	0.0005139
2517.33	0.0004828
2526.98	0.0006055
2536.62	0.0006343
2546.27	0.0006185
2555.91	0.0005692
2565.56	0.0005596
2575.2	0.0006723
2584.85	0.0008201
2594.49	0.0007636
2604.14	0.0007864
2613.78	0.0008999
2623.43	0.0009166
2633.07	0.0010924
2642.72	0.0010802
2652.36	0.0011555
2662.01	0.0011836
2671.65	0.0012914
2681.29	0.001356
2690.94	0.0012907
2700.58	0.0011299
2710.23	0.0011341
2719.87	0.0012496
2729.52	0.0012405
2739.16	0.0013009
2748.81	0.001416
2758.45	0.001456
2768.1	0.001496
2777.74	0.001716
2787.39	0.002236
2797.03	0.002636
2806.68	0.003006
2816.32	0.003816
2825.97	0.004876
2835.61	0.006856
2845.26	0.011446
2854.9	0.025266
2864.55	0.039666
2874.19	0.030306
2883.84	0.022706
2893.48	0.020436
2903.12	0.025716
2912.77	0.040046
2922.41	0.069676
2932.06	0.107146
2941.7	0.085696
2951.35	0.050396
2960.99	0.035526
2970.64	0.028836
2980.28	0.015826
2989.93	0.009156
2999.57	0.005956
3009.22	0.004216
3018.86	0.003396
3028.51	0.002746
3038.15	0.002226
3047.8	0.001986
3057.44	0.001746
3067.09	0.001396
3076.73	0.001376
3086.38	0.0012166
3096.02	0.0010581
3105.67	0.001036
3115.31	0.0008375
3124.95	0.0008784
3134.6	0.0008018
3144.24	0.0006152
3153.89	0.000825
3163.53	0.0006129
3173.18	0.000629
3182.82	0.0005016
3192.47	0.0005897
3202.11	0.0004725
3211.76	0.0004694
3221.4	0.000548
3231.05	0.0003104
3240.69	0.000472
3250.34	0.00037847
3259.98	0.0003162
3269.63	0.00043219
3279.27	0.00041516
3288.92	0.00037445
3298.56	0.000479
3308.21	0.000242
3317.85	0.0003145
3327.49	0.000211
3337.14	0.00039404
3346.78	0.0003179
3356.43	0.000285
3366.07	0.0004523
3375.72	0.0003078
3385.36	0.0002699
3395.01	0.0005064
3404.65	0.000147
3414.3	0.0003112
3423.94	0.0002882
3433.59	0.0004471
3443.23	0.00043763
3452.88	0.0003141
3462.52	0.0003159
3472.17	0.000218
3481.81	0.00043392
3491.46	7.4e-05
3501.1	0.0002926
3510.75	0.00040412
3520.39	0.00041565
3530.04	0.0006
3539.68	0.00041245
3549.32	0.0002788
3558.97	0.0005088
3568.61	0.0006268
3578.26	0.000821
3587.9	0.0010266
3597.55	0.0010683
3607.19	0.0007633
3616.84	0.0007845
3626.48	0.0006795
3636.13	0.0007226
3645.77	0.0005
3655.42	0.00043931
3665.06	0.0006638
3674.71	0.0006204
3684.35	0.000205
3694	0.000347344
3703.64	0.0003202
3713.29	0.00042932
3722.93	0.0005189
3732.58	0.000542
3742.22	0.0005122
3751.86	0.00019
3761.51	0.0005571
3771.15	0.0002758
3780.8	0.000348534
3790.44	0.0002726
3800.09	0.000338
3809.73	0.0003131
3819.38	0.0004998
3829.02	0.0004861
3838.67	0.00043945
3848.31	0.00038365
3857.96	0.0002797
3867.6	0.00042528
3877.25	0.00022
3886.89	0.0003235
3896.54	0.0003217
3906.18	0.0005685
3915.83	0.00036983
3925.47	0.0004978
3935.12	0.000349582
3944.76	0.0005007
3954.41	0.000124
3964.05	0.00037214
3973.69	0.0002701
3983.34	0.0003287
3992.98	0.000646
