Infrared Spectrum: Elaidic acid
Formula: C 18 H 34 O 2
CAS: 112-79-8
State: gas
Origin: EPA-IR VAPOR PHASE LIBRARY
1/CM	ABSORBANCE
501.5	0.001429
513.074	0.001759
524.648	0.002149
536.222	0.002589
547.796	0.003289
559.37	0.003889
570.944	0.003899
582.518	0.004009
594.092	0.004459
605.666	0.004539
617.24	0.004399
628.814	0.003899
640.388	0.003009
651.962	0.002249
663.536	0.001809
675.11	0.001579
686.684	0.001599
698.258	0.001669
709.832	0.001959
721.406	0.002239
732.98	0.001869
744.554	0.001509
756.128	0.001319
767.702	0.0010994
779.276	0.0009783
790.85	0.0008063
802.423	0.0007082
813.997	0.000656
825.571	0.0008944
837.145	0.0006995
848.719	0.0007229
860.293	0.0007656
871.867	0.000786
883.441	0.0008524
895.015	0.000905
906.589	0.0008907
918.163	0.0009259
929.737	0.001084
941.311	0.001539
952.885	0.002819
964.459	0.005819
976.033	0.003749
987.607	0.002179
999.181	0.001879
1010.76	0.002009
1022.33	0.002189
1033.9	0.002669
1045.48	0.003309
1057.05	0.004519
1068.63	0.006079
1080.2	0.007859
1091.77	0.009179
1103.35	0.010789
1114.92	0.013189
1126.49	0.013249
1138.07	0.010609
1149.64	0.008319
1161.22	0.006849
1172.79	0.005839
1184.36	0.004959
1195.94	0.004009
1207.51	0.003249
1219.09	0.002959
1230.66	0.002379
1242.23	0.002449
1253.81	0.002459
1265.38	0.002569
1276.96	0.002669
1288.53	0.002719
1300.1	0.002859
1311.68	0.002859
1323.25	0.002809
1334.83	0.003349
1346.4	0.004319
1357.97	0.004659
1369.55	0.004659
1381.12	0.004589
1392.7	0.003399
1404.27	0.002359
1415.84	0.002119
1427.42	0.002679
1438.99	0.004049
1450.57	0.005339
1462.14	0.005729
1473.71	0.003409
1485.29	0.001529
1496.86	0.0009196
1508.44	0.0006083
1520.01	0.0004759
1531.58	0.0003946
1543.16	0.0003256
1554.73	0.0003207
1566.31	0.000301
1577.88	0.00027737
1589.45	0.00026965
1601.03	0.00025448
1612.6	0.00026674
1624.18	0.00025231
1635.75	0.00027719
1647.32	0.0002894
1658.9	0.0003528
1670.47	0.0004588
1682.05	0.000533
1693.62	0.0007431
1705.19	0.0011034
1716.77	0.001799
1728.34	0.003259
1739.92	0.005929
1751.49	0.010289
1763.06	0.017009
1774.64	0.025419
1786.21	0.019969
1797.79	0.011459
1809.36	0.005879
1820.93	0.002679
1832.51	0.001359
1844.08	0.0008217
1855.66	0.0005698
1867.23	0.0004357
1878.8	0.0003448
1890.38	0.0003241
1901.95	0.0002925
1913.53	0.00027614
1925.1	0.00025287
1936.67	0.00025116
1948.25	0.00022385
1959.82	0.00022493
1971.4	0.00021205
1982.97	0.0002073
1994.54	0.00017722
2006.12	0.00020282
2017.69	0.0002113
2029.27	0.0001981
2040.84	0.0002121
2052.41	0.00020293
2063.99	0.000183442
2075.56	0.000188757
2087.14	0.0001689
2098.71	0.00019614
2110.28	0.000178563
2121.86	0.00020388
2133.43	0.00020805
2145.01	0.00020249
2156.58	0.00024405
2168.15	0.00021662
2179.73	0.00023792
2191.3	0.00025072
2202.88	0.00023283
2214.45	0.00025375
2226.02	0.00023691
2237.6	0.00025458
2249.17	0.00023512
2260.74	0.00024101
2272.32	0.00021949
2283.89	0.00020975
2295.47	0.00022112
2307.04	0.00020758
2318.61	0.0002056
2330.19	0.00020436
2341.76	0.0002057
2353.34	0.00020796
2364.91	0.00021475
2376.48	0.00022664
2388.06	0.00021851
2399.63	0.00022537
2411.21	0.00024887
2422.78	0.00023136
2434.35	0.00022446
2445.93	0.00020466
2457.5	0.00019399
2469.08	0.00019996
2480.65	0.00020863
2492.22	0.0002141
2503.8	0.00024749
2515.37	0.00025484
2526.95	0.0002906
2538.52	0.0003051
2550.09	0.0003193
2561.67	0.0002874
2573.24	0.0002853
2584.82	0.0003213
2596.39	0.0003759
2607.96	0.0003959
2619.54	0.0004144
2631.11	0.0004868
2642.69	0.0005313
2654.26	0.0005953
2665.83	0.0006545
2677.41	0.0007237
2688.98	0.0007321
2700.56	0.0006864
2712.13	0.0006549
2723.7	0.0006836
2735.28	0.0007408
2746.85	0.0007864
2758.43	0.0008985
2770	0.0009778
2781.57	0.001209
2793.15	0.001549
2804.72	0.001959
2816.3	0.002629
2827.87	0.003769
2839.44	0.006519
2851.02	0.014089
2862.59	0.024289
2874.17	0.018729
2885.74	0.014619
2897.31	0.015899
2908.89	0.024499
2920.46	0.041769
2932.04	0.065869
2943.61	0.047449
2955.18	0.026879
2966.76	0.020379
2978.33	0.012479
2989.91	0.007509
3001.48	0.005109
3013.05	0.004069
3024.63	0.003349
3036.2	0.002359
3047.78	0.001599
3059.35	0.001179
3070.92	0.0009029
3082.5	0.0007892
3094.07	0.0006873
3105.65	0.000571
3117.22	0.0004679
3128.79	0.0004274
3140.37	0.0003847
3151.94	0.0003223
3163.52	0.0002798
3175.09	0.0003237
3186.66	0.0001891
3198.24	0.00020637
3209.81	0.000182394
3221.39	0.0001256
3232.96	8.7e-05
3244.53	0.0001519
3256.11	9.35e-05
3267.68	8.41e-05
3279.26	7.8e-05
3290.83	0.0001281
3302.4	7.7e-05
3313.98	9.7e-05
3325.55	0.0001027
3337.13	7.7e-05
3348.7	9e-06
3360.27	6.8e-05
3371.85	5.5e-05
3383.42	4.4e-05
3395	6.9e-05
3406.57	6.9e-05
3418.14	4.3e-05
3429.72	3.6e-05
3441.29	5.2e-05
3452.86	0
3464.44	9.62e-05
3476.01	8.54e-05
3487.59	0.0001128
3499.16	0.0001454
3510.73	0.00022543
3522.31	0.0003251
3533.88	0.0005803
3545.46	0.0009625
3557.03	0.002029
3568.6	0.006859
3580.18	0.008029
3591.75	0.001949
3603.33	0.0007223
3614.9	0.0003471
3626.47	0.0003132
3638.05	0.00025298
3649.62	0.000186988
3661.2	0.0001066
3672.77	0.0001299
3684.34	7.8e-05
3695.92	9.83e-05
3707.49	0.0001141
3719.07	8.41e-05
3730.64	7.2e-05
3742.21	3.3e-05
3753.79	9.02e-05
3765.36	0.0001306
3776.94	6.1e-05
3788.51	9.11e-05
3800.08	0.0001592
3811.66	2.7e-05
3823.23	0.0001007
3834.81	0.0001401
3846.38	9.34e-05
3857.95	8.61e-05
3869.53	6.7e-05
3881.1	7e-05
3892.68	3.7e-05
3904.25	0.0001035
3915.82	9.95e-05
3927.4	4.4e-05
3938.97	4e-05
3950.55	0.0001173
3962.12	0.0001616
3973.69	0.000185651
3985.27	0.0001939
3996.84	0.00023879
