Infrared Spectrum: 1-Dodecanol acetate
Formula: C 14 H 28 O 2
CAS: 112-66-3
State: gas
Instrument: HP-GC/MS/IRD
Origin: NIST Mass Spectrometry Data Center
1/CM	ABSORBANCE
550	0.00015
562	1.8e-05
574	7.2e-05
586	0.000336
598	0.000648
610	0.000984
622	0.000966
634	0.001236
646	0.00084
658	0.000342
670	0.000192
682	0.000258
694	0.000402
706	0.000684
718	0.001092
730	0.000996
742	0.000834
754	0.00069
766	0.00066
778	0.000624
790	0.000612
802	0.000666
814	0.000774
826	0.00084
838	0.00093
850	0.001032
862	0.001026
874	0.001074
886	0.001104
898	0.00108
910	0.001056
922	0.001146
934	0.00132
946	0.00147
958	0.00171
970	0.001896
982	0.001962
994	0.002418
1006	0.00408
1018	0.006732
1030	0.00912
1042	0.009846
1054	0.008574
1066	0.007014
1078	0.005784
1090	0.004326
1102	0.002868
1114	0.001932
1126	0.001494
1138	0.001254
1150	0.00123
1162	0.001506
1174	0.002118
1186	0.003456
1198	0.006978
1210	0.016266
1222	0.037884
1234	0.052764
1246	0.02991
1258	0.01494
1270	0.009066
1282	0.005766
1294	0.004182
1306	0.003276
1318	0.002538
1330	0.00228
1342	0.002886
1354	0.005052
1366	0.009912
1378	0.007662
1390	0.00594
1402	0.00339
1414	0.002154
1426	0.002208
1438	0.003114
1450	0.004836
1462	0.006198
1474	0.004524
1486	0.002328
1498	0.001452
1510	0.001068
1522	0.000882
1534	0.00075
1546	0.000618
1558	0.00057
1570	0.000552
1582	0.00051
1594	0.000486
1606	0.000474
1618	0.00048
1630	0.00048
1642	0.000522
1654	0.000552
1666	0.000642
1678	0.00078
1690	0.00108
1702	0.001626
1714	0.00282
1726	0.00516
1738	0.010218
1750	0.020826
1762	0.03138
1774	0.016644
1786	0.007296
1798	0.003276
1810	0.001674
1822	0.000984
1834	0.00066
1846	0.00051
1858	0.000432
1870	0.000378
1882	0.000324
1894	0.000294
1906	0.000252
1918	0.000204
1930	0.000186
1942	0.000186
1954	0.000144
1966	0.00015
1978	0.00018
1990	0.000168
2002	0.000222
2014	0.00021
2026	0.000246
2038	0.00024
2050	0.000252
2062	0.000246
2074	0.00024
2086	0.000228
2098	0.00021
2110	0.000186
2122	0.00018
2134	0.000138
2146	0.00012
2158	9.6e-05
2170	7.8e-05
2182	4.8e-05
2194	5.4e-05
2206	4.8e-05
2218	4.8e-05
2230	1.2e-05
2242	2.4e-05
2254	2.4e-05
2266	1.2e-05
2278	1.8e-05
2290	3.6e-05
2302	3.6e-05
2314	2.4e-05
2326	1.8e-05
2338	1.8e-05
2350	6e-06
2362	0
2374	1.8e-05
2386	3e-05
2398	3e-05
2410	6e-05
2422	5.4e-05
2434	5.4e-05
2446	7.2e-05
2458	0.000102
2470	7.8e-05
2482	6e-05
2494	6e-05
2506	6e-05
2518	7.2e-05
2530	0.00012
2542	9e-05
2554	0.00012
2566	0.000144
2578	0.000156
2590	0.000204
2602	0.000246
2614	0.000294
2626	0.00033
2638	0.000354
2650	0.000426
2662	0.00048
2674	0.000522
2686	0.000588
2698	0.00057
2710	0.000516
2722	0.000582
2734	0.000642
2746	0.000708
2758	0.000708
2770	0.000822
2782	0.001032
2794	0.001326
2806	0.00174
2818	0.002346
2830	0.003438
2842	0.005976
2854	0.01455
2866	0.022308
2878	0.016002
2890	0.013386
2902	0.016722
2914	0.027294
2926	0.050226
2938	0.056772
2950	0.034212
2962	0.024408
2974	0.017844
2986	0.008988
2998	0.004872
3010	0.003072
3022	0.002286
3034	0.001758
3046	0.001434
3058	0.001194
3070	0.001008
3082	0.000846
3094	0.000726
3106	0.000624
3118	0.000504
3130	0.000432
3142	0.000324
3154	0.000312
3166	0.000222
3178	0.000192
3190	0.000198
3202	0.000186
3214	0.000108
3226	4.8e-05
3238	6.6e-05
3250	6.6e-05
3262	4.8e-05
3274	5.4e-05
3286	3.6e-05
3298	4.2e-05
3310	3.6e-05
3322	6e-06
3334	1.8e-05
3346	0
3358	4.2e-05
3370	7.2e-05
3382	4.8e-05
3394	1.8e-05
3406	1.8e-05
3418	3e-05
3430	6e-06
3442	5.4e-05
3454	6.6e-05
3466	9.6e-05
3478	0.000168
3490	0.000258
3502	0.000378
3514	0.000282
3526	0.000138
3538	0.000114
3550	6e-05
3562	1.8e-05
3574	2.4e-05
3586	0
3598	6e-05
3610	3.6e-05
3622	8.4e-05
3634	7.2e-05
3646	7.8e-05
3658	6e-05
3670	4.8e-05
3682	7.2e-05
3694	7.8e-05
3706	7.2e-05
3718	3.6e-05
3730	3.6e-05
3742	4.8e-05
3754	2.4e-05
3766	9.6e-05
3778	7.2e-05
3790	6.6e-05
3802	8.4e-05
3814	9.6e-05
3826	0.000114
3838	6e-05
