Infrared Spectrum: Palmitic chloride
Formula: C 16 H 31 Cl O
CAS: 112-67-4
State: gas
Origin: EPA-IR VAPOR PHASE LIBRARY
1/CM	ABSORBANCE
549.8	0.0033224
559.445	0.0052924
569.09	0.0072124
578.734	0.0072424
588.379	0.0067324
598.024	0.0053824
607.669	0.0036224
617.313	0.0022624
626.958	0.0015924
636.603	0.0017724
646.248	0.0018224
655.893	0.0021924
665.537	0.0030224
675.182	0.0054424
684.827	0.0069724
694.472	0.0055624
704.116	0.0058324
713.761	0.0078124
723.406	0.0089624
733.051	0.0079724
742.695	0.0064424
752.34	0.0051424
761.985	0.0045524
771.63	0.0037124
781.275	0.0033324
790.919	0.0030724
800.564	0.0026924
810.209	0.0026224
819.854	0.0028524
829.498	0.0026124
839.143	0.0029424
848.788	0.0030524
858.433	0.0031224
868.078	0.0033624
877.722	0.0038124
887.367	0.0043324
897.012	0.0049424
906.657	0.0060324
916.301	0.0073824
925.946	0.0088924
935.591	0.0102824
945.236	0.0114224
954.88	0.0122424
964.525	0.0118524
974.17	0.0111824
983.815	0.0106524
993.46	0.0105324
1003.1	0.0100024
1012.75	0.0089024
1022.39	0.0079624
1032.04	0.0069424
1041.68	0.0059924
1051.33	0.0048724
1060.97	0.0042524
1070.62	0.0033824
1080.26	0.0031724
1089.91	0.0029624
1099.55	0.0026224
1109.2	0.0026624
1118.84	0.0026424
1128.49	0.0028124
1138.13	0.0024024
1147.78	0.0021124
1157.42	0.0017824
1167.07	0.0017924
1176.71	0.0018524
1186.36	0.0018624
1196	0.0017524
1205.64	0.0017224
1215.29	0.0016124
1224.93	0.0016924
1234.58	0.0015824
1244.22	0.0019524
1253.87	0.0020024
1263.51	0.0024524
1273.16	0.0024024
1282.8	0.0026124
1292.45	0.0029524
1302.09	0.0031624
1311.74	0.0032324
1321.38	0.0029524
1331.03	0.0032724
1340.67	0.0042524
1350.32	0.0050224
1359.96	0.0046324
1369.61	0.0037424
1379.25	0.0029024
1388.9	0.0024324
1398.54	0.0021924
1408.18	0.0028124
1417.83	0.0034424
1427.47	0.0036624
1437.12	0.0044724
1446.76	0.0071224
1456.41	0.0104524
1466.05	0.0103024
1475.7	0.0055024
1485.34	0.0024524
1494.99	0.0013624
1504.63	0.0008783
1514.28	0.0005728
1523.92	0.0004106
1533.57	0.0003008
1543.21	0.0002849
1552.86	0.0001966
1562.5	0.000229
1572.15	0.0002672
1581.79	0.000264
1591.44	0.000264
1601.08	0.0003196
1610.73	0.0003047
1620.37	0.0004432
1630.01	0.0004488
1639.66	0.0005595
1649.3	0.0005122
1658.95	0.0005916
1668.59	0.0007057
1678.24	0.0007134
1687.88	0.0008159
1697.53	0.0008222
1707.17	0.0009761
1716.82	0.0011424
1726.46	0.0013024
1736.11	0.0016724
1745.75	0.0023424
1755.4	0.0034724
1765.04	0.0055424
1774.69	0.0093324
1784.33	0.0164924
1793.98	0.0292424
1803.62	0.0447424
1813.27	0.0453624
1822.91	0.0290524
1832.55	0.0159724
1842.2	0.0087524
1851.84	0.0052624
1861.49	0.0035724
1871.13	0.0026524
1880.78	0.0021124
1890.42	0.0017324
1900.07	0.0014924
1909.71	0.0013124
1919.36	0.0011224
1929	0.0010409
1938.65	0.0009307
1948.29	0.0008397
1957.94	0.0007449
1967.58	0.000709
1977.23	0.0006574
1986.87	0.0006273
1996.52	0.0006128
2006.16	0.0006192
2015.81	0.0005957
2025.45	0.0006279
2035.1	0.000641
2044.74	0.0006598
2054.38	0.0006019
2064.03	0.0006691
2073.67	0.0007216
2083.32	0.0009034
2092.96	0.0012724
2102.61	0.0019624
2112.25	0.0031424
2121.9	0.0043124
2131.54	0.0033524
2141.19	0.0018024
2150.83	0.0010724
2160.48	0.0006827
2170.12	0.0006192
2179.77	0.0005091
2189.41	0.0004864
2199.06	0.000454
2208.7	0.0005206
2218.35	0.0005568
2227.99	0.0005175
2237.64	0.0006298
2247.28	0.0005722
2256.92	0.0005686
2266.57	0.000499
2276.21	0.0005616
2285.86	0.0005372
2295.5	0.0005689
2305.15	0.0005248
2314.79	0.0005759
2324.44	0.0005603
2334.08	0.000582
2343.73	0.0005079
2353.37	0.0005319
2363.02	0.0005394
2372.66	0.0005282
2382.31	0.0004999
2391.95	0.000528
2401.6	0.0005541
2411.24	0.000531
2420.89	0.0004907
2430.53	0.0005069
2440.18	0.0005011
2449.82	0.0004351
2459.47	0.0005209
2469.11	0.0004669
2478.75	0.0005077
2488.4	0.000506
2498.04	0.0006303
2507.69	0.0005789
2517.33	0.0006759
2526.98	0.0006925
2536.62	0.0006224
2546.27	0.0007678
2555.91	0.0007275
2565.56	0.0008032
2575.2	0.0008341
2584.85	0.0007731
2594.49	0.0009095
2604.14	0.000908
2613.78	0.0010091
2623.43	0.0011224
2633.07	0.0011524
2642.72	0.0013524
2652.36	0.0013824
2662.01	0.0014724
2671.65	0.0017024
2681.29	0.0016724
2690.94	0.0016924
2700.58	0.0016724
2710.23	0.0015424
2719.87	0.0015424
2729.52	0.0016924
2739.16	0.0017024
2748.81	0.0019524
2758.45	0.0018824
2768.1	0.0021824
2777.74	0.0023124
2787.39	0.0027224
2797.03	0.0033824
2806.68	0.0039024
2816.32	0.0050024
2825.97	0.0063024
2835.61	0.0088324
2845.26	0.0148524
2854.9	0.0335824
2864.55	0.0526224
2874.19	0.0378724
2883.84	0.0278124
2893.48	0.0255324
2903.12	0.0331624
2912.77	0.0518624
2922.41	0.0909624
2932.06	0.142372
2941.7	0.109752
2951.35	0.0612624
2960.99	0.0412924
2970.64	0.0327524
2980.28	0.0180924
2989.93	0.0105124
2999.57	0.0069824
3009.22	0.0051324
3018.86	0.0039724
3028.51	0.0031324
3038.15	0.0026324
3047.8	0.0022724
3057.44	0.0018924
3067.09	0.0016324
3076.73	0.0015124
3086.38	0.0013324
3096.02	0.0012324
3105.67	0.0010424
3115.31	0.0010524
3124.95	0.0010524
3134.6	0.0009283
3144.24	0.0009611
3153.89	0.0007798
3163.53	0.0007658
3173.18	0.0007963
3182.82	0.0007381
3192.47	0.0006686
3202.11	0.0007101
3211.76	0.0006291
3221.4	0.0004164
3231.05	0.0005735
3240.69	0.0005645
3250.34	0.0004199
3259.98	0.0002529
3269.63	0.0005005
3279.27	0.0003997
3288.92	0.0004839
3298.56	0.0005278
3308.21	0.0005175
3317.85	0.0003365
3327.49	0.0003528
3337.14	0.0003214
3346.78	0.0003607
3356.43	0.0003503
3366.07	0.0002491
3375.72	0.0003003
3385.36	0.0004265
3395.01	0.0003116
3404.65	0.00012691
3414.3	0.0001865
3423.94	0.000194
3433.59	0.0002149
3443.23	0.0002819
3452.88	0.0001727
3462.52	0.0002312
3472.17	0.0001597
3481.81	0.0002416
3491.46	0.00012401
3501.1	0.0002412
3510.75	0.0002803
3520.39	0.00013072
3530.04	5.251e-05
3539.68	0.0002873
3549.32	0.0002732
3558.97	0.000384
3568.61	0.0006813
3578.26	0.000634
3587.9	0.0009245
3597.55	0.0009296
3607.19	0.0009424
3616.84	0.0006105
3626.48	0.0007823
3636.13	0.0005468
3645.77	0.0003776
3655.42	0.0004274
3665.06	0.0004611
3674.71	0.000356
3684.35	0.0004504
3694	0.0003289
3703.64	0.0003523
3713.29	0.0003213
3722.93	0.0002646
3732.58	0.0003178
3742.22	0.000322
3751.86	0.0003503
3761.51	0.0002744
3771.15	0.0002299
3780.8	0.0003745
3790.44	0.0003227
3800.09	0.0002393
3809.73	0.0002653
3819.38	0.0003053
3829.02	0.0003149
3838.67	0.0002955
3848.31	0.000314
3857.96	0.0003967
3867.6	0.0002482
3877.25	0.0002495
3886.89	0.0002888
3896.54	0.0004165
3906.18	0.0002834
3915.83	0.0003885
3925.47	0.0004598
3935.12	0.0005308
3944.76	0.0005549
3954.41	0.0004438
3964.05	0.0002901
3973.69	0.0002794
3983.34	0.0003784
3992.98	0.000282
