Infrared Spectrum: Heptyl formate
Formula: C 8 H 16 O 2
CAS: 112-23-2
State: gas
Origin: EPA-IR VAPOR PHASE LIBRARY
1/CM	ABSORBANCE
501.5	0.0005194
513.074	0.0007534
524.648	0.0006627
536.222	0.0006938
547.796	0.0002867
559.37	0.0003436
570.944	7.9e-05
582.518	0.000173
594.092	8.1e-05
605.666	0.000174
617.24	0.000174
628.814	0.000153
640.388	0.00015
651.962	9.8e-05
663.536	0.0002802
675.11	0.0002804
686.684	0.00039774
698.258	0.0007481
709.832	0.001408
721.406	0.002068
732.98	0.002108
744.554	0.002098
756.128	0.002148
767.702	0.002008
779.276	0.001698
790.85	0.001458
802.423	0.0010778
813.997	0.0012232
825.571	0.001468
837.145	0.002088
848.719	0.002478
860.293	0.002428
871.867	0.002348
883.441	0.002538
895.015	0.003098
906.589	0.003898
918.163	0.004618
929.737	0.004248
941.311	0.003598
952.885	0.002938
964.459	0.002218
976.033	0.001948
987.607	0.002348
999.181	0.002698
1010.76	0.002938
1022.33	0.003128
1033.9	0.003018
1045.48	0.003248
1057.05	0.003458
1068.63	0.003528
1080.2	0.003828
1091.77	0.004868
1103.35	0.007238
1114.92	0.011648
1126.49	0.019288
1138.07	0.035948
1149.64	0.073018
1161.22	0.131198
1172.79	0.135868
1184.36	0.085398
1195.94	0.040168
1207.51	0.021038
1219.09	0.013468
1230.66	0.009738
1242.23	0.007808
1253.81	0.007058
1265.38	0.006578
1276.96	0.005828
1288.53	0.005498
1300.1	0.005058
1311.68	0.004218
1323.25	0.003368
1334.83	0.003088
1346.4	0.003278
1357.97	0.003498
1369.55	0.004028
1381.12	0.004658
1392.7	0.003428
1404.27	0.002298
1415.84	0.002238
1427.42	0.002948
1438.99	0.004748
1450.57	0.007548
1462.14	0.010378
1473.71	0.009218
1485.29	0.004958
1496.86	0.002568
1508.44	0.001688
1520.01	0.0013209
1531.58	0.0011405
1543.16	0.0010128
1554.73	0.0009007
1566.31	0.0008615
1577.88	0.0008152
1589.45	0.0008115
1601.03	0.0008173
1612.6	0.0008226
1624.18	0.0009174
1635.75	0.0010243
1647.32	0.001204
1658.9	0.001568
1670.47	0.002168
1682.05	0.003388
1693.62	0.005878
1705.19	0.011438
1716.77	0.022378
1728.34	0.046308
1739.92	0.102068
1751.49	0.123228
1763.06	0.053758
1774.64	0.025718
1786.21	0.016418
1797.79	0.006338
1809.36	0.002978
1820.93	0.001828
1832.51	0.0012828
1844.08	0.0009869
1855.66	0.000844
1867.23	0.0007596
1878.8	0.0007297
1890.38	0.0007285
1901.95	0.0008023
1913.53	0.0008806
1925.1	0.0008452
1936.67	0.0008596
1948.25	0.0008421
1959.82	0.0008334
1971.4	0.0008099
1982.97	0.0007763
1994.54	0.0007761
2006.12	0.0008523
2017.69	0.0009089
2029.27	0.0009399
2040.84	0.0010022
2052.41	0.0009853
2063.99	0.0010323
2075.56	0.0009764
2087.14	0.000947
2098.71	0.0008878
2110.28	0.0007603
2121.86	0.0006732
2133.43	0.000625
2145.01	0.0005681
2156.58	0.0005083
2168.15	0.0005271
2179.73	0.0005148
2191.3	0.0005101
2202.88	0.00046204
2214.45	0.00045807
2226.02	0.00043563
2237.6	0.00044134
2249.17	0.000492
2260.74	0.0005321
2272.32	0.0006047
2283.89	0.0007149
2295.47	0.0009269
2307.04	0.0011181
2318.61	0.0012206
2330.19	0.0012216
2341.76	0.0011232
2353.34	0.0009314
2364.91	0.0007165
2376.48	0.0006321
2388.06	0.0005783
2399.63	0.0005354
2411.21	0.0005156
2422.78	0.00047404
2434.35	0.00043169
2445.93	0.00043572
2457.5	0.00041209
2469.08	0.0003371
2480.65	0.00042112
2492.22	0.0004918
2503.8	0.0004816
2515.37	0.0004961
2526.95	0.0005005
2538.52	0.0005063
2550.09	0.0005234
2561.67	0.0005192
2573.24	0.0005522
2584.82	0.0005819
2596.39	0.0006506
2607.96	0.0006218
2619.54	0.000676
2631.11	0.0007218
2642.69	0.0008477
2654.26	0.0008915
2665.83	0.0010221
2677.41	0.0011025
2688.98	0.0012001
2700.56	0.0012614
2712.13	0.001478
2723.7	0.001838
2735.28	0.001808
2746.85	0.001748
2758.43	0.001718
2770	0.001798
2781.57	0.001938
2793.15	0.002448
2804.72	0.002988
2816.3	0.003908
2827.87	0.005428
2839.44	0.008458
2851.02	0.016018
2862.59	0.027418
2874.17	0.031648
2885.74	0.030428
2897.31	0.031618
2908.89	0.043948
2920.46	0.069258
2932.04	0.090368
2943.61	0.079568
2955.18	0.060588
2966.76	0.056508
2978.33	0.039568
2989.91	0.020098
3001.48	0.010728
3013.05	0.006418
3024.63	0.004418
3036.2	0.003338
3047.78	0.002528
3059.35	0.002038
3070.92	0.001758
3082.5	0.001578
3094.07	0.001488
3105.65	0.001538
3117.22	0.001688
3128.79	0.0013737
3140.37	0.0010345
3151.94	0.0008926
3163.52	0.0007888
3175.09	0.0007982
3186.66	0.000712
3198.24	0.0006603
3209.81	0.0005805
3221.39	0.0005557
3232.96	0.00044427
3244.53	0.00041263
3256.11	0.0003334
3267.68	0.0003549
3279.26	0.00043991
3290.83	0.0003104
3302.4	0.000262
3313.98	0.0003373
3325.55	0.00025
3337.13	0.0003023
3348.7	0.000205
3360.27	0.00024
3371.85	0.000278
3383.42	0.0003451
3395	0.00037384
3406.57	0.0003315
3418.14	0.000378914
3429.72	0.0005625
3441.29	0.000604
3452.86	0.0008907
3464.44	0.0012535
3476.01	0.001638
3487.59	0.0013267
3499.16	0.000775
3510.73	0.0005563
3522.31	0.00044216
3533.88	0.000381499
3545.46	0.00039805
3557.03	0.0003255
3568.6	0.000274
3580.18	0.000256
3591.75	0.0003055
3603.33	0.00025
3614.9	0.000274
3626.47	0.0003489
3638.05	0.0003353
3649.62	0.000381579
3661.2	0.0003637
3672.77	0.00042745
3684.34	0.00040084
3695.92	0.00039664
3707.49	0.00037295
3719.07	0.00042111
3730.64	0.00044027
3742.21	0.0003418
3753.79	0.00043955
3765.36	0.0003238
3776.94	0.0004403
3788.51	0.0004017
3800.08	0.00041893
3811.66	0.0003615
3823.23	0.00041333
3834.81	0.00046559
3846.38	0.0003379
3857.95	0.0004358
3869.53	0.00043902
3881.1	0.00038988
3892.68	0.000382879
3904.25	0.000493
3915.82	0.00046368
3927.4	0.00041781
3938.97	0.00040995
3950.55	0.00041656
3962.12	0.00041973
3973.69	0.0005206
3985.27	0.0005101
3996.84	0.0005534
