Infrared Spectrum: 10-Undecen-1-ol
Formula: C 11 H 22 O
CAS: 112-43-6
State: gas
Instrument: HP-GC/MS/IRD
Origin: NIST Mass Spectrometry Data Center
1/CM	ABSORBANCE
550	0.000309
562	5.7e-05
574	0.000198
586	0.000183
598	0.000129
610	0.000132
622	0.000264
634	0.000261
646	0.000153
658	1.8e-05
670	8.1e-05
682	0.000156
694	0.000156
706	0.000177
718	0.000297
730	0.000282
742	0.000207
754	0.00018
766	8.4e-05
778	0.000123
790	0.000111
802	7.2e-05
814	0.000183
826	0.000216
838	0.000264
850	0.000411
862	0.000528
874	0.00075
886	0.000978
898	0.001671
910	0.003183
922	0.002529
934	0.001551
946	0.001326
958	0.001332
970	0.001548
982	0.002082
994	0.002832
1006	0.002883
1018	0.003387
1030	0.004236
1042	0.00462
1054	0.004257
1066	0.003201
1078	0.002169
1090	0.001407
1102	0.000924
1114	0.000588
1126	0.000456
1138	0.00036
1150	0.000387
1162	0.000405
1174	0.000459
1186	0.00051
1198	0.00054
1210	0.000624
1222	0.000696
1234	0.000642
1246	0.000657
1258	0.000723
1270	0.000825
1282	0.000771
1294	0.000888
1306	0.000879
1318	0.000972
1330	0.000858
1342	0.001332
1354	0.001335
1366	0.001365
1378	0.001413
1390	0.001542
1402	0.001158
1414	0.001044
1426	0.001023
1438	0.001671
1450	0.002076
1462	0.002202
1474	0.001695
1486	0.000846
1498	0.000522
1510	0.001032
1522	0.000693
1534	0.000384
1546	0.000501
1558	0.000606
1570	0.00012
1582	6e-06
1594	6e-06
1606	0.000126
1618	0.000417
1630	0.000798
1642	0.00132
1654	0.000942
1666	0.000351
1678	0.000366
1690	0.000255
1702	0.000498
1714	0.000465
1726	0.000183
1738	0.000426
1750	0.000561
1762	0.000294
1774	0.000273
1786	0.000285
1798	0.000279
1810	0.000216
1822	0.000381
1834	0.000369
1846	0.000384
1858	0.000102
1870	0.000183
1882	6e-05
1894	8.4e-05
1906	3.6e-05
1918	0.000147
1930	2.1e-05
1942	0.000114
1954	4.2e-05
1966	8.7e-05
1978	6.3e-05
1990	0.000129
2002	4.5e-05
2014	6.6e-05
2026	4.8e-05
2038	6e-05
2050	6e-05
2062	7.8e-05
2074	6e-05
2086	4.8e-05
2098	2.1e-05
2110	1.5e-05
2122	3e-05
2134	4.2e-05
2146	2.7e-05
2158	4.2e-05
2170	3.3e-05
2182	9e-06
2194	3.9e-05
2206	1.5e-05
2218	2.1e-05
2230	1.5e-05
2242	2.1e-05
2254	2.1e-05
2266	5.4e-05
2278	4.5e-05
2290	9.9e-05
2302	0.00012
2314	0.00018
2326	0.000186
2338	0.000189
2350	0.000156
2362	0.000201
2374	0.000192
2386	7.8e-05
2398	5.7e-05
2410	1.8e-05
2422	3.3e-05
2434	4.5e-05
2446	3e-05
2458	5.1e-05
2470	4.5e-05
2482	5.1e-05
2494	4.2e-05
2506	4.8e-05
2518	8.1e-05
2530	8.4e-05
2542	9.3e-05
2554	7.8e-05
2566	7.2e-05
2578	0.000105
2590	9e-05
2602	0.000123
2614	0.000135
2626	0.000162
2638	0.000201
2650	0.000252
2662	0.000267
2674	0.000312
2686	0.000345
2698	0.000378
2710	0.000399
2722	0.000402
2734	0.000408
2746	0.000456
2758	0.00054
2770	0.000615
2782	0.000708
2794	0.000852
2806	0.001086
2818	0.001416
2830	0.002076
2842	0.003645
2854	0.007743
2866	0.011097
2878	0.008862
2890	0.007461
2902	0.009246
2914	0.014556
2926	0.025038
2938	0.028827
2950	0.016194
2962	0.00765
2974	0.004455
2986	0.00312
2998	0.002334
3010	0.001917
3022	0.001221
3034	0.000897
3046	0.000795
3058	0.000912
3070	0.001233
3082	0.001935
3094	0.00138
3106	0.000576
3118	0.000357
3130	0.000237
3142	0.000207
3154	0.000168
3166	0.000156
3178	0.000102
3190	0.000105
3202	0.000111
3214	6.9e-05
3226	6e-05
3238	7.5e-05
3250	5.1e-05
3262	5.1e-05
3274	5.7e-05
3286	7.2e-05
3298	1.8e-05
3310	3.6e-05
3322	5.4e-05
3334	3.9e-05
3346	2.7e-05
3358	6.3e-05
3370	1.5e-05
3382	5.1e-05
3394	5.1e-05
3406	6.3e-05
3418	8.1e-05
3430	6.6e-05
3442	9e-05
3454	6.3e-05
3466	8.4e-05
3478	0.000132
3490	0.000126
3502	0.000231
3514	4.5e-05
3526	0.000234
3538	8.1e-05
3550	0.000171
3562	0.000237
3574	8.4e-05
3586	0.000462
3598	0.000156
3610	0.000447
3622	0.000327
3634	0.000366
3646	0.000726
3658	0.001032
3670	0.001431
3682	0.000747
3694	0.000399
3706	0.000225
3718	0.000225
3730	0.000309
3742	0.000414
3754	0.000267
3766	6.6e-05
3778	0
3790	0
3802	0.00012
3814	6.6e-05
3826	2.4e-05
3838	0.000249
