Infrared Spectrum: NATURAL METHYL LINOLEATE
Formula: C19 H34 O2
CAS: 112-63-0
State: SOLUTION (10% CS2 FOR 5000-2380 AND 1390-625, 10% C2Cl4 FOR 2380-1390 CM^-^1)
Class: COBLENTZ
Instrument: PERKIN-ELMER
Sampling: TRANSMISSION
Path length: 0.01 CM, 0.01 CM
Resolution: 4
Origin: HORMEL INSTITUTE
MICROMETERS	TRANSMITTANCE
2.02	0.861
2.0606	0.864
2.10121	0.864
2.14181	0.861
2.18242	0.864
2.22302	0.862
2.26363	0.856
2.30423	0.84
2.34484	0.839
2.38544	0.837
2.42605	0.837
2.46665	0.847
2.50726	0.849
2.54786	0.852
2.58847	0.852
2.62907	0.857
2.66968	0.857
2.71028	0.861
2.75089	0.862
2.79149	0.861
2.8321	0.861
2.8727	0.859
2.91331	0.852
2.95391	0.854
2.99452	0.852
3.03512	0.852
3.07573	0.856
3.11633	0.854
3.15694	0.851
3.19754	0.849
3.23815	0.829
3.27875	0.78
3.31936	0.472
3.35996	0.423
3.40057	0.162
3.44117	0.06
3.48178	0.265
3.52238	0.257
3.56299	0.649
3.60359	0.793
3.6442	0.817
3.6848	0.829
3.72541	0.834
3.76601	0.835
3.80662	0.839
3.84722	0.847
3.88783	0.851
3.92843	0.856
3.96904	0.861
4.00964	0.862
4.05025	0.866
4.09085	0.866
4.13146	0.866
4.17206	0.871
4.21267	0.876
4.25327	0.881
4.29388	0.89
4.33448	0.886
4.37509	0.881
4.41569	0.879
4.4563	0.881
4.4969	0.879
4.53751	0.879
4.57811	0.879
4.61872	0.878
4.65932	0.878
4.69993	0.879
4.74053	0.879
4.78114	0.876
4.82174	0.873
4.86235	0.869
4.90295	0.869
4.94356	0.873
4.98416	0.869
5.02477	0.871
5.06537	0.873
5.10598	0.874
5.14658	0.874
5.18719	0.876
5.22779	0.876
5.2684	0.876
5.309	0.876
5.34961	0.873
5.39021	0.874
5.43082	0.866
5.47142	0.862
5.51203	0.852
5.55263	0.83
5.59324	0.786
5.63384	0.681
5.67445	0.384
5.71505	0.05
5.75566	0.189
5.79626	0.434
5.83687	0.688
5.87747	0.739
5.91808	0.791
5.95868	0.808
5.99929	0.791
6.03989	0.793
6.0805	0.83
6.1211	0.842
6.16171	0.847
6.20231	0.851
6.24292	0.851
6.28352	0.852
6.32413	0.852
6.36473	0.851
6.40534	0.851
6.44594	0.847
6.48655	0.849
6.52715	0.852
6.56776	0.852
6.60836	0.852
6.64897	0.827
6.68957	0.803
6.73018	0.756
6.77078	0.527
6.81139	0.34
6.85199	0.368
6.8926	0.406
6.9332	0.314
6.97381	0.465
7.01441	0.595
7.05502	0.681
7.09562	0.705
7.13623	0.673
7.17683	0.72
7.21744	0.607
7.25804	0.544
7.29865	0.51
7.33925	0.49
7.37986	0.521
7.42046	0.563
7.46107	0.602
7.50167	0.607
7.54228	0.578
7.58288	0.573
7.62349	0.576
7.66409	0.571
7.7047	0.573
7.7453	0.561
7.78591	0.516
7.82651	0.49
7.86712	0.473
7.90772	0.451
7.94833	0.417
7.98893	0.375
8.02954	0.36
8.07014	0.379
8.11075	0.414
8.15135	0.428
8.19196	0.416
8.23256	0.389
8.27317	0.341
8.31377	0.282
8.35438	0.258
8.39498	0.294
8.43559	0.34
8.47619	0.27
8.5168	0.225
8.5574	0.231
8.59801	0.299
8.63861	0.377
8.67922	0.446
8.71982	0.489
8.76043	0.522
8.80103	0.556
8.84164	0.588
8.88224	0.604
8.92285	0.615
8.96345	0.639
9.00406	0.632
9.04466	0.605
9.08527	0.604
9.12587	0.619
9.16648	0.644
9.20708	0.668
9.24769	0.683
9.28829	0.705
9.3289	0.724
9.3695	0.729
9.41011	0.722
9.45071	0.719
9.49132	0.712
9.53192	0.714
9.57253	0.71
9.61313	0.703
9.65374	0.702
9.69434	0.686
9.73495	0.668
9.77555	0.654
9.81616	0.649
9.85676	0.654
9.89737	0.67
9.93797	0.692
9.97858	0.703
10.0192	0.712
10.0598	0.712
10.1004	0.712
10.141	0.715
10.1816	0.725
10.2222	0.734
10.2628	0.737
10.3034	0.737
10.344	0.739
10.3846	0.744
10.4252	0.754
10.4658	0.764
10.5064	0.771
10.547	0.773
10.5877	0.778
10.6283	0.785
10.6689	0.783
10.7095	0.786
10.7501	0.781
10.7907	0.776
10.8313	0.764
10.8719	0.746
10.9125	0.732
10.9531	0.727
10.9937	0.732
11.0343	0.744
11.0749	0.754
11.1155	0.764
11.1561	0.771
11.1967	0.771
11.2373	0.766
11.2779	0.763
11.3185	0.751
11.3591	0.742
11.3998	0.742
11.4404	0.744
11.481	0.744
11.5216	0.744
11.5622	0.744
11.6028	0.742
11.6434	0.742
11.684	0.742
11.7246	0.746
11.7652	0.746
11.8058	0.742
11.8464	0.739
11.887	0.734
11.9276	0.739
11.9682	0.742
12.0088	0.747
12.0494	0.752
12.09	0.761
12.1306	0.771
12.1712	0.78
12.2119	0.785
12.2525	0.79
12.2931	0.793
12.3337	0.793
12.3743	0.793
12.4149	0.793
12.4555	0.793
12.4961	0.793
12.5367	0.793
12.5773	0.79
12.6179	0.788
12.6585	0.783
12.6991	0.78
12.7397	0.771
12.7803	0.768
12.8209	0.764
12.8615	0.754
12.9021	0.751
12.9427	0.742
12.9833	0.737
13.024	0.736
13.0646	0.725
13.1052	0.72
13.1458	0.714
13.1864	0.702
13.227	0.693
13.2676	0.693
13.3082	0.683
13.3488	0.67
13.3894	0.653
13.43	0.636
13.4706	0.614
13.5112	0.592
13.5518	0.566
13.5924	0.541
13.633	0.507
13.6736	0.492
13.7142	0.472
13.7548	0.458
13.7954	0.45
13.8361	0.439
13.8767	0.434
13.9173	0.446
13.9579	0.453
13.9985	0.465
14.0391	0.472
14.0797	0.473
14.1203	0.478
14.1609	0.487
14.2015	0.489
14.2421	0.492
14.2827	0.5
14.3233	0.502
14.3639	0.504
14.4045	0.505
14.4451	0.514
14.4857	0.517
14.5263	0.522
14.5669	0.529
14.6075	0.531
14.6482	0.531
14.6888	0.534
14.7294	0.541
14.77	0.546
14.8106	0.551
14.8512	0.554
14.8918	0.56
14.9324	0.563
14.973	0.592
15.0136	0.6
15.0542	0.6
15.0948	0.6
15.1354	0.6
15.176	0.6
15.2166	0.6
15.2572	0.6
15.2978	0.6
15.3384	0.6
15.379	0.6
15.4196	0.6
15.4603	0.6
15.5009	0.6
15.5415	0.6
