Infrared Spectrum: Decanal
Formula: C 10 H 20 O
CAS: 112-31-2
State: gas
Instrument: HP-GC/MS/IRD
Origin: NIST Mass Spectrometry Data Center
1/CM	ABSORBANCE
550	0.0003388
562	0.0002632
574	0.0001792
586	0.0001344
598	0.0001316
610	7e-05
622	0.0001232
634	0.000126
646	0.0002296
658	0.0002212
670	0.0003192
682	0.0002688
694	0.0003416
706	0.0004312
718	0.0005572
730	0.0005348
742	0.0005236
754	0.0004116
766	0.0003892
778	0.0003108
790	0.0003668
802	0.0003808
814	0.0003668
826	0.0003416
838	0.0004284
850	0.0004228
862	0.000476
874	0.0004452
886	0.000434
898	0.0004536
910	0.0004396
922	0.0004284
934	0.000448
946	0.0004312
958	0.0004788
970	0.000532
982	0.0006636
994	0.0007756
1006	0.0007924
1018	0.0007196
1030	0.0006804
1042	0.0007
1054	0.0006888
1066	0.000602
1078	0.0005684
1090	0.0005572
1102	0.000532
1114	0.0004648
1126	0.0004676
1138	0.000462
1150	0.0003808
1162	0.000406
1174	0.0004172
1186	0.0003864
1198	0.0003696
1210	0.0003612
1222	0.0002772
1234	0.0003192
1246	0.0003584
1258	0.000378
1270	0.0004508
1282	0.000518
1294	0.0005908
1306	0.0006608
1318	0.0006944
1330	0.000784
1342	0.0010808
1354	0.0012516
1366	0.0011032
1378	0.0011256
1390	0.001302
1402	0.0010248
1414	0.0011816
1426	0.0012712
1438	0.0013552
1450	0.0020412
1462	0.0025704
1474	0.0017556
1486	0.0008372
1498	0.0004788
1510	0.0003304
1522	0.0002072
1534	0.0001848
1546	0.000154
1558	0.0001344
1570	0.0001344
1582	0.0001456
1594	0.0001288
1606	0.0001568
1618	0.0001372
1630	0.0001792
1642	0.000224
1654	0.000308
1666	0.0004536
1678	0.0007056
1690	0.0011256
1702	0.0018172
1714	0.003038
1726	0.0058268
1738	0.01113
1750	0.0093212
1762	0.0046228
1774	0.0024948
1786	0.0014672
1798	0.00091
1810	0.0005824
1822	0.000364
1834	0.0002772
1846	0.0002184
1858	0.000182
1870	0.0001148
1882	9.8e-05
1894	9.8e-05
1906	8.12e-05
1918	6.16e-05
1930	5.04e-05
1942	6.44e-05
1954	5.6e-05
1966	6.16e-05
1978	3.36e-05
1990	6.44e-05
2002	6.44e-05
2014	5.32e-05
2026	5.32e-05
2038	6.44e-05
2050	6.44e-05
2062	5.6e-05
2074	4.76e-05
2086	2.24e-05
2098	4.2e-05
2110	4.76e-05
2122	4.2e-05
2134	6.16e-05
2146	4.2e-05
2158	5.32e-05
2170	3.92e-05
2182	2.8e-05
2194	4.48e-05
2206	5.04e-05
2218	5.32e-05
2230	3.36e-05
2242	4.2e-05
2254	6.16e-05
2266	5.88e-05
2278	6.16e-05
2290	6.16e-05
2302	4.48e-05
2314	5.88e-05
2326	6.44e-05
2338	6.44e-05
2350	3.36e-05
2362	5.88e-05
2374	6.16e-05
2386	3.64e-05
2398	3.92e-05
2410	4.2e-05
2422	5.04e-05
2434	5.6e-06
2446	5.04e-05
2458	3.08e-05
2470	5.88e-05
2482	3.36e-05
2494	3.08e-05
2506	7.84e-05
2518	4.48e-05
2530	8.68e-05
2542	9.8e-05
2554	0.000112
2566	0.0001316
2578	0.0002072
2590	0.0002492
2602	0.0003332
2614	0.000378
2626	0.000462
2638	0.0006328
2650	0.0008288
2662	0.001078
2674	0.0014224
2686	0.002072
2698	0.003262
2710	0.004816
2722	0.0033628
2734	0.0022988
2746	0.0019404
2758	0.00175
2770	0.0017304
2782	0.0020244
2794	0.00273
2806	0.0036708
2818	0.003654
2830	0.00322
2842	0.0039844
2854	0.007462
2866	0.0109648
2878	0.0095452
2890	0.008274
2902	0.0093016
2914	0.0138852
2926	0.023842
2938	0.0272692
2950	0.018396
2962	0.0126812
2974	0.0090692
2986	0.0040964
2998	0.0022652
3010	0.00147
3022	0.0010724
3034	0.0008428
3046	0.0006048
3058	0.0005516
3070	0.0004452
3082	0.0003864
3094	0.00035
3106	0.0003304
3118	0.0003052
3130	0.0002632
3142	0.000266
3154	0.0002072
3166	0.0002324
3178	0.000154
3190	0.0002072
3202	0.0002016
3214	6.44e-05
3226	0.0001008
3238	7.28e-05
3250	7.56e-05
3262	8.96e-05
3274	0.0001064
3286	4.2e-05
3298	0
3310	8.68e-05
3322	5.32e-05
3334	3.36e-05
3346	0.000126
3358	8.68e-05
3370	1.4e-05
3382	8.12e-05
3394	7e-05
3406	0.0001484
3418	0.0001176
3430	0.0001848
3442	0.0002408
3454	0.000266
3466	0.0003472
3478	0.0002296
3490	0.0001764
3502	0.0001204
3514	9.52e-05
3526	7.84e-05
3538	5.32e-05
3550	9.8e-05
3562	8.4e-05
3574	8.68e-05
3586	9.24e-05
3598	8.96e-05
3610	0.0001064
3622	8.68e-05
3634	8.68e-05
3646	0.0001092
3658	0.0001456
3670	0.0001176
3682	0.0001596
3694	0.0001176
3706	9.8e-05
3718	0.0001316
3730	0.0001092
3742	7e-05
3754	9.8e-05
3766	0.0001232
3778	0
3790	0.0001008
3802	0.0001204
3814	8.12e-05
3826	0.0001008
3838	0.0001568
