Infrared Spectrum: 1-Bromohexadecane
Formula: C 16 H 33 Br
CAS: 112-82-3
State: gas
Instrument: HP-GC/MS/IRD
Origin: NIST Mass Spectrometry Data Center
1/CM	ABSORBANCE
550	0.0005676
562	0.00066
574	0.0006534
586	0.0001914
598	5.28e-05
610	6.6e-06
622	0.0002178
634	0.0004884
646	0.0010428
658	0.0007788
670	0.0002904
682	0.0001782
694	0.0004158
706	0.000792
718	0.001188
730	0.001122
742	0.0008976
754	0.000726
766	0.0006402
778	0.0004818
790	0.0004686
802	0.000363
814	0.000363
826	0.0003102
838	0.0002904
850	0.0003036
862	0.000297
874	0.000363
886	0.0003696
898	0.000363
910	0.0003036
922	0.0002574
934	0.0002442
946	0.000231
958	0.0002376
970	0.0002376
982	0.000297
994	0.0003498
1006	0.0003762
1018	0.0003894
1030	0.0003696
1042	0.0003432
1054	0.0002838
1066	0.0002178
1078	0.0002046
1090	0.000132
1102	0.0001254
1114	8.58e-05
1126	0.0001518
1138	0.0001386
1150	0.0001848
1162	0.000198
1174	0.0002574
1186	0.0004092
1198	0.000693
1210	0.0011814
1222	0.0016302
1234	0.001749
1246	0.0020658
1258	0.0023496
1270	0.0021384
1282	0.0018084
1294	0.001683
1306	0.001518
1318	0.0012078
1330	0.001089
1342	0.0015708
1354	0.0019536
1366	0.0015312
1378	0.001089
1390	0.0008052
1402	0.0005808
1414	0.0006864
1426	0.0011286
1438	0.002442
1450	0.0039798
1462	0.0048972
1474	0.0028578
1486	0.0011088
1498	0.0005874
1510	0.000429
1522	0.000264
1534	0.000198
1546	0.0001584
1558	0.0001122
1570	8.58e-05
1582	3.96e-05
1594	4.62e-05
1606	8.58e-05
1618	4.62e-05
1630	4.62e-05
1642	3.96e-05
1654	7.92e-05
1666	8.58e-05
1678	7.26e-05
1690	4.62e-05
1702	3.96e-05
1714	5.94e-05
1726	4.62e-05
1738	3.3e-05
1750	6.6e-05
1762	4.62e-05
1774	2.64e-05
1786	3.96e-05
1798	5.28e-05
1810	3.96e-05
1822	5.28e-05
1834	4.62e-05
1846	5.28e-05
1858	1.32e-05
1870	3.96e-05
1882	1.98e-05
1894	6.6e-06
1906	1.98e-05
1918	2.64e-05
1930	3.3e-05
1942	2.64e-05
1954	1.98e-05
1966	3.96e-05
1978	6.6e-06
1990	4.62e-05
2002	5.28e-05
2014	8.58e-05
2026	9.24e-05
2038	0.0001056
2050	9.9e-05
2062	8.58e-05
2074	5.28e-05
2086	6.6e-05
2098	1.98e-05
2110	5.28e-05
2122	4.62e-05
2134	7.26e-05
2146	5.94e-05
2158	7.26e-05
2170	4.62e-05
2182	6.6e-05
2194	6.6e-05
2206	3.96e-05
2218	4.62e-05
2230	5.28e-05
2242	3.3e-05
2254	5.28e-05
2266	3.96e-05
2278	4.62e-05
2290	5.94e-05
2302	5.94e-05
2314	6.6e-05
2326	1.98e-05
2338	2.64e-05
2350	2.64e-05
2362	6.6e-06
2374	3.96e-05
2386	5.28e-05
2398	2.64e-05
2410	2.64e-05
2422	4.62e-05
2434	3.3e-05
2446	3.3e-05
2458	4.62e-05
2470	1.98e-05
2482	3.3e-05
2494	5.94e-05
2506	6.6e-05
2518	0.0001056
2530	0.0001254
2542	0.000132
2554	0.0001188
2566	0.0001518
2578	0.0001452
2590	0.0001914
2602	0.0002244
2614	0.0002904
2626	0.00033
2638	0.000396
2650	0.0004554
2662	0.0005346
2674	0.0006006
2686	0.0006138
2698	0.0005742
2710	0.0005412
2722	0.0005544
2734	0.0005808
2746	0.0006666
2758	0.000726
2770	0.0008382
2782	0.0010296
2794	0.0013464
2806	0.0017754
2818	0.0024552
2830	0.0036564
2842	0.0064878
2854	0.0161898
2866	0.0242484
2878	0.015444
2890	0.012903
2902	0.0166254
2914	0.0277662
2926	0.054978
2938	0.0601986
2950	0.0304326
2962	0.0182754
2974	0.0132264
2986	0.0062832
2998	0.0037554
3010	0.0031548
3022	0.0021978
3034	0.0014124
3046	0.0010494
3058	0.0008448
3070	0.0006666
3082	0.0005544
3094	0.0004224
3106	0.0004224
3118	0.0003696
3130	0.0003564
3142	0.0003168
3154	0.0002904
3166	0.000264
3178	0.0001782
3190	0.0002112
3202	0.0001914
3214	0.0001452
3226	0.0001452
3238	0.000132
3250	0.0001056
3262	0.0001188
3274	0.0001056
3286	0.0001254
3298	6.6e-05
3310	3.3e-05
3322	3.96e-05
3334	5.28e-05
3346	7.92e-05
3358	3.96e-05
3370	5.28e-05
3382	7.92e-05
3394	7.26e-05
3406	5.94e-05
3418	5.28e-05
3430	7.26e-05
3442	4.62e-05
3454	4.62e-05
3466	1.98e-05
3478	0
3490	1.32e-05
3502	9.24e-05
3514	5.28e-05
3526	7.26e-05
3538	1.98e-05
3550	2.64e-05
3562	1.32e-05
3574	2.64e-05
3586	7.26e-05
3598	6.6e-05
3610	0.0001518
3622	9.24e-05
3634	3.96e-05
3646	9.24e-05
3658	9.9e-05
3670	9.24e-05
3682	3.3e-05
3694	7.92e-05
3706	0.0001122
3718	0.0001056
3730	4.62e-05
3742	9.9e-05
3754	5.94e-05
3766	7.92e-05
3778	5.94e-05
3790	7.92e-05
3802	4.62e-05
3814	8.58e-05
3826	7.92e-05
3838	8.58e-05
