Infrared Spectrum: 1,10-Decanediol
Formula: C10 H22 O2
CAS: 112-47-0
State: SOLID (KBr DISC)
Melting point: 71 C
Class: COBLENTZ III
Instrument: PERKIN-ELMER 521 (GRATING)
Instrument parameters: FILTERS AT 3150, 2500, 2000, 1150, 700, 410. GRATING CHANGES: 2000, 630
Resolution: 2
Origin: DOW CORNING CORP.
1/CM	TRANSMITTANCE
245	0.6035
254	0.6132
263	0.6694
272	0.711
281	0.7409
290	0.7665
299	0.7929
308	0.8171
317	0.8238
326	0.834
335	0.8457
344	0.8558
353	0.8562
362	0.869
371	0.8841
380	0.8857
389	0.8816
398	0.8566
407	0.8701
416	0.875
425	0.8713
434	0.8659
443	0.8619
452	0.8566
461	0.8515
470	0.8476
479	0.8456
488	0.8434
497	0.8415
506	0.8322
515	0.8263
524	0.8005
533	0.7329
542	0.7839
551	0.7732
560	0.755
569	0.7341
578	0.7026
587	0.6638
596	0.6126
605	0.4486
614	0.3683
623	0.3584
632	0.4161
641	0.5635
650	0.6354
659	0.7053
668	0.739
677	0.7684
686	0.7991
695	0.8142
704	0.8239
713	0.8239
722	0.7994
731	0.5936
740	0.8442
749	0.857
758	0.8799
767	0.8842
776	0.8884
785	0.8903
794	0.8911
803	0.8737
812	0.8936
821	0.8994
830	0.9043
839	0.9079
848	0.9106
857	0.9111
866	0.9092
875	0.9054
884	0.9005
893	0.9009
902	0.8953
911	0.8899
920	0.8906
929	0.8905
938	0.8886
947	0.8895
956	0.8751
965	0.7506
974	0.8086
983	0.8535
992	0.8341
1001	0.7887
1010	0.6214
1019	0.1574
1028	0.6106
1037	0.7326
1046	0.3698
1055	0.2593
1064	0.4307
1073	0.7415
1082	0.7961
1091	0.8129
1100	0.8218
1109	0.8186
1118	0.8258
1127	0.8331
1136	0.8312
1145	0.8249
1154	0.8125
1163	0.7983
1172	0.8047
1181	0.8032
1190	0.8098
1199	0.812
1208	0.8191
1217	0.8212
1226	0.8218
1235	0.8217
1244	0.8221
1253	0.8255
1262	0.8159
1271	0.8419
1280	0.8281
1289	0.8303
1298	0.8178
1307	0.8128
1316	0.7964
1325	0.6899
1334	0.7061
1343	0.6809
1352	0.5189
1361	0.2682
1370	0.5958
1379	0.7682
1388	0.8345
1397	0.836
1406	0.8451
1415	0.8342
1424	0.838
1433	0.802
1442	0.7598
1451	0.7337
1460	0.355
1469	0.6515
1478	0.6276
1487	0.8583
1496	0.882
1505	0.8884
1514	0.8929
1523	0.8958
1532	0.8964
1541	0.894
1550	0.8913
1559	0.8888
1568	0.8863
1577	0.8825
1586	0.878
1595	0.872
1604	0.8653
1613	0.8519
1622	0.8411
1631	0.8346
1640	0.8388
1649	0.8516
1658	0.8657
1667	0.8802
1676	0.8901
1685	0.8975
1694	0.9022
1703	0.8974
1712	0.8921
1721	0.8858
1730	0.879
1739	0.8738
1748	0.8842
1757	0.9077
1766	0.9254
1775	0.9276
1784	0.9292
1793	0.9298
1802	0.9315
1811	0.9316
1820	0.929
1829	0.9273
1838	0.9285
1847	0.9307
1856	0.9305
1865	0.9287
1874	0.927
1883	0.9259
1892	0.9269
1901	0.9251
1910	0.9314
1919	0.9274
1928	0.9304
1937	0.926
1946	0.9261
1955	0.9253
1964	0.9244
1973	0.9235
1982	0.9226
1991	0.9212
2000	0.9118
2009	0.9024
2018	0.9003
2027	0.9009
2036	0.9028
2045	0.9008
2054	0.8983
2063	0.9022
2072	0.9069
2081	0.9099
2090	0.9065
2099	0.9062
2108	0.908
2117	0.9095
2126	0.9108
2135	0.9117
2144	0.9125
2153	0.9126
2162	0.9127
2171	0.913
2180	0.9133
2189	0.9135
2198	0.9133
2207	0.913
2216	0.9128
2225	0.9124
2234	0.912
2243	0.9116
2252	0.9113
2261	0.911
2270	0.9108
2279	0.9104
2288	0.91
2297	0.9093
2306	0.9086
2315	0.9078
2324	0.9066
2333	0.9052
2342	0.9038
2351	0.9024
2360	0.901
2369	0.8995
2378	0.898
2387	0.8966
2396	0.8955
2405	0.8943
2414	0.8933
2423	0.8926
2432	0.8923
2441	0.8924
2450	0.8903
2459	0.8852
2468	0.8802
2477	0.8771
2486	0.8764
2495	0.8783
2504	0.8804
2513	0.8811
2522	0.8802
2531	0.8785
2540	0.8776
2549	0.878
2558	0.8781
2567	0.877
2576	0.8752
2585	0.8708
2594	0.8638
2603	0.8611
2612	0.8593
2621	0.8582
2630	0.8529
2639	0.8451
2648	0.837
2657	0.8313
2666	0.8238
2675	0.8189
2684	0.8141
2693	0.8115
2702	0.8109
2711	0.8084
2720	0.802
2729	0.793
2738	0.7828
2747	0.7773
2756	0.7729
2765	0.7691
2774	0.7647
2783	0.7597
2792	0.7497
2801	0.7287
2810	0.7014
2819	0.6623
2828	0.6081
2837	0.4583
2846	0.1592
2855	0.0249
2864	0.2032
2873	0.4194
2882	0.4055
2891	0.2254
2900	0.2168
2909	0.2299
2918	0.1016
2927	0.0251
2936	0.0323
2945	0.1241
2954	0.3756
2963	0.5493
2972	0.5751
2981	0.6882
2990	0.7535
2999	0.7753
3008	0.7865
3017	0.7925
3026	0.795
3035	0.7954
3044	0.7961
3053	0.7968
3062	0.7964
3071	0.7957
3080	0.7949
3089	0.7929
3098	0.7903
3107	0.7863
3116	0.782
3125	0.7752
3134	0.7677
3143	0.7596
3152	0.7501
3161	0.7405
3170	0.7287
3179	0.7161
3188	0.6989
3197	0.6803
3206	0.6598
3215	0.6353
3224	0.6101
3233	0.5805
3242	0.5503
3251	0.5199
3260	0.488
3269	0.4624
3278	0.439
3287	0.4108
3296	0.3681
3305	0.3325
3314	0.2589
3323	0.217
3332	0.1613
3341	0.1037
3350	0.0811
3359	0.0997
3368	0.1393
3377	0.1761
3386	0.1793
3395	0.1586
3404	0.0909
3413	0.0595
3422	0.0982
3431	0.1556
3440	0.2067
3449	0.2792
3458	0.324
3467	0.3577
3476	0.3863
3485	0.4259
3494	0.4553
3503	0.4831
3512	0.5089
3521	0.5309
3530	0.5525
3539	0.5736
3548	0.5942
3557	0.6145
3566	0.6309
3575	0.6469
3584	0.6634
3593	0.6804
3602	0.6985
3611	0.7145
3620	0.7282
3629	0.7408
3638	0.7568
3647	0.7735
3656	0.787
3665	0.7961
3674	0.8017
3683	0.8078
3692	0.8175
3701	0.8209
3710	0.8214
3719	0.8213
3728	0.8211
3737	0.8196
3746	0.8171
3755	0.818
3764	0.83
3773	0.8294
3782	0.8287
3791	0.8268
3800	0.8244
3809	0.8214
