Infrared Spectrum: 1-Decanol acetate
Formula: C 12 H 24 O 2
CAS: 112-17-4
State: gas
Instrument: HP-GC/MS/IRD
Origin: NIST Mass Spectrometry Data Center
1/CM	ABSORBANCE
550	0.000132
562	8.25e-05
574	7.15e-05
586	0.0002915
598	0.000748
610	0.0010065
622	0.0010615
634	0.0013915
646	0.001001
658	0.0004565
670	0.000352
682	0.0003025
694	0.0003905
706	0.000638
718	0.0009185
730	0.000902
742	0.0007755
754	0.000737
766	0.0007205
778	0.000671
790	0.0006105
802	0.0006875
814	0.0007425
826	0.000869
838	0.0009735
850	0.001122
862	0.0011385
874	0.0012155
886	0.001199
898	0.001177
910	0.001188
922	0.0012045
934	0.0013585
946	0.001584
958	0.0016445
970	0.001914
982	0.002057
994	0.0027225
1006	0.004532
1018	0.0070015
1030	0.0092455
1042	0.0103785
1054	0.009042
1066	0.007282
1078	0.0060225
1090	0.004477
1102	0.002959
1114	0.002035
1126	0.0016005
1138	0.0012815
1150	0.001298
1162	0.0015125
1174	0.002156
1186	0.0035915
1198	0.0072655
1210	0.017006
1222	0.0396055
1234	0.055
1246	0.0314985
1258	0.0155595
1270	0.00946
1282	0.0059015
1294	0.0041965
1306	0.0032065
1318	0.002508
1330	0.002178
1342	0.0027115
1354	0.0048895
1366	0.0100595
1378	0.0079475
1390	0.0061215
1402	0.003509
1414	0.0022
1426	0.002167
1438	0.0029535
1450	0.0044605
1462	0.0056595
1474	0.004345
1486	0.002332
1498	0.0014465
1510	0.0011055
1522	0.0009075
1534	0.000759
1546	0.0007095
1558	0.000528
1570	0.0005665
1582	0.0005445
1594	0.0005005
1606	0.000506
1618	0.0004785
1630	0.0004895
1642	0.000517
1654	0.0005775
1666	0.0006875
1678	0.0008305
1690	0.0011055
1702	0.001683
1714	0.00297
1726	0.0053845
1738	0.0106755
1750	0.0217745
1762	0.03267
1774	0.017534
1786	0.0077055
1798	0.0034265
1810	0.0017655
1822	0.0010725
1834	0.000726
1846	0.0005445
1858	0.0004675
1870	0.000429
1882	0.000363
1894	0.000319
1906	0.000275
1918	0.000253
1930	0.00022
1942	0.000176
1954	0.0001485
1966	0.0001485
1978	0.000165
1990	0.0001595
2002	0.000242
2014	0.0002475
2026	0.000253
2038	0.0002805
2050	0.0002475
2062	0.0002585
2074	0.0002805
2086	0.0002585
2098	0.0002365
2110	0.00022
2122	0.000165
2134	0.0001595
2146	0.000132
2158	9.9e-05
2170	9.9e-05
2182	0.0001045
2194	8.8e-05
2206	9.35e-05
2218	6.6e-05
2230	8.8e-05
2242	6.05e-05
2254	6.05e-05
2266	4.4e-05
2278	7.15e-05
2290	6.6e-05
2302	7.15e-05
2314	8.8e-05
2326	7.15e-05
2338	5.5e-05
2350	6.05e-05
2362	4.95e-05
2374	6.6e-05
2386	3.85e-05
2398	4.4e-05
2410	3.3e-05
2422	7.7e-05
2434	7.7e-05
2446	0.0001155
2458	7.15e-05
2470	9.35e-05
2482	8.25e-05
2494	6.6e-05
2506	4.4e-05
2518	6.05e-05
2530	8.25e-05
2542	9.35e-05
2554	0.0001155
2566	7.7e-05
2578	0.0001595
2590	0.0001705
2602	0.0002145
2614	0.0002365
2626	0.0002585
2638	0.000264
2650	0.000352
2662	0.0003795
2674	0.000451
2686	0.000495
2698	0.000473
2710	0.00044
2722	0.000506
2734	0.000572
2746	0.000649
2758	0.000671
2770	0.000704
2782	0.0008745
2794	0.0011275
2806	0.001441
2818	0.00198
2830	0.0029315
2842	0.005027
2854	0.0117205
2866	0.0181335
2878	0.014278
2890	0.0120395
2902	0.0144375
2914	0.022902
2926	0.040535
2938	0.046937
2950	0.0311025
2962	0.0237325
2974	0.0180345
2986	0.0089815
2998	0.0047465
3010	0.002937
3022	0.0021725
3034	0.0017435
3046	0.0014245
3058	0.0011715
3070	0.00099
3082	0.0008855
3094	0.000715
3106	0.0005885
3118	0.0005115
3130	0.0004235
3142	0.000385
3154	0.0003355
3166	0.0002475
3178	0.000253
3190	0.000209
3202	0.0001925
3214	0.000176
3226	0.000132
3238	6.6e-05
3250	9.35e-05
3262	9.9e-05
3274	9.35e-05
3286	0.0001045
3298	0.0001045
3310	7.15e-05
3322	9.35e-05
3334	2.75e-05
3346	6.05e-05
3358	6.6e-05
3370	8.25e-05
3382	4.95e-05
3394	7.15e-05
3406	4.95e-05
3418	9.9e-05
3430	0.00011
3442	7.7e-05
3454	9.9e-05
3466	0.0001485
3478	0.000176
3490	0.000275
3502	0.000396
3514	0.000352
3526	0.0001705
3538	0.000143
3550	0.000121
3562	0.000143
3574	7.15e-05
3586	5.5e-05
3598	4.95e-05
3610	7.15e-05
3622	7.7e-05
3634	4.95e-05
3646	7.15e-05
3658	4.4e-05
3670	3.3e-05
3682	4.4e-05
3694	1.1e-05
3706	2.75e-05
3718	3.85e-05
3730	3.85e-05
3742	7.15e-05
3754	6.6e-05
3766	6.6e-05
3778	8.25e-05
3790	7.7e-05
3802	0
3814	7.7e-05
3826	2.75e-05
3838	2.75e-05
