Infrared Spectrum: 1-Dodecanethiol
Formula: C 12 H 26 S
CAS: 112-55-0
State: gas
Instrument: HP-GC/MS/IRD
Origin: NIST Mass Spectrometry Data Center
1/CM	ABSORBANCE
550	0.0003111
562	9.15e-05
574	3.66e-05
586	0.0001342
598	0.0002074
610	0.0001769
622	0.0002562
634	0.0002745
646	0.0002257
658	0.0002806
670	0.0003233
682	0.0003111
694	0.0005124
706	0.0009272
718	0.0011956
730	0.0010736
742	0.0009333
754	0.0007686
766	0.0006405
778	0.000549
790	0.0005429
802	0.0003904
814	0.0003843
826	0.0003416
838	0.0003782
850	0.0003355
862	0.0003538
874	0.0003294
886	0.0003904
898	0.0003782
910	0.0003599
922	0.0003355
934	0.0002989
946	0.0003294
958	0.0002867
970	0.0003416
982	0.0002745
994	0.0002806
1006	0.0002867
1018	0.000305
1030	0.0003782
1042	0.0003477
1054	0.0004087
1066	0.0004514
1078	0.000488
1090	0.0003965
1102	0.0003965
1114	0.000427
1126	0.0003538
1138	0.0004148
1150	0.0003904
1162	0.0004941
1174	0.0004453
1186	0.0005246
1198	0.00061
1210	0.0006527
1222	0.0008174
1234	0.0010248
1246	0.0012688
1258	0.001342
1270	0.0016226
1282	0.0018178
1294	0.0018971
1306	0.0017995
1318	0.0014213
1330	0.0012688
1342	0.0016226
1354	0.0019276
1366	0.0015494
1378	0.0012444
1390	0.0009577
1402	0.0007198
1414	0.0008174
1426	0.0012139
1438	0.002379
1450	0.0037088
1462	0.0045384
1474	0.0028121
1486	0.0012017
1498	0.000671
1510	0.0004331
1522	0.0002989
1534	0.0002623
1546	0.0001708
1558	0.0002257
1570	0.0001891
1582	0.0001586
1594	0.0001281
1606	0.0001037
1618	0.0001159
1630	0.000122
1642	0.0001464
1654	0.0001647
1666	0.0001281
1678	9.76e-05
1690	9.76e-05
1702	0.0001037
1714	0.0001281
1726	0.0001098
1738	9.15e-05
1750	4.88e-05
1762	8.54e-05
1774	0.0001098
1786	8.54e-05
1798	6.1e-05
1810	7.93e-05
1822	3.05e-05
1834	7.32e-05
1846	6.1e-05
1858	3.66e-05
1870	4.27e-05
1882	3.66e-05
1894	4.27e-05
1906	3.05e-05
1918	1.83e-05
1930	3.66e-05
1942	3.05e-05
1954	1.83e-05
1966	1.83e-05
1978	4.88e-05
1990	1.22e-05
2002	4.27e-05
2014	0.0001098
2026	0.0001159
2038	0.0001159
2050	0.0001098
2062	6.1e-05
2074	7.93e-05
2086	6.71e-05
2098	7.32e-05
2110	6.1e-05
2122	4.88e-05
2134	7.32e-05
2146	7.32e-05
2158	7.93e-05
2170	6.71e-05
2182	8.54e-05
2194	6.71e-05
2206	6.71e-05
2218	7.32e-05
2230	5.49e-05
2242	4.88e-05
2254	5.49e-05
2266	6.71e-05
2278	7.93e-05
2290	9.15e-05
2302	8.54e-05
2314	0.000122
2326	0.0001525
2338	0.0001891
2350	0.0001586
2362	0.0002501
2374	0.0001586
2386	8.54e-05
2398	7.93e-05
2410	8.54e-05
2422	6.1e-05
2434	6.71e-05
2446	7.32e-05
2458	6.71e-05
2470	7.93e-05
2482	8.54e-05
2494	7.93e-05
2506	0.0001159
2518	0.0001098
2530	0.0001464
2542	0.0001708
2554	0.0001708
2566	0.0002013
2578	0.0003355
2590	0.0004819
2602	0.000427
2614	0.0003843
2626	0.0003843
2638	0.000427
2650	0.0004514
2662	0.0005429
2674	0.0005734
2686	0.0005978
2698	0.0005673
2710	0.000549
2722	0.0005917
2734	0.0006527
2746	0.0006771
2758	0.0007381
2770	0.0008174
2782	0.0010126
2794	0.0013542
2806	0.0016958
2818	0.0024034
2830	0.0034831
2842	0.0061061
2854	0.0148108
2866	0.0217648
2878	0.0152073
2890	0.0124989
2902	0.015555
2914	0.0261263
2926	0.050874
2938	0.0571021
2950	0.0310795
2962	0.0209413
2974	0.0149389
2986	0.0065209
2998	0.0036356
3010	0.0023729
3022	0.0016592
3034	0.0012322
3046	0.0009577
3058	0.0007564
3070	0.0006039
3082	0.0004941
3094	0.0004453
3106	0.0003904
3118	0.0003233
3130	0.0003416
3142	0.0003599
3154	0.0002867
3166	0.000244
3178	0.0002379
3190	0.000183
3202	0.0001647
3214	0.0001342
3226	9.76e-05
3238	9.15e-05
3250	0.000122
3262	0.0001159
3274	7.32e-05
3286	7.93e-05
3298	2.44e-05
3310	0.0001281
3322	0.0001098
3334	3.05e-05
3346	2.44e-05
3358	0
3370	8.54e-05
3382	4.88e-05
3394	7.32e-05
3406	4.27e-05
3418	4.27e-05
3430	2.44e-05
3442	6.1e-05
3454	6.1e-05
3466	0.0001098
3478	2.44e-05
3490	9.76e-05
3502	3.05e-05
3514	7.93e-05
3526	7.93e-05
3538	6.1e-05
3550	3.05e-05
3562	4.27e-05
3574	7.32e-05
3586	7.32e-05
3598	0.0001098
3610	9.15e-05
3622	0.0001342
3634	0.0001098
3646	0.0001525
3658	0.0001586
3670	0.0001769
3682	0.0001159
3694	0.0001342
3706	0.000122
3718	0.0001525
3730	0.0001281
3742	0.0001281
3754	0.0001403
3766	0.0001647
3778	0.0001525
3790	0.0001403
3802	0.0002257
3814	0.0002501
3826	0.0001952
3838	0.0001525
