Infrared Spectrum: POLYGLYCOLAMINE
Formula: C7 H17 N O3
CAS: 112-33-4
State: LIQUID
Class: COBLENTZ
Instrument: Not specified, most likely a prism, grating, or hybrid spectrometer.
Sampling: TRANSMISSION
Path length: 0.0015 CM
Resolution: 4
Origin: WYANDOTTE CHEMICALS CORP., WYANDOTTE, MICHIGAN, USA
MICROMETERS	TRANSMITTANCE
2.033	0.983
2.07279	0.976
2.11258	0.98
2.15237	0.97
2.19217	0.925
2.23196	0.92
2.27175	0.928
2.31154	0.935
2.35133	0.945
2.39112	0.912
2.43091	0.905
2.4707	0.913
2.5105	0.928
2.55029	0.945
2.59008	0.935
2.62987	0.95
2.66966	0.925
2.70945	0.91
2.74924	0.821
2.78904	0.677
2.82883	0.513
2.86862	0.387
2.90841	0.299
2.9482	0.233
2.98799	0.12
3.02778	0.14
3.06758	0.17
3.10737	0.163
3.14716	0.15
3.18695	0.18
3.22674	0.235
3.26653	0.291
3.30632	0.302
3.34611	0.071
3.38591	0.028
3.4257	0.029
3.46549	0.026
3.50528	0.031
3.54507	0.084
3.58486	0.162
3.62465	0.223
3.66445	0.261
3.70424	0.312
3.74403	0.422
3.78382	0.486
3.82361	0.526
3.8634	0.543
3.90319	0.559
3.94298	0.587
3.98278	0.615
4.02257	0.655
4.06236	0.692
4.10215	0.718
4.14194	0.743
4.18173	0.758
4.22152	0.774
4.26132	0.773
4.30111	0.799
4.3409	0.821
4.38069	0.844
4.42048	0.827
4.46027	0.829
4.50006	0.834
4.53986	0.839
4.57965	0.839
4.61944	0.841
4.65923	0.837
4.69902	0.836
4.73881	0.836
4.7786	0.837
4.81839	0.842
4.85819	0.839
4.89798	0.841
4.93777	0.844
4.97756	0.836
5.01735	0.822
5.05714	0.799
5.09693	0.788
5.13673	0.794
5.17652	0.793
5.21631	0.809
5.2561	0.824
5.29589	0.826
5.33568	0.837
5.37547	0.847
5.41526	0.842
5.45506	0.852
5.49485	0.847
5.53464	0.837
5.57443	0.831
5.61422	0.834
5.65401	0.831
5.6938	0.817
5.7336	0.811
5.77339	0.801
5.81318	0.788
5.85297	0.769
5.89276	0.761
5.93255	0.736
5.97234	0.701
6.01213	0.662
6.05193	0.632
6.09172	0.554
6.13151	0.456
6.1713	0.355
6.21109	0.357
6.25088	0.475
6.29067	0.566
6.33047	0.627
6.37026	0.649
6.41005	0.67
6.44984	0.658
6.48963	0.658
6.52942	0.645
6.56921	0.629
6.60901	0.576
6.6488	0.485
6.68859	0.332
6.72838	0.284
6.76817	0.263
6.80796	0.24
6.84775	0.246
6.88754	0.294
6.92734	0.329
6.96713	0.369
7.00692	0.42
7.04671	0.453
7.0865	0.433
7.12629	0.394
7.16608	0.355
7.20588	0.332
7.24567	0.298
7.28546	0.246
7.32525	0.241
7.36504	0.182
7.40483	0.25
7.44462	0.387
7.48441	0.433
7.52421	0.392
7.564	0.399
7.60379	0.4
7.64358	0.364
7.68337	0.322
7.72316	0.319
7.76295	0.331
7.80275	0.357
7.84254	0.384
7.88233	0.397
7.92212	0.394
7.96191	0.346
8.0017	0.312
8.04149	0.327
8.08129	0.384
8.12108	0.428
8.16087	0.465
8.20066	0.519
8.24045	0.551
8.28024	0.587
8.32003	0.587
8.35982	0.576
8.39962	0.546
8.43941	0.504
8.4792	0.466
8.51899	0.432
8.55878	0.385
8.59857	0.301
8.63836	0.197
8.67816	0.076
8.71795	0.039
8.75774	0.033
8.79753	0.033
8.83732	0.033
8.87711	0.031
8.9169	0.031
8.95669	0.029
8.99649	0.029
9.03628	0.031
9.07607	0.031
9.11586	0.031
9.15565	0.033
9.19544	0.033
9.23523	0.031
9.27503	0.031
9.31482	0.031
9.35461	0.033
9.3944	0.034
9.43419	0.052
9.47398	0.066
9.51377	0.084
9.55357	0.102
9.59336	0.107
9.63315	0.117
9.67294	0.137
9.71273	0.162
9.75252	0.198
9.79231	0.22
9.8321	0.251
9.8719	0.258
9.91169	0.266
9.95148	0.271
9.99127	0.256
10.0311	0.248
10.0709	0.245
10.1106	0.243
10.1504	0.245
10.1902	0.248
10.23	0.25
10.2698	0.245
10.3096	0.236
10.3494	0.235
10.3892	0.23
10.429	0.22
10.4688	0.21
10.5086	0.198
10.5483	0.188
10.5881	0.178
10.6279	0.163
10.6677	0.152
10.7075	0.142
10.7473	0.145
10.7871	0.155
10.8269	0.162
10.8667	0.167
10.9065	0.178
10.9463	0.19
10.9861	0.201
11.0258	0.208
11.0656	0.211
11.1054	0.203
11.1452	0.188
11.185	0.163
11.2248	0.15
11.2646	0.144
11.3044	0.163
11.3442	0.18
11.384	0.201
11.4238	0.21
11.4635	0.218
11.5033	0.225
11.5431	0.226
11.5829	0.231
11.6227	0.233
11.6625	0.236
11.7023	0.251
11.7421	0.258
11.7819	0.271
11.8217	0.286
11.8615	0.291
11.9013	0.288
11.941	0.293
11.9808	0.288
12.0206	0.291
12.0604	0.288
12.1002	0.296
12.14	0.302
12.1798	0.314
12.2196	0.326
12.2594	0.336
12.2992	0.342
12.339	0.35
12.3788	0.365
12.4185	0.384
12.4583	0.392
12.4981	0.408
12.5379	0.423
12.5777	0.432
12.6175	0.442
12.6573	0.45
12.6971	0.458
12.7369	0.463
12.7767	0.47
12.8165	0.47
12.8562	0.473
12.896	0.481
12.9358	0.485
12.9756	0.483
13.0154	0.48
13.0552	0.48
13.095	0.485
13.1348	0.485
13.1746	0.488
13.2144	0.5
13.2542	0.506
13.294	0.513
13.3337	0.526
13.3735	0.531
13.4133	0.548
13.4531	0.554
13.4929	0.559
13.5327	0.567
13.5725	0.577
13.6123	0.582
13.6521	0.587
13.6919	0.589
13.7317	0.589
13.7714	0.596
13.8112	0.604
13.851	0.607
13.8908	0.607
13.9306	0.614
13.9704	0.61
14.0102	0.614
14.05	0.619
14.0898	0.62
14.1296	0.625
14.1694	0.619
14.2092	0.624
14.2489	0.629
14.2887	0.625
14.3285	0.627
14.3683	0.62
14.4081	0.63
14.4479	0.625
14.4877	0.627
14.5275	0.63
14.5673	0.62
14.6071	0.627
14.6469	0.629
14.6866	0.629
14.7264	0.627
14.7662	0.629
14.806	0.625
14.8458	0.63
14.8856	0.629
14.9254	0.63
14.9652	0.624
15.005	0.609
15.0448	0.605
15.0846	0.619
15.1244	0.627
15.1641	0.63
15.2039	0.624
15.2437	0.62
15.2835	0.617
15.3233	0.619
15.3631	0.619
15.4029	0.614
15.4427	0.614
15.4825	0.614
15.5223	0.61
15.5621	0.607
15.6019	0.607
15.6416	0.609
15.6814	0.6
15.7212	0.597
15.761	0.594
15.8008	0.591
15.8406	0.596
15.8804	0.587
15.9202	0.589
15.96	0.581
