Infrared Spectrum: Erucylamide
Formula: C 22 H 43 N O
CAS: 112-84-5
State: gas
Origin: EPA-IR VAPOR PHASE LIBRARY
1/CM	ABSORBANCE
501.5	0.0001046
513.074	0.0004746
524.648	0.0007844
536.222	0.0005806
547.796	0.0004192
559.37	0.0004424
570.944	0.0004773
582.518	0.0008935
594.092	0.0009601
605.666	0.0009139
617.24	0.0009403
628.814	0.0006639
640.388	0.0005207
651.962	0.000606
663.536	0.0005032
675.11	0.0008616
686.684	0.0010483
698.258	0.001485
709.832	0.001825
721.406	0.002065
732.98	0.002045
744.554	0.001785
756.128	0.001575
767.702	0.001505
779.276	0.001215
790.85	0.0011235
802.423	0.0008481
813.997	0.0009988
825.571	0.0009567
837.145	0.0008401
848.719	0.0008437
860.293	0.000876
871.867	0.001008
883.441	0.0008172
895.015	0.0007053
906.589	0.0006515
918.163	0.0006709
929.737	0.0006336
941.311	0.0007982
952.885	0.0006858
964.459	0.0007962
976.033	0.0007707
987.607	0.0007328
999.181	0.0007291
1010.76	0.0007247
1022.33	0.0009264
1033.9	0.0007959
1045.48	0.000673
1057.05	0.0007482
1068.63	0.0007118
1080.2	0.0007714
1091.77	0.000595
1103.35	0.0006173
1114.92	0.0007621
1126.49	0.0003621
1138.07	0.0006842
1149.64	0.0007445
1161.22	0.0006234
1172.79	0.0004264
1184.36	0.0004926
1195.94	0.0005548
1207.51	0.0005795
1219.09	0.0008304
1230.66	0.0009966
1242.23	0.001245
1253.81	0.001565
1265.38	0.001885
1276.96	0.002135
1288.53	0.002055
1300.1	0.002175
1311.68	0.002235
1323.25	0.002265
1334.83	0.002685
1346.4	0.003235
1357.97	0.003325
1369.55	0.003265
1381.12	0.002695
1392.7	0.001725
1404.27	0.001415
1415.84	0.0010417
1427.42	0.001315
1438.99	0.001965
1450.57	0.002875
1462.14	0.003295
1473.71	0.001955
1485.29	0.0009589
1496.86	0.0006194
1508.44	0.000465
1520.01	0.0004166
1531.58	0.0004545
1543.16	0.0005289
1554.73	0.0008517
1566.31	0.001495
1577.88	0.002915
1589.45	0.004045
1601.03	0.002675
1612.6	0.001485
1624.18	0.0009404
1635.75	0.0007213
1647.32	0.0007341
1658.9	0.0008549
1670.47	0.0011629
1682.05	0.001735
1693.62	0.002935
1705.19	0.004865
1716.77	0.007635
1728.34	0.010735
1739.92	0.009225
1751.49	0.005605
1763.06	0.002945
1774.64	0.001325
1786.21	0.00066
1797.79	0.0004474
1809.36	0.0003173
1820.93	0.00027918
1832.51	0.00027151
1844.08	0.000204341
1855.66	0.000200473
1867.23	0.000198296
1878.8	0.000196287
1890.38	0.0001778
1901.95	0.0001409
1913.53	0.0001732
1925.1	0.00018941
1936.67	0.00019273
1948.25	0.0001727
1959.82	0.0001814
1971.4	0.000201236
1982.97	0.0001735
1994.54	0.0001658
2006.12	0.0001692
2017.69	0.0001776
2029.27	0.0001661
2040.84	0.00021353
2052.41	0.000197932
2063.99	0.0001424
2075.56	0.0001321
2087.14	0.00018522
2098.71	0.0001759
2110.28	0.00018751
2121.86	0.0001918
2133.43	0.0001779
2145.01	0.000181
2156.58	0.00019249
2168.15	0.000174
2179.73	0.00022498
2191.3	0.00019033
2202.88	0.00025036
2214.45	0.0001672
2226.02	0.0001777
2237.6	0.00024494
2249.17	0.000200623
2260.74	0.00024045
2272.32	0.000153
2283.89	0.00021988
2295.47	0.000196787
2307.04	0.00019126
2318.61	0.00018513
2330.19	0.0001411
2341.76	0.00018593
2353.34	0.0001228
2364.91	0.0001257
2376.48	0.00018675
2388.06	0.000198514
2399.63	0.00019224
2411.21	0.00020846
2422.78	0.0001548
2434.35	0.000200714
2445.93	0.0001483
2457.5	0.00020728
2469.08	0.0001367
2480.65	0.00020668
2492.22	0.0001822
2503.8	0.000196101
2515.37	0.00022852
2526.95	0.00024221
2538.52	0.00029205
2550.09	0.0002701
2561.67	0.00028467
2573.24	0.00025469
2584.82	0.0003263
2596.39	0.00026213
2607.96	0.00029247
2619.54	0.0003357
2631.11	0.0004217
2642.69	0.0003647
2654.26	0.0004487
2665.83	0.0004986
2677.41	0.0005834
2688.98	0.0005529
2700.56	0.0004958
2712.13	0.0004636
2723.7	0.0006138
2735.28	0.0004726
2746.85	0.0005969
2758.43	0.0006109
2770	0.0007116
2781.57	0.0008527
2793.15	0.001095
2804.72	0.001335
2816.3	0.001665
2827.87	0.002365
2839.44	0.003825
2851.02	0.008075
2862.59	0.015105
2874.17	0.011075
2885.74	0.008465
2897.31	0.009375
2908.89	0.014445
2920.46	0.024985
2932.04	0.039025
2943.61	0.027205
2955.18	0.014565
2966.76	0.010165
2978.33	0.005805
2989.91	0.003275
3001.48	0.003175
3013.05	0.004165
3024.63	0.002205
3036.2	0.0011912
3047.78	0.0008342
3059.35	0.000644
3070.92	0.0006517
3082.5	0.0005238
3094.07	0.0003559
3105.65	0.0003659
3117.22	0.0003538
3128.79	0.0004363
3140.37	0.0003308
3151.94	0.0003325
3163.52	0.0003658
3175.09	0.0004442
3186.66	0.00035
3198.24	0.00026345
3209.81	0.00022923
3221.39	0.00025486
3232.96	0.0003001
3244.53	0.00022086
3256.11	0.00029436
3267.68	0.0002614
3279.26	0.0003387
3290.83	0.0001485
3302.4	0.0001496
3313.98	0.00028214
3325.55	0.00021369
3337.13	0.00027002
3348.7	0.0003235
3360.27	0.00023192
3371.85	0.0003117
3383.42	0.0003874
3395	0.0004715
3406.57	0.0006483
3418.14	0.0008157
3429.72	0.0008694
3441.29	0.0011099
3452.86	0.000501
3464.44	0.0004847
3476.01	0.0004344
3487.59	0.0003953
3499.16	0.000459
3510.73	0.0005848
3522.31	0.0005526
3533.88	0.0006676
3545.46	0.000802
3557.03	0.0010349
3568.6	0.0008561
3580.18	0.0005138
3591.75	0.0001805
3603.33	0.000194392
3614.9	0.000196784
3626.47	0.0001188
3638.05	0.00021583
3649.62	0.00023251
3661.2	0.000172
3672.77	0.00022549
3684.34	7.9e-05
3695.92	0.00018588
3707.49	0.0001466
3719.07	0.00018864
3730.64	0.0001432
3742.21	0.0001726
3753.79	0.00021317
3765.36	0.00025398
3776.94	0.0001365
3788.51	0.00020729
3800.08	0.00022345
3811.66	8.1e-05
3823.23	0.0001808
3834.81	0.00027065
3846.38	0.00027074
3857.95	0.00021105
3869.53	0.000301
3881.1	0.00026329
3892.68	0.00021628
3904.25	0.00026115
3915.82	0.00024946
3927.4	0.0002497
3938.97	0.00029316
3950.55	0.0003006
3962.12	0.00025588
3973.69	0.0001507
3985.27	0.000198853
3996.84	0.00019195
