Infrared Spectrum: 1-Octadecanol
Formula: C 18 H 38 O
CAS: 112-92-5
State: gas
Instrument: HP-GC/MS/IRD
Origin: NIST Mass Spectrometry Data Center
1/CM	ABSORBANCE
550	0.0005145
562	0.0001421
574	0.0001029
586	0.0001225
598	0.0002793
610	0.0002401
622	0.000294
634	0.0003136
646	0.000294
658	0.000294
670	0.0002842
682	0.0003479
694	0.00049
706	0.0007693
718	0.0009065
730	0.0008183
742	0.0007007
754	0.0005978
766	0.0005145
778	0.0005243
790	0.0004557
802	0.0004655
814	0.0004165
826	0.000294
838	0.0004606
850	0.0005047
862	0.0006664
874	0.0006958
886	0.0007595
898	0.0006811
910	0.0007252
922	0.0008428
934	0.0008575
946	0.0009212
958	0.0009947
970	0.0011025
982	0.001274
994	0.0015876
1006	0.0018522
1018	0.0024108
1030	0.0031017
1042	0.0034545
1054	0.0032634
1066	0.0024549
1078	0.0016905
1090	0.0011123
1102	0.0007938
1114	0.0005782
1126	0.000441
1138	0.0004459
1150	0.000392
1162	0.0004116
1174	0.0004557
1186	0.0004704
1198	0.0005047
1210	0.0006174
1222	0.0006615
1234	0.0007154
1246	0.0007987
1258	0.0008526
1270	0.0009506
1282	0.0009359
1294	0.0011319
1306	0.0011613
1318	0.0011956
1330	0.0012005
1342	0.0016072
1354	0.001813
1366	0.0016905
1378	0.0015925
1390	0.0014896
1402	0.0011123
1414	0.000931
1426	0.00098
1438	0.0016219
1450	0.0026215
1462	0.0034153
1474	0.0022981
1486	0.0010927
1498	0.0006762
1510	0.0007546
1522	0.0005831
1534	0.0003675
1546	0.0004067
1558	0.0005096
1570	0.0002156
1582	0.0001519
1594	0.0001813
1606	0.0001568
1618	0.0002205
1630	0.0002058
1642	0.0002303
1654	0.0004361
1666	0.0002548
1678	0.0003234
1690	0.0002744
1702	0.0004214
1714	0.0003577
1726	0.0002499
1738	0.0003969
1750	0.0004067
1762	0.0002548
1774	0.0002646
1786	0.0002254
1798	0.0002303
1810	0.000196
1822	0.0002107
1834	0.000196
1846	0.0002401
1858	0.0001421
1870	0.0002205
1882	0.0001225
1894	0.0001078
1906	0.0001421
1918	0.0001715
1930	0.0001421
1942	0.0001568
1954	0.0001127
1966	0.0001225
1978	0.0001225
1990	0.000147
2002	0.000147
2014	0.0001519
2026	0.0001911
2038	0.0001764
2050	0.0001666
2062	0.0001715
2074	0.0001323
2086	0.0001029
2098	9.8e-05
2110	0.0001323
2122	0.0001029
2134	0.0001078
2146	0.0001225
2158	0.0001176
2170	0.0001274
2182	0.0001274
2194	0.0001274
2206	0.0001127
2218	0.0001127
2230	9.8e-05
2242	0.0001127
2254	0.0001078
2266	0.0001323
2278	0.0001078
2290	9.8e-05
2302	7.35e-05
2314	6.37e-05
2326	5.39e-05
2338	8.82e-05
2350	6.37e-05
2362	4.9e-05
2374	6.86e-05
2386	0.0001176
2398	0.000147
2410	0.0001323
2422	0.0001078
2434	0.000147
2446	0.0001421
2458	0.0001078
2470	0.0001225
2482	0.0001666
2494	0.0002009
2506	0.0001715
2518	0.0002254
2530	0.0002352
2542	0.0002548
2554	0.0002401
2566	0.0002548
2578	0.0002646
2590	0.000343
2602	0.0003675
2614	0.0003822
2626	0.0004214
2638	0.0004459
2650	0.0004949
2662	0.0005684
2674	0.0006321
2686	0.0006468
2698	0.0006321
2710	0.0006615
2722	0.0006566
2734	0.0007301
2746	0.0007742
2758	0.0008183
2770	0.0009212
2782	0.0010927
2794	0.0013524
2806	0.001666
2818	0.0021707
2830	0.0030184
2842	0.0051303
2854	0.0124068
2866	0.0179585
2878	0.01225
2890	0.0104125
2902	0.0132594
2914	0.021805
2926	0.0416892
2938	0.0442176
2950	0.0218638
2962	0.0125489
2974	0.0080066
2986	0.0039935
2998	0.0024353
3010	0.001666
3022	0.001274
3034	0.0010241
3046	0.0007889
3058	0.000637
3070	0.0005684
3082	0.0004949
3094	0.0004459
3106	0.000441
3118	0.0004214
3130	0.0003675
3142	0.0003773
3154	0.0003871
3166	0.0003381
3178	0.0003087
3190	0.0002891
3202	0.000294
3214	0.0002303
3226	0.0002548
3238	0.0002352
3250	0.0002499
3262	0.0002254
3274	0.000294
3286	0.0001911
3298	0.0002107
3310	0.0001764
3322	0.0001911
3334	0.0001715
3346	0.0001519
3358	0.0001813
3370	0.0001666
3382	0.000196
3394	0.000147
3406	0.0001862
3418	0.0001519
3430	0.0001029
3442	0.0001421
3454	0.0001568
3466	9.8e-05
3478	0.0001323
3490	8.82e-05
3502	8.33e-05
3514	6.37e-05
3526	0.0001078
3538	5.39e-05
3550	9.8e-05
3562	0.0001078
3574	8.33e-05
3586	0.0001715
3598	0.0001372
3610	0.0002891
3622	0.0002401
3634	0.0002646
3646	0.000539
3658	0.0008183
3670	0.0009702
3682	0.0005635
3694	0.0002793
3706	0.000196
3718	0.0001323
3730	0.0001862
3742	0.0002793
3754	0.0002156
3766	6.86e-05
3778	5.88e-05
3790	7.35e-05
3802	0.000196
3814	0.0001176
3826	8.33e-05
3838	0.0002009
