Infrared Spectrum: DODECANAMIDE
Formula: C12 H25 N O
CAS: 1120-16-7
State: SOLID (MULL IN COCONITRILE OIL)
Class: COBLENTZ III
Instrument: PERKIN-ELMER (GRATING)
Sampling: TRANSMISSION
Resolution: 4
Origin: PROCTER AND GAMBLE CO.
1/CM	TRANSMITTANCE
411.666	0.771
420.64	0.767
429.613	0.766
438.587	0.773
447.561	0.769
456.534	0.769
465.508	0.766
474.482	0.767
483.455	0.763
492.429	0.769
501.402	0.767
510.376	0.762
519.35	0.754
528.323	0.731
537.297	0.665
546.271	0.769
555.244	0.808
564.218	0.808
573.192	0.868
582.165	0.863
591.139	0.833
600.113	0.817
609.086	0.753
618.06	0.684
627.034	0.616
636.007	0.604
644.981	0.626
653.954	0.68
662.928	0.743
671.902	0.783
680.875	0.786
689.849	0.774
698.823	0.724
707.796	0.718
716.77	0.624
725.744	0.804
734.717	0.798
743.691	0.86
752.665	0.864
761.638	0.867
770.612	0.86
779.586	0.857
788.559	0.849
797.533	0.834
806.506	0.809
815.48	0.821
824.454	0.86
833.427	0.887
842.401	0.893
851.375	0.888
860.348	0.876
869.322	0.845
878.296	0.836
887.269	0.865
896.243	0.897
905.217	0.907
914.19	0.907
923.164	0.908
932.138	0.907
941.111	0.907
950.085	0.907
959.058	0.904
968.032	0.903
977.006	0.896
985.979	0.902
994.953	0.902
1003.93	0.903
1012.9	0.899
1021.87	0.897
1030.85	0.893
1039.82	0.895
1048.79	0.892
1057.77	0.889
1066.74	0.888
1075.72	0.871
1084.69	0.876
1093.66	0.875
1102.64	0.861
1111.61	0.83
1120.58	0.774
1129.56	0.719
1138.53	0.672
1147.51	0.826
1156.48	0.846
1165.45	0.848
1174.43	0.842
1183.4	0.826
1192.37	0.693
1201.35	0.781
1210.32	0.789
1219.29	0.74
1228.27	0.74
1237.24	0.763
1246.22	0.754
1255.19	0.64
1264.16	0.734
1273.14	0.712
1282.11	0.66
1291.08	0.679
1300.06	0.672
1309.03	0.616
1318	0.649
1326.98	0.625
1335.95	0.609
1344.93	0.684
1353.9	0.683
1362.87	0.716
1371.85	0.726
1380.82	0.735
1389.79	0.707
1398.77	0.63
1407.74	0.198
1416.71	0.281
1425.69	0.379
1434.66	0.64
1443.64	0.748
1452.61	0.719
1461.58	0.574
1470.56	0.532
1479.53	0.781
1488.5	0.812
1497.48	0.821
1506.45	0.828
1515.42	0.83
1524.4	0.832
1533.37	0.826
1542.35	0.824
1551.32	0.775
1560.29	0.814
1569.27	0.806
1578.24	0.79
1587.21	0.762
1596.19	0.731
1605.16	0.655
1614.13	0.481
1623.11	0.114
1632.08	0.049
1641.06	0.127
1650.03	0.065
1659	0.055
1667.98	0.208
1676.95	0.519
1685.92	0.699
1694.9	0.711
1703.87	0.736
1712.84	0.832
1721.82	0.851
1730.79	0.861
1739.77	0.857
1748.74	0.855
1757.71	0.867
1766.69	0.879
1775.66	0.885
1784.63	0.892
1793.61	0.893
1802.58	0.895
1811.55	0.899
1820.53	0.902
1829.5	0.903
1838.48	0.9
1847.45	0.906
1856.42	0.904
1865.4	0.902
1874.37	0.906
1883.34	0.903
1892.32	0.904
1901.29	0.907
1910.27	0.904
1919.24	0.906
1928.21	0.906
1937.19	0.907
1946.16	0.908
1955.13	0.907
1964.11	0.907
1973.08	0.912
1982.05	0.91
1991.03	0.914
2000	0.9
2008.98	0.897
2017.95	0.899
2026.92	0.9
2035.9	0.9019
2044.87	0.9
2053.84	0.9019
2062.82	0.9039
2071.79	0.9001
2080.76	0.9
2089.74	0.902
2098.71	0.902
2107.69	0.9029
2116.66	0.9042
2125.63	0.903
2134.61	0.906
2143.58	0.9031
2152.55	0.904
2161.53	0.908
2170.5	0.904
2179.47	0.904
2188.45	0.906
2197.42	0.904
2206.4	0.9057
2215.37	0.908
2224.34	0.9135
2233.32	0.9236
2242.29	0.9436
2251.26	0.9287
2260.24	0.9062
2269.21	0.902
2278.18	0.902
2287.16	0.902
2296.13	0.9
2305.11	0.904
2314.08	0.903
2323.05	0.906
2332.03	0.907
2341	0.908
2349.97	0.908
2358.95	0.91
2367.92	0.908
2376.89	0.9086
2385.87	0.9063
2394.84	0.9033
2403.82	0.902
2412.79	0.903
2421.76	0.904
2430.74	0.906
2439.71	0.9047
2448.68	0.9
2457.66	0.9
2466.63	0.9
2475.6	0.8983
2484.58	0.9305
2493.55	0.9308
2502.53	0.8924
2511.5	0.8996
2520.47	0.9
2529.45	0.8994
2538.42	0.8964
2547.39	0.895
2556.37	0.893
2565.34	0.8966
2574.31	0.9011
2583.29	0.9
2592.26	0.9036
2601.24	0.9035
2610.21	0.8979
2619.18	0.8965
2628.16	0.896
2637.13	0.895
2646.1	0.895
2655.08	0.893
2664.05	0.893
2673.02	0.893
2682	0.895
2690.97	0.896
2699.95	0.8805
2708.92	0.881
2717.89	0.8805
2726.87	0.8741
2735.84	0.8657
2744.81	0.8581
2753.79	0.8516
2762.76	0.8372
2771.74	0.834
2780.71	0.8194
2789.68	0.7925
2798.66	0.7601
2807.63	0.7559
2816.6	0.7765
2825.58	0.7695
2834.55	0.5421
2843.52	0.2633
2852.5	0.3252
2861.47	0.4917
2870.45	0.5781
2879.42	0.6179
2888.39	0.4824
2897.37	0.3827
2906.34	0.2061
2915.31	0.2478
2924.29	0.3533
2933.26	0.4516
2942.23	0.5622
2951.21	0.5487
2960.18	0.6217
2969.16	0.8003
2978.13	0.8468
2987.1	0.848
2996.08	0.846
3005.05	0.846
3014.02	0.8435
3023	0.8412
3031.97	0.842
3040.94	0.8394
3049.92	0.8296
3058.89	0.8208
3067.87	0.8178
3076.84	0.8114
3085.81	0.7946
3094.79	0.7773
3103.76	0.7613
3112.73	0.7489
3121.71	0.7251
3130.68	0.6974
3139.65	0.6585
3148.63	0.6229
3157.6	0.5356
3166.58	0.4479
3175.55	0.3299
3184.52	0.2765
3193.5	0.26
3202.47	0.2649
3211.44	0.3201
3220.42	0.374
3229.39	0.4208
3238.36	0.4777
3247.34	0.5195
3256.31	0.536
3265.29	0.539
3274.26	0.5339
3283.23	0.5268
3292.21	0.4988
3301.18	0.4729
3310.15	0.428
3319.13	0.401
3328.1	0.3179
3337.07	0.2163
3346.05	0.1114
3355.02	0.0761
3364	0.0669
3372.97	0.1216
3381.94	0.2128
3390.92	0.3794
3399.89	0.4955
3408.86	0.5945
3417.84	0.7377
3426.81	0.8039
3435.78	0.8397
3444.76	0.8646
3453.73	0.8906
3462.71	0.8987
3471.68	0.9039
3480.65	0.9109
3489.63	0.914
3498.6	0.915
3507.57	0.915
3516.55	0.915
3525.52	0.915
3534.5	0.914
3543.47	0.912
3552.44	0.9142
3561.42	0.912
3570.39	0.912
3579.36	0.912
3588.34	0.914
3597.31	0.915
3606.28	0.915
3615.26	0.915
3624.23	0.9152
3633.21	0.914
3642.18	0.919
3651.15	0.92
3660.13	0.9215
3669.1	0.922
3678.07	0.9197
3687.05	0.922
3696.02	0.922
3704.99	0.923
3713.97	0.918
3722.94	0.9174
3731.92	0.9193
3740.89	0.92
3749.86	0.9193
3758.84	0.915
3767.81	0.9157
3776.78	0.9197
3785.76	0.9167
3794.73	0.916
3803.7	0.922
3812.68	0.92
3821.65	0.92
3830.63	0.919
3839.6	0.9168
3848.57	0.919
3857.55	0.9168
3866.52	0.914
3875.49	0.919
3884.47	0.9128
3893.44	0.918
3902.41	0.9171
3911.39	0.915
3920.36	0.915
3929.34	0.916
3938.31	0.9171
3947.28	0.9185
3956.26	0.916
3965.23	0.916
3974.2	0.918
3983.18	0.918
3992.15	0.9185
