Infrared Spectrum: S-(-)-1,1-Diphenylprolinol
Formula: C 17 H 19 N O
CAS: 112068-01-6
State: gas
Origin: EPA-IR VAPOR PHASE LIBRARY
1/CM	ABSORBANCE
549.8	0.01002
559.445	0.01087
569.09	0.01395
578.734	0.01711
588.379	0.02048
598.024	0.02204
607.669	0.02255
617.313	0.02187
626.958	0.02912
636.603	0.04289
646.248	0.02636
655.893	0.03423
665.537	0.03074
675.182	0.02677
684.827	0.03223
694.472	0.10134
704.116	0.10861
713.761	0.03535
723.406	0.02275
733.051	0.02732
742.695	0.05252
752.34	0.0519
761.985	0.03456
771.63	0.02442
781.275	0.01812
790.919	0.01631
800.564	0.01536
810.209	0.01518
819.854	0.01368
829.498	0.01307
839.143	0.01317
848.788	0.01362
858.433	0.01504
868.078	0.017
877.722	0.02097
887.367	0.02423
897.012	0.02042
906.657	0.01862
916.301	0.0156
925.946	0.01248
935.591	0.01017
945.236	0.00932
954.88	0.01029
964.525	0.01131
974.17	0.01431
983.815	0.0193
993.46	0.02439
1003.1	0.02272
1012.75	0.01925
1022.39	0.02088
1032.04	0.02958
1041.68	0.01943
1051.33	0.01587
1060.97	0.02069
1070.62	0.02395
1080.26	0.018
1089.91	0.02135
1099.55	0.03097
1109.2	0.03012
1118.84	0.01991
1128.49	0.01644
1138.13	0.01108
1147.78	0.01325
1157.42	0.01906
1167.07	0.0293
1176.71	0.03721
1186.36	0.03632
1196	0.03008
1205.64	0.02065
1215.29	0.016
1224.93	0.01517
1234.58	0.01653
1244.22	0.01804
1253.87	0.01858
1263.51	0.02137
1273.16	0.02377
1282.8	0.02581
1292.45	0.02414
1302.09	0.02313
1311.74	0.02261
1321.38	0.02315
1331.03	0.02276
1340.67	0.02137
1350.32	0.02079
1359.96	0.02355
1369.61	0.02818
1379.25	0.02882
1388.9	0.03021
1398.54	0.03589
1408.18	0.02538
1417.83	0.01647
1427.47	0.01491
1437.12	0.01901
1446.76	0.03751
1456.41	0.02623
1466.05	0.01607
1475.7	0.01565
1485.34	0.02551
1494.99	0.03225
1504.63	0.01414
1514.28	0.0064
1523.92	0.00439
1533.57	0.00445
1543.21	0.00422
1552.86	0.00314
1562.5	0.0032
1572.15	0.00467
1581.79	0.00804
1591.44	0.01417
1601.08	0.0154
1610.73	0.00652
1620.37	0.00386
1630.01	0.00293
1639.66	0.00255
1649.3	0.00268
1658.95	0.00297
1668.59	0.00307
1678.24	0.00279
1687.88	0.00263
1697.53	0.0025
1707.17	0.00229
1716.82	0.00242
1726.46	0.00248
1736.11	0.00241
1745.75	0.00295
1755.4	0.00313
1765.04	0.00288
1774.69	0.00293
1784.33	0.00331
1793.98	0.00593
1803.62	0.00662
1813.27	0.00436
1822.91	0.00278
1832.55	0.00213
1842.2	0.00234
1851.84	0.0026
1861.49	0.00285
1871.13	0.00362
1880.78	0.00408
1890.42	0.00412
1900.07	0.00352
1909.71	0.00263
1919.36	0.00226
1929	0.00332
1938.65	0.00531
1948.29	0.00581
1957.94	0.00498
1967.58	0.00261
1977.23	0.00182
1986.87	0.00135
1996.52	0.0011
2006.16	0.00133
2015.81	0.00132
2025.45	0.00133
2035.1	0.00111
2044.74	0.00107
2054.38	0.00106
2064.03	0.00103
2073.67	0.00109
2083.32	0.0008735
2092.96	0.0009897
2102.61	0.0009314
2112.25	0.0006755
2121.9	0.0008837
2131.54	0.0009401
2141.19	0.0008906
2150.83	0.0009912
2160.48	0.0008277
2170.12	0.00108
2179.77	0.00109
2189.41	0.0012
2199.06	0.00122
2208.7	0.0009783
2218.35	0.0008933
2227.99	0.0008367
2237.64	0.0008909
2247.28	0.0009957
2256.92	0.00112
2266.57	0.00131
2276.21	0.00114
2285.86	0.0007252
2295.5	0.00107
2305.15	0.00109
2314.79	0.00174
2324.44	0.00138
2334.08	0.0013
2343.73	0.00166
2353.37	0.0013
2363.02	0.00127
2372.66	0.0008264
2382.31	0.0008472
2391.95	0.0008421
2401.6	0.0006523
2411.24	0.0007257
2420.89	0.00105
2430.53	0.0008858
2440.18	0.0007574
2449.82	0.00123
2459.47	0.0008693
2469.11	0.0009675
2478.75	0.0008511
2488.4	0.0007796
2498.04	0.0007794
2507.69	0.0009012
2517.33	0.0008839
2526.98	0.0009869
2536.62	0.0009739
2546.27	0.00125
2555.91	0.00132
2565.56	0.00113
2575.2	0.00144
2584.85	0.00183
2594.49	0.00173
2604.14	0.00199
2613.78	0.00191
2623.43	0.00217
2633.07	0.0022
2642.72	0.00227
2652.36	0.00217
2662.01	0.00243
2671.65	0.00265
2681.29	0.0023
2690.94	0.00233
2700.58	0.00204
2710.23	0.00264
2719.87	0.00279
2729.52	0.00342
2739.16	0.0039
2748.81	0.00431
2758.45	0.00423
2768.1	0.00503
2777.74	0.0052
2787.39	0.0061
2797.03	0.00739
2806.68	0.00955
2816.32	0.01489
2825.97	0.02543
2835.61	0.03558
2845.26	0.03426
2854.9	0.02997
2864.55	0.03004
2874.19	0.0426
2883.84	0.05482
2893.48	0.04223
2903.12	0.035
2912.77	0.03545
2922.41	0.0343
2932.06	0.03373
2941.7	0.0392
2951.35	0.05103
2960.99	0.06181
2970.64	0.06558
2980.28	0.0613
2989.93	0.03682
2999.57	0.01913
3009.22	0.01636
3018.86	0.02317
3028.51	0.03707
3038.15	0.04248
3047.8	0.03255
3057.44	0.04561
3067.09	0.07352
3076.73	0.05114
3086.38	0.03661
3096.02	0.02822
3105.67	0.01534
3115.31	0.00864
3124.95	0.00492
3134.6	0.00384
3144.24	0.0036
3153.89	0.00388
3163.53	0.00356
3173.18	0.00289
3182.82	0.00256
3192.47	0.00264
3202.11	0.00155
3211.76	0.0024
3221.4	0.00148
3231.05	0.00218
3240.69	0.00258
3250.34	0.00234
3259.98	0.00238
3269.63	0.00293
3279.27	0.00288
3288.92	0.00304
3298.56	0.00352
3308.21	0.00323
3317.85	0.00425
3327.49	0.00479
3337.14	0.00595
3346.78	0.00644
3356.43	0.00704
3366.07	0.00719
3375.72	0.00928
3385.36	0.00921
3395.01	0.00884
3404.65	0.0082
3414.3	0.00862
3423.94	0.01071
3433.59	0.01478
3443.23	0.01887
3452.88	0.02089
3462.52	0.01962
3472.17	0.01711
3481.81	0.01416
3491.46	0.01156
3501.1	0.00913
3510.75	0.00784
3520.39	0.00689
3530.04	0.00554
3539.68	0.00439
3549.32	0.00399
3558.97	0.00373
3568.61	0.00274
3578.26	0.00195
3587.9	0.00212
3597.55	0.00208
3607.19	0.0021
3616.84	0.00182
3626.48	0.00318
3636.13	0.00408
3645.77	0.0023
3655.42	0.00173
3665.06	0.00156
3674.71	0.00163
3684.35	0.00138
3694	0.00142
3703.64	0.00149
3713.29	0.00108
3722.93	0.00118
3732.58	0.001
3742.22	0.00141
3751.86	0.00147
3761.51	0.0008468
3771.15	0.0008284
3780.8	0.00108
3790.44	0.0007595
3800.09	0.0007738
3809.73	0.0009651
3819.38	0.0007123
3829.02	0.0004557
3838.67	0.0003458
3848.31	0.0007467
3857.96	0.0008666
3867.6	0.0008392
3877.25	0.0008824
3886.89	0.00103
3896.54	0.00107
3906.18	0.0008436
3915.83	0.0005844
3925.47	0.0007532
3935.12	0.00102
3944.76	0.00106
3954.41	8.095e-05
3964.05	0.0007169
3973.69	0.00115
3983.34	0.00122
3992.98	0.00122
