Infrared Spectrum: as-Triazine, 3-amino-
Formula: C3 H4 N4
CAS: 1120-99-6
State: SOLID (SPLIT MULL), FLUOROLUBE FOR 3800-1330 CM^-^1, NUJOL FOR 1330-400 CM^-^1
Class: COBLENTZ III
Instrument: DOW KBr FOREPRISM-GRATING
Instrument parameters: BLAZED AT 3.5, 12.0, 20.0 MICRON AND CHANGED AT 5.0, 7.5, 14.9 MICRON
Sampling: TRANSMISSION
Resolution: 2
Origin: DOW CHEMICAL COMPANY
1/CM	TRANSMITTANCE
385	0.7375
394	0.7393
403	0.743
412	0.7464
421	0.7467
430	0.7422
439	0.7291
448	0.6765
457	0.3607
466	0.1063
475	0.7172
484	0.8525
493	0.8607
502	0.8578
511	0.8506
520	0.835
529	0.8137
538	0.7778
547	0.6997
556	0.7496
565	0.7303
574	0.6757
583	0.6168
592	0.3814
601	0.5821
610	0.5241
619	0.4296
628	0.3159
637	0.2094
646	0.1624
655	0.1834
664	0.1521
673	0.1683
682	0.2563
691	0.3194
700	0.4049
709	0.4853
718	0.5378
727	0.5759
736	0.6282
745	0.6855
754	0.7224
763	0.7495
772	0.775
781	0.7897
790	0.7801
799	0.4416
808	0.7839
817	0.8306
826	0.8364
835	0.8312
844	0.8093
853	0.7618
862	0.5018
871	0.323
880	0.8662
889	0.8765
898	0.8764
907	0.8728
916	0.8627
925	0.8509
934	0.8321
943	0.8333
952	0.8278
961	0.8112
970	0.7914
979	0.7467
988	0.7918
997	0.7843
1006	0.7647
1015	0.718
1024	0.6912
1033	0.5362
1042	0.3275
1051	0.1336
1060	0.452
1069	0.4844
1078	0.274
1087	0.6451
1096	0.611
1105	0.5929
1114	0.2552
1123	0.1321
1132	0.6588
1141	0.673
1150	0.6528
1159	0.6321
1168	0.633
1177	0.6403
1186	0.6371
1195	0.625
1204	0.6012
1213	0.5431
1222	0.5728
1231	0.5616
1240	0.5421
1249	0.5212
1258	0.4994
1267	0.4884
1276	0.4859
1285	0.4838
1294	0.4687
1303	0.4583
1312	0.4345
1321	0.3119
1330	0.2101
1339	0.5307
1348	0.5252
1357	0.576
1366	0.5738
1375	0.5508
1384	0.5688
1393	0.5538
1402	0.4976
1411	0.4905
1420	0.4924
1429	0.4609
1438	0.4223
1447	0.3777
1456	0.2972
1465	0.3089
1474	0.2569
1483	0.1579
1492	0.0711
1501	0.1452
1510	0.3512
1519	0.274
1528	0.2365
1537	0.2341
1546	0.3654
1555	0.0943
1564	0.2073
1573	0.3223
1582	0.3371
1591	0.4288
1600	0.5849
1609	0.5776
1618	0.5369
1627	0.4416
1636	0.2803
1645	0.0905
1654	0.1323
1663	0.3734
1672	0.5565
1681	0.6818
1690	0.756
1699	0.7947
1708	0.8271
1717	0.8718
1726	0.8881
1735	0.9064
1744	0.9113
1753	0.9123
1762	0.9101
1771	0.906
1780	0.8998
1789	0.8935
1798	0.8873
1807	0.8808
1816	0.8725
1825	0.8602
1834	0.8621
1843	0.8654
1852	0.8589
1861	0.8478
1870	0.8397
1879	0.8516
1888	0.8477
1897	0.8396
1906	0.8344
1915	0.8295
1924	0.8236
1933	0.8165
1942	0.8092
1951	0.7904
1960	0.8003
1969	0.801
1978	0.7949
1987	0.7861
1996	0.7917
2005	0.7895
2014	0.7835
2023	0.7775
2032	0.7711
2041	0.7639
2050	0.7539
2059	0.7431
2068	0.736
2077	0.7301
2086	0.7136
2095	0.6604
2104	0.6586
2113	0.6905
2122	0.6868
2131	0.6797
2140	0.6997
2149	0.6999
2158	0.6985
2167	0.7028
2176	0.708
2185	0.705
2194	0.7021
2203	0.703
2212	0.6994
2221	0.6905
2230	0.6818
2239	0.6764
2248	0.6714
2257	0.6661
2266	0.6621
2275	0.6582
2284	0.6536
2293	0.6485
2302	0.6422
2311	0.6344
2320	0.6266
2329	0.6245
2338	0.6226
2347	0.6208
2356	0.619
2365	0.617
2374	0.6149
2383	0.6115
2392	0.6058
2401	0.5998
2410	0.5974
2419	0.5964
2428	0.596
2437	0.5939
2446	0.5903
2455	0.5865
2464	0.5818
2473	0.577
2482	0.5721
2491	0.5669
2500	0.5616
2509	0.5571
2518	0.5573
2527	0.556
2536	0.552
2545	0.5471
2554	0.5415
2563	0.5358
2572	0.5299
2581	0.5238
2590	0.5178
2599	0.5117
2608	0.5055
2617	0.4993
2626	0.4931
2635	0.4848
2644	0.4759
2653	0.4662
2662	0.4565
2671	0.4467
2680	0.4369
2689	0.4249
2698	0.413
2707	0.4009
2716	0.3896
2725	0.4038
2734	0.4162
2743	0.418
2752	0.4368
2761	0.4386
2770	0.4339
2779	0.4279
2788	0.422
2797	0.4139
2806	0.4056
2815	0.3973
2824	0.3871
2833	0.3737
2842	0.359
2851	0.3362
2860	0.3191
2869	0.3262
2878	0.332
2887	0.3364
2896	0.3354
2905	0.3275
2914	0.3187
2923	0.3088
2932	0.2973
2941	0.2835
2950	0.2699
2959	0.256
2968	0.2383
2977	0.2216
2986	0.2064
2995	0.1928
3004	0.1794
3013	0.1664
3022	0.1529
3031	0.138
3040	0.1235
3049	0.1092
3058	0.0953
3067	0.0818
3076	0.0677
3085	0.0544
3094	0.0449
3103	0.0457
3112	0.0493
3121	0.0548
3130	0.0637
3139	0.0742
3148	0.0846
3157	0.0959
3166	0.1089
3175	0.1206
3184	0.1316
3193	0.142
3202	0.1507
3211	0.1561
3220	0.1568
3229	0.1554
3238	0.1511
3247	0.1427
3256	0.1294
3265	0.1142
3274	0.0984
3283	0.0794
3292	0.0586
3301	0.0437
3310	0.0432
3319	0.0558
3328	0.0895
3337	0.1198
3346	0.1906
3355	0.2464
3364	0.3397
3373	0.405
3382	0.4546
3391	0.4897
3400	0.5169
3409	0.5382
3418	0.5542
3427	0.5673
3436	0.5784
3445	0.5855
3454	0.588
3463	0.5894
3472	0.5888
3481	0.5872
3490	0.5843
3499	0.5806
3508	0.5769
3517	0.5723
3526	0.5675
3535	0.5631
3544	0.5587
3553	0.5548
3562	0.5512
3571	0.5475
3580	0.5444
3589	0.5414
3598	0.5385
3607	0.5351
3616	0.5318
3625	0.5284
3634	0.5251
3643	0.5219
3652	0.5188
3661	0.5156
3670	0.5122
3679	0.5086
3688	0.5051
3697	0.5016
3706	0.498
3715	0.4949
3724	0.492
3733	0.4889
3742	0.486
3751	0.4832
3760	0.4804
3769	0.4775
3778	0.4746
3787	0.4717
3796	0.4691
