Infrared Spectrum: S-(-)-2-Methyl-CBS-oxazaborolidine
Formula: C 18 H 20 B N O
CAS: 112022-83-0
State: gas
Origin: EPA-IR VAPOR PHASE LIBRARY
1/CM	ABSORBANCE
549.8	0.002858
559.445	0.003698
569.09	0.003068
578.734	0.003798
588.379	0.004048
598.024	0.004538
607.669	0.006048
617.313	0.009018
626.958	0.011338
636.603	0.015168
646.248	0.008478
655.893	0.009858
665.537	0.011378
675.182	0.012188
684.827	0.019938
694.472	0.055618
704.116	0.058478
713.761	0.021198
723.406	0.011188
733.051	0.013538
742.695	0.028858
752.34	0.032178
761.985	0.019088
771.63	0.013908
781.275	0.011638
790.919	0.007478
800.564	0.005548
810.209	0.004118
819.854	0.004988
829.498	0.004868
839.143	0.004928
848.788	0.005158
858.433	0.005118
868.078	0.006188
877.722	0.009028
887.367	0.015168
897.012	0.018928
906.657	0.016748
916.301	0.012128
925.946	0.009068
935.591	0.006678
945.236	0.005768
954.88	0.005978
964.525	0.008358
974.17	0.011908
983.815	0.021548
993.46	0.045218
1003.1	0.045478
1012.75	0.017798
1022.39	0.009758
1032.04	0.012968
1041.68	0.007628
1051.33	0.005428
1060.97	0.007408
1070.62	0.007508
1080.26	0.003768
1089.91	0.006468
1099.55	0.004118
1109.2	0.006978
1118.84	0.008868
1128.49	0.009228
1138.13	0.017808
1147.78	0.017978
1157.42	0.013988
1167.07	0.014358
1176.71	0.021288
1186.36	0.025388
1196	0.020648
1205.64	0.021228
1215.29	0.026358
1224.93	0.044318
1234.58	0.087598
1244.22	0.133998
1253.87	0.083338
1263.51	0.050878
1273.16	0.034528
1282.8	0.025008
1292.45	0.024448
1302.09	0.031938
1311.74	0.057958
1321.38	0.077798
1331.03	0.072678
1340.67	0.086878
1350.32	0.071628
1359.96	0.062958
1369.61	0.045048
1379.25	0.030078
1388.9	0.025758
1398.54	0.028098
1408.18	0.035908
1417.83	0.050528
1427.47	0.066188
1437.12	0.075188
1446.76	0.085468
1456.41	0.075748
1466.05	0.055588
1475.7	0.041438
1485.34	0.044438
1494.99	0.042698
1504.63	0.024548
1514.28	0.012778
1523.92	0.009308
1533.57	0.007728
1543.21	0.006848
1552.86	0.005798
1562.5	0.005328
1572.15	0.005918
1581.79	0.007088
1591.44	0.009768
1601.08	0.011058
1610.73	0.006268
1620.37	0.003838
1630.01	0.003468
1639.66	0.002748
1649.3	0.002698
1658.95	0.003038
1668.59	0.002778
1678.24	0.002598
1687.88	0.002348
1697.53	0.002298
1707.17	0.002018
1716.82	0.002138
1726.46	0.002448
1736.11	0.002598
1745.75	0.002758
1755.4	0.002618
1765.04	0.002758
1774.69	0.003168
1784.33	0.003248
1793.98	0.004698
1803.62	0.005198
1813.27	0.003618
1822.91	0.002558
1832.55	0.002308
1842.2	0.002188
1851.84	0.002548
1861.49	0.002978
1871.13	0.003578
1880.78	0.003788
1890.42	0.003378
1900.07	0.002708
1909.71	0.002528
1919.36	0.002308
1929	0.002908
1938.65	0.004558
1948.29	0.005168
1957.94	0.004198
1967.58	0.002308
1977.23	0.002138
1986.87	0.002248
1996.52	0.001998
2006.16	0.002168
2015.81	0.001978
2025.45	0.002098
2035.1	0.0019237
2044.74	0.0019418
2054.38	0.0018878
2064.03	0.001869
2073.67	0.0019343
2083.32	0.001978
2092.96	0.0016985
2102.61	0.0019011
2112.25	0.0018941
2121.9	0.0017461
2131.54	0.0017474
2141.19	0.002288
2150.83	0.0018739
2160.48	0.0018026
2170.12	0.0017205
2179.77	0.002058
2189.41	0.002048
2199.06	0.0016947
2208.7	0.0016796
2218.35	0.0016806
2227.99	0.0018208
2237.64	0.0015092
2247.28	0.0016292
2256.92	0.0017374
2266.57	0.0017902
2276.21	0.0019471
2285.86	0.0019512
2295.5	0.0016971
2305.15	0.0016435
2314.79	0.002018
2324.44	0.0016315
2334.08	0.0016954
2343.73	0.0018722
2353.37	0.0016393
2363.02	0.0018663
2372.66	0.0016158
2382.31	0.0013867
2391.95	0.0017167
2401.6	0.0017875
2411.24	0.0016635
2420.89	0.0016872
2430.53	0.001442
2440.18	0.0018953
2449.82	0.0014501
2459.47	0.0018757
2469.11	0.0018639
2478.75	0.002078
2488.4	0.001978
2498.04	0.001706
2507.69	0.0017692
2517.33	0.0016866
2526.98	0.0016451
2536.62	0.0015764
2546.27	0.0018652
2555.91	0.0018175
2565.56	0.0017858
2575.2	0.001968
2584.85	0.002028
2594.49	0.0017277
2604.14	0.002338
2613.78	0.001978
2623.43	0.002068
2633.07	0.002378
2642.72	0.002338
2652.36	0.002388
2662.01	0.002078
2671.65	0.0017997
2681.29	0.002458
2690.94	0.0018536
2700.58	0.002168
2710.23	0.0018351
2719.87	0.002148
2729.52	0.002018
2739.16	0.002138
2748.81	0.002578
2758.45	0.002698
2768.1	0.003298
2777.74	0.003068
2787.39	0.003348
2797.03	0.004288
2806.68	0.003958
2816.32	0.004818
2825.97	0.005438
2835.61	0.007138
2845.26	0.010058
2854.9	0.016558
2864.55	0.026758
2874.19	0.047198
2883.84	0.058868
2893.48	0.038048
2903.12	0.027688
2912.77	0.025388
2922.41	0.024528
2932.06	0.026198
2941.7	0.033618
2951.35	0.038108
2960.99	0.043748
2970.64	0.056428
2980.28	0.040978
2989.93	0.019658
2999.57	0.015028
3009.22	0.013608
3018.86	0.018128
3028.51	0.026738
3038.15	0.029798
3047.8	0.021698
3057.44	0.029758
3067.09	0.050558
3076.73	0.034958
3086.38	0.024068
3096.02	0.018818
3105.67	0.010178
3115.31	0.006918
3124.95	0.003788
3134.6	0.002688
3144.24	0.002818
3153.89	0.002708
3163.53	0.0018637
3173.18	0.0015537
3182.82	0.0009532
3192.47	0.0016355
3202.11	0.0016463
3211.76	0.0013349
3221.4	0.0012141
3231.05	0.0015291
3240.69	0.0013718
3250.34	0.0015294
3259.98	0.0014712
3269.63	0.0013748
3279.27	0.0013402
3288.92	0.0012861
3298.56	0.0011789
3308.21	0.0014436
3317.85	0.0013957
3327.49	0.0015951
3337.14	0.0017158
3346.78	0.0011263
3356.43	0.00082
3366.07	0.0009348
3375.72	0.000751
3385.36	0.000588
3395.01	0.0013851
3404.65	0.00106214
3414.3	0.0010994
3423.94	0.0016333
3433.59	0.0012791
3443.23	0.0015255
3452.88	0.001343
3462.52	0.0009216
3472.17	0.001195
3481.81	0.001086
3491.46	0.000798
3501.1	0.000736
3510.75	0.0010849
3520.39	0.0011448
3530.04	0.0011623
3539.68	0.0007
3549.32	0.0011449
3558.97	0.0014447
3568.61	0.000546
3578.26	0.0013389
3587.9	0.00096692
3597.55	0.0011972
3607.19	0.000703
3616.84	0.00075
3626.48	0.0012824
3636.13	0.0013498
3645.77	0.0010705
3655.42	0.0009358
3665.06	0.000829
3674.71	0.001154
3684.35	0.0016419
3694	0.0015896
3703.64	0.0013913
3713.29	0.001161
3722.93	0.0011263
3732.58	0.0014487
3742.22	0.0012756
3751.86	0.0014013
3761.51	0.0015096
3771.15	0.0017443
3780.8	0.000798
3790.44	0.00100515
3800.09	0.000789
3809.73	0.0017194
3819.38	0.0014386
3829.02	0.0012923
3838.67	0.0012001
3848.31	0.001201
3857.96	0.0013669
3867.6	0.0011138
3877.25	0.000801
3886.89	0.0012006
3896.54	0.000764
3906.18	0.000645
3915.83	0.0008
3925.47	0.0004
3935.12	0.0015785
3944.76	0.0012862
3954.41	0.0013042
3964.05	0.00099029
3973.69	0.0010871
3983.34	0.0013368
3992.98	0.001998
