Infrared Spectrum: 2-Methylcyclopentanone
Formula: C 6 H 10 O
CAS: 1120-72-5
State: gas
Instrument: HP-GC/MS/IRD
Origin: NIST Mass Spectrometry Data Center
1/CM	ABSORBANCE
550	0.0006293
562	0.0003973
574	0.00029
586	0.000174
598	0.0002668
610	0.00029
622	0.0002697
634	0.0002349
646	0.0001624
658	5.22e-05
670	8.12e-05
682	4.93e-05
694	0.0001943
706	0.000174
718	0.0001711
730	0.0001247
742	0.0001363
754	0.0001943
766	0.0001769
778	0.0002987
790	0.0005684
802	0.0009628
814	0.0010092
826	0.0006902
838	0.000319
850	0.0002639
862	0.0003248
874	0.0004176
886	0.0004292
898	0.0005307
910	0.0010469
922	0.0015109
934	0.0012934
946	0.0006235
958	0.0004118
970	0.0004379
982	0.0005684
994	0.0007801
1006	0.0010034
1018	0.0013456
1030	0.0018009
1042	0.0019778
1054	0.0016791
1066	0.0010295
1078	0.0008497
1090	0.0008845
1102	0.0010788
1114	0.0014703
1126	0.0025723
1138	0.0045588
1150	0.0058145
1162	0.0050634
1174	0.0030102
1186	0.0015138
1198	0.0008352
1210	0.0006206
1222	0.000551
1234	0.00058
1246	0.0007685
1258	0.0009976
1270	0.00116
1282	0.0010585
1294	0.0007859
1306	0.0008236
1318	0.0010585
1330	0.0010556
1342	0.0008439
1354	0.0006293
1366	0.0008207
1378	0.0011658
1390	0.0011919
1402	0.0013166
1414	0.0016936
1426	0.0016617
1438	0.0015892
1450	0.002088
1462	0.0026361
1474	0.0020503
1486	0.0011861
1498	0.0005162
1510	0.000261
1522	0.0001827
1534	0.0001334
1546	0.0001015
1558	0.0001392
1570	0.0001015
1582	0.0001276
1594	0.0001218
1606	0.0001885
1618	0.0002117
1630	0.0002494
1642	0.0002523
1654	0.0002987
1666	0.0004031
1678	0.00058
1690	0.0008294
1702	0.0012528
1714	0.0022069
1726	0.0050866
1738	0.0136735
1750	0.025897
1762	0.0287941
1774	0.0185136
1786	0.0048111
1798	0.0016414
1810	0.0010295
1822	0.000812
1834	0.0006467
1846	0.000406
1858	0.0002697
1870	0.0001972
1882	0.0001566
1894	0.0001479
1906	0.000145
1918	0.0001218
1930	0.0001276
1942	0.0001392
1954	0.0001595
1966	0.0001566
1978	0.0001334
1990	0.0001102
2002	7.83e-05
2014	6.96e-05
2026	6.38e-05
2038	4.64e-05
2050	3.77e-05
2062	3.77e-05
2074	2.61e-05
2086	2.32e-05
2098	1.74e-05
2110	8.7e-06
2122	2.9e-06
2134	1.45e-05
2146	1.16e-05
2158	5.22e-05
2170	2.9e-05
2182	5.22e-05
2194	7.25e-05
2206	7.54e-05
2218	5.22e-05
2230	4.35e-05
2242	5.51e-05
2254	4.06e-05
2266	5.8e-05
2278	6.09e-05
2290	8.12e-05
2302	6.96e-05
2314	6.96e-05
2326	4.35e-05
2338	2.61e-05
2350	4.35e-05
2362	2.9e-05
2374	3.19e-05
2386	5.8e-05
2398	3.77e-05
2410	3.77e-05
2422	4.93e-05
2434	6.38e-05
2446	4.93e-05
2458	5.8e-05
2470	5.51e-05
2482	2.03e-05
2494	2.9e-06
2506	8.7e-06
2518	1.45e-05
2530	8.7e-06
2542	2.03e-05
2554	2.32e-05
2566	2.32e-05
2578	3.77e-05
2590	1.74e-05
2602	4.35e-05
2614	1.74e-05
2626	6.96e-05
2638	4.64e-05
2650	2.9e-05
2662	2.9e-05
2674	3.48e-05
2686	2.61e-05
2698	4.64e-05
2710	6.96e-05
2722	8.99e-05
2734	0.0001798
2746	0.0001943
2758	0.0002001
2770	0.0001914
2782	0.0002117
2794	0.0003364
2806	0.0004321
2818	0.0005945
2830	0.000696
2842	0.0010672
2854	0.0021982
2866	0.0047096
2878	0.007337
2890	0.0077256
2902	0.0060784
2914	0.0053969
2926	0.0066816
2938	0.0091234
2950	0.0130558
2962	0.0170665
2974	0.0194213
2986	0.0117914
2998	0.0045733
3010	0.0014297
3022	0.0008178
3034	0.0006786
3046	0.0006032
3058	0.0004988
3070	0.0003857
3082	0.0003422
3094	0.0003219
3106	0.0002494
3118	0.0002349
3130	0.000232
3142	0.0002175
3154	0.0002262
3166	0.0002088
3178	0.0001305
3190	6.67e-05
3202	8.99e-05
3214	6.38e-05
3226	4.64e-05
3238	6.09e-05
3250	3.19e-05
3262	4.06e-05
3274	3.77e-05
3286	1.45e-05
3298	4.06e-05
3310	6.09e-05
3322	5.22e-05
3334	4.93e-05
3346	3.48e-05
3358	2.32e-05
3370	5.8e-06
3382	3.48e-05
3394	1.45e-05
3406	8.99e-05
3418	7.25e-05
3430	9.57e-05
3442	0.0001218
3454	0.0001363
3466	0.0002552
3478	0.000435
3490	0.0006264
3502	0.0006438
3514	0.0004408
3526	0.00029
3538	0.0002088
3550	0.0001508
3562	0.000116
3574	0.0001073
3586	4.35e-05
3598	2.9e-05
3610	4.35e-05
3622	3.19e-05
3634	2.61e-05
3646	4.35e-05
3658	4.35e-05
3670	4.93e-05
3682	6.96e-05
3694	7.83e-05
3706	8.41e-05
3718	8.41e-05
3730	2.9e-05
3742	6.96e-05
3754	9.28e-05
3766	7.83e-05
3778	5.8e-05
3790	8.12e-05
3802	5.8e-05
3814	5.22e-05
3826	4.06e-05
3838	8.99e-05
