Infrared Spectrum: 1,1-Dichloro-2,3-dimethylcyclopropane
Formula: C 5 H 8 Cl 2
CAS: 1120-68-9
State: gas
Instrument: HP-GC/MS/IRD
Origin: NIST Mass Spectrometry Data Center
1/CM	ABSORBANCE
550	0.0003104
562	0.0003144
574	0.000212
586	0.0001688
598	0.000128
610	0.0001144
622	0.00014
634	2.48e-05
646	0.000112
658	0.0001352
670	5.76e-05
682	8.8e-05
694	0.0001616
706	9.04e-05
718	0.0001152
730	8.8e-05
742	0.0001952
754	0.0002728
766	0.0005808
778	0.0012576
790	0.0032136
802	0.0067608
814	0.007472
826	0.0032616
838	0.0013216
850	0.0006608
862	0.0002576
874	0.0001472
886	0.0001944
898	0.0001688
910	0.0002624
922	0.0005
934	0.0010984
946	0.0024416
958	0.0042672
970	0.0037984
982	0.0018096
994	0.0008392
1006	0.0006336
1018	0.0005328
1030	0.0004344
1042	0.0003904
1054	0.0004064
1066	0.0007544
1078	0.0013504
1090	0.001412
1102	0.0008544
1114	0.000688
1126	0.0011248
1138	0.0021088
1150	0.0018192
1162	0.0005992
1174	0.0002136
1186	0.0001648
1198	0.0004448
1210	0.000788
1222	0.0010792
1234	0.0007192
1246	0.0003536
1258	0.000264
1270	0.00022
1282	0.0002256
1294	0.0003152
1306	0.0004808
1318	0.0004992
1330	0.0003568
1342	0.0002328
1354	0.0001792
1366	0.0002384
1378	0.000512
1390	0.000736
1402	0.0004864
1414	0.0002936
1426	0.0004616
1438	0.0009992
1450	0.0019352
1462	0.0021208
1474	0.0012816
1486	0.0005584
1498	0.000228
1510	0.0001584
1522	0.00016
1534	0.000132
1546	0.0001408
1558	0.0001928
1570	0.0002056
1582	0.000272
1594	0.0002856
1606	0.0002584
1618	0.0001928
1630	0.000144
1642	9.36e-05
1654	0.0001088
1666	6.56e-05
1678	4.96e-05
1690	3.68e-05
1702	3.68e-05
1714	2.08e-05
1726	2e-05
1738	3.92e-05
1750	5.36e-05
1762	3.04e-05
1774	8e-05
1786	5.44e-05
1798	2e-05
1810	4.4e-05
1822	3.68e-05
1834	1.04e-05
1846	1.84e-05
1858	2.56e-05
1870	2.08e-05
1882	4.08e-05
1894	3.04e-05
1906	3.44e-05
1918	2.08e-05
1930	2.56e-05
1942	4.48e-05
1954	3.84e-05
1966	2.72e-05
1978	2e-05
1990	2.16e-05
2002	2.56e-05
2014	3.28e-05
2026	3.84e-05
2038	5.12e-05
2050	7.36e-05
2062	3.2e-05
2074	6.88e-05
2086	4.4e-05
2098	7.12e-05
2110	5.44e-05
2122	5.04e-05
2134	5.44e-05
2146	9.52e-05
2158	0.000104
2170	8.32e-05
2182	6.88e-05
2194	6e-05
2206	6.48e-05
2218	5.2e-05
2230	3.92e-05
2242	4.24e-05
2254	3.6e-05
2266	1.68e-05
2278	4.08e-05
2290	2.08e-05
2302	3.68e-05
2314	4.08e-05
2326	4.88e-05
2338	6.88e-05
2350	4.88e-05
2362	5.6e-05
2374	3.36e-05
2386	7.28e-05
2398	7.12e-05
2410	2.48e-05
2422	3.68e-05
2434	5.76e-05
2446	4e-05
2458	4.56e-05
2470	5.2e-05
2482	5.2e-05
2494	2.88e-05
2506	3.2e-05
2518	4.32e-05
2530	6.4e-05
2542	7.68e-05
2554	1.76e-05
2566	1.68e-05
2578	3.6e-05
2590	2.08e-05
2602	2.24e-05
2614	4e-05
2626	3.36e-05
2638	2.96e-05
2650	3.84e-05
2662	1.6e-06
2674	6.72e-05
2686	4.32e-05
2698	9.84e-05
2710	8.56e-05
2722	7.92e-05
2734	0.0001112
2746	0.0002368
2758	0.0002768
2770	0.0001096
2782	0.0001184
2794	0.0001424
2806	0.000164
2818	0.0002872
2830	0.000368
2842	0.0004288
2854	0.0005936
2866	0.0011456
2878	0.002136
2890	0.0024112
2902	0.0019016
2914	0.0018704
2926	0.003132
2938	0.0051104
2950	0.0044512
2962	0.0037848
2974	0.0045976
2986	0.003492
2998	0.001848
3010	0.0019416
3022	0.0019256
3034	0.0009592
3046	0.0004296
3058	0.0003448
3070	0.0004248
3082	0.000384
3094	0.000412
3106	0.0004048
3118	0.0003504
3130	0.000332
3142	0.0002
3154	0.0001344
3166	0.0001624
3178	0.0001456
3190	1.92e-05
3202	7.76e-05
3214	8.32e-05
3226	4.88e-05
3238	7.36e-05
3250	7.92e-05
3262	8.88e-05
3274	2.88e-05
3286	5.76e-05
3298	0.000108
3310	6.72e-05
3322	8e-07
3334	7.6e-05
3346	6.4e-05
3358	4e-05
3370	8.4e-05
3382	7.2e-05
3394	2.56e-05
3406	0.0001256
3418	0.0001136
3430	7.28e-05
3442	0.0001384
3454	8.4e-05
3466	9.44e-05
3478	0.0001032
3490	9.52e-05
3502	0.000112
3514	7.44e-05
3526	1.28e-05
3538	0.0001248
3550	7.52e-05
3562	7.44e-05
3574	9.6e-05
3586	8.56e-05
3598	5.92e-05
3610	9.68e-05
3622	0.0001248
3634	0.0001088
3646	9.12e-05
3658	0.0001328
3670	0.0001288
3682	0.0001216
3694	0.0001208
3706	9.28e-05
3718	0.0001472
3730	8.72e-05
3742	0.0001128
3754	5.36e-05
3766	0.000156
3778	0.0001552
3790	0.0001024
3802	0.0001584
3814	0.0001368
3826	7.44e-05
3838	8e-05
