Infrared Spectrum: 4-Methylpyridazine
Formula: C 5 H 6 N 2
CAS: 1120-88-3
State: gas
Origin: EPA-IR VAPOR PHASE LIBRARY
1/CM	ABSORBANCE
549.8	0.0028
559.445	0.00256
569.09	0
578.734	0.00277
588.379	0.0017602
598.024	0.0018345
607.669	0.0023307
617.313	0.0014735
626.958	0.001091
636.603	0.0013
646.248	0.0022097
655.893	0.00383
665.537	0.0035
675.182	0.0031
684.827	0.0027
694.472	0.0014976
704.116	0.00158881
713.761	0.0017923
723.406	0.00153427
733.051	0.0018314
742.695	0.0019868
752.34	0.001347
761.985	0.001346
771.63	0.0018811
781.275	0.00255
790.919	0.00271
800.564	0.00497
810.209	0.00727
819.854	0.01516
829.498	0.00953
839.143	0.00735
848.788	0.00515
858.433	0.0022634
868.078	0.0018379
877.722	0.0016658
887.367	0.0017977
897.012	0.001403
906.657	0.0025212
916.301	0.0017954
925.946	0.00261
935.591	0.00305
945.236	0.00432
954.88	0.00598
964.525	0.00697
974.17	0.00644
983.815	0.00566
993.46	0.00482
1003.1	0.00474
1012.75	0.00415
1022.39	0.0024119
1032.04	0.00344
1041.68	0.0063
1051.33	0.00641
1060.97	0.00585
1070.62	0.00444
1080.26	0.0022169
1089.91	0.00302
1099.55	0.00262
1109.2	0.00469
1118.84	0.0025331
1128.49	0.00155806
1138.13	0.0017466
1147.78	0.001376
1157.42	0.0017597
1167.07	0.001149
1176.71	0.0015246
1186.36	0.00309
1196	0.001399
1205.64	0.00374
1215.29	0.0020631
1224.93	0.0019459
1234.58	0.0023865
1244.22	0.001228
1253.87	0.0024647
1263.51	0.00294
1273.16	0.00158062
1282.8	0.0019938
1292.45	0.0027
1302.09	0.0017523
1311.74	0.0019161
1321.38	0.0019127
1331.03	0.00319
1340.67	0.00557
1350.32	0.00686
1359.96	0.00734
1369.61	0.00756
1379.25	0.00658
1388.9	0.00614
1398.54	0.00566
1408.18	0.00429
1417.83	0.0042
1427.47	0.00411
1437.12	0.00423
1446.76	0.00486
1456.41	0.00479
1466.05	0.00414
1475.7	0.00371
1485.34	0.00366
1494.99	0.00357
1504.63	0.00359
1514.28	0.00371
1523.92	0.00336
1533.57	0.00361
1543.21	0.00446
1552.86	0.00518
1562.5	0.00722
1572.15	0.01372
1581.79	0.01717
1591.44	0.01682
1601.08	0.01225
1610.73	0.00432
1620.37	0.00274
1630.01	0.00263
1639.66	0.0024338
1649.3	0.0024144
1658.95	0.0018558
1668.59	0.002074
1678.24	0.00186
1687.88	0.0017449
1697.53	0.0018996
1707.17	0.0018027
1716.82	0.0020375
1726.46	0.0021734
1736.11	0.0021438
1745.75	0.0019436
1755.4	0.0018535
1765.04	0.0020652
1774.69	0.00162103
1784.33	0.0018534
1793.98	0.0016914
1803.62	0.00139
1813.27	0.0018161
1822.91	0.0018626
1832.55	0.0020352
1842.2	0.0020312
1851.84	0.0019085
1861.49	0.001835
1871.13	0.002132
1880.78	0.0020862
1890.42	0.0018742
1900.07	0.0021704
1909.71	0.0023588
1919.36	0.0029
1929	0.00268
1938.65	0.00261
1948.29	0.0022515
1957.94	0.0020308
1967.58	0.0018753
1977.23	0.0018582
1986.87	0.0019541
1996.52	0.00160132
2006.16	0.00160539
2015.81	0.00161432
2025.45	0.0018777
2035.1	0.0018343
2044.74	0.0019809
2054.38	0.0018456
2064.03	0.001874
2073.67	0.0018837
2083.32	0.0019741
2092.96	0.0021027
2102.61	0.0020824
2112.25	0.0022374
2121.9	0.0020188
2131.54	0.0017523
2141.19	0.0017296
2150.83	0.001692
2160.48	0.001837
2170.12	0.001457
2179.77	0.0015936
2189.41	0.001838
2199.06	0.0020348
2208.7	0.0017779
2218.35	0.0018897
2227.99	0.0018543
2237.64	0.0018616
2247.28	0.0018539
2256.92	0.0020431
2266.57	0.0019619
2276.21	0.0019828
2285.86	0.0017436
2295.5	0.0017218
2305.15	0.0015166
2314.79	0.0017166
2324.44	0.0016946
2334.08	0.0015034
2343.73	0.0014516
2353.37	0.0017104
2363.02	0.0016564
2372.66	0.0014876
2382.31	0.00163159
2391.95	0.0018925
2401.6	0.0018978
2411.24	0.0014981
2420.89	0.00154799
2430.53	0.0018698
2440.18	0.00163345
2449.82	0.0020037
2459.47	0.0017391
2469.11	0.0015266
2478.75	0.001859
2488.4	0.00155028
2498.04	0.00159594
2507.69	0.0019373
2517.33	0.0015735
2526.98	0.0016726
2536.62	0.0015644
2546.27	0.0017111
2555.91	0.00155744
2565.56	0.0016718
2575.2	0.0016855
2584.85	0.001374
2594.49	0.0020961
2604.14	0.0018778
2613.78	0.001243
2623.43	0.0017593
2633.07	0.001407
2642.72	0.00156136
2652.36	0.00155721
2662.01	0.0017126
2671.65	0.0014805
2681.29	0.00158139
2690.94	0.001353
2700.58	0.00155832
2710.23	0.00163947
2719.87	0.0019362
2729.52	0.001414
2739.16	0.0021556
2748.81	0.001807
2758.45	0.0016968
2768.1	0.001604
2777.74	0.0015075
2787.39	0.001169
2797.03	0.0020337
2806.68	0.0016957
2816.32	0.002208
2825.97	0.0019606
2835.61	0.0021746
2845.26	0.0023041
2854.9	0.00284
2864.55	0.0035
2874.19	0.00377
2883.84	0.0048
2893.48	0.00428
2903.12	0.00461
2912.77	0.00541
2922.41	0.00754
2932.06	0.00893
2941.7	0.00917
2951.35	0.00801
2960.99	0.00668
2970.64	0.00601
2980.28	0.00647
2989.93	0.00693
2999.57	0.00694
3009.22	0.00764
3018.86	0.00843
3028.51	0.00943
3038.15	0.01157
3047.8	0.01396
3057.44	0.0157
3067.09	0.0142
3076.73	0.01171
3086.38	0.00711
3096.02	0.00453
3105.67	0.00313
3115.31	0.0021883
3124.95	0.0022599
3134.6	0.0019678
3144.24	0.0016765
3153.89	0.00162398
3163.53	0.0021618
3173.18	0.0016368
3182.82	0.0017828
3192.47	0.001062
3202.11	0.001265
3211.76	0.00142
3221.4	0.0017544
3231.05	0.00156489
3240.69	0.001385
3250.34	0.001226
3259.98	0.000994
3269.63	0.001282
3279.27	0.001355
3288.92	0.0018649
3298.56	0.001221
3308.21	0.001358
3317.85	0.0018434
3327.49	0.001805
3337.14	0.00161105
3346.78	0.001643
3356.43	0.0017776
3366.07	0.0017184
3375.72	0.0018565
3385.36	0.0019195
3395.01	0.0015097
3404.65	0.00159924
3414.3	0.0016496
3423.94	0.001194
3433.59	0.001176
3443.23	0.0016501
3452.88	0.0016974
3462.52	0.001382
3472.17	0.0019494
3481.81	0.0019301
3491.46	0.001011
3501.1	0.0019776
3510.75	0.0012
3520.39	0.0022786
3530.04	0.002129
3539.68	0.0016897
3549.32	0.001317
3558.97	0.0020892
3568.61	0.000999
3578.26	0.0021117
3587.9	0.001408
3597.55	0.001009
3607.19	0.000874
3616.84	0.00161235
3626.48	0.0020361
3636.13	0.001864
3645.77	0.0018469
3655.42	0.001364
3665.06	0.001459
3674.71	0.0014421
3684.35	0.0017705
3694	0.001653
3703.64	0.001395
3713.29	0.0014954
3722.93	0.00162081
3732.58	0.0024785
3742.22	0.00119
3751.86	0.0017411
3761.51	0.0017458
3771.15	0.0014843
3780.8	0.001346
3790.44	0.001374
3800.09	0.001006
3809.73	0.001343
3819.38	0.0017018
3829.02	0.0014966
3838.67	0.0018739
3848.31	0.001242
3857.96	0.0017751
3867.6	0.0015056
3877.25	0.001371
3886.89	0.0020496
3896.54	0.001165
3906.18	0.002165
3915.83	0.0017579
3925.47	0.0019293
3935.12	0.001893
3944.76	0.0018045
3954.41	0.001417
3964.05	0.00153779
3973.69	0.0022253
3983.34	0.001181
3992.98	0.001418
