Infrared Spectrum: Glutarimide
Formula: C 5 H 7 N O 2
CAS: 1121-89-7
State: gas
Origin: EPA-IR VAPOR PHASE LIBRARY
1/CM	ABSORBANCE
549.8	0.009809
559.445	0.003099
569.09	0.0017426
578.735	0.0010893
588.38	0.001829
598.025	0.003039
607.67	0.003559
617.315	0.002999
626.96	0.002559
636.605	0.003079
646.251	0.003469
655.896	0.002729
665.541	0.002199
675.186	0.002739
684.831	0.003879
694.476	0.006709
704.121	0.010849
713.766	0.015649
723.411	0.016139
733.056	0.012569
742.701	0.009709
752.346	0.011489
761.991	0.007319
771.636	0.005229
781.281	0.003119
790.926	0.002249
800.571	0.002109
810.216	0.001859
819.861	0.0013945
829.507	0.001149
839.152	0.0010405
848.797	0.0009633
858.442	0.0009605
868.087	0.0008596
877.732	0.00087204
887.377	0.0010819
897.022	0.0016227
906.667	0.001989
916.312	0.0017687
925.957	0.0012615
935.602	0.0009291
945.247	0.0009842
954.892	0.0010155
964.537	0.0013497
974.182	0.001373
983.827	0.0012009
993.472	0.0011427
1003.12	0.0010077
1012.76	0.0009257
1022.41	0.0011474
1032.05	0.002859
1041.7	0.005309
1051.34	0.005819
1060.99	0.003809
1070.63	0.0016548
1080.28	0.0016278
1089.92	0.002059
1099.57	0.002679
1109.21	0.004849
1118.86	0.015069
1128.5	0.028699
1138.15	0.031019
1147.79	0.022899
1157.44	0.018339
1167.08	0.032209
1176.73	0.035489
1186.37	0.024429
1196.02	0.005949
1205.66	0.004139
1215.31	0.008439
1224.95	0.022929
1234.6	0.038189
1244.24	0.041829
1253.89	0.028959
1263.53	0.013659
1273.18	0.008909
1282.82	0.007349
1292.47	0.007539
1302.11	0.010439
1311.76	0.015629
1321.4	0.023169
1331.05	0.028969
1340.69	0.032319
1350.34	0.030399
1359.98	0.020539
1369.63	0.017629
1379.27	0.022309
1388.92	0.021669
1398.56	0.014729
1408.21	0.006149
1417.85	0.005429
1427.5	0.005579
1437.14	0.005599
1446.79	0.004499
1456.43	0.004069
1466.08	0.003379
1475.73	0.002959
1485.37	0.001909
1495.02	0.0015112
1504.66	0.0016476
1514.31	0.0016564
1523.95	0.001542
1533.6	0.0012613
1543.24	0.0012349
1552.89	0.001312
1562.53	0.0012653
1572.18	0.0011778
1581.82	0.0012623
1591.47	0.0015518
1601.11	0.002269
1610.76	0.003069
1620.4	0.003569
1630.05	0.003709
1639.69	0.003769
1649.34	0.004149
1658.98	0.004249
1668.63	0.004299
1678.27	0.004779
1687.92	0.006279
1697.56	0.010499
1707.21	0.019239
1716.85	0.035029
1726.5	0.073079
1736.14	0.147969
1745.79	0.177339
1755.43	0.154289
1765.08	0.070049
1774.72	0.034379
1784.37	0.023499
1794.01	0.017639
1803.66	0.010599
1813.3	0.005939
1822.95	0.004319
1832.59	0.003629
1842.24	0.003389
1851.88	0.003219
1861.53	0.003119
1871.17	0.003089
1880.82	0.002729
1890.46	0.002349
1900.11	0.001869
1909.75	0.00144
1919.4	0.0012394
1929.04	0.0010364
1938.69	0.0010097
1948.33	0.00089506
1957.98	0.00089383
1967.62	0.00086483
1977.27	0.00086261
1986.91	0.00086359
1996.56	0.00086587
2006.2	0.00084382
2015.85	0.0008705
2025.49	0.00089491
2035.14	0.00084566
2044.78	0.0007191
2054.43	0.000698
2064.07	0.000673
2073.72	0.000722
2083.36	0.0007432
2093.01	0.0007516
2102.65	0.0007113
2112.3	0.000684
2121.94	0.000639
2131.59	0.000656
2141.23	0.000642
2150.88	0.000612
2160.52	0.000611
2170.17	0.000641
2179.81	0.00064
2189.46	0.000737
2199.1	0.0007933
2208.75	0.00082311
2218.39	0.00080616
2228.04	0.00082367
2237.68	0.0007361
2247.33	0.0007542
2256.97	0.000707
2266.62	0.0007807
2276.26	0.00082438
2285.91	0.00088483
2295.55	0.00082047
2305.2	0.0007743
2314.84	0.000689
2324.49	0.000691
2334.13	0.000673
2343.78	0.0007294
2353.42	0.00080478
2363.07	0.00086975
2372.72	0.0007441
2382.36	0.0007873
2392.01	0.0007538
2401.65	0.0007347
2411.3	0.000658
2420.94	0.000571
2430.59	0.000668
2440.23	0.000641
2449.88	0.000708
2459.52	0.000702
2469.17	0.000813709
2478.81	0.0008198
2488.46	0.00083586
2498.1	0.0007522
2507.75	0.000766
2517.39	0.000673
2527.04	0.000573
2536.68	0.000611
2546.33	0.000659
2555.97	0.000588
2565.62	0.000611
2575.26	0.000628
2584.91	0.000622
2594.55	0.000529
2604.2	0.00051
2613.84	0.0005
2623.49	0.000507
2633.13	0.000489
2642.78	0.000519
2652.42	0.000578
2662.07	0.000631
2671.71	0.000645
2681.36	0.0007422
2691	0.0007362
2700.65	0.000694
2710.29	0.0007384
2719.94	0.0007135
2729.58	0.0007484
2739.23	0.0007289
2748.87	0.000633
2758.52	0.000658
2768.16	0.00058
2777.81	0.000549
2787.45	0.000491
2797.1	0.000485
2806.74	0.000565
2816.39	0.000564
2826.03	0.0007338
2835.68	0.00090404
2845.32	0.0009857
2854.97	0.000925
2864.61	0.0011249
2874.26	0.001969
2883.9	0.003049
2893.55	0.003819
2903.19	0.004009
2912.84	0.004499
2922.48	0.004139
2932.13	0.004079
2941.77	0.005089
2951.42	0.007489
2961.06	0.009789
2970.71	0.009999
2980.35	0.009169
2990	0.005409
2999.64	0.002339
3009.29	0.0007667
3018.93	0.000537
3028.58	0.000389
3038.22	0.000414
3047.87	0.000456
3057.51	0.000483
3067.16	0.000539
3076.8	0.000522
3086.45	0.000577
3096.09	0.000505
3105.74	0.00051
3115.38	0.000528
3125.03	0.000586
3134.67	0.000523
3144.32	0.00058
3153.96	0.000532
3163.61	0.000444
3173.25	0.000372
3182.9	0.000348
3192.54	0.000203
3202.19	0.000169
3211.83	8.6e-05
3221.48	0.000231
3231.12	0.000217
3240.77	0.000235
3250.41	0.000104
3260.06	0.000245
3269.7	7.2e-05
3279.35	0
3289	0.000102
3298.64	0.000198
3308.29	0.000202
3317.93	0.000257
3327.58	0.000221
3337.22	0.000255
3346.87	0.000356
3356.51	0.000397
3366.16	0.000636
3375.8	0.0015588
3385.45	0.004209
3395.09	0.009189
3404.74	0.012449
3414.38	0.010969
3424.03	0.006169
3433.67	0.002149
3443.32	0.0010375
3452.96	0.0012712
3462.61	0.001663
3472.25	0.002099
3481.9	0.002219
3491.54	0.001849
3501.19	0.0012429
3510.83	0.0007907
3520.48	0.0007568
3530.12	0.000623
3539.77	0.000531
3549.41	0.000433
3559.06	0.000383
3568.7	0.000506
3578.35	0.000483
3587.99	0.000417
3597.64	0.000438
3607.28	0.000463
3616.93	0.000467
3626.57	0.000411
3636.22	0.000321
3645.86	0.000443
3655.51	0.000365
3665.15	0.000285
3674.8	0.000453
3684.44	0.000277
3694.09	0.000278
3703.73	0.000219
3713.38	0.000416
3723.02	0.000403
3732.67	0.000369
3742.31	0.00043
3751.96	0.000498
3761.6	0.000341
3771.25	0.000366
3780.89	0.000362
3790.54	0.000311
3800.18	0.00037
3809.83	0.000448
3819.47	0.000401
3829.12	0.000327
3838.76	0.000534
3848.41	0.000349
3858.05	0.000434
3867.7	0.000366
3877.34	0.000514
3886.99	0.000308
3896.63	0.000479
3906.28	0.00038
3915.92	0.00035
3925.57	0.000425
3935.21	0.000369
3944.86	0.000482
3954.5	0.000387
3964.15	0.000461
3973.79	0.000317
3983.44	0.000425
3993.08	0.000474
