Infrared Spectrum: trans-1,2-Cyclohexanediamine
Formula: C 6 H 14 N 2
CAS: 1121-22-8
State: gas
Origin: EPA-IR VAPOR PHASE LIBRARY
1/CM	ABSORBANCE
549.8	0.0014261
559.445	0.002566
569.09	0.002216
578.734	0.002866
588.379	0.002406
598.024	0.001726
607.669	0.002496
617.313	0.002126
626.958	0.002296
636.603	0.002426
646.248	0.002716
655.893	0.003026
665.537	0.003376
675.182	0.003556
684.827	0.003866
694.472	0.003976
704.116	0.004476
713.761	0.005476
723.406	0.006266
733.051	0.007326
742.695	0.007926
752.34	0.009076
761.985	0.010476
771.63	0.012036
781.275	0.014106
790.919	0.013816
800.564	0.012946
810.209	0.010976
819.854	0.009576
829.498	0.008386
839.143	0.008056
848.788	0.007586
858.433	0.006556
868.078	0.005936
877.722	0.004756
887.367	0.004196
897.012	0.003566
906.657	0.002726
916.301	0.002786
925.946	0.002866
935.591	0.002726
945.236	0.002916
954.88	0.002486
964.525	0.002166
974.17	0.002136
983.815	0.002296
993.46	0.002106
1003.1	0.002096
1012.75	0.002226
1022.39	0.002066
1032.04	0.002736
1041.68	0.002956
1051.33	0.002806
1060.97	0.003626
1070.62	0.004496
1080.26	0.006416
1089.91	0.005986
1099.55	0.004086
1109.2	0.002916
1118.84	0.002326
1128.49	0.001926
1138.13	0.0011128
1147.78	0.0012405
1157.42	0.0014734
1167.07	0.0013663
1176.71	0.001132
1186.36	0.000246
1196	0.0012371
1205.64	0.000186
1215.29	0.000268
1224.93	5.3e-05
1234.58	0.0008771
1244.22	0.0008735
1253.87	0.00069512
1263.51	0.0006608
1273.16	0.0007615
1282.8	0.0010661
1292.45	0.001264
1302.09	0.0013484
1311.74	0.001646
1321.38	0.001826
1331.03	0.002086
1340.67	0.002206
1350.32	0.002326
1359.96	0.002306
1369.61	0.002396
1379.25	0.002376
1388.9	0.002086
1398.54	0.001756
1408.18	0.001636
1417.83	0.0015626
1427.47	0.001906
1437.12	0.003166
1446.76	0.004396
1456.41	0.005226
1466.05	0.004156
1475.7	0.003016
1485.34	0.002096
1494.99	0.001836
1504.63	0.001846
1514.28	0.001896
1523.92	0.001956
1533.57	0.002046
1543.21	0.002136
1552.86	0.002186
1562.5	0.002436
1572.15	0.002626
1581.79	0.003256
1591.44	0.004106
1601.08	0.005286
1610.73	0.006206
1620.37	0.006396
1630.01	0.005376
1639.66	0.003726
1649.3	0.002526
1658.95	0.001656
1668.59	0.0013107
1678.24	0.001093
1687.88	0.0009455
1697.53	0.0009555
1707.17	0.0008564
1716.82	0.0008163
1726.46	0.000899
1736.11	0.0007983
1745.75	0.0008215
1755.4	0.0008574
1765.04	0.000798
1774.69	0.0007716
1784.33	0.0008811
1793.98	0.0007921
1803.62	0.0008657
1813.27	0.0007928
1822.91	0.0008115
1832.55	0.0007633
1842.2	0.0009144
1851.84	0.0008823
1861.49	0.0009019
1871.13	0.00071394
1880.78	0.0007924
1890.42	0.0007978
1900.07	0.0007808
1909.71	0.0007596
1919.36	0.0007507
1929	0.00066594
1938.65	0.000766
1948.29	0.000824
1957.94	0.00063999
1967.58	0.0005734
1977.23	0.0005956
1986.87	0.00067224
1996.52	0.00069735
2006.16	0.00064418
2015.81	0.0005991
2025.45	0.00065777
2035.1	0.0006881
2044.74	0.00061753
2054.38	0.0006183
2064.03	0.00064179
2073.67	0.00071364
2083.32	0.00071364
2092.96	0.00063966
2102.61	0.00063209
2112.25	0.0005572
2121.9	0.0005355
2131.54	0.00069281
2141.19	0.0006059
2150.83	0.00070076
2160.48	0.0006067
2170.12	0.00068715
2179.77	0.0006077
2189.41	0.00070019
2199.06	0.0007551
2208.7	0.0005521
2218.35	0.00061899
2227.99	0.00066255
2237.64	0.000729
2247.28	0.00062067
2256.92	0.00064663
2266.57	0.00069402
2276.21	0.000628572
2285.86	0.0007766
2295.5	0.0007578
2305.15	0.00072454
2314.79	0.0005358
2324.44	0.0007595
2334.08	0.00065325
2343.73	0.0007485
2353.37	0.0008322
2363.02	0.0008639
2372.66	0.00072193
2382.31	0.0007785
2391.95	0.00072243
2401.6	0.0006166
2411.24	0.0007308
2420.89	0.0008746
2430.53	0.0007941
2440.18	0.0006122
2449.82	0.00067572
2459.47	0.0007743
2469.11	0.0007432
2478.75	0.0005802
2488.4	0.0008299
2498.04	0.00071064
2507.69	0.0007218
2517.33	0.0008445
2526.98	0.0008887
2536.62	0.0008511
2546.27	0.0007995
2555.91	0.0008635
2565.56	0.001024
2575.2	0.0009331
2584.85	0.0010172
2594.49	0.0011312
2604.14	0.0011644
2613.78	0.0014114
2623.43	0.0012094
2633.07	0.0013075
2642.72	0.001373
2652.36	0.0014689
2662.01	0.0014956
2671.65	0.001726
2681.29	0.001746
2690.94	0.001604
2700.58	0.0014328
2710.23	0.0014719
2719.87	0.0014665
2729.52	0.0013858
2739.16	0.001636
2748.81	0.0015657
2758.45	0.0015372
2768.1	0.001786
2777.74	0.002156
2787.39	0.002416
2797.03	0.002876
2806.68	0.003296
2816.32	0.003806
2825.97	0.004636
2835.61	0.006366
2845.26	0.009876
2854.9	0.016126
2864.55	0.019886
2874.19	0.016966
2883.84	0.012036
2893.48	0.010116
2903.12	0.013486
2912.77	0.022086
2922.41	0.033716
2932.06	0.051976
2941.7	0.039156
2951.35	0.024966
2960.99	0.009006
2970.64	0.002896
2980.28	0.0015308
2989.93	0.0013128
2999.57	0.0012365
3009.22	0.000892
3018.86	0.0009857
3028.51	0.0008351
3038.15	0.0009081
3047.8	0.0009745
3057.44	0.00093
3067.09	0.0009034
3076.73	0.0007158
3086.38	0.0008529
3096.02	0.0005933
3105.67	0.000918
3115.31	0.0008837
3124.95	0.0009117
3134.6	0.00065021
3144.24	0.0005451
3153.89	0.000626652
3163.53	0.0007415
3173.18	0.0007916
3182.82	0.0005682
3192.47	0.0007927
3202.11	0.0008052
3211.76	0.0008865
3221.4	0.00067642
3231.05	0.0007884
3240.69	0.000781
3250.34	0.0009139
3259.98	0.0009152
3269.63	0.0007947
3279.27	0.0007669
3288.92	0.0009594
3298.56	0.00063728
3308.21	0.0008645
3317.85	0.0009986
3327.49	0.0012096
3337.14	0.0012017
3346.78	0.001141
3356.43	0.0011124
3366.07	0.0009858
3375.72	0.000499
3385.36	0.0010351
3395.01	0.0009695
3404.65	0.0010922
3414.3	0.0010095
3423.94	0.000907
3433.59	0.00064456
3443.23	0.0008495
3452.88	0.0005713
3462.52	0.0005571
3472.17	0.0006019
3481.81	0.000351
3491.46	0.000634671
3501.1	0.0005724
3510.75	0.00046
3520.39	0.000504
3530.04	0.000429
3539.68	0.000447
3549.32	0.0006128
3558.97	0.00072487
3568.61	0.000516
3578.26	0.00070942
3587.9	0.00071515
3597.55	0.0006069
3607.19	0.0008893
3616.84	0.0007406
3626.48	0.0005957
3636.13	0.0005557
3645.77	0.0005726
3655.42	0.000288
3665.06	0.00064058
3674.71	0.000361
3684.35	0.0005585
3694	0.0007281
3703.64	0.000501
3713.29	0.000401
3722.93	0.0008138
3732.58	0.00062166
3742.22	0.0007998
3751.86	0.0005825
3761.51	0.0009142
3771.15	0.00067118
3780.8	0.0007398
3790.44	0.0009036
3800.09	0.00062466
3809.73	0.000247
3819.38	0.000176
3829.02	0.000631759
3838.67	0.0005482
3848.31	0.00052
3857.96	0.0007679
3867.6	0.00066838
3877.25	0.0007573
3886.89	0.0005924
3896.54	0.0007718
3906.18	0.000591
3915.83	0.0005815
3925.47	0.00067948
3935.12	0.0007464
3944.76	0.000609
3954.41	0.00063883
3964.05	0.00068856
3973.69	0.0010569
3983.34	0.000467
3992.98	0.00049
