Infrared Spectrum: N-Methylsuccinimide
Formula: C 5 H 7 N O 2
CAS: 1121-07-9
State: gas
Origin: EPA-IR VAPOR PHASE LIBRARY
1/CM	ABSORBANCE
549.8	0.001366
559.445	0.002116
569.09	0.004776
578.734	0.007246
588.379	0.005516
598.024	0.005066
607.669	0.003096
617.313	0.004486
626.958	0.015926
636.603	0.025876
646.248	0.025646
655.893	0.016586
665.537	0.007366
675.182	0.008646
684.827	0.012286
694.472	0.013556
704.116	0.011926
713.761	0.011266
723.406	0.010446
733.051	0.010336
742.695	0.007116
752.34	0.002916
761.985	0.0012279
771.63	0.0007009
781.275	0.0010131
790.919	0.001746
800.564	0.003386
810.209	0.005486
819.854	0.006506
829.498	0.004106
839.143	0.002746
848.788	0.001416
858.433	0.0011011
868.078	0.0012163
877.722	0.0012383
887.367	0.001906
897.012	0.002306
906.657	0.002806
916.301	0.005516
925.946	0.015276
935.591	0.026216
945.236	0.027156
954.88	0.017906
964.525	0.004866
974.17	0.003816
983.815	0.005296
993.46	0.005296
1003.1	0.003876
1012.75	0.002856
1022.39	0.001956
1032.04	0.002786
1041.68	0.006226
1051.33	0.010476
1060.97	0.012276
1070.62	0.012796
1080.26	0.017456
1089.91	0.037386
1099.55	0.064366
1109.2	0.069566
1118.84	0.055156
1128.49	0.032516
1138.13	0.030686
1147.78	0.038336
1157.42	0.037366
1167.07	0.028856
1176.71	0.016466
1186.36	0.008836
1196	0.005466
1205.64	0.004346
1215.29	0.005516
1224.93	0.007166
1234.58	0.011066
1244.22	0.019446
1253.87	0.039266
1263.51	0.071366
1273.16	0.092586
1282.8	0.094106
1292.45	0.057616
1302.09	0.031256
1311.74	0.019636
1321.38	0.021046
1331.03	0.023906
1340.67	0.024416
1350.32	0.026866
1359.96	0.042326
1369.61	0.072356
1379.25	0.094586
1388.9	0.090936
1398.54	0.064396
1408.18	0.042876
1417.83	0.057606
1427.47	0.085786
1437.12	0.090856
1446.76	0.062826
1456.41	0.026526
1466.05	0.010746
1475.7	0.007466
1485.34	0.007496
1494.99	0.007926
1504.63	0.008086
1514.28	0.007486
1523.92	0.007036
1533.57	0.006516
1543.21	0.005776
1552.86	0.004976
1562.5	0.004376
1572.15	0.004246
1581.79	0.003916
1591.44	0.003336
1601.08	0.003266
1610.73	0.003626
1620.37	0.004396
1630.01	0.005406
1639.66	0.006496
1649.3	0.007706
1658.95	0.009466
1668.59	0.012626
1678.24	0.019916
1687.88	0.031616
1697.53	0.048756
1707.17	0.079836
1716.82	0.177126
1726.46	0.431116
1736.11	0.577506
1745.75	0.539106
1755.4	0.253716
1765.04	0.064376
1774.69	0.033756
1784.33	0.029866
1793.98	0.029536
1803.62	0.024586
1813.27	0.015966
1822.91	0.008936
1832.55	0.006046
1842.2	0.004866
1851.84	0.004216
1861.49	0.003656
1871.13	0.003226
1880.78	0.002866
1890.42	0.002746
1900.07	0.002366
1909.71	0.002636
1919.36	0.002936
1929	0.002306
1938.65	0.001836
1948.29	0.001636
1957.94	0.001816
1967.58	0.002446
1977.23	0.002776
1986.87	0.002686
1996.52	0.002296
2006.16	0.001836
2015.81	0.001656
2025.45	0.001496
2035.1	0.0011909
2044.74	0.0009535
2054.38	0.0009647
2064.03	0.0011109
2073.67	0.001296
2083.32	0.001466
2092.96	0.001386
2102.61	0.001316
2112.25	0.001366
2121.9	0.001416
2131.54	0.001366
2141.19	0.001426
2150.83	0.001356
2160.48	0.001276
2170.12	0.0011081
2179.77	0.0009521
2189.41	0.000865
2199.06	0.0008968
2208.7	0.0009595
2218.35	0.0009644
2227.99	0.0007978
2237.64	0.0007801
2247.28	0.0008319
2256.92	0.0007906
2266.57	0.0009462
2276.21	0.0008498
2285.86	0.0008764
2295.5	0.0008468
2305.15	0.0010675
2314.79	0.001406
2324.44	0.001626
2334.08	0.001726
2343.73	0.001366
2353.37	0.001356
2363.02	0.001406
2372.66	0.001376
2382.31	0.0011844
2391.95	0.0008774
2401.6	0.0007803
2411.24	0.0006946
2420.89	0.0009697
2430.53	0.0012434
2440.18	0.001446
2449.82	0.001266
2459.47	0.0008762
2469.11	0.0007091
2478.75	0.0007884
2488.4	0.0009681
2498.04	0.0009841
2507.69	0.0008986
2517.33	0.0010395
2526.98	0.0010068
2536.62	0.0011494
2546.27	0.0010108
2555.91	0.0007689
2565.56	0.0006071
2575.2	0.0006479
2584.85	0.0006461
2594.49	0.000608
2604.14	0.0006215
2613.78	0.0005985
2623.43	0.0008058
2633.07	0.0009896
2642.72	0.001326
2652.36	0.001436
2662.01	0.001276
2671.65	0.0010569
2681.29	0.0008676
2690.94	0.0009252
2700.58	0.0009104
2710.23	0.0009585
2719.87	0.0007533
2729.52	0.0009248
2739.16	0.0008193
2748.81	0.0007066
2758.45	0.0005707
2768.1	0.0005305
2777.74	0.0006294
2787.39	0.000681
2797.03	0.0009209
2806.68	0.000961
2816.32	0.0011459
2825.97	0.001336
2835.61	0.001976
2845.26	0.002666
2854.9	0.003096
2864.55	0.002906
2874.19	0.002826
2883.84	0.003136
2893.48	0.004196
2903.12	0.005316
2912.77	0.006156
2922.41	0.006806
2932.06	0.008666
2941.7	0.016456
2951.35	0.023206
2960.99	0.023836
2970.64	0.018986
2980.28	0.012656
2989.93	0.012666
2999.57	0.007336
3009.22	0.004766
3018.86	0.002236
3028.51	0.001456
3038.15	0.001756
3047.8	0.002026
3057.44	0.002236
3067.09	0.002576
3076.73	0.002806
3086.38	0.002946
3096.02	0.002516
3105.67	0.001916
3115.31	0.001366
3124.95	0.0008324
3134.6	0.0007522
3144.24	0.000566
3153.89	0.0005125
3163.53	0.0004578
3173.18	0.0004604
3182.82	0.0004629
3192.47	0.00029957
3202.11	0.0002186
3211.76	0.0004259
3221.4	0.0003321
3231.05	8.5e-05
3240.69	0.00030157
3250.34	0.0002314
3259.98	0.0001929
3269.63	0.0002243
3279.27	0.0003191
3288.92	0.00027776
3298.56	0.0002373
3308.21	0.0001992
3317.85	0.00029587
3327.49	0.0002423
3337.14	0.0003586
3346.78	0.00033511
3356.43	0.0001925
3366.07	0.00031892
3375.72	0.00035774
3385.36	0.0004471
3395.01	0.0003952
3404.65	0.0004418
3414.3	0.0003849
3423.94	0.0004517
3433.59	0.0007241
3443.23	0.0006639
3452.88	0.000952
3462.52	0.0011439
3472.17	0.001666
3481.81	0.002086
3491.46	0.003006
3501.1	0.004316
3510.75	0.005636
3520.39	0.005706
3530.04	0.004406
3539.68	0.002346
3549.32	0.001336
3558.97	0.0006895
3568.61	0.0007854
3578.26	0.0006881
3587.9	0.0005918
3597.55	0.0004888
3607.19	0.0005665
3616.84	0.0003509
3626.48	0.00031904
3636.13	0.0003124
3645.77	0.0002271
3655.42	0.00029231
3665.06	0.0003824
3674.71	0.0004579
3684.35	0.00033892
3694	0.0003941
3703.64	0.0003673
3713.29	0.000141
3722.93	0.0002487
3732.58	0.00028481
3742.22	4.3e-05
3751.86	0.0004233
3761.51	0.0004193
3771.15	0.00030209
3780.8	0.000318
3790.44	0.00028613
3800.09	0.0002469
3809.73	0.000236
3819.38	0.0002311
3829.02	0.0001762
3838.67	0.000112
3848.31	0.00033029
3857.96	0.00032627
3867.6	0.000143
3877.25	0.000133
3886.89	0.0001832
3896.54	0.0002133
3906.18	0.00035463
3915.83	0.0001818
3925.47	0.000152
3935.12	0.0002064
3944.76	0.0004236
3954.41	0.0005103
3964.05	0.0005845
3973.69	0.00029847
3983.34	0.0004757
3992.98	0.0003967
