Infrared Spectrum: 2-Pyridinecarboxylaldehyde
Formula: C 6 H 5 N O
CAS: 1121-60-4
State: gas
Origin: EPA-IR VAPOR PHASE LIBRARY
1/CM	ABSORBANCE
549.8	0.003607
559.445	0.003277
569.09	0.003467
578.734	0.003657
588.379	0.005237
598.024	0.011737
607.669	0.017597
617.313	0.017697
626.958	0.011007
636.603	0.007537
646.248	0.009647
655.893	0.011407
665.537	0.015847
675.182	0.020517
684.827	0.020397
694.472	0.010647
704.116	0.003847
713.761	0.004087
723.406	0.006887
733.051	0.016507
742.695	0.029737
752.34	0.052617
761.985	0.045127
771.63	0.032347
781.275	0.018737
790.919	0.011747
800.564	0.011127
810.209	0.017457
819.854	0.031347
829.498	0.038727
839.143	0.031517
848.788	0.016057
858.433	0.007337
868.078	0.004907
877.722	0.003517
887.367	0.003237
897.012	0.003117
906.657	0.002397
916.301	0.001717
925.946	0.0011038
935.591	0.000928
945.236	0.0009878
954.88	0.001257
964.525	0.001957
974.17	0.003757
983.815	0.009347
993.46	0.008957
1003.1	0.010927
1012.75	0.005347
1022.39	0.004907
1032.04	0.007457
1041.68	0.005377
1051.33	0.006097
1060.97	0.003567
1070.62	0.002897
1080.26	0.004067
1089.91	0.004517
1099.55	0.003427
1109.2	0.002257
1118.84	0.001937
1128.49	0.001827
1138.13	0.004067
1147.78	0.003867
1157.42	0.003727
1167.07	0.001977
1176.71	0.002857
1186.36	0.007197
1196	0.015797
1205.64	0.027627
1215.29	0.031087
1224.93	0.022927
1234.58	0.007507
1244.22	0.006407
1253.87	0.006397
1263.51	0.005107
1273.16	0.003407
1282.8	0.007717
1292.45	0.009537
1302.09	0.008777
1311.74	0.002597
1321.38	0.0010946
1331.03	0.001517
1340.67	0.003177
1350.32	0.009087
1359.96	0.010377
1369.61	0.010827
1379.25	0.004117
1388.9	0.002027
1398.54	0.001877
1408.18	0.002397
1417.83	0.004387
1427.47	0.007807
1437.12	0.008147
1446.76	0.007887
1456.41	0.006567
1466.05	0.006577
1475.7	0.006307
1485.34	0.003097
1494.99	0.001687
1504.63	0.001717
1514.28	0.001747
1523.92	0.001577
1533.57	0.001617
1543.21	0.002687
1552.86	0.005897
1562.5	0.012997
1572.15	0.020717
1581.79	0.022287
1591.44	0.014807
1601.08	0.009597
1610.73	0.005437
1620.37	0.004337
1630.01	0.004327
1639.66	0.005797
1649.3	0.007017
1658.95	0.007127
1668.59	0.006187
1678.24	0.006007
1687.88	0.008227
1697.53	0.015797
1707.17	0.039867
1716.82	0.130217
1726.46	0.179457
1736.11	0.186017
1745.75	0.065057
1755.4	0.021647
1765.04	0.008097
1774.69	0.003327
1784.33	0.002407
1793.98	0.002227
1803.62	0.002287
1813.27	0.002367
1822.91	0.002717
1832.55	0.003087
1842.2	0.002827
1851.84	0.002407
1861.49	0.001967
1871.13	0.001987
1880.78	0.002347
1890.42	0.002527
1900.07	0.002327
1909.71	0.002177
1919.36	0.002117
1929	0.002357
1938.65	0.002887
1948.29	0.003157
1957.94	0.002787
1967.58	0.002097
1977.23	0.001967
1986.87	0.001847
1996.52	0.001647
2006.16	0.001207
2015.81	0.0010773
2025.45	0.0010951
2035.1	0.001287
2044.74	0.001177
2054.38	0.0008451
2064.03	0.0006753
2073.67	0.0006597
2083.32	0.0006549
2092.96	0.0005552
2102.61	0.0004735
2112.25	0.0004889
2121.9	0.0005221
2131.54	0.0005774
2141.19	0.0004675
2150.83	0.0005264
2160.48	0.000562
2170.12	0.000711
2179.77	0.0008564
2189.41	0.0007659
2199.06	0.0006666
2208.7	0.000581
2218.35	0.0005731
2227.99	0.0005599
2237.64	0.0005518
2247.28	0.0005089
2256.92	0.0004972
2266.57	0.000531
2276.21	0.0007102
2285.86	0.0011117
2295.5	0.001187
2305.15	0.000993
2314.79	0.0006089
2324.44	0.0004942
2334.08	0.0003639
2343.73	0.0003686
2353.37	0.0003469
2363.02	0.0003075
2372.66	0.0003304
2382.31	0.0003972
2391.95	0.00044
2401.6	0.0005024
2411.24	0.0004944
2420.89	0.0005698
2430.53	0.0006246
2440.18	0.0005618
2449.82	0.0006735
2459.47	0.0007641
2469.11	0.0007767
2478.75	0.0007487
2488.4	0.0007088
2498.04	0.0007769
2507.69	0.0007017
2517.33	0.0006435
2526.98	0.0004394
2536.62	0.0005284
2546.27	0.0004639
2555.91	0.0004914
2565.56	0.0005263
2575.2	0.0005026
2584.85	0.0006261
2594.49	0.0008022
2604.14	0.0010015
2613.78	0.001167
2623.43	0.001267
2633.07	0.001497
2642.72	0.001547
2652.36	0.001477
2662.01	0.001557
2671.65	0.001487
2681.29	0.002007
2690.94	0.003787
2700.58	0.006007
2710.23	0.007027
2719.87	0.005807
2729.52	0.004117
2739.16	0.002507
2748.81	0.001827
2758.45	0.001637
2768.1	0.001827
2777.74	0.002837
2787.39	0.004787
2797.03	0.009447
2806.68	0.018607
2816.32	0.035077
2825.97	0.051607
2835.61	0.057247
2845.26	0.047727
2854.9	0.023657
2864.55	0.008557
2874.19	0.003347
2883.84	0.001727
2893.48	0.001287
2903.12	0.001367
2912.77	0.001987
2922.41	0.002447
2932.06	0.002717
2941.7	0.002447
2951.35	0.001837
2960.99	0.001347
2970.64	0.0011088
2980.28	0.001287
2989.93	0.002007
2999.57	0.003617
3009.22	0.005757
3018.86	0.006967
3028.51	0.007027
3038.15	0.007417
3047.8	0.013327
3057.44	0.019527
3067.09	0.025917
3076.73	0.023647
3086.38	0.017517
3096.02	0.008527
3105.67	0.003617
3115.31	0.001737
3124.95	0.001407
3134.6	0.001637
3144.24	0.001817
3153.89	0.001217
3163.53	0.000605
3173.18	0.0004117
3182.82	0.0003731
3192.47	0.000149157
3202.11	0.00022099
3211.76	0.0001931
3221.4	0.00029
3231.05	0.00024075
3240.69	0.00018175
3250.34	0.0003602
3259.98	0.000117
3269.63	0.0004168
3279.27	0.0004276
3288.92	0.000297
3298.56	0.0002882
3308.21	0.0003016
3317.85	0.00018869
3327.49	4e-05
3337.14	0.0004177
3346.78	0.00023395
3356.43	0.000146814
3366.07	0.0005206
3375.72	0.0005359
3385.36	0.0008033
3395.01	0.0005784
3404.65	0.0008611
3414.3	0.001437
3423.94	0.002687
3433.59	0.003787
3443.23	0.003867
3452.88	0.002957
3462.52	0.001287
3472.17	0.0009313
3481.81	0.0007741
3491.46	0.0004939
3501.1	0.00052
3510.75	0.0005405
3520.39	0.0004762
3530.04	0.0001291
3539.68	0.0003548
3549.32	0.0002638
3558.97	0.0002802
3568.61	0.0002914
3578.26	0.0003323
3587.9	0.00024618
3597.55	0.0002705
3607.19	0.000303
3616.84	0.00037
3626.48	0.0002306
3636.13	0.0004991
3645.77	0.0004689
3655.42	0.0003527
3665.06	0.0002965
3674.71	0.0005447
3684.35	0.0008213
3694	0.0004022
3703.64	0.0004696
3713.29	0.0005401
3722.93	0.0005344
3732.58	0.0006776
3742.22	0.0005624
3751.86	0.0005974
3761.51	0.0006803
3771.15	0.0006475
3780.8	0.0004331
3790.44	0.0004423
3800.09	0.0003543
3809.73	0.0004708
3819.38	0.0003025
3829.02	0.0005857
3838.67	0.0004517
3848.31	0.0006917
3857.96	0.000479
3867.6	0.0005002
3877.25	0.000573
3886.89	0.0005202
3896.54	0.0005296
3906.18	0.0005463
3915.83	0.000303
3925.47	0.0003786
3935.12	0.0004958
3944.76	0.0004684
3954.41	0.0004093
3964.05	0.0003255
3973.69	0.0003472
3983.34	0.0004745
3992.98	0.0003854
