Infrared Spectrum: Pyridine-2-thiol-1-oxide
Formula: C 5 H 5 N O S
CAS: 1121-31-9
State: gas
Origin: EPA-IR VAPOR PHASE LIBRARY
1/CM	ABSORBANCE
549.8	0.0068886
559.445	0.0070486
569.09	0.0072486
578.734	0.0081386
588.379	0.0109386
598.024	0.0138486
607.669	0.0129486
617.313	0.0068686
626.958	0.0030686
636.603	0.0011986
646.248	0.0009715
655.893	0.0010103
665.537	0.0006705
675.182	0.0006731
684.827	0.0010649
694.472	0.0020286
704.116	0.0077386
713.761	0.0165486
723.406	0.0333786
733.051	0.0407786
742.695	0.0403486
752.34	0.0286986
761.985	0.0096586
771.63	0.0023986
781.275	0.0016786
790.919	0.0024986
800.564	0.0086986
810.209	0.0158786
819.854	0.0183586
829.498	0.0117086
839.143	0.0063886
848.788	0.0030186
858.433	0.0017886
868.078	0.0014386
877.722	0.0014086
887.367	0.0013886
897.012	0.0014386
906.657	0.0016186
916.301	0.0017586
925.946	0.0018486
935.591	0.0013386
945.236	0.0012486
954.88	0.0014986
964.525	0.0022986
974.17	0.0028886
983.815	0.0032286
993.46	0.0047986
1003.1	0.0075986
1012.75	0.0085586
1022.39	0.0066086
1032.04	0.0038386
1041.68	0.0031586
1051.33	0.0040186
1060.97	0.0078586
1070.62	0.0124686
1080.26	0.0149186
1089.91	0.0167586
1099.55	0.0185686
1109.2	0.0195286
1118.84	0.0210786
1128.49	0.0479886
1138.13	0.0679986
1147.78	0.0744286
1157.42	0.0519886
1167.07	0.0575986
1176.71	0.0570286
1186.36	0.0492386
1196	0.0302386
1205.64	0.0201386
1215.29	0.0117886
1224.93	0.0102086
1234.58	0.0089886
1244.22	0.0110186
1253.87	0.0285486
1263.51	0.0375086
1273.16	0.0378386
1282.8	0.0113686
1292.45	0.0042786
1302.09	0.0036486
1311.74	0.0041486
1321.38	0.0056386
1331.03	0.0072686
1340.67	0.0077386
1350.32	0.0067586
1359.96	0.0060186
1369.61	0.0065386
1379.25	0.0084886
1388.9	0.0158486
1398.54	0.0446286
1408.18	0.0890186
1417.83	0.0950986
1427.47	0.0674986
1437.12	0.0380386
1446.76	0.0665186
1456.41	0.0850686
1466.05	0.0820686
1475.7	0.0537486
1485.34	0.0725786
1494.99	0.0699586
1504.63	0.0538786
1514.28	0.0248786
1523.92	0.0145586
1533.57	0.0181286
1543.21	0.0326786
1552.86	0.0556986
1562.5	0.0668386
1572.15	0.0564186
1581.79	0.0352386
1591.44	0.0289386
1601.08	0.0335786
1610.73	0.0349386
1620.37	0.0270986
1630.01	0.0154586
1639.66	0.0075886
1649.3	0.0049886
1658.95	0.0043486
1668.59	0.0037186
1678.24	0.0029386
1687.88	0.0023686
1697.53	0.0025086
1707.17	0.0027286
1716.82	0.0028386
1726.46	0.0029986
1736.11	0.0032386
1745.75	0.0039486
1755.4	0.0038986
1765.04	0.0036586
1774.69	0.0029486
1784.33	0.0029586
1793.98	0.0034186
1803.62	0.0035486
1813.27	0.0033486
1822.91	0.0034486
1832.55	0.0045986
1842.2	0.0054786
1851.84	0.0053186
1861.49	0.0038486
1871.13	0.0026486
1880.78	0.0022486
1890.42	0.0023186
1900.07	0.0019786
1909.71	0.0016286
1919.36	0.0014686
1929	0.0017786
1938.65	0.0025486
1948.29	0.0028186
1957.94	0.0025786
1967.58	0.0020386
1977.23	0.0019886
1986.87	0.0019886
1996.52	0.0017686
2006.16	0.0016886
2015.81	0.0018086
2025.45	0.0017286
2035.1	0.0016386
2044.74	0.0015086
2054.38	0.0015386
2064.03	0.0016286
2073.67	0.0016986
2083.32	0.0017886
2092.96	0.0016386
2102.61	0.0016186
2112.25	0.0016586
2121.9	0.0018686
2131.54	0.0019886
2141.19	0.0019986
2150.83	0.0019586
2160.48	0.0022086
2170.12	0.0022786
2179.77	0.0023086
2189.41	0.0022386
2199.06	0.0025086
2208.7	0.0028086
2218.35	0.0032786
2227.99	0.0034786
2237.64	0.0032686
2247.28	0.0028186
2256.92	0.0027086
2266.57	0.0028886
2276.21	0.0032186
2285.86	0.0034186
2295.5	0.0034286
2305.15	0.0033486
2314.79	0.0035786
2324.44	0.0039486
2334.08	0.0044686
2343.73	0.0048486
2353.37	0.0050286
2363.02	0.0050286
2372.66	0.0050886
2382.31	0.0052486
2391.95	0.0056286
2401.6	0.0062386
2411.24	0.0067086
2420.89	0.0066986
2430.53	0.0063986
2440.18	0.0060586
2449.82	0.0059286
2459.47	0.0060286
2469.11	0.0062786
2478.75	0.0065986
2488.4	0.0065386
2498.04	0.0064486
2507.69	0.0062186
2517.33	0.0060286
2526.98	0.0060186
2536.62	0.0060386
2546.27	0.0061086
2555.91	0.0063686
2565.56	0.0067186
2575.2	0.0074486
2584.85	0.0081286
2594.49	0.0085486
2604.14	0.0088086
2613.78	0.0088786
2623.43	0.0090586
2633.07	0.0092186
2642.72	0.0091786
2652.36	0.0090086
2662.01	0.0085186
2671.65	0.0078586
2681.29	0.0074886
2690.94	0.0074786
2700.58	0.0076286
2710.23	0.0078586
2719.87	0.0077386
2729.52	0.0075286
2739.16	0.0074386
2748.81	0.0074786
2758.45	0.0078686
2768.1	0.0084886
2777.74	0.0090086
2787.39	0.0090186
2797.03	0.0087786
2806.68	0.0082286
2816.32	0.0074786
2825.97	0.0069586
2835.61	0.0066686
2845.26	0.0063886
2854.9	0.0059986
2864.55	0.0056886
2874.19	0.0054586
2883.84	0.0051786
2893.48	0.0049686
2903.12	0.0050286
2912.77	0.0050286
2922.41	0.0050686
2932.06	0.0049786
2941.7	0.0048986
2951.35	0.0045986
2960.99	0.0043886
2970.64	0.0042986
2980.28	0.0042586
2989.93	0.0042786
2999.57	0.0041086
3009.22	0.0040286
3018.86	0.0040486
3028.51	0.0041086
3038.15	0.0041586
3047.8	0.0044386
3057.44	0.0047286
3067.09	0.0046786
3076.73	0.0046186
3086.38	0.0044686
3096.02	0.0047386
3105.67	0.0047886
3115.31	0.0041286
3124.95	0.0031986
3134.6	0.0026586
3144.24	0.0020886
3153.89	0.0018886
3163.53	0.0019286
3173.18	0.0017586
3182.82	0.0017386
3192.47	0.0017286
3202.11	0.0014086
3211.76	0.0012686
3221.4	0.0012086
3231.05	0.0010492
3240.69	0.0010596
3250.34	0.0008604
3259.98	0.0009953
3269.63	0.0008096
3279.27	0.0008859
3288.92	0.0006902
3298.56	0.0006483
3308.21	0.0006332
3317.85	0.0006694
3327.49	0.0006642
3337.14	0.0005772
3346.78	0.0005754
3356.43	0.0004754
3366.07	0.0004388
3375.72	0.0003966
3385.36	0.0004579
3395.01	0.0003058
3404.65	0.0001765
3414.3	0.0002267
3423.94	0.0002882
3433.59	0.00013733
3443.23	0.0003538
3452.88	0.0001971
3462.52	0.0003289
3472.17	0.0002579
3481.81	0.0003033
3491.46	0.0002149
3501.1	0.0002673
3510.75	0.0002929
3520.39	0.0002293
3530.04	0.00015388
3539.68	0.0002585
3549.32	0.0002987
3558.97	0.0002364
3568.61	0.0001821
3578.26	0.0002222
3587.9	0.000216
3597.55	0.0003305
3607.19	0.0001789
3616.84	0.0003763
3626.48	0.0001875
3636.13	0.0002603
3645.77	0.0002584
3655.42	0.0003336
3665.06	0.0002162
3674.71	0.0002277
3684.35	0.0003614
3694	8.245e-05
3703.64	0.0001944
3713.29	0.0001942
3722.93	0.0002896
3732.58	0.0001692
3742.22	0.0002369
3751.86	0.00010616
3761.51	0.00014809
3771.15	0.00016236
3780.8	0.00015921
3790.44	0.0002352
3800.09	0.0003148
3809.73	0.0002545
3819.38	0.0002723
3829.02	0.0003188
3838.67	0.00012709
3848.31	0.0002386
3857.96	0.0002226
3867.6	0.0003282
3877.25	0.0003662
3886.89	0.0004272
3896.54	0.0004288
3906.18	0.000541
3915.83	0.0004708
3925.47	0.0002482
3935.12	0.0003268
3944.76	0.0002779
3954.41	0.0001849
3964.05	0.0002298
3973.69	0.00011827
3983.34	2.8e-06
3992.98	2.56e-05
