Infrared Spectrum: Aniline, 2,6-dicyclohexyl-
Formula: C18 H27 N
CAS: 112121-78-5
State: SOLID (OIL MULL)
Class: COBLENTZ III
Instrument: BECKMAN IR-4 (HYBRID PRISM-GRATING)
Instrument parameters: NaCl PRISM
Sampling: TRANSMISSION
Resolution: 2
Origin: MONSANTO (J. FREEMAN)
1/CM	TRANSMITTANCE
624.922	0.6066
633.67	0.5678
642.418	0.5568
651.165	0.598
659.913	0.6644
668.661	0.6956
677.409	0.7425
686.157	0.773
694.904	0.7903
703.652	0.8011
712.4	0.7947
721.148	0.77
729.895	0.7793
738.643	0.5357
747.391	0.4974
756.139	0.7717
764.887	0.7987
773.634	0.6511
782.382	0.8554
791.13	0.7766
799.878	0.8895
808.626	0.9118
817.373	0.905
826.121	0.8479
834.869	0.8254
843.617	0.9233
852.364	0.9341
861.112	0.9373
869.86	0.9269
878.608	0.8506
887.356	0.7281
896.103	0.8948
904.851	0.927
913.599	0.8714
922.347	0.8903
931.095	0.9122
939.842	0.9182
948.59	0.9124
957.338	0.9193
966.086	0.9165
974.833	0.9148
983.581	0.9105
992.329	0.8708
1001.08	0.7854
1009.82	0.8944
1018.57	0.9092
1027.32	0.884
1036.07	0.8958
1044.82	0.8694
1053.56	0.8858
1062.31	0.8245
1071.06	0.8785
1079.81	0.8628
1088.55	0.8731
1097.3	0.8078
1106.05	0.8754
1114.8	0.8689
1123.55	0.9045
1132.29	0.8568
1141.04	0.8992
1149.79	0.8789
1158.54	0.904
1167.28	0.8995
1176.03	0.8116
1184.78	0.9021
1193.53	0.9191
1202.28	0.9148
1211.02	0.9081
1219.77	0.9005
1228.52	0.8568
1237.27	0.8544
1246.01	0.5685
1254.76	0.6501
1263.51	0.7898
1272.26	0.7631
1281.01	0.7554
1289.75	0.8678
1298.5	0.857
1307.25	0.8607
1316	0.7718
1324.74	0.7645
1333.49	0.7898
1342.24	0.7843
1350.99	0.7776
1359.74	0.7844
1368.48	0.669
1377.23	0.5438
1385.98	0.6761
1394.73	0.8486
1403.48	0.8712
1412.22	0.8639
1420.97	0.8344
1429.72	0.7478
1438.47	0.4583
1447.21	0.1591
1455.96	0.2501
1464.71	0.3373
1473.46	0.5322
1482.21	0.7352
1490.95	0.8406
1499.7	0.8812
1508.45	0.9016
1517.2	0.9036
1525.94	0.9157
1534.69	0.9175
1543.44	0.9176
1552.19	0.9146
1560.94	0.9128
1569.68	0.9074
1578.43	0.8907
1587.18	0.8562
1595.93	0.8122
1604.67	0.7686
1613.42	0.4759
1622.17	0.2848
1630.92	0.5054
1639.67	0.7239
1648.41	0.8219
1657.16	0.865
1665.91	0.9018
1674.66	0.9169
1683.4	0.9232
1692.15	0.927
1700.9	0.9279
1709.65	0.9349
1718.4	0.9416
1727.14	0.9453
1735.89	0.9468
1744.64	0.9463
1753.39	0.945
1762.13	0.9435
1770.88	0.942
1779.63	0.9403
1788.38	0.9378
1797.13	0.9367
1805.87	0.9373
1814.62	0.9346
1823.37	0.9333
1832.12	0.9322
1840.86	0.9301
1849.61	0.9265
1858.36	0.9212
1867.11	0.9245
1875.86	0.9321
1884.6	0.9352
1893.35	0.9314
1902.1	0.9217
1910.85	0.9073
1919.59	0.9144
1928.34	0.9334
1937.09	0.9348
1945.84	0.9336
1954.59	0.9325
1963.33	0.9318
1972.08	0.9309
1980.83	0.93
1989.58	0.929
1998.32	0.928
2007.07	0.9269
2015.82	0.9259
2024.57	0.9248
2033.32	0.9234
2042.06	0.9221
2050.81	0.9208
2059.56	0.9197
2068.31	0.9185
2077.05	0.9174
2085.8	0.9164
2094.55	0.9153
2103.3	0.9142
2112.05	0.9131
2120.79	0.9119
2129.54	0.9108
2138.29	0.9096
2147.04	0.9084
2155.78	0.9066
2164.53	0.9049
2173.28	0.9031
2182.03	0.9013
2190.78	0.8996
2199.52	0.8982
2208.27	0.897
2217.02	0.8957
2225.77	0.8944
2234.51	0.8932
2243.26	0.8926
2252.01	0.892
2260.76	0.8914
2269.51	0.891
2278.25	0.8906
2287	0.8902
2295.75	0.8899
2304.5	0.8896
2313.24	0.8882
2321.99	0.8863
2330.74	0.8849
2339.49	0.884
2348.24	0.8832
2356.98	0.883
2365.73	0.8829
2374.48	0.8828
2383.23	0.8823
2391.97	0.8815
2400.72	0.8775
2409.47	0.873
2418.22	0.8713
2426.97	0.8704
2435.71	0.8701
2444.46	0.8701
2453.21	0.8701
2461.96	0.8685
2470.7	0.8668
2479.45	0.8651
2488.2	0.8629
2496.95	0.8607
2505.7	0.8585
2514.44	0.8565
2523.19	0.8542
2531.94	0.8515
2540.69	0.8487
2549.44	0.8458
2558.18	0.8425
2566.93	0.8392
2575.68	0.8354
2584.43	0.8313
2593.17	0.8273
2601.92	0.8234
2610.67	0.8194
2619.42	0.8154
2628.17	0.8117
2636.91	0.8097
2645.66	0.8079
2654.41	0.8054
2663.16	0.7919
2671.9	0.7771
2680.65	0.7701
2689.4	0.7699
2698.15	0.7751
2706.9	0.7832
2715.64	0.7864
2724.39	0.7882
2733.14	0.7886
2741.89	0.7885
2750.63	0.788
2759.38	0.7868
2768.13	0.785
2776.88	0.7808
2785.63	0.763
2794.37	0.7439
2803.12	0.7172
2811.87	0.6657
2820.62	0.6018
2829.36	0.4658
2838.11	0.0862
2846.86	0.1014
2855.61	0.1174
2864.36	0.1333
2873.1	0.1447
2881.85	0.0986
2890.6	0.0148
2899.35	0.0057
2908.09	0.0053
2916.84	0.0464
2925.59	0.1065
2934.34	0.1663
2943.09	0.2257
2951.83	0.2848
2960.58	0.3435
2969.33	0.4018
2978.08	0.4599
2986.82	0.5176
2995.57	0.5749
3004.32	0.6319
3013.07	0.6823
3021.82	0.688
3030.56	0.6904
3039.31	0.6911
3048.06	0.6917
3056.81	0.6916
3065.55	0.6917
3074.3	0.6925
3083.05	0.7105
3091.8	0.7358
3100.55	0.7609
3109.29	0.7779
3118.04	0.7814
3126.79	0.7831
3135.54	0.7836
3144.28	0.7829
3153.03	0.7808
3161.78	0.7779
3170.53	0.7748
3179.28	0.7715
3188.02	0.7692
3196.77	0.7681
3205.52	0.7687
3214.27	0.7701
3223.01	0.7716
3231.76	0.7735
3240.51	0.776
3249.26	0.7778
3258.01	0.7782
3266.75	0.778
3275.5	0.7771
3284.25	0.7761
3293	0.7739
3301.74	0.771
3310.49	0.7674
3319.24	0.7647
3327.99	0.7628
3336.74	0.7613
3345.48	0.7178
3354.23	0.6679
3362.98	0.642
3371.73	0.6449
3380.47	0.6667
3389.22	0.6914
3397.97	0.7161
3406.72	0.7293
3415.47	0.7311
3424.21	0.7269
3432.96	0.709
3441.71	0.6909
3450.46	0.6745
3459.2	0.6716
3467.95	0.688
3476.7	0.7129
3485.45	0.7267
3494.2	0.7315
3502.94	0.736
3511.69	0.7406
3520.44	0.7439
3529.19	0.747
3537.93	0.7487
3546.68	0.75
3555.43	0.7506
3564.18	0.7505
3572.93	0.7502
3581.67	0.75
3590.42	0.7499
3599.17	0.7491
3607.92	0.7482
3616.67	0.7473
3625.41	0.7464
3634.16	0.7454
3642.91	0.7445
3651.66	0.7434
3660.4	0.7424
3669.15	0.7414
3677.9	0.7404
3686.65	0.7394
3695.4	0.7384
3704.14	0.7373
3712.89	0.736
3721.64	0.7348
3730.39	0.7335
3739.13	0.7323
3747.88	0.7314
3756.63	0.7312
3765.38	0.731
3774.13	0.7308
3782.87	0.7303
3791.62	0.7292
3800.37	0.7281
3809.12	0.7271
3817.86	0.726
3826.61	0.725
3835.36	0.7239
3844.11	0.7227
3852.86	0.7214
3861.6	0.7202
3870.35	0.719
3879.1	0.7178
3887.85	0.7166
3896.59	0.7154
