Infrared Spectrum: 3-PYRIDINOL, 6-METHYL-
Formula: C6 H7 N O
CAS: 1121-78-4
State: SOLID (SPLIT MULL), FLUOROLUBE FOR 3800-1330 CM^-^1, NUJOL FOR 1330-450 CM^-^1
Class: COBLENTZ III
Instrument: DOW KBr FOREPRISM-GRATING
Instrument parameters: BLAZED AT 3.5, 12.0, 20.0 MICRON AND CHANGED AT 5.0, 7.5, 14.9 MICRON
Sampling: TRANSMISSION
Resolution: 2
Origin: DOW CHEMICAL COMPANY
1/CM	TRANSMITTANCE
457	0.8949
466	0.9048
475	0.9075
484	0.8923
493	0.8157
502	0.9307
511	0.9224
520	0.8335
529	0.8212
538	0.9503
547	0.9545
556	0.9532
565	0.9518
574	0.955
583	0.9532
592	0.9449
601	0.9374
610	0.937
619	0.9368
628	0.9267
637	0.906
646	0.847
655	0.0618
664	0.9128
673	0.8882
682	0.9133
691	0.9075
700	0.8956
709	0.8512
718	0.7228
727	0.3947
736	0.7449
745	0.7483
754	0.5649
763	0.6243
772	0.7978
781	0.8061
790	0.7954
799	0.7725
808	0.7531
817	0.7101
826	0.3608
835	0.4116
844	0.6329
853	0.7047
862	0.6257
871	0.5575
880	0.6943
889	0.6601
898	0.6147
907	0.5538
916	0.485
925	0.4588
934	0.6774
943	0.6825
952	0.6638
961	0.6742
970	0.6765
979	0.6812
988	0.681
997	0.6742
1006	0.7008
1015	0.6961
1024	0.6118
1033	0.3044
1042	0.5506
1051	0.5199
1060	0.6675
1069	0.6858
1078	0.6875
1087	0.6883
1096	0.6854
1105	0.6736
1114	0.6599
1123	0.6067
1132	0.2584
1141	0.5806
1150	0.6576
1159	0.6501
1168	0.626
1177	0.6051
1186	0.5892
1195	0.5618
1204	0.4768
1213	0.2697
1222	0.122
1231	0.0767
1240	0.3489
1249	0.2901
1258	0.2823
1267	0.2676
1276	0.0376
1285	0.0065
1294	0.1004
1303	0.4936
1312	0.5025
1321	0.2703
1330	0.1834
1339	0.4895
1348	0.3455
1357	0.421
1366	0.7622
1375	0.8081
1384	0.7569
1393	0.8592
1402	0.8502
1411	0.8031
1420	0.7344
1429	0.604
1438	0.4944
1447	0.5839
1456	0.6022
1465	0.5412
1474	0.2946
1483	0.2784
1492	0.2648
1501	0.083
1510	0.1975
1519	0.3459
1528	0.783
1537	0.8138
1546	0.7475
1555	0.5416
1564	0.338
1573	0.1246
1582	0.0292
1591	0.6325
1600	0.9345
1609	0.9314
1618	0.7565
1627	0.8233
1636	0.9243
1645	0.9109
1654	0.8743
1663	0.8106
1672	0.7792
1681	0.7421
1690	0.7376
1699	0.7115
1708	0.6825
1717	0.6531
1726	0.6132
1735	0.5926
1744	0.5749
1753	0.5519
1762	0.5321
1771	0.523
1780	0.5367
1789	0.556
1798	0.5716
1807	0.5771
1816	0.5759
1825	0.573
1834	0.5672
1843	0.5743
1852	0.6014
1861	0.6122
1870	0.6136
1879	0.6146
1888	0.6156
1897	0.6116
1906	0.6398
1915	0.6665
1924	0.6871
1933	0.7025
1942	0.7148
1951	0.7234
1960	0.7296
1969	0.7337
1978	0.736
1987	0.74
1996	0.7578
2005	0.7667
2014	0.7694
2023	0.7712
2032	0.7671
2041	0.7583
2050	0.7572
2059	0.7522
2068	0.7451
2077	0.7375
2086	0.7301
2095	0.7228
2104	0.7148
2113	0.7058
2122	0.6975
2131	0.6893
2140	0.6804
2149	0.6708
2158	0.6601
2167	0.6468
2176	0.6333
2185	0.6189
2194	0.6031
2203	0.5843
2212	0.5593
2221	0.5421
2230	0.5272
2239	0.5123
2248	0.4976
2257	0.483
2266	0.4683
2275	0.4531
2284	0.4379
2293	0.4233
2302	0.4088
2311	0.3966
2320	0.3847
2329	0.3726
2338	0.3596
2347	0.3449
2356	0.3305
2365	0.316
2374	0.3
2383	0.2862
2392	0.2706
2401	0.2496
2410	0.2323
2419	0.2151
2428	0.1996
2437	0.1943
2446	0.1934
2455	0.1915
2464	0.1854
2473	0.1779
2482	0.1694
2491	0.1616
2500	0.1564
2509	0.1507
2518	0.1453
2527	0.1528
2536	0.1663
2545	0.1787
2554	0.1895
2563	0.1871
2572	0.1834
2581	0.1804
2590	0.1775
2599	0.1763
2608	0.1803
2617	0.1877
2626	0.1963
2635	0.212
2644	0.2349
2653	0.2611
2662	0.2775
2671	0.2887
2680	0.2926
2689	0.2916
2698	0.2888
2707	0.2777
2716	0.2662
2725	0.2717
2734	0.2769
2743	0.2798
2752	0.283
2761	0.2913
2770	0.33
2779	0.3753
2788	0.3866
2797	0.3796
2806	0.3668
2815	0.3509
2824	0.3398
2833	0.3398
2842	0.3346
2851	0.3002
2860	0.265
2869	0.2714
2878	0.2952
2887	0.3304
2896	0.3372
2905	0.3343
2914	0.3264
2923	0.32
2932	0.3371
2941	0.37
2950	0.3705
2959	0.3703
2968	0.3706
2977	0.3712
2986	0.3721
2995	0.3747
3004	0.4
3013	0.4195
3022	0.4382
3031	0.4559
3040	0.4698
3049	0.4739
3058	0.4674
3067	0.4732
3076	0.5208
3085	0.5423
3094	0.55
3103	0.5602
3112	0.5848
3121	0.6071
3130	0.6278
3139	0.6468
3148	0.6719
3157	0.6961
3166	0.7138
3175	0.7248
3184	0.7358
3193	0.7439
3202	0.7531
3211	0.7715
3220	0.7881
3229	0.7976
3238	0.8051
3247	0.8119
3256	0.8182
3265	0.8242
3274	0.828
3283	0.8316
3292	0.8343
3301	0.8358
3310	0.8362
3319	0.8365
3328	0.8366
3337	0.8358
3346	0.8352
3355	0.8347
3364	0.8341
3373	0.8333
3382	0.8321
3391	0.8303
3400	0.8283
3409	0.8263
3418	0.8236
3427	0.8209
3436	0.8185
3445	0.8161
3454	0.814
3463	0.8117
3472	0.8096
3481	0.8074
3490	0.8053
3499	0.8041
3508	0.8036
3517	0.8028
3526	0.8026
3535	0.8028
3544	0.8032
3553	0.8035
3562	0.8036
3571	0.8036
3580	0.8036
3589	0.8036
3598	0.8022
3607	0.8006
3616	0.7978
3625	0.795
3634	0.7925
3643	0.7907
3652	0.7889
3661	0.7871
3670	0.7847
3679	0.7808
3688	0.7771
3697	0.7745
3706	0.7719
3715	0.7695
3724	0.7682
3733	0.7668
3742	0.7635
3751	0.7568
3760	0.7495
3769	0.7448
3778	0.7424
3787	0.7407
3796	0.739
