Infrared Spectrum: Dicyclopropyl ketone
Formula: C 7 H 10 O
CAS: 1121-37-5
State: gas
Instrument: HP-GC/MS/IRD
Origin: NIST Mass Spectrometry Data Center
1/CM	ABSORBANCE
550	5.5e-05
562	0
574	5.25e-05
586	4.5e-05
598	0.000245
610	0.000785
622	0.0010075
634	0.0007125
646	0.0002675
658	9.75e-05
670	6.75e-05
682	9.5e-05
694	0.000135
706	0.0001575
718	0.0003275
730	0.0003425
742	0.0002975
754	0.0003475
766	0.0006525
778	0.00102
790	0.0018475
802	0.0027525
814	0.0034275
826	0.00351
838	0.003885
850	0.0040275
862	0.0030025
874	0.0021425
886	0.0020725
898	0.002255
910	0.002655
922	0.00243
934	0.0019475
946	0.0022425
958	0.0029175
970	0.0037325
982	0.005485
994	0.005985
1006	0.0067875
1018	0.00943
1030	0.009845
1042	0.0083725
1054	0.0135675
1066	0.0227875
1078	0.0245775
1090	0.01937
1102	0.012625
1114	0.0050925
1126	0.0027075
1138	0.001775
1150	0.0014825
1162	0.0021475
1174	0.00424
1186	0.0055125
1198	0.00516
1210	0.0052775
1222	0.0041175
1234	0.0011875
1246	0.00054
1258	0.00041
1270	0.00037
1282	0.0004125
1294	0.0004425
1306	0.0005075
1318	0.0006625
1330	0.0010425
1342	0.001645
1354	0.00293
1366	0.0057975
1378	0.011895
1390	0.0212125
1402	0.0227625
1414	0.0130475
1426	0.006615
1438	0.005115
1450	0.0052975
1462	0.0042175
1474	0.001925
1486	0.0009325
1498	0.000635
1510	0.000545
1522	0.00055
1534	0.000555
1546	0.0005175
1558	0.0004
1570	0.0002975
1582	0.0003025
1594	0.0003925
1606	0.000495
1618	0.0007625
1630	0.00105
1642	0.00133
1654	0.00193
1666	0.0032475
1678	0.007275
1690	0.0162
1702	0.0223575
1714	0.0182325
1726	0.008215
1738	0.003235
1750	0.00184
1762	0.0012525
1774	0.0008025
1786	0.000525
1798	0.0004575
1810	0.0004825
1822	0.0005325
1834	0.000615
1846	0.0006025
1858	0.0005675
1870	0.00058
1882	0.000575
1894	0.000655
1906	0.0007
1918	0.00069
1930	0.000605
1942	0.000475
1954	0.0003625
1966	0.000295
1978	0.00029
1990	0.0002925
2002	0.00029
2014	0.00027
2026	0.0001825
2038	0.0002125
2050	0.0002425
2062	0.00033
2074	0.000505
2086	0.0005925
2098	0.0006325
2110	0.0005625
2122	0.0005625
2134	0.000495
2146	0.0003575
2158	0.00029
2170	0.000225
2182	0.0002225
2194	0.0002275
2206	0.000215
2218	0.000245
2230	0.000235
2242	0.0002075
2254	0.0002075
2266	0.000195
2278	0.000155
2290	0.0001625
2302	0.000185
2314	0.0001825
2326	0.000145
2338	0.000105
2350	0.000155
2362	0.00019
2374	0.00016
2386	0.000115
2398	7.75e-05
2410	0.0001275
2422	0.000245
2434	0.0002975
2446	0.000235
2458	0.0002025
2470	0.0002625
2482	0.00033
2494	0.0003
2506	0.000185
2518	0.000155
2530	0.0001475
2542	0.000175
2554	0.0001575
2566	0.0001225
2578	0.0001
2590	0.0001125
2602	8e-05
2614	8.75e-05
2626	8e-05
2638	6.25e-05
2650	2.25e-05
2662	5.5e-05
2674	3e-05
2686	3.75e-05
2698	1.75e-05
2710	5.75e-05
2722	5.25e-05
2734	5e-05
2746	3.5e-05
2758	4.25e-05
2770	4e-05
2782	1e-05
2794	6e-05
2806	7.25e-05
2818	7.5e-05
2830	0.0001225
2842	0.00019
2854	0.0001875
2866	0.0002425
2878	0.00031
2890	0.00027
2902	0.00022
2914	0.000195
2926	0.000205
2938	0.00025
2950	0.000285
2962	0.0004775
2974	0.000835
2986	0.0013725
2998	0.0031525
3010	0.0082875
3022	0.011275
3034	0.0081775
3046	0.0047675
3058	0.0034525
3070	0.00235
3082	0.0023125
3094	0.00395
3106	0.0038925
3118	0.0017475
3130	0.0005875
3142	0.0003575
3154	0.0003075
3166	0.000145
3178	0.0001475
3190	5.5e-05
3202	7.75e-05
3214	9e-05
3226	8.25e-05
3238	5.5e-05
3250	9.5e-05
3262	9.75e-05
3274	0.0001125
3286	9.25e-05
3298	0.0001325
3310	0.0001325
3322	9e-05
3334	0.0001225
3346	0.0001625
3358	0.0002425
3370	0.000355
3382	0.00048
3394	0.0004875
3406	0.00031
3418	0.0001775
3430	0.00018
3442	0.0001125
3454	9e-05
3466	0.0001
3478	6.25e-05
3490	3.75e-05
3502	4.5e-05
3514	9e-05
3526	7e-05
3538	5.5e-05
3550	5e-06
3562	7.25e-05
3574	9.75e-05
3586	8.75e-05
3598	7e-05
3610	5e-05
3622	5.25e-05
3634	7.75e-05
3646	7.75e-05
3658	8.25e-05
3670	5.75e-05
3682	5.75e-05
3694	5.5e-05
3706	5.5e-05
3718	0.000115
3730	6.25e-05
3742	6.75e-05
3754	0.0001025
3766	4.25e-05
3778	3.5e-05
3790	7.5e-05
3802	5.5e-05
3814	0.000135
3826	0.0001875
3838	0.000145
