Infrared Spectrum: 3-Chloro-6-methylpyridazine
Formula: C 5 H 5 Cl N 2
CAS: 1121-79-5
State: gas
Origin: EPA-IR VAPOR PHASE LIBRARY
1/CM	ABSORBANCE
549.8	0.00175468
559.445	0.00175734
569.09	0.000779
578.734	0.001095
588.379	0.0017834
598.024	0.0021096
607.669	0.0023304
617.313	0.002117
626.958	0.0025883
636.603	0.00294
646.248	0.00402
655.893	0.00551
665.537	0.0049
675.182	0.0025687
684.827	0.0019785
694.472	0.00166589
704.116	0.0015742
713.761	0.001233
723.406	0.0018651
733.051	0.00147
742.695	0.0017739
752.34	0.0018091
761.985	0.0021938
771.63	0.00389
781.275	0.00432
790.919	0.0058
800.564	0.00742
810.209	0.01315
819.854	0.01678
829.498	0.01152
839.143	0.0069
848.788	0.00364
858.433	0.00277
868.078	0.0025048
877.722	0.0021919
887.367	0.0020924
897.012	0.001544
906.657	0.0021041
916.301	0.0021448
925.946	0.0016197
935.591	0.0024158
945.236	0.0022263
954.88	0.00276
964.525	0.0021424
974.17	0.00318
983.815	0.00331
993.46	0.002468
1003.1	0.0025331
1012.75	0.00405
1022.39	0.00538
1032.04	0.00853
1041.68	0.00962
1051.33	0.01165
1060.97	0.01038
1070.62	0.00758
1080.26	0.00417
1089.91	0.00332
1099.55	0.0036
1109.2	0.00557
1118.84	0.00941
1128.49	0.02059
1138.13	0.05003
1147.78	0.05371
1157.42	0.02602
1167.07	0.00658
1176.71	0.00509
1186.36	0.0018933
1196	0.00507
1205.64	0.00425
1215.29	0.00528
1224.93	0.00855
1234.58	0.00755
1244.22	0.0025625
1253.87	0.001431
1263.51	0.0003
1273.16	0.001197
1282.8	0.001095
1292.45	0.0018422
1302.09	0.0021321
1311.74	0.00299
1321.38	0.00278
1331.03	0.0025118
1340.67	0.0022152
1350.32	0.00271
1359.96	0.0032
1369.61	0.00443
1379.25	0.00808
1388.9	0.02267
1398.54	0.0553
1408.18	0.06419
1417.83	0.042
1427.47	0.01317
1437.12	0.00999
1446.76	0.00937
1456.41	0.00772
1466.05	0.00541
1475.7	0.00444
1485.34	0.00427
1494.99	0.00396
1504.63	0.0042
1514.28	0.00529
1523.92	0.00754
1533.57	0.00938
1543.21	0.00876
1552.86	0.0068
1562.5	0.00496
1572.15	0.00418
1581.79	0.00426
1591.44	0.00302
1601.08	0.0021904
1610.73	0.0023831
1620.37	0.0024205
1630.01	0.0020788
1639.66	0.0024152
1649.3	0.0022049
1658.95	0.0018164
1668.59	0.0018334
1678.24	0.0021304
1687.88	0.0020573
1697.53	0.00189
1707.17	0.0017947
1716.82	0.0018947
1726.46	0.00174814
1736.11	0.001568
1745.75	0.00173877
1755.4	0.0018785
1765.04	0.0018687
1774.69	0.0020044
1784.33	0.0021822
1793.98	0.0020874
1803.62	0.001986
1813.27	0.001919
1822.91	0.0019561
1832.55	0.0018062
1842.2	0.0017151
1851.84	0.0018361
1861.49	0.0020413
1871.13	0.0018018
1880.78	0.0019131
1890.42	0.0019914
1900.07	0.0019272
1909.71	0.0019474
1919.36	0.0024842
1929	0.00271
1938.65	0.0025863
1948.29	0.0022236
1957.94	0.0019464
1967.58	0.0019659
1977.23	0.00172874
1986.87	0.0020347
1996.52	0.0019617
2006.16	0.0017888
2015.81	0.0018014
2025.45	0.0019838
2035.1	0.0020646
2044.74	0.0020635
2054.38	0.0018255
2064.03	0.0018182
2073.67	0.0020813
2083.32	0.0019597
2092.96	0.0020513
2102.61	0.0021204
2112.25	0.0018633
2121.9	0.0020927
2131.54	0.00201
2141.19	0.0019223
2150.83	0.0016938
2160.48	0.0019673
2170.12	0.0021608
2179.77	0.0023452
2189.41	0.0025263
2199.06	0.0022097
2208.7	0.0018096
2218.35	0.0018987
2227.99	0.0020313
2237.64	0.0018177
2247.28	0.0020776
2256.92	0.0018834
2266.57	0.0021523
2276.21	0.0022606
2285.86	0.0022364
2295.5	0.0021466
2305.15	0.001983
2314.79	0.0022569
2324.44	0.0018625
2334.08	0.0019506
2343.73	0.0018061
2353.37	0.00169268
2363.02	0.0019794
2372.66	0.0020986
2382.31	0.0021122
2391.95	0.0019247
2401.6	0.0020481
2411.24	0.0021025
2420.89	0.0016504
2430.53	0.0021926
2440.18	0.0023306
2449.82	0.0022031
2459.47	0.0023424
2469.11	0.0020984
2478.75	0.0022402
2488.4	0.0018481
2498.04	0.0022516
2507.69	0.002096
2517.33	0.0019767
2526.98	0.0026634
2536.62	0.0023023
2546.27	0.0024128
2555.91	0.0016261
2565.56	0.001991
2575.2	0.0019597
2584.85	0.0021734
2594.49	0.0019542
2604.14	0.0021926
2613.78	0.0020791
2623.43	0.0018516
2633.07	0.00175476
2642.72	0.0017976
2652.36	0.0020505
2662.01	0.0021075
2671.65	0.0022038
2681.29	0.0024099
2690.94	0.0019385
2700.58	0.0019343
2710.23	0.0023139
2719.87	0.0021498
2729.52	0.0020529
2739.16	0.0021714
2748.81	0.0020679
2758.45	0.0019517
2768.1	0.0019283
2777.74	0.0022899
2787.39	0.0020226
2797.03	0.002268
2806.68	0.0021314
2816.32	0.0020353
2825.97	0.0022916
2835.61	0.0022887
2845.26	0.0025021
2854.9	0.00297
2864.55	0.00295
2874.19	0.00307
2883.84	0.00362
2893.48	0.0034
2903.12	0.00347
2912.77	0.00343
2922.41	0.00484
2932.06	0.00722
2941.7	0.00813
2951.35	0.00636
2960.99	0.00443
2970.64	0.00395
2980.28	0.00309
2989.93	0.00301
2999.57	0.00276
3009.22	0.00293
3018.86	0.00364
3028.51	0.00364
3038.15	0.00507
3047.8	0.00543
3057.44	0.00518
3067.09	0.00396
3076.73	0.00386
3086.38	0.00306
3096.02	0.00277
3105.67	0.0018559
3115.31	0.0022928
3124.95	0.0021998
3134.6	0.0021185
3144.24	0.0018063
3153.89	0.0019751
3163.53	0.00171571
3173.18	0.00167715
3182.82	0.0023199
3192.47	0.001495
3202.11	0.0022326
3211.76	0.0017863
3221.4	0.0019024
3231.05	0.001436
3240.69	0.0020134
3250.34	0.00170709
3259.98	0.0018086
3269.63	0.001245
3279.27	0.0018126
3288.92	0.0016016
3298.56	0.0019481
3308.21	0.001551
3317.85	0.00169501
3327.49	0.001416
3337.14	0.0020712
3346.78	0.001429
3356.43	0.0018289
3366.07	0.00172138
3375.72	0.00173219
3385.36	0.001454
3395.01	0.0018361
3404.65	0.0021186
3414.3	0.00176394
3423.94	0.0021643
3433.59	0.001351
3443.23	0.001493
3452.88	0.0025964
3462.52	0.001048
3472.17	0.0019703
3481.81	0.00141
3491.46	0.001428
3501.1	0.001263
3510.75	0.0020541
3520.39	0.0015
3530.04	0.0018673
3539.68	0.00167005
3549.32	0.001277
3558.97	0.001307
3568.61	0.0019091
3578.26	0.0015739
3587.9	0.001362
3597.55	0.001376
3607.19	0.001192
3616.84	0.00158
3626.48	0.001269
3636.13	0.0022152
3645.77	0.0015762
3655.42	0.00143
3665.06	0.0020231
3674.71	0.0018386
3684.35	0.001409
3694	0.0019014
3703.64	0.001543
3713.29	0.0017867
3722.93	0.0021363
3732.58	0.00106
3742.22	0.0015753
3751.86	0.00166251
3761.51	0.0017745
3771.15	0.001018
3780.8	0.001562
3790.44	0.0022884
3800.09	0.001448
3809.73	0.0019746
3819.38	0.0021537
3829.02	0.0023302
3838.67	0.0016107
3848.31	0.0016165
3857.96	0.001913
3867.6	0.001235
3877.25	0.00171848
3886.89	0.001285
3896.54	0.001274
3906.18	0.0015701
3915.83	0.001389
3925.47	0.0019523
3935.12	0.00174402
3944.76	0.00271
3954.41	0.0016161
3964.05	0.0021129
3973.69	0.0015733
3983.34	0.0019015
3992.98	0.00166805
