Infrared Spectrum: 2-Hydroxythiophenol
Formula: C 6 H 6 O S
CAS: 1121-24-0
State: gas
Origin: EPA-IR VAPOR PHASE LIBRARY
1/CM	ABSORBANCE
549.8	0.003498
559.445	0.002568
569.09	0.002198
578.734	0.001808
588.379	0.001567
598.024	0.002798
607.669	0.001918
617.313	0.0011411
626.958	0.002698
636.603	0.001998
646.248	0.001708
655.893	0.002418
665.537	0.003138
675.182	0.004738
684.827	0.004098
694.472	0.003148
704.116	0.004128
713.761	0.004108
723.406	0.006408
733.051	0.012508
742.695	0.023028
752.34	0.026138
761.985	0.014158
771.63	0.006718
781.275	0.002858
790.919	0.002728
800.564	0.002998
810.209	0.003668
819.854	0.003658
829.498	0.006128
839.143	0.006058
848.788	0.003358
858.433	0.003088
868.078	0.002288
877.722	0.002448
887.367	0.001788
897.012	0.003038
906.657	0.003968
916.301	0.003518
925.946	0.003468
935.591	0.002198
945.236	0.002018
954.88	0.002188
964.525	0.001778
974.17	0.0016767
983.815	0.002398
993.46	0.002778
1003.1	0.001828
1012.75	0.003858
1022.39	0.005908
1032.04	0.004548
1041.68	0.003088
1051.33	0.003338
1060.97	0.002848
1070.62	0.003938
1080.26	0.002948
1089.91	0.003288
1099.55	0.003868
1109.2	0.003938
1118.84	0.006928
1128.49	0.007848
1138.13	0.006348
1147.78	0.009048
1157.42	0.012098
1167.07	0.015288
1176.71	0.017458
1186.36	0.023658
1196	0.032448
1205.64	0.034578
1215.29	0.027588
1224.93	0.015508
1234.58	0.015358
1244.22	0.015688
1253.87	0.015288
1263.51	0.012488
1273.16	0.013708
1282.8	0.017488
1292.45	0.016028
1302.09	0.009998
1311.74	0.006538
1321.38	0.006988
1331.03	0.009258
1340.67	0.008878
1350.32	0.007218
1359.96	0.003848
1369.61	0.002848
1379.25	0.002938
1388.9	0.003088
1398.54	0.002538
1408.18	0.002128
1417.83	0.002228
1427.47	0.003578
1437.12	0.005838
1446.76	0.009708
1456.41	0.016388
1466.05	0.032768
1475.7	0.031848
1485.34	0.026418
1494.99	0.010528
1504.63	0.005998
1514.28	0.003808
1523.92	0.002078
1533.57	0.002058
1543.21	0.002328
1552.86	0.004058
1562.5	0.007758
1572.15	0.012488
1581.79	0.014238
1591.44	0.010938
1601.08	0.006898
1610.73	0.004028
1620.37	0.002918
1630.01	0.002018
1639.66	0.001728
1649.3	0.0013049
1658.95	0.002078
1668.59	0.002148
1678.24	0.002348
1687.88	0.002208
1697.53	0.002078
1707.17	0.002058
1716.82	0.001858
1726.46	0.001878
1736.11	0.0016773
1745.75	0.001898
1755.4	0.001728
1765.04	0.0016248
1774.69	0.001858
1784.33	0.002038
1793.98	0.001858
1803.62	0.0017049
1813.27	0.001788
1822.91	0.001748
1832.55	0.0015209
1842.2	0.0016789
1851.84	0.0016235
1861.49	0.0015853
1871.13	0.0016179
1880.78	0.001948
1890.42	0.001602
1900.07	0.002108
1909.71	0.001738
1919.36	0.002018
1929	0.002058
1938.65	0.0014846
1948.29	0.0012878
1957.94	0.0013355
1967.58	0.0010824
1977.23	0.001156
1986.87	0.0009218
1996.52	0.0008801
2006.16	0.0008884
2015.81	0.0010781
2025.45	0.001038
2035.1	0.0009344
2044.74	0.001264
2054.38	0.0013272
2064.03	0.0011525
2073.67	0.0012632
2083.32	0.0011732
2092.96	0.0010273
2102.61	0.0010248
2112.25	0.0011505
2121.9	0.001099
2131.54	0.00074285
2141.19	0.0010424
2150.83	0.0010546
2160.48	0.0009334
2170.12	0.00075085
2179.77	0.0008917
2189.41	0.0009195
2199.06	0.0008462
2208.7	0.0009826
2218.35	0.0011744
2227.99	0.00073102
2237.64	0.0012765
2247.28	0.0008272
2256.92	0.0008802
2266.57	0.000608
2276.21	0.0009494
2285.86	0.00078898
2295.5	0.0011494
2305.15	0.0010932
2314.79	0.0010754
2324.44	0.0006966
2334.08	0.0009375
2343.73	0.0008689
2353.37	0.000505
2363.02	0.0011462
2372.66	0.0006876
2382.31	0.0010433
2391.95	0.0009709
2401.6	0.0013926
2411.24	0.0009358
2420.89	0.001131
2430.53	0.0010175
2440.18	0.001271
2449.82	0.0010432
2459.47	0.0009407
2469.11	0.0010033
2478.75	0.0009843
2488.4	0.0011807
2498.04	0.0010407
2507.69	0.0009945
2517.33	0.0011789
2526.98	0.0012759
2536.62	0.0010048
2546.27	0.0014841
2555.91	0.0015066
2565.56	0.0016802
2575.2	0.0010783
2584.85	0.000538
2594.49	0.001019
2604.14	0.0011214
2613.78	0.0009608
2623.43	0.0006448
2633.07	0.00075018
2642.72	0.00075146
2652.36	0.000376
2662.01	0.0007787
2671.65	0.00070082
2681.29	0.0008604
2690.94	0.0008406
2700.58	0.0008989
2710.23	0.0010166
2719.87	0.0009388
2729.52	0.0010342
2739.16	0.00097
2748.81	0.001134
2758.45	0.00043
2768.1	0.0009337
2777.74	0.000751
2787.39	0.0006908
2797.03	0.0008945
2806.68	0.0006969
2816.32	0.00076264
2825.97	0.000562
2835.61	0.000269
2845.26	0.000822
2854.9	0.000604
2864.55	0.001096
2874.19	0.0010423
2883.84	0.0006136
2893.48	0.0010774
2903.12	0.00073216
2912.77	0.0011819
2922.41	3.9e-05
2932.06	0.0006228
2941.7	0.0006862
2951.35	0.000312
2960.99	3e-06
2970.64	0.00044
2980.28	0.000816
2989.93	0.000274
2999.57	0.0009887
3009.22	0.00167
3018.86	0.002528
3028.51	0.002948
3038.15	0.003708
3047.8	0.003358
3057.44	0.003778
3067.09	0.005898
3076.73	0.008148
3086.38	0.007468
3096.02	0.004518
3105.67	0.0013465
3115.31	0.0013151
3124.95	0.0012699
3134.6	0.0014749
3144.24	0.0014927
3153.89	0.0011883
3163.53	0.0006458
3173.18	0.0010265
3182.82	0.001123
3192.47	0.0011268
3202.11	0.0006413
3211.76	0.0009476
3221.4	0.000947
3231.05	0.0011838
3240.69	0.0013658
3250.34	0.0008719
3259.98	0.002308
3269.63	0.000918
3279.27	0.000488
3288.92	0.0009291
3298.56	0.0006415
3308.21	0.0012673
3317.85	0.00076025
3327.49	0.0008437
3337.14	0.0011956
3346.78	0.0011269
3356.43	0.000549
3366.07	0.0016328
3375.72	0.0011218
3385.36	0.0014943
3395.01	0.000461
3404.65	0.0010436
3414.3	0.0011678
3423.94	0.0010533
3433.59	0.0011448
3443.23	0.0012024
3452.88	0.0010553
3462.52	0.002128
3472.17	0.004318
3481.81	0.009968
3491.46	0.015528
3501.1	0.015828
3510.75	0.013458
3520.39	0.011008
3530.04	0.007648
3539.68	0.005928
3549.32	0.005538
3558.97	0.004528
3568.61	0.002668
3578.26	0.002278
3587.9	0.001718
3597.55	0.002208
3607.19	0.002128
3616.84	0.0011861
3626.48	0.0014792
3636.13	0.002438
3645.77	0.004548
3655.42	0.003518
3665.06	0.003138
3674.71	0.0013721
3684.35	0.0015333
3694	0.0008881
3703.64	0.0010724
3713.29	0.0016323
3722.93	0.0014309
3732.58	0.0014501
3742.22	0.0013297
3751.86	0.001778
3761.51	0.000595
3771.15	0.0016277
3780.8	0.0016126
3790.44	0.0014208
3800.09	0.001538
3809.73	0.0012376
3819.38	0.000458
3829.02	0.0006229
3838.67	0.0009768
3848.31	0.0015112
3857.96	0.0012912
3867.6	0.000185
3877.25	0.0013147
3886.89	0.0009456
3896.54	0.0011112
3906.18	0.0013059
3915.83	0.000593
3925.47	0.0007466
3935.12	0.0011665
3944.76	0.0015012
3954.41	0.000448
3964.05	0.000435
3973.69	0.000826
3983.34	0.000577
3992.98	0.0009512
