Infrared Spectrum: 4-(Methylthio)thiophenol
Formula: C 7 H 8 S 2
CAS: 1122-97-0
State: gas
Origin: EPA-IR VAPOR PHASE LIBRARY
1/CM	ABSORBANCE
549.8	0.00295
559.445	0.001533
569.09	0.0021305
578.734	0.00382
588.379	0.0020178
598.024	0.00384
607.669	0.0033
617.313	0.00324
626.958	0.00298
636.603	0.001526
646.248	0.002196
655.893	0.001578
665.537	0.00187947
675.182	0.0026427
684.827	0.0024071
694.472	0.0026072
704.116	0.00344
713.761	0.0032
723.406	0.00285
733.051	0.0025586
742.695	0.00354
752.34	0.00398
761.985	0.00564
771.63	0.00853
781.275	0.01599
790.919	0.02736
800.564	0.03767
810.209	0.03512
819.854	0.02508
829.498	0.01385
839.143	0.00862
848.788	0.00574
858.433	0.00461
868.078	0.00455
877.722	0.00412
887.367	0.00465
897.012	0.00399
906.657	0.00514
916.301	0.00577
925.946	0.00659
935.591	0.00619
945.236	0.00679
954.88	0.00926
964.525	0.01543
974.17	0.01474
983.815	0.00721
993.46	0.00554
1003.1	0.01389
1012.75	0.02619
1022.39	0.01705
1032.04	0.00602
1041.68	0.00506
1051.33	0.00557
1060.97	0.00634
1070.62	0.00707
1080.26	0.00878
1089.91	0.01133
1099.55	0.03909
1109.2	0.06618
1118.84	0.02939
1128.49	0.00928
1138.13	0.00471
1147.78	0.00426
1157.42	0.0043
1167.07	0.0022849
1176.71	0.0017374
1186.36	0.0025702
1196	0.001627
1205.64	0.001144
1215.29	0.001431
1224.93	0.0024659
1234.58	0.001589
1244.22	0.0025616
1253.87	0.00305
1263.51	0.0025834
1273.16	0.00305
1282.8	0.00333
1292.45	0.00401
1302.09	0.00488
1311.74	0.00754
1321.38	0.00941
1331.03	0.00733
1340.67	0.00436
1350.32	0.00419
1359.96	0.00479
1369.61	0.00725
1379.25	0.01075
1388.9	0.01208
1398.54	0.012
1408.18	0.0108
1417.83	0.01285
1427.47	0.01613
1437.12	0.02118
1446.76	0.02142
1456.41	0.01661
1466.05	0.03166
1475.7	0.07489
1485.34	0.05617
1494.99	0.01276
1504.63	0.00707
1514.28	0.00493
1523.92	0.00422
1533.57	0.00419
1543.21	0.00422
1552.86	0.00476
1562.5	0.00516
1572.15	0.00595
1581.79	0.00623
1591.44	0.00582
1601.08	0.00503
1610.73	0.00571
1620.37	0.00683
1630.01	0.00605
1639.66	0.0054
1649.3	0.00438
1658.95	0.00354
1668.59	0.00333
1678.24	0.00294
1687.88	0.0024027
1697.53	0.0026801
1707.17	0.0024577
1716.82	0.0019189
1726.46	0.0026058
1736.11	0.0026133
1745.75	0.0026388
1755.4	0.00295
1765.04	0.00333
1774.69	0.0035
1784.33	0.00286
1793.98	0.0024383
1803.62	0.0020853
1813.27	0.0021376
1822.91	0.002191
1832.55	0.0027038
1842.2	0.0026212
1851.84	0.00281
1861.49	0.00325
1871.13	0.00436
1880.78	0.00486
1890.42	0.00473
1900.07	0.00413
1909.71	0.00305
1919.36	0.0025319
1929	0.0022562
1938.65	0.0027754
1948.29	0.0022133
1957.94	0.0021315
1967.58	0.0022464
1977.23	0.002309
1986.87	0.001987
1996.52	0.0020688
2006.16	0.0020947
2015.81	0.0020844
2025.45	0.0024539
2035.1	0.0022208
2044.74	0.002107
2054.38	0.0020713
2064.03	0.002286
2073.67	0.0023131
2083.32	0.0021755
2092.96	0.0021146
2102.61	0.0024413
2112.25	0.0024336
2121.9	0.0021137
2131.54	0.0023263
2141.19	0.0023287
2150.83	0.0023833
2160.48	0.002291
2170.12	0.0020606
2179.77	0.0021697
2189.41	0.0021548
2199.06	0.00189948
2208.7	0.0020699
2218.35	0.002025
2227.99	0.0021273
2237.64	0.0021001
2247.28	0.0020869
2256.92	0.0023221
2266.57	0.0025741
2276.21	0.0025018
2285.86	0.0026174
2295.5	0.00298
2305.15	0.00295
2314.79	0.0022977
2324.44	0.0025846
2334.08	0.0021856
2343.73	0.0021281
2353.37	0.0024211
2363.02	0.0023327
2372.66	0.0025543
2382.31	0.0025525
2391.95	0.0023674
2401.6	0.0025842
2411.24	0.0027476
2420.89	0.0023087
2430.53	0.0026695
2440.18	0.0024595
2449.82	0.0026034
2459.47	0.0023784
2469.11	0.0022118
2478.75	0.0022046
2488.4	0.0022278
2498.04	0.0020815
2507.69	0.0024742
2517.33	0.0023309
2526.98	0.0024953
2536.62	0.0026898
2546.27	0.0027269
2555.91	0.0025612
2565.56	0.0027153
2575.2	0.00339
2584.85	0.00294
2594.49	0.003
2604.14	0.00281
2613.78	0.0022345
2623.43	0.0023735
2633.07	0.0021798
2642.72	0.0024399
2652.36	0.0021535
2662.01	0.0025266
2671.65	0.0027772
2681.29	0.00308
2690.94	0.002517
2700.58	0.0021738
2710.23	0.001947
2719.87	0.0023961
2729.52	0.0023909
2739.16	0.0023665
2748.81	0.00281
2758.45	0.0021471
2768.1	0.0026021
2777.74	0.00281
2787.39	0.00282
2797.03	0.00344
2806.68	0.00302
2816.32	0.00297
2825.97	0.00421
2835.61	0.00595
2845.26	0.00656
2854.9	0.00692
2864.55	0.00571
2874.19	0.00486
2883.84	0.00508
2893.48	0.00572
2903.12	0.00704
2912.77	0.01083
2922.41	0.01842
2932.06	0.02706
2941.7	0.02005
2951.35	0.01126
2960.99	0.009
2970.64	0.00869
2980.28	0.00967
2989.93	0.01218
2999.57	0.01377
3009.22	0.01108
3018.86	0.01105
3028.51	0.00901
3038.15	0.0059
3047.8	0.00697
3057.44	0.01056
3067.09	0.0165
3076.73	0.01873
3086.38	0.01519
3096.02	0.00852
3105.67	0.00528
3115.31	0.0035
3124.95	0.00314
3134.6	0.0025992
3144.24	0.0022448
3153.89	0.0027569
3163.53	0.0025638
3173.18	0.0026189
3182.82	0.002041
3192.47	0.00288
3202.11	0.0021442
3211.76	0.001962
3221.4	0.001788
3231.05	0.0020577
3240.69	0.0024738
3250.34	0.000887
3259.98	0.001684
3269.63	0.0021986
3279.27	0.0017519
3288.92	0.0022331
3298.56	0.0020282
3308.21	0.002004
3317.85	0.0026461
3327.49	0.0023593
3337.14	0.001605
3346.78	0.001657
3356.43	0.001557
3366.07	0.0017429
3375.72	0.0019804
3385.36	0.0024448
3395.01	0.00186704
3404.65	0.001281
3414.3	0.001472
3423.94	0.0020095
3433.59	0.0019758
3443.23	0.001319
3452.88	0.0020988
3462.52	0.001332
3472.17	0.001667
3481.81	0.00172
3491.46	0.0024881
3501.1	0.0022149
3510.75	0.0027938
3520.39	0.0019012
3530.04	0.0020572
3539.68	0.00161
3549.32	0.002111
3558.97	0.0023982
3568.61	0.0023561
3578.26	0.00189585
3587.9	0.001359
3597.55	0.001679
3607.19	0.001569
3616.84	0.0021774
3626.48	0.001455
3636.13	0.0021678
3645.77	0.0017166
3655.42	0.0019622
3665.06	0.0021248
3674.71	0.0023927
3684.35	0.0022059
3694	0.00187306
3703.64	0.00295
3713.29	0.0019449
3722.93	0.0024129
3732.58	0.0023122
3742.22	0.001209
3751.86	0.00219
3761.51	0.0022319
3771.15	0.002292
3780.8	0.0017305
3790.44	0.001511
3800.09	0.001286
3809.73	0.0018252
3819.38	0.002465
3829.02	0.0024585
3838.67	0.0024749
3848.31	0.001607
3857.96	0.0020056
3867.6	0.0021633
3877.25	0.001699
3886.89	0.0021836
3896.54	0.0021849
3906.18	0.001696
3915.83	0.0021106
3925.47	0.0019478
3935.12	0.0025977
3944.76	0.00180033
3954.41	0.0022793
3964.05	0.0019519
3973.69	0.00262
3983.34	0.00187007
3992.98	0.0022226
