Infrared Spectrum: 2-Ethylidenecyclohexanone (c,t)
Formula: C 8 H 12 O
CAS: 1122-24-3
State: gas
Instrument: HP-GC/MS/IRD
Origin: NIST Mass Spectrometry Data Center
1/CM	ABSORBANCE
550	0.0011676
562	0.0003794
574	0.000273
586	0.0003038
598	0.0001246
610	2.94e-05
622	0.0003038
634	0.0003556
646	0.0002534
658	0.0002436
670	0.0003416
682	0.0006104
694	0.0004214
706	0.0001008
718	8.4e-05
730	7.7e-05
742	7.28e-05
754	9.52e-05
766	9.24e-05
778	9.24e-05
790	0.0003514
802	0.0008778
814	0.0014196
826	0.0011662
838	0.0010304
850	0.0010346
862	0.0012082
874	0.001106
886	0.000882
898	0.0007182
910	0.0006496
922	0.0003528
934	0.0003038
946	0.0004158
958	0.0003976
970	0.000357
982	0.0008428
994	0.0010444
1006	0.0006272
1018	0.000399
1030	0.0004592
1042	0.0004732
1054	0.0004998
1066	0.0007588
1078	0.0008344
1090	0.0008414
1102	0.0015148
1114	0.0021658
1126	0.0031766
1138	0.0038976
1150	0.0028168
1162	0.001148
1174	0.0006426
1186	0.0004424
1198	0.0004494
1210	0.000665
1222	0.0011494
1234	0.0025256
1246	0.0049322
1258	0.0057582
1270	0.0035952
1282	0.0017262
1294	0.0012432
1306	0.001953
1318	0.0020188
1330	0.001253
1342	0.000924
1354	0.000658
1366	0.0005418
1378	0.0006342
1390	0.0006412
1402	0.0007224
1414	0.0011452
1426	0.00147
1438	0.001666
1450	0.0017696
1462	0.0015806
1474	0.0010304
1486	0.0005768
1498	0.000434
1510	0.000434
1522	0.000448
1534	0.0004144
1546	0.0003654
1558	0.0003724
1570	0.0004788
1582	0.000756
1594	0.0011872
1606	0.0022932
1618	0.0052024
1630	0.0074214
1642	0.0054726
1654	0.0023002
1666	0.001589
1678	0.0022652
1690	0.0055594
1702	0.0109564
1714	0.0107324
1726	0.0045752
1738	0.0015764
1750	0.0009478
1762	0.0005866
1774	0.0003668
1786	0.0002576
1798	0.0002044
1810	0.0001946
1822	0.0001806
1834	0.0001498
1846	0.0001792
1858	0.000175
1870	0.0001652
1882	0.0001596
1894	8.82e-05
1906	8.12e-05
1918	7.7e-05
1930	0.0001008
1942	0.0001246
1954	8.68e-05
1966	7e-05
1978	7.14e-05
1990	7.98e-05
2002	8.12e-05
2014	5.46e-05
2026	2.52e-05
2038	5.6e-05
2050	6.58e-05
2062	5.04e-05
2074	6.02e-05
2086	3.64e-05
2098	6.02e-05
2110	7.7e-05
2122	5.32e-05
2134	5.88e-05
2146	8.54e-05
2158	5.32e-05
2170	7.28e-05
2182	8.68e-05
2194	9.8e-05
2206	7.98e-05
2218	6.44e-05
2230	5.74e-05
2242	5.46e-05
2254	5.04e-05
2266	5.6e-05
2278	7.28e-05
2290	7.98e-05
2302	8.82e-05
2314	9.38e-05
2326	9.38e-05
2338	3.08e-05
2350	4.9e-05
2362	4.62e-05
2374	7.14e-05
2386	4.62e-05
2398	7.42e-05
2410	7.28e-05
2422	8.12e-05
2434	6.86e-05
2446	8.96e-05
2458	7.14e-05
2470	8.82e-05
2482	4.06e-05
2494	0.0001246
2506	7.42e-05
2518	0.0001148
2530	0.0001036
2542	6.16e-05
2554	6.72e-05
2566	7.7e-05
2578	7.42e-05
2590	7.84e-05
2602	7.42e-05
2614	8.54e-05
2626	9.66e-05
2638	8.4e-05
2650	0.0001106
2662	0.0002044
2674	0.000217
2686	0.000133
2698	0.0001274
2710	0.0001274
2722	0.0001456
2734	0.0001834
2746	0.0001946
2758	0.0002184
2770	0.000245
2782	0.000273
2794	0.0003514
2806	0.0004242
2818	0.000693
2830	0.0010234
2842	0.0016954
2854	0.0027524
2866	0.004487
2878	0.0053144
2890	0.0047292
2902	0.0043078
2914	0.0049686
2926	0.008141
2938	0.0132048
2950	0.013202
2962	0.008232
2974	0.0037618
2986	0.0023478
2998	0.0017934
3010	0.0014168
3022	0.0013454
3034	0.0012432
3046	0.0008806
3058	0.0006328
3070	0.0004074
3082	0.0003178
3094	0.0002632
3106	0.0001904
3118	0.000105
3130	0.0001414
3142	0.000119
3154	9.38e-05
3166	9.1e-05
3178	7.42e-05
3190	9.24e-05
3202	6.16e-05
3214	7.98e-05
3226	0.0001288
3238	4.76e-05
3250	9.38e-05
3262	0.000154
3274	7.84e-05
3286	6.02e-05
3298	5.46e-05
3310	0.000147
3322	0.0001358
3334	0.0001204
3346	0.000154
3358	0.0001638
3370	0.0001442
3382	0.0001778
3394	0.0002786
3406	0.0002002
3418	0.0002324
3430	0.0001316
3442	0.0001008
3454	6.02e-05
3466	7e-05
3478	0.000126
3490	0.0001022
3502	9.8e-05
3514	9.8e-05
3526	0.0001288
3538	6.86e-05
3550	5.74e-05
3562	5.6e-06
3574	6.3e-05
3586	6.02e-05
3598	7.84e-05
3610	7e-05
3622	6.3e-05
3634	7.56e-05
3646	7.28e-05
3658	3.5e-05
3670	8.96e-05
3682	7.84e-05
3694	3.08e-05
3706	2.52e-05
3718	5.32e-05
3730	8.12e-05
3742	0
3754	7.84e-05
3766	9.38e-05
3778	8.68e-05
3790	7.7e-05
3802	3.08e-05
3814	6.86e-05
3826	3.5e-05
3838	3.36e-05
