Infrared Spectrum: 4-Methoxypyridine-N-oxide
Formula: C 6 H 7 N O 2
CAS: 1122-96-9
State: gas
Origin: EPA-IR VAPOR PHASE LIBRARY
1/CM	ABSORBANCE
549.8	0.001599
559.445	0.001409
569.09	0.001479
578.734	0.0011208
588.379	0.0007708
598.024	0.0007629
607.669	0.0005224
617.313	0.0005699
626.958	0.0004366
636.603	0.0002975
646.248	0.000185814
655.893	0.0005027
665.537	0.0004457
675.182	0.0003797
684.827	0.0006013
694.472	0.0005717
704.116	0.0006334
713.761	0.0009382
723.406	0.001849
733.051	0.003889
742.695	0.016119
752.34	0.035149
761.985	0.033679
771.63	0.009229
781.275	0.003549
790.919	0.003099
800.564	0.004409
810.209	0.008409
819.854	0.014889
829.498	0.026719
839.143	0.018339
848.788	0.010869
858.433	0.004539
868.078	0.002389
877.722	0.002089
887.367	0.001199
897.012	0.0009143
906.657	0.0007765
916.301	0.0007091
925.946	0.0004801
935.591	0.0006422
945.236	0.0009516
954.88	0.001369
964.525	0.001619
974.17	0.002319
983.815	0.003369
993.46	0.005109
1003.1	0.011499
1012.75	0.030529
1022.39	0.041089
1032.04	0.037979
1041.68	0.034429
1051.33	0.022369
1060.97	0.008009
1070.62	0.004229
1080.26	0.003799
1089.91	0.002929
1099.55	0.002949
1109.2	0.001949
1118.84	0.001949
1128.49	0.001819
1138.13	0.002009
1147.78	0.004949
1157.42	0.009179
1167.07	0.009879
1176.71	0.006059
1186.36	0.007289
1196	0.008989
1205.64	0.010739
1215.29	0.012889
1224.93	0.015539
1234.58	0.022599
1244.22	0.059439
1253.87	0.151419
1263.51	0.158839
1273.16	0.071019
1282.8	0.024249
1292.45	0.013569
1302.09	0.006849
1311.74	0.003799
1321.38	0.002449
1331.03	0.001839
1340.67	0.001489
1350.32	0.001259
1359.96	0.001189
1369.61	0.001259
1379.25	0.001619
1388.9	0.002149
1398.54	0.003159
1408.18	0.005959
1417.83	0.009979
1427.47	0.017479
1437.12	0.031179
1446.76	0.034009
1456.41	0.028479
1466.05	0.045969
1475.7	0.120189
1485.34	0.129559
1494.99	0.061809
1504.63	0.013629
1514.28	0.007829
1523.92	0.004339
1533.57	0.003779
1543.21	0.004469
1552.86	0.004209
1562.5	0.002719
1572.15	0.002279
1581.79	0.002579
1591.44	0.002569
1601.08	0.003179
1610.73	0.004899
1620.37	0.006799
1630.01	0.005879
1639.66	0.002959
1649.3	0.001899
1658.95	0.002049
1668.59	0.001909
1678.24	0.001469
1687.88	0.0011727
1697.53	0.0011252
1707.17	0.001189
1716.82	0.001399
1726.46	0.001429
1736.11	0.001289
1745.75	0.001359
1755.4	0.001209
1765.04	0.0009115
1774.69	0.0009286
1784.33	0.00101
1793.98	0.001219
1803.62	0.001409
1813.27	0.001529
1822.91	0.001759
1832.55	0.001919
1842.2	0.002049
1851.84	0.001889
1861.49	0.001609
1871.13	0.001509
1880.78	0.001199
1890.42	0.0010063
1900.07	0.0009476
1909.71	0.001239
1919.36	0.0010786
1929	0.0009465
1938.65	0.0008804
1948.29	0.0008287
1957.94	0.0008712
1967.58	0.0008347
1977.23	0.0009408
1986.87	0.00095
1996.52	0.0010878
2006.16	0.001219
2015.81	0.001659
2025.45	0.002509
2035.1	0.003469
2044.74	0.003449
2054.38	0.002569
2064.03	0.001899
2073.67	0.001639
2083.32	0.001419
2092.96	0.001249
2102.61	0.001359
2112.25	0.001549
2121.9	0.001319
2131.54	0.0010113
2141.19	0.0008731
2150.83	0.0008047
2160.48	0.0007258
2170.12	0.0007233
2179.77	0.0006654
2189.41	0.0007299
2199.06	0.0006657
2208.7	0.0007117
2218.35	0.0007808
2227.99	0.0008662
2237.64	0.0010282
2247.28	0.0010426
2256.92	0.0009128
2266.57	0.0008509
2276.21	0.0009689
2285.86	0.0010458
2295.5	0.0011239
2305.15	0.001279
2314.79	0.001289
2324.44	0.001409
2334.08	0.001609
2343.73	0.001469
2353.37	0.001329
2363.02	0.001309
2372.66	0.001299
2382.31	0.0011277
2391.95	0.0009731
2401.6	0.0009908
2411.24	0.001189
2420.89	0.001249
2430.53	0.0010959
2440.18	0.0009116
2449.82	0.0008984
2459.47	0.000876
2469.11	0.0010797
2478.75	0.0010384
2488.4	0.001239
2498.04	0.001199
2507.69	0.001399
2517.33	0.001849
2526.98	0.002509
2536.62	0.003329
2546.27	0.003129
2555.91	0.002109
2565.56	0.001299
2575.2	0.0011095
2584.85	0.0009948
2594.49	0.0010592
2604.14	0.001001
2613.78	0.0010967
2623.43	0.0011149
2633.07	0.0010642
2642.72	0.0009837
2652.36	0.0009354
2662.01	0.0009016
2671.65	0.0008882
2681.29	0.0009135
2690.94	0.0010421
2700.58	0.0011319
2710.23	0.001409
2719.87	0.001689
2729.52	0.001779
2739.16	0.001499
2748.81	0.001459
2758.45	0.001409
2768.1	0.001539
2777.74	0.001569
2787.39	0.001359
2797.03	0.001299
2806.68	0.001509
2816.32	0.001789
2825.97	0.002639
2835.61	0.004729
2845.26	0.006679
2854.9	0.006349
2864.55	0.004189
2874.19	0.003499
2883.84	0.003699
2893.48	0.004309
2903.12	0.005099
2912.77	0.005599
2922.41	0.005969
2932.06	0.006559
2941.7	0.009959
2951.35	0.011379
2960.99	0.010519
2970.64	0.007869
2980.28	0.005819
2989.93	0.004399
2999.57	0.004789
3009.22	0.007279
3018.86	0.007389
3028.51	0.005009
3038.15	0.002529
3047.8	0.002029
3057.44	0.002079
3067.09	0.001999
3076.73	0.002009
3086.38	0.002139
3096.02	0.002129
3105.67	0.001989
3115.31	0.001429
3124.95	0.001004
3134.6	0.0009043
3144.24	0.0008015
3153.89	0.0006593
3163.53	0.0007162
3173.18	0.0006593
3182.82	0.0005355
3192.47	0.0004097
3202.11	0.0004482
3211.76	0.0004634
3221.4	0.0004512
3231.05	0.0004694
3240.69	0.00045
3250.34	0.0005743
3259.98	0.00026997
3269.63	0.0005801
3279.27	0.0004861
3288.92	0.0003929
3298.56	0.0002913
3308.21	0.0003774
3317.85	0.00025595
3327.49	0.0003183
3337.14	0.00026363
3346.78	0.0003632
3356.43	0.000418
3366.07	0.0002963
3375.72	0.0004535
3385.36	0.00025786
3395.01	0.0003138
3404.65	0.000368
3414.3	0.0004245
3423.94	0.0004179
3433.59	0.0003183
3443.23	0.0004
3452.88	0.00023992
3462.52	0.0004506
3472.17	0.0003541
3481.81	0.00025333
3491.46	0.0004023
3501.1	0.0003161
3510.75	0.0001446
3520.39	0.0004812
3530.04	0.00027423
3539.68	0.0003047
3549.32	0.0003434
3558.97	0.0002265
3568.61	0.0003255
3578.26	0.000328
3587.9	0.0002826
3597.55	0.0003848
3607.19	0.0005156
3616.84	0.0002926
3626.48	0.0003978
3636.13	0.0002977
3645.77	0.0002088
3655.42	0.0004519
3665.06	4.8e-05
3674.71	0.0003508
3684.35	0.0003817
3694	0.0003712
3703.64	0.00022549
3713.29	0.0003379
3722.93	0.0004311
3732.58	0.0006316
3742.22	0.0003282
3751.86	0.0004798
3761.51	0.0003507
3771.15	0.0003523
3780.8	0.00021006
3790.44	0.0003949
3800.09	0.00024687
3809.73	0.0004024
3819.38	0.0005148
3829.02	0.0006061
3838.67	0.0003479
3848.31	0.0003133
3857.96	0.0005176
3867.6	0.0003596
3877.25	0.0005421
3886.89	0.0005455
3896.54	0.0006265
3906.18	0.0006089
3915.83	0.000404
3925.47	0.00023295
3935.12	0.0004623
3944.76	0.0005702
3954.41	0.0006053
3964.05	0.0006059
3973.69	0.0003924
3983.34	0.0004869
3992.98	0.000493
