Infrared Spectrum: Cyclohexanecarboxamide
Formula: C 7 H 13 N O
CAS: 1122-56-1
State: gas
Origin: EPA-IR VAPOR PHASE LIBRARY
1/CM	ABSORBANCE
549.8	0.0010665
559.445	0.0010391
569.09	0.0012132
578.734	0.0010904
588.379	0.001404
598.024	0.001754
607.669	0.001804
617.313	0.001684
626.958	0.001804
636.603	0.001424
646.248	0.001022
655.893	0.0007498
665.537	0.0007862
675.182	0.0007591
684.827	0.000991
694.472	0.0009714
704.116	0.001414
713.761	0.001644
723.406	0.001634
733.051	0.001974
742.695	0.002124
752.34	0.001944
761.985	0.001954
771.63	0.001834
781.275	0.001914
790.919	0.001694
800.564	0.001714
810.209	0.0012762
819.854	0.0011693
829.498	0.0011722
839.143	0.0010871
848.788	0.0009332
858.433	0.0011198
868.078	0.0011764
877.722	0.001504
887.367	0.001724
897.012	0.001714
906.657	0.001394
916.301	0.001564
925.946	0.0011446
935.591	0.0010556
945.236	0.0008506
954.88	0.000741
964.525	0.0006879
974.17	0.0006509
983.815	0.0007317
993.46	0.0010439
1003.1	0.0007007
1012.75	0.0009337
1022.39	0.0010551
1032.04	0.0012006
1041.68	0.0006219
1051.33	0.0009968
1060.97	0.0012732
1070.62	0.0012308
1080.26	0.0011075
1089.91	0.0010366
1099.55	0.0009727
1109.2	0.000154
1118.84	0.0006071
1128.49	0.0007031
1138.13	0.000805
1147.78	0.00082
1157.42	0.0007319
1167.07	0.0006717
1176.71	0.0006374
1186.36	0.001354
1196	0.0013018
1205.64	0.002534
1215.29	0.002764
1224.93	0.002914
1234.58	0.002234
1244.22	0.002624
1253.87	0.003104
1263.51	0.004034
1273.16	0.003364
1282.8	0.002484
1292.45	0.002164
1302.09	0.002354
1311.74	0.003134
1321.38	0.004524
1331.03	0.006254
1340.67	0.006344
1350.32	0.004524
1359.96	0.003174
1369.61	0.002834
1379.25	0.003204
1388.9	0.003214
1398.54	0.002384
1408.18	0.001414
1417.83	0.0010898
1427.47	0.0011422
1437.12	0.001574
1446.76	0.002664
1456.41	0.003304
1466.05	0.002134
1475.7	0.0011471
1485.34	0.0007632
1494.99	0.0006062
1504.63	0.0004823
1514.28	0.0005556
1523.92	0.0005763
1533.57	0.0006796
1543.21	0.0009582
1552.86	0.001544
1562.5	0.002524
1572.15	0.005144
1581.79	0.008344
1591.44	0.008374
1601.08	0.004834
1610.73	0.002544
1620.37	0.001484
1630.01	0.0011057
1639.66	0.0008452
1649.3	0.000977
1658.95	0.0011915
1668.59	0.001704
1678.24	0.002764
1687.88	0.004824
1697.53	0.007934
1707.17	0.012864
1716.82	0.018454
1726.46	0.021324
1736.11	0.017064
1745.75	0.010404
1755.4	0.005404
1765.04	0.002674
1774.69	0.001374
1784.33	0.0009214
1793.98	0.0007453
1803.62	0.0006214
1813.27	0.0005445
1822.91	0.0004896
1832.55	0.000488
1842.2	0.0004596
1851.84	0.0003791
1861.49	0.00040436
1871.13	0.00039922
1880.78	0.00038853
1890.42	0.0004178
1900.07	0.000321078
1909.71	0.00037549
1919.36	0.00032636
1929	0.0003273
1938.65	0.0004162
1948.29	0.00037104
1957.94	0.00037303
1967.58	0.00037167
1977.23	0.00034073
1986.87	0.00033908
1996.52	0.000315698
2006.16	0.00033845
2015.81	0.0002447
2025.45	0.0002847
2035.1	0.0002749
2044.74	0.000320551
2054.38	0.00031873
2064.03	0.00034222
2073.67	0.0002406
2083.32	0.0002964
2092.96	0.0002758
2102.61	0.0003434
2112.25	0.0002942
2121.9	0.0003034
2131.54	0.00030986
2141.19	0.00035862
2150.83	0.0002606
2160.48	0.0002861
2170.12	0.0002625
2179.77	0.0003036
2189.41	0.00035523
2199.06	0.00032724
2208.7	0.00038007
2218.35	0.00037359
2227.99	0.00032012
2237.64	0.00034319
2247.28	0.0002539
2256.92	0.000212
2266.57	0.00032983
2276.21	0.00031911
2285.86	0.00039518
2295.5	0.0002727
2305.15	0.0002824
2314.79	0.00035704
2324.44	0.0002819
2334.08	0.0002466
2343.73	0.00035136
2353.37	0.0002437
2363.02	0.0002859
2372.66	0.0002809
2382.31	0.00037457
2391.95	0.00035896
2401.6	0.00037193
2411.24	0.000319375
2420.89	0.0002712
2430.53	0.0002936
2440.18	0.0002645
2449.82	0.00030415
2459.47	0.0002717
2469.11	0.00030881
2478.75	0.00033065
2488.4	0.0002616
2498.04	0.0002662
2507.69	0.000323201
2517.33	0.0002726
2526.98	0.000205
2536.62	0.0002703
2546.27	0.000285
2555.91	0.00039084
2565.56	0.000321942
2575.2	0.0002667
2584.85	0.00033311
2594.49	0.00036004
2604.14	0.0004428
2613.78	0.00038584
2623.43	0.00040644
2633.07	0.0002996
2642.72	0.0004488
2652.36	0.00040746
2662.01	0.0004529
2671.65	0.0005774
2681.29	0.0005514
2690.94	0.000437
2700.58	0.00040084
2710.23	0.000447
2719.87	0.00038988
2729.52	0.00035587
2739.16	0.0004142
2748.81	0.00037018
2758.45	0.0005215
2768.1	0.0004621
2777.74	0.0005366
2787.39	0.0005735
2797.03	0.0006068
2806.68	0.0008754
2816.32	0.0007549
2825.97	0.0009146
2835.61	0.001424
2845.26	0.002834
2854.9	0.006214
2864.55	0.008614
2874.19	0.007284
2883.84	0.005004
2893.48	0.004124
2903.12	0.004944
2912.77	0.007764
2922.41	0.013774
2932.06	0.023204
2941.7	0.025554
2951.35	0.017034
2960.99	0.006584
2970.64	0.002404
2980.28	0.0013137
2989.93	0.0007047
2999.57	0.0005372
3009.22	0.0004319
3018.86	0.00038103
3028.51	0.00034279
3038.15	0.00036944
3047.8	0.0002466
3057.44	0.0005077
3067.09	0.0004587
3076.73	0.0002777
3086.38	0.00035367
3096.02	0.0003497
3105.67	0.00034835
3115.31	0.0002522
3124.95	0.00038073
3134.6	0.00033098
3144.24	0.00038324
3153.89	0.0005851
3163.53	0.000315193
3173.18	0.00039996
3182.82	0.0002347
3192.47	0.000322587
3202.11	0.00032993
3211.76	0.000122
3221.4	0.0002708
3231.05	0.0002669
3240.69	0.000253
3250.34	0.00033006
3259.98	0.000315911
3269.63	0.000172
3279.27	0.000153
3288.92	0.0002419
3298.56	0.0002676
3308.21	0.000489
3317.85	0.00033339
3327.49	0.00041351
3337.14	0.0002981
3346.78	0.0002206
3356.43	0.00030674
3366.07	0.00036095
3375.72	0.0004324
3385.36	0.0005587
3395.01	0.0007493
3404.65	0.0009792
3414.3	0.0013133
3423.94	0.001614
3433.59	0.001884
3443.23	0.001744
3452.88	0.0011872
3462.52	0.0007963
3472.17	0.0006207
3481.81	0.0006033
3491.46	0.0006487
3501.1	0.0005197
3510.75	0.000679
3520.39	0.0011169
3530.04	0.0012654
3539.68	0.001404
3549.32	0.001674
3558.97	0.002064
3568.61	0.001504
3578.26	0.0006607
3587.9	0.0004803
3597.55	0.00037232
3607.19	0.00034607
3616.84	0.0002467
3626.48	0.0002731
3636.13	0.00036616
3645.77	0.0002769
3655.42	0.000313073
3665.06	0.0002408
3674.71	0.0003264
3684.35	0.00035903
3694	0.0002747
3703.64	0.0004604
3713.29	0.00033573
3722.93	9.8e-05
3732.58	0.0002287
3742.22	0.0002402
3751.86	0.0002245
3761.51	0.0002238
3771.15	0.0002614
3780.8	0.000176
3790.44	0.0002889
3800.09	0.000192
3809.73	0.0002932
3819.38	0.00039736
3829.02	0.0002429
3838.67	0.00033881
3848.31	0.00030506
3857.96	1.5e-05
3867.6	0.0002176
3877.25	0.0002593
3886.89	0.000136
3896.54	0.0002792
3906.18	0.0002627
3915.83	5.7e-05
3925.47	0.00029
3935.12	0.0002496
3944.76	0.0004468
3954.41	0.000159
3964.05	0.000320813
3973.69	0.000181
3983.34	0.0003032
3992.98	0.0002442
