Infrared Spectrum: N-Sulfinylaniline
Formula: C 6 H 5 N O S
CAS: 1122-83-4
State: gas
Origin: EPA-IR VAPOR PHASE LIBRARY
1/CM	ABSORBANCE
549.8	0.0004408
559.445	0.00069
569.09	0.0005502
578.734	0.0005015
588.379	0.0008076
598.024	0.00148
607.669	0.00194
617.313	0.00263
626.958	0.00326
636.603	0.00331
646.248	0.00301
655.893	0.0031
665.537	0.0057
675.182	0.00979
684.827	0.01603
694.472	0.01065
704.116	0.00589
713.761	0.00324
723.406	0.00295
733.051	0.00443
742.695	0.00964
752.34	0.01835
761.985	0.02764
771.63	0.01693
781.275	0.00842
790.919	0.0031
800.564	0.00161
810.209	0.000903
819.854	0.000483
829.498	0.0005148
839.143	0.0004773
848.788	0.0004883
858.433	0.0004691
868.078	0.0006008
877.722	0.0007302
887.367	0.0010005
897.012	0.0012179
906.657	0.00222
916.301	0.00268
925.946	0.00186
935.591	0.0010625
945.236	0.00033063
954.88	0.00027794
964.525	0.00033209
974.17	0.0004254
983.815	0.0004143
993.46	0.0010332
1003.1	0.00127
1012.75	0.00238
1022.39	0.00249
1032.04	0.0024
1041.68	0.00219
1051.33	0.0021
1060.97	0.00261
1070.62	0.00305
1080.26	0.00237
1089.91	0.00219
1099.55	0.00172
1109.2	0.00134
1118.84	0.00185
1128.49	0.00195
1138.13	0.0029
1147.78	0.00725
1157.42	0.01671
1167.07	0.02549
1176.71	0.03211
1186.36	0.03066
1196	0.02381
1205.64	0.01255
1215.29	0.00745
1224.93	0.00571
1234.58	0.00433
1244.22	0.0045
1253.87	0.00651
1263.51	0.01272
1273.16	0.02366
1282.8	0.03456
1292.45	0.04027
1302.09	0.03151
1311.74	0.01502
1321.38	0.00655
1331.03	0.0036
1340.67	0.00252
1350.32	0.00175
1359.96	0.00157
1369.61	0.00147
1379.25	0.00141
1388.9	0.0012336
1398.54	0.0011807
1408.18	0.0012348
1417.83	0.00129
1427.47	0.00167
1437.12	0.00234
1446.76	0.00308
1456.41	0.00284
1466.05	0.00328
1475.7	0.01035
1485.34	0.0128
1494.99	0.00664
1504.63	0.00171
1514.28	0.00132
1523.92	0.0009893
1533.57	0.0006443
1543.21	0.0003687
1552.86	0.0007337
1562.5	0.0012444
1572.15	0.00179
1581.79	0.00228
1591.44	0.00199
1601.08	0.00137
1610.73	0.000772
1620.37	0.0005745
1630.01	0.0004804
1639.66	0.0004587
1649.3	0.00055
1658.95	0.0006422
1668.59	0.0008897
1678.24	0.0009968
1687.88	0.0007451
1697.53	0.0005144
1707.17	0.0005349
1716.82	0.000679
1726.46	0.0008831
1736.11	0.0010243
1745.75	0.0009257
1755.4	0.0008493
1765.04	0.0007344
1774.69	0.0007501
1784.33	0.0010287
1793.98	0.00125
1803.62	0.0007931
1813.27	0.0005173
1822.91	0.0004448
1832.55	0.0004112
1842.2	0.0004167
1851.84	0.000456
1861.49	0.0006697
1871.13	0.0009046
1880.78	0.0011824
1890.42	0.00126
1900.07	0.0010594
1909.71	0.0007907
1919.36	0.0007487
1929	0.0009672
1938.65	0.00126
1948.29	0.00137
1957.94	0.00133
1967.58	0.0008937
1977.23	0.0004726
1986.87	0.00029096
1996.52	0.00032933
2006.16	0.0004068
2015.81	0.0004732
2025.45	0.0006762
2035.1	0.0007401
2044.74	0.0006613
2054.38	0.0004554
2064.03	0.0003787
2073.67	0.000259601
2083.32	0.00028826
2092.96	0.000249124
2102.61	0.0002018
2112.25	0.000211
2121.9	0.0002198
2131.54	0.0001756
2141.19	0.0002279
2150.83	0.00024578
2160.48	0.00026618
2170.12	0.00032426
2179.77	0.00031243
2189.41	0.0004164
2199.06	0.0004809
2208.7	0.0004836
2218.35	0.000551
2227.99	0.0005091
2237.64	0.0004915
2247.28	0.00033605
2256.92	0.000403
2266.57	0.0004302
2276.21	0.0004636
2285.86	0.0005466
2295.5	0.0007587
2305.15	0.0011595
2314.79	0.00145
2324.44	0.00143
2334.08	0.0011513
2343.73	0.0009272
2353.37	0.0007146
2363.02	0.0005561
2372.66	0.0005285
2382.31	0.0004445
2391.95	0.0003658
2401.6	0.00034295
2411.24	0.00034965
2420.89	0.00034031
2430.53	0.0006031
2440.18	0.0007978
2449.82	0.0010032
2459.47	0.0009868
2469.11	0.0008709
2478.75	0.0005969
2488.4	0.0003751
2498.04	0.0003927
2507.69	0.0003313
2517.33	0.00030396
2526.98	0.00024416
2536.62	0.00027874
2546.27	0.00033783
2555.91	0.0003938
2565.56	0.0004751
2575.2	0.0005458
2584.85	0.0004086
2594.49	0.0004587
2604.14	0.0004076
2613.78	0.0003295
2623.43	0.0003841
2633.07	0.0003529
2642.72	0.0002106
2652.36	0.00034641
2662.01	0.0002436
2671.65	0.00028952
2681.29	0.0002208
2690.94	0.0002033
2700.58	0.0001814
2710.23	0.00026847
2719.87	0.0002202
2729.52	0.0004314
2739.16	0.00027795
2748.81	0.0004989
2758.45	0.0004893
2768.1	0.0005851
2777.74	0.0004457
2787.39	0.00032885
2797.03	0.0003599
2806.68	0.00028799
2816.32	0.000353
2825.97	0.00026122
2835.61	0.0003432
2845.26	0.0004324
2854.9	0.0004237
2864.55	0.0004083
2874.19	0.0004153
2883.84	0.0005497
2893.48	0.0005803
2903.12	0.0003702
2912.77	0.0003283
2922.41	0.0004268
2932.06	0.00028132
2941.7	0.0004231
2951.35	0.0004674
2960.99	0.0003676
2970.64	0.0004677
2980.28	0.00027623
2989.93	0.0004569
2999.57	0.0006779
3009.22	0.00127
3018.86	0.00163
3028.51	0.00255
3038.15	0.00299
3047.8	0.0033
3057.44	0.005
3067.09	0.00962
3076.73	0.01227
3086.38	0.00918
3096.02	0.00494
3105.67	0.00292
3115.31	0.00138
3124.95	0.0007464
3134.6	0.0005969
3144.24	0.0007569
3153.89	0.0005771
3163.53	0.0004259
3173.18	0.0004873
3182.82	0.0002349
3192.47	0.00026417
3202.11	0.0003948
3211.76	0.00027451
3221.4	0.00027099
3231.05	0.0003553
3240.69	0.0002039
3250.34	0.00029988
3259.98	0.0002384
3269.63	0.00013
3279.27	0.00028608
3288.92	0.0002947
3298.56	0.000139
3308.21	0.000108
3317.85	0.000142
3327.49	0.0003914
3337.14	0.0002377
3346.78	0.0001545
3356.43	0.00024585
3366.07	0.00029148
3375.72	0.00024587
3385.36	0.0001904
3395.01	9.5e-05
3404.65	4.8e-05
3414.3	0.00026135
3423.94	0.000135
3433.59	0.0002207
3443.23	0.0003601
3452.88	0.0001508
3462.52	0.0001675
3472.17	0.000109
3481.81	0.000254436
3491.46	0.0001546
3501.1	0.00029555
3510.75	0.0003588
3520.39	0.00013
3530.04	0.0001932
3539.68	0.000107
3549.32	0.0001859
3558.97	0.000109
3568.61	0.00024328
3578.26	0.0001799
3587.9	0.0002276
3597.55	0.0001808
3607.19	0.0002516
3616.84	0.0003568
3626.48	0.0002208
3636.13	0.0001504
3645.77	0.0002743
3655.42	0.0004377
3665.06	0.000121
3674.71	0.00026968
3684.35	0.0003392
3694	0.000163
3703.64	0.0003937
3713.29	0.0002317
3722.93	0.00036
3732.58	0.00031779
3742.22	0.0003214
3751.86	0.00031174
3761.51	0.0001577
3771.15	0.0002947
3780.8	0.0004172
3790.44	0.00027537
3800.09	0.000256156
3809.73	0.00034441
3819.38	0.0003635
3829.02	0.00028443
3838.67	0.0004271
3848.31	0.00013
3857.96	0.0001703
3867.6	0.000146
3877.25	0.0002606
3886.89	0.0001555
3896.54	0.000202
3906.18	0.000114
3915.83	0.0003513
3925.47	0.000256608
3935.12	0.0002064
3944.76	0.0002323
3954.41	0.000143
3964.05	0.0002321
3973.69	0.000147
3983.34	0.00031759
3992.98	0.000156
