Infrared Spectrum: 6-METHYL PYRIDINE-2-ALDEHYDE
Formula: C7 H7 N O
CAS: 1122-72-1
State: SOLUTION (SATURATED - NOT FILTERED, CCl4 FOR 5000-1330, CS2 FOR 1330-625 CM^-^1)
Class: COBLENTZ
Instrument: Not specified, most likely a prism, grating, or hybrid spectrometer.
Sampling: TRANSMISSION
Path length: 0.0123 CM, 0.0112 CM
Resolution: 4
Origin: DOW CHEMICAL COMPANY
MICROMETERS	TRANSMITTANCE
2.048	0.905
2.08914	0.9
2.13027	0.9
2.17141	0.902
2.21254	0.9
2.25368	0.898
2.29481	0.9
2.33595	0.905
2.37709	0.9
2.41822	0.898
2.45936	0.905
2.50049	0.907
2.54163	0.909
2.58276	0.91
2.6239	0.912
2.66504	0.895
2.70617	0.895
2.74731	0.89
2.78844	0.885
2.82958	0.881
2.87071	0.852
2.91185	0.847
2.95299	0.874
2.99412	0.878
3.03526	0.879
3.07639	0.874
3.11753	0.867
3.15866	0.85
3.1998	0.787
3.24094	0.675
3.28207	0.704
3.32321	0.701
3.36434	0.686
3.40548	0.768
3.44661	0.68
3.48775	0.478
3.52889	0.686
3.57002	0.83
3.61116	0.828
3.65229	0.854
3.69343	0.842
3.73456	0.895
3.7757	0.9
3.81684	0.903
3.85797	0.909
3.89911	0.902
3.94024	0.9
3.98138	0.898
4.02251	0.903
4.06365	0.909
4.10479	0.909
4.14592	0.912
4.18706	0.9
4.22819	0.891
4.26933	0.886
4.31046	0.891
4.3516	0.902
4.39274	0.915
4.43387	0.917
4.47501	0.915
4.51614	0.914
4.55728	0.912
4.59841	0.915
4.63955	0.922
4.68069	0.922
4.72182	0.924
4.76296	0.926
4.80409	0.922
4.84523	0.915
4.88636	0.914
4.9275	0.91
4.96863	0.902
5.00977	0.886
5.05091	0.893
5.09204	0.897
5.13318	0.895
5.17431	0.885
5.21545	0.879
5.25658	0.893
5.29772	0.907
5.33886	0.891
5.37999	0.891
5.42113	0.883
5.46226	0.866
5.5034	0.885
5.54453	0.886
5.58567	0.878
5.62681	0.842
5.66794	0.766
5.70908	0.703
5.75021	0.497
5.79135	0.185
5.83248	0.142
5.87362	0.557
5.91476	0.629
5.95589	0.646
5.99703	0.763
6.03816	0.828
6.0793	0.821
6.12043	0.795
6.16157	0.698
6.20271	0.447
6.24384	0.118
6.28498	0.236
6.32611	0.351
6.36725	0.392
6.40838	0.42
6.44952	0.447
6.49066	0.53
6.53179	0.576
6.57293	0.615
6.61406	0.662
6.6552	0.694
6.69633	0.68
6.73747	0.576
6.77861	0.415
6.81974	0.262
6.86088	0.358
6.90201	0.547
6.94315	0.617
6.98428	0.634
7.02542	0.566
7.06656	0.596
7.10769	0.74
7.14883	0.759
7.18996	0.687
7.2311	0.581
7.27223	0.716
7.31337	0.77
7.35451	0.694
7.39564	0.703
7.43678	0.847
7.47791	0.847
7.51905	0.773
7.56018	0.785
7.60132	0.838
7.64246	0.833
7.68359	0.77
7.72473	0.62
7.76586	0.519
7.807	0.718
7.84813	0.771
7.88927	0.739
7.93041	0.615
7.97154	0.612
8.01268	0.761
8.05381	0.777
8.09495	0.72
8.13608	0.588
8.17722	0.427
8.21836	0.289
8.25949	0.581
8.30063	0.68
8.34176	0.674
8.3829	0.694
8.42403	0.823
8.46517	0.85
8.50631	0.855
8.54744	0.855
8.58858	0.804
8.62971	0.679
8.67085	0.651
8.71198	0.804
8.75312	0.855
8.79426	0.873
8.83539	0.871
8.87653	0.855
8.91766	0.854
8.9588	0.861
8.99993	0.854
9.04107	0.837
9.08221	0.816
9.12334	0.785
9.16448	0.756
9.20561	0.694
9.24675	0.746
9.28788	0.801
9.32902	0.809
9.37016	0.809
9.41129	0.792
9.45243	0.792
9.49356	0.792
9.5347	0.763
9.57583	0.73
9.61697	0.699
9.65811	0.698
9.69924	0.686
9.74038	0.715
9.78151	0.782
9.82265	0.804
9.86378	0.814
9.90492	0.801
9.94606	0.746
9.98719	0.711
10.0283	0.68
10.0695	0.619
10.1106	0.566
10.1517	0.65
10.1929	0.747
10.234	0.804
10.2751	0.831
10.3163	0.838
10.3574	0.852
10.3985	0.869
10.4397	0.873
10.4808	0.876
10.522	0.876
10.5631	0.876
10.6042	0.873
10.6454	0.866
10.6865	0.852
10.7276	0.84
10.7688	0.837
10.8099	0.828
10.851	0.811
10.8922	0.783
10.9333	0.727
10.9744	0.56
11.0156	0.425
11.0567	0.572
11.0979	0.718
11.139	0.78
11.1801	0.789
11.2213	0.792
11.2624	0.782
11.3035	0.77
11.3447	0.759
11.3858	0.751
11.4269	0.739
11.4681	0.725
11.5092	0.71
11.5503	0.698
11.5915	0.684
11.6326	0.672
11.6738	0.668
11.7149	0.665
11.756	0.672
11.7972	0.689
11.8383	0.706
11.8794	0.718
11.9206	0.704
11.9617	0.662
12.0028	0.624
12.044	0.629
12.0851	0.679
12.1262	0.71
12.1674	0.728
12.2085	0.737
12.2497	0.725
12.2908	0.703
12.3319	0.668
12.3731	0.627
12.4142	0.547
12.4553	0.471
12.4965	0.43
12.5376	0.423
12.5787	0.36
12.6199	0.26
12.661	0.149
12.7021	0.066
12.7433	0.061
12.7844	0.125
12.8256	0.214
12.8667	0.246
12.9078	0.214
12.949	0.154
12.9901	0.133
13.0312	0.221
13.0724	0.319
13.1135	0.379
13.1546	0.432
13.1958	0.495
13.2369	0.579
13.278	0.626
13.3192	0.655
13.3603	0.67
13.4015	0.687
13.4426	0.699
13.4837	0.706
13.5249	0.71
13.566	0.708
13.6071	0.703
13.6483	0.696
13.6894	0.668
13.7305	0.631
13.7717	0.598
13.8128	0.62
13.8539	0.655
13.8951	0.668
13.9362	0.667
13.9774	0.646
14.0185	0.595
14.0596	0.545
14.1008	0.536
14.1419	0.564
14.183	0.578
14.2242	0.581
14.2653	0.59
14.3064	0.605
14.3476	0.62
14.3887	0.629
14.4298	0.632
14.471	0.627
14.5121	0.622
14.5533	0.615
14.5944	0.605
14.6355	0.595
14.6767	0.586
14.7178	0.576
14.7589	0.566
14.8001	0.552
14.8412	0.54
14.8823	0.53
14.9235	0.512
14.9646	0.499
15.0057	0.481
15.0469	0.463
15.088	0.449
15.1292	0.433
15.1703	0.421
15.2114	0.404
15.2526	0.385
15.2937	0.363
15.3348	0.339
15.376	0.313
15.4171	0.274
15.4582	0.231
15.4994	0.192
15.5405	0.18
15.5816	0.181
15.6228	0.205
15.6639	0.226
15.7051	0.243
15.7462	0.26
15.7873	0.271
15.8285	0.277
15.8696	0.281
15.9107	0.274
