Infrared Spectrum: Dichloromaleic anhydride
Formula: C 4 Cl 2 O 3
CAS: 1122-17-4
State: gas
Instrument: HP-GC/MS/IRD
Origin: NIST Mass Spectrometry Data Center
1/CM	ABSORBANCE
550	0.0010188
562	0.0006096
574	0.0006612
586	0.000324
598	0.0004908
610	0.0003108
622	0.0003264
634	0.0004008
646	0.0003384
658	0.0002472
670	0.0003168
682	0.0002976
694	0.0003936
706	0.0005484
718	0.0007476
730	0.0007428
742	0.0004572
754	0.000294
766	0.0002736
778	0.0003564
790	0.0004032
802	0.0002172
814	0.0002124
826	0.0002604
838	0.0001872
850	0.0001596
862	0.0006108
874	0.0015252
886	0.001416
898	0.0008016
910	0.0018588
922	0.0036084
934	0.0029052
946	0.0006852
958	0.0002976
970	0.0002388
982	0.000324
994	0.0011112
1006	0.0012108
1018	0.0003048
1030	3.48e-05
1042	0.0001104
1054	0.000216
1066	0.0002052
1078	3.12e-05
1090	0.0002604
1102	0.000354
1114	0.0004728
1126	0.0006744
1138	0.0007308
1150	0.0009492
1162	0.0011604
1174	0.0018576
1186	0.0027888
1198	0.002808
1210	0.0025392
1222	0.0031716
1234	0.0045492
1246	0.0038304
1258	0.0015432
1270	0.0009756
1282	0.000822
1294	0.0006084
1306	0.0005952
1318	0.0005736
1330	0.0006132
1342	0.0006564
1354	0.0005892
1366	0.0004752
1378	0.0004104
1390	0.0004152
1402	0.0004128
1414	0.0003396
1426	0.0002628
1438	0.0001548
1450	0.000138
1462	0.000126
1474	0.0001224
1486	0.0001632
1498	0.0001152
1510	7.32e-05
1522	0.000102
1534	0.00012
1546	0.0001548
1558	0.0001428
1570	0.0001932
1582	0.000258
1594	0.0004452
1606	0.0009984
1618	0.0014916
1630	0.0009696
1642	0.0003564
1654	0.0001764
1666	0.0001332
1678	0.0001896
1690	0.0002052
1702	0.0002436
1714	0.0002808
1726	0.0003168
1738	0.0002688
1750	0.0002664
1762	0.0004356
1774	0.0007608
1786	0.0019476
1798	0.0075384
1810	0.012
1822	0.0056376
1834	0.0022428
1846	0.0012264
1858	0.0008208
1870	0.0009888
1882	0.0012936
1894	0.00123
1906	0.0007344
1918	0.000414
1930	0.0004212
1942	0.00033
1954	0.0002004
1966	0.0001308
1978	0.000144
1990	9.96e-05
2002	0.0001284
2014	8.88e-05
2026	0.0001404
2038	9.12e-05
2050	9.48e-05
2062	0.0001008
2074	8.04e-05
2086	0.0001068
2098	0.0001068
2110	0.0001392
2122	0.0001728
2134	0.00012
2146	9.48e-05
2158	0.000156
2170	8.76e-05
2182	1.8e-05
2194	5.4e-05
2206	3.12e-05
2218	2.28e-05
2230	1.68e-05
2242	4.8e-06
2254	3.6e-06
2266	7.92e-05
2278	4.8e-05
2290	4.92e-05
2302	0.0001344
2314	0.0002196
2326	0.0002748
2338	0.0002136
2350	0.0002196
2362	0.0003216
2374	0.0002268
2386	0.0001044
2398	5.4e-05
2410	5.52e-05
2422	3.84e-05
2434	8.76e-05
2446	5.88e-05
2458	0.0001284
2470	5.64e-05
2482	4.8e-05
2494	8.16e-05
2506	0
2518	6.6e-05
2530	6.72e-05
2542	7.68e-05
2554	9.48e-05
2566	5.28e-05
2578	6.12e-05
2590	4.08e-05
2602	7.8e-05
2614	4.8e-06
2626	5.04e-05
2638	5.52e-05
2650	8.64e-05
2662	7.2e-05
2674	6.12e-05
2686	8.16e-05
2698	7.32e-05
2710	9.96e-05
2722	6.6e-05
2734	7.32e-05
2746	4.92e-05
2758	0.0001152
2770	4.2e-05
2782	6.72e-05
2794	1.8e-05
2806	3.72e-05
2818	7.68e-05
2830	2.52e-05
2842	6.36e-05
2854	3.36e-05
2866	8.4e-05
2878	5.64e-05
2890	0.0001092
2902	0.0001296
2914	8.52e-05
2926	5.28e-05
2938	9.6e-05
2950	9.96e-05
2962	1.2e-06
2974	7.8e-05
2986	9.36e-05
2998	8.88e-05
3010	5.28e-05
3022	7.56e-05
3034	0.0001308
3046	0.0001404
3058	0.000102
3070	7.32e-05
3082	0.0001788
3094	0.000198
3106	0.0001464
3118	8.28e-05
3130	0.0001176
3142	7.44e-05
3154	9.48e-05
3166	0.0001728
3178	0.0001692
3190	0.0001164
3202	0.0001104
3214	0.0001668
3226	0.000108
3238	0.0001188
3250	0.0001452
3262	9e-05
3274	0.0001416
3286	0.0002268
3298	0.0001608
3310	0.0002208
3322	0.0001596
3334	0.0002748
3346	0.0002316
3358	0.0001236
3370	0.0002652
3382	0.00021
3394	0.0002136
3406	0.0001992
3418	0.0002424
3430	0.000258
3442	0.0002424
3454	0.00027
3466	0.0002172
3478	0.0002484
3490	0.0003612
3502	0.0002784
3514	0.000324
3526	0.0002676
3538	0.0003108
3550	0.0002688
3562	0.0002844
3574	0.0002976
3586	0.000324
3598	0.0003324
3610	0.0002976
3622	0.0003204
3634	0.00036
3646	0.0003588
3658	0.0004224
3670	0.0004644
3682	0.0003132
3694	0.0003312
3706	0.0003144
3718	0.0003072
3730	0.0002736
3742	0.0003444
3754	0.0002628
3766	0.0002088
3778	0.000312
3790	0.0002532
3802	0.000282
3814	0.0002148
3826	0.0002412
3838	0.0001236
