Infrared Spectrum: 4-n-Propylpyridine
Formula: C 8 H 11 N
CAS: 1122-81-2
State: gas
Instrument: HP-GC/MS/IRD
Origin: NIST Mass Spectrometry Data Center
1/CM	ABSORBANCE
550	0.0008688
562	0.002004
574	0.0032496
586	0.0029112
598	0.0014568
610	0.0004272
622	0
634	0.0001272
646	0.0001824
658	0.000276
670	0.000144
682	0.000216
694	0.0001704
706	0.0003864
718	0.0006192
730	0.0011976
742	0.0030096
754	0.0032808
766	0.002892
778	0.0063672
790	0.0103464
802	0.0070464
814	0.0038184
826	0.002892
838	0.0028584
850	0.002088
862	0.0013224
874	0.0007752
886	0.0005976
898	0.0005376
910	0.0004464
922	0.000324
934	0.0002952
946	0.000324
958	0.000348
970	0.0005568
982	0.0017664
994	0.0024552
1006	0.0009552
1018	0.0005208
1030	0.000624
1042	0.0007656
1054	0.000888
1066	0.0014448
1078	0.0014688
1090	0.0011664
1102	0.0010224
1114	0.0006
1126	0.00048
1138	0.000396
1150	0.000312
1162	0.0003696
1174	0.0004344
1186	0.000564
1198	0.0008232
1210	0.0020064
1222	0.0024648
1234	0.0010608
1246	0.0005616
1258	0.0005784
1270	0.0006888
1282	0.0008712
1294	0.000804
1306	0.0006576
1318	0.0008736
1330	0.001476
1342	0.0021984
1354	0.0017136
1366	0.0012576
1378	0.0019224
1390	0.0033168
1402	0.0053448
1414	0.0066264
1426	0.0052488
1438	0.0034608
1450	0.0037008
1462	0.0041184
1474	0.0034056
1486	0.002952
1498	0.0025704
1510	0.0014112
1522	0.0012408
1534	0.001824
1546	0.0035856
1558	0.0059328
1570	0.0071568
1582	0.0092808
1594	0.0211536
1606	0.0207216
1618	0.0055512
1630	0.001644
1642	0.001164
1654	0.0010704
1666	0.000696
1678	0.000528
1690	0.0004944
1702	0.0005328
1714	0.0005088
1726	0.0004776
1738	0.0005208
1750	0.000408
1762	0.0003024
1774	0.000312
1786	0.0002808
1798	0.0003096
1810	0.000264
1822	0.0003072
1834	0.00048
1846	0.0004344
1858	0.0001968
1870	0.000204
1882	0.0002256
1894	0.0002712
1906	0.0004656
1918	0.0009312
1930	0.0010536
1942	0.0007656
1954	0.0004104
1966	0.000228
1978	0.0001536
1990	0.000132
2002	8.64e-05
2014	8.16e-05
2026	0.0001176
2038	0.0001512
2050	0.000108
2062	0.0001632
2074	0.0001008
2086	8.4e-05
2098	0.0001032
2110	6.48e-05
2122	6.48e-05
2134	0.0001128
2146	0.00012
2158	0.000108
2170	0.0001536
2182	0.0001416
2194	0.0001008
2206	0.0001104
2218	7.68e-05
2230	8.64e-05
2242	9.12e-05
2254	8.4e-05
2266	0.0001272
2278	0.0001224
2290	0.0001416
2302	0.0001128
2314	0.0001224
2326	0.000132
2338	4.32e-05
2350	7.92e-05
2362	3.6e-05
2374	6e-05
2386	7.92e-05
2398	0.0001152
2410	0.0002184
2422	0.0002016
2434	0.0001896
2446	0.0001944
2458	0.0001296
2470	0.0001272
2482	8.16e-05
2494	1.2e-05
2506	4.08e-05
2518	1.68e-05
2530	6.48e-05
2542	5.04e-05
2554	7.92e-05
2566	5.52e-05
2578	1.68e-05
2590	1.68e-05
2602	0.0001008
2614	0.0001704
2626	0.0001608
2638	0.0001272
2650	0.000204
2662	0.0002544
2674	0.0002688
2686	0.0002568
2698	0.0001992
2710	0.000144
2722	0.000228
2734	0.0003216
2746	0.0004032
2758	0.000456
2770	0.0004368
2782	0.0005328
2794	0.00066
2806	0.0008664
2818	0.0010728
2830	0.0014808
2842	0.0022824
2854	0.00384
2866	0.0066504
2878	0.0105768
2890	0.0108144
2902	0.0082608
2914	0.0095976
2926	0.014952
2938	0.0224088
2950	0.0223224
2962	0.021012
2974	0.023952
2986	0.0168696
2998	0.0091944
3010	0.0073296
3022	0.0089664
3034	0.00906
3046	0.007848
3058	0.0097872
3070	0.0109176
3082	0.0078072
3094	0.0034056
3106	0.0016896
3118	0.0009528
3130	0.0005736
3142	0.0003912
3154	0.0003264
3166	0.0003456
3178	0.0002304
3190	0.0002376
3202	0.0002808
3214	0.0002304
3226	0.00018
3238	0.0001512
3250	8.16e-05
3262	0.00012
3274	0.0001272
3286	8.16e-05
3298	7.2e-05
3310	3.36e-05
3322	5.04e-05
3334	6e-05
3346	0.0001008
3358	6e-05
3370	8.4e-05
3382	0.0001152
3394	3.6e-05
3406	4.8e-05
3418	4.56e-05
3430	3.6e-05
3442	9.6e-06
3454	6.96e-05
3466	7.68e-05
3478	4.56e-05
3490	4.32e-05
3502	8.16e-05
3514	8.4e-05
3526	9.36e-05
3538	0.0001008
3550	5.04e-05
3562	6.24e-05
3574	6.96e-05
3586	0.0001368
3598	0.0001032
3610	0.0001272
3622	9.36e-05
3634	4.56e-05
3646	0.0001224
3658	0.0001416
3670	0.00018
3682	0.0001392
3694	0.0001824
3706	0.0001272
3718	0.0001104
3730	0.0001728
3742	0.0002208
3754	0.0001224
3766	0.0001128
3778	0.0001488
3790	0.0001464
3802	0.0001776
3814	0.0001104
3826	7.44e-05
3838	0.000168
