Infrared Spectrum: Cyclopentylacetone
Formula: C 8 H 14 O
CAS: 1122-98-1
State: gas
Origin: EPA-IR VAPOR PHASE LIBRARY
1/CM	ABSORBANCE
549.8	0.004555
559.445	0.003125
569.09	0.002145
578.734	0.001475
588.379	0.0011077
598.024	0.0011075
607.669	0.0010415
617.313	0.0006676
626.958	0.0009043
636.603	0.0007694
646.248	0.0004758
655.893	0.0004594
665.537	0.00037138
675.182	0.0003056
684.827	0.0002572
694.472	0.00040848
704.116	0.00039525
713.761	0.000162
723.406	0.00042984
733.051	0.00043631
742.695	0.000363434
752.34	0.0003091
761.985	0.0005031
771.63	0.0004706
781.275	0.0006346
790.919	0.0005378
800.564	0.0006504
810.209	0.000792
819.854	0.000716
829.498	0.0008296
839.143	0.0007487
848.788	0.0006675
858.433	0.0008471
868.078	0.0010223
877.722	0.0010101
887.367	0.0012707
897.012	0.001318
906.657	0.001515
916.301	0.001745
925.946	0.002155
935.591	0.002605
945.236	0.002955
954.88	0.003255
964.525	0.003105
974.17	0.002935
983.815	0.002765
993.46	0.002245
1003.1	0.002315
1012.75	0.002045
1022.39	0.001505
1032.04	0.001655
1041.68	0.0010034
1051.33	0.0010702
1060.97	0.0009316
1070.62	0.001535
1080.26	0.001835
1089.91	0.001745
1099.55	0.002695
1109.2	0.002265
1118.84	0.004005
1128.49	0.006575
1138.13	0.009175
1147.78	0.010625
1157.42	0.012485
1167.07	0.015305
1176.71	0.015105
1186.36	0.011225
1196	0.008945
1205.64	0.008275
1215.29	0.007695
1224.93	0.008315
1234.58	0.008535
1244.22	0.007285
1253.87	0.006435
1263.51	0.006535
1273.16	0.006445
1282.8	0.006315
1292.45	0.005605
1302.09	0.004745
1311.74	0.004845
1321.38	0.005935
1331.03	0.007465
1340.67	0.010525
1350.32	0.018135
1359.96	0.024485
1369.61	0.020455
1379.25	0.011305
1388.9	0.006955
1398.54	0.006355
1408.18	0.007075
1417.83	0.007725
1427.47	0.007625
1437.12	0.007095
1446.76	0.006955
1456.41	0.006545
1466.05	0.005485
1475.7	0.004375
1485.34	0.003645
1494.99	0.002795
1504.63	0.002275
1514.28	0.001995
1523.92	0.001855
1533.57	0.001735
1543.21	0.001685
1552.86	0.001535
1562.5	0.001615
1572.15	0.001535
1581.79	0.001405
1591.44	0.001319
1601.08	0.0012743
1610.73	0.0011778
1620.37	0.0012397
1630.01	0.0012689
1639.66	0.001355
1649.3	0.001635
1658.95	0.002155
1668.59	0.002955
1678.24	0.004595
1687.88	0.007385
1697.53	0.012355
1707.17	0.021645
1716.82	0.037035
1726.46	0.049265
1736.11	0.044795
1745.75	0.027795
1755.4	0.013595
1765.04	0.006955
1774.69	0.004075
1784.33	0.002705
1793.98	0.001965
1803.62	0.001485
1813.27	0.0011577
1822.91	0.001025
1832.55	0.0008462
1842.2	0.0007925
1851.84	0.0007938
1861.49	0.0007438
1871.13	0.0006768
1880.78	0.0007246
1890.42	0.0006701
1900.07	0.0006484
1909.71	0.0006059
1919.36	0.0006012
1929	0.0005511
1938.65	0.0005101
1948.29	0.0005118
1957.94	0.0004771
1967.58	0.0005153
1977.23	0.0005053
1986.87	0.0005858
1996.52	0.0004773
2006.16	0.0005132
2015.81	0.0005534
2025.45	0.000585
2035.1	0.0004895
2044.74	0.0005127
2054.38	0.0004979
2064.03	0.0005886
2073.67	0.0005773
2083.32	0.0006629
2092.96	0.0006413
2102.61	0.0006839
2112.25	0.0006616
2121.9	0.0006656
2131.54	0.0007056
2141.19	0.0007348
2150.83	0.0007053
2160.48	0.0007139
2170.12	0.0007771
2179.77	0.000724
2189.41	0.0006719
2199.06	0.0007071
2208.7	0.0006837
2218.35	0.0006653
2227.99	0.0006864
2237.64	0.0006627
2247.28	0.0006194
2256.92	0.0006171
2266.57	0.0006673
2276.21	0.0006167
2285.86	0.0006105
2295.5	0.0006911
2305.15	0.0007082
2314.79	0.0006556
2324.44	0.0006224
2334.08	0.0005915
2343.73	0.0007111
2353.37	0.0007176
2363.02	0.0006448
2372.66	0.0005258
2382.31	0.0005219
2391.95	0.0005436
2401.6	0.0005617
2411.24	0.0005513
2420.89	0.0005748
2430.53	0.0005367
2440.18	0.0005627
2449.82	0.0005088
2459.47	0.0005474
2469.11	0.0005932
2478.75	0.0005685
2488.4	0.0005461
2498.04	0.0005645
2507.69	0.0006072
2517.33	0.0006276
2526.98	0.0006692
2536.62	0.0006096
2546.27	0.0005517
2555.91	0.0005957
2565.56	0.0006434
2575.2	0.0007693
2584.85	0.0006137
2594.49	0.0006777
2604.14	0.0006634
2613.78	0.0006828
2623.43	0.0006989
2633.07	0.0006878
2642.72	0.0007393
2652.36	0.0007597
2662.01	0.00082
2671.65	0.0007858
2681.29	0.0007741
2690.94	0.0007737
2700.58	0.0007848
2710.23	0.0008839
2719.87	0.0009499
2729.52	0.001044
2739.16	0.0010393
2748.81	0.001011
2758.45	0.0012261
2768.1	0.0012809
2777.74	0.001605
2787.39	0.001735
2797.03	0.002235
2806.68	0.002585
2816.32	0.003275
2825.97	0.004085
2835.61	0.005705
2845.26	0.008425
2854.9	0.012675
2864.55	0.019935
2874.19	0.028825
2883.84	0.031605
2893.48	0.028455
2903.12	0.026735
2912.77	0.029835
2922.41	0.035295
2932.06	0.042215
2941.7	0.053625
2951.35	0.068575
2960.99	0.075045
2970.64	0.058345
2980.28	0.034715
2989.93	0.018805
2999.57	0.012175
3009.22	0.009375
3018.86	0.006995
3028.51	0.004845
3038.15	0.003655
3047.8	0.003075
3057.44	0.002835
3067.09	0.002325
3076.73	0.002265
3086.38	0.001885
3096.02	0.001655
3105.67	0.001405
3115.31	0.0011176
3124.95	0.00101
3134.6	0.0008415
3144.24	0.0007443
3153.89	0.0007375
3163.53	0.0007169
3173.18	0.0005866
3182.82	0.0005547
3192.47	0.0005487
3202.11	0.0006947
3211.76	0.000561
3221.4	0.0005566
3231.05	0.0005031
3240.69	0.0005201
3250.34	0.0006122
3259.98	0.0005105
3269.63	0.000359737
3279.27	0.00043149
3288.92	0.00036725
3298.56	0.00042235
3308.21	0.0003079
3317.85	0.0004952
3327.49	0.0005198
3337.14	0.0004946
3346.78	0.0005449
3356.43	0.0003291
3366.07	0.0004771
3375.72	0.0005538
3385.36	0.0006626
3395.01	0.0006186
3404.65	0.0006339
3414.3	0.0009033
3423.94	0.0009747
3433.59	0.001465
3443.23	0.0011672
3452.88	0.0011476
3462.52	0.00092
3472.17	0.0007592
3481.81	0.0005791
3491.46	0.0005571
3501.1	0.00038506
3510.75	0.0004681
3520.39	0.0003266
3530.04	0.0002625
3539.68	0.0005154
3549.32	0.00039585
3558.97	0.000514
3568.61	0.0003304
3578.26	0.0005103
3587.9	0.00037378
3597.55	0.00043179
3607.19	0.0004907
3616.84	0.0005003
3626.48	0.0003021
3636.13	0.00042552
3645.77	0.00038327
3655.42	0.0004559
3665.06	0.00040602
3674.71	0.00043019
3684.35	0.0005814
3694	0.000538
3703.64	0.0004621
3713.29	0.0005511
3722.93	0.0004858
3732.58	0.0004757
3742.22	0.0005341
3751.86	0.0006537
3761.51	0.0004932
3771.15	0.0004562
3780.8	0.00043699
3790.44	0.0006154
3800.09	0.0005931
3809.73	0.0005031
3819.38	0.0004632
3829.02	0.0004992
3838.67	0.0004949
3848.31	0.0006973
3857.96	0.0005719
3867.6	0.0004623
3877.25	0.0004558
3886.89	0.0005014
3896.54	0.0005006
3906.18	0.00039441
3915.83	0.0005169
3925.47	0.0005084
3935.12	0.0005834
3944.76	0.0005084
3954.41	0.0004947
3964.05	0.0004674
3973.69	0.00042196
3983.34	0.0002891
3992.98	0.0006335
