Infrared Spectrum: 3,5-Dimethyl-2-cyclohexene-1-one
Formula: C 8 H 12 O
CAS: 1123-09-7
State: gas
Instrument: HP-GC/MS/IRD
Origin: NIST Mass Spectrometry Data Center
1/CM	ABSORBANCE
550	0.0003933
562	0.0002806
574	0.0001035
586	6.9e-06
598	8.28e-05
610	9.43e-05
622	9.66e-05
634	5.06e-05
646	6.44e-05
658	3.68e-05
670	0.0001104
682	5.52e-05
694	9.66e-05
706	0.0001311
718	0.0001081
730	7.36e-05
742	0.0001311
754	0.000115
766	0.0001242
778	0.0001702
790	0.0002507
802	0.0004278
814	0.0007567
826	0.0007199
838	0.0007659
850	0.0008142
862	0.0007958
874	0.0011477
886	0.001679
898	0.0014352
910	0.0008602
922	0.0003634
934	0.00023
946	0.0002438
958	0.0002691
970	0.000276
982	0.0002415
994	0.0002737
1006	0.0004439
1018	0.0005934
1030	0.0006532
1042	0.0005497
1054	0.0005911
1066	0.0004692
1078	0.0002599
1090	0.000299
1102	0.0002622
1114	0.0003312
1126	0.0006877
1138	0.0011109
1150	0.0012926
1162	0.0011293
1174	0.0007636
1186	0.0004393
1198	0.0005129
1210	0.0009775
1222	0.0023161
1234	0.0044275
1246	0.0047403
1258	0.0031418
1270	0.0028152
1282	0.0033166
1294	0.0032568
1306	0.0022563
1318	0.0016767
1330	0.0017871
1342	0.001932
1354	0.0026979
1366	0.0033672
1378	0.0038663
1390	0.0031211
1402	0.0012788
1414	0.0015663
1426	0.002208
1438	0.0024357
1450	0.0023184
1462	0.0019849
1474	0.0011224
1486	0.0005704
1498	0.0003749
1510	0.0003082
1522	0.000253
1534	0.000276
1546	0.0003128
1558	0.0003979
1570	0.0004393
1582	0.0004738
1594	0.0005957
1606	0.0009361
1618	0.001771
1630	0.0031671
1642	0.0037559
1654	0.0035374
1666	0.0053958
1678	0.0104949
1690	0.0197432
1702	0.0229908
1714	0.0145107
1726	0.0060421
1738	0.0022011
1750	0.0012213
1762	0.0008924
1774	0.0007015
1786	0.0005727
1798	0.0004508
1810	0.0003036
1822	0.0002392
1834	0.0002185
1846	0.000184
1858	0.0001426
1870	9.89e-05
1882	8.28e-05
1894	6.21e-05
1906	7.36e-05
1918	5.06e-05
1930	4.37e-05
1942	4.6e-05
1954	3.45e-05
1966	4.14e-05
1978	4.83e-05
1990	5.06e-05
2002	3.68e-05
2014	4.6e-05
2026	1.61e-05
2038	4.37e-05
2050	9.2e-06
2062	3.45e-05
2074	3.22e-05
2086	4.14e-05
2098	4.6e-05
2110	4.37e-05
2122	5.52e-05
2134	6.44e-05
2146	4.14e-05
2158	4.6e-05
2170	3.91e-05
2182	4.6e-05
2194	6.9e-05
2206	5.29e-05
2218	3.91e-05
2230	4.83e-05
2242	3.68e-05
2254	2.76e-05
2266	3.68e-05
2278	3.22e-05
2290	2.53e-05
2302	4.6e-05
2314	4.37e-05
2326	2.76e-05
2338	2.07e-05
2350	3.91e-05
2362	0
2374	1.84e-05
2386	5.06e-05
2398	2.99e-05
2410	2.3e-06
2422	1.84e-05
2434	2.3e-06
2446	4.6e-05
2458	2.76e-05
2470	5.06e-05
2482	4.37e-05
2494	4.83e-05
2506	2.99e-05
2518	5.29e-05
2530	2.99e-05
2542	2.53e-05
2554	4.83e-05
2566	3.45e-05
2578	5.06e-05
2590	2.53e-05
2602	4.14e-05
2614	4.6e-05
2626	6.9e-05
2638	8.97e-05
2650	8.05e-05
2662	9.2e-05
2674	0.000115
2686	0.0001081
2698	0.0001127
2710	0.0001288
2722	0.0001932
2734	0.0002484
2746	0.0002737
2758	0.0001886
2770	0.0001955
2782	0.0002346
2794	0.0003519
2806	0.0005543
2818	0.0011707
2830	0.0018331
2842	0.0016813
2854	0.0016583
2866	0.0023874
2878	0.0041791
2890	0.0054993
2902	0.0066746
2914	0.0087239
2926	0.0076222
2938	0.0052693
2950	0.0061594
2962	0.0094829
2974	0.007498
2986	0.0033143
2998	0.0015203
3010	0.0008441
3022	0.0008188
3034	0.001242
3046	0.0013731
3058	0.0008694
3070	0.0005543
3082	0.0004554
3094	0.0003749
3106	0.0002691
3118	0.0002231
3130	0.0001794
3142	0.0001587
3154	0.0001104
3166	0.0001035
3178	0.0001219
3190	9.43e-05
3202	0.000115
3214	8.05e-05
3226	9.2e-05
3238	6.67e-05
3250	8.28e-05
3262	8.28e-05
3274	8.28e-05
3286	0.0001058
3298	7.59e-05
3310	0.0001104
3322	0.0001449
3334	0.0002277
3346	0.0002599
3358	0.0003519
3370	0.0003772
3382	0.0003611
3394	0.0002599
3406	0.0002277
3418	0.000138
3430	0.000115
3442	8.28e-05
3454	5.06e-05
3466	7.59e-05
3478	4.14e-05
3490	3.45e-05
3502	4.83e-05
3514	3.45e-05
3526	2.76e-05
3538	2.53e-05
3550	3.45e-05
3562	0.0001058
3574	2.76e-05
3586	6.9e-06
3598	5.29e-05
3610	2.3e-05
3622	5.29e-05
3634	2.3e-05
3646	5.98e-05
3658	5.06e-05
3670	4.83e-05
3682	8.51e-05
3694	2.3e-05
3706	0
3718	3.91e-05
3730	3.22e-05
3742	3.91e-05
3754	6.9e-06
3766	4.37e-05
3778	8.28e-05
3790	9.2e-06
3802	9.2e-06
3814	2.07e-05
3826	1.61e-05
3838	7.13e-05
