Infrared Spectrum: 3,3-Dimethylglutarimide
Formula: C 7 H 11 N O 2
CAS: 1123-40-6
State: gas
Origin: EPA-IR VAPOR PHASE LIBRARY
1/CM	ABSORBANCE
501.5	0.00017429
513.074	5.55e-05
524.648	0.00012305
536.222	0.0004189
547.796	0.0010576
559.37	0.0019185
570.944	0.0015685
582.518	0.0005996
594.092	0.0003424
605.666	0.0003587
617.24	0.0004412
628.814	0.0005403
640.388	0.0007272
651.962	0.0011685
663.536	0.0014285
675.11	0.0020585
686.684	0.0036085
698.258	0.0038085
709.832	0.0033185
721.406	0.0037785
732.98	0.0027385
744.554	0.0023185
756.128	0.0038685
767.702	0.0047685
779.276	0.0030685
790.85	0.0014585
802.423	0.000834
813.997	0.0006968
825.571	0.0005663
837.145	0.000409
848.719	0.0003666
860.293	0.0003982
871.867	0.0004211
883.441	0.0003175
895.015	0.000357
906.589	0.0003396
918.163	0.0004008
929.737	0.0004355
941.311	0.0004621
952.885	0.0005561
964.459	0.0004313
976.033	0.0003325
987.607	0.0003215
999.181	0.0005162
1010.76	0.000803
1022.33	0.0014085
1033.9	0.0014385
1045.48	0.0007127
1057.05	0.0004148
1068.63	0.0003323
1080.2	0.0004277
1091.77	0.0005095
1103.35	0.0007262
1114.92	0.0012385
1126.49	0.0019685
1138.07	0.0033185
1149.64	0.0080785
1161.22	0.0171385
1172.79	0.0298985
1184.36	0.0325085
1195.94	0.0154485
1207.51	0.0044685
1219.09	0.0029385
1230.66	0.0021685
1242.23	0.0017085
1253.81	0.0019185
1265.38	0.0036185
1276.96	0.0078685
1288.53	0.0084885
1300.1	0.0049385
1311.68	0.0060285
1323.25	0.0089385
1334.83	0.0094185
1346.4	0.0082585
1357.97	0.0061785
1369.55	0.0077285
1381.12	0.0104985
1392.7	0.0095485
1404.27	0.0050385
1415.84	0.0024085
1427.42	0.0021285
1438.99	0.0020185
1450.57	0.0025485
1462.14	0.0032685
1473.71	0.0030485
1485.29	0.0021285
1496.86	0.0010442
1508.44	0.0007376
1520.01	0.0007356
1531.58	0.0006842
1543.16	0.0006222
1554.73	0.0007289
1566.31	0.0008827
1577.88	0.0009181
1589.45	0.0007285
1601.03	0.0005966
1612.6	0.0006469
1624.18	0.0007726
1635.75	0.0009387
1647.32	0.0012685
1658.9	0.0016985
1670.47	0.0023485
1682.05	0.0033585
1693.62	0.0048285
1705.19	0.0082885
1716.77	0.0200885
1728.34	0.0488985
1739.92	0.0641385
1751.49	0.0491885
1763.06	0.0284685
1774.64	0.0102385
1786.21	0.0049185
1797.79	0.0031885
1809.36	0.0022385
1820.93	0.0016185
1832.51	0.0013485
1844.08	0.0012385
1855.66	0.0010016
1867.23	0.0008683
1878.8	0.000678
1890.38	0.0005808
1901.95	0.0005069
1913.53	0.0003787
1925.1	0.0003242
1936.67	0.0002924
1948.25	0.000247
1959.82	0.0002569
1971.4	0.0002628
1982.97	0.0002453
1994.54	0.0002461
2006.12	0.0002237
2017.69	0.000243
2029.27	0.0002604
2040.84	0.0002268
2052.41	0.00018215
2063.99	0.00015971
2075.56	0.00015514
2087.14	0.00015599
2098.71	0.00013023
2110.28	0.00014116
2121.86	0.00016261
2133.43	0.0001386
2145.01	0.00015023
2156.58	0.00012947
2168.15	0.00016612
2179.73	0.00013898
2191.3	0.00016779
2202.88	0.00015548
2214.45	0.00017485
2226.02	0.00016153
2237.6	0.00015246
2249.17	0.0001895
2260.74	0.00016381
2272.32	0.00015729
2283.89	0.00015272
2295.47	0.00017134
2307.04	0.0002051
2318.61	0.0002167
2330.19	0.0002379
2341.76	0.0002099
2353.34	0.00016529
2364.91	0.00014622
2376.48	0.00016126
2388.06	0.00018641
2399.63	0.00017352
2411.21	0.00017455
2422.78	0.00016764
2434.35	0.00018084
2445.93	0.0001994
2457.5	0.0002128
2469.08	0.0002379
2480.65	0.000247
2492.22	0.0002733
2503.8	0.0002868
2515.37	0.0002493
2526.95	0.0002368
2538.52	0.0002117
2550.09	0.00018676
2561.67	0.00013754
2573.24	0.00012992
2584.82	0.00012807
2596.39	0.00013322
2607.96	0.0001603
2619.54	0.00016644
2631.11	0.00015215
2642.69	0.00018526
2654.26	0.0002017
2665.83	0.0002372
2677.41	0.0002311
2688.98	0.0002872
2700.56	0.0002685
2712.13	0.0002773
2723.7	0.0002852
2735.28	0.0002787
2746.85	0.0002977
2758.43	0.0002828
2770	0.0002702
2781.57	0.0002559
2793.15	0.0003032
2804.72	0.0002861
2816.3	0.0003455
2827.87	0.0004248
2839.44	0.0005162
2851.02	0.00072
2862.59	0.0014785
2874.17	0.0027285
2885.74	0.0029085
2897.31	0.0024285
2908.89	0.0024685
2920.46	0.0033685
2932.04	0.0056085
2943.61	0.0075985
2955.18	0.0065185
2966.76	0.0069685
2978.33	0.0079585
2989.91	0.0053185
3001.48	0.0025485
3013.05	0.0008782
3024.63	0.0004353
3036.2	0.0003673
3047.78	0.0002667
3059.35	0.0002549
3070.92	0.0002451
3082.5	0.0002539
3094.07	0.0002874
3105.65	0.0003828
3117.22	0.0003864
3128.79	0.0003271
3140.37	0.0003258
3151.94	0.0002615
3163.52	0.0002616
3175.09	0.000229
3186.66	0.0002084
3198.24	0.0002028
3209.81	0.0001914
3221.39	0.0001927
3232.96	0.0001472
3244.53	0.00013266
3256.11	0.00010681
3267.68	0.0001323
3279.26	0.00017659
3290.83	9.7908e-05
3302.4	0.00013067
3313.98	0.00017701
3325.55	0.0001912
3337.13	0.00015264
3348.7	0.00013435
3360.27	0.0002494
3371.85	0.000521
3383.42	0.0016685
3395	0.0045485
3406.57	0.0052485
3418.14	0.0024585
3429.72	0.0007634
3441.29	0.0006148
3452.86	0.0007806
3464.44	0.000887
3476.01	0.0007484
3487.59	0.0006626
3499.16	0.0004965
3510.73	0.0003668
3522.31	0.000276
3533.88	0.0002596
3545.46	0.00018516
3557.03	6.74e-05
3568.6	0.00016638
3580.18	0.00013927
3591.75	0.00010885
3603.33	0.00012898
3614.9	0.00012057
3626.47	0.00011939
3638.05	0.000103
3649.62	0.00010687
3661.2	4.24e-05
3672.77	0.00012436
3684.34	0.0001933
3695.92	0.00012968
3707.49	0.00011167
3719.07	0.00014066
3730.64	0.00012932
3742.21	0.00017498
3753.79	0.0001941
3765.36	8.135e-05
3776.94	0.0001102
3788.51	0.0001527
3800.08	0.000227
3811.66	0.000194
3823.23	0.0001033
3834.81	0.00014338
3846.38	0.00014281
3857.95	0.00012736
3869.53	0.00014789
3881.1	0.0002017
3892.68	0.00014296
3904.25	0.00015376
3915.82	0.00012647
3927.4	0.00013057
3938.97	0.00016339
3950.55	0.0001888
3962.12	0.00013069
3973.69	0.00016493
3985.27	0.0001264
3996.84	0.00012455
