Infrared Spectrum: .alpha.-Acetyl-.alpha.-methyl-.gamma.-butyrolactone
Formula: C 7 H 10 O 3
CAS: 1123-19-9
State: gas
Origin: EPA-IR VAPOR PHASE LIBRARY
1/CM	ABSORBANCE
549.9	0.00484
559.547	0.0047
569.193	0.00486
578.84	0.00585
588.486	0.00787
598.133	0.00795
607.779	0.00648
617.426	0.00417
627.072	0.00287
636.719	0.0025161
646.365	0.00296
656.012	0.00413
665.658	0.0046
675.305	0.00363
684.951	0.00309
694.598	0.00284
704.245	0.0020808
713.891	0.001408
723.538	0.001198
733.184	0.001518
742.831	0.0020302
752.477	0.0020547
762.124	0.0019002
771.77	0.0019906
781.417	0.00297
791.063	0.00404
800.71	0.004
810.356	0.00278
820.003	0.001967
829.649	0.0018399
839.296	0.0018243
848.943	0.0021978
858.589	0.00281
868.236	0.00352
877.882	0.00384
887.529	0.0034
897.175	0.00409
906.822	0.00703
916.468	0.01029
926.115	0.00958
935.761	0.00676
945.408	0.00674
955.054	0.00992
964.701	0.01414
974.347	0.01497
983.994	0.0121
993.64	0.01041
1003.29	0.01268
1012.93	0.021
1022.58	0.03935
1032.23	0.06062
1041.87	0.06059
1051.52	0.04076
1061.17	0.033
1070.81	0.05418
1080.46	0.081
1090.11	0.07603
1099.75	0.04473
1109.4	0.02638
1119.05	0.02924
1128.69	0.03687
1138.34	0.03992
1147.99	0.04845
1157.63	0.07004
1167.28	0.08507
1176.92	0.07806
1186.57	0.05919
1196.22	0.04518
1205.86	0.0416
1215.51	0.04153
1225.16	0.03739
1234.8	0.03124
1244.45	0.02369
1254.1	0.01603
1263.74	0.01084
1273.39	0.00738
1283.04	0.00542
1292.68	0.00447
1302.33	0.00447
1311.98	0.0047
1321.62	0.00527
1331.27	0.00627
1340.92	0.00993
1350.56	0.02138
1360.21	0.04091
1369.86	0.04864
1379.5	0.03643
1389.15	0.022
1398.79	0.01382
1408.44	0.00963
1418.09	0.00962
1427.73	0.01078
1437.38	0.01363
1447.03	0.0179
1456.67	0.01984
1466.32	0.01598
1475.97	0.01152
1485.61	0.00938
1495.26	0.00835
1504.91	0.00613
1514.55	0.00432
1524.2	0.00375
1533.85	0.00356
1543.49	0.00345
1553.14	0.00333
1562.79	0.00328
1572.43	0.00314
1582.08	0.0031
1591.73	0.0031
1601.37	0.00327
1611.02	0.00342
1620.67	0.00364
1630.31	0.00382
1639.96	0.00386
1649.6	0.00412
1659.25	0.0048
1668.9	0.00643
1678.54	0.0092
1688.19	0.01284
1697.84	0.01969
1707.48	0.04223
1717.13	0.088
1726.78	0.11894
1736.42	0.08847
1746.07	0.04252
1755.72	0.02916
1765.36	0.03378
1775.01	0.06444
1784.66	0.13808
1794.3	0.20239
1803.95	0.16869
1813.6	0.0795
1823.24	0.03236
1832.89	0.01732
1842.54	0.01096
1852.18	0.00733
1861.83	0.00546
1871.47	0.00433
1881.12	0.00378
1890.77	0.00342
1900.41	0.00307
1910.06	0.00281
1919.71	0.0025829
1929.35	0.0024351
1939	0.0023204
1948.65	0.0023122
1958.29	0.0023127
1967.94	0.0022203
1977.59	0.0021272
1987.23	0.0020554
1996.88	0.0021529
2006.53	0.0020482
2016.17	0.0019221
2025.82	0.0018343
2035.47	0.00179139
2045.11	0.0018401
2054.76	0.0019409
2064.41	0.0018745
2074.05	0.0017016
2083.7	0.0016599
2093.35	0.001558
2102.99	0.001571
2112.64	0.001579
2122.28	0.00153
2131.93	0.001589
2141.58	0.001589
2151.22	0.00172457
2160.87	0.001882
2170.52	0.0018763
2180.16	0.00172561
2189.81	0.0016465
2199.46	0.001512
2209.1	0.001556
2218.75	0.00161
2228.4	0.00174872
2238.04	0.0018801
2247.69	0.0019461
2257.34	0.0019283
2266.98	0.0018407
2276.63	0.0018273
2286.28	0.0018208
2295.92	0.0017463
2305.57	0.001576
2315.22	0.00157
2324.86	0.001513
2334.51	0.001516
2344.16	0.001414
2353.8	0.001422
2363.45	0.001363
2373.09	0.001335
2382.74	0.001344
2392.39	0.001325
2402.03	0.001279
2411.68	0.001217
2421.33	0.001171
2430.97	0.001158
2440.62	0.001233
2450.27	0.001296
2459.91	0.001269
2469.56	0.001236
2479.21	0.001335
2488.85	0.001362
2498.5	0.001269
2508.15	0.001152
2517.79	0.001024
2527.44	0.001058
2537.09	0.001048
2546.73	0.000932
2556.38	0.000949
2566.03	0.000972
2575.67	0.000913
2585.32	0.000828
2594.96	0.000793
2604.61	0.000781
2614.26	0.000724
2623.9	0.00069
2633.55	0.00071
2643.2	0.000749
2652.84	0.00069
2662.49	0.000774
2672.14	0.000749
2681.78	0.00075
2691.43	0.000806
2701.08	0.000863
2710.72	0.001025
2720.37	0.001192
2730.02	0.001204
2739.66	0.001091
2749.31	0.001047
2758.96	0.001032
2768.6	0.000865
2778.25	0.000868
2787.9	0.000861
2797.54	0.000851
2807.19	0.001007
2816.84	0.001196
2826.48	0.001359
2836.13	0.0016557
2845.77	0.0019926
2855.42	0.00274
2865.07	0.00417
2874.71	0.00642
2884.36	0.00868
2894.01	0.00924
2903.65	0.01209
2913.3	0.01928
2922.95	0.02428
2932.59	0.02411
2942.24	0.025
2951.89	0.02342
2961.53	0.02023
2971.18	0.02326
2980.83	0.03209
2990.47	0.039
3000.12	0.03597
3009.77	0.02318
3019.41	0.01068
3029.06	0.00525
3038.71	0.00345
3048.35	0.0023311
3058	0.0017666
3067.64	0.001331
3077.29	0.001149
3086.94	0.001049
3096.58	0.001153
3106.23	0.001045
3115.88	0.000907
3125.52	0.00065
3135.17	0.00065
3144.82	0.00042
3154.46	0.00041
3164.11	0.0006
3173.76	0.0005
3183.4	0.00039
3193.05	0.00041
3202.7	0.00035
3212.34	0.00031
3221.99	0.00019
3231.64	1e-05
3241.28	0.00018
3250.93	0.00022
3260.58	0.00017
3270.22	0.00016
3279.87	0.00027
3289.52	0.00025
3299.16	0.0004
3308.81	0.00019
3318.45	0.00017
3328.1	0.00014
3337.75	0.00025
3347.39	0.00022
3357.04	0.00044
3366.69	0.00042
3376.33	0.0005
3385.98	0.00054
3395.63	0.000722
3405.27	0.000817
3414.92	0.001173
3424.57	0.0019986
3434.21	0.0021723
3443.86	0.0018441
3453.51	0.001192
3463.15	0.000898
3472.8	0.000887
3482.45	0.000823
3492.09	0.000739
3501.74	0.000864
3511.39	0.0009
3521.03	0.001002
3530.68	0.00125
3540.33	0.001229
3549.97	0.0018276
3559.62	0.0025719
3569.26	0.00294
3578.91	0.00281
3588.56	0.0019875
3598.2	0.0016789
3607.85	0.001266
3617.5	0.001078
3627.14	0.001214
3636.79	0.00098
3646.44	0.000979
3656.08	0.000797
3665.73	0.000816
3675.38	0.000863
3685.02	0.000853
3694.67	0.000832
3704.32	0.00093
3713.96	0.000927
3723.61	0.000939
3733.26	0.000908
3742.9	0.000962
3752.55	0.000944
3762.2	0.00086
3771.84	0.000808
3781.49	0.000912
3791.13	0.000956
3800.78	0.001004
3810.43	0.00099
3820.07	0.000896
3829.72	0.000985
3839.37	0.000922
3849.01	0.000984
3858.66	0.000959
3868.31	0.001057
3877.95	0.000885
3887.6	0.000997
3897.25	0.001216
3906.89	0.001134
3916.54	0.00121
3926.19	0.00114
3935.83	0.001177
3945.48	0.001247
3955.13	0.001166
3964.77	0.001299
3974.42	0.001313
3984.07	0.001146
3993.71	0.001105
