Infrared Spectrum: 2-Bromo-5-fluorobenzyl bromide
Formula: C 7 H 5 Br 2 F
CAS: 112399-50-5
State: gas
Origin: EPA-IR VAPOR PHASE LIBRARY
1/CM	ABSORBANCE
549.8	0.00901
559.445	0.01014
569.09	0.03017
578.734	0.06234
588.379	0.07011
598.024	0.05501
607.669	0.02014
617.313	0.00714
626.958	0.0056
636.603	0.01261
646.248	0.01199
655.893	0.00669
665.537	0.00491
675.182	0.00576
684.827	0.00776
694.472	0.00689
704.116	0.01047
713.761	0.01789
723.406	0.00972
733.051	0.01669
742.695	0.0171
752.34	0.00474
761.985	0.00317
771.63	0.00276
781.275	0.0036
790.919	0.00604
800.564	0.02843
810.209	0.08246
819.854	0.03062
829.498	0.00766
839.143	0.00783
848.788	0.00886
858.433	0.01784
868.078	0.04384
877.722	0.0341
887.367	0.01139
897.012	0.00799
906.657	0.00604
916.301	0.00284
925.946	0.00232
935.591	0.00263
945.236	0.00629
954.88	0.01938
964.525	0.02309
974.17	0.00704
983.815	0.00299
993.46	0.00302
1003.1	0.00339
1012.75	0.00697
1022.39	0.0283
1032.04	0.07144
1041.68	0.02994
1051.33	0.00769
1060.97	0.00533
1070.62	0.00478
1080.26	0.00587
1089.91	0.01461
1099.55	0.03094
1109.2	0.02046
1118.84	0.0151
1128.49	0.02009
1138.13	0.01215
1147.78	0.02921
1157.42	0.06746
1167.07	0.03246
1176.71	0.01019
1186.36	0.01
1196	0.01578
1205.64	0.03882
1215.29	0.06662
1224.93	0.07214
1234.58	0.10752
1244.22	0.06225
1253.87	0.02901
1263.51	0.05381
1273.16	0.12095
1282.8	0.12674
1292.45	0.05892
1302.09	0.01845
1311.74	0.01073
1321.38	0.00708
1331.03	0.00557
1340.67	0.00429
1350.32	0.00322
1359.96	0.00385
1369.61	0.00794
1379.25	0.01252
1388.9	0.01287
1398.54	0.03341
1408.18	0.06843
1417.83	0.03957
1427.47	0.02403
1437.12	0.03199
1446.76	0.04807
1456.41	0.07248
1466.05	0.16028
1475.7	0.20821
1485.34	0.08606
1494.99	0.02241
1504.63	0.01123
1514.28	0.00772
1523.92	0.00542
1533.57	0.00531
1543.21	0.00808
1552.86	0.01457
1562.5	0.025
1572.15	0.05147
1581.79	0.0659
1591.44	0.03655
1601.08	0.03779
1610.73	0.03943
1620.37	0.02016
1630.01	0.0067
1639.66	0.00265
1649.3	0.00246
1658.95	0.00236
1668.59	0.0022
1678.24	0.00262
1687.88	0.00228
1697.53	0.00202
1707.17	0.00224
1716.82	0.00194
1726.46	0.00292
1736.11	0.00558
1745.75	0.0062
1755.4	0.00284
1765.04	0.00147
1774.69	0.00139
1784.33	0.00122
1793.98	0.00137
1803.62	0.00183
1813.27	0.00185
1822.91	0.00188
1832.55	0.00164
1842.2	0.00163
1851.84	0.00187
1861.49	0.00348
1871.13	0.00683
1880.78	0.00613
1890.42	0.00231
1900.07	0.00145
1909.71	0.0008475
1919.36	0.001
1929	0.0008133
1938.65	0.0008669
1948.29	0.0009696
1957.94	0.00119
1967.58	0.00169
1977.23	0.00167
1986.87	0.00157
1996.52	0.00169
2006.16	0.00159
2015.81	0.00145
2025.45	0.001
2035.1	0.0008867
2044.74	0.0007492
2054.38	0.00104
2064.03	0.00107
2073.67	0.00124
2083.32	0.00114
2092.96	0.00115
2102.61	0.0009061
2112.25	0.0012
2121.9	0.00122
2131.54	0.00117
2141.19	0.0009255
2150.83	0.00115
2160.48	0.00104
2170.12	0.00112
2179.77	0.00146
2189.41	0.0017
2199.06	0.00189
2208.7	0.00138
2218.35	0.00135
2227.99	0.00142
2237.64	0.00106
2247.28	0.00116
2256.92	0.00122
2266.57	0.0009936
2276.21	0.00125
2285.86	0.00138
2295.5	0.00142
2305.15	0.00156
2314.79	0.00157
2324.44	0.00101
2334.08	0.00119
2343.73	0.0007225
2353.37	0.00114
2363.02	0.0009551
2372.66	0.00139
2382.31	0.00131
2391.95	0.0015
2401.6	0.00132
2411.24	0.00173
2420.89	0.00261
2430.53	0.00266
2440.18	0.00169
2449.82	0.00148
2459.47	0.0014
2469.11	0.0014
2478.75	0.00115
2488.4	0.00115
2498.04	0.00135
2507.69	0.00166
2517.33	0.00133
2526.98	0.00139
2536.62	0.00141
2546.27	0.00124
2555.91	0.00125
2565.56	0.00116
2575.2	0.00125
2584.85	0.0005621
2594.49	0.0007787
2604.14	0.0009434
2613.78	0.0008705
2623.43	0.00134
2633.07	0.00152
2642.72	0.00116
2652.36	0.00147
2662.01	0.0011
2671.65	0.00138
2681.29	0.00102
2690.94	0.0009721
2700.58	0.00104
2710.23	0.00133
2719.87	0.00109
2729.52	0.00122
2739.16	0.0012
2748.81	0.0009791
2758.45	0.0006777
2768.1	0.000759
2777.74	0.0008113
2787.39	0.0008946
2797.03	0.0006714
2806.68	0.0004899
2816.32	0.0008857
2825.97	0.00145
2835.61	0.00136
2845.26	0.00155
2854.9	0.00203
2864.55	0.00221
2874.19	0.00242
2883.84	0.00179
2893.48	0.0011
2903.12	0.0008229
2912.77	0.0012
2922.41	0.00103
2932.06	0.0009654
2941.7	0.00118
2951.35	0.00203
2960.99	0.00229
2970.64	0.00337
2980.28	0.00775
2989.93	0.01174
2999.57	0.00454
3009.22	0.00244
3018.86	0.00194
3028.51	0.00119
3038.15	0.00208
3047.8	0.00193
3057.44	0.00178
3067.09	0.0029
3076.73	0.00529
3086.38	0.00532
3096.02	0.00199
3105.67	0.00156
3115.31	0.00123
3124.95	0.0003063
3134.6	0.0007339
3144.24	0.0009459
3153.89	0.0005305
3163.53	0.0003983
3173.18	0.0009617
3182.82	0.0005231
3192.47	0.0006672
3202.11	0.0008793
3211.76	0.0003587
3221.4	0.0005069
3231.05	0.0009808
3240.69	0.0006835
3250.34	0.00115
3259.98	0.0003986
3269.63	0.0008235
3279.27	0.0003316
3288.92	0.0001988
3298.56	0.0001017
3308.21	0.000663
3317.85	0.00127
3327.49	0.0009243
3337.14	0.0008521
3346.78	0.00124
3356.43	0.00141
3366.07	0.0008437
3375.72	0.0005209
3385.36	0.0006506
3395.01	0.0006287
3404.65	0.000294
3414.3	0.0007016
3423.94	0.00106
3433.59	0.0006886
3443.23	0.0008584
3452.88	0.0002607
3462.52	0.0007839
3472.17	0.00103
3481.81	0.0007077
3491.46	0.0006455
3501.1	0.000354
3510.75	0.0004586
3520.39	0.0005377
3530.04	0.0003158
3539.68	0.0009673
3549.32	0.00131
3558.97	0.0006682
3568.61	0.0008207
3578.26	0.000738
3587.9	0.0002891
3597.55	0.00124
3607.19	0.0007675
3616.84	0.0006337
3626.48	0.00104
3636.13	0.0008665
3645.77	0.0004315
3655.42	0.00107
3665.06	0.0003882
3674.71	0.0007273
3684.35	0.00107
3694	0.0005343
3703.64	0.000482
3713.29	0.0001044
3722.93	0.00107
3732.58	0.0004267
3742.22	0.0008197
3751.86	0.00101
3761.51	0.00137
3771.15	0.000808
3780.8	0.0008361
3790.44	0.0005299
3800.09	0.0009346
3809.73	0.0009052
3819.38	0.0005987
3829.02	0.0007874
3838.67	0.0007566
3848.31	0.00129
3857.96	0.0003939
3867.6	0.00103
3877.25	0.00109
3886.89	0.0006825
3896.54	0.0009908
3906.18	0.00121
3915.83	0.0004879
3925.47	0.0007921
3935.12	0.000831
3944.76	0.00117
3954.41	0.0008071
3964.05	0.0006555
3973.69	0.00121
3983.34	0.0008797
3992.98	0.0005648
