Infrared Spectrum: 4-Chloro-2,6-dimethylphenol
Formula: C 8 H 9 Cl O
CAS: 1123-63-3
State: gas
Origin: EPA-IR VAPOR PHASE LIBRARY
1/CM	ABSORBANCE
549.9	0.001322
559.547	0.001752
569.193	0.001862
578.84	0.001332
588.486	0.0008567
598.133	0.0007742
607.779	0.0009037
617.426	0.0007346
627.072	0.0006525
636.719	0.000635
646.365	0.0007799
656.012	0.0007465
665.658	0.0008627
675.305	0.0009987
684.951	0.0010897
694.598	0.0012418
704.245	0.001522
713.891	0.002512
723.538	0.004442
733.184	0.007852
742.831	0.006242
752.477	0.001532
762.124	0.0008873
771.77	0.0008441
781.417	0.0007779
791.063	0.0007553
800.71	0.0006686
810.356	0.000757
820.003	0.0008578
829.649	0.0009568
839.296	0.001372
848.943	0.003202
858.589	0.006542
868.236	0.005462
877.882	0.004892
887.529	0.005242
897.175	0.002842
906.822	0.001692
916.468	0.001652
926.115	0.001952
935.761	0.002402
945.408	0.001942
955.054	0.001582
964.701	0.001712
974.347	0.001922
983.994	0.002432
993.64	0.002932
1003.29	0.002922
1012.93	0.002652
1022.58	0.002192
1032.23	0.001722
1041.87	0.001332
1051.52	0.0012087
1061.17	0.0011729
1070.81	0.0012042
1080.46	0.0012056
1090.11	0.0012108
1099.75	0.0010598
1109.4	0.0010897
1119.05	0.0012574
1128.69	0.001412
1138.34	0.001702
1147.99	0.001892
1157.63	0.002442
1167.28	0.004202
1176.92	0.012002
1186.57	0.031952
1196.22	0.032762
1205.86	0.017542
1215.51	0.017712
1225.16	0.012292
1234.8	0.003852
1244.45	0.003472
1254.1	0.003452
1263.74	0.002642
1273.39	0.002632
1283.04	0.003102
1292.68	0.003982
1302.33	0.005702
1311.98	0.005462
1321.62	0.003082
1331.27	0.001652
1340.92	0.001382
1350.56	0.001352
1360.21	0.001532
1369.86	0.001542
1379.5	0.001752
1389.15	0.002032
1398.79	0.001942
1408.44	0.003102
1418.09	0.004972
1427.73	0.005742
1437.38	0.006552
1447.03	0.008252
1456.67	0.010342
1466.32	0.014982
1475.97	0.019742
1485.61	0.014222
1495.26	0.005372
1504.91	0.003032
1514.55	0.002572
1524.2	0.002352
1533.85	0.002142
1543.49	0.001862
1553.14	0.001832
1562.79	0.001732
1572.43	0.001712
1582.08	0.001792
1591.73	0.001842
1601.37	0.001882
1611.02	0.001782
1620.67	0.001462
1630.31	0.0011886
1639.96	0.0008965
1649.6	0.0007743
1659.25	0.0007299
1668.9	0.000757
1678.54	0.0007375
1688.19	0.0007881
1697.84	0.0008583
1707.48	0.0012313
1717.13	0.001422
1726.78	0.001372
1736.42	0.0010382
1746.07	0.0007332
1755.72	0.0006222
1765.36	0.0007166
1775.01	0.0006661
1784.66	0.0006029
1794.3	0.0005936
1803.95	0.0005532
1813.6	0.0005583
1823.24	0.0006065
1832.89	0.0005931
1842.54	0.0006221
1852.18	0.0005575
1861.83	0.0005847
1871.47	0.0005508
1881.12	0.0006074
1890.77	0.0006413
1900.41	0.0006681
1910.06	0.0006095
1919.71	0.0006904
1929.35	0.0006165
1939	0.0005216
1948.65	0.0005895
1958.29	0.0005206
1967.94	0.0004691
1977.59	0.0005075
1987.23	0.0004712
1996.88	0.0004445
2006.53	0.0004775
2016.17	0.0004807
2025.82	0.0004901
2035.47	0.0003916
2045.11	0.0003987
2054.76	0.0004218
2064.41	0.0004101
2074.05	0.0003788
2083.7	0.0003999
2093.35	0.0003985
2102.99	0.0003778
2112.64	0.00035861
2122.28	0.0003998
2131.93	0.0003706
2141.58	0.0003728
2151.22	0.0003703
2160.87	0.0004153
2170.52	0.0004167
2180.16	0.0003891
2189.81	0.0004324
2199.46	0.0003768
2209.1	0.0003896
2218.75	0.0003661
2228.4	0.00031011
2238.04	0.00031582
2247.69	0.00031705
2257.34	0.00028736
2266.98	0.00031831
2276.63	0.00025696
2286.28	0.0003718
2295.92	0.00035503
2305.57	0.0003772
2315.22	0.0003943
2324.86	0.0003894
2334.51	0.0003698
2344.16	0.0003586
2353.8	0.00025659
2363.45	0.00036028
2373.09	0.00035714
2382.74	0.00035261
2392.39	0.0003847
2402.03	0.0004143
2411.68	0.00032997
2421.33	0.0003864
2430.97	0.0003459
2440.62	0.00035375
2450.27	0.0003841
2459.91	0.0003696
2469.56	0.0003925
2479.21	0.00035327
2488.85	0.0003669
2498.5	0.00031537
2508.15	0.00027387
2517.79	0.0002285
2527.44	0.00028932
2537.09	0.000265651
2546.73	0.00025416
2556.38	0.000155
2566.03	0.00029128
2575.67	0.00026136
2585.32	0.0001888
2594.96	0.000158
2604.61	0.0001814
2614.26	0.0001899
2623.9	0.000136
2633.55	0.0001919
2643.2	0.000213
2652.84	0.0001994
2662.49	0.000155
2672.14	0.0001809
2681.78	0.00029119
2691.43	0.000228
2701.08	0.000157
2710.72	0.0002059
2720.37	0.00027596
2730.02	0.0002007
2739.66	0.0003543
2749.31	0.000369
2758.96	0.00032825
2768.6	0.0002185
2778.25	7.7e-05
2787.9	5.9e-05
2797.54	0.0001961
2807.19	0.0002394
2816.84	0.00032737
2826.48	0.000378
2836.13	0.0006353
2845.77	0.0009594
2855.42	0.001602
2865.07	0.002682
2874.71	0.003122
2884.36	0.002762
2894.01	0.002502
2903.65	0.002952
2913.3	0.003712
2922.95	0.005382
2932.59	0.006352
2942.24	0.005362
2951.89	0.003742
2961.53	0.002902
2971.18	0.002642
2980.83	0.003092
2990.47	0.002932
3000.12	0.001852
3009.77	0.0011759
3019.41	0.000903
3029.06	0.0009192
3038.71	0.0010415
3048.35	0.0012338
3058	0.001752
3067.64	0.001582
3077.29	0.0010659
3086.94	0.0006311
3096.58	0.000486
3106.23	0.0004306
3115.88	0.00032416
3125.52	0.00030713
3135.17	0.0002047
3144.82	0.0002102
3154.46	0.000208
3164.11	0.0004403
3173.76	0.0002098
3183.4	0.0004386
3193.05	0.00031998
3202.7	0.00032586
3212.34	0.0003743
3221.99	0.000228
3231.64	0.0004785
3241.28	0.00034208
3250.93	0.0003757
3260.58	0.00033799
3270.22	0.00043
3279.87	0.0003856
3289.52	0.0005441
3299.16	0.0006402
3308.81	0.0006207
3318.45	0.0005832
3328.1	0.0006459
3337.75	0.000624
3347.39	0.0005081
3357.04	0.0006415
3366.69	0.0007983
3376.33	0.0006333
3385.98	0.0007406
3395.63	0.0006811
3405.27	0.0006765
3414.92	0.0006111
3424.57	0.0008699
3434.21	0.0008008
3443.86	0.0008064
3453.51	0.0007198
3463.15	0.0007646
3472.8	0.0006503
3482.45	0.0008712
3492.09	0.0007123
3501.74	0.0005933
3511.39	0.0006377
3521.03	0.000603
3530.68	0.0007974
3540.33	0.0007107
3549.97	0.000647
3559.62	0.0006801
3569.26	0.0006578
3578.91	0.0006286
3588.56	0.0008523
3598.2	0.0007419
3607.85	0.0009199
3617.5	0.0012032
3627.14	0.002062
3636.79	0.004792
3646.44	0.009452
3656.08	0.009552
3665.73	0.004772
3675.38	0.001542
3685.02	0.0009576
3694.67	0.0009392
3704.32	0.0006721
3713.96	0.0005697
3723.61	0.0004013
3733.26	0.0004618
3742.9	0.0005694
3752.55	0.000571
3762.2	0.0005361
3771.84	0.0006035
3781.49	0.0004058
3791.13	0.000542
3800.78	0.0005381
3810.43	0.0006148
3820.07	0.0005687
3829.72	0.0005573
3839.37	0.0006383
3849.01	0.0005418
3858.66	0.0004273
3868.31	0.0005395
3877.95	0.0006353
3887.6	0.000479
3897.25	0.000492
3906.89	0.0005051
3916.54	0.0004218
3926.19	0.0006777
3935.83	0.0006402
3945.48	0.0006335
3955.13	0.0004807
3964.77	0.0005167
3974.42	0.0003985
3984.07	0.0004378
3993.71	0.0004626
