Infrared Spectrum: 2-Phenyl-1-propanol
Formula: C 9 H 12 O
CAS: 1123-85-9
State: gas
Instrument: HP-GC/MS/IRD
Origin: NIST Mass Spectrometry Data Center
1/CM	ABSORBANCE
550	0.005092
562	0.00472
574	0.002382
586	0.000826
598	0.000286
610	0.0001
622	1.2e-05
634	0.000108
646	0.000132
658	0.000606
670	0.001756
682	0.004926
694	0.010408
706	0.008976
718	0.004172
730	0.001722
742	0.002236
754	0.005076
766	0.005988
778	0.002622
790	0.00066
802	0.000178
814	0.000106
826	0.000214
838	0.000768
850	0.001964
862	0.002476
874	0.001438
886	0.00106
898	0.001104
910	0.001438
922	0.001972
934	0.003666
946	0.006092
958	0.005128
970	0.001976
982	0.000712
994	0.000542
1006	0.000706
1018	0.001896
1030	0.003066
1042	0.001858
1054	0.001578
1066	0.00286
1078	0.00405
1090	0.005518
1102	0.00729
1114	0.00656
1126	0.004652
1138	0.004632
1150	0.006558
1162	0.009444
1174	0.009666
1186	0.00598
1198	0.0031
1210	0.002348
1222	0.00276
1234	0.003638
1246	0.005112
1258	0.006096
1270	0.005174
1282	0.004718
1294	0.00508
1306	0.006228
1318	0.006664
1330	0.005356
1342	0.004128
1354	0.004528
1366	0.006176
1378	0.006292
1390	0.004366
1402	0.001934
1414	0.001512
1426	0.001982
1438	0.00339
1450	0.003958
1462	0.003018
1474	0.002166
1486	0.003104
1498	0.003318
1510	0.00111
1522	0.000514
1534	0.000448
1546	0.000304
1558	0.000202
1570	0.00024
1582	0.000474
1594	0.00117
1606	0.001164
1618	0.000392
1630	0.000124
1642	7e-05
1654	0.000132
1666	0.000284
1678	0.000228
1690	0.000114
1702	8e-05
1714	0.000124
1726	0.00018
1738	0.000268
1750	0.000268
1762	0.00017
1774	0.000214
1786	0.000502
1798	0.000706
1810	0.000484
1822	0.000212
1834	9.6e-05
1846	0.000104
1858	0.000266
1870	0.000446
1882	0.000552
1894	0.000392
1906	0.00019
1918	0.0002
1930	0.000376
1942	0.000578
1954	0.000564
1966	0.000282
1978	7.2e-05
1990	3.8e-05
2002	3.6e-05
2014	4.6e-05
2026	1.2e-05
2038	4.8e-05
2050	2.2e-05
2062	3e-05
2074	3.8e-05
2086	3.6e-05
2098	4e-05
2110	3.6e-05
2122	3e-05
2134	2.6e-05
2146	2e-05
2158	5.6e-05
2170	1e-05
2182	3.8e-05
2194	2.2e-05
2206	2.6e-05
2218	4.2e-05
2230	5.4e-05
2242	4.6e-05
2254	4e-05
2266	5.4e-05
2278	7.2e-05
2290	5.2e-05
2302	7.2e-05
2314	0.00012
2326	0.0001
2338	8.6e-05
2350	9.2e-05
2362	7e-05
2374	6.4e-05
2386	6.6e-05
2398	5.2e-05
2410	5e-05
2422	4.2e-05
2434	3.6e-05
2446	4.6e-05
2458	6e-05
2470	4.8e-05
2482	3e-05
2494	3e-05
2506	3.6e-05
2518	3.6e-05
2530	3.8e-05
2542	5.4e-05
2554	4.8e-05
2566	4.4e-05
2578	5e-05
2590	4.2e-05
2602	3.2e-05
2614	7.8e-05
2626	8.4e-05
2638	0.0001
2650	5e-05
2662	2.6e-05
2674	8.8e-05
2686	3.4e-05
2698	4.8e-05
2710	7.4e-05
2722	0.000112
2734	0.000132
2746	0.000128
2758	0.00013
2770	0.000178
2782	0.000152
2794	0.000218
2806	0.00029
2818	0.000366
2830	0.000478
2842	0.000714
2854	0.001158
2866	0.002008
2878	0.002698
2890	0.002916
2902	0.003328
2914	0.00401
2926	0.005384
2938	0.006606
2950	0.005884
2962	0.007556
2974	0.016618
2986	0.018804
2998	0.00857
3010	0.00357
3022	0.003774
3034	0.005266
3046	0.005456
3058	0.006092
3070	0.00796
3082	0.00649
3094	0.004406
3106	0.00272
3118	0.0013
3130	0.000582
3142	0.000396
3154	0.000308
3166	0.00027
3178	0.000264
3190	0.000252
3202	0.000248
3214	0.00027
3226	0.000216
3238	0.000204
3250	0.000196
3262	9.8e-05
3274	0.00012
3286	0.00014
3298	0.000104
3310	2.2e-05
3322	0.000106
3334	0.000116
3346	0.000102
3358	6.4e-05
3370	7.2e-05
3382	0.000116
3394	0.0001
3406	7.4e-05
3418	6.2e-05
3430	9.4e-05
3442	0.000102
3454	8.2e-05
3466	0.000126
3478	9.8e-05
3490	3.8e-05
3502	3.6e-05
3514	6.8e-05
3526	4.6e-05
3538	5e-05
3550	0
3562	3.6e-05
3574	4.2e-05
3586	6.8e-05
3598	0.000202
3610	0.00046
3622	0.001238
3634	0.00247
3646	0.002466
3658	0.001198
3670	0.000424
3682	0.00014
3694	0.0001
3706	6e-06
3718	0
3730	2.4e-05
3742	0
3754	3e-05
3766	6e-05
3778	7.4e-05
3790	4.6e-05
3802	6e-06
3814	0
3826	6e-06
3838	6e-05
