Infrared Spectrum: 1-Cyclohexyl-1-propanone
Formula: C 9 H 16 O
CAS: 1123-86-0
State: gas
Instrument: HP-GC/MS/IRD
Origin: NIST Mass Spectrometry Data Center
1/CM	ABSORBANCE
550	0.0001855
562	0.0002014
574	0.0001908
586	0.0001961
598	0.0001749
610	7.95e-05
622	1.59e-05
634	4.77e-05
646	8.48e-05
658	0.000212
670	0.0003551
682	0.0002862
694	0.000106
706	0.0001325
718	3.71e-05
730	6.89e-05
742	0.0001484
754	0.0001113
766	0.0001643
778	0.0002067
790	0.0003286
802	0.0004664
814	0.0009063
826	0.0010282
838	0.0005406
850	0.0004664
862	0.0006095
874	0.0009275
886	0.001166
898	0.000795
910	0.0006731
922	0.0007261
934	0.0008798
946	0.0018285
958	0.003551
970	0.0043407
982	0.0027401
994	0.0016006
1006	0.0018391
1018	0.0024115
1030	0.0022472
1042	0.0014522
1054	0.001166
1066	0.0010282
1078	0.001166
1090	0.0018126
1102	0.0028726
1114	0.0034821
1126	0.0030793
1138	0.003869
1150	0.0046587
1162	0.0037259
1174	0.0030157
1186	0.0020405
1198	0.0011872
1210	0.000848
1222	0.0011395
1234	0.0015423
1246	0.0014628
1258	0.0012031
1270	0.0010229
1282	0.0012084
1294	0.0018232
1306	0.0020988
1318	0.0026235
1330	0.0036252
1342	0.0040757
1354	0.0034503
1366	0.0035722
1378	0.0030952
1390	0.0020405
1402	0.0015688
1414	0.0017861
1426	0.0022154
1438	0.0035828
1450	0.0062434
1462	0.005724
1474	0.0029839
1486	0.0012614
1498	0.0006996
1510	0.0004717
1522	0.0003445
1534	0.0002862
1546	0.0002385
1558	0.0002597
1570	0.0002173
1582	0.0002279
1594	0.0002385
1606	0.0002809
1618	0.0003286
1630	0.0003869
1642	0.0004346
1654	0.0006307
1666	0.0009911
1678	0.001802
1690	0.0036199
1702	0.0082415
1714	0.0165572
1726	0.0181472
1738	0.0091266
1750	0.0031588
1762	0.0012084
1774	0.0005883
1786	0.0003233
1798	0.0002332
1810	0.0001908
1822	0.0002014
1834	0.0001696
1846	0.0001537
1858	0.0001166
1870	0.0001113
1882	0.0001007
1894	9.01e-05
1906	6.36e-05
1918	5.83e-05
1930	5.83e-05
1942	5.3e-05
1954	4.77e-05
1966	3.71e-05
1978	6.89e-05
1990	6.36e-05
2002	4.24e-05
2014	2.65e-05
2026	4.24e-05
2038	4.77e-05
2050	3.18e-05
2062	2.65e-05
2074	2.65e-05
2086	2.12e-05
2098	3.18e-05
2110	2.65e-05
2122	5.83e-05
2134	5.3e-05
2146	4.24e-05
2158	4.77e-05
2170	6.89e-05
2182	7.42e-05
2194	7.42e-05
2206	5.83e-05
2218	4.77e-05
2230	6.36e-05
2242	4.77e-05
2254	4.77e-05
2266	2.12e-05
2278	3.18e-05
2290	2.65e-05
2302	4.24e-05
2314	5.3e-05
2326	5.83e-05
2338	9.01e-05
2350	7.42e-05
2362	8.48e-05
2374	9.01e-05
2386	9.01e-05
2398	5.83e-05
2410	7.42e-05
2422	6.89e-05
2434	4.24e-05
2446	4.24e-05
2458	4.24e-05
2470	6.36e-05
2482	0.0001007
2494	9.01e-05
2506	7.95e-05
2518	5.83e-05
2530	8.48e-05
2542	8.48e-05
2554	7.42e-05
2566	0.0001113
2578	0.0001272
2590	0.000159
2602	0.0001908
2614	0.0002226
2626	0.0002544
2638	0.0003074
2650	0.0004187
2662	0.0005671
2674	0.0005512
2686	0.0004611
2698	0.0003869
2710	0.0003498
2722	0.0003021
2734	0.0002862
2746	0.0003551
2758	0.0004134
2770	0.0005088
2782	0.0006731
2794	0.0009063
2806	0.001113
2818	0.0014469
2830	0.0020564
2842	0.0040068
2854	0.0110081
2866	0.0168752
2878	0.0121476
2890	0.0093545
2902	0.0112042
2914	0.0174741
2926	0.0332204
2938	0.053
2950	0.038213
2962	0.0143047
2974	0.0086231
2986	0.0074889
2998	0.0045527
3010	0.002438
3022	0.0015105
3034	0.0011448
3046	0.0008798
3058	0.0006201
3070	0.000477
3082	0.000424
3094	0.0003869
3106	0.0003604
3118	0.0003339
3130	0.0002968
3142	0.0002968
3154	0.0003339
3166	0.0002809
3178	0.000212
3190	0.000159
3202	0.0001378
3214	0.0001325
3226	9.54e-05
3238	8.48e-05
3250	3.18e-05
3262	3.71e-05
3274	5.83e-05
3286	5.83e-05
3298	5.83e-05
3310	4.77e-05
3322	0
3334	2.65e-05
3346	4.77e-05
3358	5.83e-05
3370	9.01e-05
3382	0.0001325
3394	0.0001643
3406	0.0002809
3418	0.0003816
3430	0.0003869
3442	0.0003286
3454	0.0002279
3466	0.0001378
3478	6.89e-05
3490	4.24e-05
3502	5.83e-05
3514	2.12e-05
3526	5.3e-06
3538	1.59e-05
3550	2.12e-05
3562	2.65e-05
3574	5.83e-05
3586	5.83e-05
3598	3.18e-05
3610	4.24e-05
3622	3.18e-05
3634	5.83e-05
3646	6.89e-05
3658	2.65e-05
3670	2.65e-05
3682	4.24e-05
3694	5.83e-05
3706	6.89e-05
3718	9.01e-05
3730	7.95e-05
3742	0.0001484
3754	7.95e-05
3766	6.89e-05
3778	0.0001219
3790	5.83e-05
3802	9.01e-05
3814	7.95e-05
3826	8.48e-05
3838	0.0001166
