Infrared Spectrum: 1-Allylcyclohexanol
Formula: C 9 H 16 O
CAS: 1123-34-8
State: gas
Instrument: HP-GC/MS/IRD
Origin: NIST Mass Spectrometry Data Center
1/CM	ABSORBANCE
550	0.000756
562	0.0005985
574	0.0003105
586	0.0001305
598	0.0001215
610	0.000243
622	0.00027
634	0.000144
646	0.000189
658	0.000576
670	0.0008505
682	0.0004815
694	0.0001035
706	4.95e-05
718	0.000207
730	0.000504
742	0.0008865
754	0.0006795
766	0.000315
778	0.000207
790	0.000162
802	0.000144
814	0.0002925
826	0.000666
838	0.001062
850	0.00135
862	0.0015435
874	0.001845
886	0.0017235
898	0.002376
910	0.0052245
922	0.0062235
934	0.003609
946	0.002799
958	0.0042795
970	0.006417
982	0.0062685
994	0.004743
1006	0.003006
1018	0.0017955
1030	0.0024075
1042	0.002988
1054	0.0027855
1066	0.002493
1078	0.002178
1090	0.002061
1102	0.0022545
1114	0.0023355
1126	0.002727
1138	0.0033345
1150	0.003726
1162	0.0034155
1174	0.002754
1186	0.002052
1198	0.001809
1210	0.001908
1222	0.002115
1234	0.002178
1246	0.002502
1258	0.002763
1270	0.0025335
1282	0.002106
1294	0.002043
1306	0.001935
1318	0.001908
1330	0.0019935
1342	0.0022185
1354	0.002358
1366	0.002286
1378	0.00207
1390	0.0015255
1402	0.0012555
1414	0.0014175
1426	0.0021015
1438	0.003555
1450	0.0044325
1462	0.0035145
1474	0.0017145
1486	0.0005625
1498	0.000288
1510	0.0001755
1522	0.0001485
1534	0.0001305
1546	0.0001125
1558	0.0001125
1570	0.000108
1582	0.000144
1594	0.000162
1606	0.000234
1618	0.0005175
1630	0.0014625
1642	0.0018045
1654	0.0006615
1666	0.0001935
1678	7.65e-05
1690	2.7e-05
1702	9e-06
1714	1.8e-05
1726	0
1738	1.8e-05
1750	3.6e-05
1762	1.35e-05
1774	3.15e-05
1786	5.85e-05
1798	6.75e-05
1810	0.000117
1822	0.0003195
1834	0.000585
1846	0.000504
1858	0.0002475
1870	8.55e-05
1882	6.75e-05
1894	4.05e-05
1906	5.4e-05
1918	5.4e-05
1930	4.95e-05
1942	4.05e-05
1954	4.05e-05
1966	3.6e-05
1978	5.85e-05
1990	7.65e-05
2002	7.2e-05
2014	6.3e-05
2026	4.95e-05
2038	4.95e-05
2050	6.75e-05
2062	6.75e-05
2074	3.15e-05
2086	4.5e-05
2098	5.4e-05
2110	5.85e-05
2122	6.3e-05
2134	4.95e-05
2146	6.75e-05
2158	6.75e-05
2170	6.75e-05
2182	6.75e-05
2194	9e-05
2206	9e-05
2218	7.65e-05
2230	8.55e-05
2242	8.55e-05
2254	5.85e-05
2266	7.65e-05
2278	8.1e-05
2290	6.75e-05
2302	4.95e-05
2314	6.3e-05
2326	2.7e-05
2338	3.15e-05
2350	5.85e-05
2362	2.7e-05
2374	5.4e-05
2386	5.4e-05
2398	5.4e-05
2410	8.55e-05
2422	6.3e-05
2434	6.3e-05
2446	7.65e-05
2458	3.15e-05
2470	4.95e-05
2482	7.65e-05
2494	7.65e-05
2506	7.65e-05
2518	9e-05
2530	8.1e-05
2542	8.55e-05
2554	6.75e-05
2566	7.2e-05
2578	7.2e-05
2590	0.0001215
2602	0.0001665
2614	0.0001845
2626	0.0001935
2638	0.000261
2650	0.000342
2662	0.000405
2674	0.0004185
2686	0.0003465
2698	0.00027
2710	0.0002475
2722	0.00027
2734	0.000261
2746	0.000279
2758	0.0003105
2770	0.0004185
2782	0.00054
2794	0.000693
2806	0.0008505
2818	0.0011205
2830	0.001872
2842	0.003942
2854	0.008478
2866	0.0116235
2878	0.009288
2890	0.007164
2902	0.0091125
2914	0.014373
2926	0.028188
2938	0.045
2950	0.0319635
2962	0.00963
2974	0.0034695
2986	0.002916
2998	0.0021555
3010	0.001863
3022	0.001431
3034	0.000882
3046	0.000828
3058	0.0011565
3070	0.00216
3082	0.0035595
3094	0.0023445
3106	0.00054
3118	0.000297
3130	0.000261
3142	0.0002475
3154	0.0001935
3166	0.0001485
3178	7.65e-05
3190	8.55e-05
3202	7.2e-05
3214	0.0001035
3226	9.45e-05
3238	7.65e-05
3250	7.65e-05
3262	9.45e-05
3274	9.45e-05
3286	0.0001125
3298	0.0001125
3310	7.2e-05
3322	6.75e-05
3334	9.45e-05
3346	0.000108
3358	0.0001035
3370	0.000135
3382	0.00018
3394	0.0001305
3406	0.0001395
3418	0.000126
3430	0.000153
3442	0.000126
3454	0.0001035
3466	8.55e-05
3478	0.000144
3490	0.000108
3502	0.0001125
3514	8.1e-05
3526	0.0001305
3538	0.000144
3550	0.0001485
3562	0.0001485
3574	0.000162
3586	0.000324
3598	0.000765
3610	0.0011745
3622	0.0013095
3634	0.001323
3646	0.00099
3658	0.0004815
3670	0.0003015
3682	0.000189
3694	0.0001395
3706	0.0001575
3718	9.9e-05
3730	7.65e-05
3742	9.9e-05
3754	9.45e-05
3766	0.0001305
3778	0.0001125
3790	8.55e-05
3802	0.0001305
3814	0.00018
3826	0.000171
3838	0.000153
