Infrared Spectrum: PHENYL TIN TRICHLORIDE
Formula: C6 H5 Cl3 Sn
CAS: 1124-19-2
State: SOLUTION (11% IN CCl4 FOR 3800-1310, 9% IN CS2 FOR 1310-650, AND 11% IN CCl4 FOR 650-250 CM^-^1)
Class: COBLENTZ III
Instrument: PERKIN-ELMER 521 (GRATING)
Instrument parameters: FILTERS AT 3150, 2500, 2000, 1150, 700, 410. GRATING CHANGES: 2000, 630 CM^-^1
Sampling: TRANSMISSION
Path length: 0.011 CM, 0.010 CM, AND 0.019 CM
Resolution: 2
Origin: DOW CORNING CORP.
1/CM	TRANSMITTANCE
256.647	0.784
265.896	0.79
275.144	0.788
284.393	0.781
293.641	0.77
302.89	0.768
312.139	0.784
321.387	0.827
330.636	0.829
339.884	0.822
349.133	0.784
358.381	0.624
367.63	0.052
376.879	0.008
386.127	0.071
395.376	0.552
404.624	0.486
413.873	0.776
423.122	0.802
432.37	0.68
441.619	0.307
450.867	0.773
460.116	0.824
469.364	0.834
478.613	0.83
487.862	0.825
497.11	0.82
506.359	0.827
515.607	0.83
524.856	0.832
534.105	0.833
543.353	0.83
552.602	0.827
561.85	0.823
571.099	0.828
580.347	0.833
589.596	0.845
598.845	0.859
608.093	0.862
617.342	0.863
626.59	0.879
635.839	0.873
645.088	0.872
654.336	0.862
663.585	0.843
672.833	0.808
682.082	0.71
691.33	0.706
700.579	0.783
709.828	0.784
719.076	0.629
728.325	0.176
737.573	0.734
746.822	0.776
756.071	0.814
765.319	0.83
774.568	0.834
783.816	0.848
793.065	0.857
802.313	0.864
811.562	0.867
820.811	0.865
830.059	0.864
839.308	0.857
848.556	0.857
857.805	0.862
867.054	0.86
876.302	0.864
885.551	0.865
894.799	0.86
904.048	0.847
913.296	0.839
922.545	0.857
931.794	0.855
941.042	0.862
950.291	0.859
959.539	0.855
968.788	0.847
978.037	0.838
987.285	0.83
996.534	0.339
1005.78	0.824
1015.03	0.802
1024.28	0.822
1033.53	0.825
1042.78	0.822
1052.03	0.81
1061.27	0.781
1070.52	0.771
1079.77	0.819
1089.02	0.833
1098.27	0.834
1107.52	0.832
1116.77	0.833
1126.01	0.835
1135.26	0.829
1144.51	0.822
1153.76	0.82
1163.01	0.827
1172.26	0.832
1181.51	0.828
1190.75	0.82
1200	0.842
1209.25	0.849
1218.5	0.852
1227.75	0.843
1237	0.852
1246.25	0.849
1255.49	0.852
1264.74	0.852
1273.99	0.849
1283.24	0.852
1292.49	0.849
1301.74	0.835
1310.99	0.852
1320.23	0.84
1329.48	0.805
1338.73	0.83
1347.98	0.86
1357.23	0.859
1366.48	0.852
1375.73	0.828
1384.97	0.847
1394.22	0.84
1403.47	0.825
1412.72	0.814
1421.97	0.817
1431.22	0.6499
1440.47	0.6302
1449.71	0.808
1458.96	0.817
1468.21	0.834
1477.46	0.766
1486.71	0.833
1495.96	0.855
1505.21	0.854
1514.45	0.847
1523.7	0.84
1532.95	0.834
1542.2	0.829
1551.45	0.828
1560.7	0.825
1569.95	0.803
1579.19	0.793
1588.44	0.835
1597.69	0.838
1606.94	0.837
1616.19	0.837
1625.44	0.832
1634.69	0.829
1643.93	0.809
1653.18	0.837
1662.43	0.848
1671.68	0.845
1680.93	0.849
1690.18	0.85
1699.43	0.854
1708.67	0.858
1717.92	0.863
1727.17	0.867
1736.42	0.872
1745.67	0.868
1754.92	0.855
1764.17	0.857
1773.41	0.864
1782.66	0.869
1791.91	0.87
1801.16	0.864
1810.41	0.832
1819.66	0.863
1828.91	0.863
1838.15	0.864
1847.4	0.87
1856.65	0.87
1865.9	0.867
1875.15	0.858
1884.4	0.829
1893.65	0.862
1902.89	0.844
1912.14	0.864
1921.39	0.868
1930.64	0.867
1939.89	0.864
1949.14	0.857
1958.39	0.83
1967.63	0.859
1976.88	0.848
1986.13	0.854
1995.38	0.87
2004.63	0.872
2013.88	0.868
2023.13	0.868
2032.38	0.869
2041.62	0.869
2050.87	0.868
2060.12	0.864
2069.37	0.863
2078.62	0.8593
2087.87	0.8577
2097.12	0.8615
2106.36	0.863
2115.61	0.863
2124.86	0.8582
2134.11	0.854
2143.36	0.858
2152.61	0.86
2161.86	0.86
2171.1	0.859
2180.35	0.853
2189.6	0.859
2198.85	0.86
2208.1	0.8599
2217.35	0.857
2226.6	0.855
2235.84	0.854
2245.09	0.853
2254.34	0.853
2263.59	0.853
2272.84	0.854
2282.09	0.853
2291.34	0.854
2300.58	0.855
2309.83	0.8513
2319.08	0.842
2328.33	0.839
2337.58	0.839
2346.83	0.8376
2356.08	0.835
2365.32	0.842
2374.57	0.841
2383.82	0.8335
2393.07	0.83
2402.32	0.8294
2411.57	0.829
2420.82	0.8261
2430.06	0.823
2439.31	0.8237
2448.56	0.8223
2457.81	0.82
2467.06	0.819
2476.31	0.819
2485.56	0.819
2494.8	0.822
2504.05	0.823
2513.3	0.824
2522.55	0.824
2531.8	0.824
2541.05	0.822
2550.3	0.818
2559.54	0.813
2568.79	0.805
2578.04	0.8019
2587.29	0.7949
2596.54	0.793
2605.79	0.799
2615.04	0.7942
2624.28	0.799
2633.53	0.7956
2642.78	0.7902
2652.03	0.7965
2661.28	0.7974
2670.53	0.7924
2679.78	0.7856
2689.02	0.778
2698.27	0.775
2707.52	0.7678
2716.77	0.765
2726.02	0.768
2735.27	0.7695
2744.52	0.7735
2753.76	0.775
2763.01	0.775
2772.26	0.774
2781.51	0.7704
2790.76	0.77
2800.01	0.769
2809.26	0.769
2818.5	0.7737
2827.75	0.7797
2837	0.785
2846.25	0.7876
2855.5	0.7888
2864.75	0.791
2874	0.7881
2883.24	0.7841
2892.49	0.7801
2901.74	0.7701
2910.99	0.763
2920.24	0.76
2929.49	0.759
2938.74	0.758
2947.98	0.7529
2957.23	0.755
2966.48	0.753
2975.73	0.749
2984.98	0.7447
2994.23	0.7358
3003.48	0.7392
3012.72	0.743
3021.97	0.7417
3031.22	0.736
3040.47	0.7421
3049.72	0.7012
3058.97	0.6691
3068.22	0.6998
3077.47	0.6837
3086.71	0.7708
3095.96	0.7829
3105.21	0.7935
3114.46	0.798
3123.71	0.8011
3132.96	0.8107
3142.21	0.8052
3151.45	0.8046
3160.7	0.8113
3169.95	0.814
3179.2	0.813
3188.45	0.8106
3197.7	0.807
3206.95	0.8048
3216.19	0.8124
3225.44	0.8188
3234.69	0.823
3243.94	0.827
3253.19	0.8299
3262.44	0.8339
3271.69	0.837
3280.93	0.84
3290.18	0.843
3299.43	0.845
3308.68	0.848
3317.93	0.8491
3327.18	0.852
3336.43	0.853
3345.67	0.854
3354.92	0.855
3364.17	0.855
3373.42	0.855
3382.67	0.855
3391.92	0.855
3401.17	0.855
3410.41	0.855
3419.66	0.855
3428.91	0.855
3438.16	0.855
3447.41	0.855
3456.66	0.855
3465.91	0.855
3475.15	0.855
3484.4	0.855
3493.65	0.855
3502.9	0.857
3512.15	0.8586
3521.4	0.862
3530.65	0.862
3539.89	0.862
3549.14	0.8627
3558.39	0.864
3567.64	0.865
3576.89	0.8685
3586.14	0.877
3595.39	0.8684
3604.63	0.864
3613.88	0.8629
3623.13	0.874
3632.38	0.877
3641.63	0.8729
3650.88	0.883
3660.13	0.877
3669.37	0.879
3678.62	0.89
3687.87	0.8773
3697.12	0.8721
3706.37	0.8822
3715.62	0.8839
3724.87	0.8772
3734.11	0.8888
3743.36	0.8851
3752.61	0.896
3761.86	0.8795
3771.11	0.8837
3780.36	0.882
3789.61	0.8773
