Infrared Spectrum: 4-Ethylcatechol
Formula: C 8 H 10 O 2
CAS: 1124-39-6
State: gas
Origin: EPA-IR VAPOR PHASE LIBRARY
1/CM	ABSORBANCE
549.8	0.00336
559.445	0.00396
569.09	0.0046
578.734	0.00945
588.379	0.01083
598.024	0.00858
607.669	0.00711
617.313	0.00799
626.958	0.00726
636.603	0.00508
646.248	0.00354
655.893	0.00303
665.537	0.00231
675.182	0.00258
684.827	0.0021
694.472	0.00333
704.116	0.00465
713.761	0.00638
723.406	0.00655
733.051	0.00541
742.695	0.00505
752.34	0.00663
761.985	0.01355
771.63	0.02982
781.275	0.03732
790.919	0.03058
800.564	0.02657
810.209	0.02374
819.854	0.01834
829.498	0.01235
839.143	0.01055
848.788	0.01184
858.433	0.01304
868.078	0.01404
877.722	0.01013
887.367	0.00728
897.012	0.00769
906.657	0.01286
916.301	0.02038
925.946	0.01823
935.591	0.0086
945.236	0.00444
954.88	0.00386
964.525	0.00471
974.17	0.00638
983.815	0.00679
993.46	0.00551
1003.1	0.00404
1012.75	0.00414
1022.39	0.00394
1032.04	0.00512
1041.68	0.00682
1051.33	0.01053
1060.97	0.01237
1070.62	0.01134
1080.26	0.01253
1089.91	0.02479
1099.55	0.0527
1109.2	0.0612
1118.84	0.0394
1128.49	0.02021
1138.13	0.02679
1147.78	0.03695
1157.42	0.06299
1167.07	0.08761
1176.71	0.07857
1186.36	0.06499
1196	0.05967
1205.64	0.04635
1215.29	0.03413
1224.93	0.03461
1234.58	0.04938
1244.22	0.07699
1253.87	0.10458
1263.51	0.1099
1273.16	0.1237
1282.8	0.11781
1292.45	0.06652
1302.09	0.04474
1311.74	0.0537
1321.38	0.05385
1331.03	0.03741
1340.67	0.02461
1350.32	0.02096
1359.96	0.01968
1369.61	0.01569
1379.25	0.01039
1388.9	0.00767
1398.54	0.00679
1408.18	0.00784
1417.83	0.01152
1427.47	0.01957
1437.12	0.02859
1446.76	0.0282
1456.41	0.02076
1466.05	0.01724
1475.7	0.01766
1485.34	0.02279
1494.99	0.0356
1504.63	0.06803
1514.28	0.11676
1523.92	0.11174
1533.57	0.05188
1543.21	0.01753
1552.86	0.01004
1562.5	0.00808
1572.15	0.00859
1581.79	0.01215
1591.44	0.02169
1601.08	0.03279
1610.73	0.03212
1620.37	0.01963
1630.01	0.01122
1639.66	0.00602
1649.3	0.00356
1658.95	0.00279
1668.59	0.00266
1678.24	0.00247
1687.88	0.00262
1697.53	0.00255
1707.17	0.00238
1716.82	0.00226
1726.46	0.00236
1736.11	0.00248
1745.75	0.00192
1755.4	0.00142
1765.04	0.00118
1774.69	0.00116
1784.33	0.00143
1793.98	0.00122
1803.62	0.00125
1813.27	0.00162
1822.91	0.00204
1832.55	0.00207
1842.2	0.00206
1851.84	0.00225
1861.49	0.00204
1871.13	0.0017
1880.78	0.00104
1890.42	0.0009776
1900.07	0.0008942
1909.71	0.0009398
1919.36	0.0008382
1929	0.0007815
1938.65	0.0009297
1948.29	0.0008512
1957.94	0.0009775
1967.58	0.0008272
1977.23	0.0008642
1986.87	0.0007846
1996.52	0.0006871
2006.16	0.0008179
2015.81	0.0011
2025.45	0.00141
2035.1	0.00167
2044.74	0.00162
2054.38	0.00155
2064.03	0.0015
2073.67	0.000988
2083.32	0.000856
2092.96	0.0006731
2102.61	0.0006075
2112.25	0.0006034
2121.9	0.0005147
2131.54	0.0006504
2141.19	0.0004056
2150.83	0.0007012
2160.48	0.0006003
2170.12	0.0007536
2179.77	0.0008331
2189.41	0.0008337
2199.06	0.0006313
2208.7	0.0007574
2218.35	0.0007992
2227.99	0.0007881
2237.64	0.000867
2247.28	0.00104
2256.92	0.0009085
2266.57	0.00103
2276.21	0.00116
2285.86	0.00146
2295.5	0.00163
2305.15	0.00163
2314.79	0.00142
2324.44	0.00122
2334.08	0.00132
2343.73	0.00134
2353.37	0.00169
2363.02	0.00168
2372.66	0.00148
2382.31	0.00165
2391.95	0.00183
2401.6	0.0016
2411.24	0.00146
2420.89	0.00142
2430.53	0.00149
2440.18	0.00152
2449.82	0.00161
2459.47	0.00155
2469.11	0.00141
2478.75	0.00137
2488.4	0.00161
2498.04	0.00158
2507.69	0.00177
2517.33	0.00164
2526.98	0.00137
2536.62	0.00163
2546.27	0.00136
2555.91	0.00126
2565.56	0.0011
2575.2	0.00129
2584.85	0.0009911
2594.49	0.0009277
2604.14	0.00116
2613.78	0.00131
2623.43	0.00114
2633.07	0.00139
2642.72	0.0007791
2652.36	0.0005928
2662.01	0.0007455
2671.65	0.0007624
2681.29	0.0009335
2690.94	0.0008902
2700.58	0.00106
2710.23	0.00125
2719.87	0.00146
2729.52	0.00154
2739.16	0.00147
2748.81	0.00141
2758.45	0.00143
2768.1	0.00195
2777.74	0.0018
2787.39	0.00187
2797.03	0.00176
2806.68	0.00228
2816.32	0.0023
2825.97	0.00298
2835.61	0.00424
2845.26	0.00573
2854.9	0.00841
2864.55	0.01286
2874.19	0.01801
2883.84	0.02153
2893.48	0.02062
2903.12	0.01904
2912.77	0.01925
2922.41	0.02098
2932.06	0.03029
2941.7	0.03728
2951.35	0.03424
2960.99	0.0384
2970.64	0.0592
2980.28	0.0499
2989.93	0.02091
2999.57	0.01405
3009.22	0.01313
3018.86	0.0136
3028.51	0.0159
3038.15	0.01824
3047.8	0.0163
3057.44	0.01221
3067.09	0.00807
3076.73	0.00607
3086.38	0.00468
3096.02	0.00311
3105.67	0.00238
3115.31	0.00218
3124.95	0.00215
3134.6	0.00181
3144.24	0.00191
3153.89	0.00151
3163.53	0.00161
3173.18	0.00167
3182.82	0.00114
3192.47	0.00105
3202.11	0.00105
3211.76	0.0009249
3221.4	0.00105
3231.05	0.0008817
3240.69	0.0008076
3250.34	0.0008199
3259.98	0.0008935
3269.63	0.00107
3279.27	0.0008274
3288.92	0.00131
3298.56	0.00112
3308.21	0.0008728
3317.85	0.0007214
3327.49	0.0007296
3337.14	0.000757
3346.78	0.00103
3356.43	0.0005508
3366.07	0.0005459
3375.72	0.0006461
3385.36	0.0005272
3395.01	0.0005209
3404.65	0.00108
3414.3	0.0007184
3423.94	0.00114
3433.59	0.00136
3443.23	0.00145
3452.88	0.00203
3462.52	0.00227
3472.17	0.00194
3481.81	0.00267
3491.46	0.00228
3501.1	0.00236
3510.75	0.00218
3520.39	0.00147
3530.04	0.00174
3539.68	0.00164
3549.32	0.00164
3558.97	0.00241
3568.61	0.00419
3578.26	0.0101
3587.9	0.03321
3597.55	0.07887
3607.19	0.08791
3616.84	0.04526
3626.48	0.0153
3636.13	0.01411
3645.77	0.02281
3655.42	0.03945
3665.06	0.04232
3674.71	0.02734
3684.35	0.00763
3694	0.00256
3703.64	0.00169
3713.29	0.00149
3722.93	0.00163
3732.58	0.00202
3742.22	0.00175
3751.86	0.00162
3761.51	0.00134
3771.15	0.0016
3780.8	0.00111
3790.44	0.00108
3800.09	0.00126
3809.73	0.00124
3819.38	0.00153
3829.02	0.00144
3838.67	0.00177
3848.31	0.00138
3857.96	0.00156
3867.6	0.00111
3877.25	0.00118
3886.89	0.00141
3896.54	0.00145
3906.18	0.00125
3915.83	0.00134
3925.47	0.00108
3935.12	0.00103
3944.76	0.00104
3954.41	0.0009542
3964.05	0.00101
3973.69	0.0008634
3983.34	0.00112
3992.98	0.00103
