Infrared Spectrum: trans-1,2-Cyclobutanedicarboxylic acid
Formula: C6 H8 O4
CAS: 1124-13-6
State: SOLID (SPLIT MULL), FLUOROLUBE FOR 3800-1330 CM^-^1, NUJOL FOR 1330-400 CM^-^1
Melting point: 130 C
Class: COBLENTZ III
Instrument: BECKMAN IR-9 (GRATING)
Instrument parameters: ORDER CHANGES: 670, 1200, 2000 CM^-^1
Sampling: TRANSMISSION
Resolution: 2
Origin: DOW CHEMICAL COMPANY
1/CM	TRANSMITTANCE
3800	0.931
3791	0.9325
3782	0.9345
3773	0.9354
3764	0.9362
3755	0.9371
3746	0.9381
3737	0.9394
3728	0.941
3719	0.9424
3710	0.9436
3701	0.9439
3692	0.9437
3683	0.9432
3674	0.9425
3665	0.9417
3656	0.9413
3647	0.9411
3638	0.9409
3629	0.9405
3620	0.94
3611	0.9395
3602	0.9395
3593	0.9394
3584	0.9392
3575	0.9385
3566	0.938
3557	0.9373
3548	0.9365
3539	0.9355
3530	0.9342
3521	0.9327
3512	0.9308
3503	0.9282
3494	0.9254
3485	0.9218
3476	0.9181
3467	0.9145
3458	0.9109
3449	0.9065
3440	0.9018
3431	0.8966
3422	0.8905
3413	0.8842
3404	0.876
3395	0.8678
3386	0.8582
3377	0.8436
3368	0.8239
3359	0.8035
3350	0.7793
3341	0.7634
3332	0.7526
3323	0.7391
3314	0.7196
3305	0.7001
3296	0.68
3287	0.6581
3278	0.636
3269	0.6142
3260	0.5901
3251	0.5651
3242	0.5406
3233	0.5151
3224	0.4862
3215	0.4645
3206	0.4402
3197	0.4169
3188	0.3923
3179	0.374
3170	0.3575
3161	0.3404
3152	0.3229
3143	0.3019
3134	0.2829
3125	0.2603
3116	0.2446
3107	0.2309
3098	0.2151
3089	0.2042
3080	0.1957
3071	0.1863
3062	0.1801
3053	0.1779
3044	0.1784
3035	0.1806
3026	0.1804
3017	0.1754
3008	0.1498
2999	0.1625
2990	0.1829
2981	0.187
2972	0.1854
2963	0.1773
2954	0.1327
2945	0.1454
2936	0.1598
2927	0.1644
2918	0.1629
2909	0.1586
2900	0.1563
2891	0.1594
2882	0.1634
2873	0.1692
2864	0.1765
2855	0.1852
2846	0.1979
2837	0.2146
2828	0.2376
2819	0.2571
2810	0.276
2801	0.2906
2792	0.3007
2783	0.307
2774	0.312
2765	0.3193
2756	0.3325
2747	0.3356
2738	0.338
2729	0.3391
2720	0.3412
2711	0.3575
2702	0.3705
2693	0.3748
2684	0.3673
2675	0.3462
2666	0.3262
2657	0.3177
2648	0.3182
2639	0.3294
2630	0.3304
2621	0.3324
2612	0.3402
2603	0.3514
2594	0.363
2585	0.3692
2576	0.3654
2567	0.356
2558	0.3528
2549	0.3549
2540	0.3722
2531	0.3989
2522	0.42
2513	0.4356
2504	0.448
2495	0.4621
2486	0.4773
2477	0.4902
2468	0.5027
2459	0.5228
2450	0.5394
2441	0.5553
2432	0.5712
2423	0.5874
2414	0.6014
2405	0.6137
2396	0.6272
2387	0.6398
2378	0.6496
2369	0.6589
2360	0.6672
2351	0.6753
2342	0.6843
2333	0.6925
2324	0.7003
2315	0.708
2306	0.7144
2297	0.7208
2288	0.7282
2279	0.7362
2270	0.7425
2261	0.7482
2252	0.753
2243	0.7575
2234	0.7639
2225	0.7731
2216	0.7854
2207	0.7969
2198	0.8049
2189	0.8065
2180	0.8071
2171	0.8104
2162	0.8151
2153	0.8212
2144	0.8257
2135	0.8275
2126	0.8286
2117	0.8295
2108	0.8311
2099	0.8334
2090	0.8364
2081	0.8414
2072	0.8421
2063	0.8408
2054	0.8402
2045	0.8436
2036	0.8559
2027	0.8586
2018	0.8623
2009	0.8628
2000	0.8477
1991	0.8528
1982	0.8563
1973	0.8561
1964	0.8546
1955	0.8501
1946	0.834
1937	0.8257
1928	0.8198
1919	0.8146
1910	0.8119
1901	0.811
1892	0.8105
1883	0.8108
1874	0.8111
1865	0.8105
1856	0.8065
1847	0.7991
1838	0.7897
1829	0.7841
1820	0.7799
1811	0.7701
1802	0.7497
1793	0.7238
1784	0.7091
1775	0.6951
1766	0.6718
1757	0.6334
1748	0.5886
1739	0.5254
1730	0.3977
1721	0.1848
1712	0.0131
1703	0.0001
1694	0.0001
1685	0.0084
1676	0.052
1667	0.1993
1658	0.3334
1649	0.4093
1640	0.4707
1631	0.5344
1622	0.6097
1613	0.6706
1604	0.7175
1595	0.7461
1586	0.7661
1577	0.7806
1568	0.7924
1559	0.7994
1550	0.806
1541	0.8151
1532	0.8221
1523	0.8241
1514	0.8196
1505	0.808
1496	0.7943
1487	0.7751
1478	0.7241
1469	0.7021
1460	0.6647
1451	0.6218
1442	0.3325
1433	0.3155
1424	0.1228
1415	0.0914
1406	0.295
1397	0.5157
1388	0.6055
1379	0.6674
1370	0.695
1361	0.6564
1352	0.5981
1343	0.546
1334	0.4854
1325	0.2807
1316	0.1151
1307	0.2014
1298	0.3033
1289	0.335
1280	0.3947
1271	0.3227
1262	0.074
1253	0.0159
1244	0.2634
1235	0.098
1226	0.3487
1217	0.4491
1208	0.3153
1199	0.1835
1190	0.3929
1181	0.54
1172	0.5998
1163	0.6469
1154	0.6807
1145	0.7078
1136	0.7324
1127	0.7485
1118	0.7568
1109	0.7448
1100	0.684
1091	0.729
1082	0.7005
1073	0.6201
1064	0.6525
1055	0.6199
1046	0.6865
1037	0.7208
1028	0.7307
1019	0.7253
1010	0.7057
1001	0.6843
992	0.6284
983	0.5794
974	0.5035
965	0.4541
956	0.3779
947	0.2343
938	0.1429
929	0.1904
920	0.1442
911	0.314
902	0.4896
893	0.5798
884	0.6575
875	0.7047
866	0.7411
857	0.7655
848	0.7793
839	0.7941
830	0.7983
821	0.7901
812	0.7975
803	0.8267
794	0.8525
785	0.8675
776	0.8652
767	0.8692
758	0.8685
749	0.8359
740	0.5038
731	0.6115
722	0.7053
713	0.8425
704	0.8463
695	0.6179
686	0.4573
677	0.8512
668	0.8871
659	0.8915
650	0.8715
641	0.8126
632	0.7885
623	0.8293
614	0.8521
605	0.8449
596	0.7865
587	0.664
578	0.6925
569	0.774
560	0.8271
551	0.8478
542	0.8513
533	0.8542
524	0.8546
515	0.8486
506	0.8318
497	0.8017
488	0.7024
479	0.5791
470	0.7648
461	0.7633
452	0.7047
443	0.5907
434	0.4914
425	0.5586
416	0.571
407	0.5807
