Infrared Spectrum: 2-Chloro-4,5-Dimethylphenol
Formula: C 8 H 9 Cl O
CAS: 1124-04-5
State: gas
Origin: EPA-IR VAPOR PHASE LIBRARY
1/CM	ABSORBANCE
549.9	0.00489
559.547	0.00427
569.193	0.00218795
578.84	0.001757
588.486	0.0023897
598.133	0.0025703
607.779	0.0030269
617.426	0.00514
627.072	0.00538
636.719	0.00392
646.365	0.00364
656.012	0.0027549
665.658	0.00212073
675.305	0.0025089
684.951	0.00381
694.598	0.00517
704.245	0.00483
713.891	0.00413
723.538	0.00789
733.184	0.01048
742.831	0.00633
752.477	0.00542
762.124	0.00834
771.77	0.01901
781.417	0.02362
791.063	0.01392
800.71	0.00768
810.356	0.00474
820.003	0.0029674
829.649	0.00314
839.296	0.00389
848.943	0.00704
858.589	0.01768
868.236	0.03068
877.882	0.01689
887.529	0.00696
897.175	0.00313
906.822	0.0026309
916.468	0.0025677
926.115	0.0024783
935.761	0.0027029
945.408	0.00333
955.054	0.00472
964.701	0.00735
974.347	0.01267
983.994	0.01915
993.64	0.01994
1003.29	0.01835
1012.93	0.01898
1022.58	0.01536
1032.23	0.00882
1041.87	0.00559
1051.52	0.00487
1061.17	0.00435
1070.81	0.00375
1080.46	0.00416
1090.11	0.00461
1099.75	0.00426
1109.4	0.00443
1119.05	0.00812
1128.69	0.01742
1138.34	0.03418
1147.99	0.03974
1157.63	0.02276
1167.28	0.01511
1176.92	0.01787
1186.57	0.02359
1196.22	0.05104
1205.86	0.0685
1215.51	0.05805
1225.16	0.03206
1234.8	0.01698
1244.45	0.01221
1254.1	0.01553
1263.74	0.024
1273.39	0.04606
1283.04	0.06573
1292.68	0.05581
1302.33	0.04572
1311.98	0.0423
1321.62	0.02285
1331.27	0.01066
1340.92	0.00599
1350.56	0.005
1360.21	0.00516
1369.86	0.00674
1379.5	0.0082
1389.15	0.0089
1398.79	0.00803
1408.44	0.00623
1418.09	0.00565
1427.73	0.00647
1437.38	0.00943
1447.03	0.01598
1456.67	0.02679
1466.32	0.03493
1475.97	0.03839
1485.61	0.07026
1495.26	0.10951
1504.91	0.07928
1514.55	0.0287
1524.2	0.01566
1533.85	0.01239
1543.49	0.01344
1553.14	0.01666
1562.79	0.01972
1572.43	0.02138
1582.08	0.02018
1591.73	0.01512
1601.37	0.01153
1611.02	0.01178
1620.67	0.01232
1630.31	0.00932
1639.96	0.00496
1649.6	0.0030813
1659.25	0.0025521
1668.9	0.0024977
1678.54	0.00229
1688.19	0.0022643
1697.84	0.0026106
1707.48	0.00357
1717.13	0.00483
1726.78	0.00475
1736.42	0.00321
1746.07	0.0023049
1755.72	0.0021232
1765.36	0.001933
1775.01	0.001769
1784.66	0.001681
1794.3	0.001658
1803.95	0.0016
1813.6	0.001745
1823.24	0.001812
1832.89	0.001788
1842.54	0.001686
1852.18	0.001712
1861.83	0.001819
1871.47	0.001937
1881.12	0.001933
1890.77	0.001824
1900.41	0.001888
1910.06	0.001874
1919.71	0.001884
1929.35	0.001733
1939	0.001521
1948.65	0.00156
1958.29	0.001535
1967.94	0.001547
1977.59	0.001663
1987.23	0.001659
1996.88	0.001678
2006.53	0.001757
2016.17	0.00183
2025.82	0.001667
2035.47	0.001679
2045.11	0.001758
2054.76	0.001901
2064.41	0.001818
2074.05	0.001701
2083.7	0.001549
2093.35	0.001541
2102.99	0.001439
2112.64	0.001464
2122.28	0.001462
2131.93	0.001544
2141.58	0.00153
2151.22	0.001563
2160.87	0.001676
2170.52	0.001605
2180.16	0.001645
2189.81	0.001612
2199.46	0.001651
2209.1	0.001655
2218.75	0.001832
2228.4	0.00188
2238.04	0.001659
2247.69	0.001528
2257.34	0.001544
2266.98	0.001554
2276.63	0.001686
2286.28	0.001675
2295.92	0.001764
2305.57	0.001756
2315.22	0.001668
2324.86	0.001613
2334.51	0.001622
2344.16	0.001621
2353.8	0.00163
2363.45	0.001611
2373.09	0.00178
2382.74	0.001875
2392.39	0.002053
2402.03	0.00221
2411.68	0.00220531
2421.33	0.0020709
2430.97	0.0020228
2440.62	0.0020422
2450.27	0.00201
2459.91	0.0020515
2469.56	0.00218728
2479.21	0.00217109
2488.85	0.0020378
2498.5	0.001958
2508.15	0.001904
2517.79	0.001766
2527.44	0.00169
2537.09	0.001639
2546.73	0.001615
2556.38	0.00176
2566.03	0.00185
2575.67	0.001863
2585.32	0.001879
2594.96	0.001804
2604.61	0.001657
2614.26	0.001585
2623.9	0.001449
2633.55	0.001414
2643.2	0.001331
2652.84	0.001378
2662.49	0.001362
2672.14	0.001484
2681.78	0.001573
2691.43	0.001637
2701.08	0.001797
2710.72	0.001793
2720.37	0.00181
2730.02	0.00214193
2739.66	0.0026262
2749.31	0.0026268
2758.96	0.0022249
2768.6	0.0023696
2778.25	0.0024281
2787.9	0.0022186
2797.54	0.00220893
2807.19	0.0023545
2816.84	0.0027006
2826.48	0.00314
2836.13	0.00392
2845.77	0.00503
2855.42	0.0072
2865.07	0.01234
2874.71	0.01768
2884.36	0.01775
2894.01	0.01543
2903.65	0.01521
2913.3	0.01683
2922.95	0.02371
2932.59	0.03547
2942.24	0.03529
2951.89	0.02634
2961.53	0.02081
2971.18	0.01977
2980.83	0.01911
2990.47	0.01486
3000.12	0.00932
3009.77	0.00743
3019.41	0.00769
3029.06	0.00979
3038.71	0.0115
3048.35	0.01053
3058	0.00755
3067.64	0.00575
3077.29	0.0046
3086.94	0.00353
3096.58	0.003044
3106.23	0.0025388
3115.88	0.0023115
3125.52	0.001884
3135.17	0.00106
3144.82	0.00081
3154.46	0.00071
3164.11	0.00051
3173.76	0.00061
3183.4	0.00074
3193.05	0.00071
3202.7	0.00041
3212.34	0.00051
3221.99	0.00038
3231.64	0.00031
3241.28	0.0003
3250.93	0.00034
3260.58	0.00039
3270.22	0.00071
3279.87	0.0005
3289.52	0.00038
3299.16	0.00032
3308.81	3e-05
3318.45	9e-05
3328.1	0.0001
3337.75	0.00025
3347.39	0.00038
3357.04	0.00037
3366.69	0.00036
3376.33	0.00016
3385.98	0.00029
3395.63	0.00025
3405.27	0.00011
3414.92	0.0003
3424.57	0.00032
3434.21	0.00021
3443.86	0.00014
3453.51	0.00012
3463.15	0.00011
3472.8	0.00028
3482.45	0.0004
3492.09	0.00039
3501.74	0.00047
3511.39	0.00051
3521.03	0.00052
3530.68	0.00091
3540.33	0.00106
3549.97	0.001771
3559.62	0.00439
3569.26	0.02836
3578.91	0.07894
3588.56	0.06544
3598.2	0.01428
3607.85	0.00404
3617.5	0.0022144
3627.14	0.001693
3636.79	0.0024164
3646.44	0.00401
3656.08	0.00386
3665.73	0.001626
3675.38	0.00097
3685.02	0.00068
3694.67	0.00079
3704.32	0.00076
3713.96	0.00076
3723.61	0.00074
3733.26	0.00082
3742.9	0.00071
3752.55	0.00067
3762.2	0.00085
3771.84	0.00091
3781.49	0.00079
3791.13	0.00097
3800.78	0.00099
3810.43	0.001129
3820.07	0.00101
3829.72	0.00099
3839.37	0.00099
3849.01	0.00103
3858.66	0.00091
3868.31	0.00097
3877.95	0.001285
3887.6	0.001409
3897.25	0.00127
3906.89	0.001118
3916.54	0.001156
3926.19	0.00108
3935.83	0.001207
3945.48	0.001241
3955.13	0.00137
3964.77	0.001246
3974.42	0.00122
3984.07	0.00124
3993.71	0.00104
