Infrared Spectrum: 2-p-MENTHENE (TRANS)
Formula: C10 H18
CAS: 1124-26-1
Class: COBLENTZ
Instrument: Not specified, most likely a prism, grating, or hybrid spectrometer.
Sampling: TRANSMISSION
Resolution: 4
Origin: INTERNATIONAL FLAVORS & FRAGRANCES, INC.
MICROMETERS	TRANSMITTANCE
2.053	0.946
2.08644	0.946
2.11988	0.945
2.15332	0.943
2.18676	0.94
2.2202	0.937
2.25363	0.933
2.28707	0.903
2.32051	0.8827
2.35395	0.8891
2.38739	0.8971
2.42083	0.9041
2.45427	0.909
2.48771	0.9122
2.52115	0.92
2.55459	0.923
2.58803	0.925
2.62146	0.929
2.6549	0.93
2.68834	0.935
2.72178	0.9392
2.75522	0.9398
2.78866	0.9349
2.8221	0.9299
2.85554	0.9251
2.88898	0.928
2.92242	0.93
2.95586	0.93
2.98929	0.9248
3.02273	0.915
3.05617	0.917
3.08961	0.912
3.12305	0.907
3.15649	0.9029
3.18993	0.8949
3.22337	0.8271
3.25681	0.4896
3.29025	0.4353
3.32369	0.1981
3.35712	0.1427
3.39056	0.142
3.424	0.147
3.45744	0.2275
3.49088	0.5579
3.52432	0.7621
3.55776	0.8187
3.5912	0.8484
3.62464	0.8621
3.65808	0.864
3.69152	0.8801
3.72495	0.884
3.75839	0.879
3.79183	0.8801
3.82527	0.8911
3.85871	0.8961
3.89215	0.903
3.92559	0.918
3.95903	0.929
3.99247	0.9375
4.02591	0.937
4.05935	0.936
4.09278	0.9371
4.12622	0.939
4.15966	0.94
4.1931	0.943
4.22654	0.9433
4.25998	0.9461
4.29342	0.95
4.32686	0.954
4.3603	0.956
4.39374	0.957
4.42718	0.958
4.46062	0.9561
4.49405	0.956
4.52749	0.958
4.56093	0.959
4.59437	0.9628
4.62781	0.964
4.66125	0.965
4.69469	0.9651
4.72813	0.967
4.76157	0.965
4.79501	0.968
4.82845	0.969
4.86188	0.97
4.89532	0.97
4.92876	0.97
4.9622	0.968
4.99564	0.968
5.02908	0.967
5.06252	0.967
5.09596	0.965
5.1294	0.9677
5.16284	0.968
5.19628	0.965
5.22971	0.965
5.26315	0.967
5.29659	0.9646
5.33003	0.963
5.36347	0.9643
5.39691	0.965
5.43035	0.963
5.46379	0.962
5.49723	0.962
5.53067	0.961
5.56411	0.958
5.59754	0.957
5.63098	0.958
5.66442	0.9554
5.69786	0.9517
5.7313	0.9467
5.76474	0.9408
5.79818	0.935
5.83162	0.923
5.86506	0.8634
5.8985	0.8791
5.93194	0.905
5.96537	0.911
5.99881	0.9084
6.03225	0.8344
6.06569	0.8661
6.09913	0.9106
6.13257	0.9252
6.16601	0.9311
6.19945	0.934
6.23289	0.935
6.26633	0.937
6.29977	0.937
6.3332	0.94
6.36664	0.937
6.40008	0.9356
6.43352	0.9335
6.46696	0.9287
6.5004	0.924
6.53384	0.9228
6.56728	0.9166
6.60072	0.9061
6.63416	0.8913
6.6676	0.8629
6.70103	0.7752
6.73447	0.4883
6.76791	0.2455
6.80135	0.2186
6.83479	0.287
6.86823	0.4234
6.90167	0.547
6.93511	0.6722
6.96855	0.754
7.00199	0.7965
7.03543	0.8339
7.06886	0.84
7.1023	0.8284
7.13574	0.7705
7.16918	0.4285
7.20262	0.519
7.23606	0.4378
7.2695	0.4442
7.30294	0.5857
7.33638	0.7293
7.36982	0.7918
7.40326	0.8022
7.43669	0.8274
7.47013	0.8071
7.50357	0.8253
7.53701	0.8436
7.57045	0.8023
7.60389	0.7625
7.63733	0.8024
7.67077	0.7958
7.70421	0.7147
7.73765	0.657
7.77109	0.7875
7.80452	0.8505
7.83796	0.8728
7.8714	0.874
7.90484	0.872
7.93828	0.8428
7.97172	0.8235
8.00516	0.8612
8.0386	0.8894
8.07204	0.8866
8.10548	0.8698
8.13892	0.8702
8.17235	0.8873
8.20579	0.895
8.23923	0.8901
8.27267	0.8842
8.30611	0.8441
8.33955	0.8352
8.37299	0.8684
8.40643	0.8804
8.43987	0.887
8.47331	0.8753
8.50675	0.856
8.54019	0.8559
8.57362	0.857
8.60706	0.876
8.6405	0.8858
8.67394	0.886
8.70738	0.8816
8.74082	0.798
8.77426	0.7999
8.8077	0.8084
8.84114	0.8227
8.87458	0.8123
8.90802	0.6752
8.94145	0.605
8.97489	0.7133
9.00833	0.7607
9.04177	0.7977
9.07521	0.8344
9.10865	0.847
9.14209	0.8514
9.17553	0.8438
9.20897	0.8306
9.24241	0.8366
9.27585	0.8443
9.30928	0.8634
9.34272	0.884
9.37616	0.89
9.4096	0.891
9.44304	0.8852
9.47648	0.8643
9.50992	0.8427
9.54336	0.8665
9.5768	0.8846
9.61024	0.8866
9.64368	0.8747
9.67711	0.873
9.71055	0.874
9.74399	0.878
9.77743	0.879
9.81087	0.8781
9.84431	0.876
9.87775	0.8728
9.91119	0.8558
9.94463	0.8232
9.97807	0.7977
10.0115	0.7913
10.0449	0.8036
10.0784	0.805
10.1118	0.7914
10.1453	0.773
10.1787	0.8138
10.2121	0.8573
10.2456	0.8826
10.279	0.8863
10.3125	0.8692
10.3459	0.8312
10.3793	0.7866
10.4128	0.7961
10.4462	0.8232
10.4797	0.8195
10.5131	0.799
10.5465	0.794
10.58	0.8009
10.6134	0.7896
10.6468	0.7568
10.6803	0.8134
10.7137	0.8631
10.7472	0.8895
10.7806	0.893
10.814	0.8832
10.8475	0.8628
10.8809	0.8594
10.9144	0.8747
10.9478	0.887
10.9812	0.8873
11.0147	0.8851
11.0481	0.884
11.0816	0.884
11.115	0.8805
11.1484	0.879
11.1819	0.8794
11.2153	0.884
11.2488	0.8874
11.2822	0.894
11.3156	0.8971
11.3491	0.902
11.3825	0.9058
11.4159	0.9032
11.4494	0.8976
11.4828	0.8813
11.5163	0.8501
11.5497	0.828
11.5831	0.8439
11.6166	0.8753
11.65	0.9063
11.6835	0.9172
11.7169	0.922
11.7503	0.924
11.7838	0.923
11.8172	0.922
11.8507	0.9143
11.8841	0.9029
11.9175	0.8824
11.951	0.8097
11.9844	0.7019
12.0179	0.7372
12.0513	0.7907
12.0847	0.8139
12.1182	0.7931
12.1516	0.5719
12.185	0.545
12.2185	0.5597
12.2519	0.6185
12.2854	0.6855
12.3188	0.7796
12.3522	0.8308
12.3857	0.8545
12.4191	0.8694
12.4526	0.873
12.486	0.873
12.5194	0.874
12.5529	0.8808
12.5863	0.8897
12.6198	0.8992
12.6532	0.9077
12.6866	0.9126
12.7201	0.914
12.7535	0.912
12.787	0.908
12.8204	0.9037
12.8538	0.8979
12.8873	0.8858
12.9207	0.874
12.9541	0.864
12.9876	0.8668
13.021	0.8854
13.0545	0.8917
13.0879	0.895
13.1213	0.897
13.1548	0.897
13.1882	0.896
13.2217	0.8949
13.2551	0.891
13.2885	0.884
13.322	0.876
13.3554	0.8691
13.3889	0.863
13.4223	0.8563
13.4557	0.8481
13.4892	0.8246
13.5226	0.7878
13.556	0.765
13.5895	0.7514
13.6229	0.7341
13.6564	0.664
13.6898	0.5733
13.7232	0.2577
13.7567	0.19
13.7901	0.2695
13.8236	0.4531
13.857	0.5558
13.8904	0.6296
13.9239	0.7059
13.9573	0.7547
13.9908	0.7835
14.0242	0.7942
14.0576	0.803
14.0911	0.809
14.1245	0.814
14.158	0.8158
14.1914	0.817
14.2248	0.816
14.2583	0.817
14.2917	0.818
14.3251	0.817
14.3586	0.8137
14.392	0.8117
14.4255	0.807
14.4589	0.8047
14.4923	0.7971
14.5258	0.7911
14.5592	0.7841
14.5927	0.7672
14.6261	0.7507
14.6595	0.7334
14.693	0.6984
14.7264	0.6678
14.7599	0.6331
14.7933	0.6126
14.8267	0.5896
14.8602	0.5666
14.8936	0.552
14.9271	0.5697
14.9605	0.6528
