Infrared Spectrum: 1(7)-p-MENTHENE
Formula: C10 H18
CAS: 1124-24-9
Class: COBLENTZ
Instrument: Not specified, most likely a prism, grating, or hybrid spectrometer.
Sampling: TRANSMISSION
Resolution: 4
Origin: INTERNATIONAL FLAVORS & FRAGRANCES, INC.
MICROMETERS	TRANSMITTANCE
2.024	0.922
2.05766	0.923
2.09131	0.924
2.12497	0.922
2.15862	0.921
2.19228	0.915
2.22594	0.916
2.25959	0.9078
2.29325	0.8616
2.3269	0.848
2.36056	0.8519
2.39422	0.8589
2.42787	0.8689
2.46153	0.874
2.49518	0.8749
2.52884	0.8829
2.5625	0.8879
2.59615	0.888
2.62981	0.891
2.66346	0.9
2.69712	0.901
2.73078	0.904
2.76443	0.901
2.79809	0.901
2.83174	0.902
2.8654	0.8999
2.89906	0.896
2.93271	0.8949
2.96637	0.89
3.00002	0.8881
3.03368	0.886
3.06734	0.888
3.10099	0.8831
3.13465	0.8701
3.1683	0.858
3.20196	0.8371
3.23562	0.479
3.26927	0.6818
3.30293	0.7009
3.33658	0.1648
3.37024	0.0918
3.4039	0.0791
3.43755	0.0931
3.47121	0.0993
3.50486	0.1324
3.53852	0.5782
3.57218	0.6641
3.60583	0.7243
3.63949	0.7688
3.67314	0.781
3.7068	0.7919
3.74046	0.8099
3.77411	0.809
3.80777	0.809
3.84142	0.811
3.87508	0.827
3.90874	0.8491
3.94239	0.864
3.97605	0.875
4.0097	0.8811
4.04336	0.885
4.07702	0.884
4.11067	0.884
4.14433	0.8839
4.17798	0.881
4.21164	0.8763
4.2453	0.8621
4.27895	0.8629
4.31261	0.8729
4.34626	0.8849
4.37992	0.891
4.41358	0.892
4.44723	0.888
4.48089	0.888
4.51454	0.89
4.5482	0.892
4.58186	0.896
4.61551	0.902
4.64917	0.905
4.68282	0.905
4.71648	0.901
4.75014	0.897
4.78379	0.896
4.81745	0.899
4.8511	0.9
4.88476	0.9
4.91842	0.899
4.95207	0.899
4.98573	0.899
5.01938	0.9
5.05304	0.901
5.0867	0.905
5.12035	0.905
5.15401	0.905
5.18766	0.9042
5.22132	0.9
5.25498	0.896
5.28863	0.896
5.32229	0.897
5.35595	0.897
5.3896	0.896
5.42326	0.897
5.45691	0.897
5.49057	0.895
5.52423	0.8837
5.55788	0.8591
5.59154	0.7835
5.62519	0.7618
5.65885	0.8381
5.69251	0.8457
5.72616	0.8337
5.75982	0.835
5.79347	0.836
5.82713	0.838
5.86079	0.84
5.89444	0.8323
5.9281	0.7955
5.96175	0.7379
5.99541	0.6036
6.02907	0.3191
6.06272	0.4339
6.09638	0.7552
6.13003	0.8013
6.16369	0.8182
6.19735	0.8437
6.231	0.849
6.26466	0.851
6.29831	0.857
6.33197	0.863
6.36563	0.864
6.39928	0.8627
6.43294	0.8578
6.46659	0.8537
6.50025	0.847
6.53391	0.842
6.56756	0.832
6.60122	0.8247
6.63487	0.8089
6.66853	0.7909
6.70219	0.7541
6.73584	0.5674
6.7695	0.3358
6.80315	0.2303
6.83681	0.247
6.87047	0.213
6.90412	0.198
6.93778	0.2753
6.97143	0.3824
7.00509	0.5684
7.03875	0.6515
7.0724	0.6454
7.10606	0.5869
7.13971	0.6114
7.17337	0.5323
7.20703	0.273
7.24068	0.5113
7.27434	0.3513
7.30799	0.3845
7.34165	0.6283
7.37531	0.7016
7.40896	0.7346
7.44262	0.7392
7.47627	0.722
7.50993	0.7172
7.54359	0.707
7.57724	0.6846
7.6109	0.712
7.64455	0.7771
7.67821	0.7976
7.71187	0.795
7.74552	0.7343
7.77918	0.748
7.81283	0.7817
7.84649	0.7847
7.88015	0.7911
7.9138	0.799
7.94746	0.7891
7.98111	0.7578
8.01477	0.6521
8.04843	0.7192
8.08208	0.7755
8.11574	0.798
8.14939	0.809
8.18305	0.81
8.21671	0.7905
8.25036	0.7057
8.28402	0.6914
8.31767	0.5213
8.35133	0.602
8.38499	0.7274
8.41864	0.7642
8.4523	0.745
8.48595	0.6954
8.51961	0.6983
8.55327	0.6996
8.58692	0.7254
8.62058	0.7667
8.65423	0.7823
8.68789	0.7848
8.72155	0.778
8.7552	0.7857
8.78886	0.8008
8.82251	0.8132
8.85617	0.815
8.88983	0.8056
8.92348	0.7454
8.95714	0.6942
8.99079	0.7385
9.02445	0.7839
9.05811	0.7758
9.09176	0.7812
9.12542	0.7995
9.15907	0.815
9.19273	0.819
9.22639	0.8191
9.26004	0.8052
9.2937	0.7204
9.32735	0.6755
9.36101	0.7509
9.39467	0.7966
9.42832	0.813
9.46198	0.815
9.49563	0.8187
9.52929	0.8143
9.56295	0.752
9.5966	0.7556
9.63026	0.7894
9.66391	0.8143
9.69757	0.8203
9.73123	0.8012
9.76488	0.7696
9.79854	0.7503
9.83219	0.7707
9.86585	0.7985
9.89951	0.809
9.93316	0.8018
9.96682	0.7681
10.0005	0.6327
10.0341	0.5876
10.0678	0.5821
10.1014	0.6588
10.1351	0.6952
10.1688	0.6341
10.2024	0.6179
10.2361	0.659
10.2697	0.726
10.3034	0.7675
10.337	0.7935
10.3707	0.8015
10.4043	0.808
10.438	0.8103
10.4717	0.813
10.5053	0.8097
10.539	0.7937
10.5726	0.7726
10.6063	0.7748
10.6399	0.7954
10.6736	0.8113
10.7073	0.815
10.7409	0.8138
10.7746	0.8076
10.8082	0.7945
10.8419	0.7547
10.8755	0.7204
10.9092	0.71
10.9428	0.7129
10.9765	0.6842
11.0102	0.59
11.0438	0.4113
11.0775	0.4138
11.1111	0.4295
11.1448	0.3183
11.1784	0.1438
11.2121	0.0991
11.2457	0.087
11.2794	0.0969
11.3131	0.127
11.3467	0.3133
11.3804	0.4363
11.414	0.5764
11.4477	0.6418
11.4813	0.687
11.515	0.7216
11.5487	0.7377
11.5823	0.7089
11.616	0.6809
11.6496	0.7133
11.6833	0.764
11.7169	0.7993
11.7506	0.8247
11.7842	0.8377
11.8179	0.8467
11.8516	0.8528
11.8852	0.8568
11.9189	0.8601
11.9525	0.8636
11.9862	0.867
12.0198	0.868
12.0535	0.87
12.0871	0.872
12.1208	0.8694
12.1545	0.8645
12.1881	0.8546
12.2218	0.8346
12.2554	0.827
12.2891	0.841
12.3227	0.853
12.3564	0.856
12.3901	0.8525
12.4237	0.8362
12.4574	0.787
12.491	0.7232
12.5247	0.7095
12.5583	0.7582
12.592	0.8066
12.6256	0.8278
12.6593	0.838
12.693	0.8462
12.7266	0.8522
12.7603	0.8583
12.7939	0.8655
12.8276	0.8733
12.8612	0.8803
12.8949	0.8853
12.9285	0.889
12.9622	0.891
12.9959	0.89
13.0295	0.8859
13.0632	0.881
13.0968	0.8757
13.1305	0.867
13.1641	0.8669
13.1978	0.884
13.2315	0.8939
13.2651	0.901
13.2988	0.905
13.3324	0.908
13.3661	0.91
13.3997	0.9128
13.4334	0.9169
13.467	0.921
13.5007	0.923
13.5344	0.922
13.568	0.922
13.6017	0.9211
13.6353	0.922
13.669	0.923
13.7026	0.923
13.7363	0.923
13.7699	0.9238
13.8036	0.926
13.8373	0.926
13.8709	0.9268
13.9046	0.9278
13.9382	0.929
13.9719	0.931
14.0055	0.932
14.0392	0.933
14.0729	0.936
14.1065	0.937
14.1402	0.939
14.1738	0.942
14.2075	0.943
14.2411	0.9445
14.2748	0.948
14.3084	0.95
14.3421	0.9525
14.3758	0.954
14.4094	0.954
14.4431	0.955
14.4767	0.956
14.5104	0.956
14.544	0.958
14.5777	0.958
14.6113	0.958
14.645	0.959
14.6787	0.959
14.7123	0.959
14.746	0.955
14.7796	0.9537
14.8133	0.953
14.8469	0.9527
14.8806	0.952
14.9143	0.95
