Infrared Spectrum: 8-p-MENTHENE (TRANS)
Formula: C10 H18
CAS: 1124-25-0
Class: COBLENTZ
Instrument: Not specified, most likely a prism, grating, or hybrid spectrometer.
Sampling: TRANSMISSION
Resolution: 4
Origin: INTERNATIONAL FLAVORS & FRAGRANCES, INC.
MICROMETERS	TRANSMITTANCE
2.048	0.936
2.08386	0.936
2.11971	0.938
2.15557	0.938
2.19142	0.938
2.22728	0.938
2.26314	0.936
2.29899	0.932
2.33485	0.911
2.3707	0.893
2.40656	0.9062
2.44242	0.912
2.47827	0.914
2.51413	0.918
2.54998	0.927
2.58584	0.93
2.6217	0.935
2.65755	0.936
2.69341	0.936
2.72926	0.9391
2.76512	0.944
2.80097	0.936
2.83683	0.924
2.87269	0.9151
2.90854	0.8999
2.9444	0.8908
2.98025	0.884
3.01611	0.887
3.05197	0.893
3.08782	0.9019
3.12368	0.9089
3.15953	0.9081
3.19539	0.9019
3.23125	0.8289
3.2671	0.7005
3.30296	0.8009
3.33881	0.6427
3.37467	0.2485
3.41053	0.1529
3.44638	0.1924
3.48224	0.2249
3.51809	0.2914
3.55395	0.6618
3.58981	0.7497
3.62566	0.8304
3.66152	0.879
3.69737	0.8681
3.73323	0.8851
3.76909	0.893
3.80494	0.896
3.8408	0.9
3.87665	0.9079
3.91251	0.9183
3.94837	0.9321
3.98422	0.936
4.02008	0.939
4.05593	0.941
4.09179	0.942
4.12764	0.9469
4.1635	0.947
4.19936	0.947
4.23521	0.942
4.27107	0.938
4.30692	0.939
4.34278	0.944
4.37864	0.95
4.41449	0.9509
4.45035	0.9479
4.4862	0.948
4.52206	0.95
4.55792	0.948
4.59377	0.951
4.62963	0.951
4.66548	0.951
4.70134	0.953
4.7372	0.954
4.77305	0.956
4.80891	0.956
4.84476	0.954
4.88062	0.956
4.91648	0.953
4.95233	0.953
4.98819	0.956
5.02404	0.9511
5.0599	0.951
5.09576	0.954
5.13161	0.954
5.16747	0.954
5.20332	0.954
5.23918	0.954
5.27504	0.9529
5.31089	0.951
5.34675	0.954
5.3826	0.954
5.41846	0.9518
5.45431	0.9507
5.49017	0.9448
5.52603	0.9379
5.56188	0.9085
5.59774	0.866
5.63359	0.8853
5.66945	0.9209
5.70531	0.938
5.74116	0.9343
5.77702	0.927
5.81287	0.924
5.84873	0.9184
5.88459	0.903
5.92044	0.8919
5.9563	0.8831
5.99215	0.8516
6.02801	0.34
6.06387	0.4786
6.09972	0.7799
6.13558	0.8269
6.17143	0.8521
6.20729	0.8667
6.24315	0.8799
6.279	0.885
6.31486	0.89
6.35071	0.9028
6.38657	0.9106
6.42243	0.9147
6.45828	0.9175
6.49414	0.918
6.52999	0.917
6.56585	0.9136
6.6017	0.9089
6.63756	0.8972
6.67342	0.8795
6.70927	0.8436
6.74513	0.785
6.78098	0.6627
6.81684	0.334
6.8527	0.2369
6.88855	0.2936
6.92441	0.42
6.96026	0.53
6.99612	0.6464
7.03198	0.716
7.06783	0.7569
7.10369	0.7754
7.13954	0.7828
7.1754	0.7437
7.21126	0.5752
7.24711	0.4587
7.28297	0.5538
7.31882	0.7025
7.35468	0.7815
7.39054	0.7951
7.42639	0.8098
7.46225	0.8255
7.4981	0.8454
7.53396	0.849
7.56982	0.85
7.60567	0.8407
7.64153	0.837
7.67738	0.8402
7.71324	0.846
7.7491	0.8235
7.78495	0.8332
7.82081	0.8434
7.85666	0.8566
7.89252	0.8588
7.92837	0.8458
7.96423	0.8321
8.00009	0.82
8.03594	0.8391
8.0718	0.8608
8.10765	0.8563
8.14351	0.825
8.17937	0.8198
8.21522	0.7775
8.25108	0.7714
8.28693	0.8471
8.32279	0.8691
8.35865	0.8784
8.3945	0.884
8.43036	0.884
8.46621	0.884
8.50207	0.8821
8.53793	0.879
8.57378	0.8709
8.60964	0.8508
8.64549	0.8634
8.68135	0.8767
8.71721	0.8884
8.75306	0.891
8.78892	0.894
8.82477	0.8997
8.86063	0.905
8.89649	0.9069
8.93234	0.906
8.9682	0.9024
9.00405	0.8898
9.03991	0.8681
9.07577	0.8702
9.11162	0.8596
9.14748	0.8503
9.18333	0.8105
9.21919	0.7266
9.25504	0.7566
9.2909	0.8214
9.32676	0.8282
9.36261	0.8049
9.39847	0.7913
9.43432	0.7747
9.47018	0.746
9.50604	0.72
9.54189	0.6977
9.57775	0.6939
9.6136	0.6912
9.64946	0.7054
9.68532	0.734
9.72117	0.755
9.75703	0.7664
9.79288	0.772
9.82874	0.7661
9.8646	0.7735
9.90045	0.7867
9.93631	0.7853
9.97216	0.7687
10.008	0.7547
10.0439	0.757
10.0797	0.7501
10.1156	0.7629
10.1514	0.7891
10.1873	0.8159
10.2232	0.8383
10.259	0.8523
10.2949	0.858
10.3307	0.8529
10.3666	0.8256
10.4024	0.7685
10.4383	0.7771
10.4741	0.8163
10.51	0.7991
10.5459	0.745
10.5817	0.8104
10.6176	0.8563
10.6534	0.871
10.6893	0.873
10.7251	0.876
10.761	0.879
10.7969	0.8757
10.8327	0.8582
10.8686	0.8191
10.9044	0.7769
10.9403	0.8091
10.9761	0.8206
11.012	0.8092
11.0478	0.7862
11.0837	0.7241
11.1196	0.6054
11.1554	0.4537
11.1913	0.2844
11.2271	0.1844
11.263	0.1323
11.2988	0.1505
11.3347	0.2699
11.3705	0.4166
11.4064	0.5324
11.4423	0.6286
11.4781	0.7198
11.514	0.7875
11.5498	0.814
11.5857	0.8374
11.6215	0.8561
11.6574	0.8714
11.6932	0.8809
11.7291	0.8897
11.765	0.896
11.8008	0.9012
11.8367	0.905
11.8725	0.908
11.9084	0.909
11.9442	0.9089
11.9801	0.906
12.016	0.9033
12.0518	0.8915
12.0877	0.896
12.1235	0.899
12.1594	0.897
12.1952	0.8939
12.2311	0.891
12.2669	0.887
12.3028	0.8826
12.3387	0.8798
12.3745	0.882
12.4104	0.8857
12.4462	0.8902
12.4821	0.894
12.5179	0.899
12.5538	0.902
12.5896	0.906
12.6255	0.9116
12.6614	0.915
12.6972	0.92
12.7331	0.9231
12.7689	0.926
12.8048	0.9287
12.8406	0.93
12.8765	0.932
12.9124	0.933
12.9482	0.93
12.9841	0.9268
13.0199	0.924
13.0558	0.924
13.0916	0.9287
13.1275	0.9313
13.1633	0.933
13.1992	0.935
13.2351	0.9364
13.2709	0.939
13.3068	0.941
13.3426	0.941
13.3785	0.9413
13.4143	0.942
13.4502	0.944
13.486	0.944
13.5219	0.942
13.5578	0.942
13.5936	0.942
13.6295	0.9396
13.6653	0.939
13.7012	0.9371
13.737	0.9357
13.7729	0.932
13.8087	0.932
13.8446	0.93
13.8805	0.9329
13.9163	0.932
13.9522	0.932
13.988	0.934
14.0239	0.933
14.0597	0.933
14.0956	0.9302
14.1315	0.93
14.1673	0.93
14.2032	0.927
14.239	0.927
14.2749	0.929
14.3107	0.929
14.3466	0.929
14.3824	0.929
14.4183	0.9261
14.4542	0.926
14.49	0.926
14.5259	0.928
14.5617	0.9253
14.5976	0.92
14.6334	0.9111
14.6693	0.9033
14.7051	0.8894
14.741	0.8496
14.7769	0.7947
14.8127	0.7396
14.8486	0.7649
14.8844	0.8047
14.9203	0.841
14.9561	0.8743
14.992	0.8925
