Infrared Spectrum: 2,5-Dichloro-p-xylene
Formula: C 8 H 8 Cl 2
CAS: 1124-05-6
State: gas
Origin: EPA-IR VAPOR PHASE LIBRARY
1/CM	ABSORBANCE
501.5	0.000632
513.074	0.001081
524.648	0.006372
536.222	0.034082
547.796	0.021212
559.37	0.002112
570.944	0.0004868
582.518	0.0004067
594.092	0.0006771
605.666	0.001602
617.24	0.0008135
628.814	0.0001141
640.388	0.0002042
651.962	0.0002871
663.536	0.0006131
675.11	0.0007607
686.684	0.0005374
698.258	0.0004731
709.832	0.0006381
721.406	0.0010052
732.98	0.001622
744.554	0.006892
756.128	0.019722
767.702	0.015552
779.276	0.007552
790.85	0.004472
802.423	0.001892
813.997	0.002992
825.571	0.005092
837.145	0.003092
848.719	0.002572
860.293	0.009412
871.867	0.029822
883.441	0.022192
895.015	0.005462
906.589	0.001812
918.163	0.002002
929.737	0.002862
941.311	0.002902
952.885	0.003452
964.459	0.006152
976.033	0.011682
987.607	0.017982
999.181	0.013372
1010.76	0.007312
1022.33	0.005532
1033.9	0.006542
1045.48	0.007112
1057.05	0.013992
1068.63	0.087452
1080.2	0.167222
1091.77	0.051972
1103.35	0.011592
1114.92	0.007472
1126.49	0.006562
1138.07	0.004432
1149.64	0.002352
1161.22	0.002172
1172.79	0.005532
1184.36	0.010822
1195.94	0.003912
1207.51	0.002322
1219.09	0.003032
1230.66	0.001932
1242.23	0.002272
1253.81	0.002772
1265.38	0.003002
1276.96	0.002562
1288.53	0.002642
1300.1	0.002162
1311.68	0.002872
1323.25	0.003312
1334.83	0.004732
1346.4	0.016372
1357.97	0.033272
1369.55	0.017642
1381.12	0.013222
1392.7	0.013342
1404.27	0.008012
1415.84	0.007462
1427.42	0.011492
1438.99	0.022372
1450.57	0.035612
1462.14	0.034802
1473.71	0.047452
1485.29	0.089892
1496.86	0.055172
1508.44	0.012982
1520.01	0.008392
1531.58	0.006382
1543.16	0.005652
1554.73	0.005302
1566.31	0.004832
1577.88	0.003732
1589.45	0.002772
1601.03	0.002222
1612.6	0.001872
1624.18	0.001702
1635.75	0.001432
1647.32	0.0011334
1658.9	0.000943
1670.47	0.0008808
1682.05	0.0010273
1693.62	0.0011066
1705.19	0.001172
1716.77	0.002262
1728.34	0.004832
1739.92	0.004172
1751.49	0.001422
1763.06	0.0008446
1774.64	0.0009225
1786.21	0.0008812
1797.79	0.0005535
1809.36	0.0004628
1820.93	0.0004203
1832.51	0.0003264
1844.08	0.0003242
1855.66	0.0002984
1867.23	0.0002838
1878.8	0.0004127
1890.38	0.0005958
1901.95	0.0006623
1913.53	0.0005833
1925.1	0.0004065
1936.67	0.0002885
1948.25	0.0002637
1959.82	0.0002741
1971.4	0.0003212
1982.97	0.0003362
1994.54	0.0002653
2006.12	0.0002502
2017.69	0.00022433
2029.27	0.00013878
2040.84	7e-05
2052.41	8.71e-05
2063.99	0.0001182
2075.56	0.00017596
2087.14	0.00017638
2098.71	0.0001303
2110.28	0.0001055
2121.86	0.00017221
2133.43	0.0002636
2145.01	0.0003973
2156.58	0.0002949
2168.15	0.00019974
2179.73	0.0002687
2191.3	0.0003315
2202.88	0.0002491
2214.45	0.000111
2226.02	0.000101
2237.6	6.26e-05
2249.17	5.31e-05
2260.74	7.08e-05
2272.32	7.62e-05
2283.89	9.26e-05
2295.47	0.000143295
2307.04	0.00018614
2318.61	0.0003223
2330.19	0.0004867
2341.76	0.0003921
2353.34	0.0003327
2364.91	0.0003588
2376.48	0.000401
2388.06	0.000345
2399.63	0.0003978
2411.21	0.0004901
2422.78	0.0005433
2434.35	0.0007322
2445.93	0.0006417
2457.5	0.0004094
2469.08	0.0004436
2480.65	0.000535
2492.22	0.0004018
2503.8	0.0002686
2515.37	0.00020892
2526.95	0.00021733
2538.52	0.00018657
2550.09	0.00019334
2561.67	0.0002818
2573.24	0.0003447
2584.82	0.0002809
2596.39	0.0004735
2607.96	0.0008718
2619.54	0.0009671
2631.11	0.0005361
2642.69	0.0004421
2654.26	0.0003448
2665.83	0.0002997
2677.41	0.0003403
2688.98	0.0003749
2700.56	0.00041
2712.13	0.0005023
2723.7	0.0006447
2735.28	0.0009643
2746.85	0.001712
2758.43	0.001892
2770	0.0008764
2781.57	0.0007433
2793.15	0.0010587
2804.72	0.001342
2816.3	0.001642
2827.87	0.002192
2839.44	0.003092
2851.02	0.005032
2862.59	0.009122
2874.17	0.012652
2885.74	0.011292
2897.31	0.009322
2908.89	0.009492
2920.46	0.015442
2932.04	0.033502
2943.61	0.034232
2955.18	0.019522
2966.76	0.018622
2978.33	0.019002
2989.91	0.018412
3001.48	0.012712
3013.05	0.008022
3024.63	0.006892
3036.2	0.007672
3047.78	0.007862
3059.35	0.006462
3070.92	0.004942
3082.5	0.004302
3094.07	0.004042
3105.65	0.003092
3117.22	0.001912
3128.79	0.001242
3140.37	0.0008486
3151.94	0.0005141
3163.52	0.0004307
3175.09	0.0003384
3186.66	0.0003185
3198.24	0.0002545
3209.81	0.00015903
3221.39	0.0001632
3232.96	0.00017554
3244.53	0.0001215
3256.11	9.29e-05
3267.68	0.000145582
3279.26	0.00015613
3290.83	0.00015664
3302.4	0.00017385
3313.98	0.00017455
3325.55	0.00013263
3337.13	7.58e-05
3348.7	7.49e-05
3360.27	6.05e-05
3371.85	2.5e-05
3383.42	9.01e-05
3395	0.00020539
3406.57	0.00017525
3418.14	6.19e-05
3429.72	9e-06
3441.29	7.98e-05
3452.86	4.1e-05
3464.44	6.34e-05
3476.01	4.87e-05
3487.59	4.91e-05
3499.16	8.41e-05
3510.73	9.74e-05
3522.31	3.6e-05
3533.88	5.32e-05
3545.46	8.54e-05
3557.03	0.000106
3568.6	0.0001058
3580.18	4.21e-05
3591.75	9.68e-05
3603.33	0.00019304
3614.9	3.5e-05
3626.47	7.36e-05
3638.05	3e-06
3649.62	4.88e-05
3661.2	8e-06
3672.77	2.9e-05
3684.34	7.05e-05
3695.92	9e-06
3707.49	8.96e-05
3719.07	5.77e-05
3730.64	0.00019458
3742.21	0.00019197
3753.79	0.0002558
3765.36	0.00020047
3776.94	0.000141625
3788.51	0.00022496
3800.08	0.0002611
3811.66	0.00021213
3823.23	0.00016679
3834.81	0.00014412
3846.38	5.81e-05
3857.95	0.00017101
3869.53	0.00017793
3881.1	0.00024053
3892.68	0.00019725
3904.25	0.00017403
3915.82	0.00019077
3927.4	0.00015903
3938.97	0.00021831
3950.55	0.0003705
3962.12	0.0003504
3973.69	0.0003251
3985.27	0.0002581
3996.84	0.00023354
