Infrared Spectrum: 3-Cyclohexyl-1-propanol
Formula: C 9 H 18 O
CAS: 1124-63-6
State: gas
Instrument: HP-GC/MS/IRD
Origin: NIST Mass Spectrometry Data Center
1/CM	ABSORBANCE
550	0.0001139
562	3.35e-05
574	3.35e-05
586	7.37e-05
598	0.0001742
610	0.000201
622	0.0002211
634	0.000134
646	8.71e-05
658	0.0001407
670	0.0001407
682	0.0001742
694	0.000134
706	0.0001608
718	0.0001474
730	0.0001809
742	0.0002546
754	0.0002144
766	0.0002278
778	0.0001943
790	0.0002546
802	0.0002077
814	0.0003216
826	0.0004355
838	0.0007571
850	0.0007035
862	0.0007236
874	0.0008241
886	0.0011457
898	0.0015745
910	0.0017688
922	0.0018358
934	0.0016951
946	0.0015745
958	0.0016415
970	0.0015544
982	0.0018224
994	0.0027671
1006	0.0040736
1018	0.0056883
1030	0.0075241
1042	0.0088775
1054	0.0096882
1066	0.0070484
1078	0.0039798
1090	0.0025996
1102	0.0019497
1114	0.0014539
1126	0.0012596
1138	0.001139
1150	0.0011323
1162	0.0011189
1174	0.0011926
1186	0.0012596
1198	0.0013802
1210	0.0014204
1222	0.0015209
1234	0.0016281
1246	0.0017487
1258	0.0020234
1270	0.0020837
1282	0.0017554
1294	0.0015142
1306	0.0013936
1318	0.0013735
1330	0.0014941
1342	0.0018291
1354	0.0018961
1366	0.0019631
1378	0.0025125
1390	0.0025996
1402	0.0018961
1414	0.0013132
1426	0.0013534
1438	0.0026666
1450	0.0049379
1462	0.0041339
1474	0.0020502
1486	0.0009849
1498	0.0004824
1510	0.000335
1522	0.0002613
1534	0.0001742
1546	0.0001742
1558	0.000134
1570	0.0001072
1582	8.71e-05
1594	6.03e-05
1606	7.37e-05
1618	4.69e-05
1630	2.68e-05
1642	2.68e-05
1654	4.02e-05
1666	1.34e-05
1678	3.35e-05
1690	1.34e-05
1702	3.35e-05
1714	2.01e-05
1726	2.01e-05
1738	6.7e-06
1750	2.68e-05
1762	2.68e-05
1774	2.01e-05
1786	2.01e-05
1798	2.01e-05
1810	2.01e-05
1822	0
1834	1.34e-05
1846	1.34e-05
1858	6.7e-06
1870	2.01e-05
1882	1.34e-05
1894	2.01e-05
1906	1.34e-05
1918	2.68e-05
1930	6.7e-06
1942	2.01e-05
1954	3.35e-05
1966	2.68e-05
1978	2.68e-05
1990	4.02e-05
2002	5.36e-05
2014	2.68e-05
2026	4.02e-05
2038	8.04e-05
2050	9.38e-05
2062	7.37e-05
2074	6.03e-05
2086	4.69e-05
2098	2.68e-05
2110	2.68e-05
2122	2.01e-05
2134	4.02e-05
2146	2.01e-05
2158	3.35e-05
2170	4.69e-05
2182	4.69e-05
2194	4.69e-05
2206	4.02e-05
2218	5.36e-05
2230	6.03e-05
2242	5.36e-05
2254	2.68e-05
2266	4.69e-05
2278	4.69e-05
2290	4.69e-05
2302	6.03e-05
2314	4.69e-05
2326	6.7e-05
2338	8.71e-05
2350	0.0001072
2362	0.0001139
2374	0.0001072
2386	0.0001139
2398	0.0001072
2410	0.0001072
2422	0.0001139
2434	0.0001273
2446	0.0001139
2458	9.38e-05
2470	0.0001206
2482	0.0001407
2494	0.0001541
2506	0.0001206
2518	0.0001407
2530	0.0001809
2542	0.0001608
2554	0.0001809
2566	0.0002278
2578	0.0002546
2590	0.0003149
2602	0.0003752
2614	0.0004355
2626	0.0004757
2638	0.0005427
2650	0.0007035
2662	0.0008911
2674	0.000871
2686	0.0007772
2698	0.0007437
2710	0.0007504
2722	0.0007437
2734	0.0007705
2746	0.0008576
2758	0.0009246
2770	0.0010787
2782	0.0013534
2794	0.0017085
2806	0.0020033
2818	0.0024723
2830	0.0037386
2842	0.0085157
2854	0.0195573
2866	0.0236912
2878	0.0167433
2890	0.0150013
2902	0.0198923
2914	0.0335938
2926	0.0582766
2938	0.0626517
2950	0.0305386
2962	0.0107468
2974	0.0048039
2986	0.0025259
2998	0.0015678
3010	0.0010921
3022	0.0008442
3034	0.0006097
3046	0.0004623
3058	0.0004288
3070	0.0003484
3082	0.0002881
3094	0.000268
3106	0.0002278
3118	0.0002278
3130	0.0002077
3142	0.0002479
3154	0.0002278
3166	0.0001809
3178	0.0001407
3190	8.04e-05
3202	0.0001206
3214	0.0001005
3226	0.0001072
3238	8.71e-05
3250	0.0001005
3262	6.7e-05
3274	0.0001005
3286	7.37e-05
3298	6.03e-05
3310	4.69e-05
3322	3.35e-05
3334	0.0001005
3346	8.04e-05
3358	0.0001072
3370	0.0001072
3382	9.38e-05
3394	8.71e-05
3406	8.71e-05
3418	0.0001273
3430	0.0001273
3442	8.04e-05
3454	0.0001072
3466	0.0001139
3478	0.0001206
3490	0.0001407
3502	0.0001273
3514	9.38e-05
3526	8.04e-05
3538	8.71e-05
3550	7.37e-05
3562	5.36e-05
3574	8.71e-05
3586	8.71e-05
3598	0.0001407
3610	0.0001876
3622	0.0003082
3634	0.0004757
3646	0.0009849
3658	0.0019028
3670	0.0023986
3682	0.0013869
3694	0.0005896
3706	0.0002881
3718	0.0002613
3730	0.0001943
3742	0.0001675
3754	0.0001809
3766	0.0001675
3778	0.0001407
3790	0.0001675
3802	0.0001273
3814	0.0001541
3826	0.000201
3838	0.0002144
