Infrared Spectrum: PYRIDINE, 4-NITRO-, 1-OXIDE
Formula: C5 H4 N2 O3
CAS: 1124-33-0
State: SOLID (1 mg / 650 mg KBr DISC)
Class: COBLENTZ
Instrument: PERKIN-ELMER 521 (GRATING)
Instrument parameters: FILTERS AT 3150, 2500, 2000, 1150, 700, 410, AND GRATING CHANGES: 2000, 630 CM^-^1
Sampling: TRANSMISSION
Resolution: 2
Origin: SOUTHERN RESEARCH INSTITUTE
1/CM	TRANSMITTANCE
251.415	0.181
261.08	0.2178
270.746	0.2864
280.411	0.3513
290.077	0.4124
299.742	0.484
309.408	0.5301
319.073	0.5508
328.738	0.5968
338.404	0.6427
348.069	0.6775
357.735	0.702
367.4	0.7336
377.066	0.7609
386.731	0.7732
396.396	0.7857
406.062	0.7955
415.727	0.8005
425.393	0.8105
435.058	0.814
444.724	0.8066
454.389	0.7681
464.054	0.7305
473.72	0.8563
483.385	0.86
493.051	0.853
502.716	0.8495
512.382	0.8457
522.047	0.868
531.712	0.8575
541.378	0.8651
551.043	0.867
560.709	0.866
570.374	0.867
580.039	0.866
589.705	0.866
599.37	0.865
609.036	0.864
618.701	0.8592
628.367	0.819
638.032	0.5205
647.697	0.6874
657.363	0.8933
667.028	0.8244
676.694	0.6758
686.359	0.923
696.025	0.9386
705.69	0.944
715.355	0.944
725.021	0.942
734.686	0.9323
744.352	0.6848
754.017	0.9584
763.683	0.965
773.348	0.967
783.013	0.9666
792.679	0.9606
802.344	0.9523
812.01	0.9288
821.675	0.9214
831.341	0.9353
841.006	0.8793
850.671	0.7018
860.337	0.5464
870.002	0.5881
879.668	0.9541
889.333	0.968
898.999	0.966
908.664	0.961
918.329	0.96
927.995	0.9501
937.66	0.9422
947.326	0.9265
956.991	0.9259
966.657	0.9242
976.322	0.919
985.987	0.9072
995.653	0.8893
1005.32	0.8375
1014.98	0.795
1024.65	0.8586
1034.31	0.8894
1043.98	0.8824
1053.65	0.8693
1063.31	0.8573
1072.98	0.8245
1082.64	0.7482
1092.31	0.5778
1101.97	0.6332
1111.64	0.4996
1121.3	0.3806
1130.97	0.931
1140.63	0.9187
1150.3	0.8944
1159.97	0.8398
1169.63	0.6167
1179.3	0.8169
1188.96	0.7986
1198.63	0.881
1208.29	0.8695
1217.96	0.813
1227.62	0.7348
1237.29	0.7288
1246.95	0.5993
1256.62	0.4381
1266.28	0.2714
1275.95	0.3522
1285.62	0.4068
1295.28	0.6977
1304.95	0.9126
1314.61	0.8897
1324.28	0.8172
1333.94	0.5923
1343.61	0.2595
1353.27	0.4421
1362.94	0.5253
1372.6	0.9198
1382.27	0.9446
1391.94	0.9425
1401.6	0.9385
1411.27	0.933
1420.93	0.9227
1430.6	0.8946
1440.26	0.7857
1449.93	0.7783
1459.59	0.6069
1469.26	0.7427
1478.92	0.8088
1488.59	0.7957
1498.25	0.6336
1507.92	0.3941
1517.59	0.3092
1527.25	0.3693
1536.92	0.8443
1546.58	0.9324
1556.25	0.902
1565.91	0.9048
1575.58	0.7402
1585.24	0.552
1594.91	0.6068
1604.57	0.5057
1614.24	0.864
1623.91	0.855
1633.57	0.8766
1643.24	0.8958
1652.9	0.912
1662.57	0.9305
1672.23	0.9484
1681.9	0.954
1691.56	0.9324
1701.23	0.9594
1710.89	0.9676
1720.56	0.9736
1730.23	0.977
1739.89	0.977
1749.56	0.977
1759.22	0.978
1768.89	0.977
1778.55	0.978
1788.22	0.974
1797.88	0.969
1807.55	0.9756
1817.21	0.971
1826.88	0.973
1836.54	0.968
1846.21	0.9693
1855.88	0.971
1865.54	0.965
1875.21	0.96
1884.87	0.96
1894.54	0.956
1904.2	0.951
1913.87	0.945
1923.53	0.942
1933.2	0.939
1942.86	0.9479
1952.53	0.951
1962.2	0.951
1971.86	0.949
1981.53	0.9472
1991.19	0.945
2000.86	0.948
2010.52	0.948
2020.19	0.947
2029.85	0.945
2039.52	0.943
2049.18	0.942
2058.85	0.941
2068.52	0.9383
2078.18	0.935
2087.85	0.932
2097.51	0.9317
2107.18	0.932
2116.84	0.9327
2126.51	0.933
2136.17	0.932
2145.84	0.931
2155.5	0.931
2165.17	0.93
2174.83	0.929
2184.5	0.927
2194.17	0.929
2203.83	0.927
2213.5	0.927
2223.16	0.925
2232.83	0.923
2242.49	0.924
2252.16	0.923
2261.82	0.921
2271.49	0.92
2281.15	0.918
2290.82	0.915
2300.49	0.914
2310.15	0.9133
2319.82	0.912
2329.48	0.909
2339.15	0.9117
2348.81	0.9113
2358.48	0.9083
2368.14	0.908
2377.81	0.9063
2387.47	0.905
2397.14	0.905
2406.81	0.905
2416.47	0.903
2426.14	0.902
2435.8	0.8963
2445.47	0.8833
2455.13	0.8629
2464.8	0.8868
2474.46	0.8984
2484.13	0.9
2493.79	0.896
2503.46	0.893
2513.12	0.89
2522.79	0.8856
2532.46	0.881
2542.12	0.885
2551.79	0.8897
2561.45	0.89
2571.12	0.89
2580.78	0.89
2590.45	0.89
2600.11	0.8893
2609.78	0.888
2619.44	0.887
2629.11	0.885
2638.78	0.885
2648.44	0.885
2658.11	0.8843
2667.77	0.8823
2677.44	0.879
2687.1	0.878
2696.77	0.875
2706.43	0.8723
2716.1	0.875
2725.76	0.875
2735.43	0.872
2745.09	0.868
2754.76	0.867
2764.43	0.8653
2774.09	0.8643
2783.76	0.862
2793.42	0.864
2803.09	0.864
2812.75	0.861
2822.42	0.855
2832.08	0.8523
2841.75	0.8306
2851.41	0.8257
2861.08	0.8357
2870.75	0.837
2880.41	0.836
2890.08	0.835
2899.74	0.8313
2909.41	0.8202
2919.07	0.802
2928.74	0.8067
2938.4	0.8137
2948.07	0.817
2957.73	0.817
2967.4	0.8146
2977.07	0.8073
2986.73	0.8003
2996.4	0.7821
3006.06	0.742
3015.73	0.6646
3025.39	0.659
3035.06	0.742
3044.72	0.7307
3054.39	0.7322
3064.05	0.681
3073.72	0.6416
3083.38	0.6969
3093.05	0.7139
3102.72	0.6666
3112.38	0.5649
3122.05	0.7821
3131.71	0.8177
3141.38	0.82
3151.04	0.818
3160.71	0.8146
3170.37	0.812
3180.04	0.808
3189.7	0.804
3199.37	0.801
3209.04	0.7993
3218.7	0.7893
3228.37	0.7826
3238.03	0.777
3247.7	0.7666
3257.36	0.7606
3267.03	0.753
3276.69	0.7513
3286.36	0.7413
3296.02	0.739
3305.69	0.7343
3315.36	0.7243
3325.02	0.7106
3334.69	0.6983
3344.35	0.6813
3354.02	0.6643
3363.68	0.6476
3373.35	0.6276
3383.01	0.6146
3392.68	0.5966
3402.34	0.5813
3412.01	0.5733
3421.67	0.566
3431.34	0.5623
3441.01	0.563
3450.67	0.5654
3460.34	0.568
3470	0.5747
3479.67	0.58
3489.33	0.5867
3499	0.5927
3508.66	0.603
3518.33	0.6097
3527.99	0.6194
3537.66	0.6387
3547.33	0.6541
3556.99	0.6707
3566.66	0.6807
3576.32	0.6947
3585.99	0.7084
3595.65	0.7204
3605.32	0.7347
3614.98	0.7488
3624.65	0.7634
3634.31	0.7801
3643.98	0.7914
3653.65	0.7987
3663.31	0.8047
3672.98	0.807
3682.64	0.8043
3692.31	0.796
3701.97	0.8074
3711.64	0.813
3721.3	0.812
3730.97	0.8177
3740.63	0.817
3750.3	0.817
3759.96	0.818
3769.63	0.818
3779.3	0.8163
3788.96	0.816
3798.63	0.8146
3808.29	0.814
3817.96	0.814
