Infrared Spectrum: 4(8)-p-MENTHENE
Formula: C10 H18
CAS: 1124-27-2
Class: COBLENTZ
Instrument: Not specified, most likely a prism, grating, or hybrid spectrometer.
Sampling: TRANSMISSION
Resolution: 4
Origin: INTERNATIONAL FLAVORS & FRAGRANCES, INC.
MICROMETERS	TRANSMITTANCE
2.018	0.864
2.05451	0.867
2.09102	0.867
2.12753	0.8669
2.16404	0.8651
2.20055	0.8534
2.23706	0.8127
2.27357	0.8
2.31008	0.8087
2.34659	0.8229
2.3831	0.834
2.41961	0.843
2.45612	0.853
2.49263	0.859
2.52914	0.8639
2.56565	0.868
2.60216	0.8739
2.63867	0.879
2.67518	0.883
2.71169	0.886
2.7482	0.889
2.78471	0.891
2.82122	0.889
2.85773	0.886
2.89424	0.88
2.93075	0.8741
2.96726	0.874
3.00377	0.876
3.04028	0.8772
3.07679	0.8682
3.1133	0.8493
3.14981	0.8258
3.18632	0.7242
3.22283	0.3005
3.25934	0.0821
3.29585	0.0401
3.33236	0.036
3.36887	0.039
3.40538	0.0517
3.44189	0.3082
3.4784	0.5427
3.51491	0.6882
3.55142	0.759
3.58793	0.7411
3.62444	0.7841
3.66094	0.834
3.69745	0.834
3.73396	0.8197
3.77047	0.8619
3.80698	0.868
3.84349	0.8758
3.88	0.88
3.91651	0.885
3.95302	0.8908
3.98953	0.8937
4.02604	0.9
4.06255	0.904
4.09906	0.909
4.13557	0.912
4.17208	0.9169
4.20859	0.9199
4.2451	0.9239
4.28161	0.9288
4.31812	0.93
4.35463	0.933
4.39114	0.936
4.42765	0.938
4.46416	0.941
4.50067	0.944
4.53718	0.945
4.57369	0.948
4.6102	0.95
4.64671	0.953
4.68322	0.9539
4.71973	0.954
4.75624	0.954
4.79275	0.956
4.82926	0.957
4.86577	0.959
4.90228	0.959
4.93879	0.96
4.9753	0.96
5.01181	0.96
5.04832	0.957
5.08483	0.9569
5.12134	0.957
5.15785	0.956
5.19436	0.9531
5.23087	0.95
5.26738	0.953
5.30389	0.954
5.3404	0.956
5.37691	0.957
5.41342	0.954
5.44993	0.954
5.48644	0.954
5.52295	0.954
5.55946	0.9533
5.59597	0.953
5.63248	0.95
5.66899	0.944
5.7055	0.939
5.74201	0.9385
5.77852	0.9371
5.81503	0.9356
5.85154	0.9311
5.88805	0.9266
5.92456	0.9222
5.96107	0.918
5.99758	0.917
6.03409	0.9146
6.0706	0.9117
6.10711	0.9067
6.14362	0.9007
6.18013	0.8901
6.21664	0.8814
6.25315	0.873
6.28966	0.8635
6.32617	0.853
6.36268	0.8468
6.39919	0.8396
6.4357	0.8304
6.47221	0.8094
6.50872	0.7793
6.54523	0.754
6.58174	0.7507
6.61825	0.7322
6.65476	0.6878
6.69127	0.5614
6.72778	0.2145
6.76429	0.126
6.8008	0.1312
6.83731	0.1888
6.87381	0.3183
6.91032	0.4606
6.94683	0.5566
6.98334	0.6203
7.01985	0.6646
7.05636	0.6893
7.09287	0.693
7.12938	0.5676
7.16589	0.217
7.2024	0.3645
7.23891	0.5502
7.27542	0.6674
7.31193	0.7213
7.34844	0.696
7.38495	0.7647
7.42146	0.799
7.45797	0.799
7.49448	0.8098
7.53099	0.823
7.5675	0.8224
7.60401	0.7767
7.64052	0.7823
7.67703	0.8311
7.71354	0.8575
7.75005	0.864
7.78656	0.86
7.82307	0.8318
7.85958	0.7368
7.89609	0.723
7.9326	0.7763
7.96911	0.7976
8.00562	0.4252
8.04213	0.377
8.07864	0.6188
8.11515	0.6983
8.15166	0.7803
8.18817	0.8128
8.22468	0.8344
8.26119	0.8525
8.2977	0.8744
8.33421	0.885
8.37072	0.888
8.40723	0.888
8.44374	0.8879
8.48025	0.8759
8.51676	0.862
8.55327	0.847
8.58978	0.826
8.62629	0.7902
8.6628	0.634
8.69931	0.5303
8.73582	0.5288
8.77233	0.5955
8.80884	0.6946
8.84535	0.7777
8.88186	0.8256
8.91837	0.8426
8.95488	0.8528
8.99139	0.8588
9.0279	0.8525
9.06441	0.8204
9.10092	0.7908
9.13743	0.6624
9.17394	0.5412
9.21045	0.5687
9.24696	0.6357
9.28347	0.7086
9.31998	0.7612
9.35649	0.7916
9.393	0.8025
9.42951	0.8055
9.46602	0.8184
9.50253	0.8299
9.53904	0.835
9.57555	0.8434
9.61206	0.8524
9.64857	0.8584
9.68508	0.862
9.72159	0.8573
9.7581	0.841
9.79461	0.84
9.83112	0.8014
9.86763	0.7111
9.90414	0.7194
9.94065	0.7812
9.97716	0.8148
10.0137	0.8313
10.0502	0.8415
10.0867	0.852
10.1232	0.856
10.1597	0.858
10.1962	0.8498
10.2327	0.8284
10.2692	0.7892
10.3057	0.7206
10.3423	0.6685
10.3788	0.7131
10.4153	0.7167
10.4518	0.6495
10.4883	0.6276
10.5248	0.7107
10.5613	0.7779
10.5978	0.8216
10.6343	0.8378
10.6708	0.8354
10.7074	0.7955
10.7439	0.7806
10.7804	0.813
10.8169	0.8456
10.8534	0.8617
10.8899	0.8707
10.9264	0.8755
10.9629	0.8797
10.9994	0.8901
11.0359	0.889
11.0725	0.8571
11.109	0.7947
11.1455	0.8124
11.182	0.8489
11.2185	0.8608
11.255	0.8808
11.2915	0.8932
11.328	0.8961
11.3645	0.897
11.401	0.9005
11.4376	0.907
11.4741	0.908
11.5106	0.911
11.5471	0.912
11.5836	0.915
11.6201	0.918
11.6566	0.9219
11.6931	0.926
11.7296	0.929
11.7661	0.932
11.8026	0.932
11.8392	0.932
11.8757	0.933
11.9122	0.935
11.9487	0.933
11.9852	0.932
12.0217	0.932
12.0582	0.9288
12.0947	0.924
12.1312	0.9178
12.1677	0.8917
12.2043	0.8339
12.2408	0.8441
12.2773	0.8831
12.3138	0.904
12.3503	0.909
12.3868	0.9041
12.4233	0.8981
12.4598	0.8862
12.4963	0.8821
12.5328	0.8878
12.5694	0.9057
12.6059	0.906
12.6424	0.9001
12.6789	0.8912
12.7154	0.889
12.7519	0.8975
12.7884	0.9086
12.8249	0.9166
12.8614	0.918
12.8979	0.921
12.9345	0.923
12.971	0.923
13.0075	0.9213
13.044	0.915
13.0805	0.914
13.117	0.915
13.1535	0.917
13.19	0.918
13.2265	0.92
13.263	0.92
13.2996	0.921
13.3361	0.921
13.3726	0.92
13.4091	0.918
13.4456	0.918
13.4821	0.918
13.5186	0.917
13.5551	0.9163
13.5916	0.9134
13.6281	0.9117
13.6647	0.911
13.7012	0.907
13.7377	0.906
13.7742	0.9038
13.8107	0.8965
13.8472	0.889
13.8837	0.8876
13.9202	0.8858
13.9567	0.8817
13.9932	0.8675
14.0298	0.8209
14.0663	0.7845
14.1028	0.7853
14.1393	0.8084
14.1758	0.8338
14.2123	0.8499
14.2488	0.856
14.2853	0.859
14.3218	0.861
14.3583	0.862
14.3949	0.862
14.4314	0.861
14.4679	0.858
14.5044	0.855
14.5409	0.853
14.5774	0.852
14.6139	0.8475
14.6504	0.843
14.6869	0.84
14.7234	0.838
14.76	0.8357
14.7965	0.8327
14.833	0.831
14.8695	0.8284
14.906	0.8158
14.9425	0.7948
