Infrared Spectrum: 4-Nitro-1,3,5-trimethylpyrazole
Formula: C 6 H 9 N 3 O 2
CAS: 1125-30-0
State: gas
Origin: EPA-IR VAPOR PHASE LIBRARY
1/CM	ABSORBANCE
549.8	0.00288
559.445	0.00245
569.09	0.0018282
578.734	0.00682
588.379	0.00451
598.024	0.00462
607.669	0.00288
617.313	0.0028
626.958	0.00218
636.603	0.0022
646.248	0.00213
655.893	0.00288
665.537	0.00409
675.182	0.00348
684.827	0.0018556
694.472	0.0016102
704.116	0.0013714
713.761	0.0012213
723.406	0.00111617
733.051	0.0015976
742.695	0.0017456
752.34	0.0033
761.985	0.00533
771.63	0.00413
781.275	0.00317
790.919	0.00398
800.564	0.00768
810.209	0.01857
819.854	0.01854
829.498	0.00865
839.143	0.00451
848.788	0.00563
858.433	0.01046
868.078	0.01186
877.722	0.00635
887.367	0.00253
897.012	0.0020907
906.657	0.0019993
916.301	0.0018582
925.946	0.0018581
935.591	0.0017336
945.236	0.0018352
954.88	0.00215
964.525	0.00282
974.17	0.00379
983.815	0.00581
993.46	0.00676
1003.1	0.00641
1012.75	0.00488
1022.39	0.00421
1032.04	0.00372
1041.68	0.00388
1051.33	0.0041
1060.97	0.0021166
1070.62	0.00257
1080.26	0.00341
1089.91	0.0019408
1099.55	0.00275
1109.2	0.00381
1118.84	0.00467
1128.49	0.00469
1138.13	0.00423
1147.78	0.00323
1157.42	0.00466
1167.07	0.00315
1176.71	0.00272
1186.36	0.00541
1196	0.00974
1205.64	0.00677
1215.29	0.0018492
1224.93	0.00273
1234.58	0.00329
1244.22	0.00445
1253.87	0.00648
1263.51	0.00975
1273.16	0.01171
1282.8	0.00945
1292.45	0.00676
1302.09	0.00587
1311.74	0.00595
1321.38	0.0073
1331.03	0.00941
1340.67	0.01898
1350.32	0.05758
1359.96	0.09904
1369.61	0.08805
1379.25	0.05199
1388.9	0.04623
1398.54	0.03432
1408.18	0.03507
1417.83	0.03759
1427.47	0.03285
1437.12	0.02918
1446.76	0.03875
1456.41	0.05063
1466.05	0.05165
1475.7	0.04173
1485.34	0.04096
1494.99	0.05784
1504.63	0.08161
1514.28	0.08131
1523.92	0.05158
1533.57	0.02907
1543.21	0.0281
1552.86	0.04262
1562.5	0.07745
1572.15	0.08794
1581.79	0.053
1591.44	0.01647
1601.08	0.00818
1610.73	0.00645
1620.37	0.00498
1630.01	0.00388
1639.66	0.00291
1649.3	0.00277
1658.95	0.0023
1668.59	0.00244
1678.24	0.00214
1687.88	0.00215
1697.53	0.0018218
1707.17	0.00222
1716.82	0.0017553
1726.46	0.0018489
1736.11	0.0017387
1745.75	0.001703
1755.4	0.0020751
1765.04	0.00232
1774.69	0.00253
1784.33	0.00221
1793.98	0.0016967
1803.62	0.0017888
1813.27	0.0016287
1822.91	0.0017076
1832.55	0.0015994
1842.2	0.0014104
1851.84	0.0016838
1861.49	0.001446
1871.13	0.0016423
1880.78	0.001515
1890.42	0.0015208
1900.07	0.0014648
1909.71	0.0015085
1919.36	0.0015921
1929	0.0016529
1938.65	0.0015553
1948.29	0.0016886
1957.94	0.0015673
1967.58	0.001682
1977.23	0.0016635
1986.87	0.0013983
1996.52	0.0015528
2006.16	0.001351
2015.81	0.0015488
2025.45	0.0015822
2035.1	0.0016393
2044.74	0.0015844
2054.38	0.001624
2064.03	0.0016299
2073.67	0.0017076
2083.32	0.001471
2092.96	0.001772
2102.61	0.001645
2112.25	0.0014608
2121.9	0.0017797
2131.54	0.0015816
2141.19	0.0014937
2150.83	0.0016639
2160.48	0.0015047
2170.12	0.001576
2179.77	0.0015757
2189.41	0.0015195
2199.06	0.0015457
2208.7	0.0015348
2218.35	0.0018162
2227.99	0.0015984
2237.64	0.0015237
2247.28	0.001738
2256.92	0.0019869
2266.57	0.0016918
2276.21	0.0013861
2285.86	0.0016004
2295.5	0.0015229
2305.15	0.001591
2314.79	0.0018199
2324.44	0.0017475
2334.08	0.0013787
2343.73	0.0018719
2353.37	0.0017966
2363.02	0.0019775
2372.66	0.0018246
2382.31	0.00215
2391.95	0.00229
2401.6	0.0022
2411.24	0.00223
2420.89	0.00223
2430.53	0.0020324
2440.18	0.0018709
2449.82	0.0018303
2459.47	0.0017514
2469.11	0.0020923
2478.75	0.00234
2488.4	0.00228
2498.04	0.00217
2507.69	0.0020628
2517.33	0.0020436
2526.98	0.0019859
2536.62	0.00251
2546.27	0.0018805
2555.91	0.0020899
2565.56	0.0013579
2575.2	0.0019356
2584.85	0.0019326
2594.49	0.00215
2604.14	0.0019962
2613.78	0.0020134
2623.43	0.00239
2633.07	0.00227
2642.72	0.00218
2652.36	0.00225
2662.01	0.0020832
2671.65	0.00244
2681.29	0.0019441
2690.94	0.00251
2700.58	0.00229
2710.23	0.00242
2719.87	0.00237
2729.52	0.0020816
2739.16	0.00256
2748.81	0.0027
2758.45	0.00292
2768.1	0.00252
2777.74	0.00263
2787.39	0.00289
2797.03	0.00307
2806.68	0.00381
2816.32	0.00387
2825.97	0.00416
2835.61	0.00486
2845.26	0.00525
2854.9	0.00612
2864.55	0.00658
2874.19	0.00663
2883.84	0.00717
2893.48	0.00761
2903.12	0.00825
2912.77	0.0085
2922.41	0.00994
2932.06	0.01428
2941.7	0.02058
2951.35	0.02513
2960.99	0.02291
2970.64	0.01571
2980.28	0.01149
2989.93	0.00931
2999.57	0.00844
3009.22	0.00644
3018.86	0.00522
3028.51	0.00439
3038.15	0.00358
3047.8	0.00397
3057.44	0.00367
3067.09	0.00415
3076.73	0.00337
3086.38	0.00356
3096.02	0.00317
3105.67	0.00285
3115.31	0.00282
3124.95	0.00298
3134.6	0.00248
3144.24	0.0020764
3153.89	0.0019501
3163.53	0.0018216
3173.18	0.0016277
3182.82	0.00191
3192.47	0.0014496
3202.11	0.0014281
3211.76	0.0012808
3221.4	0.00115402
3231.05	0.00221
3240.69	0.0015687
3250.34	0.0015607
3259.98	0.0018971
3269.63	0.0015146
3279.27	0.0011209
3288.92	0.0013413
3298.56	0.0020628
3308.21	0.0016892
3317.85	0.0017265
3327.49	0.0015136
3337.14	0.0013773
3346.78	0.0017873
3356.43	0.0012281
3366.07	0.0016544
3375.72	0.0021036
3385.36	0.001331
3395.01	0.0015594
3404.65	0.0014208
3414.3	0.0012501
3423.94	0.0014241
3433.59	0.0013891
3443.23	0.00089
3452.88	0.00075
3462.52	0.0016733
3472.17	0.0014083
3481.81	0.00212
3491.46	0.0012626
3501.1	0.00133
3510.75	0.0013949
3520.39	0.0017454
3530.04	0.001498
3539.68	0.0020655
3549.32	0.0015678
3558.97	0.0018201
3568.61	0.0016265
3578.26	0.001256
3587.9	0.001824
3597.55	0.0020429
3607.19	0.0014778
3616.84	0.00121347
3626.48	0.0024
3636.13	0.0015611
3645.77	0.0014324
3655.42	0.0013087
3665.06	0.0019039
3674.71	0.0010897
3684.35	0.0015303
3694	0.0016754
3703.64	0.000742
3713.29	0.0017222
3722.93	0.00116902
3732.58	0.0018405
3742.22	0.000465
3751.86	0.00117083
3761.51	0.0017625
3771.15	0.0012741
3780.8	0.0015309
3790.44	0.0014033
3800.09	0.000877
3809.73	0.0017248
3819.38	0.0018287
3829.02	0.0013131
3838.67	0.00113371
3848.31	0.0014731
3857.96	0.0013172
3867.6	0.0014002
3877.25	0.0013723
3886.89	0.0015265
3896.54	0.0017697
3906.18	0.00078
3915.83	0.0015868
3925.47	0.000595
3935.12	0.0020243
3944.76	0.0017288
3954.41	0.000773
3964.05	0.0013078
3973.69	0.0016738
3983.34	0.0019073
3992.98	0.00216
