Infrared Spectrum: 5-Aminoisoquinoline
Formula: C 9 H 8 N 2
CAS: 1125-60-6
State: gas
Instrument: HP-GC/MS/IRD
Origin: NIST Mass Spectrometry Data Center
1/CM	ABSORBANCE
550	0.0022365
562	0.0026943
574	0.0026649
586	0.0025746
598	0.0029463
610	0.0031878
622	0.0035658
634	0.0045633
646	0.0051324
658	0.0043869
670	0.0038178
682	0.0037086
694	0.0038577
706	0.0042378
718	0.0062811
730	0.0101367
742	0.0140007
754	0.0076356
766	0.0039753
778	0.004725
790	0.0090468
802	0.0147861
814	0.0123669
826	0.0046809
838	0.0016926
850	0.0013881
862	0.0019488
874	0.0038052
886	0.003381
898	0.001029
910	0.0008442
922	0.0011676
934	0.0008526
946	0.0005145
958	0.0005313
970	0.0004074
982	0.000399
994	0.0003381
1006	0.0002583
1018	0.0006258
1030	0.0019614
1042	0.0024108
1054	0.0009282
1066	0.0001785
1078	0.0003423
1090	0.001365
1102	0.0013293
1114	0.000504
1126	0.0002646
1138	5.88e-05
1150	0
1162	7.35e-05
1174	0.0004221
1186	0.0010521
1198	0.0017178
1210	0.0016947
1222	0.0010038
1234	0.0003654
1246	0.0007203
1258	0.001449
1270	0.003969
1282	0.0077805
1294	0.0060228
1306	0.0021924
1318	0.0026145
1330	0.0038451
1342	0.0029988
1354	0.0026145
1366	0.0074718
1378	0.0138411
1390	0.0103425
1402	0.0024234
1414	0.0012936
1426	0.0037422
1438	0.0081711
1450	0.0074466
1462	0.0032928
1474	0.0034629
1486	0.0088221
1498	0.0108129
1510	0.0051576
1522	0.0017556
1534	0.0012936
1546	0.0014028
1558	0.0026208
1570	0.0077553
1582	0.0116298
1594	0.0090132
1606	0.0101157
1618	0.0182574
1630	0.0203175
1642	0.0116088
1654	0.0041937
1666	0.0018123
1678	0.0010899
1690	0.0008736
1702	0.0008148
1714	0.0007959
1726	0.0010773
1738	0.0010752
1750	0.0008505
1762	0.0007539
1774	0.0005271
1786	0.0003108
1798	0.000252
1810	0.0004242
1822	0.0005229
1834	0.000399
1846	0.0003675
1858	0.0003654
1870	0.0006027
1882	0.0008232
1894	0.0009009
1906	0.0012558
1918	0.0010899
1930	0.00042
1942	0.0001386
1954	0.0001323
1966	0.0001428
1978	0.0001491
1990	0.000105
2002	0.0001407
2014	0.0001386
2026	0.0001302
2038	0.0001344
2050	0.0001638
2062	0.0002268
2074	0.0002373
2086	0.00021
2098	0.0002037
2110	0.0001827
2122	0.0002121
2134	0.0001806
2146	0.0001722
2158	0.0001701
2170	0.000168
2182	0.0001596
2194	0.0001638
2206	0.0001638
2218	0.0002016
2230	0.0001827
2242	0.0001659
2254	0.0001428
2266	0.0001428
2278	0.0001785
2290	0.0001785
2302	0.0001848
2314	0.0001575
2326	0.0001575
2338	0.0001953
2350	0.0002562
2362	0.0002142
2374	0.0001911
2386	0.0002142
2398	0.0002268
2410	0.0002646
2422	0.0002352
2434	0.0001911
2446	0.0001617
2458	0.0001827
2470	0.0002457
2482	0.0002814
2494	0.0002709
2506	0.0002688
2518	0.0002478
2530	0.0002079
2542	0.000231
2554	0.0002163
2566	0.0002037
2578	0.0002016
2590	0.0001701
2602	0.0001722
2614	0.0002016
2626	0.0001974
2638	0.000252
2650	0.0003276
2662	0.0003507
2674	0.0002982
2686	0.0002079
2698	0.0002205
2710	0.0002793
2722	0.000273
2734	0.0002688
2746	0.0002919
2758	0.0003234
2770	0.0002499
2782	0.0001785
2794	0.0002058
2806	0.0002226
2818	0.0002646
2830	0.0002163
2842	0.0002163
2854	0.0002289
2866	0.0003402
2878	0.0003549
2890	0.0003654
2902	0.0003549
2914	0.0004158
2926	0.0006111
2938	0.0010101
2950	0.0011487
2962	0.0009681
2974	0.0012348
2986	0.0022323
2998	0.0031437
3010	0.0043827
3022	0.0063021
3034	0.0070875
3046	0.0076272
3058	0.0102942
3070	0.0110271
3082	0.0070224
3094	0.0026103
3106	0.0008736
3118	0.0005187
3130	0.0004494
3142	0.0004935
3154	0.0004809
3166	0.0003927
3178	0.0003717
3190	0.0003675
3202	0.0003612
3214	0.0004053
3226	0.0004263
3238	0.0004263
3250	0.0003696
3262	0.0003339
3274	0.0002835
3286	0.00021
3298	0.0002373
3310	0.0001827
3322	0.0001638
3334	0.0001386
3346	0.0001638
3358	0.0002289
3370	0.0003129
3382	0.000441
3394	0.0011844
3406	0.002562
3418	0.0025284
3430	0.0010689
3442	0.0004704
3454	0.0004578
3466	0.0006699
3478	0.0015141
3490	0.0029799
3502	0.0026397
3514	0.0010017
3526	0.0004242
3538	0.0002919
3550	0.0002205
3562	0.0002667
3574	0.00021
3586	0.0001764
3598	0.0001848
3610	0.0001659
3622	0.0002058
3634	0.0002037
3646	0.0002142
3658	0.0002184
3670	0.0002037
3682	0.0002058
3694	0.000147
3706	0.000231
3718	0.0002352
3730	0.0002499
3742	0.0002289
3754	0.0002331
3766	0.0002793
3778	0.0003045
3790	0.0002646
3802	0.0002856
3814	0.0002667
3826	0.0002499
3838	0.0002877
