Infrared Spectrum: o-METHOXYBENZYLIDENE METHYL AMINE
Formula: C9 H11 N O
CAS: 1125-90-2
State: LIQUID
Class: COBLENTZ
Instrument: PERKIN-ELMER
Sampling: TRANSMISSION
Path length: CAPILLARY
Resolution: 4
Origin: ABBOTT LABORATORIES - WASHBURN
MICROMETERS	TRANSMITTANCE
2.011	0.883
2.04514	0.885
2.07929	0.883
2.11343	0.885
2.14758	0.885
2.18172	0.886
2.21586	0.89
2.25001	0.893
2.28415	0.892
2.3183	0.892
2.35244	0.89
2.38658	0.8889
2.42073	0.89
2.45487	0.892
2.48901	0.8924
2.52316	0.895
2.5573	0.8973
2.59145	0.898
2.62559	0.9
2.65973	0.902
2.69388	0.8998
2.72802	0.893
2.76217	0.876
2.79631	0.869
2.83045	0.8692
2.8646	0.866
2.89874	0.857
2.93289	0.857
2.96703	0.857
3.00117	0.859
3.03532	0.8595
3.06946	0.8624
3.10361	0.8686
3.13775	0.871
3.17189	0.8721
3.20604	0.858
3.24018	0.8206
3.27432	0.8149
3.30847	0.773
3.34261	0.7043
3.37676	0.5911
3.4109	0.6011
3.44504	0.5954
3.47919	0.693
3.51333	0.7663
3.54748	0.861
3.58162	0.825
3.61576	0.871
3.64991	0.8968
3.68405	0.9068
3.7182	0.914
3.75234	0.916
3.78648	0.916
3.82063	0.916
3.85477	0.912
3.88891	0.914
3.92306	0.9095
3.9572	0.907
3.99135	0.9033
4.02549	0.9031
4.05963	0.907
4.09378	0.907
4.12792	0.905
4.16207	0.9033
4.19621	0.9
4.23035	0.9016
4.2645	0.9
4.29864	0.8998
4.33279	0.897
4.36693	0.897
4.40107	0.893
4.43522	0.8879
4.46936	0.886
4.50351	0.886
4.53765	0.886
4.57179	0.885
4.60594	0.885
4.64008	0.883
4.67422	0.8766
4.70837	0.875
4.74251	0.876
4.77666	0.875
4.8108	0.8685
4.84494	0.863
4.87909	0.8566
4.91323	0.844
4.94738	0.8581
4.98152	0.871
5.01566	0.869
5.04981	0.871
5.08395	0.871
5.1181	0.861
5.15224	0.861
5.18638	0.861
5.22053	0.849
5.25467	0.8545
5.28882	0.864
5.32296	0.861
5.3571	0.8654
5.39125	0.8697
5.42539	0.871
5.45953	0.868
5.49368	0.8584
5.52782	0.859
5.56197	0.861
5.59611	0.8617
5.63025	0.871
5.6644	0.8633
5.69854	0.8563
5.73269	0.857
5.76683	0.8498
5.80097	0.842
5.83512	0.8326
5.86926	0.8223
5.90341	0.7495
5.93755	0.7618
5.97169	0.7904
6.00584	0.7571
6.03998	0.644
6.07413	0.2873
6.10827	0.4767
6.14241	0.6725
6.17656	0.714
6.2107	0.5837
6.24484	0.3136
6.27899	0.6766
6.31313	0.6437
6.34728	0.7603
6.38142	0.8018
6.41556	0.823
6.44971	0.8323
6.48385	0.835
6.518	0.833
6.55214	0.8293
6.58628	0.8134
6.62043	0.8021
6.65457	0.7391
6.68872	0.5502
6.72286	0.3225
6.757	0.5416
6.79115	0.4287
6.82529	0.2731
6.85944	0.3138
6.89358	0.4492
6.92772	0.4943
6.96187	0.3967
6.99601	0.6011
7.03015	0.7237
7.0643	0.7602
7.09844	0.7668
7.13259	0.6751
7.16673	0.6855
7.20087	0.7616
7.23502	0.767
7.26916	0.6968
7.30331	0.4969
7.33745	0.5177
7.37159	0.7334
7.40574	0.8017
7.43988	0.8259
7.47403	0.8337
7.50817	0.837
7.54231	0.8385
7.57646	0.828
7.6106	0.8026
7.64474	0.7427
7.67889	0.5609
7.71303	0.3753
7.74718	0.4921
7.78132	0.3838
7.81546	0.5189
7.84961	0.6421
7.88375	0.6732
7.9179	0.6543
7.95204	0.5327
7.98618	0.2448
8.02033	0.098
8.05447	0.1746
8.08862	0.4065
8.12276	0.5962
8.1569	0.686
8.19105	0.7299
8.22519	0.7611
8.25934	0.78
8.29348	0.7855
8.32762	0.791
8.36177	0.7691
8.39591	0.753
8.43005	0.7637
8.4642	0.7432
8.49834	0.6536
8.53249	0.6422
8.56663	0.7313
8.60077	0.6619
8.63492	0.489
8.66906	0.6203
8.70321	0.7465
8.73735	0.7883
8.77149	0.8088
8.80564	0.821
8.83978	0.8207
8.87393	0.7995
8.90807	0.7703
8.94221	0.761
8.97636	0.7478
9.0105	0.5788
9.04465	0.5499
9.07879	0.7076
9.11293	0.7873
9.14708	0.8167
9.18122	0.8245
9.21536	0.837
9.24951	0.8355
9.28365	0.839
9.3178	0.839
9.35194	0.8384
9.38608	0.8343
9.42023	0.815
9.45437	0.7958
9.48852	0.773
9.52266	0.6805
9.5568	0.4511
9.59095	0.4216
9.62509	0.6109
9.65924	0.6653
9.69338	0.5794
9.72752	0.3815
9.76167	0.3255
9.79581	0.4117
9.82996	0.5535
9.8641	0.6625
9.89824	0.7035
9.93239	0.7317
9.96653	0.7066
10.0007	0.606
10.0348	0.5665
10.069	0.691
10.1031	0.7626
10.1373	0.7884
10.1714	0.8059
10.2055	0.813
10.2397	0.8125
10.2738	0.811
10.308	0.811
10.3421	0.8073
10.3763	0.7858
10.4104	0.7222
10.4445	0.6803
10.4787	0.6951
10.5128	0.7586
10.547	0.7983
10.5811	0.8187
10.6153	0.8281
10.6494	0.833
10.6836	0.8355
10.7177	0.839
10.7518	0.845
10.786	0.849
10.8201	0.849
10.8543	0.8527
10.8884	0.852
10.9226	0.852
10.9567	0.856
10.9908	0.854
11.025	0.861
11.0591	0.859
11.0933	0.861
11.1274	0.861
11.1616	0.859
11.1957	0.859
11.2299	0.861
11.264	0.859
11.2981	0.8597
11.3323	0.8583
11.3664	0.8535
11.4006	0.847
11.4347	0.8364
11.4689	0.837
11.503	0.8363
11.5372	0.8327
11.5713	0.8206
11.6054	0.796
11.6396	0.7481
11.6737	0.7056
11.7079	0.6846
11.742	0.7095
11.7762	0.7555
11.8103	0.7736
11.8444	0.7995
11.8786	0.8115
11.9127	0.82
11.9469	0.8273
11.981	0.827
12.0152	0.8223
12.0493	0.823
12.0835	0.8258
12.1176	0.837
12.1517	0.8393
12.1859	0.84
12.22	0.844
12.2542	0.845
12.2883	0.851
12.3225	0.849
12.3566	0.8465
12.3907	0.8364
12.4249	0.839
12.459	0.839
12.4932	0.835
12.5273	0.833
12.5615	0.8326
12.5956	0.8224
12.6298	0.8069
12.6639	0.7834
12.698	0.7209
12.7322	0.6268
12.7663	0.577
12.8005	0.6393
12.8346	0.7155
12.8688	0.7361
12.9029	0.7404
12.9371	0.7333
12.9712	0.7147
13.0053	0.6697
13.0395	0.6061
13.0736	0.5229
13.1078	0.4318
13.1419	0.3338
13.1761	0.2611
13.2102	0.21
13.2443	0.1779
13.2785	0.1731
13.3126	0.2104
13.3468	0.2857
13.3809	0.3965
13.4151	0.4893
13.4492	0.5715
13.4834	0.6295
13.5175	0.6609
13.5516	0.6889
13.5858	0.7028
13.6199	0.7127
13.6541	0.717
13.6882	0.719
13.7224	0.7314
13.7565	0.7395
13.7906	0.751
13.8248	0.756
13.8589	0.7589
13.8931	0.767
13.9272	0.7677
13.9614	0.767
13.9955	0.7696
14.0297	0.779
14.0638	0.779
14.0979	0.7783
14.1321	0.775
14.1662	0.77
14.2004	0.773
14.2345	0.7735
14.2687	0.7715
14.3028	0.77
14.337	0.768
14.3711	0.767
14.4052	0.767
14.4394	0.761
14.4735	0.758
14.5077	0.756
14.5418	0.756
14.576	0.755
14.6101	0.755
14.6442	0.7465
14.6784	0.744
14.7125	0.744
14.7467	0.741
14.7808	0.738
14.815	0.7354
14.8491	0.7279
14.8833	0.722
14.9174	0.7212
14.9515	0.715
14.9857	0.7147
15.0198	0.715
15.054	0.714
15.0881	0.7013
15.1223	0.693
15.1564	0.69
15.1905	0.686
15.2247	0.683
15.2588	0.678
15.293	0.671
15.3271	0.6666
15.3613	0.6633
15.3954	0.659
15.4296	0.655
15.4637	0.6458
