Infrared Spectrum: 1-BROMO-2,3,4,5-TETRACHLORO BENZENE
Formula: C6 H Br Cl4
CAS: 1125-52-6
State: SOLUTION (10% CCl4 FOR 5000-1330, 10% CS2 FOR 1330-625 CM^-^1)
Class: COBLENTZ
Instrument: Not specified, most likely a prism, grating, or hybrid spectrometer.
Sampling: TRANSMISSION
Path length: 0.012 CM, 0.012 CM
Resolution: 4
Origin: DOW CHEMICAL COMPANY
MICROMETERS	TRANSMITTANCE
2.02	0.898
2.0601	0.898
2.10019	0.895
2.14029	0.898
2.18038	0.897
2.22048	0.898
2.26057	0.897
2.30067	0.901
2.34077	0.895
2.38086	0.9
2.42096	0.9
2.46105	0.901
2.50115	0.9
2.54125	0.901
2.58134	0.903
2.62144	0.9
2.66153	0.905
2.70163	0.897
2.74172	0.878
2.78182	0.875
2.82192	0.867
2.86201	0.867
2.90211	0.865
2.9422	0.865
2.9823	0.863
3.0224	0.86
3.06249	0.86
3.10259	0.858
3.14268	0.855
3.18278	0.83
3.22287	0.84
3.26297	0.862
3.30307	0.872
3.34316	0.872
3.38326	0.873
3.42335	0.877
3.46345	0.875
3.50355	0.878
3.54364	0.878
3.58374	0.875
3.62383	0.878
3.66393	0.88
3.70402	0.888
3.74412	0.89
3.78422	0.887
3.82431	0.888
3.86441	0.887
3.9045	0.888
3.9446	0.892
3.98469	0.888
4.02479	0.888
4.06489	0.888
4.10498	0.887
4.14508	0.883
4.18517	0.88
4.22527	0.877
4.26537	0.873
4.30546	0.868
4.34556	0.87
4.38565	0.887
4.42575	0.887
4.46584	0.892
4.50594	0.888
4.54604	0.888
4.58613	0.892
4.62623	0.892
4.66632	0.892
4.70642	0.893
4.74652	0.898
4.78661	0.893
4.82671	0.897
4.8668	0.887
4.9069	0.89
4.94699	0.888
4.98709	0.885
5.02719	0.89
5.06728	0.89
5.10738	0.89
5.14747	0.893
5.18757	0.892
5.22767	0.893
5.26776	0.888
5.30786	0.888
5.34795	0.885
5.38805	0.887
5.42814	0.885
5.46824	0.887
5.50834	0.887
5.54843	0.89
5.58853	0.893
5.62862	0.892
5.66872	0.893
5.70882	0.883
5.74891	0.862
5.78901	0.858
5.8291	0.882
5.8692	0.887
5.90929	0.887
5.94939	0.882
5.98949	0.875
6.02958	0.872
6.06968	0.87
6.10977	0.857
6.14987	0.832
6.18996	0.79
6.23006	0.704
6.27016	0.622
6.31025	0.591
6.35035	0.541
6.39044	0.45
6.43054	0.343
6.47064	0.425
6.51073	0.455
6.55083	0.504
6.59092	0.656
6.63102	0.757
6.67111	0.8
6.71121	0.837
6.75131	0.85
6.7914	0.857
6.8315	0.85
6.87159	0.84
6.91169	0.825
6.95179	0.8
6.99188	0.755
7.03198	0.681
7.07207	0.566
7.11217	0.322
7.15226	0.096
7.19236	0.36
7.23246	0.725
7.27255	0.785
7.31265	0.799
7.35274	0.787
7.39284	0.724
7.43294	0.586
7.47303	0.235
7.51313	0.154
7.55322	0.604
7.59332	0.769
7.63341	0.855
7.67351	0.862
7.71361	0.83
7.7537	0.865
7.7938	0.887
7.83389	0.893
7.87399	0.898
7.91408	0.897
7.95418	0.897
7.99428	0.898
8.03437	0.882
8.07447	0.88
8.11456	0.858
8.15466	0.802
8.19476	0.822
8.23485	0.847
8.27495	0.8
8.31504	0.792
8.35514	0.833
8.39523	0.832
8.43533	0.81
8.47543	0.704
8.51552	0.485
8.55562	0.498
8.59571	0.845
8.63581	0.888
8.67591	0.898
8.716	0.905
8.7561	0.906
8.79619	0.91
8.83629	0.91
8.87638	0.9
8.91648	0.9
8.95658	0.9
8.99667	0.89
9.03677	0.898
9.07686	0.905
9.11696	0.903
9.15706	0.892
9.19715	0.837
9.23725	0.744
9.27734	0.551
9.31744	0.755
9.35753	0.868
9.39763	0.892
9.43773	0.901
9.47782	0.906
9.51792	0.905
9.55801	0.901
9.59811	0.898
9.6382	0.901
9.6783	0.908
9.7184	0.911
9.75849	0.913
9.79859	0.918
9.83868	0.913
9.87878	0.916
9.91888	0.92
9.95897	0.921
9.99907	0.92
10.0392	0.918
10.0793	0.92
10.1194	0.918
10.1595	0.918
10.1995	0.918
10.2396	0.92
10.2797	0.916
10.3198	0.913
10.3599	0.916
10.4	0.918
10.4401	0.918
10.4802	0.921
10.5203	0.921
10.5604	0.921
10.6005	0.921
10.6406	0.913
10.6807	0.911
10.7208	0.906
10.7609	0.895
10.801	0.888
10.8411	0.892
10.8812	0.9
10.9213	0.903
10.9614	0.9
11.0015	0.901
11.0416	0.898
11.0817	0.898
11.1218	0.89
11.1618	0.882
11.2019	0.877
11.242	0.867
11.2821	0.847
11.3222	0.825
11.3623	0.802
11.4024	0.782
11.4425	0.749
11.4826	0.704
11.5227	0.589
11.5628	0.397
11.6029	0.322
11.643	0.496
11.6831	0.598
11.7232	0.656
11.7633	0.705
11.8034	0.755
11.8435	0.79
11.8836	0.828
11.9237	0.842
11.9638	0.85
12.0039	0.862
12.044	0.867
12.084	0.858
12.1241	0.808
12.1642	0.774
12.2043	0.77
12.2444	0.747
12.2845	0.681
12.3246	0.536
12.3647	0.428
12.4048	0.398
12.4449	0.47
12.485	0.609
12.5251	0.729
12.5652	0.779
12.6053	0.808
12.6454	0.827
12.6855	0.83
12.7256	0.837
12.7657	0.845
12.8058	0.852
12.8459	0.855
12.886	0.86
12.9261	0.857
12.9662	0.852
13.0063	0.852
13.0463	0.852
13.0864	0.848
13.1265	0.845
13.1666	0.857
13.2067	0.85
13.2468	0.847
13.2869	0.84
13.327	0.837
13.3671	0.833
13.4072	0.828
13.4473	0.825
13.4874	0.817
13.5275	0.812
13.5676	0.813
13.6077	0.812
13.6478	0.803
13.6879	0.8
13.728	0.79
13.7681	0.789
13.8082	0.787
13.8483	0.779
13.8884	0.775
13.9285	0.769
13.9686	0.762
14.0086	0.754
14.0487	0.747
14.0888	0.74
14.1289	0.734
14.169	0.72
14.2091	0.704
14.2492	0.682
14.2893	0.662
14.3294	0.664
14.3695	0.669
14.4096	0.676
14.4497	0.671
14.4898	0.661
14.5299	0.646
14.57	0.626
14.6101	0.599
14.6502	0.574
14.6903	0.566
14.7304	0.566
14.7705	0.569
14.8106	0.573
14.8507	0.571
14.8908	0.568
14.9309	0.553
14.9709	0.538
15.011	0.496
15.0511	0.446
15.0912	0.377
15.1313	0.292
15.1714	0.205
15.2115	0.157
15.2516	0.149
15.2917	0.194
15.3318	0.262
15.3719	0.318
15.412	0.367
15.4521	0.401
15.4922	0.418
15.5323	0.425
15.5724	0.426
15.6125	0.428
15.6526	0.428
15.6927	0.428
15.7328	0.423
15.7729	0.421
15.813	0.416
15.8531	0.406
15.8932	0.4
