Infrared Spectrum: Benzaldehyde dimethylacetal
Formula: C 9 H 12 O 2
CAS: 1125-88-8
State: gas
Origin: EPA-IR VAPOR PHASE LIBRARY
1/CM	ABSORBANCE
551.7	0.00451
563.274	0.00372
574.848	0.00279
586.421	0.00281
597.995	0.00476
609.569	0.00622
621.143	0.00403
632.717	0.004
644.291	0.0077
655.864	0.01044
667.438	0.01414
679.012	0.02306
690.586	0.049
702.16	0.06145
713.734	0.03279
725.307	0.02468
736.881	0.04789
748.455	0.05917
760.029	0.03462
771.603	0.0153
783.177	0.00823
794.75	0.00527
806.324	0.0039
817.898	0.0036
829.472	0.00447
841.046	0.00629
852.619	0.00983
864.193	0.01268
875.767	0.01114
887.341	0.01124
898.915	0.02019
910.489	0.0336
922.062	0.02958
933.636	0.02034
945.21	0.02128
956.784	0.03403
968.358	0.05656
979.932	0.06894
991.505	0.05176
1003.08	0.0298
1014.65	0.0281
1026.23	0.04538
1037.8	0.06695
1049.37	0.12617
1060.95	0.20635
1072.52	0.21651
1084.1	0.20071
1095.67	0.21774
1107.24	0.22954
1118.82	0.15918
1130.39	0.07939
1141.97	0.04878
1153.54	0.03974
1165.11	0.04303
1176.69	0.05703
1188.26	0.07085
1199.83	0.09594
1211.41	0.08981
1222.98	0.05925
1234.56	0.03392
1246.13	0.0228
1257.7	0.01731
1269.28	0.01468
1280.85	0.01486
1292.42	0.01847
1304	0.02497
1315.57	0.02723
1327.15	0.02947
1338.72	0.03945
1350.29	0.07352
1361.87	0.09433
1373.44	0.05169
1385.02	0.02288
1396.59	0.01246
1408.16	0.00914
1419.74	0.00929
1431.31	0.01412
1442.88	0.02717
1454.46	0.03333
1466.03	0.02412
1477.61	0.0179
1489.18	0.01816
1500.75	0.0147
1512.33	0.00808
1523.9	0.00688
1535.48	0.00694
1547.05	0.00654
1558.62	0.00582
1570.2	0.00577
1581.77	0.00619
1593.34	0.00605
1604.92	0.00514
1616.49	0.00439
1628.07	0.00384
1639.64	0.00358
1651.21	0.00368
1662.79	0.00412
1674.36	0.00388
1685.93	0.003
1697.51	0.00263
1709.08	0.00269
1720.66	0.00284
1732.23	0.00294
1743.8	0.003
1755.38	0.00292
1766.95	0.00327
1778.53	0.00367
1790.1	0.00413
1801.67	0.00588
1813.25	0.00534
1824.82	0.00348
1836.39	0.00291
1847.97	0.00285
1859.54	0.00288
1871.12	0.00331
1882.69	0.00392
1894.26	0.00422
1905.84	0.00387
1917.41	0.00322
1928.99	0.0036
1940.56	0.00541
1952.13	0.00651
1963.71	0.00558
1975.28	0.00402
1986.85	0.00335
1998.43	0.00309
2010	0.00323
2021.58	0.00365
2033.15	0.00413
2044.72	0.00436
2056.3	0.00416
2067.87	0.00413
2079.44	0.00429
2091.02	0.00406
2102.59	0.00342
2114.17	0.00276
2125.74	0.00245
2137.31	0.00233
2148.89	0.00239
2160.46	0.00258
2172.04	0.0026
2183.61	0.00237
2195.18	0.00204
2206.76	0.00177
2218.33	0.00155
2229.9	0.00144
2241.48	0.00134
2253.05	0.00136
2264.63	0.00134
2276.2	0.00138
2287.77	0.0014
2299.35	0.00141
2310.92	0.00169
2322.5	0.00164
2334.07	0.0016
2345.64	0.00149
2357.22	0.00129
2368.79	0.00125
2380.36	0.00125
2391.94	0.00129
2403.51	0.00135
2415.09	0.00145
2426.66	0.00141
2438.23	0.00122
2449.81	0.00112
2461.38	0.0011
2472.96	0.00107
2484.53	0.00104
2496.1	0.00103
2507.68	0.00114
2519.25	0.00121
2530.82	0.00134
2542.4	0.00146
2553.97	0.00165
2565.55	0.00179
2577.12	0.00204
2588.69	0.00233
2600.27	0.00262
2611.84	0.00276
2623.41	0.00298
2634.99	0.00359
2646.56	0.00427
2658.14	0.00452
2669.71	0.00435
2681.28	0.00381
2692.86	0.00337
2704.43	0.0033
2716.01	0.00354
2727.58	0.0038
2739.15	0.00406
2750.73	0.00435
2762.3	0.00511
2773.87	0.00655
2785.45	0.00922
2797.02	0.01382
2808.6	0.02132
2820.17	0.03781
2831.74	0.06992
2843.32	0.07236
2854.89	0.0392
2866.47	0.02934
2878.04	0.04002
2889.61	0.06185
2901.19	0.06666
2912.76	0.06571
2924.33	0.07394
2935.91	0.08614
2947.48	0.08632
2959.06	0.07666
2970.63	0.05802
2982.2	0.04736
2993.78	0.05514
3005.35	0.05054
3016.92	0.03624
3028.5	0.03853
3040.07	0.04463
3051.65	0.04042
3063.22	0.04567
3074.79	0.05007
3086.37	0.03528
3097.94	0.02459
3109.52	0.01487
3121.09	0.00832
3132.66	0.00506
3144.24	0.0036
3155.81	0.00295
3167.38	0.00273
3178.96	0.00221
3190.53	0.00162
3202.11	0.0014
3213.68	0.00124
3225.25	0.00115
3236.83	0.00102
3248.4	0.00102
3259.98	0.0009164
3271.55	0.0009094
3283.12	0.0008749
3294.7	0.0007889
3306.27	0.0008526
3317.84	0.0008234
3329.42	0.000796
3340.99	0.0007619
3352.57	0.000723
3364.14	0.0007023
3375.71	0.0006357
3387.29	0.0007738
3398.86	0.0007063
3410.43	0.0005899
3422.01	0.0006687
3433.58	0.0007599
3445.16	0.0007261
3456.73	0.0007805
3468.3	0.0007539
3479.88	0.0007396
3491.45	0.0007392
3503.03	0.0006863
3514.6	0.0005866
3526.17	0.0005983
3537.75	0.0006531
3549.32	0.0006424
3560.89	0.0006039
3572.47	0.0004758
3584.04	0.0004194
3595.62	0.0004477
3607.19	0.000645
3618.76	0.0006673
3630.34	0.0008209
3641.91	0.0008162
3653.49	0.0009686
3665.06	0.0011
3676.63	0.0009099
3688.21	0.0009676
3699.78	0.0009536
3711.35	0.0009748
3722.93	0.0008981
3734.5	0.0009303
3746.08	0.0008393
3757.65	0.0008552
3769.22	0.0007593
3780.8	0.0008438
3792.37	0.0008143
3803.94	0.0008077
3815.52	0.0008351
3827.09	0.0008751
3838.67	0.0008085
3850.24	0.0008588
3861.81	0.0009727
3873.39	0.00102
3884.96	0.00112
3896.54	0.00132
3908.11	0.00144
3919.68	0.00145
3931.26	0.00155
3942.83	0.00156
3954.4	0.00152
3965.98	0.0016
3977.55	0.00167
3989.13	0.00183
4000.7	0.00194
