Infrared Spectrum: 2-Fluoro-3-(trifluoromethyl)benzaldehyde
Formula: C 8 H 4 F 4 O
CAS: 112641-20-0
State: gas
Origin: EPA-IR VAPOR PHASE LIBRARY
1/CM	ABSORBANCE
549.8	0.012194
559.445	0.006184
569.09	0.004214
578.734	0.003104
588.379	0.002874
598.024	0.005744
607.669	0.012424
617.313	0.011224
626.958	0.004224
636.603	0.003544
646.248	0.005134
655.893	0.009574
665.537	0.015944
675.182	0.026494
684.827	0.052474
694.472	0.034054
704.116	0.007104
713.761	0.004454
723.406	0.005904
733.051	0.017444
742.695	0.035724
752.34	0.029004
761.985	0.022504
771.63	0.016484
781.275	0.014994
790.919	0.030624
800.564	0.035854
810.209	0.018654
819.854	0.013464
829.498	0.024734
839.143	0.019424
848.788	0.006204
858.433	0.005784
868.078	0.010944
877.722	0.011694
887.367	0.006174
897.012	0.003184
906.657	0.003014
916.301	0.004134
925.946	0.004584
935.591	0.003244
945.236	0.001874
954.88	0.002214
964.525	0.003154
974.17	0.002594
983.815	0.003214
993.46	0.003074
1003.1	0.004234
1012.75	0.004104
1022.39	0.004304
1032.04	0.005294
1041.68	0.007154
1051.33	0.011614
1060.97	0.017704
1070.62	0.024294
1080.26	0.033224
1089.91	0.038624
1099.55	0.062444
1109.2	0.159624
1118.84	0.169314
1128.49	0.087044
1138.13	0.088724
1147.78	0.148254
1157.42	0.267814
1167.07	0.452774
1176.71	0.376924
1186.36	0.156154
1196	0.061924
1205.64	0.038144
1215.29	0.029214
1224.93	0.047664
1234.58	0.087444
1244.22	0.083254
1253.87	0.066534
1263.51	0.053264
1273.16	0.025354
1282.8	0.028884
1292.45	0.036154
1302.09	0.045124
1311.74	0.095924
1321.38	0.276434
1331.03	0.306084
1340.67	0.080154
1350.32	0.020894
1359.96	0.013424
1369.61	0.012854
1379.25	0.017244
1388.9	0.044654
1398.54	0.069574
1408.18	0.045794
1417.83	0.016634
1427.47	0.010694
1437.12	0.016464
1446.76	0.043724
1456.41	0.094834
1466.05	0.111694
1475.7	0.074374
1485.34	0.038234
1494.99	0.015004
1504.63	0.007274
1514.28	0.005654
1523.92	0.004884
1533.57	0.004804
1543.21	0.004634
1552.86	0.005574
1562.5	0.008114
1572.15	0.016864
1581.79	0.037274
1591.44	0.056094
1601.08	0.062614
1610.73	0.074064
1620.37	0.067194
1630.01	0.039164
1639.66	0.023924
1649.3	0.014914
1658.95	0.010274
1668.59	0.010054
1678.24	0.011114
1687.88	0.012734
1697.53	0.028464
1707.17	0.146864
1716.82	0.221604
1726.46	0.071644
1736.11	0.049484
1745.75	0.032784
1755.4	0.018874
1765.04	0.009994
1774.69	0.007684
1784.33	0.005934
1793.98	0.003984
1803.62	0.003064
1813.27	0.002644
1822.91	0.002934
1832.55	0.003284
1842.2	0.003534
1851.84	0.003734
1861.49	0.003854
1871.13	0.003504
1880.78	0.002674
1890.42	0.002784
1900.07	0.003774
1909.71	0.004594
1919.36	0.003894
1929	0.003364
1938.65	0.003194
1948.29	0.002934
1957.94	0.002724
1967.58	0.002504
1977.23	0.002304
1986.87	0.001984
1996.52	0.0017933
2006.16	0.001924
2015.81	0.0016523
2025.45	0.001599
2035.1	0.0015671
2044.74	0.0015243
2054.38	0.0015914
2064.03	0.001874
2073.67	0.0017831
2083.32	0.0018187
2092.96	0.0017585
2102.61	0.0014867
2112.25	0.0016918
2121.9	0.0016521
2131.54	0.0018108
2141.19	0.0014651
2150.83	0.0013424
2160.48	0.0014845
2170.12	0.00104
2179.77	0.0015728
2189.41	0.001994
2199.06	0.002134
2208.7	0.0016507
2218.35	0.001226
2227.99	0.0016608
2237.64	0.0014367
2247.28	0.001994
2256.92	0.002314
2266.57	0.002134
2276.21	0.002224
2285.86	0.002294
2295.5	0.002594
2305.15	0.002134
2314.79	0.002114
2324.44	0.002504
2334.08	0.002534
2343.73	0.002344
2353.37	0.002284
2363.02	0.0017671
2372.66	0.001894
2382.31	0.0015855
2391.95	0.001315
2401.6	0.0014409
2411.24	0.0013793
2420.89	0.0015661
2430.53	0.0014041
2440.18	0.0017428
2449.82	0.0016463
2459.47	0.0017163
2469.11	0.002054
2478.75	0.0017262
2488.4	0.0016221
2498.04	0.0016252
2507.69	0.001394
2517.33	0.0014287
2526.98	0.0012154
2536.62	0.0010071
2546.27	0.0013829
2555.91	0.0012715
2565.56	0.0007841
2575.2	0.0012021
2584.85	0.0015044
2594.49	0.0012135
2604.14	0.001125
2613.78	0.0011416
2623.43	0.0013866
2633.07	0.0016378
2642.72	0.0018235
2652.36	0.0016683
2662.01	0.0015203
2671.65	0.0014033
2681.29	0.0017503
2690.94	0.002434
2700.58	0.003084
2710.23	0.004324
2719.87	0.006824
2729.52	0.006944
2739.16	0.005844
2748.81	0.006494
2758.45	0.009474
2768.1	0.011764
2777.74	0.008684
2787.39	0.005114
2797.03	0.003774
2806.68	0.004434
2816.32	0.006204
2825.97	0.006794
2835.61	0.005604
2845.26	0.009204
2854.9	0.018254
2864.55	0.031334
2874.19	0.032724
2883.84	0.020304
2893.48	0.008554
2903.12	0.004024
2912.77	0.002714
2922.41	0.003024
2932.06	0.002874
2941.7	0.002304
2951.35	0.002164
2960.99	0.0015913
2970.64	0.0011522
2980.28	0.0015914
2989.93	0.0017146
2999.57	0.002094
3009.22	0.0017035
3018.86	0.0015406
3028.51	0.0012009
3038.15	0.002234
3047.8	0.002644
3057.44	0.003244
3067.09	0.003674
3076.73	0.004274
3086.38	0.004714
3096.02	0.004834
3105.67	0.003874
3115.31	0.002554
3124.95	0.0017304
3134.6	0.000647
3144.24	0.000665
3153.89	0.000741
3163.53	0.000527
3173.18	0.0015324
3182.82	0.0010097
3192.47	0.0010413
3202.11	0.0010421
3211.76	0.0011875
3221.4	0.001474
3231.05	0.000515
3240.69	0.000301
3250.34	0.000346
3259.98	0.0008406
3269.63	0.000737
3279.27	0.000618
3288.92	0.001192
3298.56	0.0010085
3308.21	0.0007974
3317.85	0.001208
3327.49	0.000574
3337.14	0.00062
3346.78	0.0016281
3356.43	0.0007789
3366.07	0.0009755
3375.72	0.0007871
3385.36	0.001914
3395.01	0.002144
3404.65	0.004334
3414.3	0.004764
3423.94	0.002794
3433.59	0.0017347
3443.23	0.0010015
3452.88	0.0012242
3462.52	0.0009997
3472.17	0.000648
3481.81	0.00089444
3491.46	0.00066
3501.1	0.0011192
3510.75	0.000485
3520.39	0.000486
3530.04	0.0010082
3539.68	0.0013345
3549.32	0.000689
3558.97	0.00091266
3568.61	0.0010403
3578.26	0.000384
3587.9	0.0008576
3597.55	0.00096792
3607.19	0.0009755
3616.84	0.0011478
3626.48	0.0010119
3636.13	0.0010218
3645.77	0.000453
3655.42	0.0013511
3665.06	0.0010716
3674.71	0.00092511
3684.35	0.000702
3694	0.0012217
3703.64	0.0011427
3713.29	0.0009845
3722.93	0.00094271
3732.58	0.0008547
3742.22	0.000768
3751.86	0.0010333
3761.51	0.00093186
3771.15	0.000533
3780.8	0.0008632
3790.44	0.000764
3800.09	0.000663
3809.73	0.000467
3819.38	0.000114
3829.02	0.00088983
3838.67	0.000505
3848.31	0.0009919
3857.96	0.000736
3867.6	0.000641
3877.25	0.0014921
3886.89	0.0016366
3896.54	0.0010378
3906.18	0.0011173
3915.83	0.0015727
3925.47	0.0014984
3935.12	0.0014359
3944.76	0.0012426
3954.41	0.0010319
3964.05	0.00091202
3973.69	0.0008168
3983.34	0.000717
3992.98	0.001295
