Infrared Spectrum: ACETANILIDE, 4-MERCAPTO-
Formula: C8 H9 N O S
CAS: 1126-81-4
State: SOLID (0.8 mg / 650 mg KBr DISC)
Class: COBLENTZ III
Instrument: PERKIN-ELMER 21 (GRATING)
Instrument parameters: FILTER CHANGE AT 1100 CM^-^1
Sampling: TRANSMISSION
Resolution: 2
Origin: SOUTHERN RESEARCH INSTITUTE (W.C. COBURN, JR.)
1/CM	TRANSMITTANCE
609.032	0.676
617.971	0.675
626.909	0.674
635.848	0.672
644.786	0.6635
653.725	0.659
662.663	0.657
671.602	0.652
680.54	0.6442
689.479	0.6323
698.418	0.6074
707.356	0.5708
716.295	0.564
725.233	0.5458
734.172	0.52
743.11	0.4982
752.049	0.5103
760.987	0.5873
769.926	0.6706
778.865	0.6922
787.803	0.6905
796.742	0.6732
805.68	0.6042
814.619	0.4985
823.557	0.2395
832.496	0.3372
841.434	0.6113
850.373	0.6582
859.312	0.78
868.25	0.785
877.189	0.7802
886.127	0.773
895.066	0.7673
904.004	0.7614
912.943	0.758
921.881	0.758
930.82	0.756
939.759	0.7477
948.697	0.734
957.636	0.7133
966.574	0.702
975.513	0.7321
984.451	0.7322
993.39	0.6947
1002.33	0.6206
1011.27	0.5623
1020.21	0.5968
1029.14	0.6836
1038.08	0.6401
1047.02	0.7316
1055.96	0.756
1064.9	0.7527
1073.84	0.7487
1082.78	0.7323
1091.71	0.6936
1100.65	0.55
1109.59	0.7074
1118.53	0.724
1127.47	0.7378
1136.41	0.741
1145.35	0.7384
1154.28	0.734
1163.22	0.728
1172.16	0.7186
1181.1	0.71
1190.04	0.7156
1198.98	0.7022
1207.92	0.6807
1216.85	0.6549
1225.79	0.6222
1234.73	0.5943
1243.67	0.5659
1252.61	0.4247
1261.55	0.2957
1270.49	0.6505
1279.42	0.6089
1288.36	0.5
1297.3	0.4358
1306.24	0.358
1315.18	0.1432
1324.12	0.3002
1333.05	0.458
1341.99	0.5268
1350.93	0.4864
1359.87	0.3269
1368.81	0.2124
1377.75	0.3567
1386.69	0.2924
1395.62	0.1706
1404.56	0.3522
1413.5	0.5427
1422.44	0.5408
1431.38	0.4985
1440.32	0.4391
1449.26	0.3995
1458.19	0.388
1467.13	0.3628
1476.07	0.2929
1485.01	0.1629
1493.95	0.1153
1502.89	0.2696
1511.83	0.2474
1520.76	0.1582
1529.7	0.1379
1538.64	0.1102
1547.58	0.1621
1556.52	0.4576
1565.46	0.6555
1574.4	0.5283
1583.33	0.1927
1592.27	0.079
1601.21	0.1003
1610.15	0.281
1619.09	0.3841
1628.03	0.3735
1636.97	0.2415
1645.9	0.1178
1654.84	0.0735
1663.78	0.0935
1672.72	0.214
1681.66	0.4453
1690.6	0.636
1699.54	0.7626
1708.47	0.8153
1717.41	0.8489
1726.35	0.861
1735.29	0.859
1744.23	0.8582
1753.17	0.8573
1762.11	0.857
1771.04	0.857
1779.98	0.856
1788.92	0.856
1797.86	0.853
1806.8	0.852
1815.74	0.851
1824.68	0.851
1833.61	0.848
1842.55	0.849
1851.49	0.8481
1860.43	0.844
1869.37	0.8405
1878.31	0.8326
1887.25	0.8122
1896.18	0.8
1905.12	0.8094
1914.06	0.827
1923	0.828
1931.94	0.8282
1940.88	0.8266
1949.82	0.823
1958.75	0.821
1967.69	0.82
1976.63	0.821
1985.57	0.821
1994.51	0.821
2003.45	0.819
2012.39	0.813
2021.32	0.808
2030.26	0.8066
2039.2	0.805
2048.14	0.8033
2057.08	0.7993
2066.02	0.795
2074.96	0.794
2083.89	0.792
2092.83	0.791
2101.77	0.789
2110.71	0.7853
2119.65	0.781
2128.59	0.7763
2137.52	0.772
2146.46	0.77
2155.4	0.767
2164.34	0.765
2173.28	0.762
2182.22	0.76
2191.16	0.757
2200.09	0.753
2209.03	0.7523
2217.97	0.7503
2226.91	0.7486
2235.85	0.747
2244.79	0.7446
2253.73	0.741
2262.66	0.7363
2271.6	0.733
2280.54	0.7296
2289.48	0.7223
2298.42	0.715
2307.36	0.714
2316.3	0.713
2325.23	0.712
2334.17	0.713
2343.11	0.713
2352.05	0.712
2360.99	0.712
2369.93	0.712
2378.87	0.7073
2387.8	0.6966
2396.74	0.69
2405.68	0.6853
2414.62	0.6816
2423.56	0.6766
2432.5	0.671
2441.44	0.6653
2450.37	0.66
2459.31	0.656
2468.25	0.6513
2477.19	0.647
2486.13	0.647
2495.07	0.645
2504.01	0.6406
2512.94	0.64
2521.88	0.638
2530.82	0.636
2539.76	0.638
2548.7	0.643
2557.64	0.643
2566.58	0.643
2575.51	0.643
2584.45	0.643
2593.39	0.6413
2602.33	0.64
2611.27	0.638
2620.21	0.637
2629.15	0.636
2638.08	0.6353
2647.02	0.6303
2655.96	0.63
2664.9	0.626
2673.84	0.623
2682.78	0.623
2691.72	0.619
2700.65	0.617
2709.59	0.616
2718.53	0.613
2727.47	0.6023
2736.41	0.5923
2745.35	0.579
2754.29	0.573
2763.22	0.5737
2772.16	0.574
2781.1	0.574
2790.04	0.574
2798.98	0.5666
2807.92	0.5603
2816.86	0.555
2825.79	0.5503
2834.73	0.5453
2843.67	0.545
2852.61	0.545
2861.55	0.544
2870.49	0.5393
2879.43	0.5326
2888.36	0.5307
2897.3	0.526
2906.24	0.522
2915.18	0.522
2924.12	0.522
2933.06	0.5206
2941.99	0.5173
2950.93	0.5123
2959.87	0.507
2968.81	0.5023
2977.75	0.4899
2986.69	0.4739
2995.63	0.4606
3004.56	0.441
3013.5	0.4193
3022.44	0.4093
3031.38	0.407
3040.32	0.407
3049.26	0.409
3058.2	0.409
3067.13	0.4047
3076.07	0.3956
3085.01	0.3816
3093.95	0.378
3102.89	0.378
3111.83	0.3817
3120.77	0.395
3129.7	0.395
3138.64	0.3829
3147.58	0.3655
3156.52	0.3286
3165.46	0.325
3174.4	0.3264
3183.34	0.3256
3192.27	0.3203
3201.21	0.3093
3210.15	0.2912
3219.09	0.2692
3228.03	0.2442
3236.97	0.2095
3245.91	0.1909
3254.84	0.1706
3263.78	0.159
3272.72	0.156
3281.66	0.157
3290.6	0.1675
3299.54	0.2028
3308.48	0.2327
3317.41	0.2854
3326.35	0.3582
3335.29	0.4116
3344.23	0.4478
3353.17	0.4711
3362.11	0.4813
3371.05	0.483
3379.98	0.483
3388.92	0.483
3397.86	0.483
3406.8	0.4823
3415.74	0.482
3424.68	0.482
3433.62	0.482
3442.55	0.482
3451.49	0.483
3460.43	0.4854
3469.37	0.487
3478.31	0.4887
3487.25	0.491
3496.19	0.4927
3505.12	0.498
3514.06	0.501
3523	0.503
3531.94	0.505
3540.88	0.507
3549.82	0.508
3558.76	0.511
3567.69	0.5144
3576.63	0.516
3585.57	0.516
3594.51	0.516
3603.45	0.517
3612.39	0.517
3621.33	0.518
3630.26	0.518
3639.2	0.52
3648.14	0.5173
3657.08	0.517
3666.02	0.517
3674.96	0.517
3683.9	0.517
3692.83	0.516
3701.77	0.516
3710.71	0.516
3719.65	0.515
3728.59	0.515
3737.53	0.515
3746.46	0.515
3755.4	0.515
3764.34	0.513
3773.28	0.513
3782.22	0.512
3791.16	0.5113
3800.1	0.511
3809.03	0.51
3817.97	0.508
3826.91	0.508
3835.85	0.507
3844.79	0.506
3853.73	0.506
3862.67	0.506
3871.6	0.5036
3880.54	0.5053
3889.48	0.503
3898.42	0.505
3907.36	0.503
3916.3	0.503
3925.24	0.501
3934.17	0.5
3943.11	0.5
3952.05	0.4994
3960.99	0.4966
3969.93	0.4946
3978.87	0.491
3987.81	0.489
3996.74	0.488
4005.68	0.488
