Infrared Spectrum: 9H-Purine-6-thiol, 8-methyl-
Formula: C6 H6 N4 S
CAS: 1126-23-4
State: SOLID (0.6 mg / 650 mg KBr DISC)
Class: COBLENTZ III
Instrument: PERKIN-ELMER 21 (GRATING)
Instrument parameters: FILTER CHANGE ABOUT 1085 CM^-^1 (NaCl PRISM)
Sampling: TRANSMISSION
Resolution: 2
Origin: SOUTHERN RESEARCH INSTITUTE
1/CM	TRANSMITTANCE
601.589	0.9794
610.622	0.9746
619.655	0.946
628.688	0.9165
637.72	0.912
646.753	0.9609
655.786	0.9418
664.819	0.9054
673.852	0.7965
682.885	0.94
691.918	0.9296
700.951	0.9161
709.983	0.9029
719.016	0.8914
728.049	0.8796
737.082	0.8658
746.115	0.8502
755.148	0.8242
764.181	0.6936
773.214	0.7278
782.246	0.8404
791.279	0.833
800.312	0.8196
809.345	0.7954
818.378	0.7571
827.411	0.6851
836.444	0.6404
845.477	0.72
854.509	0.7966
863.542	0.7955
872.575	0.779
881.608	0.7392
890.641	0.6829
899.674	0.5717
908.707	0.5466
917.74	0.7125
926.772	0.8556
935.805	0.8596
944.838	0.8528
953.871	0.8343
962.904	0.8071
971.937	0.755
980.97	0.7143
990.002	0.6646
999.035	0.7049
1008.07	0.6965
1017.1	0.523
1026.13	0.5432
1035.17	0.631
1044.2	0.7669
1053.23	0.8356
1062.27	0.8485
1071.3	0.8507
1080.33	0.8576
1089.36	0.8723
1098.4	0.8263
1107.43	0.799
1116.46	0.7503
1125.5	0.6053
1134.53	0.796
1143.56	0.8458
1152.59	0.8424
1161.63	0.8241
1170.66	0.8029
1179.69	0.7912
1188.73	0.7486
1197.76	0.689
1206.79	0.4553
1215.82	0.2487
1224.86	0.5767
1233.89	0.8565
1242.92	0.8588
1251.96	0.8497
1260.99	0.8259
1270.02	0.8246
1279.05	0.7295
1288.09	0.6986
1297.12	0.8013
1306.15	0.8251
1315.19	0.8122
1324.22	0.7943
1333.25	0.7652
1342.28	0.6477
1351.32	0.6561
1360.35	0.7843
1369.38	0.7597
1378.42	0.704
1387.45	0.5728
1396.48	0.5861
1405.51	0.6317
1414.55	0.6036
1423.58	0.518
1432.61	0.5602
1441.65	0.6534
1450.68	0.7062
1459.71	0.7397
1468.74	0.7706
1477.78	0.7765
1486.81	0.7699
1495.84	0.7295
1504.88	0.7112
1513.91	0.6927
1522.94	0.6692
1531.97	0.5994
1541.01	0.5454
1550.04	0.4832
1559.07	0.4272
1568.11	0.465
1577.14	0.4615
1586.17	0.2448
1595.2	0.1437
1604.24	0.086
1613.27	0.2404
1622.3	0.5106
1631.34	0.6442
1640.37	0.7028
1649.4	0.7429
1658.44	0.8016
1667.47	0.8385
1676.5	0.8585
1685.53	0.8664
1694.57	0.8704
1703.6	0.8721
1712.63	0.8753
1721.67	0.8772
1730.7	0.8783
1739.73	0.8808
1748.76	0.8842
1757.8	0.8826
1766.83	0.8795
1775.86	0.8749
1784.9	0.8715
1793.93	0.8711
1802.96	0.8718
1811.99	0.8732
1821.03	0.8749
1830.06	0.8755
1839.09	0.8747
1848.13	0.8729
1857.16	0.8705
1866.19	0.869
1875.22	0.8675
1884.26	0.8667
1893.29	0.866
1902.32	0.8639
1911.36	0.8602
1920.39	0.8562
1929.42	0.8512
1938.45	0.8468
1947.49	0.8483
1956.52	0.8525
1965.55	0.8581
1974.59	0.862
1983.62	0.8641
1992.65	0.8626
2001.68	0.8612
2010.72	0.8602
2019.75	0.8609
2028.78	0.8635
2037.82	0.8659
2046.85	0.8677
2055.88	0.8674
2064.91	0.8663
2073.95	0.8652
2082.98	0.8637
2092.01	0.862
2101.05	0.86
2110.08	0.8588
2119.11	0.8576
2128.14	0.8584
2137.18	0.8589
2146.21	0.8583
2155.24	0.8577
2164.28	0.8572
2173.31	0.8558
2182.34	0.853
2191.37	0.8493
2200.41	0.8457
2209.44	0.8428
2218.47	0.8412
2227.51	0.8398
2236.54	0.8393
2245.57	0.8389
2254.6	0.8395
2263.64	0.8383
2272.67	0.8333
2281.7	0.825
2290.74	0.8143
2299.77	0.8041
2308.8	0.7949
2317.83	0.7943
2326.87	0.7944
2335.9	0.794
2344.93	0.7922
2353.97	0.7906
2363	0.7897
2372.03	0.7875
2381.06	0.7832
2390.1	0.7673
2399.13	0.7602
2408.16	0.7557
2417.2	0.7415
2426.23	0.7347
2435.26	0.7274
2444.29	0.7231
2453.33	0.7186
2462.36	0.7111
2471.39	0.7022
2480.43	0.6915
2489.46	0.6807
2498.49	0.6696
2507.52	0.6602
2516.56	0.6489
2525.59	0.6376
2534.62	0.6311
2543.66	0.6251
2552.69	0.62
2561.72	0.615
2570.76	0.6094
2579.79	0.6039
2588.82	0.5972
2597.85	0.5899
2606.89	0.5628
2615.92	0.5278
2624.95	0.5112
2633.99	0.5048
2643.02	0.4964
2652.05	0.4822
2661.08	0.4769
2670.12	0.4749
2679.15	0.4721
2688.18	0.4653
2697.22	0.4584
2706.25	0.4529
2715.28	0.4495
2724.31	0.4465
2733.35	0.4436
2742.38	0.4377
2751.41	0.426
2760.45	0.4134
2769.48	0.403
2778.51	0.4035
2787.54	0.4045
2796.58	0.4054
2805.61	0.4092
2814.64	0.4252
2823.68	0.4436
2832.71	0.4577
2841.74	0.4691
2850.77	0.4746
2859.81	0.4762
2868.84	0.4755
2877.87	0.4733
2886.91	0.4684
2895.94	0.4644
2904.97	0.4636
2914	0.4647
2923.04	0.4661
2932.07	0.4698
2941.1	0.4721
2950.14	0.4744
2959.17	0.4769
2968.2	0.4788
2977.23	0.4816
2986.27	0.4857
2995.3	0.489
3004.33	0.4911
3013.37	0.4926
3022.4	0.4941
3031.43	0.4954
3040.46	0.4952
3049.5	0.4947
3058.53	0.4945
3067.56	0.4993
3076.6	0.5116
3085.63	0.5324
3094.66	0.5488
3103.69	0.5692
3112.73	0.6167
3121.76	0.6469
3130.79	0.6619
3139.83	0.6651
3148.86	0.6679
3157.89	0.672
3166.92	0.6803
3175.96	0.698
3184.99	0.7157
3194.02	0.7333
3203.06	0.7473
3212.09	0.7592
3221.12	0.7644
3230.15	0.7666
3239.19	0.7663
3248.22	0.7654
3257.25	0.7639
3266.29	0.7613
3275.32	0.7568
3284.35	0.7521
3293.38	0.7469
3302.42	0.7423
3311.45	0.7374
3320.48	0.7307
3329.52	0.7251
3338.55	0.7198
3347.58	0.7142
3356.61	0.7073
3365.65	0.6997
3374.68	0.6912
3383.71	0.6854
3392.75	0.6826
3401.78	0.6779
3410.81	0.6705
3419.85	0.6789
3428.88	0.69
3437.91	0.6957
3446.94	0.7015
3455.98	0.7073
3465.01	0.7122
3474.04	0.7166
3483.08	0.7215
3492.11	0.7297
3501.14	0.7373
3510.17	0.7455
3519.21	0.7538
3528.24	0.7632
3537.27	0.7705
3546.31	0.7777
3555.34	0.7855
3564.37	0.7947
3573.4	0.8022
3582.44	0.8073
3591.47	0.8097
3600.5	0.811
3609.54	0.8126
3618.57	0.8198
3627.6	0.8235
3636.63	0.8243
3645.67	0.8248
3654.7	0.8244
3663.73	0.8245
3672.77	0.8253
3681.8	0.835
3690.83	0.8354
3699.86	0.8353
3708.9	0.834
3717.93	0.8307
3726.96	0.8276
3736	0.827
3745.03	0.8272
3754.06	0.828
3763.09	0.8296
3772.13	0.8285
3781.16	0.8198
3790.19	0.8152
3799.23	0.8143
3808.26	0.8145
3817.29	0.8148
3826.32	0.8139
3835.36	0.8113
3844.39	0.8119
3853.42	0.8132
3862.46	0.8144
3871.49	0.8151
3880.52	0.8147
3889.55	0.814
3898.59	0.8138
3907.62	0.8143
3916.65	0.8151
3925.69	0.8168
3934.72	0.8183
3943.75	0.8185
3952.78	0.8179
3961.82	0.8178
3970.85	0.8175
3979.88	0.8162
3988.92	0.8131
3997.95	0.8024
4006.98	0.7803
