Infrared Spectrum: 2,5-Difluorocinnamic acid
Formula: C 9 H 6 F 2 O 2
CAS: 112898-33-6
State: gas
Origin: EPA-IR VAPOR PHASE LIBRARY
1/CM	ABSORBANCE
549.8	0.016712
559.445	0.012812
569.09	0.011092
578.734	0.013692
588.379	0.017652
598.024	0.013062
607.669	0.007432
617.313	0.003812
626.958	0.003282
636.603	0.003982
646.248	0.004562
655.893	0.004982
665.537	0.005092
675.182	0.004372
684.827	0.004912
694.472	0.004342
704.116	0.002892
713.761	0.002242
723.406	0.004002
733.051	0.009882
742.695	0.010592
752.34	0.007982
761.985	0.011712
771.63	0.008412
781.275	0.003812
790.919	0.004852
800.564	0.007512
810.209	0.011782
819.854	0.009812
829.498	0.004352
839.143	0.002982
848.788	0.005642
858.433	0.012392
868.078	0.012682
877.722	0.006312
887.367	0.004472
897.012	0.004512
906.657	0.004032
916.301	0.003172
925.946	0.002402
935.591	0.004702
945.236	0.004712
954.88	0.005162
964.525	0.008892
974.17	0.015372
983.815	0.014802
993.46	0.007372
1003.1	0.003252
1012.75	0.002322
1022.39	0.002332
1032.04	0.002002
1041.68	0.002322
1051.33	0.002232
1060.97	0.003332
1070.62	0.004772
1080.26	0.005922
1089.91	0.011292
1099.55	0.018362
1109.2	0.043352
1118.84	0.086762
1128.49	0.054772
1138.13	0.029622
1147.78	0.041752
1157.42	0.045542
1167.07	0.024802
1176.71	0.017742
1186.36	0.018542
1196	0.018242
1205.64	0.015242
1215.29	0.015902
1224.93	0.019942
1234.58	0.024232
1244.22	0.024922
1253.87	0.022012
1263.51	0.020572
1273.16	0.019752
1282.8	0.014092
1292.45	0.012712
1302.09	0.011222
1311.74	0.011052
1321.38	0.011762
1331.03	0.010262
1340.67	0.011192
1350.32	0.018212
1359.96	0.023182
1369.61	0.017342
1379.25	0.007912
1388.9	0.004562
1398.54	0.003762
1408.18	0.004742
1417.83	0.007832
1427.47	0.010712
1437.12	0.009562
1446.76	0.006082
1456.41	0.006502
1466.05	0.007852
1475.7	0.015672
1485.34	0.045202
1494.99	0.066802
1504.63	0.036342
1514.28	0.013912
1523.92	0.006372
1533.57	0.003792
1543.21	0.002622
1552.86	0.002792
1562.5	0.002842
1572.15	0.003482
1581.79	0.006602
1591.44	0.008862
1601.08	0.005932
1610.73	0.004612
1620.37	0.006502
1630.01	0.009692
1639.66	0.020472
1649.3	0.019972
1658.95	0.004832
1668.59	0.002832
1678.24	0.002902
1687.88	0.003092
1697.53	0.003302
1707.17	0.004802
1716.82	0.008092
1726.46	0.013502
1736.11	0.023582
1745.75	0.051412
1755.4	0.096442
1765.04	0.076572
1774.69	0.030652
1784.33	0.019442
1793.98	0.015052
1803.62	0.008352
1813.27	0.004672
1822.91	0.003252
1832.55	0.002742
1842.2	0.002582
1851.84	0.002812
1861.49	0.003092
1871.13	0.002272
1880.78	0.001832
1890.42	0.001522
1900.07	0.0010336
1909.71	0.0010823
1919.36	0.0011914
1929	0.0009885
1938.65	0.001007
1948.29	0.0009779
1957.94	0.0010279
1967.58	0.0010056
1977.23	0.0009496
1986.87	0.0009312
1996.52	0.0010585
2006.16	0.0009745
2015.81	0.0010916
2025.45	0.0009025
2035.1	0.0011398
2044.74	0.0012266
2054.38	0.0014519
2064.03	0.0011717
2073.67	0.0009631
2083.32	0.0008138
2092.96	0.0007986
2102.61	0.0008023
2112.25	0.00065
2121.9	0.0006538
2131.54	0.0007176
2141.19	0.0006251
2150.83	0.0007065
2160.48	0.0006418
2170.12	0.0009476
2179.77	0.0008814
2189.41	0.0007563
2199.06	0.0008481
2208.7	0.0008522
2218.35	0.0009351
2227.99	0.0009841
2237.64	0.0011464
2247.28	0.0010222
2256.92	0.0007872
2266.57	0.0008574
2276.21	0.0009752
2285.86	0.0009287
2295.5	0.0009882
2305.15	0.0009217
2314.79	0.0007034
2324.44	0.0008376
2334.08	0.0007156
2343.73	0.0006859
2353.37	0.0010209
2363.02	0.0008088
2372.66	0.0007038
2382.31	0.0007866
2391.95	0.0007749
2401.6	0.0007206
2411.24	0.0008717
2420.89	0.0008138
2430.53	0.0009917
2440.18	0.0006915
2449.82	0.0008211
2459.47	0.0008251
2469.11	0.0011841
2478.75	0.0007732
2488.4	0.0007942
2498.04	0.0007539
2507.69	0.0009592
2517.33	0.000785
2526.98	0.0008997
2536.62	0.00056735
2546.27	0.0008532
2555.91	0.0004744
2565.56	0.000766
2575.2	0.0007767
2584.85	0.0009118
2594.49	0.0008458
2604.14	0.001003
2613.78	0.000531203
2623.43	0.0007898
2633.07	0.000488
2642.72	0.000365
2652.36	0.0006878
2662.01	0.0008042
2671.65	0.0006386
2681.29	0.0004684
2690.94	0.0006711
2700.58	0.0008873
2710.23	0.0008232
2719.87	0.00058507
2729.52	0.0004226
2739.16	0.0010106
2748.81	0.0004222
2758.45	0.0008164
2768.1	0.0007303
2777.74	0.00056635
2787.39	0.0007945
2797.03	0.0007742
2806.68	0.00055975
2816.32	0.00061883
2825.97	0.0004515
2835.61	0.0006364
2845.26	0.00058572
2854.9	0.00054661
2864.55	0.0007368
2874.19	0.0007312
2883.84	0.000391
2893.48	0.0007995
2903.12	0.0010283
2912.77	0.0011904
2922.41	0.000372
2932.06	0.0010286
2941.7	0.0005836
2951.35	0.0008203
2960.99	0.0009694
2970.64	0.000359
2980.28	0.00058318
2989.93	0.00083
2999.57	0.0008659
3009.22	0.0009498
3018.86	0.0005952
3028.51	0.0008307
3038.15	0.0007068
3047.8	0.0011465
3057.44	0.0015121
3067.09	0.0013081
3076.73	0.0009891
3086.38	0.0009792
3096.02	0.0011363
3105.67	0.0009452
3115.31	0.00060104
3124.95	0.0010285
3134.6	0.000288
3144.24	0.000527229
3153.89	0.0009407
3163.53	0.00057939
3173.18	0.00054728
3182.82	0.000392
3192.47	0.0005022
3202.11	0.0006496
3211.76	0.0004779
3221.4	6.3e-05
3231.05	0.000322
3240.69	0.00042
3250.34	0.00055758
3259.98	0.0006807
3269.63	0.0004884
3279.27	0.0007294
3288.92	0.000524823
3298.56	0
3308.21	0.00058852
3317.85	0.0004848
3327.49	0.000336
3337.14	0.00081
3346.78	0.00057295
3356.43	0.0006826
3366.07	0.0005111
3375.72	0.000191
3385.36	0.0009636
3395.01	0.0007179
3404.65	0.000359
3414.3	0.00055353
3423.94	0.000401
3433.59	0.000736
3443.23	0.000234
3452.88	0.000267
3462.52	0.0009694
3472.17	0.0008691
3481.81	0.0011351
3491.46	0.0013303
3501.1	0.001185
3510.75	0.001582
3520.39	0.0012766
3530.04	0.0008368
3539.68	0.0010315
3549.32	0.0008703
3558.97	0.002212
3568.61	0.007382
3578.26	0.037322
3587.9	0.033042
3597.55	0.005582
3607.19	0.001582
3616.84	0.0008911
3626.48	0.0010456
3636.13	0.0007924
3645.77	0.0005108
3655.42	0.0007273
3665.06	0.0007901
3674.71	0.0009513
3684.35	0.0007632
3694	0.0007149
3703.64	0.0004758
3713.29	0.0007709
3722.93	0.00061732
3732.58	0.000528312
3742.22	0.00054155
3751.86	0.00059717
3761.51	0.0008367
3771.15	0.000207
3780.8	0.0006238
3790.44	0.0007667
3800.09	0.00048
3809.73	0.0007961
3819.38	0.0007911
3829.02	0.0009727
3838.67	0.0007788
3848.31	0.0004713
3857.96	0.000183
3867.6	0.0005008
3877.25	0.000526869
3886.89	0.000288
3896.54	0.00051691
3906.18	0.0004549
3915.83	0.000343
3925.47	0.0009205
3935.12	0.00058199
3944.76	0.000235
3954.41	0.000188
3964.05	0.000158
3973.69	0.0004323
3983.34	0.0006304
3992.98	0.0010079
