Infrared Spectrum: N-Methylbenzothiazolone
Formula: C 8 H 9 N 3 S
CAS: 1128-67-2
State: gas
Origin: EPA-IR VAPOR PHASE LIBRARY
1/CM	ABSORBANCE
549.8	0.0013138
559.445	0.0012993
569.09	0.0013765
578.734	0.001878
588.379	0.004068
598.024	0.004348
607.669	0.002578
617.313	0.0013649
626.958	0.0011574
636.603	0.0011348
646.248	0.001401
655.893	0.001888
665.537	0.002768
675.182	0.002598
684.827	0.001958
694.472	0.001948
704.116	0.003578
713.761	0.006638
723.406	0.011708
733.051	0.022048
742.695	0.016968
752.34	0.006718
761.985	0.002508
771.63	0.002598
781.275	0.002268
790.919	0.002548
800.564	0.002828
810.209	0.002878
819.854	0.003048
829.498	0.003778
839.143	0.003938
848.788	0.004168
858.433	0.005058
868.078	0.006208
877.722	0.007618
887.367	0.008708
897.012	0.008798
906.657	0.007468
916.301	0.005958
925.946	0.004138
935.591	0.003388
945.236	0.002368
954.88	0.002428
964.525	0.002258
974.17	0.002088
983.815	0.002078
993.46	0.002858
1003.1	0.004408
1012.75	0.008318
1022.39	0.009308
1032.04	0.005628
1041.68	0.004748
1051.33	0.006648
1060.97	0.008338
1070.62	0.008248
1080.26	0.007608
1089.91	0.005108
1099.55	0.003738
1109.2	0.005148
1118.84	0.007898
1128.49	0.011758
1138.13	0.011298
1147.78	0.007898
1157.42	0.008508
1167.07	0.007708
1176.71	0.005008
1186.36	0.003338
1196	0.003638
1205.64	0.004008
1215.29	0.004048
1224.93	0.004158
1234.58	0.005538
1244.22	0.008478
1253.87	0.010408
1263.51	0.006478
1273.16	0.003668
1282.8	0.005798
1292.45	0.012208
1302.09	0.012758
1311.74	0.008318
1321.38	0.009878
1331.03	0.011678
1340.67	0.012218
1350.32	0.016118
1359.96	0.016548
1369.61	0.010358
1379.25	0.006078
1388.9	0.003848
1398.54	0.003058
1408.18	0.002838
1417.83	0.002788
1427.47	0.002838
1437.12	0.002998
1446.76	0.004588
1456.41	0.007968
1466.05	0.019778
1475.7	0.044848
1485.34	0.036568
1494.99	0.011628
1504.63	0.005998
1514.28	0.004028
1523.92	0.003778
1533.57	0.004248
1543.21	0.005558
1552.86	0.008948
1562.5	0.015868
1572.15	0.022958
1581.79	0.026798
1591.44	0.023628
1601.08	0.013698
1610.73	0.010588
1620.37	0.013178
1630.01	0.021748
1639.66	0.050728
1649.3	0.091828
1658.95	0.066508
1668.59	0.018558
1678.24	0.007868
1687.88	0.005118
1697.53	0.003678
1707.17	0.003018
1716.82	0.002748
1726.46	0.002538
1736.11	0.002398
1745.75	0.002178
1755.4	0.001768
1765.04	0.0012574
1774.69	0.0013511
1784.33	0.0013532
1793.98	0.0013079
1803.62	0.0011794
1813.27	0.0012411
1822.91	0.001528
1832.55	0.0013492
1842.2	0.0011165
1851.84	0.0011958
1861.49	0.001588
1871.13	0.001588
1880.78	0.0011661
1890.42	0.0011179
1900.07	0.0013396
1909.71	0.001678
1919.36	0.0012756
1929	0.0008373
1938.65	0.0007569
1948.29	0.0007186
1957.94	0.0007006
1967.58	0.0007383
1977.23	0.0006898
1986.87	0.0007704
1996.52	0.0007167
2006.16	0.0007659
2015.81	0.0007262
2025.45	0.00074
2035.1	0.0006835
2044.74	0.0006772
2054.38	0.0006352
2064.03	0.0006785
2073.67	0.0007287
2083.32	0.0006266
2092.96	0.00057438
2102.61	0.0005207
2112.25	0.0005484
2121.9	0.00052215
2131.54	0.000642
2141.19	0.0006278
2150.83	0.0006714
2160.48	0.0006605
2170.12	0.0006035
2179.77	0.00055782
2189.41	0.000648
2199.06	0.0006369
2208.7	0.00056911
2218.35	0.00056986
2227.99	0.0006079
2237.64	0.0005875
2247.28	0.0007154
2256.92	0.0006519
2266.57	0.0006232
2276.21	0.00057152
2285.86	0.00056864
2295.5	0.0006717
2305.15	0.0007434
2314.79	0.0007873
2324.44	0.0007162
2334.08	0.0007393
2343.73	0.000681
2353.37	0.0006847
2363.02	0.0006798
2372.66	0.0006625
2382.31	0.0006191
2391.95	0.0006292
2401.6	0.0006637
2411.24	0.0006274
2420.89	0.0006193
2430.53	0.00056152
2440.18	0.0006784
2449.82	0.0007249
2459.47	0.0007385
2469.11	0.0006048
2478.75	0.0006336
2488.4	0.0005761
2498.04	0.00056224
2507.69	0.0006067
2517.33	0.0004495
2526.98	0.0006932
2536.62	0.0006834
2546.27	0.000778
2555.91	0.0007001
2565.56	0.0007122
2575.2	0.0007734
2584.85	0.00074
2594.49	0.0007772
2604.14	0.0008456
2613.78	0.0008256
2623.43	0.0008001
2633.07	0.0008668
2642.72	0.0010107
2652.36	0.0011514
2662.01	0.0010747
2671.65	0.00092
2681.29	0.0007447
2690.94	0.0006361
2700.58	0.0007057
2710.23	0.0006493
2719.87	0.0006106
2729.52	0.0004366
2739.16	0.00053394
2748.81	0.0006736
2758.45	0.0005902
2768.1	0.000635
2777.74	0.0007898
2787.39	0.0006766
2797.03	0.0007792
2806.68	0.0010007
2816.32	0.0013335
2825.97	0.001658
2835.61	0.002018
2845.26	0.001678
2854.9	0.0013399
2864.55	0.001608
2874.19	0.002338
2883.84	0.002958
2893.48	0.003428
2903.12	0.003638
2912.77	0.004128
2922.41	0.004608
2932.06	0.006148
2941.7	0.007398
2951.35	0.006468
2960.99	0.004528
2970.64	0.003008
2980.28	0.002078
2989.93	0.001698
2999.57	0.001598
3009.22	0.001618
3018.86	0.002178
3028.51	0.002698
3038.15	0.003348
3047.8	0.003698
3057.44	0.003938
3067.09	0.005518
3076.73	0.008378
3086.38	0.007008
3096.02	0.003168
3105.67	0.001548
3115.31	0.0008488
3124.95	0.0008055
3134.6	0.00054134
3144.24	0.0006426
3153.89	0.0007485
3163.53	0.0006248
3173.18	0.0006427
3182.82	0.0006247
3192.47	0.0006388
3202.11	0.0007749
3211.76	0.0006785
3221.4	0.0006965
3231.05	0.0008251
3240.69	0.0011085
3250.34	0.0013526
3259.98	0.0012938
3269.63	0.001025
3279.27	0.0007745
3288.92	0.0009283
3298.56	0.0008785
3308.21	0.0007294
3317.85	0.0007583
3327.49	0.0006073
3337.14	0.0005211
3346.78	0.00051409
3356.43	0.00056458
3366.07	0.00050829
3375.72	0.0006409
3385.36	0.0007895
3395.01	0.0007526
3404.65	0.0006343
3414.3	0.0005987
3423.94	0.00075
3433.59	0.0006643
3443.23	0.0005949
3452.88	0.0006124
3462.52	0.0004337
3472.17	0.00052312
3481.81	0.000169
3491.46	0.00046
3501.1	0.000361
3510.75	0.000266
3520.39	0.000368
3530.04	0.000143
3539.68	0.00023
3549.32	0.0003828
3558.97	0.00036
3568.61	0.000204
3578.26	0.000274
3587.9	0.0004393
3597.55	0.000321
3607.19	0.000359
3616.84	0.000164
3626.48	0.000328
3636.13	7.2e-05
3645.77	0.000277
3655.42	0.000123
3665.06	0.0004072
3674.71	0.000229
3684.35	0.00053389
3694	0.000144
3703.64	0.000377
3713.29	0.000252
3722.93	0.000344
3732.58	0.0004559
3742.22	0.000318
3751.86	0.000375
3761.51	0.00037
3771.15	0.0004433
3780.8	0.000277
3790.44	0.000366
3800.09	0.000251
3809.73	0.000185
3819.38	5.3e-05
3829.02	0.000232
3838.67	0.0002
3848.31	0.000236
3857.96	0.000285
3867.6	0.000298
3877.25	0.00033
3886.89	0.0007387
3896.54	0.000108
3906.18	0.000316
3915.83	0.000376
3925.47	0.000232
3935.12	0
3944.76	0.000343
3954.41	0.000375
3964.05	0.000371
3973.69	0.0004137
3983.34	0.000162
3992.98	0.00025
