Infrared Spectrum: 3,4-Difluorocinnamic acid
Formula: C 9 H 6 F 2 O 2
CAS: 112897-97-9
State: gas
Origin: EPA-IR VAPOR PHASE LIBRARY
1/CM	ABSORBANCE
549.8	0.01535
559.445	0.01543
569.09	0.00829
578.734	0.00865
588.379	0.01127
598.024	0.01135
607.669	0.01014
617.313	0.0065
626.958	0.00571
636.603	0.00626
646.248	0.0072
655.893	0.00345
665.537	0.0018539
675.182	0.00208
684.827	0.0013243
694.472	0.00272
704.116	0.0018317
713.761	0.00249
723.406	0.00247
733.051	0.00287
742.695	0.00262
752.34	0.00404
761.985	0.00606
771.63	0.00569
781.275	0.00563
790.919	0.00773
800.564	0.00731
810.209	0.01012
819.854	0.01265
829.498	0.00574
839.143	0.00338
848.788	0.0049
858.433	0.00707
868.078	0.00644
877.722	0.00363
887.367	0.00385
897.012	0.00389
906.657	0.00274
916.301	0.00354
925.946	0.0025
935.591	0.00526
945.236	0.00565
954.88	0.00595
964.525	0.00911
974.17	0.01209
983.815	0.00903
993.46	0.00447
1003.1	0.00304
1012.75	0.00285
1022.39	0.00261
1032.04	0.0025
1041.68	0.00271
1051.33	0.0015822
1060.97	0.0017492
1070.62	0.00208
1080.26	0.00344
1089.91	0.00677
1099.55	0.01695
1109.2	0.05536
1118.84	0.06843
1128.49	0.02861
1138.13	0.01725
1147.78	0.02415
1157.42	0.0309
1167.07	0.01895
1176.71	0.00893
1186.36	0.00487
1196	0.00645
1205.64	0.00562
1215.29	0.01147
1224.93	0.01131
1234.58	0.0093
1244.22	0.01059
1253.87	0.01172
1263.51	0.01731
1273.16	0.03172
1282.8	0.03581
1292.45	0.04021
1302.09	0.02658
1311.74	0.01348
1321.38	0.00726
1331.03	0.00657
1340.67	0.00818
1350.32	0.01205
1359.96	0.01493
1369.61	0.01079
1379.25	0.00618
1388.9	0.00425
1398.54	0.0037
1408.18	0.00422
1417.83	0.00679
1427.47	0.00999
1437.12	0.01134
1446.76	0.00601
1456.41	0.00368
1466.05	0.00335
1475.7	0.00385
1485.34	0.00464
1494.99	0.00669
1504.63	0.017
1514.28	0.05212
1523.92	0.04547
1533.57	0.0137
1543.21	0.00799
1552.86	0.00454
1562.5	0.0056
1572.15	0.00583
1581.79	0.00685
1591.44	0.01055
1601.08	0.01764
1610.73	0.01381
1620.37	0.00886
1630.01	0.00856
1639.66	0.01609
1649.3	0.01721
1658.95	0.0044
1668.59	0.00349
1678.24	0.00317
1687.88	0.0033
1697.53	0.00378
1707.17	0.00468
1716.82	0.00693
1726.46	0.01007
1736.11	0.01756
1745.75	0.04009
1755.4	0.07144
1765.04	0.05166
1774.69	0.02104
1784.33	0.01384
1793.98	0.01069
1803.62	0.00634
1813.27	0.00393
1822.91	0.00289
1832.55	0.00262
1842.2	0.00272
1851.84	0.00219
1861.49	0.00252
1871.13	0.00242
1880.78	0.00247
1890.42	0.0016857
1900.07	0.0018285
1909.71	0.0016207
1919.36	0.0015154
1929	0.0012185
1938.65	0.0014592
1948.29	0.0016432
1957.94	0.0016398
1967.58	0.0013576
1977.23	0.0014541
1986.87	0.0015467
1996.52	0.0014254
2006.16	0.0015258
2015.81	0.0013729
2025.45	0.0015646
2035.1	0.0013735
2044.74	0.0019268
2054.38	0.0019749
2064.03	0.0018868
2073.67	0.0018236
2083.32	0.0013108
2092.96	0.0013473
2102.61	0.0013035
2112.25	0.0016004
2121.9	0.001199
2131.54	0.0014888
2141.19	0.00114295
2150.83	0.00109574
2160.48	0.0012447
2170.12	0.0016002
2179.77	0.0009786
2189.41	0.0012363
2199.06	0.001413
2208.7	0.00105724
2218.35	0.0014086
2227.99	0.0012574
2237.64	0.0013851
2247.28	0.00109895
2256.92	0.0013312
2266.57	0.0015193
2276.21	0.0011854
2285.86	0.0011949
2295.5	0.0011681
2305.15	0.00104965
2314.79	0.0015989
2324.44	0.0013426
2334.08	0.0015167
2343.73	0.0015939
2353.37	0.0015707
2363.02	0.0017646
2372.66	0.00148
2382.31	0.0012831
2391.95	0.0013449
2401.6	0.0012472
2411.24	0.0011593
2420.89	0.0012399
2430.53	0.0012415
2440.18	0.0009644
2449.82	0.0013239
2459.47	0.0012228
2469.11	0.0015666
2478.75	0.0018746
2488.4	0.0013401
2498.04	0.0013916
2507.69	0.0014764
2517.33	0.0012859
2526.98	0.0016003
2536.62	0.00114199
2546.27	0.0014852
2555.91	0.0017752
2565.56	0.0013221
2575.2	0.0012916
2584.85	0.00213
2594.49	0.0019944
2604.14	0.0015589
2613.78	0.0009607
2623.43	0.0013343
2633.07	0.0014715
2642.72	0.001211
2652.36	0.00091
2662.01	0.00104985
2671.65	0.00112761
2681.29	0.00107869
2690.94	0.0014505
2700.58	0.0015623
2710.23	0.00114572
2719.87	0.0013267
2729.52	0.001214
2739.16	0.001253
2748.81	0.0013256
2758.45	0.00109869
2768.1	0.0014038
2777.74	0.0011567
2787.39	0.0009607
2797.03	0.0012846
2806.68	0.000825
2816.32	0.0013158
2825.97	0.0011451
2835.61	0.0012697
2845.26	0.0015159
2854.9	0.0017173
2864.55	0.0009659
2874.19	0.0015475
2883.84	0.0012223
2893.48	0.001233
2903.12	0.00109685
2912.77	0.0013895
2922.41	0.0009926
2932.06	0.0012466
2941.7	0.001691
2951.35	0.0012995
2960.99	0.0015952
2970.64	0.001444
2980.28	0.00063
2989.93	0.001204
2999.57	0.000785
3009.22	0.001326
3018.86	0.0010068
3028.51	0.0013898
3038.15	0.0017063
3047.8	0.001973
3057.44	0.00239
3067.09	0.00284
3076.73	0.00265
3086.38	0.0015363
3096.02	0.0016493
3105.67	0.00107432
3115.31	0.00114498
3124.95	0.000934
3134.6	0.000903
3144.24	0.0009739
3153.89	0.000862
3163.53	0.00112444
3173.18	0.000778
3182.82	0.0011803
3192.47	0.00105888
3202.11	0.001932
3211.76	0.000833
3221.4	0.000932
3231.05	0.0017013
3240.69	0.0013353
3250.34	0.000457
3259.98	0.000637
3269.63	0.000865
3279.27	0.0013433
3288.92	0.000801
3298.56	0.00111108
3308.21	0.00105761
3317.85	0.0013474
3327.49	0.0013405
3337.14	0.000766
3346.78	0.0013179
3356.43	0.0014929
3366.07	0.0016555
3375.72	0.0013126
3385.36	0.0009774
3395.01	0.000375
3404.65	0.0010337
3414.3	0.0011925
3423.94	0.0009816
3433.59	0.001614
3443.23	0.000799
3452.88	0.0014524
3462.52	0.000593
3472.17	0.0019121
3481.81	0.00113791
3491.46	0.0009637
3501.1	0.00212
3510.75	0.00107965
3520.39	0.000904
3530.04	0.000797
3539.68	0.00113243
3549.32	0.0012627
3558.97	0.00226
3568.61	0.00611
3578.26	0.02771
3587.9	0.02286
3597.55	0.00326
3607.19	0.0013499
3616.84	0.000796
3626.48	0.0017731
3636.13	0.000523
3645.77	0.001605
3655.42	0.0016183
3665.06	0.0010475
3674.71	0.0013587
3684.35	0.0009728
3694	0.00106115
3703.64	0.0014733
3713.29	0.000266
3722.93	0.001337
3732.58	0.00205
3742.22	0.0014099
3751.86	0.000496
3761.51	0.000422
3771.15	0.000493
3780.8	0.0015186
3790.44	0.000136
3800.09	0.0018259
3809.73	0.000938
3819.38	0.000892
3829.02	0.000134
3838.67	0.00114222
3848.31	0.0016103
3857.96	0.00114339
3867.6	0.0014361
3877.25	0.001309
3886.89	0.000711
3896.54	0.000592
3906.18	0.0011281
3915.83	0.001271
3925.47	0.001682
3935.12	0.00109817
3944.76	0.0014065
3954.41	0.000965
3964.05	0.0011548
3973.69	0.0010131
3983.34	0.0012513
3992.98	0.0017182
