Infrared Spectrum: Methyl 3-bromomethylbenzoate
Formula: C 9 H 9 Br O 2
CAS: 1129-28-8
State: gas
Origin: EPA-IR VAPOR PHASE LIBRARY
1/CM	ABSORBANCE
549.8	0.005255
559.445	0.017595
569.09	0.010445
578.734	0.004135
588.379	0.003355
598.024	0.003275
607.669	0.005875
617.313	0.011395
626.958	0.020455
636.603	0.015875
646.248	0.008375
655.893	0.008205
665.537	0.010215
675.182	0.014355
684.827	0.020195
694.472	0.024935
704.116	0.012265
713.761	0.005585
723.406	0.004665
733.051	0.007525
742.695	0.019325
752.34	0.031765
761.985	0.017105
771.63	0.006015
781.275	0.006685
790.919	0.008925
800.564	0.006435
810.209	0.005585
819.854	0.003875
829.498	0.002495
839.143	0.002665
848.788	0.002935
858.433	0.003875
868.078	0.003675
877.722	0.003775
887.367	0.004215
897.012	0.005655
906.657	0.006855
916.301	0.007945
925.946	0.005265
935.591	0.002785
945.236	0.002635
954.88	0.002995
964.525	0.004075
974.17	0.007575
983.815	0.014025
993.46	0.017475
1003.1	0.010245
1012.75	0.005105
1022.39	0.003245
1032.04	0.003185
1041.68	0.003805
1051.33	0.005105
1060.97	0.008675
1070.62	0.021085
1080.26	0.036295
1089.91	0.040695
1099.55	0.061115
1109.2	0.060565
1118.84	0.029825
1128.49	0.018405
1138.13	0.014645
1147.78	0.014555
1157.42	0.015505
1167.07	0.021715
1176.71	0.035595
1186.36	0.082905
1196	0.120955
1205.64	0.094135
1215.29	0.141635
1224.93	0.133175
1234.58	0.047145
1244.22	0.033635
1253.87	0.034905
1263.51	0.051045
1273.16	0.112655
1282.8	0.217735
1292.45	0.159635
1302.09	0.085285
1311.74	0.041925
1321.38	0.019255
1331.03	0.013025
1340.67	0.009885
1350.32	0.007505
1359.96	0.005905
1369.61	0.005505
1379.25	0.005715
1388.9	0.006235
1398.54	0.006245
1408.18	0.006935
1417.83	0.009655
1427.47	0.018115
1437.12	0.039295
1446.76	0.039165
1456.41	0.016805
1466.05	0.010345
1475.7	0.008055
1485.34	0.008745
1494.99	0.006855
1504.63	0.004475
1514.28	0.003445
1523.92	0.003325
1533.57	0.003225
1543.21	0.003465
1552.86	0.004035
1562.5	0.004835
1572.15	0.005565
1581.79	0.008255
1591.44	0.010335
1601.08	0.007485
1610.73	0.007095
1620.37	0.005755
1630.01	0.004805
1639.66	0.004395
1649.3	0.004195
1658.95	0.004225
1668.59	0.004415
1678.24	0.004915
1687.88	0.005585
1697.53	0.010065
1707.17	0.015775
1716.82	0.017365
1726.46	0.030075
1736.11	0.094985
1745.75	0.231965
1755.4	0.099475
1765.04	0.024345
1774.69	0.016375
1784.33	0.016255
1793.98	0.011735
1803.62	0.005865
1813.27	0.003695
1822.91	0.003085
1832.55	0.003245
1842.2	0.003055
1851.84	0.002885
1861.49	0.002415
1871.13	0.002175
1880.78	0.002585
1890.42	0.003165
1900.07	0.003545
1909.71	0.002515
1919.36	0.0015368
1929	0.0015044
1938.65	0.001985
1948.29	0.002815
1957.94	0.002985
1967.58	0.002575
1977.23	0.002505
1986.87	0.002655
1996.52	0.002185
2006.16	0.0015047
2015.81	0.001472
2025.45	0.0013689
2035.1	0.0010505
2044.74	0.0013337
2054.38	0.001615
2064.03	0.001895
2073.67	0.002085
2083.32	0.002225
2092.96	0.002185
2102.61	0.001825
2112.25	0.001575
2121.9	0.0012786
2131.54	0.0011647
2141.19	0.0013557
2150.83	0.0012956
2160.48	0.0014492
2170.12	0.0014777
2179.77	0.0014334
2189.41	0.0011624
2199.06	0.0012115
2208.7	0.0010605
2218.35	0.0009724
2227.99	0.0008294
2237.64	0.000922
2247.28	0.000773
2256.92	0.000953
2266.57	0.0011039
2276.21	0.0011486
2285.86	0.0011455
2295.5	0.0010807
2305.15	0.0011151
2314.79	0.0013765
2324.44	0.0011858
2334.08	0.0012213
2343.73	0.001101
2353.37	0.0008954
2363.02	0.0007649
2372.66	0.0009567
2382.31	0.0012046
2391.95	0.0011934
2401.6	0.001095
2411.24	0.0013718
2420.89	0.0013683
2430.53	0.0011143
2440.18	0.0008026
2449.82	0.0008739
2459.47	0.0009353
2469.11	0.0010356
2478.75	0.0011359
2488.4	0.0011021
2498.04	0.0009264
2507.69	0.0009125
2517.33	0.0009593
2526.98	0.0010265
2536.62	0.0011781
2546.27	0.000808
2555.91	0.0010031
2565.56	0.0010347
2575.2	0.0012504
2584.85	0.0011848
2594.49	0.0012155
2604.14	0.0011934
2613.78	0.0011236
2623.43	0.0010585
2633.07	0.0010567
2642.72	0.0011815
2652.36	0.0012417
2662.01	0.0008438
2671.65	0.0009915
2681.29	0.0008435
2690.94	0.00064611
2700.58	0.0009626
2710.23	0.0010191
2719.87	0.0009699
2729.52	0.0009656
2739.16	0.000812
2748.81	0.0008841
2758.45	0.0009995
2768.1	0.0010169
2777.74	0.0011274
2787.39	0.0010784
2797.03	0.0012833
2806.68	0.0009686
2816.32	0.0011163
2825.97	0.001865
2835.61	0.002605
2845.26	0.005795
2854.9	0.006525
2864.55	0.003645
2874.19	0.003745
2883.84	0.004045
2893.48	0.004775
2903.12	0.005625
2912.77	0.006225
2922.41	0.006475
2932.06	0.006355
2941.7	0.008785
2951.35	0.019015
2960.99	0.039055
2970.64	0.022895
2980.28	0.013875
2989.93	0.010465
2999.57	0.010555
3009.22	0.009995
3018.86	0.009705
3028.51	0.011155
3038.15	0.010265
3047.8	0.008955
3057.44	0.009515
3067.09	0.010905
3076.73	0.009585
3086.38	0.007545
3096.02	0.005205
3105.67	0.004705
3115.31	0.003165
3124.95	0.002095
3134.6	0.0012296
3144.24	0.0015329
3153.89	0.0013279
3163.53	0.0010108
3173.18	0.0009556
3182.82	0.0013602
3192.47	0.0011837
3202.11	0.0008916
3211.76	0.0009754
3221.4	0.00065059
3231.05	0.0009056
3240.69	0.00067218
3250.34	0.0005331
3259.98	0.0005359
3269.63	0.00063206
3279.27	0.0008553
3288.92	0.000358
3298.56	0.0008591
3308.21	0.000448
3317.85	0.000936
3327.49	0.0009406
3337.14	0.0010066
3346.78	0.0008584
3356.43	0.000299
3366.07	0.0007519
3375.72	0.0008105
3385.36	0.0009249
3395.01	0.0005596
3404.65	0.0007989
3414.3	0.0008435
3423.94	0.0007536
3433.59	0.0009309
3443.23	0.0008512
3452.88	0.0013435
3462.52	0.0014823
3472.17	0.002775
3481.81	0.001975
3491.46	0.001675
3501.1	0.0009331
3510.75	0.0013553
3520.39	0.0007091
3530.04	0.0008298
3539.68	0.0008207
3549.32	0.0010631
3558.97	0.000578113
3568.61	0.0008587
3578.26	0.0004921
3587.9	0.000282
3597.55	0.00060829
3607.19	0.0006802
3616.84	0.0005458
3626.48	0.0005604
3636.13	0.0005212
3645.77	0.000179
3655.42	0.0009955
3665.06	0.00067431
3674.71	0.000375
3684.35	0.0005498
3694	0.0005231
3703.64	0.000409
3713.29	0.0006979
3722.93	0.000354
3732.58	0.00066401
3742.22	0.00064534
3751.86	0.0009953
3761.51	0.00060215
3771.15	0.0008575
3780.8	0.0005132
3790.44	0.0007011
3800.09	0.0007325
3809.73	0.0007293
3819.38	0.000354
3829.02	0.0009847
3838.67	0.000432
3848.31	0.00061522
3857.96	0.000417
3867.6	0.000342
3877.25	0.000438
3886.89	0.0005395
3896.54	0.0010607
3906.18	0.0007907
3915.83	0.000382
3925.47	0.0008787
3935.12	0.0005298
3944.76	0.0008394
3954.41	0.0008865
3964.05	0.0005523
3973.69	0.0010904
3983.34	0.0010794
3992.98	0.0008817
