Infrared Spectrum: 1-Isopropenyl-3-isopropylbenzene
Formula: C 12 H 16
CAS: 1129-29-9
State: gas
Instrument: HP-GC/MS/IRD
Origin: NIST Mass Spectrometry Data Center
1/CM	ABSORBANCE
550	0.00037
562	0.000185
574	0.0001875
586	0.0001525
598	3.5e-05
610	2.5e-06
622	0.0001225
634	0.000185
646	0.0001525
658	0.0001925
670	0.0002975
682	0.0013875
694	0.0037225
706	0.004005
718	0.002935
730	0.0012575
742	0.00042
754	0.0002525
766	0.0003975
778	0.001335
790	0.0042125
802	0.0036375
814	0.00132
826	0.000525
838	0.00033
850	0.000495
862	0.000955
874	0.002345
886	0.00596
898	0.0066425
910	0.0030475
922	0.00166
934	0.0012675
946	0.000805
958	0.0002375
970	0.0001725
982	0.0001425
994	0.0002825
1006	0.000475
1018	0.0003525
1030	0.0003425
1042	0.000705
1054	0.001075
1066	0.00101
1078	0.001145
1090	0.0010475
1102	0.0008475
1114	0.000455
1126	0.000245
1138	0.000235
1150	0.00018
1162	0.0001475
1174	0.0001775
1186	0.000285
1198	0.0008725
1210	0.0012775
1222	0.00044
1234	0.000305
1246	0.0006125
1258	0.0011975
1270	0.00128
1282	0.0013125
1294	0.0020825
1306	0.0023175
1318	0.0015325
1330	0.0011425
1342	0.0010475
1354	0.001215
1366	0.0023025
1378	0.0033175
1390	0.002615
1402	0.0017475
1414	0.00202
1426	0.00244
1438	0.0026025
1450	0.0032675
1462	0.0042975
1474	0.0041
1486	0.0038925
1498	0.0016575
1510	0.000755
1522	0.00057
1534	0.00047
1546	0.000535
1558	0.000955
1570	0.0019875
1582	0.0034875
1594	0.0047075
1606	0.0039
1618	0.002145
1630	0.00217
1642	0.00151
1654	0.000745
1666	0.000475
1678	0.00037
1690	0.0005425
1702	0.00038
1714	0.000175
1726	0.0001375
1738	0.0001575
1750	0.00021
1762	0.000325
1774	0.0005225
1786	0.000905
1798	0.0009
1810	0.000445
1822	0.0002225
1834	0.0001575
1846	0.0002175
1858	0.0004475
1870	0.00036
1882	0.000125
1894	9.25e-05
1906	0.0001
1918	0.000225
1930	0.00035
1942	0.0002225
1954	6.25e-05
1966	4.25e-05
1978	1.25e-05
1990	2.75e-05
2002	3.5e-05
2014	3.75e-05
2026	2.75e-05
2038	3.25e-05
2050	1.5e-05
2062	3.25e-05
2074	3.25e-05
2086	3e-05
2098	2.25e-05
2110	1.75e-05
2122	1.75e-05
2134	1.75e-05
2146	1.75e-05
2158	1.5e-05
2170	2.25e-05
2182	2e-05
2194	2.25e-05
2206	2.5e-05
2218	2e-05
2230	1e-05
2242	3.25e-05
2254	2.5e-05
2266	5e-05
2278	7.75e-05
2290	6.75e-05
2302	4.5e-05
2314	5e-05
2326	5.5e-05
2338	4.25e-05
2350	6e-05
2362	6.75e-05
2374	6.25e-05
2386	4.5e-05
2398	5e-05
2410	5.75e-05
2422	5e-05
2434	3.5e-05
2446	2.25e-05
2458	2.5e-05
2470	5.5e-05
2482	6.5e-05
2494	5.5e-05
2506	3.5e-05
2518	4e-05
2530	3.5e-05
2542	5e-05
2554	6.25e-05
2566	6e-05
2578	0.0001125
2590	0.0001325
2602	0.000125
2614	8e-05
2626	0.000105
2638	7.25e-05
2650	5.75e-05
2662	9.5e-05
2674	8e-05
2686	0.00013
2698	0.000105
2710	0.0001775
2722	0.00025
2734	0.00032
2746	0.000285
2758	0.0002675
2770	0.0003025
2782	0.0002925
2794	0.00036
2806	0.0004725
2818	0.00062
2830	0.0007875
2842	0.00117
2854	0.0019175
2866	0.0034425
2878	0.00577
2890	0.0061775
2902	0.006465
2914	0.006835
2926	0.008235
2938	0.0098675
2950	0.0106125
2962	0.02017
2974	0.022945
2986	0.01002
2998	0.0048425
3010	0.0034525
3022	0.00351
3034	0.0040475
3046	0.0045125
3058	0.0051175
3070	0.005365
3082	0.0050525
3094	0.00492
3106	0.001975
3118	0.0009325
3130	0.0006025
3142	0.0004175
3154	0.00038
3166	0.0003625
3178	0.00037
3190	0.00033
3202	0.00031
3214	0.000245
3226	0.0001975
3238	0.00016
3250	0.0001275
3262	0.0001225
3274	0.00011
3286	0.00011
3298	6.25e-05
3310	1.25e-05
3322	4.5e-05
3334	0
3346	4.5e-05
3358	3.5e-05
3370	4.5e-05
3382	0
3394	5.75e-05
3406	4.25e-05
3418	9e-05
3430	0.000105
3442	4.75e-05
3454	3e-05
3466	7.25e-05
3478	9e-05
3490	5.25e-05
3502	9.25e-05
3514	9e-05
3526	6.75e-05
3538	3.5e-05
3550	4.5e-05
3562	2e-05
3574	5.75e-05
3586	4.25e-05
3598	3.25e-05
3610	5.5e-05
3622	3.75e-05
3634	7e-05
3646	4.75e-05
3658	5.5e-05
3670	4.25e-05
3682	8.25e-05
3694	1.25e-05
3706	7.75e-05
3718	8.25e-05
3730	7.75e-05
3742	9.5e-05
3754	5.5e-05
3766	8e-05
3778	6e-05
3790	6e-05
3802	3.75e-05
3814	8.5e-05
3826	9.25e-05
3838	0.0001275
