Infrared Spectrum: Ether, isopentyl phenyl
Formula: C11 H16 O
CAS: 1129-64-2
State: LIQUID (NEAT)
Class: COBLENTZ III
Instrument: PERKIN-ELMER 21 (GRATING)
Instrument parameters: FILTER AT ABOUT 10 MICRONS
Path length: CAPILLARY
Resolution: 2
Origin: ABBOTT LABORATORIES
1/CM	TRANSMITTANCE
666	0.738
675	0.7351
684	0.5868
693	0.5809
702	0.78
711	0.8059
720	0.8062
729	0.7973
738	0.7325
747	0.365
756	0.436
765	0.7351
774	0.7994
783	0.7826
792	0.7606
801	0.7968
810	0.8338
819	0.8388
828	0.8406
837	0.8359
846	0.8207
855	0.8426
864	0.7932
873	0.728
882	0.7617
891	0.8513
900	0.8495
909	0.8363
918	0.8298
927	0.8509
936	0.8393
945	0.8326
954	0.8257
963	0.7957
972	0.7239
981	0.716
990	0.7324
999	0.7212
1008	0.6766
1017	0.6804
1026	0.5883
1035	0.6148
1044	0.6704
1053	0.604
1062	0.6958
1071	0.6401
1080	0.7361
1089	0.8151
1098	0.8101
1107	0.7988
1116	0.7779
1125	0.7668
1134	0.7465
1143	0.7311
1152	0.7235
1161	0.5688
1170	0.5771
1179	0.784
1188	0.7804
1197	0.7314
1206	0.6031
1215	0.4804
1224	0.4259
1233	0.221
1242	0.1292
1251	0.4141
1260	0.609
1269	0.6839
1278	0.6326
1287	0.6122
1296	0.5474
1305	0.7085
1314	0.7733
1323	0.7573
1332	0.7492
1341	0.7948
1350	0.7964
1359	0.726
1368	0.7443
1377	0.6355
1386	0.6706
1395	0.7836
1404	0.8196
1413	0.8108
1422	0.7886
1431	0.7831
1440	0.7539
1449	0.6542
1458	0.5368
1467	0.4174
1476	0.4974
1485	0.4475
1494	0.2557
1503	0.6817
1512	0.7974
1521	0.8192
1530	0.8271
1539	0.8288
1548	0.8244
1557	0.8073
1566	0.77
1575	0.7078
1584	0.4813
1593	0.438
1602	0.3438
1611	0.7439
1620	0.8247
1629	0.8346
1638	0.8388
1647	0.8423
1656	0.8456
1665	0.8483
1674	0.8496
1683	0.8518
1692	0.8578
1701	0.8634
1710	0.8659
1719	0.8681
1728	0.8701
1737	0.8716
1746	0.8702
1755	0.8686
1764	0.8693
1773	0.8724
1782	0.8757
1791	0.8758
1800	0.8749
1809	0.8732
1818	0.8695
1827	0.8669
1836	0.8692
1845	0.8726
1854	0.8755
1863	0.8782
1872	0.88
1881	0.8791
1890	0.8748
1899	0.8694
1908	0.8639
1917	0.8631
1926	0.8662
1935	0.8702
1944	0.874
1953	0.8772
1962	0.8782
1971	0.8786
1980	0.8785
1989	0.8774
1998	0.8764
2007	0.8748
2016	0.8725
2025	0.8704
2034	0.8716
2043	0.8751
2052	0.8788
2061	0.8821
2070	0.8842
2079	0.8858
2088	0.8868
2097	0.8877
2106	0.8886
2115	0.889
2124	0.889
2133	0.889
2142	0.889
2151	0.889
2160	0.889
2169	0.8888
2178	0.8886
2187	0.8885
2196	0.8884
2205	0.8882
2214	0.8881
2223	0.8877
2232	0.8872
2241	0.8866
2250	0.886
2259	0.8854
2268	0.8849
2277	0.8843
2286	0.8836
2295	0.8828
2304	0.882
2313	0.8812
2322	0.8804
2331	0.8797
2340	0.8793
2349	0.879
2358	0.8787
2367	0.8785
2376	0.8782
2385	0.8779
2394	0.8777
2403	0.8775
2412	0.8776
2421	0.8777
2430	0.8779
2439	0.878
2448	0.8781
2457	0.8783
2466	0.8784
2475	0.8785
2484	0.8785
2493	0.8784
2502	0.8783
2511	0.8783
2520	0.8782
2529	0.8781
2538	0.878
2547	0.8777
2556	0.8775
2565	0.8772
2574	0.877
2583	0.8768
2592	0.8765
2601	0.8756
2610	0.8744
2619	0.8733
2628	0.8721
2637	0.8709
2646	0.8698
2655	0.8678
2664	0.8657
2673	0.8635
2682	0.8614
2691	0.8588
2700	0.8558
2709	0.8538
2718	0.8524
2727	0.8526
2736	0.8529
2745	0.8535
2754	0.8524
2763	0.8498
2772	0.8431
2781	0.8335
2790	0.8232
2799	0.8058
2808	0.7894
2817	0.7718
2826	0.7477
2835	0.691
2844	0.6084
2853	0.5415
2862	0.5411
2871	0.5502
2880	0.5591
2889	0.5317
2898	0.4945
2907	0.4576
2916	0.4208
2925	0.3842
2934	0.3489
2943	0.3478
2952	0.443
2961	0.5637
2970	0.6838
2979	0.7832
2988	0.7878
2997	0.7865
3006	0.7827
3015	0.7756
3024	0.7723
3033	0.774
3042	0.7771
3051	0.7814
3060	0.7936
3069	0.8118
3078	0.8299
3087	0.8469
3096	0.8588
3105	0.8637
3114	0.8649
3123	0.8659
3132	0.8664
3141	0.8676
3150	0.8668
3159	0.8667
3168	0.8666
3177	0.8664
3186	0.8661
3195	0.8657
3204	0.8653
3213	0.8649
3222	0.8644
3231	0.8639
3240	0.8632
3249	0.8626
3258	0.8621
3267	0.8614
3276	0.8609
3285	0.8603
3294	0.8597
3303	0.8596
3312	0.8603
3321	0.8609
3330	0.8615
3339	0.8622
3348	0.8634
3357	0.8646
3366	0.8658
3375	0.867
3384	0.8681
3393	0.8692
3402	0.8703
3411	0.8714
3420	0.8725
3429	0.8733
3438	0.8743
3447	0.8751
3456	0.8761
3465	0.8769
3474	0.8778
3483	0.8789
3492	0.8801
3501	0.8813
3510	0.8825
3519	0.8837
3528	0.8849
3537	0.8858
3546	0.8865
3555	0.8873
3564	0.888
3573	0.8886
3582	0.889
3591	0.8893
3600	0.8897
3609	0.8899
3618	0.8897
3627	0.8896
3636	0.8894
3645	0.8892
3654	0.8889
3663	0.8885
3672	0.888
3681	0.8875
3690	0.887
3699	0.8865
3708	0.886
3717	0.8857
3726	0.8852
3735	0.8849
3744	0.8845
3753	0.8841
3762	0.8838
3771	0.8833
3780	0.883
3789	0.8827
3798	0.8824
3807	0.8821
3816	0.8818
3825	0.8815
3834	0.8812
3843	0.8809
3852	0.8806
3861	0.8801
3870	0.8795
3879	0.8789
3888	0.8785
3897	0.8779
3906	0.8774
3915	0.8768
3924	0.8763
3933	0.8757
3942	0.8751
3951	0.8747
3960	0.8741
3969	0.8735
3978	0.873
3987	0.8725
3996	0.872
