Infrared Spectrum: 1-Phenyl-1-hexyne
Formula: C 12 H 14
CAS: 1129-65-3
State: gas
Instrument: HP-GC/MS/IRD
Origin: NIST Mass Spectrometry Data Center
1/CM	ABSORBANCE
550	0.0007018
562	0.0005016
574	0.00033
586	0.0003432
598	0.000396
610	0.0003586
622	0.0002024
634	0.0002376
646	0.0004378
658	0.0010252
670	0.0026378
682	0.005456
694	0.0064482
706	0.0038258
718	0.0022814
730	0.00308
742	0.0068002
754	0.0094446
766	0.005753
778	0.0018568
790	0.000627
802	0.0002926
814	0.0002156
826	0.0001496
838	0.000132
850	0.0001606
862	0.0002046
874	0.000275
886	0.0003036
898	0.0005698
910	0.0007194
922	0.000528
934	0.000308
946	0.0002442
958	8.58e-05
970	6.6e-05
982	0.0003234
994	0.0005016
1006	0.0006446
1018	0.0006336
1030	0.000924
1042	0.0003828
1054	0.0007084
1066	0.000825
1078	0.0006314
1090	0.0005258
1102	0.0005236
1114	0.000198
1126	1.1e-05
1138	3.52e-05
1150	2.86e-05
1162	5.5e-05
1174	0.0001408
1186	9.24e-05
1198	0.0002354
1210	0.0002794
1222	0.0002904
1234	0.0003102
1246	0.00055
1258	0.0008052
1270	0.0008096
1282	0.0008096
1294	0.001232
1306	0.0018282
1318	0.0027214
1330	0.0035596
1342	0.0021582
1354	0.0019976
1366	0.0017226
1378	0.0012804
1390	0.0011308
1402	0.000748
1414	0.0008294
1426	0.001694
1438	0.003157
1450	0.0029326
1462	0.0028028
1474	0.0031196
1486	0.007128
1498	0.0050116
1510	0.0016456
1522	0.00066
1534	0.00044
1546	0.0003938
1558	0.0004422
1570	0.000748
1582	0.0015466
1594	0.0036608
1606	0.002783
1618	0.0005214
1630	0.0002596
1642	0.000242
1654	0.0003784
1666	0.0004774
1678	0.000198
1690	0.0001166
1702	0.0001386
1714	0.0002024
1726	0.0003278
1738	0.00033
1750	0.0003234
1762	0.0002156
1774	0.0002508
1786	0.000462
1798	0.0005434
1810	0.000319
1822	0.0002816
1834	0.0001716
1846	0.0002112
1858	0.0003058
1870	0.0004664
1882	0.0006248
1894	0.0003366
1906	0.000165
1918	0.0002486
1930	0.0004422
1942	0.0005632
1954	0.0006666
1966	0.0002376
1978	0.0001144
1990	9.24e-05
2002	8.8e-05
2014	9.46e-05
2026	0.0001056
2038	0.0001078
2050	0.0001188
2062	0.0001056
2074	9.24e-05
2086	5.94e-05
2098	0.0001056
2110	0.0001166
2122	9.9e-05
2134	0.0001012
2146	0.0001144
2158	0.0001122
2170	0.000143
2182	0.0002288
2194	0.0003124
2206	0.0005346
2218	0.0008162
2230	0.0009152
2242	0.0006622
2254	0.0004048
2266	0.000297
2278	0.0002134
2290	0.000176
2302	0.0001584
2314	0.0002332
2326	0.0001782
2338	0.0001716
2350	0.0001606
2362	0.0001276
2374	0.0001364
2386	0.0001166
2398	0.0001034
2410	9.9e-05
2422	0.0001122
2434	9.46e-05
2446	7.26e-05
2458	9.24e-05
2470	7.26e-05
2482	7.26e-05
2494	8.36e-05
2506	8.14e-05
2518	0.0001276
2530	0.0001452
2542	0.000165
2554	0.0001232
2566	0.0001496
2578	0.000176
2590	0.0001826
2602	0.0002156
2614	0.000187
2626	0.0001848
2638	0.0002464
2650	0.0003278
2662	0.000308
2674	0.0003476
2686	0.0003344
2698	0.0002684
2710	0.0002552
2722	0.0002662
2734	0.0003124
2746	0.0003894
2758	0.0004224
2770	0.0004752
2782	0.0004884
2794	0.0006402
2806	0.0007832
2818	0.0010582
2830	0.0015312
2842	0.0027038
2854	0.0044418
2866	0.0070202
2878	0.0082368
2890	0.0076252
2902	0.00715
2914	0.010087
2926	0.0158334
2938	0.022
2950	0.018007
2962	0.0161854
2974	0.0142384
2986	0.0064812
2998	0.003432
3010	0.002838
3022	0.0030712
3034	0.0041778
3046	0.0037422
3058	0.005214
3070	0.00726
3082	0.005038
3094	0.0042504
3106	0.0026444
3118	0.0011352
3130	0.000649
3142	0.0005434
3154	0.0004444
3166	0.0003982
3178	0.0003696
3190	0.0003212
3202	0.000363
3214	0.0002442
3226	0.0002464
3238	0.0002024
3250	0.0001958
3262	0.000154
3274	0.0001496
3286	0.000143
3298	0.0001144
3310	0.0001144
3322	0.0001628
3334	0.0001518
3346	0.0001144
3358	0.0001144
3370	6.82e-05
3382	0.0001056
3394	0.0001386
3406	0.000143
3418	0.0001232
3430	0.0001232
3442	0.0001408
3454	0.000143
3466	0.0001276
3478	0.0001958
3490	0.0001738
3502	0.000176
3514	0.0001188
3526	0.0001232
3538	9.24e-05
3550	0.0001166
3562	5.06e-05
3574	8.36e-05
3586	9.46e-05
3598	0.0001232
3610	0.0001144
3622	0.000121
3634	0.0001782
3646	0.0001408
3658	0.0001892
3670	0.0001848
3682	0.0001804
3694	0.0001276
3706	0.0002332
3718	0.0001518
3730	0.0001562
3742	0.0001606
3754	0.000143
3766	0.0001804
3778	0.000176
3790	0.0001826
3802	0.000154
3814	0.0002002
3826	0.0002134
3838	0.0001826
