Infrared Spectrum: MGK-264
Formula: C 17 H 25 N O 2
CAS: 113-48-4
State: gas
Instrument: HP-GC/MS/IRD
Origin: NIST Mass Spectrometry Data Center
1/CM	ABSORBANCE
550	6.4e-05
562	6.4e-05
574	2.56e-05
586	0.0003328
598	0.0017664
610	0.006144
622	0.0038272
634	0.0025856
646	0.0024064
658	0.0034048
670	0.0015104
682	0.0018048
694	0.0029568
706	0.0029184
718	0.0074112
730	0.012736
742	0.0036864
754	0.002112
766	0.0015616
778	0.0017408
790	0.0017664
802	0.001664
814	0.0019328
826	0.0037376
838	0.0036352
850	0.0023424
862	0.0017024
874	0.0029952
886	0.0041216
898	0.003776
910	0.0035456
922	0.0025856
934	0.0018304
946	0.0020608
958	0.0020992
970	0.0021376
982	0.0015872
994	0.0010624
1006	0.0009728
1018	0.0012032
1030	0.0018944
1042	0.0028672
1054	0.0023424
1066	0.0009728
1078	0.0009344
1090	0.0022144
1102	0.0025216
1114	0.004032
1126	0.0094592
1138	0.0085632
1150	0.0063104
1162	0.007552
1174	0.0122752
1186	0.0110336
1198	0.0061696
1210	0.0040448
1222	0.00384
1234	0.0026624
1246	0.0028288
1258	0.0032896
1270	0.0036096
1282	0.005056
1294	0.007232
1306	0.0076288
1318	0.010944
1330	0.0175104
1342	0.0225664
1354	0.0283776
1366	0.027008
1378	0.021568
1390	0.0294144
1402	0.019776
1414	0.00896
1426	0.0059392
1438	0.0091136
1450	0.0084352
1462	0.0080256
1474	0.0048768
1486	0.002304
1498	0.0015104
1510	0.0010624
1522	0.0008064
1534	0.0007808
1546	0.0007168
1558	0.00064
1570	0.0009088
1582	0.0009472
1594	0.0010368
1606	0.0010752
1618	0.0013056
1630	0.0017664
1642	0.0021888
1654	0.0020352
1666	0.0027904
1678	0.0049792
1690	0.011456
1702	0.0273024
1714	0.0983424
1726	0.103181
1738	0.0347648
1750	0.0140288
1762	0.00768
1774	0.0082304
1786	0.0081152
1798	0.0037376
1810	0.0021632
1822	0.0014208
1834	0.0010368
1846	0.0006528
1858	0.0005248
1870	0.0004224
1882	0.0004224
1894	0.0003584
1906	0.0003328
1918	0.0003328
1930	0.0003072
1942	0.0002304
1954	0.000192
1966	0.0001664
1978	0.0001536
1990	0.0001664
2002	0.0001792
2014	0.0001536
2026	0.0001536
2038	0.0002048
2050	0.0001536
2062	0.0001792
2074	0.0001408
2086	0.0001536
2098	0.0002176
2110	0.0001664
2122	0.0001664
2134	0.000128
2146	0.0001792
2158	0.0002048
2170	0.0001792
2182	0.0002048
2194	0.0002176
2206	0.0002048
2218	0.000192
2230	0.0001792
2242	0.0001408
2254	0.0001152
2266	8.96e-05
2278	0.000128
2290	0.0001152
2302	0.0001024
2314	0.000192
2326	0.000192
2338	0.0002048
2350	0.000192
2362	0.0001664
2374	0.0001408
2386	0.0001536
2398	0.0001152
2410	0.000128
2422	0.0001152
2434	0.0001152
2446	6.4e-05
2458	3.84e-05
2470	1.28e-05
2482	7.68e-05
2494	8.96e-05
2506	0.000128
2518	0.0001152
2530	0.0001408
2542	0.000192
2554	0.0001792
2566	0.000192
2578	0.0002176
2590	0.0002176
2602	0.000192
2614	0.0001792
2626	0.0001792
2638	0.000192
2650	0.0002688
2662	0.000256
2674	0.00032
2686	0.0003328
2698	0.0003712
2710	0.000448
2722	0.000512
2734	0.00064
2746	0.000704
2758	0.0007168
2770	0.0007424
2782	0.000832
2794	0.001088
2806	0.0013696
2818	0.0017792
2830	0.0024576
2842	0.0035968
2854	0.0066688
2866	0.013696
2878	0.0181376
2890	0.0153728
2902	0.0131968
2914	0.0179968
2926	0.027328
2938	0.0378368
2950	0.0333568
2962	0.0331904
2974	0.0352896
2986	0.0140928
2998	0.0133632
3010	0.0128128
3022	0.0032896
3034	0.0021888
3046	0.0017024
3058	0.0017536
3070	0.002688
3082	0.0025472
3094	0.0014848
3106	0.0012416
3118	0.0010368
3130	0.0008576
3142	0.0008192
3154	0.000512
3166	0.0003968
3178	0.0003328
3190	0.0002432
3202	0.0001792
3214	0.0001664
3226	0.0001536
3238	0.0001536
3250	0.000128
3262	0.0001408
3274	0.000128
3286	0.0001024
3298	7.68e-05
3310	0.0001024
3322	7.68e-05
3334	1.28e-05
3346	0.0001024
3358	3.84e-05
3370	0.000128
3382	0.000128
3394	0.0001024
3406	0.0001664
3418	0.0003456
3430	0.0004608
3442	0.0005248
3454	0.0005504
3466	0.0006912
3478	0.0011392
3490	0.001152
3502	0.0005504
3514	0.0003456
3526	0.0002048
3538	0.0001664
3550	7.68e-05
3562	0.0001536
3574	0.0001792
3586	8.96e-05
3598	6.4e-05
3610	8.96e-05
3622	0.0001024
3634	0.0001152
3646	0.000128
3658	8.96e-05
3670	0.0001024
3682	0.0001408
3694	0.0001664
3706	8.96e-05
3718	8.96e-05
3730	7.68e-05
3742	0.0001792
3754	0.0001664
3766	0.000192
3778	0.0003072
3790	0.0003072
3802	0.0002688
3814	0.00032
3826	0.0002432
3838	0.0001536
