Infrared Spectrum: 17B-Estradiol dipropionate
Formula: C 24 H 32 O 4
CAS: 113-38-2
State: gas
Origin: EPA-IR VAPOR PHASE LIBRARY
1/CM	ABSORBANCE
501.5	6.2e-05
513.074	0.0003628
524.648	0.0004783
536.222	0.0004347
547.796	0.0005917
559.37	0.000854
570.944	0.0005082
582.518	0.00031657
594.092	0.0005474
605.666	0.0006786
617.24	0.0005237
628.814	0.0004416
640.388	0.0003963
651.962	0.0003962
663.536	0.0003933
675.11	0.0003806
686.684	0.0004057
698.258	0.0004503
709.832	0.0004208
721.406	0.0003835
732.98	0.0004512
744.554	0.0004485
756.128	0.0004789
767.702	0.0006415
779.276	0.0009754
790.85	0.001266
802.423	0.001276
813.997	0.001796
825.571	0.001796
837.145	0.001486
848.719	0.001236
860.293	0.0012209
871.867	0.001746
883.441	0.003176
895.015	0.004156
906.589	0.002716
918.163	0.002956
929.737	0.002216
941.311	0.001746
952.885	0.002226
964.459	0.003116
976.033	0.004756
987.607	0.006686
999.181	0.007466
1010.76	0.009686
1022.33	0.008026
1033.9	0.010016
1045.48	0.010076
1057.05	0.012696
1068.63	0.013346
1080.2	0.012486
1091.77	0.010596
1103.35	0.009596
1114.92	0.012166
1126.49	0.016916
1138.07	0.024386
1149.64	0.033636
1161.22	0.034276
1172.79	0.037636
1184.36	0.038936
1195.94	0.030536
1207.51	0.023676
1219.09	0.021986
1230.66	0.018216
1242.23	0.012726
1253.81	0.011546
1265.38	0.009836
1276.96	0.009146
1288.53	0.006176
1300.1	0.003956
1311.68	0.003906
1323.25	0.006516
1334.83	0.009156
1346.4	0.010346
1357.97	0.007396
1369.55	0.004926
1381.12	0.005076
1392.7	0.004336
1404.27	0.002766
1415.84	0.003196
1427.42	0.003686
1438.99	0.004516
1450.57	0.005306
1462.14	0.006286
1473.71	0.007076
1485.29	0.009156
1496.86	0.011726
1508.44	0.004656
1520.01	0.002236
1531.58	0.001546
1543.16	0.001306
1554.73	0.001266
1566.31	0.001446
1577.88	0.002046
1589.45	0.002036
1601.03	0.002626
1612.6	0.002996
1624.18	0.001486
1635.75	0.0010026
1647.32	0.000875
1658.9	0.0008456
1670.47	0.0009147
1682.05	0.0010803
1693.62	0.001426
1705.19	0.002106
1716.77	0.003166
1728.34	0.005276
1739.92	0.011116
1751.49	0.024376
1763.06	0.018976
1774.64	0.018286
1786.21	0.012106
1797.79	0.005576
1809.36	0.002756
1820.93	0.001626
1832.51	0.0011136
1844.08	0.0008556
1855.66	0.0007535
1867.23	0.0008004
1878.8	0.0008344
1890.38	0.0006854
1901.95	0.0006269
1913.53	0.000587
1925.1	0.0005789
1936.67	0.0005886
1948.25	0.0005921
1959.82	0.000603
1971.4	0.0006082
1982.97	0.0006338
1994.54	0.0006363
2006.12	0.0006506
2017.69	0.0006519
2029.27	0.000682
2040.84	0.0006907
2052.41	0.0006917
2063.99	0.0006855
2075.56	0.0006439
2087.14	0.0006359
2098.71	0.0005884
2110.28	0.000555
2121.86	0.0005653
2133.43	0.0005614
2145.01	0.000544
2156.58	0.0005316
2168.15	0.0005469
2179.73	0.0005299
2191.3	0.0005225
2202.88	0.0005477
2214.45	0.000542
2226.02	0.0005542
2237.6	0.0005787
2249.17	0.0005679
2260.74	0.0005672
2272.32	0.0005685
2283.89	0.0005355
2295.47	0.0005782
2307.04	0.0005513
2318.61	0.0005414
2330.19	0.0006054
2341.76	0.0005984
2353.34	0.0006023
2364.91	0.000592
2376.48	0.0005805
2388.06	0.0005768
2399.63	0.0005748
2411.21	0.0005921
2422.78	0.0005814
2434.35	0.0005609
2445.93	0.0005779
2457.5	0.0005319
2469.08	0.0005359
2480.65	0.0004683
2492.22	0.0005101
2503.8	0.0005189
2515.37	0.0005497
2526.95	0.0005124
2538.52	0.0005312
2550.09	0.0005857
2561.67	0.0005628
2573.24	0.0005692
2584.82	0.0005951
2596.39	0.0006098
2607.96	0.0006193
2619.54	0.0006291
2631.11	0.0006788
2642.69	0.0006987
2654.26	0.0006762
2665.83	0.0006833
2677.41	0.0006687
2688.98	0.0006956
2700.56	0.0007092
2712.13	0.0007277
2723.7	0.000744
2735.28	0.0007868
2746.85	0.0008408
2758.43	0.0009081
2770	0.0009534
2781.57	0.0009447
2793.15	0.0010524
2804.72	0.0012103
2816.3	0.001486
2827.87	0.002406
2839.44	0.003906
2851.02	0.005676
2862.59	0.007466
2874.17	0.007256
2885.74	0.009176
2897.31	0.007676
2908.89	0.008226
2920.46	0.012516
2932.04	0.018016
2943.61	0.019986
2955.18	0.016776
2966.76	0.012046
2978.33	0.013116
2989.91	0.012266
3001.48	0.006026
3013.05	0.003726
3024.63	0.002776
3036.2	0.002766
3047.78	0.002216
3059.35	0.001676
3070.92	0.001606
3082.5	0.001566
3094.07	0.001236
3105.65	0.0011772
3117.22	0.0010292
3128.79	0.0008734
3140.37	0.0007812
3151.94	0.0007169
3163.52	0.0007357
3175.09	0.0006552
3186.66	0.0006666
3198.24	0.0006378
3209.81	0.0006134
3221.39	0.0005382
3232.96	0.0005509
3244.53	0.0005512
3256.11	0.0005216
3267.68	0.0005248
3279.26	0.0004919
3290.83	0.0005551
3302.4	0.0005194
3313.98	0.0005042
3325.55	0.0005176
3337.13	0.0005127
3348.7	0.0005225
3360.27	0.0004825
3371.85	0.0005324
3383.42	0.0005405
3395	0.0004638
3406.57	0.0004691
3418.14	0.0005005
3429.72	0.0005012
3441.29	0.0005386
3452.86	0.0005481
3464.44	0.0005921
3476.01	0.0006433
3487.59	0.000681
3499.16	0.0006643
3510.73	0.0006178
3522.31	0.0006304
3533.88	0.0006663
3545.46	0.0006511
3557.03	0.0006152
3568.6	0.0005641
3580.18	0.0004312
3591.75	0.0004704
3603.33	0.0004731
3614.9	0.0005093
3626.47	0.0005391
3638.05	0.0004987
3649.62	0.0004781
3661.2	0.0004692
3672.77	0.0005511
3684.34	0.0005174
3695.92	0.0005046
3707.49	0.0005826
3719.07	0.0004971
3730.64	0.0006232
3742.21	0.0005874
3753.79	0.0005859
3765.36	0.0006052
3776.94	0.0005772
3788.51	0.0006015
3800.08	0.0005631
3811.66	0.000611
3823.23	0.0005761
3834.81	0.0005191
3846.38	0.0005465
3857.95	0.0005528
3869.53	0.000492
3881.1	0.0005396
3892.68	0.0005933
3904.25	0.0005185
3915.82	0.0005767
3927.4	0.0006171
3938.97	0.0005891
3950.55	0.0005611
3962.12	0.0005758
3973.69	0.0006314
3985.27	0.0006544
3996.84	0.0005865
