Infrared Spectrum: 5-(3-DIMETHYLAMINOPROPYL)-10,11-DIHYDRO-5H-DIBENZ-[b,f]-AZEPINE, HYDROCHLORIDE
Formula: C19 H25 Cl N2
CAS: 113-52-0
State: SOLID (KBr DISC)
Class: COBLENTZ
Instrument: Not specified, most likely a prism spectrometer.
Instrument parameters: NaCl PRISM
Sampling: TRANSMISSION
Resolution: 2
Origin: SMITH KLINE & FRENCH LABS.
MICROMETERS	TRANSMITTANCE
2.007	0.436
2.04123	0.436
2.07546	0.439
2.10969	0.446
2.14392	0.45
2.17815	0.447
2.21238	0.448
2.24661	0.452
2.28084	0.448
2.31508	0.456
2.34931	0.454
2.38354	0.464
2.41777	0.47
2.452	0.474
2.48623	0.482
2.52046	0.49
2.55469	0.496
2.58892	0.498
2.62315	0.507
2.65738	0.521
2.69161	0.523
2.72584	0.53
2.76007	0.526
2.7943	0.504
2.82853	0.471
2.86277	0.452
2.897	0.442
2.93123	0.44
2.96546	0.447
2.99969	0.473
3.03392	0.52
3.06815	0.551
3.10238	0.553
3.13661	0.569
3.17084	0.582
3.20507	0.589
3.2393	0.57
3.27353	0.462
3.30776	0.424
3.34199	0.385
3.37622	0.367
3.41046	0.287
3.44469	0.275
3.47892	0.275
3.51315	0.287
3.54738	0.335
3.58161	0.413
3.61584	0.434
3.65007	0.437
3.6843	0.436
3.71853	0.37
3.75276	0.3
3.78699	0.269
3.82122	0.259
3.85545	0.251
3.88968	0.184
3.92391	0.184
3.95814	0.208
3.99238	0.212
4.02661	0.201
4.06084	0.175
4.09507	0.175
4.1293	0.186
4.16353	0.21
4.19776	0.273
4.23199	0.284
4.26622	0.293
4.30045	0.315
4.33468	0.358
4.36891	0.404
4.40314	0.425
4.43737	0.446
4.4716	0.47
4.50583	0.493
4.54007	0.513
4.5743	0.526
4.60853	0.541
4.64276	0.548
4.67699	0.548
4.71122	0.563
4.74545	0.581
4.77968	0.591
4.81391	0.6
4.84814	0.606
4.88237	0.614
4.9166	0.625
4.95083	0.631
4.98506	0.64
5.01929	0.648
5.05352	0.65
5.08776	0.654
5.12199	0.65
5.15622	0.619
5.19045	0.635
5.22468	0.612
5.25891	0.63
5.29314	0.641
5.32737	0.668
5.3616	0.68
5.39583	0.695
5.43006	0.692
5.46429	0.706
5.49852	0.685
5.53275	0.667
5.56698	0.685
5.60121	0.713
5.63545	0.719
5.66968	0.737
5.70391	0.743
5.73814	0.725
5.77237	0.731
5.8066	0.719
5.84083	0.729
5.87506	0.729
5.90929	0.721
5.94352	0.73
5.97775	0.737
6.01198	0.74
6.04621	0.743
6.08044	0.728
6.11467	0.707
6.1489	0.698
6.18313	0.665
6.21737	0.608
6.2516	0.423
6.28583	0.346
6.32006	0.424
6.35429	0.39
6.38852	0.532
6.42275	0.61
6.45698	0.748
6.49121	0.754
6.52544	0.763
6.55967	0.718
6.5939	0.634
6.62813	0.424
6.66236	0.274
6.69659	0.17
6.73082	0.142
6.76506	0.164
6.79929	0.16
6.83352	0.173
6.86775	0.182
6.90198	0.174
6.93621	0.168
6.97044	0.174
7.00467	0.17
7.0389	0.253
7.07313	0.32
7.10736	0.329
7.14159	0.328
7.17582	0.382
7.21005	0.414
7.24428	0.406
7.27851	0.474
7.31275	0.503
7.34698	0.492
7.38121	0.478
7.41544	0.473
7.44967	0.356
7.4839	0.309
7.51813	0.291
7.55236	0.325
7.58659	0.397
7.62082	0.379
7.65505	0.38
7.68928	0.378
7.72351	0.291
7.75774	0.306
7.79197	0.314
7.8262	0.34
7.86043	0.481
7.89467	0.535
7.9289	0.448
7.96313	0.34
7.99736	0.339
8.03159	0.315
8.06582	0.3
8.10005	0.263
8.13428	0.195
8.16851	0.176
8.20274	0.197
8.23697	0.192
8.2712	0.187
8.30543	0.285
8.33966	0.314
8.37389	0.39
8.40812	0.459
8.44236	0.496
8.47659	0.391
8.51082	0.293
8.54505	0.296
8.57928	0.303
8.61351	0.307
8.64774	0.302
8.68197	0.297
8.7162	0.36
8.75043	0.447
8.78466	0.481
8.81889	0.504
8.85312	0.415
8.88735	0.291
8.92158	0.295
8.95581	0.386
8.99005	0.302
9.02428	0.243
9.05851	0.286
9.09274	0.363
9.12697	0.419
9.1612	0.443
9.19543	0.451
9.22966	0.465
9.26389	0.479
9.29812	0.485
9.33235	0.485
9.36658	0.425
9.40081	0.391
9.43504	0.417
9.46927	0.403
9.5035	0.387
9.53774	0.453
9.57197	0.479
9.6062	0.457
9.64043	0.392
9.67466	0.373
9.70889	0.336
9.74312	0.352
9.77735	0.443
9.81158	0.514
9.84581	0.546
9.88004	0.523
9.91427	0.418
9.9485	0.404
9.98273	0.404
10.017	0.398
10.0512	0.482
10.0854	0.536
10.1197	0.57
10.1539	0.598
10.1881	0.602
10.2223	0.59
10.2566	0.582
10.2908	0.564
10.325	0.481
10.3593	0.401
10.3935	0.376
10.4277	0.451
10.462	0.524
10.4962	0.578
10.5304	0.61
10.5647	0.623
10.5989	0.569
10.6331	0.508
10.6673	0.44
10.7016	0.441
10.7358	0.453
10.77	0.532
10.8043	0.519
10.8385	0.481
10.8727	0.49
10.907	0.436
10.9412	0.475
10.9754	0.539
11.0097	0.579
11.0439	0.582
11.0781	0.565
11.1123	0.569
11.1466	0.604
11.1808	0.641
11.215	0.662
11.2493	0.684
11.2835	0.695
11.3177	0.701
11.352	0.704
11.3862	0.707
11.4204	0.707
11.4546	0.687
11.4889	0.619
11.5231	0.637
11.5573	0.634
11.5916	0.608
11.6258	0.571
11.66	0.554
11.6943	0.604
11.7285	0.674
11.7627	0.682
11.797	0.67
11.8312	0.626
11.8654	0.673
11.8996	0.713
11.9339	0.741
11.9681	0.745
12.0023	0.746
12.0366	0.74
12.0708	0.735
12.105	0.734
12.1393	0.74
12.1735	0.76
12.2077	0.779
12.242	0.793
12.2762	0.8
12.3104	0.813
12.3446	0.826
12.3789	0.828
12.4131	0.829
12.4473	0.83
12.4816	0.819
12.5158	0.793
12.55	0.79
12.5843	0.802
12.6185	0.817
12.6527	0.819
12.687	0.818
12.7212	0.813
12.7554	0.781
12.7896	0.728
12.8239	0.647
12.8581	0.532
12.8923	0.423
12.9266	0.315
12.9608	0.223
12.995	0.169
13.0293	0.173
13.0635	0.189
13.0977	0.185
13.1319	0.169
13.1662	0.208
13.2004	0.303
13.2346	0.319
13.2689	0.292
13.3031	0.274
13.3373	0.184
13.3716	0.168
13.4058	0.178
13.44	0.176
13.4743	0.171
13.5085	0.17
13.5427	0.195
13.5769	0.247
13.6112	0.313
13.6454	0.329
13.6796	0.363
13.7139	0.397
13.7481	0.425
13.7823	0.448
13.8166	0.468
13.8508	0.486
13.885	0.507
13.9193	0.512
13.9535	0.504
13.9877	0.459
14.0219	0.421
14.0562	0.401
14.0904	0.432
14.1246	0.479
14.1589	0.513
14.1931	0.536
14.2273	0.539
14.2616	0.558
14.2958	0.568
14.33	0.574
14.3643	0.584
14.3985	0.592
14.4327	0.597
14.4669	0.601
14.5012	0.602
14.5354	0.609
14.5696	0.614
14.6039	0.614
14.6381	0.619
14.6723	0.626
14.7066	0.63
14.7408	0.632
14.775	0.64
14.8092	0.647
