Infrared Spectrum: Chlorprothixine
Formula: C 18 H 18 Cl N S
CAS: 113-59-7
State: gas
Instrument: HP-GC/MS/IRD
Origin: NIST Mass Spectrometry Data Center
1/CM	ABSORBANCE
550	0.0006108
562	0.0003306
574	4.92e-05
586	0.0001146
598	0.0002814
610	0.0001686
622	0.0001842
634	0.0001554
646	0.0001344
658	0.000156
670	0.0002424
682	0.0002532
694	0.0001932
706	0.0003906
718	0.0003912
730	0.0013908
742	0.0036504
754	0.0030624
766	0.0011202
778	0.000564
790	0.000645
802	0.0023052
814	0.0025908
826	0.0008814
838	0.000834
850	0.0007278
862	0.000771
874	0.0007806
886	0.0014322
898	0.0009306
910	0.0004716
922	0.000699
934	0.0009276
946	0.0006594
958	0.0004908
970	0.0004278
982	0.0004506
994	0.0005322
1006	0.000738
1018	0.0012084
1030	0.0021078
1042	0.0028452
1054	0.0035634
1066	0.002322
1078	0.001665
1090	0.0031014
1102	0.004227
1114	0.0011502
1126	0.0013518
1138	0.001236
1150	0.0013644
1162	0.0014826
1174	0.0010398
1186	0.0005316
1198	0.0003894
1210	0.000444
1222	0.0005586
1234	0.0006774
1246	0.0008484
1258	0.0014148
1270	0.0014622
1282	0.001095
1294	0.0009768
1306	0.0007092
1318	0.0006504
1330	0.0006576
1342	0.0007176
1354	0.0010062
1366	0.001344
1378	0.0011634
1390	0.0011172
1402	0.0025626
1414	0.0015612
1426	0.0018384
1438	0.0043218
1450	0.0053988
1462	0.004896
1474	0.002013
1486	0.000933
1498	0.0005676
1510	0.0003834
1522	0.0003054
1534	0.0003912
1546	0.0007032
1558	0.0006882
1570	0.0007146
1582	0.000933
1594	0.0008112
1606	0.0004656
1618	0.0007986
1630	0.0010008
1642	0.0003654
1654	0.000231
1666	0.0001782
1678	0.0002322
1690	0.0002076
1702	0.0002358
1714	0.000207
1726	0.0001746
1738	0.0001878
1750	0.0001704
1762	0.0001488
1774	0.0001746
1786	0.0001968
1798	0.0001776
1810	0.0001338
1822	0.000141
1834	0.0001128
1846	8.22e-05
1858	0.0001524
1870	0.0002886
1882	0.000267
1894	0.0001596
1906	0.000225
1918	9.96e-05
1930	0.0001602
1942	0.0001494
1954	3.12e-05
1966	2.46e-05
1978	3.48e-05
1990	5.22e-05
2002	2.1e-05
2014	3.54e-05
2026	3.3e-05
2038	2.58e-05
2050	4.08e-05
2062	4.44e-05
2074	3.9e-05
2086	4.38e-05
2098	1.92e-05
2110	3.48e-05
2122	3.54e-05
2134	3.12e-05
2146	1.08e-05
2158	1.8e-06
2170	3.12e-05
2182	1.44e-05
2194	2.22e-05
2206	1.38e-05
2218	3.18e-05
2230	2.88e-05
2242	3.42e-05
2254	1.5e-05
2266	4.68e-05
2278	6.48e-05
2290	5.76e-05
2302	4.26e-05
2314	8.22e-05
2326	6.3e-05
2338	8.46e-05
2350	7.56e-05
2362	9.42e-05
2374	7.86e-05
2386	6.96e-05
2398	9.12e-05
2410	7.02e-05
2422	9.6e-05
2434	8.82e-05
2446	7.02e-05
2458	0.0001098
2470	8.94e-05
2482	0.0001032
2494	0.0001278
2506	0.0001314
2518	0.0001308
2530	0.0001338
2542	0.0001476
2554	0.0001404
2566	0.0001146
2578	0.000141
2590	0.0001374
2602	0.000171
2614	0.0002058
2626	0.0002016
2638	0.0001842
2650	0.0002784
2662	0.0002538
2674	0.000315
2686	0.0004122
2698	0.0005058
2710	0.0006576
2722	0.000927
2734	0.001074
2746	0.0013494
2758	0.00204
2770	0.0040104
2782	0.0049578
2794	0.004194
2806	0.003126
2818	0.0032808
2830	0.0031242
2842	0.0020604
2854	0.0019218
2866	0.002136
2878	0.0018948
2890	0.0019194
2902	0.0021684
2914	0.002331
2926	0.0026382
2938	0.003189
2950	0.0036912
2962	0.0030846
2974	0.0035496
2986	0.0027168
2998	0.0013392
3010	0.0012072
3022	0.0009858
3034	0.00072
3046	0.0006918
3058	0.0014586
3070	0.002895
3082	0.0012114
3094	0.0005238
3106	0.0003552
3118	0.000354
3130	0.0002874
3142	0.0002328
3154	0.0001758
3166	0.000159
3178	0.0001602
3190	0.0001596
3202	0.0001224
3214	0.0001134
3226	4.8e-05
3238	7.98e-05
3250	9e-05
3262	6.9e-05
3274	5.88e-05
3286	6.72e-05
3298	7.38e-05
3310	5.82e-05
3322	4.56e-05
3334	4.98e-05
3346	1.92e-05
3358	1.56e-05
3370	3e-05
3382	6.9e-05
3394	8.34e-05
3406	4.92e-05
3418	6.42e-05
3430	5.7e-05
3442	6.78e-05
3454	5.88e-05
3466	3.6e-05
3478	5.88e-05
3490	7.32e-05
3502	4.38e-05
3514	9.6e-06
3526	6.18e-05
3538	7.26e-05
3550	3.84e-05
3562	4.62e-05
3574	7.8e-05
3586	9.9e-05
3598	0.0001134
3610	0.0001308
3622	0.0001044
3634	8.1e-05
3646	0.0001074
3658	9.48e-05
3670	7.2e-05
3682	9.24e-05
3694	9.06e-05
3706	8.28e-05
3718	0.0001014
3730	0.0001554
3742	0.0001476
3754	7.08e-05
3766	0.0001614
3778	0.00012
3790	0.0001578
3802	0.0001074
3814	9.06e-05
3826	0.0001368
3838	0.000165
