Infrared Spectrum: Methylphenidate
Formula: C 14 H 19 N O 2
CAS: 113-45-1
State: gas
Instrument: HP-GC/MS/IRD
Origin: NIST Mass Spectrometry Data Center
1/CM	ABSORBANCE
550	0.0007215
562	2.25e-05
574	0.0002775
586	0.0005325
598	0.000486
610	0.000348
622	0.000357
634	0.0002085
646	0.0002595
658	0.0003105
670	0.0006765
682	0.0012525
694	0.003918
706	0.0035865
718	0.0025155
730	0.0029925
742	0.001833
754	0.0011535
766	0.001026
778	0.000942
790	0.000588
802	0.0001605
814	0.000189
826	0.0002775
838	0.0003165
850	0.000402
862	0.0003885
874	0.000573
886	0.000678
898	0.0004695
910	0.000249
922	0.0002085
934	0.000159
946	0.000135
958	0.000153
970	0.0002445
982	0.0003975
994	0.0008175
1006	0.002094
1018	0.0033435
1030	0.0025815
1042	0.0012675
1054	0.001194
1066	0.001167
1078	0.001059
1090	0.0011865
1102	0.0020895
1114	0.003441
1126	0.0048165
1138	0.0063
1150	0.010179
1162	0.0115425
1174	0.007644
1186	0.005826
1198	0.005721
1210	0.004956
1222	0.0049125
1234	0.0056685
1246	0.005628
1258	0.0053385
1270	0.004143
1282	0.0035895
1294	0.0037095
1306	0.003174
1318	0.0032625
1330	0.003405
1342	0.0037155
1354	0.0028455
1366	0.0017205
1378	0.001239
1390	0.0007305
1402	0.000561
1414	0.0008265
1426	0.0017205
1438	0.0038535
1450	0.0033585
1462	0.0031155
1474	0.0020295
1486	0.0013155
1498	0.0016875
1510	0.0005715
1522	0.000282
1534	0.000249
1546	0.000225
1558	0.0002145
1570	0.0003045
1582	0.0004515
1594	0.000732
1606	0.0008235
1618	0.0004635
1630	0.0004965
1642	0.00078
1654	0.000957
1666	0.000834
1678	0.000603
1690	0.0005385
1702	0.0008985
1714	0.001578
1726	0.002805
1738	0.007626
1750	0.0120945
1762	0.0087045
1774	0.004428
1786	0.0021435
1798	0.000999
1810	0.0004605
1822	0.0002565
1834	0.000219
1846	0.0001695
1858	0.000168
1870	0.00021
1882	0.0001965
1894	0.000168
1906	0.0001035
1918	0.0001035
1930	0.0001665
1942	0.0002655
1954	0.0002175
1966	0.000114
1978	8.55e-05
1990	8.85e-05
2002	7.2e-05
2014	9.45e-05
2026	0.000123
2038	0.00015
2050	9.6e-05
2062	0.0001065
2074	0.0001065
2086	8.7e-05
2098	7.65e-05
2110	9.3e-05
2122	0.0001155
2134	0.000126
2146	3.15e-05
2158	2.7e-05
2170	3.6e-05
2182	2.4e-05
2194	4.2e-05
2206	1.8e-05
2218	3.3e-05
2230	9e-06
2242	2.55e-05
2254	4.65e-05
2266	4.5e-05
2278	3.3e-05
2290	3.9e-05
2302	2.55e-05
2314	7.35e-05
2326	6.75e-05
2338	6e-05
2350	7.95e-05
2362	6.45e-05
2374	3.6e-05
2386	3.6e-05
2398	4.5e-05
2410	6e-06
2422	6e-06
2434	2.4e-05
2446	3.75e-05
2458	3e-05
2470	2.4e-05
2482	1.35e-05
2494	2.85e-05
2506	3.6e-05
2518	2.25e-05
2530	2.55e-05
2542	4.05e-05
2554	4.5e-05
2566	4.05e-05
2578	8.55e-05
2590	6.75e-05
2602	0.0001635
2614	0.000126
2626	0.0001455
2638	0.000174
2650	0.000219
2662	0.000282
2674	0.000258
2686	0.0002385
2698	0.0002715
2710	0.000342
2722	0.000369
2734	0.000399
2746	0.0004365
2758	0.000411
2770	0.00051
2782	0.0008265
2794	0.0015105
2806	0.0017535
2818	0.001713
2830	0.0018765
2842	0.0022545
2854	0.0033135
2866	0.003981
2878	0.002646
2890	0.002334
2902	0.0030075
2914	0.004974
2926	0.0089055
2938	0.0139875
2950	0.013377
2962	0.0078945
2974	0.00282
2986	0.0015465
2998	0.001485
3010	0.0014805
3022	0.00189
3034	0.0028125
3046	0.0021135
3058	0.001824
3070	0.002838
3082	0.0019185
3094	0.001329
3106	0.0007665
3118	0.000468
3130	0.0002445
3142	0.000135
3154	0.0001185
3166	0.000102
3178	7.05e-05
3190	5.85e-05
3202	1.8e-05
3214	4.35e-05
3226	4.05e-05
3238	5.1e-05
3250	4.95e-05
3262	7.5e-06
3274	6.9e-05
3286	3e-05
3298	5.1e-05
3310	3.6e-05
3322	3.45e-05
3334	0.0001095
3346	0.0001215
3358	0.0002925
3370	0.0001425
3382	0.000132
3394	0.000111
3406	0.0001125
3418	9.3e-05
3430	0.0001365
3442	9.45e-05
3454	0.0001755
3466	0.0001605
3478	0.0001185
3490	0.000156
3502	0.000108
3514	9.45e-05
3526	4.65e-05
3538	7.95e-05
3550	7.2e-05
3562	4.8e-05
3574	4.65e-05
3586	0.000102
3598	4.35e-05
3610	6.15e-05
3622	4.95e-05
3634	0.0001125
3646	7.05e-05
3658	1.95e-05
3670	9.3e-05
3682	5.1e-05
3694	1.05e-05
3706	5.55e-05
3718	8.4e-05
3730	6.45e-05
3742	9.45e-05
3754	0.000102
3766	6.15e-05
3778	4.65e-05
3790	4.5e-05
3802	5.4e-05
3814	3.15e-05
3826	4.8e-05
3838	3.75e-05
