Infrared Spectrum: N-Chloroacetyl-2,6-dimethylaniline
Formula: C 10 H 12 Cl N O
CAS: 1131-01-7
State: gas
Origin: EPA-IR VAPOR PHASE LIBRARY
1/CM	ABSORBANCE
551.7	0.00297
563.274	0.00259
574.848	0.00287
586.421	0.00383
597.995	0.00313
609.569	0.00231
621.143	0.00198
632.717	0.00194
644.291	0.00199
655.864	0.00209
667.438	0.00184
679.012	0.00176
690.586	0.00206
702.16	0.00316
713.734	0.0023
725.307	0.00216
736.881	0.0032
748.455	0.00657
760.029	0.02055
771.603	0.03056
783.177	0.01292
794.75	0.00403
806.324	0.00196
817.898	0.00142
829.472	0.00155
841.046	0.00149
852.619	0.00115
864.193	0.00106
875.767	0.00112
887.341	0.00127
898.915	0.00179
910.489	0.00241
922.062	0.00283
933.636	0.00207
945.21	0.00161
956.784	0.0014
968.358	0.00157
979.932	0.0016
991.505	0.00196
1003.08	0.00184
1014.65	0.00188
1026.23	0.00228
1037.8	0.00261
1049.37	0.00246
1060.95	0.00205
1072.52	0.00217
1084.1	0.00292
1095.67	0.00436
1107.24	0.00344
1118.82	0.00314
1130.39	0.00319
1141.97	0.00299
1153.54	0.00285
1165.11	0.00294
1176.69	0.00291
1188.26	0.00273
1199.83	0.00466
1211.41	0.00876
1222.98	0.01573
1234.56	0.01702
1246.13	0.01345
1257.7	0.01576
1269.28	0.01043
1280.85	0.00727
1292.42	0.00481
1304	0.00388
1315.57	0.00344
1327.15	0.00336
1338.72	0.00409
1350.29	0.00434
1361.87	0.00395
1373.44	0.00413
1385.02	0.0049
1396.59	0.00497
1408.16	0.00733
1419.74	0.01312
1431.31	0.01197
1442.88	0.01432
1454.46	0.01931
1466.03	0.03012
1477.61	0.05353
1489.18	0.07579
1500.75	0.06038
1512.33	0.02956
1523.9	0.01557
1535.48	0.01038
1547.05	0.00845
1558.62	0.00744
1570.2	0.00602
1581.77	0.0051
1593.34	0.00462
1604.92	0.00367
1616.49	0.0027
1628.07	0.0025
1639.64	0.00285
1651.21	0.00354
1662.79	0.00419
1674.36	0.00563
1685.93	0.00844
1697.51	0.0174
1709.08	0.04219
1720.66	0.0672
1732.23	0.04031
1743.8	0.01399
1755.38	0.00625
1766.95	0.00434
1778.53	0.00321
1790.1	0.0024
1801.67	0.00184
1813.25	0.00146
1824.82	0.00126
1836.39	0.00127
1847.97	0.00135
1859.54	0.0011
1871.12	0.0007538
1882.69	0.0006725
1894.26	0.0005883
1905.84	0.0007184
1917.41	0.00102
1928.99	0.00112
1940.56	0.0007226
1952.13	0.000493
1963.71	0.0004323
1975.28	0.0004148
1986.85	0.0003561
1998.43	0.000309
2010	0.0003542
2021.58	0.0003319
2033.15	0.0003085
2044.72	0.0003482
2056.3	0.000382
2067.87	0.0004412
2079.44	0.0003493
2091.02	0.0003631
2102.59	0.000309
2114.17	0.0002807
2125.74	0.0002853
2137.31	0.0003086
2148.89	0.0002906
2160.46	0.0003101
2172.04	0.0003077
2183.61	0.0003137
2195.18	0.0003207
2206.76	0.0002853
2218.33	0.0002235
2229.9	0.0002562
2241.48	0.000263
2253.05	0.0002864
2264.63	0.0002116
2276.2	0.0002866
2287.77	0.0002493
2299.35	0.0002663
2310.92	0.0002619
2322.5	0.000409
2334.07	0.0005181
2345.64	0.0005119
2357.22	0.0003815
2368.79	0.0002974
2380.36	0.0002908
2391.94	0.0002823
2403.51	0.0003536
2415.09	0.0003856
2426.66	0.0004106
2438.23	0.0004062
2449.81	0.0004011
2461.38	0.0003566
2472.96	0.0003692
2484.53	0.0002995
2496.1	0.0002977
2507.68	0.0002842
2519.25	0.0002146
2530.82	0.000207
2542.4	0.0003109
2553.97	0.000242
2565.55	0.0002438
2577.12	0.0002618
2588.69	0.0002195
2600.27	0.0002336
2611.84	0.0002346
2623.41	0.0002563
2634.99	0.0003402
2646.56	0.0003973
2658.14	0.0004332
2669.71	0.0004898
2681.28	0.0005194
2692.86	0.0004282
2704.43	0.0004287
2716.01	0.0004748
2727.58	0.0005908
2739.15	0.000768
2750.73	0.0007429
2762.3	0.000497
2773.87	0.0004307
2785.45	0.0004853
2797.02	0.0005672
2808.6	0.0006794
2820.17	0.0009223
2831.74	0.00113
2843.32	0.00175
2854.89	0.00292
2866.47	0.00441
2878.04	0.00483
2889.61	0.00429
2901.19	0.0044
2912.76	0.00594
2924.33	0.00945
2935.91	0.01157
2947.48	0.00914
2959.06	0.00821
2970.63	0.00863
2982.2	0.00921
2993.78	0.00693
3005.35	0.00453
3016.92	0.00509
3028.5	0.00661
3040.07	0.00749
3051.65	0.00883
3063.22	0.00931
3074.79	0.00763
3086.37	0.00435
3097.94	0.00222
3109.52	0.0012
3121.09	0.0009505
3132.66	0.0005821
3144.24	0.0005691
3155.81	0.0005259
3167.38	0.0004623
3178.96	0.0004263
3190.53	0.0003045
3202.11	0.0003885
3213.68	0.0003313
3225.25	0.0002458
3236.83	0.0001495
3248.4	0.0002636
3259.98	0.0002836
3271.55	0.0002495
3283.12	0.0003081
3294.7	0.0004228
3306.27	0.0004055
3317.84	0.0003329
3329.42	0.0003683
3340.99	0.0004581
3352.57	0.0006485
3364.14	0.0008496
3375.71	0.0009279
3387.29	0.00157
3398.86	0.00288
3410.43	0.00591
3422.01	0.0153
3433.58	0.01372
3445.16	0.00391
3456.73	0.00156
3468.3	0.0011
3479.88	0.0007336
3491.45	0.0005966
3503.03	0.0005318
3514.6	0.0003543
3526.17	0.0003629
3537.75	0.0002688
3549.32	0.0002739
3560.89	0.000283
3572.47	0.0002957
3584.04	0.0003121
3595.62	0.0004339
3607.19	0.0003832
3618.76	0.0002706
3630.34	0.0002828
3641.91	0.0002472
3653.49	0.0002661
3665.06	0.0002075
3676.63	0.0002853
3688.21	0.0003222
3699.78	0.0002604
3711.35	0.000249
3722.93	0.0002518
3734.5	0.0002254
3746.08	0.0002775
3757.65	0.0003452
3769.22	0.0002267
3780.8	0.0002411
3792.37	0.0002778
3803.94	0.00026
3815.52	0.0002789
3827.09	0.0002717
3838.67	0.0003102
3850.24	0.0002715
3861.81	0.0003501
3873.39	0.0002868
3884.96	0.000442
3896.54	0.0004025
3908.11	0.0003725
3919.68	0.0004987
3931.26	0.0003783
3942.83	0.000378
3954.4	0.0003573
3965.98	0.0004406
3977.55	0.0003451
3989.13	0.0003961
4000.7	0.0003711
