Infrared Spectrum: 4-Amino-3-bromo-5-nitrobenzotrifluoride
Formula: C 7 H 4 Br F 3 N 2 O 2
CAS: 113170-71-1
State: gas
Origin: EPA-IR VAPOR PHASE LIBRARY
1/CM	ABSORBANCE
549.8	0.01
559.445	0.00993
569.09	0.00903
578.735	0.00695
588.38	0.00602
598.025	0.00603
607.67	0.00806
617.315	0.01445
626.96	0.01051
636.605	0.01441
646.251	0.02919
655.896	0.06936
665.541	0.07204
675.186	0.02462
684.831	0.01134
694.476	0.01049
704.121	0.01391
713.766	0.02167
723.411	0.04267
733.056	0.06178
742.701	0.03633
752.346	0.02508
761.991	0.03801
771.636	0.03412
781.281	0.01704
790.926	0.01569
800.571	0.01691
810.216	0.01574
819.861	0.01221
829.507	0.01083
839.152	0.01609
848.797	0.01891
858.442	0.01457
868.087	0.01355
877.732	0.014
887.377	0.01878
897.022	0.04905
906.667	0.05843
916.312	0.02107
925.957	0.01311
935.602	0.01017
945.247	0.00976
954.892	0.0096
964.537	0.00911
974.182	0.00831
983.827	0.00814
993.472	0.00802
1003.12	0.00762
1012.76	0.00737
1022.41	0.00809
1032.05	0.0091
1041.7	0.00974
1051.34	0.01166
1060.99	0.0172
1070.63	0.02879
1080.28	0.04703
1089.92	0.04008
1099.57	0.04753
1109.21	0.08672
1118.86	0.10225
1128.5	0.07755
1138.15	0.1662
1147.79	0.37531
1157.44	0.17049
1167.08	0.09529
1176.73	0.2116
1186.37	0.11456
1196.02	0.03318
1205.66	0.02844
1215.31	0.0269
1224.95	0.02511
1234.6	0.03438
1244.24	0.09294
1253.89	0.10227
1263.53	0.06162
1273.18	0.11601
1282.82	0.31872
1292.47	0.49541
1302.11	0.26487
1311.76	0.09654
1321.4	0.115
1331.05	0.33115
1340.69	0.34099
1350.34	0.10856
1359.98	0.06186
1369.63	0.02709
1379.27	0.01658
1388.92	0.01218
1398.56	0.01088
1408.21	0.01118
1417.85	0.01125
1427.5	0.01278
1437.14	0.01322
1446.79	0.0134
1456.43	0.02184
1466.08	0.04462
1475.73	0.0453
1485.37	0.02526
1495.02	0.02285
1504.66	0.02711
1514.31	0.03943
1523.95	0.07849
1533.6	0.16317
1543.24	0.12383
1552.89	0.0844
1562.53	0.09283
1572.18	0.06635
1581.82	0.04447
1591.47	0.03652
1601.11	0.03333
1610.76	0.04475
1620.4	0.11502
1630.05	0.22497
1639.69	0.11763
1649.34	0.03545
1658.98	0.01611
1668.63	0.01036
1678.27	0.00828
1687.92	0.00648
1697.56	0.00507
1707.21	0.00405
1716.85	0.00369
1726.5	0.00322
1736.14	0.0026425
1745.79	0.0025039
1755.43	0.0024669
1765.08	0.0026707
1774.72	0.003
1784.37	0.00357
1794.01	0.00511
1803.66	0.00673
1813.3	0.0066
1822.95	0.0056
1832.59	0.00422
1842.24	0.00302
1851.88	0.0020953
1861.53	0.0017986
1871.17	0.00174627
1880.82	0.0018854
1890.46	0.0019398
1900.11	0.0020006
1909.75	0.0020699
1919.4	0.0021123
1929.04	0.0019468
1938.69	0.0018712
1948.33	0.0018556
1957.98	0.00168102
1967.62	0.001555
1977.27	0.001596
1986.91	0.0016069
1996.56	0.0016139
2006.2	0.001553
2015.85	0.001541
2025.49	0.001507
2035.14	0.001545
2044.78	0.00178554
2054.43	0.0019253
2064.07	0.0018968
2073.72	0.0018185
2083.36	0.0016505
2093.01	0.001461
2102.65	0.001443
2112.3	0.001452
2121.94	0.0016584
2131.59	0.0018143
2141.23	0.00174502
2150.88	0.0015922
2160.52	0.0016514
2170.17	0.0018387
2179.81	0.0021024
2189.46	0.0021729
2199.1	0.0023695
2208.75	0.0021308
2218.39	0.0020582
2228.04	0.0023322
2237.68	0.0026046
2247.33	0.0027
2256.97	0.0025493
2266.62	0.0025019
2276.26	0.0024757
2285.91	0.0025038
2295.55	0.0021888
2305.2	0.0020384
2314.84	0.002105
2324.49	0.0024453
2334.13	0.0025291
2343.78	0.002568
2353.42	0.0024699
2363.07	0.0023753
2372.72	0.0022999
2382.36	0.002266
2392.01	0.0021294
2401.65	0.0021014
2411.3	0.0019235
2420.94	0.0020109
2430.59	0.0020818
2440.23	0.0022024
2449.88	0.0021011
2459.52	0.002171
2469.17	0.0022899
2478.81	0.0019615
2488.46	0.0016534
2498.1	0.001571
2507.75	0.001571
2517.39	0.00171004
2527.04	0.0018826
2536.68	0.0020181
2546.33	0.0019624
2555.97	0.00173267
2565.62	0.0016494
2575.26	0.0018095
2584.91	0.0016424
2594.55	0.0016029
2604.2	0.0016416
2613.84	0.00175518
2623.49	0.0020469
2633.13	0.0026378
2642.78	0.00315
2652.42	0.00311
2662.07	0.00282
2671.71	0.0027
2681.36	0.0023482
2691	0.0019446
2700.65	0.0020045
2710.29	0.002072
2719.94	0.0019119
2729.58	0.0016747
2739.23	0.00177377
2748.87	0.0021377
2758.52	0.0021246
2768.16	0.0020646
2777.81	0.00169208
2787.45	0.001572
2797.1	0.001513
2806.74	0.00177226
2816.39	0.0017963
2826.03	0.0018527
2835.68	0.001947
2845.32	0.0020425
2854.97	0.0026654
2864.61	0.00309
2874.26	0.00337
2883.9	0.00291
2893.55	0.0023795
2903.19	0.0019217
2912.84	0.0019942
2922.48	0.0018433
2932.13	0.00177907
2941.77	0.0018015
2951.42	0.0018687
2961.06	0.0020725
2970.71	0.0019958
2980.35	0.00171097
2990	0.001301
2999.64	0.001023
3009.29	0.000943
3018.93	0.000836
3028.58	0.000956
3038.22	0.000907
3047.87	0.001246
3057.51	0.001251
3067.16	0.001419
3076.8	0.00173019
3086.45	0.00354
3096.09	0.00807
3105.74	0.00877
3115.38	0.00313
3125.03	0.001078
3134.67	0.0006
3144.32	0.00051
3153.96	0.00044
3163.61	0.00039
3173.25	0.000748
3182.9	0.00064
3192.54	0.00041
3202.19	0.0005
3211.83	0.00036
3221.48	0.00044
3231.12	0.00034
3240.77	0.00032
3250.41	8e-05
3260.06	0.00029
3269.7	0.00012
3279.35	0.00021
3289	0.00013
3298.64	0.00027
3308.29	0.00046
3317.93	0.00052
3327.58	0.000732
3337.22	0.000996
3346.87	0.00170275
3356.51	0.00299
3366.16	0.006
3375.8	0.01566
3385.45	0.03821
3395.09	0.06629
3404.74	0.04914
3414.38	0.0144
3424.03	0.00499
3433.67	0.00339
3443.32	0.00333
3452.96	0.00447
3462.61	0.00634
3472.25	0.01109
3481.9	0.01933
3491.54	0.03371
3501.19	0.05258
3510.83	0.07812
3520.48	0.06782
3530.12	0.01921
3539.77	0.00562
3549.41	0.0026114
3559.06	0.0016366
3568.7	0.001091
3578.35	0.00055
3587.99	0.00069
3597.64	0.00041
3607.28	0.00029
3616.93	0.00035
3626.57	0.00033
3636.22	0.00044
3645.86	0.00032
3655.51	0.00052
3665.15	0.00046
3674.8	0.00049
3684.44	0.00039
3694.09	0.00052
3703.73	0.00013
3713.38	8e-05
3723.02	0.00028
3732.67	0.00036
3742.31	0.000696
3751.96	0.00056
3761.6	0.00055
3771.25	0.00042
3780.89	0.00039
3790.54	0.00055
3800.18	0.00059
3809.83	0.00056
3819.47	0.0005
3829.12	0.00043
3838.76	0.00056
3848.41	0.00044
3858.05	0.0003
3867.7	0.00046
3877.34	0.00042
3886.99	0.00032
3896.63	0.00024
3906.28	0.00043
3915.92	0.00044
3925.57	0.00068
3935.21	0.00051
3944.86	0.00059
3954.5	0.00057
3964.15	0.00047
3973.79	0.00052
3983.44	0.000898
3993.08	0.000737
