Infrared Spectrum: Benzo[b]thiophene-3-acetic acid
Formula: C 10 H 8 O 2 S
CAS: 1131-09-5
State: gas
Origin: EPA-IR VAPOR PHASE LIBRARY
1/CM	ABSORBANCE
549.9	0.00023556
559.547	0.0003165
569.193	0.0006715
578.84	0.0009742
588.486	0.001636
598.133	0.002556
607.779	0.001906
617.426	0.001506
627.072	0.001266
636.719	0.0008824
646.365	0.0008618
656.012	0.0006328
665.658	0.0006017
675.305	0.0004937
684.951	0.0004422
694.598	0.0004555
704.245	0.0005641
713.891	0.0009313
723.538	0.001666
733.184	0.001666
742.831	0.001346
752.477	0.002046
762.124	0.001596
771.77	0.001296
781.417	0.0007429
791.063	0.0004427
800.71	0.0003367
810.356	0.0003527
820.003	0.00024461
829.649	0.0003769
839.296	0.000607
848.943	0.0007073
858.589	0.0006055
868.236	0.0004804
877.882	0.0004185
887.529	0.0003886
897.175	0.00027045
906.822	0.0003173
916.468	0.0003773
926.115	0.0003458
935.761	0.000389
945.408	0.0004527
955.054	0.00030337
964.701	0.00027532
974.347	0.00029
983.994	0.0003194
993.64	0.00026846
1003.29	0.00029706
1012.93	0.0005717
1022.58	0.000666
1032.23	0.0006041
1041.87	0.000595
1051.52	0.0007024
1061.17	0.0006661
1070.81	0.0010422
1080.46	0.001636
1090.11	0.002276
1099.75	0.003586
1109.4	0.005556
1119.05	0.005776
1128.69	0.003416
1138.34	0.002456
1147.99	0.001836
1157.63	0.001546
1167.28	0.0011131
1176.92	0.00115
1186.57	0.0010687
1196.22	0.0012103
1205.86	0.001266
1215.51	0.001236
1225.16	0.001256
1234.8	0.0008257
1244.45	0.0006985
1254.1	0.0008672
1263.74	0.0007955
1273.39	0.0006907
1283.04	0.000717
1292.68	0.0006697
1302.33	0.0007458
1311.98	0.0007337
1321.62	0.0007836
1331.27	0.0008448
1340.92	0.0009095
1350.56	0.0009577
1360.21	0.001147
1369.86	0.0010847
1379.5	0.0008506
1389.15	0.0007445
1398.79	0.0006301
1408.44	0.000661
1418.09	0.0008501
1427.73	0.001118
1437.38	0.0009104
1447.03	0.0005229
1456.67	0.0004879
1466.32	0.0004338
1475.97	0.00025451
1485.61	0.00028553
1495.26	0.0001981
1504.91	0.00028116
1514.55	0.00028945
1524.2	0.0003444
1533.85	0.0003832
1543.49	0.00029326
1553.14	0.00027256
1562.79	0.000372
1572.43	0.00029865
1582.08	0.00022815
1591.73	0.000221829
1601.37	0.00024103
1611.02	0.00028255
1620.67	0.00024704
1630.31	0.0002034
1639.96	0.0001653
1649.6	0.0002994
1659.25	0.00021449
1668.9	0.00029739
1678.54	0.00029354
1688.19	0.000368
1697.84	0.0004354
1707.48	0.0004793
1717.13	0.0006135
1726.78	0.0008087
1736.42	0.0010924
1746.07	0.001746
1755.72	0.002626
1765.36	0.003786
1775.01	0.005576
1784.66	0.005716
1794.3	0.004096
1803.95	0.002726
1813.6	0.001466
1823.24	0.0008073
1832.89	0.0004654
1842.54	0.0003433
1852.18	0.000224239
1861.83	0.00021093
1871.47	0.00025333
1881.12	0.00023574
1890.77	0.00024186
1900.41	0.0002515
1910.06	0.0001777
1919.71	0.000217187
1929.35	0.00024224
1939	0.0001849
1948.65	9.8e-05
1958.29	0.000115
1967.94	0.000102
1977.59	0.0001657
1987.23	0.000182
1996.88	0.0002011
2006.53	0.0001169
2016.17	0.000105
2025.82	0.000103
2035.47	0.0001341
2045.11	0.0001395
2054.76	0.00015
2064.41	0.000104
2074.05	0.0001304
2083.7	0.0001552
2093.35	0.000114
2102.99	0.0001499
2112.64	9.4e-05
2122.28	0.0001447
2131.93	0.0001731
2141.58	0.0001505
2151.22	6.9e-05
2160.87	0.0001379
2170.52	0.000109
2180.16	0.000109
2189.81	0.0001422
2199.46	0.0001358
2209.1	0.0001173
2218.75	9.7e-05
2228.4	0.0001292
2238.04	9.4e-05
2247.69	0.0001723
2257.34	0.0001422
2266.98	0.000104
2276.63	0.0001916
2286.28	0.00023818
2295.92	0.0003961
2305.57	0.0006694
2315.22	0.0008554
2324.86	0.0010716
2334.51	0.0009591
2344.16	0.0008742
2353.8	0.000965
2363.45	0.001336
2373.09	0.00103
2382.74	0.0005122
2392.39	0.00021417
2402.03	0.0001279
2411.68	0.00019
2421.33	0.0001595
2430.97	0.0001693
2440.62	0.000116
2450.27	0.0001791
2459.91	0.0001554
2469.56	0.0001596
2479.21	9e-05
2488.85	0.000112
2498.5	0.000173
2508.15	9.2e-05
2517.79	0.0001602
2527.44	0.0001611
2537.09	0.0001395
2546.73	0.0001173
2556.38	0.0001414
2566.03	7.6e-05
2575.67	0.0001615
2585.32	7.2e-05
2594.96	0.000178
2604.61	0.0001269
2614.26	0.000113
2623.9	0.0001416
2633.55	0.000113
2643.2	0.000101
2652.84	0.0001515
2662.49	4.9e-05
2672.14	0.0001856
2681.78	6.7e-05
2691.43	7.8e-05
2701.08	0.0001304
2710.72	0.000113
2720.37	4.3e-05
2730.02	0.0001634
2739.66	0.0001886
2749.31	0.0001361
2758.96	0.0001362
2768.6	0.00021247
2778.25	0.00023474
2787.9	0.0001648
2797.54	0.000161
2807.19	0.0001354
2816.84	0.000157
2826.48	0.0001908
2836.13	0.000225303
2845.77	0.0002007
2855.42	0.0001714
2865.07	0.00020803
2874.71	0.0001611
2884.36	0.00020777
2894.01	0.0001827
2903.65	8.3e-05
2913.3	0.0003608
2922.95	0.0005268
2932.59	0.0004706
2942.24	0.0005399
2951.89	0.0003544
2961.53	0.00024272
2971.18	0.0004392
2980.83	0.00030383
2990.47	0.000221757
3000.12	0.0004313
3009.77	0.0003707
3019.41	0.0004277
3029.06	0.0005015
3038.71	0.0004259
3048.35	0.0005628
3058	0.0006438
3067.64	0.0011337
3077.29	0.001226
3086.94	0.0008887
3096.58	0.0003923
3106.23	0.0003271
3115.88	0.000339
3125.52	0.00026648
3135.17	0.00030466
3144.82	0.00031115
3154.46	0.0003246
3164.11	0.0003445
3173.76	0.0001515
3183.4	0.0004474
3193.05	0.0003424
3202.7	0.00029619
3212.34	0.0003338
3221.99	0.0004519
3231.64	0.0003471
3241.28	0.00020975
3250.93	0.000336
3260.58	0.0001608
3270.22	0.00028309
3279.87	0.00030286
3289.52	0.0005499
3299.16	0.0003425
3308.81	0.00030465
3318.45	0.0003288
3328.1	0.0004642
3337.75	0.0003583
3347.39	0.0004807
3357.04	0.0003492
3366.69	0.0004545
3376.33	0.00024544
3385.98	0.00029694
3395.63	0.0004076
3405.27	0.0003824
3414.92	0.00026462
3424.57	0.0005346
3434.21	0.00029721
3443.86	0.0004977
3453.51	0.000517
3463.15	0.0003406
3472.8	0.00023296
3482.45	0.00023676
3492.09	0.0003659
3501.74	0.00030719
3511.39	0.0004287
3521.03	0.0007342
3530.68	0.0004897
3540.33	0.0005375
3549.97	0.0006233
3559.62	0.0009408
3569.26	0.002806
3578.91	0.003016
3588.56	0.0010243
3598.2	0.0004782
3607.85	0.000365
3617.5	0.0004312
3627.14	0.0003485
3636.79	0.0003498
3646.44	0.0004479
3656.08	0.0003318
3665.73	0.0003325
3675.38	0.000342
3685.02	0.00025663
3694.67	0.0004557
3704.32	0.00031399
3713.96	0.0003841
3723.61	0.00027968
3733.26	0.0003769
3742.9	0.0003496
3752.55	0.0003703
3762.2	0.000438
3771.84	0.000221618
3781.49	0.0003359
3791.13	0.0001676
3800.78	0.0003948
3810.43	0.0003479
3820.07	0.0003337
3829.72	0.0003559
3839.37	0.00022927
3849.01	0.00029219
3858.66	0.00029769
3868.31	0.0003209
3877.95	0.00029926
3887.6	0.0001962
3897.25	0.000220171
3906.89	0.000225537
3916.54	0.00026876
3926.19	0.0001789
3935.83	0.0003245
3945.48	0.000203
3955.13	0.0001978
3964.77	0.00021157
3974.42	0.00027291
3984.07	0.00026032
3993.71	0.00025759
