Infrared Spectrum: 1-Phenyl-3-methyl-5-aminopyrazole
Formula: C 10 H 11 N 3
CAS: 1131-18-6
State: gas
Origin: EPA-IR VAPOR PHASE LIBRARY
1/CM	ABSORBANCE
549.8	0.0187962
559.445	0.0213362
569.09	0.0210562
578.734	0.0216962
588.379	0.0222162
598.024	0.0189862
607.669	0.0134962
617.313	0.0122062
626.958	0.0131862
636.603	0.0144162
646.248	0.0156562
655.893	0.0175462
665.537	0.0177562
675.182	0.0283162
684.827	0.0378862
694.472	0.0374962
704.116	0.0261062
713.761	0.0151862
723.406	0.0160962
733.051	0.0266562
742.695	0.0443662
752.34	0.0599762
761.985	0.0488162
771.63	0.0250662
781.275	0.0165262
790.919	0.0155362
800.564	0.0113962
810.209	0.0083662
819.854	0.0070362
829.498	0.0071662
839.143	0.0065562
848.788	0.0051762
858.433	0.0048862
868.078	0.0048862
877.722	0.0045162
887.367	0.0044062
897.012	0.0050962
906.657	0.0065662
916.301	0.0060362
925.946	0.0041962
935.591	0.0039862
945.236	0.0038962
954.88	0.0047962
964.525	0.0071862
974.17	0.0087262
983.815	0.0078362
993.46	0.0107162
1003.1	0.0165362
1012.75	0.0224762
1022.39	0.0238562
1032.04	0.0119962
1041.68	0.0074762
1051.33	0.0074862
1060.97	0.0091762
1070.62	0.0096162
1080.26	0.0085762
1089.91	0.0074462
1099.55	0.0063562
1109.2	0.0056762
1118.84	0.0051262
1128.49	0.0070262
1138.13	0.0092262
1147.78	0.0083962
1157.42	0.0058462
1167.07	0.0047262
1176.71	0.0032762
1186.36	0.0018362
1196	0.0013062
1205.64	0.0010862
1215.29	0.0015562
1224.93	0.0014962
1234.58	0.0016362
1244.22	0.0018662
1253.87	0.0021162
1263.51	0.0015562
1273.16	0.0025062
1282.8	0.0043362
1292.45	0.0073662
1302.09	0.0089462
1311.74	0.0089962
1321.38	0.0083262
1331.03	0.0079862
1340.67	0.0088862
1350.32	0.0130762
1359.96	0.0230162
1369.61	0.0304262
1379.25	0.0300962
1388.9	0.0429962
1398.54	0.0491862
1408.18	0.0314862
1417.83	0.0197962
1427.47	0.0213962
1437.12	0.0301362
1446.76	0.0414962
1456.41	0.0470262
1466.05	0.0431962
1475.7	0.0369862
1485.34	0.0446062
1494.99	0.0817162
1504.63	0.122426
1514.28	0.0921362
1523.92	0.0361662
1533.57	0.0235962
1543.21	0.0292962
1552.86	0.0554762
1562.5	0.0999762
1572.15	0.0873862
1581.79	0.0598362
1591.44	0.0737962
1601.08	0.0926462
1610.73	0.0874862
1620.37	0.0659762
1630.01	0.0399162
1639.66	0.0208262
1649.3	0.0125462
1658.95	0.0091662
1668.59	0.0069862
1678.24	0.0056262
1687.88	0.0042762
1697.53	0.0036762
1707.17	0.0036862
1716.82	0.0038462
1726.46	0.0041262
1736.11	0.0038462
1745.75	0.0035962
1755.4	0.0029862
1765.04	0.0025262
1774.69	0.0022762
1784.33	0.0026562
1793.98	0.0030962
1803.62	0.0022962
1813.27	0.0020062
1822.91	0.0018062
1832.55	0.0015962
1842.2	0.0015162
1851.84	0.0017362
1861.49	0.0023162
1871.13	0.0026462
1880.78	0.0026962
1890.42	0.0020262
1900.07	0.0013062
1909.71	0.0011862
1919.36	0.0014762
1929	0.0022362
1938.65	0.0029662
1948.29	0.0032962
1957.94	0.0029162
1967.58	0.0016262
1977.23	0.0011662
1986.87	0.0011162
1996.52	0.0009429
2006.16	0.0009075
2015.81	0.0007893
2025.45	0.0007915
2035.1	0.0007623
2044.74	0.0007222
2054.38	0.0008834
2064.03	0.0008651
2073.67	0.000773
2083.32	0.0009506
2092.96	0.0008939
2102.61	0.0008833
2112.25	0.0008927
2121.9	0.0008832
2131.54	0.0008715
2141.19	0.0009784
2150.83	0.0011462
2160.48	0.0011462
2170.12	0.0010962
2179.77	0.0009121
2189.41	0.0009803
2199.06	0.000938
2208.7	0.0008451
2218.35	0.0007902
2227.99	0.0007587
2237.64	0.0009405
2247.28	0.0010066
2256.92	0.0009052
2266.57	0.0009334
2276.21	0.0010099
2285.86	0.0010662
2295.5	0.0009423
2305.15	0.0010062
2314.79	0.0012162
2324.44	0.0011162
2334.08	0.0010181
2343.73	0.000801
2353.37	0.0006857
2363.02	0.0005822
2372.66	0.0005711
2382.31	0.0005945
2391.95	0.0007069
2401.6	0.0007336
2411.24	0.0007587
2420.89	0.0007207
2430.53	0.0006793
2440.18	0.0005742
2449.82	0.0007049
2459.47	0.0006359
2469.11	0.0007203
2478.75	0.0007691
2488.4	0.0006535
2498.04	0.0005261
2507.69	0.0005809
2517.33	0.0005548
2526.98	0.0006466
2536.62	0.0006905
2546.27	0.0007081
2555.91	0.0007657
2565.56	0.0009346
2575.2	0.0009336
2584.85	0.0009024
2594.49	0.0010362
2604.14	0.0012262
2613.78	0.0012062
2623.43	0.0012062
2633.07	0.0010047
2642.72	0.0011062
2652.36	0.0009293
2662.01	0.0009086
2671.65	0.0009629
2681.29	0.0010862
2690.94	0.0010309
2700.58	0.0010017
2710.23	0.0009675
2719.87	0.001008
2729.52	0.0011362
2739.16	0.0010259
2748.81	0.0009444
2758.45	0.0011762
2768.1	0.0013062
2777.74	0.0014062
2787.39	0.0013462
2797.03	0.0016062
2806.68	0.0016062
2816.32	0.0019062
2825.97	0.0028362
2835.61	0.0026662
2845.26	0.0027262
2854.9	0.0032462
2864.55	0.0046162
2874.19	0.0067862
2883.84	0.0074862
2893.48	0.0068362
2903.12	0.0066562
2912.77	0.0084862
2922.41	0.0138462
2932.06	0.0240562
2941.7	0.0224762
2951.35	0.0116062
2960.99	0.0087662
2970.64	0.0072562
2980.28	0.0055962
2989.93	0.0054662
2999.57	0.0057462
3009.22	0.0047662
3018.86	0.0055462
3028.51	0.0086962
3038.15	0.0131362
3047.8	0.0169762
3057.44	0.0180962
3067.09	0.0211662
3076.73	0.0235362
3086.38	0.0158862
3096.02	0.0097662
3105.67	0.0078862
3115.31	0.0057962
3124.95	0.0038562
3134.6	0.0026962
3144.24	0.0017862
3153.89	0.0012262
3163.53	0.0010662
3173.18	0.001029
3182.82	0.0009625
3192.47	0.000906
3202.11	0.0007922
3211.76	0.0008611
3221.4	0.0008245
3231.05	0.0007928
3240.69	0.0008094
3250.34	0.000745
3259.98	0.0008065
3269.63	0.0007693
3279.27	0.000808
3288.92	0.000627
3298.56	0.0010862
3308.21	0.000846
3317.85	0.0009123
3327.49	0.0007328
3337.14	0.0007265
3346.78	0.0010017
3356.43	0.0009071
3366.07	0.0016662
3375.72	0.0039162
3385.36	0.0063862
3395.01	0.0056862
3404.65	0.0037362
3414.3	0.0029362
3423.94	0.0021162
3433.59	0.0019962
3443.23	0.0023362
3452.88	0.0036762
3462.52	0.0069662
3472.17	0.0102062
3481.81	0.0092662
3491.46	0.0065662
3501.1	0.0045262
3510.75	0.0029662
3520.39	0.0021062
3530.04	0.0014562
3539.68	0.0011162
3549.32	0.0010027
3558.97	0.0008776
3568.61	0.0009651
3578.26	0.0009222
3587.9	0.0007298
3597.55	0.0008696
3607.19	0.0005158
3616.84	0.0006192
3626.48	0.0007306
3636.13	0.0006366
3645.77	0.0005214
3655.42	0.000779
3665.06	0.0006632
3674.71	0.0007057
3684.35	0.0007324
3694	0.0008321
3703.64	0.0008592
3713.29	0.0006028
3722.93	0.0005867
3732.58	0.000519
3742.22	0.0006189
3751.86	0.0005042
3761.51	0.0007999
3771.15	0.0004654
3780.8	0.0002608
3790.44	0.0007134
3800.09	0.0002988
3809.73	0.0003039
3819.38	0.0003835
3829.02	0.000367
3838.67	0.0003291
3848.31	0.0005211
3857.96	0.0004467
3867.6	0.0005085
3877.25	0.0004129
3886.89	0.00012336
3896.54	0.0003604
3906.18	0.0007319
3915.83	0.0007224
3925.47	0.0006259
3935.12	0.0004514
3944.76	0.0006543
3954.41	0.0009224
3964.05	0.000484
3973.69	0.0005314
3983.34	0.0007361
3992.98	0.0007747
