Infrared Spectrum: Imidazole, 5(4)-(methylthio)-4(5)-nitro-
Formula: C4 H5 N3 O2 S
CAS: 113121-55-4
State: SOLID (0.9 mg / 650 mg KBr DISC)
Class: COBLENTZ III
Instrument: PERKIN-ELMER 21 (GRATING)
Instrument parameters: FILTER CHANGE ABOUT 1070 CM^-^1
Resolution: 2
Origin: SOUTHERN RESEARCH INSTITUTE
1/CM	TRANSMITTANCE
623.24	0.8384
632.284	0.8335
641.328	0.8825
650.373	0.8911
659.417	0.8877
668.461	0.8561
677.505	0.8901
686.549	0.8785
695.594	0.8509
704.638	0.8262
713.682	0.8353
722.726	0.8334
731.77	0.7955
740.815	0.6681
749.859	0.7248
758.903	0.7893
767.947	0.7748
776.991	0.754
786.036	0.7262
795.08	0.6823
804.124	0.5039
813.168	0.562
822.212	0.697
831.257	0.6839
840.301	0.6522
849.345	0.5537
858.389	0.4709
867.433	0.5622
876.478	0.6553
885.522	0.6768
894.566	0.6574
903.61	0.6011
912.655	0.5368
921.699	0.5079
930.743	0.4935
939.787	0.3915
948.831	0.4392
957.876	0.6193
966.92	0.6782
975.964	0.7625
985.008	0.7536
994.052	0.7366
1003.1	0.7168
1012.14	0.7104
1021.18	0.6981
1030.23	0.6654
1039.27	0.6368
1048.32	0.5293
1057.36	0.2509
1066.41	0.4922
1075.45	0.7749
1084.49	0.719
1093.54	0.6979
1102.58	0.686
1111.63	0.6658
1120.67	0.6369
1129.72	0.6321
1138.76	0.609
1147.8	0.4257
1156.85	0.5755
1165.89	0.626
1174.94	0.597
1183.98	0.5114
1193.02	0.4663
1202.07	0.4795
1211.11	0.4911
1220.16	0.4596
1229.2	0.3057
1238.25	0.2029
1247.29	0.2274
1256.33	0.1749
1265.38	0.3983
1274.42	0.264
1283.47	0.509
1292.51	0.4913
1301.56	0.3463
1310.6	0.3185
1319.64	0.2829
1328.69	0.1088
1337.73	0.069
1346.78	0.0704
1355.82	0.0382
1364.86	0.0464
1373.91	0.0697
1382.95	0.1919
1392	0.3264
1401.04	0.2876
1410.09	0.2643
1419.13	0.3369
1428.17	0.3388
1437.22	0.3263
1446.26	0.4305
1455.31	0.3297
1464.35	0.1494
1473.4	0.0434
1482.44	0.0262
1491.48	0.049
1500.53	0.1737
1509.57	0.45
1518.62	0.5025
1527.66	0.5101
1536.7	0.5195
1545.75	0.6022
1554.79	0.7851
1563.84	0.7985
1572.88	0.8116
1581.93	0.8279
1590.97	0.8245
1600.01	0.8037
1609.06	0.7913
1618.1	0.7808
1627.15	0.7764
1636.19	0.7749
1645.23	0.7739
1654.28	0.7713
1663.32	0.7644
1672.37	0.7581
1681.41	0.7469
1690.46	0.73
1699.5	0.7066
1708.54	0.6886
1717.59	0.6802
1726.63	0.6838
1735.68	0.6882
1744.72	0.6854
1753.77	0.6842
1762.81	0.6842
1771.85	0.6845
1780.9	0.6853
1789.94	0.6889
1798.99	0.6918
1808.03	0.6886
1817.07	0.6861
1826.12	0.6959
1835.16	0.7046
1844.21	0.7069
1853.25	0.71
1862.3	0.7163
1871.34	0.7218
1880.38	0.7274
1889.43	0.7316
1898.47	0.7357
1907.52	0.7387
1916.56	0.7397
1925.61	0.7379
1934.65	0.7364
1943.69	0.7367
1952.74	0.7396
1961.78	0.7392
1970.83	0.7387
1979.87	0.7379
1988.91	0.7341
1997.96	0.7309
2007	0.7308
2016.05	0.7305
2025.09	0.7297
2034.14	0.7279
2043.18	0.7252
2052.22	0.7218
2061.27	0.7172
2070.31	0.7101
2079.36	0.7025
2088.4	0.6992
2097.45	0.6983
2106.49	0.6949
2115.53	0.6892
2124.58	0.6832
2133.62	0.6761
2142.67	0.6698
2151.71	0.6622
2160.75	0.6544
2169.8	0.6469
2178.84	0.6412
2187.89	0.6353
2196.93	0.6236
2205.98	0.6152
2215.02	0.6076
2224.06	0.5991
2233.11	0.5904
2242.15	0.5843
2251.2	0.5765
2260.24	0.5653
2269.28	0.5579
2278.33	0.5513
2287.37	0.5365
2296.42	0.5305
2305.46	0.5232
2314.51	0.5107
2323.55	0.4974
2332.59	0.4849
2341.64	0.4774
2350.68	0.474
2359.73	0.467
2368.77	0.4615
2377.82	0.462
2386.86	0.4632
2395.9	0.4581
2404.95	0.4526
2413.99	0.4465
2423.04	0.4398
2432.08	0.4322
2441.12	0.4228
2450.17	0.4145
2459.21	0.4044
2468.26	0.392
2477.3	0.3812
2486.35	0.3752
2495.39	0.3723
2504.43	0.3706
2513.48	0.37
2522.52	0.3686
2531.57	0.3674
2540.61	0.3623
2549.66	0.3455
2558.7	0.3388
2567.74	0.3395
2576.79	0.3425
2585.83	0.344
2594.88	0.3442
2603.92	0.3508
2612.96	0.3603
2622.01	0.3666
2631.05	0.3682
2640.1	0.3721
2649.14	0.3763
2658.19	0.3767
2667.23	0.3724
2676.27	0.3632
2685.32	0.359
2694.36	0.3391
2703.41	0.3266
2712.45	0.3192
2721.5	0.3171
2730.54	0.3179
2739.58	0.3265
2748.63	0.3262
2757.67	0.338
2766.72	0.3606
2775.76	0.383
2784.8	0.3883
2793.85	0.395
2802.89	0.4044
2811.94	0.4136
2820.98	0.4283
2830.03	0.4284
2839.07	0.4278
2848.11	0.4282
2857.16	0.4302
2866.2	0.434
2875.25	0.4403
2884.29	0.4497
2893.34	0.4615
2902.38	0.4639
2911.42	0.4569
2920.47	0.441
2929.51	0.4225
2938.56	0.4161
2947.6	0.4232
2956.64	0.4337
2965.69	0.425
2974.73	0.4224
2983.78	0.4242
2992.82	0.4308
3001.87	0.4506
3010.91	0.4791
3019.95	0.5056
3029	0.5214
3038.04	0.5238
3047.09	0.5211
3056.13	0.5134
3065.17	0.4938
3074.22	0.4707
3083.26	0.4655
3092.31	0.4859
3101.35	0.5377
3110.4	0.6151
3119.44	0.6324
3128.48	0.6405
3137.53	0.6423
3146.57	0.6406
3155.62	0.6403
3164.66	0.6422
3173.71	0.6443
3182.75	0.6461
3191.79	0.6473
3200.84	0.6468
3209.88	0.6444
3218.93	0.642
3227.97	0.6405
3237.01	0.6378
3246.06	0.6346
3255.1	0.6306
3264.15	0.6267
3273.19	0.6234
3282.24	0.6202
3291.28	0.6177
3300.32	0.6151
3309.37	0.6114
3318.41	0.6064
3327.46	0.6013
3336.5	0.5949
3345.55	0.5885
3354.59	0.582
3363.63	0.5737
3372.68	0.5683
3381.72	0.5645
3390.77	0.5625
3399.81	0.5625
3408.85	0.5632
3417.9	0.5652
3426.94	0.5667
3435.99	0.5688
3445.03	0.5779
3454.08	0.5824
3463.12	0.5847
3472.16	0.5877
3481.21	0.5903
3490.25	0.5969
3499.3	0.6022
3508.34	0.6085
3517.39	0.6077
3526.43	0.6122
3535.47	0.6195
3544.52	0.6251
3553.56	0.6287
3562.61	0.6318
3571.65	0.6372
3580.69	0.6401
3589.74	0.6399
3598.78	0.6408
3607.83	0.6435
3616.87	0.6417
3625.92	0.6417
3634.96	0.6442
3644	0.6451
3653.05	0.6467
3662.09	0.6486
3671.14	0.6503
3680.18	0.652
3689.22	0.6513
3698.27	0.6507
3707.31	0.6493
3716.36	0.6473
3725.4	0.6426
3734.45	0.6381
3743.49	0.6348
3752.53	0.634
3761.58	0.633
3770.62	0.6343
3779.67	0.636
3788.71	0.6332
3797.76	0.6312
3806.8	0.6315
3815.84	0.6285
3824.89	0.6223
3833.93	0.6201
3842.98	0.619
3852.02	0.6186
3861.06	0.6178
3870.11	0.6179
3879.15	0.6182
3888.2	0.6185
3897.24	0.6157
3906.29	0.6107
3915.33	0.6056
