Infrared Spectrum: 3-Allyl-4-hydroxyacetophenone
Formula: C 11 H 12 O 2
CAS: 1132-05-4
State: gas
Origin: EPA-IR VAPOR PHASE LIBRARY
1/CM	ABSORBANCE
549.8	0.012506
559.445	0.014506
569.09	0.019846
578.734	0.022876
588.379	0.024776
598.024	0.017516
607.669	0.012536
617.313	0.011486
626.958	0.008646
636.603	0.006356
646.248	0.006926
655.893	0.009346
665.537	0.007036
675.182	0.004336
684.827	0.004026
694.472	0.003736
704.116	0.003126
713.761	0.003056
723.406	0.002926
733.051	0.004766
742.695	0.003406
752.34	0.004016
761.985	0.004316
771.63	0.008076
781.275	0.008096
790.919	0.008276
800.564	0.013006
810.209	0.019666
819.854	0.023126
829.498	0.017116
839.143	0.011876
848.788	0.006826
858.433	0.005946
868.078	0.008026
877.722	0.011936
887.367	0.011756
897.012	0.013516
906.657	0.021826
916.301	0.031706
925.946	0.029606
935.591	0.020396
945.236	0.018086
954.88	0.019896
964.525	0.017656
974.17	0.015596
983.815	0.016826
993.46	0.018936
1003.1	0.014636
1012.75	0.009106
1022.39	0.007886
1032.04	0.007696
1041.68	0.006556
1051.33	0.007266
1060.97	0.009516
1070.62	0.011976
1080.26	0.013976
1089.91	0.020466
1099.55	0.036356
1109.2	0.045736
1118.84	0.035986
1128.49	0.024986
1138.13	0.016426
1147.78	0.020646
1157.42	0.028116
1167.07	0.032466
1176.71	0.043486
1186.36	0.082856
1196	0.114686
1205.64	0.092706
1215.29	0.052186
1224.93	0.034146
1234.58	0.034496
1244.22	0.055076
1253.87	0.101336
1263.51	0.174256
1273.16	0.176016
1282.8	0.099176
1292.45	0.053826
1302.09	0.031306
1311.74	0.021586
1321.38	0.024466
1331.03	0.025236
1340.67	0.023116
1350.32	0.038476
1359.96	0.057566
1369.61	0.033396
1379.25	0.014816
1388.9	0.011746
1398.54	0.014776
1408.18	0.022656
1417.83	0.030646
1427.47	0.027496
1437.12	0.021166
1446.76	0.016416
1456.41	0.010676
1466.05	0.009106
1475.7	0.011226
1485.34	0.022336
1494.99	0.043706
1504.63	0.036366
1514.28	0.014006
1523.92	0.008246
1533.57	0.007516
1543.21	0.008256
1552.86	0.009686
1562.5	0.015006
1572.15	0.027986
1581.79	0.047966
1591.44	0.057626
1601.08	0.059736
1610.73	0.051576
1620.37	0.027796
1630.01	0.021636
1639.66	0.022526
1649.3	0.016926
1658.95	0.016356
1668.59	0.016616
1678.24	0.023806
1687.88	0.069396
1697.53	0.165786
1707.17	0.116236
1716.82	0.025456
1726.46	0.010986
1736.11	0.011146
1745.75	0.011146
1755.4	0.007616
1765.04	0.005016
1774.69	0.003816
1784.33	0.003016
1793.98	0.003046
1803.62	0.002876
1813.27	0.002766
1822.91	0.003586
1832.55	0.004286
1842.2	0.004846
1851.84	0.004776
1861.49	0.003576
1871.13	0.003046
1880.78	0.002756
1890.42	0.002576
1900.07	0.002356
1909.71	0.002586
1919.36	0.002436
1929	0.002316
1938.65	0.002326
1948.29	0.002266
1957.94	0.002076
1967.58	0.001746
1977.23	0.002086
1986.87	0.001976
1996.52	0.0016616
2006.16	0.001619
2015.81	0.0016473
2025.45	0.001716
2035.1	0.001796
2044.74	0.001926
2054.38	0.001886
2064.03	0.0013193
2073.67	0.0013739
2083.32	0.0012447
2092.96	0.0011647
2102.61	0.0013951
2112.25	0.0012581
2121.9	0.0010387
2131.54	0.001123
2141.19	0.0011014
2150.83	0.0011656
2160.48	0.0014063
2170.12	0.0012874
2179.77	0.001746
2189.41	0.001546
2199.06	0.0013106
2208.7	0.0013351
2218.35	0.001276
2227.99	0.0013908
2237.64	0.0013615
2247.28	0.0015866
2256.92	0.0015304
2266.57	0.0015513
2276.21	0.0014215
2285.86	0.001374
2295.5	0.0012005
2305.15	0.0014784
2314.79	0.0013747
2324.44	0.001545
2334.08	0.0013819
2343.73	0.001766
2353.37	0.001716
2363.02	0.001776
2372.66	0.0016751
2382.31	0.0015771
2391.95	0.001836
2401.6	0.001746
2411.24	0.001432
2420.89	0.0015952
2430.53	0.0014454
2440.18	0.0015613
2449.82	0.002036
2459.47	0.001936
2469.11	0.001896
2478.75	0.002106
2488.4	0.002346
2498.04	0.002186
2507.69	0.002526
2517.33	0.002506
2526.98	0.002006
2536.62	0.002096
2546.27	0.0016513
2555.91	0.001836
2565.56	0.002016
2575.2	0.001756
2584.85	0.0016179
2594.49	0.001264
2604.14	0.001716
2613.78	0.001846
2623.43	0.001766
2633.07	0.001886
2642.72	0.001816
2652.36	0.002296
2662.01	0.001706
2671.65	0.0015653
2681.29	0.0014446
2690.94	0.001604
2700.58	0.001786
2710.23	0.0015247
2719.87	0.0011376
2729.52	0.0011187
2739.16	0.001679
2748.81	0.0013659
2758.45	0.0011724
2768.1	0.0011765
2777.74	0.0011352
2787.39	0.0012305
2797.03	0.001736
2806.68	0.001084
2816.32	0.002086
2825.97	0.002606
2835.61	0.004406
2845.26	0.005876
2854.9	0.006286
2864.55	0.005696
2874.19	0.005306
2883.84	0.005606
2893.48	0.006776
2903.12	0.008756
2912.77	0.011406
2922.41	0.012766
2932.06	0.012286
2941.7	0.009166
2951.35	0.007686
2960.99	0.007226
2970.64	0.009416
2980.28	0.011806
2989.93	0.012626
2999.57	0.011916
3009.22	0.015686
3018.86	0.017476
3028.51	0.012656
3038.15	0.010896
3047.8	0.010276
3057.44	0.012216
3067.09	0.013376
3076.73	0.014566
3086.38	0.018106
3096.02	0.013486
3105.67	0.006656
3115.31	0.004426
3124.95	0.003036
3134.6	0.002306
3144.24	0.0013975
3153.89	0.0010411
3163.53	0.0015789
3173.18	0.0016528
3182.82	0.0015609
3192.47	0.002046
3202.11	0.0013478
3211.76	0.0012226
3221.4	0.0011373
3231.05	0.000706065
3240.69	0.0009465
3250.34	0.0011405
3259.98	0.00073171
3269.63	0.0009684
3279.27	0.0010197
3288.92	0.0009836
3298.56	0.0013316
3308.21	0.001102
3317.85	0.001876
3327.49	0.0010472
3337.14	0.001846
3346.78	0.001886
3356.43	0.0016241
3366.07	0.002876
3375.72	0.003656
3385.36	0.003576
3395.01	0.002446
3404.65	0.0014791
3414.3	0.001996
3423.94	0.001806
3433.59	0.0014659
3443.23	0.001886
3452.88	0.0016616
3462.52	0.0014917
3472.17	0.002466
3481.81	0.002196
3491.46	0.001766
3501.1	0.002716
3510.75	0.002826
3520.39	0.004066
3530.04	0.004676
3539.68	0.007356
3549.32	0.008696
3558.97	0.011556
3568.61	0.017186
3578.26	0.021656
3587.9	0.021886
3597.55	0.019866
3607.19	0.015706
3616.84	0.011296
3626.48	0.012626
3636.13	0.027706
3645.77	0.046716
3655.42	0.025036
3665.06	0.004926
3674.71	0.002376
3684.35	0.0012812
3694	0.0013924
3703.64	0.00077575
3713.29	0.0012652
3722.93	0.0014246
3732.58	0.0014708
3742.22	0.0010732
3751.86	0.0011106
3761.51	0.0010127
3771.15	0.0014423
3780.8	0.0007953
3790.44	0.0012969
3800.09	0.000328
3809.73	0.0014527
3819.38	0.0008292
3829.02	0.0008428
3838.67	0
3848.31	0.00077527
3857.96	0.0008456
3867.6	0.0006563
3877.25	0.000356
3886.89	0.001367
3896.54	0.00071653
3906.18	0.00078578
3915.83	0.0011507
3925.47	0.0010827
3935.12	0.0013342
3944.76	0.0011675
3954.41	0.0010492
3964.05	0.000453
3973.69	0.000577
3983.34	0.0013888
3992.98	0.0013344
