Infrared Spectrum: 2,3-Difluorobenzyl bromide
Formula: C 7 H 5 Br F 2
CAS: 113211-94-2
State: gas
Origin: EPA-IR VAPOR PHASE LIBRARY
1/CM	ABSORBANCE
549.8	0.016077
559.445	0.012777
569.09	0.006897
578.734	0.004147
588.379	0.003667
598.024	0.003437
607.669	0.003267
617.313	0.005947
626.958	0.012277
636.603	0.021507
646.248	0.017147
655.893	0.008557
665.537	0.008517
675.182	0.017247
684.827	0.038487
694.472	0.037667
704.116	0.018877
713.761	0.032217
723.406	0.055137
733.051	0.036217
742.695	0.011997
752.34	0.007867
761.985	0.012017
771.63	0.026227
781.275	0.039937
790.919	0.024517
800.564	0.010257
810.209	0.010057
819.854	0.024807
829.498	0.025087
839.143	0.012377
848.788	0.005837
858.433	0.007127
868.078	0.008477
877.722	0.007887
887.367	0.004487
897.012	0.002287
906.657	0.0016805
916.301	0.0016423
925.946	0.002027
935.591	0.002087
945.236	0.002537
954.88	0.004817
964.525	0.007237
974.17	0.013527
983.815	0.031117
993.46	0.043817
1003.1	0.026827
1012.75	0.010087
1022.39	0.007547
1032.04	0.005247
1041.68	0.007787
1051.33	0.013417
1060.97	0.017317
1070.62	0.011027
1080.26	0.005907
1089.91	0.005307
1099.55	0.004257
1109.2	0.003247
1118.84	0.004227
1128.49	0.007027
1138.13	0.007597
1147.78	0.005167
1157.42	0.007977
1167.07	0.007527
1176.71	0.006077
1186.36	0.007247
1196	0.016697
1205.64	0.028037
1215.29	0.032397
1224.93	0.052287
1234.58	0.097737
1244.22	0.074097
1253.87	0.037667
1263.51	0.038937
1273.16	0.057877
1282.8	0.105177
1292.45	0.112347
1302.09	0.054567
1311.74	0.020987
1321.38	0.011127
1331.03	0.008797
1340.67	0.006707
1350.32	0.004427
1359.96	0.003457
1369.61	0.003017
1379.25	0.002757
1388.9	0.002337
1398.54	0.002467
1408.18	0.002837
1417.83	0.003627
1427.47	0.005107
1437.12	0.009167
1446.76	0.014067
1456.41	0.021597
1466.05	0.044297
1475.7	0.095907
1485.34	0.187067
1494.99	0.229417
1504.63	0.140047
1514.28	0.052067
1523.92	0.022437
1533.57	0.012887
1543.21	0.011387
1552.86	0.010857
1562.5	0.009857
1572.15	0.010057
1581.79	0.014057
1591.44	0.025587
1601.08	0.027717
1610.73	0.018417
1620.37	0.023967
1630.01	0.022637
1639.66	0.008057
1649.3	0.003197
1658.95	0.002707
1668.59	0.003477
1678.24	0.003177
1687.88	0.0019354
1697.53	0.0016512
1707.17	0.0018444
1716.82	0.0018062
1726.46	0.0017628
1736.11	0.001738
1745.75	0.0017527
1755.4	0.002097
1765.04	0.002867
1774.69	0.003077
1784.33	0.002367
1793.98	0.0018625
1803.62	0.0015083
1813.27	0.0016153
1822.91	0.0018319
1832.55	0.002687
1842.2	0.004307
1851.84	0.003377
1861.49	0.001987
1871.13	0.0015645
1880.78	0.0013619
1890.42	0.0015828
1900.07	0.002487
1909.71	0.003667
1919.36	0.003747
1929	0.002317
1938.65	0.0017878
1948.29	0.0017458
1957.94	0.002187
1967.58	0.002237
1977.23	0.002517
1986.87	0.0019382
1996.52	0.0015688
2006.16	0.0017383
2015.81	0.0013386
2025.45	0.0014774
2035.1	0.0014974
2044.74	0.0015036
2054.38	0.0015312
2064.03	0.0014894
2073.67	0.0014713
2083.32	0.0013554
2092.96	0.0011571
2102.61	0.001551
2112.25	0.0015987
2121.9	0.0014123
2131.54	0.0012323
2141.19	0.0013455
2150.83	0.0012967
2160.48	0.0016853
2170.12	0.002097
2179.77	0.002387
2189.41	0.002277
2199.06	0.0014993
2208.7	0.0014298
2218.35	0.001286
2227.99	0.001329
2237.64	0.0016511
2247.28	0.001635
2256.92	0.0016379
2266.57	0.0018535
2276.21	0.0017108
2285.86	0.0018476
2295.5	0.0018526
2305.15	0.0019256
2314.79	0.002257
2324.44	0.002257
2334.08	0.0018701
2343.73	0.0014409
2353.37	0.0012405
2363.02	0.0016128
2372.66	0.0013586
2382.31	0.0015232
2391.95	0.0014445
2401.6	0.0016978
2411.24	0.0017876
2420.89	0.0019646
2430.53	0.002307
2440.18	0.002527
2449.82	0.002397
2459.47	0.002097
2469.11	0.002147
2478.75	0.0017253
2488.4	0.0019459
2498.04	0.001997
2507.69	0.0018374
2517.33	0.001967
2526.98	0.0016679
2536.62	0.0016804
2546.27	0.0016706
2555.91	0.0019176
2565.56	0.0019007
2575.2	0.002277
2584.85	0.002327
2594.49	0.002487
2604.14	0.002097
2613.78	0.0018215
2623.43	0.001572
2633.07	0.0016024
2642.72	0.0015296
2652.36	0.0013407
2662.01	0.0013314
2671.65	0.0017044
2681.29	0.0012449
2690.94	0.0017118
2700.58	0.0014927
2710.23	0.0012664
2719.87	0.0014123
2729.52	0.0016088
2739.16	0.0015206
2748.81	0.0015325
2758.45	0.0014397
2768.1	0.0015223
2777.74	0.0014813
2787.39	0.0011507
2797.03	0.0012025
2806.68	0.0009155
2816.32	0.000674
2825.97	0.0013853
2835.61	0.0011948
2845.26	0.0015809
2854.9	0.0016311
2864.55	0.0015338
2874.19	0.0017863
2883.84	0.001963
2893.48	0.0014229
2903.12	0.0010922
2912.77	0.001509
2922.41	0.0016186
2932.06	0.0015274
2941.7	0.0011945
2951.35	0.002247
2960.99	0.002517
2970.64	0.003617
2980.28	0.006237
2989.93	0.008157
2999.57	0.005727
3009.22	0.003157
3018.86	0.002147
3028.51	0.002667
3038.15	0.004467
3047.8	0.006467
3057.44	0.007737
3067.09	0.010057
3076.73	0.009137
3086.38	0.006717
3096.02	0.004107
3105.67	0.003627
3115.31	0.002797
3124.95	0.002197
3134.6	0.0013475
3144.24	0.0013489
3153.89	0.000776
3163.53	0.000845
3173.18	0.000749
3182.82	0.000551
3192.47	0.0009488
3202.11	0.0011258
3211.76	0.0009389
3221.4	0.0016699
3231.05	0.000771
3240.69	0.000849
3250.34	0.0011318
3259.98	0.0008711
3269.63	0.000782
3279.27	0.00098799
3288.92	0.0008935
3298.56	0.0009232
3308.21	0.0012871
3317.85	0.0015112
3327.49	0.000647
3337.14	0.000701
3346.78	0.000422
3356.43	0.0010973
3366.07	0.000789
3375.72	0.00078
3385.36	0.000641
3395.01	0.000623
3404.65	0.000637
3414.3	0.000955
3423.94	0.000761
3433.59	0.0012095
3443.23	0.00096385
3452.88	0.0013482
3462.52	0.000598
3472.17	0.000677
3481.81	0.000862
3491.46	0.00104699
3501.1	0.0012176
3510.75	0.000663
3520.39	0.0008842
3530.04	0.000733
3539.68	0.000744
3549.32	0.0009366
3558.97	0.000548
3568.61	0.00092
3578.26	0.000801
3587.9	0.0012975
3597.55	0.000645
3607.19	0.0009222
3616.84	0.00098022
3626.48	0.0011833
3636.13	0.0014312
3645.77	0.0013501
3655.42	0.00083
3665.06	0.00098297
3674.71	0.0013134
3684.35	0.0009544
3694	0.0014123
3703.64	0.0009624
3713.29	0.0010836
3722.93	0.0015764
3732.58	0.0011216
3742.22	0.0013052
3751.86	0.00099316
3761.51	0.0015686
3771.15	0.0010811
3780.8	0.0012157
3790.44	0.0011559
3800.09	0.0018163
3809.73	0.00068
3819.38	0.0011768
3829.02	0.0009222
3838.67	0.0013866
3848.31	0.0009561
3857.96	0.0019269
3867.6	0.0012302
3877.25	0.001774
3886.89	0.0016183
3896.54	0.0012672
3906.18	0.0017532
3915.83	0.001656
3925.47	0.00101875
3935.12	0.0015784
3944.76	0.000491
3954.41	0.00095
3964.05	0.0011511
3973.69	0.0009465
3983.34	0.000655
3992.98	0.000514
