Infrared Spectrum: HEXYLPHENYL ETHER
Formula: C12 H18 O
CAS: 1132-66-7
State: SOLUTION (10% CCl4 FOR 5000-1330, 10% CS2 FOR 1330-625 CM^-^1)
Class: COBLENTZ
Instrument: Not specified, most likely a prism, grating, or hybrid spectrometer.
Sampling: TRANSMISSION
Path length: 0.0123 CM, 0.0125 CM
Resolution: 4
Origin: DOW CHEMICAL COMPANY
MICROMETERS	TRANSMITTANCE
2.021	0.841
2.06214	0.841
2.10327	0.834
2.14441	0.838
2.18554	0.838
2.22668	0.814
2.26781	0.814
2.30895	0.819
2.35009	0.819
2.39122	0.814
2.43236	0.82
2.47349	0.834
2.51463	0.838
2.55576	0.834
2.5969	0.836
2.63803	0.838
2.67917	0.833
2.72031	0.826
2.76144	0.82
2.80258	0.819
2.84371	0.815
2.88485	0.812
2.92598	0.812
2.96712	0.812
3.00826	0.808
3.04939	0.802
3.09053	0.793
3.13166	0.788
3.1728	0.741
3.21393	0.629
3.25507	0.58
3.2962	0.611
3.33734	0.409
3.37848	0.065
3.41961	0.239
3.46075	0.228
3.50188	0.683
3.54302	0.753
3.58415	0.759
3.62529	0.76
3.66643	0.791
3.70756	0.793
3.7487	0.802
3.78983	0.802
3.83097	0.802
3.8721	0.803
3.91324	0.798
3.95437	0.815
3.99551	0.807
4.03665	0.803
4.07778	0.814
4.11892	0.808
4.16005	0.814
4.20119	0.81
4.24232	0.802
4.28346	0.8
4.3246	0.802
4.36573	0.81
4.40687	0.817
4.448	0.82
4.48914	0.826
4.53027	0.826
4.57141	0.826
4.61254	0.826
4.65368	0.826
4.69482	0.822
4.73595	0.819
4.77709	0.815
4.81822	0.808
4.85936	0.8
4.90049	0.795
4.94163	0.803
4.98277	0.807
5.0239	0.808
5.06504	0.815
5.10617	0.807
5.14731	0.788
5.18844	0.767
5.22958	0.815
5.27072	0.82
5.31185	0.819
5.35299	0.81
5.39412	0.793
5.43526	0.779
5.47639	0.808
5.51753	0.82
5.55866	0.814
5.5998	0.808
5.64094	0.79
5.68207	0.802
5.72321	0.812
5.76434	0.814
5.80548	0.81
5.84661	0.795
5.88775	0.776
5.92889	0.781
5.97002	0.791
6.01116	0.791
6.05229	0.777
6.09343	0.755
6.13456	0.721
6.1757	0.537
6.21683	0.158
6.25797	0.144
6.29911	0.308
6.34024	0.442
6.38138	0.442
6.42251	0.402
6.46365	0.426
6.50478	0.5
6.54592	0.519
6.58706	0.495
6.62819	0.342
6.66933	0.082
6.71046	0.325
6.7516	0.247
6.79273	0.158
6.83387	0.373
6.875	0.566
6.91614	0.629
6.95728	0.671
6.99841	0.728
7.03955	0.741
7.08068	0.733
7.12182	0.64
7.16295	0.523
7.20409	0.483
7.24523	0.574
7.28636	0.702
7.3275	0.724
7.36863	0.733
7.40977	0.693
7.4509	0.611
7.49204	0.621
7.53317	0.676
7.57431	0.633
7.61545	0.518
7.65658	0.352
7.69772	0.345
7.73885	0.461
7.77999	0.452
7.82112	0.54
7.86226	0.5
7.9034	0.399
7.94453	0.24
7.98567	0.104
8.0268	0.018
8.06794	0.041
8.10907	0.139
8.15021	0.192
8.19134	0.309
8.23248	0.447
8.27362	0.518
8.31475	0.559
8.35589	0.617
8.39702	0.657
8.43816	0.647
8.47929	0.537
8.52043	0.278
8.56157	0.409
8.6027	0.607
8.64384	0.583
8.68497	0.552
8.72611	0.657
8.76724	0.678
8.80838	0.683
8.84952	0.667
8.89065	0.636
8.93179	0.64
8.97292	0.659
9.01406	0.667
9.05519	0.671
9.09633	0.681
9.13746	0.674
9.1786	0.607
9.21974	0.518
9.26087	0.404
9.30201	0.347
9.34314	0.456
9.38428	0.502
9.42541	0.488
9.46655	0.454
9.50769	0.442
9.54882	0.416
9.58996	0.368
9.63109	0.239
9.67223	0.239
9.71336	0.318
9.7545	0.395
9.79563	0.45
9.83677	0.457
9.87791	0.481
9.91904	0.545
9.96018	0.592
10.0013	0.619
10.0424	0.629
10.0836	0.648
10.1247	0.674
10.1659	0.702
10.207	0.722
10.2481	0.731
10.2893	0.731
10.3304	0.722
10.3715	0.729
10.4127	0.736
10.4538	0.736
10.4949	0.724
10.5361	0.707
10.5772	0.678
10.6183	0.609
10.6595	0.573
10.7006	0.561
10.7418	0.631
10.7829	0.683
10.824	0.716
10.8652	0.74
10.9063	0.753
10.9474	0.757
10.9886	0.755
11.0297	0.75
11.0708	0.745
11.112	0.738
11.1531	0.733
11.1942	0.731
11.2354	0.722
11.2765	0.703
11.3177	0.64
11.3588	0.524
11.3999	0.45
11.4411	0.53
11.4822	0.611
11.5233	0.648
11.5645	0.654
11.6056	0.654
11.6467	0.65
11.6879	0.641
11.729	0.631
11.7701	0.624
11.8113	0.654
11.8524	0.691
11.8936	0.734
11.9347	0.762
11.9758	0.774
12.017	0.776
12.0581	0.765
12.0992	0.757
12.1404	0.757
12.1815	0.76
12.2226	0.738
12.2638	0.703
12.3049	0.667
12.346	0.65
12.3872	0.654
12.4283	0.683
12.4695	0.707
12.5106	0.719
12.5517	0.714
12.5929	0.717
12.634	0.731
12.6751	0.734
12.7163	0.74
12.7574	0.736
12.7985	0.728
12.8397	0.717
12.8808	0.712
12.9219	0.71
12.9631	0.7
13.0042	0.678
13.0453	0.629
13.0865	0.581
13.1276	0.509
13.1688	0.413
13.2099	0.251
13.251	0.12
13.2922	0.03
13.3333	0.001
13.3744	0.013
13.4156	0.132
13.4567	0.311
13.4978	0.445
13.539	0.538
13.5801	0.583
13.6212	0.6
13.6624	0.604
13.7035	0.6
13.7447	0.59
13.7858	0.576
13.8269	0.58
13.8681	0.604
13.9092	0.635
13.9503	0.655
13.9915	0.666
14.0326	0.669
14.0737	0.669
14.1149	0.664
14.156	0.65
14.1971	0.636
14.2383	0.607
14.2794	0.561
14.3206	0.506
14.3617	0.416
14.4028	0.283
14.444	0.179
14.4851	0.106
14.5262	0.096
14.5674	0.208
14.6085	0.335
14.6496	0.449
14.6908	0.514
14.7319	0.543
14.773	0.557
14.8142	0.564
14.8553	0.564
14.8965	0.564
14.9376	0.555
14.9787	0.547
15.0199	0.537
15.061	0.531
15.1021	0.528
15.1433	0.523
15.1844	0.518
15.2255	0.507
15.2667	0.502
15.3078	0.499
15.3489	0.492
15.3901	0.487
15.4312	0.487
15.4724	0.48
15.5135	0.468
15.5546	0.461
15.5958	0.459
15.6369	0.452
15.678	0.447
15.7192	0.444
15.7603	0.444
15.8014	0.445
15.8426	0.442
15.8837	0.435
15.9248	0.433
