Infrared Spectrum: 1,2,3,4-TETRAHYDRO-1-(3'-HYDROXY-4'-METHOXYBENZYL)-9-PYRID[3,4,b]INDOLE HYDROCHLORIDE
Formula: C19 H20 N2 O2  * H Cl
CAS: 113222-74-5
State: SOLID (NUJOL MULL)
Class: COBLENTZ
Instrument: PERKIN-ELMER
Sampling: TRANSMISSION
Resolution: 4
Origin: ABBOTT LABORATORIES - WASHBURN
MICROMETERS	TRANSMITTANCE
2.033	0.45
2.073	0.462
2.113	0.4816
2.15301	0.49
2.19301	0.4988
2.23301	0.507
2.27301	0.522
2.31301	0.53
2.35302	0.5189
2.39302	0.535
2.43302	0.549
2.47302	0.562
2.51302	0.5698
2.55302	0.5848
2.59303	0.59
2.63303	0.599
2.67303	0.613
2.71303	0.6269
2.75303	0.6367
2.79304	0.6171
2.83304	0.615
2.87304	0.608
2.91304	0.5852
2.95304	0.5299
2.99305	0.4751
3.03305	0.4089
3.07305	0.281
3.11305	0.131
3.15305	0.19
3.19305	0.212
3.23306	0.103
3.27306	0.126
3.31306	0.0845
3.35306	0.0938
3.39306	0.0873
3.43307	0.023
3.47307	0.019
3.51307	0.0488
3.55307	0.0823
3.59307	0.2629
3.63308	0.3061
3.67308	0.321
3.71308	0.3435
3.75308	0.418
3.79308	0.4533
3.83309	0.4391
3.87309	0.465
3.91309	0.4819
3.95309	0.5478
3.99309	0.5883
4.03309	0.6
4.0731	0.59
4.1131	0.579
4.1531	0.6067
4.1931	0.6443
4.2331	0.677
4.27311	0.69
4.31311	0.698
4.35311	0.7118
4.39311	0.7166
4.43311	0.723
4.47312	0.735
4.51312	0.74
4.55312	0.7431
4.59312	0.743
4.63312	0.745
4.67312	0.753
4.71313	0.76
4.75313	0.7649
4.79313	0.762
4.83313	0.7579
4.87313	0.757
4.91314	0.762
4.95314	0.773
4.99314	0.758
5.03314	0.77
5.07314	0.778
5.11315	0.7811
5.15315	0.7811
5.19315	0.7692
5.23315	0.785
5.27315	0.7864
5.31316	0.783
5.35316	0.787
5.39316	0.7769
5.43316	0.7976
5.47316	0.806
5.51316	0.7988
5.55317	0.796
5.59317	0.7986
5.63317	0.787
5.67317	0.795
5.71317	0.7902
5.75318	0.792
5.79318	0.7931
5.83318	0.7903
5.87318	0.7823
5.91318	0.7688
5.95319	0.7394
5.99319	0.7111
6.03319	0.737
6.07319	0.7485
6.11319	0.735
6.15319	0.63
6.1932	0.5487
6.2332	0.3524
6.2732	0.4465
6.3132	0.5644
6.3532	0.6032
6.39321	0.651
6.43321	0.6961
6.47321	0.7029
6.51321	0.585
6.55321	0.1583
6.59322	0.2446
6.63322	0.4518
6.67322	0.5971
6.71322	0.559
6.75322	0.5231
6.79323	0.4203
6.83323	0.162
6.87323	0.1386
6.91323	0.1059
6.95323	0.2025
6.99323	0.2275
7.03324	0.3534
7.07324	0.4001
7.11324	0.4931
7.15324	0.5185
7.19324	0.4573
7.23325	0.3493
7.27325	0.1936
7.31325	0.2343
7.35325	0.359
7.39325	0.4631
7.43326	0.5208
7.47326	0.4804
7.51326	0.5664
7.55326	0.5752
7.59326	0.4972
7.63326	0.554
7.67327	0.4668
7.71327	0.2959
7.75327	0.388
7.79327	0.3597
7.83327	0.2164
7.87328	0.3482
7.91328	0.3735
7.95328	0.241
7.99328	0.1616
8.03328	0.3631
8.07329	0.493
8.11329	0.4077
8.15329	0.459
8.19329	0.3337
8.23329	0.2872
8.2733	0.392
8.3133	0.3473
8.3533	0.4918
8.3933	0.5706
8.4333	0.6026
8.4733	0.6034
8.51331	0.5708
8.55331	0.552
8.59331	0.5691
8.63331	0.481
8.67331	0.2533
8.71332	0.372
8.75332	0.4709
8.79332	0.4749
8.83332	0.3882
8.87332	0.2693
8.91333	0.5064
8.95333	0.5778
8.99333	0.6098
9.03333	0.6366
9.07333	0.6437
9.11333	0.647
9.15334	0.6582
9.19334	0.673
9.23334	0.6879
9.27334	0.6797
9.31334	0.6494
9.35335	0.6926
9.39335	0.708
9.43335	0.6971
9.47335	0.6471
9.51335	0.618
9.55336	0.6377
9.59336	0.5504
9.63336	0.3703
9.67336	0.2273
9.71336	0.3373
9.75337	0.5055
9.79337	0.5446
9.83337	0.4165
9.87337	0.163
9.91337	0.3221
9.95337	0.4954
9.99338	0.6294
10.0334	0.688
10.0734	0.7042
10.1134	0.7058
10.1534	0.6456
10.1934	0.582
10.2334	0.6819
10.2734	0.7271
10.3134	0.738
10.3534	0.7427
10.3934	0.755
10.4334	0.7663
10.4734	0.772
10.5134	0.7613
10.5534	0.7354
10.5934	0.713
10.6334	0.7606
10.6734	0.763
10.7134	0.7432
10.7534	0.7126
10.7934	0.7327
10.8334	0.7519
10.8734	0.748
10.9134	0.759
10.9534	0.7694
10.9934	0.78
11.0334	0.778
11.0734	0.7819
11.1134	0.7674
11.1534	0.7536
11.1934	0.7592
11.2334	0.7818
11.2734	0.783
11.3134	0.785
11.3534	0.7707
11.3934	0.7289
11.4334	0.6702
11.4734	0.737
11.5134	0.757
11.5535	0.7454
11.5935	0.7421
11.6335	0.75
11.6735	0.7247
11.7135	0.6156
11.7535	0.5877
11.7935	0.6605
11.8335	0.7399
11.8735	0.753
11.9135	0.7497
11.9535	0.7254
11.9935	0.6081
12.0335	0.3671
12.0735	0.4651
12.1135	0.6266
12.1535	0.6894
12.1935	0.7152
12.2335	0.725
12.2735	0.7175
12.3135	0.705
12.3535	0.7251
12.3935	0.743
12.4335	0.7399
12.4735	0.7136
12.5135	0.5912
12.5535	0.5387
12.5935	0.6581
12.6335	0.7126
12.6735	0.738
12.7135	0.7521
12.7535	0.762
12.7935	0.7551
12.8335	0.7469
12.8735	0.7333
12.9135	0.703
12.9535	0.702
12.9935	0.6918
13.0335	0.6461
13.0735	0.5209
13.1135	0.3058
13.1535	0.356
13.1935	0.4205
13.2335	0.366
13.2735	0.4336
13.3135	0.3137
13.3535	0.1646
13.3935	0.1892
13.4335	0.3328
13.4735	0.4121
13.5135	0.4705
13.5535	0.5303
13.5935	0.5903
13.6335	0.6179
13.6736	0.6316
13.7136	0.6026
13.7536	0.5455
13.7936	0.5283
13.8336	0.5499
13.8736	0.5398
13.9136	0.5128
13.9536	0.501
13.9936	0.5177
14.0336	0.5453
14.0736	0.5808
14.1136	0.6051
14.1536	0.617
14.1936	0.625
14.2336	0.633
14.2736	0.627
14.3136	0.6158
14.3536	0.6199
14.3936	0.6294
14.4336	0.6292
14.4736	0.64
14.5136	0.632
14.5536	0.6282
14.5936	0.6222
14.6336	0.61
14.6736	0.5979
14.7136	0.5832
14.7536	0.5631
14.7936	0.5323
14.8336	0.5009
14.8736	0.4513
14.9136	0.4042
14.9536	0.3611
14.9936	0.387
15.0336	0.4452
15.0736	0.4781
15.1136	0.5094
15.1536	0.5278
15.1936	0.5353
15.2336	0.544
15.2736	0.542
15.3136	0.545
15.3536	0.547
15.3936	0.545
