Infrared Spectrum: 2-Bromofluorene
Formula: C 13 H 9 Br
CAS: 1133-80-8
State: gas
Origin: EPA-IR VAPOR PHASE LIBRARY
1/CM	ABSORBANCE
549.8	0.0006973
559.445	0.002027
569.09	0.001767
578.734	0.001297
588.379	0.0009415
598.024	0.0005143
607.669	0.00021397
617.313	0.0006333
626.958	0.0009606
636.603	0.001587
646.248	0.000835
655.893	0.001637
665.537	0.0008329
675.182	0.0006838
684.827	0.0009988
694.472	0.0011218
704.116	0.002537
713.761	0.009287
723.406	0.024067
733.051	0.023627
742.695	0.017547
752.34	0.022597
761.985	0.032457
771.63	0.014637
781.275	0.003267
790.919	0.002137
800.564	0.003827
810.209	0.011477
819.854	0.016757
829.498	0.006847
839.143	0.002987
848.788	0.006667
858.433	0.024887
868.078	0.009837
877.722	0.004127
887.367	0.001597
897.012	0.001557
906.657	0.001297
916.301	0.0010544
925.946	0.0009659
935.591	0.0011381
945.236	0.002267
954.88	0.002577
964.525	0.001597
974.17	0.002007
983.815	0.001587
993.46	0.002127
1003.1	0.010907
1012.75	0.002997
1022.39	0.001697
1032.04	0.001237
1041.68	0.002757
1051.33	0.008647
1060.97	0.014977
1070.62	0.006917
1080.26	0.003177
1089.91	0.003337
1099.55	0.002707
1109.2	0.002247
1118.84	0.001777
1128.49	0.001737
1138.13	0.001134
1147.78	0.004417
1157.42	0.007167
1167.07	0.006457
1176.71	0.008217
1186.36	0.009687
1196	0.005467
1205.64	0.001287
1215.29	0.001847
1224.93	0.003077
1234.58	0.002957
1244.22	0.002167
1253.87	0.002897
1263.51	0.008237
1273.16	0.007157
1282.8	0.004537
1292.45	0.004417
1302.09	0.002837
1311.74	0.001697
1321.38	0.001487
1331.03	0.001337
1340.67	0.001527
1350.32	0.002717
1359.96	0.001687
1369.61	0.001647
1379.25	0.002337
1388.9	0.003957
1398.54	0.009557
1408.18	0.018127
1417.83	0.014497
1427.47	0.009697
1437.12	0.010197
1446.76	0.045747
1456.41	0.019827
1466.05	0.016417
1475.7	0.011747
1485.34	0.006117
1494.99	0.002407
1504.63	0.001347
1514.28	0.0010425
1523.92	0.0009846
1533.57	0.0009714
1543.21	0.001477
1552.86	0.001857
1562.5	0.003237
1572.15	0.005887
1581.79	0.004507
1591.44	0.003947
1601.08	0.006147
1610.73	0.004377
1620.37	0.002727
1630.01	0.001937
1639.66	0.001797
1649.3	0.001557
1658.95	0.0010926
1668.59	0.0009493
1678.24	0.001377
1687.88	0.0011491
1697.53	0.0011317
1707.17	0.001427
1716.82	0.001757
1726.46	0.001507
1736.11	0.0011725
1745.75	0.0010168
1755.4	0.001197
1765.04	0.0009491
1774.69	0.0011497
1784.33	0.001667
1793.98	0.001867
1803.62	0.001567
1813.27	0.001517
1822.91	0.001667
1832.55	0.001367
1842.2	0.0010634
1851.84	0.001129
1861.49	0.001517
1871.13	0.001967
1880.78	0.002247
1890.42	0.002287
1900.07	0.001527
1909.71	0.0010992
1919.36	0.0010432
1929	0.001457
1938.65	0.002667
1948.29	0.0011571
1957.94	0.0005767
1967.58	0.0004895
1977.23	0.0005099
1986.87	0.0005487
1996.52	0.0004348
2006.16	0.0004458
2015.81	0.0004982
2025.45	0.0003246
2035.1	0.0004079
2044.74	0.0004506
2054.38	0.000408
2064.03	0.0004399
2073.67	0.0004365
2083.32	0.0004668
2092.96	0.0004696
2102.61	0.0005772
2112.25	0.0004624
2121.9	0.0005068
2131.54	0.0004351
2141.19	0.0004058
2150.83	0.0002852
2160.48	0.000372
2170.12	0.0004647
2179.77	0.0004446
2189.41	0.0004452
2199.06	0.0005515
2208.7	0.0004951
2218.35	0.0005388
2227.99	0.0005998
2237.64	0.0005632
2247.28	0.0006453
2256.92	0.0006621
2266.57	0.0008199
2276.21	0.0007937
2285.86	0.0005379
2295.5	0.0005632
2305.15	0.0005707
2314.79	0.0006777
2324.44	0.000744
2334.08	0.0007095
2343.73	0.0005818
2353.37	0.0006567
2363.02	0.0005386
2372.66	0.0005105
2382.31	0.0004308
2391.95	0.0004535
2401.6	0.0004996
2411.24	0.0005772
2420.89	0.000482
2430.53	0.0004568
2440.18	0.0005358
2449.82	0.0004869
2459.47	0.0005163
2469.11	0.0006233
2478.75	0.0005524
2488.4	0.0005553
2498.04	0.000434
2507.69	0.0005639
2517.33	0.0005739
2526.98	0.0007644
2536.62	0.0006471
2546.27	0.0004522
2555.91	0.0004582
2565.56	0.0005233
2575.2	0.0005941
2584.85	0.0007269
2594.49	0.0006896
2604.14	0.0008412
2613.78	0.0006482
2623.43	0.0006919
2633.07	0.0007036
2642.72	0.0007529
2652.36	0.0006439
2662.01	0.0006962
2671.65	0.0006799
2681.29	0.0006326
2690.94	0.0004942
2700.58	0.000679
2710.23	0.0006124
2719.87	0.0006513
2729.52	0.0005244
2739.16	0.0006237
2748.81	0.0004952
2758.45	0.0005875
2768.1	0.0006063
2777.74	0.0007918
2787.39	0.0011117
2797.03	0.001507
2806.68	0.001897
2816.32	0.001387
2825.97	0.0009151
2835.61	0.0007898
2845.26	0.0007688
2854.9	0.0006728
2864.55	0.0009304
2874.19	0.0007952
2883.84	0.0011266
2893.48	0.002007
2903.12	0.005577
2912.77	0.008827
2922.41	0.008007
2932.06	0.004577
2941.7	0.001667
2951.35	0.0010047
2960.99	0.0006475
2970.64	0.0006615
2980.28	0.0008079
2989.93	0.001257
2999.57	0.002327
3009.22	0.004377
3018.86	0.007517
3028.51	0.010397
3038.15	0.010647
3047.8	0.010267
3057.44	0.013857
3067.09	0.024367
3076.73	0.020957
3086.38	0.012457
3096.02	0.006657
3105.67	0.002937
3115.31	0.001237
3124.95	0.0009582
3134.6	0.0008587
3144.24	0.0007443
3153.89	0.001287
3163.53	0.001467
3173.18	0.0009538
3182.82	0.0006135
3192.47	0.000623
3202.11	0.0003702
3211.76	0.000664
3221.4	0.0004004
3231.05	0.0005544
3240.69	0.0004851
3250.34	0.0003786
3259.98	0.0001106
3269.63	0.0003026
3279.27	0.00026304
3288.92	0.00019398
3298.56	0.0003066
3308.21	0.0001029
3317.85	0.0001656
3327.49	0.0005048
3337.14	0.000646
3346.78	0.0005905
3356.43	0.0003471
3366.07	0.0004754
3375.72	0.0004006
3385.36	0.0004109
3395.01	0.0003397
3404.65	0.00026358
3414.3	0.0004019
3423.94	0.0003736
3433.59	0.0004262
3443.23	0.0006514
3452.88	0.0003672
3462.52	0.0004283
3472.17	0.0005036
3481.81	0.0003409
3491.46	0.00025191
3501.1	0.00021422
3510.75	0.0003397
3520.39	0.000339
3530.04	0.00026343
3539.68	0.0003999
3549.32	0.0005344
3558.97	0.000556
3568.61	0.00027282
3578.26	0.0004621
3587.9	0.0004568
3597.55	0.0005565
3607.19	0.00017224
3616.84	0.0004436
3626.48	0.00024768
3636.13	0.000457
3645.77	0.0004015
3655.42	0.0005397
3665.06	0.0005433
3674.71	0.00024705
3684.35	0.0004968
3694	0.0004063
3703.64	0.0003891
3713.29	0.0004163
3722.93	0.0005686
3732.58	0.00025685
3742.22	0.00019722
3751.86	9.21e-05
3761.51	0.0005375
3771.15	0.0004786
3780.8	0.0001373
3790.44	0.0005009
3800.09	0.0004256
3809.73	0.0005044
3819.38	0.0003286
3829.02	0.0003942
3838.67	0.00024753
3848.31	0.0005958
3857.96	0.0004562
3867.6	0.0003749
3877.25	0.0005149
3886.89	0.0006907
3896.54	0.0004377
3906.18	0.0003674
3915.83	0.000614
3925.47	0.0007115
3935.12	0.0006501
3944.76	0.0005391
3954.41	0.000374
3964.05	0.0004307
3973.69	0.00027398
3983.34	0.0003318
3992.98	0.00021986
