Infrared Spectrum: 4,4'-Dimethyl-2,2'-bipyridine
Formula: C 12 H 12 N 2
CAS: 1134-35-6
State: gas
Instrument: HP-GC/MS/IRD
Origin: NIST Mass Spectrometry Data Center
1/CM	ABSORBANCE
550	0.0003296
562	3.84e-05
574	8.96e-05
586	0.0001376
598	0.00048
610	0.0024288
622	0.004256
634	0.0013312
646	0.0009984
658	0.0025152
670	0.000736
682	0.000304
694	0.0004896
706	0.0005344
718	0.0009952
730	0.0035584
742	0.0161184
754	0.032
766	0.0149568
778	0.002896
790	0.0009408
802	0.0004992
814	0.000272
826	0.0003168
838	0.0003904
850	0.000448
862	0.0003584
874	0.0002752
886	0.0004864
898	0.0007456
910	0.0004288
922	0.0002752
934	0.0002496
946	0.0004608
958	0.0007264
970	0.0008448
982	0.00136
994	0.0016256
1006	0.0010656
1018	0.0010976
1030	0.0031456
1042	0.0045152
1054	0.0016256
1066	0.0014432
1078	0.0038144
1090	0.0068896
1102	0.0014848
1114	0.0003712
1126	0.0003648
1138	0.0014208
1150	0.0017376
1162	0.0003456
1174	0.0002048
1186	0.0003008
1198	0.0004192
1210	0.0003968
1222	0.0003456
1234	0.000832
1246	0.002896
1258	0.0017984
1270	0.000336
1282	0.0002016
1294	0.0003264
1306	0.0003232
1318	0.000176
1330	0.0001408
1342	0.0001632
1354	0.0002304
1366	0.0004032
1378	0.0006208
1390	0.0010304
1402	0.002496
1414	0.0114432
1426	0.012864
1438	0.0057824
1450	0.0167936
1462	0.017456
1474	0.0025696
1486	0.0012064
1498	0.0009536
1510	0.0007936
1522	0.000992
1534	0.0019488
1546	0.0048192
1558	0.0094944
1570	0.0164608
1582	0.0252352
1594	0.0105856
1606	0.002912
1618	0.0017408
1630	0.00128
1642	0.0010912
1654	0.000928
1666	0.0006752
1678	0.0006656
1690	0.0007072
1702	0.0007264
1714	0.000576
1726	0.0004128
1738	0.0002464
1750	0.0002624
1762	0.0003456
1774	0.0003744
1786	0.00048
1798	0.0003904
1810	0.000208
1822	0.0001696
1834	0.0003456
1846	0.000576
1858	0.0005632
1870	0.0006048
1882	0.0007328
1894	0.000448
1906	0.0006848
1918	0.0009312
1930	0.0004704
1942	0.000672
1954	0.0006368
1966	0.0006208
1978	0.000704
1990	0.00032
2002	0.0001408
2014	8.96e-05
2026	0.0001024
2038	9.92e-05
2050	4.8e-05
2062	5.12e-05
2074	5.76e-05
2086	7.04e-05
2098	4.8e-05
2110	5.44e-05
2122	4.48e-05
2134	4.8e-05
2146	5.12e-05
2158	8e-05
2170	9.28e-05
2182	0.0002304
2194	0.0001856
2206	0.0001088
2218	8.32e-05
2230	8.64e-05
2242	6.08e-05
2254	8.32e-05
2266	8e-05
2278	0.000192
2290	0.0003424
2302	0.0002112
2314	0.0001344
2326	0.000112
2338	0.0001408
2350	0.0001024
2362	8e-05
2374	9.6e-05
2386	6.08e-05
2398	4.8e-05
2410	9.28e-05
2422	7.04e-05
2434	4.8e-05
2446	9.28e-05
2458	6.72e-05
2470	6.4e-05
2482	8.32e-05
2494	6.08e-05
2506	9.6e-06
2518	2.24e-05
2530	6.72e-05
2542	0.000112
2554	0.0001408
2566	8e-05
2578	0.0001024
2590	4.8e-05
2602	0.0001184
2614	0.000192
2626	0.0001344
2638	0.000144
2650	0.000112
2662	8.32e-05
2674	8.32e-05
2686	8e-05
2698	4.8e-05
2710	6.08e-05
2722	0.0001152
2734	0.0001312
2746	0.0001504
2758	0.0001248
2770	5.76e-05
2782	7.68e-05
2794	0.0001024
2806	2.88e-05
2818	3.2e-05
2830	9.92e-05
2842	0.0001216
2854	0.0002048
2866	0.0003264
2878	0.0003488
2890	0.0003424
2902	0.0004576
2914	0.0005056
2926	0.0006176
2938	0.0005472
2950	0.0003232
2962	0.0003648
2974	0.0006048
2986	0.0009376
2998	0.0021824
3010	0.0047552
3022	0.0052384
3034	0.004208
3046	0.006752
3058	0.0110624
3070	0.0156832
3082	0.0090144
3094	0.0026656
3106	0.0015264
3118	0.0009632
3130	0.0011424
3142	0.00096
3154	0.0006752
3166	0.0004544
3178	0.0004096
3190	0.0002656
3202	0.000144
3214	0.000144
3226	0.0001504
3238	0.0001152
3250	0.0001568
3262	0.0001504
3274	7.36e-05
3286	0.0001472
3298	6.08e-05
3310	0.0001408
3322	5.12e-05
3334	0.0001024
3346	0.000192
3358	0.0001248
3370	8.64e-05
3382	5.12e-05
3394	0.0001696
3406	0.000176
3418	0.0002048
3430	9.6e-05
3442	0.0001952
3454	8.32e-05
3466	0.0001568
3478	0.000144
3490	0.0001632
3502	0.0001312
3514	9.6e-06
3526	0.0001632
3538	0.0002144
3550	8.64e-05
3562	0.0001632
3574	0.0001728
3586	8.64e-05
3598	0.0001152
3610	0.0001472
3622	0.0001632
3634	0.0002656
3646	0.0002368
3658	0.0002336
3670	0.0002496
3682	0.000224
3694	0.0002272
3706	0.0001312
3718	0.000192
3730	0.0002656
3742	0.0002688
3754	0.000208
3766	0.00024
3778	0.0001856
3790	0.0002272
3802	0.0002912
3814	0.0002368
3826	0.0002912
3838	0.000304
