Infrared Spectrum: Cycloate
Formula: C 11 H 21 N O S
CAS: 1134-23-2
State: gas
Instrument: HP-GC/MS/IRD
Origin: NIST Mass Spectrometry Data Center
1/CM	ABSORBANCE
550	0.000141
562	0.000188
574	0.0005358
586	0.000329
598	0.000188
610	0.0002632
622	0.0003008
634	0.0002444
646	0.0006298
658	0.002397
670	0.0042112
682	0.0027354
694	0.0035532
706	0.002021
718	0.0034404
730	0.0025192
742	0.0007426
754	0.000658
766	0.0007332
778	0.0014758
790	0.0033934
802	0.0046436
814	0.0030268
826	0.001175
838	0.0023594
850	0.0055742
862	0.0048598
874	0.0028388
886	0.0026226
898	0.004136
910	0.0034686
922	0.0036284
934	0.0019458
946	0.0014946
958	0.0022372
970	0.0048692
982	0.004888
994	0.0020868
1006	0.0021526
1018	0.002726
1030	0.0034968
1042	0.0040796
1054	0.005828
1066	0.0093342
1078	0.0150494
1090	0.0269498
1102	0.0210466
1114	0.0089206
1126	0.0092872
1138	0.0146546
1150	0.0066176
1162	0.0037506
1174	0.0048598
1186	0.0086292
1198	0.0123328
1210	0.018612
1222	0.0428452
1234	0.0511924
1246	0.0168448
1258	0.0182078
1270	0.02115
1282	0.0202194
1294	0.0091838
1306	0.006157
1318	0.0090052
1330	0.0113176
1342	0.0145794
1354	0.0211594
1366	0.0156604
1378	0.0134984
1390	0.0163278
1402	0.0178788
1414	0.012737
1426	0.0086198
1438	0.0068996
1450	0.0118158
1462	0.0121824
1474	0.0073038
1486	0.0031678
1498	0.0018894
1510	0.0014288
1522	0.0011656
1534	0.0010528
1546	0.0009682
1558	0.0009588
1570	0.001175
1582	0.0014194
1594	0.0017202
1606	0.0022372
1618	0.0035156
1630	0.005781
1642	0.011703
1654	0.0387844
1666	0.094
1678	0.0403918
1690	0.009353
1702	0.0040326
1714	0.0026414
1726	0.0018894
1738	0.0014664
1750	0.0010904
1762	0.0007614
1774	0.0005264
1786	0.0004418
1798	0.0003478
1810	0.0002914
1822	0.0002068
1834	0.0001692
1846	0.0001222
1858	0.0001034
1870	8.46e-05
1882	0.0001128
1894	0.0001128
1906	0.0001034
1918	0.0001316
1930	0.0001222
1942	9.4e-05
1954	7.52e-05
1966	7.52e-05
1978	5.64e-05
1990	6.58e-05
2002	0.0001128
2014	6.58e-05
2026	4.7e-05
2038	2.82e-05
2050	5.64e-05
2062	6.58e-05
2074	0.0001128
2086	7.52e-05
2098	5.64e-05
2110	5.64e-05
2122	7.52e-05
2134	6.58e-05
2146	6.58e-05
2158	4.7e-05
2170	7.52e-05
2182	9.4e-05
2194	9.4e-05
2206	4.7e-05
2218	9.4e-05
2230	0.0001974
2242	0.0002068
2254	8.46e-05
2266	3.76e-05
2278	8.46e-05
2290	4.7e-05
2302	4.7e-05
2314	7.52e-05
2326	7.52e-05
2338	8.46e-05
2350	0.0001504
2362	0.0001316
2374	0.0001504
2386	0.0001598
2398	0.0001692
2410	0.0002444
2422	0.0002726
2434	0.000235
2446	0.0001974
2458	0.0001316
2470	0.0001316
2482	0.0001974
2494	0.0002068
2506	0.0001692
2518	0.0001504
2530	0.0001034
2542	7.52e-05
2554	8.46e-05
2566	0.0001034
2578	0.0002162
2590	0.0002538
2602	0.0003572
2614	0.000329
2626	0.0003854
2638	0.0004512
2650	0.000564
2662	0.000799
2674	0.0008742
2686	0.0007614
2698	0.0007144
2710	0.0006862
2722	0.0006862
2734	0.0007332
2746	0.0007238
2758	0.0007896
2770	0.0008178
2782	0.001081
2794	0.001504
2806	0.0018706
2818	0.002209
2830	0.002914
2842	0.0042488
2854	0.0117406
2866	0.0254176
2878	0.017437
2890	0.0134044
2902	0.0133574
2914	0.019928
2926	0.0384648
2938	0.0817424
2950	0.061288
2962	0.024534
2974	0.02256
2986	0.017813
2998	0.0120696
3010	0.0058468
3022	0.0031866
3034	0.0022278
3046	0.001598
3058	0.0013254
3070	0.0010904
3082	0.0010528
3094	0.0010058
3106	0.0009024
3118	0.0008084
3130	0.0007332
3142	0.0007426
3154	0.0006956
3166	0.000611
3178	0.0005358
3190	0.00047
3202	0.0003478
3214	0.0003008
3226	0.0002538
3238	0.0002538
3250	0.0004324
3262	0.0003572
3274	0.0003384
3286	0.000423
3298	0.0005828
3310	0.0007426
3322	0.0007896
3334	0.0004794
3346	0.0003102
3358	0.0002256
3370	0.000282
3382	0.0002256
3394	0.0002914
3406	0.0002538
3418	0.0002068
3430	0.0002162
3442	0.0001786
3454	0.000282
3466	0.000282
3478	0.0001598
3490	0.0001222
3502	0.000141
3514	9.4e-05
3526	9.4e-05
3538	4.7e-05
3550	7.52e-05
3562	5.64e-05
3574	9.4e-05
3586	0.0001222
3598	0.0001974
3610	0.0001786
3622	0.0002538
3634	0.0001692
3646	0.0002256
3658	0.0002538
3670	0.000188
3682	0.0001598
3694	0.000141
3706	0.0002726
3718	0.0001504
3730	0.0002444
3742	0.0002068
3754	0.0002632
3766	0.0001786
3778	0.0002914
3790	0.0002726
3802	0.000282
3814	0.0001222
3826	0.0002538
3838	0.0002726
