Infrared Spectrum: 2,4-PENTANEDIONE, 3-BENZYL-
Formula: C12 H14 O2
CAS: 1134-87-8
State: LIQUID (NEAT)
Boiling point: 114 C AT 1.8 mmHg
Class: COBLENTZ III
Instrument: PERKIN-ELMER 421 (GRATING)
Instrument parameters: GRATINGS: 1999 CM^-^1
Sampling: TRANSMISSION
Path length: CAPILLARY
Resolution: 2
Origin: ABBOTT LABORATORIES
1/CM	TRANSMITTANCE
685.38	0.623
693.856	0.3691
702.333	0.3949
710.809	0.4056
719.285	0.4039
727.761	0.4857
736.238	0.5039
744.714	0.5582
753.19	0.5687
761.666	0.5784
770.143	0.6756
778.619	0.7671
787.095	0.7726
795.572	0.7652
804.048	0.811
812.524	0.821
821	0.82
829.477	0.8097
837.953	0.8026
846.429	0.8
854.906	0.8
863.382	0.804
871.858	0.8049
880.334	0.799
888.811	0.7812
897.287	0.7435
905.763	0.727
914.239	0.7233
922.716	0.6842
931.192	0.6495
939.668	0.5599
948.145	0.446
956.621	0.5341
965.097	0.5935
973.573	0.607
982.05	0.5985
990.526	0.594
999.002	0.5998
1007.48	0.603
1015.95	0.5947
1024.43	0.571
1032.91	0.6393
1041.38	0.7194
1049.86	0.7447
1058.34	0.7358
1066.81	0.7105
1075.29	0.6668
1083.76	0.6988
1092.24	0.7539
1100.72	0.7511
1109.19	0.7293
1117.67	0.7234
1126.15	0.6723
1134.62	0.5345
1143.1	0.3916
1151.58	0.3526
1160.05	0.4988
1168.53	0.498
1177	0.492
1185.48	0.4782
1193.96	0.4295
1202.43	0.4679
1210.91	0.498
1219.39	0.52
1227.86	0.5538
1236.34	0.5295
1244.81	0.4556
1253.29	0.423
1261.77	0.4209
1270.24	0.4282
1278.72	0.464
1287.2	0.4561
1295.67	0.4609
1304.15	0.4464
1312.62	0.4545
1321.1	0.4668
1329.58	0.4897
1338.05	0.4906
1346.53	0.3179
1355.01	0.2001
1363.48	0.2598
1371.96	0.4183
1380.43	0.468
1388.91	0.4621
1397.39	0.4085
1405.86	0.3442
1414.34	0.309
1422.82	0.3128
1431.29	0.3357
1439.77	0.3475
1448.24	0.3597
1456.72	0.3948
1465.2	0.4851
1473.67	0.491
1482.15	0.4921
1490.63	0.312
1499.1	0.4463
1507.58	0.4945
1516.05	0.4902
1524.53	0.4808
1533.01	0.4639
1541.48	0.4487
1549.96	0.4171
1558.44	0.402
1566.91	0.3834
1575.39	0.3456
1583.87	0.3221
1592.34	0.3088
1600.82	0.2952
1609.29	0.3503
1617.77	0.371
1626.25	0.3936
1634.72	0.4453
1643.2	0.4831
1651.68	0.487
1660.15	0.489
1668.63	0.4829
1677.1	0.4193
1685.58	0.3382
1694.06	0.1449
1702.53	0.1948
1711.01	0.2358
1719.49	0.1832
1727.96	0.2821
1736.44	0.4565
1744.91	0.5526
1753.39	0.6274
1761.87	0.6936
1770.34	0.7075
1778.82	0.7219
1787.3	0.73
1795.77	0.73
1804.25	0.73
1812.72	0.7393
1821.2	0.754
1829.68	0.7652
1838.15	0.769
1846.63	0.77
1855.11	0.771
1863.58	0.77
1872.06	0.768
1880.53	0.7679
1889.01	0.769
1897.49	0.775
1905.96	0.7828
1914.44	0.787
1922.92	0.787
1931.39	0.785
1939.87	0.7704
1948.34	0.7668
1956.82	0.7711
1965.3	0.777
1973.77	0.7875
1982.25	0.791
1990.73	0.791
1999.2	0.8057
2007.68	0.818
2016.16	0.821
2024.63	0.821
2033.11	0.822
2041.58	0.822
2050.06	0.822
2058.54	0.823
2067.01	0.822
2075.49	0.822
2083.97	0.822
2092.44	0.822
2100.92	0.823
2109.39	0.824
2117.87	0.824
2126.35	0.826
2134.82	0.827
2143.3	0.828
2151.78	0.828
2160.25	0.829
2168.73	0.829
2177.2	0.829
2185.68	0.828
2194.16	0.828
2202.63	0.828
2211.11	0.828
2219.59	0.827
2228.06	0.824
2236.54	0.824
2245.01	0.824
2253.49	0.826
2261.97	0.823
2270.44	0.823
2278.92	0.822
2287.4	0.824
2295.87	0.828
2304.35	0.8277
2312.82	0.8307
2321.3	0.833
2329.78	0.839
2338.25	0.838
2346.73	0.834
2355.21	0.83
2363.68	0.827
2372.16	0.8237
2380.64	0.8207
2389.11	0.82
2397.59	0.8247
2406.06	0.827
2414.54	0.827
2423.02	0.827
2431.49	0.827
2439.97	0.827
2448.45	0.824
2456.92	0.823
2465.4	0.824
2473.87	0.817
2482.35	0.8117
2490.83	0.809
2499.3	0.809
2507.78	0.81
2516.26	0.81
2524.73	0.8097
2533.21	0.809
2541.68	0.808
2550.16	0.811
2558.64	0.81
2567.11	0.807
2575.59	0.8057
2584.07	0.807
2592.54	0.809
2601.02	0.809
2609.49	0.807
2617.97	0.8047
2626.45	0.807
2634.92	0.809
2643.4	0.809
2651.88	0.81
2660.35	0.81
2668.83	0.81
2677.3	0.8097
2685.78	0.807
2694.26	0.811
2702.73	0.81
2711.21	0.811
2719.69	0.812
2728.16	0.812
2736.64	0.811
2745.11	0.81
2753.59	0.809
2762.07	0.809
2770.54	0.807
2779.02	0.805
2787.5	0.8043
2795.97	0.807
2804.45	0.806
2812.93	0.7987
2821.4	0.794
2829.88	0.7867
2838.35	0.7616
2846.83	0.7383
2855.31	0.722
2863.78	0.7273
2872.26	0.733
2880.74	0.731
2889.21	0.7196
2897.69	0.6806
2906.16	0.638
2914.64	0.5973
2923.12	0.5783
2931.59	0.601
2940.07	0.6314
2948.55	0.644
2957.02	0.6463
2965.5	0.6794
2973.97	0.688
2982.45	0.683
2990.93	0.6406
2999.4	0.5926
3007.88	0.6067
3016.36	0.5612
3024.83	0.4987
3033.31	0.5658
3041.78	0.6537
3050.26	0.6359
3058.74	0.5903
3067.21	0.6375
3075.69	0.6816
3084.17	0.6641
3092.64	0.741
3101.12	0.739
3109.59	0.773
3118.07	0.7897
3126.55	0.7943
3135.02	0.7993
3143.5	0.8017
3151.98	0.805
3160.45	0.8063
3168.93	0.807
3177.4	0.8093
3185.88	0.811
3194.36	0.814
3202.83	0.817
3211.31	0.82
3219.79	0.822
3228.26	0.8223
3236.74	0.823
3245.22	0.823
3253.69	0.823
3262.17	0.823
3270.64	0.823
3279.12	0.823
3287.6	0.823
3296.07	0.823
3304.55	0.8247
3313.03	0.824
3321.5	0.8247
3329.98	0.8227
3338.45	0.822
3346.93	0.828
3355.41	0.8253
3363.88	0.8177
3372.36	0.8107
3380.84	0.804
3389.31	0.7977
3397.79	0.793
3406.26	0.796
3414.74	0.8043
3423.22	0.8127
3431.69	0.817
3440.17	0.8167
3448.65	0.8223
3457.12	0.8263
3465.6	0.829
3474.07	0.83
3482.55	0.8297
3491.03	0.83
3499.5	0.832
3507.98	0.833
3516.46	0.8297
3524.93	0.83
3533.41	0.833
3541.88	0.836
3550.36	0.835
3558.84	0.8337
3567.31	0.834
3575.79	0.8367
3584.27	0.835
3592.74	0.836
3601.22	0.8417
3609.69	0.836
3618.17	0.8333
3626.65	0.8333
3635.12	0.835
3643.6	0.8347
3652.08	0.8353
3660.55	0.8387
3669.03	0.8393
3677.51	0.8443
3685.98	0.846
3694.46	0.844
3702.93	0.844
3711.41	0.842
3719.89	0.8443
3728.36	0.853
3736.84	0.851
3745.32	0.8483
3753.79	0.845
3762.27	0.845
3770.74	0.846
3779.22	0.8463
3787.7	0.845
3796.17	0.844
3804.65	0.8443
3813.13	0.849
3821.6	0.8433
3830.08	0.84
3838.55	0.841
3847.03	0.842
3855.51	0.8417
3863.98	0.836
3872.46	0.8413
3880.94	0.8393
3889.41	0.84
3897.89	0.841
3906.36	0.84
3914.84	0.838
3923.32	0.838
3931.79	0.839
3940.27	0.839
3948.75	0.8387
3957.22	0.836
3965.7	0.835
3974.17	0.834
3982.65	0.8327
3991.13	0.833
