Infrared Spectrum: 4,6-Dibromo-2,3-dichloroaniline
Formula: C 6 H 3 Br 2 Cl 2 N
CAS: 113571-15-6
State: gas
Origin: EPA-IR VAPOR PHASE LIBRARY
1/CM	ABSORBANCE
549.8	0.00885
559.445	0.00677
569.09	0.00759
578.734	0.00574
588.379	0.00947
598.024	0.01087
607.669	0.00996
617.313	0.00793
626.958	0.00929
636.603	0.01098
646.248	0.01364
655.893	0.01901
665.537	0.02491
675.182	0.0335
684.827	0.05539
694.472	0.0527
704.116	0.02201
713.761	0.01963
723.406	0.01583
733.051	0.0126
742.695	0.01051
752.34	0.0108
761.985	0.01269
771.63	0.01936
781.275	0.03709
790.919	0.05382
800.564	0.03028
810.209	0.0183
819.854	0.01353
829.498	0.01187
839.143	0.01104
848.788	0.01059
858.433	0.01554
868.078	0.02731
877.722	0.013
887.367	0.00846
897.012	0.00795
906.657	0.00836
916.301	0.01006
925.946	0.01397
935.591	0.0111
945.236	0.00768
954.88	0.00749
964.525	0.00795
974.17	0.00804
983.815	0.00771
993.46	0.00715
1003.1	0.00645
1012.75	0.00605
1022.39	0.00608
1032.04	0.00603
1041.68	0.00714
1051.33	0.01036
1060.97	0.0192
1070.62	0.03968
1080.26	0.04511
1089.91	0.0272
1099.55	0.01555
1109.2	0.02156
1118.84	0.03197
1128.49	0.01686
1138.13	0.00469
1147.78	0.0026188
1157.42	0.0027416
1167.07	0.00665
1176.71	0.00746
1186.36	0.00357
1196	0.00643
1205.64	0.0022704
1215.29	0.00101
1224.93	0.00067
1234.58	0.001792
1244.22	0.00547
1253.87	0.01661
1263.51	0.01919
1273.16	0.00584
1282.8	0.00515
1292.45	0.00456
1302.09	0.0049
1311.74	0.00605
1321.38	0.00632
1331.03	0.00468
1340.67	0.00583
1350.32	0.01077
1359.96	0.03521
1369.61	0.0697
1379.25	0.04264
1388.9	0.01716
1398.54	0.01288
1408.18	0.01936
1417.83	0.04151
1427.47	0.09068
1437.12	0.18319
1446.76	0.15867
1456.41	0.0314
1466.05	0.01691
1475.7	0.01534
1485.34	0.00829
1494.99	0.00677
1504.63	0.0061
1514.28	0.0062
1523.92	0.00787
1533.57	0.01107
1543.21	0.01037
1552.86	0.00853
1562.5	0.0099
1572.15	0.01381
1581.79	0.01916
1591.44	0.03048
1601.08	0.07888
1610.73	0.12613
1620.37	0.07564
1630.01	0.02658
1639.66	0.01229
1649.3	0.00882
1658.95	0.00807
1668.59	0.00697
1678.24	0.00575
1687.88	0.00491
1697.53	0.00516
1707.17	0.00556
1716.82	0.00582
1726.46	0.00675
1736.11	0.00563
1745.75	0.00369
1755.4	0.00338
1765.04	0.00347
1774.69	0.003179
1784.33	0.0030138
1793.98	0.0029813
1803.62	0.0027999
1813.27	0.0027574
1822.91	0.0029154
1832.55	0.0027326
1842.2	0.0028984
1851.84	0.0030899
1861.49	0.0030515
1871.13	0.0032305
1880.78	0.0030919
1890.42	0.003036
1900.07	0.003061
1909.71	0.00337
1919.36	0.0031939
1929	0.00335
1938.65	0.00341
1948.29	0.0032911
1957.94	0.0032678
1967.58	0.00345
1977.23	0.00333
1986.87	0.0032534
1996.52	0.0031189
2006.16	0.0032831
2015.81	0.0031953
2025.45	0.0033136
2035.1	0.0033169
2044.74	0.00335
2054.38	0.00353
2064.03	0.0032737
2073.67	0.0031069
2083.32	0.0032354
2092.96	0.00343
2102.61	0.00333
2112.25	0.0032332
2121.9	0.0032693
2131.54	0.0032424
2141.19	0.0032574
2150.83	0.0032361
2160.48	0.0030741
2170.12	0.0032786
2179.77	0.0032849
2189.41	0.0031687
2199.06	0.0035
2208.7	0.00344
2218.35	0.00346
2227.99	0.00341
2237.64	0.00354
2247.28	0.00354
2256.92	0.0032577
2266.57	0.0031834
2276.21	0.0031603
2285.86	0.00342
2295.5	0.00336
2305.15	0.0033069
2314.79	0.00334
2324.44	0.00356
2334.08	0.00355
2343.73	0.00333
2353.37	0.00365
2363.02	0.00354
2372.66	0.0033157
2382.31	0.00334
2391.95	0.0032728
2401.6	0.0032252
2411.24	0.0030255
2420.89	0.0031924
2430.53	0.0032915
2440.18	0.0031238
2449.82	0.0030462
2459.47	0.0032696
2469.11	0.0030497
2478.75	0.0028382
2488.4	0.0030264
2498.04	0.00338
2507.69	0.00355
2517.33	0.00369
2526.98	0.00408
2536.62	0.00437
2546.27	0.0038
2555.91	0.00367
2565.56	0.00333
2575.2	0.0031035
2584.85	0.0031224
2594.49	0.0031688
2604.14	0.00347
2613.78	0.00371
2623.43	0.00367
2633.07	0.00352
2642.72	0.0032594
2652.36	0.00357
2662.01	0.0036
2671.65	0.0030852
2681.29	0.00337
2690.94	0.00352
2700.58	0.00341
2710.23	0.00341
2719.87	0.00372
2729.52	0.003095
2739.16	0.00345
2748.81	0.00335
2758.45	0.00345
2768.1	0.0032781
2777.74	0.00355
2787.39	0.00396
2797.03	0.00395
2806.68	0.00385
2816.32	0.0033053
2825.97	0.0030744
2835.61	0.00341
2845.26	0.0030801
2854.9	0.0032843
2864.55	0.0031953
2874.19	0.0033146
2883.84	0.0033142
2893.48	0.0031925
2903.12	0.0031828
2912.77	0.0031664
2922.41	0.0031683
2932.06	0.00334
2941.7	0.0032674
2951.35	0.002831
2960.99	0.00336
2970.64	0.00348
2980.28	0.00348
2989.93	0.00339
2999.57	0.0032202
3009.22	0.0031129
3018.86	0.0032006
3028.51	0.0030561
3038.15	0.0030551
3047.8	0.00343
3057.44	0.0031726
3067.09	0.00351
3076.73	0.0038
3086.38	0.00392
3096.02	0.00386
3105.67	0.003071
3115.31	0.0036
3124.95	0.00415
3134.6	0.00434
3144.24	0.00336
3153.89	0.0041
3163.53	0.00392
3173.18	0.00342
3182.82	0.0031857
3192.47	0.0030493
3202.11	0.0029581
3211.76	0.0032487
3221.4	0.003242
3231.05	0.0032947
3240.69	0.0029431
3250.34	0.0026873
3259.98	0.0031082
3269.63	0.0027789
3279.27	0.0030176
3288.92	0.0026632
3298.56	0.0026433
3308.21	0.0028246
3317.85	0.0024297
3327.49	0.0025266
3337.14	0.0031788
3346.78	0.0027051
3356.43	0.0030121
3366.07	0.00368
3375.72	0.00493
3385.36	0.00779
3395.01	0.01526
3404.65	0.03025
3414.3	0.03453
3423.94	0.02536
3433.59	0.01038
3443.23	0.00608
3452.88	0.00556
3462.52	0.00566
3472.17	0.00703
3481.81	0.01015
3491.46	0.01701
3501.1	0.02728
3510.75	0.03215
3520.39	0.02822
3530.04	0.01859
3539.68	0.00856
3549.32	0.00481
3558.97	0.00404
3568.61	0.002774
3578.26	0.0030045
3587.9	0.0027046
3597.55	0.0026585
3607.19	0.0028157
3616.84	0.0027874
3626.48	0.0026461
3636.13	0.0029091
3645.77	0.002114
3655.42	0.0025469
3665.06	0.0022671
3674.71	0.0024435
3684.35	0.0026456
3694	0.002663
3703.64	0.0024707
3713.29	0.0028467
3722.93	0.002666
3732.58	0.0031439
3742.22	0.0025059
3751.86	0.0025708
3761.51	0.0023947
3771.15	0.0030386
3780.8	0.0022986
3790.44	0.0030516
3800.09	0.0027682
3809.73	0.0025163
3819.38	0.002707
3829.02	0.0026823
3838.67	0.0026825
3848.31	0.0029481
3857.96	0.00341
3867.6	0.00358
3877.25	0.00372
3886.89	0.0033163
3896.54	0.00354
3906.18	0.0031666
3915.83	0.00363
3925.47	0.0029701
3935.12	0.0025453
3944.76	0.0028908
3954.41	0.0030095
3964.05	0.0031849
3973.69	0.00352
3983.34	0.00332
3992.98	0.0035
