Infrared Spectrum: Cinnamic acid, 4-hydroxy-3-methoxy-
Formula: C10 H10 O4
CAS: 1135-24-6
State: SOLID (0.9 mg / 260 mg KBr DISC) VS SCREEN
Class: COBLENTZ III
Instrument: CARY 90 (GRATING)
Instrument parameters: GRATING CHANGES: 3000, 2000, 1200 CM^-^1
Sampling: TRANSMISSION
Resolution: 2
Origin: WESTERN REGIONAL RES. USDA
1/CM	TRANSMITTANCE
488	0.637
497	0.6162
506	0.5939
515	0.5623
524	0.51
533	0.5588
542	0.6077
551	0.6068
560	0.5431
569	0.418
578	0.387
587	0.5212
596	0.5341
605	0.4838
614	0.5503
623	0.5936
632	0.6481
641	0.6757
650	0.6653
659	0.6006
668	0.6864
677	0.7246
686	0.6488
695	0.6716
704	0.755
713	0.7848
722	0.8024
731	0.7969
740	0.8047
749	0.7254
758	0.7231
767	0.7748
776	0.7797
785	0.8043
794	0.8034
803	0.3628
812	0.5291
821	0.5503
830	0.6954
839	0.7111
848	0.5299
857	0.4781
866	0.7287
875	0.7781
884	0.8058
893	0.8085
902	0.7953
911	0.7386
920	0.7019
929	0.6254
938	0.5435
947	0.5
956	0.6391
965	0.6076
974	0.4835
983	0.6006
992	0.7178
1001	0.7727
1010	0.7557
1019	0.5819
1028	0.4075
1037	0.4416
1046	0.7806
1055	0.8183
1064	0.8303
1073	0.8258
1082	0.814
1091	0.7883
1100	0.7373
1109	0.5068
1118	0.3466
1127	0.3711
1136	0.5114
1145	0.3886
1154	0.1972
1163	0.1114
1172	0.0724
1181	0.0812
1190	0.1283
1199	0.0978
1208	0.0635
1217	0.244
1226	0.245
1235	0.2028
1244	0.2433
1253	0.2439
1262	0.0932
1271	0.0376
1280	0.055
1289	0.0907
1298	0.2608
1307	0.4224
1316	0.5085
1325	0.3963
1334	0.633
1343	0.6773
1352	0.6315
1361	0.5322
1370	0.4328
1379	0.3463
1388	0.4165
1397	0.51
1406	0.4837
1415	0.3905
1424	0.2398
1433	0.1099
1442	0.5321
1451	0.5006
1460	0.4447
1469	0.4436
1478	0.7441
1487	0.7674
1496	0.6672
1505	0.3032
1514	0.0306
1523	0.2074
1532	0.564
1541	0.7532
1550	0.8255
1559	0.8202
1568	0.7821
1577	0.6887
1586	0.3075
1595	0.1164
1604	0.1215
1613	0.1947
1622	0.104
1631	0.2236
1640	0.3272
1649	0.4474
1658	0.2846
1667	0.1133
1676	0.098
1685	0.0643
1694	0.0684
1703	0.2363
1712	0.4045
1721	0.553
1730	0.7056
1739	0.8722
1748	0.9403
1757	0.973
1766	0.9858
1775	0.9909
1784	0.9936
1793	0.9948
1802	0.9948
1811	0.9932
1820	0.989
1829	0.976
1838	0.9872
1847	0.9919
1856	0.9908
1865	0.9919
1874	0.9935
1883	0.9954
1892	0.9977
1901	1.0001
1910	1.0019
1919	1.0017
1928	0.9998
1937	0.9976
1946	0.9993
1955	1.0032
1964	1.0067
1973	1.0098
1982	1.0119
1991	1.0133
2000	1.0014
2009	0.9912
2018	0.9872
2027	0.9857
2036	0.9839
2045	0.9815
2054	0.9793
2063	0.9774
2072	0.9755
2081	0.9735
2090	0.9717
2099	0.9701
2108	0.9685
2117	0.9669
2126	0.9653
2135	0.9639
2144	0.9627
2153	0.9615
2162	0.9602
2171	0.9583
2180	0.9563
2189	0.9543
2198	0.9526
2207	0.9509
2216	0.9492
2225	0.9473
2234	0.944
2243	0.9407
2252	0.9374
2261	0.934
2270	0.9296
2279	0.925
2288	0.9204
2297	0.9157
2306	0.9107
2315	0.9055
2324	0.9004
2333	0.8966
2342	0.8929
2351	0.8909
2360	0.8889
2369	0.8834
2378	0.8688
2387	0.8541
2396	0.8398
2405	0.8273
2414	0.8193
2423	0.8081
2432	0.7978
2441	0.7875
2450	0.7769
2459	0.7642
2468	0.7521
2477	0.7411
2486	0.7298
2495	0.7172
2504	0.7077
2513	0.7001
2522	0.6927
2531	0.6853
2540	0.6795
2549	0.6742
2558	0.6683
2567	0.6618
2576	0.6582
2585	0.655
2594	0.6519
2603	0.6498
2612	0.6599
2621	0.6692
2630	0.674
2639	0.6752
2648	0.6735
2657	0.6705
2666	0.665
2675	0.6651
2684	0.6679
2693	0.6711
2702	0.674
2711	0.674
2720	0.6761
2729	0.6821
2738	0.6908
2747	0.6857
2756	0.6732
2765	0.6596
2774	0.6468
2783	0.6344
2792	0.622
2801	0.6069
2810	0.5904
2819	0.5735
2828	0.5547
2837	0.5354
2846	0.5198
2855	0.5234
2864	0.5322
2873	0.5378
2882	0.5334
2891	0.5216
2900	0.5083
2909	0.4957
2918	0.4779
2927	0.4601
2936	0.4441
2945	0.4325
2954	0.4273
2963	0.4146
2972	0.4066
2981	0.4172
2990	0.4251
2999	0.4226
3008	0.4046
3017	0.3812
3026	0.3873
3035	0.3889
3044	0.3848
3053	0.3791
3062	0.3755
3071	0.3741
3080	0.3771
3089	0.3794
3098	0.3792
3107	0.3771
3116	0.3751
3125	0.3731
3134	0.3718
3143	0.3705
3152	0.3699
3161	0.3698
3170	0.3713
3179	0.3726
3188	0.3741
3197	0.3783
3206	0.3832
3215	0.3898
3224	0.3966
3233	0.4047
3242	0.4113
3251	0.4174
3260	0.4217
3269	0.4242
3278	0.4252
3287	0.425
3296	0.4231
3305	0.421
3314	0.4172
3323	0.4093
3332	0.401
3341	0.3923
3350	0.3836
3359	0.3729
3368	0.3611
3377	0.3489
3386	0.336
3395	0.3227
3404	0.3074
3413	0.2948
3422	0.2827
3431	0.2671
3440	0.2587
3449	0.2848
3458	0.3386
3467	0.3836
3476	0.421
3485	0.4622
3494	0.4882
3503	0.5058
3512	0.5227
3521	0.5467
3530	0.5882
3539	0.627
3548	0.6634
3557	0.7467
3566	0.7978
3575	0.8284
3584	0.8529
3593	0.8737
3602	0.891
3611	0.9071
3620	0.9202
3629	0.9321
3638	0.9422
3647	0.9486
3656	0.9538
3665	0.9563
3674	0.9583
3683	0.9602
3692	0.961
3701	0.9614
3710	0.962
3719	0.9624
3728	0.962
3737	0.9613
3746	0.9607
3755	0.96
3764	0.9594
3773	0.9581
3782	0.9565
3791	0.9549
3800	0.9533
3809	0.9518
3818	0.9506
3827	0.9493
3836	0.9481
3845	0.9469
3854	0.9458
3863	0.9448
3872	0.9438
3881	0.9428
3890	0.9418
3899	0.9404
3908	0.939
3917	0.9375
3926	0.9361
3935	0.9349
3944	0.9339
3953	0.9328
3962	0.9318
3971	0.9307
3980	0.9296
3989	0.9285
3998	0.9275
