Infrared Spectrum: Tin, dichlorodiphenyl-,
Formula: C12 H10 Cl2 Sn
CAS: 1135-99-5
State: SOLUTION (11% CCl4 FOR 3800-1300, 10% CS2 FOR 1300-650, AND 11% CCl4 FOR 650-250)
Melting point: 42 C
Class: COBLENTZ III
Instrument: PERKIN-ELMER 521 (GRATING)
Instrument parameters: FILTERS AT 3150, 2500, 2000, 1150, 700, 410. GRATING CHANGES: 2000, 630
Path length: 0.012 CM, 0.011 CM, AND 0.011 CM
Resolution: 2
Origin: DOW CORNING CORP.
1/CM	TRANSMITTANCE
250	0.589
259	0.5786
268	0.5225
277	0.487
286	0.6273
295	0.7185
304	0.7779
313	0.7894
322	0.8103
331	0.7862
340	0.7342
349	0.4746
358	0.1731
367	0.2261
376	0.7153
385	0.8202
394	0.8503
403	0.8551
412	0.8533
421	0.8474
430	0.8055
439	0.5597
448	0.497
457	0.7705
466	0.8203
475	0.8241
484	0.8228
493	0.8281
502	0.8343
511	0.8342
520	0.835
529	0.8378
538	0.8408
547	0.8433
556	0.8456
565	0.847
574	0.8484
583	0.8496
592	0.8505
601	0.8497
610	0.8488
619	0.8543
628	0.8486
637	0.84
646	0.8498
655	0.83
664	0.7942
673	0.6641
682	0.7125
691	0.3887
700	0.4726
709	0.7506
718	0.7032
727	0.2158
736	0.5992
745	0.8106
754	0.8498
763	0.8792
772	0.8856
781	0.8903
790	0.8963
799	0.8981
808	0.8984
817	0.8975
826	0.8933
835	0.8845
844	0.8695
853	0.8709
862	0.8845
871	0.893
880	0.8978
889	0.8964
898	0.8896
907	0.8646
916	0.87
925	0.8967
934	0.8969
943	0.8984
952	0.8962
961	0.8871
970	0.8868
979	0.8803
988	0.8704
997	0.4119
1006	0.8936
1015	0.8939
1024	0.5454
1033	0.9018
1042	0.9111
1051	0.898
1060	0.8562
1069	0.7081
1078	0.8404
1087	0.9073
1096	0.9189
1105	0.9332
1114	0.9279
1123	0.9241
1132	0.9247
1141	0.9163
1150	0.8939
1159	0.8758
1168	0.8774
1177	0.8782
1186	0.8246
1195	0.8821
1204	0.8993
1213	0.9045
1222	0.9022
1231	0.8966
1240	0.9012
1249	0.9024
1258	0.8996
1267	0.8985
1276	0.8939
1285	0.8806
1294	0.8504
1303	0.7442
1312	0.8452
1321	0.8444
1330	0.701
1339	0.838
1348	0.8515
1357	0.8518
1366	0.8426
1375	0.808
1384	0.8454
1393	0.8522
1402	0.8327
1411	0.8267
1420	0.8018
1429	0.4909
1438	0.6826
1447	0.8402
1456	0.8451
1465	0.8405
1474	0.7468
1483	0.3277
1492	0.8495
1501	0.8499
1510	0.8481
1519	0.8445
1528	0.8378
1537	0.8296
1546	0.8306
1555	0.8392
1564	0.8275
1573	0.7905
1582	0.8247
1591	0.8405
1600	0.8395
1609	0.8348
1618	0.8455
1627	0.8453
1636	0.8215
1645	0.8255
1654	0.8558
1663	0.8552
1672	0.8555
1681	0.8555
1690	0.8557
1699	0.856
1708	0.855
1717	0.8549
1726	0.8551
1735	0.8543
1744	0.8607
1753	0.8498
1762	0.846
1771	0.8558
1780	0.8596
1789	0.8618
1798	0.8571
1807	0.8272
1816	0.7961
1825	0.8505
1834	0.8532
1843	0.8646
1852	0.8611
1861	0.8582
1870	0.8533
1879	0.7994
1888	0.8529
1897	0.8327
1906	0.8497
1915	0.8646
1924	0.8639
1933	0.8585
1942	0.8548
1951	0.8228
1960	0.8219
1969	0.8506
1978	0.8437
1987	0.8638
1996	0.8738
2005	0.8752
2014	0.8767
2023	0.8776
2032	0.8776
2041	0.8773
2050	0.8769
2059	0.8761
2068	0.8752
2077	0.8742
2086	0.8718
2095	0.8678
2104	0.872
2113	0.8739
2122	0.874
2131	0.8699
2140	0.8625
2149	0.8566
2158	0.8726
2167	0.8738
2176	0.8734
2185	0.8719
2194	0.8705
2203	0.8691
2212	0.8678
2221	0.8664
2230	0.8652
2239	0.864
2248	0.862
2257	0.8603
2266	0.8604
2275	0.8627
2284	0.8644
2293	0.8672
2302	0.8698
2311	0.8703
2320	0.8703
2329	0.8701
2338	0.8691
2347	0.8684
2356	0.8703
2365	0.8721
2374	0.8662
2383	0.8622
2392	0.8606
2401	0.8596
2410	0.8589
2419	0.8592
2428	0.8595
2437	0.8592
2446	0.8588
2455	0.8582
2464	0.8578
2473	0.8573
2482	0.8568
2491	0.8563
2500	0.856
2509	0.8555
2518	0.8551
2527	0.8547
2536	0.8544
2545	0.8544
2554	0.8543
2563	0.8543
2572	0.8542
2581	0.854
2590	0.8503
2599	0.8372
2608	0.8503
2617	0.8573
2626	0.8572
2635	0.8549
2644	0.8514
2653	0.8396
2662	0.8487
2671	0.8548
2680	0.8567
2689	0.8563
2698	0.8561
2707	0.8557
2716	0.8552
2725	0.8545
2734	0.8539
2743	0.8533
2752	0.8526
2761	0.8518
2770	0.8511
2779	0.8504
2788	0.8497
2797	0.849
2806	0.8483
2815	0.848
2824	0.8478
2833	0.8475
2842	0.847
2851	0.8462
2860	0.8448
2869	0.8423
2878	0.8399
2887	0.8375
2896	0.8353
2905	0.8331
2914	0.8352
2923	0.8363
2932	0.835
2941	0.8306
2950	0.8245
2959	0.8205
2968	0.8187
2977	0.8166
2986	0.8103
2995	0.7957
3004	0.767
3013	0.7872
3022	0.7693
3031	0.7453
3040	0.7165
3049	0.7047
3058	0.5878
3067	0.6119
3076	0.5508
3085	0.6032
3094	0.7649
3103	0.7889
3112	0.8416
3121	0.85
3130	0.8531
3139	0.8431
3148	0.8291
3157	0.847
3166	0.8584
3175	0.8591
3184	0.8598
3193	0.8606
3202	0.8611
3211	0.8613
3220	0.8617
3229	0.8619
3238	0.8622
3247	0.8624
3256	0.8627
3265	0.8628
3274	0.8627
3283	0.8624
3292	0.8621
3301	0.8617
3310	0.8614
3319	0.861
3328	0.8606
3337	0.86
3346	0.8596
3355	0.8591
3364	0.8587
3373	0.8581
3382	0.8577
3391	0.8576
3400	0.8575
3409	0.8575
3418	0.8575
3427	0.8574
3436	0.8574
3445	0.8573
3454	0.8573
3463	0.8574
3472	0.8574
3481	0.8574
3490	0.8573
3499	0.8571
3508	0.8569
3517	0.8567
3526	0.8564
3535	0.8556
3544	0.8547
3553	0.8539
3562	0.8544
3571	0.855
3580	0.8562
3589	0.8578
3598	0.8599
3607	0.8622
3616	0.8648
3625	0.8676
3634	0.8701
3643	0.8722
3652	0.8739
3661	0.8749
3670	0.8754
3679	0.8754
3688	0.8738
3697	0.8698
3706	0.8695
3715	0.8704
3724	0.8718
3733	0.8732
3742	0.8745
3751	0.8758
3760	0.8768
3769	0.8773
3778	0.8774
3787	0.8773
3796	0.8785
3805	0.8797
