Infrared Spectrum: 3,4-Methylenedioxyphenyl isothiocyanate
Formula: C 8 H 5 N O 2 S
CAS: 113504-93-1
State: gas
Origin: EPA-IR VAPOR PHASE LIBRARY
1/CM	ABSORBANCE
549.8	0.052034
559.445	0.043884
569.09	0.029774
578.734	0.022574
588.379	0.021054
598.024	0.019914
607.669	0.011974
617.313	0.009564
626.958	0.012004
636.603	0.017474
646.248	0.016434
655.893	0.011774
665.537	0.010674
675.182	0.015524
684.827	0.029284
694.472	0.022834
704.116	0.006194
713.761	0.009564
723.406	0.020164
733.051	0.006024
742.695	0.002624
752.34	0.003844
761.985	0.005584
771.63	0.006484
781.275	0.014484
790.919	0.044934
800.564	0.108264
810.209	0.124354
819.854	0.049624
829.498	0.033354
839.143	0.071634
848.788	0.137934
858.433	0.110194
868.078	0.039774
877.722	0.019664
887.367	0.017904
897.012	0.018354
906.657	0.020634
916.301	0.028314
925.946	0.047764
935.591	0.083824
945.236	0.104804
954.88	0.077544
964.525	0.056134
974.17	0.037454
983.815	0.016774
993.46	0.015184
1003.1	0.021504
1012.75	0.035994
1022.39	0.063364
1032.04	0.118454
1041.68	0.190154
1051.33	0.195814
1060.97	0.128654
1070.62	0.058194
1080.26	0.037494
1089.91	0.045054
1099.55	0.056874
1109.2	0.052084
1118.84	0.040564
1128.49	0.034024
1138.13	0.029314
1147.78	0.022224
1157.42	0.019114
1167.07	0.022904
1176.71	0.040244
1186.36	0.113824
1196	0.283454
1205.64	0.318534
1215.29	0.125174
1224.93	0.097184
1234.58	0.237574
1244.22	0.381484
1253.87	0.177144
1263.51	0.081884
1273.16	0.081574
1282.8	0.045734
1292.45	0.027214
1302.09	0.030224
1311.74	0.035484
1321.38	0.042334
1331.03	0.058014
1340.67	0.093624
1350.32	0.066344
1359.96	0.020024
1369.61	0.011334
1379.25	0.009714
1388.9	0.012864
1398.54	0.017224
1408.18	0.013094
1417.83	0.016714
1427.47	0.040544
1437.12	0.091494
1446.76	0.153324
1456.41	0.091064
1466.05	0.095134
1475.7	0.399684
1485.34	0.917244
1494.99	0.373154
1504.63	0.166614
1514.28	0.130714
1523.92	0.043244
1533.57	0.023544
1543.21	0.019014
1552.86	0.014464
1562.5	0.011414
1572.15	0.011394
1581.79	0.014974
1591.44	0.023204
1601.08	0.037524
1610.73	0.049184
1620.37	0.051404
1630.01	0.036624
1639.66	0.020654
1649.3	0.014914
1658.95	0.010904
1668.59	0.008014
1678.24	0.008184
1687.88	0.010494
1697.53	0.012364
1707.17	0.012064
1716.82	0.010214
1726.46	0.008794
1736.11	0.009114
1745.75	0.009794
1755.4	0.010214
1765.04	0.010804
1774.69	0.011224
1784.33	0.011784
1793.98	0.012404
1803.62	0.013034
1813.27	0.015044
1822.91	0.017744
1832.55	0.016174
1842.2	0.012604
1851.84	0.012124
1861.49	0.013554
1871.13	0.015724
1880.78	0.018274
1890.42	0.020384
1900.07	0.022884
1909.71	0.029304
1919.36	0.040924
1929	0.058874
1938.65	0.075744
1948.29	0.096314
1957.94	0.130134
1967.58	0.173224
1977.23	0.228984
1986.87	0.297104
1996.52	0.387824
2006.16	0.506874
2015.81	0.629834
2025.45	0.749804
2035.1	0.901254
2044.74	1.03625
2054.38	0.867884
2064.03	0.565324
2073.67	0.437614
2083.32	0.489164
2092.96	0.607444
2102.61	0.665434
2112.25	0.561764
2121.9	0.364114
2131.54	0.247904
2141.19	0.203014
2150.83	0.185114
2160.48	0.167174
2170.12	0.134834
2179.77	0.087414
2189.41	0.052764
2199.06	0.037474
2208.7	0.028904
2218.35	0.023414
2227.99	0.022374
2237.64	0.023804
2247.28	0.018684
2256.92	0.011814
2266.57	0.009484
2276.21	0.009324
2285.86	0.010464
2295.5	0.011204
2305.15	0.010254
2314.79	0.009594
2324.44	0.009044
2334.08	0.008754
2343.73	0.007544
2353.37	0.006794
2363.02	0.007414
2372.66	0.008424
2382.31	0.009184
2391.95	0.011724
2401.6	0.015504
2411.24	0.015114
2420.89	0.010894
2430.53	0.009084
2440.18	0.009254
2449.82	0.009784
2459.47	0.011014
2469.11	0.011034
2478.75	0.009134
2488.4	0.007324
2498.04	0.006844
2507.69	0.007424
2517.33	0.008364
2526.98	0.010094
2536.62	0.012604
2546.27	0.014364
2555.91	0.014554
2565.56	0.013894
2575.2	0.012564
2584.85	0.010894
2594.49	0.009024
2604.14	0.007514
2613.78	0.006924
2623.43	0.006764
2633.07	0.006744
2642.72	0.007114
2652.36	0.007304
2662.01	0.007584
2671.65	0.008584
2681.29	0.009344
2690.94	0.009784
2700.58	0.009944
2710.23	0.010464
2719.87	0.011324
2729.52	0.012084
2739.16	0.012874
2748.81	0.012734
2758.45	0.013364
2768.1	0.020134
2777.74	0.026664
2787.39	0.016724
2797.03	0.011624
2806.68	0.011304
2816.32	0.011914
2825.97	0.013304
2835.61	0.017134
2845.26	0.021714
2854.9	0.026344
2864.55	0.035624
2874.19	0.054514
2883.84	0.075664
2893.48	0.071354
2903.12	0.058724
2912.77	0.060604
2922.41	0.065174
2932.06	0.058644
2941.7	0.049674
2951.35	0.046604
2960.99	0.041894
2970.64	0.032134
2980.28	0.024624
2989.93	0.024114
2999.57	0.023514
3009.22	0.024524
3018.86	0.032074
3028.51	0.024724
3038.15	0.015094
3047.8	0.012174
3057.44	0.010604
3067.09	0.009964
3076.73	0.010614
3086.38	0.012084
3096.02	0.006954
3105.67	0.003864
3115.31	0.002764
3124.95	0.0018314
3134.6	0.0011219
3144.24	0.001077
3153.89	0.000518
3163.53	0.000538
3173.18	0.000491
3182.82	0.000424
3192.47	0.000411
3202.11	0.000321
3211.76	0.000347
3221.4	0.000539
3231.05	0.00056
3240.69	0.000691
3250.34	0.000558
3259.98	0.000392
3269.63	0.000277
3279.27	0.000264
3288.92	0.000178
3298.56	0.000141
3308.21	0.000282
3317.85	0.000235
3327.49	0.000376
3337.14	0.000178
3346.78	0.000219
3356.43	0.000278
3366.07	0.000402
3375.72	0.000454
3385.36	0.000429
3395.01	0.000321
3404.65	0.000306
3414.3	0.000502
3423.94	0.000287
3433.59	0.000331
3443.23	0.000413
3452.88	0.000302
3462.52	0.000361
3472.17	0.000316
3481.81	0.00045
3491.46	0.00044
3501.1	0.000513
3510.75	0.000366
3520.39	0.000351
3530.04	0.000403
3539.68	0.000456
3549.32	0.000481
3558.97	0.000383
3568.61	0.000375
3578.26	0.000402
3587.9	0.000667
3597.55	0.000597
3607.19	0.000588
3616.84	0.000652
3626.48	0.000711
3636.13	0.00064
3645.77	0.000639
3655.42	0.00088474
3665.06	0.0008245
3674.71	0.0008539
3684.35	0.000786
3694	0.000715
3703.64	0.0008348
3713.29	0.000641
3722.93	0.0008209
3732.58	0.00086926
3742.22	0.0009926
3751.86	0.0010855
3761.51	0.00091998
3771.15	0.0010323
3780.8	0.0009768
3790.44	0.00096105
3800.09	0.0013062
3809.73	0.00094427
3819.38	0.001123
3829.02	0.0010982
3838.67	0.0010543
3848.31	0.001171
3857.96	0.0013253
3867.6	0.0015884
3877.25	0.0017706
3886.89	0.001894
3896.54	0.001904
3906.18	0.002294
3915.83	0.002604
3925.47	0.002984
3935.12	0.003364
3944.76	0.003674
3954.41	0.003644
3964.05	0.003674
3973.69	0.003834
3983.34	0.003864
3992.98	0.003934
