Infrared Spectrum: 3-(4-Hydroxy-3-methoxyphenyl)propionic acid
Formula: C 10 H 12 O 4
CAS: 1135-23-5
State: gas
Origin: EPA-IR VAPOR PHASE LIBRARY
1/CM	ABSORBANCE
549.8	0.00473
559.445	0.00482
569.09	0.00462
578.734	0.0037
588.379	0.00373
598.024	0.00428
607.669	0.0038
617.313	0.00352
626.958	0.00354
636.603	0.00345
646.248	0.00302
655.893	0.00219
665.537	0.0014229
675.182	0.001348
684.827	0.0017807
694.472	0.0012779
704.116	0.0014761
713.761	0.0011902
723.406	0.0016345
733.051	0.0017286
742.695	0.0013107
752.34	0.0016558
761.985	0.0017738
771.63	0.0023
781.275	0.00323
790.919	0.00326
800.564	0.00365
810.209	0.00352
819.854	0.00388
829.498	0.00208
839.143	0.00222
848.788	0.00254
858.433	0.00206
868.078	0.001787
877.722	0.002001
887.367	0.00179
897.012	0.0017036
906.657	0.00213
916.301	0.0013568
925.946	0.00215
935.591	0.0026
945.236	0.0016266
954.88	0.0017313
964.525	0.0018487
974.17	0.00216
983.815	0.00222
993.46	0.0023
1003.1	0.00212
1012.75	0.00385
1022.39	0.00521
1032.04	0.00691
1041.68	0.00535
1051.33	0.00438
1060.97	0.00274
1070.62	0.00402
1080.26	0.00397
1089.91	0.00505
1099.55	0.00766
1109.2	0.0132
1118.84	0.01854
1128.49	0.01238
1138.13	0.01032
1147.78	0.00837
1157.42	0.00809
1167.07	0.0062
1176.71	0.00622
1186.36	0.00726
1196	0.00894
1205.64	0.00965
1215.29	0.00766
1224.93	0.00764
1234.58	0.01004
1244.22	0.01055
1253.87	0.01033
1263.51	0.01362
1273.16	0.01608
1282.8	0.00998
1292.45	0.00548
1302.09	0.00322
1311.74	0.00296
1321.38	0.00278
1331.03	0.00306
1340.67	0.00343
1350.32	0.00433
1359.96	0.00579
1369.61	0.00612
1379.25	0.00519
1388.9	0.00367
1398.54	0.00257
1408.18	0.00251
1417.83	0.00293
1427.47	0.00461
1437.12	0.00489
1446.76	0.00395
1456.41	0.00422
1466.05	0.00454
1475.7	0.00403
1485.34	0.00377
1494.99	0.00503
1504.63	0.01157
1514.28	0.01955
1523.92	0.0102
1533.57	0.00357
1543.21	0.0021
1552.86	0.0016466
1562.5	0.0014429
1572.15	0.001416
1581.79	0.0015881
1591.44	0.00238
1601.08	0.00307
1610.73	0.00325
1620.37	0.00218
1630.01	0.0019426
1639.66	0.0011656
1649.3	0.00106361
1658.95	0.000778
1668.59	0.00102165
1678.24	0.000763
1687.88	0.0009872
1697.53	0.00112695
1707.17	0.0015543
1716.82	0.0019674
1726.46	0.00247
1736.11	0.00354
1745.75	0.00504
1755.4	0.00747
1765.04	0.01172
1774.69	0.01608
1784.33	0.01394
1793.98	0.00863
1803.62	0.00571
1813.27	0.00373
1822.91	0.00218
1832.55	0.001642
1842.2	0.0013412
1851.84	0.0013658
1861.49	0.0013652
1871.13	0.0012428
1880.78	0.00106113
1890.42	0.0011463
1900.07	0.0012405
1909.71	0.00106757
1919.36	0.0009666
1929	0.0010132
1938.65	0.00110408
1948.29	0.00109249
1957.94	0.000906
1967.58	0.0009681
1977.23	0.0010056
1986.87	0.000894
1996.52	0.00110812
2006.16	0.001002
2015.81	0.00112592
2025.45	0.00103828
2035.1	0.0009756
2044.74	0.00110883
2054.38	0.00102183
2064.03	0.00110946
2073.67	0.0011127
2083.32	0.00089
2092.96	0.000891
2102.61	0.000928
2112.25	0.000966
2121.9	0.00078
2131.54	0.000912
2141.19	0.0010144
2150.83	0.000905
2160.48	0.00112781
2170.12	0.00106011
2179.77	0.00089
2189.41	0.0010183
2199.06	0.000858
2208.7	0.000886
2218.35	0.000837
2227.99	0.000869
2237.64	0.00107761
2247.28	0.000823
2256.92	0.0009301
2266.57	0.00108118
2276.21	0.0009657
2285.86	0.00104112
2295.5	0.0010657
2305.15	0.00079
2314.79	0.0012697
2324.44	0.0011577
2334.08	0.0009425
2343.73	0.0009576
2353.37	0.000863
2363.02	0.0013831
2372.66	0.0012392
2382.31	0.000896
2391.95	0.000942
2401.6	0.000815
2411.24	0.0009662
2420.89	0.0009998
2430.53	0.0010136
2440.18	0.000993
2449.82	0.0009564
2459.47	0.0010677
2469.11	0.0009439
2478.75	0.00108202
2488.4	0.00103575
2498.04	0.00102934
2507.69	0.0012199
2517.33	0.0012451
2526.98	0.00111477
2536.62	0.000884
2546.27	0.001143
2555.91	0.0011744
2565.56	0.000805
2575.2	0.0009411
2584.85	0.0010683
2594.49	0.000757
2604.14	0.000901
2613.78	0.00109157
2623.43	0.0009582
2633.07	0.0009838
2642.72	0.000712
2652.36	0.0009734
2662.01	0.000684
2671.65	0.0010045
2681.29	0.000576
2690.94	0.000571
2700.58	0.00111236
2710.23	0.000915
2719.87	0.0012958
2729.52	0.00110697
2739.16	0.00099
2748.81	0.0012044
2758.45	0.00111006
2768.1	0.000746
2777.74	0.00103645
2787.39	0.0011603
2797.03	0.0011616
2806.68	0.000874
2816.32	0.0013228
2825.97	0.0014051
2835.61	0.0019037
2845.26	0.00249
2854.9	0.0027
2864.55	0.00217
2874.19	0.00239
2883.84	0.001879
2893.48	0.0017894
2903.12	0.0019004
2912.77	0.0025
2922.41	0.00296
2932.06	0.00409
2941.7	0.00478
2951.35	0.00472
2960.99	0.00448
2970.64	0.0031
2980.28	0.00283
2989.93	0.00275
2999.57	0.00285
3009.22	0.00265
3018.86	0.00211
3028.51	0.0017725
3038.15	0.00226
3047.8	0.0024
3057.44	0.00205
3067.09	0.0018182
3076.73	0.0015041
3086.38	0.00151
3096.02	0.00111554
3105.67	0.00111466
3115.31	0.0011517
3124.95	0.00112931
3134.6	0.000528
3144.24	0.000552
3153.89	0.000728
3163.53	0.00082
3173.18	0.0012737
3182.82	0.000921
3192.47	0.000833
3202.11	0.000781
3211.76	0.001017
3221.4	0.000481
3231.05	0.000716
3240.69	0.000697
3250.34	0.000754
3259.98	0.000645
3269.63	0.001009
3279.27	0.0009347
3288.92	0.0011676
3298.56	0.00093
3308.21	0.000732
3317.85	0.00108505
3327.49	0.000747
3337.14	0.000926
3346.78	0.000826
3356.43	0.0010038
3366.07	0.000587
3375.72	0.0013398
3385.36	0.001489
3395.01	0.000818
3404.65	0.001288
3414.3	0.00088
3423.94	0.000721
3433.59	0.00110263
3443.23	0.000787
3452.88	0.000472
3462.52	0.00108483
3472.17	0.000784
3481.81	0.000491
3491.46	0.0010146
3501.1	0.000852
3510.75	0.0012184
3520.39	0.00110591
3530.04	0.000914
3539.68	0.0013902
3549.32	0.001261
3558.97	0.00265
3568.61	0.0072
3578.26	0.01087
3587.9	0.0108
3597.55	0.00627
3607.19	0.00254
3616.84	0.0019515
3626.48	0.00104582
3636.13	0.0014187
3645.77	0.0011702
3655.42	0.00104952
3665.06	0.00103502
3674.71	0.000388
3684.35	0.000759
3694	0.0011505
3703.64	0.000659
3713.29	0.000631
3722.93	0.000698
3732.58	0.0009467
3742.22	0.000613
3751.86	0.0013494
3761.51	0.00108114
3771.15	0.00106731
3780.8	0.00111211
3790.44	0.000719
3800.09	0.000782
3809.73	0.000928
3819.38	0.0009428
3829.02	0.0011866
3838.67	0.00105825
3848.31	0.00103671
3857.96	0.000584
3867.6	0.000788
3877.25	0.00103586
3886.89	0.0010557
3896.54	0.000814
3906.18	0.0012977
3915.83	0.000658
3925.47	0.0011522
3935.12	0.000845
3944.76	0.0009338
3954.41	0.000747
3964.05	0.00068
3973.69	0.001152
3983.34	0.0014222
3992.98	0.000726
