Infrared Spectrum: 2,3,6-Trifluorophenol
Formula: C 6 H 3 F 3 O
CAS: 113798-74-6
State: gas
Origin: EPA-IR VAPOR PHASE LIBRARY
1/CM	ABSORBANCE
549.8	0.006334
559.445	0.006444
569.09	0.008494
578.734	0.016064
588.379	0.031024
598.024	0.040794
607.669	0.031634
617.313	0.009754
626.958	0.006104
636.603	0.006154
646.248	0.006774
655.893	0.007544
665.537	0.013594
675.182	0.037654
684.827	0.050424
694.472	0.046474
704.116	0.013544
713.761	0.005374
723.406	0.006114
733.051	0.031694
742.695	0.076384
752.34	0.074404
761.985	0.020714
771.63	0.027454
781.275	0.074854
790.919	0.172464
800.564	0.094204
810.209	0.042574
819.854	0.010914
829.498	0.005634
839.143	0.005024
848.788	0.005474
858.433	0.005674
868.078	0.006304
877.722	0.005444
887.367	0.006574
897.012	0.008914
906.657	0.010874
916.301	0.013524
925.946	0.029134
935.591	0.079134
945.236	0.197284
954.88	0.271974
964.525	0.266964
974.17	0.201084
983.815	0.143734
993.46	0.048844
1003.1	0.024284
1012.75	0.024054
1022.39	0.055024
1032.04	0.163594
1041.68	0.220784
1051.33	0.191064
1060.97	0.060654
1070.62	0.027324
1080.26	0.018984
1089.91	0.014534
1099.55	0.011644
1109.2	0.009484
1118.84	0.007214
1128.49	0.012964
1138.13	0.051424
1147.78	0.101334
1157.42	0.107944
1167.07	0.037234
1176.71	0.019874
1186.36	0.023844
1196	0.046794
1205.64	0.130384
1215.29	0.273684
1224.93	0.377824
1234.58	0.348634
1244.22	0.258714
1253.87	0.138454
1263.51	0.110064
1273.16	0.086064
1282.8	0.057254
1292.45	0.085964
1302.09	0.162454
1311.74	0.243584
1321.38	0.233284
1331.03	0.129014
1340.67	0.084764
1350.32	0.054254
1359.96	0.017734
1369.61	0.009264
1379.25	0.009814
1388.9	0.008994
1398.54	0.007184
1408.18	0.005844
1417.83	0.006914
1427.47	0.008614
1437.12	0.013574
1446.76	0.019544
1456.41	0.028114
1466.05	0.046724
1475.7	0.114504
1485.34	0.293114
1494.99	0.556334
1504.63	0.673964
1514.28	0.644944
1523.92	0.575214
1533.57	0.408874
1543.21	0.130614
1552.86	0.039614
1562.5	0.022264
1572.15	0.021994
1581.79	0.024484
1591.44	0.026714
1601.08	0.031414
1610.73	0.040464
1620.37	0.055114
1630.01	0.073124
1639.66	0.069694
1649.3	0.038504
1658.95	0.014184
1668.59	0.006124
1678.24	0.004834
1687.88	0.004814
1697.53	0.005244
1707.17	0.005064
1716.82	0.005254
1726.46	0.004794
1736.11	0.004444
1745.75	0.003544
1755.4	0.003704
1765.04	0.003924
1774.69	0.004854
1784.33	0.006734
1793.98	0.007514
1803.62	0.009104
1813.27	0.012124
1822.91	0.010994
1832.55	0.006714
1842.2	0.003714
1851.84	0.003174
1861.49	0.002584
1871.13	0.002394
1880.78	0.002764
1890.42	0.004134
1900.07	0.004924
1909.71	0.004544
1919.36	0.004274
1929	0.003434
1938.65	0.002264
1948.29	0.002014
1957.94	0.001924
1967.58	0.001774
1977.23	0.002014
1986.87	0.002484
1996.52	0.003264
2006.16	0.003434
2015.81	0.002894
2025.45	0.001774
2035.1	0.001474
2044.74	0.001334
2054.38	0.002214
2064.03	0.002704
2073.67	0.002824
2083.32	0.002604
2092.96	0.002284
2102.61	0.001604
2112.25	0.001414
2121.9	0.001434
2131.54	0.001364
2141.19	0.001284
2150.83	0.001924
2160.48	0.002494
2170.12	0.003634
2179.77	0.004874
2189.41	0.005474
2199.06	0.005434
2208.7	0.005354
2218.35	0.004444
2227.99	0.003424
2237.64	0.002464
2247.28	0.002544
2256.92	0.002714
2266.57	0.003344
2276.21	0.004124
2285.86	0.004794
2295.5	0.006384
2305.15	0.006734
2314.79	0.005154
2324.44	0.002794
2334.08	0.002154
2343.73	0.002154
2353.37	0.002214
2363.02	0.002794
2372.66	0.003744
2382.31	0.003624
2391.95	0.003434
2401.6	0.003014
2411.24	0.002864
2420.89	0.002814
2430.53	0.003044
2440.18	0.003374
2449.82	0.004944
2459.47	0.006924
2469.11	0.007744
2478.75	0.006484
2488.4	0.005404
2498.04	0.004334
2507.69	0.004354
2517.33	0.004744
2526.98	0.005464
2536.62	0.005954
2546.27	0.006794
2555.91	0.006864
2565.56	0.005754
2575.2	0.004814
2584.85	0.004294
2594.49	0.004064
2604.14	0.003204
2613.78	0.003074
2623.43	0.002674
2633.07	0.003144
2642.72	0.003554
2652.36	0.003884
2662.01	0.003474
2671.65	0.003104
2681.29	0.002124
2690.94	0.001494
2700.58	0.001344
2710.23	0.001554
2719.87	0.001624
2729.52	0.001684
2739.16	0.002084
2748.81	0.002174
2758.45	0.002414
2768.1	0.002674
2777.74	0.002354
2787.39	0.001484
2797.03	0.001534
2806.68	0.001614
2816.32	0.001564
2825.97	0.001784
2835.61	0.002414
2845.26	0.002554
2854.9	0.002064
2864.55	0.002184
2874.19	0.002114
2883.84	0.002124
2893.48	0.001904
2903.12	0.001164
2912.77	0.0011065
2922.41	0.001224
2932.06	0.001834
2941.7	0.001404
2951.35	0.001744
2960.99	0.001514
2970.64	0.001504
2980.28	0.001384
2989.93	0.001674
2999.57	0.001704
3009.22	0.001784
3018.86	0.001374
3028.51	0.001674
3038.15	0.001504
3047.8	0.001324
3057.44	0.002044
3067.09	0.002634
3076.73	0.003624
3086.38	0.002364
3096.02	0.001744
3105.67	0.001344
3115.31	0.0010029
3124.95	0.001194
3134.6	0.001334
3144.24	0.001254
3153.89	0.0009064
3163.53	0.0010204
3173.18	0.0008293
3182.82	0.0005974
3192.47	0.0009424
3202.11	0.0006028
3211.76	0.0008208
3221.4	0.0009241
3231.05	0.0006465
3240.69	0.001594
3250.34	0.002314
3259.98	0.003094
3269.63	0.002884
3279.27	0.002814
3288.92	0.001684
3298.56	0.002484
3308.21	0.002274
3317.85	0.001804
3327.49	0.002354
3337.14	0.003064
3346.78	0.003014
3356.43	0.002064
3366.07	0.002044
3375.72	0.001804
3385.36	0.001804
3395.01	0.0010347
3404.65	0.0006461
3414.3	0.001404
3423.94	0.001154
3433.59	0.001264
3443.23	0.0008342
3452.88	0.0011412
3462.52	0.001724
3472.17	0.001604
3481.81	0.0009435
3491.46	0.0006565
3501.1	0.00020802
3510.75	0.001086
3520.39	0.001194
3530.04	0.001364
3539.68	0.001394
3549.32	0.001804
3558.97	0.002174
3568.61	0.001984
3578.26	0.003344
3587.9	0.004634
3597.55	0.011204
3607.19	0.048934
3616.84	0.246044
3626.48	0.318144
3636.13	0.212564
3645.77	0.030414
3655.42	0.008144
3665.06	0.004904
3674.71	0.003044
3684.35	0.002444
3694	0.002154
3703.64	0.002124
3713.29	0.001994
3722.93	0.0010183
3732.58	0.001284
3742.22	0.0010361
3751.86	0.001864
3761.51	0.001524
3771.15	0.0007294
3780.8	0.001554
3790.44	0.001214
3800.09	0.001984
3809.73	0.001924
3819.38	0.002344
3829.02	0.001614
3838.67	0.002124
3848.31	0.001984
3857.96	0.002054
3867.6	0.002544
3877.25	0.002214
3886.89	0.002874
3896.54	0.002864
3906.18	0.003644
3915.83	0.003144
3925.47	0.002894
3935.12	0.002454
3944.76	0.002834
3954.41	0.002294
3964.05	0.001654
3973.69	0.002194
3983.34	0.003354
3992.98	0.002544
