Infrared Spectrum: N-Phenyliminodiacetic acid ((anhydride)
Formula: C 10 H 11 N O 4
CAS: 1137-73-1
State: gas
Origin: EPA-IR VAPOR PHASE LIBRARY
1/CM	ABSORBANCE
549.8	0.002164
559.445	0.001814
569.09	0.002124
578.734	0.002204
588.379	0.001374
598.024	0.002614
607.669	0.003724
617.313	0.003024
626.958	0.002124
636.603	0.001724
646.248	0.001434
655.893	0.001504
665.537	0.001854
675.182	0.002604
684.827	0.004454
694.472	0.004894
704.116	0.003264
713.761	0.001974
723.406	0.001724
733.051	0.002264
742.695	0.004324
752.34	0.007364
761.985	0.005804
771.63	0.002594
781.275	0.001424
790.919	0.0009518
800.564	0.0006813
810.209	0.0008774
819.854	0.0011389
829.498	0.002114
839.143	0.001944
848.788	0.0011647
858.433	0.0011704
868.078	0.001574
877.722	0.002244
887.367	0.002064
897.012	0.002584
906.657	0.003464
916.301	0.005814
925.946	0.008074
935.591	0.008674
945.236	0.009864
954.88	0.009974
964.525	0.009724
974.17	0.009234
983.815	0.004824
993.46	0.003294
1003.1	0.003094
1012.75	0.002464
1022.39	0.003384
1032.04	0.005164
1041.68	0.005524
1051.33	0.006984
1060.97	0.011544
1070.62	0.017424
1080.26	0.022354
1089.91	0.027404
1099.55	0.029844
1109.2	0.028564
1118.84	0.022994
1128.49	0.013774
1138.13	0.009034
1147.78	0.007514
1157.42	0.008334
1167.07	0.008404
1176.71	0.009814
1186.36	0.011854
1196	0.014444
1205.64	0.016914
1215.29	0.016104
1224.93	0.015824
1234.58	0.015594
1244.22	0.011624
1253.87	0.008394
1263.51	0.007004
1273.16	0.004984
1282.8	0.003434
1292.45	0.003904
1302.09	0.004874
1311.74	0.005334
1321.38	0.004714
1331.03	0.004054
1340.67	0.003534
1350.32	0.003964
1359.96	0.004814
1369.61	0.004274
1379.25	0.003044
1388.9	0.002284
1398.54	0.001924
1408.18	0.001874
1417.83	0.002234
1427.47	0.002964
1437.12	0.004294
1446.76	0.005234
1456.41	0.003164
1466.05	0.002494
1475.7	0.003584
1485.34	0.006664
1494.99	0.013244
1504.63	0.013424
1514.28	0.005244
1523.92	0.002464
1533.57	0.001614
1543.21	0.001484
1552.86	0.001574
1562.5	0.001854
1572.15	0.002644
1581.79	0.004334
1591.44	0.008594
1601.08	0.011434
1610.73	0.005574
1620.37	0.002204
1630.01	0.001444
1639.66	0.001254
1649.3	0.0010519
1658.95	0.0010088
1668.59	0.0009117
1678.24	0.0009841
1687.88	0.0010402
1697.53	0.0010938
1707.17	0.001444
1716.82	0.001554
1726.46	0.002114
1736.11	0.002564
1745.75	0.003214
1755.4	0.004864
1765.04	0.007984
1774.69	0.015734
1784.33	0.039694
1793.98	0.067744
1803.62	0.053364
1813.27	0.022994
1822.91	0.019064
1832.55	0.029614
1842.2	0.028174
1851.84	0.011284
1861.49	0.004764
1871.13	0.002994
1880.78	0.002164
1890.42	0.001724
1900.07	0.001264
1909.71	0.0011886
1919.36	0.001141
1929	0.0011243
1938.65	0.0011457
1948.29	0.001234
1957.94	0.0008241
1967.58	0.0006358
1977.23	0.0006022
1986.87	0.0004882
1996.52	0.0005513
2006.16	0.0004526
2015.81	0.0005157
2025.45	0.0004166
2035.1	0.0005006
2044.74	0.0004442
2054.38	0.000432
2064.03	0.0003949
2073.67	0.0004638
2083.32	0.0004949
2092.96	0.0005114
2102.61	0.0005731
2112.25	0.0005937
2121.9	0.0005445
2131.54	0.000567
2141.19	0.0005334
2150.83	0.0005608
2160.48	0.0006765
2170.12	0.00072
2179.77	0.0005177
2189.41	0.000599
2199.06	0.0005892
2208.7	0.0005855
2218.35	0.0005363
2227.99	0.0005916
2237.64	0.0004138
2247.28	0.0005589
2256.92	0.000482
2266.57	0.0004808
2276.21	0.0007277
2285.86	0.0009606
2295.5	0.001404
2305.15	0.002004
2314.79	0.002714
2324.44	0.003074
2334.08	0.002964
2343.73	0.002614
2353.37	0.003114
2363.02	0.004104
2372.66	0.003194
2382.31	0.001414
2391.95	0.0004924
2401.6	0.0004718
2411.24	0.000469
2420.89	0.0003336
2430.53	0.000453
2440.18	0.0004241
2449.82	0.0004278
2459.47	0.0004417
2469.11	0.0004054
2478.75	0.0004443
2488.4	0.0004548
2498.04	0.0003596
2507.69	0.0004414
2517.33	0.00025802
2526.98	0.0003508
2536.62	0.0004656
2546.27	0.0003904
2555.91	0.00027647
2565.56	0.0004318
2575.2	0.0004562
2584.85	0.0003864
2594.49	0.0003727
2604.14	0.00028766
2613.78	0.0004454
2623.43	0.0004643
2633.07	0.0003446
2642.72	0.0005454
2652.36	0.0004155
2662.01	0.0004799
2671.65	0.0003864
2681.29	0.00028234
2690.94	0.0004549
2700.58	0.0004635
2710.23	0.0003464
2719.87	0.0006964
2729.52	0.000687
2739.16	0.0006391
2748.81	0.0007064
2758.45	0.0007857
2768.1	0.0008027
2777.74	0.0009771
2787.39	0.001624
2797.03	0.003024
2806.68	0.004584
2816.32	0.004014
2825.97	0.002614
2835.61	0.001744
2845.26	0.001334
2854.9	0.001254
2864.55	0.001414
2874.19	0.001554
2883.84	0.001354
2893.48	0.001624
2903.12	0.002394
2912.77	0.002744
2922.41	0.001594
2932.06	0.0008222
2941.7	0.0007897
2951.35	0.0005257
2960.99	0.0005738
2970.64	0.000518
2980.28	0.0005163
2989.93	0.0006896
2999.57	0.000927
3009.22	0.0009289
3018.86	0.001264
3028.51	0.001704
3038.15	0.002624
3047.8	0.003084
3057.44	0.002544
3067.09	0.002984
3076.73	0.003774
3086.38	0.002754
3096.02	0.002164
3105.67	0.001974
3115.31	0.001324
3124.95	0.0007275
3134.6	0.00021607
3144.24	0.0003691
3153.89	0.0004245
3163.53	0.0003777
3173.18	0.0001806
3182.82	0.0003187
3192.47	0.00022725
3202.11	0.0004762
3211.76	0.00022695
3221.4	3.5e-05
3231.05	0.0001142
3240.69	0.0001094
3250.34	0.0004479
3259.98	0.0003209
3269.63	0.0003239
3279.27	0.0004994
3288.92	0.0003768
3298.56	0.0003005
3308.21	0.0001639
3317.85	0.00024405
3327.49	0.0004937
3337.14	0.0003571
3346.78	0.0004724
3356.43	0.0005524
3366.07	0.00024178
3375.72	0.0002821
3385.36	0.00028308
3395.01	0.00027558
3404.65	0.000432
3414.3	0.000334
3423.94	0.00020051
3433.59	0.0003658
3443.23	0.0003528
3452.88	0.0001774
3462.52	0.0005017
3472.17	0.0001506
3481.81	0.00019996
3491.46	0.0004006
3501.1	0.00028046
3510.75	0.0004946
3520.39	0.00029258
3530.04	0.0003417
3539.68	0.0004917
3549.32	0.000445
3558.97	0.0005257
3568.61	0.0005738
3578.26	0.0009671
3587.9	0.0010476
3597.55	0.001304
3607.19	0.001294
3616.84	0.0011768
3626.48	0.0009468
3636.13	0.0004867
3645.77	0.0006598
3655.42	0.0005516
3665.06	0.0005687
3674.71	0.0006125
3684.35	0.0006292
3694	0.0004618
3703.64	0.0005505
3713.29	0.0003178
3722.93	0.000354
3732.58	0.00030243
3742.22	0.0003996
3751.86	0.000417
3761.51	0.0002561
3771.15	0.0005722
3780.8	0.0005513
3790.44	0.00024394
3800.09	0.0004322
3809.73	0.0004448
3819.38	0.0003368
3829.02	0.0004558
3838.67	0.0003142
3848.31	0.0004531
3857.96	0.0005129
3867.6	0.00056
3877.25	0.0001925
3886.89	0.0003684
3896.54	0.0004636
3906.18	0.0003492
3915.83	0.0005262
3925.47	0.0005222
3935.12	0.0005819
3944.76	0.0003139
3954.41	0.0004445
3964.05	0.0004064
3973.69	0.0004982
3983.34	0.00029748
3992.98	0.00027537
