Infrared Spectrum: 4-Hydroxybenzophenone
Formula: C 13 H 10 O 2
CAS: 1137-42-4
State: gas
Instrument: HP-GC/MS/IRD
Origin: NIST Mass Spectrometry Data Center
1/CM	ABSORBANCE
550	0.0021122
562	0.0022774
574	0.001298
586	0.0022538
598	0.0177236
610	0.0210394
622	0.002714
634	0.0023364
646	0.0014042
658	0.0014868
670	0.003894
682	0.0100418
694	0.0241074
706	0.0182074
718	0.0061832
730	0.0086022
742	0.0107616
754	0.0035518
766	0.0018054
778	0.003363
790	0.0049678
802	0.0035872
814	0.0050504
826	0.0064664
838	0.0120832
850	0.0098176
862	0.0029736
874	0.0012862
886	0.0015222
898	0.003009
910	0.0107852
922	0.0215822
934	0.0259836
946	0.0088618
958	0.0030444
970	0.0011092
982	2.36e-05
994	0.0006608
1006	0.00118
1018	0.0007316
1030	0.0016756
1042	0.0002832
1054	0.0006962
1066	0.0019824
1078	0.0024308
1090	0.0040592
1102	0.00708
1114	0.0066198
1126	0.0078588
1138	0.020001
1150	0.035577
1162	0.0570058
1174	0.0673072
1186	0.0547874
1198	0.0255588
1210	0.0113162
1222	0.009558
1234	0.0151158
1246	0.0294056
1258	0.087438
1270	0.108454
1282	0.0469758
1294	0.031447
1306	0.0301018
1318	0.0255588
1330	0.0143606
1342	0.0051212
1354	0.0030444
1366	0.0026904
1378	0.002183
1390	0.001475
1402	0.0017936
1414	0.0044722
1426	0.0122248
1438	0.0085432
1450	0.0061596
1462	0.0025488
1474	0.0020178
1486	0.003009
1498	0.0102188
1510	0.017877
1522	0.0053454
1534	0.004838
1546	0.0045076
1558	0.0052746
1570	0.0091332
1582	0.0212046
1594	0.0475422
1606	0.0660328
1618	0.0249688
1630	0.0091214
1642	0.0070564
1654	0.0095344
1666	0.0331934
1678	0.0641212
1690	0.0280132
1702	0.0083662
1714	0.0042834
1726	0.003245
1738	0.0023246
1750	0.0014986
1762	0.0014042
1774	0.0014042
1786	0.0008968
1798	0.000885
1810	0.0010738
1822	0.00059
1834	0.0003776
1846	0.0003304
1858	0.000472
1870	0.0006844
1882	0.0009912
1894	0.0012744
1906	0.001416
1918	0.0009322
1930	0.0005546
1942	0.0006372
1954	0.001121
1966	0.0012036
1978	0.00059
1990	0.0003894
2002	0.0002832
2014	0.0002124
2026	0.0002596
2038	0.0001062
2050	0.0001652
2062	0.0004012
2074	0.0006372
2086	0.0006018
2098	0.0003658
2110	0.0001652
2122	4.72e-05
2134	2.36e-05
2146	5.9e-05
2158	4.72e-05
2170	8.26e-05
2182	9.44e-05
2194	0.0001888
2206	0.0001534
2218	0.0001416
2230	0.0001062
2242	0.0001416
2254	0.0001534
2266	0.0002478
2278	0.0003068
2290	0.000295
2302	0.0002832
2314	0.0005074
2326	0.0005074
2338	0.0005074
2350	0.000354
2362	0.0002242
2374	0.0002832
2386	0.000354
2398	0.0006726
2410	0.0011564
2422	0.0012862
2434	0.0011564
2446	0.0010266
2458	0.0006372
2470	0.0003658
2482	0.0003304
2494	0.0003068
2506	0.0003776
2518	0.00059
2530	0.0005074
2542	0.0002596
2554	0.0002478
2566	0.0002832
2578	0.0003422
2590	0.0003894
2602	0.0004248
2614	0.000354
2626	0.0003422
2638	0.000295
2650	0.0003068
2662	0.0002832
2674	0.0001888
2686	0.0001652
2698	0.000118
2710	0.0001416
2722	0.0001416
2734	0.0002478
2746	0.0003304
2758	0.0003422
2770	0.0002832
2782	0.000118
2794	4.72e-05
2806	0
2818	0
2830	5.9e-05
2842	8.26e-05
2854	0.0002242
2866	0.0003776
2878	0.0004012
2890	0.0003186
2902	0.0002596
2914	0.0001888
2926	0.0002006
2938	0.000177
2950	0.0001416
2962	0.0001298
2974	0.000295
2986	0.0006018
2998	0.0014514
3010	0.002832
3022	0.0048144
3034	0.0097114
3046	0.0078352
3058	0.0077762
3070	0.015045
3082	0.0107262
3094	0.0070328
3106	0.0036934
3118	0.0015576
3130	0.0007788
3142	0.0005074
3154	0.0005074
3166	0.000413
3178	0.000354
3190	0.0002714
3202	0.0002832
3214	0.0001416
3226	0.0001062
3238	3.54e-05
3250	0.0001534
3262	0.0001888
3274	0.0001298
3286	0.0001534
3298	0.000295
3310	0.0004838
3322	0.0007552
3334	0.0012272
3346	0.0011682
3358	0.00059
3370	0.0004248
3382	0.0003068
3394	0.0003186
3406	0.000177
3418	0.0002478
3430	0.0002124
3442	0.0002006
3454	0.0002242
3466	0.000118
3478	0.0001298
3490	0.0001534
3502	4.72e-05
3514	0.0001062
3526	0.0001534
3538	0.0001416
3550	0.0001416
3562	0.000177
3574	0.000295
3586	0.0003776
3598	0.0005664
3610	0.0010384
3622	0.0023246
3634	0.0112572
3646	0.0408752
3658	0.0134756
3670	0.0019352
3682	0.0007434
3694	0.0006254
3706	0.0004602
3718	0.0003776
3730	0.0001534
3742	0.0001298
3754	0.0002242
3766	0.0002124
3778	0.0001298
3790	0.0001416
3802	0.0002242
3814	0.000177
3826	0.0001416
3838	0.0001888
