Infrared Spectrum: 4-(n-Butoxy)benzenesulphonyl chloride
Formula: C 10 H 13 Cl O 3 S
CAS: 1138-56-3
State: gas
Origin: EPA-IR VAPOR PHASE LIBRARY
1/CM	ABSORBANCE
549.8	0.055959
559.445	0.067159
569.09	0.088579
578.734	0.164609
588.379	0.095439
598.024	0.032819
607.669	0.015719
617.313	0.010529
626.958	0.011999
636.603	0.010729
646.248	0.015109
655.893	0.021019
665.537	0.019599
675.182	0.021919
684.827	0.016329
694.472	0.006849
704.116	0.004939
713.761	0.005649
723.406	0.004619
733.051	0.005839
742.695	0.006849
752.34	0.006199
761.985	0.004709
771.63	0.004319
781.275	0.005439
790.919	0.008499
800.564	0.009789
810.209	0.009179
819.854	0.014129
829.498	0.024239
839.143	0.021689
848.788	0.009339
858.433	0.006259
868.078	0.007039
877.722	0.007499
887.367	0.004709
897.012	0.003639
906.657	0.003759
916.301	0.003389
925.946	0.003239
935.591	0.003929
945.236	0.005119
954.88	0.007739
964.525	0.010859
974.17	0.012679
983.815	0.010959
993.46	0.011409
1003.1	0.016269
1012.75	0.021989
1022.39	0.024749
1032.04	0.019129
1041.68	0.011719
1051.33	0.010449
1060.97	0.016309
1070.62	0.019939
1080.26	0.032529
1089.91	0.035979
1099.55	0.016859
1109.2	0.013239
1118.84	0.011879
1128.49	0.009399
1138.13	0.013539
1147.78	0.025929
1157.42	0.052229
1167.07	0.129139
1176.71	0.132309
1186.36	0.113519
1196	0.089289
1205.64	0.033219
1215.29	0.028529
1224.93	0.035289
1234.58	0.045889
1244.22	0.069279
1253.87	0.108769
1263.51	0.095869
1273.16	0.042559
1282.8	0.029089
1292.45	0.038579
1302.09	0.048769
1311.74	0.034339
1321.38	0.020379
1331.03	0.013479
1340.67	0.010939
1350.32	0.010169
1359.96	0.011309
1369.61	0.016209
1379.25	0.031409
1388.9	0.071799
1398.54	0.097879
1408.18	0.043979
1417.83	0.018509
1427.47	0.009849
1437.12	0.009219
1446.76	0.010539
1456.41	0.013619
1466.05	0.023209
1475.7	0.030789
1485.34	0.034169
1494.99	0.075929
1504.63	0.026529
1514.28	0.009619
1523.92	0.007339
1533.57	0.006979
1543.21	0.008049
1552.86	0.010979
1562.5	0.018849
1572.15	0.038809
1581.79	0.063409
1591.44	0.093169
1601.08	0.051509
1610.73	0.016929
1620.37	0.007749
1630.01	0.005289
1639.66	0.004459
1649.3	0.003749
1658.95	0.003539
1668.59	0.003109
1678.24	0.002909
1687.88	0.002469
1697.53	0.002419
1707.17	0.002419
1716.82	0.002299
1726.46	0.002249
1736.11	0.002399
1745.75	0.002739
1755.4	0.002939
1765.04	0.003239
1774.69	0.002529
1784.33	0.002119
1793.98	0.002029
1803.62	0.0019426
1813.27	0.0018572
1822.91	0.0019711
1832.55	0.0018902
1842.2	0.0017957
1851.84	0.0018186
1861.49	0.0019366
1871.13	0.002249
1880.78	0.002879
1890.42	0.003179
1900.07	0.003129
1909.71	0.002769
1919.36	0.002239
1929	0.001989
1938.65	0.002019
1948.29	0.0017652
1957.94	0.002119
1967.58	0.002059
1977.23	0.002149
1986.87	0.002069
1996.52	0.0017705
2006.16	0.002009
2015.81	0.0018216
2025.45	0.0017772
2035.1	0.002019
2044.74	0.002079
2054.38	0.002029
2064.03	0.0018463
2073.67	0.0019035
2083.32	0.002079
2092.96	0.0019662
2102.61	0.0016884
2112.25	0.0015942
2121.9	0.0014992
2131.54	0.0014362
2141.19	0.0014311
2150.83	0.0014478
2160.48	0.0016201
2170.12	0.0015456
2179.77	0.0014012
2189.41	0.0012533
2199.06	0.00107908
2208.7	0.000992931
2218.35	0.00100083
2227.99	0.00105302
2237.64	0.00107512
2247.28	0.0011467
2256.92	0.0012838
2266.57	0.0016489
2276.21	0.0017633
2285.86	0.0014901
2295.5	0.0013664
2305.15	0.0012085
2314.79	0.0012756
2324.44	0.0013557
2334.08	0.0012228
2343.73	0.0011387
2353.37	0.001417
2363.02	0.0013932
2372.66	0.0013908
2382.31	0.00172
2391.95	0.0019736
2401.6	0.001875
2411.24	0.0014747
2420.89	0.0015121
2430.53	0.0015266
2440.18	0.0012561
2449.82	0.001491
2459.47	0.0013719
2469.11	0.0017418
2478.75	0.0015902
2488.4	0.0019031
2498.04	0.0019531
2507.69	0.0017197
2517.33	0.0012902
2526.98	0.0019118
2536.62	0.002029
2546.27	0.002779
2555.91	0.003159
2565.56	0.003329
2575.2	0.003349
2584.85	0.002969
2594.49	0.002549
2604.14	0.002049
2613.78	0.0016356
2623.43	0.0012891
2633.07	0.0012252
2642.72	0.0011638
2652.36	0.0010782
2662.01	0.0011172
2671.65	0.0011799
2681.29	0.0013367
2690.94	0.001161
2700.58	0.0010904
2710.23	0.0012982
2719.87	0.0015367
2729.52	0.0014354
2739.16	0.0017908
2748.81	0.002139
2758.45	0.001989
2768.1	0.002109
2777.74	0.0017247
2787.39	0.001938
2797.03	0.002219
2806.68	0.002379
2816.32	0.002339
2825.97	0.003459
2835.61	0.003709
2845.26	0.004819
2854.9	0.007429
2864.55	0.009939
2874.19	0.014709
2883.84	0.020299
2893.48	0.018579
2903.12	0.016969
2912.77	0.019479
2922.41	0.022709
2932.06	0.027659
2941.7	0.037019
2951.35	0.037609
2960.99	0.037929
2970.64	0.045139
2980.28	0.031599
2989.93	0.014809
2999.57	0.008709
3009.22	0.005419
3018.86	0.004289
3028.51	0.003529
3038.15	0.002939
3047.8	0.002959
3057.44	0.002449
3067.09	0.003169
3076.73	0.004929
3086.38	0.006279
3096.02	0.002649
3105.67	0.002409
3115.31	0.0019273
3124.95	0.0011974
3134.6	0.00102648
3144.24	0.001229
3153.89	0.0017971
3163.53	0.0016306
3173.18	0.0011587
3182.82	0.001453
3192.47	0.001447
3202.11	0.000783
3211.76	0.0012706
3221.4	0.000814
3231.05	0.000699
3240.69	0.000448
3250.34	0.00102783
3259.98	0.000863
3269.63	0.0009125
3279.27	0.000585
3288.92	0.00104201
3298.56	0.000866
3308.21	0.000626
3317.85	0.00102459
3327.49	0.000481
3337.14	0.0012281
3346.78	0.000651
3356.43	0.0012263
3366.07	0.00074
3375.72	0.000704
3385.36	0.00106445
3395.01	0.0009514
3404.65	0.0009269
3414.3	0.0015117
3423.94	0.000456
3433.59	0.00082
3443.23	0.00069
3452.88	0.000697
3462.52	0.0009445
3472.17	0.000811
3481.81	0.000624
3491.46	0.000588
3501.1	0.000841
3510.75	0.00101168
3520.39	0.000567
3530.04	0.000763
3539.68	0.000813
3549.32	0.0011806
3558.97	0.0009732
3568.61	0.000469
3578.26	0.00102743
3587.9	0.0011876
3597.55	0.0009095
3607.19	0.0009191
3616.84	0.0010946
3626.48	0.000756
3636.13	0.000877
3645.77	0.0010389
3655.42	0.000844
3665.06	0.0009303
3674.71	0.0011283
3684.35	0.00108265
3694	0.000814
3703.64	0.00101722
3713.29	0.0012565
3722.93	0.0014333
3732.58	0.0009754
3742.22	0.0011181
3751.86	0.0012021
3761.51	0.000851
3771.15	0.000817
3780.8	0.00108467
3790.44	0.00056
3800.09	0.0011868
3809.73	0.0009685
3819.38	0.0014617
3829.02	0.000614
3838.67	0.0009002
3848.31	0.000884
3857.96	0.00101227
3867.6	0.00074
3877.25	0.000881
3886.89	0.00101245
3896.54	0.000746
3906.18	0.00071
3915.83	0.000587
3925.47	0.000775
3935.12	0.00103886
3944.76	0.0016201
3954.41	0.00106065
3964.05	0.000562
3973.69	0.00107946
3983.34	0.00102176
3992.98	0.0014289
