Infrared Spectrum: SCOPOLAMINE HYDROBROMIDE
Formula: C17 H22 Br N O4
CAS: 114-49-8
State: SOLID (1 mg / 200 mg KBr DISC) VS KBr
Melting point: 195 C
Class: COBLENTZ III
Instrument: PERKIN-ELMER 21 (GRATING)
Instrument parameters: FILTER AT ABOUT 10 MICRONS
Sampling: TRANSMISSION
Path length: 0.055 CM (THICKNESS)
Resolution: 2
1/CM	TRANSMITTANCE
4000	0.9638
3991	0.9637
3982	0.9636
3973	0.9641
3964	0.9647
3955	0.9653
3946	0.9659
3937	0.9666
3928	0.9671
3919	0.9678
3910	0.9684
3901	0.9691
3892	0.9697
3883	0.9704
3874	0.9714
3865	0.9739
3856	0.9763
3847	0.9789
3838	0.9815
3829	0.9842
3820	0.9868
3811	0.9896
3802	0.9918
3793	0.9941
3784	0.9963
3775	0.9977
3766	0.9984
3757	0.9991
3748	0.9994
3739	0.9994
3730	0.9995
3721	0.9993
3712	0.9987
3703	0.9978
3694	0.9962
3685	0.9937
3676	0.9911
3667	0.9865
3658	0.9801
3649	0.9688
3640	0.9531
3631	0.9288
3622	0.8986
3613	0.8685
3604	0.7721
3595	0.7467
3586	0.733
3577	0.7246
3568	0.7161
3559	0.7064
3550	0.6964
3541	0.6857
3532	0.6708
3523	0.6564
3514	0.6428
3505	0.6323
3496	0.6223
3487	0.6043
3478	0.5834
3469	0.5698
3460	0.5568
3451	0.5264
3442	0.4937
3433	0.4609
3424	0.4279
3415	0.3947
3406	0.3614
3397	0.3278
3388	0.2942
3379	0.2603
3370	0.2262
3361	0.2004
3352	0.2035
3343	0.2036
3334	0.214
3325	0.236
3316	0.2782
3307	0.3122
3298	0.3456
3289	0.3791
3280	0.4128
3271	0.4468
3262	0.4769
3253	0.493
3244	0.5128
3235	0.5338
3226	0.5548
3217	0.576
3208	0.5974
3199	0.6189
3190	0.6405
3181	0.6621
3172	0.684
3163	0.706
3154	0.7162
3145	0.716
3136	0.7185
3127	0.7176
3118	0.7124
3109	0.6928
3100	0.666
3091	0.639
3082	0.6118
3073	0.5844
3064	0.5569
3055	0.5292
3046	0.513
3037	0.5128
3028	0.5175
3019	0.5212
3010	0.5229
3001	0.522
2992	0.5177
2983	0.4866
2974	0.4458
2965	0.406
2956	0.3912
2947	0.3914
2938	0.3957
2929	0.4197
2920	0.4442
2911	0.4689
2902	0.4937
2893	0.5094
2884	0.5097
2875	0.5146
2866	0.5221
2857	0.5323
2848	0.5368
2839	0.5338
2830	0.5152
2821	0.4962
2812	0.4908
2803	0.4958
2794	0.5066
2785	0.5135
2776	0.5169
2767	0.5164
2758	0.5159
2749	0.5154
2740	0.5152
2731	0.517
2722	0.5249
2713	0.5339
2704	0.5402
2695	0.5571
2686	0.5848
2677	0.6081
2668	0.6262
2659	0.639
2650	0.6498
2641	0.6603
2632	0.6688
2623	0.6728
2614	0.674
2605	0.6751
2596	0.6781
2587	0.6991
2578	0.7167
2569	0.7381
2560	0.758
2551	0.78
2542	0.7891
2533	0.7919
2524	0.8028
2515	0.8215
2506	0.829
2497	0.8327
2488	0.8415
2479	0.8502
2470	0.8574
2461	0.8627
2452	0.8657
2443	0.8675
2434	0.8693
2425	0.8709
2416	0.8725
2407	0.8748
2398	0.8774
2389	0.8832
2380	0.8885
2371	0.8925
2362	0.8947
2353	0.8968
2344	0.9003
2335	0.9054
2326	0.913
2317	0.9211
2308	0.9277
2299	0.9336
2290	0.9391
2281	0.9433
2272	0.9466
2263	0.9477
2254	0.9462
2245	0.9435
2236	0.9417
2227	0.9421
2218	0.9416
2209	0.9398
2200	0.9368
2191	0.9341
2182	0.93
2173	0.9243
2164	0.9197
2155	0.9216
2146	0.9259
2137	0.9311
2128	0.9366
2119	0.9407
2110	0.9417
2101	0.9393
2092	0.9371
2083	0.9354
2074	0.9345
2065	0.9362
2056	0.9378
2047	0.9393
2038	0.9408
2029	0.9418
2020	0.9435
2011	0.9455
2002	0.946
1993	0.9427
1984	0.9382
1975	0.9366
1966	0.9397
1957	0.9454
1948	0.9528
1939	0.9606
1930	0.9625
1921	0.9583
1912	0.9524
1903	0.9484
1894	0.9483
1885	0.9494
1876	0.9545
1867	0.9595
1858	0.9628
1849	0.9571
1840	0.9496
1831	0.9438
1822	0.9401
1813	0.9392
1804	0.938
1795	0.9286
1786	0.907
1777	0.8809
1768	0.8241
1759	0.7162
1750	0.4903
1741	0.1696
1732	0.0979
1723	0.4773
1714	0.63
1705	0.7567
1696	0.773
1687	0.8408
1678	0.8663
1669	0.8692
1660	0.8589
1651	0.8536
1642	0.8201
1633	0.7755
1624	0.7844
1615	0.8199
1606	0.7494
1597	0.8298
1588	0.8455
1579	0.871
1570	0.8945
1561	0.9034
1552	0.9084
1543	0.9097
1534	0.9077
1525	0.901
1516	0.8666
1507	0.7846
1498	0.6714
1489	0.6399
1480	0.594
1471	0.4216
1462	0.4137
1453	0.465
1444	0.4149
1435	0.4972
1426	0.6108
1417	0.6096
1408	0.4514
1399	0.4572
1390	0.3686
1381	0.323
1372	0.4184
1363	0.4976
1354	0.4672
1345	0.3802
1336	0.4772
1327	0.4773
1318	0.5917
1309	0.4422
1300	0.5541
1291	0.7161
1282	0.7378
1273	0.6512
1264	0.4884
1255	0.5069
1246	0.4515
1237	0.426
1228	0.3406
1219	0.3334
1210	0.5727
1201	0.4325
1192	0.56
1183	0.3575
1174	0.1654
1165	0.0714
1156	0.247
1147	0.4222
1138	0.1892
1129	0.4125
1120	0.614
1111	0.6478
1102	0.7128
1093	0.6928
1084	0.4934
1075	0.3887
1066	0.2739
1057	0.4367
1048	0.1342
1039	0.3264
1030	0.5318
1021	0.5576
1012	0.2634
1003	0.4188
994	0.6023
985	0.5736
976	0.608
967	0.7191
958	0.6921
949	0.7667
940	0.8065
931	0.8032
922	0.7431
913	0.5823
904	0.577
895	0.6399
886	0.8075
877	0.8096
868	0.8325
859	0.5569
850	0.1884
841	0.4406
832	0.7181
823	0.8065
814	0.7815
805	0.6871
796	0.8208
787	0.8364
778	0.5898
769	0.8168
760	0.8513
751	0.7145
742	0.6715
733	0.3048
724	0.6948
715	0.7922
706	0.6352
697	0.3145
688	0.6175
679	0.6924
670	0.6996
