Infrared Spectrum: Baygon
Formula: C 11 H 15 N O 3
CAS: 114-26-1
State: gas
Instrument: HP-GC/MS/IRD
Origin: NIST Mass Spectrometry Data Center
1/CM	ABSORBANCE
550	0.00061
562	0.00059
574	0.00057
586	0.00052
598	0.00123
610	0.00095
622	0.00016
634	0
646	2e-05
658	7e-05
670	0.00024
682	0.00049
694	0.00104
706	0.00228
718	0.0073
730	0.02436
742	0.03527
754	0.01835
766	0.01128
778	0.01025
790	0.00665
802	0.00726
814	0.00758
826	0.00347
838	0.00232
850	0.00297
862	0.00455
874	0.00397
886	0.00299
898	0.00342
910	0.00552
922	0.00972
934	0.01764
946	0.0265
958	0.02112
970	0.0083
982	0.00348
994	0.00253
1006	0.00281
1018	0.00565
1030	0.01015
1042	0.00616
1054	0.00253
1066	0.00259
1078	0.00444
1090	0.00951
1102	0.02189
1114	0.04183
1126	0.04795
1138	0.03126
1150	0.01812
1162	0.01814
1174	0.02585
1186	0.03714
1198	0.04196
1210	0.04652
1222	0.06523
1234	0.0519
1246	0.05152
1258	0.09947
1270	0.06593
1282	0.01641
1294	0.00798
1306	0.00605
1318	0.0065
1330	0.01015
1342	0.01783
1354	0.02074
1366	0.02382
1378	0.02558
1390	0.02114
1402	0.00899
1414	0.00471
1426	0.00367
1438	0.00434
1450	0.00665
1462	0.01113
1474	0.01951
1486	0.05775
1498	0.09062
1510	0.04281
1522	0.01463
1534	0.00685
1546	0.00431
1558	0.00419
1570	0.00601
1582	0.01033
1594	0.01543
1606	0.01423
1618	0.00803
1630	0.00278
1642	0.00177
1654	0.00154
1666	0.00138
1678	0.00128
1690	0.00111
1702	0.00101
1714	0.00105
1726	0.00123
1738	0.00143
1750	0.00158
1762	0.00149
1774	0.0011
1786	0.00077
1798	0.00063
1810	0.0005
1822	0.00046
1834	0.00047
1846	0.00055
1858	0.00091
1870	0.00132
1882	0.0011
1894	0.00101
1906	0.00137
1918	0.00113
1930	0.0005
1942	0.00037
1954	0.00038
1966	0.00038
1978	0.00037
1990	0.00043
2002	0.00047
2014	0.00046
2026	0.00058
2038	0.00067
2050	0.00056
2062	0.00055
2074	0.00058
2086	0.00041
2098	0.00024
2110	0.00014
2122	9e-05
2134	5e-05
2146	5e-05
2158	1e-05
2170	0
2182	0
2194	1e-05
2206	6e-05
2218	4e-05
2230	0.00011
2242	0.00018
2254	0.00021
2266	0.00033
2278	0.00032
2290	0.00027
2302	0.00037
2314	0.00038
2326	0.0003
2338	0.00019
2350	0.00019
2362	0.00018
2374	0.00031
2386	0.00042
2398	0.00045
2410	0.00052
2422	0.00046
2434	0.00032
2446	0.0004
2458	0.00048
2470	0.00063
2482	0.00068
2494	0.00084
2506	0.00118
2518	0.0013
2530	0.00081
2542	0.00049
2554	0.00042
2566	0.00032
2578	0.00018
2590	0.00016
2602	0.00017
2614	0.00031
2626	0.00045
2638	0.00042
2650	0.00042
2662	0.00027
2674	0.00026
2686	0.00039
2698	0.0004
2710	0.00041
2722	0.00043
2734	0.00063
2746	0.00069
2758	0.00058
2770	0.00049
2782	0.00046
2794	0.00051
2806	0.00067
2818	0.00085
2830	0.00101
2842	0.00125
2854	0.00169
2866	0.00276
2878	0.00491
2890	0.00577
2902	0.00625
2914	0.00857
2926	0.01141
2938	0.01458
2950	0.01307
2962	0.0114
2974	0.02357
2986	0.03525
2998	0.01825
3010	0.00625
3022	0.00373
3034	0.00441
3046	0.00879
3058	0.01276
3070	0.01079
3082	0.00865
3094	0.00568
3106	0.00339
3118	0.00202
3130	0.00105
3142	0.00073
3154	0.00062
3166	0.00059
3178	0.00062
3190	0.00055
3202	0.00052
3214	0.0005
3226	0.00035
3238	0.00025
3250	0.00013
3262	7e-05
3274	8e-05
3286	0.00015
3298	0.00024
3310	0.00018
3322	0.00014
3334	0.00016
3346	0.00013
3358	4e-05
3370	5e-05
3382	7e-05
3394	2e-05
3406	2e-05
3418	6e-05
3430	8e-05
3442	0.0002
3454	0.00027
3466	6e-05
3478	8e-05
3490	0.0002
3502	0.00024
3514	0.00054
3526	0.00103
3538	0.00214
3550	0.00564
3562	0.02013
3574	0.03974
3586	0.02535
3598	0.00753
3610	0.00263
3622	0.00131
3634	0.001
3646	0.00135
3658	0.00103
3670	0.00028
3682	8e-05
3694	7e-05
3706	1e-05
3718	5e-05
3730	6e-05
3742	4e-05
3754	0
3766	0
3778	0
3790	2e-05
3802	0
3814	8e-05
3826	9e-05
3838	0.00018
