Infrared Spectrum: Benzophenone, 2,4,-dimethyl-
Formula: C15 H14 O
CAS: 1140-14-3
State: LIQUID (NEAT)
Class: COBLENTZ II
Instrument: PERKIN-ELMER 180 (GRATING)
Instrument parameters: GRATINGS: 2000, 1000, 500, 250 CM^-^1; FILTER CHANGE: 2970, 2000, 1485, 1000, 743, 500, 372, 250, 186 CM^-^1.
Sampling: TRANSMISSION
Path length: CAPILLARY
Resolution: 2
Origin: K. K. DEB-NCI FREDERICK CANCER RESEARCH CENTER
1/CM	TRANSMITTANCE
383	0.6631
392	0.7046
401	0.7383
410	0.7709
419	0.8156
428	0.8069
437	0.7715
446	0.8337
455	0.8848
464	0.9064
473	0.9136
482	0.9249
491	0.9322
500	0.9323
509	0.9333
518	0.9422
527	0.9423
536	0.9258
545	0.9449
554	0.9299
563	0.8692
572	0.9333
581	0.9423
590	0.9347
599	0.7917
608	0.6171
617	0.8101
626	0.9273
635	0.9323
644	0.9305
653	0.9223
662	0.9093
671	0.8824
680	0.7635
689	0.5858
698	0.2485
707	0.4992
716	0.7704
725	0.6499
734	0.6896
743	0.6131
752	0.8693
761	0.8989
770	0.9046
779	0.8976
788	0.8253
797	0.6663
806	0.8456
815	0.741
824	0.5953
833	0.7294
842	0.8545
851	0.8629
860	0.8917
869	0.8788
878	0.8135
887	0.6657
896	0.5846
905	0.7338
914	0.8244
923	0.8497
932	0.798
941	0.7002
950	0.569
959	0.7556
968	0.8648
977	0.8669
986	0.8731
995	0.8671
1004	0.8665
1013	0.8614
1022	0.7885
1031	0.7861
1040	0.8009
1049	0.8452
1058	0.8557
1067	0.814
1076	0.8323
1085	0.869
1094	0.8625
1103	0.8496
1112	0.8127
1121	0.8545
1130	0.8607
1139	0.8404
1148	0.7498
1157	0.7526
1166	0.6431
1175	0.696
1184	0.8463
1193	0.8727
1202	0.8682
1211	0.8572
1220	0.8328
1229	0.6535
1238	0.6701
1247	0.6324
1256	0.4355
1265	0.2385
1274	0.3207
1283	0.4274
1292	0.4503
1301	0.6016
1310	0.4297
1319	0.7522
1328	0.8342
1337	0.8521
1346	0.8593
1355	0.8618
1364	0.8505
1373	0.7702
1382	0.7508
1391	0.8048
1400	0.7978
1409	0.8088
1418	0.8017
1427	0.7627
1436	0.6573
1445	0.4101
1454	0.6547
1463	0.7405
1472	0.7924
1481	0.8028
1490	0.7969
1499	0.7915
1508	0.835
1517	0.8352
1526	0.8349
1535	0.8324
1544	0.8196
1553	0.7964
1562	0.7553
1571	0.7121
1580	0.637
1589	0.603
1598	0.5265
1607	0.4799
1616	0.5762
1625	0.7444
1634	0.7552
1643	0.6044
1652	0.2005
1661	0.1004
1670	0.3368
1679	0.6759
1688	0.7929
1697	0.8308
1706	0.8447
1715	0.8538
1724	0.861
1733	0.867
1742	0.8734
1751	0.8781
1760	0.8797
1769	0.8742
1778	0.871
1787	0.8731
1796	0.883
1805	0.8849
1814	0.8793
1823	0.876
1832	0.8783
1841	0.8817
1850	0.8856
1859	0.8887
1868	0.8896
1877	0.889
1886	0.8835
1895	0.875
1904	0.8674
1913	0.8677
1922	0.8705
1931	0.8772
1940	0.8871
1949	0.8851
1958	0.8784
1967	0.8794
1976	0.8825
1985	0.8879
1994	0.8924
2003	0.8956
2012	0.8969
2021	0.8972
2030	0.8975
2039	0.8977
2048	0.8979
2057	0.8977
2066	0.8976
2075	0.8975
2084	0.8975
2093	0.8974
2102	0.8973
2111	0.8973
2120	0.8967
2129	0.896
2138	0.8954
2147	0.8947
2156	0.8941
2165	0.8935
2174	0.8932
2183	0.8927
2192	0.8924
2201	0.8919
2210	0.8914
2219	0.8908
2228	0.8902
2237	0.8896
2246	0.889
2255	0.8883
2264	0.8875
2273	0.8867
2282	0.886
2291	0.8851
2300	0.8841
2309	0.8831
2318	0.8821
2327	0.8811
2336	0.8828
2345	0.885
2354	0.8863
2363	0.8851
2372	0.8837
2381	0.8824
2390	0.8822
2399	0.8819
2408	0.8819
2417	0.8818
2426	0.8817
2435	0.8818
2444	0.882
2453	0.8822
2462	0.8824
2471	0.8822
2480	0.882
2489	0.8818
2498	0.8816
2507	0.8812
2516	0.8809
2525	0.8806
2534	0.8803
2543	0.8799
2552	0.8788
2561	0.8777
2570	0.8766
2579	0.8755
2588	0.8744
2597	0.874
2606	0.8737
2615	0.8735
2624	0.8741
2633	0.8746
2642	0.8752
2651	0.8751
2660	0.8747
2669	0.8743
2678	0.874
2687	0.8728
2696	0.8714
2705	0.8697
2714	0.8658
2723	0.8627
2732	0.86
2741	0.8616
2750	0.8671
2759	0.8703
2768	0.872
2777	0.8713
2786	0.8698
2795	0.8671
2804	0.8629
2813	0.8574
2822	0.8498
2831	0.8386
2840	0.8234
2849	0.8023
2858	0.7867
2867	0.7914
2876	0.7931
2885	0.7895
2894	0.7752
2903	0.7297
2912	0.6818
2921	0.6803
2930	0.725
2939	0.738
2948	0.7268
2957	0.7248
2966	0.7273
2975	0.7363
2984	0.7479
2993	0.743
3002	0.7322
3011	0.7228
3020	0.7231
3029	0.7378
3038	0.749
3047	0.728
3056	0.7232
3065	0.7697
3074	0.7803
3083	0.8105
3092	0.8231
3101	0.8293
3110	0.834
3119	0.8383
3128	0.8414
3137	0.8434
3146	0.8447
3155	0.8458
3164	0.846
3173	0.8462
3182	0.8461
3191	0.8458
3200	0.8456
3209	0.8445
3218	0.8434
3227	0.8429
3236	0.8429
3245	0.8428
3254	0.8427
3263	0.8414
3272	0.8381
3281	0.8329
3290	0.828
3299	0.8242
3308	0.8263
3317	0.8303
3326	0.834
3335	0.8366
3344	0.8385
3353	0.8382
3362	0.8372
3371	0.8362
3380	0.8354
3389	0.8346
3398	0.8348
3407	0.835
3416	0.8353
3425	0.8363
3434	0.8372
3443	0.8381
3452	0.8391
3461	0.8401
3470	0.8408
3479	0.8411
3488	0.8414
3497	0.8416
3506	0.8421
3515	0.8426
3524	0.8432
3533	0.8438
3542	0.8447
3551	0.8455
3560	0.8464
3569	0.8472
3578	0.848
3587	0.8488
3596	0.8496
3605	0.8504
3614	0.8512
3623	0.852
3632	0.8527
3641	0.8533
3650	0.854
3659	0.8546
3668	0.8552
3677	0.8557
3686	0.8562
3695	0.8566
3704	0.8569
3713	0.857
3722	0.8572
3731	0.8569
3740	0.8567
3749	0.8562
3758	0.8557
3767	0.8552
3776	0.8558
3785	0.8563
