Infrared Spectrum: DIETHYLENE GLYCOL BIS(2,2,3-TRICHLOROPROPIONATE)
Formula: C10 H12 Cl6 O5
CAS: 114165-21-8
State: SOLUTION (10% CCl4 FOR 2.5-7.5, 10% CS2 FOR 7.5-16 MICRON)
Class: COBLENTZ
Instrument: Not specified, most likely a prism, grating, or hybrid spectrometer.
Sampling: TRANSMISSION
Path length: 0.01 CM, 0.01 CM
Resolution: 4
Origin: DOW CHEMICAL COMPANY
MICROMETERS	TRANSMITTANCE
2.013	0.898
2.05298	0.898
2.09296	0.901
2.13294	0.898
2.17292	0.896
2.2129	0.881
2.25289	0.891
2.29287	0.891
2.33285	0.89
2.37283	0.9
2.41281	0.9
2.45279	0.898
2.49277	0.9
2.53275	0.905
2.57273	0.908
2.61271	0.901
2.65269	0.91
2.69268	0.903
2.73266	0.901
2.77264	0.893
2.81262	0.88
2.8526	0.886
2.89258	0.898
2.93256	0.898
2.97254	0.891
3.01252	0.888
3.0525	0.89
3.09248	0.888
3.13247	0.888
3.17245	0.886
3.21243	0.88
3.25241	0.87
3.29239	0.818
3.33237	0.735
3.37235	0.657
3.41233	0.678
3.45231	0.68
3.49229	0.803
3.53227	0.851
3.57226	0.878
3.61224	0.883
3.65222	0.888
3.6922	0.901
3.73218	0.905
3.77216	0.905
3.81214	0.905
3.85212	0.905
3.8921	0.903
3.93208	0.903
3.97206	0.906
4.01205	0.908
4.05203	0.911
4.09201	0.908
4.13199	0.911
4.17197	0.91
4.21195	0.89
4.25193	0.885
4.29191	0.891
4.33189	0.888
4.37187	0.898
4.41185	0.911
4.45184	0.915
4.49182	0.913
4.5318	0.915
4.57178	0.913
4.61176	0.911
4.65174	0.911
4.69172	0.913
4.7317	0.913
4.77168	0.911
4.81166	0.911
4.85164	0.91
4.89162	0.911
4.93161	0.916
4.97159	0.91
5.01157	0.91
5.05155	0.91
5.09153	0.911
5.13151	0.906
5.17149	0.911
5.21147	0.908
5.25145	0.905
5.29143	0.901
5.33141	0.893
5.3714	0.885
5.41138	0.878
5.45136	0.86
5.49134	0.826
5.53132	0.742
5.5713	0.492
5.61128	0.188
5.65126	0.078
5.69124	0.071
5.73122	0.204
5.7712	0.648
5.81119	0.767
5.85117	0.833
5.89115	0.873
5.93113	0.885
5.97111	0.891
6.01109	0.903
6.05107	0.901
6.09105	0.891
6.13103	0.871
6.17101	0.828
6.21099	0.757
6.25098	0.655
6.29096	0.61
6.33094	0.584
6.37092	0.529
6.4109	0.47
6.45088	0.464
6.49086	0.559
6.53084	0.615
6.57082	0.662
6.6108	0.735
6.65078	0.79
6.69077	0.801
6.73075	0.797
6.77073	0.74
6.81071	0.688
6.85069	0.577
6.89067	0.602
6.93065	0.66
6.97063	0.597
7.01061	0.532
7.05059	0.772
7.09057	0.798
7.13056	0.755
7.17054	0.748
7.21052	0.765
7.2505	0.74
7.29048	0.725
7.33046	0.68
7.37044	0.79
7.41042	0.767
7.4504	0.758
7.49038	0.763
7.53036	0.735
7.57035	0.662
7.61033	0.544
7.65031	0.396
7.69029	0.234
7.73027	0.091
7.77025	0.061
7.81023	0.146
7.85021	0.116
7.89019	0.083
7.93017	0.078
7.97015	0.103
8.01014	0.216
8.05012	0.346
8.0901	0.454
8.13008	0.495
8.17006	0.5
8.21004	0.479
8.25002	0.341
8.29	0.227
8.32998	0.286
8.36996	0.301
8.40994	0.143
8.44993	0.081
8.48991	0.232
8.52989	0.474
8.56987	0.547
8.60985	0.519
8.64983	0.41
8.68981	0.274
8.72979	0.179
8.76977	0.207
8.80975	0.289
8.84973	0.382
8.88972	0.462
8.9297	0.504
8.96968	0.5
9.00966	0.417
9.04964	0.339
9.08962	0.311
9.1296	0.379
9.16958	0.43
9.20956	0.474
9.24954	0.524
9.28952	0.58
9.32951	0.61
9.36949	0.637
9.40947	0.642
9.44945	0.622
9.48943	0.562
9.52941	0.489
9.56939	0.415
9.60937	0.351
9.64935	0.321
9.68933	0.332
9.72931	0.367
9.7693	0.384
9.80928	0.415
9.84926	0.472
9.88924	0.534
9.92922	0.527
9.9692	0.429
10.0092	0.339
10.0492	0.396
10.0891	0.475
10.1291	0.522
10.1691	0.58
10.2091	0.647
10.2491	0.692
10.289	0.705
10.329	0.708
10.369	0.692
10.409	0.648
10.449	0.608
10.489	0.615
10.5289	0.66
10.5689	0.677
10.6089	0.683
10.6489	0.69
10.6889	0.7
10.7288	0.712
10.7688	0.727
10.8088	0.75
10.8488	0.763
10.8888	0.77
10.9287	0.765
10.9687	0.757
11.0087	0.742
11.0487	0.718
11.0887	0.695
11.1286	0.677
11.1686	0.663
11.2086	0.652
11.2486	0.635
11.2886	0.612
11.3286	0.582
11.3685	0.552
11.4085	0.517
11.4485	0.482
11.4885	0.457
11.5285	0.44
11.5684	0.43
11.6084	0.424
11.6484	0.422
11.6884	0.425
11.7284	0.43
11.7683	0.435
11.8083	0.432
11.8483	0.424
11.8883	0.442
11.9283	0.484
11.9682	0.542
12.0082	0.589
12.0482	0.617
12.0882	0.642
12.1282	0.662
12.1681	0.673
12.2081	0.685
12.2481	0.69
12.2881	0.695
12.3281	0.702
12.3681	0.703
12.408	0.703
12.448	0.703
12.488	0.695
12.528	0.682
12.568	0.677
12.6079	0.687
12.6479	0.7
12.6879	0.71
12.7279	0.715
12.7679	0.722
12.8078	0.725
12.8478	0.732
12.8878	0.73
12.9278	0.723
12.9678	0.712
13.0077	0.702
13.0477	0.672
13.0877	0.632
13.1277	0.562
13.1677	0.465
13.2077	0.346
13.2476	0.279
13.2876	0.252
13.3276	0.287
13.3676	0.364
13.4076	0.444
13.4475	0.494
13.4875	0.5
13.5275	0.482
13.5675	0.432
13.6075	0.377
13.6474	0.334
13.6874	0.307
13.7274	0.309
13.7674	0.339
13.8074	0.384
13.8473	0.417
13.8873	0.472
13.9273	0.504
13.9673	0.515
14.0073	0.519
14.0473	0.505
14.0872	0.489
14.1272	0.464
14.1672	0.437
14.2072	0.404
14.2472	0.374
14.2871	0.341
14.3271	0.309
14.3671	0.286
14.4071	0.264
14.4471	0.241
14.487	0.216
14.527	0.198
14.567	0.181
14.607	0.168
14.647	0.166
14.6869	0.181
14.7269	0.202
14.7669	0.222
14.8069	0.241
14.8469	0.264
14.8869	0.272
14.9268	0.281
14.9668	0.311
15.0068	0.346
15.0468	0.371
15.0868	0.384
15.1267	0.396
15.1667	0.402
15.2067	0.405
15.2467	0.407
15.2867	0.407
15.3266	0.409
15.3666	0.41
15.4066	0.41
15.4466	0.41
15.4866	0.41
15.5265	0.409
15.5665	0.405
15.6065	0.399
15.6465	0.396
15.6865	0.391
15.7264	0.387
15.7664	0.384
15.8064	0.379
15.8464	0.372
15.8864	0.372
