Infrared Spectrum: 2,3,6-Trifluorobenzyl alcohol
Formula: C 7 H 5 F 3 O
CAS: 114152-19-1
State: gas
Origin: EPA-IR VAPOR PHASE LIBRARY
1/CM	ABSORBANCE
549.8	0.00348
559.445	0.00307
569.09	0.00245
578.734	0.00352
588.379	0.00501
598.024	0.00604
607.669	0.00566
617.313	0.00657
626.958	0.00413
636.603	0.00327
646.248	0.00239
655.893	0.00347
665.537	0.00334
675.182	0.00406
684.827	0.00408
694.472	0.00216
704.116	0.00246
713.761	0.00381
723.406	0.00647
733.051	0.01305
742.695	0.01505
752.34	0.01526
761.985	0.01539
771.63	0.00939
781.275	0.00596
790.919	0.00999
800.564	0.02149
810.209	0.03134
819.854	0.01848
829.498	0.00506
839.143	0.00358
848.788	0.0042
858.433	0.00435
868.078	0.0069
877.722	0.0119
887.367	0.01777
897.012	0.01786
906.657	0.01234
916.301	0.00723
925.946	0.00612
935.591	0.00541
945.236	0.00559
954.88	0.00745
964.525	0.01044
974.17	0.01686
983.815	0.02309
993.46	0.02581
1003.1	0.02257
1012.75	0.02455
1022.39	0.0375
1032.04	0.04611
1041.68	0.04707
1051.33	0.03367
1060.97	0.01837
1070.62	0.00917
1080.26	0.00815
1089.91	0.00582
1099.55	0.00459
1109.2	0.00368
1118.84	0.00443
1128.49	0.0057
1138.13	0.0046
1147.78	0.00711
1157.42	0.0078
1167.07	0.00941
1176.71	0.01307
1186.36	0.02142
1196	0.02298
1205.64	0.02395
1215.29	0.02889
1224.93	0.02691
1234.58	0.02786
1244.22	0.06241
1253.87	0.07695
1263.51	0.03227
1273.16	0.00796
1282.8	0.0084
1292.45	0.01253
1302.09	0.01724
1311.74	0.01564
1321.38	0.00986
1331.03	0.00777
1340.67	0.00809
1350.32	0.00843
1359.96	0.00886
1369.61	0.01187
1379.25	0.01679
1388.9	0.01797
1398.54	0.01406
1408.18	0.00958
1417.83	0.00773
1427.47	0.00723
1437.12	0.00841
1446.76	0.01089
1456.41	0.01139
1466.05	0.01231
1475.7	0.02301
1485.34	0.07901
1494.99	0.17939
1504.63	0.16005
1514.28	0.04856
1523.92	0.01443
1533.57	0.00928
1543.21	0.00657
1552.86	0.00417
1562.5	0.00369
1572.15	0.00403
1581.79	0.0044
1591.44	0.00615
1601.08	0.00744
1610.73	0.00848
1620.37	0.00998
1630.01	0.01176
1639.66	0.00984
1649.3	0.00535
1658.95	0.00226
1668.59	0.0021205
1678.24	0.0017191
1687.88	0.0018735
1697.53	0.0016586
1707.17	0.0020465
1716.82	0.00233
1726.46	0.00256
1736.11	0.0022
1745.75	0.0018643
1755.4	0.0016308
1765.04	0.0018231
1774.69	0.0017921
1784.33	0.0018743
1793.98	0.0013496
1803.62	0.0016105
1813.27	0.0013271
1822.91	0.0020133
1832.55	0.00309
1842.2	0.00342
1851.84	0.00245
1861.49	0.0018514
1871.13	0.0015014
1880.78	0.0014462
1890.42	0.0017281
1900.07	0.00121079
1909.71	0.0013078
1919.36	0.0014712
1929	0.00120726
1938.65	0.0016935
1948.29	0.0015527
1957.94	0.0014505
1967.58	0.0014061
1977.23	0.0017072
1986.87	0.0016153
1996.52	0.0016222
2006.16	0.0017826
2015.81	0.0020474
2025.45	0.00223
2035.1	0.0020442
2044.74	0.0020383
2054.38	0.0019323
2064.03	0.0018406
2073.67	0.0014526
2083.32	0.0013278
2092.96	0.0014841
2102.61	0.0013397
2112.25	0.0015986
2121.9	0.0013908
2131.54	0.0013762
2141.19	0.0014268
2150.83	0.0014151
2160.48	0.0015499
2170.12	0.001907
2179.77	0.001753
2189.41	0.0016678
2199.06	0.0017863
2208.7	0.0014943
2218.35	0.0014166
2227.99	0.001864
2237.64	0.0016282
2247.28	0.0014347
2256.92	0.0016564
2266.57	0.0015177
2276.21	0.0015214
2285.86	0.0017935
2295.5	0.0019452
2305.15	0.0017338
2314.79	0.0014512
2324.44	0.0017175
2334.08	0.0017166
2343.73	0.0017575
2353.37	0.0019935
2363.02	0.001561
2372.66	0.0016237
2382.31	0.0016622
2391.95	0.0013859
2401.6	0.0015142
2411.24	0.0015832
2420.89	0.0015651
2430.53	0.0015123
2440.18	0.0017832
2449.82	0.0019098
2459.47	0.0015531
2469.11	0.0012987
2478.75	0.001665
2488.4	0.0014173
2498.04	0.0018254
2507.69	0.0018969
2517.33	0.0017064
2526.98	0.0020943
2536.62	0.0016016
2546.27	0.001916
2555.91	0.0021147
2565.56	0.001697
2575.2	0.0012751
2584.85	0.0014202
2594.49	0.0012661
2604.14	0.0015407
2613.78	0.001514
2623.43	0.00151
2633.07	0.0010868
2642.72	0.0017764
2652.36	0.00149
2662.01	0.0020124
2671.65	0.0012885
2681.29	0.0018487
2690.94	0.0012815
2700.58	0.0017189
2710.23	0.0011204
2719.87	0.0014532
2729.52	0.0019058
2739.16	0.0017275
2748.81	0.0014567
2758.45	0.001343
2768.1	0.0017104
2777.74	0.0015217
2787.39	0.0016546
2797.03	0.0019664
2806.68	0.0013383
2816.32	0.0014589
2825.97	0.0019619
2835.61	0.0018528
2845.26	0.00231
2854.9	0.0020734
2864.55	0.00246
2874.19	0.00368
2883.84	0.00563
2893.48	0.00769
2903.12	0.00845
2912.77	0.0068
2922.41	0.00533
2932.06	0.00479
2941.7	0.00504
2951.35	0.00545
2960.99	0.00631
2970.64	0.00605
2980.28	0.00531
2989.93	0.00464
2999.57	0.00414
3009.22	0.00311
3018.86	0.00255
3028.51	0.0019376
3038.15	0.0018268
3047.8	0.0017447
3057.44	0.001602
3067.09	0.00218
3076.73	0.0015864
3086.38	0.0017898
3096.02	0.0010589
3105.67	0.0013247
3115.31	0.00117248
3124.95	0.000982
3134.6	0.000855
3144.24	0.000961
3153.89	0.0018642
3163.53	0.00091
3173.18	0.0013625
3182.82	0.0012474
3192.47	0.00121222
3202.11	0.000917
3211.76	0.00079
3221.4	0.001015
3231.05	0.000989
3240.69	0.0014162
3250.34	0.000962
3259.98	0.0011414
3269.63	0.000921
3279.27	0.0013014
3288.92	0.000736
3298.56	0.0013499
3308.21	0.00120724
3317.85	0.00045
3327.49	0.0013901
3337.14	0.000517
3346.78	0.0010484
3356.43	0.00123248
3366.07	0.0016635
3375.72	0.0014485
3385.36	0.0013977
3395.01	0.001038
3404.65	0.001805
3414.3	0.0013245
3423.94	0.0018414
3433.59	0.00118914
3443.23	0.000898
3452.88	0.0020881
3462.52	0.0015249
3472.17	0.0019996
3481.81	0.0015925
3491.46	0.00114466
3501.1	0.000946
3510.75	0.0012429
3520.39	0.0010413
3530.04	0.0015484
3539.68	0.0015665
3549.32	0.0010811
3558.97	0.0016881
3568.61	0.0018541
3578.26	0.0015334
3587.9	0.0018014
3597.55	0.0018038
3607.19	0.0019308
3616.84	0.0021323
3626.48	0.00285
3636.13	0.00334
3645.77	0.00687
3655.42	0.01207
3665.06	0.01169
3674.71	0.00653
3684.35	0.00308
3694	0.0021175
3703.64	0.00336
3713.29	0.0027
3722.93	0.0013323
3732.58	0.0016698
3742.22	0.001796
3751.86	0.0010665
3761.51	0.0014677
3771.15	0.0014517
3780.8	0.000976
3790.44	0.000987
3800.09	0.000806
3809.73	0.001256
3819.38	0.0012848
3829.02	0.000431
3838.67	0.000662
3848.31	0.0019528
3857.96	0.000695
3867.6	0.0019825
3877.25	0.001011
3886.89	0.0013981
3896.54	0.0014204
3906.18	0.0012439
3915.83	0.0012828
3925.47	0.000857
3935.12	0.0011182
3944.76	0.0018138
3954.41	0.00121
3964.05	0.0010606
3973.69	0.0017164
3983.34	0.0017282
3992.98	0.0013337
