Infrared Spectrum: Bis(2-aminophenyl)disulfide
Formula: C 12 H 12 N 2 S 2
CAS: 1141-88-4
State: gas
Instrument: HP-GC/MS/IRD
Origin: NIST Mass Spectrometry Data Center
1/CM	ABSORBANCE
550	0.0078606
562	0.0086031
574	0.0079893
586	0.0083457
598	0.0084744
610	0.008415
622	0.0082863
634	0.0081774
646	0.0081279
658	0.0083754
670	0.009009
682	0.0098208
694	0.0101772
706	0.0119988
718	0.0148698
730	0.0281952
742	0.086328
754	0.0327888
766	0.0156321
778	0.011781
790	0.0096723
802	0.0087318
814	0.0080883
826	0.0079002
838	0.0067122
850	0.0046728
862	0.0034353
874	0.002871
886	0.0023364
898	0.0021483
910	0.0018612
922	0.0018711
934	0.0030393
946	0.0013167
958	0.0009306
970	0.0008712
982	0.0007722
994	0.0008811
1006	0.0010989
1018	0.0031581
1030	0.0030987
1042	0.001881
1054	0.0011781
1066	0.0001683
1078	0.0004356
1090	0.0004455
1102	0.0002475
1114	0.0004158
1126	0.0013365
1138	0.0058014
1150	0.0110484
1162	0.0140382
1174	0.0014256
1186	0.000693
1198	0.0006831
1210	0.0010593
1222	0.001881
1234	0.005841
1246	0.0175032
1258	0.0087813
1270	0.0042867
1282	0.0068904
1294	0.0198198
1306	0.0354717
1318	0.0136917
1330	0.0024453
1342	0.000594
1354	6.93e-05
1366	0.0001881
1378	0.0007326
1390	0.0004653
1402	0.0006633
1414	0.0019206
1426	0.0045738
1438	0.0137709
1450	0.0236709
1462	0.0215622
1474	0.0551925
1486	0.0270864
1498	0.0096723
1510	0.00495
1522	0.0027621
1534	0.0027324
1546	0.0044253
1558	0.0084051
1570	0.0141966
1582	0.0211959
1594	0.0308385
1606	0.0741213
1618	0.0908325
1630	0.0356697
1642	0.0131967
1654	0.0062766
1666	0.0043362
1678	0.0038511
1690	0.0019701
1702	0.0010791
1714	0.000693
1726	0.0003762
1738	0.000297
1750	0.0005049
1762	0.0011484
1774	0.0015741
1786	0.0008514
1798	0.0010296
1810	0.0006633
1822	0.0001584
1834	0.0001683
1846	0.0003267
1858	0.0009504
1870	0.0009603
1882	0.0010098
1894	0.0023958
1906	0.0011385
1918	0.0019206
1930	0.0016236
1942	0.0002376
1954	6.93e-05
1966	5.94e-05
1978	6.93e-05
1990	4.95e-05
2002	2.97e-05
2014	9.9e-06
2026	0
2038	0
2050	1.98e-05
2062	3.96e-05
2074	9.9e-05
2086	0.0001287
2098	0.000198
2110	0.0002277
2122	0.000297
2134	0.0004158
2146	0.0004455
2158	0.0003564
2170	0.0002376
2182	0.0001485
2194	0.0001584
2206	9.9e-05
2218	7.92e-05
2230	6.93e-05
2242	5.94e-05
2254	7.92e-05
2266	0.0001188
2278	0.0001881
2290	0.000297
2302	0.0004059
2314	0.0004752
2326	0.0003861
2338	0.0001683
2350	0.0001386
2362	7.92e-05
2374	4.95e-05
2386	0.0001089
2398	0.0001881
2410	0.0001881
2422	0.0001485
2434	0.0001485
2446	0.0002673
2458	0.0003069
2470	0.0001584
2482	3.96e-05
2494	5.94e-05
2506	7.92e-05
2518	0.0002376
2530	0.0003564
2542	0.0004851
2554	0.0005445
2566	0.0003267
2578	0.0003267
2590	0.0005445
2602	0.0009405
2614	0.0010593
2626	0.0007326
2638	0.0004356
2650	0.0002475
2662	0.0002475
2674	0.0002277
2686	0.0003168
2698	0.0003168
2710	0.0002574
2722	0.0002475
2734	0.000297
2746	0.0004752
2758	0.0004851
2770	0.0005544
2782	0.0003663
2794	0.0001782
2806	0.0001287
2818	0.0001188
2830	0.0002178
2842	0.0003069
2854	0.0005544
2866	0.0008118
2878	0.0008118
2890	0.0006534
2902	0.0004653
2914	0.0004059
2926	0.0004158
2938	0.0004257
2950	0.0004158
2962	0.0003663
2974	0.0005742
2986	0.0009702
2998	0.0021483
3010	0.006237
3022	0.0119394
3034	0.0076626
3046	0.0091971
3058	0.0165627
3070	0.0265914
3082	0.0171666
3094	0.0047322
3106	0.0020394
3118	0.0015246
3130	0.0015741
3142	0.0013266
3154	0.0011385
3166	0.0010692
3178	0.0011286
3190	0.0009702
3202	0.0007722
3214	0.0006336
3226	0.0005346
3238	0.0004356
3250	0.0003267
3262	0.0003069
3274	0.0001683
3286	0.0001683
3298	0.0002475
3310	0.0002574
3322	0.0003465
3334	0.0005742
3346	0.0009504
3358	0.0018612
3370	0.0040887
3382	0.0101871
3394	0.0178695
3406	0.0117117
3418	0.0044154
3430	0.0023067
3442	0.0019998
3454	0.0025245
3466	0.0044847
3478	0.0088209
3490	0.015642
3502	0.0177309
3514	0.0093258
3526	0.0035937
3538	0.0017127
3550	0.0010692
3562	0.0007821
3574	0.000693
3586	0.0005247
3598	0.0004158
3610	0.0004455
3622	0.000396
3634	0.0004653
3646	0.0004653
3658	0.0003762
3670	0.0003366
3682	0.0003762
3694	0.0004455
3706	0.0003861
3718	0.0003267
3730	0.0003762
3742	0.0004356
3754	0.0004554
3766	0.0005049
3778	0.0004455
3790	0.0003861
3802	0.0003861
3814	0.0004455
3826	0.0004554
3838	0.0005742
