Infrared Spectrum: o-(2,4,6-TRICHLOROPHENYL)-N-METHYLAMIDO-N-ETHYLAMIDOTHIOPHOSPHATE
Formula: C9 H12 Cl3 N2 O P S
CAS: 114133-84-5
State: SOLUTION (10% CCl4 FOR 5000-1330, 10% CS2 FOR 1330-625 CM^-^1)
Class: COBLENTZ
Instrument: Not specified, most likely a prism, grating, or hybrid spectrometer.
Sampling: TRANSMISSION
Path length: 0.0113 CM, 0.0109 CM
Resolution: 4
Origin: DOW CHEMICAL COMPANY
MICROMETERS	TRANSMITTANCE
2.055	0.878
2.09601	0.884
2.13703	0.883
2.17804	0.881
2.21906	0.871
2.26007	0.874
2.30109	0.876
2.3421	0.878
2.38312	0.881
2.42413	0.879
2.46515	0.879
2.50616	0.891
2.54718	0.879
2.58819	0.872
2.62921	0.884
2.67022	0.883
2.71124	0.876
2.75225	0.871
2.79327	0.865
2.83428	0.86
2.8753	0.769
2.91631	0.51
2.95733	0.762
2.99834	0.75
3.03936	0.774
3.08037	0.812
3.12139	0.824
3.1624	0.829
3.20342	0.821
3.24443	0.816
3.28545	0.826
3.32646	0.726
3.36748	0.556
3.40849	0.618
3.44951	0.663
3.49052	0.798
3.53153	0.792
3.57255	0.852
3.61356	0.864
3.65458	0.869
3.69559	0.874
3.73661	0.876
3.77762	0.879
3.81864	0.879
3.85965	0.872
3.90067	0.879
3.94168	0.867
3.9827	0.871
4.02371	0.876
4.06473	0.879
4.10574	0.879
4.14676	0.881
4.18777	0.876
4.22879	0.862
4.2698	0.855
4.31082	0.869
4.35183	0.862
4.39285	0.871
4.43386	0.874
4.47488	0.878
4.51589	0.872
4.55691	0.878
4.59792	0.876
4.63894	0.878
4.67995	0.876
4.72097	0.883
4.76198	0.879
4.803	0.878
4.84401	0.874
4.88503	0.879
4.92604	0.876
4.96705	0.872
5.00807	0.867
5.04908	0.869
5.0901	0.872
5.13111	0.871
5.17213	0.867
5.21314	0.872
5.25416	0.872
5.29517	0.871
5.33619	0.869
5.3772	0.871
5.41822	0.872
5.45923	0.871
5.50025	0.878
5.54126	0.872
5.58228	0.872
5.62329	0.872
5.66431	0.872
5.70532	0.869
5.74634	0.833
5.78735	0.819
5.82837	0.826
5.86938	0.84
5.9104	0.848
5.95141	0.848
5.99243	0.85
6.03344	0.845
6.07446	0.823
6.11547	0.805
6.15649	0.786
6.1975	0.749
6.23852	0.661
6.27953	0.56
6.32055	0.479
6.36156	0.376
6.40258	0.329
6.44359	0.398
6.4846	0.47
6.52562	0.553
6.56663	0.585
6.60765	0.621
6.64866	0.664
6.68968	0.664
6.73069	0.582
6.77171	0.31
6.81272	0.152
6.85374	0.072
6.89475	0.211
6.93577	0.39
6.97678	0.379
7.0178	0.396
7.05881	0.424
7.09983	0.297
7.14084	0.25
7.18186	0.194
7.22287	0.204
7.26389	0.364
7.3049	0.594
7.34592	0.701
7.38693	0.733
7.42795	0.745
7.46896	0.756
7.50998	0.769
7.55099	0.778
7.59201	0.788
7.63302	0.788
7.67404	0.773
7.71505	0.762
7.75607	0.738
7.79708	0.666
7.8381	0.572
7.87911	0.45
7.92012	0.233
7.96114	0.152
8.00215	0.414
8.04317	0.644
8.08418	0.716
8.1252	0.761
8.16621	0.776
8.20723	0.79
8.24824	0.79
8.28926	0.761
8.33027	0.737
8.37129	0.738
8.4123	0.786
8.45332	0.79
8.49433	0.788
8.53535	0.778
8.57636	0.762
8.61738	0.743
8.65839	0.699
8.69941	0.604
8.74042	0.539
8.78144	0.47
8.82245	0.362
8.86347	0.245
8.90448	0.151
8.9455	0.092
8.98651	0.101
9.02753	0.154
9.06854	0.201
9.10956	0.194
9.15057	0.209
9.19159	0.312
9.2326	0.365
9.27362	0.29
9.31463	0.281
9.35564	0.364
9.39666	0.556
9.43767	0.67
9.47869	0.74
9.5197	0.778
9.56072	0.795
9.60173	0.81
9.64275	0.817
9.68376	0.817
9.72478	0.81
9.76579	0.823
9.80681	0.835
9.84782	0.841
9.88884	0.841
9.92985	0.838
9.97087	0.838
10.0119	0.835
10.0529	0.828
10.0939	0.819
10.1349	0.8
10.1759	0.768
10.217	0.74
10.258	0.675
10.299	0.592
10.34	0.529
10.381	0.489
10.422	0.472
10.463	0.517
10.5041	0.561
10.5451	0.606
10.5861	0.647
10.6271	0.69
10.6681	0.719
10.7091	0.747
10.7502	0.757
10.7912	0.757
10.8322	0.752
10.8732	0.742
10.9142	0.713
10.9552	0.649
10.9962	0.508
11.0373	0.388
11.0783	0.202
11.1193	0.097
11.1603	0.151
11.2013	0.31
11.2423	0.45
11.2833	0.536
11.3244	0.541
11.3654	0.503
11.4064	0.451
11.4474	0.374
11.4884	0.297
11.5294	0.24
11.5704	0.194
11.6115	0.13
11.6525	0.048
11.6935	0.061
11.7345	0.151
11.7755	0.237
11.8165	0.268
11.8576	0.28
11.8986	0.29
11.9396	0.29
11.9806	0.25
12.0216	0.209
12.0626	0.159
12.1036	0.111
12.1447	0.072
12.1857	0.042
12.2267	0.025
12.2677	0.01
12.3087	0.001
12.3497	0
12.3907	0
12.4318	0.012
12.4728	0.032
12.5138	0.115
12.5548	0.209
12.5958	0.298
12.6368	0.352
12.6778	0.357
12.7189	0.34
12.7599	0.347
12.8009	0.364
12.8419	0.4
12.8829	0.443
12.9239	0.472
12.965	0.525
13.006	0.56
13.047	0.573
13.088	0.592
13.129	0.601
13.17	0.606
13.211	0.606
13.2521	0.608
13.2931	0.601
13.3341	0.592
13.3751	0.58
13.4161	0.567
13.4571	0.542
13.4981	0.505
13.5392	0.457
13.5802	0.364
13.6212	0.257
13.6622	0.194
13.7032	0.187
13.7442	0.283
13.7852	0.393
13.8263	0.527
13.8673	0.584
13.9083	0.606
13.9493	0.613
13.9903	0.613
14.0313	0.606
14.0724	0.596
14.1134	0.579
14.1544	0.561
14.1954	0.537
14.2364	0.515
14.2774	0.484
14.3184	0.431
14.3595	0.378
14.4005	0.312
14.4415	0.252
14.4825	0.204
14.5235	0.173
14.5645	0.166
14.6055	0.187
14.6466	0.216
14.6876	0.266
14.7286	0.304
14.7696	0.328
14.8106	0.345
14.8516	0.35
14.8927	0.341
14.9337	0.317
14.9747	0.307
15.0157	0.309
15.0567	0.312
15.0977	0.333
15.1387	0.343
15.1798	0.348
15.2208	0.355
15.2618	0.36
15.3028	0.359
15.3438	0.355
15.3848	0.359
15.4258	0.355
15.4669	0.35
15.5079	0.345
15.5489	0.338
15.5899	0.329
15.6309	0.328
15.6719	0.319
15.7129	0.307
15.754	0.3
15.795	0.288
15.836	0.278
