Infrared Spectrum: .alpha.-Pyridoin
Formula: C 12 H 10 N 2 O 2
CAS: 1141-06-6
State: gas
Origin: EPA-IR VAPOR PHASE LIBRARY
1/CM	ABSORBANCE
549.8	0.001153
559.445	0.000998
569.09	0.0005318
578.734	0.0005994
588.379	0.0007578
598.024	0.0010692
607.669	0.001853
617.313	0.001203
626.958	0.0010523
636.603	0.001183
646.248	0.001413
655.893	0.0010082
665.537	0.0007644
675.182	0.0007263
684.827	0.0009177
694.472	0.0010424
704.116	0.001313
713.761	0.001653
723.406	0.003033
733.051	0.004463
742.695	0.003363
752.34	0.001423
761.985	0.001273
771.63	0.002303
781.275	0.004853
790.919	0.004833
800.564	0.002473
810.209	0.0010387
819.854	0.0007551
829.498	0.0009306
839.143	0.001343
848.788	0.0010804
858.433	0.000715
868.078	0.0004912
877.722	0.0005706
887.367	0.000824
897.012	0.0005402
906.657	0.0006314
916.301	0.0004018
925.946	0.0003403
935.591	0.0002697
945.236	0.0002877
954.88	0.0005996
964.525	0.0005086
974.17	0.0010609
983.815	0.001393
993.46	0.001233
1003.1	0.001123
1012.75	0.0005072
1022.39	0.0004408
1032.04	0.0004739
1041.68	0.0010084
1051.33	0.0007532
1060.97	0.0007848
1070.62	0.0004784
1080.26	0.001293
1089.91	0.003323
1099.55	0.001833
1109.2	0.0005371
1118.84	0.00014246
1128.49	0.0002806
1138.13	0.000804
1147.78	0.002183
1157.42	0.0011005
1167.07	0.001453
1176.71	0.003343
1186.36	0.005603
1196	0.004703
1205.64	0.002263
1215.29	0.001303
1224.93	0.001533
1234.58	0.002323
1244.22	0.004783
1253.87	0.009133
1263.51	0.014043
1273.16	0.007223
1282.8	0.003333
1292.45	0.002703
1302.09	0.001783
1311.74	0.001163
1321.38	0.0010153
1331.03	0.001123
1340.67	0.001123
1350.32	0.001233
1359.96	0.001303
1369.61	0.001473
1379.25	0.001973
1388.9	0.002553
1398.54	0.003253
1408.18	0.003953
1417.83	0.005343
1427.47	0.005283
1437.12	0.004463
1446.76	0.003853
1456.41	0.007893
1466.05	0.013713
1475.7	0.006373
1485.34	0.003453
1494.99	0.002743
1504.63	0.002283
1514.28	0.001813
1523.92	0.001553
1533.57	0.001383
1543.21	0.001453
1552.86	0.002283
1562.5	0.003883
1572.15	0.003443
1581.79	0.008333
1591.44	0.016483
1601.08	0.006853
1610.73	0.002973
1620.37	0.001323
1630.01	0.0009706
1639.66	0.0009091
1649.3	0.0008228
1658.95	0.000727
1668.59	0.000622
1678.24	0.0005807
1687.88	0.0006151
1697.53	0.0006989
1707.17	0.001193
1716.82	0.001853
1726.46	0.001843
1736.11	0.001026
1745.75	0.0006445
1755.4	0.0004577
1765.04	0.0005398
1774.69	0.0004197
1784.33	0.0002555
1793.98	0.0002212
1803.62	0.0002626
1813.27	0.0002545
1822.91	0.0003639
1832.55	0.000348
1842.2	0.0004516
1851.84	0.0003374
1861.49	0.0003048
1871.13	0.0004291
1880.78	0.0003607
1890.42	0.0003481
1900.07	0.000326
1909.71	0.0005333
1919.36	0.0003616
1929	0.0002907
1938.65	0.0003468
1948.29	0.0003434
1957.94	0.0003642
1967.58	0.0004286
1977.23	0.0004518
1986.87	0.0004106
1996.52	0.0003237
2006.16	0.000284
2015.81	0.0002916
2025.45	0.0002663
2035.1	0.0002736
2044.74	0.0002882
2054.38	0.0003133
2064.03	0.0002476
2073.67	0.0002582
2083.32	0.000263
2092.96	0.0002306
2102.61	0.0002277
2112.25	0.0003783
2121.9	0.0002735
2131.54	0.0002685
2141.19	0.0002499
2150.83	0.0003515
2160.48	0.0002699
2170.12	0.0002921
2179.77	0.0004533
2189.41	0.0003804
2199.06	0.0003568
2208.7	0.0003076
2218.35	0.0003453
2227.99	0.0003551
2237.64	0.0004109
2247.28	0.0002899
2256.92	0.0004177
2266.57	0.0003515
2276.21	0.0004284
2285.86	0.0004798
2295.5	0.000524
2305.15	0.000486
2314.79	0.0005052
2324.44	0.0004727
2334.08	0.0005072
2343.73	0.0004993
2353.37	0.0005594
2363.02	0.0005861
2372.66	0.0004919
2382.31	0.0004706
2391.95	0.0004559
2401.6	0.0005917
2411.24	0.0005428
2420.89	0.0006054
2430.53	0.0006253
2440.18	0.0006947
2449.82	0.0006249
2459.47	0.0006616
2469.11	0.0006418
2478.75	0.0007322
2488.4	0.0005828
2498.04	0.0006443
2507.69	0.0005902
2517.33	0.0006536
2526.98	0.0007641
2536.62	0.0008053
2546.27	0.0007375
2555.91	0.0007902
2565.56	0.0006845
2575.2	0.0007457
2584.85	0.0007882
2594.49	0.0008881
2604.14	0.0009002
2613.78	0.0010107
2623.43	0.0010237
2633.07	0.0010791
2642.72	0.001103
2652.36	0.001103
2662.01	0.001203
2671.65	0.001173
2681.29	0.001353
2690.94	0.001233
2700.58	0.001403
2710.23	0.001443
2719.87	0.001583
2729.52	0.001433
2739.16	0.001393
2748.81	0.001613
2758.45	0.001623
2768.1	0.001733
2777.74	0.001743
2787.39	0.001653
2797.03	0.001783
2806.68	0.001633
2816.32	0.001673
2825.97	0.001673
2835.61	0.001563
2845.26	0.001623
2854.9	0.001723
2864.55	0.001753
2874.19	0.001803
2883.84	0.001853
2893.48	0.001853
2903.12	0.001873
2912.77	0.001943
2922.41	0.001723
2932.06	0.001863
2941.7	0.001983
2951.35	0.001943
2960.99	0.001913
2970.64	0.001883
2980.28	0.002023
2989.93	0.002073
2999.57	0.002223
3009.22	0.002473
3018.86	0.002813
3028.51	0.002883
3038.15	0.002783
3047.8	0.003023
3057.44	0.003993
3067.09	0.004723
3076.73	0.004443
3086.38	0.002833
3096.02	0.002253
3105.67	0.002353
3115.31	0.002133
3124.95	0.001903
3134.6	0.001783
3144.24	0.001873
3153.89	0.001773
3163.53	0.001713
3173.18	0.001623
3182.82	0.001813
3192.47	0.001593
3202.11	0.001463
3211.76	0.001493
3221.4	0.001563
3231.05	0.001443
3240.69	0.001333
3250.34	0.001413
3259.98	0.001283
3269.63	0.001363
3279.27	0.001113
3288.92	0.001203
3298.56	0.001143
3308.21	0.001103
3317.85	0.0008959
3327.49	0.000959
3337.14	0.0009566
3346.78	0.0008238
3356.43	0.0007727
3366.07	0.0006118
3375.72	0.0006222
3385.36	0.0007293
3395.01	0.0006437
3404.65	0.0004783
3414.3	0.0006641
3423.94	0.0006983
3433.59	0.0004936
3443.23	0.0004759
3452.88	0.0005584
3462.52	0.0005931
3472.17	0.0003767
3481.81	0.0004239
3491.46	0.0006456
3501.1	0.0005912
3510.75	0.0003993
3520.39	0.0005574
3530.04	0.0005139
3539.68	0.0005646
3549.32	0.0005417
3558.97	0.000357
3568.61	0.0003985
3578.26	0.0003487
3587.9	0.0004376
3597.55	0.0003493
3607.19	0.0003098
3616.84	0.0004318
3626.48	0.0004719
3636.13	0.0002352
3645.77	0.0003598
3655.42	0.0003273
3665.06	0.0003038
3674.71	0.00016542
3684.35	0.00019077
3694	0.0004579
3703.64	0.00016212
3713.29	0.0004171
3722.93	0.0003402
3732.58	0.0002289
3742.22	0.0003577
3751.86	0.0003554
3761.51	3.7e-05
3771.15	0.0003639
3780.8	0.0002365
3790.44	0.0003052
3800.09	0.0004165
3809.73	0.0002929
3819.38	0.0002236
3829.02	0.0003024
3838.67	0.000373
3848.31	0.0003625
3857.96	0.0002825
3867.6	0.0003756
3877.25	0.0003581
3886.89	0.0002918
3896.54	0.0002449
3906.18	0.0003337
3915.83	0.000234
3925.47	0.00017232
3935.12	0.000393
3944.76	0.0004233
3954.41	0.0003124
3964.05	0.0004232
3973.69	0.0003245
3983.34	0.000298
3992.98	0.0003873
