Infrared Spectrum: 3-(2-Naphthylthio)propionic acid
Formula: C 13 H 12 O 2 S
CAS: 1141-45-3
State: gas
Origin: EPA-IR VAPOR PHASE LIBRARY
1/CM	ABSORBANCE
549.8	0.012393
559.445	0.013043
569.09	0.013123
578.734	0.013333
588.379	0.015283
598.024	0.019833
607.669	0.021923
617.313	0.020063
626.958	0.017083
636.603	0.012683
646.248	0.010103
655.893	0.008583
665.537	0.007583
675.182	0.006853
684.827	0.006753
694.472	0.006183
704.116	0.005053
713.761	0.005473
723.406	0.008183
733.051	0.018723
742.695	0.021793
752.34	0.009943
761.985	0.007153
771.63	0.007363
781.275	0.008463
790.919	0.008853
800.564	0.014883
810.209	0.021933
819.854	0.010713
829.498	0.006863
839.143	0.009663
848.788	0.016473
858.433	0.010763
868.078	0.005523
877.722	0.005103
887.367	0.007203
897.012	0.007063
906.657	0.005773
916.301	0.005463
925.946	0.005043
935.591	0.007843
945.236	0.012393
954.88	0.005713
964.525	0.004243
974.17	0.004663
983.815	0.005233
993.46	0.004363
1003.1	0.005143
1012.75	0.006463
1022.39	0.007443
1032.04	0.006523
1041.68	0.006023
1051.33	0.006663
1060.97	0.009083
1070.62	0.014273
1080.26	0.017603
1089.91	0.023153
1099.55	0.037183
1109.2	0.065633
1118.84	0.071183
1128.49	0.053543
1138.13	0.038143
1147.78	0.025573
1157.42	0.020803
1167.07	0.020553
1176.71	0.022133
1186.36	0.022443
1196	0.020183
1205.64	0.015773
1215.29	0.014533
1224.93	0.012333
1234.58	0.012163
1244.22	0.011283
1253.87	0.010473
1263.51	0.011743
1273.16	0.012123
1282.8	0.010573
1292.45	0.007803
1302.09	0.006673
1311.74	0.007313
1321.38	0.008113
1331.03	0.010003
1340.67	0.012583
1350.32	0.015133
1359.96	0.018393
1369.61	0.021293
1379.25	0.020573
1388.9	0.014173
1398.54	0.009223
1408.18	0.007713
1417.83	0.008713
1427.47	0.010803
1437.12	0.010293
1446.76	0.007863
1456.41	0.006563
1466.05	0.004643
1475.7	0.004623
1485.34	0.005773
1494.99	0.010213
1504.63	0.009053
1514.28	0.002843
1523.92	0.002173
1533.57	0.002103
1543.21	0.002503
1552.86	0.002913
1562.5	0.003973
1572.15	0.006133
1581.79	0.008593
1591.44	0.010523
1601.08	0.006603
1610.73	0.005163
1620.37	0.006233
1630.01	0.006193
1639.66	0.002833
1649.3	0.002463
1658.95	0.002353
1668.59	0.002433
1678.24	0.003023
1687.88	0.003453
1697.53	0.004173
1707.17	0.005253
1716.82	0.007643
1726.46	0.011233
1736.11	0.016983
1745.75	0.026083
1755.4	0.041213
1765.04	0.059493
1774.69	0.091803
1784.33	0.089843
1793.98	0.050613
1803.62	0.030233
1813.27	0.017953
1822.91	0.010423
1832.55	0.005953
1842.2	0.003933
1851.84	0.002813
1861.49	0.002353
1871.13	0.001953
1880.78	0.002133
1890.42	0.002673
1900.07	0.002863
1909.71	0.002883
1919.36	0.002313
1929	0.002233
1938.65	0.002543
1948.29	0.002163
1957.94	0.0012332
1967.58	0.0011574
1977.23	0.0011024
1986.87	0.0010622
1996.52	0.0010205
2006.16	0.0009799
2015.81	0.0010687
2025.45	0.0008778
2035.1	0.0008432
2044.74	0.0009058
2054.38	0.0008605
2064.03	0.0008392
2073.67	0.0008962
2083.32	0.0009123
2092.96	0.0008779
2102.61	0.0008875
2112.25	0.0008773
2121.9	0.0008868
2131.54	0.0008331
2141.19	0.0008365
2150.83	0.0009541
2160.48	0.0008906
2170.12	0.000893
2179.77	0.0011307
2189.41	0.001095
2199.06	0.0008517
2208.7	0.0011135
2218.35	0.0010867
2227.99	0.0009803
2237.64	0.0009218
2247.28	0.0009344
2256.92	0.0010654
2266.57	0.0009999
2276.21	0.0010743
2285.86	0.0011874
2295.5	0.0010975
2305.15	0.0010376
2314.79	0.0009497
2324.44	0.0008553
2334.08	0.0009721
2343.73	0.0009472
2353.37	0.0009558
2363.02	0.0009428
2372.66	0.0009042
2382.31	0.0009505
2391.95	0.0010174
2401.6	0.0009518
2411.24	0.0008839
2420.89	0.001065
2430.53	0.0010124
2440.18	0.0010356
2449.82	0.0009362
2459.47	0.0010206
2469.11	0.0009786
2478.75	0.0008776
2488.4	0.000901
2498.04	0.0007174
2507.69	0.0008493
2517.33	0.0008111
2526.98	0.0007972
2536.62	0.0007157
2546.27	0.0007399
2555.91	0.0007072
2565.56	0.000727
2575.2	0.0006466
2584.85	0.0006403
2594.49	0.0006275
2604.14	0.0008094
2613.78	0.0007173
2623.43	0.0006622
2633.07	0.0006612
2642.72	0.0008158
2652.36	0.0008299
2662.01	0.000799
2671.65	0.0007566
2681.29	0.0008946
2690.94	0.0007382
2700.58	0.0007843
2710.23	0.0010022
2719.87	0.0007264
2729.52	0.0005871
2739.16	0.0007573
2748.81	0.0006856
2758.45	0.0007538
2768.1	0.0005952
2777.74	0.0008087
2787.39	0.0005198
2797.03	0.0005858
2806.68	0.0007793
2816.32	0.0010007
2825.97	0.0011137
2835.61	0.0013901
2845.26	0.001753
2854.9	0.001563
2864.55	0.001943
2874.19	0.001743
2883.84	0.002013
2893.48	0.001933
2903.12	0.002453
2912.77	0.003583
2922.41	0.005463
2932.06	0.007223
2941.7	0.009493
2951.35	0.007503
2960.99	0.005323
2970.64	0.005003
2980.28	0.005043
2989.93	0.004573
2999.57	0.004223
3009.22	0.004723
3018.86	0.005103
3028.51	0.005443
3038.15	0.006613
3047.8	0.012833
3057.44	0.027753
3067.09	0.026093
3076.73	0.014173
3086.38	0.009123
3096.02	0.003963
3105.67	0.001863
3115.31	0.001503
3124.95	0.001304
3134.6	0.0009982
3144.24	0.0010845
3153.89	0.0008323
3163.53	0.0007764
3173.18	0.0006334
3182.82	0.00047768
3192.47	0.0005178
3202.11	0.0009031
3211.76	0.0005732
3221.4	0.0005047
3231.05	0.0006551
3240.69	0.00048802
3250.34	0.0005249
3259.98	0.0006712
3269.63	0.00045431
3279.27	0.00050179
3288.92	0.000313
3298.56	0.0004339
3308.21	0.000419173
3317.85	0.0005651
3327.49	0.0004505
3337.14	0.0005789
3346.78	0.0008481
3356.43	0.00048691
3366.07	0.00046559
3375.72	0.0006102
3385.36	0.000421692
3395.01	0.000675
3404.65	0.000744
3414.3	0.0004288
3423.94	0.0008839
3433.59	0.0005252
3443.23	0.0005354
3452.88	0.000420795
3462.52	0.000420322
3472.17	0.0008013
3481.81	0.000253
3491.46	0.0007867
3501.1	0.0010232
3510.75	0.0012903
3520.39	0.001503
3530.04	0.001843
3539.68	0.002153
3549.32	0.003783
3558.97	0.009583
3568.61	0.033083
3578.26	0.039313
3587.9	0.011643
3597.55	0.003963
3607.19	0.001703
3616.84	0.0013737
3626.48	0.0011825
3636.13	0.0010527
3645.77	0.0008537
3655.42	0.0008413
3665.06	0.00049402
3674.71	0.0006318
3684.35	0.000327
3694	0.0006321
3703.64	0.0005413
3713.29	0.0007038
3722.93	0.0003964
3732.58	0.000269
3742.22	6.3e-05
3751.86	0.000383
3761.51	0.0006431
3771.15	0.000299
3780.8	0.0003226
3790.44	0.000266
3800.09	0.0005226
3809.73	0.0004014
3819.38	0.0005441
3829.02	0.00048616
3838.67	0.0003424
3848.31	0.00043293
3857.96	0.00049298
3867.6	7.1e-05
3877.25	0.000254
3886.89	0.000208
3896.54	0.0006393
3906.18	0.0005522
3915.83	0.0005536
3925.47	0.000305
3935.12	0.0008007
3944.76	0.00046598
3954.41	0.000285
3964.05	0.0006294
3973.69	0.0007446
3983.34	0.0003235
3992.98	0.0006211
