Infrared Spectrum: p-N,N-bis(2-Chloroethyl)aminobenzoic a
Formula: C 11 H 13 Cl 2 N O 2
CAS: 1141-37-3
State: gas
Instrument: HP-GC/MS/IRD
Origin: NIST Mass Spectrometry Data Center
1/CM	ABSORBANCE
550	0.001204
562	0.001736
574	0.0019145
586	0.0019985
598	0.001533
610	0.0003395
622	4.9e-05
634	0.0001505
646	8.4e-05
658	0.000399
670	0.001673
682	0.0024885
694	0.004186
706	0.002429
718	0.0011165
730	0.0008295
742	0.0012355
754	0.0025165
766	0.004844
778	0.002506
790	0.00154
802	0.0008645
814	0.0004725
826	0.001001
838	0.001421
850	0.000504
862	0.000434
874	0.000308
886	0.0002205
898	0.0003045
910	0.000525
922	0.0009905
934	0.000868
946	0.000917
958	0.001302
970	0.000987
982	0.0007945
994	0.0009555
1006	0.0012285
1018	0.00112
1030	0.0009905
1042	0.001071
1054	0.0016765
1066	0.003556
1078	0.0129185
1090	0.0093205
1102	0.002653
1114	0.0022155
1126	0.0029015
1138	0.0045465
1150	0.0076965
1162	0.0218365
1174	0.0200445
1186	0.0065205
1198	0.0044205
1210	0.003346
1222	0.002807
1234	0.004032
1246	0.0051555
1258	0.005418
1270	0.004781
1282	0.0040215
1294	0.003717
1306	0.0040285
1318	0.0055125
1330	0.007315
1342	0.00742
1354	0.010941
1366	0.008897
1378	0.004165
1390	0.0035035
1402	0.0020615
1414	0.0015085
1426	0.0017255
1438	0.001764
1450	0.0024045
1462	0.001764
1474	0.001386
1486	0.001337
1498	0.002121
1510	0.0064645
1522	0.0075635
1534	0.002471
1546	0.0012985
1558	0.0014455
1570	0.0022365
1582	0.0032305
1594	0.0074375
1606	0.016058
1618	0.0104545
1630	0.0026705
1642	0.001099
1654	0.0005775
1666	0.0004095
1678	0.0003815
1690	0.000602
1702	0.000847
1714	0.001568
1726	0.002436
1738	0.005747
1750	0.027972
1762	0.018676
1774	0.0037415
1786	0.0018025
1798	0.000868
1810	0.0005565
1822	0.0004095
1834	0.0001715
1846	3.85e-05
1858	5.6e-05
1870	3.5e-05
1882	9.1e-05
1894	0.0001505
1906	0.000245
1918	0.00021
1930	0.000154
1942	0.0001365
1954	0.0001365
1966	9.1e-05
1978	3.15e-05
1990	0
2002	1.4e-05
2014	3.15e-05
2026	3.15e-05
2038	1.4e-05
2050	2.45e-05
2062	3.5e-06
2074	2.8e-05
2086	2.45e-05
2098	3.85e-05
2110	3.5e-05
2122	7.35e-05
2134	0.0001365
2146	0.000147
2158	0.0001855
2170	0.0001575
2182	0.000112
2194	0.0001365
2206	0.0001575
2218	0.00014
2230	0.000217
2242	0.0003535
2254	0.0005005
2266	0.000427
2278	0.0004655
2290	0.00035
2302	0.0002135
2314	0.0001505
2326	0.0001645
2338	0.0001085
2350	0.0001225
2362	0.000161
2374	0.0001365
2386	0.0001015
2398	4.2e-05
2410	0.000105
2422	9.8e-05
2434	9.45e-05
2446	0.000105
2458	6.3e-05
2470	2.8e-05
2482	3.85e-05
2494	4.9e-05
2506	6.65e-05
2518	0.0001015
2530	0.0001015
2542	0.000133
2554	0.000133
2566	0.0001225
2578	0.000126
2590	0.0001645
2602	0.000203
2614	0.0001785
2626	0.0001365
2638	0.000119
2650	0.000105
2662	0.000112
2674	0.000105
2686	7.35e-05
2698	0.000168
2710	0.0001575
2722	0.0001435
2734	0.0001575
2746	0.0001085
2758	0.0001715
2770	0.00021
2782	0.000238
2794	0.0002275
2806	0.00035
2818	0.0004235
2830	0.000574
2842	0.0007385
2854	0.000896
2866	0.000945
2878	0.0010955
2890	0.001218
2902	0.001092
2914	0.0009065
2926	0.000798
2938	0.0008645
2950	0.001162
2962	0.0023135
2974	0.002275
2986	0.0014035
2998	0.0010535
3010	0.0015505
3022	0.0007665
3034	0.0004655
3046	0.0004095
3058	0.0005495
3070	0.0005005
3082	0.000616
3094	0.000588
3106	0.0006125
3118	0.000448
3130	0.000308
3142	0.000245
3154	0.000175
3166	8.4e-05
3178	0.0001015
3190	7.35e-05
3202	0.000182
3214	0.000161
3226	8.4e-05
3238	9.1e-05
3250	0.000112
3262	0.0001155
3274	9.1e-05
3286	9.1e-05
3298	7.7e-05
3310	7e-05
3322	1.75e-05
3334	0.000105
3346	9.45e-05
3358	0.000224
3370	0.0002065
3382	0.000147
3394	0.0001225
3406	0.000112
3418	0.0001085
3430	6.3e-05
3442	0.000147
3454	0.0001505
3466	0.000175
3478	0.000245
3490	0.00028
3502	0.000259
3514	0.000252
3526	0.000203
3538	0.0002135
3550	0.0001995
3562	0.0005075
3574	0.00231
3586	0.0105665
3598	0.001309
3610	0.0004025
3622	0.0002695
3634	0.000161
3646	0.00014
3658	0.0001785
3670	0.000161
3682	0.0001785
3694	0.000189
3706	0.000168
3718	0.0002135
3730	0.0002205
3742	0.0001855
3754	0.000133
3766	0.0001715
3778	0.0002485
3790	0.000217
3802	0.000175
3814	0.0002205
3826	0.000189
3838	0.0001925
