Infrared Spectrum: Bis(p-chlorophenyl)-disulfide
Formula: C 12 H 8 Cl 2 S 2
CAS: 1142-19-4
State: gas
Instrument: HP-GC/MS/IRD
Origin: NIST Mass Spectrometry Data Center
1/CM	ABSORBANCE
550	0.0011125
562	0.000385
574	0.000155
586	0.00014
598	0.0001375
610	0.0001375
622	1e-05
634	0.0001925
646	0.0001675
658	5e-05
670	7e-05
682	0.000225
694	0.0002175
706	0.000325
718	0.0003025
730	0.0011625
742	0.00418
754	0.001195
766	0.00076
778	0.0008325
790	0.0017175
802	0.0044675
814	0.0105925
826	0.0082525
838	0.002635
850	0.000885
862	0.000425
874	0.0002725
886	0.000285
898	0.0002325
910	0.0001475
922	0.0002175
934	0.0002125
946	0.00016
958	0.0003
970	0.0003225
982	0.0003625
994	0.0008925
1006	0.0076375
1018	0.008755
1030	0.00115
1042	0.0008225
1054	0.0013275
1066	0.0022525
1078	0.0052775
1090	0.02038
1102	0.01556
1114	0.0041025
1126	0.0012325
1138	0.00045
1150	0.0002925
1162	0.000395
1174	0.0008725
1186	0.000335
1198	0.0002325
1210	0.00057
1222	0.0005525
1234	0.0001925
1246	0.0002775
1258	0.0002325
1270	2e-05
1282	0.0001325
1294	0.0003475
1306	0.000195
1318	0.00017
1330	0.0002
1342	0.000265
1354	0.0003375
1366	0.0006675
1378	0.001625
1390	0.0023775
1402	0.001355
1414	0.0013
1426	0.001345
1438	0.0013675
1450	0.0019825
1462	0.006325
1474	0.025
1486	0.00609
1498	0.0012825
1510	0.000625
1522	0.0004275
1534	0.000435
1546	0.000745
1558	0.0014325
1570	0.002865
1582	0.0017325
1594	0.00076
1606	0.0006475
1618	0.00084
1630	0.0011525
1642	0.0009125
1654	0.000375
1666	0.0001975
1678	6.5e-05
1690	5.75e-05
1702	6.5e-05
1714	7.25e-05
1726	0.0001075
1738	0.0001325
1750	0.0002575
1762	0.0004625
1774	0.00037
1786	9.75e-05
1798	5.75e-05
1810	6.25e-05
1822	8.25e-05
1834	0.000195
1846	0.0001725
1858	0.0001775
1870	0.0004025
1882	0.0007175
1894	0.000775
1906	0.00039
1918	0.0002
1930	0.000115
1942	8.75e-05
1954	4.25e-05
1966	5.5e-05
1978	6.25e-05
1990	2.25e-05
2002	2.5e-06
2014	5e-05
2026	4.5e-05
2038	6.75e-05
2050	7e-05
2062	6e-05
2074	6.5e-05
2086	4.25e-05
2098	5.5e-05
2110	5.75e-05
2122	5.75e-05
2134	7e-05
2146	7.75e-05
2158	3.25e-05
2170	5.5e-05
2182	5.5e-05
2194	8.5e-05
2206	0.0001075
2218	8.25e-05
2230	8.25e-05
2242	7.75e-05
2254	0.0001025
2266	0.0001575
2278	0.00018
2290	0.000185
2302	0.0001225
2314	9.5e-05
2326	5.5e-05
2338	7.75e-05
2350	8.5e-05
2362	4.75e-05
2374	9.75e-05
2386	0.000135
2398	0.0001275
2410	7.5e-05
2422	7e-05
2434	3.5e-05
2446	4e-05
2458	5.5e-05
2470	8.5e-05
2482	0.000105
2494	0.000115
2506	0.0001475
2518	0.0001375
2530	0.00014
2542	0.00015
2554	0.0001225
2566	0.0001375
2578	0.0001925
2590	0.00015
2602	9.25e-05
2614	5e-05
2626	7.75e-05
2638	0.0001425
2650	0.0002225
2662	0.0001525
2674	0.0001275
2686	6.5e-05
2698	0.00012
2710	5e-06
2722	2.75e-05
2734	0.0001025
2746	8.25e-05
2758	9.25e-05
2770	0.000135
2782	0.0001175
2794	0.000155
2806	0.0001675
2818	0.000115
2830	0.0001325
2842	0.0001275
2854	0.0001075
2866	5.5e-05
2878	8.75e-05
2890	0.000135
2902	7.25e-05
2914	7e-05
2926	0.00016
2938	6.5e-05
2950	0.0001675
2962	6e-05
2974	8e-05
2986	0.00015
2998	0.0001175
3010	0.0002375
3022	0.00043
3034	0.0003025
3046	0.0002725
3058	0.000445
3070	0.000965
3082	0.00157
3094	0.000845
3106	0.0003425
3118	0.0002175
3130	0.0001675
3142	0.0001375
3154	0.0001275
3166	0.0001325
3178	0.0001175
3190	0.000105
3202	0.0001075
3214	3.5e-05
3226	0.0001175
3238	8e-05
3250	7.25e-05
3262	7.25e-05
3274	5.5e-05
3286	4e-05
3298	0.00017
3310	6.75e-05
3322	9.5e-05
3334	0.00015
3346	8.25e-05
3358	0.0001
3370	0.0001325
3382	5.5e-05
3394	9.75e-05
3406	9.25e-05
3418	0.0001625
3430	2.75e-05
3442	9.5e-05
3454	0.00013
3466	7.75e-05
3478	0.000105
3490	0.0001375
3502	8.75e-05
3514	0.0001675
3526	0.0001375
3538	7.25e-05
3550	4.75e-05
3562	0.000185
3574	0.0002175
3586	9.5e-05
3598	0.000125
3610	5.25e-05
3622	8.25e-05
3634	3.75e-05
3646	0.0001425
3658	0.0001625
3670	8.5e-05
3682	0.0001225
3694	0.00017
3706	0.00022
3718	0.0001275
3730	0.000195
3742	0.00017
3754	0.00013
3766	0.000175
3778	0.000125
3790	0.0001725
3802	0.0001325
3814	0.00019
3826	0.0002925
3838	0.0001675
