Infrared Spectrum: 5-BENZYLMERCAPTO-1,3,4-THIADIAZOLIDONE-2-AZINE
Formula: C18 H16 N6 S4
CAS: 114205-74-2
State: SOLID (KBr PELLET)
Class: COBLENTZ
Instrument: Not specified, most likely a prism, grating, or hybrid spectrometer.
Sampling: TRANSMISSION
Resolution: 4
Origin: NORBERT PETRI
MICROMETERS	TRANSMITTANCE
2.018	0.626
2.05411	0.626
2.09022	0.633
2.12633	0.649
2.16245	0.658
2.19856	0.667
2.23467	0.669
2.27078	0.669
2.30689	0.676
2.343	0.68
2.37911	0.69
2.41522	0.695
2.45134	0.7
2.48745	0.704
2.52356	0.71
2.55967	0.716
2.59578	0.722
2.63189	0.725
2.668	0.732
2.70411	0.74
2.74023	0.744
2.77634	0.743
2.81245	0.725
2.84856	0.699
2.88467	0.663
2.92078	0.656
2.95689	0.66
2.993	0.664
3.02912	0.666
3.06523	0.65
3.10134	0.6
3.13745	0.536
3.17356	0.5
3.20967	0.485
3.24578	0.501
3.28189	0.534
3.31801	0.563
3.35412	0.593
3.39023	0.61
3.42634	0.604
3.46245	0.596
3.49856	0.637
3.53467	0.641
3.57079	0.63
3.6069	0.672
3.64301	0.701
3.67912	0.728
3.71523	0.751
3.75134	0.768
3.78745	0.777
3.82356	0.787
3.85968	0.795
3.89579	0.806
3.9319	0.811
3.96801	0.812
4.00412	0.813
4.04023	0.818
4.07634	0.828
4.11245	0.829
4.14857	0.83
4.18468	0.834
4.22079	0.841
4.2569	0.843
4.29301	0.845
4.32912	0.845
4.36523	0.844
4.40134	0.846
4.43746	0.854
4.47357	0.856
4.50968	0.856
4.54579	0.857
4.5819	0.858
4.61801	0.863
4.65412	0.869
4.69023	0.871
4.72635	0.869
4.76246	0.872
4.79857	0.872
4.83468	0.873
4.87079	0.877
4.9069	0.878
4.94301	0.88
4.97913	0.884
5.01524	0.885
5.05135	0.886
5.08746	0.886
5.12357	0.888
5.15968	0.888
5.19579	0.891
5.2319	0.896
5.26802	0.894
5.30413	0.896
5.34024	0.897
5.37635	0.903
5.41246	0.909
5.44857	0.911
5.48468	0.911
5.52079	0.912
5.55691	0.911
5.59302	0.916
5.62913	0.917
5.66524	0.917
5.70135	0.913
5.73746	0.913
5.77357	0.914
5.80968	0.918
5.8458	0.916
5.88191	0.913
5.91802	0.905
5.95413	0.901
5.99024	0.894
6.02635	0.875
6.06246	0.844
6.09857	0.753
6.13469	0.642
6.1708	0.489
6.20691	0.212
6.24302	0.145
6.27913	0.371
6.31524	0.501
6.35135	0.603
6.38747	0.635
6.42358	0.672
6.45969	0.722
6.4958	0.739
6.53191	0.766
6.56802	0.743
6.60413	0.687
6.64024	0.72
6.67636	0.709
6.71247	0.681
6.74858	0.777
6.78469	0.795
6.8208	0.806
6.85691	0.809
6.89302	0.676
6.92913	0.788
6.96525	0.796
7.00136	0.743
7.03747	0.7
7.07358	0.695
7.10969	0.687
7.1458	0.692
7.18191	0.726
7.21802	0.77
7.25414	0.806
7.29025	0.838
7.32636	0.856
7.36247	0.871
7.39858	0.885
7.43469	0.888
7.4708	0.89
7.50691	0.89
7.54303	0.884
7.57914	0.881
7.61525	0.88
7.65136	0.88
7.68747	0.881
7.72358	0.881
7.75969	0.875
7.79581	0.879
7.83192	0.884
7.86803	0.886
7.90414	0.888
7.94025	0.885
7.97636	0.884
8.01247	0.872
8.04858	0.852
8.0847	0.827
8.12081	0.811
8.15692	0.85
8.19303	0.869
8.22914	0.874
8.26525	0.885
8.30136	0.884
8.33747	0.883
8.37359	0.869
8.4097	0.866
8.44581	0.875
8.48192	0.877
8.51803	0.88
8.55414	0.88
8.59025	0.881
8.62636	0.88
8.66248	0.872
8.69859	0.863
8.7347	0.863
8.77081	0.85
8.80692	0.818
8.84303	0.77
8.87914	0.676
8.91525	0.642
8.95137	0.619
8.98748	0.627
9.02359	0.699
9.0597	0.749
9.09581	0.783
9.13192	0.802
9.16803	0.829
9.20415	0.841
9.24026	0.841
9.27637	0.839
9.31248	0.829
9.34859	0.776
9.3847	0.746
9.42081	0.771
9.45692	0.779
9.49304	0.773
9.52915	0.755
9.56526	0.742
9.60137	0.736
9.63748	0.723
9.67359	0.65
9.7097	0.535
9.74581	0.527
9.78193	0.626
9.81804	0.725
9.85415	0.774
9.89026	0.821
9.92637	0.843
9.96248	0.863
9.99859	0.852
10.0347	0.875
10.0708	0.894
10.1069	0.899
10.143	0.905
10.1791	0.907
10.2153	0.911
10.2514	0.916
10.2875	0.92
10.3236	0.923
10.3597	0.923
10.3958	0.928
10.4319	0.93
10.468	0.935
10.5042	0.937
10.5403	0.94
10.5764	0.939
10.6125	0.94
10.6486	0.94
10.6847	0.942
10.7208	0.942
10.7569	0.936
10.793	0.934
10.8292	0.93
10.8653	0.927
10.9014	0.902
10.9375	0.871
10.9736	0.881
11.0097	0.909
11.0458	0.923
11.0819	0.927
11.118	0.93
11.1542	0.931
11.1903	0.933
11.2264	0.931
11.2625	0.931
11.2986	0.927
11.3347	0.922
11.3708	0.918
11.4069	0.916
11.443	0.917
11.4792	0.92
11.5153	0.925
11.5514	0.929
11.5875	0.929
11.6236	0.927
11.6597	0.925
11.6958	0.928
11.7319	0.929
11.768	0.928
11.8042	0.928
11.8403	0.924
11.8764	0.922
11.9125	0.925
11.9486	0.927
11.9847	0.93
12.0208	0.934
12.0569	0.934
12.093	0.934
12.1292	0.934
12.1653	0.931
12.2014	0.929
12.2375	0.916
12.2736	0.894
12.3097	0.891
12.3458	0.908
12.3819	0.912
12.418	0.907
12.4542	0.905
12.4903	0.901
12.5264	0.906
12.5625	0.913
12.5986	0.92
12.6347	0.927
12.6708	0.93
12.7069	0.931
12.7431	0.931
12.7792	0.931
12.8153	0.928
12.8514	0.905
12.8875	0.869
12.9236	0.822
12.9597	0.8
12.9958	0.812
13.0319	0.84
13.0681	0.857
13.1042	0.871
13.1403	0.877
13.1764	0.877
13.2125	0.881
13.2486	0.885
13.2847	0.884
13.3208	0.88
13.3569	0.874
13.3931	0.867
13.4292	0.86
13.4653	0.83
13.5014	0.844
13.5375	0.871
13.5736	0.886
13.6097	0.892
13.6458	0.895
13.6819	0.894
13.7181	0.89
13.7542	0.885
13.7903	0.877
13.8264	0.868
13.8625	0.857
13.8986	0.841
13.9347	0.817
13.9708	0.785
14.0069	0.74
14.0431	0.684
14.0792	0.627
14.1153	0.546
14.1514	0.502
14.1875	0.456
14.2236	0.406
14.2597	0.375
14.2958	0.38
14.3319	0.428
14.3681	0.442
14.4042	0.431
14.4403	0.43
14.4764	0.486
14.5125	0.558
14.5486	0.625
14.5847	0.678
14.6208	0.715
14.6569	0.736
14.6931	0.759
14.7292	0.771
14.7653	0.781
14.8014	0.788
14.8375	0.796
14.8736	0.8
14.9097	0.804
14.9458	0.805
14.982	0.811
15.0181	0.816
15.0542	0.818
15.0903	0.824
15.1264	0.828
15.1625	0.828
15.1986	0.834
15.2347	0.838
15.2708	0.841
15.307	0.845
15.3431	0.846
