Infrared Spectrum: P-CHLOROTHIOLBENZENESULFONIC ACID, PHENYL ESTER
Formula: C12 H9 Cl O2 S2
CAS: 1142-97-8
State: SOLUTION (10% CCl4 FOR 5000-1330, 10% CS2 FOR 1330-625 CM^-^1)
Class: COBLENTZ
Instrument: Not specified, most likely a prism, grating, or hybrid spectrometer.
Sampling: TRANSMISSION
Path length: 0.0118 CM, 0.0114 CM
Resolution: 4
Origin: DOW CHEMICAL COMPANY
MICROMETERS	TRANSMITTANCE
2.027	0.875
2.06711	0.871
2.10723	0.871
2.14734	0.876
2.18745	0.878
2.22757	0.875
2.26768	0.87
2.30779	0.87
2.3479	0.86
2.38802	0.853
2.42813	0.881
2.46824	0.881
2.50836	0.883
2.54847	0.888
2.58858	0.888
2.6287	0.885
2.66881	0.881
2.70892	0.88
2.74903	0.876
2.78915	0.873
2.82926	0.87
2.86937	0.866
2.90949	0.866
2.9496	0.87
2.98971	0.873
3.02983	0.875
3.06994	0.87
3.11005	0.86
3.15017	0.783
3.19028	0.618
3.23039	0.782
3.2705	0.83
3.31062	0.885
3.35073	0.89
3.39084	0.895
3.43096	0.898
3.47107	0.901
3.51118	0.901
3.5513	0.901
3.59141	0.901
3.63152	0.901
3.67163	0.9
3.71175	0.896
3.75186	0.901
3.79197	0.896
3.83209	0.898
3.8722	0.903
3.91231	0.903
3.95243	0.905
3.99254	0.908
4.03265	0.91
4.07277	0.906
4.11288	0.903
4.15299	0.901
4.1931	0.9
4.23322	0.893
4.27333	0.89
4.31344	0.891
4.35356	0.901
4.39367	0.908
4.43378	0.918
4.4739	0.921
4.51401	0.921
4.55412	0.918
4.59424	0.921
4.63435	0.923
4.67446	0.923
4.71457	0.92
4.75469	0.918
4.7948	0.923
4.83491	0.918
4.87503	0.921
4.91514	0.92
4.95525	0.908
4.99537	0.903
5.03548	0.885
5.07559	0.865
5.1157	0.858
5.15582	0.901
5.19593	0.901
5.23604	0.893
5.27616	0.863
5.31627	0.858
5.35638	0.883
5.3965	0.911
5.43661	0.903
5.47672	0.891
5.51684	0.866
5.55695	0.881
5.59706	0.906
5.63717	0.908
5.67729	0.905
5.7174	0.886
5.75751	0.885
5.79763	0.906
5.83774	0.916
5.87785	0.913
5.91797	0.906
5.95808	0.895
5.99819	0.878
6.0383	0.865
6.07842	0.86
6.11853	0.855
6.15864	0.805
6.19876	0.715
6.23887	0.477
6.27898	0.231
6.3191	0.444
6.35921	0.499
6.39932	0.482
6.43944	0.522
6.47955	0.613
6.51966	0.655
6.55977	0.708
6.59989	0.757
6.64	0.773
6.68011	0.632
6.72023	0.239
6.76034	0.662
6.80045	0.762
6.84057	0.75
6.88068	0.449
6.92079	0.643
6.9609	0.863
7.00102	0.886
7.04113	0.895
7.08124	0.858
7.12136	0.803
7.16147	0.858
7.20158	0.866
7.2417	0.866
7.28181	0.883
7.32192	0.858
7.36204	0.856
7.40215	0.742
7.44226	0.662
7.48237	0.742
7.52249	0.833
7.5626	0.866
7.60271	0.851
7.64283	0.816
7.68294	0.83
7.72305	0.853
7.76317	0.836
7.80328	0.871
7.84339	0.898
7.8835	0.906
7.92362	0.903
7.96373	0.915
8.00384	0.916
8.04396	0.908
8.08407	0.896
8.12418	0.898
8.1643	0.903
8.20441	0.898
8.24452	0.886
8.28464	0.89
8.32475	0.875
8.36486	0.856
8.40497	0.82
8.44509	0.773
8.4852	0.757
8.52531	0.698
8.56543	0.527
8.60554	0.587
8.64565	0.747
8.68577	0.78
8.72588	0.815
8.76599	0.83
8.80611	0.838
8.84622	0.843
8.88633	0.846
8.92644	0.843
8.96656	0.813
9.00667	0.763
9.04678	0.748
9.0869	0.732
9.12701	0.602
9.16712	0.554
9.20724	0.66
9.24735	0.677
9.28746	0.612
9.32757	0.607
9.36769	0.652
9.4078	0.767
9.44791	0.851
9.48803	0.87
9.52814	0.886
9.56825	0.886
9.60837	0.886
9.64848	0.87
9.68859	0.811
9.72871	0.524
9.76882	0.434
9.80893	0.702
9.84904	0.705
9.88916	0.83
9.92927	0.855
9.96938	0.801
10.0095	0.767
10.0496	0.878
10.0897	0.888
10.1298	0.886
10.1699	0.885
10.2101	0.885
10.2502	0.878
10.2903	0.885
10.3304	0.883
10.3705	0.878
10.4106	0.876
10.4507	0.878
10.4909	0.883
10.531	0.886
10.5711	0.89
10.6112	0.895
10.6513	0.896
10.6914	0.898
10.7315	0.898
10.7716	0.898
10.8118	0.895
10.8519	0.888
10.892	0.881
10.9321	0.875
10.9722	0.858
11.0123	0.846
11.0524	0.825
11.0925	0.792
11.1327	0.77
11.1728	0.788
11.2129	0.833
11.253	0.835
11.2931	0.828
11.3332	0.815
11.3733	0.801
11.4135	0.787
11.4536	0.775
11.4937	0.765
11.5338	0.753
11.5739	0.747
11.614	0.737
11.6541	0.727
11.6942	0.723
11.7344	0.735
11.7745	0.752
11.8146	0.772
11.8547	0.797
11.8948	0.806
11.9349	0.798
11.975	0.773
12.0151	0.713
12.0553	0.682
12.0954	0.712
12.1355	0.752
12.1756	0.777
12.2157	0.803
12.2558	0.816
12.2959	0.825
12.3361	0.83
12.3762	0.843
12.4163	0.848
12.4564	0.85
12.4965	0.851
12.5366	0.85
12.5767	0.846
12.6168	0.846
12.657	0.845
12.6971	0.843
12.7372	0.838
12.7773	0.836
12.8174	0.833
12.8575	0.826
12.8976	0.818
12.9377	0.801
12.9779	0.747
13.018	0.577
13.0581	0.45
13.0982	0.485
13.1383	0.66
13.1784	0.697
13.2185	0.685
13.2587	0.63
13.2988	0.56
13.3389	0.49
13.379	0.342
13.4191	0.188
13.4592	0.093
13.4993	0.039
13.5394	0.006
13.5796	0
13.6197	0.049
13.6598	0.194
13.6999	0.384
13.74	0.539
13.7801	0.607
13.8202	0.65
13.8603	0.668
13.9005	0.683
13.9406	0.688
13.9807	0.688
14.0208	0.682
14.0609	0.667
14.101	0.65
14.1411	0.625
14.1813	0.594
14.2214	0.544
14.2615	0.502
14.3016	0.442
14.3417	0.386
14.3818	0.306
14.4219	0.229
14.462	0.166
14.5022	0.109
14.5423	0.084
14.5824	0.113
14.6225	0.212
14.6626	0.306
14.7027	0.391
14.7428	0.454
14.7829	0.48
14.8231	0.5
14.8632	0.502
14.9033	0.504
14.9434	0.505
14.9835	0.509
15.0236	0.51
15.0637	0.51
15.1039	0.51
15.144	0.507
15.1841	0.502
15.2242	0.497
15.2643	0.49
15.3044	0.484
15.3445	0.479
15.3846	0.477
15.4248	0.475
15.4649	0.47
15.505	0.464
15.5451	0.459
15.5852	0.45
15.6253	0.444
15.6654	0.435
15.7055	0.425
15.7457	0.415
15.7858	0.4
15.8259	0.387
15.866	0.377
15.9061	0.372
