Infrared Spectrum: 1,1-BIS(ETHYLSULFONYL) ETHYLENE
Formula: C6 H12 O4 S2
CAS: 114223-30-2
State: SOLID (MINERAL OIL MULL)
Class: COBLENTZ
Instrument: Not specified, most likely a prism, grating, or hybrid spectrometer.
Sampling: TRANSMISSION
Resolution: 4
Origin: DOW CHEMICAL COMPANY
MICROMETERS	TRANSMITTANCE
2.027	0.691
2.06814	0.698
2.10928	0.701
2.15042	0.71
2.19155	0.706
2.23269	0.694
2.27383	0.691
2.31497	0.692
2.35611	0.703
2.39725	0.713
2.43839	0.713
2.47952	0.723
2.52066	0.737
2.5618	0.74
2.60294	0.749
2.64408	0.753
2.68522	0.761
2.72636	0.761
2.76749	0.765
2.80863	0.766
2.84977	0.77
2.89091	0.768
2.93205	0.77
2.97319	0.773
3.01432	0.773
3.05546	0.77
3.0966	0.765
3.13774	0.753
3.17888	0.73
3.22002	0.716
3.26116	0.699
3.30229	0.574
3.34343	0.283
3.38457	0.053
3.42571	0.089
3.46685	0.159
3.50799	0.481
3.54913	0.747
3.59026	0.792
3.6314	0.797
3.67254	0.799
3.71368	0.811
3.75482	0.807
3.79596	0.823
3.8371	0.825
3.87823	0.831
3.91937	0.843
3.96051	0.847
4.00165	0.845
4.04279	0.833
4.08393	0.843
4.12507	0.854
4.1662	0.861
4.20734	0.861
4.24848	0.861
4.28962	0.871
4.33076	0.864
4.3719	0.866
4.41304	0.864
4.45417	0.873
4.49531	0.873
4.53645	0.876
4.57759	0.881
4.61873	0.883
4.65987	0.885
4.701	0.891
4.74214	0.888
4.78328	0.888
4.82442	0.895
4.86556	0.891
4.9067	0.891
4.94784	0.867
4.98897	0.885
5.03011	0.902
5.07125	0.903
5.11239	0.903
5.15353	0.903
5.19467	0.907
5.23581	0.907
5.27694	0.907
5.31808	0.907
5.35922	0.909
5.40036	0.914
5.4415	0.914
5.48264	0.914
5.52378	0.905
5.56491	0.912
5.60605	0.91
5.64719	0.914
5.68833	0.912
5.72947	0.909
5.77061	0.91
5.81175	0.909
5.85288	0.912
5.89402	0.91
5.93516	0.912
5.9763	0.91
6.01744	0.91
6.05858	0.915
6.09972	0.905
6.14085	0.878
6.18199	0.746
6.22313	0.864
6.26427	0.885
6.30541	0.89
6.34655	0.897
6.38768	0.895
6.42882	0.903
6.46996	0.897
6.5111	0.895
6.55224	0.89
6.59338	0.883
6.63452	0.873
6.67565	0.845
6.71679	0.789
6.75793	0.596
6.79907	0.308
6.84021	0.252
6.88135	0.409
6.92249	0.492
6.96362	0.452
7.00476	0.65
7.0459	0.759
7.08704	0.787
7.12818	0.771
7.16932	0.627
7.21046	0.473
7.25159	0.478
7.29273	0.603
7.33387	0.641
7.37501	0.615
7.41615	0.523
7.45729	0.351
7.49843	0.147
7.53956	0.042
7.5807	0.034
7.62184	0.044
7.66298	0.118
7.70412	0.162
7.74526	0.147
7.7864	0.25
7.82753	0.437
7.86867	0.557
7.90981	0.626
7.95095	0.662
7.99209	0.665
8.03323	0.552
8.07437	0.325
8.1155	0.181
8.15664	0.329
8.19778	0.445
8.23892	0.523
8.28006	0.564
8.3212	0.564
8.36233	0.54
8.40347	0.533
8.44461	0.506
8.48575	0.447
8.52689	0.353
8.56803	0.212
8.60917	0.09
8.6503	0.072
8.69144	0.108
8.73258	0.144
8.77372	0.272
8.81486	0.324
8.856	0.281
8.89714	0.32
8.93827	0.425
8.97941	0.401
9.02055	0.288
9.06169	0.147
9.10283	0.106
9.14397	0.25
9.18511	0.435
9.22624	0.54
9.26738	0.584
9.30852	0.648
9.34966	0.696
9.3908	0.704
9.43194	0.674
9.47308	0.514
9.51421	0.288
9.55535	0.36
9.59649	0.533
9.63763	0.674
9.67877	0.763
9.71991	0.802
9.76105	0.819
9.80218	0.816
9.84332	0.754
9.88446	0.574
9.9256	0.367
9.96674	0.603
10.0079	0.77
10.049	0.818
10.0902	0.828
10.1313	0.819
10.1724	0.799
10.2136	0.751
10.2547	0.675
10.2958	0.675
10.337	0.763
10.3781	0.816
10.4193	0.845
10.4604	0.861
10.5015	0.867
10.5427	0.871
10.5838	0.869
10.625	0.866
10.6661	0.864
10.7072	0.866
10.7484	0.871
10.7895	0.871
10.8306	0.873
10.8718	0.874
10.9129	0.878
10.9541	0.876
10.9952	0.881
11.0363	0.881
11.0775	0.881
11.1186	0.881
11.1598	0.878
11.2009	0.878
11.242	0.878
11.2832	0.881
11.3243	0.885
11.3654	0.888
11.4066	0.888
11.4477	0.886
11.4889	0.881
11.53	0.878
11.5711	0.867
11.6123	0.845
11.6534	0.823
11.6946	0.819
11.7357	0.821
11.7768	0.801
11.818	0.761
11.8591	0.787
11.9002	0.837
11.9414	0.843
11.9825	0.842
12.0237	0.833
12.0648	0.828
12.1059	0.819
12.1471	0.806
12.1882	0.792
12.2294	0.768
12.2705	0.744
12.3116	0.698
12.3528	0.629
12.3939	0.542
12.4351	0.433
12.4762	0.332
12.5173	0.271
12.5585	0.284
12.5996	0.382
12.6407	0.478
12.6819	0.49
12.723	0.447
12.7642	0.349
12.8053	0.281
12.8464	0.281
12.8876	0.356
12.9287	0.445
12.9699	0.481
13.011	0.471
13.0521	0.408
13.0933	0.308
13.1344	0.217
13.1755	0.21
13.2167	0.31
13.2578	0.461
13.299	0.562
13.3401	0.62
13.3812	0.643
13.4224	0.639
13.4635	0.615
13.5047	0.581
13.5458	0.542
13.5869	0.492
13.6281	0.384
13.6692	0.243
13.7103	0.152
13.7515	0.157
13.7926	0.25
13.8338	0.37
13.8749	0.468
13.916	0.545
13.9572	0.602
13.9983	0.639
14.0395	0.662
14.0806	0.672
14.1217	0.677
14.1629	0.68
14.204	0.684
14.2451	0.68
14.2863	0.672
14.3274	0.662
14.3686	0.651
14.4097	0.634
14.4508	0.603
14.492	0.562
14.5331	0.523
14.5743	0.499
14.6154	0.495
14.6565	0.512
14.6977	0.535
14.7388	0.56
14.7799	0.571
14.8211	0.576
14.8622	0.574
14.9034	0.564
14.9445	0.555
14.9856	0.548
15.0268	0.542
15.0679	0.53
15.1091	0.516
15.1502	0.502
15.1913	0.476
15.2325	0.437
15.2736	0.385
15.3147	0.327
15.3559	0.296
15.397	0.3
15.4382	0.331
15.4793	0.367
15.5204	0.392
15.5616	0.401
15.6027	0.404
15.6439	0.404
15.685	0.403
15.7261	0.401
15.7673	0.397
15.8084	0.394
15.8495	0.391
15.8907	0.394
