Infrared Spectrum: p-Hexyloxybenzoic acid
Formula: C 13 H 18 O 3
CAS: 1142-39-8
State: gas
Origin: EPA-IR VAPOR PHASE LIBRARY
1/CM	ABSORBANCE
501.5	0.00319
513.074	0.00207
524.648	0.00163
536.222	0.00183
547.796	0.00216
559.37	0.00276
570.944	0.00328
582.518	0.00276
594.092	0.00333
605.666	0.00372
617.24	0.00583
628.814	0.00237
640.388	0.00126
651.962	0.000608
663.536	0.0005403
675.11	0.0006932
686.684	0.00173
698.258	0.00279
709.832	0.00237
721.406	0.00161
732.98	0.00123
744.554	0.00104
756.128	0.00185
767.702	0.00432
779.276	0.00319
790.85	0.00168
802.423	0.00136
813.997	0.00113
825.571	0.00114
837.145	0.00206
848.719	0.00307
860.293	0.00165
871.867	0.0008109
883.441	0.0005959
895.015	0.000566
906.589	0.0006652
918.163	0.0007962
929.737	0.00129
941.311	0.00155
952.885	0.00128
964.459	0.00129
976.033	0.00146
987.607	0.00185
999.181	0.00309
1010.76	0.00578
1022.33	0.00602
1033.9	0.00503
1045.48	0.00505
1057.05	0.00658
1068.63	0.01217
1080.2	0.01941
1091.77	0.00775
1103.35	0.00347
1114.92	0.00269
1126.49	0.00276
1138.07	0.00361
1149.64	0.00823
1161.22	0.02998
1172.79	0.01532
1184.36	0.01038
1195.94	0.00762
1207.51	0.0057
1219.09	0.00748
1230.66	0.01151
1242.23	0.02046
1253.81	0.02414
1265.38	0.01267
1276.96	0.00698
1288.53	0.00649
1300.1	0.00838
1311.68	0.00712
1323.25	0.00774
1334.83	0.00689
1346.4	0.00487
1357.97	0.00827
1369.55	0.00738
1381.12	0.0034
1392.7	0.00256
1404.27	0.00189
1415.84	0.00269
1427.42	0.002
1438.99	0.00155
1450.57	0.0019
1462.14	0.0026
1473.71	0.00384
1485.29	0.00246
1496.86	0.00404
1508.44	0.01081
1520.01	0.00477
1531.58	0.00165
1543.16	0.00126
1554.73	0.00141
1566.31	0.00231
1577.88	0.00406
1589.45	0.00645
1601.03	0.01498
1612.6	0.01363
1624.18	0.00405
1635.75	0.00155
1647.32	0.00102
1658.9	0.0009097
1670.47	0.0008471
1682.05	0.0009833
1693.62	0.00127
1705.19	0.00165
1716.77	0.00239
1728.34	0.00373
1739.92	0.0095
1751.49	0.035
1763.06	0.02552
1774.64	0.00632
1786.21	0.0027
1797.79	0.00147
1809.36	0.00116
1820.93	0.00105
1832.51	0.0006517
1844.08	0.0004198
1855.66	0.0003459
1867.23	0.0003296
1878.8	0.000363
1890.38	0.0004776
1901.95	0.0005757
1913.53	0.0006062
1925.1	0.0004978
1936.67	0.0004227
1948.25	0.0003972
1959.82	0.0004203
1971.4	0.0004233
1982.97	0.0003686
1994.54	0.0003431
2006.12	0.0003286
2017.69	0.0003509
2029.27	0.0003345
2040.84	0.0003227
2052.41	0.0002979
2063.99	0.0003212
2075.56	0.0002936
2087.14	0.0002888
2098.71	0.0002839
2110.28	0.0002496
2121.86	0.0002423
2133.43	0.0002443
2145.01	0.0002595
2156.58	0.0002746
2168.15	0.0001905
2179.73	0.0001767
2191.3	0.0001534
2202.88	0.0001563
2214.45	0.0001543
2226.02	0.000191
2237.6	0.0001714
2249.17	0.0001822
2260.74	0.0001325
2272.32	0.0001636
2283.89	0.0001678
2295.47	0.00015
2307.04	0.0001774
2318.61	0.0002695
2330.19	0.0002253
2341.76	0.0002372
2353.34	0.0002416
2364.91	0.000215
2376.48	0.000263
2388.06	0.0002616
2399.63	0.0002488
2411.21	0.0002817
2422.78	0.0002896
2434.35	0.0002632
2445.93	0.0002457
2457.5	0.0002864
2469.08	0.0002725
2480.65	0.0002895
2492.22	0.0002882
2503.8	0.0002542
2515.37	0.0002634
2526.95	0.0002836
2538.52	0.000352
2550.09	0.0004083
2561.67	0.0004
2573.24	0.0003915
2584.82	0.0003435
2596.39	0.000352
2607.96	0.0003076
2619.54	0.0002886
2631.11	0.0002357
2642.69	0.0002567
2654.26	0.0002369
2665.83	0.0002638
2677.41	0.0002341
2688.98	0.0003
2700.56	0.000287
2712.13	0.0002835
2723.7	0.0003135
2735.28	0.0004139
2746.85	0.0004334
2758.43	0.000474
2770	0.0004542
2781.57	0.0004433
2793.15	0.0004792
2804.72	0.0005837
2816.3	0.0007373
2827.87	0.00101
2839.44	0.00149
2851.02	0.00251
2862.59	0.00441
2874.17	0.00549
2885.74	0.00551
2897.31	0.00492
2908.89	0.00599
2920.46	0.00846
2932.04	0.01171
2943.61	0.01273
2955.18	0.01049
2966.76	0.00989
2978.33	0.00616
2989.91	0.00272
3001.48	0.0016
3013.05	0.00109
3024.63	0.0008259
3036.2	0.0007221
3047.78	0.0008028
3059.35	0.0009385
3070.92	0.0008624
3082.5	0.00108
3094.07	0.000765
3105.65	0.0007246
3117.22	0.0005282
3128.79	0.0004033
3140.37	0.0003313
3151.94	0.0002522
3163.52	0.0002727
3175.09	0.0002648
3186.66	0.0002708
3198.24	0.0002371
3209.81	0.0001941
3221.39	0.0001975
3232.96	0.0001288
3244.53	8.405e-05
3256.11	0.0001768
3267.68	0.0001328
3279.26	0.0001586
3290.83	0.0001317
3302.4	0.000128
3313.98	0.0001569
3325.55	0.0001552
3337.13	0.0001415
3348.7	0.0001109
3360.27	0.0001925
3371.85	0.0001718
3383.42	0.0001407
3395	0.0001128
3406.57	0.0001879
3418.14	0.000186
3429.72	0.0001553
3441.29	0.0001989
3452.86	0.0001788
3464.44	0.0002396
3476.01	0.0001921
3487.59	0.0004172
3499.16	0.0004348
3510.73	0.0003601
3522.31	0.000247
3533.88	0.0003308
3545.46	0.0003417
3557.03	0.000514
3568.6	0.00144
3580.18	0.00874
3591.75	0.00769
3603.33	0.0009438
3614.9	0.0003828
3626.47	0.0002668
3638.05	0.0002125
3649.62	0.0002119
3661.2	0.0002286
3672.77	0.0002168
3684.34	0.0002192
3695.92	0.0002106
3707.49	0.0001887
3719.07	0.0002358
3730.64	0.0002117
3742.21	0.0002059
3753.79	0.000158
3765.36	0.0001714
3776.94	0.0002093
3788.51	0.0001197
3800.08	0.0001434
3811.66	0.0001917
3823.23	0.0001721
3834.81	0.0002105
3846.38	0.0001815
3857.95	0.0001645
3869.53	9.95e-05
3881.1	0.0001361
3892.68	0.0001809
3904.25	0.0002313
3915.82	0.0001199
3927.4	0.0001709
3938.97	0.0002227
3950.55	0.000198
3962.12	0.0002008
3973.69	0.0002375
3985.27	0.0002083
3996.84	0.0002993
