Infrared Spectrum: Anthralin
Formula: C 14 H 10 O 3
CAS: 1143-38-0
State: gas
Instrument: HP-GC/MS/IRD
Origin: NIST Mass Spectrometry Data Center
1/CM	ABSORBANCE
550	0.00054
562	0.000288
574	0.000216
586	0.000378
598	0.0019944
610	0.0032328
622	0.0013968
634	0.0008604
646	0.000828
658	0.0005868
670	0.0008856
682	0.0014148
694	0.0015192
706	0.0020448
718	0.0033084
730	0.0056412
742	0.008316
754	0.0080928
766	0.0087768
778	0.0076608
790	0.0016668
802	0.0011124
814	0.0013356
826	0.0005364
838	0.0003636
850	0.0002232
862	0.0005364
874	0.0008964
886	0.0003276
898	0.0003852
910	0.0032256
922	0.0047664
934	0.0011268
946	0.0004248
958	0.0001296
970	0.0002268
982	0.0001008
994	2.52e-05
1006	0.0001656
1018	0.000792
1030	0.000846
1042	0.0002736
1054	0.000522
1066	0.0027216
1078	0.0025416
1090	0.0004284
1102	0.0003708
1114	0.0004428
1126	0.0007524
1138	0.00144
1150	0.0034884
1162	0.0094788
1174	0.0089892
1186	0.008874
1198	0.0044352
1210	0.0106992
1222	0.019458
1234	0.008586
1246	0.00459
1258	0.004482
1270	0.0082836
1282	0.0165204
1294	0.016848
1306	0.0062532
1318	0.0048744
1330	0.0062028
1342	0.005598
1354	0.0092376
1366	0.0116568
1378	0.0029304
1390	0.0022248
1402	0.0032436
1414	0.0042696
1426	0.0049572
1438	0.0102492
1450	0.0230148
1462	0.017208
1474	0.0067716
1486	0.011826
1498	0.0109872
1510	0.005724
1522	0.0027396
1534	0.00198
1546	0.0025092
1558	0.0034776
1570	0.004788
1582	0.0072432
1594	0.0124956
1606	0.031428
1618	0.0311976
1630	0.0227916
1642	0.0129852
1654	0.0039564
1666	0.0017244
1678	0.0011592
1690	0.0009504
1702	0.0005652
1714	0.0003204
1726	0.0002268
1738	0.000306
1750	0.0004536
1762	0.0003096
1774	0.000324
1786	0.0003384
1798	0.0002592
1810	0.0002016
1822	0.0002124
1834	0.0003312
1846	0.0003384
1858	0.0001332
1870	4.68e-05
1882	5.76e-05
1894	6.84e-05
1906	0.0001008
1918	0.000126
1930	0.0003996
1942	0.000576
1954	0.000162
1966	3.6e-05
1978	0
1990	3.24e-05
2002	1.8e-05
2014	2.16e-05
2026	1.8e-05
2038	5.4e-05
2050	4.32e-05
2062	8.28e-05
2074	0.000126
2086	0.0001008
2098	6.48e-05
2110	3.6e-05
2122	2.88e-05
2134	2.88e-05
2146	3.96e-05
2158	2.88e-05
2170	3.6e-05
2182	4.68e-05
2194	2.88e-05
2206	4.68e-05
2218	9.36e-05
2230	0.0001188
2242	8.64e-05
2254	6.48e-05
2266	3.24e-05
2278	2.16e-05
2290	7.2e-05
2302	8.64e-05
2314	0.0001368
2326	0.0001404
2338	0.0001404
2350	0.0001332
2362	0.000126
2374	0.0001584
2386	0.0001476
2398	0.0001368
2410	9e-05
2422	9.72e-05
2434	0.0001332
2446	0.0001188
2458	0.0001368
2470	0.0001692
2482	0.0001872
2494	0.00018
2506	0.000234
2518	0.000288
2530	0.000234
2542	0.0002268
2554	0.000234
2566	0.0002988
2578	0.0004464
2590	0.0004896
2602	0.00054
2614	0.0006012
2626	0.000558
2638	0.000504
2650	0.0004428
2662	0.0005148
2674	0.0005364
2686	0.0005112
2698	0.0005364
2710	0.0005148
2722	0.0005616
2734	0.000612
2746	0.0006912
2758	0.000612
2770	0.000702
2782	0.0007776
2794	0.0008064
2806	0.0007704
2818	0.0007488
2830	0.0007488
2842	0.00081
2854	0.0008784
2866	0.001044
2878	0.0010512
2890	0.0012168
2902	0.0015624
2914	0.0012348
2926	0.000954
2938	0.0009216
2950	0.0009108
2962	0.0008208
2974	0.0008712
2986	0.00099
2998	0.0011592
3010	0.0014076
3022	0.0017028
3034	0.0024408
3046	0.0037332
3058	0.0048456
3070	0.005112
3082	0.0047232
3094	0.0046548
3106	0.004572
3118	0.0045828
3130	0.0044532
3142	0.0040536
3154	0.0036936
3166	0.0033588
3178	0.0029232
3190	0.0026604
3202	0.0024948
3214	0.002466
3226	0.0024192
3238	0.0023256
3250	0.0023256
3262	0.00225
3274	0.0020988
3286	0.0019548
3298	0.0018036
3310	0.0017172
3322	0.0016056
3334	0.0014868
3346	0.0012708
3358	0.0012204
3370	0.0010584
3382	0.0009648
3394	0.0008604
3406	0.0007992
3418	0.000756
3430	0.0007056
3442	0.0006192
3454	0.0006192
3466	0.000522
3478	0.0005004
3490	0.0004356
3502	0.0003924
3514	0.000378
3526	0.000288
3538	0.0002736
3550	0.0002916
3562	0.0002268
3574	0.000234
3586	0.0001908
3598	0.0001728
3610	0.0001548
3622	0.0001188
3634	7.2e-05
3646	3.6e-05
3658	8.28e-05
3670	8.28e-05
3682	7.92e-05
3694	2.52e-05
3706	1.08e-05
3718	1.44e-05
3730	2.88e-05
3742	6.84e-05
3754	3.96e-05
3766	2.88e-05
3778	2.52e-05
3790	5.4e-05
3802	3.6e-05
3814	5.4e-05
3826	0.0001152
3838	8.64e-05
