Infrared Spectrum: N,N-DIMETHYL-P-METHYL PHOSPHONAMIDIC ACID, n-PENTYL ESTER
Formula: C8 H20 N O2 P
CAS: 114328-80-2
State: LIQUID
Boiling point: 91 C AT 1 mmHg
Class: COBLENTZ
Instrument: Not specified, most likely a prism, grating, or hybrid spectrometer.
Sampling: TRANSMISSION
Path length: FILM
Resolution: 4
MICROMETERS	TRANSMITTANCE
2	0.907
2.03978	0.909
2.07955	0.901
2.11933	0.905
2.1591	0.911
2.19888	0.905
2.23866	0.909
2.27843	0.896
2.31821	0.901
2.35799	0.912
2.39776	0.907
2.43754	0.909
2.47731	0.917
2.51709	0.919
2.55687	0.919
2.59664	0.917
2.63642	0.92
2.67619	0.92
2.71597	0.909
2.75575	0.882
2.79552	0.8
2.8353	0.785
2.87508	0.794
2.91485	0.817
2.95463	0.841
2.9944	0.874
3.03418	0.888
3.07396	0.896
3.11373	0.903
3.15351	0.911
3.19328	0.913
3.23306	0.907
3.27284	0.892
3.31261	0.863
3.35239	0.464
3.39217	0.377
3.43194	0.463
3.47172	0.5
3.51149	0.765
3.55127	0.766
3.59105	0.887
3.63082	0.9
3.6706	0.912
3.71037	0.921
3.75015	0.929
3.78993	0.932
3.8297	0.933
3.86948	0.937
3.90926	0.937
3.94903	0.94
3.98881	0.943
4.02858	0.939
4.06836	0.935
4.10814	0.939
4.14791	0.941
4.18769	0.947
4.22746	0.957
4.26724	0.962
4.30702	0.949
4.34679	0.941
4.38657	0.943
4.42635	0.94
4.46612	0.943
4.5059	0.945
4.54567	0.94
4.58545	0.941
4.62523	0.94
4.665	0.939
4.70478	0.94
4.74455	0.941
4.78433	0.941
4.82411	0.941
4.86388	0.944
4.90366	0.949
4.94344	0.949
4.98321	0.949
5.02299	0.947
5.06276	0.941
5.10254	0.94
5.14232	0.941
5.18209	0.941
5.22187	0.944
5.26164	0.948
5.30142	0.945
5.3412	0.941
5.38097	0.943
5.42075	0.948
5.46053	0.94
5.5003	0.941
5.54008	0.943
5.57985	0.94
5.61963	0.937
5.65941	0.936
5.69918	0.937
5.73896	0.936
5.77873	0.927
5.81851	0.917
5.85829	0.912
5.89806	0.913
5.93784	0.912
5.97762	0.891
6.01739	0.879
6.05717	0.878
6.09694	0.896
6.13672	0.905
6.1765	0.92
6.21627	0.925
6.25605	0.933
6.29582	0.929
6.3356	0.925
6.37538	0.928
6.41515	0.931
6.45493	0.933
6.49471	0.917
6.53448	0.921
6.57426	0.907
6.61403	0.882
6.65381	0.835
6.69359	0.743
6.73336	0.721
6.77314	0.627
6.81291	0.602
6.85269	0.687
6.89247	0.782
6.93224	0.821
6.97202	0.831
7.0118	0.826
7.05157	0.835
7.09135	0.874
7.13112	0.872
7.1709	0.839
7.21068	0.825
7.25045	0.855
7.29023	0.875
7.33	0.888
7.36978	0.89
7.40956	0.878
7.44933	0.862
7.48911	0.833
7.52889	0.782
7.56866	0.594
7.60844	0.423
7.64821	0.418
7.68799	0.443
7.72777	0.521
7.76754	0.611
7.80732	0.736
7.84709	0.764
7.88687	0.761
7.92665	0.733
7.96642	0.637
8.0062	0.451
8.04598	0.283
8.08575	0.165
8.12553	0.188
8.1653	0.287
8.20508	0.362
8.24486	0.449
8.28463	0.581
8.32441	0.647
8.36418	0.651
8.40396	0.658
8.44374	0.698
8.48351	0.744
8.52329	0.778
8.56307	0.797
8.60284	0.814
8.64262	0.805
8.68239	0.794
8.72217	0.803
8.76195	0.814
8.80172	0.821
8.8415	0.817
8.88127	0.807
8.92105	0.803
8.96083	0.809
9.0006	0.813
9.04038	0.807
9.08016	0.798
9.11993	0.782
9.15971	0.747
9.19948	0.694
9.23926	0.637
9.27904	0.569
9.31881	0.517
9.35859	0.492
9.39836	0.456
9.43814	0.403
9.47792	0.345
9.51769	0.38
9.55747	0.425
9.59725	0.425
9.63702	0.414
9.6768	0.438
9.71657	0.415
9.75635	0.364
9.79613	0.358
9.8359	0.372
9.87568	0.36
9.91545	0.352
9.95523	0.309
9.99501	0.249
10.0348	0.188
10.0746	0.144
10.1143	0.112
10.1541	0.141
10.1939	0.229
10.2337	0.333
10.2734	0.442
10.3132	0.56
10.353	0.666
10.3928	0.709
10.4325	0.728
10.4723	0.731
10.5121	0.712
10.5519	0.674
10.5916	0.626
10.6314	0.584
10.6712	0.574
10.711	0.598
10.7508	0.621
10.7905	0.625
10.8303	0.614
10.8701	0.562
10.9099	0.508
10.9496	0.449
10.9894	0.413
11.0292	0.409
11.069	0.429
11.1087	0.476
11.1485	0.509
11.1883	0.552
11.2281	0.592
11.2678	0.6
11.3076	0.61
11.3474	0.68
11.3872	0.753
11.4269	0.797
11.4667	0.835
11.5065	0.851
11.5463	0.864
11.5861	0.87
11.6258	0.874
11.6656	0.874
11.7054	0.872
11.7452	0.87
11.7849	0.871
11.8247	0.878
11.8645	0.876
11.9043	0.876
11.944	0.871
11.9838	0.864
12.0236	0.854
12.0634	0.841
12.1031	0.83
12.1429	0.814
12.1827	0.797
12.2225	0.78
12.2622	0.765
12.302	0.757
12.3418	0.748
12.3816	0.741
12.4214	0.735
12.4611	0.731
12.5009	0.713
12.5407	0.701
12.5805	0.668
12.6202	0.614
12.66	0.556
12.6998	0.496
12.7396	0.452
12.7793	0.437
12.8191	0.459
12.8589	0.517
12.8987	0.566
12.9384	0.623
12.9782	0.676
13.018	0.704
13.0578	0.717
13.0975	0.729
13.1373	0.735
13.1771	0.74
13.2169	0.743
13.2567	0.75
13.2964	0.761
13.3362	0.774
13.376	0.793
13.4158	0.8
13.4555	0.811
13.4953	0.813
13.5351	0.814
13.5749	0.811
13.6146	0.806
13.6544	0.803
13.6942	0.8
13.734	0.793
13.7737	0.784
13.8135	0.774
13.8533	0.784
13.8931	0.805
13.9328	0.813
13.9726	0.822
14.0124	0.83
14.0522	0.838
14.092	0.843
14.1317	0.846
14.1715	0.843
14.2113	0.851
14.2511	0.85
14.2908	0.845
14.3306	0.846
14.3704	0.843
14.4102	0.841
14.4499	0.838
14.4897	0.835
14.5295	0.833
14.5693	0.831
14.609	0.829
14.6488	0.825
14.6886	0.818
14.7284	0.815
14.7681	0.811
14.8079	0.802
14.8477	0.796
14.8875	0.782
14.9273	0.772
14.967	0.761
15.0068	0.717
15.0466	0.709
15.0864	0.703
15.1261	0.712
15.1659	0.737
15.2057	0.753
15.2455	0.765
15.2852	0.773
15.325	0.778
