Infrared Spectrum: 3-ACETYL-5-BENZYLMERCAPTO-1,3,4-THIADIAZOLIDONE-2-AZINE
Formula: C22 H20 N6 O2 S4
CAS: 114383-24-3
State: SOLID (KBr PELLET)
Class: COBLENTZ
Instrument: Not specified, most likely a prism, grating, or hybrid spectrometer.
Sampling: TRANSMISSION
Resolution: 4
Origin: NORBERT PETRI
MICROMETERS	TRANSMITTANCE
2.018	0.492
2.05409	0.494
2.09019	0.499
2.12628	0.507
2.16238	0.521
2.19847	0.526
2.23457	0.533
2.27066	0.539
2.30676	0.543
2.34285	0.551
2.37895	0.567
2.41504	0.57
2.45114	0.577
2.48723	0.579
2.52333	0.584
2.55942	0.591
2.59552	0.604
2.63161	0.607
2.66771	0.61
2.7038	0.618
2.7399	0.621
2.77599	0.624
2.81209	0.626
2.84818	0.622
2.88428	0.61
2.92037	0.6
2.95647	0.593
2.99256	0.605
3.02866	0.619
3.06475	0.63
3.10085	0.64
3.13694	0.651
3.17304	0.652
3.20913	0.665
3.24523	0.674
3.28132	0.667
3.31742	0.661
3.35351	0.671
3.38961	0.671
3.4257	0.683
3.4618	0.677
3.49789	0.689
3.53399	0.702
3.57008	0.719
3.60618	0.729
3.64227	0.735
3.67837	0.742
3.71446	0.751
3.75056	0.762
3.78665	0.767
3.82275	0.768
3.85884	0.778
3.89494	0.775
3.93103	0.777
3.96713	0.783
4.00322	0.789
4.03932	0.791
4.07541	0.791
4.11151	0.792
4.1476	0.799
4.1837	0.801
4.21979	0.805
4.25589	0.807
4.29198	0.808
4.32808	0.812
4.36417	0.818
4.40027	0.825
4.43636	0.824
4.47246	0.828
4.50855	0.829
4.54465	0.838
4.58074	0.839
4.61684	0.839
4.65293	0.841
4.68903	0.847
4.72512	0.848
4.76122	0.851
4.79731	0.853
4.83341	0.861
4.8695	0.861
4.9056	0.862
4.94169	0.867
4.97779	0.869
5.01388	0.876
5.04998	0.876
5.08607	0.879
5.12217	0.879
5.15826	0.887
5.19436	0.889
5.23045	0.891
5.26655	0.891
5.30264	0.894
5.33874	0.896
5.37483	0.904
5.41093	0.908
5.44702	0.911
5.48312	0.908
5.51921	0.915
5.55531	0.923
5.5914	0.926
5.6275	0.913
5.66359	0.898
5.69968	0.775
5.73578	0.482
5.77187	0.295
5.80797	0.302
5.84406	0.289
5.88016	0.565
5.91625	0.702
5.95235	0.749
5.98844	0.792
6.02454	0.816
6.06063	0.833
6.09673	0.842
6.13282	0.835
6.16892	0.766
6.20501	0.587
6.24111	0.282
6.2772	0.199
6.3133	0.389
6.34939	0.621
6.38549	0.713
6.42158	0.772
6.45768	0.807
6.49377	0.824
6.52987	0.773
6.56596	0.478
6.60206	0.605
6.63815	0.745
6.67425	0.738
6.71034	0.781
6.74644	0.842
6.78253	0.852
6.81863	0.858
6.85472	0.859
6.89082	0.654
6.92691	0.835
6.96301	0.856
6.9991	0.852
7.0352	0.761
7.07129	0.766
7.10739	0.833
7.14348	0.845
7.17958	0.769
7.21567	0.844
7.25177	0.858
7.28786	0.855
7.32396	0.683
7.36005	0.254
7.39615	0.678
7.43224	0.819
7.46834	0.825
7.50443	0.852
7.54053	0.862
7.57662	0.801
7.61272	0.667
7.64881	0.426
7.68491	0.171
7.721	0.097
7.7571	0.155
7.79319	0.294
7.82929	0.33
7.86538	0.405
7.90148	0.475
7.93757	0.556
7.97367	0.605
8.00976	0.605
8.04586	0.639
8.08195	0.702
8.11805	0.744
8.15414	0.772
8.19024	0.784
8.22633	0.788
8.26243	0.788
8.29852	0.796
8.33462	0.807
8.37071	0.805
8.40681	0.827
8.4429	0.829
8.479	0.824
8.51509	0.811
8.55119	0.791
8.58728	0.774
8.62338	0.677
8.65947	0.535
8.69557	0.637
8.73166	0.723
8.76776	0.747
8.80385	0.773
8.83995	0.791
8.87604	0.806
8.91214	0.828
8.94823	0.833
8.98433	0.835
9.02042	0.839
9.05652	0.836
9.09261	0.84
9.12871	0.838
9.1648	0.833
9.2009	0.822
9.23699	0.795
9.27309	0.763
9.30918	0.802
9.34527	0.772
9.38137	0.814
9.41746	0.833
9.45356	0.803
9.48965	0.637
9.52575	0.399
9.56184	0.384
9.59794	0.583
9.63403	0.693
9.67013	0.707
9.70622	0.694
9.74232	0.729
9.77841	0.788
9.81451	0.827
9.8506	0.844
9.8867	0.852
9.92279	0.862
9.95889	0.868
9.99498	0.848
10.0311	0.87
10.0672	0.879
10.1033	0.878
10.1394	0.861
10.1755	0.788
10.2116	0.64
10.2476	0.401
10.2837	0.316
10.3198	0.5
10.3559	0.656
10.392	0.741
10.4281	0.796
10.4642	0.83
10.5003	0.861
10.5364	0.868
10.5725	0.873
10.6086	0.883
10.6447	0.891
10.6808	0.902
10.7169	0.907
10.753	0.913
10.7891	0.919
10.8252	0.922
10.8613	0.922
10.8974	0.908
10.9335	0.872
10.9695	0.887
11.0056	0.912
11.0417	0.933
11.0778	0.937
11.1139	0.939
11.15	0.934
11.1861	0.94
11.2222	0.952
11.2583	0.954
11.2944	0.958
11.3305	0.957
11.3666	0.962
11.4027	0.958
11.4388	0.953
11.4749	0.952
11.511	0.93
11.5471	0.911
11.5832	0.869
11.6193	0.85
11.6554	0.863
11.6914	0.858
11.7275	0.788
11.7636	0.639
11.7997	0.42
11.8358	0.386
11.8719	0.484
11.908	0.602
11.9441	0.735
11.9802	0.811
12.0163	0.857
12.0524	0.886
12.0885	0.9
12.1246	0.917
12.1607	0.924
12.1968	0.935
12.2329	0.933
12.269	0.936
12.3051	0.939
12.3412	0.939
12.3773	0.935
12.4133	0.933
12.4494	0.935
12.4855	0.935
12.5216	0.941
12.5577	0.941
12.5938	0.953
12.6299	0.952
12.666	0.958
12.7021	0.959
12.7382	0.963
12.7743	0.964
12.8104	0.961
12.8465	0.959
12.8826	0.953
12.9187	0.953
12.9548	0.947
12.9909	0.941
13.027	0.892
13.0631	0.808
13.0991	0.722
13.1352	0.721
13.1713	0.813
13.2074	0.859
13.2435	0.902
13.2796	0.912
13.3157	0.919
13.3518	0.936
13.3879	0.933
13.424	0.922
13.4601	0.898
13.4962	0.857
13.5323	0.819
13.5684	0.807
13.6045	0.838
13.6406	0.891
13.6767	0.902
13.7128	0.923
13.7489	0.934
13.785	0.934
13.821	0.941
13.8571	0.947
13.8932	0.94
13.9293	0.943
13.9654	0.941
14.0015	0.933
14.0376	0.934
14.0737	0.922
14.1098	0.906
14.1459	0.885
14.182	0.822
14.2181	0.722
14.2542	0.568
14.2903	0.384
14.3264	0.267
14.3625	0.232
14.3986	0.322
14.4347	0.512
14.4708	0.593
14.5069	0.574
14.5429	0.591
14.579	0.684
14.6151	0.732
14.6512	0.785
14.6873	0.809
14.7234	0.811
14.7595	0.801
14.7956	0.779
14.8317	0.769
14.8678	0.791
14.9039	0.811
14.94	0.823
14.9761	0.842
15.0122	0.851
15.0483	0.858
15.0844	0.87
15.1205	0.879
15.1566	0.886
15.1927	0.891
15.2288	0.901
15.2648	0.903
15.3009	0.906
15.337	0.909
