Infrared Spectrum: 4-Nitrobenzophenone
Formula: C 13 H 9 N O 3
CAS: 1144-74-7
State: gas
Origin: EPA-IR VAPOR PHASE LIBRARY
1/CM	ABSORBANCE
549.8	0.0005769
559.445	0.0007284
569.09	0.0026884
578.734	0.0018184
588.379	0.0014384
598.024	0.0015684
607.669	0.0011884
617.313	0.0017984
626.958	0.0017484
636.603	0.0021084
646.248	0.0043584
655.893	0.0181184
665.537	0.0129484
675.182	0.0100084
684.827	0.0149984
694.472	0.0311784
704.116	0.0566384
713.761	0.0470184
723.406	0.0234284
733.051	0.0182284
742.695	0.0072984
752.34	0.0079484
761.985	0.0053784
771.63	0.0031484
781.275	0.0033484
790.919	0.0046584
800.564	0.0042384
810.209	0.0034284
819.854	0.0044784
829.498	0.0085284
839.143	0.0250384
848.788	0.0703284
858.433	0.0292784
868.078	0.0193984
877.722	0.0079184
887.367	0.0045884
897.012	0.0051284
906.657	0.0078184
916.301	0.0206084
925.946	0.0358084
935.591	0.0397984
945.236	0.0121984
954.88	0.0041784
964.525	0.0040984
974.17	0.0041084
983.815	0.0017884
993.46	0.0020584
1003.1	0.0049384
1012.75	0.0085184
1022.39	0.0063984
1032.04	0.0026284
1041.68	0.0010584
1051.33	0.0012584
1060.97	0.0013884
1070.62	0.0032284
1080.26	0.0027384
1089.91	0.0035684
1099.55	0.0050984
1109.2	0.0058984
1118.84	0.0030884
1128.49	0.0028984
1138.13	0.0044984
1147.78	0.0061184
1157.42	0.0048484
1167.07	0.0063684
1176.71	0.0113984
1186.36	0.0101584
1196	0.0035984
1205.64	0.0038784
1215.29	0.0064684
1224.93	0.0120284
1234.58	0.0235384
1244.22	0.0283484
1253.87	0.0464284
1263.51	0.104258
1273.16	0.125398
1282.8	0.0560484
1292.45	0.0443384
1302.09	0.0386384
1311.74	0.0345684
1321.38	0.0303384
1331.03	0.0310284
1340.67	0.0510284
1350.32	0.0818484
1359.96	0.0612484
1369.61	0.0291184
1379.25	0.0161184
1388.9	0.0107984
1398.54	0.0093984
1408.18	0.0089584
1417.83	0.0056184
1427.47	0.0047984
1437.12	0.0062884
1446.76	0.0126784
1456.41	0.0077084
1466.05	0.0044684
1475.7	0.0052284
1485.34	0.0077484
1494.99	0.0108184
1504.63	0.0158484
1514.28	0.0221484
1523.92	0.0354884
1533.57	0.0673384
1543.21	0.0962984
1552.86	0.0613084
1562.5	0.0274484
1572.15	0.0214584
1581.79	0.0243184
1591.44	0.0301284
1601.08	0.0352784
1610.73	0.0230884
1620.37	0.0109184
1630.01	0.0079484
1639.66	0.0074584
1649.3	0.0078484
1658.95	0.0098484
1668.59	0.0198584
1678.24	0.0612784
1687.88	0.0897984
1697.53	0.0434284
1707.17	0.0147684
1716.82	0.0077584
1726.46	0.0059084
1736.11	0.0044384
1745.75	0.0024384
1755.4	0.0018884
1765.04	0.0018784
1774.69	0.0019784
1784.33	0.0019284
1793.98	0.0025284
1803.62	0.0037184
1813.27	0.0030784
1822.91	0.0016884
1832.55	0.0012884
1842.2	0.0009807
1851.84	0.0008186
1861.49	0.000748
1871.13	0.0006934
1880.78	0.0008912
1890.42	0.0013084
1900.07	0.0016184
1909.71	0.0018184
1919.36	0.0019384
1929	0.0021484
1938.65	0.0021084
1948.29	0.0019284
1957.94	0.0018684
1967.58	0.0015484
1977.23	0.0010984
1986.87	0.0005657
1996.52	0.000576
2006.16	0.0004696
2015.81	0.0003285
2025.45	0.0003141
2035.1	0.0003736
2044.74	0.0002521
2054.38	0.0002677
2064.03	0.0003429
2073.67	0.0002536
2083.32	0.0002645
2092.96	0.0002537
2102.61	0.0002772
2112.25	0.0002217
2121.9	0.0002887
2131.54	0.0002307
2141.19	0.0002316
2150.83	0.0001959
2160.48	9.993e-05
2170.12	0.00011754
2179.77	0.0001559
2189.41	0.0002436
2199.06	0.0003361
2208.7	0.000547
2218.35	0.0003476
2227.99	0.0003655
2237.64	0.0002931
2247.28	0.0002881
2256.92	0.0003901
2266.57	0.000411
2276.21	0.0005529
2285.86	0.0005337
2295.5	0.0005127
2305.15	0.0003409
2314.79	0.0004801
2324.44	0.00067
2334.08	0.0005385
2343.73	0.0006742
2353.37	0.0005641
2363.02	0.0005671
2372.66	0.0005474
2382.31	0.0007458
2391.95	0.0008171
2401.6	0.0008619
2411.24	0.0010101
2420.89	0.0006996
2430.53	0.0005585
2440.18	0.0005819
2449.82	0.0007398
2459.47	0.0007298
2469.11	0.0006391
2478.75	0.0005798
2488.4	0.0003544
2498.04	0.0003288
2507.69	0.0004152
2517.33	0.0002963
2526.98	0.0003358
2536.62	0.0002582
2546.27	0.0003229
2555.91	0.0003616
2565.56	0.000427
2575.2	0.0004514
2584.85	0.0005183
2594.49	0.0006093
2604.14	0.0006065
2613.78	0.0005176
2623.43	0.0005971
2633.07	0.0004406
2642.72	0.0005465
2652.36	0.0006809
2662.01	0.0006317
2671.65	0.0008014
2681.29	0.0008063
2690.94	0.0008581
2700.58	0.0009193
2710.23	0.0010484
2719.87	0.0009614
2729.52	0.0007246
2739.16	0.0009336
2748.81	0.0008645
2758.45	0.0006769
2768.1	0.0005946
2777.74	0.0005822
2787.39	0.0005263
2797.03	0.0005154
2806.68	0.000502
2816.32	0.0006023
2825.97	0.0005682
2835.61	0.0011084
2845.26	0.0013284
2854.9	0.0017184
2864.55	0.0021784
2874.19	0.0023884
2883.84	0.0021984
2893.48	0.0019184
2903.12	0.0015784
2912.77	0.0014184
2922.41	0.0010384
2932.06	0.0011484
2941.7	0.0010784
2951.35	0.0010137
2960.99	0.0009267
2970.64	0.0008345
2980.28	0.0007359
2989.93	0.0007109
2999.57	0.0008972
3009.22	0.0014184
3018.86	0.0023284
3028.51	0.0043284
3038.15	0.0064984
3047.8	0.0054484
3057.44	0.0065784
3067.09	0.0132184
3076.73	0.0160784
3086.38	0.0115584
3096.02	0.0080284
3105.67	0.0047784
3115.31	0.0023384
3124.95	0.0012584
3134.6	0.0010384
3144.24	0.001017
3153.89	0.0007256
3163.53	0.0010784
3173.18	0.0005413
3182.82	0.000549
3192.47	0.0005036
3202.11	0.0005748
3211.76	0.0007243
3221.4	0.0002905
3231.05	0.0004926
3240.69	0.0002969
3250.34	0.00011217
3259.98	0.0003703
3269.63	0.0004416
3279.27	0.0001887
3288.92	0.0005763
3298.56	0.0006397
3308.21	0.0006275
3317.85	0.00056
3327.49	0.0006965
3337.14	0.0012284
3346.78	0.0020584
3356.43	0.0018184
3366.07	0.0011484
3375.72	0.0006437
3385.36	0.0009526
3395.01	0.0004926
3404.65	0.0005162
3414.3	0.0003934
3423.94	0.0003689
3433.59	0.0002999
3443.23	0.0001921
3452.88	0.0003292
3462.52	0.00011177
3472.17	0.0004071
3481.81	0.0004571
3491.46	0.0003095
3501.1	0.0001962
3510.75	0.0004451
3520.39	0.0005523
3530.04	0.000195
3539.68	0.0002266
3549.32	0.0004908
3558.97	0.0001581
3568.61	0.00011035
3578.26	0.0003285
3587.9	0.0003857
3597.55	0.0002294
3607.19	0.0003781
3616.84	0.0004616
3626.48	0.0005984
3636.13	0.0003558
3645.77	0.000591
3655.42	0.0004083
3665.06	0.0003597
3674.71	0.0006638
3684.35	0.0006642
3694	0.000698
3703.64	0.0004288
3713.29	0.0004401
3722.93	0.0005639
3732.58	0.0005105
3742.22	0.0004078
3751.86	0.0009381
3761.51	0.0004856
3771.15	0.0006066
3780.8	0.0002394
3790.44	0.0007914
3800.09	0.0002512
3809.73	0.0002955
3819.38	0.0004544
3829.02	0.0006992
3838.67	0.0004853
3848.31	0.0004206
3857.96	0.0006843
3867.6	0.0001995
3877.25	0.0004419
3886.89	0.0002727
3896.54	0.0004447
3906.18	0.0003378
3915.83	0.0005941
3925.47	0.0006655
3935.12	0.0002185
3944.76	0.0007602
3954.41	0.0004692
3964.05	0.0003109
3973.69	0.0001829
3983.34	0.0004586
3992.98	0.0007963
