Infrared Spectrum: N-Chloroacetyl-L-tyrosine
Formula: C11 H12 Cl N O4
CAS: 1145-56-8
State: SOLID (SPLIT MULL), FLUOROLUBE FOR 3800-1330 CM^-^1, NUJOL FOR 1330-450 CM^-^1
Melting point: 155 C
Class: COBLENTZ III
Instrument: DOW KBr FOREPRISM-GRATING
Instrument parameters: BLAZED AT 3.5, 12.0, 20.0 MICRON AND CHANGED AT 5.0, 7.5, 14.9 MICRON
Sampling: TRANSMISSION
Resolution: 2
Origin: DOW CHEMICAL COMPANY
1/CM	TRANSMITTANCE
3800	0.7095
3791	0.711
3782	0.713
3773	0.7149
3764	0.7168
3755	0.7187
3746	0.7207
3737	0.7221
3728	0.7237
3719	0.7251
3710	0.7265
3701	0.7278
3692	0.7291
3683	0.7304
3674	0.7317
3665	0.7332
3656	0.7347
3647	0.7362
3638	0.7382
3629	0.7403
3620	0.7419
3611	0.7436
3602	0.7453
3593	0.7474
3584	0.7495
3575	0.7512
3566	0.7531
3557	0.7546
3548	0.7561
3539	0.7575
3530	0.7584
3521	0.7589
3512	0.7591
3503	0.7585
3494	0.7578
3485	0.7561
3476	0.7545
3467	0.7518
3458	0.7492
3449	0.746
3440	0.7381
3431	0.7267
3422	0.7139
3413	0.6987
3404	0.6818
3395	0.6622
3386	0.6368
3377	0.6119
3368	0.586
3359	0.5639
3350	0.5339
3341	0.492
3332	0.4503
3323	0.3997
3314	0.2834
3305	0.1953
3296	0.0992
3287	0.0919
3278	0.1212
3269	0.1544
3260	0.1713
3251	0.1743
3242	0.177
3233	0.1866
3224	0.2068
3215	0.2306
3206	0.2577
3197	0.2887
3188	0.312
3179	0.331
3170	0.3526
3161	0.374
3152	0.3894
3143	0.4009
3134	0.4098
3125	0.4181
3116	0.4242
3107	0.426
3098	0.4224
3089	0.3995
3080	0.3823
3071	0.3849
3062	0.3966
3053	0.417
3044	0.4248
3035	0.4076
3026	0.4151
3017	0.4107
3008	0.4194
2999	0.4256
2990	0.4241
2981	0.4184
2972	0.4264
2963	0.4271
2954	0.4162
2945	0.4119
2936	0.4347
2927	0.4376
2918	0.4245
2909	0.4407
2900	0.4573
2891	0.47
2882	0.4837
2873	0.5007
2864	0.5144
2855	0.5268
2846	0.5384
2837	0.5495
2828	0.5582
2819	0.5666
2810	0.5746
2801	0.5825
2792	0.5893
2783	0.5954
2774	0.6016
2765	0.6079
2756	0.6144
2747	0.621
2738	0.6269
2729	0.6296
2720	0.6322
2711	0.6377
2702	0.6421
2693	0.6462
2684	0.6505
2675	0.6544
2666	0.6575
2657	0.6601
2648	0.6615
2639	0.655
2630	0.6544
2621	0.6587
2612	0.6647
2603	0.6715
2594	0.6782
2585	0.6857
2576	0.6933
2567	0.6984
2558	0.6997
2549	0.7021
2540	0.7067
2531	0.7138
2522	0.7185
2513	0.7221
2504	0.7255
2495	0.7287
2486	0.7328
2477	0.7371
2468	0.7412
2459	0.7448
2450	0.7484
2441	0.7519
2432	0.756
2423	0.7601
2414	0.7645
2405	0.7693
2396	0.7742
2387	0.7793
2378	0.7845
2369	0.7887
2360	0.7931
2351	0.7969
2342	0.7978
2333	0.7976
2324	0.7971
2315	0.7958
2306	0.7958
2297	0.7961
2288	0.7978
2279	0.8014
2270	0.8055
2261	0.8103
2252	0.8151
2243	0.8198
2234	0.8245
2225	0.8289
2216	0.8321
2207	0.8318
2198	0.8328
2189	0.8348
2180	0.8377
2171	0.8404
2162	0.8431
2153	0.8457
2144	0.8483
2135	0.8508
2126	0.8532
2117	0.8545
2108	0.8558
2099	0.8571
2090	0.8586
2081	0.8601
2072	0.8616
2063	0.8627
2054	0.8639
2045	0.8646
2036	0.8652
2027	0.8657
2018	0.8663
2009	0.8671
2000	0.8678
1991	0.8699
1982	0.8733
1973	0.875
1964	0.8746
1955	0.8782
1946	0.8755
1937	0.8795
1928	0.8767
1919	0.8718
1910	0.8708
1901	0.8618
1892	0.8577
1883	0.8662
1874	0.8709
1865	0.8725
1856	0.872
1847	0.8763
1838	0.871
1829	0.8681
1820	0.8659
1811	0.8635
1802	0.8605
1793	0.856
1784	0.848
1775	0.8318
1766	0.8267
1757	0.8105
1748	0.7885
1739	0.7633
1730	0.7325
1721	0.6043
1712	0.2219
1703	0.0699
1694	0.2006
1685	0.3976
1676	0.462
1667	0.21
1658	0.0415
1649	0.1377
1640	0.3492
1631	0.4799
1622	0.5722
1613	0.3718
1604	0.458
1595	0.576
1586	0.6746
1577	0.705
1568	0.6262
1559	0.306
1550	0.3194
1541	0.5348
1532	0.663
1523	0.6882
1514	0.2667
1505	0.5712
1496	0.6756
1487	0.7101
1478	0.7144
1469	0.6747
1460	0.4435
1451	0.3259
1442	0.5673
1433	0.6025
1424	0.5973
1415	0.6004
1406	0.6501
1397	0.6818
1388	0.6656
1379	0.617
1370	0.549
1361	0.5909
1352	0.5427
1343	0.426
1334	0.5884
1325	0.5973
1316	0.6198
1307	0.5437
1298	0.5866
1289	0.6751
1280	0.6204
1271	0.5029
1262	0.4501
1253	0.2029
1244	0.2077
1235	0.1091
1226	0.0521
1217	0.3205
1208	0.5012
1199	0.6136
1190	0.6897
1181	0.7075
1172	0.6377
1163	0.7414
1154	0.7307
1145	0.7639
1136	0.7815
1127	0.7939
1118	0.7942
1109	0.617
1100	0.5974
1091	0.7783
1082	0.8084
1073	0.8154
1064	0.8203
1055	0.8257
1046	0.8286
1037	0.8058
1028	0.8111
1019	0.8172
1010	0.8071
1001	0.7915
992	0.7264
983	0.7755
974	0.7757
965	0.7174
956	0.7575
947	0.6471
938	0.7436
929	0.6739
920	0.6481
911	0.6958
902	0.7342
893	0.7633
884	0.7801
875	0.791
866	0.7919
857	0.7408
848	0.5382
839	0.4868
830	0.5457
821	0.5973
812	0.7834
803	0.7898
794	0.6719
785	0.7696
776	0.5328
767	0.7614
758	0.7653
749	0.7111
740	0.7192
731	0.6948
722	0.6345
713	0.5903
704	0.552
695	0.4162
686	0.3884
677	0.4394
668	0.5104
659	0.5455
650	0.596
641	0.6458
632	0.7308
623	0.7528
614	0.7711
605	0.7838
596	0.7861
587	0.7865
578	0.7676
569	0.6988
560	0.7212
551	0.7615
542	0.5926
533	0.4633
524	0.7621
515	0.7888
506	0.7918
497	0.7597
488	0.7154
479	0.6948
470	0.7295
461	0.7337
