Infrared Spectrum: Diethyl 4-Methoxybenzylphosphonate
Formula: C 12 H 19 O 4 P
CAS: 1145-93-3
State: gas
Origin: EPA-IR VAPOR PHASE LIBRARY
1/CM	ABSORBANCE
549.9	0.03606
559.547	0.05362
569.193	0.05382
578.84	0.02748
588.486	0.01519
598.133	0.01066
607.779	0.0085
617.426	0.00726
627.072	0.0069
636.719	0.00782
646.365	0.00701
656.012	0.00699
665.658	0.00734
675.305	0.0081
684.951	0.00951
694.598	0.01083
704.245	0.01044
713.891	0.01224
723.538	0.01777
733.184	0.01949
742.831	0.02064
752.477	0.02764
762.124	0.03637
771.77	0.06604
781.417	0.10406
791.063	0.08132
800.71	0.04879
810.356	0.04206
820.003	0.04688
829.649	0.05907
839.296	0.08177
848.943	0.09483
858.589	0.06046
868.236	0.02949
877.882	0.02128
887.529	0.02019
897.175	0.02269
906.822	0.02939
916.468	0.04317
926.115	0.07343
935.761	0.13769
945.408	0.21094
955.054	0.21145
964.701	0.15143
974.347	0.09081
983.994	0.0613
993.64	0.05725
1003.29	0.07445
1012.93	0.12692
1022.58	0.23656
1032.23	0.39968
1041.87	0.4278
1051.52	0.34268
1061.17	0.30625
1070.81	0.2139
1080.46	0.13177
1090.11	0.11437
1099.75	0.11762
1109.4	0.07809
1119.05	0.05577
1128.69	0.04753
1138.34	0.04321
1147.99	0.04277
1157.63	0.0455
1167.28	0.05918
1176.92	0.09543
1186.57	0.06347
1196.22	0.03912
1205.86	0.0326
1215.51	0.04078
1225.16	0.06435
1234.8	0.12974
1244.45	0.25162
1254.1	0.24236
1263.74	0.20267
1273.39	0.19509
1283.04	0.15806
1292.68	0.12123
1302.33	0.07295
1311.98	0.03981
1321.62	0.02778
1331.27	0.01943
1340.92	0.01513
1350.56	0.01365
1360.21	0.01513
1369.86	0.02059
1379.5	0.02271
1389.15	0.03459
1398.79	0.03923
1408.44	0.03065
1418.09	0.02332
1427.73	0.02069
1437.38	0.0249
1447.03	0.03271
1456.67	0.03006
1466.32	0.03687
1475.97	0.03302
1485.61	0.03099
1495.26	0.0483
1504.91	0.14013
1514.55	0.23712
1524.2	0.05902
1533.85	0.02062
1543.49	0.01244
1553.14	0.01007
1562.79	0.00994
1572.43	0.0127
1582.08	0.0181
1591.73	0.0204
1601.37	0.03089
1611.02	0.04194
1620.67	0.02643
1630.31	0.01374
1639.96	0.00975
1649.6	0.00795
1659.25	0.00692
1668.9	0.00642
1678.54	0.00612
1688.19	0.00587
1697.84	0.00559
1707.48	0.00547
1717.13	0.0055
1726.78	0.0059
1736.42	0.00629
1746.07	0.00707
1755.72	0.00762
1765.36	0.00689
1775.01	0.00628
1784.66	0.00608
1794.3	0.00594
1803.95	0.00593
1813.6	0.00602
1823.24	0.00606
1832.89	0.00615
1842.54	0.00631
1852.18	0.00652
1861.83	0.00657
1871.47	0.00702
1881.12	0.00703
1890.77	0.00588
1900.41	0.0050889
1910.06	0.0046936
1919.71	0.004323
1929.35	0.004051
1939	0.003879
1948.65	0.003855
1958.29	0.003954
1967.94	0.0043106
1977.59	0.0046545
1987.23	0.0046836
1996.88	0.0044156
2006.53	0.00422
2016.17	0.0044476
2025.82	0.0048541
2035.47	0.0050053
2045.11	0.0050618
2054.76	0.0052168
2064.41	0.0053934
2074.05	0.00549
2083.7	0.0052416
2093.35	0.0043602
2102.99	0.00349
2112.64	0.00305
2122.28	0.0028
2131.93	0.00271
2141.58	0.00262
2151.22	0.00255
2160.87	0.0025
2170.52	0.00246
2180.16	0.00247
2189.81	0.00252
2199.46	0.00254
2209.1	0.00257
2218.75	0.00259
2228.4	0.0026
2238.04	0.00266
2247.69	0.00275
2257.34	0.00293
2266.98	0.00299
2276.63	0.0031
2286.28	0.00322
2295.92	0.00323
2305.57	0.00317
2315.22	0.00308
2324.86	0.00309
2334.51	0.00309
2344.16	0.00312
2353.8	0.00304
2363.45	0.00264
2373.09	0.00232
2382.74	0.00229
2392.39	0.00233
2402.03	0.00245
2411.68	0.0027
2421.33	0.00297
2430.97	0.00301
2440.62	0.00286
2450.27	0.0029
2459.91	0.00311
2469.56	0.00321
2479.21	0.00329
2488.85	0.00329
2498.5	0.0031
2508.15	0.00302
2517.79	0.0031
2527.44	0.00336
2537.09	0.003641
2546.73	0.003618
2556.38	0.00315
2566.03	0.00272
2575.67	0.00257
2585.32	0.00263
2594.96	0.00274
2604.61	0.00278
2614.26	0.00256
2623.9	0.00242
2633.55	0.00239
2643.2	0.00247
2652.84	0.00233
2662.49	0.00215
2672.14	0.0021
2681.78	0.00212
2691.43	0.00223
2701.08	0.00229
2710.72	0.00243
2720.37	0.00286
2730.02	0.003503
2739.66	0.003567
2749.31	0.003789
2758.96	0.004104
2768.6	0.0046154
2778.25	0.0051738
2787.9	0.00547
2797.54	0.00622
2807.19	0.00744
2816.84	0.00928
2826.48	0.01264
2836.13	0.02203
2845.77	0.03222
2855.42	0.02047
2865.07	0.01883
2874.71	0.02329
2884.36	0.02838
2894.01	0.03293
2903.65	0.04641
2913.3	0.06556
2922.95	0.0688
2932.59	0.07402
2942.24	0.09187
2951.89	0.0788
2961.53	0.07295
2971.18	0.07342
2980.83	0.09526
2990.47	0.09495
3000.12	0.0811
3009.77	0.06735
3019.41	0.03762
3029.06	0.02913
3038.71	0.02873
3048.35	0.01905
3058	0.01339
3067.64	0.01531
3077.29	0.01454
3086.94	0.00999
3096.58	0.00918
3106.23	0.00782
3115.88	0.00546
3125.52	0.00439894
3135.17	0.003469
3144.82	0.00243
3154.46	0.00209
3164.11	0.00182
3173.76	0.0015
3183.4	0.00129
3193.05	0.00107
3202.7	0.00095
3212.34	0.00078
3221.99	0.00079
3231.64	0.00079
3241.28	0.00049
3250.93	0.00038
3260.58	0.00047
3270.22	0.0002
3279.87	7e-05
3289.52	5e-05
3299.16	0.00014
3308.81	0.00015
3318.45	0.00015
3328.1	0.00018
3337.75	0.00011
3347.39	0.00033
3357.04	0.00032
3366.69	0.00033
3376.33	0.00035
3385.98	0.00036
3395.63	0.00042
3405.27	0.00039
3414.92	0.0004
3424.57	0.00049
3434.21	0.00059
3443.86	0.00052
3453.51	0.00055
3463.15	0.00065
3472.8	0.00084
3482.45	0.00062
3492.09	0.00077
3501.74	0.0008
3511.39	0.00069
3521.03	0.00092
3530.68	0.00087
3540.33	0.00085
3549.97	0.00088
3559.62	0.00104
3569.26	0.00096
3578.91	0.00104
3588.56	0.00108
3598.2	0.00112
3607.85	0.00108
3617.5	0.00111
3627.14	0.00125
3636.79	0.0014
3646.44	0.00146
3656.08	0.00144
3665.73	0.00158
3675.38	0.00153
3685.02	0.00161
3694.67	0.00163
3704.32	0.00172
3713.96	0.00166
3723.61	0.00177
3733.26	0.00181
3742.9	0.00176
3752.55	0.0018
3762.2	0.00206
3771.84	0.00203
3781.49	0.00186
3791.13	0.00179
3800.78	0.00188
3810.43	0.00187
3820.07	0.00186
3829.72	0.00185
3839.37	0.00183
3849.01	0.00199
3858.66	0.00202
3868.31	0.00206
3877.95	0.00221
3887.6	0.00228
3897.25	0.00225
3906.89	0.00227
3916.54	0.00223
3926.19	0.00228
3935.83	0.00231
3945.48	0.00248
3955.13	0.00244
3964.77	0.00261
3974.42	0.00253
3984.07	0.00259
3993.71	0.00263
