Infrared Spectrum: Naphthalene-d8
Formula: C 10 D 8
CAS: 1146-65-2
State: gas
Instrument: HP-GC/MS/IRD
Origin: NIST Mass Spectrometry Data Center
1/CM	ABSORBANCE
550	0.000218
562	0.000224
574	0.000344
586	0.001372
598	0.002942
610	0.006252
622	0.015472
634	0.010228
646	0.003388
658	0.000512
670	0.000434
682	0.000358
694	0.000438
706	0.000366
718	0.000266
730	0.000218
742	0.000134
754	9e-05
766	0.000272
778	0.001172
790	0.002934
802	0.001596
814	0.000918
826	0.002256
838	0.00161
850	0.000326
862	0.000574
874	0.001512
886	0.001532
898	0.000866
910	0.000202
922	0.000138
934	0.000268
946	0.000212
958	7.6e-05
970	4.4e-05
982	9.2e-05
994	8.2e-05
1006	3.8e-05
1018	6.4e-05
1030	0.00017
1042	0.000126
1054	4.2e-05
1066	5.6e-05
1078	4.8e-05
1090	5.2e-05
1102	2.8e-05
1114	6.2e-05
1126	6.2e-05
1138	0.00012
1150	0.000276
1162	0.00059
1174	0.000652
1186	0.000538
1198	0.00042
1210	0.00032
1222	0.000262
1234	0.0003
1246	0.000704
1258	0.001006
1270	0.0007
1282	0.000262
1294	0.000208
1306	0.000184
1318	0.000336
1330	0.000432
1342	0.000216
1354	0.000184
1366	0.000502
1378	0.001042
1390	0.000952
1402	0.000878
1414	0.001168
1426	0.001344
1438	0.001502
1450	0.00094
1462	0.000316
1474	0.000156
1486	0.000116
1498	0.000104
1510	0.000118
1522	0.000228
1534	0.000424
1546	0.000628
1558	0.001046
1570	0.001134
1582	0.000358
1594	0.000138
1606	0.000234
1618	0.00051
1630	0.000686
1642	0.000424
1654	0.000204
1666	0.000262
1678	0.0002
1690	0.000138
1702	0.000176
1714	0.000186
1726	0.000172
1738	0.000134
1750	0.000132
1762	0.00011
1774	0.000102
1786	0.00011
1798	0.000126
1810	0.000116
1822	9e-05
1834	6.8e-05
1846	7.2e-05
1858	8.4e-05
1870	6.6e-05
1882	0.0001
1894	9e-05
1906	9.4e-05
1918	0.000116
1930	0.00011
1942	9.6e-05
1954	0.000102
1966	0.000106
1978	8.2e-05
1990	5.4e-05
2002	5.2e-05
2014	8.2e-05
2026	4.6e-05
2038	4.2e-05
2050	4.6e-05
2062	4e-05
2074	3.6e-05
2086	4.4e-05
2098	6e-05
2110	7.8e-05
2122	8.8e-05
2134	0.00015
2146	0.000118
2158	7.4e-05
2170	8.4e-05
2182	9.8e-05
2194	9e-05
2206	0.000134
2218	0.000258
2230	0.000646
2242	0.001908
2254	0.004218
2266	0.009276
2278	0.01138
2290	0.009882
2302	0.006336
2314	0.001562
2326	0.00098
2338	0.00101
2350	0.000748
2362	0.00046
2374	0.000646
2386	0.00062
2398	0.000328
2410	0.000228
2422	0.000212
2434	0.000194
2446	0.000148
2458	9.2e-05
2470	9.2e-05
2482	7.6e-05
2494	6.4e-05
2506	6e-05
2518	5.8e-05
2530	5.8e-05
2542	5.4e-05
2554	3.8e-05
2566	5e-05
2578	3.8e-05
2590	9.4e-05
2602	7.8e-05
2614	6.4e-05
2626	4e-05
2638	2.8e-05
2650	2.2e-05
2662	2.8e-05
2674	3.6e-05
2686	2.8e-05
2698	4.6e-05
2710	2.6e-05
2722	2.8e-05
2734	4e-05
2746	4.8e-05
2758	6.6e-05
2770	5.8e-05
2782	5.2e-05
2794	4.4e-05
2806	4e-05
2818	2.2e-05
2830	4.8e-05
2842	7.2e-05
2854	6e-05
2866	6.6e-05
2878	5.8e-05
2890	6.6e-05
2902	7.2e-05
2914	6.6e-05
2926	6.8e-05
2938	6e-05
2950	6.6e-05
2962	4.4e-05
2974	3.6e-05
2986	0.000116
2998	9.8e-05
3010	0.000104
3022	9.6e-05
3034	0.00013
3046	0.000138
3058	0.000208
3070	0.000146
3082	8.6e-05
3094	9.4e-05
3106	9.8e-05
3118	0.000148
3130	0.000218
3142	0.000252
3154	0.000174
3166	0.000122
3178	8.8e-05
3190	6e-05
3202	4e-05
3214	5e-05
3226	6.6e-05
3238	3.2e-05
3250	3.6e-05
3262	6.6e-05
3274	0.000102
3286	0.000168
3298	0.00013
3310	7.4e-05
3322	8.6e-05
3334	2.6e-05
3346	5.6e-05
3358	2e-05
3370	3.6e-05
3382	2.4e-05
3394	3.6e-05
3406	3e-05
3418	1e-05
3430	4e-05
3442	6e-06
3454	6.4e-05
3466	6.2e-05
3478	9.4e-05
3490	7.8e-05
3502	8.8e-05
3514	0.00013
3526	8.6e-05
3538	0.000144
3550	0.000102
3562	4.8e-05
3574	5.8e-05
3586	9e-05
3598	5.8e-05
3610	7.4e-05
3622	9.6e-05
3634	3.4e-05
3646	0.00012
3658	6.2e-05
3670	7.6e-05
3682	8.6e-05
3694	6.4e-05
3706	6.6e-05
3718	7.2e-05
3730	5e-05
3742	5e-05
3754	1.4e-05
3766	3.6e-05
3778	2e-05
3790	7.4e-05
3802	0.000144
3814	0.000188
3826	8.8e-05
3838	7.6e-05
