Infrared Spectrum: 1-Nitro-4-(phenylsulfonyl)benzene
Formula: C 12 H 9 N O 4 S
CAS: 1146-39-0
State: gas
Origin: EPA-IR VAPOR PHASE LIBRARY
1/CM	ABSORBANCE
549.8	0.004272
559.445	0.020262
569.09	0.030742
578.734	0.009872
588.379	0.006692
598.024	0.023942
607.669	0.098992
617.313	0.022582
626.958	0.005072
636.603	0.002982
646.248	0.002412
655.893	0.003012
665.537	0.005492
675.182	0.010032
684.827	0.019212
694.472	0.014572
704.116	0.018912
713.761	0.019802
723.406	0.013912
733.051	0.069722
742.695	0.034372
752.34	0.033202
761.985	0.016552
771.63	0.004632
781.275	0.003082
790.919	0.002792
800.564	0.002912
810.209	0.001832
819.854	0.0010932
829.498	0.002002
839.143	0.004792
848.788	0.017672
858.433	0.013842
868.078	0.003652
877.722	0.001912
887.367	0.0012633
897.012	0.0008996
906.657	0.0008864
916.301	0.0009454
925.946	0.0008107
935.591	0.0008672
945.236	0.0005034
954.88	0.000696
964.525	0.0009131
974.17	0.0009111
983.815	0.000804
993.46	0.001462
1003.1	0.002962
1012.75	0.009212
1022.39	0.005002
1032.04	0.001632
1041.68	0.0010034
1051.33	0.001732
1060.97	0.002732
1070.62	0.005092
1080.26	0.004962
1089.91	0.011152
1099.55	0.034992
1109.2	0.029312
1118.84	0.006642
1128.49	0.003862
1138.13	0.004892
1147.78	0.009222
1157.42	0.034402
1167.07	0.083272
1176.71	0.047422
1186.36	0.010632
1196	0.004772
1205.64	0.003762
1215.29	0.003702
1224.93	0.002622
1234.58	0.002172
1244.22	0.002052
1253.87	0.002642
1263.51	0.002702
1273.16	0.004042
1282.8	0.007642
1292.45	0.010472
1302.09	0.015702
1311.74	0.015152
1321.38	0.014152
1331.03	0.023752
1340.67	0.047702
1350.32	0.096802
1359.96	0.069482
1369.61	0.021512
1379.25	0.007892
1388.9	0.005872
1398.54	0.006322
1408.18	0.004802
1417.83	0.003562
1427.47	0.003302
1437.12	0.004712
1446.76	0.008582
1456.41	0.005362
1466.05	0.004152
1475.7	0.006872
1485.34	0.006932
1494.99	0.005432
1504.63	0.006272
1514.28	0.009022
1523.92	0.016162
1533.57	0.032802
1543.21	0.061052
1552.86	0.044212
1562.5	0.019092
1572.15	0.011532
1581.79	0.009462
1591.44	0.009252
1601.08	0.011112
1610.73	0.009672
1620.37	0.004362
1630.01	0.002442
1639.66	0.001992
1649.3	0.001732
1658.95	0.001692
1668.59	0.001702
1678.24	0.001902
1687.88	0.001682
1697.53	0.0010369
1707.17	0.0007653
1716.82	0.0006468
1726.46	0.0006416
1736.11	0.0005168
1745.75	0.0006156
1755.4	0.0008966
1765.04	0.0009202
1774.69	0.0009784
1784.33	0.0012841
1793.98	0.002092
1803.62	0.002372
1813.27	0.001772
1822.91	0.0011994
1832.55	0.0007917
1842.2	0.000663
1851.84	0.0005769
1861.49	0.0006495
1871.13	0.000689
1880.78	0.0007624
1890.42	0.0010894
1900.07	0.0012533
1909.71	0.0013594
1919.36	0.001349
1929	0.001492
1938.65	0.001248
1948.29	0.0010486
1957.94	0.0011528
1967.58	0.0011664
1977.23	0.0010103
1986.87	0.0006652
1996.52	0.0005317
2006.16	0.00043728
2015.81	0.00044382
2025.45	0.00042445
2035.1	0.000411862
2044.74	0.00042077
2054.38	0.0003351
2064.03	0.00050099
2073.67	0.0003919
2083.32	0.000407689
2092.96	0.00042102
2102.61	0.0004599
2112.25	0.00049346
2121.9	0.0003709
2131.54	0.00043249
2141.19	0.00045051
2150.83	0.0003754
2160.48	0.0006014
2170.12	0.0006061
2179.77	0.0006957
2189.41	0.0006
2199.06	0.0006121
2208.7	0.0006305
2218.35	0.0005184
2227.99	0.0005979
2237.64	0.000706
2247.28	0.0006949
2256.92	0.0006044
2266.57	0.0006602
2276.21	0.0007794
2285.86	0.0006907
2295.5	0.0005472
2305.15	0.0005885
2314.79	0.000628
2324.44	0.00077
2334.08	0.0006985
2343.73	0.0006089
2353.37	0.0005448
2363.02	0.0006094
2372.66	0.0005195
2382.31	0.0005657
2391.95	0.0006148
2401.6	0.0006074
2411.24	0.0006157
2420.89	0.0006067
2430.53	0.0005836
2440.18	0.0005637
2449.82	0.0005803
2459.47	0.0006458
2469.11	0.0006129
2478.75	0.0006505
2488.4	0.00047787
2498.04	0.0005664
2507.69	0.0007357
2517.33	0.0006431
2526.98	0.0005904
2536.62	0.00047129
2546.27	0.0005239
2555.91	0.0004863
2565.56	0.0005396
2575.2	0.0006387
2584.85	0.000663
2594.49	0.000694
2604.14	0.0006715
2613.78	0.0005649
2623.43	0.0005238
2633.07	0.0005355
2642.72	0.0007892
2652.36	0.0008645
2662.01	0.0007937
2671.65	0.0008545
2681.29	0.00102
2690.94	0.0011199
2700.58	0.0010633
2710.23	0.000724
2719.87	0.0006487
2729.52	0.0006136
2739.16	0.000558
2748.81	0.0006836
2758.45	0.0005987
2768.1	0.0005661
2777.74	0.0005529
2787.39	0.0005838
2797.03	0.00049325
2806.68	0.0005082
2816.32	0.0006032
2825.97	0.0006155
2835.61	0.0006061
2845.26	0.0007655
2854.9	0.0009225
2864.55	0.0011191
2874.19	0.0013186
2883.84	0.0013118
2893.48	0.001422
2903.12	0.0010822
2912.77	0.0007671
2922.41	0.000828
2932.06	0.0008057
2941.7	0.0008484
2951.35	0.0007782
2960.99	0.0006244
2970.64	0.0005673
2980.28	0.0006264
2989.93	0.0007789
2999.57	0.0007232
3009.22	0.0010213
3018.86	0.0011864
3028.51	0.001652
3038.15	0.001892
3047.8	0.001862
3057.44	0.002552
3067.09	0.005432
3076.73	0.008722
3086.38	0.004792
3096.02	0.003392
3105.67	0.002472
3115.31	0.0011989
3124.95	0.0006654
3134.6	0.000617
3144.24	0.0005633
3153.89	0.0006646
3163.53	0.0006519
3173.18	0.000601
3182.82	0.0005768
3192.47	0.00043411
3202.11	0.0005033
3211.76	0.00045921
3221.4	0.000228
3231.05	0.00047171
3240.69	0.000279
3250.34	0.00039202
3259.98	0.0003868
3269.63	0.000173
3279.27	0.000151
3288.92	0.000263
3298.56	0.00043064
3308.21	0.0003059
3317.85	0.0004251
3327.49	0.000236
3337.14	0.000288
3346.78	0.000289
3356.43	0.000285
3366.07	0.0003031
3375.72	0.000294
3385.36	0.00043274
3395.01	0.000272
3404.65	0.0003025
3414.3	0.000389
3423.94	0.000275
3433.59	0.00043346
3443.23	0.0005204
3452.88	0.0003522
3462.52	0.0003676
3472.17	0.000254
3481.81	0.0003447
3491.46	0.000183
3501.1	0.000284
3510.75	0.0003699
3520.39	0.000187
3530.04	0.000239
3539.68	0.000239
3549.32	0.0003321
3558.97	0.000298
3568.61	0.000247
3578.26	0.000174
3587.9	0.000259
3597.55	0.0003472
3607.19	0.000129
3616.84	0.000164
3626.48	0.000234
3636.13	0.000235
3645.77	0.00043782
3655.42	0.000162
3665.06	0.0003688
3674.71	0.0003289
3684.35	0.00042508
3694	0.00042122
3703.64	0.0004459
3713.29	0.000512
3722.93	0.0003096
3732.58	0.00045946
3742.22	0.0003399
3751.86	0
3761.51	0.0003378
3771.15	0.0003431
3780.8	0.000368
3790.44	0.0003442
3800.09	0.0003474
3809.73	0.0003274
3819.38	0.0005083
3829.02	0.000216
3838.67	0.000172
3848.31	0.00048042
3857.96	0.000191
3867.6	0.000225
3877.25	0.000243
3886.89	0.00042627
3896.54	0.000123
3906.18	0.0003267
3915.83	0.000303
3925.47	0.0003695
3935.12	0.000243
3944.76	0.0003081
3954.41	0.0003069
3964.05	0.0003366
3973.69	0.000410935
3983.34	0.000211
3992.98	0.000401654
