Infrared Spectrum: (3S)-(+)-1-Benzyl-3-aminopyrrolidine
Formula: C 11 H 16 N 2
CAS: 114715-38-7
State: gas
Origin: EPA-IR VAPOR PHASE LIBRARY
1/CM	ABSORBANCE
549.8	0.003581
559.445	0.002791
569.09	0.004561
578.734	0.004131
588.379	0.004361
598.024	0.004161
607.669	0.003751
617.313	0.004091
626.958	0.005061
636.603	0.005531
646.248	0.005541
655.893	0.005321
665.537	0.006921
675.182	0.008901
684.827	0.014481
694.472	0.026701
704.116	0.025311
713.761	0.017711
723.406	0.017361
733.051	0.021671
742.695	0.026851
752.34	0.021711
761.985	0.019311
771.63	0.019531
781.275	0.018401
790.919	0.017641
800.564	0.016671
810.209	0.014311
819.854	0.011021
829.498	0.009551
839.143	0.008891
848.788	0.008681
858.433	0.009121
868.078	0.008031
877.722	0.008241
887.367	0.007091
897.012	0.007741
906.657	0.008361
916.301	0.006271
925.946	0.004801
935.591	0.004651
945.236	0.004601
954.88	0.005201
964.525	0.005311
974.17	0.005241
983.815	0.005231
993.46	0.004391
1003.1	0.003711
1012.75	0.005361
1022.39	0.009361
1032.04	0.009411
1041.68	0.006661
1051.33	0.007621
1060.97	0.009881
1070.62	0.009571
1080.26	0.009231
1089.91	0.009591
1099.55	0.011681
1109.2	0.011501
1118.84	0.013161
1128.49	0.019861
1138.13	0.022061
1147.78	0.021251
1157.42	0.017401
1167.07	0.012361
1176.71	0.010961
1186.36	0.010071
1196	0.008491
1205.64	0.010181
1215.29	0.010521
1224.93	0.009121
1234.58	0.009511
1244.22	0.009641
1253.87	0.009261
1263.51	0.009871
1273.16	0.009891
1282.8	0.009961
1292.45	0.010821
1302.09	0.011151
1311.74	0.010311
1321.38	0.012011
1331.03	0.015011
1340.67	0.017121
1350.32	0.014271
1359.96	0.010871
1369.61	0.013091
1379.25	0.012731
1388.9	0.008951
1398.54	0.005821
1408.18	0.004411
1417.83	0.004561
1427.47	0.005091
1437.12	0.007901
1446.76	0.011951
1456.41	0.010461
1466.05	0.007261
1475.7	0.007051
1485.34	0.008901
1494.99	0.010651
1504.63	0.006001
1514.28	0.003681
1523.92	0.002881
1533.57	0.002931
1543.21	0.002941
1552.86	0.002591
1562.5	0.003211
1572.15	0.003771
1581.79	0.004911
1591.44	0.006311
1601.08	0.008431
1610.73	0.008831
1620.37	0.008821
1630.01	0.006971
1639.66	0.004731
1649.3	0.003791
1658.95	0.002981
1668.59	0.002171
1678.24	0.002071
1687.88	0.001881
1697.53	0.0014857
1707.17	0.0015748
1716.82	0.001661
1726.46	0.0016515
1736.11	0.0015749
1745.75	0.0016129
1755.4	0.0015438
1765.04	0.0013654
1774.69	0.001671
1784.33	0.001951
1793.98	0.002451
1803.62	0.002691
1813.27	0.002171
1822.91	0.001711
1832.55	0.001691
1842.2	0.001661
1851.84	0.0014922
1861.49	0.002001
1871.13	0.002021
1880.78	0.001951
1890.42	0.001911
1900.07	0.0015255
1909.71	0.0014567
1919.36	0.001701
1929	0.002051
1938.65	0.002351
1948.29	0.002541
1957.94	0.002121
1967.58	0.001543
1977.23	0.0011457
1986.87	0.0013329
1996.52	0.0010783
2006.16	0.0011445
2015.81	0.0011501
2025.45	0.0009907
2035.1	0.0008982
2044.74	0.0010198
2054.38	0.0010236
2064.03	0.0011282
2073.67	0.0009695
2083.32	0.0011182
2092.96	0.0011762
2102.61	0.0009655
2112.25	0.0010784
2121.9	0.0011052
2131.54	0.001038
2141.19	0.0011103
2150.83	0.000851
2160.48	0.0010386
2170.12	0.0010439
2179.77	0.0010498
2189.41	0.0011613
2199.06	0.0008868
2208.7	0.001239
2218.35	0.0009871
2227.99	0.001043
2237.64	0.0011894
2247.28	0.0011328
2256.92	0.0013653
2266.57	0.0011247
2276.21	0.0013181
2285.86	0.0013346
2295.5	0.0010096
2305.15	0.0009352
2314.79	0.0011456
2324.44	0.0014276
2334.08	0.0012557
2343.73	0.0012348
2353.37	0.0011438
2363.02	0.0009917
2372.66	0.0011044
2382.31	0.001055
2391.95	0.0010499
2401.6	0.0013694
2411.24	0.0011975
2420.89	0.001192
2430.53	0.0011391
2440.18	0.00109
2449.82	0.0011708
2459.47	0.0008473
2469.11	0.0009183
2478.75	0.0010768
2488.4	0.00070308
2498.04	0.0011417
2507.69	0.0013166
2517.33	0.0011404
2526.98	0.0013848
2536.62	0.0014754
2546.27	0.001761
2555.91	0.0010621
2565.56	0.0015662
2575.2	0.001751
2584.85	0.002271
2594.49	0.001861
2604.14	0.002471
2613.78	0.002401
2623.43	0.002681
2633.07	0.002541
2642.72	0.003071
2652.36	0.003401
2662.01	0.003521
2671.65	0.003921
2681.29	0.004371
2690.94	0.004651
2700.58	0.005101
2710.23	0.006561
2719.87	0.008291
2729.52	0.009701
2739.16	0.011081
2748.81	0.013341
2758.45	0.016691
2768.1	0.022981
2777.74	0.032861
2787.39	0.044971
2797.03	0.047501
2806.68	0.037791
2816.32	0.025301
2825.97	0.018001
2835.61	0.014331
2845.26	0.012511
2854.9	0.012961
2864.55	0.015571
2874.19	0.019811
2883.84	0.019551
2893.48	0.019861
2903.12	0.023731
2912.77	0.028991
2922.41	0.031421
2932.06	0.031551
2941.7	0.033711
2951.35	0.037611
2960.99	0.038621
2970.64	0.030031
2980.28	0.016221
2989.93	0.008411
2999.57	0.006761
3009.22	0.006851
3018.86	0.009801
3028.51	0.015981
3038.15	0.016281
3047.8	0.010651
3057.44	0.011451
3067.09	0.019081
3076.73	0.016361
3086.38	0.010991
3096.02	0.007611
3105.67	0.005281
3115.31	0.003371
3124.95	0.001851
3134.6	0.0014021
3144.24	0.002051
3153.89	0.001156
3163.53	0.0015181
3173.18	0.0015732
3182.82	0.0013806
3192.47	0.0006331
3202.11	0.0013094
3211.76	0.0005908
3221.4	0.0011873
3231.05	0.0014445
3240.69	0.0013243
3250.34	0.0012311
3259.98	0.000564
3269.63	0.0012764
3279.27	0.000415
3288.92	0.0005729
3298.56	0.000432
3308.21	0.0009782
3317.85	0.0012961
3327.49	0.0016365
3337.14	0.0012158
3346.78	0.0012001
3356.43	0.0008395
3366.07	0.0011478
3375.72	0.0009693
3385.36	0.0011836
3395.01	0.0011313
3404.65	0.001061
3414.3	0.00070563
3423.94	0.0008727
3433.59	0.0007935
3443.23	0.0012454
3452.88	0.0008884
3462.52	0.001639
3472.17	0.0011015
3481.81	0.0011881
3491.46	0.0007703
3501.1	0.0013512
3510.75	0.00068158
3520.39	0.00070299
3530.04	0.0010918
3539.68	0.0013855
3549.32	0.001219
3558.97	0.0005891
3568.61	0.0008374
3578.26	0.000493
3587.9	0.0008577
3597.55	0.0009347
3607.19	0.0010683
3616.84	0.0007789
3626.48	0.000542
3636.13	0.00061
3645.77	0.0008505
3655.42	0.0010992
3665.06	0.00071124
3674.71	0.0007654
3684.35	0.0009335
3694	0.0008464
3703.64	0.0013948
3713.29	0.0012726
3722.93	0.0008159
3732.58	0.0012103
3742.22	0.0009134
3751.86	0.000415
3761.51	0.0009575
3771.15	0.0006248
3780.8	0.0010076
3790.44	0.0010149
3800.09	0.0014422
3809.73	0.00070657
3819.38	0.0012846
3829.02	0.0009183
3838.67	0.0011932
3848.31	0.001115
3857.96	0.0014013
3867.6	0.0009705
3877.25	0.0009064
3886.89	0.0014299
3896.54	0.000537
3906.18	0.000483
3915.83	0.00069675
3925.47	0.0010646
3935.12	0.0010921
3944.76	0.00052
3954.41	0.000892
3964.05	0.0009534
3973.69	0.000491
3983.34	0.0006484
3992.98	0.000426
