Infrared Spectrum: (3R)-(-)-1-Benzyl-3-aminopyrrolidine
Formula: C 11 H 16 N 2
CAS: 114715-39-8
State: gas
Origin: EPA-IR VAPOR PHASE LIBRARY
1/CM	ABSORBANCE
549.8	0.003871
559.445	0.003701
569.09	0.004931
578.734	0.005521
588.379	0.005551
598.024	0.004821
607.669	0.005051
617.313	0.007101
626.958	0.006781
636.603	0.008091
646.248	0.008321
655.893	0.008581
665.537	0.011241
675.182	0.013771
684.827	0.022001
694.472	0.040441
704.116	0.038541
713.761	0.026721
723.406	0.025731
733.051	0.034081
742.695	0.041921
752.34	0.034581
761.985	0.029421
771.63	0.030271
781.275	0.029191
790.919	0.027811
800.564	0.025221
810.209	0.021741
819.854	0.017541
829.498	0.015101
839.143	0.014121
848.788	0.013331
858.433	0.012861
868.078	0.013421
877.722	0.012351
887.367	0.011551
897.012	0.011231
906.657	0.012571
916.301	0.009411
925.946	0.007461
935.591	0.006611
945.236	0.007141
954.88	0.007741
964.525	0.008301
974.17	0.008051
983.815	0.007411
993.46	0.007521
1003.1	0.006581
1012.75	0.007651
1022.39	0.014121
1032.04	0.014991
1041.68	0.010471
1051.33	0.011621
1060.97	0.014881
1070.62	0.016331
1080.26	0.015341
1089.91	0.015351
1099.55	0.015341
1109.2	0.016891
1118.84	0.020261
1128.49	0.026781
1138.13	0.033611
1147.78	0.030191
1157.42	0.024721
1167.07	0.018461
1176.71	0.014221
1186.36	0.013471
1196	0.012391
1205.64	0.011711
1215.29	0.012671
1224.93	0.010531
1234.58	0.011561
1244.22	0.013601
1253.87	0.013921
1263.51	0.013541
1273.16	0.012811
1282.8	0.013631
1292.45	0.015391
1302.09	0.016501
1311.74	0.015171
1321.38	0.017891
1331.03	0.022891
1340.67	0.026161
1350.32	0.021471
1359.96	0.016751
1369.61	0.019871
1379.25	0.019641
1388.9	0.013841
1398.54	0.008381
1408.18	0.006241
1417.83	0.006501
1427.47	0.007691
1437.12	0.011631
1446.76	0.018201
1456.41	0.016041
1466.05	0.010741
1475.7	0.010081
1485.34	0.013091
1494.99	0.015911
1504.63	0.008501
1514.28	0.004631
1523.92	0.003981
1533.57	0.004441
1543.21	0.004261
1552.86	0.004391
1562.5	0.004591
1572.15	0.005381
1581.79	0.007491
1591.44	0.009051
1601.08	0.012281
1610.73	0.013681
1620.37	0.012731
1630.01	0.010501
1639.66	0.007101
1649.3	0.005331
1658.95	0.003501
1668.59	0.002991
1678.24	0.002741
1687.88	0.002091
1697.53	0.001651
1707.17	0.001991
1716.82	0.002021
1726.46	0.002001
1736.11	0.002101
1745.75	0.001991
1755.4	0.001931
1765.04	0.001991
1774.69	0.002061
1784.33	0.002321
1793.98	0.003291
1803.62	0.003611
1813.27	0.002561
1822.91	0.002131
1832.55	0.002211
1842.2	0.001881
1851.84	0.002291
1861.49	0.002851
1871.13	0.003041
1880.78	0.002911
1890.42	0.002331
1900.07	0.001821
1909.71	0.001981
1919.36	0.002251
1929	0.002691
1938.65	0.003391
1948.29	0.003621
1957.94	0.002951
1967.58	0.002011
1977.23	0.001531
1986.87	0.001561
1996.52	0.001631
2006.16	0.001611
2015.81	0.001561
2025.45	0.001591
2035.1	0.001241
2044.74	0.00115
2054.38	0.001281
2064.03	0.0011364
2073.67	0.0011646
2083.32	0.0011713
2092.96	0.001231
2102.61	0.0011832
2112.25	0.001461
2121.9	0.001481
2131.54	0.001421
2141.19	0.001541
2150.83	0.001481
2160.48	0.001361
2170.12	0.001521
2179.77	0.001441
2189.41	0.001531
2199.06	0.001471
2208.7	0.001611
2218.35	0.001681
2227.99	0.001581
2237.64	0.001761
2247.28	0.001831
2256.92	0.001581
2266.57	0.001891
2276.21	0.001521
2285.86	0.001921
2295.5	0.001561
2305.15	0.001731
2314.79	0.001541
2324.44	0.001301
2334.08	0.001951
2343.73	0.001591
2353.37	0.001741
2363.02	0.001561
2372.66	0.001581
2382.31	0.001531
2391.95	0.001411
2401.6	0.001631
2411.24	0.001351
2420.89	0.001661
2430.53	0.001461
2440.18	0.001301
2449.82	0.001561
2459.47	0.001721
2469.11	0.001661
2478.75	0.001581
2488.4	0.001701
2498.04	0.001481
2507.69	0.001611
2517.33	0.001801
2526.98	0.001731
2536.62	0.001961
2546.27	0.002141
2555.91	0.002311
2565.56	0.002701
2575.2	0.002901
2584.85	0.003371
2594.49	0.003351
2604.14	0.003501
2613.78	0.003901
2623.43	0.004541
2633.07	0.004261
2642.72	0.004561
2652.36	0.004911
2662.01	0.005101
2671.65	0.005691
2681.29	0.006781
2690.94	0.007501
2700.58	0.008171
2710.23	0.010101
2719.87	0.012611
2729.52	0.015401
2739.16	0.017121
2748.81	0.020171
2758.45	0.026021
2768.1	0.036071
2777.74	0.052141
2787.39	0.069701
2797.03	0.074171
2806.68	0.057841
2816.32	0.038681
2825.97	0.027161
2835.61	0.021971
2845.26	0.019221
2854.9	0.019811
2864.55	0.025021
2874.19	0.030581
2883.84	0.031401
2893.48	0.031411
2903.12	0.036671
2912.77	0.045511
2922.41	0.049521
2932.06	0.048661
2941.7	0.052011
2951.35	0.058281
2960.99	0.060421
2970.64	0.046621
2980.28	0.025181
2989.93	0.014181
2999.57	0.010121
3009.22	0.010071
3018.86	0.014731
3028.51	0.024761
3038.15	0.025871
3047.8	0.017431
3057.44	0.017811
3067.09	0.029251
3076.73	0.024791
3086.38	0.016071
3096.02	0.011681
3105.67	0.007381
3115.31	0.004641
3124.95	0.003401
3134.6	0.002201
3144.24	0.002101
3153.89	0.001241
3163.53	0.001831
3173.18	0.001441
3182.82	0.0009082
3192.47	0.0011223
3202.11	0.001441
3211.76	0.001381
3221.4	0.0011319
3231.05	0.0009825
3240.69	0.0007797
3250.34	0.0011507
3259.98	0.001201
3269.63	0.0009537
3279.27	0.001601
3288.92	0.0009644
3298.56	0.001271
3308.21	0.0011288
3317.85	0.00026478
3327.49	0.001781
3337.14	0.001951
3346.78	0.001371
3356.43	0.001951
3366.07	0.001311
3375.72	0.001341
3385.36	0.0011268
3395.01	0.0010645
3404.65	0.001221
3414.3	0.0010798
3423.94	0.001261
3433.59	0.0008301
3443.23	0.0008785
3452.88	0.0008804
3462.52	0.0007618
3472.17	0.0005235
3481.81	0.0008182
3491.46	0.001201
3501.1	0.0007874
3510.75	0.000757
3520.39	0.001027
3530.04	0.0005737
3539.68	0.0008503
3549.32	0.0010837
3558.97	0.0007659
3568.61	0.0003415
3578.26	0.0008722
3587.9	0.0011412
3597.55	0.001601
3607.19	0.001351
3616.84	0.001301
3626.48	0.001271
3636.13	0.0010985
3645.77	0.000885
3655.42	0.001201
3665.06	0.0009908
3674.71	0.0009573
3684.35	0.001261
3694	0.0011148
3703.64	0.001261
3713.29	0.001491
3722.93	0.0008994
3732.58	0.0009277
3742.22	0.001651
3751.86	0.001571
3761.51	0.001351
3771.15	0.0009184
3780.8	0.001231
3790.44	0.001401
3800.09	0
3809.73	0.001551
3819.38	0.0006053
3829.02	0.001221
3838.67	0.001241
3848.31	0.0009444
3857.96	0.001137
3867.6	0.0007765
3877.25	0.0009742
3886.89	0.001571
3896.54	0.0010275
3906.18	0.0010803
3915.83	0.0009275
3925.47	0.0011593
3935.12	0.001291
3944.76	0.0010678
3954.41	0.0011397
3964.05	0.0003836
3973.69	0.001621
3983.34	0.0011749
3992.98	0.0007112
