Infrared Spectrum: 2-Acetylthiophene-O-methyloxime
Formula: C 7 H 9 N O S
CAS: 114773-97-6
State: gas
Origin: EPA-IR VAPOR PHASE LIBRARY
1/CM	ABSORBANCE
549.8	0.0014696
559.445	0.002162
569.09	0.0017445
578.734	0.002972
588.379	0.002712
598.024	0.002732
607.669	0.001982
617.313	0.003912
626.958	0.005872
636.603	0.003532
646.248	0.0017405
655.893	0.002562
665.537	0.002752
675.182	0.007022
684.827	0.021522
694.472	0.044022
704.116	0.033382
713.761	0.016702
723.406	0.007442
733.051	0.007102
742.695	0.006352
752.34	0.004522
761.985	0.002352
771.63	0.0018434
781.275	0.0017946
790.919	0.0017571
800.564	0.002852
810.209	0.004632
819.854	0.006762
829.498	0.007522
839.143	0.010722
848.788	0.020282
858.433	0.018152
868.078	0.011592
877.722	0.030142
887.367	0.047342
897.012	0.027792
906.657	0.006612
916.301	0.003612
925.946	0.002922
935.591	0.003692
945.236	0.003272
954.88	0.005592
964.525	0.008142
974.17	0.007882
983.815	0.005532
993.46	0.005392
1003.1	0.008042
1012.75	0.010052
1022.39	0.015152
1032.04	0.026472
1041.68	0.052102
1051.33	0.085452
1060.97	0.103502
1070.62	0.078082
1080.26	0.032442
1089.91	0.014332
1099.55	0.007922
1109.2	0.005492
1118.84	0.003872
1128.49	0.002282
1138.13	0.002412
1147.78	0.0012756
1157.42	0.002432
1167.07	0.003502
1176.71	0.004292
1186.36	0.004882
1196	0.002892
1205.64	0.002902
1215.29	0.003662
1224.93	0.007442
1234.58	0.007922
1244.22	0.005782
1253.87	0.002982
1263.51	0.004522
1273.16	0.010442
1282.8	0.014272
1292.45	0.013952
1302.09	0.011662
1311.74	0.004882
1321.38	0.002522
1331.03	0.002462
1340.67	0.003872
1350.32	0.006292
1359.96	0.009072
1369.61	0.011392
1379.25	0.011942
1388.9	0.009112
1398.54	0.006492
1408.18	0.005782
1417.83	0.007832
1427.47	0.013892
1437.12	0.014592
1446.76	0.010062
1456.41	0.007682
1466.05	0.008542
1475.7	0.008412
1485.34	0.006032
1494.99	0.004912
1504.63	0.004552
1514.28	0.006172
1523.92	0.007572
1533.57	0.005732
1543.21	0.003772
1552.86	0.002882
1562.5	0.002882
1572.15	0.002652
1581.79	0.003292
1591.44	0.003792
1601.08	0.003452
1610.73	0.002482
1620.37	0.001942
1630.01	0.002222
1639.66	0.002732
1649.3	0.002222
1658.95	0.0017347
1668.59	0.0015001
1678.24	0.0014507
1687.88	0.0016835
1697.53	0.0016556
1707.17	0.002082
1716.82	0.0018278
1726.46	0.0015933
1736.11	0.0013162
1745.75	0.0016614
1755.4	0.001952
1765.04	0.002232
1774.69	0.002922
1784.33	0.003022
1793.98	0.002162
1803.62	0.0015155
1813.27	0.0013006
1822.91	0.0014174
1832.55	0.0012659
1842.2	0.0012921
1851.84	0.0011761
1861.49	0.001227
1871.13	0.0011485
1880.78	0.0012839
1890.42	0.0012071
1900.07	0.0014334
1909.71	0.0016707
1919.36	0.0017661
1929	0.002022
1938.65	0.002202
1948.29	0.001992
1957.94	0.0016649
1967.58	0.0015936
1977.23	0.0013963
1986.87	0.0013674
1996.52	0.0012756
2006.16	0.0011123
2015.81	0.001244
2025.45	0.0015112
2035.1	0.0014953
2044.74	0.001479
2054.38	0.0012141
2064.03	0.0015134
2073.67	0.0014469
2083.32	0.0016918
2092.96	0.001852
2102.61	0.0015011
2112.25	0.0015385
2121.9	0.0013357
2131.54	0.0013342
2141.19	0.0013506
2150.83	0.0012305
2160.48	0.0011016
2170.12	0.0013935
2179.77	0.0012824
2189.41	0.0011409
2199.06	0.0007716
2208.7	0.0012508
2218.35	0.0011346
2227.99	0.0010825
2237.64	0.0010517
2247.28	0.0011374
2256.92	0.0010691
2266.57	0.0012466
2276.21	0.0013073
2285.86	0.0013046
2295.5	0.0013858
2305.15	0.0011686
2314.79	0.0014085
2324.44	0.0010521
2334.08	0.0010629
2343.73	0.001072
2353.37	0.0007977
2363.02	0.0012698
2372.66	0.0009836
2382.31	0.0013125
2391.95	0.0011178
2401.6	0.0012452
2411.24	0.0012813
2420.89	0.0010885
2430.53	0.0010438
2440.18	0.0013499
2449.82	0.0013758
2459.47	0.0013569
2469.11	0.0012676
2478.75	0.0014111
2488.4	0.0011536
2498.04	0.0010275
2507.69	0.001125
2517.33	0.0010962
2526.98	0.00099
2536.62	0.0011446
2546.27	0.0011629
2555.91	0.0009604
2565.56	0.001058
2575.2	0.0014776
2584.85	0.0011193
2594.49	0.0017522
2604.14	0.0010868
2613.78	0.0015401
2623.43	0.0014194
2633.07	0.0013612
2642.72	0.0013484
2652.36	0.0012427
2662.01	0.0015691
2671.65	0.0013007
2681.29	0.001089
2690.94	0.0011643
2700.58	0.0014663
2710.23	0.0010755
2719.87	0.0011184
2729.52	0.0010225
2739.16	0.0012976
2748.81	0.0016173
2758.45	0.0011768
2768.1	0.0010961
2777.74	0.002082
2787.39	0.002032
2797.03	0.003382
2806.68	0.003862
2816.32	0.007512
2825.97	0.012012
2835.61	0.009442
2845.26	0.004582
2854.9	0.004632
2864.55	0.005762
2874.19	0.006472
2883.84	0.008092
2893.48	0.011062
2903.12	0.015382
2912.77	0.018212
2922.41	0.018572
2932.06	0.021772
2941.7	0.031182
2951.35	0.030852
2960.99	0.019952
2970.64	0.015752
2980.28	0.012362
2989.93	0.010562
2999.57	0.010532
3009.22	0.009282
3018.86	0.006782
3028.51	0.005452
3038.15	0.005292
3047.8	0.004992
3057.44	0.004572
3067.09	0.005102
3076.73	0.007422
3086.38	0.008472
3096.02	0.006212
3105.67	0.004362
3115.31	0.003342
3124.95	0.002092
3134.6	0.001972
3144.24	0.0017549
3153.89	0.0012696
3163.53	0.0012023
3173.18	0.0013404
3182.82	0.001872
3192.47	0.0014631
3202.11	0.000643
3211.76	0.0008293
3221.4	0.0011031
3231.05	0.000992
3240.69	0.000566
3250.34	0.0007732
3259.98	0.000336
3269.63	0.0014347
3279.27	0.0012843
3288.92	0.0008319
3298.56	0.0010571
3308.21	0.0009708
3317.85	0.00021
3327.49	0.0011578
3337.14	0.00090247
3346.78	0.000652
3356.43	0.000334
3366.07	0.000822
3375.72	0.0013909
3385.36	0.0011624
3395.01	0.0011962
3404.65	0.00089745
3414.3	0.000682
3423.94	0.000855575
3433.59	0.0010055
3443.23	0.000657
3452.88	0.0010936
3462.52	0.000556
3472.17	0.001136
3481.81	0.0013289
3491.46	0.000708
3501.1	0.000127
3510.75	0.000667
3520.39	0.0008147
3530.04	0.000736
3539.68	0.00043
3549.32	0.0010568
3558.97	0.0012403
3568.61	0.0011927
3578.26	0.000723
3587.9	0.0011839
3597.55	0.000402
3607.19	0.000498
3616.84	0.00091002
3626.48	0.000491
3636.13	0.0007921
3645.77	0.00064
3655.42	0.0008144
3665.06	0.0010148
3674.71	0.0010808
3684.35	5.4e-05
3694	0.0014955
3703.64	0.000689
3713.29	0.0011659
3722.93	0.000737
3732.58	0.001364
3742.22	0.00101
3751.86	0.0011487
3761.51	0.0012564
3771.15	0.0010829
3780.8	0.0011338
3790.44	0.000646
3800.09	0.000599
3809.73	0.0012725
3819.38	0.00084732
3829.02	0.0015125
3838.67	0.00087572
3848.31	0.0015665
3857.96	0.0012686
3867.6	0.000452
3877.25	0.0013587
3886.89	0.000342
3896.54	0.00054
3906.18	0.000718
3915.83	0.0011473
3925.47	0.0013152
3935.12	0.0016514
3944.76	0.001902
3954.41	0.0011533
3964.05	0.0014615
3973.69	0.0011844
3983.34	0.000651
3992.98	0.0011608
