Infrared Spectrum: 2-Cyano-4'-methylbiphenyl
Formula: C 14 H 11 N
CAS: 114772-53-1
State: gas
Origin: EPA-IR VAPOR PHASE LIBRARY
1/CM	ABSORBANCE
549.8	0.003402
559.445	0.004772
569.09	0.004742
578.734	0.003682
588.379	0.002852
598.024	0.003242
607.669	0.001802
617.313	0.001792
626.958	0.001652
636.603	0.002042
646.248	0.001982
655.893	0.002772
665.537	0.001522
675.182	0.002742
684.827	0.003792
694.472	0.002342
704.116	0.002262
713.761	0.003622
723.406	0.004472
733.051	0.006262
742.695	0.016962
752.34	0.050582
761.985	0.058222
771.63	0.020542
781.275	0.005532
790.919	0.004172
800.564	0.006452
810.209	0.018932
819.854	0.025872
829.498	0.010212
839.143	0.004002
848.788	0.003322
858.433	0.002352
868.078	0.002262
877.722	0.003272
887.367	0.003242
897.012	0.001952
906.657	0.001452
916.301	0.002132
925.946	0.002302
935.591	0.002682
945.236	0.002932
954.88	0.002642
964.525	0.002652
974.17	0.001512
983.815	0.0007311
993.46	0.004112
1003.1	0.010652
1012.75	0.007342
1022.39	0.003102
1032.04	0.002402
1041.68	0.003592
1051.33	0.003662
1060.97	0.001582
1070.62	0.0010548
1080.26	0.0010444
1089.91	0.002182
1099.55	0.003912
1109.2	0.004632
1118.84	0.005652
1128.49	0.004172
1138.13	0.003162
1147.78	0.002282
1157.42	0.003092
1167.07	0.002622
1176.71	0.003902
1186.36	0.006542
1196	0.005902
1205.64	0.004842
1215.29	0.005052
1224.93	0.005642
1234.58	0.004952
1244.22	0.004592
1253.87	0.005012
1263.51	0.006552
1273.16	0.005052
1282.8	0.003342
1292.45	0.002042
1302.09	0.002042
1311.74	0.002402
1321.38	0.002172
1331.03	0.002132
1340.67	0.002082
1350.32	0.002472
1359.96	0.002692
1369.61	0.002712
1379.25	0.003372
1388.9	0.003862
1398.54	0.004162
1408.18	0.005262
1417.83	0.005862
1427.47	0.006792
1437.12	0.010312
1446.76	0.011892
1456.41	0.006912
1466.05	0.012902
1475.7	0.034932
1485.34	0.025842
1494.99	0.007462
1504.63	0.007502
1514.28	0.011802
1523.92	0.008092
1533.57	0.004142
1543.21	0.003302
1552.86	0.003202
1562.5	0.003912
1572.15	0.004092
1581.79	0.004432
1591.44	0.006972
1601.08	0.008162
1610.73	0.007982
1620.37	0.006902
1630.01	0.005682
1639.66	0.004692
1649.3	0.003282
1658.95	0.002342
1668.59	0.001652
1678.24	0.001632
1687.88	0.001712
1697.53	0.001902
1707.17	0.002832
1716.82	0.001852
1726.46	0.001722
1736.11	0.002142
1745.75	0.002172
1755.4	0.002332
1765.04	0.001972
1774.69	0.002472
1784.33	0.003002
1793.98	0.002552
1803.62	0.001662
1813.27	0.002222
1822.91	0.002722
1832.55	0.001802
1842.2	0.002042
1851.84	0.002152
1861.49	0.002042
1871.13	0.001732
1880.78	0.002282
1890.42	0.004052
1900.07	0.004782
1909.71	0.002792
1919.36	0.002992
1929	0.003412
1938.65	0.002552
1948.29	0.002022
1957.94	0.003032
1967.58	0.002192
1977.23	0.0013894
1986.87	0.0011646
1996.52	0.0007843
2006.16	0.0011829
2015.81	0.0010726
2025.45	0.0010999
2035.1	0.0010304
2044.74	0.0011325
2054.38	0.0012564
2064.03	0.0011188
2073.67	0.0009825
2083.32	0.0009681
2092.96	0.0008182
2102.61	0.0012325
2112.25	0.0009709
2121.9	0.0012386
2131.54	0.0010058
2141.19	0.0006941
2150.83	0.0007739
2160.48	0.0009485
2170.12	0.0008771
2179.77	0.0012743
2189.41	0.0007477
2199.06	0.001482
2208.7	0.001992
2218.35	0.003712
2227.99	0.006092
2237.64	0.004142
2247.28	0.001832
2256.92	0.0012784
2266.57	0.001412
2276.21	0.0013327
2285.86	0.0013328
2295.5	0.001522
2305.15	0.0012968
2314.79	0.001682
2324.44	0.001482
2334.08	0.001622
2343.73	0.0012172
2353.37	0.0008019
2363.02	0.0009864
2372.66	0.0013638
2382.31	0.0011972
2391.95	0.001422
2401.6	0.001206
2411.24	0.0013405
2420.89	0.0009972
2430.53	0.0012382
2440.18	0.001301
2449.82	0.0011456
2459.47	0.0008794
2469.11	0.0006714
2478.75	0.0007234
2488.4	0.0008934
2498.04	0.0010392
2507.69	0.0011589
2517.33	0.0009835
2526.98	0.0011428
2536.62	0.0013741
2546.27	0.0010843
2555.91	0.0011643
2565.56	0.0008618
2575.2	0.0012779
2584.85	0.001582
2594.49	0.001672
2604.14	0.001502
2613.78	0.0009958
2623.43	0.0010018
2633.07	0.0012493
2642.72	0.0006943
2652.36	0.0011692
2662.01	0.0013572
2671.65	0.001412
2681.29	0.0011718
2690.94	0.0008767
2700.58	0.0012482
2710.23	0.0011808
2719.87	0.0011967
2729.52	0.0012522
2739.16	0.001852
2748.81	0.001642
2758.45	0.001502
2768.1	0.0012019
2777.74	0.0013726
2787.39	0.001238
2797.03	0.001692
2806.68	0.001512
2816.32	0.001882
2825.97	0.001772
2835.61	0.002572
2845.26	0.002782
2854.9	0.004092
2864.55	0.006102
2874.19	0.008682
2883.84	0.009342
2893.48	0.007882
2903.12	0.007652
2912.77	0.008842
2922.41	0.012832
2932.06	0.018752
2941.7	0.015402
2951.35	0.008602
2960.99	0.006172
2970.64	0.005552
2980.28	0.006292
2989.93	0.007972
2999.57	0.010312
3009.22	0.011732
3018.86	0.015642
3028.51	0.026522
3038.15	0.022802
3047.8	0.014652
3057.44	0.016542
3067.09	0.022162
3076.73	0.023862
3086.38	0.014082
3096.02	0.008772
3105.67	0.005622
3115.31	0.004382
3124.95	0.003772
3134.6	0.004012
3144.24	0.002372
3153.89	0.001642
3163.53	0.0006309
3173.18	0.000176
3182.82	0.0009057
3192.47	0.0013156
3202.11	0.0010219
3211.76	0.0007778
3221.4	0.0008764
3231.05	0.0007157
3240.69	0.00043754
3250.34	0.0006238
3259.98	0.0008609
3269.63	0.0011288
3279.27	0.0009709
3288.92	0.0005367
3298.56	0.0008518
3308.21	0.0007493
3317.85	0.0009097
3327.49	0.0007775
3337.14	0.0011834
3346.78	0.0002977
3356.43	0.000328
3366.07	0.001021
3375.72	0.0008317
3385.36	0.0011431
3395.01	0.0011005
3404.65	0.0007374
3414.3	0.0011142
3423.94	0.0011499
3433.59	0.000714
3443.23	0.0007837
3452.88	0.001129
3462.52	0.0005349
3472.17	0.001249
3481.81	0.0005774
3491.46	0.0007082
3501.1	0.0006052
3510.75	0.001258
3520.39	0.001021
3530.04	0.0007158
3539.68	0.0011662
3549.32	0.00048312
3558.97	0.001272
3568.61	0.0011152
3578.26	0.00046819
3587.9	0.0010006
3597.55	0.0009443
3607.19	0.0008338
3616.84	0.0006332
3626.48	0.000595
3636.13	0.0010417
3645.77	0.0004923
3655.42	0.0005276
3665.06	0.0011667
3674.71	0.0005164
3684.35	0.0012974
3694	0.0010967
3703.64	0.0011072
3713.29	0.001492
3722.93	0.0013394
3732.58	0.0011177
3742.22	9.4e-05
3751.86	0.0007363
3761.51	0.001402
3771.15	0.0006207
3780.8	7.5e-05
3790.44	0.0013129
3800.09	0.0009258
3809.73	0.0009079
3819.38	0.0010166
3829.02	0.001642
3838.67	0.0007744
3848.31	0.0009412
3857.96	0.000631
3867.6	0.0010116
3877.25	0.0007161
3886.89	0.001412
3896.54	0.000277
3906.18	0.0003371
3915.83	0.0006457
3925.47	0.0004929
3935.12	0.001742
3944.76	0.0003614
3954.41	0.0010623
3964.05	0.0006095
3973.69	0.001702
3983.34	0.000679
3992.98	0.0006816
