Infrared Spectrum: Methyl 2-isothiocyanato-3-methylbutyrate
Formula: C 7 H 11 N O 2 S
CAS: 114877-91-7
State: gas
Origin: EPA-IR VAPOR PHASE LIBRARY
1/CM	ABSORBANCE
549.8	0.00778
559.445	0.007
569.09	0.00584
578.734	0.0054
588.379	0.00429
598.024	0.00377
607.669	0.00327
617.313	0.00294
626.958	0.00307
636.603	0.0035
646.248	0.00365
655.893	0.00389
665.537	0.00413
675.182	0.00432
684.827	0.00536
694.472	0.00612
704.116	0.00781
713.761	0.00945
723.406	0.01226
733.051	0.01836
742.695	0.01967
752.34	0.01394
761.985	0.01358
771.63	0.01466
781.275	0.01417
790.919	0.01134
800.564	0.00767
810.209	0.00596
819.854	0.00686
829.498	0.00733
839.143	0.00542
848.788	0.0036
858.433	0.00308
868.078	0.00272
877.722	0.00276
887.367	0.00321
897.012	0.00332
906.657	0.00302
916.301	0.00381
925.946	0.00593
935.591	0.00764
945.236	0.00761
954.88	0.00621
964.525	0.00504
974.17	0.00576
983.815	0.00978
993.46	0.019
1003.1	0.0284
1012.75	0.0338
1022.39	0.03318
1032.04	0.02034
1041.68	0.00933
1051.33	0.00714
1060.97	0.00742
1070.62	0.0082
1080.26	0.00735
1089.91	0.00843
1099.55	0.00994
1109.2	0.01307
1118.84	0.01671
1128.49	0.02252
1138.13	0.03343
1147.78	0.04502
1157.42	0.04739
1167.07	0.0533
1176.71	0.06904
1186.36	0.07479
1196	0.07325
1205.64	0.06007
1215.29	0.04369
1224.93	0.04109
1234.58	0.0467
1244.22	0.05656
1253.87	0.07073
1263.51	0.07502
1273.16	0.05958
1282.8	0.04289
1292.45	0.03733
1302.09	0.03393
1311.74	0.0285
1321.38	0.02495
1331.03	0.02624
1340.67	0.03009
1350.32	0.0266
1359.96	0.01646
1369.61	0.01289
1379.25	0.0141
1388.9	0.01324
1398.54	0.01296
1408.18	0.00831
1417.83	0.00642
1427.47	0.0102
1437.12	0.02077
1446.76	0.01968
1456.41	0.01405
1466.05	0.01607
1475.7	0.01415
1485.34	0.00824
1494.99	0.00511
1504.63	0.00399
1514.28	0.00357
1523.92	0.00312
1533.57	0.00295
1543.21	0.00292
1552.86	0.00282
1562.5	0.00286
1572.15	0.00266
1581.79	0.00258
1591.44	0.00265
1601.08	0.00264
1610.73	0.00248
1620.37	0.00254
1630.01	0.00248
1639.66	0.00254
1649.3	0.00249
1658.95	0.00249
1668.59	0.00263
1678.24	0.0029
1687.88	0.00336
1697.53	0.00406
1707.17	0.0059
1716.82	0.00947
1726.46	0.01545
1736.11	0.02383
1745.75	0.04611
1755.4	0.10231
1765.04	0.11545
1774.69	0.07494
1784.33	0.0447
1793.98	0.02273
1803.62	0.01269
1813.27	0.00785
1822.91	0.00485
1832.55	0.00356
1842.2	0.00314
1851.84	0.00319
1861.49	0.00335
1871.13	0.00373
1880.78	0.00434
1890.42	0.00519
1900.07	0.00621
1909.71	0.00776
1919.36	0.01003
1929	0.01319
1938.65	0.01742
1948.29	0.023
1957.94	0.03081
1967.58	0.0411
1977.23	0.05509
1986.87	0.07393
1996.52	0.09933
2006.16	0.13242
2015.81	0.17454
2025.45	0.2256
2035.1	0.28245
2044.74	0.32276
2054.38	0.31775
2064.03	0.27524
2073.67	0.21859
2083.32	0.16705
2092.96	0.13103
2102.61	0.10916
2112.25	0.09663
2121.9	0.08679
2131.54	0.07786
2141.19	0.06734
2150.83	0.05349
2160.48	0.04124
2170.12	0.03295
2179.77	0.02688
2189.41	0.02264
2199.06	0.0208
2208.7	0.01977
2218.35	0.01816
2227.99	0.0155
2237.64	0.01259
2247.28	0.01073
2256.92	0.00911
2266.57	0.00752
2276.21	0.00635
2285.86	0.00544
2295.5	0.00478
2305.15	0.00421
2314.79	0.00359
2324.44	0.0031
2334.08	0.00252
2343.73	0.00241
2353.37	0.00209
2363.02	0.00198
2372.66	0.00166
2382.31	0.00172
2391.95	0.00162
2401.6	0.00158
2411.24	0.00157
2420.89	0.00141
2430.53	0.00138
2440.18	0.0013
2449.82	0.00136
2459.47	0.00135
2469.11	0.00152
2478.75	0.00159
2488.4	0.00171
2498.04	0.00173
2507.69	0.00188
2517.33	0.00194
2526.98	0.00192
2536.62	0.00213
2546.27	0.0023
2555.91	0.00269
2565.56	0.00311
2575.2	0.00349
2584.85	0.00374
2594.49	0.00364
2604.14	0.00341
2613.78	0.00309
2623.43	0.00279
2633.07	0.00254
2642.72	0.00231
2652.36	0.00218
2662.01	0.00201
2671.65	0.00187
2681.29	0.00157
2690.94	0.00154
2700.58	0.00154
2710.23	0.00145
2719.87	0.00167
2729.52	0.00195
2739.16	0.00238
2748.81	0.00262
2758.45	0.0027
2768.1	0.00284
2777.74	0.00294
2787.39	0.00312
2797.03	0.00326
2806.68	0.00327
2816.32	0.00337
2825.97	0.00396
2835.61	0.00463
2845.26	0.00669
2854.9	0.00819
2864.55	0.00764
2874.19	0.01102
2883.84	0.01755
2893.48	0.01837
2903.12	0.01694
2912.77	0.01941
2922.41	0.02335
2932.06	0.0285
2941.7	0.03378
2951.35	0.03702
2960.99	0.05277
2970.64	0.07247
2980.28	0.06645
2989.93	0.03509
2999.57	0.01577
3009.22	0.01131
3018.86	0.00877
3028.51	0.00749
3038.15	0.00654
3047.8	0.00512
3057.44	0.004
3067.09	0.00342
3076.73	0.00315
3086.38	0.00282
3096.02	0.00273
3105.67	0.00262
3115.31	0.0023
3124.95	0.00204
3134.6	0.00184
3144.24	0.00168
3153.89	0.00135
3163.53	0.00137
3173.18	0.001195
3182.82	0.00134
3192.47	0.00132
3202.11	0.000975
3211.76	0.0009891
3221.4	0.0007236
3231.05	0.00055
3240.69	0.0004417
3250.34	0.0003501
3259.98	0.0003674
3269.63	8.1e-05
3279.27	0.000433
3288.92	0.0001878
3298.56	0.0002371
3308.21	0.00019897
3317.85	7.6e-05
3327.49	0.00025057
3337.14	0.0001123
3346.78	0.00021333
3356.43	0.00021677
3366.07	0.00022965
3375.72	0.00022002
3385.36	0.0003863
3395.01	0.0003835
3404.65	0.0001285
3414.3	0.00026538
3423.94	0.0003634
3433.59	0.0003234
3443.23	0.000303
3452.88	0.0003998
3462.52	0.0003737
3472.17	0.0004776
3481.81	0.0006881
3491.46	0.00124
3501.1	0.00144
3510.75	0.00121
3520.39	0.0011349
3530.04	0.0009978
3539.68	0.0009816
3549.32	0.0004644
3558.97	0.0004949
3568.61	0.0004423
3578.26	0.0003041
3587.9	0.0003986
3597.55	0.0003541
3607.19	0.0003876
3616.84	0.0003534
3626.48	0.0001098
3636.13	0.00026099
3645.77	0.0003053
3655.42	0.0001021
3665.06	0.0001614
3674.71	0.0001755
3684.35	0.0002454
3694	0.0002247
3703.64	0.0001561
3713.29	0.00021864
3722.93	0.00026334
3732.58	0.0003485
3742.22	0.000209698
3751.86	0.0003351
3761.51	0.00026104
3771.15	0.00024858
3780.8	0.0004416
3790.44	0.0004443
3800.09	0.0003003
3809.73	0.0005288
3819.38	0.0005706
3829.02	0.0005249
3838.67	0.0005826
3848.31	0.0006133
3857.96	0.0006019
3867.6	0.0006751
3877.25	0.0008059
3886.89	0.0006151
3896.54	0.0006728
3906.18	0.0011389
3915.83	0.0007763
3925.47	0.0008046
3935.12	0.0009726
3944.76	0.0009016
3954.41	0.0010731
3964.05	0.0011879
3973.69	0.001199
3983.34	0.00124
3992.98	0.00153
