Infrared Spectrum: GLUTARIMIDE, 3-[[(2-OXOCYCLOHEXYL)CARBONYL]METHYL]-
Formula: C13 H17 N O4
CAS: 1148-01-2
State: SOLID (0.7 mg / 650 mg KBr DISC)
Class: COBLENTZ III
Instrument: PERKIN-ELMER 21 (GRATING)
Instrument parameters: FILTER CHANGE AT 1020 CM^-^1
Sampling: TRANSMISSION
Resolution: 4
Origin: SOUTHERN RESEARCH INSTITUTE
1/CM	TRANSMITTANCE
596.273	0.745
605.562	0.744
614.851	0.743
624.14	0.741
633.429	0.736
642.718	0.726
652.007	0.735
661.296	0.746
670.585	0.753
679.874	0.775
689.163	0.792
698.452	0.798
707.741	0.808
717.03	0.811
726.319	0.811
735.608	0.81
744.897	0.795
754.186	0.769
763.475	0.74
772.764	0.792
782.053	0.785
791.342	0.768
800.631	0.751
809.92	0.739
819.209	0.678
828.498	0.601
837.787	0.613
847.076	0.604
856.365	0.61
865.654	0.638
874.943	0.668
884.231	0.669
893.52	0.69
902.809	0.726
912.098	0.696
921.387	0.632
930.676	0.61
939.965	0.676
949.254	0.726
958.543	0.73
967.832	0.729
977.121	0.8
986.41	0.815
995.699	0.768
1004.99	0.785
1014.28	0.842
1023.57	0.822
1032.86	0.84
1042.14	0.813
1051.43	0.785
1060.72	0.827
1070.01	0.796
1079.3	0.776
1088.59	0.806
1097.88	0.791
1107.17	0.755
1116.46	0.722
1125.75	0.731
1135.03	0.708
1144.32	0.575
1153.61	0.501
1162.9	0.523
1172.19	0.534
1181.48	0.563
1190.77	0.712
1200.06	0.6
1209.35	0.488
1218.63	0.399
1227.92	0.501
1237.21	0.585
1246.5	0.544
1255.79	0.379
1265.08	0.185
1274.37	0.258
1283.66	0.369
1292.95	0.327
1302.24	0.272
1311.52	0.416
1320.81	0.522
1330.1	0.546
1339.39	0.523
1348.68	0.543
1357.97	0.504
1367.26	0.382
1376.55	0.405
1385.84	0.462
1395.13	0.554
1404.41	0.599
1413.7	0.431
1422.99	0.443
1432.28	0.456
1441.57	0.621
1450.86	0.676
1460.15	0.718
1469.44	0.756
1478.73	0.814
1488.02	0.845
1497.3	0.844
1506.59	0.828
1515.88	0.805
1525.17	0.768
1534.46	0.751
1543.75	0.714
1553.04	0.675
1562.33	0.574
1571.62	0.503
1580.91	0.384
1590.19	0.346
1599.48	0.349
1608.77	0.306
1618.06	0.265
1627.35	0.292
1636.64	0.392
1645.93	0.473
1655.22	0.488
1664.51	0.456
1673.8	0.353
1683.08	0.276
1692.37	0.188
1701.66	0.099
1710.95	0.089
1720.24	0.148
1729.53	0.238
1738.82	0.422
1748.11	0.601
1757.4	0.683
1766.68	0.721
1775.97	0.752
1785.26	0.768
1794.55	0.793
1803.84	0.825
1813.13	0.841
1822.42	0.851
1831.71	0.863
1841	0.871
1850.29	0.894
1859.57	0.898
1868.86	0.903
1878.15	0.91
1887.44	0.912
1896.73	0.917
1906.02	0.919
1915.31	0.921
1924.6	0.926
1933.89	0.927
1943.18	0.927
1952.46	0.931
1961.75	0.934
1971.04	0.937
1980.33	0.94
1989.62	0.941
1998.91	0.943
2008.2	0.944
2017.49	0.945
2026.78	0.946
2036.07	0.946
2045.35	0.945
2054.64	0.945
2063.93	0.943
2073.22	0.944
2082.51	0.945
2091.8	0.946
2101.09	0.946
2110.38	0.947
2119.67	0.947
2128.96	0.947
2138.24	0.948
2147.53	0.949
2156.82	0.949
2166.11	0.949
2175.4	0.949
2184.69	0.948
2193.98	0.948
2203.27	0.947
2212.56	0.947
2221.85	0.946
2231.13	0.945
2240.42	0.944
2249.71	0.944
2259	0.944
2268.29	0.944
2277.58	0.943
2286.87	0.943
2296.16	0.943
2305.45	0.944
2314.73	0.949
2324.02	0.957
2333.31	0.957
2342.6	0.954
2351.89	0.954
2361.18	0.955
2370.47	0.953
2379.76	0.942
2389.05	0.931
2398.34	0.929
2407.62	0.927
2416.91	0.926
2426.2	0.926
2435.49	0.925
2444.78	0.921
2454.07	0.917
2463.36	0.914
2472.65	0.913
2481.94	0.91
2491.23	0.908
2500.51	0.905
2509.8	0.904
2519.09	0.904
2528.38	0.899
2537.67	0.897
2546.96	0.894
2556.25	0.891
2565.54	0.888
2574.83	0.885
2584.12	0.882
2593.4	0.879
2602.69	0.877
2611.98	0.874
2621.27	0.873
2630.56	0.871
2639.85	0.87
2649.14	0.868
2658.43	0.867
2667.72	0.866
2677.01	0.866
2686.29	0.865
2695.58	0.865
2704.87	0.866
2714.16	0.867
2723.45	0.867
2732.74	0.866
2742.03	0.864
2751.32	0.863
2760.61	0.861
2769.9	0.859
2779.18	0.854
2788.47	0.85
2797.76	0.842
2807.05	0.824
2816.34	0.793
2825.63	0.758
2834.92	0.736
2844.21	0.712
2853.5	0.692
2862.79	0.695
2872.07	0.698
2881.36	0.695
2890.65	0.686
2899.94	0.669
2909.23	0.654
2918.52	0.638
2927.81	0.617
2937.1	0.594
2946.39	0.59
2955.67	0.594
2964.96	0.687
2974.25	0.745
2983.54	0.795
2992.83	0.809
3002.12	0.803
3011.41	0.792
3020.7	0.775
3029.99	0.761
3039.28	0.754
3048.56	0.74
3057.85	0.721
3067.14	0.683
3076.43	0.637
3085.72	0.594
3095.01	0.563
3104.3	0.561
3113.59	0.58
3122.88	0.591
3132.17	0.589
3141.45	0.583
3150.74	0.577
3160.03	0.556
3169.32	0.528
3178.61	0.499
3187.9	0.48
3197.19	0.479
3206.48	0.497
3215.77	0.517
3225.06	0.577
3234.34	0.605
3243.63	0.655
3252.92	0.699
3262.21	0.728
3271.5	0.744
3280.79	0.762
3290.08	0.785
3299.37	0.799
3308.66	0.81
3317.95	0.815
3327.23	0.812
3336.52	0.803
3345.81	0.795
3355.1	0.785
3364.39	0.761
3373.68	0.755
3382.97	0.745
3392.26	0.735
3401.55	0.726
3410.84	0.718
3420.12	0.709
3429.41	0.702
3438.7	0.702
3447.99	0.702
3457.28	0.703
3466.57	0.707
3475.86	0.711
3485.15	0.715
3494.44	0.723
3503.72	0.729
3513.01	0.732
3522.3	0.74
3531.59	0.748
3540.88	0.753
3550.17	0.764
3559.46	0.781
3568.75	0.793
3578.04	0.806
3587.33	0.827
3596.61	0.835
3605.9	0.843
3615.19	0.848
3624.48	0.855
3633.77	0.862
3643.06	0.872
3652.35	0.883
3661.64	0.888
3670.93	0.893
3680.22	0.896
3689.5	0.896
3698.79	0.897
3708.08	0.897
3717.37	0.898
3726.66	0.898
3735.95	0.9
3745.24	0.901
3754.53	0.903
3763.82	0.904
3773.11	0.904
3782.39	0.904
3791.68	0.907
3800.97	0.909
3810.26	0.907
3819.55	0.905
3828.84	0.904
3838.13	0.9
3847.42	0.897
3856.71	0.897
3866	0.897
3875.28	0.897
3884.57	0.897
3893.86	0.897
3903.15	0.897
3912.44	0.897
3921.73	0.897
3931.02	0.895
3940.31	0.894
3949.6	0.894
3958.89	0.893
3968.17	0.893
3977.46	0.892
3986.75	0.892
3996.04	0.892
4005.33	0.891
