Infrared Spectrum: INDOANILINE DYE, [1-HYDROXY-2-(2,4,6-TRIMETHYL)NAPHTHANILIDE WITH 4-AMINO-N,N-DIETHYL-3-METHYLANILINE]
Formula: C31 H33 N3 O2
CAS: 114909-96-5
State: SOLID (KBr PRESSING)
Melting point: 187-188 C
Class: COBLENTZ
Instrument: Not specified, most likely a prism, grating, or hybrid spectrometer.
Sampling: TRANSMISSION
Resolution: 4
Origin: EASTMAN KODAK COMPANY, RESEARCH LABORATORIES, ROCHESTER, N.Y.
MICROMETERS	TRANSMITTANCE
2.06	0.789
2.09511	0.778
2.13023	0.761
2.16534	0.754
2.20046	0.75
2.23557	0.75
2.27068	0.754
2.3058	0.757
2.34091	0.761
2.37602	0.764
2.41114	0.764
2.44625	0.763
2.48137	0.77
2.51648	0.778
2.55159	0.783
2.58671	0.785
2.62182	0.79
2.65693	0.799
2.69205	0.804
2.72716	0.808
2.76228	0.813
2.79739	0.818
2.8325	0.78
2.86762	0.736
2.90273	0.71
2.93784	0.675
2.97296	0.653
3.00807	0.665
3.04319	0.689
3.0783	0.728
3.11341	0.742
3.14853	0.747
3.18364	0.75
3.21876	0.752
3.25387	0.768
3.28898	0.787
3.3241	0.783
3.35921	0.777
3.39432	0.768
3.42944	0.709
3.46455	0.698
3.49967	0.738
3.53478	0.764
3.56989	0.797
3.60501	0.827
3.64012	0.839
3.67523	0.851
3.71035	0.857
3.74546	0.862
3.78058	0.867
3.81569	0.871
3.8508	0.874
3.88592	0.878
3.92103	0.879
3.95615	0.879
3.99126	0.891
4.02637	0.897
4.06149	0.898
4.0966	0.902
4.13171	0.912
4.16683	0.923
4.20194	0.928
4.23706	0.933
4.27217	0.951
4.30728	0.961
4.3424	0.965
4.37751	0.963
4.41262	0.959
4.44774	0.956
4.48285	0.956
4.51797	0.956
4.55308	0.959
4.58819	0.961
4.62331	0.965
4.65842	0.968
4.69353	0.968
4.72865	0.966
4.76376	0.966
4.79888	0.973
4.83399	0.972
4.8691	0.97
4.90422	0.97
4.93933	0.972
4.97445	0.975
5.00956	0.98
5.04467	0.98
5.07979	0.982
5.1149	0.984
5.15001	0.986
5.18513	0.989
5.22024	0.994
5.25536	0.994
5.29047	0.996
5.32558	0.996
5.3607	0.998
5.39581	1.001
5.43092	1.005
5.46604	1.017
5.50115	1.02
5.53627	1.019
5.57138	1.024
5.60649	1.031
5.64161	1.031
5.67672	1.033
5.71183	1.034
5.74695	1.036
5.78206	1.038
5.81718	1.013
5.85229	1.003
5.8874	1.019
5.92252	1.022
5.95763	0.937
5.99275	0.74
6.02786	0.559
6.06297	0.628
6.09809	0.749
6.1332	0.822
6.16831	0.794
6.20343	0.688
6.23854	0.395
6.27366	0.501
6.30877	0.344
6.34388	0.383
6.379	0.625
6.41411	0.716
6.44922	0.731
6.48434	0.722
6.51945	0.705
6.55457	0.66
6.58968	0.601
6.62479	0.554
6.65991	0.538
6.69502	0.515
6.73013	0.536
6.76525	0.552
6.80036	0.515
6.83548	0.348
6.87059	0.414
6.9057	0.404
6.94082	0.357
6.97593	0.343
7.01105	0.364
7.04616	0.433
7.08127	0.587
7.11639	0.679
7.1515	0.567
7.18661	0.487
7.22173	0.339
7.25684	0.445
7.29196	0.533
7.32707	0.506
7.36218	0.496
7.3973	0.463
7.43241	0.362
7.46752	0.418
7.50264	0.529
7.53775	0.421
7.57287	0.308
7.60798	0.264
7.64309	0.303
7.67821	0.405
7.71332	0.501
7.74844	0.547
7.78355	0.562
7.81866	0.564
7.85378	0.567
7.88889	0.567
7.924	0.425
7.95912	0.242
7.99423	0.231
8.02935	0.324
8.06446	0.466
8.09957	0.562
8.13469	0.627
8.1698	0.667
8.20491	0.693
8.24003	0.71
8.27514	0.728
8.31026	0.731
8.34537	0.717
8.38048	0.641
8.4156	0.557
8.45071	0.494
8.48582	0.552
8.52094	0.641
8.55605	0.705
8.59117	0.735
8.62628	0.745
8.66139	0.743
8.69651	0.752
8.73162	0.778
8.76674	0.789
8.80185	0.796
8.83696	0.785
8.87208	0.761
8.90719	0.745
8.9423	0.752
8.97742	0.806
9.01253	0.825
9.04765	0.844
9.08276	0.839
9.11787	0.808
9.15299	0.77
9.1881	0.756
9.22321	0.757
9.25833	0.639
9.29344	0.472
9.32856	0.29
9.36367	0.259
9.39878	0.325
9.4339	0.459
9.46901	0.583
9.50412	0.667
9.53924	0.719
9.57435	0.738
9.60947	0.738
9.64458	0.722
9.67969	0.67
9.71481	0.599
9.74992	0.609
9.78504	0.649
9.82015	0.714
9.85526	0.75
9.89038	0.771
9.92549	0.775
9.9606	0.782
9.99572	0.768
10.0308	0.736
10.0659	0.719
10.1011	0.717
10.1362	0.757
10.1713	0.787
10.2064	0.799
10.2415	0.801
10.2766	0.804
10.3117	0.81
10.3469	0.811
10.382	0.811
10.4171	0.813
10.4522	0.815
10.4873	0.815
10.5224	0.811
10.5575	0.799
10.5927	0.771
10.6278	0.756
10.6629	0.745
10.698	0.726
10.7331	0.745
10.7682	0.763
10.8033	0.782
10.8384	0.799
10.8736	0.815
10.9087	0.831
10.9438	0.844
10.9789	0.851
11.014	0.857
11.0491	0.858
11.0842	0.86
11.1194	0.862
11.1545	0.862
11.1896	0.862
11.2247	0.862
11.2598	0.869
11.2949	0.872
11.33	0.876
11.3652	0.885
11.4003	0.883
11.4354	0.886
11.4705	0.888
11.5056	0.89
11.5407	0.85
11.5758	0.829
11.611	0.764
11.6461	0.668
11.6812	0.686
11.7163	0.709
11.7514	0.712
11.7865	0.721
11.8216	0.733
11.8567	0.759
11.8919	0.782
11.927	0.796
11.9621	0.79
11.9972	0.803
12.0323	0.817
12.0674	0.848
12.1025	0.853
12.1377	0.839
12.1728	0.831
12.2079	0.82
12.243	0.82
12.2781	0.829
12.3132	0.834
12.3483	0.825
12.3835	0.799
12.4186	0.724
12.4537	0.602
12.4888	0.55
12.5239	0.592
12.559	0.66
12.5941	0.696
12.6293	0.726
12.6644	0.738
12.6995	0.747
12.7346	0.75
12.7697	0.752
12.8048	0.702
12.8399	0.639
12.875	0.672
12.9102	0.705
12.9453	0.74
12.9804	0.761
13.0155	0.761
13.0506	0.717
13.0857	0.656
13.1208	0.621
13.156	0.606
13.1911	0.587
13.2262	0.567
13.2613	0.54
13.2964	0.533
13.3315	0.588
13.3666	0.646
13.4018	0.693
13.4369	0.702
13.472	0.717
13.5071	0.743
13.5422	0.754
13.5773	0.759
13.6124	0.763
13.6476	0.761
13.6827	0.761
13.7178	0.754
13.7529	0.731
13.788	0.716
13.8231	0.717
13.8582	0.726
13.8933	0.726
13.9285	0.722
13.9636	0.716
13.9987	0.702
14.0338	0.682
14.0689	0.679
14.104	0.679
14.1391	0.675
14.1743	0.663
14.2094	0.641
14.2445	0.621
14.2796	0.602
14.3147	0.574
14.3498	0.554
14.3849	0.548
14.4201	0.559
14.4552	0.573
14.4903	0.588
14.5254	0.597
14.5605	0.625
14.5956	0.644
14.6307	0.649
14.6659	0.651
14.701	0.653
14.7361	0.653
14.7712	0.653
14.8063	0.653
14.8414	0.651
14.8765	0.642
14.9116	0.632
14.9468	0.608
14.9819	0.653
15.017	0.651
15.0521	0.623
15.0872	0.592
15.1223	0.566
15.1574	0.552
15.1926	0.548
15.2277	0.547
15.2628	0.545
15.2979	0.543
15.333	0.543
15.3681	0.541
15.4032	0.54
15.4384	0.536
15.4735	0.533
15.5086	0.527
15.5437	0.524
15.5788	0.519
15.6139	0.513
15.649	0.515
15.6842	0.51
15.7193	0.505
15.7544	0.501
15.7895	0.494
15.8246	0.489
15.8597	0.477
15.8948	0.465
15.9299	0.458
15.9651	0.454
16.0002	0.452
