Infrared Spectrum: m-Chlorocarbanilic acid, ethyl lactate ester
Formula: C12 H14 Cl N O4
CAS: 1149-42-4
State: SOLUTION (10% CCl4 FOR 3800-1330, 10% CS2 FOR 1330-400)
Class: COBLENTZ III
Instrument: BECKMAN IR-9 (GRATING)
Instrument parameters: ORDER CHANGES: 670, 1200, 2000 CM^-^1
Sampling: TRANSMISSION
Path length: 0.011 CM, 0.011 CM
Resolution: 2
Origin: DOW CHEMICAL COMPANY
1/CM	TRANSMITTANCE
3800	0.9039
3791	0.9041
3782	0.9043
3773	0.9046
3764	0.9049
3755	0.9051
3746	0.9049
3737	0.9045
3728	0.9032
3719	0.9005
3710	0.8982
3701	0.8973
3692	0.8968
3683	0.8982
3674	0.8989
3665	0.8982
3656	0.896
3647	0.8932
3638	0.889
3629	0.8854
3620	0.8841
3611	0.8889
3602	0.8903
3593	0.8775
3584	0.8632
3575	0.8712
3566	0.8717
3557	0.8706
3548	0.8681
3539	0.8657
3530	0.8635
3521	0.8599
3512	0.8536
3503	0.8486
3494	0.8466
3485	0.8437
3476	0.8386
3467	0.8274
3458	0.7504
3449	0.5794
3440	0.5305
3431	0.6442
3422	0.7225
3413	0.7268
3404	0.7155
3395	0.6932
3386	0.6484
3377	0.5906
3368	0.5434
3359	0.441
3350	0.4012
3341	0.3562
3332	0.3523
3323	0.3694
3314	0.4145
3305	0.5218
3296	0.5768
3287	0.6128
3278	0.6442
3269	0.694
3260	0.7324
3251	0.7633
3242	0.7797
3233	0.7915
3224	0.8018
3215	0.804
3206	0.7972
3197	0.7818
3188	0.7741
3179	0.7897
3170	0.8101
3161	0.8146
3152	0.8135
3143	0.7919
3134	0.7611
3125	0.7539
3116	0.7645
3107	0.7755
3098	0.7715
3089	0.7475
3080	0.7482
3071	0.7672
3062	0.7715
3053	0.7818
3044	0.7915
3035	0.788
3026	0.7768
3017	0.7441
3008	0.6267
2999	0.4717
2990	0.4082
2981	0.43
2972	0.611
2963	0.6441
2954	0.6748
2945	0.585
2936	0.6575
2927	0.7481
2918	0.74
2909	0.7271
2900	0.7644
2891	0.7905
2882	0.7768
2873	0.7815
2864	0.8128
2855	0.846
2846	0.8531
2837	0.8523
2828	0.8539
2819	0.8571
2810	0.8592
2801	0.8589
2792	0.8582
2783	0.8574
2774	0.8566
2765	0.8561
2756	0.8566
2747	0.857
2738	0.8608
2729	0.8661
2720	0.8734
2711	0.8759
2702	0.8778
2693	0.8793
2684	0.8795
2675	0.8796
2666	0.8799
2657	0.88
2648	0.8799
2639	0.8799
2630	0.8793
2621	0.878
2612	0.8765
2603	0.8756
2594	0.8782
2585	0.8808
2576	0.8804
2567	0.8794
2558	0.8785
2549	0.8788
2540	0.8802
2531	0.8821
2522	0.8828
2513	0.8824
2504	0.8816
2495	0.8794
2486	0.8773
2477	0.8755
2468	0.874
2459	0.8728
2450	0.8716
2441	0.8704
2432	0.8693
2423	0.8688
2414	0.8684
2405	0.8684
2396	0.8691
2387	0.8698
2378	0.8694
2369	0.8689
2360	0.8684
2351	0.8675
2342	0.8668
2333	0.8663
2324	0.8656
2315	0.865
2306	0.8642
2297	0.8634
2288	0.8625
2279	0.8623
2270	0.8628
2261	0.8633
2252	0.8639
2243	0.8663
2234	0.8692
2225	0.8714
2216	0.8734
2207	0.8755
2198	0.8771
2189	0.8775
2180	0.8774
2171	0.8767
2162	0.8761
2153	0.8756
2144	0.8754
2135	0.8746
2126	0.8738
2117	0.8733
2108	0.8728
2099	0.8721
2090	0.8718
2081	0.8712
2072	0.8706
2063	0.87
2054	0.8692
2045	0.8694
2036	0.8696
2027	0.8698
2018	0.87
2009	0.8701
2000	0.8703
1991	0.8727
1982	0.8743
1973	0.875
1964	0.8754
1955	0.8734
1946	0.8639
1937	0.8548
1928	0.8546
1919	0.8588
1910	0.8618
1901	0.8612
1892	0.8578
1883	0.851
1874	0.8381
1865	0.8218
1856	0.8018
1847	0.7831
1838	0.7742
1829	0.7676
1820	0.7615
1811	0.7415
1802	0.7167
1793	0.6876
1784	0.5979
1775	0.4518
1766	0.1278
1757	0.0005
1748	0.0022
1739	0.0042
1730	0.0102
1721	0.0437
1712	0.1022
1703	0.3129
1694	0.523
1685	0.6644
1676	0.723
1667	0.7487
1658	0.7531
1649	0.745
1640	0.7256
1631	0.6842
1622	0.5664
1613	0.3664
1604	0.0538
1595	0.0162
1586	0.1973
1577	0.4112
1568	0.381
1559	0.2758
1550	0.0792
1541	0.0163
1532	0.016
1523	0.0307
1514	0.1232
1505	0.3894
1496	0.4398
1487	0.0896
1478	0.2959
1469	0.4052
1460	0.3439
1451	0.3407
1442	0.4099
1433	0.4337
1424	0.1808
1415	0.2521
1406	0.2609
1397	0.4116
1388	0.4477
1379	0.2435
1370	0.3714
1361	0.5833
1352	0.4862
1343	0.5541
1334	0.5597
1325	0.4658
1316	0.3403
1307	0.2872
1298	0.3816
1289	0.4428
1280	0.0924
1271	0.313
1262	0.4231
1253	0.3394
1244	0.2293
1235	0.0644
1226	0.0191
1217	0.0003
1208	0.0072
1199	0.026
1190	0.0912
1181	0.4131
1172	0.438
1163	0.5535
1154	0.5668
1145	0.309
1136	0.1202
1127	0.1503
1118	0.0267
1109	0.0229
1100	0.0502
1091	0.2149
1082	0.318
1073	0.4383
1064	0.2314
1055	0.5347
1046	0.6487
1037	0.5319
1028	0.4151
1019	0.4296
1010	0.6336
1001	0.6848
992	0.8571
983	0.8835
974	0.8827
965	0.8804
956	0.8897
947	0.8237
938	0.6987
929	0.8214
920	0.7918
911	0.6915
902	0.6233
893	0.7071
884	0.5162
875	0.4168
866	0.391
857	0.5197
848	0.7861
839	0.8475
830	0.8706
821	0.8606
812	0.8341
803	0.8055
794	0.7542
785	0.5249
776	0.1263
767	0.3462
758	0.6358
749	0.6205
740	0.7075
731	0.7534
722	0.7468
713	0.6661
704	0.4793
695	0.4887
686	0.4103
677	0.5718
668	0.6728
659	0.6372
650	0.6553
641	0.6874
632	0.7097
623	0.7314
614	0.7585
605	0.783
596	0.7898
587	0.7933
578	0.7851
569	0.7756
560	0.7571
551	0.7274
542	0.7053
533	0.7036
524	0.7346
515	0.7711
506	0.7878
497	0.7935
488	0.8041
479	0.8043
470	0.7884
461	0.7478
452	0.6574
443	0.5157
434	0.5352
425	0.463
416	0.2565
407	0.2439
