Infrared Spectrum: METHYLPHOSPHONOSELENOIC ACID, o,o-DIBUTYL ESTER
Formula: C9 H21 O2 P Se
CAS: 114945-29-8
State: LIQUID
Class: COBLENTZ
Instrument: Not specified, most likely a prism, grating, or hybrid spectrometer.
Sampling: TRANSMISSION
Path length: LIQUID FILM BETWEEN KBr PLATES
Resolution: 4
Origin: G. A. M. S.
1/CM	TRANSMITTANCE
599.824	0.812
609	0.812
618.177	0.812
627.353	0.812
636.53	0.817
645.706	0.823
654.883	0.826
664.059	0.822
673.236	0.819
682.412	0.817
691.589	0.797
700.765	0.743
709.942	0.628
719.118	0.595
728.295	0.642
737.471	0.651
746.648	0.621
755.824	0.5
765	0.513
774.177	0.67
783.353	0.642
792.53	0.628
801.706	0.696
810.883	0.71
820.059	0.731
829.236	0.773
838.412	0.796
847.589	0.8
856.765	0.796
865.942	0.777
875.118	0.713
884.295	0.636
893.471	0.496
902.648	0.271
911.824	0.297
921	0.365
930.177	0.631
939.353	0.673
948.53	0.631
957.706	0.516
966.883	0.395
976.059	0.248
985.236	0.32
994.412	0.36
1003.59	0.319
1012.77	0.277
1021.94	0.222
1031.12	0.251
1040.29	0.319
1049.47	0.388
1058.65	0.361
1067.82	0.346
1077	0.501
1086.18	0.653
1095.35	0.722
1104.53	0.74
1113.71	0.716
1122.88	0.714
1132.06	0.746
1141.24	0.742
1150.41	0.739
1159.59	0.769
1168.77	0.785
1177.94	0.811
1187.12	0.817
1196.29	0.819
1205.47	0.819
1214.65	0.811
1223.82	0.786
1233	0.759
1242.18	0.783
1251.35	0.788
1260.53	0.788
1269.71	0.791
1278.88	0.805
1288.06	0.785
1297.24	0.622
1306.41	0.69
1315.59	0.799
1324.77	0.815
1333.94	0.817
1343.12	0.812
1352.29	0.817
1361.47	0.814
1370.65	0.8
1379.82	0.719
1389	0.73
1398.18	0.751
1407.35	0.728
1416.53	0.753
1425.71	0.769
1434.88	0.756
1444.06	0.748
1453.24	0.705
1462.41	0.611
1471.59	0.621
1480.77	0.739
1489.94	0.799
1499.12	0.811
1508.29	0.812
1517.47	0.812
1526.65	0.814
1535.82	0.814
1545	0.815
1554.18	0.817
1563.35	0.817
1572.53	0.819
1581.71	0.817
1590.88	0.817
1600.06	0.817
1609.24	0.815
1618.41	0.814
1627.59	0.812
1636.77	0.814
1645.94	0.814
1655.12	0.814
1664.29	0.814
1673.47	0.812
1682.65	0.812
1691.82	0.814
1701	0.814
1710.18	0.814
1719.35	0.815
1728.53	0.817
1737.71	0.819
1746.88	0.82
1756.06	0.822
1765.24	0.823
1774.41	0.823
1783.59	0.825
1792.77	0.825
1801.94	0.825
1811.12	0.825
1820.29	0.825
1829.47	0.826
1838.65	0.826
1847.82	0.826
1857	0.826
1866.18	0.826
1875.35	0.826
1884.53	0.828
1893.71	0.828
1902.88	0.829
1912.06	0.829
1921.24	0.829
1930.41	0.828
1939.59	0.829
1948.77	0.828
1957.94	0.819
1967.12	0.823
1976.29	0.835
1985.47	0.834
1994.65	0.831
2003.82	0.829
2013	0.829
2022.18	0.8287
2031.35	0.828
2040.53	0.828
2049.71	0.828
2058.88	0.828
2068.06	0.828
2077.24	0.828
2086.41	0.828
2095.59	0.828
2104.77	0.8283
2113.94	0.829
2123.12	0.8287
2132.29	0.828
2141.47	0.828
2150.65	0.829
2159.82	0.829
2169	0.829
2178.18	0.829
2187.35	0.829
2196.53	0.829
2205.71	0.829
2214.88	0.829
2224.06	0.8286
2233.24	0.829
2242.41	0.8286
2251.59	0.829
2260.77	0.829
2269.94	0.829
2279.12	0.8286
2288.29	0.828
2297.47	0.826
2306.65	0.8241
2315.82	0.8226
2325	0.8196
2334.18	0.814
2343.35	0.809
2352.53	0.806
2361.71	0.8054
2370.88	0.8099
2380.06	0.814
2389.24	0.819
2398.41	0.82
2407.59	0.823
2416.77	0.823
2425.94	0.824
2435.12	0.826
2444.29	0.827
2453.47	0.828
2462.65	0.828
2471.82	0.8285
2481	0.829
2490.18	0.829
2499.35	0.829
2508.53	0.829
2517.71	0.829
2526.88	0.829
2536.06	0.829
2545.24	0.8284
2554.41	0.828
2563.59	0.828
2572.77	0.826
2581.94	0.826
2591.12	0.8254
2600.29	0.825
2609.47	0.823
2618.65	0.823
2627.82	0.823
2637	0.822
2646.18	0.8208
2655.35	0.8194
2664.53	0.819
2673.71	0.8177
2682.88	0.817
2692.06	0.817
2701.24	0.815
2710.41	0.815
2719.59	0.814
2728.77	0.812
2737.94	0.8113
2747.12	0.8097
2756.29	0.808
2765.47	0.8053
2774.65	0.8036
2783.82	0.802
2793	0.7976
2802.18	0.7946
2811.35	0.7859
2820.53	0.7779
2829.71	0.7646
2838.88	0.7422
2848.06	0.6935
2857.24	0.6536
2866.41	0.5879
2875.59	0.5568
2884.77	0.546
2893.94	0.5589
2903.12	0.5602
2912.29	0.5402
2921.47	0.4981
2930.65	0.4531
2939.82	0.4054
2949	0.3583
2958.18	0.3382
2967.35	0.334
2976.53	0.3477
2985.71	0.4432
2994.88	0.5372
3004.06	0.6241
3013.24	0.7303
3022.41	0.7623
3031.59	0.7793
3040.77	0.7877
3049.94	0.7985
3059.12	0.8047
3068.29	0.8089
3077.47	0.811
3086.65	0.812
3095.82	0.814
3105	0.814
3114.18	0.815
3123.35	0.815
3132.53	0.815
3141.71	0.815
3150.88	0.817
3160.06	0.817
3169.24	0.817
3178.41	0.817
3187.59	0.817
3196.77	0.817
3205.94	0.817
3215.12	0.817
3224.29	0.817
3233.47	0.817
3242.65	0.817
3251.82	0.817
3261	0.817
3270.18	0.817
3279.35	0.817
3288.53	0.817
3297.71	0.817
3306.88	0.817
3316.06	0.817
3325.24	0.817
3334.41	0.817
3343.59	0.817
3352.77	0.817
3361.94	0.817
3371.12	0.817
3380.29	0.817
3389.47	0.817
3398.65	0.8169
3407.82	0.815
3417	0.815
3426.18	0.815
3435.35	0.815
3444.53	0.815
3453.71	0.815
3462.88	0.815
3472.06	0.815
3481.24	0.815
3490.41	0.8152
3499.59	0.8168
3508.77	0.815
3517.94	0.815
3527.12	0.815
3536.29	0.815
3545.47	0.815
3554.65	0.815
3563.82	0.815
3573	0.817
3582.18	0.817
3591.35	0.817
3600.53	0.8167
3609.71	0.817
3618.88	0.817
3628.06	0.817
3637.24	0.817
3646.41	0.817
3655.59	0.817
3664.77	0.817
3673.94	0.817
3683.12	0.819
3692.29	0.819
3701.47	0.819
3710.65	0.82
3719.82	0.82
3729	0.822
3738.18	0.822
3747.35	0.822
3756.53	0.822
3765.71	0.822
3774.88	0.822
3784.06	0.822
3793.24	0.822
3802.41	0.82
3811.59	0.82
3820.77	0.82
3829.94	0.82
3839.12	0.82
3848.29	0.82
3857.47	0.82
3866.65	0.82
3875.82	0.82
3885	0.82
3894.18	0.82
3903.35	0.82
3912.53	0.82
3921.71	0.82
3930.88	0.82
3940.06	0.82
3949.24	0.82
3958.41	0.82
3967.59	0.822
3976.77	0.823
3985.94	0.822
