Infrared Spectrum: Paramethadione
Formula: C 7 H 11 N O 3
CAS: 115-67-3
State: gas
Instrument: HP-GC/MS/IRD
Origin: NIST Mass Spectrometry Data Center
1/CM	ABSORBANCE
550	0.001356
562	0.0008814
574	0.0005198
586	0.0001356
598	2.26e-05
610	0.0022148
622	0.005876
634	0.0031188
646	0.0005876
658	0.0002712
670	0.000452
682	0.0021696
694	0.003277
706	0.0010622
718	0
730	0.0001808
742	0.000904
754	0.0030962
766	0.007006
778	0.0057404
790	0.0018984
802	0.0008814
814	0.0004972
826	0.0001808
838	0.0002712
850	0.0006328
862	0.000904
874	0.0006328
886	0.0003616
898	0.0004972
910	0.0010848
922	0.002034
934	0.0022374
946	0.00452
958	0.0061698
970	0.0032996
982	0.0024182
994	0.0047686
1006	0.0093564
1018	0.0169274
1030	0.0270974
1042	0.0226678
1054	0.013108
1066	0.0147804
1078	0.0168596
1090	0.0300128
1102	0.0326344
1114	0.0120006
1126	0.004633
1138	0.0053562
1150	0.0074128
1162	0.0086106
1174	0.0104864
1186	0.0132662
1198	0.0115486
1210	0.0060794
1222	0.0050398
1234	0.0055822
1246	0.0056048
1258	0.0089044
1270	0.0176506
1282	0.019436
1294	0.0128368
1306	0.0113226
1318	0.0138538
1330	0.0135826
1342	0.0117294
1354	0.009605
1366	0.012317
1378	0.023165
1390	0.0423298
1402	0.040454
1414	0.0206112
1426	0.0237978
1438	0.0463074
1450	0.0561384
1462	0.035143
1474	0.0167014
1486	0.0095598
1498	0.0071642
1510	0.0068704
1522	0.0055144
1534	0.003955
1546	0.0032318
1558	0.0025538
1570	0.002034
1582	0.0017402
1594	0.0014916
1606	0.0014238
1618	0.0013786
1630	0.0013108
1642	0.0015594
1654	0.002034
1666	0.0023278
1678	0.0028024
1690	0.0036386
1702	0.004972
1714	0.0086332
1726	0.0164528
1738	0.0452678
1750	0.154742
1762	0.226
1774	0.0983552
1786	0.0212892
1798	0.0126786
1810	0.0185772
1822	0.0583984
1834	0.0978806
1846	0.051189
1858	0.0112548
1870	0.0052658
1882	0.0034578
1894	0.0022374
1906	0.0014238
1918	0.00113
1930	0.0011526
1942	0.0014238
1954	0.0020114
1966	0.0021244
1978	0.0014916
1990	0.000904
2002	0.0007458
2014	0.0006554
2026	0.000565
2038	0.000565
2050	0.0004972
2062	0.0003842
2074	0.0003164
2086	0.0002938
2098	0.0003616
2110	0.0004068
2122	0.0005424
2134	0.0006102
2146	0.0004746
2158	0.0004294
2170	0.0005198
2182	0.0008136
2194	0.0009718
2206	0.0007006
2218	0.0003616
2230	0.0003164
2242	0.0003842
2254	0.0003842
2266	0.0003616
2278	0.0004068
2290	0.0003842
2302	0.000339
2314	0.0002938
2326	0.000226
2338	0.000226
2350	0.0002486
2362	0.0003164
2374	0.0004746
2386	0.0005424
2398	0.0004068
2410	0.000339
2422	0.0003616
2434	0.0003616
2446	0.0005198
2458	0.000565
2470	0.0004972
2482	0.0003842
2494	0.0002938
2506	0.000226
2518	0.0002486
2530	0.000226
2542	0.0001582
2554	0.000113
2566	4.52e-05
2578	0
2590	6.78e-05
2602	6.78e-05
2614	9.04e-05
2626	9.04e-05
2638	0.000113
2650	0.0001808
2662	0.0002712
2674	0.0002938
2686	0.000226
2698	0.0001808
2710	0.000226
2722	0.0002034
2734	0.0002034
2746	0.0002034
2758	0.0002938
2770	0.0003842
2782	0.0003616
2794	0.000452
2806	0.0005198
2818	0.0007006
2830	0.0009266
2842	0.0011752
2854	0.0016498
2866	0.0023052
2878	0.003503
2890	0.0054014
2902	0.0059212
2914	0.0055596
2926	0.008023
2938	0.012882
2950	0.0155714
2962	0.0129272
2974	0.0137408
2986	0.020114
2998	0.014238
3010	0.0048364
3022	0.0017854
3034	0.0011526
3046	0.0011526
3058	0.0010622
3070	0.0010848
3082	0.00113
3094	0.0009718
3106	0.0007458
3118	0.0006554
3130	0.000565
3142	0.000452
3154	0.0003842
3166	0.0003164
3178	0.0002938
3190	0.0002938
3202	0.0002712
3214	0.0002486
3226	0.0001808
3238	0.000113
3250	9.04e-05
3262	6.78e-05
3274	6.78e-05
3286	0.000113
3298	6.78e-05
3310	0
3322	2.26e-05
3334	2.26e-05
3346	6.78e-05
3358	2.26e-05
3370	4.52e-05
3382	4.52e-05
3394	2.26e-05
3406	4.52e-05
3418	9.04e-05
3430	4.52e-05
3442	9.04e-05
3454	6.78e-05
3466	0.0001356
3478	0.0002712
3490	0.0004972
3502	0.0008136
3514	0.0008588
3526	0.0006328
3538	0.0004746
3550	0.0004746
3562	0.0006328
3574	0.00113
3586	0.0014238
3598	0.0008362
3610	0.0003164
3622	0.0002712
3634	0.0003842
3646	0.000791
3658	0.0009266
3670	0.0006554
3682	0.0003842
3694	0.000226
3706	0.0001808
3718	0.000113
3730	0.000113
3742	0.0001356
3754	0.0001582
3766	0.000113
3778	0.0001582
3790	0.0001356
3802	9.04e-05
3814	0.000113
3826	0.000113
3838	0.0001356
