Infrared Spectrum: Endosulfan
Formula: C 9 H 6 Cl 6 O 3 S
CAS: 115-29-7
State: gas
Instrument: HP-GC/MS/IRD
Origin: NIST Mass Spectrometry Data Center
1/CM	ABSORBANCE
550	0.0010076
562	0.0002992
574	0.0009966
586	0.0032296
598	0.00033
610	0.0010428
622	0.0031856
634	0.0010582
646	0.0014564
658	0.0037884
670	0.0126258
682	0.004741
694	0.0040414
706	0.0009284
718	0.0010252
730	0.0018832
742	0.0112816
754	0.01705
766	0.0031856
778	0.0039358
790	0.0047366
802	0.0010142
814	0.000374
826	0.000143
838	0.000737
850	0.0028666
862	0.0050974
874	0.0023386
886	0.001551
898	0.001188
910	0.0023342
922	0.0019272
934	0.0013112
946	0.001881
958	0.0030184
970	0.0049346
982	0.0174174
994	0.0162668
1006	0.0170456
1018	0.0090046
1030	0.0032802
1042	0.0029348
1054	0.0045188
1066	0.0051282
1078	0.0040414
1090	0.0040238
1102	0.0037004
1114	0.0010648
1126	0.0006512
1138	0.000902
1150	0.0018898
1162	0.0039754
1174	0.0022132
1186	0.0010318
1198	0.003421
1210	0.016082
1222	0.0029216
1234	0.0010142
1246	0.0015026
1258	0.0027346
1270	0.0040062
1282	0.0012738
1294	0.0004752
1306	0.0003278
1318	0.000253
1330	0.0003696
1342	0.0004466
1354	0.0003982
1366	0.0004048
1378	0.000418
1390	0.0001958
1402	6.82e-05
1414	8.58e-05
1426	0.0001078
1438	7.92e-05
1450	0.0001628
1462	0.0004444
1474	0.0004268
1486	0.0008382
1498	0.0001694
1510	4.4e-05
1522	0
1534	2.86e-05
1546	5.06e-05
1558	0.00011
1570	0.0002684
1582	0.000528
1594	0.0024134
1606	0.0029986
1618	0.00033
1630	0.0001232
1642	6.82e-05
1654	5.28e-05
1666	7.48e-05
1678	3.96e-05
1690	3.3e-05
1702	3.08e-05
1714	1.76e-05
1726	2.2e-05
1738	3.08e-05
1750	2.2e-05
1762	4.4e-05
1774	6.16e-05
1786	6.6e-05
1798	3.96e-05
1810	4.62e-05
1822	7.7e-05
1834	9.02e-05
1846	0.0001254
1858	9.9e-05
1870	7.7e-05
1882	0.0001144
1894	0.0001562
1906	0.000165
1918	0.000143
1930	0.000121
1942	0.000143
1954	0.0001694
1966	0.0001694
1978	0.0001584
1990	0.000132
2002	0.0001342
2014	0.0001122
2026	0.0001364
2038	0.0001452
2050	0.0001254
2062	0.0001342
2074	0.0001386
2086	0.000132
2098	0.0001364
2110	0.0001628
2122	0.0001628
2134	0.0001584
2146	0.0001452
2158	0.0001628
2170	0.000143
2182	0.000176
2194	0.0001606
2206	0.0001584
2218	0.000143
2230	0.0001804
2242	0.000187
2254	0.000154
2266	0.0001386
2278	0.0001584
2290	0.000154
2302	0.0001386
2314	0.0001364
2326	0.0001496
2338	0.000165
2350	0.0001848
2362	0.0001804
2374	0.0001716
2386	0.0001848
2398	0.0001782
2410	0.000297
2422	0.0001628
2434	0.000165
2446	0.0001496
2458	0.0001518
2470	0.0001782
2482	0.0001452
2494	0.0001936
2506	0.0001606
2518	0.0001628
2530	0.0001848
2542	0.000132
2554	0.0001408
2566	0.0001518
2578	0.000165
2590	0.000143
2602	0.0001628
2614	0.0001606
2626	0.0001628
2638	0.000176
2650	0.0001518
2662	0.0001628
2674	0.000154
2686	0.0001562
2698	0.000132
2710	0.0001716
2722	0.0001606
2734	0.0001584
2746	0.0001738
2758	0.000165
2770	0.0001848
2782	0.0001826
2794	0.000176
2806	0.000209
2818	0.0001914
2830	0.0001848
2842	0.0002332
2854	0.0002156
2866	0.0001958
2878	0.0002552
2890	0.0003124
2902	0.0006292
2914	0.0006644
2926	0.000374
2938	0.000616
2950	0.0007766
2962	0.0007854
2974	0.001144
2986	0.0015554
2998	0.0006952
3010	0.0002376
3022	0.000187
3034	0.0001716
3046	0.0001144
3058	0.0001738
3070	0.0001518
3082	0.0001716
3094	0.0001672
3106	0.0001782
3118	0.0001562
3130	0.0001452
3142	0.000198
3154	0.000154
3166	0.0001628
3178	0.000187
3190	0.000176
3202	0.0002024
3214	0.0002574
3226	0.0002398
3238	0.0001936
3250	0.0002156
3262	0.0001892
3274	0.0002442
3286	0.000209
3298	0.0001958
3310	0.0001364
3322	0.0002156
3334	0.0002002
3346	0.0002134
3358	0.0001782
3370	0.0002002
3382	0.0002024
3394	0.0002134
3406	0.0002024
3418	0.0002464
3430	0.0002222
3442	0.0002222
3454	0.0002156
3466	0.0002508
3478	0.0002244
3490	0.000198
3502	0.0002134
3514	0.0002486
3526	0.0001958
3538	0.000253
3550	0.0003036
3562	0.0003124
3574	0.0002662
3586	0.0002706
3598	0.000253
3610	0.0002948
3622	0.0002618
3634	0.0002992
3646	0.0002222
3658	0.0002816
3670	0.0002552
3682	0.000253
3694	0.0003234
3706	0.0003102
3718	0.0002662
3730	0.000297
3742	0.0003498
3754	0.0003014
3766	0.0003212
3778	0.000297
3790	0.0002816
3802	0.000253
3814	0.000308
3826	0.0003212
3838	0.000275
