Infrared Spectrum: BICYCLO[2.2.1]-5-HEPTENE-2,3-DICARBOXYLIC ACID, 1,4,5,6,7,7-HEXACHLORO-
Formula: C9 H4 Cl6 O4
CAS: 115-28-6
State: SOLID (KBr DISC)
Class: COBLENTZ III
Instrument: PERKIN-ELMER 283
Sampling: TRANSMISSION
Resolution: 4
Origin: PERKIN-ELMER
1/CM	TRANSMITTANCE
202.922	0
212.662	0
222.403	0
232.143	0.098
241.883	0.262
251.623	0.401
261.364	0.549
271.104	0.657
280.844	0.692
290.585	0.719
300.325	0.794
310.065	0.826
319.805	0.831
329.546	0.824
339.286	0.835
349.026	0.86
358.767	0.858
368.507	0.813
378.247	0.752
387.987	0.793
397.728	0.833
407.468	0.829
417.208	0.836
426.949	0.886
436.689	0.902
446.429	0.899
456.169	0.878
465.91	0.875
475.65	0.877
485.39	0.904
495.131	0.921
504.871	0.923
514.611	0.924
524.351	0.912
534.092	0.886
543.832	0.875
553.572	0.861
563.313	0.88
573.053	0.86
582.793	0.776
592.533	0.705
602.274	0.658
612.014	0.648
621.754	0.662
631.495	0.738
641.235	0.815
650.975	0.644
660.716	0.798
670.456	0.852
680.196	0.826
689.936	0.882
699.677	0.914
709.417	0.893
719.157	0.882
728.898	0.873
738.638	0.857
748.378	0.861
758.118	0.855
767.859	0.858
777.599	0.838
787.339	0.811
797.08	0.856
806.82	0.802
816.56	0.641
826.3	0.711
836.041	0.723
845.781	0.73
855.521	0.705
865.262	0.652
875.002	0.583
884.742	0.51
894.482	0.508
904.223	0.609
913.963	0.547
923.703	0.729
933.444	0.799
943.184	0.834
952.924	0.858
962.664	0.86
972.405	0.826
982.145	0.834
991.885	0.884
1001.63	0.875
1011.37	0.849
1021.11	0.798
1030.85	0.732
1040.59	0.604
1050.33	0.623
1060.07	0.556
1069.81	0.5751
1079.55	0.821
1089.29	0.865
1099.03	0.827
1108.77	0.785
1118.51	0.838
1128.25	0.88
1137.99	0.871
1147.73	0.844
1157.47	0.811
1167.21	0.725
1176.95	0.543
1186.69	0.712
1196.43	0.684
1206.17	0.584
1215.91	0.452
1225.65	0.459
1235.39	0.358
1245.13	0.415
1254.87	0.447
1264.61	0.583
1274.35	0.608
1284.09	0.707
1293.83	0.716
1303.57	0.798
1313.31	0.78
1323.06	0.667
1332.8	0.61
1342.54	0.739
1352.28	0.822
1362.02	0.842
1371.76	0.815
1381.5	0.761
1391.24	0.699
1400.98	0.556
1410.72	0.423
1420.46	0.42
1430.2	0.441
1439.94	0.564
1449.68	0.69
1459.42	0.785
1469.16	0.835
1478.9	0.858
1488.64	0.88
1498.38	0.888
1508.12	0.89
1517.86	0.89
1527.6	0.884
1537.34	0.879
1547.08	0.875
1556.82	0.866
1566.56	0.84
1576.3	0.817
1586.04	0.783
1595.78	0.5749
1605.52	0.6851
1615.26	0.78
1625	0.759
1634.74	0.743
1644.48	0.73
1654.22	0.712
1663.97	0.68
1673.71	0.635
1683.45	0.575
1693.19	0.495
1702.93	0.389
1712.67	0.315
1722.41	0.19
1732.15	0.168
1741.89	0.169
1751.63	0.2941
1761.37	0.509
1771.11	0.628
1780.85	0.711
1790.59	0.76
1800.33	0.799
1810.07	0.821
1819.81	0.84
1829.55	0.852
1839.29	0.861
1849.03	0.871
1858.77	0.874
1868.51	0.879
1878.25	0.886
1887.99	0.895
1897.73	0.899
1907.47	0.905
1917.21	0.909
1926.95	0.91
1936.69	0.91
1946.43	0.912
1956.17	0.913
1965.91	0.913
1975.65	0.914
1985.39	0.915
1995.13	0.914
2004.88	0.911
2014.62	0.91
2024.36	0.909
2034.1	0.9055
2043.84	0.9015
2053.58	0.9015
2063.32	0.9045
2073.06	0.909
2082.8	0.909
2092.54	0.909
2102.28	0.909
2112.02	0.91
2121.76	0.9085
2131.5	0.9055
2141.24	0.9045
2150.98	0.901
2160.72	0.9005
2170.46	0.903
2180.2	0.907
2189.94	0.9015
2199.68	0.899
2209.42	0.894
2219.16	0.89
2228.9	0.887
2238.64	0.8865
2248.38	0.882
2258.12	0.88
2267.86	0.878
2277.6	0.876
2287.34	0.8705
2297.08	0.866
2306.82	0.865
2316.56	0.864
2326.3	0.864
2336.04	0.864
2345.79	0.86
2355.53	0.857
2365.27	0.851
2375.01	0.8365
2384.75	0.823
2394.49	0.8165
2404.23	0.8085
2413.97	0.801
2423.71	0.7905
2433.45	0.7765
2443.19	0.767
2452.93	0.7595
2462.67	0.7495
2472.41	0.7425
2482.15	0.7375
2491.89	0.7225
2501.63	0.708
2511.37	0.689
2521.11	0.6625
2530.85	0.639
2540.59	0.6305
2550.33	0.645
2560.07	0.658
2569.81	0.669
2579.55	0.679
2589.29	0.6735
2599.03	0.664
2608.77	0.651
2618.51	0.63
2628.25	0.617
2637.99	0.618
2647.73	0.626
2657.47	0.6365
2667.21	0.645
2676.95	0.6485
2686.7	0.648
2696.44	0.6395
2706.18	0.6275
2715.92	0.615
2725.66	0.601
2735.4	0.604
2745.14	0.606
2754.88	0.606
2764.62	0.6045
2774.36	0.6005
2784.1	0.5905
2793.84	0.5795
2803.58	0.563
2813.32	0.553
2823.06	0.5385
2832.8	0.528
2842.54	0.5155
2852.28	0.501
2862.02	0.4935
2871.76	0.4845
2881.5	0.4755
2891.24	0.4685
2900.98	0.469
2910.72	0.4685
2920.46	0.467
2930.2	0.4625
2939.94	0.459
2949.68	0.457
2959.42	0.4545
2969.16	0.451
2978.9	0.453
2988.64	0.457
2998.38	0.4625
3008.12	0.4635
3017.87	0.4565
3027.61	0.4475
3037.35	0.442
3047.09	0.4415
3056.83	0.446
3066.57	0.4535
3076.31	0.459
3086.05	0.4635
3095.79	0.465
3105.53	0.4695
3115.27	0.4755
3125.01	0.487
3134.75	0.496
3144.49	0.511
3154.23	0.5165
3163.97	0.529
3173.71	0.539
3183.45	0.553
3193.19	0.5595
3202.93	0.5765
3212.67	0.5905
3222.41	0.6035
3232.15	0.614
3241.89	0.632
3251.63	0.6465
3261.37	0.6605
3271.11	0.682
3280.85	0.6915
3290.59	0.702
3300.33	0.7125
3310.07	0.722
3319.81	0.73
3329.55	0.742
3339.29	0.748
3349.03	0.753
3358.78	0.759
3368.52	0.761
3378.26	0.764
3388	0.765
3397.74	0.7715
3407.48	0.773
3417.22	0.781
3426.96	0.7895
3436.7	0.7925
3446.44	0.7985
3456.18	0.8025
3465.92	0.811
3475.66	0.814
3485.4	0.817
3495.14	0.8245
3504.88	0.8335
3514.62	0.841
3524.36	0.8485
3534.1	0.8515
3543.84	0.8545
3553.58	0.8605
3563.32	0.865
3573.06	0.87
3582.8	0.8755
3592.54	0.8795
3602.28	0.886
3612.02	0.8875
3621.76	0.894
3631.5	0.901
3641.24	0.902
3650.98	0.9095
3660.72	0.912
3670.46	0.913
3680.2	0.9175
3689.94	0.917
3699.69	0.9195
3709.43	0.92
3719.17	0.921
3728.91	0.9225
3738.65	0.928
3748.39	0.9325
3758.13	0.9265
3767.87	0.928
3777.61	0.926
3787.35	0.923
3797.09	0.922
3806.83	0.926
3816.57	0.927
3826.31	0.9275
3836.05	0.9305
3845.79	0.924
3855.53	0.927
3865.27	0.9235
3875.01	0.922
3884.75	0.922
3894.49	0.925
3904.23	0.926
3913.97	0.922
3923.71	0.9215
3933.45	0.919
3943.19	0.921
3952.93	0.919
3962.67	0.918
3972.41	0.919
3982.15	0.9185
3991.89	0.918
