Infrared Spectrum: Methane, tetrakis(hydroxymethyl)-,
Formula: C5 H12 O4
CAS: 115-77-5
State: SOLID (MULL)
Class: COBLENTZ III
Instrument: PERKIN-ELMER 521 (GRATING)
Instrument parameters: FILTERS AT 3150, 2500, 2000, 1150, 700, 410. GRATING CHANGES: 2000, 630
Resolution: 2
Origin: DOW CORNING CORP.
1/CM	TRANSMITTANCE
245	0.704
254	0.7086
263	0.7074
272	0.7126
281	0.733
290	0.6598
299	0.5205
308	0.6223
317	0.7679
326	0.8572
335	0.9126
344	0.933
353	0.9411
362	0.949
371	0.9505
380	0.9514
389	0.9519
398	0.9505
407	0.9449
416	0.934
425	0.9294
434	0.9153
443	0.9166
452	0.9218
461	0.9154
470	0.911
479	0.906
488	0.8993
497	0.8859
506	0.949
515	0.942
524	0.9438
533	0.9433
542	0.9244
551	0.898
560	0.8705
569	0.8371
578	0.7984
587	0.731
596	0.5817
605	0.6318
614	0.6036
623	0.5666
632	0.5251
641	0.4623
650	0.3917
659	0.3217
668	0.2691
677	0.2788
686	0.3623
695	0.4819
704	0.5502
713	0.6166
722	0.6492
731	0.6902
740	0.7453
749	0.7819
758	0.8159
767	0.8395
776	0.86
785	0.8766
794	0.8907
803	0.9005
812	0.906
821	0.9079
830	0.9051
839	0.8995
848	0.8896
857	0.8602
866	0.7743
875	0.4207
884	0.7638
893	0.911
902	0.9122
911	0.9082
920	0.8962
929	0.8792
938	0.8582
947	0.84
956	0.8209
965	0.7958
974	0.7531
983	0.6629
992	0.3782
1001	0.2728
1010	0.0372
1019	0.0233
1028	0.0935
1037	0.3143
1046	0.3808
1055	0.7652
1064	0.8172
1073	0.8324
1082	0.8486
1091	0.8451
1100	0.8255
1109	0.7793
1118	0.6299
1127	0.2671
1136	0.4358
1145	0.679
1154	0.7769
1163	0.8117
1172	0.8269
1181	0.8309
1190	0.8276
1199	0.811
1208	0.7507
1217	0.7256
1226	0.6819
1235	0.6899
1244	0.7261
1253	0.7244
1262	0.6898
1271	0.5501
1280	0.4448
1289	0.6914
1298	0.7393
1307	0.7672
1316	0.7785
1325	0.7778
1334	0.7664
1343	0.7436
1352	0.7097
1361	0.6772
1370	0.5641
1379	0.2876
1388	0.4065
1397	0.3539
1406	0.2277
1415	0.3179
1424	0.5154
1433	0.5729
1442	0.5455
1451	0.3239
1460	0.3873
1469	0.4309
1478	0.6235
1487	0.8117
1496	0.8627
1505	0.8891
1514	0.9102
1523	0.9205
1532	0.9285
1541	0.9289
1550	0.9375
1559	0.9412
1568	0.9444
1577	0.9475
1586	0.9549
1595	0.9524
1604	0.9517
1613	0.9501
1622	0.955
1631	0.9591
1640	0.9527
1649	0.9522
1658	0.9563
1667	0.9559
1676	0.954
1685	0.9547
1694	0.9671
1703	0.9713
1712	0.975
1721	0.9775
1730	0.9794
1739	0.9801
1748	0.9809
1757	0.9816
1766	0.9823
1775	0.9829
1784	0.9834
1793	0.9838
1802	0.9843
1811	0.9843
1820	0.9843
1829	0.9842
1838	0.9843
1847	0.9847
1856	0.9851
1865	0.9855
1874	0.9856
1883	0.9856
1892	0.9855
1901	0.9847
1910	0.9838
1919	0.9832
1928	0.9828
1937	0.9827
1946	0.9827
1955	0.983
1964	0.9828
1973	0.9836
1982	0.984
1991	0.9797
2000	0.9635
2009	0.954
2018	0.9529
2027	0.9515
2036	0.944
2045	0.9334
2054	0.9293
2063	0.9332
2072	0.9371
2081	0.941
2090	0.9445
2099	0.9474
2108	0.9474
2117	0.9465
2126	0.9478
2135	0.9489
2144	0.9499
2153	0.9508
2162	0.9506
2171	0.9504
2180	0.95
2189	0.9485
2198	0.9472
2207	0.9458
2216	0.9445
2225	0.9431
2234	0.9419
2243	0.941
2252	0.9392
2261	0.9369
2270	0.9343
2279	0.9306
2288	0.9304
2297	0.9311
2306	0.9308
2315	0.9249
2324	0.9186
2333	0.9136
2342	0.9121
2351	0.9112
2360	0.91
2369	0.9089
2378	0.9081
2387	0.9071
2396	0.9061
2405	0.9055
2414	0.9055
2423	0.9052
2432	0.9032
2441	0.8999
2450	0.896
2459	0.8917
2468	0.8866
2477	0.8794
2486	0.8695
2495	0.86
2504	0.8525
2513	0.8455
2522	0.8392
2531	0.8397
2540	0.8428
2549	0.8479
2558	0.8503
2567	0.8496
2576	0.8457
2585	0.84
2594	0.8317
2603	0.8194
2612	0.7984
2621	0.7749
2630	0.7722
2639	0.7701
2648	0.7685
2657	0.7666
2666	0.7647
2675	0.7648
2684	0.7664
2693	0.7714
2702	0.7779
2711	0.7781
2720	0.7705
2729	0.7626
2738	0.7528
2747	0.7402
2756	0.7254
2765	0.7092
2774	0.6919
2783	0.6743
2792	0.6553
2801	0.6362
2810	0.6253
2819	0.617
2828	0.5997
2837	0.5025
2846	0.3158
2855	0.1425
2864	0.1115
2873	0.1473
2882	0.1576
2891	0.1357
2900	0.1116
2909	0.0903
2918	0.0622
2927	0.0125
2936	0.0151
2945	0.027
2954	0.029
2963	0.0275
2972	0.1756
2981	0.3665
2990	0.5246
2999	0.5908
3008	0.6195
3017	0.6327
3026	0.6332
3035	0.6327
3044	0.6306
3053	0.623
3062	0.6097
3071	0.5953
3080	0.5856
3089	0.5606
3098	0.5369
3107	0.5178
3116	0.4988
3125	0.4783
3134	0.4555
3143	0.4278
3152	0.3982
3161	0.3665
3170	0.3311
3179	0.3014
3188	0.2764
3197	0.2498
3206	0.2258
3215	0.2035
3224	0.1815
3233	0.1623
3242	0.1473
3251	0.1328
3260	0.1185
3269	0.103
3278	0.0851
3287	0.0649
3296	0.0518
3305	0.0427
3314	0.0364
3323	0.0337
3332	0.0349
3341	0.0395
3350	0.0497
3359	0.0594
3368	0.0693
3377	0.0805
3386	0.0937
3395	0.1103
3404	0.1328
3413	0.155
3422	0.1795
3431	0.2229
3440	0.252
3449	0.2854
3458	0.342
3467	0.409
3476	0.4803
3485	0.529
3494	0.57
3503	0.6157
3512	0.6539
3521	0.7024
3530	0.7449
3539	0.7767
3548	0.8165
3557	0.8403
3566	0.8568
3575	0.8751
3584	0.8907
3593	0.9007
3602	0.9066
3611	0.9112
3620	0.9136
3629	0.9157
3638	0.9266
3647	0.928
3656	0.9294
3665	0.9332
3674	0.9306
3683	0.928
3692	0.9357
3701	0.9369
3710	0.937
3719	0.9371
3728	0.9362
3737	0.934
3746	0.9315
3755	0.9267
3764	0.931
3773	0.9373
3782	0.9384
3791	0.9379
3800	0.9361
3809	0.9328
