Infrared Spectrum: Dasanit
Formula: C 11 H 17 O 4 P S 2
CAS: 115-90-2
State: gas
Instrument: HP-GC/MS/IRD
Origin: NIST Mass Spectrometry Data Center
1/CM	ABSORBANCE
550	0.003492
562	0.000252
574	0.000108
586	0.000765
598	0.000711
610	0.000333
622	0.001089
634	0.003717
646	0.00756
658	0.008208
670	0.006345
682	0.001665
694	0.000522
706	0.000423
718	0.000333
730	0.00063
742	0.001314
754	0.003249
766	0.009621
778	0.010674
790	0.01332
802	0.017622
814	0.024732
826	0.029745
838	0.033588
850	0.018027
862	0.007326
874	0.006336
886	0.009333
898	0.017784
910	0.041769
922	0.079758
934	0.065637
946	0.057168
958	0.049086
970	0.036594
982	0.021033
994	0.014427
1006	0.020511
1018	0.042363
1030	0.074889
1042	0.089883
1054	0.07929
1066	0.068157
1078	0.04482
1090	0.047835
1102	0.050778
1114	0.020592
1126	0.011889
1138	0.010269
1150	0.011412
1162	0.018405
1174	0.011754
1186	0.009837
1198	0.017883
1210	0.049689
1222	0.048933
1234	0.023841
1246	0.011232
1258	0.006372
1270	0.004815
1282	0.004482
1294	0.004905
1306	0.003312
1318	0.002214
1330	0.001611
1342	0.001431
1354	0.001548
1366	0.002061
1378	0.003366
1390	0.006678
1402	0.007011
1414	0.005067
1426	0.004212
1438	0.003654
1450	0.004194
1462	0.005742
1474	0.010359
1486	0.032616
1498	0.018792
1510	0.005094
1522	0.002934
1534	0.00216
1546	0.001953
1558	0.002223
1570	0.004293
1582	0.012051
1594	0.011547
1606	0.002718
1618	0.001233
1630	0.0009
1642	0.000738
1654	0.00063
1666	0.000585
1678	0.000567
1690	0.000549
1702	0.000459
1714	0.000333
1726	0.000315
1738	0.000315
1750	0.000423
1762	0.000531
1774	0.000639
1786	0.00063
1798	0.000801
1810	0.000972
1822	0.000909
1834	0.000945
1846	0.001008
1858	0.001062
1870	0.000999
1882	0.000909
1894	0.000756
1906	0.000567
1918	0.000432
1930	0.000378
1942	0.000252
1954	0.000162
1966	0.000216
1978	0.000432
1990	0.000468
2002	0.00027
2014	9.9e-05
2026	8.1e-05
2038	2.7e-05
2050	5.4e-05
2062	1.8e-05
2074	3.6e-05
2086	4.5e-05
2098	3.6e-05
2110	1.8e-05
2122	6.3e-05
2134	0.000108
2146	0.00018
2158	0.000333
2170	0.000279
2182	0.000135
2194	0.000108
2206	4.5e-05
2218	1.8e-05
2230	4.5e-05
2242	3.6e-05
2254	9e-05
2266	6.3e-05
2278	4.5e-05
2290	9e-06
2302	0
2314	4.5e-05
2326	6.3e-05
2338	0.000108
2350	0.000153
2362	0.000198
2374	0.000189
2386	0.000153
2398	0.000162
2410	0.000234
2422	0.000306
2434	0.000288
2446	0.000216
2458	0.00018
2470	0.000153
2482	9e-05
2494	0.000144
2506	0.000171
2518	0.000144
2530	0.000144
2542	0.000135
2554	0.000189
2566	0.000234
2578	9e-05
2590	6.3e-05
2602	7.2e-05
2614	9e-05
2626	4.5e-05
2638	4.5e-05
2650	9.9e-05
2662	9.9e-05
2674	9e-05
2686	0.000135
2698	0.000162
2710	0.000189
2722	0.000189
2734	0.000252
2746	0.000279
2758	0.000324
2770	0.00045
2782	0.000459
2794	0.000441
2806	0.000513
2818	0.000603
2830	0.000792
2842	0.000927
2854	0.001116
2866	0.001665
2878	0.002691
2890	0.003231
2902	0.004167
2914	0.006003
2926	0.006723
2938	0.008847
2950	0.008622
2962	0.007245
2974	0.01008
2986	0.015462
2998	0.013104
3010	0.008478
3022	0.004716
3034	0.003123
3046	0.002277
3058	0.0018
3070	0.002142
3082	0.00144
3094	0.001251
3106	0.000792
3118	0.000531
3130	0.000522
3142	0.000459
3154	0.00045
3166	0.000432
3178	0.000342
3190	0.000315
3202	0.00036
3214	0.000315
3226	0.000306
3238	0.000252
3250	0.000171
3262	0.000126
3274	0.000108
3286	0.000144
3298	8.1e-05
3310	0.000153
3322	0.000162
3334	0.000126
3346	0.000117
3358	0.000135
3370	0.000162
3382	0.000117
3394	0.000144
3406	0.000126
3418	0.000135
3430	6.3e-05
3442	6.3e-05
3454	0.000117
3466	8.1e-05
3478	0.000153
3490	0.000144
3502	0.000144
3514	0.000117
3526	8.1e-05
3538	5.4e-05
3550	0.000171
3562	4.5e-05
3574	9.9e-05
3586	0.000117
3598	6.3e-05
3610	0.000108
3622	6.3e-05
3634	0.000144
3646	0.000126
3658	0.000153
3670	0.000144
3682	0.000135
3694	0.000153
3706	0.000135
3718	0.000144
3730	0.00018
3742	0.000126
3754	0.000171
3766	0.000135
3778	0.000135
3790	0.000207
3802	0.000117
3814	0.000216
3826	0.000135
3838	0.000153
