Infrared Spectrum: ACETIC ACID, [3,5-DIIODO-4-(4-HYDROXY-3-IODOPHENOXY) PHENYL]-, 2-[DIETHYLAMINO]ETHYL ESTER, HYDROCHLORIDE
Formula: C14 H9 Cl5 O
CAS: 115-32-2
State: SOLID (1.2 mg / 300 mg KBr DISC)
Class: COBLENTZ II
Instrument: PERKIN-ELMER 180 (GRATING)
Instrument parameters: GRATINGS: 2000, 1000, 500, 250 CM^-^1; FILTER CHANGE: 2970, 2000, 1485, 1000, 743, 500, 372, 250, 186 CM^-^1.
Sampling: TRANSMISSION
Resolution: 2
Origin: K. K. DEB-NCI FREDERICK CANCER RESEARCH CENTER
1/CM	TRANSMITTANCE
351	0.7356
360	0.7349
369	0.7331
378	0.8399
387	0.7874
396	0.7404
405	0.8345
414	0.7686
423	0.7734
432	0.8529
441	0.8492
450	0.7506
459	0.8646
468	0.7401
477	0.653
486	0.8499
495	0.5258
504	0.7487
513	0.8938
522	0.8709
531	0.5608
540	0.7473
549	0.9048
558	0.8912
567	0.765
576	0.7956
585	0.9002
594	0.8983
603	0.893
612	0.8882
621	0.8818
630	0.8163
639	0.8786
648	0.8717
657	0.8566
666	0.8362
675	0.6924
684	0.5809
693	0.8194
702	0.823
711	0.8322
720	0.6696
729	0.7276
738	0.7871
747	0.7646
756	0.6361
765	0.1019
774	0.1161
783	0.6118
792	0.7563
801	0.8202
810	0.686
819	0.5759
828	0.1415
837	0.2878
846	0.6577
855	0.8461
864	0.8997
873	0.9203
882	0.9216
891	0.9201
900	0.9161
909	0.9112
918	0.865
927	0.8954
936	0.9002
945	0.886
954	0.862
963	0.8849
972	0.8459
981	0.8637
990	0.842
999	0.8193
1008	0.7118
1017	0.4268
1026	0.8466
1035	0.836
1044	0.7614
1053	0.3891
1062	0.8019
1071	0.7895
1080	0.8165
1089	0.4494
1098	0.2587
1107	0.8007
1116	0.8551
1125	0.862
1134	0.8632
1143	0.8527
1152	0.8288
1161	0.5253
1170	0.7332
1179	0.8512
1188	0.7695
1197	0.8454
1206	0.8875
1215	0.8926
1224	0.8894
1233	0.8862
1242	0.8844
1251	0.877
1260	0.8701
1269	0.844
1278	0.7688
1287	0.8696
1296	0.8516
1305	0.833
1314	0.7944
1323	0.7433
1332	0.736
1341	0.777
1350	0.7877
1359	0.7969
1368	0.7984
1377	0.8234
1386	0.8005
1395	0.6327
1404	0.5271
1413	0.7515
1422	0.8605
1431	0.8595
1440	0.8501
1449	0.819
1458	0.8298
1467	0.7968
1476	0.7278
1485	0.3795
1494	0.2853
1503	0.7876
1512	0.8887
1521	0.8849
1530	0.888
1539	0.8801
1548	0.8709
1557	0.8676
1566	0.8348
1575	0.7442
1584	0.776
1593	0.616
1602	0.8437
1611	0.8598
1620	0.8567
1629	0.8533
1638	0.8482
1647	0.8399
1656	0.8402
1665	0.8349
1674	0.8493
1683	0.8622
1692	0.8589
1701	0.8544
1710	0.8502
1719	0.8507
1728	0.8527
1737	0.8547
1746	0.8556
1755	0.8548
1764	0.8529
1773	0.8491
1782	0.8449
1791	0.8434
1800	0.8425
1809	0.8566
1818	0.856
1827	0.8534
1836	0.8517
1845	0.8498
1854	0.8475
1863	0.8448
1872	0.8419
1881	0.8382
1890	0.8343
1899	0.8243
1908	0.7919
1917	0.7918
1926	0.8255
1935	0.8356
1944	0.8367
1953	0.8386
1962	0.8375
1971	0.8373
1980	0.8366
1989	0.8345
1998	0.8351
2007	0.8413
2016	0.8405
2025	0.8392
2034	0.8376
2043	0.8361
2052	0.8347
2061	0.8334
2070	0.8321
2079	0.8306
2088	0.8291
2097	0.8275
2106	0.8268
2115	0.8276
2124	0.8282
2133	0.8283
2142	0.8276
2151	0.8261
2160	0.8249
2169	0.8235
2178	0.8223
2187	0.821
2196	0.8198
2205	0.8185
2214	0.8173
2223	0.816
2232	0.8147
2241	0.8133
2250	0.8117
2259	0.81
2268	0.8084
2277	0.8068
2286	0.8051
2295	0.8036
2304	0.8024
2313	0.8012
2322	0.8009
2331	0.8028
2340	0.8027
2349	0.8014
2358	0.8003
2367	0.7996
2376	0.7989
2385	0.7977
2394	0.7961
2403	0.7944
2412	0.7928
2421	0.7911
2430	0.7899
2439	0.7886
2448	0.7873
2457	0.786
2466	0.7842
2475	0.7822
2484	0.7802
2493	0.7786
2502	0.7773
2511	0.7759
2520	0.7748
2529	0.7738
2538	0.7729
2547	0.772
2556	0.7711
2565	0.7701
2574	0.7695
2583	0.7688
2592	0.7682
2601	0.7676
2610	0.767
2619	0.7663
2628	0.7655
2637	0.7647
2646	0.7639
2655	0.7631
2664	0.7623
2673	0.7614
2682	0.7606
2691	0.7598
2700	0.759
2709	0.7582
2718	0.7574
2727	0.7563
2736	0.7551
2745	0.7539
2754	0.7527
2763	0.7515
2772	0.7503
2781	0.7491
2790	0.7476
2799	0.746
2808	0.7444
2817	0.7428
2826	0.7395
2835	0.7354
2844	0.7307
2853	0.7267
2862	0.7262
2871	0.7276
2880	0.7272
2889	0.7256
2898	0.7222
2907	0.7182
2916	0.7126
2925	0.7102
2934	0.7128
2943	0.7148
2952	0.716
2961	0.7158
2970	0.7156
2979	0.715
2988	0.7142
2997	0.7133
3006	0.7114
3015	0.7094
3024	0.7064
3033	0.7024
3042	0.6972
3051	0.6872
3060	0.6746
3069	0.6813
3078	0.6813
3087	0.6807
3096	0.6688
3105	0.6821
3114	0.6852
3123	0.6945
3132	0.6929
3141	0.692
3150	0.6914
3159	0.69
3168	0.6886
3177	0.687
3186	0.6856
3195	0.6839
3204	0.6824
3213	0.6807
3222	0.6792
3231	0.6777
3240	0.6763
3249	0.6748
3258	0.6734
3267	0.6719
3276	0.6702
3285	0.6686
3294	0.667
3303	0.6646
3312	0.6619
3321	0.6592
3330	0.6555
3339	0.6515
3348	0.6475
3357	0.6434
3366	0.6385
3375	0.6335
3384	0.6286
3393	0.6242
3402	0.6201
3411	0.616
3420	0.612
3429	0.6081
3438	0.6044
3447	0.6006
3456	0.598
3465	0.5956
3474	0.5923
3483	0.585
3492	0.5723
3501	0.5566
3510	0.5346
3519	0.4362
3528	0.2288
3537	0.4308
3546	0.2183
3555	0.4976
3564	0.6496
3573	0.6705
3582	0.6748
3591	0.6764
3600	0.6768
3609	0.6768
3618	0.6767
3627	0.6757
3636	0.6746
3645	0.673
3654	0.6711
3663	0.6692
3672	0.6666
3681	0.6639
3690	0.6639
3699	0.6637
3708	0.6628
3717	0.6618
3726	0.6607
3735	0.6595
3744	0.6585
3753	0.6575
3762	0.6559
3771	0.6541
3780	0.6522
3789	0.6504
