Infrared Spectrum: Alpha-Santalol
Formula: C15 H24 O
CAS: 115-71-9
State: LIQUID (NEAT)
Class: COBLENTZ III
Instrument: BECKMAN IR-12 (GRATING)
Instrument parameters: GRATING
Sampling: TRANSMISSION
Path length: CAPILLARY (BEAM CONDENSER)
Resolution: 2
Origin: COLGATE-PALMOLIVE COMPANY (KELLENBACH)
1/CM	TRANSMITTANCE
404	0.4159
413	0.4457
422	0.4669
431	0.5215
440	0.5724
449	0.5905
458	0.5947
467	0.5979
476	0.6131
485	0.6595
494	0.6757
503	0.6988
512	0.6896
521	0.6395
530	0.5785
539	0.5703
548	0.5456
557	0.5418
566	0.5343
575	0.5286
584	0.5303
593	0.5091
602	0.4906
611	0.4972
620	0.5065
629	0.4953
638	0.4768
647	0.453
656	0.3759
665	0.3167
674	0.3018
683	0.315
692	0.3499
701	0.3828
710	0.4064
719	0.3983
728	0.4045
737	0.4364
746	0.4148
755	0.3831
764	0.414
773	0.4861
782	0.5174
791	0.4726
800	0.3995
809	0.3086
818	0.2303
827	0.2277
836	0.3067
845	0.2153
854	0.0902
863	0.1616
872	0.3581
881	0.3004
890	0.4764
899	0.5634
908	0.5184
917	0.5726
926	0.5915
935	0.4669
944	0.3155
953	0.2073
962	0.2466
971	0.2994
980	0.1869
989	0.141
998	0.03
1007	0.0002
1016	0.0001
1025	0.0003
1034	0.0092
1043	0.0239
1052	0.1192
1061	0.2153
1070	0.2491
1079	0.1787
1088	0.1282
1097	0.1974
1106	0.2952
1115	0.3135
1124	0.4266
1133	0.5448
1142	0.6132
1151	0.5522
1160	0.4932
1169	0.4795
1178	0.5559
1187	0.5213
1196	0.5073
1205	0.5188
1214	0.455
1223	0.4148
1232	0.366
1241	0.3443
1250	0.2538
1259	0.2578
1268	0.2762
1277	0.3465
1286	0.3289
1295	0.2137
1304	0.3182
1313	0.3063
1322	0.2241
1331	0.3416
1340	0.3302
1349	0.3456
1358	0.3372
1367	0.2616
1376	0.1243
1385	0.0961
1394	0.2096
1403	0.2268
1412	0.2299
1421	0.2289
1430	0.1662
1439	0.0787
1448	0.0214
1457	0.0042
1466	0.0117
1475	0.0863
1484	0.2646
1493	0.3831
1502	0.5836
1511	0.6323
1520	0.7109
1529	0.7578
1538	0.7764
1547	0.7702
1556	0.8002
1565	0.7622
1574	0.8054
1583	0.791
1592	0.8176
1601	0.8132
1610	0.7997
1619	0.7564
1628	0.6945
1637	0.6298
1646	0.5724
1655	0.5809
1664	0.5653
1673	0.4254
1682	0.2886
1691	0.2755
1700	0.2621
1709	0.5788
1718	0.6667
1727	0.6877
1736	0.7459
1745	0.8216
1754	0.8482
1763	0.8881
1772	0.9041
1781	0.9097
1790	0.9176
1799	0.9066
1808	0.9058
1817	0.9087
1826	0.9073
1835	0.9088
1844	0.9087
1853	0.9148
1862	0.9269
1871	0.9169
1880	0.9248
1889	0.9201
1898	0.9127
1907	0.9125
1916	0.9157
1925	0.9087
1934	0.915
1943	0.9075
1952	0.9041
1961	0.908
1970	0.9036
1979	0.894
1988	0.8977
1997	0.901
2006	0.8937
2015	0.895
2024	0.8974
2033	0.9007
2042	0.904
2051	0.9084
2060	0.9128
2069	0.9179
2078	0.9237
2087	0.9274
2096	0.929
2105	0.9283
2114	0.9259
2123	0.9232
2132	0.9197
2141	0.9136
2150	0.9078
2159	0.9037
2168	0.9045
2177	0.9065
2186	0.9107
2195	0.9183
2204	0.9239
2213	0.9272
2222	0.9286
2231	0.9246
2240	0.9182
2249	0.9192
2258	0.9198
2267	0.9177
2276	0.9149
2285	0.9129
2294	0.91
2303	0.9041
2312	0.894
2321	0.8757
2330	0.8574
2339	0.8394
2348	0.8256
2357	0.8212
2366	0.822
2375	0.8276
2384	0.843
2393	0.8734
2402	0.8904
2411	0.892
2420	0.8905
2429	0.8887
2438	0.8856
2447	0.8824
2456	0.8801
2465	0.8777
2474	0.8758
2483	0.8747
2492	0.8739
2501	0.8735
2510	0.8731
2519	0.8721
2528	0.8674
2537	0.8618
2546	0.8551
2555	0.8473
2564	0.8386
2573	0.8295
2582	0.8198
2591	0.8099
2600	0.7983
2609	0.7866
2618	0.781
2627	0.777
2636	0.7728
2645	0.766
2654	0.7574
2663	0.7482
2672	0.7373
2681	0.7228
2690	0.7046
2699	0.6805
2708	0.6438
2717	0.5911
2726	0.5455
2735	0.5417
2744	0.5686
2753	0.5776
2762	0.5725
2771	0.5534
2780	0.5307
2789	0.5043
2798	0.4556
2807	0.3729
2816	0.2975
2825	0.2214
2834	0.1746
2843	0.1236
2852	0.0694
2861	0.0153
2870	0
2879	0
2888	0
2897	0
2906	0
2915	0
2924	0
2933	0
2942	0
2951	0
2960	0
2969	0
2978	0
2987	0
2996	0.014
3005	0.0847
3014	0.1555
3023	0.2261
3032	0.2165
3041	0.1571
3050	0.0977
3059	0.0501
3068	0.1382
3077	0.2566
3086	0.3746
3095	0.4008
3104	0.406
3113	0.3873
3122	0.3637
3131	0.34
3140	0.3163
3149	0.2926
3158	0.269
3167	0.2452
3176	0.2216
3185	0.1979
3194	0.1737
3203	0.1488
3212	0.1254
3221	0.1029
3230	0.0799
3239	0.0539
3248	0.0352
3257	0.0256
3266	0.0194
3275	0.015
3284	0.0113
3293	0.0086
3302	0.0064
3311	0.005
3320	0.0037
3329	0.0036
3338	0.0037
3347	0.0041
3356	0.0049
3365	0.0065
3374	0.0081
3383	0.0097
3392	0.0114
3401	0.0134
3410	0.0154
3419	0.0181
3428	0.0214
3437	0.0255
3446	0.0302
3455	0.0384
3464	0.0477
3473	0.0602
3482	0.0832
3491	0.1061
3500	0.1306
3509	0.1614
3518	0.1963
3527	0.2264
3536	0.2571
3545	0.3043
3554	0.3495
3563	0.397
3572	0.4489
3581	0.4869
3590	0.525
3599	0.563
3608	0.5841
3617	0.5884
3626	0.5908
3635	0.641
3644	0.7316
3653	0.756
3662	0.765
3671	0.8027
3680	0.785
3689	0.79
3698	0.8121
3707	0.8326
3716	0.8329
3725	0.8249
3734	0.8135
3743	0.8023
3752	0.8061
3761	0.8191
3770	0.8384
3779	0.8415
3788	0.8422
3797	0.8395
3806	0.8355
3815	0.8317
3824	0.8342
3833	0.8272
3842	0.8201
3851	0.814
3860	0.8072
3869	0.7992
3878	0.7888
3887	0.7765
3896	0.7772
3905	0.7748
3914	0.7745
3923	0.7886
3932	0.7971
3941	0.8018
3950	0.8031
3959	0.8034
3968	0.8033
3977	0.8031
3986	0.8041
3995	0.8063
