Infrared Spectrum: 1,3-PROPANEDIOL, 2,2-DIETHYL-
Formula: C7 H16 O2
CAS: 115-76-4
State: SOLUTION (10% CCl4 FOR 4000-1200, 10% CS2 FOR 1200-450 CM^-^1) VS SOLVENT
Class: COBLENTZ III
Instrument: CARY 90 (GRATING)
Instrument parameters: ORDER CHANGES: 3000, 2000, 1200 CM^-^1
Sampling: TRANSMISSION
Path length: 0.010 CM, AND 0.010 CM
Resolution: 2
Origin: WESTERN REGIONAL RES. USDA
1/CM	TRANSMITTANCE
3804	0.9262
3795	0.9271
3786	0.9285
3777	0.9298
3768	0.93
3759	0.9296
3750	0.9291
3741	0.9285
3732	0.9275
3723	0.9265
3714	0.9236
3705	0.9201
3696	0.9148
3687	0.908
3678	0.8988
3669	0.8778
3660	0.8367
3651	0.7815
3642	0.6981
3633	0.7225
3624	0.7546
3615	0.7865
3606	0.7885
3597	0.7638
3588	0.7276
3579	0.6908
3570	0.628
3561	0.5839
3552	0.5117
3543	0.4647
3534	0.4232
3525	0.3859
3516	0.3512
3507	0.3178
3498	0.2892
3489	0.2597
3480	0.2269
3471	0.2011
3462	0.1753
3453	0.1611
3444	0.1486
3435	0.1382
3426	0.1283
3417	0.1167
3408	0.1082
3399	0.1019
3390	0.0962
3381	0.0903
3372	0.0878
3363	0.0863
3354	0.0858
3345	0.0865
3336	0.0889
3327	0.092
3318	0.0978
3309	0.1075
3300	0.1155
3291	0.1292
3282	0.1492
3273	0.1685
3264	0.1856
3255	0.2067
3246	0.2325
3237	0.2584
3228	0.2852
3219	0.3154
3210	0.3406
3201	0.363
3192	0.383
3183	0.4078
3174	0.4335
3165	0.4567
3156	0.4806
3147	0.5029
3138	0.523
3129	0.546
3120	0.5664
3111	0.5841
3102	0.5994
3093	0.61
3084	0.6206
3075	0.6304
3066	0.6412
3057	0.6561
3048	0.6672
3039	0.6704
3030	0.6681
3021	0.6557
3012	0.6317
3003	0.5487
2994	0.4854
2985	0.3655
2976	0.1567
2967	0.0147
2958	0.0514
2949	0.0875
2940	0.0691
2931	0.06
2922	0.0643
2913	0.0889
2904	0.1198
2895	0.1442
2886	0.1241
2877	0.082
2868	0.132
2859	0.1704
2850	0.2946
2841	0.3379
2832	0.4477
2823	0.5282
2814	0.5651
2805	0.5905
2796	0.6129
2787	0.6338
2778	0.6503
2769	0.6637
2760	0.6684
2751	0.6715
2742	0.6768
2733	0.6882
2724	0.7007
2715	0.7099
2706	0.7184
2697	0.7228
2688	0.7287
2679	0.7333
2670	0.7321
2661	0.7286
2652	0.7265
2643	0.7257
2634	0.7268
2625	0.7292
2616	0.7321
2607	0.7358
2598	0.7395
2589	0.7425
2580	0.7457
2571	0.7484
2562	0.7503
2553	0.7521
2544	0.7536
2535	0.7547
2526	0.7557
2517	0.7568
2508	0.758
2499	0.7591
2490	0.7601
2481	0.7612
2472	0.7624
2463	0.7634
2454	0.7644
2445	0.7664
2436	0.7688
2427	0.7711
2418	0.7735
2409	0.7783
2400	0.7828
2391	0.7849
2382	0.7875
2373	0.7901
2364	0.793
2355	0.7958
2346	0.7989
2337	0.8024
2328	0.8064
2319	0.8108
2310	0.8153
2301	0.8189
2292	0.8231
2283	0.8255
2274	0.828
2265	0.8304
2256	0.8328
2247	0.8352
2238	0.8375
2229	0.8388
2220	0.8399
2211	0.8409
2202	0.8421
2193	0.8433
2184	0.8453
2175	0.8482
2166	0.8513
2157	0.8542
2148	0.8562
2139	0.857
2130	0.8578
2121	0.8588
2112	0.8597
2103	0.8607
2094	0.8617
2085	0.8627
2076	0.8645
2067	0.8664
2058	0.8682
2049	0.8708
2040	0.8738
2031	0.8767
2022	0.88
2013	0.8818
2004	0.883
1995	0.8806
1986	0.8774
1977	0.8744
1968	0.8788
1959	0.8818
1950	0.8799
1941	0.8771
1932	0.8749
1923	0.8766
1914	0.8807
1905	0.8849
1896	0.8867
1887	0.8863
1878	0.8834
1869	0.8813
1860	0.8828
1851	0.8837
1842	0.8843
1833	0.8836
1824	0.8828
1815	0.8816
1806	0.8803
1797	0.8795
1788	0.8782
1779	0.8764
1770	0.8746
1761	0.8786
1752	0.8771
1743	0.8715
1734	0.8674
1725	0.8632
1716	0.8645
1707	0.8682
1698	0.8706
1689	0.8691
1680	0.8555
1671	0.8575
1662	0.8656
1653	0.8655
1644	0.8646
1635	0.8634
1626	0.8621
1617	0.8651
1608	0.8687
1599	0.8683
1590	0.8668
1581	0.8636
1572	0.8617
1563	0.8604
1554	0.8462
1545	0.8399
1536	0.8411
1527	0.8293
1518	0.8099
1509	0.7981
1500	0.7297
1491	0.6557
1482	0.4773
1473	0.3412
1464	0.1649
1455	0.2984
1446	0.3462
1437	0.4077
1428	0.4193
1419	0.4492
1410	0.4931
1401	0.516
1392	0.5126
1383	0.3407
1374	0.4434
1365	0.5702
1356	0.5917
1347	0.5878
1338	0.5852
1329	0.5949
1320	0.604
1311	0.6112
1302	0.6184
1293	0.6181
1284	0.5908
1275	0.6084
1266	0.617
1257	0.6121
1248	0.596
1239	0.5706
1230	0.5923
1221	0.6438
1212	0.6843
1203	0.701
1194	0.6749
1185	0.6461
1176	0.6141
1167	0.5794
1158	0.5782
1149	0.6279
1140	0.6756
1131	0.7131
1122	0.7478
1113	0.7707
1104	0.7778
1095	0.7687
1086	0.6781
1077	0.2681
1068	0.0876
1059	0.0469
1050	0.1177
1041	0.2585
1032	0.1354
1023	0.1066
1014	0.2741
1005	0.385
996	0.3436
987	0.455
978	0.5672
969	0.5045
960	0.4496
951	0.6235
942	0.6958
933	0.6036
924	0.6127
915	0.7282
906	0.7787
897	0.7468
888	0.7012
879	0.7582
870	0.816
861	0.7769
852	0.7846
843	0.8099
834	0.8067
825	0.7901
816	0.7783
807	0.7668
798	0.7081
789	0.6744
780	0.6895
771	0.6926
762	0.6193
753	0.716
744	0.7262
735	0.7051
726	0.6903
717	0.7118
708	0.733
699	0.7236
690	0.7083
681	0.6912
672	0.6746
663	0.6601
654	0.6469
645	0.6345
636	0.6225
627	0.6115
618	0.5989
609	0.5869
600	0.5772
591	0.5718
582	0.5674
573	0.5637
564	0.5624
555	0.5593
546	0.5555
537	0.5527
528	0.5652
519	0.5718
510	0.5735
