Infrared Spectrum: 3-Hydroxy-3-methyl-2-butanone
Formula: C 5 H 10 O 2
CAS: 115-22-0
State: gas
Instrument: HP-GC/MS/IRD
Origin: NIST Mass Spectrometry Data Center
1/CM	ABSORBANCE
550	0.0010905
562	0.001011
574	0.001029
586	0.000933
598	0.000687
610	0.000306
622	0.000273
634	0.000228
646	0.0003015
658	0.0007395
670	0.0011115
682	0.000963
694	0.000519
706	0.0001965
718	0.000138
730	0.0001605
742	0.0001965
754	0.000156
766	9.9e-05
778	7.8e-05
790	3e-06
802	2.1e-05
814	5.25e-05
826	0.000135
838	0.0002775
850	0.0003525
862	0.0002565
874	0.0002055
886	0.0001725
898	0.0002505
910	0.0004605
922	0.0009855
934	0.002148
946	0.0036795
958	0.0042345
970	0.003435
982	0.002115
994	0.001248
1006	0.0008235
1018	0.000777
1030	0.000795
1042	0.0008145
1054	0.000774
1066	0.0008415
1078	0.0011115
1090	0.0018345
1102	0.003231
1114	0.005022
1126	0.006243
1138	0.0065025
1150	0.007398
1162	0.011043
1174	0.0133695
1186	0.010602
1198	0.005124
1210	0.0023715
1222	0.0017955
1234	0.0018045
1246	0.0018255
1258	0.001599
1270	0.001215
1282	0.0009855
1294	0.001101
1306	0.0015075
1318	0.002127
1330	0.0032715
1342	0.0057975
1354	0.0088185
1366	0.009711
1378	0.0068145
1390	0.003801
1402	0.0022935
1414	0.001821
1426	0.001851
1438	0.001992
1450	0.002271
1462	0.0023955
1474	0.002016
1486	0.001335
1498	0.000774
1510	0.000558
1522	0.000486
1534	0.0004575
1546	0.0004125
1558	0.000336
1570	0.000285
1582	0.0002625
1594	0.0002295
1606	0.000264
1618	0.0002895
1630	0.0003465
1642	0.000393
1654	0.00048
1666	0.000666
1678	0.001095
1690	0.0021105
1702	0.0052695
1714	0.011028
1726	0.015
1738	0.0115935
1750	0.004884
1762	0.0015915
1774	0.0007365
1786	0.00039
1798	0.0002265
1810	0.0001455
1822	0.000102
1834	7.8e-05
1846	4.5e-05
1858	3.6e-05
1870	2.55e-05
1882	1.5e-05
1894	3.6e-05
1906	3.6e-05
1918	3e-05
1930	3.3e-05
1942	3.15e-05
1954	3.15e-05
1966	2.55e-05
1978	3.45e-05
1990	1.5e-06
2002	2.7e-05
2014	4.05e-05
2026	4.05e-05
2038	4.8e-05
2050	2.1e-05
2062	2.1e-05
2074	1.2e-05
2086	1.65e-05
2098	1.05e-05
2110	1.65e-05
2122	2.1e-05
2134	1.65e-05
2146	3e-05
2158	9e-06
2170	9e-06
2182	1.8e-05
2194	3.3e-05
2206	3.15e-05
2218	5.1e-05
2230	2.4e-05
2242	7.5e-06
2254	1.05e-05
2266	0
2278	6e-06
2290	2.85e-05
2302	4.95e-05
2314	6.3e-05
2326	4.5e-05
2338	3.75e-05
2350	6e-06
2362	9e-06
2374	2.55e-05
2386	5.25e-05
2398	6.3e-05
2410	7.35e-05
2422	5.7e-05
2434	1.05e-05
2446	3.6e-05
2458	2.4e-05
2470	8.1e-05
2482	6.6e-05
2494	6.9e-05
2506	2.4e-05
2518	3.9e-05
2530	4.2e-05
2542	5.55e-05
2554	6.45e-05
2566	3.9e-05
2578	2.55e-05
2590	5.55e-05
2602	4.65e-05
2614	1.2e-05
2626	6.75e-05
2638	6e-05
2650	4.35e-05
2662	5.55e-05
2674	5.4e-05
2686	9.9e-05
2698	6.75e-05
2710	8.55e-05
2722	0.000105
2734	9.15e-05
2746	8.25e-05
2758	0.0001125
2770	0.000129
2782	0.00012
2794	0.000147
2806	0.0002085
2818	0.000204
2830	0.000288
2842	0.0003615
2854	0.000558
2866	0.0009075
2878	0.001305
2890	0.001479
2902	0.0016035
2914	0.001908
2926	0.002634
2938	0.003363
2950	0.0032865
2962	0.0040185
2974	0.0068925
2986	0.008649
2998	0.006294
3010	0.002598
3022	0.001227
3034	0.0007545
3046	0.000603
3058	0.00048
3070	0.000447
3082	0.0003675
3094	0.0003135
3106	0.0003075
3118	0.0003075
3130	0.000276
3142	0.0002595
3154	0.000261
3166	0.0002205
3178	0.0002415
3190	0.000207
3202	0.000183
3214	0.000195
3226	0.00018
3238	0.000129
3250	0.000138
3262	8.85e-05
3274	9.75e-05
3286	0.0001155
3298	9.45e-05
3310	4.8e-05
3322	4.95e-05
3334	0.000114
3346	8.1e-05
3358	0.000123
3370	7.5e-05
3382	0.000123
3394	0.0001575
3406	0.0002145
3418	0.0003465
3430	0.000411
3442	0.000384
3454	0.0003555
3466	0.0003495
3478	0.0003975
3490	0.0007455
3502	0.0016995
3514	0.002859
3526	0.0032475
3538	0.0026955
3550	0.001779
3562	0.0010995
3574	0.000684
3586	0.00045
3598	0.000321
3610	0.000288
3622	0.0003465
3634	0.0006495
3646	0.0008175
3658	0.0005775
3670	0.00024
3682	0.000102
3694	0
3706	4.35e-05
3718	3e-05
3730	0
3742	2.25e-05
3754	6e-05
3766	4.5e-05
3778	2.85e-05
3790	7.8e-05
3802	2.4e-05
3814	4.8e-05
3826	7.2e-05
3838	9e-05
