Infrared Spectrum: 2-Fluoro-3-(trifluoromethyl)benzoic acid
Formula: C 8 H 4 F 4 O 2
CAS: 115029-22-6
State: gas
Origin: EPA-IR VAPOR PHASE LIBRARY
1/CM	ABSORBANCE
549.8	0.010294
559.445	0.013654
569.09	0.018224
578.734	0.019634
588.379	0.015154
598.024	0.012954
607.669	0.013934
617.313	0.014754
626.958	0.010574
636.603	0.017534
646.248	0.041274
655.893	0.024674
665.537	0.006684
675.182	0.003624
684.827	0.002494
694.472	0.002224
704.116	0.0013608
713.761	0.002114
723.406	0.003044
733.051	0.005374
742.695	0.008174
752.34	0.021634
761.985	0.034624
771.63	0.018044
781.275	0.006824
790.919	0.004564
800.564	0.003774
810.209	0.004164
819.854	0.004994
829.498	0.007864
839.143	0.010504
848.788	0.007394
858.433	0.003704
868.078	0.002154
877.722	0.0012043
887.367	0.001736
897.012	0.0016651
906.657	0.0013713
916.301	0.001934
925.946	0.001864
935.591	0.001582
945.236	0.001954
954.88	0.002204
964.525	0.003084
974.17	0.003124
983.815	0.002824
993.46	0.001814
1003.1	0.002774
1012.75	0.002434
1022.39	0.003484
1032.04	0.004654
1041.68	0.005704
1051.33	0.010764
1060.97	0.018684
1070.62	0.029554
1080.26	0.032684
1089.91	0.029324
1099.55	0.035614
1109.2	0.028964
1118.84	0.034314
1128.49	0.066214
1138.13	0.089184
1147.78	0.089124
1157.42	0.111884
1167.07	0.179984
1176.71	0.151774
1186.36	0.082444
1196	0.040294
1205.64	0.025534
1215.29	0.021194
1224.93	0.020084
1234.58	0.020234
1244.22	0.025384
1253.87	0.028754
1263.51	0.019534
1273.16	0.014974
1282.8	0.021294
1292.45	0.033814
1302.09	0.056394
1311.74	0.094614
1321.38	0.105034
1331.03	0.061254
1340.67	0.038064
1350.32	0.032524
1359.96	0.027614
1369.61	0.024864
1379.25	0.021244
1388.9	0.015744
1398.54	0.010214
1408.18	0.005634
1417.83	0.004394
1427.47	0.004174
1437.12	0.005564
1446.76	0.010654
1456.41	0.025074
1466.05	0.046384
1475.7	0.047494
1485.34	0.020314
1494.99	0.007254
1504.63	0.004554
1514.28	0.003694
1523.92	0.002964
1533.57	0.002834
1543.21	0.002694
1552.86	0.002894
1562.5	0.003594
1572.15	0.004724
1581.79	0.009304
1591.44	0.014604
1601.08	0.018574
1610.73	0.023684
1620.37	0.026764
1630.01	0.012634
1639.66	0.005534
1649.3	0.003944
1658.95	0.003274
1668.59	0.002934
1678.24	0.003464
1687.88	0.003974
1697.53	0.005414
1707.17	0.005804
1716.82	0.007364
1726.46	0.011034
1736.11	0.016094
1745.75	0.030744
1755.4	0.080604
1765.04	0.086814
1774.69	0.064264
1784.33	0.056014
1793.98	0.027584
1803.62	0.016464
1813.27	0.009444
1822.91	0.004974
1832.55	0.003194
1842.2	0.002374
1851.84	0.001974
1861.49	0.002344
1871.13	0.002294
1880.78	0.002054
1890.42	0.002274
1900.07	0.002534
1909.71	0.002434
1919.36	0.002254
1929	0.001764
1938.65	0.0015669
1948.29	0.001834
1957.94	0.001834
1967.58	0.0016945
1977.23	0.0015159
1986.87	0.0014661
1996.52	0.0012043
2006.16	0.001437
2015.81	0.001137
2025.45	0.0011581
2035.1	0.0012141
2044.74	0.0012283
2054.38	0.0010096
2064.03	0.0012085
2073.67	0.0011646
2083.32	0.0013575
2092.96	0.0012645
2102.61	0.0013412
2112.25	0.0015089
2121.9	0.0011773
2131.54	0.0009897
2141.19	0.0012211
2150.83	0.0012977
2160.48	0.0015854
2170.12	0.0014825
2179.77	0.0015827
2189.41	0.0015231
2199.06	0.0011696
2208.7	0.0015709
2218.35	0.0014742
2227.99	0.0013634
2237.64	0.0015188
2247.28	0.001659
2256.92	0.0013926
2266.57	0.0016726
2276.21	0.0014125
2285.86	0.0012753
2295.5	0.0016444
2305.15	0.001934
2314.79	0.0016364
2324.44	0.001924
2334.08	0.0016936
2343.73	0.0015658
2353.37	0.0015752
2363.02	0.0013491
2372.66	0.0011485
2382.31	0.0013539
2391.95	0.0013184
2401.6	0.0013481
2411.24	0.0013143
2420.89	0.0012176
2430.53	0.0011994
2440.18	0.0012977
2449.82	0.0014207
2459.47	0.0013081
2469.11	0.0013649
2478.75	0.0014643
2488.4	0.0016775
2498.04	0.0017373
2507.69	0.0012335
2517.33	0.001113
2526.98	0.000948
2536.62	0.001331
2546.27	0.0012436
2555.91	0.0011571
2565.56	0.0008864
2575.2	0.0008537
2584.85	0.0013723
2594.49	0.0011913
2604.14	0.0010791
2613.78	0.00077237
2623.43	0.0007295
2633.07	0.0007081
2642.72	0.00083441
2652.36	0.0009149
2662.01	0.0009744
2671.65	0.00112
2681.29	0.0009599
2690.94	0.0009653
2700.58	0.0009871
2710.23	0.0010799
2719.87	0.0006938
2729.52	0.0010603
2739.16	0.0011232
2748.81	0.0011594
2758.45	0.0010237
2768.1	0.0011767
2777.74	0.0010151
2787.39	0.0011005
2797.03	0.0007001
2806.68	0.0010093
2816.32	0.0010529
2825.97	0.0015313
2835.61	0.0012113
2845.26	0.0013749
2854.9	0.0010065
2864.55	0.001618
2874.19	0.0006615
2883.84	0.0010565
2893.48	0.0007176
2903.12	0.0011297
2912.77	0.0013402
2922.41	0.000572
2932.06	0.0010468
2941.7	0.0010522
2951.35	0.0012276
2960.99	0.0006705
2970.64	0.000958
2980.28	0.001089
2989.93	0.0009926
2999.57	0.0010026
3009.22	0.0012473
3018.86	0.0011713
3028.51	0.0012681
3038.15	0.0011079
3047.8	0.001268
3057.44	0.001593
3067.09	0.0015537
3076.73	0.0012582
3086.38	0.002354
3096.02	0.001874
3105.67	0.002484
3115.31	0.0014237
3124.95	0.0009822
3134.6	0.0012292
3144.24	0.0013346
3153.89	0.0008459
3163.53	0.0009157
3173.18	0.00064
3182.82	0.0012119
3192.47	0.0012271
3202.11	0.001105
3211.76	0.0014196
3221.4	0.0009751
3231.05	0.0010257
3240.69	0.0012196
3250.34	0.0008971
3259.98	0.000363
3269.63	0.000483
3279.27	0.000412
3288.92	0.0012853
3298.56	0.000368
3308.21	0.0009025
3317.85	0.001523
3327.49	0.0007184
3337.14	0.00083453
3346.78	0.000986
3356.43	0.0008313
3366.07	0.0006839
3375.72	0.000853
3385.36	0.000587
3395.01	0.00078597
3404.65	0.0006485
3414.3	0.000972
3423.94	0.0009205
3433.59	6.6e-05
3443.23	0.001055
3452.88	0.0006575
3462.52	0.0009482
3472.17	0.0015453
3481.81	0.0010758
3491.46	0.0017063
3501.1	0.0014511
3510.75	0.0013152
3520.39	0.001804
3530.04	0.0009333
3539.68	0.002474
3549.32	0.002424
3558.97	0.009244
3568.61	0.037484
3578.26	0.039404
3587.9	0.010894
3597.55	0.003264
3607.19	0.003564
3616.84	0.003814
3626.48	0.0016463
3636.13	0.001363
3645.77	0.001183
3655.42	0.0013045
3665.06	0.00078063
3674.71	0.000368
3684.35	0.0009886
3694	0.0011342
3703.64	0.0006506
3713.29	0.000364
3722.93	0.001124
3732.58	0.0010197
3742.22	0.0010454
3751.86	0.0011414
3761.51	0.0011936
3771.15	9.7e-05
3780.8	0.000334
3790.44	0.00077368
3800.09	0.000157
3809.73	0.000599
3819.38	0.0009789
3829.02	0.0011086
3838.67	0.000566
3848.31	0.0006475
3857.96	0.000578
3867.6	0.000536
3877.25	0.000121
3886.89	0.000516
3896.54	0.0010269
3906.18	0.0009598
3915.83	0.001341
3925.47	0.0015311
3935.12	0.0011434
3944.76	0.001616
3954.41	0.001287
3964.05	0.000852
3973.69	0.0009078
3983.34	0.0009121
3992.98	0.000547
