Infrared Spectrum: 2-Fluoro-4-(trifluoromethyl)benzoic acid
Formula: C 8 H 4 F 4 O 2
CAS: 115029-24-8
State: gas
Origin: EPA-IR VAPOR PHASE LIBRARY
1/CM	ABSORBANCE
549.8	0.022565
559.445	0.020705
569.09	0.018905
578.734	0.013995
588.379	0.011735
598.024	0.011325
607.669	0.009705
617.313	0.006025
626.958	0.004225
636.603	0.004585
646.248	0.006585
655.893	0.007155
665.537	0.002875
675.182	0.003075
684.827	0.004975
694.472	0.009995
704.116	0.017005
713.761	0.013115
723.406	0.008565
733.051	0.022315
742.695	0.030595
752.34	0.011335
761.985	0.005295
771.63	0.009635
781.275	0.013765
790.919	0.008975
800.564	0.004895
810.209	0.003485
819.854	0.002085
829.498	0.005065
839.143	0.007855
848.788	0.008025
858.433	0.004985
868.078	0.006085
877.722	0.014285
887.367	0.018145
897.012	0.011725
906.657	0.017565
916.301	0.044165
925.946	0.023875
935.591	0.004385
945.236	0.002845
954.88	0.002425
964.525	0.002565
974.17	0.002255
983.815	0.002425
993.46	0.002165
1003.1	0.002495
1012.75	0.002935
1022.39	0.004615
1032.04	0.005505
1041.68	0.009565
1051.33	0.017835
1060.97	0.030345
1070.62	0.053185
1080.26	0.053405
1089.91	0.056525
1099.55	0.056615
1109.2	0.031665
1118.84	0.047035
1128.49	0.065315
1138.13	0.072205
1147.78	0.110455
1157.42	0.167135
1167.07	0.131435
1176.71	0.154675
1186.36	0.135825
1196	0.069875
1205.64	0.039135
1215.29	0.054935
1224.93	0.047745
1234.58	0.020085
1244.22	0.012965
1253.87	0.013175
1263.51	0.013615
1273.16	0.012555
1282.8	0.014215
1292.45	0.020625
1302.09	0.035475
1311.74	0.055005
1321.38	0.120975
1331.03	0.208215
1340.67	0.082095
1350.32	0.023005
1359.96	0.015845
1369.61	0.012795
1379.25	0.010545
1388.9	0.010335
1398.54	0.012675
1408.18	0.020055
1417.83	0.043725
1427.47	0.082265
1437.12	0.075715
1446.76	0.026635
1456.41	0.010435
1466.05	0.007325
1475.7	0.006015
1485.34	0.006745
1494.99	0.010545
1504.63	0.015785
1514.28	0.012955
1523.92	0.005565
1533.57	0.003225
1543.21	0.003225
1552.86	0.003825
1562.5	0.004815
1572.15	0.008615
1581.79	0.012185
1591.44	0.009005
1601.08	0.004565
1610.73	0.004795
1620.37	0.007445
1630.01	0.009515
1639.66	0.006405
1649.3	0.003425
1658.95	0.002355
1668.59	0.002565
1678.24	0.002715
1687.88	0.003365
1697.53	0.003795
1707.17	0.004755
1716.82	0.007235
1726.46	0.011315
1736.11	0.019395
1745.75	0.037515
1755.4	0.083035
1765.04	0.102115
1774.69	0.097125
1784.33	0.067195
1793.98	0.032145
1803.62	0.020375
1813.27	0.011585
1822.91	0.006165
1832.55	0.003535
1842.2	0.002555
1851.84	0.001885
1861.49	0.001965
1871.13	0.001725
1880.78	0.0013742
1890.42	0.0015002
1900.07	0.001765
1909.71	0.002045
1919.36	0.002015
1929	0.001945
1938.65	0.001625
1948.29	0.0011952
1957.94	0.0012405
1967.58	0.0012911
1977.23	0.0011067
1986.87	0.0010803
1996.52	0.0009547
2006.16	0.000969
2015.81	0.0007075
2025.45	0.0009169
2035.1	0.0010012
2044.74	0.0009201
2054.38	0.0009306
2064.03	0.0009913
2073.67	0.0011634
2083.32	0.001172
2092.96	0.001211
2102.61	0.0010648
2112.25	0.0010158
2121.9	0.0011671
2131.54	0.001585
2141.19	0.0014658
2150.83	0.0010565
2160.48	0.0008667
2170.12	0.0009895
2179.77	0.0011185
2189.41	0.001017
2199.06	0.0010857
2208.7	0.0009565
2218.35	0.0010131
2227.99	0.0013991
2237.64	0.001373
2247.28	0.0012798
2256.92	0.0013335
2266.57	0.0012413
2276.21	0.0011405
2285.86	0.0011627
2295.5	0.0013781
2305.15	0.0013947
2314.79	0.001535
2324.44	0.0013985
2334.08	0.0013577
2343.73	0.0014969
2353.37	0.001785
2363.02	0.001298
2372.66	0.001525
2382.31	0.0011749
2391.95	0.0010881
2401.6	0.0010757
2411.24	0.0011037
2420.89	0.0010186
2430.53	0.0011187
2440.18	0.0011887
2449.82	0.0009215
2459.47	0.0011198
2469.11	0.0011032
2478.75	0.0012776
2488.4	0.0011355
2498.04	0.0009801
2507.69	0.0010884
2517.33	0.0012617
2526.98	0.0007572
2536.62	0.0009041
2546.27	0.0010349
2555.91	0.0009365
2565.56	0.00054454
2575.2	0.00050355
2584.85	0.0006427
2594.49	0.0006742
2604.14	0.0007097
2613.78	0.0007791
2623.43	0.0006144
2633.07	0.000608
2642.72	0.0008895
2652.36	0.0011847
2662.01	0.0011557
2671.65	0.000729
2681.29	0.0006391
2690.94	0.0006421
2700.58	0.0004886
2710.23	0.00058823
2719.87	0.0008914
2729.52	0.0007704
2739.16	0.0008659
2748.81	0.0007416
2758.45	0.0007111
2768.1	0.0009118
2777.74	0.00053651
2787.39	0.0006527
2797.03	0.0007577
2806.68	0.0010353
2816.32	0.0004768
2825.97	0.00054107
2835.61	0.0007615
2845.26	0.0007324
2854.9	0.0011627
2864.55	0.0006327
2874.19	0.000475
2883.84	0.0007209
2893.48	0.00053927
2903.12	0.000307
2912.77	0.0008442
2922.41	0.0007989
2932.06	0.0008242
2941.7	0.0011502
2951.35	0.0011051
2960.99	0.0009271
2970.64	0.000775
2980.28	0.0004532
2989.93	0.0009236
2999.57	0.0007602
3009.22	0.0010934
3018.86	0.001134
3028.51	0.0008002
3038.15	0.0008001
3047.8	0.0007551
3057.44	0.0006891
3067.09	0.001725
3076.73	0.001615
3086.38	0.001775
3096.02	0.0014996
3105.67	0.0012159
3115.31	0.0011807
3124.95	0.0008684
3134.6	0.0008676
3144.24	0.0007909
3153.89	0.0006834
3163.53	0.0012998
3173.18	0.0007516
3182.82	0.000233
3192.47	0.0009292
3202.11	0.0007511
3211.76	0.000168
3221.4	0.0004575
3231.05	0.0009528
3240.69	0.0007769
3250.34	0.000598
3259.98	0.0007034
3269.63	0.0004201
3279.27	0.0007568
3288.92	0.000313
3298.56	0.0006982
3308.21	0.0009437
3317.85	0.000766
3327.49	0.0009756
3337.14	0.000462
3346.78	0.0010871
3356.43	0.00056379
3366.07	0.0007386
3375.72	0.0008015
3385.36	0.00057288
3395.01	0.0004582
3404.65	0.000221
3414.3	0.0006071
3423.94	0.00052768
3433.59	0.0008742
3443.23	0.0009413
3452.88	0.0007916
3462.52	0.000976
3472.17	0.001675
3481.81	0.0010426
3491.46	0.0010152
3501.1	0.001178
3510.75	0.001805
3520.39	0.001815
3530.04	0.001825
3539.68	0.002195
3549.32	0.003085
3558.97	0.009115
3568.61	0.049955
3578.26	0.047235
3587.9	0.013025
3597.55	0.004355
3607.19	0.004975
3616.84	0.003555
3626.48	0.002135
3636.13	0.001685
3645.77	0.0010677
3655.42	0.0008033
3665.06	0.0008068
3674.71	0.0007279
3684.35	0.0006312
3694	0.00052455
3703.64	0.0008106
3713.29	0.0006321
3722.93	0.0007914
3732.58	0.0009574
3742.22	0.0010388
3751.86	0.0007725
3761.51	0.0009371
3771.15	0.000364
3780.8	1.6e-05
3790.44	0.000233
3800.09	0.0008384
3809.73	0.0012031
3819.38	0.000632
3829.02	0.0007148
3838.67	0.000352
3848.31	0.000997
3857.96	0.00115
3867.6	0.00054823
3877.25	0.0005959
3886.89	0.0010246
3896.54	0.0008366
3906.18	0.0010419
3915.83	0.001185
3925.47	0.0010564
3935.12	0.000281
3944.76	0.0007344
3954.41	0.0006624
3964.05	0.0012285
3973.69	0.000233
3983.34	0.0006393
3992.98	0.0007403
