Infrared Spectrum: 2,5-BIS(ANILINO)-1,3,4-THIADIAZOLE
Formula: C14 H12 N4 S
CAS: 1152-54-1
Class: COBLENTZ
Instrument: Not specified, most likely a prism, grating, or hybrid spectrometer.
Sampling: TRANSMISSION
Resolution: 4
Origin: TENNESSEE EASTMAN COMPANY, RESEARCH LABORATORIES
MICROMETERS	TRANSMITTANCE
2.055	0.894
2.09599	0.899
2.13699	0.902
2.17798	0.909
2.21898	0.912
2.25997	0.919
2.30097	0.923
2.34196	0.924
2.38295	0.928
2.42395	0.931
2.46494	0.931
2.50594	0.931
2.54693	0.933
2.58792	0.933
2.62892	0.933
2.66991	0.936
2.71091	0.931
2.7519	0.897
2.7929	0.842
2.83389	0.817
2.87488	0.781
2.91588	0.748
2.95687	0.705
2.99787	0.75
3.03886	0.731
3.07986	0.581
3.12085	0.476
3.16184	0.588
3.20284	0.664
3.24383	0.654
3.28483	0.488
3.32582	0.439
3.36682	0.488
3.40781	0.61
3.4488	0.695
3.4898	0.712
3.53079	0.753
3.57179	0.76
3.61278	0.813
3.65377	0.839
3.69477	0.861
3.73576	0.87
3.77676	0.882
3.81775	0.899
3.85875	0.912
3.89974	0.923
3.94073	0.924
3.98173	0.931
4.02272	0.935
4.06372	0.938
4.10471	0.938
4.14571	0.94
4.1867	0.941
4.22769	0.943
4.26869	0.938
4.30968	0.933
4.35068	0.933
4.39167	0.941
4.43266	0.947
4.47366	0.952
4.51465	0.953
4.55565	0.953
4.59664	0.953
4.63764	0.953
4.67863	0.953
4.71962	0.953
4.76062	0.953
4.80161	0.953
4.84261	0.953
4.8836	0.953
4.9246	0.953
4.96559	0.957
5.00658	0.958
5.04758	0.957
5.08857	0.957
5.12957	0.947
5.17056	0.938
5.21156	0.95
5.25255	0.957
5.29354	0.953
5.33454	0.952
5.37553	0.941
5.41653	0.95
5.45752	0.953
5.49851	0.953
5.53951	0.952
5.5805	0.947
5.6215	0.945
5.66249	0.943
5.70349	0.938
5.74448	0.907
5.78547	0.892
5.82647	0.888
5.86746	0.902
5.90846	0.894
5.94945	0.888
5.99045	0.878
6.03144	0.856
6.07243	0.823
6.11343	0.798
6.15442	0.728
6.19542	0.591
6.23641	0.217
6.2774	0.41
6.3184	0.68
6.35939	0.543
6.40039	0.374
6.44138	0.295
6.48238	0.295
6.52337	0.223
6.56436	0.362
6.60536	0.343
6.64635	0.124
6.68735	0.085
6.72834	0.027
6.76934	0.188
6.81033	0.377
6.85132	0.391
6.89232	0.174
6.93331	0.406
6.97431	0.641
7.0153	0.656
7.0563	0.661
7.09729	0.641
7.13828	0.654
7.17928	0.755
7.22027	0.8
7.26127	0.811
7.30226	0.817
7.34325	0.832
7.38425	0.832
7.42524	0.798
7.46624	0.784
7.50723	0.788
7.54823	0.659
7.58922	0.454
7.63021	0.323
7.67121	0.495
7.7122	0.574
7.7532	0.702
7.79419	0.764
7.83519	0.793
7.87618	0.788
7.91717	0.654
7.95817	0.341
7.99916	0.343
8.04016	0.588
8.08115	0.695
8.12214	0.747
8.16314	0.77
8.20413	0.777
8.24513	0.777
8.28612	0.796
8.32712	0.777
8.36811	0.748
8.4091	0.74
8.4501	0.745
8.49109	0.762
8.53209	0.721
8.57308	0.798
8.61408	0.8
8.65507	0.791
8.69606	0.829
8.73706	0.839
8.77805	0.839
8.81905	0.842
8.86004	0.846
8.90103	0.841
8.94203	0.83
8.98302	0.815
9.02402	0.811
9.06501	0.806
9.10601	0.777
9.147	0.728
9.18799	0.748
9.22899	0.777
9.26998	0.788
9.31098	0.8
9.35197	0.813
9.39297	0.829
9.43396	0.841
9.47495	0.847
9.51595	0.851
9.55694	0.856
9.59794	0.859
9.63893	0.861
9.67993	0.835
9.72092	0.788
9.76191	0.82
9.80291	0.868
9.8439	0.88
9.8849	0.888
9.92589	0.887
9.96688	0.883
10.0079	0.88
10.0489	0.88
10.0899	0.897
10.1309	0.902
10.1719	0.902
10.2129	0.897
10.2538	0.89
10.2948	0.892
10.3358	0.894
10.3768	0.895
10.4178	0.899
10.4588	0.904
10.4998	0.905
10.5408	0.907
10.5818	0.909
10.6228	0.919
10.6638	0.924
10.7048	0.926
10.7458	0.929
10.7868	0.928
10.8278	0.929
10.8688	0.933
10.9098	0.936
10.9507	0.936
10.9917	0.929
11.0327	0.909
11.0737	0.878
11.1147	0.832
11.1557	0.811
11.1967	0.861
11.2377	0.885
11.2787	0.892
11.3197	0.895
11.3607	0.897
11.4017	0.905
11.4427	0.917
11.4837	0.931
11.5247	0.938
11.5657	0.94
11.6067	0.938
11.6476	0.933
11.6886	0.926
11.7296	0.917
11.7706	0.911
11.8116	0.905
11.8526	0.876
11.8936	0.847
11.9346	0.829
11.9756	0.81
12.0166	0.81
12.0576	0.822
12.0986	0.835
12.1396	0.839
12.1806	0.839
12.2216	0.841
12.2626	0.839
12.3036	0.841
12.3445	0.846
12.3855	0.852
12.4265	0.859
12.4675	0.868
12.5085	0.876
12.5495	0.88
12.5905	0.878
12.6315	0.878
12.6725	0.875
12.7135	0.871
12.7545	0.87
12.7955	0.868
12.8365	0.858
12.8775	0.839
12.9185	0.835
12.9595	0.83
13.0005	0.808
13.0415	0.772
13.0824	0.676
13.1234	0.6
13.1644	0.572
13.2054	0.552
13.2464	0.464
13.2874	0.319
13.3284	0.194
13.3694	0.176
13.4104	0.246
13.4514	0.372
13.4924	0.495
13.5334	0.63
13.5744	0.69
13.6154	0.726
13.6564	0.747
13.6974	0.764
13.7384	0.776
13.7793	0.781
13.8203	0.784
13.8613	0.786
13.9023	0.786
13.9433	0.786
13.9843	0.777
14.0253	0.779
14.0663	0.776
14.1073	0.772
14.1483	0.765
14.1893	0.75
14.2303	0.726
14.2713	0.695
14.3123	0.632
14.3533	0.533
14.3943	0.452
14.4353	0.398
14.4762	0.41
14.5172	0.459
14.5582	0.533
14.5992	0.598
14.6402	0.635
14.6812	0.659
14.7222	0.673
14.7632	0.676
14.8042	0.682
14.8452	0.678
14.8862	0.673
14.9272	0.663
14.9682	0.654
15.0092	0.647
15.0502	0.646
15.0912	0.647
15.1322	0.647
15.1732	0.646
15.2141	0.644
15.2551	0.641
15.2961	0.635
15.3371	0.632
15.3781	0.622
15.4191	0.617
15.4601	0.608
15.5011	0.606
15.5421	0.601
15.5831	0.596
15.6241	0.591
15.6651	0.586
15.7061	0.579
15.7471	0.577
15.7881	0.576
15.8291	0.572
15.8701	0.569
15.911	0.565
15.952	0.564
15.993	0.56
