Infrared Spectrum: 3,5,3',4'-TETRACHLOROSALICYLANILIDE
Formula: C13 H7 Cl4 N O2
CAS: 1154-59-2
State: SOLID (MINERAL OIL MULL)
Melting point: 161-163 C
Class: COBLENTZ
Instrument: Not specified, most likely a prism, grating, or hybrid spectrometer.
Sampling: TRANSMISSION
Resolution: 4
Origin: WYANDOTTE CHEMICALS CORP., WYANDOTTE, MICHIGAN, USA
MICROMETERS	TRANSMITTANCE
2.046	0.623
2.08579	0.635
2.12558	0.643
2.16537	0.64
2.20517	0.62
2.24496	0.613
2.28475	0.623
2.32454	0.635
2.36433	0.646
2.40412	0.653
2.44392	0.65
2.48371	0.651
2.5235	0.651
2.56329	0.648
2.60308	0.656
2.64287	0.665
2.68266	0.683
2.72246	0.645
2.76225	0.638
2.80204	0.635
2.84183	0.611
2.88162	0.592
2.92141	0.583
2.96121	0.58
3.001	0.505
3.04079	0.393
3.08058	0.291
3.12037	0.399
3.16016	0.417
3.19995	0.419
3.23975	0.411
3.27954	0.412
3.31933	0.401
3.35912	0.232
3.39891	0.013
3.4387	0.019
3.4785	0.024
3.51829	0.026
3.55808	0.17
3.59787	0.514
3.63766	0.61
3.67745	0.631
3.71724	0.628
3.75704	0.65
3.79683	0.665
3.83662	0.689
3.87641	0.701
3.9162	0.719
3.95599	0.726
3.99579	0.751
4.03558	0.771
4.07537	0.782
4.11516	0.789
4.15495	0.799
4.19474	0.81
4.23453	0.812
4.27433	0.799
4.31412	0.796
4.35391	0.805
4.3937	0.84
4.43349	0.865
4.47328	0.86
4.51308	0.873
4.55287	0.88
4.59266	0.887
4.63245	0.892
4.67224	0.892
4.71203	0.902
4.75182	0.907
4.79162	0.908
4.83141	0.918
4.8712	0.928
4.91099	0.927
4.95078	0.932
4.99057	0.93
5.03037	0.935
5.07016	0.935
5.10995	0.938
5.14974	0.955
5.18953	0.956
5.22932	0.953
5.26912	0.961
5.30891	0.953
5.3487	0.956
5.38849	0.965
5.42828	0.971
5.46807	0.971
5.50786	0.966
5.54766	0.971
5.58745	0.968
5.62724	0.97
5.66703	0.932
5.70682	0.913
5.74661	0.923
5.78641	0.946
5.8262	0.917
5.86599	0.872
5.90578	0.878
5.94557	0.804
5.98536	0.713
6.02515	0.593
6.06495	0.374
6.10474	0.19
6.14453	0.454
6.18432	0.384
6.22411	0.18
6.2639	0.077
6.3037	0.311
6.34349	0.497
6.38328	0.578
6.42307	0.598
6.46286	0.368
6.50265	0.074
6.54244	0.135
6.58224	0.323
6.62203	0.552
6.66182	0.605
6.70161	0.524
6.7414	0.202
6.78119	0.082
6.82099	0.049
6.86078	0.044
6.90057	0.064
6.94036	0.134
6.98015	0.326
7.01994	0.281
7.05973	0.439
7.09953	0.464
7.13932	0.386
7.17911	0.3
7.2189	0.174
7.25869	0.135
7.29848	0.184
7.33828	0.19
7.37807	0.222
7.41786	0.252
7.45765	0.341
7.49744	0.416
7.53723	0.331
7.57702	0.159
7.61682	0.252
7.65661	0.378
7.6964	0.459
7.73619	0.426
7.77598	0.373
7.81577	0.311
7.85557	0.383
7.89536	0.5
7.93515	0.472
7.97494	0.396
8.01473	0.25
8.05452	0.182
8.09431	0.353
8.13411	0.411
8.1739	0.454
8.21369	0.58
8.25348	0.665
8.29327	0.681
8.33306	0.666
8.37286	0.545
8.41265	0.446
8.45244	0.409
8.49223	0.306
8.53202	0.373
8.57181	0.509
8.6116	0.56
8.6514	0.565
8.69119	0.583
8.73098	0.613
8.77077	0.59
8.81056	0.52
8.85035	0.542
8.89015	0.65
8.92994	0.718
8.96973	0.756
9.00952	0.757
9.04931	0.779
9.0891	0.787
9.12889	0.762
9.16869	0.794
9.20848	0.805
9.24827	0.815
9.28806	0.812
9.32785	0.82
9.36764	0.829
9.40744	0.835
9.44723	0.84
9.48702	0.84
9.52681	0.847
9.5666	0.847
9.60639	0.83
9.64618	0.764
9.68598	0.598
9.72577	0.626
9.76556	0.772
9.80535	0.84
9.84514	0.862
9.88493	0.87
9.92473	0.885
9.96452	0.883
10.0043	0.897
10.0441	0.892
10.0839	0.892
10.1237	0.892
10.1635	0.885
10.2033	0.888
10.2431	0.872
10.2828	0.868
10.3226	0.87
10.3624	0.868
10.4022	0.872
10.442	0.877
10.4818	0.87
10.5216	0.864
10.5614	0.824
10.6012	0.794
10.641	0.799
10.6808	0.751
10.7206	0.746
10.7603	0.81
10.8001	0.842
10.8399	0.844
10.8797	0.799
10.9195	0.618
10.9593	0.635
10.9991	0.742
11.0389	0.817
11.0787	0.85
11.1185	0.867
11.1583	0.86
11.1981	0.84
11.2378	0.805
11.2776	0.689
11.3174	0.66
11.3572	0.714
11.397	0.726
11.4368	0.683
11.4766	0.605
11.5164	0.384
11.5562	0.452
11.596	0.575
11.6358	0.621
11.6756	0.615
11.7153	0.601
11.7551	0.673
11.7949	0.749
11.8347	0.787
11.8745	0.815
11.9143	0.824
11.9541	0.839
11.9939	0.844
12.0337	0.842
12.0735	0.809
12.1133	0.776
12.1531	0.693
12.1928	0.479
12.2326	0.298
12.2724	0.31
12.3122	0.497
12.352	0.628
12.3918	0.708
12.4316	0.754
12.4714	0.789
12.5112	0.81
12.551	0.822
12.5908	0.82
12.6306	0.802
12.6703	0.777
12.7101	0.696
12.7499	0.527
12.7897	0.432
12.8295	0.582
12.8693	0.593
12.9091	0.422
12.9489	0.331
12.9887	0.485
13.0285	0.661
13.0683	0.731
13.108	0.771
13.1478	0.787
13.1876	0.794
13.2274	0.794
13.2672	0.786
13.307	0.782
13.3468	0.766
13.3866	0.742
13.4264	0.691
13.4662	0.608
13.506	0.512
13.5458	0.431
13.5855	0.427
13.6253	0.489
13.6651	0.553
13.7049	0.613
13.7447	0.638
13.7845	0.65
13.8243	0.65
13.8641	0.648
13.9039	0.643
13.9437	0.638
13.9835	0.621
14.0233	0.621
14.063	0.636
14.1028	0.663
14.1426	0.689
14.1824	0.708
14.2222	0.691
14.262	0.653
14.3018	0.603
14.3416	0.532
14.3814	0.469
14.4212	0.467
14.461	0.548
14.5008	0.611
14.5405	0.63
14.5803	0.628
14.6201	0.601
14.6599	0.585
14.6997	0.558
14.7395	0.545
14.7793	0.535
14.8191	0.53
14.8589	0.535
14.8987	0.558
14.9385	0.595
14.9783	0.623
15.018	0.636
15.0578	0.655
15.0976	0.683
15.1374	0.691
15.1772	0.689
15.217	0.684
15.2568	0.684
15.2966	0.693
15.3364	0.701
15.3762	0.706
15.416	0.711
15.4558	0.721
15.4955	0.734
15.5353	0.731
15.5751	0.734
15.6149	0.734
15.6547	0.731
15.6945	0.731
15.7343	0.728
15.7741	0.728
15.8139	0.726
15.8537	0.719
15.8935	0.713
15.9332	0.698
15.973	0.696
