Infrared Spectrum: BIS(O-NITROPHENYL)DISULFIDE
Formula: C12 H8 N2 O4 S2
CAS: 1155-00-6
State: SOLID (MINERAL OIL MULL)
Melting point: 194-195 C
Class: COBLENTZ
Instrument: Not specified, most likely a prism, grating, or hybrid spectrometer.
Sampling: TRANSMISSION
Resolution: 4
Origin: WYANDOTTE CHEMICALS CORP., WYANDOTTE, MICHIGAN, USA
MICROMETERS	TRANSMITTANCE
2.034	0.311
2.07486	0.311
2.11571	0.326
2.15657	0.331
2.19742	0.345
2.23828	0.341
2.27914	0.346
2.31999	0.352
2.36085	0.35
2.4017	0.36
2.44256	0.37
2.48342	0.374
2.52427	0.375
2.56513	0.384
2.60598	0.384
2.64684	0.394
2.6877	0.409
2.72855	0.411
2.76941	0.408
2.81026	0.394
2.85112	0.396
2.89198	0.396
2.93283	0.392
2.97369	0.392
3.01454	0.397
3.0554	0.408
3.09625	0.411
3.13711	0.403
3.17797	0.394
3.21882	0.379
3.25968	0.353
3.30053	0.355
3.34139	0.265
3.38225	0.085
3.4231	0.054
3.46396	0.161
3.50481	0.144
3.54567	0.375
3.58653	0.482
3.62738	0.503
3.66824	0.511
3.70909	0.528
3.74995	0.534
3.79081	0.535
3.83166	0.539
3.87252	0.549
3.91337	0.569
3.95423	0.583
3.99509	0.593
4.03594	0.593
4.0768	0.591
4.11765	0.593
4.15851	0.581
4.19937	0.608
4.24022	0.603
4.28108	0.603
4.32193	0.619
4.36279	0.642
4.40365	0.659
4.4445	0.654
4.48536	0.656
4.52621	0.666
4.56707	0.67
4.60793	0.668
4.64878	0.68
4.68964	0.692
4.73049	0.698
4.77135	0.715
4.81221	0.717
4.85306	0.722
4.89392	0.732
4.93477	0.734
4.97563	0.738
5.01648	0.744
5.05734	0.751
5.0982	0.712
5.13905	0.751
5.17991	0.748
5.22076	0.756
5.26162	0.772
5.30248	0.787
5.34333	0.795
5.38419	0.807
5.42504	0.782
5.4659	0.811
5.50676	0.811
5.54761	0.78
5.58847	0.823
5.62932	0.838
5.67018	0.835
5.71104	0.824
5.75189	0.819
5.79275	0.828
5.8336	0.816
5.87446	0.797
5.91532	0.785
5.95617	0.826
5.99703	0.84
6.03788	0.821
6.07874	0.889
6.1196	0.94
6.16045	0.87
6.20131	0.721
6.24216	0.151
6.28302	0.545
6.32388	0.396
6.36473	0.386
6.40559	0.809
6.44644	0.787
6.4873	0.697
6.52816	0.389
6.56901	0.085
6.60987	0.049
6.65072	0.107
6.69158	0.204
6.73244	0.265
6.77329	0.241
6.81415	0.198
6.855	0.141
6.89586	0.324
6.93671	0.425
6.97757	0.491
7.01843	0.564
7.05928	0.574
7.10014	0.608
7.14099	0.647
7.18185	0.632
7.22271	0.535
7.26356	0.481
7.30442	0.486
7.34527	0.311
7.38613	0.275
7.42699	0.091
7.46784	0.028
7.5087	0.088
7.54955	0.205
7.59041	0.268
7.63127	0.083
7.67212	0.151
7.71298	0.345
7.75383	0.445
7.79469	0.479
7.83555	0.481
7.8764	0.5
7.91726	0.562
7.95811	0.321
7.99897	0.53
8.03983	0.603
8.08068	0.642
8.12154	0.651
8.16239	0.654
8.20325	0.668
8.24411	0.671
8.28496	0.681
8.32582	0.705
8.36667	0.736
8.40753	0.755
8.44839	0.758
8.48924	0.654
8.5301	0.608
8.57095	0.644
8.61181	0.736
8.65267	0.668
8.69352	0.513
8.73438	0.704
8.77523	0.76
8.81609	0.772
8.85694	0.746
8.8978	0.634
8.93866	0.585
8.97951	0.438
9.02037	0.224
9.06122	0.498
9.10208	0.6
9.14294	0.653
9.18379	0.678
9.22465	0.695
9.2655	0.695
9.30636	0.697
9.34722	0.704
9.38807	0.738
9.42893	0.688
9.46978	0.639
9.51064	0.748
9.5515	0.615
9.59235	0.248
9.63321	0.488
9.67406	0.624
9.71492	0.658
9.75578	0.698
9.79663	0.727
9.83749	0.739
9.87834	0.75
9.9192	0.761
9.96006	0.784
10.0009	0.792
10.0418	0.819
10.0826	0.799
10.1235	0.823
10.1643	0.836
10.2052	0.836
10.246	0.835
10.2869	0.828
10.3278	0.843
10.3686	0.86
10.4095	0.806
10.4503	0.77
10.4912	0.76
10.532	0.823
10.5729	0.874
10.6138	0.886
10.6546	0.892
10.6955	0.897
10.7363	0.901
10.7772	0.909
10.818	0.906
10.8589	0.908
10.8997	0.913
10.9406	0.914
10.9815	0.925
11.0223	0.928
11.0632	0.935
11.104	0.937
11.1449	0.935
11.1857	0.937
11.2266	0.94
11.2674	0.94
11.3083	0.945
11.3492	0.95
11.39	0.955
11.4309	0.954
11.4717	0.911
11.5126	0.858
11.5534	0.869
11.5943	0.726
11.6351	0.595
11.676	0.406
11.7169	0.232
11.7577	0.542
11.7986	0.731
11.8394	0.812
11.8803	0.835
11.9211	0.865
11.962	0.884
12.0029	0.903
12.0437	0.914
12.0846	0.918
12.1254	0.916
12.1663	0.918
12.2071	0.918
12.248	0.916
12.2888	0.923
12.3297	0.926
12.3706	0.931
12.4114	0.935
12.4523	0.94
12.4931	0.942
12.534	0.94
12.5748	0.937
12.6157	0.926
12.6565	0.913
12.6974	0.846
12.7383	0.557
12.7791	0.518
12.82	0.414
12.8608	0.482
12.9017	0.811
12.9425	0.897
12.9834	0.921
13.0243	0.928
13.0651	0.933
13.106	0.942
13.1468	0.938
13.1877	0.935
13.2285	0.933
13.2694	0.925
13.3102	0.909
13.3511	0.892
13.392	0.865
13.4328	0.831
13.4737	0.777
13.5145	0.676
13.5554	0.498
13.5962	0.277
13.6371	0.083
13.6779	0.054
13.7188	0.153
13.7597	0.397
13.8005	0.627
13.8414	0.724
13.8822	0.77
13.9231	0.773
13.9639	0.712
14.0048	0.568
14.0457	0.455
14.0865	0.396
14.1274	0.448
14.1682	0.559
14.2091	0.678
14.2499	0.768
14.2908	0.816
14.3316	0.843
14.3725	0.867
14.4134	0.877
14.4542	0.88
14.4951	0.882
14.5359	0.882
14.5768	0.879
14.6176	0.874
14.6585	0.86
14.6993	0.829
14.7402	0.778
14.7811	0.707
14.8219	0.661
14.8628	0.67
14.9036	0.715
14.9445	0.765
14.9853	0.751
15.0262	0.705
15.0671	0.651
15.1079	0.647
15.1488	0.693
15.1896	0.722
15.2305	0.721
15.2713	0.697
15.3122	0.625
15.353	0.557
15.3939	0.527
15.4348	0.561
15.4756	0.61
15.5165	0.646
15.5573	0.651
15.5982	0.654
15.639	0.647
15.6799	0.641
15.7207	0.632
15.7616	0.619
15.8025	0.607
15.8433	0.602
15.8842	0.586
15.925	0.568
15.9659	0.549
