Infrared Spectrum: PROPIONIC ACID, 2-METHYL-2-HYDROXY PROPYL ESTER
Formula: C7 H14 O3
CAS: 115665-44-6
State: LIQUID
Class: COBLENTZ
Instrument: Not specified, most likely a prism, grating, or hybrid spectrometer.
Sampling: TRANSMISSION
Path length: FILM
Resolution: 4
Origin: TENNESSEE EASTMAN COMPANY, RESEARCH LABORATORIES
MICROMETERS	TRANSMITTANCE
2.027	0.908
2.0679	0.906
2.10879	0.908
2.14969	0.911
2.19059	0.916
2.23148	0.903
2.27238	0.87
2.31328	0.864
2.35417	0.887
2.39507	0.889
2.43597	0.891
2.47686	0.887
2.51776	0.898
2.55866	0.901
2.59955	0.903
2.64045	0.903
2.68135	0.906
2.72224	0.893
2.76314	0.641
2.80404	0.404
2.84493	0.252
2.88583	0.179
2.92672	0.171
2.96762	0.215
3.00852	0.278
3.04941	0.339
3.09031	0.451
3.13121	0.573
3.1721	0.679
3.213	0.743
3.2539	0.782
3.29479	0.779
3.33569	0.227
3.37659	0.212
3.41748	0.317
3.45838	0.31
3.49928	0.628
3.54017	0.709
3.58107	0.774
3.62197	0.791
3.66286	0.799
3.70376	0.821
3.74466	0.831
3.78555	0.835
3.82645	0.845
3.86735	0.857
3.90824	0.859
3.94914	0.862
3.99004	0.867
4.03093	0.877
4.07183	0.889
4.11273	0.898
4.15362	0.906
4.19452	0.906
4.23542	0.903
4.27631	0.891
4.31721	0.887
4.35811	0.899
4.399	0.918
4.4399	0.923
4.4808	0.926
4.52169	0.928
4.56259	0.93
4.60348	0.928
4.64438	0.93
4.68528	0.926
4.72617	0.923
4.76707	0.921
4.80797	0.92
4.84886	0.92
4.88976	0.92
4.93066	0.921
4.97155	0.918
5.01245	0.92
5.05335	0.92
5.09424	0.92
5.13514	0.923
5.17604	0.921
5.21693	0.916
5.25783	0.916
5.29873	0.918
5.33962	0.916
5.38052	0.91
5.42142	0.899
5.46231	0.889
5.50321	0.867
5.54411	0.831
5.585	0.78
5.6259	0.699
5.6668	0.529
5.70769	0.125
5.74859	0.022
5.78949	0.023
5.83038	0.047
5.87128	0.174
5.91218	0.414
5.95307	0.607
5.99397	0.689
6.03487	0.747
6.07576	0.772
6.11666	0.806
6.15756	0.826
6.19845	0.838
6.23935	0.848
6.28024	0.853
6.32114	0.855
6.36204	0.84
6.40293	0.821
6.44383	0.821
6.48473	0.787
6.52562	0.78
6.56652	0.757
6.60742	0.731
6.64831	0.699
6.68921	0.602
6.73011	0.404
6.771	0.174
6.8119	0.207
6.8528	0.258
6.89369	0.346
6.93459	0.443
6.97549	0.456
7.01638	0.431
7.05728	0.405
7.09818	0.375
7.13907	0.252
7.17997	0.162
7.22087	0.21
7.26176	0.239
7.30266	0.259
7.34356	0.298
7.38445	0.293
7.42535	0.271
7.46625	0.269
7.50714	0.308
7.54804	0.337
7.58894	0.382
7.62983	0.421
7.67073	0.388
7.71163	0.332
7.75252	0.297
7.79342	0.244
7.83432	0.207
7.87521	0.19
7.91611	0.179
7.957	0.188
7.9979	0.217
8.0388	0.23
8.07969	0.247
8.12059	0.237
8.16149	0.185
8.20238	0.125
8.24328	0.078
8.28418	0.05
8.32507	0.04
8.36597	0.045
8.40687	0.1
8.44776	0.193
8.48866	0.176
8.52956	0.078
8.57045	0.042
8.61135	0.045
8.65225	0.059
8.69314	0.078
8.73404	0.1
8.77494	0.123
8.81583	0.152
8.85673	0.164
8.89763	0.159
8.93852	0.159
8.97942	0.178
9.02032	0.186
9.06121	0.179
9.10211	0.179
9.14301	0.176
9.1839	0.139
9.2248	0.117
9.2657	0.118
9.30659	0.151
9.34749	0.185
9.38839	0.202
9.42928	0.2
9.47018	0.186
9.51108	0.207
9.55197	0.28
9.59287	0.378
9.63376	0.477
9.67466	0.563
9.71556	0.616
9.75645	0.636
9.79735	0.614
9.83825	0.548
9.87914	0.482
9.92004	0.427
9.96094	0.397
10.0018	0.383
10.0427	0.382
10.0836	0.421
10.1245	0.465
10.1654	0.526
10.2063	0.602
10.2472	0.631
10.2881	0.612
10.329	0.551
10.3699	0.502
10.4108	0.487
10.4517	0.471
10.4926	0.448
10.5335	0.415
10.5744	0.39
10.6153	0.398
10.6562	0.419
10.6971	0.426
10.738	0.419
10.7789	0.446
10.8198	0.497
10.8607	0.541
10.9016	0.575
10.9425	0.607
10.9834	0.64
11.0242	0.665
11.0651	0.658
11.106	0.638
11.1469	0.648
11.1878	0.665
11.2287	0.685
11.2696	0.713
11.3105	0.731
11.3514	0.724
11.3923	0.68
11.4332	0.655
11.4741	0.651
11.515	0.67
11.5559	0.675
11.5968	0.657
11.6377	0.634
11.6786	0.616
11.7195	0.597
11.7604	0.589
11.8013	0.606
11.8422	0.626
11.8831	0.631
11.924	0.631
11.9649	0.631
12.0058	0.636
12.0467	0.636
12.0876	0.64
12.1285	0.655
12.1694	0.663
12.2102	0.662
12.2511	0.665
12.292	0.687
12.3329	0.716
12.3738	0.738
12.4147	0.755
12.4556	0.77
12.4965	0.78
12.5374	0.789
12.5783	0.792
12.6192	0.792
12.6601	0.791
12.701	0.787
12.7419	0.784
12.7828	0.779
12.8237	0.765
12.8646	0.75
12.9055	0.73
12.9464	0.697
12.9873	0.667
13.0282	0.638
13.0691	0.621
13.11	0.606
13.1509	0.597
13.1918	0.592
13.2327	0.594
13.2736	0.612
13.3145	0.636
13.3554	0.668
13.3963	0.691
13.4371	0.704
13.478	0.711
13.5189	0.714
13.5598	0.718
13.6007	0.719
13.6416	0.719
13.6825	0.718
13.7234	0.716
13.7643	0.714
13.8052	0.713
13.8461	0.707
13.887	0.706
13.9279	0.702
13.9688	0.701
14.0097	0.697
14.0506	0.691
14.0915	0.685
14.1324	0.68
14.1733	0.675
14.2142	0.668
14.2551	0.667
14.296	0.662
14.3369	0.655
14.3778	0.651
14.4187	0.648
14.4596	0.641
14.5005	0.636
14.5414	0.631
14.5823	0.629
14.6231	0.621
14.664	0.617
14.7049	0.614
14.7458	0.607
14.7867	0.604
14.8276	0.601
14.8685	0.597
14.9094	0.59
14.9503	0.58
14.9912	0.578
15.0321	0.577
15.073	0.57
15.1139	0.568
15.1548	0.565
15.1957	0.563
15.2366	0.56
15.2775	0.556
15.3184	0.556
15.3593	0.555
15.4002	0.551
15.4411	0.551
15.482	0.55
15.5229	0.548
15.5638	0.548
15.6047	0.548
15.6456	0.548
15.6865	0.546
15.7274	0.546
15.7683	0.544
15.8091	0.544
15.85	0.544
15.8909	0.544
15.9318	0.544
15.9727	0.543
