Infrared Spectrum: 2-NAPHTHANILIDE, 2'-CHLORO-4-[4-DIETHYLAMINO-o-TOLYLIMINO]-1,4-DIHYDRO-1-OXO-
Formula: C28 H26 Cl N3 O2
CAS: 115604-50-7
State: SOLID (KBr PRESSING)
Melting point: 198-199 C
Class: COBLENTZ
Instrument: Not specified, most likely a prism, grating, or hybrid spectrometer.
Sampling: TRANSMISSION
Resolution: 4
Origin: EASTMAN KODAK COMPANY, RESEARCH LABORATORIES, ROCHESTER, N.Y.
MICROMETERS	TRANSMITTANCE
2.058	0.555
2.09315	0.557
2.12831	0.561
2.16346	0.568
2.19862	0.573
2.23377	0.578
2.26892	0.58
2.30408	0.59
2.33923	0.597
2.37439	0.613
2.40954	0.617
2.44469	0.627
2.47985	0.631
2.515	0.641
2.55016	0.652
2.58531	0.657
2.62046	0.657
2.65562	0.659
2.69077	0.662
2.72593	0.666
2.76108	0.66
2.79623	0.624
2.83139	0.596
2.86654	0.566
2.9017	0.555
2.93685	0.562
2.972	0.573
3.00716	0.611
3.04231	0.627
3.07747	0.629
3.11262	0.629
3.14777	0.624
3.18293	0.622
3.21808	0.62
3.25324	0.615
3.28839	0.611
3.32354	0.627
3.3587	0.576
3.39385	0.583
3.42901	0.594
3.46416	0.641
3.49931	0.687
3.53447	0.723
3.56962	0.737
3.60478	0.741
3.63993	0.753
3.67508	0.758
3.71024	0.762
3.74539	0.758
3.78055	0.753
3.8157	0.758
3.85085	0.769
3.88601	0.776
3.92116	0.779
3.95632	0.788
3.99147	0.793
4.02662	0.797
4.06178	0.804
4.09693	0.814
4.13208	0.819
4.16724	0.821
4.20239	0.83
4.23755	0.846
4.2727	0.854
4.30785	0.86
4.34301	0.86
4.37816	0.856
4.41332	0.851
4.44847	0.861
4.48362	0.87
4.51878	0.874
4.55393	0.877
4.58909	0.875
4.62424	0.874
4.65939	0.875
4.69455	0.877
4.7297	0.879
4.76486	0.879
4.80001	0.884
4.83516	0.884
4.87032	0.889
4.90547	0.889
4.94063	0.891
4.97578	0.891
5.01093	0.889
5.04609	0.891
5.08124	0.9
5.1164	0.902
5.15155	0.902
5.1867	0.9
5.22186	0.9
5.25701	0.902
5.29217	0.9
5.32732	0.902
5.36247	0.905
5.39763	0.905
5.43278	0.917
5.46794	0.924
5.50309	0.923
5.53824	0.916
5.5734	0.917
5.60855	0.916
5.64371	0.919
5.67886	0.924
5.71401	0.926
5.74917	0.923
5.78432	0.916
5.81948	0.902
5.85463	0.9
5.88978	0.893
5.92494	0.68
5.96009	0.374
5.99525	0.286
6.0304	0.597
6.06555	0.69
6.10071	0.687
6.13586	0.625
6.17102	0.451
6.20617	0.213
6.24132	0.18
6.27648	0.169
6.31163	0.085
6.34679	0.124
6.38194	0.43
6.41709	0.407
6.45225	0.248
6.4874	0.209
6.52256	0.174
6.55771	0.187
6.59286	0.281
6.62802	0.293
6.66317	0.262
6.69833	0.351
6.73348	0.354
6.76863	0.236
6.80379	0.209
6.83894	0.187
6.8741	0.23
6.90925	0.185
6.9444	0.092
6.97956	0.104
7.01471	0.227
7.04987	0.356
7.08502	0.48
7.12017	0.435
7.15533	0.23
7.19048	0.139
7.22564	0.244
7.26079	0.328
7.29594	0.27
7.3311	0.283
7.36625	0.23
7.40141	0.164
7.43656	0.15
7.47171	0.281
7.50687	0.26
7.54202	0.155
7.57718	0.087
7.61233	0.069
7.64748	0.094
7.68264	0.169
7.71779	0.239
7.75295	0.265
7.7881	0.283
7.82325	0.276
7.85841	0.269
7.89356	0.246
7.92871	0.131
7.96387	0.055
7.99902	0.04
8.03418	0.136
8.06933	0.34
8.10448	0.442
8.13964	0.496
8.17479	0.506
8.20995	0.513
8.2451	0.578
8.28025	0.613
8.31541	0.597
8.35056	0.463
8.38572	0.328
8.42087	0.256
8.45602	0.3
8.49118	0.506
8.52633	0.597
8.56149	0.641
8.59664	0.624
8.63179	0.617
8.66695	0.667
8.7021	0.699
8.73726	0.685
8.77241	0.669
8.80756	0.701
8.84272	0.699
8.87787	0.62
8.91303	0.632
8.94818	0.685
8.98333	0.723
9.01849	0.744
9.05364	0.734
9.0888	0.613
9.12395	0.475
9.1591	0.421
9.19426	0.555
9.22941	0.491
9.26457	0.218
9.29972	0.099
9.33487	0.057
9.37003	0.068
9.40518	0.15
9.44034	0.316
9.47549	0.431
9.51064	0.529
9.5458	0.582
9.58095	0.603
9.61611	0.555
9.65126	0.435
9.68641	0.347
9.72157	0.44
9.75672	0.522
9.79188	0.618
9.82703	0.671
9.86218	0.694
9.89734	0.702
9.93249	0.699
9.96765	0.646
10.0028	0.594
10.038	0.545
10.0731	0.527
10.1083	0.571
10.1434	0.636
10.1786	0.676
10.2137	0.699
10.2489	0.713
10.284	0.713
10.3192	0.713
10.3543	0.715
10.3895	0.725
10.4246	0.73
10.4598	0.732
10.495	0.725
10.5301	0.681
10.5653	0.646
10.6004	0.606
10.6356	0.547
10.6707	0.508
10.7059	0.493
10.741	0.557
10.7762	0.653
10.8113	0.697
10.8465	0.732
10.8816	0.756
10.9168	0.763
10.952	0.776
10.9871	0.784
11.0223	0.79
11.0574	0.793
11.0926	0.804
11.1277	0.804
11.1629	0.784
11.198	0.784
11.2332	0.783
11.2683	0.784
11.3035	0.791
11.3387	0.798
11.3738	0.797
11.409	0.783
11.4441	0.762
11.4793	0.722
11.5144	0.671
11.5496	0.639
11.5847	0.636
11.6199	0.641
11.655	0.699
11.6902	0.711
11.7253	0.72
11.7605	0.702
11.7957	0.664
11.8308	0.606
11.866	0.604
11.9011	0.606
11.9363	0.611
11.9714	0.61
12.0066	0.65
12.0417	0.69
12.0769	0.718
12.112	0.723
12.1472	0.713
12.1823	0.657
12.2175	0.601
12.2527	0.599
12.2878	0.604
12.323	0.58
12.3581	0.519
12.3933	0.377
12.4284	0.307
12.4636	0.346
12.4987	0.449
12.5339	0.51
12.569	0.527
12.6042	0.527
12.6393	0.506
12.6745	0.505
12.7097	0.5
12.7448	0.491
12.78	0.482
12.8151	0.491
12.8503	0.503
12.8854	0.501
12.9206	0.501
12.9557	0.512
12.9909	0.52
13.026	0.52
13.0612	0.501
13.0964	0.459
13.1315	0.398
13.1667	0.318
13.2018	0.283
13.237	0.265
13.2721	0.251
13.3073	0.288
13.3424	0.374
13.3776	0.431
13.4127	0.48
13.4479	0.529
13.483	0.562
13.5182	0.592
13.5534	0.599
13.5885	0.604
13.6237	0.601
13.6588	0.571
13.694	0.541
13.7291	0.533
13.7643	0.538
13.7994	0.559
13.8346	0.59
13.8697	0.611
13.9049	0.618
13.94	0.62
13.9752	0.622
14.0104	0.62
14.0455	0.62
14.0807	0.618
14.1158	0.615
14.151	0.615
14.1861	0.613
14.2213	0.603
14.2564	0.589
14.2916	0.566
14.3267	0.526
14.3619	0.5
14.397	0.5
14.4322	0.508
14.4674	0.522
14.5025	0.508
14.5377	0.477
14.5728	0.473
14.608	0.487
14.6431	0.503
14.6783	0.517
14.7134	0.52
14.7486	0.515
14.7837	0.517
14.8189	0.529
14.854	0.54
14.8892	0.529
14.9244	0.489
14.9595	0.5
14.9947	0.548
15.0298	0.508
15.065	0.463
15.1001	0.442
15.1353	0.442
15.1704	0.449
15.2056	0.463
15.2407	0.468
15.2759	0.47
15.3111	0.47
15.3462	0.465
15.3814	0.465
15.4165	0.463
15.4517	0.458
15.4868	0.447
15.522	0.435
15.5571	0.423
15.5923	0.419
15.6274	0.423
15.6626	0.419
15.6977	0.386
15.7329	0.37
15.7681	0.354
15.8032	0.346
15.8384	0.33
15.8735	0.326
15.9087	0.321
15.9438	0.321
15.979	0.321
