Infrared Spectrum: 2-NAPHTHANILIDE, 3'-CHLORO-4-[4-DIETHYLAMINO-o-TOLYLIMINO]-1,4-DIHYDRO-1-OXO-
Formula: C28 H26 Cl N3 O2
CAS: 115603-88-8
State: SOLID (KBr PRESSING)
Melting point: 174-175 C
Class: COBLENTZ
Instrument: Not specified, most likely a prism, grating, or hybrid spectrometer.
Sampling: TRANSMISSION
Resolution: 4
Origin: EASTMAN KODAK COMPANY, RESEARCH LABORATORIES, ROCHESTER, N.Y.
MICROMETERS	TRANSMITTANCE
2.03	0.714
2.06514	0.712
2.10027	0.708
2.13541	0.714
2.17055	0.717
2.20568	0.719
2.24082	0.715
2.27595	0.717
2.31109	0.72
2.34623	0.722
2.38136	0.726
2.4165	0.731
2.45164	0.734
2.48677	0.745
2.52191	0.748
2.55704	0.75
2.59218	0.752
2.62732	0.755
2.66245	0.76
2.69759	0.766
2.73273	0.762
2.76786	0.736
2.803	0.696
2.83814	0.655
2.87327	0.611
2.90841	0.594
2.94354	0.589
2.97868	0.603
3.01382	0.641
3.04895	0.681
3.08409	0.691
3.11923	0.696
3.15436	0.703
3.1895	0.708
3.22463	0.71
3.25977	0.705
3.29491	0.7
3.33004	0.707
3.36518	0.665
3.40032	0.674
3.43545	0.691
3.47059	0.719
3.50573	0.75
3.54086	0.776
3.576	0.785
3.61113	0.792
3.64627	0.797
3.68141	0.804
3.71654	0.812
3.75168	0.811
3.78682	0.805
3.82195	0.804
3.85709	0.805
3.89222	0.809
3.92736	0.814
3.9625	0.821
3.99763	0.828
4.03277	0.833
4.06791	0.837
4.10304	0.837
4.13818	0.842
4.17332	0.844
4.20845	0.856
4.24359	0.873
4.27872	0.896
4.31386	0.882
4.349	0.859
4.38413	0.852
4.41927	0.854
4.45441	0.856
4.48954	0.857
4.52468	0.856
4.55981	0.859
4.59495	0.863
4.63009	0.864
4.66522	0.864
4.70036	0.864
4.7355	0.866
4.77063	0.866
4.80577	0.866
4.84091	0.861
4.87604	0.856
4.91118	0.856
4.94631	0.859
4.98145	0.863
5.01659	0.863
5.05172	0.857
5.08686	0.861
5.122	0.863
5.15713	0.861
5.19227	0.856
5.2274	0.861
5.26254	0.864
5.29768	0.861
5.33281	0.859
5.36795	0.863
5.40309	0.866
5.43822	0.861
5.47336	0.863
5.5085	0.863
5.54363	0.863
5.57877	0.863
5.6139	0.863
5.64904	0.859
5.68418	0.859
5.71931	0.857
5.75445	0.854
5.78959	0.845
5.82472	0.833
5.85986	0.83
5.89499	0.795
5.93013	0.656
5.96527	0.44
6.0004	0.568
6.03554	0.691
6.07068	0.7
6.10581	0.677
6.14095	0.596
6.17609	0.44
6.21122	0.256
6.24636	0.31
6.28149	0.173
6.31663	0.128
6.35177	0.339
6.3869	0.502
6.42204	0.395
6.45718	0.358
6.49231	0.362
6.52745	0.395
6.56259	0.455
6.59772	0.488
6.63286	0.447
6.66799	0.422
6.70313	0.476
6.73827	0.386
6.7734	0.322
6.80854	0.303
6.84368	0.403
6.87881	0.407
6.91395	0.362
6.94908	0.324
6.98422	0.367
7.01936	0.409
7.05449	0.466
7.08963	0.551
7.12477	0.504
7.1599	0.313
7.19504	0.294
7.23018	0.467
7.26531	0.511
7.30045	0.44
7.33558	0.433
7.37072	0.372
7.40586	0.334
7.44099	0.395
7.47613	0.483
7.51127	0.414
7.5464	0.23
7.58154	0.194
7.61667	0.244
7.65181	0.336
7.68695	0.424
7.72208	0.483
7.75722	0.49
7.79236	0.447
7.82749	0.426
7.86263	0.422
7.89777	0.317
7.9329	0.152
7.96804	0.116
8.00317	0.253
8.03831	0.428
8.07345	0.575
8.10858	0.632
8.14372	0.675
8.17886	0.663
8.21399	0.665
8.24913	0.71
8.28426	0.705
8.3194	0.674
8.35454	0.585
8.38967	0.49
8.42481	0.45
8.45995	0.54
8.49508	0.662
8.53022	0.72
8.56536	0.74
8.60049	0.738
8.63563	0.722
8.67076	0.736
8.7059	0.752
8.74104	0.76
8.77617	0.76
8.81131	0.762
8.84645	0.752
8.88158	0.701
8.91672	0.689
8.95185	0.729
8.98699	0.748
9.02213	0.729
9.05726	0.679
9.0924	0.629
9.12754	0.597
9.16267	0.613
9.19781	0.627
9.23295	0.514
9.26808	0.334
9.30322	0.24
9.33835	0.192
9.37349	0.237
9.40863	0.426
9.44376	0.589
9.4789	0.646
9.51404	0.71
9.54917	0.736
9.58431	0.74
9.61944	0.724
9.65458	0.592
9.68972	0.549
9.72485	0.625
9.75999	0.7
9.79513	0.748
9.83026	0.772
9.8654	0.785
9.90054	0.783
9.93567	0.762
9.97081	0.733
10.0059	0.672
10.0411	0.658
10.0762	0.688
10.1114	0.727
10.1465	0.759
10.1816	0.776
10.2168	0.781
10.2519	0.785
10.287	0.781
10.3222	0.781
10.3573	0.785
10.3924	0.79
10.4276	0.79
10.4627	0.786
10.4979	0.772
10.533	0.755
10.5681	0.733
10.6033	0.707
10.6384	0.679
10.6735	0.667
10.7087	0.668
10.7438	0.694
10.7789	0.733
10.8141	0.766
10.8492	0.781
10.8844	0.785
10.9195	0.783
10.9546	0.774
10.9898	0.757
11.0249	0.755
11.06	0.774
11.0952	0.779
11.1303	0.783
11.1654	0.779
11.2006	0.757
11.2357	0.729
11.2709	0.72
11.306	0.717
11.3411	0.722
11.3763	0.752
11.4114	0.764
11.4465	0.766
11.4817	0.755
11.5168	0.719
11.5519	0.663
11.5871	0.644
11.6222	0.674
11.6574	0.701
11.6925	0.724
11.7276	0.736
11.7628	0.733
11.7979	0.703
11.833	0.693
11.8682	0.675
11.9033	0.655
11.9384	0.653
11.9736	0.672
12.0087	0.727
12.0439	0.748
12.079	0.764
12.1141	0.76
12.1493	0.748
12.1844	0.719
12.2195	0.688
12.2547	0.675
12.2898	0.663
12.3249	0.634
12.3601	0.587
12.3952	0.561
12.4304	0.568
12.4655	0.577
12.5006	0.596
12.5358	0.604
12.5709	0.61
12.606	0.611
12.6412	0.61
12.6763	0.608
12.7114	0.604
12.7466	0.597
12.7817	0.587
12.8168	0.561
12.852	0.54
12.8871	0.521
12.9223	0.512
12.9574	0.521
12.9925	0.558
13.0277	0.613
13.0628	0.627
13.0979	0.651
13.1331	0.637
13.1682	0.592
13.2033	0.525
13.2385	0.474
13.2736	0.48
13.3088	0.523
13.3439	0.575
13.379	0.616
13.4142	0.63
13.4493	0.644
13.4844	0.651
13.5196	0.656
13.5547	0.665
13.5898	0.667
13.625	0.665
13.6601	0.656
13.6953	0.641
13.7304	0.636
13.7655	0.632
13.8007	0.634
13.8358	0.639
13.8709	0.646
13.9061	0.649
13.9412	0.649
13.9763	0.651
14.0115	0.649
14.0466	0.651
14.0818	0.653
14.1169	0.649
14.152	0.641
14.1872	0.618
14.2223	0.58
14.2574	0.545
14.2926	0.514
14.3277	0.481
14.3628	0.48
14.398	0.502
14.4331	0.514
14.4683	0.532
14.5034	0.525
14.5385	0.516
14.5737	0.509
14.6088	0.509
14.6439	0.511
14.6791	0.509
14.7142	0.504
14.7493	0.5
14.7845	0.509
14.8196	0.53
14.8548	0.537
14.8899	0.535
14.925	0.507
14.9602	0.518
14.9953	0.54
15.0304	0.504
15.0656	0.483
15.1007	0.473
15.1358	0.467
15.171	0.466
15.2061	0.466
15.2413	0.466
15.2764	0.462
15.3115	0.459
15.3467	0.448
15.3818	0.443
15.4169	0.44
15.4521	0.436
15.4872	0.431
15.5223	0.422
15.5575	0.417
15.5926	0.412
15.6278	0.407
15.6629	0.4
15.698	0.391
15.7332	0.377
15.7683	0.365
15.8034	0.357
15.8386	0.353
15.8737	0.348
15.9088	0.348
15.944	0.35
15.9791	0.351
