Infrared Spectrum: N-PHENYL-N'-P-CARBETHOXY PHENYL THIOCARBAMIDE
Formula: C16 H16 N2 O2 S
CAS: 1158-23-2
State: SOLID (1.0% IN KBr PELLET)
Class: COBLENTZ
Instrument: Not specified, most likely a prism, grating, or hybrid spectrometer.
Sampling: TRANSMISSION
Path length: 0.0355 CM THICK
Resolution: 4
Origin: ANDERSON PHYSICAL LABORATORY
1/CM	TRANSMITTANCE
673.655	0.666
682.103	0.651
690.551	0.4631
698.999	0.206
707.447	0.497
715.895	0.6648
724.343	0.88
732.791	0.932
741.239	0.935
749.688	0.92
758.136	0.744
766.584	0.6329
775.032	0.7708
783.48	0.94
791.928	0.97
800.376	0.973
808.824	0.947
817.272	0.922
825.72	0.935
834.168	0.931
842.616	0.916
851.064	0.8661
859.512	0.804
867.96	0.819
876.408	0.808
884.857	0.866
893.305	0.908
901.753	0.91
910.201	0.892
918.649	0.866
927.097	0.84
935.545	0.769
943.993	0.887
952.441	0.904
960.889	0.889
969.337	0.88
977.785	0.853
986.233	0.837
994.681	0.829
1003.13	0.799
1011.58	0.76
1020.03	0.6771
1028.47	0.532
1036.92	0.7389
1045.37	0.826
1053.82	0.832
1062.27	0.82
1070.71	0.766
1079.16	0.735
1087.61	0.735
1096.06	0.641
1104.51	0.3511
1112.95	0.396
1121.4	0.397
1129.85	0.4989
1138.3	0.702
1146.75	0.771
1155.19	0.772
1163.64	0.72
1172.09	0.602
1180.54	0.475
1188.99	0.629
1197.43	0.659
1205.88	0.648
1214.33	0.645
1222.78	0.611
1231.23	0.55
1239.68	0.508
1248.12	0.421
1256.57	0.354
1265.02	0.278
1273.47	0.189
1281.92	0.159
1290.36	0.174
1298.81	0.285
1307.26	0.403
1315.71	0.399
1324.16	0.46
1332.6	0.4
1341.05	0.328
1349.5	0.39
1357.95	0.4989
1366.4	0.553
1374.84	0.53
1383.29	0.7259
1391.74	0.76
1400.19	0.73
1408.64	0.774
1417.08	0.678
1425.53	0.729
1433.98	0.859
1442.43	0.88
1450.88	0.7811
1459.32	0.656
1467.77	0.802
1476.22	0.795
1484.67	0.766
1493.12	0.784
1501.56	0.651
1510.01	0.656
1518.46	0.624
1526.91	0.566
1535.36	0.452
1543.81	0.415
1552.25	0.285
1560.7	0.309
1569.15	0.651
1577.6	0.792
1586.05	0.756
1594.49	0.659
1602.94	0.62
1611.39	0.562
1619.84	0.7409
1628.29	0.849
1636.73	0.866
1645.18	0.875
1653.63	0.877
1662.08	0.881
1670.53	0.865
1678.97	0.81
1687.42	0.753
1695.87	0.6481
1704.32	0.5021
1712.77	0.2391
1721.21	0.204
1729.66	0.454
1738.11	0.756
1746.56	0.892
1755.01	0.949
1763.45	0.95
1771.9	0.952
1780.35	0.959
1788.8	0.952
1797.25	0.959
1805.7	0.953
1814.14	0.949
1822.59	0.947
1831.04	0.944
1839.49	0.944
1847.94	0.943
1856.38	0.94
1864.83	0.937
1873.28	0.937
1881.73	0.929
1890.18	0.923
1898.62	0.92
1907.07	0.917
1915.52	0.917
1923.97	0.919
1932.42	0.922
1940.86	0.914
1949.31	0.899
1957.76	0.884
1966.21	0.884
1974.66	0.893
1983.1	0.902
1991.55	0.907
2000	0.911
2008.45	0.913
2016.9	0.912
2025.34	0.911
2033.79	0.908
2042.24	0.9064
2050.69	0.905
2059.14	0.905
2067.58	0.905
2076.03	0.905
2084.48	0.905
2092.93	0.905
2101.38	0.904
2109.83	0.9034
2118.27	0.902
2126.72	0.901
2135.17	0.8989
2143.62	0.8973
2152.07	0.896
2160.51	0.896
2168.96	0.898
2177.41	0.898
2185.86	0.898
2194.31	0.899
2202.75	0.899
2211.2	0.8986
2219.65	0.898
2228.1	0.896
2236.55	0.8925
2244.99	0.8882
2253.44	0.887
2261.89	0.886
2270.34	0.884
2278.79	0.884
2287.23	0.884
2295.68	0.884
2304.13	0.883
2312.58	0.883
2321.03	0.8816
2329.47	0.8781
2337.92	0.8748
2346.37	0.872
2354.82	0.872
2363.27	0.871
2371.72	0.871
2380.16	0.8715
2388.61	0.872
2397.06	0.874
2405.51	0.8675
2413.96	0.866
2422.4	0.866
2430.85	0.8661
2439.3	0.868
2447.75	0.866
2456.2	0.865
2464.64	0.8629
2473.09	0.8614
2481.54	0.86
2489.99	0.8592
2498.44	0.857
2506.88	0.856
2515.33	0.855
2523.78	0.8522
2532.23	0.8499
2540.68	0.8466
2549.12	0.8448
2557.57	0.8431
2566.02	0.843
2574.47	0.841
2582.92	0.841
2591.36	0.84
2599.81	0.838
2608.26	0.838
2616.71	0.837
2625.16	0.8352
2633.6	0.835
2642.05	0.835
2650.5	0.835
2658.95	0.834
2667.4	0.8318
2675.85	0.829
2684.29	0.828
2692.74	0.8261
2701.19	0.825
2709.64	0.823
2718.09	0.8205
2726.53	0.819
2734.98	0.8133
2743.43	0.809
2751.88	0.8055
2760.33	0.796
2768.77	0.7845
2777.22	0.769
2785.67	0.762
2794.12	0.7448
2802.57	0.738
2811.01	0.738
2819.46	0.739
2827.91	0.7421
2836.36	0.745
2844.81	0.747
2853.25	0.7442
2861.7	0.7408
2870.15	0.732
2878.6	0.7247
2887.05	0.7155
2895.49	0.7108
2903.94	0.7039
2912.39	0.6984
2920.84	0.6866
2929.29	0.6675
2937.74	0.6537
2946.18	0.6371
2954.63	0.6209
2963.08	0.5949
2971.53	0.5602
2979.98	0.5175
2988.42	0.4949
2996.87	0.4678
3005.32	0.4576
3013.77	0.457
3022.22	0.4599
3030.66	0.4771
3039.11	0.4974
3047.56	0.5162
3056.01	0.5297
3064.46	0.5476
3072.9	0.5535
3081.35	0.5605
3089.8	0.5709
3098.25	0.5775
3106.7	0.574
3115.14	0.5617
3123.59	0.545
3132.04	0.529
3140.49	0.51
3148.94	0.4752
3157.38	0.4239
3165.83	0.3891
3174.28	0.3556
3182.73	0.3323
3191.18	0.3128
3199.62	0.2991
3208.07	0.2903
3216.52	0.2906
3224.97	0.2953
3233.42	0.3104
3241.87	0.3345
3250.31	0.3629
3258.76	0.4003
3267.21	0.4376
3275.66	0.4736
3284.11	0.4955
3292.55	0.5401
3301	0.5622
3309.45	0.579
3317.9	0.6046
3326.35	0.6239
3334.79	0.6384
3343.24	0.6519
3351.69	0.6671
3360.14	0.6755
3368.59	0.6818
3377.03	0.694
3385.48	0.696
3393.93	0.696
3402.38	0.6924
3410.83	0.6846
3419.27	0.683
3427.72	0.6764
3436.17	0.6731
3444.62	0.671
3453.07	0.672
3461.51	0.674
3469.96	0.675
3478.41	0.6765
3486.86	0.678
3495.31	0.6802
3503.76	0.6835
3512.2	0.6893
3520.65	0.692
3529.1	0.6935
3537.55	0.6955
3546	0.6988
3554.44	0.7021
3562.89	0.7073
3571.34	0.7135
3579.79	0.7178
3588.24	0.7211
3596.68	0.7293
3605.13	0.7326
3613.58	0.7385
3622.03	0.7442
3630.48	0.751
3638.92	0.7566
3647.37	0.7615
3655.82	0.765
3664.27	0.7684
3672.72	0.769
3681.16	0.771
3689.61	0.7723
3698.06	0.774
3706.51	0.774
3714.96	0.774
3723.4	0.774
3731.85	0.774
3740.3	0.7727
3748.75	0.7693
3757.2	0.769
3765.65	0.769
3774.09	0.7704
3782.54	0.7719
3790.99	0.775
3799.44	0.7726
3807.89	0.7639
3816.33	0.7601
3824.78	0.7586
3833.23	0.7579
3841.68	0.76
3850.13	0.762
3858.57	0.7615
3867.02	0.76
3875.47	0.7592
3883.92	0.759
3892.37	0.76
3900.81	0.762
3909.26	0.762
3917.71	0.7619
3926.16	0.76
3934.61	0.7595
3943.05	0.759
3951.5	0.756
3959.95	0.754
3968.4	0.753
3976.85	0.753
3985.29	0.7529
3993.74	0.751
