Infrared Spectrum: Tris(4-chlorophenyl)phosphine
Formula: C 18 H 12 Cl 3 P
CAS: 1159-54-2
State: gas
Origin: EPA-IR VAPOR PHASE LIBRARY
1/CM	ABSORBANCE
549.8	0.005398
559.445	0.0012561
569.09	0.0010901
578.734	0.0012108
588.379	0.0011448
598.024	0.0010835
607.669	0.0012472
617.313	0.0010776
626.958	0.0012497
636.603	0.0012425
646.248	0.0006
655.893	0.001053
665.537	0.0013081
675.182	0.0012613
684.827	0.00147
694.472	0.0012461
704.116	0.002328
713.761	0.002448
723.406	0.003308
733.051	0.014268
742.695	0.036618
752.34	0.005508
761.985	0.002228
771.63	0.002128
781.275	0.002168
790.919	0.003448
800.564	0.005378
810.209	0.012058
819.854	0.028968
829.498	0.006148
839.143	0.003258
848.788	0.002548
858.433	0.0015685
868.078	0.0013172
877.722	0.0009717
887.367	0.0008901
897.012	0.001306
906.657	0.0011373
916.301	0.0012536
925.946	0.0014773
935.591	0.0011787
945.236	0.00085265
954.88	0.00067
964.525	0.0012731
974.17	0.00083945
983.815	0.002028
993.46	0.001968
1003.1	0.004618
1012.75	0.041738
1022.39	0.006318
1032.04	0.003288
1041.68	0.003788
1051.33	0.003848
1060.97	0.007668
1070.62	0.014408
1080.26	0.023058
1089.91	0.027768
1099.55	0.036688
1109.2	0.011008
1118.84	0.005758
1128.49	0.002198
1138.13	0.0017464
1147.78	0.002408
1157.42	0.0012939
1167.07	0.0010267
1176.71	0.002988
1186.36	0.002218
1196	0.002098
1205.64	0.002428
1215.29	0.002758
1224.93	0.003038
1234.58	0.001868
1244.22	0.002398
1253.87	0.002088
1263.51	0.001349
1273.16	0.001338
1282.8	0.0013859
1292.45	0.0016076
1302.09	0.002438
1311.74	0.0017834
1321.38	0.002138
1331.03	0.001878
1340.67	0.002258
1350.32	0.002058
1359.96	0.002218
1369.61	0.003178
1379.25	0.005788
1388.9	0.006658
1398.54	0.003398
1408.18	0.001998
1417.83	0.0017183
1427.47	0.002398
1437.12	0.003898
1446.76	0.003578
1456.41	0.003778
1466.05	0.008718
1475.7	0.032398
1485.34	0.026988
1494.99	0.005178
1504.63	0.002668
1514.28	0.001968
1523.92	0.001888
1533.57	0.001948
1543.21	0.003048
1552.86	0.005488
1562.5	0.007208
1572.15	0.010428
1581.79	0.011798
1591.44	0.004588
1601.08	0.002448
1610.73	0.001888
1620.37	0.001741
1630.01	0.002308
1639.66	0.003378
1649.3	0.002768
1658.95	0.0014565
1668.59	0.0011438
1678.24	0.0011142
1687.88	0.0010368
1697.53	0.0010474
1707.17	0.0010034
1716.82	0.0009297
1726.46	0.0009808
1736.11	0.0011271
1745.75	0.0011698
1755.4	0.0013523
1765.04	0.0014098
1774.69	0.0017012
1784.33	0.002378
1793.98	0.0012568
1803.62	0.0010906
1813.27	0.0011848
1822.91	0.001272
1832.55	0.0011858
1842.2	0.0009333
1851.84	0.0010727
1861.49	0.0010937
1871.13	0.0010124
1880.78	0.0012116
1890.42	0.001928
1900.07	0.003038
1909.71	0.002158
1919.36	0.0014032
1929	0.0011709
1938.65	0.0009645
1948.29	0.00080901
1957.94	0.0010072
1967.58	0.001009
1977.23	0.001072
1986.87	0.00081586
1996.52	0.00089051
2006.16	0.00086191
2015.81	0.0009931
2025.45	0.00089076
2035.1	0.00086348
2044.74	0.00087251
2054.38	0.0008996
2064.03	0.0009234
2073.67	0.000669
2083.32	0.00082912
2092.96	0.00085994
2102.61	0.0010019
2112.25	0.0009161
2121.9	0.00081103
2131.54	0.0007964
2141.19	0.00078971
2150.83	0.00078953
2160.48	0.0009644
2170.12	0.000648
2179.77	0.0007719
2189.41	0.00089524
2199.06	0.00081764
2208.7	0.00079071
2218.35	0.00087708
2227.99	0.0007825
2237.64	0.0007621
2247.28	0.0009787
2256.92	0.0010361
2266.57	0.0010133
2276.21	0.0009727
2285.86	0.0011224
2295.5	0.0011374
2305.15	0.0012132
2314.79	0.0009117
2324.44	0.0007359
2334.08	0.00087595
2343.73	0.0007673
2353.37	0.000798908
2363.02	0.00062
2372.66	0.00089622
2382.31	0.0010878
2391.95	0.0011223
2401.6	0.0011091
2411.24	0.000802438
2420.89	0.0009776
2430.53	0.000676
2440.18	0.0007596
2449.82	0.0009972
2459.47	0.00088009
2469.11	0.0009274
2478.75	0.0010189
2488.4	0.0012459
2498.04	0.0009698
2507.69	0.0012214
2517.33	0.0010482
2526.98	0.00089411
2536.62	0.0010543
2546.27	0.0011275
2555.91	0.00088374
2565.56	0.0010519
2575.2	0.001269
2584.85	0.00086202
2594.49	0.0011787
2604.14	0.0010164
2613.78	0.000697
2623.43	0.0007031
2633.07	0.000805121
2642.72	0.00081826
2652.36	0.00081646
2662.01	0.0009674
2671.65	0.0010445
2681.29	0.00084659
2690.94	0.0007802
2700.58	0.00083983
2710.23	0.00089334
2719.87	0.0007462
2729.52	0.00085606
2739.16	0.000565
2748.81	0.0009626
2758.45	0.0007764
2768.1	0.0009527
2777.74	0.000538
2787.39	0.00087795
2797.03	0.000571
2806.68	0.000604
2816.32	0.001077
2825.97	0.000797942
2835.61	0.00085718
2845.26	0.00057
2854.9	0.000639
2864.55	0.0009154
2874.19	0.0010485
2883.84	0.0009704
2893.48	0.000627
2903.12	0.00057
2912.77	0.0009688
2922.41	0.000552
2932.06	0.0007396
2941.7	0.0009219
2951.35	0.00088098
2960.99	0.00087237
2970.64	0.0010551
2980.28	0.0010658
2989.93	0.0011775
2999.57	0.0012836
3009.22	0.0016937
3018.86	0.001898
3028.51	0.002068
3038.15	0.001828
3047.8	0.002098
3057.44	0.001858
3067.09	0.002648
3076.73	0.004638
3086.38	0.005108
3096.02	0.001908
3105.67	0.0014489
3115.31	0.0011497
3124.95	0.0011031
3134.6	0.0010259
3144.24	0.0007455
3153.89	0.0010659
3163.53	0.0011919
3173.18	0.0010969
3182.82	0.000685
3192.47	0.00087339
3202.11	0.000554
3211.76	0.000709
3221.4	0.0010803
3231.05	0.0011259
3240.69	0.00086342
3250.34	0.0011304
3259.98	0.0007707
3269.63	0.0009792
3279.27	0.00088629
3288.92	0.000561
3298.56	0.000675
3308.21	0.000781
3317.85	0.0007347
3327.49	0.00055
3337.14	0.000392
3346.78	0.000652
3356.43	0.00068
3366.07	0.000625
3375.72	0.00087797
3385.36	0.000526
3395.01	0.000677
3404.65	0.000107
3414.3	0.000573
3423.94	0.0009577
3433.59	0.0011193
3443.23	0.000571
3452.88	0.0011474
3462.52	0.0009571
3472.17	0.000588
3481.81	0.0013202
3491.46	0.000405
3501.1	0.0009199
3510.75	0.00089009
3520.39	0.0007625
3530.04	0.000768
3539.68	0.00085415
3549.32	0.000503
3558.97	0.0009191
3568.61	0.000502
3578.26	0.000545
3587.9	0.0010111
3597.55	0.0007004
3607.19	0.000605
3616.84	0.000383
3626.48	0.000503
3636.13	0.00082907
3645.77	0.000687
3655.42	0.000542
3665.06	0.0007356
3674.71	0.00082377
3684.35	0.0010216
3694	0.0012022
3703.64	0.0010179
3713.29	0.00083127
3722.93	0.0007865
3732.58	0.000605
3742.22	0.0009678
3751.86	0.00082874
3761.51	0.00085872
3771.15	0.0009955
3780.8	0.0008993
3790.44	0.000517
3800.09	0.000664
3809.73	0.00087802
3819.38	0.0007735
3829.02	0.000502
3838.67	0.000668
3848.31	0.000385
3857.96	0.0012048
3867.6	0.000255
3877.25	0.000567
3886.89	0.000622
3896.54	0.00086496
3906.18	0.000797063
3915.83	0.0007807
3925.47	0.000827
3935.12	0.000543
3944.76	0.000333
3954.41	0.0007744
3964.05	0.0007289
3973.69	0.00124
3983.34	0.0012005
3992.98	0.0009563
