Infrared Spectrum: 1,3-Dibenzoylbenzene
Formula: C 20 H 14 O 2
CAS: 1159-86-0
State: gas
Origin: EPA-IR VAPOR PHASE LIBRARY
1/CM	ABSORBANCE
501.5	0.0010526
513.074	0.0008636
524.648	0.0008702
536.222	0.0009083
547.796	0.0009071
559.37	0.001137
570.944	0.0013286
582.518	0.001682
594.092	0.001982
605.666	0.001942
617.24	0.002352
628.814	0.005612
640.388	0.023572
651.962	0.013842
663.536	0.005712
675.11	0.006332
686.684	0.012522
698.258	0.025882
709.832	0.029582
721.406	0.016712
732.98	0.007902
744.554	0.005412
756.128	0.006262
767.702	0.004662
779.276	0.005042
790.85	0.004552
802.423	0.004202
813.997	0.003802
825.571	0.003272
837.145	0.002052
848.719	0.001902
860.293	0.001612
871.867	0.001822
883.441	0.002482
895.015	0.004292
906.589	0.008442
918.163	0.009362
929.737	0.008012
941.311	0.005722
952.885	0.003552
964.459	0.006512
976.033	0.012652
987.607	0.012652
999.181	0.008002
1010.76	0.003032
1022.33	0.002482
1033.9	0.002002
1045.48	0.001582
1057.05	0.001932
1068.63	0.003002
1080.2	0.003292
1091.77	0.003202
1103.35	0.003642
1114.92	0.006382
1126.49	0.008512
1138.07	0.004652
1149.64	0.004622
1161.22	0.007812
1172.79	0.011242
1184.36	0.009892
1195.94	0.005282
1207.51	0.007002
1219.09	0.012332
1230.66	0.027032
1242.23	0.040852
1253.81	0.049702
1265.38	0.028032
1276.96	0.021312
1288.53	0.024752
1300.1	0.027442
1311.68	0.021892
1323.25	0.012252
1334.83	0.005002
1346.4	0.002962
1357.97	0.002242
1369.55	0.002092
1381.12	0.002192
1392.7	0.002222
1404.27	0.002892
1415.84	0.004342
1427.42	0.004662
1438.99	0.005082
1450.57	0.007172
1462.14	0.002772
1473.71	0.002152
1485.29	0.002042
1496.86	0.001832
1508.44	0.001702
1520.01	0.001842
1531.58	0.002162
1543.16	0.002362
1554.73	0.002522
1566.31	0.003372
1577.88	0.005322
1589.45	0.007162
1601.03	0.009922
1612.6	0.004452
1624.18	0.003492
1635.75	0.004082
1647.32	0.005942
1658.9	0.009472
1670.47	0.025272
1682.05	0.067322
1693.62	0.031512
1705.19	0.012472
1716.77	0.006622
1728.34	0.004212
1739.92	0.002912
1751.49	0.002352
1763.06	0.001952
1774.64	0.001662
1786.21	0.0013583
1797.79	0.001632
1809.36	0.002072
1820.93	0.001582
1832.51	0.0012582
1844.08	0.0011311
1855.66	0.0011217
1867.23	0.0011265
1878.8	0.0012964
1890.38	0.0015662
1901.95	0.001772
1913.53	0.001692
1925.1	0.0012464
1936.67	0.0010876
1948.25	0.0015605
1959.82	0.001792
1971.4	0.0014516
1982.97	0.0008641
1994.54	0.0007024
2006.12	0.00062765
2017.69	0.00064384
2029.27	0.00061494
2040.84	0.00062344
2052.41	0.0006075
2063.99	0.00060645
2075.56	0.0005397
2087.14	0.0005597
2098.71	0.000514
2110.28	0.0005114
2121.86	0.0004913
2133.43	0.0005044
2145.01	0.0005031
2156.58	0.0005086
2168.15	0.0005093
2179.73	0.0005067
2191.3	0.000461
2202.88	0.000461
2214.45	0.000479
2226.02	0.0004968
2237.6	0.0005008
2249.17	0.0005426
2260.74	0.0005498
2272.32	0.0005588
2283.89	0.0005639
2295.47	0.0005199
2307.04	0.0005407
2318.61	0.0007126
2330.19	0.00060475
2341.76	0.00066994
2353.34	0.0005322
2364.91	0.0005208
2376.48	0.0005649
2388.06	0.0005554
2399.63	0.00064505
2411.21	0.00061149
2422.78	0.0005629
2434.35	0.000536
2445.93	0.0004968
2457.5	0.000468
2469.08	0.000461
2480.65	0.000438
2492.22	0.000446
2503.8	0.000381
2515.37	0.0004
2526.95	0.000414
2538.52	0.000433
2550.09	0.0004875
2561.67	0.000461
2573.24	0.0004894
2584.82	0.00054
2596.39	0.0005588
2607.96	0.000458
2619.54	0.00042
2631.11	0.000427
2642.69	0.000381
2654.26	0.000388
2665.83	0.000363
2677.41	0.00036
2688.98	0.000339
2700.56	0.00036
2712.13	0.000408
2723.7	0.000364
2735.28	0.000418
2746.85	0.000457
2758.43	0.0004821
2770	0.000446
2781.57	0.00035
2793.15	0.000355
2804.72	0.000362
2816.3	0.000362
2827.87	0.000421
2839.44	0.000434
2851.02	0.000503
2862.59	0.0005041
2874.17	0.000582802
2885.74	0.0006224
2897.31	0.000589829
2908.89	0.000441
2920.46	0.000398
2932.04	0.000456
2943.61	0.000388
2955.18	0.000416
2966.76	0.00038
2978.33	0.0005693
2989.91	0.00057675
3001.48	0.0008202
3013.05	0.0013953
3024.63	0.003242
3036.2	0.005252
3047.78	0.004462
3059.35	0.006892
3070.92	0.014012
3082.5	0.009432
3094.07	0.006902
3105.65	0.003212
3117.22	0.0012698
3128.79	0.0007615
3140.37	0.00067229
3151.94	0.00062981
3163.52	0.00059626
3175.09	0.000405
3186.66	0.000411
3198.24	0.000345
3209.81	0.000276
3221.39	0.00021
3232.96	0.000226
3244.53	0.000235
3256.11	0.000274
3267.68	0.00037
3279.26	0.00024
3290.83	0.000268
3302.4	0.000341
3313.98	0.000354
3325.55	0.0004906
3337.13	0.0009034
3348.7	0.0012447
3360.27	0.0007551
3371.85	0.0005637
3383.42	0.000384
3395	0.00037
3406.57	0.000246
3418.14	0.000195
3429.72	0.000229
3441.29	0.000204
3452.86	0.000213
3464.44	0.000149
3476.01	0.00017
3487.59	0.000175
3499.16	0.000116
3510.73	0.00017
3522.31	0.000137
3533.88	0.000167
3545.46	0.000195
3557.03	9.6e-05
3568.6	0.000192
3580.18	0.000105
3591.75	0.000181
3603.33	0.000144
3614.9	0.000218
3626.47	0.000255
3638.05	0.00018
3649.62	0.000219
3661.2	0.000219
3672.77	0.000214
3684.34	0.000221
3695.92	0.00022
3707.49	0.000235
3719.07	0.000235
3730.64	0.000237
3742.21	0.000183
3753.79	0.000248
3765.36	0.000227
3776.94	0.000155
3788.51	0.000131
3800.08	0.000117
3811.66	0.000148
3823.23	0.000164
3834.81	0.000196
3846.38	0.000119
3857.95	8.1e-05
3869.53	0.000121
3881.1	0.000156
3892.68	8.3e-05
3904.25	0.000155
3915.82	7.9e-05
3927.4	7.8e-05
3938.97	3.7e-05
3950.55	0.000158
3962.12	0.000126
3973.69	0.000167
3985.27	0.00015
3996.84	0.000189
