Infrared Spectrum: 3,3,5-Trimethylcyclohexanol (c,t)
Formula: C 9 H 18 O
CAS: 116-02-9
State: gas
Instrument: HP-GC/MS/IRD
Origin: NIST Mass Spectrometry Data Center
1/CM	ABSORBANCE
550	0.0002754
562	0.0001404
574	0.000243
586	2.43e-05
598	9.72e-05
610	5.94e-05
622	7.83e-05
634	8.1e-05
646	4.32e-05
658	0.0001377
670	0.0002916
682	0.0003267
694	0.0001593
706	0.0001242
718	2.43e-05
730	8.37e-05
742	1.08e-05
754	0.0001404
766	0.0003483
778	0.0003213
790	0.0004698
802	0.0008289
814	0.0005832
826	0.0002403
838	0.0002673
850	0.0004266
862	0.0004806
874	0.0005076
886	0.000567
898	0.0005211
910	0.0006723
922	0.0007425
934	0.0012987
946	0.0017955
958	0.0014364
970	0.0009423
982	0.0015255
994	0.0026433
1006	0.0031698
1018	0.0038556
1030	0.0033426
1042	0.0030618
1054	0.0025326
1066	0.0022518
1078	0.0017442
1090	0.0011043
1102	0.0008586
1114	0.0009504
1126	0.0011367
1138	0.0014391
1150	0.0018414
1162	0.0022086
1174	0.0028917
1186	0.0030969
1198	0.0027324
1210	0.0029781
1222	0.0026271
1234	0.0022329
1246	0.0021114
1258	0.0018603
1270	0.0019926
1282	0.0022221
1294	0.0019521
1306	0.0014985
1318	0.001404
1330	0.0018063
1342	0.0022599
1354	0.0030456
1366	0.0038286
1378	0.003591
1390	0.0031779
1402	0.0019008
1414	0.0011259
1426	0.0015228
1438	0.0019386
1450	0.0030699
1462	0.0042417
1474	0.0031617
1486	0.0015066
1498	0.0005427
1510	0.0002592
1522	0.0001404
1534	0.0001377
1546	9.18e-05
1558	6.48e-05
1570	7.83e-05
1582	7.56e-05
1594	9.45e-05
1606	0.0001134
1618	7.56e-05
1630	5.94e-05
1642	7.56e-05
1654	7.56e-05
1666	6.75e-05
1678	8.91e-05
1690	5.4e-05
1702	3.78e-05
1714	4.86e-05
1726	6.21e-05
1738	6.48e-05
1750	4.86e-05
1762	1.89e-05
1774	5.13e-05
1786	4.86e-05
1798	4.32e-05
1810	3.51e-05
1822	2.43e-05
1834	2.43e-05
1846	2.7e-05
1858	2.97e-05
1870	2.97e-05
1882	1.89e-05
1894	4.05e-05
1906	2.7e-05
1918	8.1e-06
1930	4.86e-05
1942	2.7e-05
1954	2.7e-05
1966	2.97e-05
1978	1.62e-05
1990	2.7e-06
2002	2.43e-05
2014	1.89e-05
2026	1.89e-05
2038	2.43e-05
2050	3.51e-05
2062	3.78e-05
2074	2.43e-05
2086	1.35e-05
2098	1.08e-05
2110	8.1e-06
2122	1.08e-05
2134	4.59e-05
2146	6.48e-05
2158	3.24e-05
2170	4.05e-05
2182	2.16e-05
2194	2.43e-05
2206	2.97e-05
2218	1.08e-05
2230	3.24e-05
2242	4.32e-05
2254	4.32e-05
2266	1.62e-05
2278	2.16e-05
2290	2.16e-05
2302	2.16e-05
2314	3.24e-05
2326	4.32e-05
2338	2.16e-05
2350	5.13e-05
2362	3.78e-05
2374	4.86e-05
2386	3.78e-05
2398	5.4e-05
2410	8.37e-05
2422	0.000108
2434	8.37e-05
2446	8.64e-05
2458	7.83e-05
2470	4.86e-05
2482	6.48e-05
2494	5.13e-05
2506	6.21e-05
2518	5.4e-05
2530	8.64e-05
2542	7.02e-05
2554	8.91e-05
2566	8.64e-05
2578	0.0001404
2590	0.0001674
2602	0.0002133
2614	0.000243
2626	0.0003024
2638	0.0003402
2650	0.0003321
2662	0.0004185
2674	0.0004428
2686	0.0004941
2698	0.0005157
2710	0.0005562
2722	0.0006669
2734	0.0007182
2746	0.0006696
2758	0.0005886
2770	0.0006561
2782	0.0007182
2794	0.0008289
2806	0.0011583
2818	0.0017874
2830	0.0035262
2842	0.0058887
2854	0.0061209
2866	0.0089235
2878	0.0149229
2890	0.0179577
2902	0.0215946
2914	0.0256392
2926	0.0238815
2938	0.0194886
2950	0.0222831
2962	0.0242487
2974	0.0097011
2986	0.0034398
2998	0.002646
3010	0.0014526
3022	0.0006399
3034	0.0005049
3046	0.0004185
3058	0.0003834
3070	0.0003537
3082	0.0003807
3094	0.0003537
3106	0.0002673
3118	0.0001998
3130	0.000216
3142	0.000162
3154	0.0002241
3166	0.0002187
3178	0.0002943
3190	0.0002214
3202	0.0001944
3214	0.0001512
3226	7.56e-05
3238	8.91e-05
3250	7.56e-05
3262	5.4e-05
3274	7.83e-05
3286	3.78e-05
3298	8.1e-06
3310	7.56e-05
3322	5.67e-05
3334	5.13e-05
3346	7.29e-05
3358	8.1e-05
3370	5.94e-05
3382	8.37e-05
3394	5.4e-05
3406	8.64e-05
3418	0.0001107
3430	0.0001053
3442	6.75e-05
3454	5.67e-05
3466	2.16e-05
3478	6.21e-05
3490	4.05e-05
3502	4.86e-05
3514	7.02e-05
3526	4.86e-05
3538	5.67e-05
3550	3.51e-05
3562	4.59e-05
3574	3.24e-05
3586	5.13e-05
3598	7.02e-05
3610	5.13e-05
3622	0.0001782
3634	0.0005211
3646	0.0014607
3658	0.0017847
3670	0.0007938
3682	0.0002241
3694	0.0001296
3706	7.02e-05
3718	8.37e-05
3730	3.78e-05
3742	5.94e-05
3754	5.13e-05
3766	0.0001296
3778	0.000108
3790	0.0001161
3802	0.0001458
3814	0.0001485
3826	0.0001215
3838	0.0001377
