Infrared Spectrum: 1-AMINO-2-METHYL-4-p-TOLUIDINOANTHRAQUINONE
Formula: C22 H18 N2 O2
CAS: 116-77-8
State: SOLID (KBr PELLET)
Class: COBLENTZ
Instrument: Not specified, most likely a prism, grating, or hybrid spectrometer.
Sampling: TRANSMISSION
Resolution: 4
Origin: CORN PRODUCTS COMPANY
MICROMETERS	TRANSMITTANCE
2.007	0.719
2.04087	0.724
2.07473	0.727
2.1086	0.73
2.14246	0.734
2.17633	0.739
2.2102	0.741
2.24406	0.746
2.27793	0.751
2.3118	0.752
2.34566	0.758
2.37953	0.763
2.41339	0.769
2.44726	0.769
2.48113	0.771
2.51499	0.773
2.54886	0.776
2.58273	0.78
2.61659	0.78
2.65046	0.781
2.68432	0.785
2.71819	0.786
2.75206	0.783
2.78592	0.778
2.81979	0.737
2.85365	0.693
2.88752	0.648
2.92139	0.576
2.95525	0.485
2.98912	0.534
3.02299	0.615
3.05685	0.663
3.09072	0.686
3.12458	0.702
3.15845	0.71
3.19232	0.712
3.22618	0.714
3.26005	0.739
3.29391	0.749
3.32778	0.746
3.36165	0.749
3.39551	0.756
3.42938	0.763
3.46325	0.768
3.49711	0.768
3.53098	0.769
3.56484	0.778
3.59871	0.788
3.63258	0.791
3.66644	0.796
3.70031	0.798
3.73418	0.803
3.76804	0.808
3.80191	0.81
3.83577	0.81
3.86964	0.812
3.90351	0.812
3.93737	0.815
3.97124	0.817
4.0051	0.817
4.03897	0.818
4.07284	0.818
4.1067	0.82
4.14057	0.825
4.17444	0.825
4.2083	0.827
4.24217	0.827
4.27603	0.827
4.3099	0.825
4.34377	0.824
4.37763	0.824
4.4115	0.825
4.44536	0.827
4.47923	0.827
4.5131	0.832
4.54696	0.832
4.58083	0.83
4.6147	0.829
4.64856	0.829
4.68243	0.832
4.71629	0.834
4.75016	0.835
4.78403	0.83
4.81789	0.832
4.85176	0.83
4.88563	0.83
4.91949	0.832
4.95336	0.834
4.98722	0.83
5.02109	0.83
5.05496	0.83
5.08882	0.83
5.12269	0.832
5.15655	0.835
5.19042	0.835
5.22429	0.834
5.25815	0.83
5.29202	0.834
5.32589	0.835
5.35975	0.834
5.39362	0.832
5.42748	0.834
5.46135	0.837
5.49522	0.837
5.52908	0.834
5.56295	0.834
5.59682	0.83
5.63068	0.827
5.66455	0.829
5.69841	0.827
5.73228	0.83
5.76615	0.832
5.80001	0.83
5.83388	0.827
5.86774	0.827
5.90161	0.813
5.93548	0.802
5.96934	0.8
6.00321	0.786
6.03708	0.771
6.07094	0.747
6.10481	0.7
6.13867	0.676
6.17254	0.605
6.20641	0.504
6.24027	0.46
6.27414	0.428
6.308	0.424
6.34187	0.289
6.37574	0.221
6.4096	0.311
6.44347	0.323
6.47734	0.351
6.5112	0.343
6.54507	0.455
6.57893	0.483
6.6128	0.323
6.64667	0.472
6.68053	0.641
6.7144	0.6
6.74827	0.602
6.78213	0.654
6.816	0.681
6.84986	0.649
6.88373	0.661
6.9176	0.676
6.95146	0.668
6.98533	0.666
7.01919	0.636
7.05306	0.583
7.08693	0.573
7.12079	0.617
7.15466	0.668
7.18853	0.697
7.22239	0.708
7.25626	0.659
7.29012	0.62
7.32399	0.644
7.35786	0.69
7.39172	0.72
7.42559	0.712
7.45945	0.661
7.49332	0.634
7.52719	0.626
7.56105	0.631
7.59492	0.634
7.62879	0.598
7.66265	0.568
7.69652	0.517
7.73038	0.439
7.76425	0.373
7.79812	0.358
7.83198	0.348
7.86585	0.345
7.89972	0.363
7.93358	0.428
7.96745	0.499
8.00131	0.544
8.03518	0.563
8.06905	0.57
8.10291	0.583
8.13678	0.602
8.17064	0.62
8.20451	0.631
8.23838	0.637
8.27224	0.648
8.30611	0.668
8.33998	0.697
8.37384	0.72
8.40771	0.73
8.44157	0.717
8.47544	0.707
8.50931	0.714
8.54317	0.72
8.57704	0.717
8.6109	0.712
8.64477	0.708
8.67864	0.719
8.7125	0.736
8.74637	0.749
8.78024	0.751
8.8141	0.751
8.84797	0.751
8.88183	0.739
8.9157	0.714
8.94957	0.686
8.98343	0.651
9.0173	0.641
9.05117	0.646
9.08503	0.653
9.1189	0.656
9.15276	0.683
9.18663	0.707
9.2205	0.719
9.25436	0.72
9.28823	0.729
9.32209	0.732
9.35596	0.741
9.38983	0.742
9.42369	0.742
9.45756	0.739
9.49143	0.739
9.52529	0.739
9.55916	0.73
9.59302	0.73
9.62689	0.724
9.66076	0.717
9.69462	0.675
9.72849	0.656
9.76236	0.685
9.79622	0.708
9.83009	0.715
9.86395	0.722
9.89782	0.729
9.93169	0.734
9.96555	0.742
9.99942	0.742
10.0333	0.739
10.0672	0.729
10.101	0.729
10.1349	0.729
10.1687	0.739
10.2026	0.742
10.2365	0.751
10.2703	0.751
10.3042	0.751
10.3381	0.749
10.3719	0.749
10.4058	0.749
10.4397	0.749
10.4735	0.749
10.5074	0.739
10.5413	0.724
10.5751	0.715
10.609	0.715
10.6429	0.72
10.6767	0.737
10.7106	0.746
10.7445	0.758
10.7783	0.763
10.8122	0.768
10.8461	0.773
10.8799	0.774
10.9138	0.778
10.9477	0.778
10.9815	0.778
11.0154	0.776
11.0493	0.776
11.0831	0.768
11.117	0.756
11.1509	0.756
11.1847	0.758
11.2186	0.761
11.2525	0.758
11.2863	0.756
11.3202	0.752
11.3541	0.752
11.3879	0.754
11.4218	0.759
11.4557	0.764
11.4895	0.773
11.5234	0.78
11.5573	0.78
11.5911	0.771
11.625	0.754
11.6589	0.734
11.6927	0.729
11.7266	0.737
11.7605	0.756
11.7943	0.763
11.8282	0.766
11.8621	0.764
11.8959	0.759
11.9298	0.754
11.9637	0.752
11.9975	0.752
12.0314	0.752
12.0653	0.754
12.0991	0.756
12.133	0.749
12.1669	0.732
12.2007	0.697
12.2346	0.683
12.2685	0.698
12.3023	0.722
12.3362	0.739
12.3701	0.749
12.4039	0.761
12.4378	0.768
12.4716	0.764
12.5055	0.758
12.5394	0.751
12.5732	0.751
12.6071	0.761
12.641	0.766
12.6748	0.773
12.7087	0.778
12.7426	0.78
12.7764	0.781
12.8103	0.78
12.8442	0.778
12.878	0.778
12.9119	0.774
12.9458	0.773
12.9796	0.773
13.0135	0.78
13.0474	0.783
13.0812	0.785
13.1151	0.783
13.149	0.783
13.1828	0.78
13.2167	0.778
13.2506	0.778
13.2844	0.769
13.3183	0.754
13.3522	0.725
13.386	0.692
13.4199	0.671
13.4538	0.676
13.4876	0.676
13.5215	0.661
13.5554	0.617
13.5892	0.578
13.6231	0.548
13.657	0.534
13.6908	0.524
13.7247	0.541
13.7586	0.593
13.7924	0.637
13.8263	0.67
13.8602	0.678
13.894	0.688
13.9279	0.725
13.9618	0.746
13.9956	0.759
14.0295	0.763
14.0634	0.763
14.0972	0.756
14.1311	0.742
14.165	0.763
14.1988	0.769
14.2327	0.773
14.2666	0.774
14.3004	0.778
14.3343	0.778
14.3682	0.773
14.402	0.769
14.4359	0.768
14.4698	0.763
14.5036	0.763
14.5375	0.766
14.5714	0.768
14.6052	0.771
14.6391	0.773
14.673	0.776
14.7068	0.778
14.7407	0.778
14.7745	0.776
14.8084	0.774
14.8423	0.773
14.8761	0.771
14.91	0.769
14.9439	0.768
14.9777	0.769
15.0116	0.766
15.0455	0.761
15.0793	0.756
15.1132	0.751
15.1471	0.741
15.1809	0.741
15.2148	0.747
15.2487	0.754
15.2825	0.756
15.3164	0.754
15.3503	0.759
15.3841	0.758
15.418	0.761
