Infrared Spectrum: 1-AMINO-4-BROMO-2-ANTHRAQUINONE SULFONIC ACID
Formula: C14 H8 Br N S O5
CAS: 116-81-4
State: SOLID (KBr PELLET)
Class: COBLENTZ
Instrument: Not specified, most likely a prism, grating, or hybrid spectrometer.
Sampling: TRANSMISSION
Resolution: 4
Origin: CORN PRODUCTS COMPANY
MICROMETERS	TRANSMITTANCE
2.007	0.767
2.04078	0.769
2.07457	0.769
2.10835	0.769
2.14214	0.771
2.17592	0.776
2.2097	0.779
2.24349	0.784
2.27727	0.784
2.31106	0.784
2.34484	0.786
2.37862	0.789
2.41241	0.793
2.44619	0.794
2.47998	0.794
2.51376	0.798
2.54755	0.8
2.58133	0.8
2.61511	0.8
2.6489	0.8
2.68268	0.798
2.71647	0.801
2.75025	0.8
2.78403	0.784
2.81782	0.75
2.8516	0.703
2.88539	0.666
2.91917	0.572
2.95295	0.579
2.98674	0.628
3.02052	0.662
3.05431	0.661
3.08809	0.691
3.12187	0.735
3.15566	0.752
3.18944	0.771
3.22323	0.779
3.25701	0.781
3.29079	0.781
3.32458	0.783
3.35836	0.793
3.39215	0.8
3.42593	0.801
3.45971	0.803
3.4935	0.805
3.52728	0.808
3.56107	0.811
3.59485	0.815
3.62864	0.82
3.66242	0.818
3.6962	0.82
3.72999	0.82
3.76377	0.82
3.79756	0.822
3.83134	0.822
3.86512	0.822
3.89891	0.823
3.93269	0.823
3.96648	0.823
4.00026	0.825
4.03404	0.825
4.06783	0.827
4.10161	0.827
4.1354	0.827
4.16918	0.827
4.20296	0.827
4.23675	0.827
4.27053	0.827
4.30432	0.827
4.3381	0.827
4.37188	0.827
4.40567	0.83
4.43945	0.83
4.47324	0.83
4.50702	0.83
4.54081	0.83
4.57459	0.83
4.60837	0.828
4.64216	0.83
4.67594	0.83
4.70973	0.828
4.74351	0.828
4.77729	0.83
4.81108	0.83
4.84486	0.828
4.87865	0.828
4.91243	0.827
4.94621	0.828
4.98	0.828
5.01378	0.827
5.04757	0.827
5.08135	0.825
5.11513	0.823
5.14892	0.83
5.1827	0.83
5.21649	0.83
5.25027	0.828
5.28405	0.828
5.31784	0.828
5.35162	0.827
5.38541	0.828
5.41919	0.83
5.45297	0.83
5.48676	0.83
5.52054	0.83
5.55433	0.828
5.58811	0.822
5.6219	0.822
5.65568	0.822
5.68946	0.823
5.72325	0.822
5.75703	0.822
5.79082	0.81
5.8246	0.803
5.85838	0.8
5.89217	0.793
5.92595	0.767
5.95974	0.547
5.99352	0.549
6.0273	0.637
6.06109	0.661
6.09487	0.579
6.12866	0.601
6.16244	0.623
6.19622	0.552
6.23001	0.449
6.26379	0.41
6.29758	0.442
6.33136	0.559
6.36514	0.666
6.39893	0.703
6.43271	0.716
6.4665	0.715
6.50028	0.696
6.53407	0.584
6.56785	0.584
6.60163	0.669
6.63542	0.698
6.6692	0.75
6.70299	0.771
6.73677	0.774
6.77055	0.779
6.80434	0.781
6.83812	0.779
6.87191	0.771
6.90569	0.762
6.93947	0.777
6.97326	0.781
7.00704	0.783
7.04083	0.764
7.07461	0.703
7.10839	0.71
7.14218	0.752
7.17596	0.762
7.20975	0.737
7.24353	0.705
7.27731	0.705
7.3111	0.738
7.34488	0.752
7.37867	0.759
7.41245	0.73
7.44623	0.691
7.48002	0.657
7.5138	0.652
7.54759	0.65
7.58137	0.655
7.61516	0.671
7.64894	0.683
7.68272	0.667
7.71651	0.605
7.75029	0.477
7.78408	0.328
7.81786	0.296
7.85164	0.294
7.88543	0.313
7.91921	0.393
7.953	0.477
7.98678	0.596
8.02056	0.647
8.05435	0.669
8.08813	0.688
8.12192	0.71
8.1557	0.725
8.18948	0.733
8.22327	0.749
8.25705	0.752
8.29084	0.754
8.32462	0.755
8.3584	0.759
8.39219	0.737
8.42597	0.747
8.45976	0.757
8.49354	0.762
8.52733	0.747
8.56111	0.718
8.59489	0.693
8.62868	0.7
8.66246	0.722
8.69625	0.742
8.73003	0.75
8.76381	0.745
8.7976	0.73
8.83138	0.728
8.86517	0.725
8.89895	0.733
8.93273	0.74
8.96652	0.754
9.0003	0.759
9.03409	0.757
9.06787	0.755
9.10165	0.754
9.13544	0.752
9.16922	0.749
9.20301	0.732
9.23679	0.723
9.27057	0.72
9.30436	0.732
9.33814	0.75
9.37193	0.761
9.40571	0.771
9.43949	0.774
9.47328	0.777
9.50706	0.774
9.54085	0.771
9.57463	0.766
9.60842	0.757
9.6422	0.755
9.67598	0.762
9.70977	0.766
9.74355	0.764
9.77734	0.752
9.81112	0.716
9.8449	0.65
9.87869	0.64
9.91247	0.645
9.94626	0.674
9.98004	0.708
10.0138	0.74
10.0476	0.75
10.0814	0.761
10.1152	0.769
10.149	0.772
10.1827	0.777
10.2165	0.779
10.2503	0.783
10.2841	0.781
10.3179	0.777
10.3517	0.779
10.3854	0.781
10.4192	0.786
10.453	0.789
10.4868	0.789
10.5206	0.786
10.5544	0.784
10.5882	0.784
10.6219	0.783
10.6557	0.779
10.6895	0.774
10.7233	0.772
10.7571	0.774
10.7909	0.776
10.8246	0.781
10.8584	0.784
10.8922	0.786
10.926	0.786
10.9598	0.786
10.9936	0.788
11.0273	0.784
11.0611	0.784
11.0949	0.784
11.1287	0.783
11.1625	0.779
11.1963	0.772
11.2301	0.761
11.2638	0.749
11.2976	0.759
11.3314	0.766
11.3652	0.767
11.399	0.767
11.4328	0.771
11.4665	0.777
11.5003	0.783
11.5341	0.784
11.5679	0.786
11.6017	0.786
11.6355	0.784
11.6692	0.784
11.703	0.784
11.7368	0.779
11.7706	0.772
11.8044	0.762
11.8382	0.75
11.8719	0.744
11.9057	0.752
11.9395	0.764
11.9733	0.767
12.0071	0.767
12.0409	0.769
12.0747	0.772
12.1084	0.776
12.1422	0.779
12.176	0.783
12.2098	0.783
12.2436	0.777
12.2774	0.774
12.3111	0.766
12.3449	0.762
12.3787	0.762
12.4125	0.754
12.4463	0.754
12.4801	0.749
12.5138	0.752
12.5476	0.755
12.5814	0.759
12.6152	0.766
12.649	0.767
12.6828	0.766
12.7165	0.757
12.7503	0.752
12.7841	0.755
12.8179	0.761
12.8517	0.769
12.8855	0.774
12.9193	0.776
12.953	0.772
12.9868	0.774
13.0206	0.779
13.0544	0.781
13.0882	0.779
13.122	0.777
13.1557	0.774
13.1895	0.779
13.2233	0.779
13.2571	0.779
13.2909	0.779
13.3247	0.777
13.3584	0.772
13.3922	0.771
13.426	0.752
13.4598	0.703
13.4936	0.642
13.5274	0.623
13.5612	0.642
13.5949	0.694
13.6287	0.725
13.6625	0.75
13.6963	0.761
13.7301	0.764
13.7639	0.759
13.7976	0.75
13.8314	0.732
13.8652	0.705
13.899	0.669
13.9328	0.616
13.9666	0.561
14.0003	0.508
14.0341	0.488
14.0679	0.491
14.1017	0.572
14.1355	0.645
14.1693	0.681
14.203	0.686
14.2368	0.681
14.2706	0.674
14.3044	0.693
14.3382	0.711
14.372	0.732
14.4058	0.742
14.4395	0.747
14.4733	0.757
14.5071	0.764
14.5409	0.769
14.5747	0.771
14.6085	0.774
14.6422	0.774
14.676	0.777
14.7098	0.779
14.7436	0.777
14.7774	0.776
14.8112	0.772
14.8449	0.774
14.8787	0.777
14.9125	0.776
14.9463	0.772
14.9801	0.771
15.0139	0.766
15.0477	0.766
15.0814	0.764
15.1152	0.755
15.149	0.749
15.1828	0.727
15.2166	0.722
15.2504	0.732
15.2841	0.738
15.3179	0.752
15.3517	0.752
15.3855	0.75
15.4193	0.749
15.4531	0.752
15.4868	0.769
