Infrared Spectrum: p-CHLOROPHENYL, 2,4,5-TRICHLOROPHENYL SULFONE
Formula: C12 H6 Cl4 O2 S
CAS: 116-29-0
State: SOLUTION, SATURATED AT LESS THAN 10% (CCl4 FOR 3800-1335, CS2 FOR 1335-450 CM^-^1)
Class: COBLENTZ III
Instrument: DOW KBr FOREPRISM-GRATING
Instrument parameters: BLAZED AT 3.5, 12.0, 20.0 MICRON AND CHANGED AT 5.0, 7.5, 14.9 MICRON
Sampling: TRANSMISSION
Path length: 0.057 CM, 0.058 CM
Resolution: 2
Origin: DOW CHEMICAL COMPANY
1/CM	TRANSMITTANCE
454	0.5972
463	0.5695
472	0.2434
481	0.2637
490	0.6342
499	0.4575
508	0.7596
517	0.8075
526	0.7414
535	0.8174
544	0.8168
553	0.8249
562	0.7378
571	0.5284
580	0.0658
589	0.2347
598	0.7319
607	0.7861
616	0.7958
625	0.3499
634	0.5027
643	0.5588
652	0.4645
661	0.0818
670	0.6598
679	0.6625
688	0.3512
697	0.3908
706	0.4498
715	0.7434
724	0.7824
733	0.7899
742	0.7821
751	0.7478
760	0.0001
769	0.7318
778	0.7397
787	0.7658
796	0.7758
805	0.7648
814	0.7042
823	0.3496
832	0.0815
841	0.572
850	0.3454
859	0.2184
868	0.2015
877	0.0358
886	0.3641
895	0.644
904	0.4803
913	0.7281
922	0.8196
931	0.8484
940	0.8485
949	0.8336
958	0.8507
967	0.8456
976	0.8568
985	0.8561
994	0.8473
1003	0.8437
1012	0.7992
1021	0.5135
1030	0.8201
1039	0.7996
1048	0.7764
1057	0.5065
1066	0.3286
1075	0.5702
1084	0.5253
1093	0.0138
1102	0.4509
1111	0.6484
1120	0.589
1129	0.6789
1138	0.5251
1147	0.3352
1156	0.1408
1165	0.0092
1174	0.092
1183	0.5928
1192	0.7746
1201	0.7884
1210	0.8295
1219	0.8463
1228	0.8316
1237	0.7271
1246	0.7701
1255	0.8149
1264	0.7861
1273	0.7896
1282	0.535
1291	0.7365
1300	0.7893
1309	0.7439
1318	0.5977
1327	0.5266
1336	0.2226
1345	0.0367
1354	0.0255
1363	0.4455
1372	0.6975
1381	0.7385
1390	0.6908
1399	0.4184
1408	0.7424
1417	0.7551
1426	0.6808
1435	0.4529
1444	0.3364
1453	0.5244
1462	0.4773
1471	0.6403
1480	0.0989
1489	0.5528
1498	0.4247
1507	0.3029
1516	0.1795
1525	0.1069
1534	0.0481
1543	0.0183
1552	0.0179
1561	0.0262
1570	0.0374
1579	0.0381
1588	0.0684
1597	0.2688
1606	0.4741
1615	0.6504
1624	0.7341
1633	0.7854
1642	0.801
1651	0.8211
1660	0.8274
1669	0.8441
1678	0.8603
1687	0.8677
1696	0.8668
1705	0.8717
1714	0.8614
1723	0.8578
1732	0.849
1741	0.8434
1750	0.8539
1759	0.8639
1768	0.8568
1777	0.8464
1786	0.8507
1795	0.8487
1804	0.8394
1813	0.8443
1822	0.8509
1831	0.8435
1840	0.8355
1849	0.8315
1858	0.8443
1867	0.8536
1876	0.864
1885	0.8623
1894	0.8566
1903	0.8502
1912	0.8257
1921	0.8562
1930	0.8715
1939	0.8765
1948	0.8766
1957	0.8836
1966	0.8681
1975	0.8644
1984	0.8623
1993	0.8586
2002	0.8597
2011	0.8613
2020	0.8658
2029	0.8701
2038	0.8742
2047	0.8789
2056	0.8812
2065	0.8828
2074	0.8884
2083	0.8928
2092	0.8911
2101	0.8907
2110	0.8936
2119	0.8932
2128	0.8925
2137	0.8916
2146	0.8907
2155	0.89
2164	0.889
2173	0.8871
2182	0.8862
2191	0.888
2200	0.8897
2209	0.8892
2218	0.8831
2227	0.8764
2236	0.8712
2245	0.8628
2254	0.8503
2263	0.831
2272	0.8088
2281	0.7904
2290	0.7758
2299	0.7775
2308	0.7869
2317	0.7944
2326	0.8025
2335	0.8091
2344	0.8164
2353	0.8349
2362	0.844
2371	0.8536
2380	0.868
2389	0.8735
2398	0.8762
2407	0.8795
2416	0.8831
2425	0.8861
2434	0.8865
2443	0.8874
2452	0.8891
2461	0.8888
2470	0.8875
2479	0.8854
2488	0.8832
2497	0.8803
2506	0.8786
2515	0.8775
2524	0.8775
2533	0.8807
2542	0.8791
2551	0.8721
2560	0.8675
2569	0.8699
2578	0.8725
2587	0.8746
2596	0.877
2605	0.8787
2614	0.8797
2623	0.8796
2632	0.8775
2641	0.8746
2650	0.8712
2659	0.8675
2668	0.8723
2677	0.8775
2686	0.8807
2695	0.8827
2704	0.8843
2713	0.8852
2722	0.8814
2731	0.8791
2740	0.8792
2749	0.8787
2758	0.8784
2767	0.8778
2776	0.8767
2785	0.8758
2794	0.8765
2803	0.8782
2812	0.8796
2821	0.8773
2830	0.8671
2839	0.8536
2848	0.8228
2857	0.8015
2866	0.8271
2875	0.8518
2884	0.8514
2893	0.8412
2902	0.8283
2911	0.8086
2920	0.7432
2929	0.731
2938	0.7672
2947	0.8167
2956	0.8256
2965	0.8336
2974	0.8504
2983	0.844
2992	0.8505
3001	0.8578
3010	0.8592
3019	0.855
3028	0.8544
3037	0.8552
3046	0.8514
3055	0.8345
3064	0.8157
3073	0.7583
3082	0.7621
3091	0.6014
3100	0.7836
3109	0.8256
3118	0.8414
3127	0.8485
3136	0.8511
3145	0.8517
3154	0.8613
3163	0.8644
3172	0.8661
3181	0.8668
3190	0.867
3199	0.8668
3208	0.8668
3217	0.8668
3226	0.8667
3235	0.8666
3244	0.8666
3253	0.8664
3262	0.8658
3271	0.8652
3280	0.8647
3289	0.864
3298	0.8633
3307	0.8625
3316	0.8618
3325	0.8615
3334	0.8613
3343	0.861
3352	0.8609
3361	0.8608
3370	0.8607
3379	0.8607
3388	0.8608
3397	0.8609
3406	0.861
3415	0.8615
3424	0.8621
3433	0.8624
3442	0.8621
3451	0.862
3460	0.862
3469	0.8618
3478	0.8618
3487	0.8618
3496	0.8618
3505	0.862
3514	0.8625
3523	0.8632
3532	0.8615
3541	0.8604
3550	0.8621
3559	0.8649
3568	0.8631
3577	0.8571
3586	0.8545
3595	0.8697
3604	0.87
3613	0.8707
3622	0.8709
3631	0.8721
3640	0.8736
3649	0.8764
3658	0.8798
3667	0.8803
3676	0.879
3685	0.8764
3694	0.874
3703	0.8725
3712	0.8736
3721	0.8766
3730	0.8802
3739	0.8878
3748	0.8882
3757	0.8812
3766	0.8817
3775	0.8828
3784	0.8839
