Infrared Spectrum: Propane, 2,2-bis[4-(2-hydroxypropyloxy)-phenyl]-
Formula: C21 H28 O4
CAS: 116-37-0
State: LIQUID (NEAT)
Class: COBLENTZ III
Instrument: DOW KBr FOREPRISM-GRATING
Instrument parameters: BLAZED AT 3.5, 12.0, 20.0 MICRON AND CHANGED AT 5.0, 7.5, 14.9 MICRON
Sampling: TRANSMISSION
Path length: SMEAR ON KBr PLATE
Resolution: 2
Origin: DOW CHEMICAL COMPANY
1/CM	TRANSMITTANCE
3794	0.8583
3785	0.8584
3776	0.8585
3767	0.8586
3758	0.8588
3749	0.8596
3740	0.8604
3731	0.8611
3722	0.8618
3713	0.8618
3704	0.8614
3695	0.8609
3686	0.8596
3677	0.8581
3668	0.8558
3659	0.8534
3650	0.8509
3641	0.8462
3632	0.84
3623	0.8293
3614	0.8075
3605	0.7401
3596	0.6843
3587	0.6387
3578	0.5937
3569	0.5622
3560	0.5405
3551	0.5218
3542	0.5016
3533	0.478
3524	0.4533
3515	0.4271
3506	0.4027
3497	0.3794
3488	0.3578
3479	0.3399
3470	0.323
3461	0.3054
3452	0.293
3443	0.2831
3434	0.2746
3425	0.2671
3416	0.2584
3407	0.2502
3398	0.244
3389	0.2415
3380	0.2417
3371	0.2427
3362	0.2464
3353	0.2508
3344	0.2566
3335	0.2624
3326	0.2707
3317	0.2805
3308	0.2929
3299	0.3057
3290	0.3218
3281	0.3382
3272	0.3557
3263	0.3734
3254	0.3925
3245	0.4125
3236	0.4342
3227	0.4582
3218	0.488
3209	0.5101
3200	0.5357
3191	0.5634
3182	0.5899
3173	0.6119
3164	0.6275
3155	0.6415
3146	0.658
3137	0.6746
3128	0.6807
3119	0.6892
3110	0.6914
3101	0.6806
3092	0.6788
3083	0.6778
3074	0.6508
3065	0.5882
3056	0.5736
3047	0.5765
3038	0.5354
3029	0.6126
3020	0.673
3011	0.6389
3002	0.4902
2993	0.319
2984	0.1749
2975	0.1406
2966	0.169
2957	0.2866
2948	0.3009
2939	0.2202
2930	0.2144
2921	0.243
2912	0.2913
2903	0.3328
2894	0.3357
2885	0.327
2876	0.2848
2867	0.3404
2858	0.4714
2849	0.5502
2840	0.6037
2831	0.6366
2822	0.6594
2813	0.6785
2804	0.6968
2795	0.7133
2786	0.7262
2777	0.7371
2768	0.7415
2759	0.7411
2750	0.7425
2741	0.7501
2732	0.7537
2723	0.753
2714	0.7561
2705	0.7599
2696	0.7641
2687	0.7684
2678	0.7743
2669	0.78
2660	0.7861
2651	0.7925
2642	0.7994
2633	0.8056
2624	0.8084
2615	0.8096
2606	0.8068
2597	0.8042
2588	0.8051
2579	0.8061
2570	0.8048
2561	0.8005
2552	0.7956
2543	0.7924
2534	0.7931
2525	0.7982
2516	0.8051
2507	0.8087
2498	0.8065
2489	0.8044
2480	0.8061
2471	0.8101
2462	0.8201
2453	0.8244
2444	0.8249
2435	0.8233
2426	0.8237
2417	0.8302
2408	0.8352
2399	0.84
2390	0.845
2381	0.8489
2372	0.8518
2363	0.8538
2354	0.8553
2345	0.8563
2336	0.8567
2327	0.8557
2318	0.8536
2309	0.855
2300	0.8578
2291	0.8606
2282	0.8633
2273	0.8663
2264	0.8693
2255	0.8703
2246	0.8715
2237	0.8728
2228	0.8742
2219	0.8755
2210	0.8771
2201	0.879
2192	0.8816
2183	0.8886
2174	0.884
2165	0.8821
2156	0.8815
2147	0.8801
2138	0.8778
2129	0.8713
2120	0.8643
2111	0.8571
2102	0.8491
2093	0.8418
2084	0.8349
2075	0.8314
2066	0.8358
2057	0.8431
2048	0.8502
2039	0.8575
2030	0.8584
2021	0.8592
2012	0.8601
2003	0.8609
1994	0.863
1985	0.8647
1976	0.867
1967	0.8695
1958	0.8721
1949	0.8742
1940	0.8746
1931	0.8725
1922	0.8683
1913	0.8623
1904	0.8521
1895	0.8351
1886	0.8047
1877	0.8041
1868	0.8141
1859	0.8294
1850	0.8484
1841	0.8564
1832	0.862
1823	0.8664
1814	0.8702
1805	0.8731
1796	0.8739
1787	0.8705
1778	0.8646
1769	0.8595
1760	0.8512
1751	0.8451
1742	0.8538
1733	0.8599
1724	0.8625
1715	0.8637
1706	0.8632
1697	0.8617
1688	0.8567
1679	0.8486
1670	0.8361
1661	0.8211
1652	0.8017
1643	0.7771
1634	0.7507
1625	0.6953
1616	0.3618
1607	0.1948
1598	0.408
1589	0.5873
1580	0.4208
1571	0.6512
1562	0.7158
1553	0.7261
1544	0.7248
1535	0.6728
1526	0.4245
1517	0.1072
1508	0.0447
1499	0.2205
1490	0.4139
1481	0.4298
1472	0.2881
1463	0.2403
1454	0.25
1445	0.3812
1436	0.4744
1427	0.476
1418	0.3814
1409	0.4253
1400	0.4439
1391	0.3366
1382	0.315
1373	0.3666
1364	0.2974
1355	0.5083
1346	0.4838
1337	0.4134
1328	0.3749
1319	0.3854
1310	0.2947
1301	0.1946
1292	0.1883
1283	0.2464
1274	0.3001
1265	0.2092
1256	0.0892
1247	0.0678
1238	0.07
1229	0.0842
1220	0.1733
1211	0.32
1202	0.4819
1193	0.3575
1184	0.1195
1175	0.3258
1166	0.4321
1157	0.2743
1148	0.2275
1139	0.2576
1130	0.3177
1121	0.3017
1112	0.2924
1103	0.2772
1094	0.305
1085	0.2648
1076	0.2706
1067	0.2795
1058	0.2828
1049	0.1883
1040	0.1382
1031	0.1468
1022	0.3062
1013	0.3622
1004	0.506
995	0.3659
986	0.5794
977	0.6461
968	0.6468
959	0.4068
950	0.3925
941	0.3608
932	0.3296
923	0.5167
914	0.6141
905	0.6998
896	0.7384
887	0.7365
878	0.655
869	0.3697
860	0.4346
851	0.5288
842	0.3384
833	0.144
824	0.1979
815	0.4235
806	0.4418
797	0.6703
788	0.7095
779	0.72
770	0.638
761	0.6019
752	0.6224
743	0.6634
734	0.6023
725	0.5901
716	0.6574
707	0.6658
698	0.6574
689	0.6375
680	0.6082
671	0.6087
662	0.5975
653	0.5954
644	0.5899
635	0.561
626	0.5646
617	0.5505
608	0.5517
599	0.5197
590	0.4206
581	0.3755
572	0.3326
563	0.352
554	0.3762
545	0.445
536	0.4966
527	0.5168
518	0.536
509	0.553
500	0.565
491	0.5767
482	0.5792
473	0.5776
464	0.576
455	0.5778
446	0.5874
437	0.595
428	0.6021
419	0.61
410	0.6178
401	0.6249
