Infrared Spectrum: EDROPHONIUM CHLORIDE
Formula: C10 H16 Cl N O
CAS: 116-38-1
State: SOLID (1 mg / 200 mg KCl DISC)
Class: COBLENTZ III
Instrument: PERKIN-ELMER 21 (GRATING)
Instrument parameters: FILTER AT ABOUT 10 MICRONS
Sampling: TRANSMISSION
Resolution: 2
1/CM	TRANSMITTANCE
4000	0.8272
3991	0.8278
3982	0.8283
3973	0.8289
3964	0.8291
3955	0.8293
3946	0.8316
3937	0.8392
3928	0.8412
3919	0.8432
3910	0.8452
3901	0.8471
3892	0.8465
3883	0.8456
3874	0.8446
3865	0.8436
3856	0.8437
3847	0.8453
3838	0.8472
3829	0.8492
3820	0.8511
3811	0.853
3802	0.8549
3793	0.8575
3784	0.8605
3775	0.8635
3766	0.869
3757	0.8753
3748	0.8823
3739	0.8889
3730	0.8952
3721	0.8978
3712	0.9003
3703	0.9029
3694	0.9051
3685	0.9054
3676	0.9046
3667	0.9042
3658	0.9027
3649	0.8994
3640	0.8957
3631	0.892
3622	0.8851
3613	0.8779
3604	0.87
3595	0.8625
3586	0.8519
3577	0.8404
3568	0.8289
3559	0.8176
3550	0.8043
3541	0.7902
3532	0.7762
3523	0.7624
3514	0.7485
3505	0.7353
3496	0.7229
3487	0.7097
3478	0.6973
3469	0.6876
3460	0.6773
3451	0.668
3442	0.6606
3433	0.6539
3424	0.6472
3415	0.6409
3406	0.6378
3397	0.6339
3388	0.6309
3379	0.6297
3370	0.6308
3361	0.6319
3352	0.6432
3343	0.6612
3334	0.6829
3325	0.6961
3316	0.7088
3307	0.7178
3298	0.7234
3289	0.7294
3280	0.7335
3271	0.7382
3262	0.7429
3253	0.7473
3244	0.7517
3235	0.758
3226	0.7642
3217	0.7708
3208	0.774
3199	0.7695
3190	0.7648
3181	0.762
3172	0.7588
3163	0.756
3154	0.7532
3145	0.748
3136	0.7288
3127	0.6839
3118	0.6434
3109	0.6152
3100	0.5867
3091	0.5783
3082	0.5759
3073	0.5697
3064	0.543
3055	0.509
3046	0.4644
3037	0.4323
3028	0.3885
3019	0.3315
3010	0.2639
3001	0.2412
2992	0.2236
2983	0.2038
2974	0.191
2965	0.1857
2956	0.1847
2947	0.1843
2938	0.1689
2929	0.1376
2920	0.1077
2911	0.1009
2902	0.0977
2893	0.0968
2884	0.1077
2875	0.1334
2866	0.1616
2857	0.1873
2848	0.1979
2839	0.2014
2830	0.1981
2821	0.1701
2812	0.1418
2803	0.1417
2794	0.1506
2785	0.1972
2776	0.2272
2767	0.2552
2758	0.286
2749	0.3287
2740	0.3444
2731	0.3492
2722	0.3498
2713	0.3422
2704	0.2964
2695	0.2451
2686	0.2417
2677	0.2434
2668	0.2615
2659	0.2849
2650	0.3214
2641	0.3493
2632	0.3766
2623	0.4034
2614	0.4259
2605	0.4422
2596	0.4285
2587	0.4006
2578	0.3576
2569	0.342
2560	0.3414
2551	0.3851
2542	0.4159
2533	0.4413
2524	0.4624
2515	0.4787
2506	0.4922
2497	0.5036
2488	0.5085
2479	0.5026
2470	0.4984
2461	0.51
2452	0.5239
2443	0.5385
2434	0.5533
2425	0.5671
2416	0.5815
2407	0.5957
2398	0.6101
2389	0.6244
2380	0.635
2371	0.641
2362	0.6366
2353	0.636
2344	0.6359
2335	0.6366
2326	0.6434
2317	0.6501
2308	0.6622
2299	0.6745
2290	0.6861
2281	0.6972
2272	0.7042
2263	0.7089
2254	0.7133
2245	0.7177
2236	0.7222
2227	0.7263
2218	0.7308
2209	0.7352
2200	0.7393
2191	0.744
2182	0.7482
2173	0.7523
2164	0.7567
2155	0.7609
2146	0.765
2137	0.7686
2128	0.7727
2119	0.7768
2110	0.781
2101	0.7856
2092	0.7905
2083	0.7946
2074	0.7982
2065	0.8015
2056	0.8048
2047	0.8083
2038	0.8113
2029	0.8149
2020	0.8184
2011	0.8227
2002	0.8273
1993	0.8314
1984	0.8325
1975	0.8298
1966	0.8165
1957	0.8136
1948	0.8245
1939	0.8349
1930	0.8426
1921	0.8498
1912	0.8552
1903	0.8554
1894	0.8486
1885	0.8454
1876	0.8512
1867	0.8522
1858	0.85
1849	0.8588
1840	0.8651
1831	0.8645
1822	0.8628
1813	0.8603
1804	0.8631
1795	0.8686
1786	0.8775
1777	0.8857
1768	0.893
1759	0.8982
1750	0.9029
1741	0.9022
1732	0.8966
1723	0.8831
1714	0.8703
1705	0.8736
1696	0.8837
1687	0.8952
1678	0.9027
1669	0.9054
1660	0.9046
1651	0.8976
1642	0.8381
1633	0.5176
1624	0.2581
1615	0.1117
1606	0.1036
1597	0.2374
1588	0.3859
1579	0.5007
1570	0.5416
1561	0.5051
1552	0.4396
1543	0.4402
1534	0.5016
1525	0.603
1516	0.6563
1507	0.1802
1498	0.2236
1489	0.0609
1480	0.1082
1471	0.2759
1462	0.3221
1453	0.2513
1444	0.3116
1435	0.3265
1426	0.4845
1417	0.3799
1408	0.5449
1399	0.5926
1390	0.5648
1381	0.6615
1372	0.3807
1363	0.2347
1354	0.3991
1345	0.5942
1336	0.5806
1327	0.3604
1318	0.5971
1309	0.7222
1300	0.7775
1291	0.5831
1282	0.1985
1273	0.4982
1264	0.6356
1255	0.5726
1246	0.1545
1237	0.4058
1228	0.1101
1219	0.2962
1210	0.4727
1201	0.5603
1192	0.6186
1183	0.4991
1174	0.5601
1165	0.6576
1156	0.7212
1147	0.741
1138	0.757
1129	0.5494
1120	0.6004
1111	0.6249
1102	0.7149
1093	0.6798
1084	0.6976
1075	0.7309
1066	0.7785
1057	0.8317
1048	0.85
1039	0.8673
1030	0.8917
1021	0.9107
1012	0.7578
1003	0.5276
994	0.6879
985	0.7566
976	0.6676
967	0.5469
958	0.8582
949	0.9394
940	0.4306
931	0.3907
922	0.73
913	0.4933
904	0.5682
895	0.3718
886	0.6719
877	0.7984
868	0.8471
859	0.8467
850	0.7066
841	0.8271
832	0.741
823	0.3414
814	0.5867
805	0.0687
796	0.241
787	0.1858
778	0.4262
769	0.5592
760	0.6403
751	0.709
742	0.761
733	0.8059
724	0.8162
715	0.8482
706	0.9031
697	0.3811
688	0.4331
679	0.6973
670	0.7776
