Infrared Spectrum: 1-NAPHTHALENESULFONIC ACID,4-AMINO-3-HYDROXY-
Formula: C10 H9 N O4 S
CAS: 116-63-2
State: SOLID (SPLIT MULL)
Class: COBLENTZ III
Instrument: DOW KBr FOREPRISM-GRATING
Instrument parameters: BLAZED AT 3.5, 12.0, 20.0 MICRON AND CHANGED AT 5.0, 7.5, 14.9 MICRON
Sampling: TRANSMISSION
Resolution: 2
Origin: DOW CHEMICAL COMPANY
1/CM	TRANSMITTANCE
3818	0.6919
3809	0.6931
3800	0.6946
3791	0.6957
3782	0.6968
3773	0.6986
3764	0.7006
3755	0.704
3746	0.7078
3737	0.7106
3728	0.7132
3719	0.7131
3710	0.7126
3701	0.7126
3692	0.7131
3683	0.7175
3674	0.7238
3665	0.7165
3656	0.7158
3647	0.7153
3638	0.7082
3629	0.7041
3620	0.7004
3611	0.6971
3602	0.6949
3593	0.693
3584	0.6833
3575	0.6894
3566	0.6906
3557	0.688
3548	0.6862
3539	0.6846
3530	0.6833
3521	0.6821
3512	0.6811
3503	0.6804
3494	0.6786
3485	0.6768
3476	0.6749
3467	0.6725
3458	0.6701
3449	0.6686
3440	0.6695
3431	0.6639
3422	0.6601
3413	0.6556
3404	0.648
3395	0.6348
3386	0.6173
3377	0.5946
3368	0.5727
3359	0.5544
3350	0.5341
3341	0.5118
3332	0.4892
3323	0.4622
3314	0.4295
3305	0.4029
3296	0.3642
3287	0.3173
3278	0.2853
3269	0.2348
3260	0.1872
3251	0.149
3242	0.1408
3233	0.1653
3224	0.1935
3215	0.2195
3206	0.2401
3197	0.2528
3188	0.2617
3179	0.2696
3170	0.2732
3161	0.2682
3152	0.2574
3143	0.2477
3134	0.242
3125	0.2419
3116	0.2476
3107	0.2496
3098	0.2541
3089	0.2838
3080	0.303
3071	0.3191
3062	0.3362
3053	0.3518
3044	0.3664
3035	0.3805
3026	0.3914
3017	0.3964
3008	0.3921
2999	0.3891
2990	0.3788
2981	0.3521
2972	0.328
2963	0.3019
2954	0.2677
2945	0.2378
2936	0.2088
2927	0.1872
2918	0.175
2909	0.1717
2900	0.1707
2891	0.1717
2882	0.1774
2873	0.1957
2864	0.2226
2855	0.258
2846	0.2916
2837	0.3191
2828	0.3472
2819	0.3768
2810	0.3994
2801	0.4216
2792	0.4431
2783	0.4621
2774	0.4784
2765	0.4964
2756	0.5064
2747	0.4925
2738	0.4809
2729	0.4844
2720	0.4944
2711	0.5056
2702	0.5166
2693	0.5275
2684	0.5432
2675	0.5178
2666	0.4569
2657	0.3262
2648	0.2984
2639	0.3377
2630	0.3838
2621	0.43
2612	0.4851
2603	0.5127
2594	0.5342
2585	0.5552
2576	0.5755
2567	0.5926
2558	0.5984
2549	0.5991
2540	0.5999
2531	0.6086
2522	0.6278
2513	0.6468
2504	0.6615
2495	0.6712
2486	0.6767
2477	0.6792
2468	0.6837
2459	0.6915
2450	0.7012
2441	0.7125
2432	0.7188
2423	0.7165
2414	0.7175
2405	0.7228
2396	0.7281
2387	0.7325
2378	0.7368
2369	0.7394
2360	0.7415
2351	0.7426
2342	0.7425
2333	0.7418
2324	0.7407
2315	0.7391
2306	0.7381
2297	0.7392
2288	0.7415
2279	0.7438
2270	0.7476
2261	0.7517
2252	0.7565
2243	0.7614
2234	0.7674
2225	0.7741
2216	0.7807
2207	0.7843
2198	0.7849
2189	0.7861
2180	0.79
2171	0.7965
2162	0.8031
2153	0.8096
2144	0.8136
2135	0.8167
2126	0.8195
2117	0.8221
2108	0.8249
2099	0.8278
2090	0.8304
2081	0.832
2072	0.833
2063	0.8327
2054	0.8323
2045	0.8315
2036	0.8306
2027	0.8298
2018	0.8294
2009	0.8285
2000	0.8209
1991	0.8075
1982	0.8115
1973	0.8131
1964	0.8144
1955	0.8139
1946	0.8051
1937	0.8171
1928	0.8271
1919	0.829
1910	0.8288
1901	0.8411
1892	0.8487
1883	0.849
1874	0.8571
1865	0.8642
1856	0.8687
1847	0.8728
1838	0.8774
1829	0.879
1820	0.872
1811	0.8759
1802	0.8764
1793	0.8748
1784	0.865
1775	0.8341
1766	0.8721
1757	0.883
1748	0.8933
1739	0.8906
1730	0.898
1721	0.8867
1712	0.8914
1703	0.8817
1694	0.8765
1685	0.8731
1676	0.8595
1667	0.7503
1658	0.6347
1649	0.6515
1640	0.8011
1631	0.8402
1622	0.8281
1613	0.7358
1604	0.6611
1595	0.6755
1586	0.7497
1577	0.6796
1568	0.8265
1559	0.8324
1550	0.7168
1541	0.3434
1532	0.1767
1523	0.1871
1514	0.2991
1505	0.6601
1496	0.7335
1487	0.7783
1478	0.8084
1469	0.5568
1460	0.8048
1451	0.8391
1442	0.8041
1433	0.478
1424	0.7354
1415	0.8183
1406	0.739
1397	0.6471
1388	0.7395
1379	0.7568
1370	0.6795
1361	0.6151
1352	0.1984
1343	0.4912
1334	0.6329
1325	0.6505
1316	0.5201
1307	0.6138
1298	0.6472
1289	0.6182
1280	0.4893
1271	0.6103
1262	0.4752
1253	0.4431
1244	0.283
1235	0.1453
1226	0.0817
1217	0.0647
1208	0.1458
1199	0.2358
1190	0.0649
1181	0.0536
1172	0.0144
1163	0.0646
1154	0.2407
1145	0.319
1136	0.4271
1127	0.5335
1118	0.6145
1109	0.5558
1100	0.5732
1091	0.6707
1082	0.5178
1073	0.6699
1064	0.6701
1055	0.4062
1046	0.058
1037	0.4991
1028	0.5705
1019	0.714
1010	0.7461
1001	0.7582
992	0.7641
983	0.7665
974	0.7391
965	0.7572
956	0.7571
947	0.6808
938	0.6331
929	0.7206
920	0.7615
911	0.7688
902	0.77
893	0.5727
884	0.7367
875	0.7741
866	0.7821
857	0.7822
848	0.7595
839	0.7793
830	0.783
821	0.784
812	0.7842
803	0.7825
794	0.7788
785	0.719
776	0.4468
767	0.6604
758	0.6166
749	0.238
740	0.676
731	0.6838
722	0.626
713	0.2748
704	0.7039
695	0.7182
686	0.6815
677	0.6065
668	0.4764
659	0.0672
650	0.3115
641	0.5037
632	0.5494
623	0.7154
614	0.7278
605	0.7704
596	0.7571
587	0.7299
578	0.7918
569	0.808
560	0.8139
551	0.8178
542	0.8148
533	0.7811
524	0.7268
515	0.7268
506	0.7972
497	0.8142
488	0.8117
479	0.76
470	0.7908
461	0.7941
452	0.7946
