Infrared Spectrum: N,N'-BIS-(4-(6-METHYL)1,3,3a,7-TETRAZAINDENYL)-4,4'-BIPHENYLDIAMINE
Formula: C24 H20 N10
CAS: 116008-06-1
State: SOLID (KBr PRESSING)
Melting point: 305 C
Class: COBLENTZ
Instrument: Not specified, most likely a prism, grating, or hybrid spectrometer.
Sampling: TRANSMISSION
Resolution: 4
Origin: EASTMAN KODAK COMPANY, RESEARCH LABORATORIES, ROCHESTER, N.Y.
MICROMETERS	TRANSMITTANCE
2.037	0.728
2.07215	0.728
2.10731	0.725
2.14246	0.723
2.17762	0.725
2.21277	0.721
2.24792	0.721
2.28308	0.721
2.31823	0.726
2.35339	0.732
2.38854	0.737
2.42369	0.746
2.45885	0.746
2.494	0.749
2.52916	0.751
2.56431	0.754
2.59946	0.76
2.63462	0.77
2.66977	0.777
2.70493	0.777
2.74008	0.772
2.77523	0.733
2.81039	0.64
2.84554	0.581
2.8807	0.53
2.91585	0.493
2.951	0.486
2.98616	0.483
3.02131	0.527
3.05647	0.551
3.09162	0.551
3.12677	0.539
3.16193	0.549
3.19708	0.555
3.23224	0.551
3.26739	0.551
3.30254	0.551
3.3377	0.579
3.37285	0.595
3.40801	0.583
3.44316	0.588
3.47831	0.64
3.51347	0.661
3.54862	0.7
3.58378	0.721
3.61893	0.747
3.65408	0.761
3.68924	0.777
3.72439	0.798
3.75955	0.812
3.7947	0.823
3.82985	0.833
3.86501	0.842
3.90016	0.852
3.93532	0.863
3.97047	0.865
4.00562	0.872
4.04078	0.879
4.07593	0.88
4.11109	0.887
4.14624	0.891
4.18139	0.896
4.21655	0.891
4.2517	0.893
4.28686	0.9
4.32201	0.917
4.35716	0.921
4.39232	0.922
4.42747	0.924
4.46263	0.926
4.49778	0.926
4.53293	0.928
4.56809	0.922
4.60324	0.928
4.6384	0.928
4.67355	0.922
4.7087	0.924
4.74386	0.926
4.77901	0.928
4.81417	0.928
4.84932	0.928
4.88447	0.928
4.91963	0.928
4.95478	0.929
4.98994	0.931
5.02509	0.935
5.06024	0.938
5.0954	0.938
5.13055	0.942
5.16571	0.942
5.20086	0.94
5.23601	0.942
5.27117	0.947
5.30632	0.959
5.34148	0.959
5.37663	0.959
5.41178	0.963
5.44694	0.964
5.48209	0.957
5.51725	0.954
5.5524	0.961
5.58755	0.97
5.62271	0.971
5.65786	0.98
5.69302	0.971
5.72817	0.963
5.76332	0.949
5.79848	0.943
5.83363	0.942
5.86879	0.924
5.90394	0.872
5.93909	0.803
5.97425	0.744
6.0094	0.661
6.04456	0.625
6.07971	0.507
6.11486	0.211
6.15002	0.185
6.18517	0.166
6.22033	0.091
6.25548	0.113
6.29063	0.129
6.32579	0.106
6.36094	0.11
6.3961	0.131
6.43125	0.287
6.4664	0.39
6.50156	0.591
6.53671	0.63
6.57187	0.511
6.60702	0.397
6.64217	0.28
6.67733	0.232
6.71248	0.371
6.74764	0.532
6.78279	0.704
6.81794	0.702
6.8531	0.649
6.88825	0.572
6.92341	0.49
6.95856	0.457
6.99371	0.378
7.02887	0.416
7.06402	0.541
7.09918	0.632
7.13433	0.674
7.16948	0.716
7.20464	0.791
7.23979	0.809
7.27495	0.793
7.3101	0.763
7.34525	0.774
7.38041	0.798
7.41556	0.803
7.45072	0.623
7.48587	0.476
7.52102	0.555
7.55618	0.616
7.59133	0.6
7.62649	0.644
7.66164	0.704
7.69679	0.693
7.73195	0.681
7.7671	0.672
7.80226	0.52
7.83741	0.588
7.87256	0.64
7.90772	0.583
7.94287	0.301
7.97803	0.357
8.01318	0.502
8.04833	0.628
8.08349	0.76
8.11864	0.844
8.1538	0.854
8.18895	0.796
8.2241	0.672
8.25926	0.728
8.29441	0.67
8.32957	0.462
8.36472	0.444
8.39987	0.663
8.43503	0.739
8.47018	0.772
8.50534	0.807
8.54049	0.798
8.57564	0.833
8.6108	0.901
8.64595	0.912
8.68111	0.924
8.71626	0.929
8.75141	0.933
8.78657	0.936
8.82172	0.935
8.85688	0.935
8.89203	0.933
8.92718	0.922
8.96234	0.91
8.99749	0.91
9.03265	0.922
9.0678	0.935
9.10295	0.94
9.13811	0.947
9.17326	0.947
9.20842	0.952
9.24357	0.956
9.27872	0.956
9.31388	0.954
9.34903	0.954
9.38419	0.954
9.41934	0.954
9.45449	0.954
9.48965	0.956
9.5248	0.954
9.55996	0.956
9.59511	0.945
9.63026	0.926
9.66542	0.912
9.70057	0.898
9.73573	0.905
9.77088	0.921
9.80603	0.91
9.84119	0.903
9.87634	0.889
9.9115	0.8
9.94665	0.775
9.9818	0.84
10.017	0.901
10.0521	0.924
10.0873	0.945
10.1224	0.954
10.1576	0.963
10.1927	0.964
10.2279	0.966
10.263	0.97
10.2982	0.977
10.3333	0.975
10.3685	0.975
10.4037	0.97
10.4388	0.957
10.474	0.942
10.5091	0.935
10.5443	0.947
10.5794	0.978
10.6146	0.998
10.6497	1.007
10.6849	1.014
10.72	1.019
10.7552	1.024
10.7903	1.026
10.8255	1.026
10.8607	1.026
10.8958	1.022
10.931	0.984
10.9661	0.954
11.0013	0.977
11.0364	0.992
11.0716	1.008
11.1067	1.026
11.1419	1.028
11.177	1.028
11.2122	1.028
11.2473	1.028
11.2825	1.028
11.3177	1.028
11.3528	1.028
11.388	1.028
11.4231	1.028
11.4583	1.026
11.4934	1.026
11.5286	1.021
11.5637	1.01
11.5989	1.001
11.634	0.996
11.6692	0.984
11.7044	0.966
11.7395	0.954
11.7747	0.933
11.8098	0.926
11.845	0.924
11.8801	0.924
11.9153	0.921
11.9504	0.903
11.9856	0.879
12.0207	0.852
12.0559	0.816
12.091	0.782
12.1262	0.746
12.1614	0.716
12.1965	0.704
12.2317	0.69
12.2668	0.707
12.302	0.767
12.3371	0.805
12.3723	0.84
12.4074	0.852
12.4426	0.859
12.4777	0.865
12.5129	0.873
12.548	0.88
12.5832	0.894
12.6184	0.905
12.6535	0.905
12.6887	0.894
12.7238	0.873
12.759	0.851
12.7941	0.824
12.8293	0.781
12.8644	0.667
12.8996	0.604
12.9347	0.574
12.9699	0.654
13.005	0.795
13.0402	0.833
13.0754	0.837
13.1105	0.83
13.1457	0.826
13.1808	0.814
13.216	0.814
13.2511	0.817
13.2863	0.828
13.3214	0.858
13.3566	0.886
13.3917	0.896
13.4269	0.905
13.4621	0.91
13.4972	0.915
13.5324	0.917
13.5675	0.915
13.6027	0.915
13.6378	0.912
13.673	0.907
13.7081	0.901
13.7433	0.889
13.7784	0.886
13.8136	0.877
13.8487	0.873
13.8839	0.877
13.9191	0.873
13.9542	0.87
13.9894	0.859
14.0245	0.842
14.0597	0.828
14.0948	0.814
14.13	0.805
14.1651	0.795
14.2003	0.765
14.2354	0.754
14.2706	0.732
14.3057	0.721
14.3409	0.725
14.3761	0.765
14.4112	0.809
14.4464	0.835
14.4815	0.854
14.5167	0.856
14.5518	0.858
14.587	0.847
14.6221	0.833
14.6573	0.8
14.6924	0.756
14.7276	0.751
14.7627	0.765
14.7979	0.793
14.8331	0.81
14.8682	0.824
14.9034	0.823
14.9385	0.823
14.9737	0.83
15.0088	0.844
15.044	0.845
15.0791	0.842
15.1143	0.831
15.1494	0.826
15.1846	0.821
15.2198	0.817
15.2549	0.821
15.2901	0.824
15.3252	0.824
15.3604	0.824
15.3955	0.823
15.4307	0.816
15.4658	0.812
15.501	0.809
15.5361	0.807
15.5713	0.805
15.6064	0.803
15.6416	0.802
15.6768	0.796
15.7119	0.793
15.7471	0.793
15.7822	0.8
15.8174	0.81
15.8525	0.817
15.8877	0.824
15.9228	0.835
15.958	0.835
15.9931	0.84
