Infrared Spectrum: IMIDAZOLE, 5-(n-BUTYLTHIO)-4-NITRO-
Formula: C7 H11 N3 O2 S
CAS: 116155-02-3
State: SOLID (0.7 mg / 650 mg, KBr DISC)
Class: COBLENTZ III
Instrument: PERKIN-ELMER 21 (GRATING)
Instrument parameters: FILTER CHANGE AT 1070 CM^-^1
Sampling: TRANSMISSION
Resolution: 2
Origin: SOUTHERN RESEARCH INSTITUTE (W.C. COBURN, JR.)
1/CM	TRANSMITTANCE
703.842	0.965
712.97	0.8871
722.098	0.9009
731.226	0.8738
740.354	0.7193
749.482	0.8706
758.61	0.9858
767.738	0.978
776.866	0.9597
785.994	0.9422
795.122	0.908
804.25	0.8778
813.378	0.6734
822.505	0.9275
831.633	0.954
840.761	0.9393
849.889	0.9183
859.017	0.8727
868.145	0.7007
877.273	0.8622
886.401	0.9304
895.529	0.917
904.657	0.9306
913.785	0.9382
922.913	0.9357
932.041	0.931
941.169	0.926
950.297	0.9199
959.425	0.9099
968.553	0.892
977.681	0.8668
986.809	0.7652
995.937	0.7514
1005.06	0.7953
1014.19	0.878
1023.32	0.8745
1032.45	0.8705
1041.58	0.8436
1050.7	0.8304
1059.83	0.806
1068.96	0.7905
1078.09	0.7749
1087.22	0.7497
1096.34	0.607
1105.47	0.5896
1114.6	0.6924
1123.73	0.747
1132.86	0.7216
1141.98	0.5964
1151.11	0.3757
1160.24	0.8054
1169.37	0.8034
1178.5	0.7756
1187.62	0.7362
1196.75	0.6559
1205.88	0.6037
1215.01	0.4282
1224.14	0.319
1233.26	0.5498
1242.39	0.4663
1251.52	0.1676
1260.65	0.1951
1269.78	0.5708
1278.9	0.5899
1288.03	0.619
1297.16	0.5689
1306.29	0.5046
1315.42	0.5042
1324.54	0.3373
1333.67	0.23
1342.8	0.1004
1351.93	0.086
1361.06	0.1039
1370.18	0.1807
1379.31	0.5667
1388.44	0.6944
1397.57	0.6585
1406.7	0.479
1415.82	0.45
1424.95	0.3294
1434.08	0.4594
1443.21	0.4636
1452.33	0.3076
1461.46	0.3123
1470.59	0.1555
1479.72	0.036
1488.85	0.1198
1497.97	0.3834
1507.1	0.5588
1516.23	0.6685
1525.36	0.73
1534.49	0.8374
1543.61	0.8566
1552.74	0.8875
1561.87	0.8954
1571	0.898
1580.13	0.908
1589.25	0.908
1598.38	0.9009
1607.51	0.898
1616.64	0.902
1625.77	0.9087
1634.89	0.9196
1644.02	0.93
1653.15	0.935
1662.28	0.935
1671.41	0.932
1680.53	0.933
1689.66	0.933
1698.79	0.931
1707.92	0.9277
1717.05	0.9198
1726.17	0.9037
1735.3	0.909
1744.43	0.9409
1753.56	0.949
1762.69	0.949
1771.81	0.949
1780.94	0.953
1790.07	0.955
1799.2	0.957
1808.33	0.957
1817.45	0.954
1826.58	0.95
1835.71	0.949
1844.84	0.948
1853.97	0.9476
1863.09	0.945
1872.22	0.949
1881.35	0.954
1890.48	0.958
1899.6	0.9542
1908.73	0.948
1917.86	0.952
1926.99	0.953
1936.12	0.952
1945.24	0.954
1954.37	0.955
1963.5	0.9512
1972.63	0.945
1981.76	0.943
1990.88	0.941
2000.01	0.941
2009.14	0.937
2018.27	0.937
2027.4	0.943
2036.52	0.943
2045.65	0.937
2054.78	0.939
2063.91	0.935
2073.04	0.935
2082.16	0.935
2091.29	0.933
2100.42	0.933
2109.55	0.931
2118.68	0.931
2127.8	0.93
2136.93	0.928
2146.06	0.923
2155.19	0.922
2164.32	0.922
2173.44	0.922
2182.57	0.924
2191.7	0.924
2200.83	0.923
2209.96	0.918
2219.08	0.917
2228.21	0.914
2237.34	0.914
2246.47	0.914
2255.6	0.91
2264.72	0.908
2273.85	0.906
2282.98	0.905
2292.11	0.908
2301.24	0.909
2310.36	0.905
2319.49	0.9
2328.62	0.895
2337.75	0.893
2346.88	0.893
2356	0.893
2365.13	0.893
2374.26	0.893
2383.39	0.888
2392.51	0.888
2401.64	0.888
2410.77	0.888
2419.9	0.884
2429.03	0.883
2438.15	0.884
2447.28	0.883
2456.41	0.876
2465.54	0.874
2474.67	0.867
2483.79	0.865
2492.92	0.863
2502.05	0.863
2511.18	0.863
2520.31	0.862
2529.43	0.86
2538.56	0.86
2547.69	0.852
2556.82	0.847
2565.95	0.845
2575.07	0.844
2584.2	0.841
2593.33	0.838
2602.46	0.834
2611.59	0.832
2620.71	0.831
2629.84	0.825
2638.97	0.817
2648.1	0.814
2657.23	0.809
2666.35	0.812
2675.48	0.81
2684.61	0.81
2693.74	0.805
2702.87	0.804
2711.99	0.803
2721.12	0.796
2730.25	0.788
2739.38	0.782
2748.51	0.773
2757.63	0.757
2766.76	0.739
2775.89	0.724
2785.02	0.699
2794.15	0.673
2803.27	0.6109
2812.4	0.536
2821.53	0.492
2830.66	0.509
2839.78	0.577
2848.91	0.584
2858.04	0.575
2867.17	0.547
2876.3	0.511
2885.42	0.475
2894.55	0.404
2903.68	0.386
2912.81	0.386
2921.94	0.396
2931.06	0.4651
2940.19	0.636
2949.32	0.756
2958.45	0.788
2967.58	0.808
2976.7	0.813
2985.83	0.814
2994.96	0.816
3004.09	0.813
3013.22	0.808
3022.34	0.8
3031.47	0.794
3040.6	0.784
3049.73	0.766
3058.86	0.744
3067.98	0.707
3077.11	0.687
3086.24	0.7171
3095.37	0.8011
3104.5	0.814
3113.62	0.814
3122.75	0.816
3131.88	0.816
3141.01	0.816
3150.14	0.814
3159.26	0.809
3168.39	0.808
3177.52	0.804
3186.65	0.804
3195.78	0.805
3204.9	0.799
3214.03	0.795
3223.16	0.792
3232.29	0.791
3241.42	0.788
3250.54	0.787
3259.67	0.784
3268.8	0.782
3277.93	0.775
3287.06	0.772
3296.18	0.766
3305.31	0.76
3314.44	0.756
3323.57	0.748
3332.69	0.744
3341.82	0.738
3350.95	0.737
3360.08	0.733
3369.21	0.727
3378.33	0.727
3387.46	0.724
3396.59	0.721
3405.72	0.724
3414.85	0.726
3423.97	0.726
3433.1	0.726
3442.23	0.726
3451.36	0.73
3460.49	0.731
3469.61	0.74
3478.74	0.747
3487.87	0.751
3497	0.757
3506.13	0.764
3515.25	0.766
3524.38	0.773
3533.51	0.781
3542.64	0.782
3551.77	0.782
3560.89	0.788
3570.02	0.794
3579.15	0.799
3588.28	0.803
3597.41	0.801
3606.53	0.804
3615.66	0.805
3624.79	0.809
3633.92	0.81
3643.05	0.812
3652.17	0.808
3661.3	0.805
3670.43	0.804
3679.56	0.803
3688.69	0.801
3697.81	0.801
3706.94	0.8
3716.07	0.799
3725.2	0.799
3734.33	0.796
3743.45	0.796
3752.58	0.796
3761.71	0.796
3770.84	0.799
3779.96	0.797
3789.09	0.796
3798.22	0.796
3807.35	0.794
3816.48	0.79
3825.6	0.79
3834.73	0.791
3843.86	0.791
3852.99	0.79
3862.12	0.787
3871.24	0.783
3880.37	0.781
3889.5	0.779
3898.63	0.779
3907.76	0.779
3916.88	0.778
3926.01	0.777
3935.14	0.777
3944.27	0.779
3953.4	0.781
3962.52	0.781
3971.65	0.783
3980.78	0.782
3989.91	0.783
3999.04	0.788
4008.16	0.787
