Infrared Spectrum: BENZAMIDINE, 4-(3-SEC-BUTYL-3-METHYLTRIAZENO)-, HYDROCHLORIDE
Formula: C12 H20 Cl N5
CAS: 116277-56-6
State: SOLID (1 mg / 650 mg KBr DISC)
Class: COBLENTZ III
Instrument: PERKIN-ELMER 521 (GRATING)
Instrument parameters: FILTERS AT 3150, 2500, 2000, 1150, 700, 410. GRATING CHANGES: 2000, 630 CM^-^1
Sampling: TRANSMISSION
Resolution: 2
Origin: SOUTHERN RESEARCH INSTITUTE
1/CM	TRANSMITTANCE
257.895	0.348
268.276	0.3934
278.656	0.4589
289.037	0.5077
299.418	0.5692
309.798	0.5943
320.179	0.6126
330.559	0.6501
340.94	0.6891
351.321	0.727
361.701	0.748
372.082	0.74
382.463	0.7613
392.843	0.7706
403.224	0.779
413.604	0.7893
423.985	0.7916
434.366	0.78
444.746	0.781
455.127	0.805
465.508	0.8034
475.888	0.7993
486.269	0.7964
496.649	0.7794
507.03	0.7783
517.411	0.715
527.791	0.7267
538.172	0.732
548.553	0.6959
558.933	0.6257
569.314	0.713
579.694	0.703
590.075	0.6731
600.456	0.6573
610.836	0.6233
621.217	0.6189
631.598	0.5903
641.978	0.6641
652.359	0.6383
662.74	0.5816
673.12	0.5391
683.501	0.5731
693.881	0.5456
704.262	0.5545
714.643	0.5905
725.023	0.642
735.404	0.699
745.785	0.5958
756.165	0.7724
766.546	0.7951
776.926	0.7779
787.307	0.7649
797.688	0.7908
808.068	0.7811
818.449	0.821
828.83	0.8125
839.21	0.6983
849.591	0.4546
859.971	0.8056
870.352	0.864
880.733	0.8636
891.113	0.8453
901.494	0.8297
911.875	0.779
922.255	0.8538
932.636	0.8402
943.016	0.8249
953.397	0.7587
963.778	0.7858
974.158	0.7886
984.539	0.7002
994.92	0.7717
1005.3	0.7358
1015.68	0.7218
1026.06	0.6845
1036.44	0.6467
1046.82	0.6688
1057.2	0.6481
1067.58	0.5854
1077.96	0.4315
1088.35	0.391
1098.73	0.227
1109.11	0.473
1119.49	0.6695
1129.87	0.6377
1140.25	0.6128
1150.63	0.4328
1161.01	0.3896
1171.39	0.3281
1181.77	0.7261
1192.15	0.7098
1202.53	0.6496
1212.91	0.5841
1223.29	0.5262
1233.67	0.504
1244.05	0.5763
1254.44	0.5806
1264.82	0.5437
1275.2	0.5062
1285.58	0.4901
1295.96	0.4246
1306.34	0.318
1316.72	0.3653
1327.1	0.298
1337.48	0.1452
1347.86	0.0694
1358.24	0.1664
1368.62	0.4034
1379	0.5966
1389.38	0.6405
1399.76	0.5818
1410.14	0.4561
1420.53	0.1988
1430.91	0.4427
1441.29	0.4832
1451.67	0.4161
1462.05	0.2267
1472.43	0.3962
1482.81	0.4004
1493.19	0.5214
1503.57	0.7882
1513.95	0.762
1524.33	0.6312
1534.71	0.5782
1545.09	0.7404
1555.47	0.8073
1565.85	0.8086
1576.23	0.7651
1586.62	0.672
1597	0.2931
1607.38	0.5884
1617.76	0.721
1628.14	0.6885
1638.52	0.5544
1648.9	0.3169
1659.28	0.104
1669.66	0.3212
1680.04	0.579
1690.42	0.7533
1700.8	0.8194
1711.18	0.8825
1721.56	0.9045
1731.94	0.9203
1742.32	0.93
1752.71	0.931
1763.09	0.927
1773.47	0.9212
1783.85	0.9173
1794.23	0.9242
1804.61	0.934
1814.99	0.935
1825.37	0.934
1835.75	0.93
1846.13	0.9259
1856.51	0.9211
1866.89	0.918
1877.27	0.914
1887.65	0.9108
1898.03	0.907
1908.41	0.8956
1918.8	0.894
1929.18	0.895
1939.56	0.896
1949.94	0.898
1960.32	0.8998
1970.7	0.901
1981.08	0.9022
1991.46	0.902
2001.84	0.8972
2012.22	0.8932
2022.6	0.89
2032.98	0.889
2043.36	0.887
2053.74	0.885
2064.12	0.8816
2074.5	0.8748
2084.89	0.8726
2095.27	0.87
2105.65	0.868
2116.03	0.8636
2126.41	0.8606
2136.79	0.858
2147.17	0.858
2157.55	0.856
2167.93	0.856
2178.31	0.8546
2188.69	0.852
2199.07	0.851
2209.45	0.849
2219.83	0.845
2230.21	0.8416
2240.59	0.84
2250.98	0.838
2261.36	0.837
2271.74	0.836
2282.12	0.834
2292.5	0.8296
2302.88	0.8246
2313.26	0.8206
2323.64	0.8186
2334.02	0.818
2344.4	0.818
2354.78	0.819
2365.16	0.818
2375.54	0.818
2385.92	0.818
2396.3	0.818
2406.69	0.816
2417.07	0.814
2427.45	0.811
2437.83	0.807
2448.21	0.803
2458.59	0.7992
2468.97	0.7952
2479.35	0.792
2489.73	0.789
2500.11	0.785
2510.49	0.785
2520.87	0.784
2531.25	0.781
2541.63	0.778
2552.01	0.772
2562.39	0.766
2572.78	0.7592
2583.16	0.756
2593.54	0.7564
2603.92	0.758
2614.3	0.7566
2624.68	0.753
2635.06	0.749
2645.44	0.745
2655.82	0.7396
2666.2	0.734
2676.58	0.725
2686.96	0.7166
2697.34	0.7086
2707.72	0.6873
2718.1	0.6482
2728.48	0.6544
2738.87	0.6688
2749.25	0.6774
2759.63	0.68
2770.01	0.68
2780.39	0.6752
2790.77	0.6696
2801.15	0.6552
2811.53	0.6406
2821.91	0.6296
2832.29	0.6196
2842.67	0.6012
2853.05	0.5842
2863.43	0.5465
2873.81	0.553
2884.19	0.5503
2894.57	0.53
2904.96	0.4992
2915.34	0.4645
2925.72	0.437
2936.1	0.4336
2946.48	0.4128
2956.86	0.35
2967.24	0.3434
2977.62	0.4024
2988	0.403
2998.38	0.3785
3008.76	0.3486
3019.14	0.3291
3029.52	0.2992
3039.9	0.2797
3050.28	0.2622
3060.66	0.2572
3071.05	0.258
3081.43	0.2594
3091.81	0.2694
3102.19	0.2788
3112.57	0.281
3122.95	0.281
3133.33	0.283
3143.71	0.2864
3154.09	0.3038
3164.47	0.3299
3174.85	0.34
3185.23	0.3494
3195.61	0.3647
3205.99	0.384
3216.37	0.388
3226.75	0.3836
3237.14	0.3706
3247.52	0.3597
3257.9	0.352
3268.28	0.3474
3278.66	0.3474
3289.04	0.354
3299.42	0.3638
3309.8	0.3754
3320.18	0.3884
3330.56	0.4014
3340.94	0.4148
3351.32	0.4397
3361.7	0.4644
3372.08	0.5152
3382.46	0.5447
3392.84	0.5965
3403.23	0.6341
3413.61	0.6604
3423.99	0.6724
3434.37	0.6854
3444.75	0.6954
3455.13	0.705
3465.51	0.7108
3475.89	0.7174
3486.27	0.7224
3496.65	0.7304
3507.03	0.738
3517.41	0.7444
3527.79	0.748
3538.17	0.752
3548.55	0.756
3558.93	0.7588
3569.32	0.762
3579.7	0.765
3590.08	0.769
3600.46	0.7714
3610.84	0.774
3621.22	0.775
3631.6	0.775
3641.98	0.775
3652.36	0.776
3662.74	0.776
3673.12	0.776
3683.5	0.776
3693.88	0.776
3704.26	0.776
3714.64	0.776
3725.02	0.778
3735.41	0.776
3745.79	0.7746
3756.17	0.772
3766.55	0.771
3776.93	0.7706
3787.31	0.77
3797.69	0.769
3808.07	0.767
3818.45	0.765
3828.83	0.763
3839.21	0.762
3849.59	0.7606
3859.97	0.758
3870.35	0.757
3880.73	0.756
3891.11	0.756
3901.5	0.754
3911.88	0.753
3922.26	0.7512
3932.64	0.748
3943.02	0.745
3953.4	0.745
3963.78	0.744
3974.16	0.744
3984.54	0.744
3994.92	0.74
4005.3	0.74
4015.68	0.74
