Infrared Spectrum: UREA, 1,1'-p-PHENYLENEBIS[3-(2-FLUOROETHYL)-3-NITROSO-
Formula: C12 H14 F2 N6 O4
CAS: 116277-65-7
State: SOLID (1 mg / 650 mg KBr DISC)
Class: COBLENTZ III
Instrument: PERKIN-ELMER 521 (GRATING)
Instrument parameters: FILTERS AT 3150, 2500, 2000, 1150, 700, 410 CM ^-^1, GRATING CHANGES AT 2000, 630 CM ^-^1
Sampling: TRANSMISSION
Resolution: 4
Origin: SOUTHERN RES. INSTITUTE
1/CM	TRANSMITTANCE
238.776	0.225
247.96	0.246
257.143	0.291
266.327	0.357
275.511	0.427
284.694	0.501
293.878	0.547
303.062	0.572
312.245	0.586
321.429	0.613
330.613	0.627
339.796	0.619
348.98	0.617
358.164	0.705
367.347	0.699
376.531	0.686
385.715	0.715
394.898	0.736
404.082	0.753
413.266	0.765
422.449	0.781
431.633	0.787
440.817	0.79
450	0.793
459.184	0.795
468.368	0.797
477.551	0.796
486.735	0.792
495.919	0.775
505.102	0.711
514.286	0.728
523.47	0.727
532.653	0.762
541.837	0.782
551.021	0.781
560.204	0.777
569.388	0.77
578.572	0.752
587.755	0.716
596.939	0.657
606.123	0.586
615.306	0.658
624.49	0.726
633.674	0.75
642.857	0.768
652.041	0.769
661.225	0.78
670.408	0.788
679.592	0.795
688.776	0.806
697.959	0.809
707.143	0.813
716.327	0.813
725.51	0.79
734.694	0.613
743.878	0.762
753.061	0.646
762.245	0.525
771.429	0.757
780.612	0.722
789.796	0.791
798.979	0.778
808.163	0.711
817.347	0.529
826.53	0.662
835.714	0.639
844.898	0.534
854.081	0.739
863.265	0.795
872.449	0.806
881.632	0.817
890.816	0.816
900	0.814
909.183	0.811
918.367	0.793
927.551	0.781
936.734	0.754
945.918	0.687
955.102	0.598
964.285	0.518
973.469	0.465
982.653	0.563
991.836	0.443
1001.02	0.259
1010.2	0.324
1019.39	0.563
1028.57	0.708
1037.75	0.616
1046.94	0.675
1056.12	0.736
1065.31	0.775
1074.49	0.765
1083.67	0.738
1092.86	0.555
1102.04	0.322
1111.22	0.462
1120.41	0.615
1129.59	0.701
1138.78	0.738
1147.96	0.748
1157.14	0.763
1166.33	0.776
1175.51	0.779
1184.69	0.772
1193.88	0.763
1203.06	0.753
1212.24	0.727
1221.43	0.677
1230.61	0.708
1239.8	0.729
1248.98	0.664
1258.16	0.724
1267.35	0.75
1276.53	0.65
1285.71	0.693
1294.9	0.708
1304.08	0.597
1313.26	0.67
1322.45	0.642
1331.63	0.572
1340.82	0.581
1350	0.651
1359.18	0.68
1368.37	0.725
1377.55	0.737
1386.73	0.656
1395.92	0.608
1405.1	0.498
1414.28	0.348
1423.47	0.582
1432.65	0.747
1441.84	0.746
1451.02	0.658
1460.2	0.512
1469.39	0.4
1478.57	0.533
1487.75	0.391
1496.94	0.289
1506.12	0.411
1515.31	0.377
1524.49	0.319
1533.67	0.43
1542.86	0.296
1552.04	0.223
1561.22	0.333
1570.41	0.531
1579.59	0.653
1588.77	0.7
1597.96	0.693
1607.14	0.702
1616.33	0.73
1625.51	0.739
1634.69	0.746
1643.88	0.758
1653.06	0.761
1662.24	0.752
1671.43	0.744
1680.61	0.726
1689.79	0.686
1698.98	0.59
1708.16	0.335
1717.35	0.243
1726.53	0.363
1735.71	0.495
1744.9	0.611
1754.08	0.719
1763.26	0.771
1772.45	0.803
1781.63	0.825
1790.82	0.836
1800	0.847
1809.18	0.851
1818.37	0.856
1827.55	0.859
1836.73	0.863
1845.92	0.867
1855.1	0.869
1864.28	0.87
1873.47	0.871
1882.65	0.871
1891.84	0.86
1901.02	0.869
1910.2	0.873
1919.39	0.875
1928.57	0.877
1937.75	0.878
1946.94	0.878
1956.12	0.878
1965.3	0.878
1974.49	0.876
1983.67	0.874
1992.86	0.872
2002.04	0.871
2011.22	0.87
2020.41	0.869
2029.59	0.869
2038.77	0.87
2047.96	0.87
2057.14	0.87
2066.33	0.87
2075.51	0.87
2084.69	0.867
2093.88	0.867
2103.06	0.868
2112.24	0.868
2121.43	0.869
2130.61	0.87
2139.79	0.87
2148.98	0.87
2158.16	0.87
2167.35	0.869
2176.53	0.867
2185.71	0.867
2194.9	0.866
2204.08	0.866
2213.26	0.864
2222.45	0.864
2231.63	0.863
2240.81	0.862
2250	0.862
2259.18	0.862
2268.37	0.863
2277.55	0.864
2286.73	0.864
2295.92	0.864
2305.1	0.865
2314.28	0.864
2323.47	0.863
2332.65	0.863
2341.84	0.864
2351.02	0.864
2360.2	0.864
2369.39	0.864
2378.57	0.864
2387.75	0.864
2396.94	0.863
2406.12	0.863
2415.3	0.863
2424.49	0.863
2433.67	0.863
2442.86	0.863
2452.04	0.862
2461.22	0.86
2470.41	0.859
2479.59	0.857
2488.77	0.855
2497.96	0.855
2507.14	0.854
2516.32	0.854
2525.51	0.854
2534.69	0.855
2543.88	0.855
2553.06	0.855
2562.24	0.855
2571.43	0.854
2580.61	0.854
2589.79	0.853
2598.98	0.854
2608.16	0.854
2617.34	0.854
2626.53	0.854
2635.71	0.853
2644.9	0.853
2654.08	0.853
2663.26	0.853
2672.45	0.853
2681.63	0.853
2690.81	0.853
2700	0.852
2709.18	0.852
2718.37	0.851
2727.55	0.851
2736.73	0.851
2745.92	0.851
2755.1	0.85
2764.28	0.85
2773.47	0.849
2782.65	0.848
2791.83	0.847
2801.02	0.844
2810.2	0.842
2819.39	0.84
2828.57	0.837
2837.75	0.832
2846.94	0.829
2856.12	0.833
2865.3	0.835
2874.49	0.833
2883.67	0.828
2892.85	0.821
2902.04	0.806
2911.22	0.807
2920.41	0.811
2929.59	0.814
2938.77	0.813
2947.96	0.806
2957.14	0.797
2966.32	0.788
2975.51	0.786
2984.69	0.795
2993.88	0.803
3003.06	0.806
3012.24	0.808
3021.43	0.81
3030.61	0.81
3039.79	0.812
3048.98	0.813
3058.16	0.813
3067.34	0.814
3076.53	0.815
3085.71	0.816
3094.9	0.814
3104.08	0.813
3113.26	0.812
3122.45	0.811
3131.63	0.809
3140.81	0.807
3150	0.806
3159.18	0.807
3168.36	0.807
3177.55	0.806
3186.73	0.803
3195.92	0.8
3205.1	0.797
3214.28	0.793
3223.47	0.79
3232.65	0.786
3241.83	0.78
3251.02	0.772
3260.2	0.762
3269.39	0.752
3278.57	0.74
3287.75	0.721
3296.94	0.7
3306.12	0.682
3315.3	0.69
3324.49	0.695
3333.67	0.696
3342.85	0.682
3352.04	0.664
3361.22	0.592
3370.41	0.456
3379.59	0.512
3388.77	0.65
3397.96	0.693
3407.14	0.703
3416.32	0.708
3425.51	0.714
3434.69	0.721
3443.87	0.725
3453.06	0.73
3462.24	0.734
3471.43	0.737
3480.61	0.739
3489.79	0.741
3498.98	0.744
3508.16	0.752
3517.34	0.759
3526.53	0.766
3535.71	0.772
3544.89	0.778
3554.08	0.784
3563.26	0.791
3572.45	0.797
3581.63	0.803
3590.81	0.807
3600	0.814
3609.18	0.822
3618.36	0.828
3627.55	0.835
3636.73	0.841
3645.92	0.843
3655.1	0.844
3664.28	0.843
3673.47	0.841
3682.65	0.843
3691.83	0.845
3701.02	0.848
3710.2	0.85
3719.38	0.85
3728.57	0.85
3737.75	0.849
3746.94	0.849
3756.12	0.849
3765.3	0.85
3774.49	0.851
3783.67	0.851
3792.85	0.851
3802.04	0.851
