Infrared Spectrum: 2-(p-TRIMETHYLSILYLPHENOXY)-3-METHYL PYRAZINE
Formula: C14 H18 N2 O Si
CAS: 116295-61-5
State: SOLID (MINERAL OIL MULL)
Melting point: 62-63 C
Class: COBLENTZ
Instrument: Not specified, most likely a prism, grating, or hybrid spectrometer.
Sampling: TRANSMISSION
Resolution: 4
Origin: WYANDOTTE CHEMICALS CORP., WYANDOTTE, MICHIGAN, USA
MICROMETERS	TRANSMITTANCE
2.007	0.777
2.0479	0.783
2.08879	0.799
2.12969	0.801
2.17059	0.795
2.21148	0.78
2.25238	0.799
2.29328	0.801
2.33417	0.804
2.37507	0.811
2.41596	0.811
2.45686	0.816
2.49776	0.821
2.53865	0.823
2.57955	0.837
2.62045	0.83
2.66134	0.838
2.70224	0.825
2.74314	0.833
2.78403	0.823
2.82493	0.811
2.86583	0.794
2.90672	0.789
2.94762	0.783
2.98852	0.778
3.02941	0.785
3.07031	0.795
3.11121	0.792
3.1521	0.79
3.193	0.795
3.23389	0.766
3.27479	0.74
3.31569	0.651
3.35658	0.216
3.39748	0.114
3.43838	0.198
3.47927	0.271
3.52017	0.468
3.56107	0.806
3.60196	0.862
3.64286	0.867
3.68376	0.873
3.72465	0.886
3.76555	0.89
3.80645	0.902
3.84734	0.909
3.88824	0.91
3.92914	0.914
3.97003	0.926
4.01093	0.91
4.05182	0.914
4.09272	0.917
4.13362	0.91
4.17451	0.915
4.21541	0.919
4.25631	0.89
4.2972	0.921
4.3381	0.945
4.379	0.972
4.41989	0.953
4.46079	0.939
4.50169	0.948
4.54258	0.948
4.58348	0.953
4.62438	0.948
4.66527	0.941
4.70617	0.941
4.74706	0.951
4.78796	0.955
4.82886	0.96
4.86975	0.967
4.91065	0.963
4.95155	0.958
4.99244	0.96
5.03334	0.96
5.07424	0.953
5.11513	0.974
5.15603	0.969
5.19693	0.958
5.23782	0.936
5.27872	0.919
5.31962	0.96
5.36051	0.972
5.40141	0.979
5.44231	0.972
5.4832	0.981
5.5241	0.972
5.56499	0.963
5.60589	0.97
5.64679	0.946
5.68768	0.941
5.72858	0.939
5.76948	0.938
5.81037	0.902
5.85127	0.893
5.89217	0.929
5.93306	0.902
5.97396	0.871
6.01486	0.855
6.05575	0.871
6.09665	0.881
6.13755	0.869
6.17844	0.862
6.21934	0.809
6.26024	0.656
6.30113	0.799
6.34203	0.799
6.38292	0.84
6.42382	0.686
6.46472	0.619
6.50561	0.651
6.54651	0.734
6.58741	0.766
6.6283	0.662
6.6692	0.461
6.7101	0.742
6.75099	0.68
6.79189	0.471
6.83279	0.403
6.87368	0.44
6.91458	0.409
6.95548	0.466
6.99637	0.433
7.03727	0.349
7.07816	0.186
7.11906	0.132
7.15996	0.166
7.20085	0.305
7.24175	0.337
7.28265	0.409
7.32354	0.636
7.36444	0.735
7.40534	0.782
7.44623	0.775
7.48713	0.77
7.52803	0.682
7.56892	0.703
7.60982	0.706
7.65072	0.584
7.69161	0.675
7.73251	0.644
7.77341	0.356
7.8143	0.332
7.8552	0.61
7.89609	0.591
7.93699	0.336
7.97789	0.341
8.01878	0.409
8.05968	0.704
8.10058	0.701
8.14147	0.588
8.18237	0.518
8.22327	0.361
8.26416	0.289
8.30506	0.608
8.34596	0.723
8.38685	0.699
8.42775	0.36
8.46865	0.564
8.50954	0.286
8.55044	0.204
8.59134	0.542
8.63223	0.674
8.67313	0.548
8.71402	0.704
8.75492	0.778
8.79582	0.804
8.83671	0.819
8.87761	0.814
8.91851	0.801
8.9594	0.773
9.0003	0.643
9.0412	0.487
9.08209	0.65
9.12299	0.768
9.16389	0.801
9.20478	0.811
9.24568	0.811
9.28658	0.818
9.32747	0.826
9.36837	0.828
9.40926	0.842
9.45016	0.83
9.49106	0.845
9.53195	0.847
9.57285	0.847
9.61375	0.831
9.65464	0.807
9.69554	0.813
9.73644	0.831
9.77733	0.838
9.81823	0.766
9.85913	0.68
9.90002	0.816
9.94092	0.849
9.98182	0.864
10.0227	0.867
10.0636	0.862
10.1045	0.847
10.1454	0.802
10.1863	0.732
10.2272	0.655
10.2681	0.703
10.309	0.78
10.3499	0.813
10.3908	0.807
10.4317	0.831
10.4726	0.862
10.5135	0.866
10.5544	0.869
10.5953	0.869
10.6362	0.814
10.6771	0.845
10.718	0.873
10.7588	0.878
10.7997	0.883
10.8406	0.878
10.8815	0.874
10.9224	0.873
10.9633	0.869
11.0042	0.845
11.0451	0.775
11.086	0.538
11.1269	0.718
11.1678	0.804
11.2087	0.826
11.2496	0.838
11.2905	0.838
11.3314	0.826
11.3723	0.811
11.4132	0.794
11.4541	0.758
11.495	0.699
11.5359	0.627
11.5768	0.535
11.6177	0.425
11.6586	0.315
11.6995	0.233
11.7404	0.217
11.7813	0.241
11.8222	0.264
11.8631	0.25
11.904	0.202
11.9448	0.159
11.9857	0.157
12.0266	0.138
12.0675	0.144
12.1084	0.2
12.1493	0.319
12.1902	0.433
12.2311	0.557
12.272	0.644
12.3129	0.698
12.3538	0.746
12.3947	0.771
12.4356	0.799
12.4765	0.819
12.5174	0.83
12.5583	0.849
12.5992	0.852
12.6401	0.867
12.681	0.869
12.7219	0.876
12.7628	0.869
12.8037	0.867
12.8446	0.85
12.8855	0.84
12.9264	0.804
12.9673	0.754
13.0082	0.734
13.0491	0.675
13.0899	0.564
13.1308	0.528
13.1717	0.433
13.2126	0.382
13.2535	0.36
13.2944	0.394
13.3353	0.54
13.3762	0.663
13.4171	0.734
13.458	0.782
13.4989	0.811
13.5398	0.825
13.5807	0.837
13.6216	0.837
13.6625	0.85
13.7034	0.845
13.7443	0.843
13.7852	0.847
13.8261	0.849
13.867	0.852
13.9079	0.854
13.9488	0.861
13.9897	0.854
14.0306	0.831
14.0715	0.768
14.1124	0.765
14.1533	0.802
14.1942	0.837
14.2351	0.85
14.2759	0.849
14.3168	0.847
14.3577	0.819
14.3986	0.789
14.4395	0.753
14.4804	0.725
14.5213	0.718
14.5622	0.746
14.6031	0.79
14.644	0.828
14.6849	0.855
14.7258	0.866
14.7667	0.873
14.8076	0.878
14.8485	0.878
14.8894	0.873
14.9303	0.855
14.9712	0.831
15.0121	0.795
15.053	0.78
15.0939	0.804
15.1348	0.849
15.1757	0.861
15.2166	0.866
15.2575	0.871
15.2984	0.861
15.3393	0.866
15.3802	0.857
15.421	0.85
15.4619	0.84
15.5028	0.835
15.5437	0.833
15.5846	0.83
15.6255	0.833
15.6664	0.823
15.7073	0.818
15.7482	0.809
15.7891	0.801
15.83	0.789
15.8709	0.783
15.9118	0.783
15.9527	0.777
15.9936	0.763
