Infrared Spectrum: Anthranilic acid, N-glycoloyl-N-methyl-
Formula: C10 H11 N O4
CAS: 116295-99-9
State: SOLID (NUJOL MULL)
Class: COBLENTZ III
Instrument: PERKIN-ELMER 21 (GRATING)
Instrument parameters: FILTER AT ABOUT 10 MICRONS
Resolution: 2
Origin: ABBOTT LABORATORIES
1/CM	TRANSMITTANCE
654	0.6125
663	0.6118
672	0.6145
681	0.6108
690	0.5867
699	0.5049
708	0.3763
717	0.4491
726	0.5045
735	0.5645
744	0.6021
753	0.5487
762	0.583
771	0.5395
780	0.6241
789	0.6447
798	0.5507
807	0.5532
816	0.7132
825	0.7014
834	0.6782
843	0.6668
852	0.656
861	0.6415
870	0.6111
879	0.5681
888	0.5207
897	0.5482
906	0.5532
915	0.5434
924	0.4912
933	0.5857
942	0.5877
951	0.5818
960	0.5575
969	0.5398
978	0.5006
987	0.4865
996	0.606
1005	0.6003
1014	0.5823
1023	0.5354
1032	0.4649
1041	0.3997
1050	0.5751
1059	0.5183
1068	0.4137
1077	0.3114
1086	0.5023
1095	0.4075
1104	0.2668
1113	0.4254
1122	0.3769
1131	0.4762
1140	0.5414
1149	0.5458
1158	0.5519
1167	0.5533
1176	0.5375
1185	0.5174
1194	0.483
1203	0.4343
1212	0.3814
1221	0.3308
1230	0.3422
1239	0.266
1248	0.3973
1257	0.202
1266	0.2339
1275	0.3185
1284	0.3584
1293	0.3396
1302	0.3785
1311	0.4478
1320	0.4344
1329	0.3862
1338	0.2748
1347	0.3456
1356	0.2578
1365	0.1766
1374	0.1202
1383	0.3061
1392	0.4697
1401	0.4734
1410	0.3805
1419	0.2699
1428	0.185
1437	0.0717
1446	0.0486
1455	0.0596
1464	0.1798
1473	0.3039
1482	0.3813
1491	0.5043
1500	0.5555
1509	0.5636
1518	0.5647
1527	0.5606
1536	0.5484
1545	0.534
1554	0.5137
1563	0.4904
1572	0.4485
1581	0.3826
1590	0.2406
1599	0.4144
1608	0.4331
1617	0.3644
1626	0.2965
1635	0.2279
1644	0.1252
1653	0.1047
1662	0.1961
1671	0.3493
1680	0.3581
1689	0.2866
1698	0.148
1707	0.1853
1716	0.3374
1725	0.4595
1734	0.5451
1743	0.5917
1752	0.6384
1761	0.6738
1770	0.6969
1779	0.7158
1788	0.7309
1797	0.7434
1806	0.7543
1815	0.7612
1824	0.7671
1833	0.7664
1842	0.7628
1851	0.7649
1860	0.7699
1869	0.7679
1878	0.769
1887	0.7719
1896	0.7711
1905	0.7689
1914	0.7672
1923	0.7677
1932	0.7655
1941	0.755
1950	0.7538
1959	0.7536
1968	0.7531
1977	0.7527
1986	0.7523
1995	0.7507
2004	0.7454
2013	0.7374
2022	0.7323
2031	0.7292
2040	0.7264
2049	0.724
2058	0.722
2067	0.7203
2076	0.7179
2085	0.7121
2094	0.7079
2103	0.7037
2112	0.6995
2121	0.6954
2130	0.6914
2139	0.6875
2148	0.6839
2157	0.6804
2166	0.6773
2175	0.6743
2184	0.6714
2193	0.6684
2202	0.6655
2211	0.663
2220	0.6606
2229	0.6582
2238	0.6558
2247	0.6533
2256	0.6491
2265	0.6364
2274	0.6224
2283	0.6054
2292	0.5993
2301	0.5953
2310	0.5921
2319	0.5891
2328	0.5863
2337	0.5836
2346	0.581
2355	0.5779
2364	0.5742
2373	0.5665
2382	0.5571
2391	0.5484
2400	0.5418
2409	0.5356
2418	0.5296
2427	0.5236
2436	0.5177
2445	0.5111
2454	0.5045
2463	0.498
2472	0.4914
2481	0.4845
2490	0.4777
2499	0.4703
2508	0.4616
2517	0.453
2526	0.4444
2535	0.4347
2544	0.425
2553	0.4154
2562	0.4004
2571	0.3867
2580	0.3816
2589	0.3815
2598	0.3821
2607	0.3834
2616	0.3848
2625	0.3868
2634	0.3895
2643	0.3919
2652	0.3932
2661	0.3941
2670	0.3944
2679	0.393
2688	0.3848
2697	0.3763
2706	0.3745
2715	0.3736
2724	0.3633
2733	0.3425
2742	0.3241
2751	0.3065
2760	0.2768
2769	0.2386
2778	0.2006
2787	0.1629
2796	0.1254
2805	0.0673
2814	0.0354
2823	0.0253
2832	0.0212
2841	0.0182
2850	0.0163
2859	0.015
2868	0.0142
2877	0.0135
2886	0.0136
2895	0.0144
2904	0.0161
2913	0.0192
2922	0.0242
2931	0.0362
2940	0.0561
2949	0.097
2958	0.1375
2967	0.1779
2976	0.22
2985	0.2489
2994	0.2699
3003	0.2845
3012	0.2943
3021	0.3008
3030	0.3043
3039	0.3065
3048	0.3072
3057	0.3064
3066	0.3019
3075	0.2967
3084	0.2908
3093	0.2881
3102	0.2877
3111	0.2881
3120	0.2889
3129	0.2899
3138	0.2912
3147	0.2944
3156	0.2998
3165	0.3139
3174	0.338
3183	0.3608
3192	0.3977
3201	0.4261
3210	0.4428
3219	0.4598
3228	0.4735
3237	0.4825
3246	0.494
3255	0.5095
3264	0.5281
3273	0.5426
3282	0.5563
3291	0.5716
3300	0.5841
3309	0.5944
3318	0.6041
3327	0.6132
3336	0.6214
3345	0.6287
3354	0.6356
3363	0.6419
3372	0.648
3381	0.653
3390	0.6565
3399	0.6587
3408	0.6596
3417	0.6596
3426	0.6593
3435	0.6585
3444	0.6568
3453	0.6549
3462	0.6521
3471	0.6491
3480	0.6462
3489	0.6433
3498	0.6401
3507	0.6369
3516	0.6341
3525	0.6313
3534	0.6285
3543	0.6257
3552	0.623
3561	0.6202
3570	0.6176
3579	0.6156
3588	0.6137
3597	0.6121
3606	0.6104
3615	0.6088
3624	0.6071
3633	0.6055
3642	0.6039
3651	0.6023
3660	0.6004
3669	0.5986
3678	0.5968
3687	0.595
3696	0.5932
3705	0.5914
3714	0.5895
3723	0.5876
3732	0.5857
3741	0.5838
3750	0.582
3759	0.58
3768	0.578
3777	0.576
3786	0.5741
3795	0.572
3804	0.57
3813	0.568
3822	0.566
3831	0.564
3840	0.562
3849	0.5603
3858	0.5584
3867	0.5565
3876	0.5547
3885	0.5532
3894	0.5518
3903	0.5503
3912	0.5489
3921	0.5475
3930	0.5462
3939	0.5448
3948	0.5434
3957	0.542
3966	0.5407
3975	0.5393
3984	0.538
3993	0.5366
