Infrared Spectrum: DI-O-TOLYL-CYANO-METHANE
Formula: C16 H15 N
CAS: 116296-33-4
State: SOLID (1.0% IN KBr PELLET)
Class: COBLENTZ
Instrument: Not specified, most likely a prism, grating, or hybrid spectrometer.
Sampling: TRANSMISSION
Path length: 0.0355 CM THICK
Resolution: 4
Origin: ANDERSON PHYSICAL LABORATORY
1/CM	TRANSMITTANCE
665.524	0.834
673.94	0.824
682.357	0.822
690.773	0.816
699.19	0.807
707.606	0.777
716.023	0.711
724.439	0.427
732.856	0.564
741.272	0.181
749.689	0.48
758.105	0.576
766.522	0.2102
774.938	0.6597
783.355	0.816
791.771	0.783
800.188	0.894
808.604	0.92
817.021	0.918
825.437	0.917
833.854	0.918
842.27	0.909
850.687	0.911
859.103	0.8191
867.52	0.84
875.936	0.903
884.353	0.914
892.769	0.914
901.186	0.915
909.602	0.918
918.019	0.926
926.435	0.948
934.852	0.924
943.268	0.9229
951.685	0.95
960.101	0.95
968.518	0.923
976.934	0.893
985.351	0.914
993.767	0.888
1002.18	0.915
1010.6	0.92
1019.02	0.897
1027.43	0.839
1035.85	0.755
1044.27	0.824
1052.68	0.774
1061.1	0.906
1069.52	0.935
1077.93	0.924
1086.35	0.923
1094.77	0.882
1103.18	0.848
1111.6	0.836
1120.01	0.921
1128.43	0.923
1136.85	0.926
1145.26	0.92
1153.68	0.905
1162.1	0.825
1170.51	0.87
1178.93	0.885
1187.35	0.915
1195.76	0.909
1204.18	0.908
1212.6	0.894
1221.01	0.891
1229.43	0.866
1237.85	0.911
1246.26	0.924
1254.68	0.92
1263.1	0.917
1271.51	0.905
1279.93	0.929
1288.34	0.891
1296.76	0.882
1305.18	0.848
1313.59	0.92
1322.01	0.936
1330.43	0.939
1338.84	0.938
1347.26	0.924
1355.68	0.918
1364.09	0.902
1372.51	0.87
1380.93	0.735
1389.34	0.716
1397.76	0.87
1406.18	0.873
1414.59	0.858
1423.01	0.825
1431.43	0.789
1439.84	0.711
1448.26	0.659
1456.67	0.585
1465.09	0.363
1473.51	0.606
1481.92	0.593
1490.34	0.357
1498.76	0.6501
1507.17	0.912
1515.59	0.953
1524.01	0.962
1532.42	0.957
1540.84	0.96
1549.26	0.959
1557.67	0.953
1566.09	0.948
1574.51	0.929
1582.92	0.912
1591.34	0.893
1599.76	0.819
1608.17	0.839
1616.59	0.869
1625	0.875
1633.42	0.873
1641.84	0.873
1650.25	0.855
1658.67	0.801
1667.09	0.837
1675.5	0.873
1683.92	0.921
1692.34	0.932
1700.75	0.932
1709.17	0.924
1717.59	0.938
1726	0.935
1734.42	0.945
1742.84	0.95
1751.25	0.95
1759.67	0.951
1768.09	0.953
1776.5	0.951
1784.92	0.939
1793.33	0.924
1801.75	0.923
1810.17	0.933
1818.58	0.939
1827	0.93
1835.42	0.938
1843.83	0.938
1852.25	0.938
1860.67	0.942
1869.08	0.939
1877.5	0.944
1885.92	0.936
1894.33	0.933
1902.75	0.918
1911.17	0.908
1919.58	0.929
1928	0.927
1936.42	0.918
1944.83	0.915
1953.25	0.923
1961.66	0.941
1970.08	0.939
1978.5	0.93
1986.91	0.924
1995.33	0.941
2003.75	0.95
2012.16	0.948
2020.58	0.949
2029	0.95
2037.41	0.947
2045.83	0.9418
2054.25	0.939
2062.66	0.939
2071.08	0.939
2079.5	0.9412
2087.91	0.9445
2096.33	0.9464
2104.75	0.947
2113.16	0.948
2121.58	0.948
2129.99	0.948
2138.41	0.9471
2146.83	0.9466
2155.24	0.945
2163.66	0.9396
2172.08	0.938
2180.49	0.9376
2188.91	0.9347
2197.33	0.9273
2205.74	0.9064
2214.16	0.8665
2222.58	0.8139
2230.99	0.8215
2239.41	0.9026
2247.83	0.9215
2256.24	0.9276
2264.66	0.9327
2273.08	0.933
2281.49	0.933
2289.91	0.9326
2298.32	0.9277
2306.74	0.9261
2315.16	0.927
2323.57	0.9294
2331.99	0.93
2340.41	0.93
2348.82	0.9287
2357.24	0.9253
2365.66	0.923
2374.07	0.9256
2382.49	0.9258
2390.91	0.924
2399.32	0.923
2407.74	0.921
2416.16	0.92
2424.57	0.92
2432.99	0.9206
2441.41	0.9227
2449.82	0.924
2458.24	0.924
2466.65	0.924
2475.07	0.923
2483.49	0.9209
2491.9	0.9193
2500.32	0.9158
2508.74	0.914
2517.15	0.914
2525.57	0.912
2533.99	0.9114
2542.4	0.911
2550.82	0.908
2559.24	0.9057
2567.65	0.9024
2576.07	0.9004
2584.49	0.899
2592.9	0.899
2601.32	0.899
2609.74	0.899
2618.15	0.897
2626.57	0.896
2634.98	0.8935
2643.4	0.8884
2651.82	0.8869
2660.23	0.8847
2668.65	0.8815
2677.07	0.8757
2685.48	0.872
2693.9	0.8697
2702.32	0.8665
2710.73	0.864
2719.15	0.863
2727.57	0.8607
2735.98	0.859
2744.4	0.8555
2752.82	0.854
2761.23	0.8518
2769.65	0.8456
2778.07	0.8324
2786.48	0.827
2794.9	0.8166
2803.31	0.7939
2811.73	0.7704
2820.15	0.7435
2828.56	0.734
2836.98	0.734
2845.4	0.7313
2853.81	0.728
2862.23	0.7191
2870.65	0.7073
2879.06	0.6938
2887.48	0.6803
2895.9	0.6704
2904.31	0.6669
2912.73	0.669
2921.15	0.6748
2929.56	0.6849
2937.98	0.692
2946.4	0.6957
2954.81	0.6978
2963.23	0.6993
2971.64	0.7002
2980.06	0.6946
2988.48	0.6847
2996.89	0.6712
3005.31	0.683
3013.73	0.698
3022.14	0.7164
3030.56	0.723
3038.98	0.726
3047.39	0.7273
3055.81	0.7391
3064.23	0.7718
3072.64	0.7939
3081.06	0.8006
3089.48	0.8039
3097.89	0.806
3106.31	0.8018
3114.73	0.7932
3123.14	0.7911
3131.56	0.7889
3139.97	0.7873
3148.39	0.786
3156.81	0.786
3165.22	0.786
3173.64	0.785
3182.06	0.7838
3190.47	0.7803
3198.89	0.7769
3207.31	0.7723
3215.72	0.7688
3224.14	0.7642
3232.56	0.7619
3240.97	0.761
3249.39	0.759
3257.81	0.759
3266.22	0.758
3274.64	0.7557
3283.06	0.7513
3291.47	0.7466
3299.89	0.74
3308.3	0.7368
3316.72	0.7276
3325.14	0.7168
3333.55	0.7099
3341.97	0.7056
3350.39	0.6973
3358.8	0.688
3367.22	0.6798
3375.64	0.6732
3384.05	0.6614
3392.47	0.6574
3400.89	0.6529
3409.3	0.651
3417.72	0.651
3426.14	0.653
3434.55	0.656
3442.97	0.6628
3451.39	0.6675
3459.8	0.6743
3468.22	0.681
3476.63	0.6848
3485.05	0.6895
3493.47	0.6942
3501.88	0.698
3510.3	0.7027
3518.72	0.709
3527.13	0.7182
3535.55	0.725
3543.97	0.7287
3552.38	0.7345
3560.8	0.7394
3569.22	0.7459
3577.63	0.7504
3586.05	0.7555
3594.47	0.7601
3602.88	0.762
3611.3	0.762
3619.72	0.7629
3628.13	0.765
3636.55	0.7679
3644.96	0.768
3653.38	0.767
3661.8	0.767
3670.21	0.768
3678.63	0.768
3687.05	0.768
3695.46	0.768
3703.88	0.768
3712.3	0.768
3720.71	0.77
3729.13	0.768
3737.55	0.767
3745.96	0.767
3754.38	0.7662
3762.8	0.764
3771.21	0.762
3779.63	0.7607
3788.05	0.7568
3796.46	0.7524
3804.88	0.752
3813.29	0.752
3821.71	0.7524
3830.13	0.753
3838.54	0.753
3846.96	0.753
3855.38	0.753
3863.79	0.753
3872.21	0.753
3880.63	0.752
3889.04	0.752
3897.46	0.7508
3905.88	0.75
3914.29	0.7488
3922.71	0.7466
3931.13	0.744
3939.54	0.7413
3947.96	0.7379
3956.38	0.737
3964.79	0.735
3973.21	0.735
3981.62	0.734
