Infrared Spectrum: PHOSPHORIC TRIAMIDE, N,N',N''-TRI-p-DODECYL PHENYL-,
Formula: C54 H90 N3 O P
CAS: 116295-70-6
State: SOLID (0.5% IN KBr PELLET)
Class: COBLENTZ
Instrument: PERKIN-ELMER
Sampling: TRANSMISSION
Resolution: 4
Origin: STANDARD OIL OF OHIO
MICROMETERS	TRANSMITTANCE
2.013	0.862
2.04673	0.863
2.08046	0.87
2.1142	0.872
2.14793	0.872
2.18166	0.875
2.21539	0.88
2.24913	0.882
2.28286	0.875
2.31659	0.867
2.35032	0.867
2.38405	0.875
2.41779	0.879
2.45152	0.88
2.48525	0.884
2.51898	0.887
2.55272	0.887
2.58645	0.889
2.62018	0.892
2.65391	0.891
2.68764	0.889
2.72138	0.863
2.75511	0.792
2.78884	0.702
2.82257	0.605
2.85631	0.518
2.89004	0.477
2.92377	0.442
2.9575	0.442
2.99123	0.486
3.02497	0.534
3.0587	0.5
3.09243	0.471
3.12616	0.471
3.1599	0.51
3.19363	0.579
3.22736	0.63
3.26109	0.625
3.29482	0.624
3.32856	0.457
3.36229	0.115
3.39602	0.096
3.42975	0.161
3.46349	0.207
3.49722	0.35
3.53095	0.627
3.56468	0.724
3.59841	0.765
3.63215	0.789
3.66588	0.799
3.69961	0.806
3.73334	0.824
3.76708	0.831
3.80081	0.835
3.83454	0.838
3.86827	0.841
3.902	0.846
3.93574	0.852
3.96947	0.86
4.0032	0.87
4.03693	0.877
4.07067	0.884
4.1044	0.887
4.13813	0.891
4.17186	0.891
4.20559	0.891
4.23933	0.891
4.27306	0.891
4.30679	0.892
4.34052	0.894
4.37426	0.897
4.40799	0.899
4.44172	0.901
4.47545	0.901
4.50918	0.901
4.54292	0.901
4.57665	0.901
4.61038	0.901
4.64411	0.901
4.67785	0.901
4.71158	0.901
4.74531	0.901
4.77904	0.901
4.81277	0.899
4.84651	0.899
4.88024	0.897
4.91397	0.899
4.9477	0.899
4.98144	0.899
5.01517	0.899
5.0489	0.901
5.08263	0.901
5.11636	0.901
5.1501	0.901
5.18383	0.899
5.21756	0.897
5.25129	0.891
5.28503	0.889
5.31876	0.891
5.35249	0.901
5.38622	0.908
5.41995	0.911
5.45369	0.913
5.48742	0.911
5.52115	0.908
5.55488	0.904
5.58862	0.899
5.62235	0.892
5.65608	0.887
5.68981	0.886
5.72354	0.882
5.75728	0.879
5.79101	0.862
5.82474	0.85
5.85847	0.831
5.89221	0.816
5.92594	0.814
5.95967	0.814
5.9934	0.784
6.02713	0.741
6.06087	0.7
6.0946	0.653
6.12833	0.596
6.16206	0.488
6.1958	0.435
6.22953	0.647
6.26326	0.695
6.29699	0.724
6.33072	0.773
6.36446	0.818
6.39819	0.824
6.43192	0.804
6.46565	0.773
6.49939	0.62
6.53312	0.501
6.56685	0.214
6.60058	0.134
6.63431	0.326
6.66805	0.518
6.70178	0.532
6.73551	0.489
6.76924	0.35
6.80298	0.256
6.83671	0.25
6.87044	0.324
6.90417	0.418
6.9379	0.547
6.97164	0.653
7.00537	0.724
7.0391	0.75
7.07283	0.746
7.10657	0.692
7.1403	0.583
7.17403	0.479
7.20776	0.37
7.24149	0.343
7.27523	0.406
7.30896	0.401
7.34269	0.493
7.37642	0.647
7.41016	0.692
7.44389	0.704
7.47762	0.712
7.51135	0.719
7.54508	0.68
7.57882	0.556
7.61255	0.469
7.64628	0.437
7.68001	0.425
7.71375	0.377
7.74748	0.34
7.78121	0.299
7.81494	0.289
7.84867	0.311
7.88241	0.336
7.91614	0.34
7.94987	0.336
7.9836	0.335
8.01734	0.323
8.05107	0.306
8.0848	0.292
8.11853	0.278
8.15226	0.273
8.186	0.278
8.21973	0.301
8.25346	0.331
8.28719	0.363
8.32093	0.38
8.35466	0.375
8.38839	0.379
8.42212	0.428
8.45585	0.482
8.48959	0.525
8.52332	0.556
8.55705	0.6
8.59078	0.644
8.62452	0.673
8.65825	0.692
8.69198	0.704
8.72571	0.714
8.75944	0.719
8.79318	0.722
8.82691	0.722
8.86064	0.712
8.89437	0.693
8.92811	0.675
8.96184	0.663
8.99557	0.653
9.0293	0.639
9.06303	0.62
9.09677	0.613
9.1305	0.612
9.16423	0.615
9.19796	0.627
9.2317	0.647
9.26543	0.661
9.29916	0.671
9.33289	0.676
9.36662	0.678
9.40036	0.68
9.43409	0.676
9.46782	0.671
9.50155	0.663
9.53529	0.651
9.56902	0.63
9.60275	0.61
9.63648	0.585
9.67021	0.551
9.70395	0.518
9.73768	0.496
9.77141	0.421
9.80514	0.363
9.83888	0.348
9.87261	0.352
9.90634	0.331
9.94007	0.299
9.9738	0.27
10.0075	0.25
10.0413	0.232
10.075	0.222
10.1087	0.219
10.1425	0.219
10.1762	0.219
10.2099	0.222
10.2437	0.229
10.2774	0.243
10.3111	0.256
10.3449	0.268
10.3786	0.28
10.4123	0.294
10.4461	0.304
10.4798	0.314
10.5135	0.324
10.5473	0.331
10.581	0.34
10.6147	0.345
10.6484	0.348
10.6822	0.35
10.7159	0.345
10.7496	0.329
10.7834	0.311
10.8171	0.301
10.8508	0.297
10.8846	0.304
10.9183	0.328
10.952	0.365
10.9858	0.403
11.0195	0.447
11.0532	0.484
11.087	0.535
11.1207	0.569
11.1544	0.6
11.1882	0.619
11.2219	0.641
11.2556	0.659
11.2894	0.673
11.3231	0.683
11.3568	0.697
11.3906	0.705
11.4243	0.714
11.458	0.717
11.4918	0.724
11.5255	0.727
11.5592	0.727
11.593	0.722
11.6267	0.71
11.6604	0.7
11.6941	0.681
11.7279	0.656
11.7616	0.636
11.7953	0.605
11.8291	0.571
11.8628	0.539
11.8965	0.506
11.9303	0.476
11.964	0.448
11.9977	0.437
12.0315	0.435
12.0652	0.443
12.0989	0.477
12.1327	0.515
12.1664	0.545
12.2001	0.574
12.2339	0.59
12.2676	0.608
12.3013	0.622
12.3351	0.637
12.3688	0.653
12.4025	0.661
12.4363	0.67
12.47	0.68
12.5037	0.69
12.5375	0.7
12.5712	0.707
12.6049	0.715
12.6387	0.721
12.6724	0.726
12.7061	0.729
12.7398	0.732
12.7736	0.739
12.8073	0.748
12.841	0.755
12.8748	0.76
12.9085	0.767
12.9422	0.772
12.976	0.773
13.0097	0.775
13.0434	0.775
13.0772	0.775
13.1109	0.773
13.1446	0.772
13.1784	0.772
13.2121	0.772
13.2458	0.77
13.2796	0.767
13.3133	0.765
13.347	0.761
13.3808	0.76
13.4145	0.751
13.4482	0.744
13.482	0.738
13.5157	0.734
13.5494	0.729
13.5832	0.726
13.6169	0.721
13.6506	0.719
13.6843	0.717
13.7181	0.721
13.7518	0.726
13.7855	0.731
13.8193	0.736
13.853	0.738
13.8867	0.739
13.9205	0.741
13.9542	0.743
13.9879	0.743
14.0217	0.743
14.0554	0.741
14.0891	0.736
14.1229	0.731
14.1566	0.726
14.1903	0.721
14.2241	0.715
14.2578	0.712
14.2915	0.712
14.3253	0.712
14.359	0.714
14.3927	0.715
14.4265	0.715
14.4602	0.715
14.4939	0.71
14.5277	0.707
14.5614	0.705
14.5951	0.704
14.6289	0.702
14.6626	0.702
14.6963	0.704
14.73	0.704
14.7638	0.705
14.7975	0.707
14.8312	0.709
14.865	0.71
14.8987	0.712
14.9324	0.712
14.9662	0.715
14.9999	0.714
15.0336	0.714
15.0674	0.714
15.1011	0.712
15.1348	0.712
15.1686	0.71
15.2023	0.71
15.236	0.709
15.2698	0.704
15.3035	0.7
15.3372	0.697
15.371	0.69
