Infrared Spectrum: 9H-Adenine, N^6-(3,3-dimethyl-4-hydroxy-n-butyl)-
Formula: C11 H17 N5 O
CAS: 116295-96-6
State: SOLID (1 mg / 650 mg KBr DISC)
Class: COBLENTZ III
Instrument: PERKIN-ELMER 521 (GRATING)
Instrument parameters: FILTERS AT 3150, 2500, 2000, 1150, 700, 410. GRATING CHANGES: 2000, 630
Sampling: TRANSMISSION
Resolution: 2
Origin: SOUTHERN RESEARCH INSTITUTE
1/CM	TRANSMITTANCE
251.26	0.2989
261.315	0.3735
271.371	0.4271
281.426	0.5084
291.481	0.5603
301.537	0.5914
311.592	0.6177
321.647	0.6475
331.703	0.6695
341.758	0.6937
351.814	0.7109
361.869	0.7241
371.924	0.7358
381.98	0.7471
392.035	0.7551
402.09	0.7634
412.146	0.7626
422.201	0.7614
432.256	0.759
442.312	0.7567
452.367	0.7553
462.422	0.7566
472.478	0.7591
482.533	0.7559
492.588	0.7536
502.644	0.7545
512.699	0.7486
522.755	0.7356
532.81	0.7247
542.865	0.7299
552.921	0.7429
562.976	0.7493
573.031	0.748
583.087	0.7446
593.142	0.7378
603.197	0.7237
613.253	0.7158
623.308	0.7029
633.363	0.6211
643.419	0.6466
653.474	0.6845
663.53	0.7506
673.585	0.7588
683.64	0.7613
693.696	0.7595
703.751	0.7605
713.806	0.7657
723.862	0.7713
733.917	0.7665
743.972	0.7616
754.028	0.7703
764.083	0.7635
774.138	0.7753
784.194	0.7207
794.249	0.7888
804.304	0.7867
814.36	0.7778
824.415	0.7715
834.471	0.7606
844.526	0.7358
854.581	0.739
864.637	0.7574
874.692	0.7475
884.747	0.7171
894.803	0.6951
904.858	0.7462
914.913	0.7782
924.969	0.7047
935.024	0.7143
945.079	0.6978
955.135	0.7937
965.19	0.7951
975.245	0.7922
985.301	0.7857
995.356	0.778
1005.41	0.7673
1015.47	0.7284
1025.52	0.6674
1035.58	0.6147
1045.63	0.6668
1055.69	0.659
1065.74	0.7121
1075.8	0.7773
1085.85	0.7841
1095.91	0.7749
1105.97	0.7482
1116.02	0.6591
1126.08	0.6351
1136.13	0.6943
1146.19	0.7155
1156.24	0.7317
1166.3	0.7667
1176.35	0.7772
1186.41	0.7739
1196.46	0.7705
1206.52	0.7732
1216.57	0.7682
1226.63	0.7348
1236.68	0.6617
1246.74	0.6674
1256.8	0.7154
1266.85	0.7337
1276.91	0.6997
1286.96	0.533
1297.02	0.5645
1307.07	0.6055
1317.13	0.5979
1327.18	0.5757
1337.24	0.5768
1347.29	0.6247
1357.35	0.6135
1367.4	0.6204
1377.46	0.6723
1387.51	0.6715
1397.57	0.6511
1407.63	0.6866
1417.68	0.6979
1427.74	0.6776
1437.79	0.6474
1447.85	0.6034
1457.9	0.5867
1467.96	0.5875
1478.01	0.6859
1488.07	0.6931
1498.12	0.7276
1508.18	0.7441
1518.23	0.729
1528.29	0.7066
1538.35	0.7102
1548.4	0.7155
1558.46	0.7065
1568.51	0.6777
1578.57	0.6199
1588.62	0.4677
1598.68	0.3183
1608.73	0.248
1618.79	0.1753
1628.84	0.2396
1638.9	0.4282
1648.95	0.5893
1659.01	0.7143
1669.06	0.7515
1679.12	0.777
1689.18	0.792
1699.23	0.8002
1709.29	0.8095
1719.34	0.8165
1729.4	0.8215
1739.45	0.8256
1749.51	0.8277
1759.56	0.8297
1769.62	0.8317
1779.67	0.8336
1789.73	0.8352
1799.78	0.8367
1809.84	0.8379
1819.9	0.8394
1829.95	0.8421
1840.01	0.8448
1850.06	0.8464
1860.12	0.8471
1870.17	0.8445
1880.23	0.8447
1890.28	0.847
1900.34	0.8486
1910.39	0.8499
1920.45	0.8507
1930.5	0.8516
1940.56	0.8524
1950.61	0.8532
1960.67	0.8539
1970.73	0.8546
1980.78	0.8549
1990.84	0.8552
2000.89	0.8554
2010.95	0.855
2021	0.8556
2031.06	0.8551
2041.11	0.8546
2051.17	0.8541
2061.22	0.8534
2071.28	0.8525
2081.33	0.8516
2091.39	0.8513
2101.45	0.8515
2111.5	0.8517
2121.56	0.8518
2131.61	0.8519
2141.67	0.8517
2151.72	0.8514
2161.78	0.851
2171.83	0.8503
2181.89	0.8493
2191.94	0.8481
2202	0.8468
2212.05	0.8451
2222.11	0.8431
2232.16	0.8404
2242.22	0.8377
2252.28	0.8363
2262.33	0.8355
2272.39	0.8348
2282.44	0.8334
2292.5	0.8313
2302.55	0.8292
2312.61	0.8269
2322.66	0.8225
2332.72	0.8154
2342.77	0.8119
2352.83	0.8098
2362.88	0.8076
2372.94	0.8054
2383	0.8031
2393.05	0.8007
2403.11	0.7984
2413.16	0.7963
2423.22	0.7943
2433.27	0.792
2443.33	0.7892
2453.38	0.785
2463.44	0.781
2473.49	0.7729
2483.55	0.7643
2493.6	0.7598
2503.66	0.7539
2513.71	0.7489
2523.77	0.7417
2533.83	0.7346
2543.88	0.7264
2553.94	0.7154
2563.99	0.7062
2574.05	0.7042
2584.1	0.704
2594.16	0.7043
2604.21	0.7031
2614.27	0.6987
2624.32	0.6933
2634.38	0.6857
2644.43	0.6779
2654.49	0.6703
2664.54	0.6619
2674.6	0.6532
2684.66	0.6498
2694.71	0.6454
2704.77	0.6342
2714.82	0.6277
2724.88	0.6287
2734.93	0.6318
2744.99	0.6317
2755.04	0.6221
2765.1	0.6058
2775.15	0.5874
2785.21	0.5759
2795.26	0.5683
2805.32	0.563
2815.38	0.5597
2825.43	0.5579
2835.49	0.5535
2845.54	0.5508
2855.6	0.5396
2865.65	0.5168
2875.71	0.5277
2885.76	0.5342
2895.82	0.5194
2905.87	0.517
2915.93	0.5171
2925.98	0.501
2936.04	0.4736
2946.09	0.4499
2956.15	0.4564
2966.21	0.5017
2976.26	0.551
2986.32	0.5823
2996.37	0.5943
3006.43	0.6016
3016.48	0.6044
3026.54	0.6006
3036.59	0.596
3046.65	0.5886
3056.7	0.579
3066.76	0.5686
3076.81	0.572
3086.87	0.5754
3096.93	0.5738
3106.98	0.573
3117.04	0.5794
3127.09	0.5884
3137.15	0.5967
3147.2	0.6014
3157.26	0.6039
3167.31	0.6043
3177.37	0.6035
3187.42	0.5991
3197.48	0.5902
3207.53	0.578
3217.59	0.5713
3227.64	0.5686
3237.7	0.5668
3247.76	0.5615
3257.81	0.5518
3267.87	0.5375
3277.92	0.5216
3287.98	0.5168
3298.03	0.5244
3308.09	0.5367
3318.14	0.5489
3328.2	0.5634
3338.25	0.5765
3348.31	0.5888
3358.36	0.5979
3368.42	0.6044
3378.48	0.6093
3388.53	0.6137
3398.59	0.6174
3408.64	0.6218
3418.7	0.6264
3428.75	0.6319
3438.81	0.638
3448.86	0.6456
3458.92	0.6553
3468.97	0.6673
3479.03	0.6786
3489.08	0.6898
3499.14	0.7021
3509.19	0.7132
3519.25	0.7241
3529.31	0.7366
3539.36	0.7487
3549.42	0.7602
3559.47	0.7715
3569.53	0.7813
3579.58	0.7911
3589.64	0.801
3599.69	0.8108
3609.75	0.8197
3619.8	0.8282
3629.86	0.8365
3639.91	0.8439
3649.97	0.8505
3660.02	0.8556
3670.08	0.8584
3680.14	0.8591
3690.19	0.861
3700.25	0.8644
3710.3	0.8673
3720.36	0.8684
3730.41	0.8684
3740.47	0.8682
3750.52	0.8685
3760.58	0.8688
3770.63	0.8692
3780.69	0.8696
3790.74	0.87
3800.8	0.8703
3810.86	0.8706
3820.91	0.8709
3830.97	0.8712
3841.02	0.8716
3851.08	0.8719
3861.13	0.8723
3871.19	0.8727
3881.24	0.8728
3891.3	0.873
3901.35	0.8732
3911.41	0.8729
3921.46	0.8725
3931.52	0.8722
3941.57	0.8721
3951.63	0.8719
3961.69	0.8724
3971.74	0.873
3981.8	0.8734
3991.85	0.8731
4001.91	0.8712
4011.96	0.8693
