Infrared Spectrum: N,N-DI-2-(3-METHYLPYRAZYL) ANILINE
Formula: C16 H15 N5
CAS: 116296-02-7
State: SOLID (MINERAL OIL MULL)
Melting point: 121-122 C
Class: COBLENTZ
Instrument: Not specified, most likely a prism, grating, or hybrid spectrometer.
Sampling: TRANSMISSION
Resolution: 4
Origin: WYANDOTTE CHEMICALS CORP., WYANDOTTE, MICHIGAN, USA
MICROMETERS	TRANSMITTANCE
2.027	0.514
2.06804	0.523
2.10907	0.535
2.15011	0.54
2.19114	0.535
2.23218	0.529
2.27321	0.533
2.31425	0.541
2.35528	0.552
2.39632	0.562
2.43735	0.572
2.47839	0.576
2.51942	0.581
2.56046	0.596
2.6015	0.596
2.64253	0.611
2.68357	0.608
2.7246	0.618
2.76564	0.629
2.80667	0.632
2.84771	0.637
2.88874	0.635
2.92978	0.641
2.97081	0.644
3.01185	0.647
3.05288	0.596
3.09392	0.492
3.13495	0.482
3.17599	0.529
3.21703	0.48
3.25806	0.403
3.2991	0.374
3.34013	0.092
3.38117	0.037
3.4222	0.052
3.46324	0.075
3.50427	0.117
3.54531	0.463
3.58634	0.586
3.62738	0.635
3.66841	0.639
3.70945	0.649
3.75049	0.659
3.79152	0.671
3.83256	0.682
3.87359	0.692
3.91463	0.709
3.95566	0.719
3.9967	0.731
4.03773	0.741
4.07877	0.745
4.1198	0.75
4.16084	0.753
4.20187	0.753
4.24291	0.747
4.28394	0.724
4.32498	0.731
4.36602	0.752
4.40705	0.786
4.44809	0.786
4.48912	0.789
4.53016	0.8
4.57119	0.803
4.61223	0.805
4.65326	0.81
4.6943	0.815
4.73533	0.823
4.77637	0.829
4.8174	0.83
4.85844	0.839
4.89948	0.839
4.94051	0.849
4.98155	0.851
5.02258	0.852
5.06362	0.852
5.10465	0.858
5.14569	0.863
5.18672	0.859
5.22776	0.858
5.26879	0.873
5.30983	0.883
5.35086	0.887
5.3919	0.888
5.43293	0.89
5.47397	0.897
5.51501	0.902
5.55604	0.909
5.59708	0.9
5.63811	0.911
5.67915	0.924
5.72018	0.917
5.76122	0.919
5.80225	0.935
5.84329	0.936
5.88432	0.931
5.92536	0.943
5.96639	0.931
6.00743	0.917
6.04847	0.916
6.0895	0.904
6.13054	0.661
6.17157	0.688
6.21261	0.582
6.25364	0.641
6.29468	0.593
6.33571	0.769
6.37675	0.591
6.41778	0.42
6.45882	0.552
6.49985	0.406
6.54089	0.264
6.58192	0.48
6.62296	0.591
6.664	0.234
6.70503	0.425
6.74607	0.377
6.7871	0.194
6.82814	0.174
6.86917	0.181
6.91021	0.165
6.95124	0.218
6.99228	0.314
7.03331	0.434
7.07435	0.548
7.11538	0.548
7.15642	0.589
7.19746	0.528
7.23849	0.347
7.27953	0.358
7.32056	0.499
7.3616	0.553
7.40263	0.478
7.44367	0.288
7.4847	0.319
7.52574	0.452
7.56677	0.531
7.60781	0.581
7.64884	0.603
7.68988	0.632
7.73091	0.654
7.77195	0.661
7.81299	0.692
7.85402	0.731
7.89506	0.75
7.93609	0.482
7.97713	0.439
8.01816	0.582
8.0592	0.601
8.10023	0.663
8.14127	0.676
8.1823	0.714
8.22334	0.75
8.26437	0.769
8.30541	0.77
8.34645	0.652
8.38748	0.429
8.42852	0.57
8.46955	0.641
8.51059	0.569
8.55162	0.687
8.59266	0.731
8.63369	0.658
8.67473	0.661
8.71576	0.7
8.7568	0.502
8.79783	0.622
8.83887	0.695
8.8799	0.731
8.92094	0.752
8.96198	0.762
9.00301	0.781
9.04405	0.786
9.08508	0.8
9.12612	0.801
9.16715	0.793
9.20819	0.772
9.24922	0.75
9.29026	0.782
9.33129	0.789
9.37233	0.8
9.41336	0.801
9.4544	0.803
9.49544	0.805
9.53647	0.803
9.57751	0.803
9.61854	0.776
9.65958	0.77
9.70061	0.769
9.74165	0.776
9.78268	0.803
9.82372	0.822
9.86475	0.777
9.90579	0.692
9.94682	0.765
9.98786	0.805
10.0289	0.811
10.0699	0.82
10.111	0.834
10.152	0.837
10.193	0.837
10.2341	0.83
10.2751	0.813
10.3161	0.815
10.3572	0.817
10.3982	0.796
10.4392	0.75
10.4803	0.712
10.5213	0.729
10.5624	0.776
10.6034	0.805
10.6444	0.82
10.6855	0.827
10.7265	0.832
10.7675	0.839
10.8086	0.846
10.8496	0.854
10.8906	0.861
10.9317	0.859
10.9727	0.863
11.0137	0.875
11.0548	0.878
11.0958	0.88
11.1368	0.883
11.1779	0.875
11.2189	0.839
11.26	0.846
11.301	0.863
11.342	0.883
11.3831	0.9
11.4241	0.9
11.4651	0.902
11.5062	0.904
11.5472	0.9
11.5882	0.899
11.6293	0.9
11.6703	0.883
11.7113	0.834
11.7524	0.741
11.7934	0.772
11.8345	0.81
11.8755	0.8
11.9165	0.817
11.9576	0.842
11.9986	0.822
12.0396	0.817
12.0807	0.835
12.1217	0.841
12.1627	0.871
12.2038	0.885
12.2448	0.899
12.2858	0.905
12.3269	0.907
12.3679	0.914
12.4089	0.919
12.45	0.916
12.491	0.916
12.5321	0.917
12.5731	0.919
12.6141	0.919
12.6552	0.919
12.6962	0.917
12.7372	0.914
12.7783	0.902
12.8193	0.899
12.8603	0.878
12.9014	0.858
12.9424	0.829
12.9834	0.815
13.0245	0.806
13.0655	0.793
13.1065	0.762
13.1476	0.738
13.1886	0.721
13.2297	0.704
13.2707	0.67
13.3117	0.629
13.3528	0.622
13.3938	0.649
13.4348	0.666
13.4759	0.625
13.5169	0.528
13.5579	0.483
13.599	0.5
13.64	0.552
13.681	0.577
13.7221	0.605
13.7631	0.651
13.8041	0.687
13.8452	0.702
13.8862	0.7
13.9273	0.69
13.9683	0.697
14.0093	0.705
14.0504	0.704
14.0914	0.704
14.1324	0.704
14.1735	0.704
14.2145	0.709
14.2555	0.705
14.2966	0.7
14.3376	0.687
14.3786	0.668
14.4197	0.646
14.4607	0.641
14.5017	0.641
14.5428	0.656
14.5838	0.695
14.6249	0.743
14.6659	0.769
14.7069	0.786
14.748	0.796
14.789	0.801
14.83	0.806
14.8711	0.806
14.9121	0.806
14.9531	0.808
14.9942	0.803
15.0352	0.767
15.0762	0.735
15.1173	0.733
15.1583	0.748
15.1993	0.758
15.2404	0.753
15.2814	0.757
15.3225	0.762
15.3635	0.765
15.4045	0.767
15.4456	0.76
15.4866	0.755
15.5276	0.747
15.5687	0.747
15.6097	0.738
15.6507	0.731
15.6918	0.723
15.7328	0.707
15.7738	0.699
15.8149	0.69
15.8559	0.683
15.897	0.671
15.938	0.658
15.979	0.651
