Infrared Spectrum: Aflatoxin B1
Formula: C17 H12 O6
CAS: 1162-65-8
State: SOLID (1 mg / 350 mg KBr DISC)
Class: COBLENTZ III
Instrument: PERKIN-ELMER 180 (GRATING)
Instrument parameters: GRATINGS: 2000, 1000, 500, 250 CM^-^1; FILTER CHANGE: 2970, 2000, 1485, 1000, 743, 500, 372, 250, 186 CM^-^1.
Sampling: TRANSMISSION
Resolution: 2
Origin: K. K. DEB-NCI FREDERICK CANCER RESEARCH CENTER
1/CM	TRANSMITTANCE
328	0.8554
337	0.8313
346	0.8082
355	0.8734
364	0.8998
373	0.9124
382	0.9191
391	0.9391
400	0.9395
409	0.9382
418	0.9378
427	0.9368
436	0.9268
445	0.9085
454	0.8832
463	0.7133
472	0.9303
481	0.9455
490	0.943
499	0.9376
508	0.9263
517	0.9103
526	0.8784
535	0.8913
544	0.8456
553	0.8236
562	0.7639
571	0.7386
580	0.9083
589	0.9236
598	0.9186
607	0.9052
616	0.8761
625	0.7769
634	0.7715
643	0.8903
652	0.8876
661	0.8686
670	0.8395
679	0.8114
688	0.7959
697	0.8262
706	0.7889
715	0.6939
724	0.7606
733	0.6676
742	0.4761
751	0.5695
760	0.7232
769	0.7804
778	0.5408
787	0.8841
796	0.858
805	0.7904
814	0.7058
823	0.4257
832	0.4689
841	0.8133
850	0.8586
859	0.8537
868	0.8725
877	0.8434
886	0.8041
895	0.7455
904	0.732
913	0.6357
922	0.4793
931	0.3584
940	0.59
949	0.7556
958	0.7683
967	0.681
976	0.5095
985	0.3264
994	0.4758
1003	0.7088
1012	0.7563
1021	0.7228
1030	0.7846
1039	0.6314
1048	0.4289
1057	0.6757
1066	0.5068
1075	0.3745
1084	0.595
1093	0.7832
1102	0.8242
1111	0.7765
1120	0.6031
1129	0.32
1138	0.423
1147	0.576
1156	0.7962
1165	0.8598
1174	0.8423
1183	0.7586
1192	0.6898
1201	0.4023
1210	0.6666
1219	0.7053
1228	0.34
1237	0.6151
1246	0.6424
1255	0.7983
1264	0.7139
1273	0.6567
1282	0.7529
1291	0.7404
1300	0.5827
1309	0.3852
1318	0.6939
1327	0.7352
1336	0.5934
1345	0.5204
1354	0.5177
1363	0.3054
1372	0.5865
1381	0.4949
1390	0.6774
1399	0.7686
1408	0.6981
1417	0.5087
1426	0.4509
1435	0.4118
1444	0.6625
1453	0.5431
1462	0.5256
1471	0.4978
1480	0.2786
1489	0.2498
1498	0.6008
1507	0.7644
1516	0.7672
1525	0.6493
1534	0.5135
1543	0.3805
1552	0.2071
1561	0.4801
1570	0.6783
1579	0.5022
1588	0.2863
1597	0.2394
1606	0.4906
1615	0.3577
1624	0.2571
1633	0.3316
1642	0.5171
1651	0.7026
1660	0.823
1669	0.8266
1678	0.6483
1687	0.4641
1696	0.5971
1705	0.7604
1714	0.7754
1723	0.6131
1732	0.4185
1741	0.2239
1750	0.1271
1759	0.2514
1768	0.3993
1777	0.5472
1786	0.728
1795	0.7947
1804	0.8308
1813	0.8656
1822	0.9045
1831	0.9235
1840	0.9124
1849	0.8926
1858	0.8989
1867	0.9262
1876	0.9546
1885	0.9649
1894	0.9636
1903	0.961
1912	0.9578
1921	0.9553
1930	0.9512
1939	0.9493
1948	0.9497
1957	0.9472
1966	0.9417
1975	0.9394
1984	0.9383
1993	0.9365
2002	0.9321
2011	0.9312
2020	0.9308
2029	0.9291
2038	0.9274
2047	0.9228
2056	0.9191
2065	0.9175
2074	0.9179
2083	0.9181
2092	0.9174
2101	0.9143
2110	0.9091
2119	0.9019
2128	0.8984
2137	0.8969
2146	0.8963
2155	0.8951
2164	0.8932
2173	0.8899
2182	0.8858
2191	0.8816
2200	0.8775
2209	0.8768
2218	0.8761
2227	0.8781
2236	0.8801
2245	0.8786
2254	0.8744
2263	0.869
2272	0.8668
2281	0.8675
2290	0.8675
2299	0.8671
2308	0.8654
2317	0.8628
2326	0.8603
2335	0.8581
2344	0.856
2353	0.8539
2362	0.8519
2371	0.8498
2380	0.8478
2389	0.8459
2398	0.844
2407	0.8421
2416	0.8403
2425	0.8386
2434	0.8369
2443	0.8352
2452	0.8335
2461	0.8318
2470	0.83
2479	0.8282
2488	0.8264
2497	0.8246
2506	0.8228
2515	0.821
2524	0.8192
2533	0.8173
2542	0.8155
2551	0.8145
2560	0.8135
2569	0.8122
2578	0.8111
2587	0.8102
2596	0.808
2605	0.804
2614	0.8009
2623	0.7983
2632	0.7969
2641	0.7955
2650	0.795
2659	0.7944
2668	0.7931
2677	0.7894
2686	0.7852
2695	0.7806
2704	0.7816
2713	0.7836
2722	0.7852
2731	0.7863
2740	0.786
2749	0.7856
2758	0.7835
2767	0.7806
2776	0.7773
2785	0.7737
2794	0.7694
2803	0.764
2812	0.7573
2821	0.7492
2830	0.7406
2839	0.7269
2848	0.7217
2857	0.7287
2866	0.7345
2875	0.7285
2884	0.7203
2893	0.7217
2902	0.7193
2911	0.7028
2920	0.6807
2929	0.6567
2938	0.6452
2947	0.6691
2956	0.7064
2965	0.7071
2974	0.7061
2983	0.7068
2992	0.6844
3001	0.694
3010	0.7221
3019	0.7271
3028	0.7228
3037	0.7184
3046	0.7161
3055	0.7173
3064	0.7188
3073	0.7136
3082	0.705
3091	0.6875
3100	0.6649
3109	0.6738
3118	0.703
3127	0.7145
3136	0.7194
3145	0.7219
3154	0.7227
3163	0.7209
3172	0.7187
3181	0.7163
3190	0.7141
3199	0.7118
3208	0.7101
3217	0.7086
3226	0.7072
3235	0.7056
3244	0.704
3253	0.7023
3262	0.7005
3271	0.6987
3280	0.6968
3289	0.6949
3298	0.6931
3307	0.691
3316	0.6889
3325	0.6856
3334	0.6806
3343	0.6755
3352	0.6694
3361	0.6634
3370	0.6601
3379	0.66
3388	0.6593
3397	0.6575
3406	0.6553
3415	0.653
3424	0.6508
3433	0.649
3442	0.6477
3451	0.6477
3460	0.6475
3469	0.6466
3478	0.6447
3487	0.6422
3496	0.643
3505	0.6464
3514	0.6501
3523	0.6542
3532	0.6589
3541	0.6631
3550	0.6643
3559	0.6656
3568	0.6663
3577	0.6667
3586	0.6672
3595	0.6676
3604	0.6679
3613	0.6681
3622	0.6683
3631	0.6685
3640	0.6684
3649	0.6683
3658	0.6681
3667	0.6673
3676	0.6659
3685	0.6645
3694	0.6634
3703	0.6626
3712	0.6618
3721	0.6606
3730	0.6593
3739	0.658
3748	0.6567
3757	0.6557
3766	0.6547
3775	0.6537
3784	0.6527
