Infrared Spectrum: 2-(P-NONYLPHENOXY)-3-(2-TRIMETHYL SILYLETHYL) PYRAZINE
Formula: C24 H38 N2 O Si
CAS: 116295-68-2
State: LIQUID
Class: COBLENTZ
Instrument: Not specified, most likely a prism, grating, or hybrid spectrometer.
Sampling: TRANSMISSION
Path length: 0.0015 CM
Resolution: 4
Origin: WYANDOTTE CHEMICALS CORP., WYANDOTTE, MICHIGAN, USA
MICROMETERS	TRANSMITTANCE
2.027	0.967
2.0679	0.965
2.10879	0.958
2.14969	0.957
2.19059	0.95
2.23148	0.904
2.27238	0.909
2.31328	0.916
2.35417	0.922
2.39507	0.924
2.43597	0.919
2.47686	0.928
2.51776	0.933
2.55866	0.931
2.59955	0.931
2.64045	0.928
2.68135	0.926
2.72224	0.922
2.76314	0.922
2.80404	0.933
2.84493	0.931
2.88583	0.922
2.92672	0.919
2.96762	0.916
3.00852	0.91
3.04941	0.904
3.09031	0.897
3.13121	0.886
3.1721	0.868
3.213	0.851
3.2539	0.794
3.29479	0.525
3.33569	0.691
3.37659	0.184
3.41748	0.041
3.45838	0.089
3.49928	0.152
3.54017	0.39
3.58107	0.722
3.62197	0.801
3.66286	0.852
3.70376	0.852
3.74466	0.871
3.78555	0.88
3.82645	0.888
3.86735	0.897
3.90824	0.892
3.94914	0.898
3.99004	0.905
4.03093	0.907
4.07183	0.897
4.11273	0.886
4.15362	0.888
4.19452	0.888
4.23542	0.895
4.27631	0.886
4.31721	0.89
4.35811	0.895
4.399	0.9
4.4399	0.904
4.4808	0.917
4.52169	0.916
4.56259	0.916
4.60348	0.916
4.64438	0.916
4.68528	0.905
4.72617	0.905
4.76707	0.912
4.80797	0.907
4.84886	0.909
4.88976	0.9
4.93066	0.895
4.97155	0.9
5.01245	0.895
5.05335	0.892
5.09424	0.892
5.13514	0.898
5.17604	0.905
5.21693	0.892
5.25783	0.886
5.29873	0.871
5.33962	0.839
5.38052	0.883
5.42142	0.897
5.46231	0.9
5.50321	0.895
5.54411	0.897
5.585	0.885
5.6259	0.876
5.6668	0.864
5.70769	0.859
5.74859	0.851
5.78949	0.813
5.83038	0.688
5.87128	0.796
5.91218	0.828
5.95307	0.828
5.99397	0.811
6.03487	0.794
6.07576	0.801
6.11666	0.797
6.15756	0.767
6.19845	0.621
6.23935	0.707
6.28024	0.691
6.32114	0.676
6.36204	0.743
6.40293	0.719
6.44383	0.601
6.48473	0.333
6.52562	0.45
6.56652	0.431
6.60742	0.136
6.64831	0.15
6.68921	0.445
6.73011	0.503
6.771	0.359
6.8119	0.234
6.8528	0.258
6.89369	0.333
6.93459	0.359
6.97549	0.356
7.01638	0.28
7.05728	0.095
7.09818	0.032
7.13907	0.03
7.17997	0.034
7.22087	0.089
7.26176	0.164
7.30266	0.28
7.34356	0.303
7.38445	0.369
7.42535	0.265
7.46625	0.16
7.50714	0.178
7.54804	0.287
7.58894	0.321
7.62983	0.243
7.67073	0.147
7.71163	0.126
7.75252	0.155
7.79342	0.174
7.83432	0.142
7.87521	0.114
7.91611	0.152
7.957	0.178
7.9979	0.08
8.0388	0.113
8.07969	0.251
8.12059	0.238
8.16149	0.148
8.20238	0.039
8.24328	0.041
8.28418	0.126
8.32507	0.299
8.36597	0.256
8.40687	0.198
8.44776	0.145
8.48866	0.053
8.52956	0.039
8.57045	0.145
8.61135	0.217
8.65225	0.222
8.69314	0.373
8.73404	0.522
8.77494	0.623
8.81583	0.671
8.85673	0.702
8.89763	0.645
8.93852	0.568
8.97942	0.532
9.02032	0.585
9.06121	0.631
9.10211	0.599
9.14301	0.546
9.1839	0.59
9.2248	0.662
9.2657	0.652
9.30659	0.654
9.34749	0.731
9.38839	0.773
9.42928	0.792
9.47018	0.794
9.51108	0.796
9.55197	0.792
9.59287	0.789
9.63376	0.775
9.67466	0.761
9.71556	0.732
9.75645	0.679
9.79735	0.527
9.83825	0.251
9.87914	0.431
9.92004	0.532
9.96094	0.64
10.0018	0.669
10.0427	0.678
10.0836	0.691
10.1245	0.739
10.1654	0.773
10.2063	0.782
10.2472	0.787
10.2881	0.777
10.329	0.779
10.3699	0.775
10.4108	0.779
10.4517	0.785
10.4926	0.797
10.5335	0.796
10.5744	0.796
10.6153	0.799
10.6562	0.787
10.6971	0.768
10.738	0.761
10.7789	0.738
10.8198	0.707
10.8607	0.655
10.9016	0.594
10.9425	0.546
10.9834	0.493
11.0242	0.368
11.0651	0.246
11.106	0.208
11.1469	0.301
11.1878	0.441
11.2287	0.52
11.2696	0.542
11.3105	0.532
11.3514	0.491
11.3923	0.428
11.4332	0.339
11.4741	0.243
11.515	0.152
11.5559	0.085
11.5968	0.053
11.6377	0.047
11.6786	0.044
11.7195	0.044
11.7604	0.042
11.8013	0.047
11.8422	0.042
11.8831	0.041
11.924	0.039
11.9649	0.042
12.0058	0.042
12.0467	0.046
12.0876	0.063
12.1285	0.094
12.1694	0.155
12.2102	0.236
12.2511	0.316
12.292	0.385
12.3329	0.448
12.3738	0.51
12.4147	0.554
12.4556	0.595
12.4965	0.621
12.5374	0.638
12.5783	0.659
12.6192	0.674
12.6601	0.679
12.701	0.676
12.7419	0.655
12.7828	0.631
12.8237	0.614
12.8646	0.602
12.9055	0.594
12.9464	0.597
12.9873	0.602
13.0282	0.599
13.0691	0.58
13.11	0.539
13.1509	0.506
13.1918	0.479
13.2327	0.472
13.2736	0.481
13.3145	0.503
13.3554	0.534
13.3963	0.568
13.4371	0.597
13.478	0.619
13.5189	0.638
13.5598	0.66
13.6007	0.683
13.6416	0.702
13.6825	0.703
13.7234	0.698
13.7643	0.683
13.8052	0.681
13.8461	0.698
13.887	0.724
13.9279	0.741
13.9688	0.758
14.0097	0.765
14.0506	0.761
14.0915	0.753
14.1324	0.738
14.1733	0.715
14.2142	0.695
14.2551	0.662
14.296	0.63
14.3369	0.599
14.3778	0.573
14.4187	0.547
14.4596	0.529
14.5005	0.513
14.5414	0.513
14.5823	0.537
14.6231	0.58
14.664	0.631
14.7049	0.674
14.7458	0.715
14.7867	0.741
14.8276	0.761
14.8685	0.77
14.9094	0.779
14.9503	0.789
14.9912	0.777
15.0321	0.756
15.073	0.739
15.1139	0.75
15.1548	0.753
15.1957	0.755
15.2366	0.758
15.2775	0.76
15.3184	0.77
15.3593	0.768
15.4002	0.773
15.4411	0.772
15.482	0.765
15.5229	0.765
15.5638	0.758
15.6047	0.756
15.6456	0.75
15.6865	0.75
15.7274	0.743
15.7683	0.739
15.8091	0.738
15.85	0.729
15.8909	0.722
15.9318	0.72
15.9727	0.714
