Infrared Spectrum: 4-CHLORO-2,3,5,6-TETRACARBOXYCYCLOHEXADIENE-2,5-ONE-1
Formula: C10 H5 Cl O9
CAS: 116277-81-7
State: SOLID (MINERAL OIL MULL)
Class: COBLENTZ
Instrument: Not specified, most likely a prism, grating, or hybrid spectrometer.
Sampling: TRANSMISSION
Resolution: 4
Origin: WYANDOTTE CHEMICALS CORP., WYANDOTTE, MICHIGAN, USA
MICROMETERS	TRANSMITTANCE
2.027	0.721
2.06679	0.723
2.10658	0.746
2.14637	0.751
2.18617	0.759
2.22596	0.763
2.26575	0.773
2.30554	0.779
2.34533	0.786
2.38512	0.798
2.42491	0.806
2.46471	0.807
2.5045	0.814
2.54429	0.829
2.58408	0.841
2.62387	0.832
2.66366	0.855
2.70345	0.811
2.74325	0.759
2.78304	0.705
2.82283	0.672
2.86262	0.649
2.90241	0.639
2.9422	0.622
2.982	0.605
3.02179	0.577
3.06158	0.521
3.10137	0.447
3.14116	0.389
3.18095	0.339
3.22074	0.301
3.26054	0.281
3.30033	0.268
3.34012	0.205
3.37991	0.124
3.4197	0.109
3.45949	0.137
3.49928	0.149
3.53908	0.23
3.57887	0.288
3.61866	0.316
3.65845	0.347
3.69824	0.364
3.73803	0.365
3.77782	0.362
3.81762	0.369
3.85741	0.397
3.8972	0.402
3.93699	0.399
3.97678	0.399
4.01657	0.418
4.05636	0.447
4.09616	0.486
4.13595	0.516
4.17574	0.539
4.21553	0.572
4.25532	0.579
4.29511	0.577
4.3349	0.594
4.3747	0.652
4.41449	0.687
4.45428	0.7
4.49407	0.718
4.53386	0.728
4.57365	0.751
4.61345	0.759
4.65324	0.761
4.69303	0.771
4.73282	0.781
4.77261	0.788
4.8124	0.799
4.85219	0.811
4.89199	0.816
4.93178	0.826
4.97157	0.824
5.01136	0.824
5.05115	0.821
5.09094	0.819
5.13073	0.822
5.17053	0.827
5.21032	0.829
5.25011	0.817
5.2899	0.827
5.32969	0.829
5.36948	0.809
5.40927	0.817
5.44907	0.816
5.48886	0.811
5.52865	0.811
5.56844	0.788
5.60823	0.773
5.64802	0.728
5.68781	0.63
5.72761	0.412
5.7674	0.213
5.80719	0.15
5.84698	0.134
5.88677	0.155
5.92656	0.236
5.96636	0.317
6.00615	0.412
6.04594	0.465
6.08573	0.526
6.12552	0.581
6.16531	0.624
6.2051	0.67
6.2449	0.682
6.28469	0.693
6.32448	0.667
6.36427	0.627
6.40406	0.644
6.44385	0.658
6.48364	0.72
6.52344	0.758
6.56323	0.783
6.60302	0.784
6.64281	0.773
6.6826	0.751
6.72239	0.66
6.76218	0.519
6.80198	0.256
6.84177	0.21
6.88156	0.193
6.92135	0.248
6.96114	0.346
7.00093	0.435
7.04072	0.498
7.08052	0.551
7.12031	0.589
7.1601	0.619
7.19989	0.627
7.23968	0.557
7.27947	0.5
7.31926	0.47
7.35906	0.483
7.39885	0.549
7.43864	0.597
7.47843	0.617
7.51822	0.61
7.55801	0.571
7.59781	0.536
7.6376	0.495
7.67739	0.448
7.71718	0.42
7.75697	0.38
7.79676	0.339
7.83655	0.306
7.87635	0.283
7.91614	0.264
7.95593	0.261
7.99572	0.253
8.03551	0.248
8.0753	0.256
8.11509	0.269
8.15489	0.307
8.19468	0.346
8.23447	0.405
8.27426	0.455
8.31405	0.476
8.35384	0.498
8.39363	0.519
8.43343	0.562
8.47322	0.604
8.51301	0.602
8.5528	0.609
8.59259	0.624
8.63238	0.644
8.67217	0.657
8.71197	0.665
8.75176	0.703
8.79155	0.74
8.83134	0.761
8.87113	0.773
8.91092	0.774
8.95071	0.789
8.99051	0.801
9.0303	0.814
9.07009	0.817
9.10988	0.766
9.14967	0.74
9.18946	0.735
9.22926	0.748
9.26905	0.758
9.30884	0.768
9.34863	0.784
9.38842	0.784
9.42821	0.798
9.468	0.822
9.5078	0.814
9.54759	0.821
9.58738	0.822
9.62717	0.826
9.66696	0.827
9.70675	0.829
9.74654	0.831
9.78634	0.837
9.82613	0.841
9.86592	0.837
9.90571	0.836
9.9455	0.839
9.98529	0.839
10.0251	0.836
10.0649	0.837
10.1047	0.831
10.1445	0.831
10.1843	0.821
10.224	0.817
10.2638	0.807
10.3036	0.799
10.3434	0.786
10.3832	0.773
10.423	0.766
10.4628	0.748
10.5026	0.733
10.5424	0.708
10.5822	0.7
10.622	0.69
10.6617	0.672
10.7015	0.65
10.7413	0.632
10.7811	0.62
10.8209	0.614
10.8607	0.586
10.9005	0.589
10.9403	0.581
10.9801	0.582
11.0199	0.579
11.0597	0.579
11.0995	0.582
11.1392	0.587
11.179	0.584
11.2188	0.587
11.2586	0.596
11.2984	0.597
11.3382	0.592
11.378	0.584
11.4178	0.587
11.4576	0.584
11.4974	0.586
11.5372	0.587
11.577	0.596
11.6167	0.599
11.6565	0.599
11.6963	0.61
11.7361	0.635
11.7759	0.65
11.8157	0.665
11.8555	0.67
11.8953	0.67
11.9351	0.672
11.9749	0.697
12.0147	0.715
12.0544	0.72
12.0942	0.73
12.134	0.74
12.1738	0.756
12.2136	0.758
12.2534	0.763
12.2932	0.773
12.333	0.779
12.3728	0.781
12.4126	0.788
12.4524	0.794
12.4922	0.802
12.5319	0.819
12.5717	0.819
12.6115	0.826
12.6513	0.827
12.6911	0.837
12.7309	0.837
12.7707	0.837
12.8105	0.839
12.8503	0.844
12.8901	0.849
12.9299	0.855
12.9697	0.86
13.0094	0.859
13.0492	0.864
13.089	0.867
13.1288	0.869
13.1686	0.865
13.2084	0.865
13.2482	0.865
13.288	0.865
13.3278	0.869
13.3676	0.865
13.4074	0.86
13.4472	0.869
13.4869	0.86
13.5267	0.859
13.5665	0.857
13.6063	0.859
13.6461	0.859
13.6859	0.854
13.7257	0.839
13.7655	0.827
13.8053	0.829
13.8451	0.826
13.8849	0.822
13.9246	0.817
13.9644	0.822
14.0042	0.831
14.044	0.831
14.0838	0.844
14.1236	0.846
14.1634	0.846
14.2032	0.849
14.243	0.852
14.2828	0.852
14.3226	0.857
14.3624	0.859
14.4021	0.854
14.4419	0.844
14.4817	0.839
14.5215	0.831
14.5613	0.822
14.6011	0.807
14.6409	0.796
14.6807	0.796
14.7205	0.783
14.7603	0.768
14.8001	0.759
14.8399	0.75
14.8796	0.735
14.9194	0.731
14.9592	0.725
14.999	0.716
15.0388	0.698
15.0786	0.67
15.1184	0.668
15.1582	0.682
15.198	0.701
15.2378	0.713
15.2776	0.718
15.3173	0.71
15.3571	0.701
15.3969	0.698
15.4367	0.698
15.4765	0.69
15.5163	0.685
15.5561	0.678
15.5959	0.673
15.6357	0.667
15.6755	0.662
15.7153	0.65
15.7551	0.642
15.7948	0.639
15.8346	0.629
15.8744	0.612
15.9142	0.587
15.954	0.577
15.9938	0.574
