Infrared Spectrum: ACETIC ACID, 2,4-DIMETHYLPENTYL ESTER
Formula: C9 H18 O2
CAS: 116296-23-2
Boiling point: 111 C AT 105 mmHg
Class: COBLENTZ
Instrument: Not specified, most likely a prism, grating, or hybrid spectrometer.
Sampling: TRANSMISSION
Path length: SMEAR
Resolution: 4
Origin: TENNESSEE EASTMAN COMPANY, RESEARCH LABORATORIES
MICROMETERS	TRANSMITTANCE
2.014	0.974
2.05491	0.977
2.09583	0.977
2.13674	0.981
2.17766	0.986
2.21857	0.982
2.25949	0.965
2.3004	0.948
2.34132	0.945
2.38223	0.946
2.42315	0.95
2.46406	0.952
2.50498	0.964
2.54589	0.972
2.58681	0.972
2.62772	0.969
2.66864	0.969
2.70955	0.97
2.75047	0.969
2.79138	0.969
2.8323	0.969
2.87321	0.955
2.91413	0.924
2.95504	0.95
2.99596	0.952
3.03687	0.952
3.07779	0.955
3.1187	0.952
3.15962	0.928
3.20053	0.929
3.24145	0.931
3.28236	0.888
3.32327	0.758
3.36419	0.106
3.4051	0.078
3.44602	0.154
3.48693	0.395
3.52785	0.705
3.56876	0.847
3.60968	0.897
3.65059	0.907
3.69151	0.881
3.73242	0.928
3.77334	0.938
3.81425	0.945
3.85517	0.94
3.89608	0.945
3.937	0.958
3.97791	0.97
4.01883	0.969
4.05974	0.96
4.10066	0.957
4.14157	0.965
4.18249	0.969
4.2234	0.97
4.26432	0.936
4.30523	0.936
4.34615	0.955
4.38706	0.969
4.42798	0.972
4.46889	0.974
4.50981	0.974
4.55072	0.974
4.59164	0.965
4.63255	0.945
4.67346	0.957
4.71438	0.967
4.75529	0.967
4.79621	0.967
4.83712	0.967
4.87804	0.969
4.91895	0.969
4.95987	0.969
5.00078	0.974
5.0417	0.976
5.08261	0.97
5.12353	0.964
5.16444	0.964
5.20536	0.964
5.24627	0.957
5.28719	0.953
5.3281	0.94
5.36902	0.94
5.40993	0.934
5.45085	0.922
5.49176	0.892
5.53268	0.852
5.57359	0.789
5.61451	0.655
5.65542	0.349
5.69634	0.047
5.73725	0.013
5.77817	0.136
5.81908	0.424
5.86	0.585
5.90091	0.65
5.94182	0.755
5.98274	0.794
6.02365	0.808
6.06457	0.794
6.10548	0.833
6.1464	0.845
6.18731	0.856
6.22823	0.888
6.26914	0.905
6.31006	0.907
6.35097	0.892
6.39189	0.876
6.4328	0.868
6.47372	0.839
6.51463	0.851
6.55555	0.82
6.59646	0.818
6.63738	0.799
6.67829	0.763
6.71921	0.659
6.76012	0.291
6.80104	0.2
6.84195	0.284
6.88287	0.417
6.92378	0.501
6.9647	0.556
7.00561	0.614
7.04653	0.655
7.08744	0.669
7.12836	0.549
7.16927	0.205
7.21019	0.207
7.2511	0.203
7.29201	0.121
7.33293	0.099
7.37384	0.376
7.41476	0.628
7.45567	0.712
7.49659	0.736
7.5375	0.736
7.57842	0.75
7.61933	0.715
7.66025	0.659
7.70116	0.583
7.74208	0.523
7.78299	0.414
7.82391	0.318
7.86482	0.217
7.90574	0.143
7.94665	0.077
7.98757	0.034
8.02848	0.017
8.0694	0.015
8.11031	0.017
8.15123	0.018
8.19214	0.089
8.23306	0.255
8.27397	0.412
8.31489	0.522
8.3558	0.621
8.39672	0.678
8.43763	0.703
8.47855	0.684
8.51946	0.563
8.56038	0.625
8.60129	0.705
8.6422	0.731
8.68312	0.761
8.72403	0.785
8.76495	0.791
8.80586	0.801
8.84678	0.803
8.88769	0.792
8.92861	0.791
8.96952	0.797
9.01044	0.794
9.05135	0.784
9.09227	0.763
9.13318	0.734
9.1741	0.681
9.21501	0.631
9.25593	0.582
9.29684	0.561
9.33776	0.537
9.37867	0.529
9.41959	0.477
9.4605	0.388
9.50142	0.265
9.54233	0.155
9.58325	0.09
9.62416	0.063
9.66508	0.075
9.70599	0.166
9.74691	0.285
9.78782	0.361
9.82874	0.419
9.86965	0.498
9.91056	0.58
9.95148	0.636
9.99239	0.659
10.0333	0.63
10.0742	0.549
10.1151	0.44
10.1561	0.419
10.197	0.489
10.2379	0.595
10.2788	0.686
10.3197	0.748
10.3606	0.784
10.4015	0.804
10.4425	0.818
10.4834	0.821
10.5243	0.818
10.5652	0.806
10.6061	0.804
10.647	0.811
10.6879	0.828
10.7289	0.83
10.7698	0.801
10.8107	0.768
10.8516	0.729
10.8925	0.712
10.9334	0.727
10.9744	0.741
11.0153	0.746
11.0562	0.748
11.0971	0.76
11.138	0.799
11.1789	0.82
11.2198	0.839
11.2608	0.849
11.3017	0.857
11.3426	0.863
11.3835	0.856
11.4244	0.845
11.4653	0.842
11.5062	0.845
11.5472	0.863
11.5881	0.876
11.629	0.881
11.6699	0.881
11.7108	0.885
11.7517	0.883
11.7926	0.878
11.8336	0.861
11.8745	0.854
11.9154	0.854
11.9563	0.854
11.9972	0.852
12.0381	0.842
12.0791	0.835
12.12	0.827
12.1609	0.839
12.2018	0.851
12.2427	0.857
12.2836	0.857
12.3245	0.849
12.3655	0.845
12.4064	0.852
12.4473	0.875
12.4882	0.892
12.5291	0.912
12.57	0.919
12.6109	0.924
12.6519	0.931
12.6928	0.931
12.7337	0.933
12.7746	0.933
12.8155	0.933
12.8564	0.934
12.8973	0.931
12.9383	0.931
12.9792	0.931
13.0201	0.931
13.061	0.931
13.1019	0.929
13.1428	0.928
13.1838	0.926
13.2247	0.924
13.2656	0.922
13.3065	0.921
13.3474	0.917
13.3883	0.912
13.4292	0.91
13.4702	0.902
13.5111	0.895
13.552	0.892
13.5929	0.885
13.6338	0.881
13.6747	0.878
13.7156	0.875
13.7566	0.873
13.7975	0.869
13.8384	0.859
13.8793	0.856
13.9202	0.852
13.9611	0.847
14.002	0.845
14.043	0.84
14.0839	0.833
14.1248	0.832
14.1657	0.83
14.2066	0.823
14.2475	0.82
14.2885	0.811
14.3294	0.809
14.3703	0.804
14.4112	0.799
14.4521	0.792
14.493	0.787
14.5339	0.78
14.5749	0.772
14.6158	0.768
14.6567	0.763
14.6976	0.755
14.7385	0.75
14.7794	0.746
14.8203	0.734
14.8613	0.727
14.9022	0.719
14.9431	0.705
14.984	0.696
15.0249	0.688
15.0658	0.672
15.1067	0.666
15.1477	0.652
15.1886	0.648
15.2295	0.642
15.2704	0.635
15.3113	0.628
15.3522	0.626
15.3932	0.614
15.4341	0.607
15.475	0.595
15.5159	0.585
15.5568	0.575
15.5977	0.571
15.6386	0.563
15.6796	0.561
15.7205	0.561
15.7614	0.563
15.8023	0.563
15.8432	0.568
15.8841	0.573
15.925	0.573
15.966	0.575
