Infrared Spectrum: 2-(m-TRIMETHYLSILYLPHENOXY)-3-METHYL PYRAZINE
Formula: C14 H18 N2 O Si
CAS: 116295-60-4
State: LIQUID
Class: COBLENTZ
Instrument: Not specified, most likely a prism, grating, or hybrid spectrometer.
Sampling: TRANSMISSION
Path length: CAPILLARY
Resolution: 4
Origin: WYANDOTTE CHEMICALS CORP., WYANDOTTE, MICHIGAN, USA
MICROMETERS	TRANSMITTANCE
2.02	0.974
2.06092	0.967
2.10184	0.96
2.14275	0.953
2.18367	0.953
2.22459	0.943
2.26551	0.945
2.30642	0.943
2.34734	0.946
2.38826	0.945
2.42918	0.936
2.47009	0.936
2.51101	0.939
2.55193	0.948
2.59285	0.921
2.63377	0.927
2.67468	0.915
2.7156	0.902
2.75652	0.909
2.79744	0.905
2.83835	0.895
2.87927	0.883
2.92019	0.869
2.96111	0.864
3.00203	0.861
3.04294	0.855
3.08386	0.84
3.12478	0.833
3.1657	0.809
3.20661	0.78
3.24753	0.644
3.28845	0.502
3.32937	0.608
3.37028	0.231
3.4112	0.545
3.45212	0.588
3.49304	0.754
3.53396	0.775
3.57487	0.828
3.61579	0.855
3.65671	0.873
3.69763	0.898
3.73854	0.895
3.77946	0.898
3.82038	0.912
3.8613	0.909
3.90221	0.946
3.94313	0.941
3.98405	0.912
4.02497	0.897
4.06589	0.871
4.1068	0.871
4.14772	0.881
4.18864	0.89
4.22956	0.885
4.27047	0.881
4.31139	0.909
4.35231	0.938
4.39323	0.931
4.43415	0.91
4.47506	0.909
4.51598	0.915
4.5569	0.914
4.59782	0.917
4.63873	0.91
4.67965	0.905
4.72057	0.891
4.76149	0.9
4.8024	0.897
4.84332	0.886
4.88424	0.903
4.92516	0.897
4.96608	0.897
5.00699	0.891
5.04791	0.893
5.08883	0.907
5.12975	0.898
5.17066	0.866
5.21158	0.828
5.2525	0.873
5.29342	0.873
5.33433	0.867
5.37525	0.861
5.41617	0.876
5.45709	0.91
5.49801	0.902
5.53892	0.874
5.57984	0.835
5.62076	0.814
5.66168	0.843
5.70259	0.835
5.74351	0.852
5.78443	0.833
5.82535	0.823
5.86627	0.813
5.90718	0.79
5.9481	0.675
5.98902	0.593
6.02994	0.753
6.07085	0.773
6.11177	0.754
6.15269	0.706
6.19361	0.596
6.23452	0.518
6.27544	0.416
6.31636	0.161
6.35728	0.423
6.3982	0.518
6.43911	0.305
6.48003	0.084
6.52095	0.231
6.56187	0.499
6.60278	0.588
6.6437	0.564
6.68462	0.456
6.72554	0.265
6.76646	0.176
6.80737	0.363
6.84829	0.305
6.88921	0.228
6.93013	0.128
6.97104	0.094
7.01196	0.125
7.05288	0.054
7.0938	0.042
7.13471	0.044
7.17563	0.049
7.21655	0.056
7.25747	0.085
7.29839	0.25
7.3393	0.499
7.38022	0.552
7.42114	0.548
7.46206	0.514
7.50297	0.392
7.54389	0.252
7.58481	0.255
7.62573	0.19
7.66664	0.116
7.70756	0.07
7.74848	0.066
7.7894	0.054
7.83032	0.07
7.87123	0.108
7.91215	0.066
7.95307	0.048
7.99399	0.048
8.0349	0.066
8.07582	0.283
8.11674	0.358
8.15766	0.274
8.19858	0.135
8.23949	0.049
8.28041	0.046
8.32133	0.046
8.36225	0.084
8.40316	0.14
8.44408	0.049
8.485	0.065
8.52592	0.164
8.56683	0.089
8.60775	0.121
8.64867	0.08
8.68959	0.169
8.73051	0.307
8.77142	0.488
8.81234	0.588
8.85326	0.614
8.89418	0.583
8.93509	0.457
8.97601	0.193
9.01693	0.138
9.05785	0.511
9.09876	0.67
9.13968	0.715
9.1806	0.699
9.22152	0.66
9.26244	0.583
9.30335	0.523
9.34427	0.595
9.38519	0.686
9.42611	0.723
9.46702	0.735
9.50794	0.739
9.54886	0.718
9.58978	0.67
9.6307	0.588
9.67161	0.526
9.71253	0.566
9.75345	0.651
9.79437	0.704
9.83528	0.725
9.8762	0.61
9.91712	0.538
9.95804	0.737
9.99895	0.651
10.0399	0.656
10.0808	0.744
10.1217	0.725
10.1626	0.651
10.2035	0.531
10.2445	0.421
10.2854	0.406
10.3263	0.524
10.3672	0.61
10.4081	0.667
10.449	0.699
10.49	0.739
10.5309	0.746
10.5718	0.761
10.6127	0.766
10.6536	0.773
10.6946	0.77
10.7355	0.759
10.7764	0.713
10.8173	0.607
10.8582	0.437
10.8991	0.327
10.9401	0.444
10.981	0.514
11.0219	0.499
11.0628	0.483
11.1037	0.514
11.1447	0.514
11.1856	0.442
11.2265	0.372
11.2674	0.351
11.3083	0.32
11.3492	0.284
11.3902	0.252
11.4311	0.195
11.472	0.109
11.5129	0.073
11.5538	0.089
11.5947	0.114
11.6357	0.13
11.6766	0.14
11.7175	0.132
11.7584	0.106
11.7993	0.08
11.8403	0.061
11.8812	0.054
11.9221	0.056
11.963	0.053
12.0039	0.056
12.0448	0.051
12.0858	0.053
12.1267	0.06
12.1676	0.073
12.2085	0.118
12.2494	0.168
12.2903	0.219
12.3313	0.231
12.3722	0.222
12.4131	0.193
12.454	0.202
12.4949	0.24
12.5359	0.269
12.5768	0.289
12.6177	0.319
12.6586	0.365
12.6995	0.427
12.7404	0.478
12.7814	0.514
12.8223	0.535
12.8632	0.535
12.9041	0.524
12.945	0.502
12.9859	0.476
13.0269	0.428
13.0678	0.382
13.1087	0.312
13.1496	0.228
13.1905	0.166
13.2315	0.108
13.2724	0.094
13.3133	0.078
13.3542	0.084
13.3951	0.109
13.436	0.174
13.477	0.305
13.5179	0.415
13.5588	0.5
13.5997	0.548
13.6406	0.578
13.6815	0.607
13.7225	0.62
13.7634	0.636
13.8043	0.648
13.8452	0.655
13.8861	0.662
13.9271	0.662
13.968	0.663
14.0089	0.677
14.0498	0.694
14.0907	0.703
14.1316	0.682
14.1726	0.662
14.2135	0.622
14.2544	0.581
14.2953	0.521
14.3362	0.452
14.3772	0.401
14.4181	0.349
14.459	0.319
14.4999	0.317
14.5408	0.322
14.5817	0.358
14.6227	0.379
14.6636	0.387
14.7045	0.391
14.7454	0.42
14.7863	0.495
14.8272	0.576
14.8682	0.655
14.9091	0.703
14.95	0.744
14.9909	0.777
15.0318	0.783
15.0728	0.775
15.1137	0.763
15.1546	0.768
15.1955	0.782
15.2364	0.799
15.2773	0.802
15.3183	0.801
15.3592	0.79
15.4001	0.795
15.441	0.799
15.4819	0.792
15.5228	0.792
15.5638	0.787
15.6047	0.771
15.6456	0.737
15.6865	0.694
15.7274	0.67
15.7684	0.672
15.8093	0.706
15.8502	0.732
15.8911	0.746
15.932	0.753
15.9729	0.753
