Infrared Spectrum: N-CYANOMETHYL-Beta-ISO-BUTYLAMINO PROPIONIC ACID, METHYL ESTER
Formula: C10 H18 N2 O2
CAS: 116295-98-8
Class: COBLENTZ
Instrument: PERKIN-ELMER
Sampling: TRANSMISSION
Path length: CAPILLARY
Resolution: 4
Origin: ABBOTT LABORATORIES - WASHBURN
MICROMETERS	TRANSMITTANCE
2.054	0.834
2.08681	0.835
2.11962	0.832
2.15243	0.8343
2.18524	0.837
2.21805	0.83
2.25086	0.8241
2.28367	0.817
2.31648	0.8199
2.34929	0.819
2.3821	0.822
2.41491	0.825
2.44772	0.8239
2.48053	0.8289
2.51334	0.8299
2.54615	0.825
2.57896	0.827
2.61177	0.832
2.64458	0.8323
2.67739	0.8338
2.7102	0.827
2.74301	0.819
2.77582	0.817
2.80863	0.8102
2.84144	0.8035
2.87425	0.7942
2.90706	0.802
2.93987	0.799
2.97268	0.8
3.00549	0.8
3.0383	0.8051
3.07111	0.809
3.10392	0.805
3.13673	0.804
3.16954	0.8034
3.20235	0.7959
3.23516	0.7688
3.26797	0.7007
3.30078	0.5523
3.33359	0.2723
3.3664	0.3518
3.39921	0.422
3.43202	0.484
3.46483	0.494
3.49764	0.4952
3.53045	0.5947
3.56326	0.6891
3.59607	0.7262
3.62888	0.744
3.66169	0.7659
3.6945	0.7774
3.72731	0.7892
3.76012	0.799
3.79293	0.802
3.82574	0.8022
3.85855	0.81
3.89136	0.8191
3.92417	0.82
3.95698	0.814
3.98979	0.814
4.0226	0.814
4.05541	0.8149
4.08822	0.8121
4.12103	0.812
4.15384	0.814
4.18665	0.807
4.21946	0.8
4.25227	0.8019
4.28508	0.802
4.31789	0.81
4.3507	0.8138
4.38351	0.812
4.41632	0.81
4.44913	0.7937
4.48194	0.809
4.51475	0.812
4.54756	0.81
4.58037	0.8099
4.61318	0.81
4.64599	0.81
4.6788	0.81
4.71161	0.805
4.74442	0.805
4.77723	0.805
4.81004	0.8
4.84285	0.797
4.87566	0.8
4.90847	0.805
4.94128	0.805
4.97409	0.794
5.0069	0.8021
5.03971	0.805
5.07252	0.807
5.10533	0.81
5.13814	0.8096
5.17095	0.809
5.20376	0.81
5.23657	0.8047
5.26938	0.805
5.30219	0.802
5.335	0.802
5.36781	0.8019
5.40062	0.8
5.43343	0.7992
5.46624	0.7873
5.49905	0.7778
5.53186	0.7565
5.56467	0.7271
5.59748	0.6697
5.63029	0.5524
5.6631	0.2613
5.69591	0.1136
5.72872	0.1238
5.76153	0.316
5.79434	0.5059
5.82715	0.6276
5.85996	0.6676
5.89277	0.6967
5.92558	0.7194
5.95839	0.734
5.9912	0.7405
6.02401	0.7467
6.05682	0.754
6.08963	0.7639
6.12244	0.766
6.15525	0.7735
6.18806	0.7753
6.22087	0.774
6.25368	0.7714
6.28649	0.774
6.3193	0.7747
6.35211	0.7835
6.38492	0.7693
6.41773	0.7759
6.45054	0.7621
6.48335	0.772
6.51616	0.7695
6.54897	0.767
6.58178	0.7538
6.61459	0.746
6.6474	0.744
6.68021	0.7255
6.71302	0.6888
6.74583	0.5579
6.77864	0.4249
6.81145	0.363
6.84426	0.3675
6.87707	0.401
6.90988	0.3509
6.94269	0.283
6.9755	0.3549
7.00831	0.4482
7.04112	0.5332
7.07393	0.5883
7.10674	0.5949
7.13955	0.5623
7.17236	0.5255
7.20517	0.4943
7.23798	0.4975
7.27079	0.4919
7.3036	0.389
7.33641	0.4385
7.36922	0.4946
7.40203	0.5125
7.43484	0.4884
7.46766	0.4587
7.50047	0.444
7.53328	0.437
7.56609	0.446
7.5989	0.453
7.63171	0.4772
7.66452	0.4909
7.69733	0.4927
7.73014	0.49
7.76295	0.484
7.79576	0.482
7.82857	0.4568
7.86138	0.3894
7.89419	0.3257
7.927	0.2965
7.95981	0.3126
7.99262	0.3391
8.02543	0.3842
8.05824	0.404
8.09105	0.4095
8.12386	0.4015
8.15667	0.3806
8.18948	0.3385
8.22229	0.2718
8.2551	0.2199
8.28791	0.1861
8.32072	0.189
8.35353	0.246
8.38634	0.3024
8.41915	0.3428
8.45196	0.3374
8.48477	0.3097
8.51758	0.2729
8.55039	0.2709
8.5832	0.3016
8.61601	0.3687
8.64882	0.4411
8.68163	0.5054
8.71444	0.542
8.74725	0.5351
8.78006	0.5019
8.81287	0.4793
8.84568	0.4907
8.87849	0.5101
8.9113	0.4693
8.94411	0.4182
8.97692	0.4494
9.00973	0.5073
9.04254	0.5162
9.07535	0.4373
9.10816	0.3904
9.14097	0.4011
9.17378	0.4687
9.20659	0.5368
9.2394	0.6005
9.27221	0.633
9.30502	0.6494
9.33783	0.6484
9.37064	0.6416
9.40345	0.5942
9.43626	0.5225
9.46907	0.4482
9.50188	0.3952
9.53469	0.4127
9.5675	0.4777
9.60031	0.5238
9.63312	0.5673
9.66593	0.6003
9.69874	0.6057
9.73155	0.6028
9.76436	0.5924
9.79717	0.584
9.82998	0.5858
9.86279	0.59
9.8956	0.5984
9.92841	0.601
9.96122	0.606
9.99403	0.6109
10.0268	0.6125
10.0596	0.6103
10.0925	0.605
10.1253	0.615
10.1581	0.6143
10.1909	0.608
10.2237	0.6044
10.2565	0.6034
10.2893	0.605
10.3221	0.605
10.3549	0.606
10.3877	0.6231
10.4206	0.6541
10.4534	0.6778
10.4862	0.6919
10.519	0.696
10.5518	0.6925
10.5846	0.693
10.6174	0.6981
10.6502	0.7109
10.683	0.7146
10.7158	0.7032
10.7487	0.6949
10.7815	0.7024
10.8143	0.722
10.8471	0.732
10.8799	0.7378
10.9127	0.7426
10.9455	0.7494
10.9783	0.756
11.0111	0.757
11.0439	0.7608
11.0768	0.7594
11.1096	0.7547
11.1424	0.7464
11.1752	0.7351
11.208	0.7347
11.2408	0.742
11.2736	0.7446
11.3064	0.7524
11.3392	0.7558
11.372	0.751
11.4049	0.7422
11.4377	0.7186
11.4705	0.6869
11.5033	0.6388
11.5361	0.5875
11.5689	0.5507
11.6017	0.537
11.6345	0.538
11.6673	0.5651
11.7001	0.5773
11.733	0.585
11.7658	0.5757
11.7986	0.5506
11.8314	0.5308
11.8642	0.53
11.897	0.574
11.9298	0.6
11.9626	0.6324
11.9954	0.6595
12.0282	0.6962
12.0611	0.704
12.0939	0.7139
12.1267	0.7114
12.1595	0.7167
12.1923	0.7321
12.2251	0.7416
12.2579	0.749
12.2907	0.7432
12.3235	0.7224
12.3563	0.7056
12.3892	0.6908
12.422	0.679
12.4548	0.674
12.4876	0.6876
12.5204	0.7031
12.5532	0.7086
12.586	0.702
12.6188	0.708
12.6516	0.7083
12.6844	0.7166
12.7173	0.7287
12.7501	0.7416
12.7829	0.751
12.8157	0.756
12.8485	0.767
12.8813	0.7754
12.9141	0.7798
12.9469	0.774
12.9797	0.777
13.0126	0.7796
13.0454	0.781
13.0782	0.779
13.111	0.779
13.1438	0.781
13.1766	0.777
13.2094	0.779
13.2422	0.779
13.275	0.779
13.3078	0.778
13.3407	0.7757
13.3735	0.7754
13.4063	0.7736
13.4391	0.771
13.4719	0.769
13.5047	0.769
13.5375	0.769
13.5703	0.767
13.6031	0.767
13.6359	0.759
13.6688	0.756
13.7016	0.757
13.7344	0.757
13.7672	0.752
13.8	0.756
13.8328	0.752
13.8656	0.749
13.8984	0.747
13.9312	0.744
13.964	0.736
13.9969	0.734
14.0297	0.7302
14.0625	0.7254
14.0953	0.719
14.1281	0.718
14.1609	0.7157
14.1937	0.713
14.2265	0.7161
14.2593	0.7157
14.2921	0.716
14.325	0.719
14.3578	0.718
14.3906	0.721
14.4234	0.718
14.4562	0.7188
14.489	0.7162
14.5218	0.721
14.5546	0.716
14.5874	0.714
14.6202	0.714
14.6531	0.7084
14.6859	0.708
14.7187	0.7049
14.7515	0.701
14.7843	0.7003
14.8171	0.699
14.8499	0.6978
14.8827	0.689
14.9155	0.686
14.9483	0.6832
14.9812	0.6783
