Infrared Spectrum: ANILINE, N-ETHYL-p-PENTYL
Formula: C13 H21 N
CAS: 116296-05-0
State: LIQUID
Class: COBLENTZ
Instrument: Not specified, most likely a prism, grating, or hybrid spectrometer.
Sampling: TRANSMISSION
Path length: 0.003 CM
Resolution: 4
Origin: WYANDOTTE CHEMICALS CORP., WYANDOTTE, MICHIGAN, USA
MICROMETERS	TRANSMITTANCE
2.014	0.982
2.05478	0.977
2.09555	0.977
2.13633	0.967
2.17711	0.952
2.21788	0.906
2.25866	0.918
2.29944	0.923
2.34021	0.918
2.38099	0.906
2.42177	0.909
2.46254	0.923
2.50332	0.928
2.5441	0.93
2.58487	0.94
2.62565	0.943
2.66643	0.945
2.7072	0.948
2.74798	0.938
2.78876	0.919
2.82953	0.894
2.87031	0.705
2.91109	0.553
2.95186	0.448
2.99264	0.344
3.03342	0.534
3.07419	0.741
3.11497	0.681
3.15575	0.775
3.19652	0.8
3.2373	0.659
3.27808	0.432
3.31885	0.345
3.35963	0.052
3.40041	0.063
3.44118	0.081
3.48196	0.088
3.52274	0.321
3.56351	0.609
3.60429	0.763
3.64507	0.807
3.68584	0.798
3.72662	0.824
3.7674	0.855
3.80817	0.865
3.84895	0.873
3.88973	0.858
3.9305	0.88
3.97128	0.901
4.01206	0.911
4.05283	0.925
4.09361	0.916
4.13439	0.918
4.17516	0.908
4.21594	0.918
4.25672	0.916
4.29749	0.931
4.33827	0.913
4.37905	0.919
4.41982	0.914
4.4606	0.923
4.50138	0.928
4.54215	0.936
4.58293	0.933
4.62371	0.926
4.66448	0.931
4.70526	0.926
4.74604	0.928
4.78681	0.921
4.82759	0.919
4.86837	0.923
4.90914	0.923
4.94992	0.931
4.9907	0.919
5.03147	0.918
5.07225	0.916
5.11303	0.914
5.1538	0.916
5.19458	0.913
5.23536	0.904
5.27613	0.896
5.31691	0.863
5.35769	0.78
5.39846	0.827
5.43924	0.86
5.48002	0.89
5.52079	0.899
5.56157	0.904
5.60235	0.897
5.64312	0.889
5.6839	0.863
5.72468	0.848
5.76545	0.85
5.80623	0.839
5.84701	0.836
5.88778	0.819
5.92856	0.8
5.96934	0.763
6.01011	0.679
6.05089	0.524
6.09167	0.258
6.13244	0.057
6.17322	0.068
6.214	0.269
6.25477	0.381
6.29555	0.485
6.33633	0.621
6.3771	0.621
6.41788	0.558
6.45866	0.441
6.49943	0.177
6.54021	0.059
6.58099	0.068
6.62176	0.252
6.66254	0.229
6.70332	0.149
6.74409	0.139
6.78487	0.139
6.82565	0.122
6.86642	0.137
6.9072	0.26
6.94798	0.441
6.98875	0.499
7.02953	0.562
7.07031	0.516
7.11108	0.456
7.15186	0.454
7.19264	0.332
7.23341	0.209
7.27419	0.216
7.31497	0.219
7.35574	0.308
7.39652	0.459
7.4373	0.507
7.47807	0.432
7.51885	0.257
7.55963	0.168
7.6004	0.258
7.64118	0.18
7.68196	0.177
7.72273	0.199
7.76351	0.172
7.80429	0.131
7.84506	0.127
7.88584	0.12
7.92662	0.132
7.96739	0.16
8.00817	0.287
8.04895	0.374
8.08972	0.417
8.1305	0.49
8.17128	0.546
8.21205	0.56
8.25283	0.524
8.29361	0.412
8.33438	0.308
8.37516	0.126
8.41594	0.155
8.45671	0.376
8.49749	0.458
8.53827	0.437
8.57904	0.4
8.61982	0.359
8.6606	0.243
8.70137	0.197
8.74215	0.287
8.78293	0.342
8.8237	0.369
8.86448	0.408
8.90526	0.441
8.94603	0.381
8.98681	0.366
9.02759	0.413
9.06836	0.434
9.10914	0.458
9.14992	0.512
9.19069	0.558
9.23147	0.579
9.27225	0.575
9.31302	0.577
9.3538	0.574
9.39458	0.55
9.43535	0.5
9.47613	0.514
9.51691	0.587
9.55768	0.614
9.59846	0.655
9.63924	0.686
9.68001	0.706
9.72079	0.698
9.76157	0.689
9.80234	0.667
9.84312	0.625
9.8839	0.558
9.92467	0.55
9.96545	0.574
10.0062	0.638
10.047	0.638
10.0878	0.66
10.1286	0.703
10.1693	0.734
10.2101	0.741
10.2509	0.758
10.2917	0.749
10.3324	0.749
10.3732	0.752
10.414	0.742
10.4548	0.732
10.4955	0.71
10.5363	0.696
10.5771	0.706
10.6179	0.708
10.6587	0.717
10.6994	0.679
10.7402	0.628
10.781	0.614
10.8218	0.633
10.8625	0.671
10.9033	0.696
10.9441	0.705
10.9849	0.706
11.0256	0.698
11.0664	0.712
11.1072	0.725
11.148	0.72
11.1887	0.718
11.2295	0.713
11.2703	0.717
11.3111	0.718
11.3519	0.705
11.3926	0.701
11.4334	0.683
11.4742	0.671
11.515	0.654
11.5557	0.63
11.5965	0.613
11.6373	0.589
11.6781	0.568
11.7188	0.558
11.7596	0.545
11.8004	0.524
11.8412	0.507
11.882	0.488
11.9227	0.448
11.9635	0.39
12.0043	0.308
12.0451	0.204
12.0858	0.131
12.1266	0.097
12.1674	0.081
12.2082	0.078
12.2489	0.08
12.2897	0.085
12.3305	0.1
12.3713	0.155
12.412	0.236
12.4528	0.299
12.4936	0.345
12.5344	0.408
12.5752	0.471
12.6159	0.499
12.6567	0.504
12.6975	0.49
12.7383	0.468
12.779	0.425
12.8198	0.383
12.8606	0.357
12.9014	0.344
12.9421	0.367
12.9829	0.402
13.0237	0.432
13.0645	0.458
13.1053	0.47
13.146	0.465
13.1868	0.458
13.2276	0.431
13.2684	0.39
13.3091	0.362
13.3499	0.339
13.3907	0.325
13.4315	0.32
13.4722	0.337
13.513	0.361
13.5538	0.39
13.5946	0.41
13.6353	0.431
13.6761	0.424
13.7169	0.403
13.7577	0.429
13.7985	0.466
13.8392	0.487
13.88	0.488
13.9208	0.485
13.9616	0.477
14.0023	0.48
14.0431	0.47
14.0839	0.465
14.1247	0.448
14.1654	0.432
14.2062	0.405
14.247	0.364
14.2878	0.323
14.3286	0.31
14.3693	0.327
14.4101	0.359
14.4509	0.395
14.4917	0.408
14.5324	0.42
14.5732	0.42
14.614	0.425
14.6548	0.42
14.6955	0.427
14.7363	0.424
14.7771	0.437
14.8179	0.429
14.8586	0.42
14.8994	0.424
14.9402	0.427
14.981	0.427
15.0218	0.441
15.0625	0.439
15.1033	0.41
15.1441	0.386
15.1849	0.385
15.2256	0.405
15.2664	0.419
15.3072	0.425
15.348	0.425
15.3887	0.422
15.4295	0.427
15.4703	0.424
15.5111	0.412
15.5519	0.417
15.5926	0.41
15.6334	0.417
15.6742	0.415
15.715	0.413
15.7557	0.413
15.7965	0.415
15.8373	0.415
15.8781	0.413
15.9188	0.42
15.9596	0.408
