Infrared Spectrum: TRICHLOROPHENYL CYCLOHEXYLAMIDO ETHYL THIOPHOSPHATE
Formula: C14 H19 Cl3 N O2 P S
CAS: 116295-49-9
State: SOLUTION (10% CCl4 FOR 5000-1330, 10% CS2 FOR 1330-625 CM^-^1)
Class: COBLENTZ
Instrument: Not specified, most likely a prism, grating, or hybrid spectrometer.
Sampling: TRANSMISSION
Path length: 0.0123 CM, 0.0121 CM
Resolution: 4
Origin: DOW CHEMICAL COMPANY
MICROMETERS	TRANSMITTANCE
2.007	0.889
2.04808	0.885
2.08915	0.889
2.13023	0.89
2.1713	0.899
2.21238	0.885
2.25346	0.883
2.29453	0.878
2.33561	0.882
2.37668	0.882
2.41776	0.889
2.45884	0.887
2.49991	0.892
2.54099	0.894
2.58207	0.894
2.62314	0.882
2.66422	0.894
2.70529	0.88
2.74637	0.885
2.78745	0.868
2.82852	0.866
2.8696	0.863
2.91067	0.706
2.95175	0.762
2.99283	0.813
3.0339	0.81
3.07498	0.834
3.11605	0.86
3.15713	0.863
3.19821	0.848
3.23928	0.822
3.28036	0.837
3.32144	0.75
3.36251	0.464
3.40359	0.201
3.44466	0.45
3.48574	0.5
3.52682	0.795
3.56789	0.829
3.60897	0.863
3.65004	0.863
3.69112	0.868
3.7322	0.86
3.77327	0.873
3.81435	0.875
3.85542	0.872
3.8965	0.88
3.93758	0.878
3.97865	0.878
4.01973	0.88
4.06081	0.88
4.10188	0.877
4.14296	0.88
4.18403	0.88
4.22511	0.868
4.26619	0.863
4.30726	0.86
4.34834	0.868
4.38941	0.875
4.43049	0.875
4.47157	0.882
4.51264	0.88
4.55372	0.877
4.59479	0.882
4.63587	0.885
4.67695	0.883
4.71802	0.883
4.7591	0.887
4.80017	0.889
4.84125	0.885
4.88233	0.885
4.9234	0.885
4.96448	0.88
5.00556	0.877
5.04663	0.88
5.08771	0.878
5.12878	0.883
5.16986	0.883
5.21094	0.885
5.25201	0.88
5.29309	0.88
5.33416	0.877
5.37524	0.872
5.41632	0.866
5.45739	0.872
5.49847	0.87
5.53954	0.875
5.58062	0.872
5.6217	0.875
5.66277	0.87
5.70385	0.861
5.74493	0.843
5.786	0.853
5.82708	0.863
5.86815	0.865
5.90923	0.853
5.95031	0.841
5.99138	0.851
6.03246	0.86
6.07353	0.843
6.11461	0.839
6.15569	0.808
6.19676	0.759
6.23784	0.663
6.27891	0.539
6.31999	0.493
6.36107	0.523
6.40214	0.455
6.44322	0.414
6.4843	0.486
6.52537	0.556
6.56645	0.585
6.60752	0.604
6.6486	0.588
6.68968	0.51
6.73075	0.401
6.77183	0.343
6.8129	0.134
6.85398	0.092
6.89506	0.457
6.93613	0.578
6.97721	0.564
7.01828	0.445
7.05936	0.308
7.10044	0.401
7.14151	0.479
7.18259	0.503
7.22366	0.641
7.26474	0.667
7.30582	0.634
7.34689	0.503
7.38797	0.226
7.42905	0.518
7.47012	0.737
7.5112	0.759
7.55227	0.737
7.59335	0.696
7.63443	0.626
7.6755	0.52
7.71658	0.517
7.75765	0.658
7.79873	0.686
7.83981	0.636
7.88088	0.576
7.92196	0.479
7.96303	0.336
8.00411	0.269
8.04519	0.337
8.08626	0.433
8.12734	0.653
8.16842	0.74
8.20949	0.762
8.25057	0.771
8.29164	0.762
8.33272	0.74
8.3738	0.687
8.41487	0.663
8.45595	0.689
8.49702	0.667
8.5381	0.607
8.57918	0.554
8.62025	0.568
8.66133	0.583
8.7024	0.53
8.74348	0.448
8.78456	0.47
8.82563	0.416
8.86671	0.312
8.90778	0.325
8.94886	0.428
8.98994	0.399
9.03101	0.336
9.07209	0.215
9.11317	0.138
9.15424	0.092
9.19532	0.075
9.23639	0.047
9.27747	0.102
9.31855	0.293
9.35962	0.329
9.4007	0.29
9.44177	0.208
9.48285	0.153
9.52393	0.1
9.565	0.061
9.60608	0.034
9.64715	0.027
9.68823	0.029
9.72931	0.058
9.77038	0.124
9.81146	0.233
9.85254	0.295
9.89361	0.317
9.93469	0.366
9.97576	0.469
10.0168	0.554
10.0579	0.597
10.099	0.609
10.1401	0.602
10.1811	0.564
10.2222	0.51
10.2633	0.39
10.3044	0.279
10.3454	0.175
10.3865	0.109
10.4276	0.066
10.4687	0.04
10.5098	0.03
10.5508	0.058
10.5919	0.136
10.633	0.247
10.6741	0.296
10.7151	0.303
10.7562	0.298
10.7973	0.302
10.8384	0.312
10.8794	0.336
10.9205	0.399
10.9616	0.472
11.0027	0.522
11.0437	0.564
11.0848	0.581
11.1259	0.566
11.167	0.479
11.208	0.356
11.2491	0.267
11.2902	0.252
11.3313	0.203
11.3724	0.223
11.4134	0.252
11.4545	0.336
11.4956	0.421
11.5367	0.447
11.5777	0.407
11.6188	0.346
11.6599	0.295
11.701	0.252
11.742	0.199
11.7831	0.163
11.8242	0.122
11.8653	0.092
11.9063	0.092
11.9474	0.098
11.9885	0.11
12.0296	0.138
12.0706	0.17
12.1117	0.191
12.1528	0.197
12.1939	0.186
12.2349	0.153
12.276	0.134
12.3171	0.136
12.3582	0.162
12.3993	0.204
12.4403	0.247
12.4814	0.288
12.5225	0.354
12.5636	0.392
12.6046	0.365
12.6457	0.307
12.6868	0.278
12.7279	0.261
12.7689	0.274
12.81	0.303
12.8511	0.346
12.8922	0.404
12.9332	0.465
12.9743	0.505
13.0154	0.559
13.0565	0.597
13.0975	0.627
13.1386	0.645
13.1797	0.665
13.2208	0.677
13.2619	0.684
13.3029	0.686
13.344	0.687
13.3851	0.689
13.4262	0.682
13.4672	0.674
13.5083	0.662
13.5494	0.643
13.5905	0.612
13.6315	0.583
13.6726	0.537
13.7137	0.45
13.7548	0.366
13.7958	0.313
13.8369	0.288
13.878	0.284
13.9191	0.298
13.9601	0.322
14.0012	0.368
14.0423	0.431
14.0834	0.489
14.1244	0.529
14.1655	0.556
14.2066	0.571
14.2477	0.575
14.2888	0.573
14.3298	0.566
14.3709	0.539
14.412	0.489
14.4531	0.436
14.4941	0.383
14.5352	0.349
14.5763	0.334
14.6174	0.305
14.6584	0.269
14.6995	0.245
14.7406	0.29
14.7817	0.37
14.8227	0.433
14.8638	0.462
14.9049	0.464
14.946	0.462
14.987	0.453
15.0281	0.436
15.0692	0.421
15.1103	0.401
15.1514	0.378
15.1924	0.353
15.2335	0.329
15.2746	0.312
15.3157	0.298
15.3567	0.29
15.3978	0.286
15.4389	0.288
15.48	0.29
15.521	0.296
15.5621	0.303
15.6032	0.305
15.6443	0.307
15.6853	0.308
15.7264	0.312
15.7675	0.315
15.8086	0.313
