Infrared Spectrum: 5,16-PREGNADIEN-3Beta-OL-20-ONE
Formula: C21 H30 O2
CAS: 1162-53-4
State: SOLUTION (0.2M IN CHCl3)
Class: COBLENTZ
Instrument: PERKIN-ELMER
Sampling: TRANSMISSION
Path length: 0.010 CM
Resolution: 4
Origin: ABBOTT LABORATORIES - WASHBURN
MICROMETERS	TRANSMITTANCE
2.045	0.893
2.07983	0.895
2.11466	0.895
2.14949	0.895
2.18432	0.895
2.21916	0.8979
2.25399	0.898
2.28882	0.898
2.32365	0.8972
2.35848	0.9015
2.39331	0.9048
2.42814	0.904
2.46297	0.9026
2.4978	0.9033
2.53263	0.905
2.56747	0.912
2.6023	0.9152
2.63713	0.916
2.67196	0.9151
2.70679	0.914
2.74162	0.8999
2.77645	0.819
2.81128	0.841
2.84611	0.819
2.88095	0.7862
2.91578	0.7795
2.95061	0.8053
2.98544	0.83
3.02027	0.8545
3.0551	0.8766
3.08993	0.8865
3.12476	0.898
3.15959	0.902
3.19443	0.8996
3.22926	0.8927
3.26409	0.8643
3.29892	0.7155
3.33375	0.5145
3.36858	0.357
3.40341	0.3255
3.43824	0.3932
3.47307	0.459
3.5079	0.592
3.54274	0.8013
3.57757	0.8635
3.6124	0.8878
3.64723	0.8927
3.68206	0.8953
3.71689	0.8996
3.75172	0.904
3.78655	0.902
3.82138	0.905
3.85622	0.9102
3.89105	0.9116
3.92588	0.912
3.96071	0.915
3.99554	0.915
4.03037	0.911
4.0652	0.905
4.10003	0.909
4.13486	0.916
4.16969	0.9308
4.20453	0.937
4.23936	0.9337
4.27419	0.9376
4.30902	0.94
4.34385	0.9365
4.37868	0.937
4.41351	0.933
4.44834	0.93
4.48317	0.933
4.51801	0.935
4.55284	0.933
4.58767	0.933
4.6225	0.935
4.65733	0.933
4.69216	0.935
4.72699	0.932
4.76182	0.935
4.79665	0.935
4.83149	0.9321
4.86632	0.928
4.90115	0.9314
4.93598	0.928
4.97081	0.932
5.00564	0.9316
5.04047	0.93
5.0753	0.93
5.11013	0.9285
5.14496	0.9251
5.1798	0.9277
5.21463	0.926
5.24946	0.93
5.28429	0.93
5.31912	0.93
5.35395	0.93
5.38878	0.9283
5.42361	0.925
5.45844	0.925
5.49328	0.923
5.52811	0.921
5.56294	0.921
5.59777	0.921
5.6326	0.921
5.66743	0.9182
5.70226	0.9155
5.73709	0.9125
5.77192	0.9053
5.80675	0.8908
5.84159	0.8518
5.87642	0.8398
5.91125	0.8052
5.94608	0.5711
5.98091	0.1349
6.01574	0.2027
6.05057	0.5277
6.0854	0.754
6.12023	0.817
6.15507	0.8312
6.1899	0.85
6.22473	0.8381
6.25956	0.6443
6.29439	0.5969
6.32922	0.8155
6.36405	0.8647
6.39888	0.8735
6.43371	0.8967
6.46855	0.902
6.50338	0.9086
6.53821	0.914
6.57304	0.912
6.60787	0.9112
6.6427	0.9053
6.67753	0.891
6.71236	0.8814
6.74719	0.8654
6.78202	0.7745
6.81686	0.6258
6.85169	0.5984
6.88652	0.6731
6.92135	0.6798
6.95618	0.5593
6.99101	0.6015
7.02584	0.7179
7.06067	0.7629
7.0955	0.7778
7.13034	0.778
7.16517	0.748
7.2	0.6181
7.23483	0.5129
7.26966	0.316
7.30449	0.3557
7.33932	0.466
7.37415	0.641
7.40898	0.7018
7.44381	0.7372
7.47865	0.7293
7.51348	0.742
7.54831	0.6214
7.58314	0.6405
7.61797	0.7044
7.6528	0.7422
7.68763	0.7517
7.72246	0.7606
7.75729	0.7766
7.79213	0.7774
7.82696	0.7073
7.86179	0.7408
7.89662	0.7768
7.93145	0.782
7.96628	0.7361
8.00111	0.7334
8.03594	0.6845
8.07077	0.494
8.10561	0.4017
8.14044	0.4324
8.17527	0.4707
8.2101	0.4998
8.24493	0.5076
8.27976	0.5253
8.31459	0.6345
8.34942	0.7883
8.38425	0.8399
8.41908	0.844
8.45392	0.846
8.48875	0.844
8.52358	0.8501
8.55841	0.848
8.59324	0.846
8.62807	0.844
8.6629	0.8275
8.69773	0.8365
8.73256	0.846
8.7674	0.8275
8.80223	0.7785
8.83706	0.7911
8.87189	0.7969
8.90672	0.8274
8.94155	0.8406
8.97638	0.841
9.01121	0.8362
9.04604	0.8146
9.08087	0.7905
9.11571	0.7684
9.15054	0.7767
9.18537	0.7955
9.2202	0.8193
9.25503	0.8223
9.28986	0.7999
9.32469	0.7569
9.35952	0.752
9.39435	0.719
9.42919	0.6569
9.46402	0.5615
9.49885	0.4759
9.53368	0.4374
9.56851	0.393
9.60334	0.3325
9.63817	0.3776
9.673	0.4969
9.70783	0.6694
9.74267	0.7136
9.7775	0.6686
9.81233	0.6261
9.84716	0.7112
9.88199	0.7347
9.91682	0.7313
9.95165	0.7461
9.98648	0.7741
10.0213	0.8109
10.0561	0.8083
10.091	0.7874
10.1258	0.7887
10.1606	0.7779
10.1955	0.721
10.2303	0.6345
10.2651	0.6011
10.3	0.6642
10.3348	0.7597
10.3696	0.8027
10.4045	0.8154
10.4393	0.7651
10.4741	0.6892
10.5089	0.7116
10.5438	0.6943
10.5786	0.6903
10.6134	0.7743
10.6483	0.817
10.6831	0.845
10.7179	0.8863
10.7528	0.9049
10.7876	0.9058
10.8224	0.8641
10.8573	0.8101
10.8921	0.8234
10.9269	0.8439
10.9618	0.7874
10.9966	0.7482
11.0314	0.8222
11.0662	0.8616
11.1011	0.8808
11.1359	0.895
11.1707	0.8997
11.2056	0.902
11.2404	0.8922
11.2752	0.8467
11.3101	0.8338
11.3449	0.8569
11.3797	0.8883
11.4146	0.9172
11.4494	0.921
11.4842	0.921
11.519	0.918
11.5539	0.916
11.5887	0.916
11.6235	0.916
11.6584	0.916
11.6932	0.918
11.728	0.918
11.7629	0.8997
11.7977	0.8342
11.8325	0.7561
11.8674	0.7054
11.9022	0.7347
11.937	0.7886
11.9719	0.7923
12.0067	0.7803
12.0415	0.8217
12.0763	0.8596
12.1112	0.876
12.146	0.8742
12.1808	0.8578
12.2157	0.843
12.2505	0.861
12.2853	0.8772
12.3202	0.895
12.355	0.8788
12.3898	0.8381
12.4247	0.8337
12.4595	0.8546
12.4943	0.8632
12.5292	0.8705
12.564	0.8909
12.5988	0.9034
12.6336	0.911
12.6685	0.9156
12.7033	0.914
12.7381	0.9178
12.773	0.923
12.8078	0.93
12.8426	0.932
12.8775	0.93
12.9123	0.932
12.9471	0.932
12.982	0.933
13.0168	0.933
13.0516	0.9328
13.0864	0.9389
13.1213	0.935
13.1561	0.935
13.1909	0.937
13.2258	0.937
13.2606	0.9387
13.2954	0.94
13.3303	0.944
13.3651	0.947
13.3999	0.947
13.4348	0.947
13.4696	0.944
13.5044	0.9401
13.5393	0.945
13.5741	0.947
13.6089	0.947
13.6437	0.9467
13.6786	0.9351
13.7134	0.945
13.7482	0.9468
13.7831	0.949
13.8179	0.9467
13.8527	0.9487
13.8876	0.951
13.9224	0.959
13.9572	0.9442
13.9921	0.9537
14.0269	0.9557
14.0617	0.9582
14.0965	0.9646
14.1314	0.9632
14.1662	0.963
14.201	0.963
14.2359	0.963
14.2707	0.9594
14.3055	0.9564
14.3404	0.9492
14.3752	0.9422
14.41	0.9391
14.4449	0.9321
14.4797	0.9185
14.5145	0.914
14.5494	0.9178
14.5842	0.9189
14.619	0.926
14.6538	0.9326
14.6887	0.9398
14.7235	0.949
14.7583	0.9538
14.7932	0.956
14.828	0.9589
14.8628	0.958
14.8977	0.959
14.9325	0.9524
14.9673	0.947
15.0022	0.9391
15.037	0.9251
15.0718	0.8803
15.1066	0.8235
15.1415	0.7648
15.1763	0.756
15.2111	0.7502
15.246	0.7322
15.2808	0.7103
15.3156	0.698
