Infrared Spectrum: SULFONE, p-NONYLPHENYL-2,3,3-TRIBROMOALLYL-
Formula: C18 H25 Br3 O2 S
CAS: 116295-71-7
State: SOLUTION (10% CCl4 FOR 3800-1330, 10% CS2 FOR 1330-450 CM^-^1)
Class: COBLENTZ III
Instrument: DOW KBr FOREPRISM-GRATING
Instrument parameters: BLAZED AT 3.5, 12.0, 20.0 MICRON AND CHANGED AT 5.0, 7.5, 14.9 MICRON
Sampling: TRANSMISSION
Path length: 0.011 CM, 0.010 CM
Resolution: 2
Origin: DOW CHEMICAL COMPANY
1/CM	TRANSMITTANCE
3800	0.8849
3791	0.8853
3782	0.8859
3773	0.8861
3764	0.8864
3755	0.8865
3746	0.8863
3737	0.8862
3728	0.8858
3719	0.8849
3710	0.884
3701	0.882
3692	0.8798
3683	0.8768
3674	0.8733
3665	0.8696
3656	0.8644
3647	0.8592
3638	0.8536
3629	0.8461
3620	0.8386
3611	0.8311
3602	0.8237
3593	0.8161
3584	0.8084
3575	0.8006
3566	0.7932
3557	0.7858
3548	0.7786
3539	0.7718
3530	0.7653
3521	0.7615
3512	0.759
3503	0.7561
3494	0.7518
3485	0.7476
3476	0.7439
3467	0.74
3458	0.7376
3449	0.7357
3440	0.7337
3431	0.7317
3422	0.7298
3413	0.7286
3404	0.7289
3395	0.7291
3386	0.7305
3377	0.7325
3368	0.7351
3359	0.739
3350	0.7428
3341	0.7465
3332	0.7506
3323	0.7545
3314	0.7585
3305	0.7619
3296	0.7653
3287	0.7686
3278	0.7718
3269	0.7751
3260	0.7783
3251	0.781
3242	0.7837
3233	0.7864
3224	0.7892
3215	0.7919
3206	0.7949
3197	0.7976
3188	0.8008
3179	0.8046
3170	0.8083
3161	0.8119
3152	0.8154
3143	0.8187
3134	0.8215
3125	0.8238
3116	0.8253
3107	0.8261
3098	0.826
3089	0.8246
3080	0.8212
3071	0.8161
3062	0.8086
3053	0.8125
3044	0.8178
3035	0.8207
3026	0.8213
3017	0.8197
3008	0.8058
2999	0.7618
2990	0.7203
2981	0.5885
2972	0.3868
2963	0.2259
2954	0.2643
2945	0.3918
2936	0.38
2927	0.3292
2918	0.3582
2909	0.4386
2900	0.5189
2891	0.5964
2882	0.6094
2873	0.5333
2864	0.5248
2855	0.6298
2846	0.7481
2837	0.7968
2828	0.8221
2819	0.8375
2810	0.8508
2801	0.8574
2792	0.8621
2783	0.8638
2774	0.8654
2765	0.8666
2756	0.8673
2747	0.8678
2738	0.8684
2729	0.8682
2720	0.8678
2711	0.8677
2702	0.8677
2693	0.8678
2684	0.8678
2675	0.868
2666	0.8682
2657	0.8683
2648	0.8685
2639	0.8688
2630	0.8692
2621	0.8696
2612	0.87
2603	0.8703
2594	0.8706
2585	0.8715
2576	0.8725
2567	0.8737
2558	0.8755
2549	0.8771
2540	0.879
2531	0.8805
2522	0.8818
2513	0.8825
2504	0.883
2495	0.883
2486	0.8831
2477	0.8831
2468	0.8832
2459	0.8834
2450	0.8837
2441	0.8839
2432	0.8841
2423	0.8843
2414	0.8845
2405	0.8846
2396	0.8841
2387	0.8836
2378	0.8832
2369	0.8825
2360	0.8821
2351	0.8815
2342	0.8805
2333	0.8795
2324	0.8784
2315	0.8771
2306	0.8737
2297	0.8711
2288	0.8704
2279	0.8714
2270	0.8728
2261	0.8756
2252	0.8775
2243	0.8796
2234	0.8818
2225	0.8837
2216	0.885
2207	0.8862
2198	0.8871
2189	0.8875
2180	0.8878
2171	0.8883
2162	0.8891
2153	0.8898
2144	0.8906
2135	0.8914
2126	0.8921
2117	0.8923
2108	0.8925
2099	0.8927
2090	0.893
2081	0.8928
2072	0.8928
2063	0.8928
2054	0.8931
2045	0.8933
2036	0.8934
2027	0.8932
2018	0.8928
2009	0.8921
2000	0.8908
1991	0.8771
1982	0.8745
1973	0.8721
1964	0.8763
1955	0.8828
1946	0.879
1937	0.8777
1928	0.86
1919	0.8568
1910	0.8618
1901	0.865
1892	0.8659
1883	0.8666
1874	0.8668
1865	0.8671
1856	0.8675
1847	0.8689
1838	0.8701
1829	0.8706
1820	0.8701
1811	0.8653
1802	0.8597
1793	0.8593
1784	0.8582
1775	0.8562
1766	0.8492
1757	0.8362
1748	0.8325
1739	0.8252
1730	0.8143
1721	0.7499
1712	0.7095
1703	0.7948
1694	0.8196
1685	0.8221
1676	0.8194
1667	0.8164
1658	0.8128
1649	0.8089
1640	0.8048
1631	0.8005
1622	0.7984
1613	0.7721
1604	0.6914
1595	0.4164
1586	0.5638
1577	0.5896
1568	0.532
1559	0.4771
1550	0.4495
1541	0.4981
1532	0.5739
1523	0.6301
1514	0.6707
1505	0.6984
1496	0.7198
1487	0.7272
1478	0.7161
1469	0.6106
1460	0.5935
1451	0.6832
1442	0.7568
1433	0.7785
1424	0.7905
1415	0.7843
1406	0.6811
1397	0.5323
1388	0.5958
1379	0.6411
1370	0.6592
1361	0.6889
1352	0.7231
1343	0.2614
1334	0.0938
1325	0.6508
1316	0.7647
1307	0.8015
1298	0.8242
1289	0.8456
1280	0.9093
1271	0.9183
1262	0.9109
1253	0.8964
1244	0.7082
1235	0.6554
1226	0.7776
1217	0.7908
1208	0.7845
1199	0.6965
1190	0.745
1181	0.6044
1172	0.4943
1163	0.5103
1154	0.0666
1145	0.2112
1136	0.6798
1127	0.701
1118	0.6027
1109	0.68
1100	0.5789
1091	0.585
1082	0.6332
1073	0.6721
1064	0.6684
1055	0.7853
1046	0.8145
1037	0.826
1028	0.8305
1019	0.7372
1010	0.8069
1001	0.8384
992	0.8533
983	0.8581
974	0.8561
965	0.8501
956	0.849
947	0.8486
938	0.8471
929	0.8421
920	0.8227
911	0.6832
902	0.5592
893	0.7801
884	0.7851
875	0.7508
866	0.7193
857	0.6937
848	0.6918
839	0.575
830	0.3566
821	0.4624
812	0.7411
803	0.7806
794	0.7889
785	0.7528
776	0.6422
767	0.5648
758	0.6822
749	0.7406
740	0.7518
731	0.7436
722	0.6407
713	0.7204
704	0.7715
695	0.7856
686	0.7894
677	0.7726
668	0.7345
659	0.7315
650	0.6547
641	0.6849
632	0.7174
623	0.7649
614	0.753
605	0.5309
596	0.4249
587	0.6957
578	0.7351
569	0.74
560	0.7539
551	0.7676
542	0.7694
533	0.6568
524	0.579
515	0.6775
506	0.7008
497	0.6853
488	0.6857
479	0.7211
470	0.7396
461	0.7472
452	0.7465
