Infrared Spectrum: UREA, 1-(2-FLUOROETHYL)-1-NITROSO-3-(1,2,3,4-TETRAHYDRO-2,4-DIOXO-5-PYRIMIDINYL)-
Formula: C7 H8 F N5 O4
CAS: 116277-64-6
State: SOLID (1 mg / 650 mg KBr DISC)
Class: COBLENTZ III
Instrument: PERKIN-ELMER 521 (GRATING)
Instrument parameters: FILTERS AT 3150, 2500, 2000, 1150, 700, 410. GRATING CHANGES: 2000, 630
Sampling: TRANSMISSION
Resolution: 2
Origin: SOUTHERN RESEARCH INSTITUTE
1/CM	TRANSMITTANCE
247	0.1663
257	0.192
267	0.2628
277	0.3315
287	0.4001
297	0.462
307	0.493
317	0.5224
327	0.5617
337	0.5956
347	0.6202
357	0.6
367	0.6424
377	0.6764
387	0.6733
397	0.6915
407	0.7012
417	0.7072
427	0.7082
437	0.6573
447	0.607
457	0.7159
467	0.7689
477	0.75
487	0.7705
497	0.771
507	0.7532
517	0.7256
527	0.7181
537	0.7201
547	0.5768
557	0.6472
567	0.6543
577	0.6078
587	0.6517
597	0.7313
607	0.7083
617	0.6949
627	0.6488
637	0.6505
647	0.632
657	0.6487
667	0.7121
677	0.7572
687	0.7645
697	0.7649
707	0.7594
717	0.7475
727	0.7261
737	0.688
747	0.5689
757	0.5596
767	0.6521
777	0.6852
787	0.682
797	0.6768
807	0.6645
817	0.6366
827	0.669
837	0.6694
847	0.5994
857	0.6163
867	0.6592
877	0.6533
887	0.6466
897	0.6746
907	0.7251
917	0.7263
927	0.7341
937	0.7524
947	0.6613
957	0.5363
967	0.5529
977	0.5773
987	0.5112
997	0.4616
1007	0.4937
1017	0.6329
1027	0.6963
1037	0.7423
1047	0.7209
1057	0.7151
1067	0.7664
1077	0.7788
1087	0.7248
1097	0.5259
1107	0.5945
1117	0.715
1127	0.7743
1137	0.764
1147	0.7321
1157	0.706
1167	0.7289
1177	0.775
1187	0.776
1197	0.7654
1207	0.6983
1217	0.6366
1227	0.5292
1237	0.5454
1247	0.6831
1257	0.7417
1267	0.7585
1277	0.7139
1287	0.6858
1297	0.7558
1307	0.7855
1317	0.7759
1327	0.7507
1337	0.7425
1347	0.6978
1357	0.655
1367	0.5896
1377	0.6319
1387	0.6433
1397	0.6393
1407	0.5943
1417	0.5547
1427	0.4688
1437	0.5081
1447	0.4906
1457	0.3294
1467	0.2685
1477	0.3068
1487	0.4515
1497	0.4063
1507	0.3586
1517	0.4241
1527	0.5083
1537	0.4105
1547	0.2679
1557	0.3292
1567	0.5706
1577	0.7023
1587	0.7152
1597	0.7039
1607	0.6782
1617	0.6171
1627	0.5407
1637	0.4643
1647	0.3788
1657	0.2301
1667	0.116
1677	0.1627
1687	0.2702
1697	0.3257
1707	0.3348
1717	0.2453
1727	0.1701
1737	0.1815
1747	0.3614
1757	0.4781
1767	0.5836
1777	0.6337
1787	0.671
1797	0.7016
1807	0.7305
1817	0.7562
1827	0.7815
1837	0.7998
1847	0.8071
1857	0.8214
1867	0.8322
1877	0.8409
1887	0.8465
1897	0.853
1907	0.8582
1917	0.8619
1927	0.8646
1937	0.8672
1947	0.8698
1957	0.8704
1967	0.871
1977	0.8718
1987	0.8709
1997	0.8603
2007	0.8724
2017	0.8722
2027	0.8723
2037	0.8747
2047	0.8767
2057	0.8787
2067	0.8802
2077	0.8805
2087	0.8802
2097	0.88
2107	0.8799
2117	0.8801
2127	0.8804
2137	0.8807
2147	0.8809
2157	0.8814
2167	0.8812
2177	0.8802
2187	0.8799
2197	0.8798
2207	0.8798
2217	0.8798
2227	0.8798
2237	0.8798
2247	0.8797
2257	0.8798
2267	0.8799
2277	0.88
2287	0.8801
2297	0.8798
2307	0.8796
2317	0.8785
2327	0.8768
2337	0.8749
2347	0.873
2357	0.8713
2367	0.8696
2377	0.8682
2387	0.8667
2397	0.8652
2407	0.8636
2417	0.8623
2427	0.8609
2437	0.8582
2447	0.8562
2457	0.8546
2467	0.8642
2477	0.8624
2487	0.8608
2497	0.8603
2507	0.8599
2517	0.8583
2527	0.8563
2537	0.8541
2547	0.8515
2557	0.8479
2567	0.845
2577	0.8419
2587	0.8383
2597	0.835
2607	0.8316
2617	0.8271
2627	0.8216
2637	0.8141
2647	0.809
2657	0.8062
2667	0.8035
2677	0.7948
2687	0.7897
2697	0.7885
2707	0.7869
2717	0.7771
2727	0.7757
2737	0.7706
2747	0.7596
2757	0.7472
2767	0.7305
2777	0.711
2787	0.6907
2797	0.6691
2807	0.6467
2817	0.6227
2827	0.609
2837	0.6215
2847	0.6415
2857	0.6511
2867	0.6612
2877	0.6745
2887	0.669
2897	0.6594
2907	0.65
2917	0.6424
2927	0.6362
2937	0.6284
2947	0.6112
2957	0.5886
2967	0.5667
2977	0.5515
2987	0.5405
2997	0.5317
3007	0.5252
3017	0.5252
3027	0.5352
3037	0.5521
3047	0.5729
3057	0.5893
3067	0.5971
3077	0.5894
3087	0.5763
3097	0.5506
3107	0.5269
3117	0.5271
3127	0.5445
3137	0.5659
3147	0.563
3157	0.5635
3167	0.5656
3177	0.5674
3187	0.5656
3197	0.5575
3207	0.5493
3217	0.541
3227	0.5344
3237	0.5343
3247	0.5391
3257	0.5463
3267	0.5545
3277	0.5635
3287	0.5732
3297	0.5831
3307	0.5843
3317	0.5777
3327	0.5609
3337	0.5186
3347	0.4626
3357	0.4675
3367	0.5221
3377	0.5561
3387	0.5656
3397	0.5798
3407	0.5917
3417	0.6002
3427	0.6049
3437	0.6086
3447	0.6149
3457	0.6269
3467	0.6373
3477	0.6454
3487	0.6534
3497	0.6633
3507	0.6746
3517	0.6855
3527	0.696
3537	0.707
3547	0.7189
3557	0.7318
3567	0.7456
3577	0.7589
3587	0.771
3597	0.7821
3607	0.7932
3617	0.804
3627	0.8136
3637	0.8224
3647	0.8314
3657	0.837
3667	0.839
3677	0.8386
3687	0.8381
3697	0.849
3707	0.8545
3717	0.8559
3727	0.8568
3737	0.8569
3747	0.8568
3757	0.8567
3767	0.8569
3777	0.8571
3787	0.8573
3797	0.8574
3807	0.8572
3817	0.857
3827	0.8568
3837	0.8563
3847	0.8555
3857	0.8548
3867	0.854
3877	0.8528
3887	0.8515
3897	0.8502
3907	0.8489
3917	0.8478
3927	0.8468
3937	0.8459
3947	0.8449
3957	0.8441
3967	0.8433
3977	0.8425
3987	0.8408
3997	0.8389
