Infrared Spectrum: 2-(p-NONYLPHENOXY)-6-BENZYL PYRAZINE
Formula: C26 H32 N2 O
CAS: 116295-69-3
State: LIQUID
Class: COBLENTZ
Instrument: Not specified, most likely a prism, grating, or hybrid spectrometer.
Sampling: TRANSMISSION
Path length: 0.0015 CM
Resolution: 4
Origin: WYANDOTTE CHEMICALS CORP., WYANDOTTE, MICHIGAN, USA
MICROMETERS	TRANSMITTANCE
2.02	0.93
2.0608	0.918
2.10159	0.926
2.14239	0.926
2.18319	0.907
2.22399	0.892
2.26478	0.899
2.30558	0.906
2.34638	0.906
2.38717	0.894
2.42797	0.911
2.46877	0.912
2.50956	0.912
2.55036	0.916
2.59116	0.921
2.63196	0.923
2.67275	0.926
2.71355	0.916
2.75435	0.921
2.79514	0.916
2.83594	0.892
2.87674	0.887
2.91754	0.875
2.95833	0.863
2.99913	0.843
3.03993	0.827
3.08072	0.815
3.12152	0.807
3.16232	0.796
3.20312	0.779
3.24391	0.627
3.28471	0.527
3.32551	0.431
3.3663	0.051
3.4071	0.105
3.4479	0.245
3.48869	0.247
3.52949	0.631
3.57029	0.8
3.61109	0.844
3.65188	0.841
3.69268	0.846
3.73348	0.873
3.77427	0.877
3.81507	0.88
3.85587	0.885
3.89667	0.895
3.93746	0.895
3.97826	0.899
4.01906	0.906
4.05985	0.906
4.10065	0.901
4.14145	0.895
4.18225	0.901
4.22304	0.892
4.26384	0.87
4.30464	0.872
4.34543	0.887
4.38623	0.918
4.42703	0.924
4.46782	0.923
4.50862	0.928
4.54942	0.93
4.59022	0.928
4.63101	0.935
4.67181	0.933
4.71261	0.93
4.7534	0.933
4.7942	0.933
4.835	0.924
4.8758	0.919
4.91659	0.919
4.95739	0.916
4.99819	0.918
5.03898	0.924
5.07978	0.926
5.12058	0.914
5.16137	0.901
5.20217	0.907
5.24297	0.914
5.28377	0.895
5.32456	0.865
5.36536	0.897
5.40616	0.914
5.44695	0.921
5.48775	0.916
5.52855	0.901
5.56935	0.887
5.61014	0.899
5.65094	0.883
5.69174	0.88
5.73253	0.872
5.77333	0.878
5.81413	0.877
5.85493	0.866
5.89572	0.837
5.93652	0.795
5.97732	0.725
6.01811	0.721
6.05891	0.754
6.09971	0.767
6.1405	0.708
6.1813	0.518
6.2221	0.629
6.2629	0.598
6.30369	0.66
6.34449	0.718
6.38529	0.689
6.42608	0.52
6.46688	0.412
6.50768	0.563
6.54848	0.44
6.58927	0.11
6.63007	0.155
6.67087	0.331
6.71166	0.476
6.75246	0.296
6.79326	0.136
6.83405	0.085
6.87485	0.165
6.91565	0.221
6.95645	0.269
6.99724	0.368
7.03804	0.37
7.07884	0.257
7.11963	0.332
7.16043	0.261
7.20123	0.081
7.24203	0.029
7.28282	0.029
7.32362	0.095
7.36442	0.257
7.40521	0.368
7.44601	0.368
7.48681	0.395
7.52761	0.39
7.5684	0.426
7.6092	0.373
7.65	0.334
7.69079	0.315
7.73159	0.283
7.77239	0.281
7.81318	0.317
7.85398	0.36
7.89478	0.375
7.93558	0.433
7.97637	0.455
8.01717	0.464
8.05797	0.455
8.09876	0.353
8.13956	0.254
8.18036	0.109
8.22116	0.035
8.26195	0.098
8.30275	0.279
8.34355	0.395
8.38434	0.38
8.42514	0.22
8.46594	0.064
8.50674	0.059
8.54753	0.17
8.58833	0.252
8.62913	0.284
8.66992	0.346
8.71072	0.447
8.75152	0.561
8.79231	0.627
8.83311	0.646
8.87391	0.593
8.91471	0.518
8.9555	0.568
8.9963	0.653
9.0371	0.711
9.07789	0.711
9.11869	0.711
9.15949	0.728
9.20029	0.735
9.24108	0.682
9.28188	0.621
9.32268	0.708
9.36347	0.767
9.40427	0.79
9.44507	0.802
9.48586	0.803
9.52666	0.796
9.56746	0.769
9.60826	0.732
9.64905	0.65
9.68985	0.522
9.73065	0.551
9.77144	0.511
9.81224	0.324
9.85304	0.303
9.89384	0.486
9.93463	0.607
9.97543	0.656
10.0162	0.767
10.057	0.8
10.0978	0.8
10.1386	0.788
10.1794	0.776
10.2202	0.8
10.261	0.822
10.3018	0.827
10.3426	0.829
10.3834	0.831
10.4242	0.848
10.465	0.853
10.5058	0.86
10.5466	0.868
10.5874	0.87
10.6282	0.849
10.669	0.834
10.7098	0.825
10.7506	0.808
10.7914	0.796
10.8322	0.802
10.873	0.808
10.9138	0.815
10.9546	0.819
10.9954	0.817
11.0362	0.808
11.077	0.802
11.1177	0.795
11.1585	0.779
11.1993	0.759
11.2401	0.737
11.2809	0.718
11.3217	0.709
11.3625	0.733
11.4033	0.755
11.4441	0.779
11.4849	0.791
11.5257	0.784
11.5665	0.773
11.6073	0.744
11.6481	0.689
11.6889	0.626
11.7297	0.564
11.7705	0.517
11.8113	0.467
11.8521	0.436
11.8929	0.414
11.9337	0.418
11.9745	0.431
12.0153	0.453
12.0561	0.47
12.0969	0.513
12.1377	0.569
12.1785	0.597
12.2193	0.614
12.2601	0.617
12.3009	0.631
12.3417	0.653
12.3825	0.682
12.4233	0.701
12.4641	0.723
12.5048	0.737
12.5456	0.747
12.5864	0.755
12.6272	0.784
12.668	0.802
12.7088	0.802
12.7496	0.788
12.7904	0.779
12.8312	0.781
12.872	0.766
12.9128	0.75
12.9536	0.745
12.9944	0.755
13.0352	0.759
13.076	0.755
13.1168	0.723
13.1576	0.692
13.1984	0.653
13.2392	0.629
13.28	0.6
13.3208	0.578
13.3616	0.568
13.4024	0.575
13.4432	0.592
13.484	0.602
13.5248	0.619
13.5656	0.595
13.6064	0.532
13.6472	0.409
13.688	0.313
13.7288	0.313
13.7696	0.39
13.8104	0.465
13.8512	0.494
13.8919	0.479
13.9327	0.469
13.9735	0.489
14.0143	0.575
14.0551	0.658
14.0959	0.708
14.1367	0.718
14.1775	0.682
14.2183	0.605
14.2591	0.491
14.2999	0.353
14.3407	0.279
14.3815	0.261
14.4223	0.341
14.4631	0.482
14.5039	0.624
14.5447	0.716
14.5855	0.769
14.6263	0.803
14.6671	0.817
14.7079	0.825
14.7487	0.834
14.7895	0.839
14.8303	0.846
14.8711	0.853
14.9119	0.858
14.9527	0.854
14.9935	0.831
15.0343	0.817
15.0751	0.834
15.1159	0.856
15.1567	0.861
15.1975	0.854
15.2383	0.851
15.279	0.843
15.3198	0.831
15.3606	0.829
15.4014	0.829
15.4422	0.825
15.483	0.827
15.5238	0.82
15.5646	0.817
15.6054	0.815
15.6462	0.807
15.687	0.803
15.7278	0.796
15.7686	0.786
15.8094	0.771
15.8502	0.761
15.891	0.747
15.9318	0.755
15.9726	0.742
