Infrared Spectrum: 2-DIMETHYLAMINO-8(AR)-METHOXY-TETRAHYDRO-1-ACENAPHTHONE
Formula: C16 H21 N O2
CAS: 116296-20-9
State: SOLUTION (7% CHCl3)
Class: COBLENTZ
Instrument: Not specified, most likely a prism, grating, or hybrid spectrometer.
Sampling: TRANSMISSION
Path length: 0.01 CM
Resolution: 4
MICROMETERS	TRANSMITTANCE
2.023	0.938
2.05715	0.938
2.0913	0.938
2.12545	0.938
2.1596	0.936
2.19375	0.933
2.2279	0.931
2.26205	0.931
2.2962	0.93
2.33035	0.92
2.3645	0.913
2.39865	0.91
2.4328	0.91
2.46695	0.911
2.5011	0.913
2.53525	0.916
2.56939	0.913
2.60354	0.916
2.63769	0.92
2.67184	0.92
2.70599	0.916
2.74014	0.92
2.77429	0.918
2.80844	0.921
2.84259	0.918
2.87674	0.895
2.91089	0.88
2.94504	0.882
2.97919	0.888
3.01334	0.878
3.04749	0.875
3.08164	0.883
3.11579	0.888
3.14994	0.88
3.18409	0.873
3.21824	0.87
3.25239	0.868
3.28654	0.852
3.32069	0.832
3.35484	0.777
3.38899	0.556
3.42314	0.397
3.45729	0.274
3.49144	0.392
3.52559	0.49
3.55974	0.451
3.59388	0.495
3.62803	0.544
3.66218	0.563
3.69633	0.649
3.73048	0.799
3.76463	0.823
3.79878	0.848
3.83293	0.863
3.86708	0.872
3.90123	0.877
3.93538	0.877
3.96953	0.877
4.00368	0.872
4.03783	0.865
4.07198	0.858
4.10613	0.855
4.14028	0.857
4.17443	0.862
4.20858	0.863
4.24273	0.88
4.27688	0.893
4.31103	0.9
4.34518	0.9
4.37933	0.897
4.41348	0.893
4.44763	0.892
4.48178	0.893
4.51593	0.893
4.55008	0.893
4.58423	0.892
4.61837	0.89
4.65252	0.888
4.68667	0.89
4.72082	0.892
4.75497	0.892
4.78912	0.888
4.82327	0.888
4.85742	0.887
4.89157	0.887
4.92572	0.888
4.95987	0.888
4.99402	0.888
5.02817	0.887
5.06232	0.883
5.09647	0.877
5.13062	0.877
5.16477	0.88
5.19892	0.882
5.23307	0.885
5.26722	0.885
5.30137	0.885
5.33552	0.877
5.36967	0.868
5.40382	0.87
5.43797	0.873
5.47212	0.877
5.50627	0.877
5.54042	0.877
5.57457	0.878
5.60872	0.877
5.64287	0.875
5.67701	0.872
5.71116	0.868
5.74531	0.85
5.77946	0.842
5.81361	0.797
5.84776	0.662
5.88191	0.456
5.91606	0.131
5.95021	0.053
5.98436	0.099
6.01851	0.426
6.05266	0.687
6.08681	0.742
6.12096	0.777
6.15511	0.789
6.18926	0.782
6.22341	0.647
6.25756	0.466
6.29171	0.561
6.32586	0.333
6.36001	0.161
6.39416	0.511
6.42831	0.742
6.46246	0.81
6.49661	0.827
6.53076	0.837
6.56491	0.845
6.59906	0.838
6.63321	0.827
6.66736	0.782
6.7015	0.667
6.73565	0.312
6.7698	0.121
6.80395	0.475
6.8381	0.662
6.87225	0.548
6.9064	0.347
6.94055	0.317
6.9747	0.498
7.00885	0.533
7.043	0.594
7.07715	0.725
7.1113	0.727
7.14545	0.729
7.1796	0.774
7.21375	0.81
7.2479	0.815
7.28205	0.81
7.3162	0.707
7.35035	0.661
7.3845	0.747
7.41865	0.772
7.4528	0.762
7.48695	0.699
7.5211	0.553
7.55525	0.516
7.5894	0.594
7.62355	0.687
7.6577	0.662
7.69185	0.548
7.72599	0.546
7.76014	0.551
7.79429	0.546
7.82844	0.411
7.86259	0.303
7.89674	0.199
7.93089	0.106
7.96504	0.285
7.99919	0.42
8.03334	0.435
8.06749	0.425
8.10164	0.435
8.13579	0.425
8.16994	0.423
8.20409	0.436
8.23824	0.441
8.27239	0.45
8.30654	0.456
8.34069	0.461
8.37484	0.473
8.40899	0.544
8.44314	0.646
8.47729	0.664
8.51144	0.509
8.54559	0.548
8.57974	0.674
8.61389	0.679
8.64804	0.661
8.68219	0.622
8.71634	0.674
8.75049	0.7
8.78463	0.691
8.81878	0.745
8.85293	0.77
8.88708	0.774
8.92123	0.765
8.95538	0.742
8.98953	0.73
9.02368	0.694
9.05783	0.594
9.09198	0.514
9.12613	0.594
9.16028	0.677
9.19443	0.662
9.22858	0.719
9.26273	0.762
9.29688	0.782
9.33103	0.757
9.36518	0.697
9.39933	0.674
9.43348	0.666
9.46763	0.7
9.50178	0.715
9.53593	0.697
9.57008	0.626
9.60423	0.463
9.63838	0.27
9.67253	0.225
9.70668	0.325
9.74083	0.448
9.77498	0.526
9.80912	0.563
9.84327	0.488
9.87742	0.448
9.91157	0.486
9.94572	0.584
9.97987	0.659
10.014	0.722
10.0482	0.762
10.0823	0.772
10.1165	0.765
10.1506	0.681
10.1848	0.641
10.2189	0.616
10.2531	0.644
10.2872	0.705
10.3214	0.77
10.3555	0.789
10.3897	0.807
10.4238	0.767
10.458	0.722
10.4921	0.707
10.5263	0.72
10.5604	0.749
10.5946	0.777
10.6287	0.79
10.6629	0.8
10.697	0.815
10.7312	0.823
10.7653	0.837
10.7995	0.84
10.8336	0.837
10.8678	0.822
10.9019	0.799
10.9361	0.802
10.9702	0.808
11.0044	0.817
11.0385	0.822
11.0727	0.823
11.1068	0.825
11.141	0.827
11.1751	0.83
11.2093	0.84
11.2434	0.842
11.2776	0.837
11.3117	0.822
11.3459	0.817
11.38	0.815
11.4142	0.82
11.4483	0.822
11.4825	0.81
11.5166	0.815
11.5508	0.81
11.5849	0.782
11.6191	0.744
11.6532	0.637
11.6874	0.612
11.7215	0.647
11.7557	0.739
11.7898	0.767
11.824	0.79
11.8581	0.803
11.8923	0.805
11.9264	0.805
11.9606	0.805
11.9947	0.802
12.0289	0.795
12.063	0.754
12.0972	0.745
12.1313	0.697
12.1655	0.637
12.1996	0.602
12.2338	0.636
12.2679	0.679
12.3021	0.697
12.3362	0.699
12.3704	0.667
12.4045	0.626
12.4386	0.561
12.4728	0.539
12.5069	0.563
12.5411	0.627
12.5752	0.691
12.6094	0.71
12.6435	0.722
12.6777	0.73
12.7118	0.737
12.746	0.742
12.7801	0.747
12.8143	0.754
12.8484	0.76
12.8826	0.77
12.9167	0.777
12.9509	0.792
12.985	0.799
13.0192	0.808
13.0533	0.812
13.0875	0.817
13.1216	0.823
13.1558	0.828
13.1899	0.83
13.2241	0.835
13.2582	0.838
13.2924	0.842
13.3265	0.847
13.3607	0.852
13.3948	0.853
13.429	0.855
13.4631	0.857
13.4973	0.857
13.5314	0.857
13.5656	0.855
13.5997	0.855
13.6339	0.858
13.668	0.86
13.7022	0.863
13.7363	0.867
13.7705	0.87
13.8046	0.873
13.8388	0.88
13.8729	0.883
13.9071	0.883
13.9412	0.883
13.9754	0.885
14.0095	0.883
14.0437	0.882
14.0778	0.875
14.112	0.842
14.1461	0.832
14.1803	0.828
14.2144	0.825
14.2486	0.823
14.2827	0.825
14.3169	0.83
14.351	0.842
14.3852	0.84
14.4193	0.838
14.4535	0.838
14.4876	0.847
14.5218	0.853
14.5559	0.855
14.5901	0.857
14.6242	0.858
14.6584	0.862
14.6925	0.863
14.7267	0.867
14.7608	0.865
14.795	0.865
14.8291	0.867
14.8633	0.87
14.8974	0.877
14.9316	0.892
14.9657	0.898
14.9999	0.906
15.034	0.906
15.0682	0.895
15.1023	0.83
15.1365	0.712
15.1706	0.619
15.2048	0.599
15.2389	0.636
15.2731	0.704
15.3072	0.735
15.3414	0.767
15.3755	0.784
15.4097	0.797
15.4438	0.807
15.478	0.812
