Infrared Spectrum: 2-HEPTADECANONE-1-OL, ACETATE
Formula: C19 H36 O3
CAS: 116296-24-3
State: SOLID (KBr PELLET)
Melting point: 68.5-70 C
Class: COBLENTZ
Instrument: PERKIN-ELMER
Sampling: TRANSMISSION
Resolution: 4
Origin: HORMEL INSTITUTE
MICROMETERS	TRANSMITTANCE
2.02	0.929
2.0538	0.927
2.0876	0.929
2.1214	0.927
2.15521	0.927
2.18901	0.925
2.22281	0.929
2.25661	0.923
2.29041	0.915
2.32421	0.893
2.35802	0.903
2.39182	0.9
2.42562	0.895
2.45942	0.905
2.49322	0.912
2.52702	0.918
2.56083	0.92
2.59463	0.922
2.62843	0.923
2.66223	0.923
2.69603	0.923
2.72983	0.918
2.76364	0.91
2.79744	0.881
2.83124	0.864
2.86504	0.819
2.89884	0.798
2.93264	0.79
2.96645	0.819
3.00025	0.851
3.03405	0.875
3.06785	0.88
3.10165	0.893
3.13545	0.896
3.16926	0.893
3.20306	0.891
3.23686	0.878
3.27066	0.858
3.30446	0.831
3.33826	0.763
3.37207	0.471
3.40587	0.148
3.43967	0.072
3.47347	0.317
3.50727	0.17
3.54107	0.65
3.57488	0.802
3.60868	0.854
3.64248	0.875
3.67628	0.881
3.71008	0.9
3.74388	0.907
3.77769	0.9
3.81149	0.9
3.84529	0.908
3.87909	0.917
3.91289	0.92
3.94669	0.923
3.9805	0.927
4.0143	0.927
4.0481	0.927
4.0819	0.93
4.1157	0.93
4.1495	0.927
4.18331	0.929
4.21711	0.925
4.25091	0.92
4.28471	0.918
4.31851	0.917
4.35231	0.923
4.38612	0.925
4.41992	0.927
4.45372	0.93
4.48752	0.93
4.52132	0.927
4.55512	0.929
4.58893	0.929
4.62273	0.923
4.65653	0.927
4.69033	0.925
4.72413	0.922
4.75793	0.922
4.79174	0.918
4.82554	0.917
4.85934	0.917
4.89314	0.92
4.92694	0.92
4.96074	0.922
4.99455	0.923
5.02835	0.927
5.06215	0.925
5.09595	0.925
5.12975	0.925
5.16355	0.923
5.19735	0.922
5.23116	0.922
5.26496	0.92
5.29876	0.92
5.33256	0.918
5.36636	0.917
5.40016	0.913
5.43397	0.91
5.46777	0.905
5.50157	0.891
5.53537	0.88
5.56917	0.854
5.60297	0.834
5.63678	0.771
5.67058	0.314
5.70438	0.092
5.73818	0.233
5.77198	0.192
5.80578	0.048
5.83959	0.459
5.87339	0.653
5.90719	0.756
5.94099	0.817
5.97479	0.849
6.00859	0.859
6.0424	0.847
6.0762	0.849
6.11	0.853
6.1438	0.859
6.1776	0.868
6.2114	0.888
6.24521	0.895
6.27901	0.898
6.31281	0.898
6.34661	0.895
6.38041	0.898
6.41421	0.9
6.44802	0.9
6.48182	0.9
6.51562	0.896
6.54942	0.893
6.58322	0.888
6.61702	0.881
6.65083	0.871
6.68463	0.858
6.71843	0.824
6.75223	0.728
6.78603	0.385
6.81983	0.366
6.85364	0.594
6.88744	0.652
6.92124	0.685
6.95504	0.63
6.98884	0.594
7.02264	0.554
7.05645	0.381
7.09025	0.314
7.12405	0.51
7.15785	0.589
7.19165	0.415
7.22545	0.337
7.25926	0.388
7.29306	0.511
7.32686	0.635
7.36066	0.741
7.39446	0.79
7.42826	0.804
7.46207	0.822
7.49587	0.841
7.52967	0.831
7.56347	0.832
7.59727	0.809
7.63107	0.741
7.66488	0.721
7.69868	0.689
7.73248	0.672
7.76628	0.658
7.80008	0.587
7.83388	0.569
7.86769	0.474
7.90149	0.548
7.93529	0.518
7.96909	0.429
8.00289	0.385
8.03669	0.182
8.0705	0.057
8.1043	0.033
8.1381	0.094
8.1719	0.231
8.2057	0.43
8.2395	0.498
8.2733	0.65
8.30711	0.726
8.34091	0.758
8.37471	0.741
8.40851	0.755
8.44231	0.788
8.47611	0.798
8.50992	0.798
8.54372	0.8
8.57752	0.8
8.61132	0.8
8.64512	0.8
8.67892	0.804
8.71273	0.809
8.74653	0.807
8.78033	0.8
8.81413	0.753
8.84793	0.712
8.88173	0.76
8.91554	0.766
8.94934	0.76
8.98314	0.748
9.01694	0.753
9.05074	0.741
9.08454	0.689
9.11835	0.547
9.15215	0.604
9.18595	0.701
9.21975	0.724
9.25355	0.684
9.28735	0.581
9.32116	0.368
9.35496	0.381
9.38876	0.515
9.42256	0.557
9.45636	0.581
9.49016	0.496
9.52397	0.472
9.55777	0.508
9.59157	0.528
9.62537	0.469
9.65917	0.408
9.69297	0.584
9.72678	0.682
9.76058	0.689
9.79438	0.665
9.82818	0.692
9.86198	0.719
9.89578	0.699
9.92959	0.722
9.96339	0.756
9.99719	0.765
10.031	0.765
10.0648	0.721
10.0986	0.697
10.1324	0.729
10.1662	0.77
10.2	0.782
10.2338	0.785
10.2676	0.739
10.3014	0.682
10.3352	0.729
10.369	0.788
10.4028	0.822
10.4366	0.836
10.4704	0.832
10.5042	0.832
10.538	0.836
10.5718	0.841
10.6056	0.851
10.6394	0.854
10.6732	0.858
10.707	0.858
10.7408	0.856
10.7746	0.853
10.8084	0.846
10.8422	0.841
10.876	0.826
10.9098	0.82
10.9436	0.826
10.9774	0.844
11.0112	0.851
11.045	0.856
11.0788	0.859
11.1126	0.859
11.1464	0.861
11.1802	0.854
11.214	0.849
11.2479	0.839
11.2817	0.837
11.3155	0.831
11.3493	0.809
11.3831	0.797
11.4169	0.793
11.4507	0.797
11.4845	0.807
11.5183	0.817
11.5521	0.829
11.5859	0.834
11.6197	0.834
11.6535	0.829
11.6873	0.809
11.7211	0.76
11.7549	0.652
11.7887	0.63
11.8225	0.701
11.8563	0.78
11.8901	0.81
11.9239	0.831
11.9577	0.841
11.9915	0.836
12.0253	0.819
12.0591	0.78
12.0929	0.761
12.1267	0.793
12.1605	0.831
12.1943	0.851
12.2281	0.868
12.2619	0.875
12.2957	0.88
12.3295	0.883
12.3633	0.888
12.3971	0.888
12.4309	0.888
12.4647	0.885
12.4985	0.878
12.5323	0.866
12.5661	0.861
12.5999	0.869
12.6337	0.878
12.6675	0.88
12.7013	0.881
12.7351	0.881
12.7689	0.88
12.8027	0.878
12.8365	0.875
12.8703	0.869
12.9041	0.873
12.9379	0.868
12.9717	0.863
13.0055	0.863
13.0393	0.863
13.0731	0.866
13.1069	0.869
13.1407	0.868
13.1745	0.866
13.2083	0.868
13.2421	0.869
13.2759	0.868
13.3098	0.861
13.3436	0.859
13.3774	0.858
13.4112	0.856
13.445	0.859
13.4788	0.856
13.5126	0.851
13.5464	0.846
13.5802	0.841
13.614	0.831
13.6478	0.822
13.6816	0.802
13.7154	0.766
13.7492	0.734
13.783	0.68
13.8168	0.608
13.8506	0.527
13.8844	0.474
13.9182	0.449
13.952	0.469
13.9858	0.572
14.0196	0.673
14.0534	0.728
14.0872	0.748
14.121	0.751
14.1548	0.751
14.1886	0.761
14.2224	0.768
14.2562	0.775
14.29	0.797
14.3238	0.809
14.3576	0.824
14.3914	0.837
14.4252	0.847
14.459	0.849
14.4928	0.858
14.5266	0.859
14.5604	0.861
14.5942	0.864
14.628	0.868
14.6618	0.869
14.6956	0.871
14.7294	0.876
14.7632	0.873
14.797	0.873
14.8308	0.875
14.8646	0.875
14.8984	0.875
14.9322	0.869
14.966	0.861
14.9998	0.863
15.0336	0.875
15.0674	0.868
15.1012	0.861
15.135	0.868
