Infrared Spectrum: THIOPYRAN-3-CARBOXYLIC ACID, 5-BENZAMIDO-4-OXO-, ETHYL ESTER
Formula: C15 H17 N O4 S
CAS: 116277-58-8
State: LIQUID (NEAT)
Class: COBLENTZ III
Instrument: PERKIN-ELMER 21 (GRATING)
Instrument parameters: FILTER CHANGE ABOUT 1085 CM^-^1
Sampling: TRANSMISSION
Path length: CAPILLARY
Resolution: 4
Origin: SOUTHERN RESEARCH INSTITUTE
1/CM	TRANSMITTANCE
598.782	0.726
607.222	0.724
615.662	0.7299
624.102	0.733
632.542	0.7313
640.982	0.7244
649.423	0.7184
657.863	0.711
666.303	0.6978
674.743	0.689
683.183	0.6188
691.623	0.5235
700.063	0.4823
708.503	0.4037
716.943	0.3948
725.383	0.5925
733.823	0.701
742.264	0.742
750.704	0.7373
759.144	0.7462
767.584	0.7449
776.024	0.7325
784.464	0.7326
792.904	0.7207
801.344	0.7302
809.784	0.7475
818.224	0.7642
826.664	0.767
835.104	0.7481
843.545	0.7232
851.985	0.715
860.425	0.7142
868.865	0.7626
877.305	0.8063
885.745	0.814
894.185	0.816
902.625	0.818
911.065	0.8131
919.505	0.797
927.945	0.7909
936.386	0.7921
944.826	0.8
953.266	0.8001
961.706	0.7884
970.146	0.786
978.586	0.781
987.026	0.7708
995.466	0.7391
1003.91	0.6751
1012.35	0.6157
1020.79	0.5245
1029.23	0.456
1037.67	0.5208
1046.11	0.5881
1054.55	0.588
1062.99	0.5561
1071.43	0.5459
1079.87	0.5735
1088.31	0.5775
1096.75	0.4986
1105.19	0.473
1113.63	0.47
1122.07	0.5118
1130.51	0.5196
1138.95	0.4954
1147.39	0.4485
1155.83	0.3705
1164.27	0.3167
1172.71	0.2999
1181.15	0.2584
1189.59	0.2027
1198.03	0.1828
1206.47	0.2238
1214.91	0.2487
1223.35	0.2011
1231.79	0.1981
1240.23	0.2337
1248.67	0.1918
1257.11	0.178
1265.55	0.214
1273.99	0.2317
1282.43	0.2364
1290.87	0.274
1299.31	0.2662
1307.75	0.2394
1316.19	0.2922
1324.63	0.3603
1333.07	0.3766
1341.51	0.4176
1349.95	0.4365
1358.39	0.4592
1366.83	0.458
1375.27	0.338
1383.71	0.3834
1392.15	0.436
1400.59	0.435
1409.03	0.436
1417.47	0.4498
1425.91	0.4823
1434.35	0.484
1442.79	0.4656
1451.23	0.3787
1459.67	0.4055
1468.11	0.3654
1476.55	0.3032
1484.99	0.2933
1493.43	0.3587
1501.87	0.4416
1510.31	0.3885
1518.75	0.387
1527.19	0.387
1535.63	0.3955
1544.07	0.5481
1552.51	0.6121
1560.95	0.6703
1569.39	0.6652
1577.83	0.5845
1586.27	0.5684
1594.71	0.6247
1603.15	0.4932
1611.59	0.4675
1620.03	0.4293
1628.47	0.3937
1636.91	0.3269
1645.35	0.2203
1653.79	0.207
1662.23	0.2128
1670.67	0.2409
1679.11	0.2589
1687.55	0.266
1695.99	0.232
1704.43	0.1653
1712.87	0.1029
1721.31	0.0786
1729.75	0.1048
1738.19	0.1295
1746.63	0.2039
1755.07	0.3737
1763.51	0.5564
1771.95	0.6928
1780.39	0.7542
1788.83	0.8137
1797.27	0.834
1805.71	0.8405
1814.15	0.8465
1822.59	0.86
1831.03	0.866
1839.48	0.872
1847.92	0.881
1856.36	0.88
1864.8	0.877
1873.24	0.88
1881.68	0.88
1890.12	0.8784
1898.56	0.8753
1907	0.876
1915.44	0.874
1923.88	0.879
1932.32	0.882
1940.76	0.882
1949.2	0.884
1957.64	0.882
1966.08	0.88
1974.52	0.881
1982.96	0.882
1991.4	0.881
1999.84	0.8831
2008.28	0.8857
2016.72	0.8879
2025.16	0.8889
2033.6	0.89
2042.04	0.894
2050.48	0.892
2058.92	0.8903
2067.36	0.8903
2075.8	0.892
2084.24	0.893
2092.68	0.89
2101.12	0.892
2109.56	0.889
2118	0.887
2126.44	0.884
2134.88	0.888
2143.32	0.893
2151.76	0.8941
2160.2	0.8891
2168.64	0.887
2177.08	0.8917
2185.52	0.894
2193.96	0.894
2202.4	0.894
2210.84	0.893
2219.28	0.893
2227.72	0.8899
2236.16	0.892
2244.6	0.889
2253.04	0.8881
2261.48	0.8891
2269.92	0.8879
2278.36	0.89
2286.8	0.8881
2295.24	0.8821
2303.68	0.882
2312.12	0.88
2320.56	0.881
2329	0.88
2337.44	0.8751
2345.88	0.874
2354.32	0.872
2362.76	0.8779
2371.2	0.8761
2379.64	0.876
2388.08	0.882
2396.52	0.8811
2404.96	0.874
2413.4	0.881
2421.84	0.8751
2430.28	0.878
2438.72	0.88
2447.16	0.8763
2455.6	0.87
2464.04	0.871
2472.48	0.8771
2480.92	0.875
2489.36	0.8701
2497.8	0.87
2506.24	0.8689
2514.68	0.869
2523.12	0.866
2531.56	0.8663
2540	0.8621
2548.44	0.86
2556.88	0.86
2565.32	0.86
2573.76	0.858
2582.2	0.857
2590.64	0.859
2599.08	0.8591
2607.52	0.858
2615.96	0.8596
2624.4	0.8603
2632.84	0.856
2641.28	0.858
2649.72	0.858
2658.16	0.858
2666.6	0.857
2675.04	0.8589
2683.48	0.856
2691.92	0.856
2700.36	0.8483
2708.8	0.844
2717.24	0.845
2725.68	0.845
2734.12	0.8409
2742.56	0.84
2751	0.839
2759.44	0.84
2767.88	0.8288
2776.32	0.8101
2784.76	0.7971
2793.21	0.797
2801.65	0.7851
2810.09	0.773
2818.53	0.7691
2826.97	0.7613
2835.41	0.7454
2843.85	0.7375
2852.29	0.7153
2860.73	0.7021
2869.17	0.6941
2877.61	0.6871
2886.05	0.6707
2894.49	0.6333
2902.93	0.6101
2911.37	0.5933
2919.81	0.5861
2928.25	0.5833
2936.69	0.5751
2945.13	0.5654
2953.57	0.5453
2962.01	0.5311
2970.45	0.5201
2978.89	0.5714
2987.33	0.6242
2995.77	0.6584
3004.21	0.6864
3012.65	0.7079
3021.09	0.7209
3029.53	0.724
3037.97	0.7213
3046.41	0.719
3054.85	0.7199
3063.29	0.725
3071.73	0.7416
3080.17	0.7509
3088.61	0.754
3097.05	0.754
3105.49	0.752
3113.93	0.752
3122.37	0.748
3130.81	0.744
3139.25	0.743
3147.69	0.7411
3156.13	0.7351
3164.57	0.7261
3173.01	0.7231
3181.45	0.719
3189.89	0.7131
3198.33	0.706
3206.77	0.7011
3215.21	0.6883
3223.65	0.679
3232.09	0.6674
3240.53	0.664
3248.97	0.6494
3257.41	0.641
3265.85	0.636
3274.29	0.6331
3282.73	0.629
3291.17	0.628
3299.61	0.6241
3308.05	0.619
3316.49	0.618
3324.93	0.619
3333.37	0.619
3341.81	0.6237
3350.25	0.628
3358.69	0.629
3367.13	0.6349
3375.57	0.6429
3384.01	0.67
3392.45	0.6844
3400.89	0.7019
3409.33	0.7221
3417.77	0.739
3426.21	0.7379
3434.65	0.7466
3443.09	0.748
3451.53	0.756
3459.97	0.76
3468.41	0.7609
3476.85	0.7726
3485.29	0.773
3493.73	0.7759
3502.17	0.78
3510.61	0.782
3519.05	0.7897
3527.49	0.791
3535.93	0.791
3544.37	0.793
3552.81	0.797
3561.25	0.796
3569.69	0.797
3578.13	0.7989
3586.57	0.802
3595.01	0.8
3603.45	0.797
3611.89	0.8134
3620.33	0.8229
3628.77	0.8257
3637.21	0.8291
3645.65	0.8329
3654.09	0.8329
3662.53	0.8409
3670.97	0.852
3679.41	0.853
3687.85	0.85
3696.29	0.8592
3704.73	0.878
3713.17	0.88
3721.61	0.878
3730.05	0.88
3738.5	0.882
3746.94	0.882
3755.38	0.8751
3763.82	0.87
3772.26	0.8689
3780.7	0.8797
3789.14	0.882
3797.58	0.882
