Infrared Spectrum: 2-PIPERIDINOMETHYL-8(AR)-METHOXY-TETRAHYDRO-1-ACENAPHTHONE
Formula: C19 H25 N O2
CAS: 116296-21-0
State: SOLUTION (7% CHCl3)
Class: COBLENTZ
Instrument: Not specified, most likely a prism, grating, or hybrid spectrometer.
Sampling: TRANSMISSION
Path length: 0.009 CM
Resolution: 4
MICROMETERS	TRANSMITTANCE
2.041	0.985
2.0743	0.985
2.1076	0.981
2.14089	0.98
2.17419	0.98
2.20749	0.975
2.24079	0.975
2.27408	0.975
2.30738	0.968
2.34068	0.963
2.37398	0.958
2.40727	0.95
2.44057	0.952
2.47387	0.955
2.50717	0.957
2.54047	0.96
2.57376	0.963
2.60706	0.965
2.64036	0.963
2.67366	0.962
2.70695	0.962
2.74025	0.96
2.77355	0.96
2.80685	0.954
2.84014	0.934
2.87344	0.919
2.90674	0.926
2.94004	0.929
2.97334	0.914
3.00663	0.922
3.03993	0.924
3.07323	0.926
3.10653	0.924
3.13982	0.922
3.17312	0.912
3.20642	0.919
3.23972	0.914
3.27301	0.893
3.30631	0.85
3.33961	0.65
3.37291	0.676
3.40621	0.422
3.4395	0.287
3.4728	0.487
3.5061	0.591
3.5394	0.543
3.57269	0.638
3.60599	0.66
3.63929	0.694
3.67259	0.765
3.70588	0.814
3.73918	0.845
3.77248	0.855
3.80578	0.876
3.83908	0.901
3.87237	0.904
3.90567	0.912
3.93897	0.914
3.97227	0.916
4.00556	0.917
4.03886	0.917
4.07216	0.917
4.10546	0.916
4.13875	0.916
4.17205	0.917
4.20535	0.919
4.23865	0.926
4.27195	0.934
4.30524	0.937
4.33854	0.937
4.37184	0.929
4.40514	0.929
4.43843	0.931
4.47173	0.932
4.50503	0.932
4.53833	0.931
4.57162	0.931
4.60492	0.931
4.63822	0.931
4.67152	0.932
4.70482	0.932
4.73811	0.932
4.77141	0.932
4.80471	0.932
4.83801	0.929
4.8713	0.931
4.9046	0.932
4.9379	0.932
4.9712	0.929
5.00449	0.929
5.03779	0.932
5.07109	0.929
5.10439	0.924
5.13769	0.929
5.17098	0.927
5.20428	0.927
5.23758	0.927
5.27088	0.927
5.30417	0.927
5.33747	0.919
5.37077	0.914
5.40407	0.921
5.43736	0.926
5.47066	0.926
5.50396	0.924
5.53726	0.921
5.57056	0.919
5.60385	0.919
5.63715	0.919
5.67045	0.917
5.70375	0.908
5.73704	0.898
5.77034	0.885
5.80364	0.84
5.83694	0.648
5.87023	0.298
5.90353	0.103
5.93683	0.124
5.97013	0.392
6.00343	0.676
6.03672	0.784
6.07002	0.817
6.10332	0.832
6.13662	0.848
6.16991	0.84
6.20321	0.748
6.23651	0.579
6.26981	0.656
6.3031	0.28
6.3364	0.408
6.3697	0.686
6.403	0.824
6.4363	0.863
6.46959	0.881
6.50289	0.898
6.53619	0.898
6.56949	0.891
6.60278	0.883
6.63608	0.865
6.66938	0.768
6.70268	0.425
6.73597	0.185
6.76927	0.614
6.80257	0.763
6.83587	0.753
6.86916	0.63
6.90246	0.573
6.93576	0.619
6.96906	0.609
7.00236	0.615
7.03565	0.735
7.06895	0.812
7.10225	0.789
7.13555	0.817
7.16884	0.85
7.20214	0.855
7.23544	0.862
7.26874	0.863
7.30203	0.781
7.33533	0.727
7.36863	0.811
7.40193	0.812
7.43523	0.755
7.46852	0.602
7.50182	0.576
7.53512	0.627
7.56842	0.676
7.60171	0.722
7.63501	0.727
7.66831	0.61
7.70161	0.602
7.7349	0.628
7.7682	0.62
7.8015	0.566
7.8348	0.425
7.8681	0.266
7.90139	0.201
7.93469	0.426
7.96799	0.564
8.00129	0.574
8.03458	0.566
8.06788	0.6
8.10118	0.579
8.13448	0.566
8.16777	0.561
8.20107	0.535
8.23437	0.527
8.26767	0.528
8.30097	0.536
8.33426	0.541
8.36756	0.584
8.40086	0.678
8.43416	0.75
8.46745	0.697
8.50075	0.637
8.53405	0.714
8.56735	0.737
8.60064	0.788
8.63394	0.771
8.66724	0.704
8.70054	0.673
8.73384	0.648
8.76713	0.742
8.80043	0.806
8.83373	0.812
8.86703	0.75
8.90032	0.732
8.93362	0.738
8.96692	0.699
9.00022	0.671
9.03351	0.568
9.06681	0.517
9.10011	0.607
9.13341	0.696
9.16671	0.766
9.2	0.801
9.2333	0.824
9.2666	0.832
9.2999	0.809
9.33319	0.788
9.36649	0.781
9.39979	0.778
9.43309	0.776
9.46638	0.775
9.49968	0.765
9.53298	0.711
9.56628	0.623
9.59958	0.543
9.63287	0.436
9.66617	0.387
9.69947	0.405
9.73277	0.564
9.76606	0.602
9.79936	0.63
9.83266	0.715
9.86596	0.798
9.89925	0.832
9.93255	0.847
9.96585	0.858
9.99915	0.866
10.0324	0.868
10.0657	0.852
10.099	0.832
10.1323	0.801
10.1656	0.747
10.1989	0.676
10.2322	0.707
10.2655	0.793
10.2988	0.804
10.3321	0.812
10.3654	0.817
10.3987	0.804
10.432	0.798
10.4653	0.776
10.4986	0.801
10.5319	0.822
10.5652	0.837
10.5985	0.844
10.6318	0.86
10.6651	0.866
10.6984	0.87
10.7317	0.885
10.765	0.886
10.7983	0.883
10.8316	0.875
10.8649	0.862
10.8982	0.847
10.9315	0.862
10.9648	0.881
10.9981	0.883
11.0314	0.883
11.0647	0.878
11.098	0.865
11.1313	0.863
11.1646	0.866
11.1979	0.876
11.2312	0.885
11.2645	0.889
11.2978	0.889
11.3311	0.889
11.3644	0.868
11.3977	0.862
11.4309	0.86
11.4642	0.865
11.4975	0.87
11.5308	0.862
11.5641	0.83
11.5974	0.761
11.6307	0.753
11.664	0.791
11.6973	0.822
11.7306	0.84
11.7639	0.858
11.7972	0.868
11.8305	0.871
11.8638	0.876
11.8971	0.883
11.9304	0.881
11.9637	0.875
11.997	0.87
12.0303	0.855
12.0636	0.816
12.0969	0.748
12.1302	0.707
12.1635	0.714
12.1968	0.748
12.2301	0.753
12.2634	0.686
12.2967	0.592
12.33	0.614
12.3633	0.681
12.3966	0.714
12.4299	0.724
12.4632	0.735
12.4965	0.758
12.5298	0.756
12.5631	0.75
12.5964	0.745
12.6297	0.752
12.663	0.761
12.6963	0.765
12.7296	0.77
12.7629	0.775
12.7962	0.779
12.8295	0.783
12.8627	0.786
12.896	0.788
12.9293	0.788
12.9626	0.791
12.9959	0.796
13.0292	0.806
13.0625	0.812
13.0958	0.814
13.1291	0.816
13.1624	0.824
13.1957	0.83
13.229	0.83
13.2623	0.83
