Infrared Spectrum: Acetic acid. (o-benzyloxyphenyl)phenyl-, benzyl ester
Formula: C28 H24 O3
CAS: 116296-22-1
State: SOLUTION 7% (CS2 FOR 7.5-15 microns, AND CCl4 FOR 2.5-7.5 microns)
Class: COBLENTZ III
Instrument: PERKIN-ELMER 21 (GRATING)
Instrument parameters: FILTER AT ABOUT 10 MICRONS
Path length: 0.01 CM
Resolution: 2
Origin: ABBOTT LABORATORIES
1/CM	TRANSMITTANCE
652	0.8868
661	0.8946
670	0.8063
679	0.8085
688	0.3735
697	0.3371
706	0.7279
715	0.6871
724	0.384
733	0.3817
742	0.2671
751	0.3427
760	0.783
769	0.814
778	0.8794
787	0.8524
796	0.8625
805	0.8516
814	0.8725
823	0.8759
832	0.8502
841	0.8216
850	0.8166
859	0.884
868	0.8946
877	0.8615
886	0.8615
895	0.8149
904	0.7815
913	0.8424
922	0.8572
931	0.8537
940	0.8599
949	0.8194
958	0.7737
967	0.6815
976	0.6541
985	0.6328
994	0.5973
1003	0.5447
1012	0.5084
1021	0.5686
1030	0.6831
1039	0.7579
1048	0.7807
1057	0.8587
1066	0.7887
1075	0.8454
1084	0.8107
1093	0.6464
1102	0.623
1111	0.7603
1120	0.6933
1129	0.399
1138	0.1584
1147	0.3175
1156	0.5357
1165	0.4545
1174	0.5092
1183	0.5665
1192	0.6061
1201	0.487
1210	0.3638
1219	0.3316
1228	0.2342
1237	0.3307
1246	0.5462
1255	0.6213
1264	0.6431
1273	0.5875
1282	0.5173
1291	0.5562
1300	0.5966
1309	0.6257
1318	0.6527
1327	0.7064
1336	0.7842
1345	0.8382
1354	0.7896
1363	0.6725
1372	0.7394
1381	0.859
1390	0.8823
1399	0.8827
1408	0.885
1417	0.8655
1426	0.8161
1435	0.6317
1444	0.3833
1453	0.754
1462	0.8073
1471	0.7022
1480	0.4209
1489	0.5945
1498	0.8284
1507	0.9209
1516	0.9355
1525	0.9531
1534	0.9549
1543	0.947
1552	0.9263
1561	0.889
1570	0.8116
1579	0.7435
1588	0.6669
1597	0.7898
1606	0.9044
1615	0.911
1624	0.9134
1633	0.9083
1642	0.9037
1651	0.9068
1660	0.9056
1669	0.9017
1678	0.8905
1687	0.8766
1696	0.8636
1705	0.7636
1714	0.6454
1723	0.3919
1732	0.2422
1741	0.6256
1750	0.8024
1759	0.8839
1768	0.9059
1777	0.9067
1786	0.8987
1795	0.9115
1804	0.9274
1813	0.9355
1822	0.9387
1831	0.9341
1840	0.9268
1849	0.922
1858	0.9196
1867	0.9186
1876	0.9203
1885	0.9324
1894	0.944
1903	0.9409
1912	0.9295
1921	0.9078
1930	0.9091
1939	0.9193
1948	0.9405
1957	0.9461
1966	0.9475
1975	0.9476
1984	0.9475
1993	0.9475
2002	0.9479
2011	0.9485
2020	0.9493
2029	0.9491
2038	0.9486
2047	0.9483
2056	0.948
2065	0.9478
2074	0.9476
2083	0.948
2092	0.9485
2101	0.9492
2110	0.9512
2119	0.9531
2128	0.9548
2137	0.9559
2146	0.9571
2155	0.958
2164	0.9576
2173	0.9572
2182	0.9568
2191	0.9565
2200	0.9561
2209	0.9558
2218	0.9558
2227	0.9559
2236	0.9559
2245	0.9559
2254	0.9559
2263	0.9558
2272	0.9558
2281	0.9558
2290	0.9562
2299	0.9564
2308	0.9567
2317	0.957
2326	0.9572
2335	0.9574
2344	0.9577
2353	0.9579
2362	0.9582
2371	0.9582
2380	0.958
2389	0.9579
2398	0.9577
2407	0.9576
2416	0.9574
2425	0.9571
2434	0.9569
2443	0.9565
2452	0.9562
2461	0.9558
2470	0.9556
2479	0.9553
2488	0.955
2497	0.9548
2506	0.9545
2515	0.9543
2524	0.9543
2533	0.955
2542	0.9556
2551	0.9559
2560	0.9553
2569	0.9547
2578	0.9541
2587	0.9535
2596	0.9528
2605	0.952
2614	0.9512
2623	0.9505
2632	0.9496
2641	0.9487
2650	0.9478
2659	0.9468
2668	0.9467
2677	0.9478
2686	0.9487
2695	0.9495
2704	0.9501
2713	0.9488
2722	0.9449
2731	0.9417
2740	0.9398
2749	0.9376
2758	0.9353
2767	0.9294
2776	0.9198
2785	0.9156
2794	0.9087
2803	0.889
2812	0.8719
2821	0.8644
2830	0.8642
2839	0.8674
2848	0.8695
2857	0.8688
2866	0.866
2875	0.8586
2884	0.8534
2893	0.8584
2902	0.87
2911	0.8818
2920	0.891
2929	0.8906
2938	0.8887
2947	0.8761
2956	0.845
2965	0.8129
2974	0.7809
2983	0.7491
2992	0.7438
3001	0.7524
3010	0.7562
3019	0.7747
3028	0.8086
3037	0.8422
3046	0.8756
3055	0.9054
3064	0.9199
3073	0.9312
3082	0.9397
3091	0.9443
3100	0.9452
3109	0.946
3118	0.9461
3127	0.9462
3136	0.9462
3145	0.946
3154	0.9459
3163	0.9457
3172	0.9456
3181	0.9454
3190	0.9453
3199	0.9452
3208	0.9451
3217	0.945
3226	0.9448
3235	0.9447
3244	0.9446
3253	0.9444
3262	0.9442
3271	0.9439
3280	0.9437
3289	0.9434
3298	0.9431
3307	0.9425
3316	0.9421
3325	0.9417
3334	0.9413
3343	0.9409
3352	0.9406
3361	0.9407
3370	0.9412
3379	0.9417
3388	0.9422
3397	0.9427
3406	0.9432
3415	0.9434
3424	0.9436
3433	0.9439
3442	0.9441
3451	0.9444
3460	0.9446
3469	0.945
3478	0.9455
3487	0.9459
3496	0.9462
3505	0.9467
3514	0.9471
3523	0.9475
3532	0.9479
3541	0.9482
3550	0.9487
3559	0.9492
3568	0.9496
3577	0.9501
3586	0.9505
3595	0.951
3604	0.9514
3613	0.9519
3622	0.9523
3631	0.9527
3640	0.9531
3649	0.9535
3658	0.9537
3667	0.9539
3676	0.9539
3685	0.9541
3694	0.9542
3703	0.9543
3712	0.9544
3721	0.9545
3730	0.9546
3739	0.9547
3748	0.9548
3757	0.9549
3766	0.955
3775	0.955
3784	0.9551
3793	0.9551
3802	0.9552
3811	0.9553
3820	0.9553
3829	0.9554
3838	0.9554
3847	0.9552
3856	0.9551
3865	0.9549
3874	0.9548
3883	0.9546
3892	0.9545
3901	0.9543
3910	0.9539
3919	0.9536
3928	0.9532
3937	0.9529
3946	0.9525
3955	0.9522
3964	0.9518
3973	0.9514
3982	0.9511
3991	0.9507
4000	0.9506
