Infrared Spectrum: 2-(p-t-BUTYLPHENOXY)-3-(2-PHENYLETHYL) PYRAZINE
Formula: C22 H24 N2 O
CAS: 116295-59-1
State: SOLID (OIL MULL)
Class: COBLENTZ
Instrument: Not specified, most likely a prism, grating, or hybrid spectrometer.
Sampling: TRANSMISSION
Resolution: 4
Origin: WYANDOTTE CHEMICALS CORP., WYANDOTTE, MICHIGAN, USA
MICROMETERS	TRANSMITTANCE
2.007	0.58
2.0479	0.6
2.08879	0.602
2.12969	0.607
2.17059	0.609
2.21148	0.6
2.25238	0.609
2.29328	0.614
2.33417	0.622
2.37507	0.627
2.41597	0.638
2.45686	0.65
2.49776	0.653
2.53866	0.668
2.57955	0.67
2.62045	0.689
2.66135	0.679
2.70224	0.684
2.74314	0.687
2.78404	0.68
2.82493	0.672
2.86583	0.675
2.90672	0.67
2.94762	0.674
2.98852	0.665
3.02941	0.674
3.07031	0.675
3.11121	0.679
3.1521	0.682
3.193	0.674
3.2339	0.6
3.27479	0.546
3.31569	0.385
3.35659	0.049
3.39748	0.051
3.43838	0.092
3.47928	0.09
3.52017	0.372
3.56107	0.711
3.60197	0.764
3.64286	0.762
3.68376	0.764
3.72466	0.773
3.76555	0.788
3.80645	0.8
3.84735	0.802
3.88824	0.827
3.92914	0.829
3.97004	0.834
4.01093	0.843
4.05183	0.841
4.09273	0.822
4.13362	0.839
4.17452	0.841
4.21542	0.841
4.25631	0.822
4.29721	0.849
4.33811	0.863
4.379	0.883
4.4199	0.88
4.4608	0.878
4.50169	0.883
4.54259	0.883
4.58348	0.887
4.62438	0.895
4.66528	0.897
4.70617	0.899
4.74707	0.901
4.78797	0.909
4.82886	0.912
4.86976	0.906
4.91066	0.912
4.95155	0.918
4.99245	0.911
5.03335	0.924
5.07424	0.909
5.11514	0.921
5.15604	0.912
5.19693	0.897
5.23783	0.87
5.27873	0.875
5.31962	0.914
5.36052	0.914
5.40142	0.931
5.44231	0.941
5.48321	0.94
5.52411	0.914
5.565	0.897
5.6059	0.948
5.6468	0.912
5.68769	0.93
5.72859	0.865
5.76949	0.832
5.81038	0.889
5.85128	0.88
5.89218	0.899
5.93307	0.86
5.97397	0.885
6.01487	0.858
6.05576	0.882
6.09666	0.885
6.13756	0.882
6.17845	0.796
6.21935	0.745
6.26024	0.848
6.30114	0.894
6.34204	0.918
6.38293	0.906
6.42383	0.817
6.46473	0.616
6.50562	0.779
6.54652	0.641
6.58742	0.249
6.62831	0.18
6.66921	0.363
6.71011	0.486
6.751	0.348
6.7919	0.221
6.8328	0.175
6.87369	0.274
6.91459	0.455
6.95549	0.518
6.99638	0.464
7.03728	0.232
7.07818	0.046
7.11907	0.066
7.15997	0.22
7.20087	0.254
7.24176	0.3
7.28266	0.402
7.32356	0.515
7.36445	0.554
7.40535	0.622
7.44625	0.59
7.48714	0.547
7.52804	0.687
7.56894	0.686
7.60983	0.696
7.65073	0.547
7.69163	0.209
7.73252	0.25
7.77342	0.44
7.81432	0.267
7.85521	0.418
7.89611	0.37
7.937	0.549
7.9779	0.656
8.0188	0.546
8.05969	0.518
8.10059	0.479
8.14149	0.37
8.18238	0.092
8.22328	0.324
8.26418	0.52
8.30507	0.552
8.34597	0.465
8.38687	0.421
8.42776	0.6
8.46866	0.547
8.50956	0.365
8.55045	0.131
8.59135	0.148
8.63225	0.428
8.67314	0.609
8.71404	0.684
8.75494	0.728
8.79583	0.757
8.83673	0.774
8.87763	0.762
8.91852	0.653
8.95942	0.53
9.00032	0.363
9.04121	0.529
9.08211	0.73
9.12301	0.783
9.1639	0.8
9.2048	0.819
9.2457	0.817
9.28659	0.802
9.32749	0.721
9.36839	0.452
9.40928	0.655
9.45018	0.79
9.49108	0.813
9.53197	0.819
9.57287	0.815
9.61376	0.807
9.65466	0.747
9.69556	0.691
9.73645	0.679
9.77735	0.74
9.81825	0.691
9.85914	0.431
9.90004	0.754
9.94094	0.802
9.98183	0.8
10.0227	0.851
10.0636	0.863
10.1045	0.86
10.1454	0.829
10.1863	0.697
10.2272	0.74
10.2681	0.805
10.309	0.827
10.3499	0.839
10.3908	0.808
10.4317	0.822
10.4726	0.824
10.5135	0.87
10.5544	0.87
10.5953	0.87
10.6362	0.856
10.6771	0.861
10.718	0.856
10.7589	0.866
10.7998	0.861
10.8407	0.822
10.8816	0.817
10.9225	0.728
10.9634	0.54
11.0042	0.744
11.0451	0.762
11.086	0.61
11.1269	0.733
11.1678	0.831
11.2087	0.858
11.2496	0.872
11.2905	0.878
11.3314	0.887
11.3723	0.897
11.4132	0.89
11.4541	0.902
11.495	0.887
11.5359	0.865
11.5768	0.798
11.6177	0.65
11.6586	0.319
11.6995	0.225
11.7404	0.349
11.7813	0.329
11.8222	0.575
11.8631	0.74
11.904	0.752
11.9449	0.609
11.9858	0.708
12.0267	0.853
12.0676	0.883
12.1085	0.895
12.1494	0.897
12.1902	0.858
12.2311	0.858
12.272	0.79
12.3129	0.812
12.3538	0.882
12.3947	0.897
12.4356	0.918
12.4765	0.938
12.5174	0.936
12.5583	0.947
12.5992	0.941
12.6401	0.943
12.681	0.94
12.7219	0.94
12.7628	0.909
12.8037	0.89
12.8446	0.795
12.8855	0.766
12.9264	0.866
12.9673	0.89
13.0082	0.902
13.0491	0.892
13.09	0.863
13.1309	0.849
13.1718	0.841
13.2127	0.793
13.2536	0.674
13.2945	0.433
13.3354	0.295
13.3763	0.547
13.4171	0.766
13.458	0.848
13.4989	0.873
13.5398	0.88
13.5807	0.883
13.6216	0.872
13.6625	0.848
13.7034	0.757
13.7443	0.6
13.7852	0.616
13.8261	0.774
13.867	0.827
13.9079	0.861
13.9488	0.88
13.9897	0.894
14.0306	0.897
14.0715	0.887
14.1124	0.877
14.1533	0.858
14.1942	0.831
14.2351	0.762
14.276	0.639
14.3169	0.44
14.3578	0.327
14.3987	0.351
14.4396	0.569
14.4805	0.747
14.5214	0.841
14.5623	0.894
14.6031	0.907
14.644	0.911
14.6849	0.916
14.7258	0.914
14.7667	0.911
14.8076	0.911
14.8485	0.916
14.8894	0.912
14.9303	0.911
14.9712	0.902
15.0121	0.875
15.053	0.841
15.0939	0.832
15.1348	0.868
15.1757	0.889
15.2166	0.885
15.2575	0.873
15.2984	0.863
15.3393	0.863
15.3802	0.851
15.4211	0.843
15.462	0.82
15.5029	0.815
15.5438	0.812
15.5847	0.807
15.6256	0.798
15.6665	0.791
15.7074	0.779
15.7483	0.766
15.7891	0.747
15.83	0.732
15.8709	0.728
15.9118	0.726
15.9527	0.72
