Infrared Spectrum: 2,2'-AZO-1,3,4-THIADIAZOL-5-THIONE
Formula: C4 H2 N6 S4
CAS: 116277-57-7
State: SOLID (KBr PELLET)
Class: COBLENTZ
Instrument: Not specified, most likely a prism, grating, or hybrid spectrometer.
Sampling: TRANSMISSION
Resolution: 4
Origin: NORBERT PETRI
MICROMETERS	TRANSMITTANCE
2.03	0.426
2.06609	0.433
2.10219	0.44
2.13828	0.456
2.17438	0.466
2.21047	0.469
2.24657	0.473
2.28266	0.479
2.31876	0.501
2.35485	0.519
2.39094	0.515
2.42704	0.526
2.46313	0.529
2.49923	0.541
2.53532	0.549
2.57142	0.559
2.60751	0.572
2.64361	0.57
2.6797	0.581
2.71579	0.582
2.75189	0.562
2.78798	0.519
2.82408	0.473
2.86017	0.456
2.89627	0.455
2.93236	0.467
2.96846	0.49
3.00455	0.512
3.04065	0.509
3.07674	0.41
3.11283	0.334
3.14893	0.352
3.18502	0.381
3.22112	0.438
3.25721	0.48
3.29331	0.524
3.3294	0.552
3.3655	0.571
3.40159	0.579
3.43768	0.595
3.47378	0.599
3.50987	0.596
3.54597	0.611
3.58206	0.625
3.61816	0.641
3.65425	0.65
3.69035	0.668
3.72644	0.67
3.76253	0.673
3.79863	0.677
3.83472	0.687
3.87082	0.691
3.90691	0.698
3.94301	0.693
3.9791	0.71
4.0152	0.707
4.05129	0.707
4.08738	0.71
4.12348	0.721
4.15957	0.726
4.19567	0.73
4.23176	0.748
4.26786	0.754
4.30395	0.761
4.34005	0.75
4.37614	0.748
4.41223	0.739
4.44833	0.76
4.48442	0.745
4.52052	0.755
4.55661	0.756
4.59271	0.761
4.6288	0.769
4.6649	0.765
4.70099	0.778
4.73709	0.778
4.77318	0.78
4.80927	0.788
4.84537	0.783
4.88146	0.785
4.91756	0.797
4.95365	0.796
4.98975	0.797
5.02584	0.801
5.06194	0.802
5.09803	0.808
5.13412	0.812
5.17022	0.813
5.20631	0.818
5.24241	0.819
5.2785	0.82
5.3146	0.825
5.35069	0.826
5.38679	0.825
5.42288	0.83
5.45897	0.834
5.49507	0.84
5.53116	0.84
5.56726	0.838
5.60335	0.835
5.63945	0.835
5.67554	0.837
5.71164	0.836
5.74773	0.841
5.78382	0.834
5.81992	0.835
5.85601	0.837
5.89211	0.831
5.9282	0.822
5.9643	0.812
6.00039	0.805
6.03649	0.801
6.07258	0.776
6.10867	0.784
6.14477	0.785
6.18086	0.809
6.21696	0.822
6.25305	0.841
6.28915	0.852
6.32524	0.853
6.36134	0.849
6.39743	0.855
6.43352	0.861
6.46962	0.872
6.50571	0.882
6.54181	0.872
6.5779	0.881
6.614	0.836
6.65009	0.832
6.68619	0.871
6.72228	0.881
6.75838	0.874
6.79447	0.858
6.83056	0.836
6.86666	0.823
6.90275	0.786
6.93885	0.761
6.97494	0.743
7.01104	0.709
7.04713	0.667
7.08323	0.607
7.11932	0.495
7.15541	0.363
7.19151	0.2
7.2276	0.112
7.2637	0.079
7.29979	0.101
7.33589	0.255
7.37198	0.43
7.40808	0.542
7.44417	0.623
7.48026	0.696
7.51636	0.726
7.55245	0.753
7.58855	0.763
7.62464	0.782
7.66074	0.797
7.69683	0.779
7.73293	0.677
7.76902	0.475
7.80511	0.365
7.84121	0.294
7.8773	0.497
7.9134	0.648
7.94949	0.69
7.98559	0.73
8.02168	0.76
8.05778	0.777
8.09387	0.784
8.12996	0.755
8.16606	0.633
8.20215	0.357
8.23825	0.184
8.27434	0.128
8.31044	0.318
8.34653	0.474
8.38263	0.59
8.41872	0.651
8.45482	0.665
8.49091	0.68
8.527	0.7
8.5631	0.723
8.59919	0.709
8.63529	0.641
8.67138	0.619
8.70748	0.647
8.74357	0.657
8.77967	0.664
8.81576	0.631
8.85185	0.542
8.88795	0.435
8.92404	0.338
8.96014	0.355
8.99623	0.525
9.03233	0.608
9.06842	0.636
9.10452	0.679
9.14061	0.717
9.1767	0.748
9.2128	0.763
9.24889	0.759
9.28499	0.679
9.32108	0.508
9.35718	0.492
9.39327	0.652
9.42937	0.755
9.46546	0.777
9.50155	0.785
9.53765	0.789
9.57374	0.797
9.60984	0.803
9.64593	0.806
9.68203	0.808
9.71812	0.813
9.75422	0.811
9.79031	0.823
9.8264	0.82
9.8625	0.824
9.89859	0.83
9.93469	0.838
9.97078	0.842
10.0069	0.843
10.043	0.847
10.0791	0.846
10.1152	0.852
10.1513	0.854
10.1873	0.854
10.2234	0.858
10.2595	0.857
10.2956	0.868
10.3317	0.864
10.3678	0.869
10.4039	0.861
10.44	0.87
10.4761	0.868
10.5122	0.871
10.5483	0.871
10.5844	0.874
10.6205	0.869
10.6566	0.872
10.6927	0.875
10.7288	0.872
10.7649	0.874
10.801	0.872
10.837	0.877
10.8731	0.878
10.9092	0.877
10.9453	0.878
10.9814	0.878
11.0175	0.881
11.0536	0.882
11.0897	0.88
11.1258	0.878
11.1619	0.88
11.198	0.883
11.2341	0.881
11.2702	0.881
11.3063	0.886
11.3424	0.889
11.3785	0.886
11.4146	0.886
11.4507	0.886
11.4868	0.887
11.5228	0.882
11.5589	0.888
11.595	0.887
11.6311	0.891
11.6672	0.883
11.7033	0.884
11.7394	0.887
11.7755	0.887
11.8116	0.887
11.8477	0.882
11.8838	0.88
11.9199	0.881
11.956	0.881
11.9921	0.886
12.0282	0.887
12.0643	0.888
12.1004	0.891
12.1365	0.888
12.1725	0.887
12.2086	0.886
12.2447	0.887
12.2808	0.884
12.3169	0.881
12.353	0.886
12.3891	0.883
12.4252	0.877
12.4613	0.876
12.4974	0.876
12.5335	0.875
12.5696	0.87
12.6057	0.877
12.6418	0.881
12.6779	0.877
12.714	0.882
12.7501	0.878
12.7862	0.869
12.8222	0.871
12.8583	0.866
12.8944	0.868
12.9305	0.859
12.9666	0.86
13.0027	0.846
13.0388	0.835
13.0749	0.803
13.111	0.766
13.1471	0.727
13.1832	0.749
13.2193	0.782
13.2554	0.807
13.2915	0.815
13.3276	0.814
13.3637	0.808
13.3998	0.8
13.4359	0.783
13.4719	0.771
13.508	0.742
13.5441	0.704
13.5802	0.679
13.6163	0.661
13.6524	0.648
13.6885	0.588
13.7246	0.501
13.7607	0.533
13.7968	0.61
13.8329	0.647
13.869	0.68
13.9051	0.699
13.9412	0.716
13.9773	0.726
14.0134	0.737
14.0495	0.74
14.0856	0.744
14.1216	0.754
14.1577	0.759
14.1938	0.766
14.2299	0.771
14.266	0.782
14.3021	0.777
14.3382	0.776
14.3743	0.785
14.4104	0.776
14.4465	0.786
14.4826	0.79
14.5187	0.796
14.5548	0.795
14.5909	0.788
14.627	0.792
14.6631	0.795
14.6992	0.794
14.7353	0.8
14.7713	0.805
14.8074	0.8
14.8435	0.805
14.8796	0.806
14.9157	0.801
14.9518	0.803
14.9879	0.811
15.024	0.808
15.0601	0.807
15.0962	0.8
15.1323	0.802
15.1684	0.797
15.2045	0.801
15.2406	0.801
15.2767	0.802
15.3128	0.806
15.3489	0.805
15.385	0.805
