Infrared Spectrum: 1,3-DI-(1,3-DICARBETHOXYPROPYL) UREA
Formula: C19 H32 N2 O9
CAS: 116295-55-7
State: SOLID (KBr PRESSING)
Melting point: 96 C
Class: COBLENTZ
Instrument: Not specified, most likely a prism, grating, or hybrid spectrometer.
Sampling: TRANSMISSION
Resolution: 4
Origin: EASTMAN KODAK COMPANY, RESEARCH LABORATORIES, ROCHESTER, N.Y.
MICROMETERS	TRANSMITTANCE
2.077	0.576
2.11211	0.576
2.14721	0.575
2.18232	0.575
2.21742	0.576
2.25253	0.583
2.28764	0.592
2.32274	0.599
2.35785	0.601
2.39295	0.606
2.42806	0.611
2.46317	0.622
2.49827	0.627
2.53338	0.632
2.56849	0.639
2.60359	0.645
2.6387	0.652
2.6738	0.653
2.70891	0.646
2.74402	0.627
2.77912	0.601
2.81423	0.576
2.84933	0.519
2.88444	0.382
2.91955	0.094
2.95465	0.328
2.98976	0.459
3.02486	0.608
3.05997	0.652
3.09508	0.671
3.13018	0.678
3.16529	0.673
3.2004	0.68
3.2355	0.678
3.27061	0.65
3.30571	0.354
3.34082	0.286
3.37593	0.379
3.41103	0.564
3.44614	0.629
3.48124	0.699
3.51635	0.725
3.55146	0.75
3.58656	0.756
3.62167	0.76
3.65677	0.77
3.69188	0.774
3.72699	0.774
3.76209	0.777
3.7972	0.784
3.8323	0.784
3.86741	0.784
3.90252	0.791
3.93762	0.798
3.97273	0.802
4.00784	0.802
4.04294	0.807
4.07805	0.809
4.11315	0.816
4.14826	0.821
4.18337	0.821
4.21847	0.823
4.25358	0.823
4.28868	0.837
4.32379	0.833
4.3589	0.832
4.394	0.833
4.42911	0.833
4.46421	0.833
4.49932	0.835
4.53443	0.837
4.56953	0.837
4.60464	0.846
4.63975	0.84
4.67485	0.837
4.70996	0.84
4.74506	0.849
4.78017	0.842
4.81528	0.842
4.85038	0.847
4.88549	0.847
4.92059	0.844
4.9557	0.846
4.99081	0.847
5.02591	0.851
5.06102	0.851
5.09612	0.851
5.13123	0.844
5.16634	0.839
5.20144	0.837
5.23655	0.83
5.27165	0.825
5.30676	0.825
5.34187	0.826
5.37697	0.826
5.41208	0.821
5.44719	0.812
5.48229	0.793
5.5174	0.767
5.5525	0.743
5.58761	0.722
5.62272	0.671
5.65782	0.552
5.69293	0.41
5.72803	0.218
5.76314	0.075
5.79825	0.019
5.83335	0.055
5.86846	0.4
5.90356	0.533
5.93867	0.608
5.97378	0.68
6.00888	0.657
6.04399	0.597
6.0791	0.309
6.1142	0.05
6.14931	0.319
6.18441	0.531
6.21952	0.652
6.25463	0.59
6.28973	0.416
6.32484	0.244
6.35994	0.061
6.39505	0.041
6.43016	0.167
6.46526	0.321
6.50037	0.569
6.53547	0.662
6.57058	0.69
6.60569	0.657
6.64079	0.669
6.6759	0.725
6.71101	0.723
6.74611	0.543
6.78122	0.545
6.81632	0.534
6.85143	0.496
6.88654	0.211
6.92164	0.54
6.95675	0.678
6.99185	0.758
7.02696	0.777
7.06207	0.781
7.09717	0.763
7.13228	0.709
7.16738	0.645
7.20249	0.568
7.2376	0.543
7.2727	0.367
7.30781	0.246
7.34291	0.555
7.37802	0.517
7.41313	0.459
7.44823	0.554
7.48334	0.533
7.51845	0.43
7.55355	0.454
7.58866	0.396
7.62376	0.229
7.65887	0.099
7.69398	0.062
7.72908	0.127
7.76419	0.199
7.79929	0.155
7.8344	0.085
7.86951	0.059
7.90461	0.055
7.93972	0.045
7.97482	0.057
8.00993	0.218
8.04504	0.283
8.08014	0.37
8.11525	0.342
8.15036	0.206
8.18546	0.103
8.22057	0.083
8.25567	0.159
8.29078	0.251
8.32589	0.3
8.36099	0.318
8.3961	0.414
8.4312	0.491
8.46631	0.522
8.50142	0.533
8.53652	0.501
8.57163	0.451
8.60673	0.25
8.64184	0.209
8.67695	0.435
8.71205	0.617
8.74716	0.671
8.78226	0.603
8.81737	0.522
8.85248	0.536
8.88758	0.604
8.92269	0.603
8.9578	0.559
8.9929	0.65
9.02801	0.669
9.06311	0.604
9.09822	0.566
9.13333	0.639
9.16843	0.62
9.20354	0.479
9.23864	0.33
9.27375	0.195
9.30886	0.146
9.34396	0.44
9.37907	0.617
9.41417	0.701
9.44928	0.711
9.48439	0.697
9.51949	0.603
9.5546	0.47
9.58971	0.375
9.62481	0.346
9.65992	0.314
9.69502	0.262
9.73013	0.263
9.76524	0.417
9.80034	0.568
9.83545	0.694
9.87055	0.774
9.90566	0.821
9.94077	0.863
9.97587	0.881
10.011	0.895
10.0461	0.893
10.0812	0.881
10.1163	0.851
10.1514	0.83
10.1865	0.828
10.2216	0.828
10.2567	0.837
10.2918	0.842
10.3269	0.858
10.362	0.875
10.3971	0.895
10.4323	0.905
10.4674	0.811
10.5025	0.734
10.5376	0.77
10.5727	0.851
10.6078	0.928
10.6429	0.956
10.678	0.986
10.7131	0.994
10.7482	1.013
10.7833	1.013
10.8184	1.015
10.8535	1.022
10.8886	1.02
10.9237	1.027
10.9588	1.012
10.9939	0.986
11.0291	0.954
11.0642	0.942
11.0993	0.982
11.1344	0.996
11.1695	1.02
11.2046	1.027
11.2397	1.019
11.2748	1.034
11.3099	1.027
11.345	1.024
11.3801	1.006
11.4152	0.986
11.4503	0.951
11.4854	0.844
11.5205	0.777
11.5556	0.781
11.5908	0.777
11.6259	0.765
11.661	0.809
11.6961	0.874
11.7312	0.93
11.7663	0.968
11.8014	0.973
11.8365	0.991
11.8716	0.994
11.9067	0.975
11.9418	0.977
11.9769	0.984
12.012	0.986
12.0471	1.02
12.0822	1.017
12.1173	1
12.1525	1.003
12.1876	0.998
12.2227	0.977
12.2578	0.98
12.2929	0.984
12.328	0.979
12.3631	0.984
12.3982	0.986
12.4333	0.973
12.4684	0.975
12.5035	0.977
12.5386	0.956
12.5737	0.945
12.6088	0.931
12.6439	0.916
12.679	0.93
12.7141	0.961
12.7493	0.965
12.7844	0.968
12.8195	0.984
12.8546	0.975
12.8897	0.945
12.9248	0.923
12.9599	0.882
12.995	0.816
13.0301	0.769
13.0652	0.751
13.1003	0.779
13.1354	0.832
13.1705	0.888
13.2056	0.933
13.2407	0.949
13.2758	0.959
13.311	0.998
13.3461	1.003
13.3812	0.998
13.4163	0.998
13.4514	1
13.4865	0.987
13.5216	0.959
13.5567	0.947
13.5918	0.93
13.6269	0.907
13.662	0.9
13.6971	0.909
13.7322	0.923
13.7673	0.926
13.8024	0.935
13.8375	0.963
13.8726	0.984
13.9078	0.986
13.9429	0.987
13.978	1.003
14.0131	1.008
14.0482	1.006
14.0833	1
14.1184	0.996
14.1535	0.996
14.1886	0.996
14.2237	0.987
14.2588	0.966
14.2939	0.963
14.329	0.959
14.3641	0.956
14.3992	0.938
14.4343	0.926
14.4695	0.909
14.5046	0.888
14.5397	0.839
14.5748	0.784
14.6099	0.734
14.645	0.708
14.6801	0.695
14.7152	0.695
14.7503	0.715
14.7854	0.746
14.8205	0.777
14.8556	0.795
14.8907	0.802
14.9258	0.805
14.9609	0.811
14.996	0.856
15.0312	0.875
15.0663	0.877
15.1014	0.868
15.1365	0.865
15.1716	0.861
15.2067	0.846
15.2418	0.84
15.2769	0.835
15.312	0.828
15.3471	0.825
15.3822	0.809
15.4173	0.802
15.4524	0.797
15.4875	0.79
15.5226	0.777
15.5577	0.76
15.5928	0.746
15.628	0.737
15.6631	0.722
15.6982	0.702
15.7333	0.692
15.7684	0.688
15.8035	0.676
15.8386	0.667
15.8737	0.664
15.9088	0.641
15.9439	0.639
15.979	0.638
