Infrared Spectrum: Aniline, o-[5-chloro-(2,2,3,3,4,4-hexafluoro-cyclopenten-1-yl)thio]-,
Formula: C11 H6 Cl F6 N S
CAS: 116277-71-5
State: LIQUID
Class: COBLENTZ III
Instrument: PERKIN-ELMER 21 (GRATING)
Instrument parameters: FILTER AT ABOUT 10 MICRONS
Path length: CAPILLARY
Resolution: 2
Origin: ABBOTT LABORATORIES
1/CM	TRANSMITTANCE
666	0.6743
675	0.6829
684	0.7194
693	0.7397
702	0.7505
711	0.7605
720	0.758
729	0.7514
738	0.6737
747	0.3137
756	0.5008
765	0.7381
774	0.7766
783	0.7725
792	0.804
801	0.8138
810	0.8186
819	0.81
828	0.7281
837	0.5681
846	0.5567
855	0.4108
864	0.5702
873	0.5635
882	0.2411
891	0.4321
900	0.7475
909	0.8223
918	0.8303
927	0.8334
936	0.8158
945	0.8403
954	0.8425
963	0.8322
972	0.8265
981	0.7999
990	0.7169
999	0.4047
1008	0.5423
1017	0.73
1026	0.8105
1035	0.8254
1044	0.8094
1053	0.8009
1062	0.7665
1071	0.7358
1080	0.6338
1089	0.4596
1098	0.3053
1107	0.513
1116	0.4847
1125	0.3814
1134	0.2524
1143	0.1071
1152	0.135
1161	0.4353
1170	0.6917
1179	0.6549
1188	0.5086
1197	0.313
1206	0.5338
1215	0.6107
1224	0.3968
1233	0.294
1242	0.1752
1251	0.2523
1260	0.3
1269	0.1607
1278	0.1156
1287	0.3019
1296	0.5706
1305	0.4956
1314	0.3801
1323	0.3149
1332	0.4942
1341	0.7073
1350	0.7748
1359	0.8026
1368	0.8219
1377	0.8316
1386	0.8343
1395	0.8352
1404	0.8335
1413	0.831
1422	0.8244
1431	0.8021
1440	0.7175
1449	0.6749
1458	0.8191
1467	0.7284
1476	0.4437
1485	0.539
1494	0.7991
1503	0.8253
1512	0.8371
1521	0.844
1530	0.8429
1539	0.8339
1548	0.813
1557	0.7702
1566	0.7261
1575	0.6495
1584	0.5133
1593	0.4977
1602	0.5892
1611	0.3565
1620	0.2824
1629	0.6265
1638	0.7604
1647	0.8075
1656	0.8326
1665	0.8441
1674	0.8494
1683	0.8518
1692	0.8567
1701	0.8655
1710	0.8718
1719	0.8744
1728	0.8743
1737	0.8739
1746	0.8737
1755	0.8822
1764	0.8839
1773	0.8776
1782	0.8752
1791	0.8791
1800	0.8832
1809	0.8856
1818	0.8863
1827	0.8869
1836	0.8865
1845	0.8861
1854	0.8849
1863	0.8834
1872	0.8813
1881	0.8797
1890	0.8784
1899	0.8775
1908	0.8768
1917	0.8763
1926	0.8774
1935	0.8791
1944	0.8812
1953	0.8844
1962	0.8873
1971	0.8898
1980	0.8892
1989	0.8898
1998	0.8906
2007	0.8903
2016	0.8903
2025	0.8903
2034	0.8903
2043	0.8905
2052	0.8907
2061	0.8909
2070	0.8911
2079	0.8912
2088	0.8913
2097	0.8912
2106	0.891
2115	0.8908
2124	0.8906
2133	0.8904
2142	0.8903
2151	0.8901
2160	0.8899
2169	0.8897
2178	0.8893
2187	0.8887
2196	0.8879
2205	0.8873
2214	0.8865
2223	0.8857
2232	0.8849
2241	0.8839
2250	0.8827
2259	0.8815
2268	0.8803
2277	0.8791
2286	0.8776
2295	0.876
2304	0.8745
2313	0.8729
2322	0.8716
2331	0.8709
2340	0.8719
2349	0.873
2358	0.8741
2367	0.8755
2376	0.877
2385	0.8784
2394	0.8794
2403	0.8803
2412	0.8811
2421	0.8813
2430	0.8809
2439	0.8806
2448	0.8803
2457	0.8799
2466	0.8796
2475	0.8793
2484	0.879
2493	0.8787
2502	0.8784
2511	0.8781
2520	0.8779
2529	0.8775
2538	0.8772
2547	0.8768
2556	0.8765
2565	0.8761
2574	0.8758
2583	0.8754
2592	0.8753
2601	0.8761
2610	0.877
2619	0.8778
2628	0.8787
2637	0.8794
2646	0.8805
2655	0.8816
2664	0.8828
2673	0.8826
2682	0.8822
2691	0.8817
2700	0.8811
2709	0.8803
2718	0.8795
2727	0.8787
2736	0.8779
2745	0.8771
2754	0.8759
2763	0.8746
2772	0.8733
2781	0.8719
2790	0.8702
2799	0.8684
2808	0.8665
2817	0.8649
2826	0.8637
2835	0.8624
2844	0.8612
2853	0.8602
2862	0.8598
2871	0.8595
2880	0.8593
2889	0.8589
2898	0.8595
2907	0.8605
2916	0.8614
2925	0.8632
2934	0.8662
2943	0.8683
2952	0.8697
2961	0.8695
2970	0.8684
2979	0.8667
2988	0.8626
2997	0.8566
3006	0.8506
3015	0.8471
3024	0.8463
3033	0.8456
3042	0.8449
3051	0.8451
3060	0.8465
3069	0.8515
3078	0.8576
3087	0.8659
3096	0.87
3105	0.8705
3114	0.8703
3123	0.8696
3132	0.8688
3141	0.8679
3150	0.8668
3159	0.8656
3168	0.8656
3177	0.8661
3186	0.8665
3195	0.8673
3204	0.8683
3213	0.8693
3222	0.8704
3231	0.8713
3240	0.8712
3249	0.8711
3258	0.8692
3267	0.8664
3276	0.862
3285	0.8567
3294	0.8498
3303	0.8427
3312	0.8327
3321	0.8221
3330	0.8087
3339	0.7891
3348	0.7696
3357	0.7503
3366	0.731
3375	0.7129
3384	0.7074
3393	0.7119
3402	0.7423
3411	0.7725
3420	0.8025
3429	0.8053
3438	0.8018
3447	0.7894
3456	0.7767
3465	0.7641
3474	0.7514
3483	0.7416
3492	0.7435
3501	0.7793
3510	0.8151
3519	0.8507
3528	0.8671
3537	0.8726
3546	0.8772
3555	0.8796
3564	0.8814
3573	0.8826
3582	0.8832
3591	0.8836
3600	0.884
3609	0.8841
3618	0.8818
3627	0.8844
3636	0.8845
3645	0.8846
3654	0.8846
3663	0.8845
3672	0.8843
3681	0.8841
3690	0.8837
3699	0.8833
3708	0.8829
3717	0.8825
3726	0.8821
3735	0.8818
3744	0.8815
3753	0.8812
3762	0.8809
3771	0.8809
3780	0.881
3789	0.8813
3798	0.8814
3807	0.8816
3816	0.8817
3825	0.8819
3834	0.882
3843	0.8822
3852	0.8823
3861	0.8825
3870	0.8827
3879	0.8828
3888	0.8829
3897	0.8831
3906	0.8832
3915	0.8834
3924	0.8835
3933	0.8835
3942	0.8834
3951	0.8832
3960	0.8832
3969	0.883
3978	0.8829
3987	0.8828
3996	0.8826
