Infrared Spectrum: N-CYANOMETHYL-Beta-SEC-BUTYLAMINO PROPIONIC ACID, METHYL ESTER
Formula: C10 H18 N2 O2
CAS: 116295-97-7
Class: COBLENTZ
Instrument: PERKIN-ELMER
Sampling: TRANSMISSION
Path length: CAPILLARY
Resolution: 4
Origin: ABBOTT LABORATORIES - WASHBURN
MICROMETERS	TRANSMITTANCE
2.072	0.783
2.11147	0.788
2.15095	0.79
2.19042	0.7949
2.2299	0.796
2.26937	0.7951
2.30884	0.7807
2.34832	0.781
2.38779	0.791
2.42727	0.795
2.46674	0.796
2.50621	0.793
2.54569	0.793
2.58516	0.8039
2.62464	0.806
2.66411	0.804
2.70358	0.806
2.74306	0.803
2.78253	0.7931
2.82201	0.785
2.86148	0.7763
2.90095	0.7651
2.94043	0.775
2.9799	0.773
3.01938	0.773
3.05885	0.7809
3.09832	0.783
3.1378	0.786
3.17727	0.786
3.21675	0.7882
3.25622	0.7851
3.29569	0.7484
3.33517	0.4191
3.37464	0.3599
3.41412	0.5029
3.45359	0.5269
3.49306	0.5546
3.53254	0.6442
3.57201	0.7533
3.61149	0.7843
3.65096	0.788
3.69043	0.7999
3.72991	0.811
3.76938	0.814
3.80886	0.813
3.84833	0.8095
3.8878	0.8158
3.92728	0.823
3.96675	0.819
4.00622	0.823
4.0457	0.814
4.08517	0.814
4.12465	0.814
4.16412	0.809
4.20359	0.8139
4.24307	0.814
4.28254	0.813
4.32202	0.813
4.36149	0.803
4.40096	0.7999
4.44044	0.7962
4.47991	0.773
4.51939	0.7898
4.55886	0.795
4.59833	0.795
4.63781	0.793
4.67728	0.795
4.71676	0.79
4.75623	0.7851
4.7957	0.783
4.83518	0.781
4.87465	0.78
4.91413	0.78
4.9536	0.781
4.99307	0.781
5.03255	0.7813
5.07202	0.785
5.1115	0.7837
5.15097	0.785
5.19044	0.785
5.22992	0.783
5.26939	0.783
5.30887	0.783
5.34834	0.7827
5.38781	0.78
5.42729	0.7782
5.46676	0.775
5.50624	0.7686
5.54571	0.7524
5.58518	0.7289
5.62466	0.6993
5.66413	0.5439
5.70361	0.2513
5.74308	0.1148
5.78255	0.1958
5.82203	0.5599
5.8615	0.6429
5.90098	0.6775
5.94045	0.689
5.97992	0.6976
6.0194	0.7206
6.05887	0.736
6.09835	0.7424
6.13782	0.7473
6.17729	0.752
6.21677	0.7499
6.25624	0.7301
6.29572	0.735
6.33519	0.747
6.37466	0.755
6.41414	0.7617
6.45361	0.7561
6.49309	0.7586
6.53256	0.757
6.57203	0.758
6.61151	0.757
6.65098	0.7449
6.69046	0.7379
6.72993	0.7102
6.7694	0.6578
6.80888	0.4778
6.84835	0.4084
6.88783	0.406
6.9273	0.4017
6.96677	0.3377
7.00625	0.4061
7.04572	0.4833
7.0852	0.5645
7.12467	0.613
7.16414	0.591
7.20362	0.5166
7.24309	0.4625
7.28257	0.447
7.32204	0.4615
7.36151	0.449
7.40099	0.4795
7.44046	0.4993
7.47994	0.507
7.51941	0.4988
7.55888	0.4901
7.59836	0.4935
7.63783	0.5093
7.67731	0.5393
7.71678	0.552
7.75625	0.55
7.79573	0.5122
7.8352	0.4502
7.87467	0.403
7.91415	0.3528
7.95362	0.328
7.9931	0.3328
8.03257	0.3763
8.07204	0.4357
8.11152	0.451
8.15099	0.4415
8.19047	0.4092
8.22994	0.3707
8.26941	0.3064
8.30889	0.2358
8.34836	0.216
8.38784	0.246
8.42731	0.3157
8.46678	0.3428
8.50626	0.3139
8.54573	0.2876
8.58521	0.2766
8.62468	0.281
8.66415	0.3014
8.70363	0.3364
8.7431	0.4303
8.78258	0.5177
8.82205	0.5715
8.86152	0.578
8.901	0.5477
8.94047	0.5204
8.97995	0.5106
9.01942	0.5061
9.05889	0.5169
9.09837	0.522
9.13784	0.5347
9.17732	0.5773
9.21679	0.603
9.25626	0.5906
9.29574	0.5651
9.33521	0.5746
9.37469	0.609
9.41416	0.6291
9.45363	0.6491
9.49311	0.6532
9.53258	0.6374
9.57206	0.5875
9.61153	0.5236
9.651	0.4899
9.69048	0.4941
9.72995	0.5326
9.76943	0.5624
9.8089	0.5753
9.84837	0.5718
9.88785	0.5655
9.92732	0.5769
9.9668	0.6018
10.0063	0.6133
10.0457	0.611
10.0852	0.6089
10.1247	0.611
10.1642	0.6143
10.2036	0.6175
10.2431	0.6303
10.2826	0.644
10.3221	0.647
10.3615	0.6451
10.401	0.6478
10.4405	0.661
10.48	0.662
10.5194	0.671
10.5589	0.674
10.5984	0.674
10.6379	0.6757
10.6773	0.6725
10.7168	0.6703
10.7563	0.6782
10.7957	0.704
10.8352	0.7173
10.8747	0.737
10.9142	0.743
10.9536	0.747
10.9931	0.75
11.0326	0.7431
11.0721	0.7372
11.1115	0.72
11.151	0.7208
11.1905	0.714
11.23	0.715
11.2694	0.7209
11.3089	0.7404
11.3484	0.7434
11.3879	0.7547
11.4273	0.738
11.4668	0.7334
11.5063	0.7161
11.5458	0.6993
11.5852	0.6712
11.6247	0.6378
11.6642	0.6166
11.7037	0.6105
11.7431	0.613
11.7826	0.6164
11.8221	0.6161
11.8615	0.613
11.901	0.604
11.9405	0.6188
11.98	0.6392
12.0194	0.6565
12.0589	0.6723
12.0984	0.7068
12.1379	0.7294
12.1773	0.7455
12.2168	0.752
12.2563	0.7549
12.2958	0.753
12.3352	0.75
12.3747	0.7436
12.4142	0.742
12.4537	0.737
12.4931	0.736
12.5326	0.737
12.5721	0.732
12.6116	0.727
12.651	0.7321
12.6905	0.737
12.73	0.738
12.7694	0.738
12.8089	0.74
12.8484	0.7485
12.8879	0.752
12.9273	0.752
12.9668	0.75
13.0063	0.75
13.0458	0.75
13.0852	0.747
13.1247	0.745
13.1642	0.737
13.2037	0.7352
13.2431	0.7378
13.2826	0.738
13.3221	0.7389
13.3616	0.738
13.401	0.737
13.4405	0.737
13.48	0.738
13.5195	0.735
13.5589	0.737
13.5984	0.7371
13.6379	0.7305
13.6773	0.733
13.7168	0.733
13.7563	0.724
13.7958	0.723
13.8352	0.722
13.8747	0.72
13.9142	0.72
13.9537	0.7199
13.9931	0.71
14.0326	0.709
14.0721	0.709
14.1116	0.705
14.151	0.707
14.1905	0.7013
14.23	0.702
14.2695	0.693
14.3089	0.69
14.3484	0.69
14.3879	0.692
14.4274	0.694
14.4668	0.69
14.5063	0.6893
14.5458	0.6807
14.5853	0.68
14.6247	0.679
14.6642	0.679
14.7037	0.677
14.7431	0.674
14.7826	0.6669
14.8221	0.661
14.8616	0.6622
14.901	0.659
14.9405	0.659
14.98	0.6617
15.0195	0.661
15.0589	0.651
15.0984	0.642
15.1379	0.638
15.1774	0.638
15.2168	0.636
15.2563	0.6261
15.2958	0.621
15.3353	0.618
15.3747	0.616
15.4142	0.609
