Infrared Spectrum: 2,2'-THIOBIS(4-CHLORO-6-CYCLOHEXYLPHENOL)
Formula: C24 H28 Cl2 O2 S
CAS: 116277-94-2
State: SOLUTION (10% CCl4 FOR 5000-1330, 10% CS2 FOR 1330-625 CM^-^1)
Class: COBLENTZ
Instrument: Not specified, most likely a prism, grating, or hybrid spectrometer.
Sampling: TRANSMISSION
Path length: 0.0113 CM, 0.0110 CM
Resolution: 4
Origin: DOW CHEMICAL COMPANY
MICROMETERS	TRANSMITTANCE
2.041	0.91
2.08202	0.905
2.12303	0.902
2.16405	0.907
2.20506	0.909
2.24608	0.9
2.28709	0.886
2.32811	0.888
2.36913	0.897
2.41014	0.897
2.45116	0.9
2.49217	0.904
2.53319	0.902
2.5742	0.905
2.61522	0.909
2.65624	0.909
2.69725	0.905
2.73827	0.892
2.77928	0.818
2.8203	0.748
2.86131	0.592
2.90233	0.5
2.94335	0.753
2.98436	0.849
3.02538	0.859
3.06639	0.857
3.10741	0.847
3.14842	0.833
3.18944	0.83
3.23046	0.837
3.27147	0.832
3.31249	0.828
3.3535	0.758
3.39452	0.44
3.43553	0.226
3.47655	0.518
3.51757	0.559
3.55858	0.827
3.5996	0.866
3.64061	0.886
3.68163	0.886
3.72264	0.871
3.76366	0.861
3.80468	0.886
3.84569	0.888
3.88671	0.898
3.92772	0.9
3.96874	0.898
4.00975	0.897
4.05077	0.897
4.09179	0.9
4.1328	0.905
4.17382	0.909
4.21483	0.905
4.25585	0.902
4.29686	0.892
4.33788	0.886
4.3789	0.89
4.41991	0.904
4.46093	0.91
4.50194	0.909
4.54296	0.914
4.58397	0.912
4.62499	0.914
4.66601	0.914
4.70702	0.912
4.74804	0.919
4.78905	0.919
4.83007	0.912
4.87108	0.912
4.9121	0.912
4.95312	0.912
4.99413	0.912
5.03515	0.912
5.07616	0.912
5.11718	0.91
5.15819	0.914
5.19921	0.917
5.24023	0.919
5.28124	0.919
5.32226	0.914
5.36327	0.912
5.40429	0.907
5.4453	0.91
5.48632	0.91
5.52734	0.91
5.56835	0.907
5.60937	0.902
5.65038	0.89
5.6914	0.883
5.73241	0.873
5.77343	0.873
5.81445	0.876
5.85546	0.878
5.89648	0.89
5.93749	0.902
5.97851	0.9
6.01952	0.897
6.06054	0.89
6.10156	0.888
6.14257	0.871
6.18359	0.849
6.2246	0.792
6.26562	0.698
6.30663	0.58
6.34765	0.523
6.38867	0.515
6.42968	0.491
6.4707	0.488
6.51171	0.568
6.55273	0.63
6.59374	0.669
6.63476	0.712
6.67578	0.753
6.71679	0.773
6.75781	0.772
6.79882	0.642
6.83984	0.486
6.88085	0.171
6.92187	0.066
6.96289	0.147
7.0039	0.342
7.04492	0.45
7.08593	0.412
7.12695	0.575
7.16796	0.705
7.20898	0.779
7.25	0.772
7.29101	0.678
7.33203	0.715
7.37304	0.772
7.41406	0.738
7.45507	0.667
7.49609	0.452
7.53711	0.284
7.57812	0.376
7.61914	0.52
7.66015	0.652
7.70117	0.698
7.74218	0.71
7.7832	0.715
7.82422	0.707
7.86523	0.744
7.90625	0.717
7.94726	0.679
7.98828	0.686
8.02929	0.645
8.07031	0.565
8.11133	0.527
8.15234	0.381
8.19336	0.195
8.23437	0.421
8.27539	0.549
8.3164	0.445
8.35742	0.369
8.39844	0.474
8.43945	0.481
8.48047	0.337
8.52148	0.296
8.5625	0.287
8.60351	0.241
8.64453	0.255
8.68555	0.261
8.72656	0.316
8.76758	0.458
8.80859	0.542
8.84961	0.633
8.89062	0.714
8.93164	0.775
8.97266	0.816
9.01367	0.83
9.05469	0.828
9.0957	0.82
9.13672	0.815
9.17773	0.825
9.21875	0.852
9.25977	0.866
9.30078	0.876
9.3418	0.88
9.38281	0.886
9.42383	0.895
9.46484	0.897
9.50586	0.886
9.54688	0.878
9.58789	0.883
9.62891	0.881
9.66992	0.852
9.71094	0.837
9.75195	0.847
9.79297	0.861
9.83399	0.832
9.875	0.772
9.91602	0.739
9.95703	0.796
9.99805	0.857
10.0391	0.886
10.0801	0.897
10.1211	0.904
10.1621	0.905
10.2031	0.904
10.2441	0.904
10.2852	0.904
10.3262	0.904
10.3672	0.902
10.4082	0.9
10.4492	0.898
10.4902	0.895
10.5313	0.893
10.5723	0.892
10.6133	0.892
10.6543	0.888
10.6953	0.881
10.7363	0.869
10.7773	0.845
10.8184	0.806
10.8594	0.785
10.9004	0.768
10.9414	0.794
10.9824	0.847
11.0234	0.864
11.0645	0.864
11.1055	0.851
11.1465	0.82
11.1875	0.801
11.2285	0.76
11.2695	0.695
11.3106	0.659
11.3516	0.654
11.3926	0.623
11.4336	0.563
11.4746	0.5
11.5156	0.409
11.5566	0.378
11.5977	0.359
11.6387	0.351
11.6797	0.375
11.7207	0.445
11.7617	0.542
11.8027	0.647
11.8438	0.727
11.8848	0.758
11.9258	0.743
11.9668	0.739
12.0078	0.768
12.0488	0.804
12.0899	0.832
12.1309	0.851
12.1719	0.861
12.2129	0.863
12.2539	0.861
12.2949	0.859
12.3359	0.859
12.377	0.857
12.418	0.854
12.459	0.851
12.5	0.851
12.541	0.851
12.582	0.847
12.6231	0.833
12.6641	0.818
12.7051	0.815
12.7461	0.815
12.7871	0.833
12.8281	0.84
12.8691	0.839
12.9102	0.837
12.9512	0.832
12.9922	0.827
13.0332	0.816
13.0742	0.804
13.1152	0.789
13.1563	0.77
13.1973	0.744
13.2383	0.707
13.2793	0.64
13.3203	0.587
13.3613	0.573
13.4024	0.565
13.4434	0.53
13.4844	0.477
13.5254	0.407
13.5664	0.321
13.6074	0.236
13.6484	0.207
13.6895	0.256
13.7305	0.381
13.7715	0.491
13.8125	0.566
13.8535	0.599
13.8945	0.619
13.9356	0.638
13.9766	0.655
14.0176	0.678
14.0586	0.688
14.0996	0.698
14.1406	0.7
14.1817	0.696
14.2227	0.691
14.2637	0.686
14.3047	0.679
14.3457	0.674
14.3867	0.666
14.4277	0.659
14.4688	0.65
14.5098	0.647
14.5508	0.638
14.5918	0.63
14.6328	0.618
14.6738	0.611
14.7149	0.599
14.7559	0.589
14.7969	0.575
14.8379	0.568
14.8789	0.551
14.9199	0.539
14.961	0.534
15.002	0.529
15.043	0.523
15.084	0.518
15.125	0.508
15.166	0.494
15.207	0.479
15.2481	0.469
15.2891	0.457
15.3301	0.443
15.3711	0.431
15.4121	0.416
15.4531	0.4
15.4942	0.368
15.5352	0.332
15.5762	0.301
15.6172	0.282
15.6582	0.279
15.6992	0.285
15.7402	0.294
15.7813	0.303
15.8223	0.309
15.8633	0.318
15.9043	0.316
15.9453	0.309
