Infrared Spectrum: 2,4,6-TRICHLORO ETHYL BENZENE
Formula: C8 H7 Cl3
CAS: 116373-11-6
State: SOLUTION (10% CCl4 FOR 2.5-7.5, 10% CS2 FOR 7.5-16 MICRON)
Class: COBLENTZ
Instrument: Not specified, most likely a prism, grating, or hybrid spectrometer.
Sampling: TRANSMISSION
Path length: 0.01 CM, 0.01 CM
Resolution: 4
Origin: DOW CHEMICAL COMPANY
MICROMETERS	TRANSMITTANCE
2.017	0.801
2.05607	0.811
2.09514	0.811
2.1342	0.809
2.17327	0.809
2.21234	0.814
2.25141	0.814
2.29047	0.812
2.32954	0.811
2.36861	0.816
2.40768	0.82
2.44675	0.822
2.48581	0.83
2.52488	0.833
2.56395	0.84
2.60302	0.843
2.64208	0.845
2.68115	0.819
2.72022	0.851
2.75929	0.85
2.79835	0.845
2.83742	0.843
2.87649	0.841
2.91556	0.841
2.95463	0.843
2.99369	0.845
3.03276	0.848
3.07183	0.851
3.1109	0.854
3.14996	0.858
3.18903	0.854
3.2281	0.854
3.26717	0.845
3.30624	0.848
3.3453	0.767
3.38437	0.52
3.42344	0.664
3.46251	0.753
3.50157	0.764
3.54064	0.864
3.57971	0.87
3.61878	0.874
3.65784	0.88
3.69691	0.882
3.73598	0.883
3.77505	0.89
3.81412	0.891
3.85318	0.893
3.89225	0.895
3.93132	0.895
3.97039	0.895
4.00945	0.893
4.04852	0.896
4.08759	0.898
4.12666	0.9
4.16573	0.896
4.20479	0.89
4.24386	0.891
4.28293	0.893
4.322	0.896
4.36106	0.893
4.40013	0.895
4.4392	0.898
4.47827	0.903
4.51733	0.906
4.5564	0.911
4.59547	0.911
4.63454	0.911
4.67361	0.911
4.71267	0.911
4.75174	0.911
4.79081	0.911
4.82988	0.914
4.86894	0.914
4.90801	0.916
4.94708	0.911
4.98615	0.903
5.02522	0.904
5.06428	0.906
5.10335	0.908
5.14242	0.911
5.18149	0.912
5.22055	0.914
5.25962	0.912
5.29869	0.904
5.33776	0.89
5.37682	0.898
5.41589	0.903
5.45496	0.9
5.49403	0.903
5.5331	0.903
5.57216	0.904
5.61123	0.911
5.6503	0.903
5.68937	0.9
5.72843	0.879
5.7675	0.867
5.80657	0.888
5.84564	0.891
5.88471	0.888
5.92377	0.887
5.96284	0.887
6.00191	0.891
6.04098	0.882
6.08004	0.87
6.11911	0.862
6.15818	0.85
6.19725	0.816
6.23631	0.767
6.27538	0.683
6.31445	0.604
6.35352	0.585
6.39259	0.543
6.43165	0.469
6.47072	0.454
6.50979	0.553
6.54886	0.614
6.58792	0.648
6.62699	0.695
6.66606	0.735
6.70513	0.743
6.7442	0.745
6.78326	0.614
6.82233	0.285
6.8614	0.208
6.90047	0.346
6.93953	0.362
6.9786	0.412
7.01767	0.68
7.05674	0.767
7.0958	0.793
7.13487	0.803
7.17394	0.727
7.21301	0.564
7.25208	0.579
7.29114	0.664
7.33021	0.716
7.36928	0.596
7.40835	0.687
7.44741	0.782
7.48648	0.777
7.52555	0.775
7.56462	0.791
7.60369	0.811
7.64275	0.861
7.68182	0.872
7.72089	0.872
7.75996	0.872
7.79902	0.87
7.83809	0.869
7.87716	0.87
7.91623	0.856
7.95529	0.841
7.99436	0.838
8.03343	0.822
8.0725	0.82
8.11157	0.812
8.15063	0.848
8.1897	0.864
8.22877	0.85
8.26784	0.819
8.3069	0.816
8.34597	0.832
8.38504	0.788
8.42411	0.677
8.46318	0.643
8.50224	0.683
8.54131	0.769
8.58038	0.817
8.61945	0.838
8.65851	0.843
8.69758	0.845
8.73665	0.801
8.77572	0.703
8.81478	0.603
8.85385	0.691
8.89292	0.798
8.93199	0.82
8.97106	0.824
9.01012	0.829
9.04919	0.829
9.08826	0.816
9.12733	0.732
9.16639	0.535
9.20546	0.459
9.24453	0.59
9.2836	0.451
9.32267	0.233
9.36173	0.275
9.4008	0.422
9.43987	0.472
9.47894	0.566
9.518	0.696
9.55707	0.803
9.59614	0.83
9.63521	0.85
9.67427	0.866
9.71334	0.875
9.75241	0.88
9.79148	0.89
9.83055	0.896
9.86961	0.893
9.90868	0.895
9.94775	0.896
9.98682	0.893
10.0259	0.887
10.065	0.874
10.104	0.869
10.1431	0.867
10.1822	0.85
10.2212	0.809
10.2603	0.795
10.2994	0.832
10.3384	0.872
10.3775	0.888
10.4166	0.895
10.4556	0.898
10.4947	0.901
10.5338	0.901
10.5728	0.9
10.6119	0.895
10.651	0.895
10.69	0.895
10.7291	0.898
10.7682	0.895
10.8072	0.896
10.8463	0.896
10.8854	0.896
10.9244	0.893
10.9635	0.891
11.0026	0.887
11.0416	0.879
11.0807	0.864
11.1198	0.853
11.1588	0.825
11.1979	0.783
11.237	0.704
11.2761	0.572
11.3151	0.395
11.3542	0.262
11.3933	0.464
11.4323	0.64
11.4714	0.706
11.5105	0.703
11.5495	0.669
11.5886	0.614
11.6277	0.608
11.6667	0.611
11.7058	0.604
11.7449	0.583
11.7839	0.616
11.823	0.698
11.8621	0.748
11.9011	0.777
11.9402	0.798
11.9793	0.812
12.0183	0.817
12.0574	0.82
12.0965	0.819
12.1355	0.801
12.1746	0.775
12.2137	0.743
12.2527	0.687
12.2918	0.625
12.3309	0.52
12.3699	0.338
12.409	0.187
12.4481	0.354
12.4872	0.562
12.5262	0.691
12.5653	0.751
12.6044	0.761
12.6434	0.753
12.6825	0.754
12.7216	0.775
12.7606	0.791
12.7997	0.795
12.8388	0.798
12.8778	0.795
12.9169	0.788
12.956	0.78
12.995	0.774
13.0341	0.756
13.0732	0.745
13.1122	0.756
13.1513	0.787
13.1904	0.801
13.2294	0.803
13.2685	0.808
13.3076	0.811
13.3466	0.811
13.3857	0.809
13.4248	0.806
13.4638	0.803
13.5029	0.798
13.542	0.79
13.581	0.783
13.6201	0.775
13.6592	0.769
13.6983	0.764
13.7373	0.766
13.7764	0.761
13.8155	0.751
13.8545	0.743
13.8936	0.716
13.9327	0.675
13.9717	0.637
14.0108	0.62
14.0499	0.63
14.0889	0.653
14.128	0.664
14.1671	0.68
14.2061	0.68
14.2452	0.672
14.2843	0.666
14.3233	0.659
14.3624	0.654
14.4015	0.653
14.4405	0.646
14.4796	0.641
14.5187	0.632
14.5577	0.62
14.5968	0.606
14.6359	0.583
14.6749	0.558
14.714	0.517
14.7531	0.461
14.7921	0.403
14.8312	0.346
14.8703	0.327
14.9094	0.329
14.9484	0.361
14.9875	0.411
15.0266	0.458
15.0656	0.472
15.1047	0.48
15.1438	0.482
15.1828	0.479
15.2219	0.475
15.261	0.469
15.3	0.462
15.3391	0.453
15.3782	0.45
15.4172	0.446
15.4563	0.443
15.4954	0.438
15.5344	0.43
15.5735	0.427
15.6126	0.422
15.6516	0.417
15.6907	0.416
15.7298	0.412
15.7688	0.409
15.8079	0.408
15.847	0.408
15.886	0.408
