Infrared Spectrum: 2,2 BIS(P-ALLYLOXY PHENYL) BUTANE
Formula: C22 H26 O2
CAS: 116346-12-4
State: SOLUTION (10% CCl4 FOR 2.5-7.5, 10% CS2 FOR 7.5-16 MICRONS)
Class: COBLENTZ
Instrument: Not specified, most likely a prism, grating, or hybrid spectrometer.
Sampling: TRANSMISSION
Path length: 0.01 CM, 0.01 CM
Resolution: 4
Origin: DOW CHEMICAL COMPANY
MICROMETERS	TRANSMITTANCE
2.011	0.875
2.05109	0.872
2.09118	0.869
2.13127	0.87
2.17136	0.864
2.21145	0.859
2.25154	0.842
2.29163	0.85
2.33172	0.854
2.37181	0.855
2.4119	0.852
2.45199	0.86
2.49208	0.87
2.53217	0.87
2.57226	0.874
2.61235	0.875
2.65244	0.877
2.69253	0.874
2.73262	0.872
2.77271	0.864
2.8128	0.847
2.85289	0.836
2.89298	0.865
2.93307	0.874
2.97316	0.872
3.01325	0.87
3.05334	0.869
3.09343	0.862
3.13352	0.847
3.17361	0.807
3.2137	0.68
3.25379	0.62
3.29388	0.612
3.33397	0.5
3.37406	0.316
3.41415	0.399
3.45424	0.448
3.49433	0.655
3.53442	0.802
3.57451	0.831
3.6146	0.837
3.65469	0.834
3.69478	0.86
3.73487	0.872
3.77496	0.872
3.81505	0.867
3.85514	0.862
3.89523	0.855
3.93532	0.85
3.97541	0.867
4.0155	0.855
4.05559	0.864
4.09568	0.854
4.13577	0.869
4.17586	0.872
4.21595	0.857
4.25604	0.849
4.29613	0.852
4.33622	0.854
4.37631	0.872
4.4164	0.879
4.45649	0.88
4.49658	0.882
4.53667	0.885
4.57676	0.885
4.61685	0.885
4.65694	0.882
4.69703	0.877
4.73712	0.872
4.77721	0.869
4.8173	0.85
4.85739	0.847
4.89748	0.847
4.93757	0.844
4.97766	0.849
5.01775	0.854
5.05784	0.869
5.09793	0.872
5.13802	0.874
5.17811	0.874
5.2182	0.855
5.25829	0.837
5.29838	0.791
5.33847	0.812
5.37856	0.802
5.41865	0.836
5.45874	0.865
5.49883	0.872
5.53892	0.875
5.57901	0.87
5.6191	0.865
5.65919	0.849
5.69928	0.855
5.73937	0.87
5.77946	0.87
5.81955	0.874
5.85964	0.87
5.89973	0.855
5.93982	0.842
5.97991	0.821
6.02	0.751
6.06009	0.685
6.10018	0.726
6.14027	0.609
6.18036	0.302
6.22045	0.263
6.26054	0.458
6.30063	0.331
6.34072	0.437
6.38081	0.461
6.4209	0.4
6.46099	0.4
6.50108	0.433
6.54117	0.362
6.58126	0.104
6.62135	0.062
6.66145	0.205
6.70154	0.485
6.74163	0.554
6.78172	0.476
6.82181	0.314
6.8619	0.45
6.90199	0.627
6.94208	0.62
6.98217	0.466
7.02226	0.5
7.06235	0.548
7.10244	0.66
7.14253	0.754
7.18262	0.655
7.22271	0.524
7.2628	0.551
7.30289	0.586
7.34298	0.61
7.38307	0.718
7.42316	0.711
7.46325	0.649
7.50334	0.655
7.54343	0.62
7.58352	0.463
7.62361	0.337
7.6637	0.253
7.70379	0.238
7.74388	0.278
7.78397	0.36
7.82406	0.418
7.86415	0.352
7.90424	0.241
7.94433	0.13
7.98442	0.059
8.02451	0.026
8.0646	0.062
8.10469	0.076
8.14478	0.076
8.18487	0.135
8.22496	0.284
8.26505	0.442
8.30514	0.541
8.34523	0.511
8.38532	0.306
8.42541	0.054
8.4655	0.134
8.50559	0.43
8.54568	0.612
8.58577	0.652
8.62586	0.61
8.66595	0.591
8.70604	0.637
8.74613	0.701
8.78622	0.72
8.82631	0.703
8.8664	0.657
8.90649	0.584
8.94658	0.566
8.98667	0.579
9.02676	0.572
9.06685	0.587
9.10694	0.645
9.14703	0.69
9.18712	0.71
9.22721	0.7
9.2673	0.716
9.30739	0.773
9.34748	0.776
9.38757	0.771
9.42766	0.746
9.46775	0.708
9.50784	0.645
9.54793	0.541
9.58802	0.43
9.62811	0.289
9.6682	0.162
9.70829	0.105
9.74838	0.12
9.78847	0.175
9.82856	0.248
9.86865	0.253
9.90874	0.264
9.94883	0.273
9.98892	0.195
10.029	0.167
10.0691	0.221
10.1092	0.302
10.1493	0.327
10.1894	0.326
10.2295	0.483
10.2695	0.615
10.3096	0.692
10.3497	0.733
10.3898	0.753
10.4299	0.756
10.47	0.748
10.5101	0.736
10.5502	0.726
10.5903	0.692
10.6304	0.624
10.6704	0.526
10.7105	0.387
10.7506	0.223
10.7907	0.145
10.8308	0.105
10.8709	0.152
10.911	0.352
10.9511	0.526
10.9912	0.612
11.0313	0.673
11.0713	0.71
11.1114	0.73
11.1515	0.733
11.1916	0.738
11.2317	0.738
11.2718	0.725
11.3119	0.695
11.352	0.673
11.3921	0.667
11.4322	0.663
11.4723	0.657
11.5123	0.649
11.5524	0.634
11.5925	0.61
11.6326	0.582
11.6727	0.548
11.7128	0.508
11.7529	0.496
11.793	0.506
11.8331	0.518
11.8732	0.478
11.9132	0.403
11.9533	0.288
11.9934	0.208
12.0335	0.082
12.0736	0.044
12.1137	0.044
12.1538	0.081
12.1939	0.162
12.234	0.281
12.2741	0.387
12.3141	0.455
12.3542	0.448
12.3943	0.407
12.4344	0.372
12.4745	0.402
12.5146	0.475
12.5547	0.566
12.5948	0.627
12.6349	0.668
12.675	0.693
12.715	0.706
12.7551	0.716
12.7952	0.721
12.8353	0.715
12.8754	0.711
12.9155	0.71
12.9556	0.713
12.9957	0.711
13.0358	0.706
13.0759	0.706
13.1159	0.72
13.156	0.725
13.1961	0.726
13.2362	0.706
13.2763	0.683
13.3164	0.673
13.3565	0.685
13.3966	0.703
13.4367	0.716
13.4768	0.723
13.5168	0.723
13.5569	0.705
13.597	0.678
13.6371	0.672
13.6772	0.675
13.7173	0.685
13.7574	0.688
13.7975	0.688
13.8376	0.698
13.8777	0.71
13.9177	0.716
13.9578	0.72
13.9979	0.72
14.038	0.715
14.0781	0.71
14.1182	0.703
14.1583	0.698
14.1984	0.692
14.2385	0.687
14.2786	0.68
14.3186	0.673
14.3587	0.665
14.3988	0.657
14.4389	0.65
14.479	0.642
14.5191	0.634
14.5592	0.624
14.5993	0.614
14.6394	0.602
14.6795	0.591
14.7195	0.579
14.7596	0.567
14.7997	0.561
14.8398	0.554
14.8799	0.546
14.92	0.534
14.9601	0.526
15.0002	0.521
15.0403	0.508
15.0804	0.504
15.1204	0.488
15.1605	0.475
15.2006	0.46
15.2407	0.448
15.2808	0.437
15.3209	0.427
15.361	0.418
15.4011	0.415
15.4412	0.41
15.4813	0.403
15.5213	0.397
15.5614	0.39
15.6015	0.385
15.6416	0.379
15.6817	0.37
15.7218	0.367
15.7619	0.362
15.802	0.357
15.8421	0.354
15.8822	0.352
