Infrared Spectrum: DIPHENACYL ISOPHTHALATE
Formula: C24 H18 O6
CAS: 116345-97-2
State: SOLID (NUJOL MULL)
Class: COBLENTZ
Instrument: Not specified, most likely a prism, grating, or hybrid spectrometer.
Sampling: TRANSMISSION
Resolution: 4
Origin: TENNESSEE EASTMAN COMPANY, RESEARCH LABORATORIES
MICROMETERS	TRANSMITTANCE
2.003	0.405
2.04289	0.41
2.08278	0.411
2.12267	0.416
2.16257	0.423
2.20246	0.43
2.24235	0.43
2.28224	0.43
2.32213	0.43
2.36202	0.43
2.40191	0.431
2.44181	0.433
2.4817	0.438
2.52159	0.453
2.56148	0.458
2.60137	0.463
2.64126	0.463
2.68115	0.476
2.72105	0.48
2.76094	0.493
2.80083	0.498
2.84072	0.496
2.88061	0.496
2.9205	0.496
2.96039	0.496
3.00029	0.498
3.04018	0.5
3.08007	0.5
3.11996	0.5
3.15985	0.498
3.19974	0.498
3.23963	0.486
3.27953	0.45
3.31942	0.398
3.35931	0.153
3.3992	0.05
3.43909	0.043
3.47898	0.09
3.51887	0.346
3.55877	0.56
3.59866	0.605
3.63855	0.611
3.67844	0.606
3.71833	0.606
3.75822	0.608
3.79811	0.61
3.83801	0.611
3.8779	0.615
3.91779	0.626
3.95768	0.641
3.99757	0.645
4.03746	0.645
4.07735	0.651
4.11725	0.656
4.15714	0.656
4.19703	0.665
4.23692	0.678
4.27681	0.688
4.3167	0.69
4.35659	0.69
4.39649	0.69
4.43638	0.693
4.47627	0.7
4.51616	0.701
4.55605	0.711
4.59594	0.716
4.63583	0.723
4.67573	0.726
4.71562	0.733
4.75551	0.738
4.7954	0.741
4.83529	0.745
4.87518	0.751
4.91507	0.756
4.95497	0.763
4.99486	0.765
5.03475	0.761
5.07464	0.763
5.11453	0.776
5.15442	0.783
5.19431	0.781
5.23421	0.783
5.2741	0.785
5.31399	0.798
5.35388	0.811
5.39377	0.811
5.43366	0.82
5.47355	0.825
5.51345	0.82
5.55334	0.823
5.59323	0.825
5.63312	0.801
5.67301	0.723
5.7129	0.57
5.75279	0.218
5.79269	0.441
5.83258	0.448
5.87247	0.215
5.91236	0.276
5.95225	0.445
5.99214	0.59
6.03203	0.658
6.07193	0.69
6.11182	0.74
6.15171	0.781
6.1916	0.773
6.23149	0.661
6.27138	0.5
6.31127	0.626
6.35117	0.653
6.39106	0.73
6.43095	0.76
6.47084	0.79
6.51073	0.8
6.55062	0.83
6.59051	0.831
6.63041	0.83
6.6703	0.82
6.71019	0.775
6.75008	0.705
6.78997	0.441
6.82986	0.348
6.86975	0.288
6.90965	0.441
6.94954	0.656
6.98943	0.636
7.02932	0.581
7.06921	0.663
7.1091	0.765
7.14899	0.8
7.18889	0.78
7.22878	0.571
7.26867	0.443
7.30856	0.3
7.34845	0.281
7.38834	0.56
7.42823	0.706
7.46813	0.78
7.50802	0.8
7.54791	0.831
7.5878	0.806
7.62769	0.79
7.66758	0.775
7.70747	0.733
7.74737	0.633
7.78726	0.481
7.82715	0.29
7.86704	0.401
7.90693	0.523
7.94682	0.37
7.98671	0.243
8.02661	0.226
8.0665	0.305
8.10639	0.353
8.14628	0.168
8.18617	0.108
8.22606	0.155
8.26595	0.253
8.30585	0.321
8.34574	0.365
8.38563	0.41
8.42552	0.453
8.46541	0.466
8.5053	0.51
8.54519	0.53
8.58509	0.525
8.62498	0.403
8.66487	0.423
8.70476	0.506
8.74465	0.551
8.78454	0.581
8.82443	0.601
8.86433	0.62
8.90422	0.65
8.94411	0.646
8.984	0.568
9.02389	0.475
9.06378	0.461
9.10367	0.51
9.14357	0.56
9.18346	0.6
9.22335	0.61
9.26324	0.61
9.30313	0.615
9.34302	0.658
9.38291	0.68
9.42281	0.693
9.4627	0.713
9.50259	0.723
9.54248	0.723
9.58237	0.723
9.62226	0.728
9.66215	0.721
9.70205	0.733
9.74194	0.74
9.78183	0.765
9.82172	0.786
9.86161	0.795
9.9015	0.801
9.94139	0.758
9.98129	0.703
10.0212	0.715
10.0611	0.776
10.101	0.791
10.1409	0.735
10.1807	0.651
10.2206	0.641
10.2605	0.633
10.3004	0.531
10.3403	0.381
10.3802	0.341
10.4201	0.365
10.46	0.415
10.4999	0.503
10.5398	0.551
10.5797	0.598
10.6195	0.611
10.6594	0.626
10.6993	0.633
10.7392	0.598
10.7791	0.616
10.819	0.666
10.8589	0.69
10.8988	0.71
10.9387	0.726
10.9786	0.741
11.0185	0.75
11.0584	0.756
11.0982	0.766
11.1381	0.77
11.178	0.775
11.2179	0.776
11.2578	0.78
11.2977	0.783
11.3376	0.788
11.3775	0.793
11.4174	0.793
11.4573	0.793
11.4972	0.798
11.5371	0.8
11.5769	0.801
11.6168	0.801
11.6567	0.783
11.6966	0.703
11.7365	0.676
11.7764	0.741
11.8163	0.783
11.8562	0.805
11.8961	0.815
11.936	0.821
11.9759	0.823
12.0157	0.82
12.0556	0.821
12.0955	0.82
12.1354	0.8
12.1753	0.763
12.2152	0.731
12.2551	0.73
12.295	0.726
12.3349	0.73
12.3748	0.756
12.4147	0.78
12.4546	0.783
12.4944	0.768
12.5343	0.766
12.5742	0.771
12.6141	0.786
12.654	0.801
12.6939	0.815
12.7338	0.821
12.7737	0.823
12.8136	0.823
12.8535	0.808
12.8934	0.783
12.9333	0.778
12.9731	0.756
13.013	0.706
13.0529	0.623
13.0928	0.5
13.1327	0.355
13.1726	0.281
13.2125	0.306
13.2524	0.42
13.2923	0.535
13.3322	0.616
13.3721	0.668
13.4119	0.69
13.4518	0.703
13.4917	0.705
13.5316	0.7
13.5715	0.673
13.6114	0.61
13.6513	0.516
13.6912	0.393
13.7311	0.265
13.771	0.26
13.8109	0.353
13.8508	0.456
13.8906	0.505
13.9305	0.505
13.9704	0.51
14.0103	0.575
14.0502	0.631
14.0901	0.663
14.13	0.68
14.1699	0.688
14.2098	0.688
14.2497	0.688
14.2896	0.686
14.3295	0.661
14.3693	0.628
14.4092	0.566
14.4491	0.488
14.489	0.428
14.5289	0.408
14.5688	0.423
14.6087	0.49
14.6486	0.563
14.6885	0.606
14.7284	0.625
14.7683	0.636
14.8081	0.636
14.848	0.636
14.8879	0.641
14.9278	0.65
14.9677	0.651
15.0076	0.656
15.0475	0.658
15.0874	0.658
15.1273	0.658
15.1672	0.658
15.2071	0.656
15.247	0.658
15.2868	0.655
15.3267	0.651
15.3666	0.65
15.4065	0.648
15.4464	0.648
15.4863	0.65
15.5262	0.65
15.5661	0.651
15.606	0.651
15.6459	0.651
15.6858	0.651
15.7257	0.65
15.7655	0.65
15.8054	0.651
15.8453	0.651
15.8852	0.651
15.9251	0.651
15.965	0.651
