Infrared Spectrum: Cyclohexanebutyramide, 4,4-dimethyl-2,6-dioxo-
Formula: C12 H19 N O3
CAS: 116373-15-0
State: SOLID (0.8 mg / 650 mg KBr DISC)
Class: COBLENTZ III
Instrument: PERKIN-ELMER 21 (GRATING)
Instrument parameters: FILTER CHANGE ABOUT 1070 CM^-^1
Sampling: TRANSMISSION
Resolution: 2
Origin: SOUTHERN RESEARCH INSTITUTE
1/CM	TRANSMITTANCE
619	0.8237
628	0.7745
637	0.6884
646	0.6102
655	0.6134
664	0.6305
673	0.6412
682	0.6521
691	0.6911
700	0.744
709	0.7871
718	0.7967
727	0.7997
736	0.8223
745	0.8143
754	0.7868
763	0.7691
772	0.7624
781	0.7612
790	0.7437
799	0.7209
808	0.7225
817	0.755
826	0.7838
835	0.7812
844	0.7738
853	0.7503
862	0.7134
871	0.6536
880	0.6428
889	0.6635
898	0.6579
907	0.6715
916	0.6713
925	0.7011
934	0.7215
943	0.7328
952	0.73
961	0.7126
970	0.6949
979	0.7151
988	0.7225
997	0.73
1006	0.7139
1015	0.6994
1024	0.6835
1033	0.6654
1042	0.6277
1051	0.5728
1060	0.4031
1069	0.5016
1078	0.5658
1087	0.5396
1096	0.53
1105	0.54
1114	0.5297
1123	0.5253
1132	0.3953
1141	0.2213
1150	0.3754
1159	0.4093
1168	0.3547
1177	0.7044
1186	0.6927
1195	0.646
1204	0.5757
1213	0.5616
1222	0.5374
1231	0.4834
1240	0.3235
1249	0.4212
1258	0.4566
1267	0.474
1276	0.4496
1285	0.414
1294	0.3206
1303	0.3759
1312	0.3624
1321	0.3445
1330	0.264
1339	0.2424
1348	0.2407
1357	0.1736
1366	0.079
1375	0.0304
1384	0.0693
1393	0.159
1402	0.2508
1411	0.3051
1420	0.2953
1429	0.3562
1438	0.2937
1447	0.3095
1456	0.4006
1465	0.5697
1474	0.593
1483	0.5933
1492	0.5899
1501	0.5787
1510	0.5493
1519	0.5061
1528	0.4725
1537	0.4327
1546	0.3212
1555	0.289
1564	0.2104
1573	0.0895
1582	0.0185
1591	0.0251
1600	0.0631
1609	0.1226
1618	0.3144
1627	0.3627
1636	0.3851
1645	0.3842
1654	0.3206
1663	0.1904
1672	0.2032
1681	0.3872
1690	0.4719
1699	0.5841
1708	0.6363
1717	0.6688
1726	0.7081
1735	0.7532
1744	0.7733
1753	0.789
1762	0.7987
1771	0.8156
1780	0.8243
1789	0.8309
1798	0.8383
1807	0.8463
1816	0.8519
1825	0.8575
1834	0.8631
1843	0.8686
1852	0.8722
1861	0.8747
1870	0.8773
1879	0.8822
1888	0.8864
1897	0.888
1906	0.8896
1915	0.8914
1924	0.8926
1933	0.8937
1942	0.8969
1951	0.8989
1960	0.8997
1969	0.9003
1978	0.9008
1987	0.9007
1996	0.9005
2005	0.8997
2014	0.8979
2023	0.896
2032	0.8945
2041	0.893
2050	0.8915
2059	0.8898
2068	0.8879
2077	0.886
2086	0.8835
2095	0.8809
2104	0.8784
2113	0.8753
2122	0.8717
2131	0.8699
2140	0.8667
2149	0.8635
2158	0.8606
2167	0.8574
2176	0.8541
2185	0.8494
2194	0.8447
2203	0.84
2212	0.8349
2221	0.8297
2230	0.8246
2239	0.8192
2248	0.8117
2257	0.8042
2266	0.7952
2275	0.7809
2284	0.7695
2293	0.7594
2302	0.7493
2311	0.7418
2320	0.737
2329	0.734
2338	0.7312
2347	0.7279
2356	0.724
2365	0.7197
2374	0.7142
2383	0.7067
2392	0.696
2401	0.6852
2410	0.6723
2419	0.6602
2428	0.647
2437	0.6343
2446	0.6271
2455	0.6213
2464	0.6133
2473	0.6008
2482	0.5972
2491	0.5837
2500	0.571
2509	0.56
2518	0.5476
2527	0.535
2536	0.5227
2545	0.5107
2554	0.4986
2563	0.4856
2572	0.4753
2581	0.4674
2590	0.4627
2599	0.4619
2608	0.4628
2617	0.4644
2626	0.4666
2635	0.4694
2644	0.4759
2653	0.4813
2662	0.4984
2671	0.5177
2680	0.5306
2689	0.538
2698	0.5404
2707	0.5396
2716	0.5368
2725	0.5337
2734	0.5295
2743	0.5253
2752	0.5176
2761	0.5067
2770	0.484
2779	0.4694
2788	0.4609
2797	0.4456
2806	0.4291
2815	0.4048
2824	0.3826
2833	0.363
2842	0.3464
2851	0.3395
2860	0.3331
2869	0.3276
2878	0.3215
2887	0.3132
2896	0.2909
2905	0.2936
2914	0.2907
2923	0.2851
2932	0.2907
2941	0.3384
2950	0.4087
2959	0.425
2968	0.441
2977	0.4453
2986	0.4478
2995	0.447
3004	0.4463
3013	0.4458
3022	0.4453
3031	0.4442
3040	0.4425
3049	0.4419
3058	0.4423
3067	0.4432
3076	0.4426
3085	0.4367
3094	0.4301
3103	0.4212
3112	0.4003
3121	0.3606
3130	0.3376
3139	0.3201
3148	0.3105
3157	0.3039
3166	0.3024
3175	0.31
3184	0.3319
3193	0.3559
3202	0.3811
3211	0.4038
3220	0.4053
3229	0.4003
3238	0.3925
3247	0.3832
3256	0.3739
3265	0.3642
3274	0.3527
3283	0.3396
3292	0.3251
3301	0.3085
3310	0.29
3319	0.2835
3328	0.2838
3337	0.2864
3346	0.2859
3355	0.2823
3364	0.2828
3373	0.2884
3382	0.3159
3391	0.3652
3400	0.4059
3409	0.4404
3418	0.4779
3427	0.5165
3436	0.5508
3445	0.5852
3454	0.6079
3463	0.6205
3472	0.6423
3481	0.6607
3490	0.6748
3499	0.6889
3508	0.6904
3517	0.705
3526	0.7247
3535	0.7386
3544	0.7472
3553	0.7678
3562	0.7776
3571	0.7923
3580	0.811
3589	0.8221
3598	0.8295
3607	0.8405
3616	0.8513
3625	0.856
3634	0.8572
3643	0.8584
3652	0.859
3661	0.8616
3670	0.8657
3679	0.8669
3688	0.8698
3697	0.8727
3706	0.8716
3715	0.8716
3724	0.8716
3733	0.8709
3742	0.8664
3751	0.8623
3760	0.8648
3769	0.8693
3778	0.8688
3787	0.8675
3796	0.8659
3805	0.8646
3814	0.8641
3823	0.8638
3832	0.8633
3841	0.8627
3850	0.8622
3859	0.8618
3868	0.8609
3877	0.8592
3886	0.8584
3895	0.8626
3904	0.8628
3913	0.8624
3922	0.8622
3931	0.8622
3940	0.8622
3949	0.862
3958	0.8614
3967	0.8611
3976	0.8612
3985	0.8617
3994	0.8627
4003	0.8637
4012	0.8659
4021	0.8681
4030	0.873
4039	0.8792
4048	0.8832
