Infrared Spectrum: Acetic acid, (3-ethyl-4-methyl-7-coumarinyloxy)-, ethyl ester
Formula: C16 H18 O5
CAS: 116373-43-4
State: SOLID (OIL MULL)
Class: COBLENTZ III
Instrument: PERKIN-ELMER 21 (GRATING)
Instrument parameters: NaCl PRISM
Sampling: TRANSMISSION
Resolution: 2
Origin: SMITH, KLINE & FRENCH LABS.
1/CM	TRANSMITTANCE
667	0.6949
676	0.7145
685	0.7232
694	0.727
703	0.7141
712	0.6739
721	0.6156
730	0.6642
739	0.7145
748	0.7186
757	0.6935
766	0.6036
775	0.5429
784	0.7257
793	0.7313
802	0.718
811	0.6055
820	0.4514
829	0.6918
838	0.6772
847	0.5915
856	0.511
865	0.6637
874	0.7017
883	0.7131
892	0.7117
901	0.71
910	0.7004
919	0.676
928	0.6284
937	0.6945
946	0.6794
955	0.6704
964	0.6373
973	0.5963
982	0.6312
991	0.612
1000	0.5536
1009	0.5115
1018	0.4901
1027	0.5745
1036	0.5587
1045	0.4813
1054	0.4074
1063	0.3554
1072	0.3517
1081	0.3397
1090	0.3668
1099	0.5857
1108	0.6003
1117	0.6127
1126	0.5839
1135	0.5276
1144	0.4179
1153	0.4903
1162	0.4195
1171	0.3139
1180	0.1972
1189	0.4084
1198	0.3126
1207	0.1783
1216	0.1719
1225	0.273
1234	0.4279
1243	0.5457
1252	0.5175
1261	0.599
1270	0.6142
1279	0.5862
1288	0.4855
1297	0.6254
1306	0.6416
1315	0.6118
1324	0.6379
1333	0.6084
1342	0.5585
1351	0.5293
1360	0.3602
1369	0.3738
1378	0.2314
1387	0.2519
1396	0.4824
1405	0.5308
1414	0.5073
1423	0.4207
1432	0.2822
1441	0.3036
1450	0.2141
1459	0.1729
1468	0.1811
1477	0.4382
1486	0.5741
1495	0.5891
1504	0.5536
1513	0.5845
1522	0.6697
1531	0.6677
1540	0.6441
1549	0.6256
1558	0.5927
1567	0.5807
1576	0.562
1585	0.5231
1594	0.4774
1603	0.3312
1612	0.1966
1621	0.3303
1630	0.5043
1639	0.5831
1648	0.5736
1657	0.5597
1666	0.5336
1675	0.4582
1684	0.3653
1693	0.291
1702	0.1234
1711	0.119
1720	0.2601
1729	0.4011
1738	0.5407
1747	0.5513
1756	0.3537
1765	0.1671
1774	0.3227
1783	0.5742
1792	0.6965
1801	0.7331
1810	0.744
1819	0.7498
1828	0.7553
1837	0.7654
1846	0.7661
1855	0.7657
1864	0.7639
1873	0.759
1882	0.7536
1891	0.7467
1900	0.7539
1909	0.7551
1918	0.7534
1927	0.7516
1936	0.7505
1945	0.7486
1954	0.746
1963	0.7436
1972	0.7413
1981	0.7395
1990	0.738
1999	0.736
2008	0.7337
2017	0.7315
2026	0.7299
2035	0.7302
2044	0.7288
2053	0.7248
2062	0.721
2071	0.719
2080	0.7189
2089	0.719
2098	0.7193
2107	0.7196
2116	0.72
2125	0.7183
2134	0.7151
2143	0.7127
2152	0.7122
2161	0.7113
2170	0.7099
2179	0.7078
2188	0.7059
2197	0.7044
2206	0.7028
2215	0.701
2224	0.6994
2233	0.6978
2242	0.6946
2251	0.6903
2260	0.6848
2269	0.6789
2278	0.6734
2287	0.6701
2296	0.6668
2305	0.6633
2314	0.6608
2323	0.6595
2332	0.6591
2341	0.6586
2350	0.6584
2359	0.6584
2368	0.6583
2377	0.6582
2386	0.6583
2395	0.6585
2404	0.6588
2413	0.6577
2422	0.6559
2431	0.6533
2440	0.6523
2449	0.652
2458	0.6518
2467	0.6513
2476	0.6466
2485	0.64
2494	0.6384
2503	0.6373
2512	0.6363
2521	0.6353
2530	0.6348
2539	0.6342
2548	0.6327
2557	0.63
2566	0.6203
2575	0.6148
2584	0.6104
2593	0.6065
2602	0.602
2611	0.5975
2620	0.5932
2629	0.5889
2638	0.5855
2647	0.5822
2656	0.5788
2665	0.575
2674	0.5712
2683	0.5677
2692	0.5646
2701	0.5616
2710	0.5587
2719	0.5563
2728	0.5541
2737	0.5515
2746	0.5477
2755	0.5436
2764	0.5367
2773	0.5216
2782	0.4947
2791	0.4615
2800	0.412
2809	0.3059
2818	0.2007
2827	0.1309
2836	0.0897
2845	0.0432
2854	0.036
2863	0.0339
2872	0.0318
2881	0.0277
2890	0.023
2899	0.0217
2908	0.0228
2917	0.0249
2926	0.0299
2935	0.0368
2944	0.0482
2953	0.0965
2962	0.1691
2971	0.2411
2980	0.3127
2989	0.3807
2998	0.4375
3007	0.4579
3016	0.4684
3025	0.4736
3034	0.4776
3043	0.4782
3052	0.4799
3061	0.4873
3070	0.4982
3079	0.5049
3088	0.5068
3097	0.5068
3106	0.5069
3115	0.507
3124	0.507
3133	0.5071
3142	0.5071
3151	0.5055
3160	0.5025
3169	0.5004
3178	0.4995
3187	0.499
3196	0.4985
3205	0.4982
3214	0.4978
3223	0.4976
3232	0.4974
3241	0.4971
3250	0.4968
3259	0.4965
3268	0.4962
3277	0.4959
3286	0.4957
3295	0.4954
3304	0.4951
3313	0.4948
3322	0.4945
3331	0.4943
3340	0.4944
3349	0.4945
3358	0.4947
3367	0.4949
3376	0.495
3385	0.4952
3394	0.496
3403	0.4968
3412	0.4977
3421	0.4985
3430	0.4994
3439	0.5001
3448	0.4994
3457	0.4983
3466	0.4972
3475	0.4965
3484	0.4959
3493	0.4955
3502	0.4949
3511	0.4947
3520	0.4945
3529	0.4944
3538	0.4943
3547	0.4941
3556	0.4939
3565	0.4936
3574	0.4932
3583	0.4924
3592	0.4915
3601	0.4906
3610	0.4897
3619	0.4887
3628	0.4875
3637	0.4864
3646	0.4853
3655	0.4842
3664	0.4832
3673	0.4821
3682	0.4811
3691	0.4801
3700	0.4792
3709	0.4782
3718	0.4771
3727	0.476
3736	0.4749
3745	0.4737
3754	0.4726
3763	0.4714
3772	0.4694
3781	0.4671
3790	0.4652
3799	0.4638
3808	0.4624
3817	0.461
3826	0.4596
3835	0.459
3844	0.4589
3853	0.4588
3862	0.4587
3871	0.4586
3880	0.4586
3889	0.4587
3898	0.4587
3907	0.4589
3916	0.459
3925	0.459
3934	0.4584
3943	0.4579
3952	0.4573
3961	0.4564
3970	0.4552
3979	0.4542
3988	0.453
3997	0.4518
