Infrared Spectrum: O-NITRO CARBANILIC ACID, NEROL ESTER
Formula: C17 H22 N2 O4
CAS: 116373-28-5
Class: COBLENTZ
Instrument: Not specified, most likely a grating spectrometer.
Sampling: TRANSMISSION
Path length: CAPILLARY
Resolution: 4
Origin: CITRUS EXPERIMENT STATION, UNIVERSITY OF FLORIDA (G. EDWARDS)
MICROMETERS	TRANSMITTANCE
2.04	0.92
2.07317	0.92
2.10635	0.92
2.13952	0.916
2.1727	0.912
2.20587	0.912
2.23905	0.912
2.27222	0.912
2.3054	0.916
2.33857	0.916
2.37175	0.916
2.40492	0.918
2.43809	0.918
2.47127	0.916
2.50444	0.912
2.53762	0.908
2.57079	0.906
2.60397	0.901
2.63714	0.9
2.67032	0.898
2.70349	0.898
2.73666	0.898
2.76984	0.894
2.80301	0.884
2.83619	0.876
2.86936	0.853
2.90254	0.796
2.93571	0.728
2.96889	0.818
3.00206	0.893
3.03524	0.897
3.06841	0.893
3.10158	0.885
3.13476	0.872
3.16793	0.858
3.20111	0.849
3.23428	0.829
3.26746	0.798
3.30063	0.745
3.33381	0.677
3.36698	0.665
3.40015	0.689
3.43333	0.754
3.4665	0.8
3.49968	0.876
3.53285	0.901
3.56603	0.908
3.5992	0.909
3.63238	0.912
3.66555	0.913
3.69873	0.914
3.7319	0.914
3.76507	0.91
3.79825	0.91
3.83142	0.914
3.8646	0.917
3.89777	0.92
3.93095	0.918
3.96412	0.913
3.9973	0.912
4.03047	0.91
4.06364	0.91
4.09682	0.908
4.12999	0.905
4.16317	0.904
4.19634	0.905
4.22952	0.908
4.26269	0.909
4.29587	0.91
4.32904	0.91
4.36222	0.913
4.39539	0.913
4.42856	0.912
4.46174	0.91
4.49491	0.912
4.52809	0.916
4.56126	0.918
4.59444	0.918
4.62761	0.918
4.66079	0.918
4.69396	0.917
4.72713	0.916
4.76031	0.914
4.79348	0.914
4.82666	0.913
4.85983	0.913
4.89301	0.913
4.92618	0.913
4.95936	0.913
4.99253	0.91
5.02571	0.91
5.05888	0.912
5.09205	0.909
5.12523	0.908
5.1584	0.908
5.19158	0.905
5.22475	0.902
5.25793	0.9
5.2911	0.897
5.32428	0.889
5.35745	0.884
5.39062	0.872
5.4238	0.862
5.45697	0.854
5.49015	0.846
5.52332	0.822
5.5565	0.79
5.58967	0.741
5.62285	0.641
5.65602	0.509
5.6892	0.422
5.72237	0.49
5.75554	0.653
5.78872	0.765
5.82189	0.793
5.85507	0.789
5.88824	0.789
5.92142	0.774
5.95459	0.76
5.98777	0.754
6.02094	0.741
6.05411	0.72
6.08729	0.676
6.12046	0.597
6.15364	0.462
6.18681	0.439
6.21999	0.572
6.25316	0.487
6.28634	0.398
6.31951	0.644
6.35269	0.651
6.38586	0.556
6.41903	0.512
6.45221	0.435
6.48538	0.411
6.51856	0.28
6.55173	0.267
6.58491	0.303
6.61808	0.318
6.65126	0.483
6.68443	0.611
6.7176	0.603
6.75078	0.507
6.78395	0.467
6.81713	0.338
6.8503	0.334
6.88348	0.328
6.91665	0.307
6.94983	0.387
6.983	0.476
7.01618	0.596
7.04935	0.624
7.08252	0.648
7.1157	0.645
7.14887	0.633
7.18205	0.6
7.21522	0.596
7.2484	0.629
7.28157	0.635
7.31475	0.559
7.34792	0.482
7.38109	0.254
7.41427	0.231
7.44744	0.37
7.48062	0.532
7.51379	0.56
7.54697	0.52
7.58014	0.549
7.61332	0.564
7.64649	0.56
7.67967	0.539
7.71284	0.49
7.74601	0.411
7.77919	0.363
7.81236	0.379
7.84554	0.431
7.87871	0.499
7.91189	0.527
7.94506	0.491
7.97824	0.392
8.01141	0.245
8.04458	0.215
8.07776	0.323
8.11093	0.455
8.14411	0.535
8.17728	0.503
8.21046	0.442
8.24363	0.298
8.27681	0.183
8.30998	0.146
8.34316	0.201
8.37633	0.358
8.4095	0.537
8.44268	0.637
8.47585	0.683
8.50903	0.673
8.5422	0.607
8.57538	0.559
8.60855	0.599
8.64173	0.651
8.6749	0.609
8.70807	0.663
8.74125	0.77
8.77442	0.804
8.8076	0.817
8.84077	0.814
8.87395	0.802
8.90712	0.78
8.9403	0.752
8.97347	0.743
9.00665	0.74
9.03982	0.733
9.07299	0.727
9.10617	0.703
9.13934	0.667
9.17252	0.621
9.20569	0.627
9.23887	0.696
9.27204	0.762
9.30522	0.773
9.33839	0.764
9.37156	0.749
9.40474	0.699
9.43791	0.62
9.47109	0.551
9.50426	0.508
9.53744	0.495
9.57061	0.466
9.60379	0.462
9.63696	0.47
9.67014	0.521
9.70331	0.577
9.73648	0.641
9.76966	0.701
9.80283	0.74
9.83601	0.773
9.86918	0.79
9.90236	0.797
9.93553	0.798
9.96871	0.792
10.0019	0.785
10.0351	0.773
10.0682	0.753
10.1014	0.743
10.1346	0.732
10.1678	0.732
10.2009	0.732
10.2341	0.731
10.2673	0.731
10.3005	0.728
10.3336	0.721
10.3668	0.717
10.4	0.72
10.4331	0.721
10.4663	0.737
10.4995	0.761
10.5327	0.77
10.5658	0.77
10.599	0.75
10.6322	0.74
10.6654	0.731
10.6985	0.733
10.7317	0.749
10.7649	0.782
10.7981	0.809
10.8312	0.832
10.8644	0.849
10.8976	0.861
10.9308	0.872
10.9639	0.882
10.9971	0.885
11.0303	0.886
11.0635	0.884
11.0966	0.882
11.1298	0.878
11.163	0.874
11.1962	0.869
11.2293	0.866
11.2625	0.864
11.2957	0.853
11.3289	0.849
11.362	0.833
11.3952	0.817
11.4284	0.79
11.4616	0.753
11.4947	0.707
11.5279	0.631
11.5611	0.617
11.5943	0.681
11.6274	0.732
11.6606	0.752
11.6938	0.752
11.727	0.749
11.7601	0.748
11.7933	0.748
11.8265	0.748
11.8597	0.748
11.8928	0.748
11.926	0.753
11.9592	0.758
11.9924	0.764
12.0255	0.764
12.0587	0.765
12.0919	0.769
12.125	0.78
12.1582	0.785
12.1914	0.797
12.2246	0.806
12.2577	0.809
12.2909	0.81
12.3241	0.808
12.3573	0.806
12.3904	0.804
12.4236	0.798
12.4568	0.786
12.49	0.758
12.5231	0.733
12.5563	0.704
12.5895	0.687
12.6227	0.683
12.6558	0.673
12.689	0.656
12.7222	0.608
12.7554	0.597
12.7885	0.613
12.8217	0.671
12.8549	0.707
12.8881	0.724
12.9212	0.711
12.9544	0.699
12.9876	0.664
13.0208	0.641
13.0539	0.641
13.0871	0.659
13.1203	0.689
13.1535	0.72
13.1866	0.732
13.2198	0.729
13.253	0.72
13.2862	0.692
13.3193	0.648
13.3525	0.575
13.3857	0.495
13.4189	0.424
13.452	0.394
13.4852	0.402
13.5184	0.431
13.5516	0.516
13.5847	0.584
13.6179	0.636
13.6511	0.668
13.6843	0.689
13.7174	0.704
13.7506	0.719
13.7838	0.732
13.8169	0.741
13.8501	0.749
13.8833	0.75
13.9165	0.75
13.9496	0.749
13.9828	0.748
14.016	0.744
14.0492	0.74
14.0823	0.737
14.1155	0.735
14.1487	0.732
14.1819	0.724
14.215	0.72
14.2482	0.715
14.2814	0.708
14.3146	0.699
14.3477	0.689
14.3809	0.671
14.4141	0.661
14.4473	0.635
14.4804	0.612
14.5136	0.605
14.5468	0.604
14.58	0.604
14.6131	0.603
14.6463	0.6
14.6795	0.581
14.7127	0.579
14.7458	0.575
14.779	0.579
14.8122	0.583
14.8454	0.584
14.8785	0.585
14.9117	0.587
14.9449	0.583
14.9781	0.579
15.0112	0.575
