Infrared Spectrum: BENZENE, 1,1'-OXYBIS[PENTABROMO-
Formula: C12 Br10 O
CAS: 1163-19-5
State: SOLID (5 mg / 250 mg CsI PELLET)
Class: COBLENTZ III
Instrument: PERKIN-ELMER 283
Sampling: TRANSMISSION
Path length: 1.3 CM PELLET
Resolution: 4
Origin: PERKIN-ELMER
1/CM	TRANSMITTANCE
201.754	0.95
211.501	0.947
221.247	0.948
230.994	0.95
240.74	0.952
250.487	0.945
260.234	0.948
269.98	0.913
279.727	0.943
289.473	0.945
299.22	0.947
308.967	0.944
318.713	0.952
328.46	0.953
338.206	0.952
347.953	0.948
357.7	0.927
367.446	0.952
377.193	0.95
386.939	0.95
396.686	0.949
406.433	0.952
416.179	0.941
425.926	0.945
435.672	0.944
445.419	0.949
455.166	0.941
464.912	0.945
474.659	0.943
484.405	0.945
494.152	0.947
503.899	0.948
513.645	0.948
523.392	0.947
533.138	0.943
542.885	0.935
552.632	0.912
562.378	0.789
572.125	0.917
581.871	0.94
591.618	0.935
601.365	0.895
611.111	0.866
620.858	0.843
630.604	0.905
640.351	0.921
650.098	0.922
659.844	0.921
669.591	0.913
679.337	0.847
689.084	0.923
698.831	0.905
708.577	0.808
718.324	0.782
728.07	0.922
737.817	0.922
747.563	0.901
757.31	0.759
767.057	0.914
776.803	0.931
786.55	0.944
796.296	0.944
806.043	0.949
815.79	0.95
825.536	0.953
835.283	0.952
845.029	0.947
854.776	0.95
864.523	0.943
874.269	0.945
884.016	0.908
893.762	0.944
903.509	0.945
913.256	0.944
923.002	0.936
932.749	0.932
942.495	0.913
952.242	0.866
961.989	0.708
971.735	0.6691
981.482	0.913
991.228	0.923
1000.98	0.926
1010.72	0.922
1020.47	0.918
1030.21	0.919
1039.96	0.918
1049.71	0.91
1059.45	0.888
1069.2	0.897
1078.95	0.851
1088.69	0.866
1098.44	0.891
1108.19	0.887
1117.93	0.882
1127.68	0.881
1137.43	0.899
1147.17	0.897
1156.92	0.888
1166.67	0.897
1176.41	0.896
1186.16	0.896
1195.91	0.882
1205.65	0.886
1215.4	0.837
1225.15	0.881
1234.89	0.826
1244.64	0.835
1254.39	0.854
1264.13	0.851
1273.88	0.82
1283.63	0.855
1293.37	0.804
1303.12	0.726
1312.87	0.4709
1322.61	0.412
1332.36	0.392
1342.11	0.2189
1351.85	0.1
1361.6	0.1961
1371.35	0.4881
1381.09	0.705
1390.84	0.786
1400.59	0.715
1410.33	0.806
1420.08	0.872
1429.83	0.885
1439.57	0.875
1449.32	0.881
1459.07	0.885
1468.81	0.891
1478.56	0.897
1488.3	0.868
1498.05	0.78
1507.8	0.751
1517.54	0.851
1527.29	0.89
1537.04	0.894
1546.78	0.888
1556.53	0.866
1566.28	0.887
1576.02	0.895
1585.77	0.9
1595.52	0.901
1605.26	0.901
1615.01	0.903
1624.76	0.903
1634.5	0.903
1644.25	0.903
1654	0.903
1663.74	0.903
1673.49	0.901
1683.24	0.903
1692.98	0.903
1702.73	0.901
1712.48	0.899
1722.22	0.897
1731.97	0.894
1741.72	0.894
1751.46	0.899
1761.21	0.903
1770.96	0.9
1780.7	0.904
1790.45	0.904
1800.2	0.903
1809.94	0.903
1819.69	0.9
1829.44	0.897
1839.18	0.895
1848.93	0.899
1858.68	0.901
1868.42	0.901
1878.17	0.901
1887.92	0.901
1897.66	0.9
1907.41	0.899
1917.16	0.9
1926.9	0.9
1936.65	0.899
1946.4	0.892
1956.14	0.891
1965.89	0.89
1975.63	0.894
1985.38	0.894
1995.13	0.888
2004.87	0.89
2014.62	0.888
2024.37	0.8859
2034.11	0.885
2043.86	0.8859
2053.61	0.883
2063.35	0.886
2073.1	0.886
2082.85	0.8814
2092.59	0.882
2102.34	0.8802
2112.09	0.8774
2121.83	0.8786
2131.58	0.879
2141.33	0.878
2151.07	0.881
2160.82	0.8783
2170.57	0.8787
2180.31	0.8783
2190.06	0.875
2199.81	0.879
2209.55	0.8747
2219.3	0.874
2229.05	0.869
2238.79	0.8638
2248.54	0.874
2258.29	0.875
2268.03	0.874
2277.78	0.8734
2287.53	0.8728
2297.27	0.879
2307.02	0.8704
2316.77	0.8699
2326.51	0.8691
2336.26	0.869
2346.01	0.869
2355.75	0.869
2365.5	0.8682
2375.25	0.866
2384.99	0.8653
2394.74	0.8689
2404.49	0.864
2414.23	0.863
2423.98	0.864
2433.72	0.859
2443.47	0.863
2453.22	0.8611
2462.96	0.8649
2472.71	0.861
2482.46	0.8589
2492.2	0.857
2501.95	0.857
2511.7	0.86
2521.44	0.8609
2531.19	0.859
2540.94	0.86
2550.68	0.855
2560.43	0.8551
2570.18	0.8558
2579.92	0.852
2589.67	0.852
2599.42	0.852
2609.16	0.8536
2618.91	0.852
2628.66	0.852
2638.4	0.852
2648.15	0.851
2657.9	0.851
2667.64	0.851
2677.39	0.85
2687.14	0.8486
2696.88	0.85
2706.63	0.848
2716.38	0.8437
2726.12	0.839
2735.87	0.8474
2745.62	0.8476
2755.36	0.843
2765.11	0.8488
2774.86	0.8476
2784.6	0.842
2794.35	0.843
2804.1	0.844
2813.84	0.8426
2823.59	0.839
2833.34	0.838
2843.08	0.836
2852.83	0.82
2862.58	0.821
2872.32	0.8295
2882.07	0.8311
2891.82	0.8274
2901.56	0.8205
2911.31	0.8104
2921.05	0.8064
2930.8	0.8026
2940.55	0.806
2950.29	0.8126
2960.04	0.8149
2969.79	0.821
2979.53	0.819
2989.28	0.82
2999.03	0.821
3008.77	0.822
3018.52	0.825
3028.27	0.822
3038.01	0.8243
3047.76	0.824
3057.51	0.821
3067.25	0.82
3077	0.82
3086.75	0.817
3096.49	0.815
3106.24	0.817
3115.99	0.815
3125.73	0.815
3135.48	0.8134
3145.23	0.812
3154.97	0.812
3164.72	0.8121
3174.47	0.812
3184.21	0.811
3193.96	0.8082
3203.71	0.804
3213.45	0.8069
3223.2	0.806
3232.95	0.806
3242.69	0.7982
3252.44	0.798
3262.19	0.799
3271.93	0.799
3281.68	0.79
3291.43	0.79
3301.17	0.793
3310.92	0.79
3320.67	0.788
3330.41	0.79
3340.16	0.7899
3349.91	0.7878
3359.65	0.785
3369.4	0.78
3379.14	0.779
3388.89	0.773
3398.64	0.775
3408.38	0.771
3418.13	0.771
3427.88	0.77
3437.62	0.7668
3447.37	0.77
3457.12	0.77
3466.86	0.768
3476.61	0.7656
3486.36	0.768
3496.1	0.766
3505.85	0.77
3515.6	0.7655
3525.34	0.762
3535.09	0.7686
3544.84	0.772
3554.58	0.768
3564.33	0.77
3574.08	0.77
3583.82	0.771
3593.57	0.771
3603.32	0.771
3613.06	0.7724
3622.81	0.771
3632.56	0.771
3642.3	0.775
3652.05	0.773
3661.8	0.779
3671.54	0.773
3681.29	0.772
3691.04	0.7739
3700.78	0.7731
3710.53	0.771
3720.28	0.771
3730.02	0.772
3739.77	0.771
3749.52	0.77
3759.26	0.768
3769.01	0.77
3778.76	0.77
3788.5	0.771
3798.25	0.7704
3808	0.77
3817.74	0.77
3827.49	0.764
3837.24	0.764
3846.98	0.764
3856.73	0.7607
3866.47	0.759
3876.22	0.7597
3885.97	0.764
3895.71	0.76
3905.46	0.757
3915.21	0.7587
3924.95	0.758
3934.7	0.759
3944.45	0.76
3954.19	0.757
3963.94	0.757
3973.69	0.7554
3983.43	0.7554
3993.18	0.755
