Infrared Spectrum: Acetoacetamide, N-(1,1,3,3-tetramethylbutyl)-
Formula: C12 H23 N O2
CAS: 116346-20-4
State: SOLUTION (10% CCl4 FOR 3800-1330, 10% CS2 FOR 1330-400 CM^-^1)
Melting point: 32 C
Class: COBLENTZ III
Instrument: DOW KBr FOREPRISM-GRATING
Instrument parameters: BLAZED AT 3.5, 12.0, 20.0 MICRON AND CHANGED AT 5.0, 7.5, 14.9 MICRON
Sampling: TRANSMISSION
Path length: 0.011 CM, 0.011 CM
Resolution: 2
Origin: DOW CHEMICAL COMPANY
1/CM	TRANSMITTANCE
3788	0.9531
3779	0.9513
3770	0.954
3761	0.9536
3752	0.9532
3743	0.9525
3734	0.9539
3725	0.9554
3716	0.9542
3707	0.9547
3698	0.948
3689	0.9354
3680	0.9232
3671	0.929
3662	0.9352
3653	0.9409
3644	0.943
3635	0.9427
3626	0.9433
3617	0.9404
3608	0.9349
3599	0.9312
3590	0.9303
3581	0.926
3572	0.9205
3563	0.9136
3554	0.9082
3545	0.9038
3536	0.8986
3527	0.8899
3518	0.8842
3509	0.8788
3500	0.8726
3491	0.8656
3482	0.8568
3473	0.8458
3464	0.832
3455	0.8122
3446	0.7167
3437	0.7247
3428	0.7506
3419	0.7397
3410	0.7032
3401	0.6586
3392	0.6091
3383	0.566
3374	0.5105
3365	0.4405
3356	0.3844
3347	0.3566
3338	0.3544
3329	0.3734
3320	0.4097
3311	0.4638
3302	0.5397
3293	0.5892
3284	0.6372
3275	0.6818
3266	0.7115
3257	0.7354
3248	0.7621
3239	0.782
3230	0.7928
3221	0.7947
3212	0.798
3203	0.8021
3194	0.8171
3185	0.8231
3176	0.83
3167	0.8357
3158	0.8413
3149	0.8453
3140	0.8492
3131	0.8471
3122	0.8445
3113	0.8364
3104	0.8294
3095	0.8215
3086	0.7954
3077	0.7727
3068	0.7618
3059	0.7684
3050	0.7844
3041	0.8039
3032	0.7987
3023	0.7039
3014	0.6316
3005	0.4693
2996	0.2642
2987	0.2431
2978	0.1877
2969	0.0889
2960	0.063
2951	0.0619
2942	0.153
2933	0.1985
2924	0.2386
2915	0.2484
2906	0.2074
2897	0.2297
2888	0.293
2879	0.3305
2870	0.2932
2861	0.3508
2852	0.5201
2843	0.6424
2834	0.6974
2825	0.7508
2816	0.7828
2807	0.799
2798	0.8219
2789	0.8304
2780	0.8397
2771	0.8467
2762	0.854
2753	0.856
2744	0.8563
2735	0.8606
2726	0.8618
2717	0.8585
2708	0.8564
2699	0.8614
2690	0.866
2681	0.8698
2672	0.8726
2663	0.8756
2654	0.8813
2645	0.8834
2636	0.886
2627	0.8914
2618	0.8944
2609	0.8961
2600	0.8954
2591	0.8947
2582	0.894
2573	0.8946
2564	0.8957
2555	0.8972
2546	0.8987
2537	0.9002
2528	0.9015
2519	0.9026
2510	0.904
2501	0.9052
2492	0.9064
2483	0.9076
2474	0.9114
2465	0.9129
2456	0.9128
2447	0.9156
2438	0.9162
2429	0.9168
2420	0.9178
2411	0.9181
2402	0.9199
2393	0.9196
2384	0.9249
2375	0.9359
2366	0.9402
2357	0.9496
2348	0.9568
2339	0.9583
2330	0.9496
2321	0.9384
2312	0.9449
2303	0.9419
2294	0.9384
2285	0.934
2276	0.9322
2267	0.9297
2258	0.9262
2249	0.9229
2240	0.9227
2231	0.9216
2222	0.9221
2213	0.9205
2204	0.9212
2195	0.9194
2186	0.9194
2177	0.9225
2168	0.9204
2159	0.9208
2150	0.9212
2141	0.9214
2132	0.9216
2123	0.9219
2114	0.9221
2105	0.9224
2096	0.9224
2087	0.9234
2078	0.9237
2069	0.9237
2060	0.9232
2051	0.9235
2042	0.9201
2033	0.9182
2024	0.9223
2015	0.9213
2006	0.9184
1997	0.9071
1988	0.9151
1979	0.9148
1970	0.9133
1961	0.9168
1952	0.915
1943	0.9108
1934	0.9112
1925	0.9116
1916	0.911
1907	0.9112
1898	0.9105
1889	0.9071
1880	0.9085
1871	0.9093
1862	0.9072
1853	0.9039
1844	0.9008
1835	0.8951
1826	0.8918
1817	0.8902
1808	0.8827
1799	0.8738
1790	0.8642
1781	0.8509
1772	0.8322
1763	0.8053
1754	0.7649
1745	0.7031
1736	0.5925
1727	0.3862
1718	0.1425
1709	0.0319
1700	0.195
1691	0.2164
1682	0.0634
1673	0.0162
1664	0.0222
1655	0.0372
1646	0.0434
1637	0.2596
1628	0.4153
1619	0.4673
1610	0.5686
1601	0.6747
1592	0.716
1583	0.733
1574	0.6487
1565	0.4105
1556	0.1828
1547	0.1066
1538	0.072
1529	0.111
1520	0.1863
1511	0.2578
1502	0.3445
1493	0.4948
1484	0.3592
1475	0.2255
1466	0.2916
1457	0.3378
1448	0.3472
1439	0.3921
1430	0.4244
1421	0.3951
1412	0.3786
1403	0.3438
1394	0.3492
1385	0.2483
1376	0.4117
1367	0.1682
1358	0.125
1349	0.2975
1340	0.4856
1331	0.4793
1322	0.3897
1313	0.4
1304	0.4564
1295	0.4628
1286	0.4307
1277	0.3511
1268	0.3169
1259	0.4109
1250	0.4157
1241	0.384
1232	0.3145
1223	0.1503
1214	0.2393
1205	0.3183
1196	0.4494
1187	0.5933
1178	0.5983
1169	0.4769
1160	0.3793
1151	0.3729
1142	0.5611
1133	0.5929
1124	0.7045
1115	0.8023
1106	0.8357
1097	0.8517
1088	0.839
1079	0.8177
1070	0.815
1061	0.816
1052	0.8075
1043	0.7735
1034	0.7633
1025	0.7121
1016	0.7461
1007	0.7668
998	0.7584
989	0.7936
980	0.7879
971	0.7917
962	0.7815
953	0.7647
944	0.7453
935	0.7726
926	0.742
917	0.6927
908	0.7212
899	0.7669
890	0.8335
881	0.8941
872	0.9225
863	0.9294
854	0.9571
845	0.9245
836	0.8983
827	0.8992
818	0.8937
809	0.8928
800	0.8577
791	0.8329
782	0.8336
773	0.8571
764	0.8892
755	0.8914
746	0.8691
737	0.8626
728	0.8017
719	0.8718
710	0.8676
701	0.8544
692	0.8427
683	0.8315
674	0.8283
665	0.8205
656	0.8509
647	0.8558
638	0.8509
629	0.8554
620	0.8474
611	0.8219
602	0.7787
593	0.7108
584	0.6395
575	0.6273
566	0.703
557	0.7255
548	0.7203
539	0.7034
530	0.7083
521	0.7506
512	0.7693
503	0.7634
494	0.7378
485	0.7205
476	0.7159
467	0.7248
458	0.7229
449	0.7157
440	0.7175
431	0.7192
422	0.7099
413	0.6661
404	0.4841
395	0.3135
386	0.2432
