Infrared Spectrum: LAURIC ACID, SALICYLIDENE HYDRAZIDE
Formula: C19 H30 N2 O2
CAS: 116373-73-0
State: SOLID (KBr PELLET)
Melting point: 105-106 C
Class: COBLENTZ
Instrument: Not specified, most likely a prism, grating, or hybrid spectrometer.
Sampling: TRANSMISSION
Resolution: 4
Origin: TENNESSEE EASTMAN COMPANY, RESEARCH LABORATORIES
MICROMETERS	TRANSMITTANCE
2.082	0.943
2.12284	0.941
2.16367	0.941
2.20451	0.94
2.24534	0.936
2.28618	0.933
2.32701	0.928
2.36785	0.926
2.40868	0.928
2.44952	0.929
2.49035	0.929
2.53119	0.931
2.57202	0.931
2.61286	0.931
2.65369	0.933
2.69453	0.933
2.73536	0.931
2.7762	0.914
2.81703	0.894
2.85787	0.859
2.89871	0.832
2.93954	0.817
2.98038	0.811
3.02121	0.782
3.06205	0.656
3.10288	0.531
3.14372	0.536
3.18455	0.666
3.22539	0.714
3.26622	0.588
3.30706	0.618
3.34789	0.613
3.38873	0.271
3.42956	0.23
3.4704	0.422
3.51123	0.497
3.55207	0.752
3.5929	0.788
3.63374	0.805
3.67458	0.822
3.71541	0.847
3.75625	0.851
3.79708	0.852
3.83792	0.861
3.87875	0.878
3.91959	0.895
3.96042	0.907
4.00126	0.914
4.04209	0.919
4.08293	0.928
4.12376	0.933
4.1646	0.935
4.20543	0.935
4.24627	0.935
4.2871	0.919
4.32794	0.902
4.36877	0.938
4.40961	0.94
4.45045	0.938
4.49128	0.947
4.53212	0.948
4.57295	0.948
4.61379	0.95
4.65462	0.955
4.69546	0.955
4.73629	0.957
4.77713	0.957
4.81796	0.96
4.8588	0.955
4.89963	0.953
4.94047	0.952
4.9813	0.958
5.02214	0.962
5.06297	0.958
5.10381	0.955
5.14464	0.947
5.18548	0.941
5.22631	0.943
5.26715	0.95
5.30799	0.95
5.34882	0.95
5.38966	0.95
5.43049	0.948
5.47133	0.94
5.51216	0.938
5.553	0.931
5.59383	0.921
5.63467	0.894
5.6755	0.765
5.71634	0.729
5.75717	0.8
5.79801	0.83
5.83884	0.765
5.87968	0.668
5.92051	0.514
5.96135	0.268
6.00218	0.124
6.04302	0.076
6.08386	0.319
6.12469	0.482
6.16553	0.348
6.20636	0.355
6.2472	0.642
6.28803	0.726
6.32887	0.617
6.3697	0.548
6.41054	0.429
6.45137	0.41
6.49221	0.611
6.53304	0.68
6.57388	0.738
6.61471	0.736
6.65555	0.553
6.69638	0.454
6.73722	0.639
6.77805	0.439
6.81889	0.533
6.85973	0.61
6.90056	0.647
6.9414	0.647
6.98223	0.692
7.02307	0.682
7.0639	0.651
7.10474	0.641
7.14557	0.632
7.18641	0.634
7.22724	0.615
7.26808	0.588
7.30891	0.552
7.34975	0.517
7.39058	0.529
7.43142	0.646
7.47225	0.7
7.51309	0.717
7.55392	0.699
7.59476	0.676
7.6356	0.629
7.67643	0.618
7.71727	0.611
7.7581	0.586
7.79894	0.401
7.83977	0.251
7.88061	0.292
7.92144	0.531
7.96228	0.589
8.00311	0.588
8.04395	0.601
8.08478	0.623
8.12562	0.603
8.16645	0.591
8.20729	0.603
8.24812	0.618
8.28896	0.584
8.32979	0.57
8.37063	0.632
8.41147	0.678
8.4523	0.702
8.49314	0.716
8.53397	0.738
8.57481	0.74
8.61564	0.656
8.65648	0.562
8.69731	0.702
8.73815	0.699
8.77898	0.642
8.81982	0.658
8.86065	0.731
8.90149	0.75
8.94232	0.673
8.98316	0.688
9.02399	0.755
9.06483	0.789
9.10566	0.805
9.1465	0.81
9.18734	0.813
9.22817	0.817
9.26901	0.817
9.30984	0.815
9.35068	0.818
9.39151	0.822
9.43235	0.827
9.47318	0.829
9.51402	0.829
9.55485	0.82
9.59569	0.786
9.63652	0.694
9.67736	0.76
9.71819	0.794
9.75903	0.801
9.79986	0.803
9.8407	0.808
9.88153	0.82
9.92237	0.822
9.96321	0.813
10.004	0.822
10.0449	0.83
10.0857	0.841
10.1265	0.841
10.1674	0.834
10.2082	0.82
10.2491	0.813
10.2899	0.806
10.3307	0.777
10.3716	0.719
10.4124	0.692
10.4532	0.717
10.4941	0.779
10.5349	0.794
10.5757	0.835
10.6166	0.851
10.6574	0.854
10.6982	0.859
10.7391	0.863
10.7799	0.863
10.8207	0.868
10.8616	0.87
10.9024	0.88
10.9433	0.88
10.9841	0.88
11.0249	0.878
11.0658	0.878
11.1066	0.878
11.1474	0.864
11.1883	0.83
11.2291	0.781
11.2699	0.796
11.3108	0.844
11.3516	0.87
11.3924	0.878
11.4333	0.88
11.4741	0.88
11.5149	0.878
11.5558	0.87
11.5966	0.866
11.6375	0.863
11.6783	0.868
11.7191	0.875
11.76	0.88
11.8008	0.882
11.8416	0.882
11.8825	0.883
11.9233	0.885
11.9641	0.887
12.005	0.887
12.0458	0.887
12.0866	0.883
12.1275	0.876
12.1683	0.87
12.2091	0.868
12.25	0.864
12.2908	0.856
12.3317	0.852
12.3725	0.847
12.4133	0.837
12.4542	0.825
12.495	0.811
12.5358	0.8
12.5767	0.784
12.6175	0.753
12.6583	0.7
12.6992	0.647
12.74	0.637
12.7808	0.666
12.8217	0.694
12.8625	0.709
12.9033	0.716
12.9442	0.705
12.985	0.673
13.0258	0.622
13.0667	0.557
13.1075	0.468
13.1484	0.377
13.1892	0.297
13.23	0.259
13.2709	0.307
13.3117	0.417
13.3525	0.535
13.3934	0.605
13.4342	0.639
13.475	0.649
13.5159	0.652
13.5567	0.652
13.5975	0.654
13.6384	0.661
13.6792	0.67
13.72	0.67
13.7609	0.651
13.8017	0.634
13.8426	0.622
13.8834	0.642
13.9242	0.67
13.9651	0.682
14.0059	0.69
14.0467	0.697
14.0876	0.702
14.1284	0.707
14.1692	0.714
14.2101	0.719
14.2509	0.721
14.2917	0.724
14.3326	0.726
14.3734	0.728
14.4142	0.726
14.4551	0.728
14.4959	0.728
14.5368	0.726
14.5776	0.723
14.6184	0.723
14.6593	0.723
14.7001	0.723
14.7409	0.723
14.7818	0.723
14.8226	0.724
14.8634	0.728
14.9043	0.733
14.9451	0.733
14.9859	0.728
15.0268	0.714
15.0676	0.711
15.1084	0.707
15.1493	0.705
15.1901	0.702
15.231	0.702
15.2718	0.702
15.3126	0.702
15.3535	0.704
15.3943	0.705
15.4351	0.707
15.476	0.711
15.5168	0.712
15.5576	0.712
15.5985	0.714
15.6393	0.714
15.6801	0.716
15.721	0.717
15.7618	0.717
15.8026	0.719
15.8435	0.717
15.8843	0.717
15.9252	0.717
15.966	0.717
