Infrared Spectrum: 4-(OCTYLTHIO)BUTYRIC ACID
Formula: C12 H24 O2 S
CAS: 116346-23-7
State: SOLID (OIL MULL)
Class: COBLENTZ III
Instrument: BAIRD NaCl PRISM
Sampling: TRANSMISSION
Resolution: 4
Origin: WYANDOTTE CHEMICALS CORP.
MICROMETERS	TRANSMITTANCE
2.016	0.525
2.05515	0.524
2.0943	0.526
2.13346	0.535
2.17261	0.547
2.21176	0.55
2.25091	0.528
2.29007	0.526
2.32922	0.524
2.36837	0.53
2.40752	0.556
2.44668	0.572
2.48583	0.582
2.52498	0.6
2.56413	0.621
2.60329	0.632
2.64244	0.643
2.68159	0.65
2.72074	0.665
2.7599	0.669
2.79905	0.675
2.8382	0.677
2.87735	0.675
2.91651	0.672
2.95566	0.66
2.99481	0.633
3.03396	0.556
3.07311	0.448
3.11227	0.327
3.15142	0.227
3.19057	0.167
3.22972	0.111
3.26888	0.088
3.30803	0.085
3.34718	0.06
3.38633	0.017
3.42549	0.009
3.46464	0.011
3.50379	0.015
3.54294	0.028
3.5821	0.117
3.62125	0.221
3.6604	0.269
3.69955	0.278
3.73871	0.301
3.77786	0.307
3.81701	0.324
3.85616	0.34
3.89532	0.361
3.93447	0.412
3.97362	0.43
4.01277	0.485
4.05192	0.501
4.09108	0.567
4.13023	0.605
4.16938	0.605
4.20853	0.649
4.24769	0.662
4.28684	0.659
4.32599	0.671
4.36514	0.687
4.4043	0.738
4.44345	0.751
4.4826	0.759
4.52175	0.772
4.56091	0.785
4.60006	0.799
4.63921	0.812
4.67836	0.816
4.71752	0.825
4.75667	0.839
4.79582	0.854
4.83497	0.868
4.87413	0.873
4.91328	0.879
4.95243	0.889
4.99158	0.9
5.03073	0.903
5.06989	0.905
5.10904	0.908
5.14819	0.919
5.18734	0.922
5.2265	0.924
5.26565	0.92
5.3048	0.909
5.34395	0.909
5.38311	0.912
5.42226	0.919
5.46141	0.899
5.50056	0.851
5.53972	0.84
5.57887	0.863
5.61802	0.856
5.65717	0.803
5.69633	0.709
5.73548	0.43
5.77463	0.109
5.81378	0.019
5.85293	0.014
5.89209	0.013
5.93124	0.018
5.97039	0.033
6.00954	0.196
6.0487	0.308
6.08785	0.422
6.127	0.513
6.16615	0.6
6.20531	0.643
6.24446	0.688
6.28361	0.72
6.32276	0.736
6.36192	0.757
6.40107	0.779
6.44022	0.795
6.47937	0.813
6.51853	0.817
6.55768	0.817
6.59683	0.811
6.63598	0.795
6.67514	0.73
6.71429	0.628
6.75344	0.403
6.79259	0.05
6.83174	0.028
6.8709	0.029
6.91005	0.079
6.9492	0.095
6.98835	0.187
7.02751	0.166
7.06666	0.096
7.10581	0.278
7.14496	0.502
7.18412	0.593
7.22327	0.508
7.26242	0.381
7.30157	0.522
7.34073	0.583
7.37988	0.601
7.41903	0.607
7.45818	0.601
7.49734	0.509
7.53649	0.308
7.57564	0.185
7.61479	0.156
7.65395	0.238
7.6931	0.361
7.73225	0.487
7.7714	0.539
7.81055	0.502
7.84971	0.533
7.88886	0.299
7.92801	0.269
7.96716	0.435
8.00632	0.492
8.04547	0.399
8.08462	0.251
8.12377	0.221
8.16293	0.462
8.20208	0.574
8.24123	0.59
8.28038	0.37
8.31954	0.139
8.35869	0.25
8.39784	0.333
8.43699	0.471
8.47615	0.62
8.5153	0.692
8.55445	0.727
8.5936	0.737
8.63276	0.74
8.67191	0.651
8.71106	0.651
8.75021	0.726
8.78936	0.761
8.82852	0.773
8.86767	0.778
8.90682	0.745
8.94597	0.75
8.98513	0.762
9.02428	0.774
9.06343	0.778
9.10258	0.792
9.14174	0.801
9.18089	0.812
9.22004	0.822
9.25919	0.824
9.29835	0.824
9.3375	0.802
9.37665	0.751
9.4158	0.676
9.45496	0.662
9.49411	0.751
9.53326	0.813
9.57241	0.802
9.61157	0.745
9.65072	0.724
9.68987	0.737
9.72902	0.715
9.76817	0.737
9.80733	0.763
9.84648	0.79
9.88563	0.802
9.92478	0.807
9.96394	0.803
10.0031	0.795
10.0422	0.789
10.0814	0.786
10.1205	0.754
10.1597	0.66
10.1989	0.632
10.238	0.681
10.2772	0.692
10.3163	0.687
10.3555	0.659
10.3946	0.639
10.4338	0.62
10.4729	0.595
10.5121	0.584
10.5512	0.568
10.5904	0.557
10.6295	0.547
10.6687	0.52
10.7078	0.5
10.747	0.458
10.7861	0.419
10.8253	0.376
10.8644	0.328
10.9036	0.314
10.9427	0.287
10.9819	0.28
11.0211	0.223
11.0602	0.171
11.0994	0.15
11.1385	0.132
11.1777	0.122
11.2168	0.117
11.256	0.112
11.2951	0.113
11.3343	0.129
11.3734	0.156
11.4126	0.2
11.4517	0.247
11.4909	0.3
11.53	0.352
11.5692	0.419
11.6083	0.462
11.6475	0.501
11.6866	0.544
11.7258	0.568
11.7649	0.579
11.8041	0.601
11.8433	0.66
11.8824	0.702
11.9216	0.727
11.9607	0.736
11.9999	0.697
12.039	0.658
12.0782	0.66
12.1173	0.585
12.1565	0.601
12.1956	0.7
12.2348	0.774
12.2739	0.83
12.3131	0.852
12.3522	0.872
12.3914	0.883
12.4305	0.9
12.4697	0.899
12.5088	0.904
12.548	0.904
12.5871	0.901
12.6263	0.899
12.6655	0.872
12.7046	0.791
12.7438	0.71
12.7829	0.703
12.8221	0.796
12.8612	0.871
12.9004	0.912
12.9395	0.919
12.9787	0.914
13.0178	0.898
13.057	0.908
13.0961	0.933
13.1353	0.952
13.1744	0.954
13.2136	0.932
13.2527	0.865
13.2919	0.731
13.331	0.689
13.3702	0.709
13.4093	0.655
13.4485	0.643
13.4877	0.802
13.5268	0.905
13.566	0.932
13.6051	0.939
13.6443	0.926
13.6834	0.883
13.7226	0.807
13.7617	0.736
13.8009	0.672
13.84	0.452
13.8792	0.314
13.9183	0.325
13.9575	0.432
13.9966	0.514
14.0358	0.703
14.0749	0.832
14.1141	0.926
14.1532	0.976
14.1924	0.997
14.2315	1.001
14.2707	1.004
14.3099	1.004
14.349	1.007
14.3882	1.006
14.4273	0.991
14.4665	0.976
14.5056	0.966
14.5448	0.933
14.5839	0.909
14.6231	0.863
14.6622	0.812
14.7014	0.77
14.7405	0.736
14.7797	0.727
14.8188	0.738
14.858	0.753
14.8971	0.779
14.9363	0.8
14.9754	0.807
15.0146	0.787
15.0537	0.75
15.0929	0.704
15.1321	0.683
15.1712	0.67
15.2104	0.644
15.2495	0.62
15.2887	0.602
15.3278	0.601
15.367	0.626
15.4061	0.671
15.4453	0.709
15.4844	0.732
15.5236	0.75
15.5627	0.752
15.6019	0.751
15.641	0.751
15.6802	0.747
15.7193	0.74
15.7585	0.731
15.7976	0.724
15.8368	0.714
15.8759	0.7
15.9151	0.681
15.9543	0.665
15.9934	0.653
