Infrared Spectrum: PYRROLIDINE, 1-[(4-AMINO-1,2,5-THIADIAZOL-3-YL)CARBONYL]-
Formula: C7 H10 N4 O S
CAS: 116374-00-6
State: SOLID (0.7 mg / 500 mg KBr DISC)
Class: COBLENTZ III
Instrument: PERKIN-ELMER 21 (GRATING)
Instrument parameters: FILTER CHANGE AT 1090 CM ^-^1
Sampling: TRANSMISSION
Resolution: 4
Origin: SOUTHERN RES. INSTITUTE
1/CM	TRANSMITTANCE
718.217	0.7
727.326	0.736
736.434	0.858
745.543	0.876
754.652	0.873
763.761	0.869
772.869	0.866
781.978	0.854
791.087	0.726
800.195	0.773
809.304	0.817
818.413	0.781
827.522	0.553
836.63	0.72
845.739	0.801
854.848	0.655
863.956	0.694
873.065	0.816
882.174	0.866
891.283	0.885
900.391	0.868
909.5	0.857
918.609	0.843
927.717	0.773
936.826	0.844
945.935	0.844
955.044	0.838
964.152	0.826
973.261	0.802
982.37	0.774
991.478	0.78
1000.59	0.79
1009.7	0.788
1018.8	0.784
1027.91	0.772
1037.02	0.756
1046.13	0.72
1055.24	0.763
1064.35	0.754
1073.46	0.74
1082.57	0.732
1091.67	0.746
1100.78	0.788
1109.89	0.8
1119	0.765
1128.11	0.781
1137.22	0.797
1146.33	0.766
1155.44	0.713
1164.54	0.664
1173.65	0.753
1182.76	0.819
1191.87	0.784
1200.98	0.801
1210.09	0.782
1219.2	0.764
1228.3	0.813
1237.41	0.774
1246.52	0.776
1255.63	0.775
1264.74	0.761
1273.85	0.791
1282.96	0.789
1292.07	0.782
1301.17	0.763
1310.28	0.748
1319.39	0.736
1328.5	0.677
1337.61	0.653
1346.72	0.562
1355.83	0.685
1364.94	0.78
1374.04	0.774
1383.15	0.757
1392.26	0.728
1401.37	0.719
1410.48	0.683
1419.59	0.625
1428.7	0.475
1437.81	0.556
1446.91	0.549
1456.02	0.335
1465.13	0.338
1474.24	0.509
1483.35	0.639
1492.46	0.679
1501.57	0.636
1510.68	0.478
1519.78	0.565
1528.89	0.74
1538	0.736
1547.11	0.696
1556.22	0.652
1565.33	0.583
1574.44	0.49
1583.54	0.409
1592.65	0.248
1601.76	0.167
1610.87	0.222
1619.98	0.305
1629.09	0.417
1638.2	0.543
1647.31	0.642
1656.41	0.695
1665.52	0.747
1674.63	0.787
1683.74	0.81
1692.85	0.835
1701.96	0.836
1711.07	0.858
1720.18	0.864
1729.28	0.862
1738.39	0.863
1747.5	0.878
1756.61	0.885
1765.72	0.891
1774.83	0.894
1783.94	0.896
1793.05	0.896
1802.15	0.894
1811.26	0.893
1820.37	0.892
1829.48	0.891
1838.59	0.891
1847.7	0.889
1856.81	0.885
1865.91	0.881
1875.02	0.88
1884.13	0.877
1893.24	0.876
1902.35	0.874
1911.46	0.874
1920.57	0.873
1929.68	0.872
1938.78	0.869
1947.89	0.868
1957	0.868
1966.11	0.866
1975.22	0.863
1984.33	0.863
1993.44	0.866
2002.55	0.856
2011.65	0.854
2020.76	0.853
2029.87	0.849
2038.98	0.847
2048.09	0.846
2057.2	0.847
2066.31	0.842
2075.42	0.844
2084.52	0.844
2093.63	0.845
2102.74	0.846
2111.85	0.843
2120.96	0.839
2130.07	0.838
2139.18	0.836
2148.28	0.832
2157.39	0.828
2166.5	0.826
2175.61	0.826
2184.72	0.828
2193.83	0.831
2202.94	0.826
2212.05	0.824
2221.15	0.823
2230.26	0.822
2239.37	0.822
2248.48	0.822
2257.59	0.819
2266.7	0.817
2275.81	0.817
2284.92	0.816
2294.02	0.814
2303.13	0.813
2312.24	0.813
2321.35	0.813
2330.46	0.81
2339.57	0.801
2348.68	0.798
2357.79	0.802
2366.89	0.807
2376	0.806
2385.11	0.805
2394.22	0.807
2403.33	0.806
2412.44	0.804
2421.55	0.801
2430.66	0.8
2439.76	0.798
2448.87	0.799
2457.98	0.798
2467.09	0.796
2476.2	0.794
2485.31	0.795
2494.42	0.796
2503.52	0.795
2512.63	0.789
2521.74	0.784
2530.85	0.779
2539.96	0.775
2549.07	0.773
2558.18	0.773
2567.29	0.775
2576.39	0.777
2585.5	0.775
2594.61	0.771
2603.72	0.768
2612.83	0.767
2621.94	0.763
2631.05	0.76
2640.16	0.76
2649.26	0.763
2658.37	0.767
2667.48	0.76
2676.59	0.763
2685.7	0.765
2694.81	0.763
2703.92	0.759
2713.03	0.752
2722.13	0.751
2731.24	0.749
2740.35	0.748
2749.46	0.745
2758.57	0.745
2767.68	0.741
2776.79	0.736
2785.89	0.729
2795	0.728
2804.11	0.719
2813.22	0.708
2822.33	0.69
2831.44	0.68
2840.55	0.658
2849.66	0.653
2858.76	0.659
2867.87	0.671
2876.98	0.686
2886.09	0.686
2895.2	0.673
2904.31	0.652
2913.42	0.637
2922.53	0.632
2931.63	0.626
2940.74	0.639
2949.85	0.65
2958.96	0.67
2968.07	0.701
2977.18	0.722
2986.29	0.723
2995.4	0.72
3004.5	0.717
3013.61	0.714
3022.72	0.712
3031.83	0.711
3040.94	0.708
3050.05	0.704
3059.16	0.701
3068.27	0.7
3077.37	0.701
3086.48	0.698
3095.59	0.692
3104.7	0.688
3113.81	0.68
3122.92	0.655
3132.03	0.646
3141.13	0.635
3150.24	0.635
3159.35	0.637
3168.46	0.636
3177.57	0.633
3186.68	0.624
3195.79	0.611
3204.9	0.603
3214	0.59
3223.11	0.574
3232.22	0.546
3241.33	0.51
3250.44	0.468
3259.55	0.42
3268.66	0.344
3277.77	0.327
3286.87	0.363
3295.98	0.427
3305.09	0.512
3314.2	0.562
3323.31	0.59
3332.42	0.587
3341.53	0.574
3350.64	0.565
3359.74	0.544
3368.85	0.518
3377.96	0.471
3387.07	0.416
3396.18	0.363
3405.29	0.31
3414.4	0.433
3423.5	0.577
3432.61	0.646
3441.72	0.673
3450.83	0.677
3459.94	0.686
3469.05	0.691
3478.16	0.691
3487.27	0.689
3496.37	0.698
3505.48	0.705
3514.59	0.708
3523.7	0.708
3532.81	0.71
3541.92	0.711
3551.03	0.714
3560.14	0.716
3569.24	0.719
3578.35	0.724
3587.46	0.73
3596.57	0.732
3605.68	0.733
3614.79	0.735
3623.9	0.736
3633.01	0.738
3642.11	0.739
3651.22	0.74
3660.33	0.736
3669.44	0.733
3678.55	0.732
3687.66	0.732
3696.77	0.732
3705.87	0.728
3714.98	0.727
3724.09	0.728
3733.2	0.727
3742.31	0.727
3751.42	0.725
3760.53	0.726
3769.64	0.726
3778.74	0.723
3787.85	0.721
3796.96	0.719
3806.07	0.717
3815.18	0.715
3824.29	0.714
3833.4	0.714
3842.51	0.714
3851.61	0.713
3860.72	0.709
3869.83	0.708
3878.94	0.71
3888.05	0.711
3897.16	0.709
3906.27	0.707
3915.38	0.706
3924.48	0.705
3933.59	0.704
3942.7	0.703
3951.81	0.701
3960.92	0.702
3970.03	0.705
3979.14	0.706
3988.25	0.704
3997.35	0.702
