Infrared Spectrum: Urea, p-menth-3-yl-
Formula: C11 H22 N2 O
CAS: 116374-05-1
State: SOLID (OIL MULL)
Class: COBLENTZ III
Instrument: PERKIN-ELMER 21 (GRATING)
Instrument parameters: NaCl PRISM
Sampling: TRANSMISSION
Resolution: 2
Origin: SMITH, KLINE & FRENCH LABS.
1/CM	TRANSMITTANCE
654	0.4183
663	0.4124
672	0.3948
681	0.4375
690	0.4377
699	0.4441
708	0.4419
717	0.4152
726	0.4453
735	0.4961
744	0.5491
753	0.577
762	0.5931
771	0.5766
780	0.5904
789	0.6553
798	0.6916
807	0.7065
816	0.7144
825	0.7253
834	0.7174
843	0.7037
852	0.7148
861	0.6629
870	0.7347
879	0.7422
888	0.6893
897	0.6435
906	0.7196
915	0.6563
924	0.6696
933	0.5808
942	0.6325
951	0.622
960	0.5677
969	0.6393
978	0.6584
987	0.6308
996	0.5881
1005	0.6149
1014	0.6634
1023	0.6671
1032	0.6518
1041	0.6476
1050	0.5938
1059	0.5942
1068	0.5731
1077	0.5362
1086	0.5167
1095	0.5284
1104	0.5048
1113	0.4355
1122	0.4594
1131	0.4351
1140	0.4563
1149	0.4289
1158	0.3035
1167	0.3969
1176	0.5118
1185	0.4854
1194	0.5253
1203	0.5675
1212	0.4897
1221	0.4853
1230	0.574
1239	0.5627
1248	0.5549
1257	0.5279
1266	0.4159
1275	0.4541
1284	0.4084
1293	0.3209
1302	0.2965
1311	0.3913
1320	0.3863
1329	0.3419
1338	0.2703
1347	0.2188
1356	0.2053
1365	0.088
1374	0.0768
1383	0.2612
1392	0.4781
1401	0.5019
1410	0.4974
1419	0.4205
1428	0.2978
1437	0.113
1446	0.0722
1455	0.0689
1464	0.0824
1473	0.2027
1482	0.3163
1491	0.3147
1500	0.2519
1509	0.2113
1518	0.1394
1527	0.0923
1536	0.0866
1545	0.0838
1554	0.0865
1563	0.0904
1572	0.0923
1581	0.1094
1590	0.1195
1599	0.1186
1608	0.1116
1617	0.0989
1626	0.0945
1635	0.0784
1644	0.0947
1653	0.1003
1662	0.1322
1671	0.2274
1680	0.3456
1689	0.4523
1698	0.5293
1707	0.5915
1716	0.6333
1725	0.6858
1734	0.726
1743	0.7462
1752	0.7651
1761	0.7796
1770	0.7963
1779	0.8183
1788	0.8344
1797	0.8473
1806	0.8586
1815	0.8696
1824	0.8801
1833	0.8891
1842	0.8943
1851	0.8971
1860	0.899
1869	0.8996
1878	0.8998
1887	0.8997
1896	0.9003
1905	0.9073
1914	0.9089
1923	0.9094
1932	0.9097
1941	0.9104
1950	0.911
1959	0.9109
1968	0.9101
1977	0.9096
1986	0.9093
1995	0.9044
2004	0.8986
2013	0.8957
2022	0.8959
2031	0.8958
2040	0.8955
2049	0.8953
2058	0.8952
2067	0.895
2076	0.8949
2085	0.895
2094	0.8954
2103	0.8956
2112	0.8955
2121	0.8953
2130	0.8932
2139	0.8909
2148	0.8885
2157	0.8864
2166	0.8854
2175	0.8843
2184	0.8844
2193	0.8851
2202	0.8835
2211	0.8781
2220	0.8773
2229	0.8816
2238	0.8823
2247	0.8811
2256	0.8803
2265	0.8794
2274	0.8774
2283	0.8696
2292	0.8684
2301	0.8685
2310	0.8687
2319	0.8676
2328	0.8649
2337	0.8621
2346	0.8601
2355	0.8585
2364	0.8584
2373	0.8608
2382	0.8631
2391	0.8632
2400	0.8625
2409	0.8617
2418	0.8604
2427	0.8589
2436	0.857
2445	0.8546
2454	0.8511
2463	0.8434
2472	0.8353
2481	0.8272
2490	0.819
2499	0.8108
2508	0.8014
2517	0.7913
2526	0.7802
2535	0.7693
2544	0.7607
2553	0.7513
2562	0.7401
2571	0.7305
2580	0.7219
2589	0.7145
2598	0.7072
2607	0.7004
2616	0.6935
2625	0.6863
2634	0.6792
2643	0.6744
2652	0.6704
2661	0.6663
2670	0.6415
2679	0.6304
2688	0.6312
2697	0.638
2706	0.643
2715	0.6434
2724	0.6401
2733	0.6232
2742	0.5987
2751	0.5694
2760	0.533
2769	0.4513
2778	0.3278
2787	0.2053
2796	0.1287
2805	0.0841
2814	0.0565
2823	0.0499
2832	0.0488
2841	0.0486
2850	0.0485
2859	0.0483
2868	0.0481
2877	0.048
2886	0.048
2895	0.0485
2904	0.0518
2913	0.0617
2922	0.0705
2931	0.1124
2940	0.1982
2949	0.2835
2958	0.3684
2967	0.4527
2976	0.503
2985	0.52
2994	0.5301
3003	0.5294
3012	0.5275
3021	0.523
3030	0.5155
3039	0.5034
3048	0.4952
3057	0.4916
3066	0.4902
3075	0.4903
3084	0.489
3093	0.4745
3102	0.454
3111	0.4278
3120	0.3885
3129	0.3489
3138	0.3173
3147	0.3111
3156	0.3088
3165	0.3084
3174	0.3085
3183	0.3087
3192	0.2965
3201	0.2815
3210	0.2666
3219	0.2518
3228	0.2369
3237	0.217
3246	0.1979
3255	0.1849
3264	0.1777
3273	0.1769
3282	0.176
3291	0.1759
3300	0.176
3309	0.1768
3318	0.1784
3327	0.1894
3336	0.2388
3345	0.2923
3354	0.3455
3363	0.3985
3372	0.4511
3381	0.5025
3390	0.5151
3399	0.5156
3408	0.5141
3417	0.5117
3426	0.5086
3435	0.5071
3444	0.5079
3453	0.5099
3462	0.5159
3471	0.5575
3480	0.6314
3489	0.7047
3498	0.7779
3507	0.844
3516	0.8668
3525	0.8786
3534	0.8874
3543	0.8922
3552	0.8945
3561	0.8951
3570	0.8949
3579	0.8937
3588	0.8921
3597	0.8907
3606	0.8891
3615	0.8875
3624	0.8859
3633	0.8842
3642	0.8818
3651	0.8793
3660	0.8766
3669	0.8742
3678	0.8719
3687	0.8695
3696	0.8672
3705	0.8647
3714	0.8622
3723	0.8598
3732	0.8571
3741	0.8527
3750	0.8483
3759	0.8451
3768	0.8425
3777	0.84
3786	0.8389
3795	0.8385
3804	0.8381
3813	0.8376
3822	0.837
3831	0.8364
3840	0.8358
3849	0.8348
3858	0.8339
3867	0.8313
3876	0.828
3885	0.8249
3894	0.8207
3903	0.8151
3912	0.8086
3921	0.803
3930	0.7997
3939	0.7971
3948	0.7962
3957	0.7952
3966	0.7944
3975	0.792
3984	0.7864
3993	0.7788
