Infrared Spectrum: 1-(M-CHLOROPHENYL)BIURET
Formula: C8 H8 Cl N3 O2
CAS: 116346-10-2
State: SOLID (MINERAL OIL MULL)
Class: COBLENTZ
Instrument: Not specified, most likely a prism, grating, or hybrid spectrometer.
Sampling: TRANSMISSION
Resolution: 4
Origin: DOW CHEMICAL COMPANY
MICROMETERS	TRANSMITTANCE
2.047	0.723
2.08715	0.73
2.12731	0.737
2.16746	0.74
2.20762	0.745
2.24777	0.743
2.28792	0.742
2.32808	0.745
2.36823	0.753
2.40838	0.76
2.44854	0.763
2.48869	0.778
2.52885	0.782
2.569	0.787
2.60915	0.79
2.64931	0.803
2.68946	0.805
2.72961	0.803
2.76977	0.801
2.80992	0.801
2.85008	0.797
2.89023	0.643
2.93038	0.376
2.97054	0.46
3.01069	0.396
3.05085	0.364
3.091	0.409
3.13115	0.377
3.17131	0.427
3.21146	0.54
3.25161	0.589
3.29177	0.65
3.33192	0.633
3.37208	0.391
3.41223	0.098
3.45238	0.221
3.49254	0.292
3.53269	0.697
3.57284	0.768
3.613	0.793
3.65315	0.798
3.69331	0.801
3.73346	0.81
3.77361	0.813
3.81377	0.825
3.85392	0.826
3.89407	0.831
3.93423	0.833
3.97438	0.84
4.01454	0.845
4.05469	0.845
4.09484	0.853
4.135	0.855
4.17515	0.86
4.21531	0.86
4.25546	0.858
4.29561	0.858
4.33577	0.865
4.37592	0.87
4.41607	0.873
4.45623	0.871
4.49638	0.871
4.53654	0.875
4.57669	0.873
4.61684	0.88
4.657	0.878
4.69715	0.876
4.7373	0.878
4.77746	0.881
4.81761	0.881
4.85777	0.876
4.89792	0.88
4.93807	0.883
4.97823	0.883
5.01838	0.885
5.05854	0.881
5.09869	0.871
5.13884	0.88
5.179	0.888
5.21915	0.881
5.2593	0.881
5.29946	0.88
5.33961	0.873
5.37977	0.875
5.41992	0.875
5.46007	0.868
5.50023	0.863
5.54038	0.861
5.58053	0.836
5.62069	0.823
5.66084	0.8
5.701	0.763
5.74115	0.635
5.7813	0.386
5.82146	0.131
5.86161	0.267
5.90176	0.106
5.94192	0.149
5.98207	0.392
6.02223	0.252
6.06238	0.321
6.10253	0.59
6.14269	0.54
6.18284	0.371
6.223	0.322
6.26315	0.159
6.3033	0.138
6.34346	0.324
6.38361	0.214
6.42376	0.272
6.46392	0.399
6.50407	0.514
6.54423	0.514
6.58438	0.435
6.62453	0.376
6.66469	0.211
6.70484	0.267
6.74499	0.121
6.78515	0.257
6.8253	0.309
6.86546	0.439
6.90561	0.515
6.94576	0.569
6.98592	0.597
7.02607	0.487
7.06623	0.465
7.10638	0.665
7.14653	0.7
7.18669	0.697
7.22684	0.607
7.26699	0.587
7.30715	0.648
7.3473	0.652
7.38746	0.592
7.42761	0.52
7.46776	0.425
7.50792	0.43
7.54807	0.504
7.58822	0.572
7.62838	0.579
7.66853	0.512
7.70869	0.425
7.74884	0.56
7.78899	0.628
7.82915	0.544
7.8693	0.359
7.90946	0.236
7.94961	0.464
7.98976	0.57
8.02992	0.599
8.07007	0.505
8.11022	0.366
8.15038	0.324
8.19053	0.505
8.23069	0.613
8.27084	0.668
8.31099	0.69
8.35115	0.708
8.3913	0.718
8.43145	0.728
8.47161	0.733
8.51176	0.73
8.55192	0.73
8.59207	0.728
8.63222	0.733
8.67238	0.735
8.71253	0.737
8.75268	0.732
8.79284	0.723
8.83299	0.717
8.87315	0.725
8.9133	0.743
8.95345	0.758
8.99361	0.76
9.03376	0.718
9.07392	0.603
9.11407	0.625
9.15422	0.668
9.19438	0.64
9.23453	0.663
9.27468	0.647
9.31484	0.698
9.35499	0.757
9.39515	0.772
9.4353	0.777
9.47545	0.778
9.51561	0.783
9.55576	0.787
9.59591	0.787
9.63607	0.788
9.67622	0.788
9.71638	0.787
9.75653	0.785
9.79668	0.792
9.83684	0.801
9.87699	0.806
9.91715	0.815
9.9573	0.818
9.99745	0.788
10.0376	0.785
10.0778	0.826
10.1179	0.811
10.1581	0.765
10.1982	0.718
10.2384	0.702
10.2785	0.69
10.3187	0.75
10.3588	0.778
10.399	0.797
10.4391	0.815
10.4793	0.818
10.5195	0.828
10.5596	0.83
10.5998	0.828
10.6399	0.826
10.6801	0.828
10.7202	0.83
10.7604	0.83
10.8005	0.83
10.8407	0.84
10.8808	0.838
10.921	0.835
10.9611	0.835
11.0013	0.831
11.0415	0.823
11.0816	0.785
11.1218	0.725
11.1619	0.757
11.2021	0.811
11.2422	0.801
11.2824	0.767
11.3225	0.76
11.3627	0.8
11.4028	0.806
11.443	0.773
11.4831	0.638
11.5233	0.489
11.5635	0.56
11.6036	0.738
11.6438	0.783
11.6839	0.811
11.7241	0.83
11.7642	0.833
11.8044	0.838
11.8445	0.835
11.8847	0.835
11.9248	0.84
11.965	0.84
12.0051	0.84
12.0453	0.838
12.0855	0.835
12.1256	0.833
12.1658	0.831
12.2059	0.831
12.2461	0.826
12.2862	0.82
12.3264	0.813
12.3665	0.801
12.4067	0.782
12.4468	0.743
12.487	0.665
12.5271	0.565
12.5673	0.542
12.6074	0.592
12.6476	0.622
12.6878	0.618
12.7279	0.607
12.7681	0.638
12.8082	0.673
12.8484	0.682
12.8885	0.677
12.9287	0.638
12.9688	0.594
13.009	0.55
13.0491	0.549
13.0893	0.54
13.1294	0.495
13.1696	0.45
13.2098	0.44
13.2499	0.479
13.2901	0.565
13.3302	0.642
13.3704	0.66
13.4105	0.665
13.4507	0.658
13.4908	0.637
13.531	0.617
13.5711	0.599
13.6113	0.579
13.6514	0.565
13.6916	0.55
13.7318	0.544
13.7719	0.54
13.8121	0.55
13.8522	0.559
13.8924	0.57
13.9325	0.579
13.9727	0.585
14.0128	0.595
14.053	0.6
14.0931	0.6
14.1333	0.595
14.1734	0.589
14.2136	0.58
14.2538	0.569
14.2939	0.549
14.3341	0.512
14.3742	0.467
14.4144	0.422
14.4545	0.399
14.4947	0.391
14.5348	0.379
14.575	0.362
14.6151	0.364
14.6553	0.399
14.6954	0.445
14.7356	0.469
14.7758	0.469
14.8159	0.457
14.8561	0.437
14.8962	0.415
14.9364	0.391
14.9765	0.344
15.0167	0.306
15.0568	0.282
15.097	0.279
15.1371	0.299
15.1773	0.319
15.2174	0.327
15.2576	0.329
15.2978	0.321
15.3379	0.312
15.3781	0.309
15.4182	0.302
15.4584	0.294
15.4985	0.292
15.5387	0.289
15.5788	0.284
15.619	0.277
15.6591	0.276
15.6993	0.276
15.7394	0.276
15.7796	0.274
15.8198	0.274
15.8599	0.274
15.9001	0.276
15.9402	0.276
