Infrared Spectrum: 2-(t-DODECYL MERCAPTO)-3-METHYL PYRAZINE
Formula: C17 H30 N2 S
CAS: 116323-36-5
State: LIQUID
Class: COBLENTZ
Instrument: Not specified, most likely a prism, grating, or hybrid spectrometer.
Sampling: TRANSMISSION
Path length: 0.0015 CM
Resolution: 4
Origin: WYANDOTTE CHEMICALS CORP., WYANDOTTE, MICHIGAN, USA
MICROMETERS	TRANSMITTANCE
2.027	0.991
2.06794	0.984
2.10887	0.981
2.14981	0.979
2.19074	0.953
2.23168	0.929
2.27261	0.946
2.31355	0.957
2.35448	0.96
2.39542	0.958
2.43635	0.97
2.47729	0.969
2.51823	0.965
2.55916	0.97
2.6001	0.986
2.64103	0.969
2.68197	0.969
2.7229	0.96
2.76384	0.943
2.80477	0.912
2.84571	0.866
2.88665	0.844
2.92758	0.828
2.96852	0.815
3.00945	0.811
3.05039	0.809
3.09132	0.803
3.13226	0.796
3.17319	0.803
3.21413	0.803
3.25506	0.773
3.296	0.59
3.33694	0.392
3.37787	0.034
3.41881	0.056
3.45974	0.135
3.50068	0.162
3.54161	0.583
3.58255	0.804
3.62348	0.869
3.66442	0.873
3.70535	0.883
3.74629	0.919
3.78723	0.924
3.82816	0.933
3.8691	0.938
3.91003	0.953
3.95097	0.962
3.9919	0.969
4.03284	0.979
4.07377	0.982
4.11471	0.972
4.15565	0.969
4.19658	0.969
4.23752	0.955
4.27845	0.94
4.31939	0.933
4.36032	0.94
4.40126	0.974
4.44219	0.982
4.48313	0.988
4.52406	0.984
4.565	0.981
4.60594	0.988
4.64687	0.989
4.68781	0.991
4.72874	0.988
4.76968	0.986
4.81061	0.991
4.85155	0.991
4.89248	0.993
4.93342	0.989
4.97435	0.989
5.01529	0.986
5.05623	0.991
5.09716	0.989
5.1381	0.988
5.17903	0.982
5.21997	0.986
5.2609	0.965
5.30184	0.952
5.34277	0.967
5.38371	0.974
5.42465	0.972
5.46558	0.972
5.50652	0.969
5.54745	0.965
5.58839	0.95
5.62932	0.917
5.67026	0.924
5.71119	0.902
5.75213	0.849
5.79306	0.772
5.834	0.748
5.87494	0.772
5.91587	0.801
5.95681	0.808
5.99774	0.806
6.03868	0.804
6.07961	0.821
6.12055	0.84
6.16148	0.857
6.20242	0.852
6.24335	0.861
6.28429	0.864
6.32523	0.845
6.36616	0.803
6.4071	0.799
6.44803	0.782
6.48897	0.736
6.5299	0.523
6.57084	0.279
6.61177	0.587
6.65271	0.702
6.69365	0.659
6.73458	0.527
6.77552	0.212
6.81645	0.157
6.85739	0.167
6.89832	0.294
6.93926	0.361
6.98019	0.428
7.02113	0.544
7.06206	0.577
7.103	0.556
7.14394	0.494
7.18487	0.412
7.22581	0.155
7.26674	0.14
7.30768	0.27
7.34861	0.234
7.38955	0.238
7.43048	0.195
7.47142	0.568
7.51235	0.674
7.55329	0.731
7.59423	0.736
7.63516	0.727
7.6761	0.726
7.71703	0.729
7.75797	0.731
7.7989	0.734
7.83984	0.753
7.88077	0.738
7.92171	0.66
7.96265	0.708
8.00358	0.722
8.04452	0.715
8.08545	0.717
8.12639	0.707
8.16732	0.654
8.20826	0.542
8.24919	0.482
8.29013	0.551
8.33106	0.489
8.372	0.515
8.41294	0.554
8.45387	0.476
8.49481	0.27
8.53574	0.256
8.57668	0.448
8.61761	0.525
8.65855	0.525
8.69948	0.505
8.74042	0.494
8.78135	0.472
8.82229	0.424
8.86323	0.386
8.90416	0.458
8.9451	0.503
8.98603	0.505
9.02697	0.494
9.0679	0.388
9.10884	0.157
9.14977	0.03
9.19071	0.095
9.23165	0.335
9.27258	0.467
9.31352	0.416
9.35445	0.21
9.39539	0.212
9.43632	0.429
9.47726	0.505
9.51819	0.537
9.55913	0.527
9.60006	0.541
9.641	0.563
9.68194	0.558
9.72287	0.601
9.76381	0.633
9.80474	0.619
9.84568	0.585
9.88661	0.638
9.92755	0.667
9.96848	0.684
10.0094	0.7
10.0504	0.703
10.0913	0.7
10.1322	0.672
10.1732	0.616
10.2141	0.517
10.255	0.404
10.296	0.402
10.3369	0.529
10.3778	0.619
10.4188	0.686
10.4597	0.729
10.5006	0.755
10.5416	0.772
10.5825	0.78
10.6235	0.792
10.6644	0.797
10.7053	0.801
10.7463	0.808
10.7872	0.797
10.8281	0.801
10.8691	0.799
10.91	0.792
10.9509	0.797
10.9919	0.806
11.0328	0.801
11.0737	0.789
11.1147	0.763
11.1556	0.743
11.1965	0.758
11.2375	0.775
11.2784	0.787
11.3194	0.792
11.3603	0.797
11.4012	0.796
11.4422	0.796
11.4831	0.782
11.524	0.779
11.565	0.763
11.6059	0.743
11.6468	0.715
11.6878	0.695
11.7287	0.631
11.7696	0.476
11.8106	0.332
11.8515	0.378
11.8925	0.405
11.9334	0.371
11.9743	0.422
12.0153	0.587
12.0562	0.702
12.0971	0.763
12.1381	0.787
12.179	0.791
12.2199	0.799
12.2609	0.801
12.3018	0.792
12.3427	0.789
12.3837	0.797
12.4246	0.787
12.4655	0.773
12.5065	0.746
12.5474	0.679
12.5884	0.618
12.6293	0.602
12.6702	0.674
12.7112	0.707
12.7521	0.727
12.793	0.732
12.834	0.724
12.8749	0.729
12.9158	0.731
12.9568	0.741
12.9977	0.732
13.0386	0.739
13.0796	0.738
13.1205	0.748
13.1615	0.746
13.2024	0.753
13.2433	0.765
13.2843	0.765
13.3252	0.772
13.3661	0.772
13.4071	0.756
13.448	0.741
13.4889	0.743
13.5299	0.765
13.5708	0.784
13.6117	0.792
13.6527	0.799
13.6936	0.804
13.7345	0.803
13.7755	0.815
13.8164	0.816
13.8574	0.823
13.8983	0.823
13.9392	0.832
13.9802	0.842
14.0211	0.84
14.062	0.842
14.103	0.84
14.1439	0.849
14.1848	0.839
14.2258	0.845
14.2667	0.84
14.3076	0.839
14.3486	0.842
14.3895	0.842
14.4305	0.84
14.4714	0.835
14.5123	0.83
14.5533	0.827
14.5942	0.82
14.6351	0.818
14.6761	0.806
14.717	0.784
14.7579	0.751
14.7989	0.717
14.8398	0.727
14.8807	0.746
14.9217	0.77
14.9626	0.787
15.0035	0.768
15.0445	0.755
15.0854	0.772
15.1264	0.804
15.1673	0.808
15.2082	0.803
15.2492	0.794
15.2901	0.782
15.331	0.782
15.372	0.782
15.4129	0.773
15.4538	0.758
15.4948	0.75
15.5357	0.75
15.5766	0.755
15.6176	0.739
15.6585	0.726
15.6995	0.722
15.7404	0.71
15.7813	0.707
15.8223	0.705
15.8632	0.695
15.9041	0.681
15.9451	0.676
15.986	0.664
