Infrared Spectrum: 1,3-CYCLOBUTANEDICARBONITRILE, 1,3-DIHYDROXY-2,2,4,4-TETRAMETHYL-
Formula: C10 H14 N2 O2
CAS: 116373-47-8
State: SOLID (KBr PELLET)
Melting point: 174-176 C
Class: COBLENTZ
Instrument: Not specified, most likely a prism, grating, or hybrid spectrometer.
Sampling: TRANSMISSION
Resolution: 4
Origin: TENNESSEE EASTMAN COMPANY, RESEARCH LABORATORIES
MICROMETERS	TRANSMITTANCE
2	0.737
2.04126	0.751
2.08252	0.754
2.12378	0.765
2.16504	0.77
2.20631	0.783
2.24757	0.771
2.28883	0.758
2.33009	0.787
2.37135	0.792
2.41261	0.792
2.45387	0.792
2.49513	0.787
2.5364	0.801
2.57766	0.809
2.61892	0.811
2.66018	0.819
2.70144	0.819
2.7427	0.787
2.78396	0.74
2.82522	0.67
2.86649	0.531
2.90775	0.192
2.94901	0.029
2.99027	0.013
3.03153	0.063
3.07279	0.145
3.11405	0.427
3.15531	0.598
3.19657	0.718
3.23784	0.766
3.2791	0.783
3.32036	0.716
3.36162	0.38
3.40288	0.413
3.44414	0.632
3.4854	0.665
3.52666	0.771
3.56793	0.763
3.60919	0.696
3.65045	0.548
3.69171	0.692
3.73297	0.816
3.77423	0.854
3.81549	0.869
3.85675	0.878
3.89802	0.891
3.93928	0.881
3.98054	0.891
4.0218	0.891
4.06306	0.919
4.10432	0.915
4.14558	0.915
4.18684	0.915
4.2281	0.917
4.26937	0.914
4.31063	0.898
4.35189	0.909
4.39315	0.833
4.43441	0.814
4.47567	0.301
4.51693	0.855
4.55819	0.915
4.59946	0.95
4.64072	0.953
4.68198	0.958
4.72324	0.958
4.7645	0.948
4.80576	0.939
4.84702	0.946
4.88828	0.963
4.92955	0.975
4.97081	0.982
5.01207	1
5.05333	0.984
5.09459	0.977
5.13585	0.981
5.17711	0.984
5.21837	0.984
5.25963	0.974
5.3009	0.958
5.34216	0.969
5.38342	0.97
5.42468	0.977
5.46594	0.982
5.5072	0.982
5.54846	0.972
5.58972	0.962
5.63099	0.941
5.67225	0.941
5.71351	0.929
5.75477	0.91
5.79603	0.89
5.83729	0.9
5.87855	0.895
5.91981	0.9
5.96108	0.897
6.00234	0.895
6.0436	0.893
6.08486	0.883
6.12612	0.881
6.16738	0.897
6.20864	0.919
6.2499	0.933
6.29116	0.943
6.33243	0.933
6.37369	0.929
6.41495	0.927
6.45621	0.914
6.49747	0.915
6.53873	0.905
6.57999	0.9
6.62125	0.881
6.66252	0.861
6.70378	0.759
6.74504	0.512
6.7863	0.07
6.82756	0.216
6.86882	0.358
6.91008	0.459
6.95134	0.598
6.99261	0.689
7.03387	0.708
7.07513	0.62
7.11639	0.382
7.15765	0.101
7.19891	0.144
7.24017	0.066
7.28143	0.308
7.32269	0.566
7.36396	0.703
7.40522	0.749
7.44648	0.777
7.48774	0.804
7.529	0.813
7.57026	0.823
7.61152	0.833
7.65278	0.828
7.69405	0.821
7.73531	0.814
7.77657	0.802
7.81783	0.766
7.85909	0.605
7.90035	0.241
7.94161	0.447
7.98287	0.644
8.02413	0.723
8.0654	0.753
8.10666	0.749
8.14792	0.735
8.18918	0.706
8.23044	0.653
8.2717	0.504
8.31296	0.257
8.35422	0.144
8.39549	0.259
8.43675	0.387
8.47801	0.469
8.51927	0.502
8.56053	0.518
8.60179	0.555
8.64305	0.605
8.68431	0.634
8.72558	0.658
8.76684	0.665
8.8081	0.658
8.84936	0.655
8.89062	0.636
8.93188	0.61
8.97314	0.595
9.0144	0.552
9.05566	0.502
9.09693	0.367
9.13819	0.156
9.17945	0.027
9.22071	0.022
9.26197	0.027
9.30323	0.123
9.34449	0.305
9.38575	0.483
9.42702	0.593
9.46828	0.634
9.50954	0.665
9.5508	0.698
9.59206	0.728
9.63332	0.742
9.67458	0.759
9.71584	0.763
9.75711	0.754
9.79837	0.746
9.83963	0.706
9.88089	0.619
9.92215	0.408
9.96341	0.164
10.0047	0.061
10.0459	0.128
10.0872	0.164
10.1285	0.085
10.1697	0.221
10.211	0.428
10.2522	0.535
10.2935	0.627
10.3348	0.674
10.376	0.684
10.4173	0.716
10.4585	0.759
10.4998	0.799
10.5411	0.818
10.5823	0.837
10.6236	0.859
10.6649	0.879
10.7061	0.9
10.7474	0.915
10.7886	0.931
10.8299	0.939
10.8712	0.941
10.9124	0.95
10.9537	0.951
10.9949	0.951
11.0362	0.953
11.0775	0.955
11.1187	0.958
11.16	0.963
11.2012	0.969
11.2425	0.97
11.2838	0.97
11.325	0.974
11.3663	0.981
11.4076	0.974
11.4488	0.975
11.4901	0.977
11.5313	0.986
11.5726	0.986
11.6139	0.984
11.6551	0.987
11.6964	0.993
11.7376	0.994
11.7789	0.993
11.8202	0.993
11.8614	0.994
11.9027	0.987
11.9439	0.974
11.9852	0.96
12.0265	0.895
12.0677	0.686
12.109	0.509
12.1503	0.698
12.1915	0.835
12.2328	0.905
12.274	0.936
12.3153	0.951
12.3566	0.958
12.3978	0.969
12.4391	0.974
12.4803	0.974
12.5216	0.97
12.5629	0.972
12.6041	0.972
12.6454	0.969
12.6867	0.957
12.7279	0.957
12.7692	0.955
12.8104	0.957
12.8517	0.953
12.893	0.951
12.9342	0.951
12.9755	0.953
13.0167	0.953
13.058	0.953
13.0993	0.948
13.1405	0.945
13.1818	0.945
13.223	0.945
13.2643	0.941
13.3056	0.933
13.3468	0.933
13.3881	0.933
13.4294	0.927
13.4706	0.924
13.5119	0.914
13.5531	0.912
13.5944	0.9
13.6357	0.888
13.6769	0.867
13.7182	0.852
13.7594	0.831
13.8007	0.811
13.842	0.777
13.8832	0.727
13.9245	0.67
13.9657	0.598
14.007	0.542
14.0483	0.512
14.0895	0.535
14.1308	0.59
14.1721	0.638
14.2133	0.675
14.2546	0.699
14.2958	0.715
14.3371	0.734
14.3784	0.742
14.4196	0.756
14.4609	0.763
14.5021	0.77
14.5434	0.771
14.5847	0.771
14.6259	0.77
14.6672	0.77
14.7084	0.765
14.7497	0.759
14.791	0.754
14.8322	0.746
14.8735	0.732
14.9148	0.725
14.956	0.701
14.9973	0.692
15.0385	0.68
15.0798	0.674
15.1211	0.662
15.1623	0.65
15.2036	0.639
15.2448	0.627
15.2861	0.615
15.3274	0.602
15.3686	0.588
15.4099	0.567
15.4512	0.555
15.4924	0.533
15.5337	0.509
15.5749	0.499
15.6162	0.475
15.6575	0.457
15.6987	0.447
15.74	0.421
15.7812	0.409
15.8225	0.401
15.8638	0.399
15.905	0.389
15.9463	0.372
15.9875	0.367
