Infrared Spectrum: 2-(B-DIETHYLAMINOETHOXY)-1-PHENYLETHYLAZIDE
Formula: C14 H22 N4 O
CAS: 116373-75-2
Class: COBLENTZ
Instrument: Not specified, most likely a prism, grating, or hybrid spectrometer.
Sampling: TRANSMISSION
Resolution: 4
Origin: PERKIN-ELMER CORP.
MICROMETERS	TRANSMITTANCE
1.978	0.9
2.01446	0.898
2.05091	0.902
2.08737	0.889
2.12383	0.898
2.16028	0.895
2.19674	0.898
2.2332	0.9
2.26965	0.891
2.30611	0.88
2.34256	0.87
2.37902	0.873
2.41548	0.868
2.45193	0.87
2.48839	0.872
2.52485	0.875
2.5613	0.873
2.59776	0.882
2.63422	0.886
2.67067	0.889
2.70713	0.886
2.74359	0.879
2.78004	0.872
2.8165	0.865
2.85296	0.863
2.88941	0.856
2.92587	0.84
2.96232	0.808
2.99878	0.804
3.03524	0.799
3.07169	0.815
3.10815	0.818
3.14461	0.817
3.18106	0.822
3.21752	0.818
3.25398	0.772
3.29043	0.694
3.32689	0.676
3.36335	0.252
3.3998	0.273
3.43626	0.291
3.47271	0.291
3.50917	0.33
3.54563	0.349
3.58208	0.387
3.61854	0.543
3.655	0.644
3.69145	0.682
3.72791	0.74
3.76437	0.783
3.80082	0.813
3.83728	0.833
3.87374	0.836
3.91019	0.841
3.94665	0.85
3.98311	0.857
4.01956	0.852
4.05602	0.856
4.09247	0.861
4.12893	0.868
4.16539	0.879
4.20184	0.872
4.2383	0.886
4.27476	0.888
4.31121	0.879
4.34767	0.868
4.38413	0.857
4.42058	0.854
4.45704	0.85
4.4935	0.845
4.52995	0.827
4.56641	0.785
4.60287	0.719
4.63932	0.541
4.67578	0.317
4.71223	0.206
4.74869	0.106
4.78515	0.122
4.8216	0.404
4.85806	0.611
4.89452	0.758
4.93097	0.82
4.96743	0.843
5.00389	0.857
5.04034	0.856
5.0768	0.854
5.11326	0.85
5.14971	0.849
5.18617	0.857
5.22263	0.868
5.25908	0.865
5.29554	0.856
5.33199	0.854
5.36845	0.868
5.40491	0.872
5.44136	0.875
5.47782	0.87
5.51428	0.856
5.55073	0.856
5.58719	0.868
5.62365	0.877
5.6601	0.875
5.69656	0.872
5.73302	0.868
5.76947	0.856
5.80593	0.783
5.84239	0.761
5.87884	0.813
5.9153	0.781
5.95175	0.769
5.98821	0.779
6.02467	0.811
6.06112	0.831
6.09758	0.825
6.13404	0.825
6.17049	0.822
6.20695	0.806
6.24341	0.742
6.27986	0.781
6.31632	0.793
6.35278	0.808
6.38923	0.815
6.42569	0.827
6.46214	0.817
6.4986	0.813
6.53506	0.813
6.57151	0.818
6.60797	0.818
6.64443	0.808
6.68088	0.726
6.71734	0.563
6.7538	0.664
6.79025	0.605
6.82671	0.516
6.86317	0.479
6.89962	0.317
6.93608	0.472
6.97254	0.595
7.00899	0.678
7.04545	0.751
7.0819	0.767
7.11836	0.761
7.15482	0.74
7.19127	0.674
7.22773	0.529
7.26419	0.436
7.30064	0.458
7.3371	0.468
7.37356	0.52
7.41001	0.474
7.44647	0.424
7.48293	0.426
7.51938	0.479
7.55584	0.476
7.5923	0.479
7.62875	0.431
7.66521	0.381
7.70166	0.413
7.73812	0.406
7.77458	0.39
7.81103	0.387
7.84749	0.346
7.88395	0.316
7.9204	0.333
7.95686	0.365
7.99332	0.36
8.02977	0.369
8.06623	0.397
8.10269	0.46
8.13914	0.513
8.1756	0.577
8.21206	0.607
8.24851	0.602
8.28497	0.554
8.32142	0.467
8.35788	0.47
8.39434	0.527
8.43079	0.579
8.46725	0.605
8.50371	0.605
8.54016	0.628
8.57662	0.68
8.61308	0.714
8.64953	0.715
8.68599	0.694
8.72245	0.678
8.7589	0.621
8.79536	0.509
8.83182	0.373
8.86827	0.275
8.90473	0.186
8.94118	0.14
8.97764	0.142
9.0141	0.15
9.05055	0.182
9.08701	0.243
9.12347	0.287
9.15992	0.307
9.19638	0.303
9.23284	0.298
9.26929	0.307
9.30575	0.314
9.34221	0.332
9.37866	0.312
9.41512	0.316
9.45157	0.371
9.48803	0.42
9.52449	0.465
9.56094	0.497
9.5974	0.518
9.63386	0.552
9.67031	0.566
9.70677	0.571
9.74323	0.543
9.77968	0.531
9.81614	0.568
9.8526	0.593
9.88905	0.621
9.92551	0.642
9.96197	0.651
9.99842	0.648
10.0349	0.653
10.0713	0.667
10.1078	0.678
10.1442	0.692
10.1807	0.696
10.2172	0.701
10.2536	0.708
10.2901	0.721
10.3265	0.735
10.363	0.742
10.3994	0.753
10.4359	0.761
10.4724	0.765
10.5088	0.765
10.5453	0.765
10.5817	0.767
10.6182	0.767
10.6546	0.763
10.6911	0.76
10.7276	0.751
10.764	0.749
10.8005	0.742
10.8369	0.737
10.8734	0.733
10.9098	0.721
10.9463	0.715
10.9827	0.715
11.0192	0.721
11.0557	0.738
11.0921	0.749
11.1286	0.763
11.165	0.77
11.2015	0.776
11.2379	0.777
11.2744	0.772
11.3109	0.765
11.3473	0.751
11.3838	0.738
11.4202	0.728
11.4567	0.712
11.4931	0.701
11.5296	0.689
11.566	0.674
11.6025	0.669
11.639	0.664
11.6754	0.671
11.7119	0.674
11.7483	0.676
11.7848	0.682
11.8212	0.687
11.8577	0.687
11.8942	0.69
11.9306	0.694
11.9671	0.699
12.0035	0.71
12.04	0.721
12.0764	0.728
12.1129	0.738
12.1494	0.735
12.1858	0.74
12.2223	0.737
12.2587	0.731
12.2952	0.735
12.3316	0.731
12.3681	0.726
12.4045	0.719
12.441	0.719
12.4775	0.714
12.5139	0.708
12.5504	0.712
12.5868	0.719
12.6233	0.724
12.6597	0.722
12.6962	0.719
12.7327	0.721
12.7691	0.717
12.8056	0.71
12.842	0.706
12.8785	0.706
12.9149	0.694
12.9514	0.682
12.9879	0.655
13.0243	0.628
13.0608	0.566
13.0972	0.507
13.1337	0.42
13.1701	0.374
13.2066	0.362
13.243	0.376
13.2795	0.431
13.316	0.479
13.3524	0.523
13.3889	0.557
13.4253	0.584
13.4618	0.603
13.4982	0.623
13.5347	0.637
13.5712	0.641
13.6076	0.642
13.6441	0.651
13.6805	0.658
13.717	0.674
13.7534	0.687
13.7899	0.694
13.8264	0.698
13.8628	0.692
13.8993	0.685
13.9357	0.664
13.9722	0.639
14.0086	0.609
14.0451	0.577
14.0815	0.548
14.118	0.476
14.1545	0.385
14.1909	0.282
14.2274	0.2
14.2638	0.158
14.3003	0.166
14.3367	0.245
14.3732	0.364
14.4097	0.458
14.4461	0.529
14.4826	0.587
14.519	0.607
14.5555	0.628
14.5919	0.637
14.6284	0.644
14.6648	0.646
14.7013	0.641
14.7378	0.637
14.7742	0.625
14.8107	0.623
14.8471	0.623
14.8836	0.623
14.92	0.618
14.9565	0.618
14.993	0.618
15.0294	0.605
15.0659	0.602
15.1023	0.602
15.1388	0.603
15.1752	0.598
15.2117	0.589
15.2482	0.577
15.2846	0.563
15.3211	0.545
15.3575	0.532
15.394	0.522
15.4304	0.525
