Infrared Spectrum: Benzylidenimine, -2,4-dimethoxy-N-methyl-,
Formula: C10 H13 N O2
CAS: 116373-09-2
State: LIQUID (NEAT)
Class: COBLENTZ III
Instrument: PERKIN-ELMER 21 (GRATING)
Instrument parameters: FILTER AT ABOUT 10 MICRONS
Path length: CAPILLARY
Resolution: 2
Origin: ABBOTT LABORATORIES
1/CM	TRANSMITTANCE
665	0.7814
674	0.8124
683	0.8313
692	0.8452
701	0.8583
710	0.8642
719	0.8525
728	0.8757
737	0.8902
746	0.8885
755	0.8888
764	0.8837
773	0.89
782	0.8745
791	0.7963
800	0.7452
809	0.7647
818	0.6626
827	0.5582
836	0.5907
845	0.7465
854	0.8463
863	0.8784
872	0.8903
881	0.8957
890	0.8947
899	0.8836
908	0.8632
917	0.7723
926	0.8125
935	0.6925
944	0.8431
953	0.8461
962	0.7945
971	0.8666
980	0.8688
989	0.8173
998	0.6618
1007	0.7973
1016	0.7563
1025	0.4591
1034	0.305
1043	0.4555
1052	0.7675
1061	0.8361
1070	0.8463
1079	0.8381
1088	0.8229
1097	0.6861
1106	0.5822
1115	0.4479
1124	0.6012
1133	0.7496
1142	0.6811
1151	0.3573
1160	0.4101
1169	0.7355
1178	0.6841
1187	0.691
1196	0.457
1205	0.1393
1214	0.5716
1223	0.751
1232	0.7742
1241	0.7478
1250	0.6417
1259	0.4334
1268	0.1591
1277	0.2143
1286	0.3079
1295	0.4457
1304	0.3015
1313	0.3692
1322	0.6959
1331	0.7962
1340	0.8143
1349	0.7927
1358	0.7382
1367	0.659
1376	0.7551
1385	0.7924
1394	0.6877
1403	0.6829
1412	0.5236
1421	0.5733
1430	0.5791
1439	0.5344
1448	0.4059
1457	0.3462
1466	0.4471
1475	0.6651
1484	0.6806
1493	0.5566
1502	0.2747
1511	0.6402
1520	0.8121
1529	0.8185
1538	0.813
1547	0.7954
1556	0.7675
1565	0.704
1574	0.5009
1583	0.4578
1592	0.4433
1601	0.2338
1610	0.1009
1619	0.3582
1628	0.5498
1637	0.3617
1646	0.3804
1655	0.7439
1664	0.791
1673	0.7889
1682	0.8139
1691	0.8394
1700	0.8562
1709	0.8663
1718	0.87
1727	0.8725
1736	0.8745
1745	0.877
1754	0.8818
1763	0.8885
1772	0.8896
1781	0.8896
1790	0.8896
1799	0.8898
1808	0.8901
1817	0.8903
1826	0.8905
1835	0.8907
1844	0.8907
1853	0.8896
1862	0.8874
1871	0.8816
1880	0.8792
1889	0.8788
1898	0.8802
1907	0.8819
1916	0.8837
1925	0.8858
1934	0.8882
1943	0.8898
1952	0.8906
1961	0.889
1970	0.8865
1979	0.8824
1988	0.877
1997	0.8795
2006	0.8845
2015	0.8848
2024	0.8835
2033	0.8809
2042	0.8794
2051	0.8787
2060	0.8791
2069	0.8817
2078	0.8841
2087	0.8865
2096	0.8875
2105	0.8877
2114	0.887
2123	0.8871
2132	0.8878
2141	0.8891
2150	0.8909
2159	0.8912
2168	0.8914
2177	0.8916
2186	0.8917
2195	0.8917
2204	0.8909
2213	0.8901
2222	0.8894
2231	0.8886
2240	0.8879
2249	0.8871
2258	0.8863
2267	0.8855
2276	0.8848
2285	0.8842
2294	0.8835
2303	0.8829
2312	0.8824
2321	0.882
2330	0.8815
2339	0.8813
2348	0.8814
2357	0.8815
2366	0.882
2375	0.8832
2384	0.8841
2393	0.8826
2402	0.881
2411	0.8789
2420	0.877
2429	0.8764
2438	0.8759
2447	0.8768
2456	0.8779
2465	0.8786
2474	0.8785
2483	0.8784
2492	0.8783
2501	0.8782
2510	0.8782
2519	0.8781
2528	0.8768
2537	0.8746
2546	0.8721
2555	0.8691
2564	0.8691
2573	0.8725
2582	0.8756
2591	0.8762
2600	0.8766
2609	0.8766
2618	0.8762
2627	0.8775
2636	0.8755
2645	0.8748
2654	0.8739
2663	0.873
2672	0.8703
2681	0.8671
2690	0.8628
2699	0.8584
2708	0.8538
2717	0.849
2726	0.8425
2735	0.8314
2744	0.8188
2753	0.8127
2762	0.8121
2771	0.8178
2780	0.8262
2789	0.8231
2798	0.797
2807	0.7692
2816	0.7416
2825	0.7141
2834	0.6869
2843	0.671
2852	0.663
2861	0.6503
2870	0.6208
2879	0.5915
2888	0.5811
2897	0.59
2906	0.6016
2915	0.6013
2924	0.5875
2933	0.5739
2942	0.5723
2951	0.6164
2960	0.6577
2969	0.6988
2978	0.7351
2987	0.7408
2996	0.7416
3005	0.7429
3014	0.7729
3023	0.8068
3032	0.8319
3041	0.8336
3050	0.8352
3059	0.8368
3068	0.8412
3077	0.8486
3086	0.8538
3095	0.8571
3104	0.8595
3113	0.8617
3122	0.8638
3131	0.8666
3140	0.8694
3149	0.8722
3158	0.8739
3167	0.8756
3176	0.8772
3185	0.8776
3194	0.8776
3203	0.8775
3212	0.8775
3221	0.8774
3230	0.877
3239	0.8768
3248	0.8765
3257	0.8763
3266	0.8762
3275	0.8761
3284	0.876
3293	0.8759
3302	0.8757
3311	0.8756
3320	0.8756
3329	0.8759
3338	0.8761
3347	0.8763
3356	0.8766
3365	0.8768
3374	0.8776
3383	0.8786
3392	0.8795
3401	0.8805
3410	0.8815
3419	0.8824
3428	0.8835
3437	0.8846
3446	0.8856
3455	0.8867
3464	0.8877
3473	0.8886
3482	0.8894
3491	0.89
3500	0.8906
3509	0.8913
3518	0.892
3527	0.8925
3536	0.893
3545	0.8936
3554	0.8941
3563	0.8947
3572	0.8952
3581	0.8953
3590	0.8956
3599	0.8958
3608	0.8961
3617	0.8962
3626	0.8965
3635	0.8967
3644	0.8967
3653	0.8964
3662	0.8962
3671	0.8961
3680	0.8959
3689	0.8957
3698	0.8955
3707	0.8953
3716	0.8951
3725	0.895
3734	0.8947
3743	0.8945
3752	0.8943
3761	0.8941
3770	0.894
3779	0.8938
3788	0.8935
3797	0.8934
3806	0.8931
3815	0.893
3824	0.8928
3833	0.8927
3842	0.8925
3851	0.8924
3860	0.8922
3869	0.8919
3878	0.8916
3887	0.8913
3896	0.8909
3905	0.8906
3914	0.8903
3923	0.89
3932	0.8896
3941	0.8893
3950	0.889
3959	0.8887
3968	0.8884
3977	0.8881
3986	0.8878
3995	0.8875
