Infrared Spectrum: Cyclopropanecarbamic acid, N-(o-chlorobenzyl)-, ethyl ester
Formula: C13 H16 Cl N O2
CAS: 116373-53-6
State: LIQUID
Class: COBLENTZ III
Instrument: PERKIN-ELMER 21 (GRATING)
Instrument parameters: FILTER AT ABOUT 10 MICRONS
Path length: CAPILLARY
Resolution: 2
Origin: ABBOTT LABORATORIES
1/CM	TRANSMITTANCE
648	0.6381
657	0.6514
666	0.67
675	0.6323
684	0.6788
693	0.6975
702	0.7129
711	0.7449
720	0.7469
729	0.7058
738	0.6442
747	0.3762
756	0.4637
765	0.5997
774	0.5749
783	0.7454
792	0.7562
801	0.7545
810	0.7634
819	0.7509
828	0.7147
837	0.8009
846	0.8259
855	0.8215
864	0.8161
873	0.8075
882	0.8317
891	0.8132
900	0.7626
909	0.8063
918	0.8207
927	0.807
936	0.8084
945	0.7969
954	0.7901
963	0.8376
972	0.8393
981	0.8295
990	0.8114
999	0.755
1008	0.6513
1017	0.5348
1026	0.4959
1035	0.4839
1044	0.5253
1053	0.6318
1062	0.5069
1071	0.5401
1080	0.7254
1089	0.6691
1098	0.6793
1107	0.6383
1116	0.4872
1125	0.5459
1134	0.441
1143	0.4917
1152	0.6142
1161	0.5926
1170	0.647
1179	0.672
1188	0.6559
1197	0.6506
1206	0.6881
1215	0.5891
1224	0.4818
1233	0.3742
1242	0.4772
1251	0.5337
1260	0.495
1269	0.4748
1278	0.4758
1287	0.3496
1296	0.3433
1305	0.5687
1314	0.6982
1323	0.7175
1332	0.6772
1341	0.5105
1350	0.5394
1359	0.5837
1368	0.43
1377	0.3262
1386	0.502
1395	0.4209
1404	0.2886
1413	0.3595
1422	0.4187
1431	0.4061
1440	0.3489
1449	0.4521
1458	0.5052
1467	0.4612
1476	0.5613
1485	0.6367
1494	0.7761
1503	0.806
1512	0.818
1521	0.8173
1530	0.8162
1539	0.8157
1548	0.8175
1557	0.8258
1566	0.7994
1575	0.7801
1584	0.8275
1593	0.7982
1602	0.8251
1611	0.8266
1620	0.8251
1629	0.818
1638	0.8039
1647	0.7792
1656	0.7471
1665	0.7039
1674	0.6401
1683	0.464
1692	0.21
1701	0.1275
1710	0.1384
1719	0.3461
1728	0.5517
1737	0.734
1746	0.7896
1755	0.816
1764	0.8241
1773	0.8309
1782	0.8375
1791	0.8428
1800	0.8468
1809	0.8488
1818	0.8511
1827	0.8604
1836	0.8636
1845	0.8648
1854	0.8652
1863	0.8654
1872	0.8654
1881	0.8652
1890	0.8656
1899	0.8662
1908	0.8659
1917	0.8654
1926	0.8646
1935	0.8653
1944	0.8658
1953	0.868
1962	0.8701
1971	0.8715
1980	0.8724
1989	0.8732
1998	0.8737
2007	0.8761
2016	0.8773
2025	0.8785
2034	0.8788
2043	0.8792
2052	0.8795
2061	0.8798
2070	0.8804
2079	0.8812
2088	0.8821
2097	0.8829
2106	0.8841
2115	0.8852
2124	0.8864
2133	0.8875
2142	0.8885
2151	0.8895
2160	0.8905
2169	0.8914
2178	0.8923
2187	0.8931
2196	0.894
2205	0.8948
2214	0.8956
2223	0.8964
2232	0.8971
2241	0.8978
2250	0.8985
2259	0.8993
2268	0.9007
2277	0.9031
2286	0.9054
2295	0.908
2304	0.9108
2313	0.9136
2322	0.9161
2331	0.9173
2340	0.9185
2349	0.917
2358	0.9151
2367	0.9114
2376	0.9073
2385	0.9039
2394	0.9051
2403	0.9064
2412	0.9079
2421	0.9093
2430	0.9108
2439	0.9117
2448	0.9125
2457	0.9133
2466	0.9141
2475	0.9145
2484	0.9147
2493	0.9149
2502	0.915
2511	0.9152
2520	0.9154
2529	0.9157
2538	0.9159
2547	0.9162
2556	0.9162
2565	0.916
2574	0.9158
2583	0.9156
2592	0.9154
2601	0.9153
2610	0.9151
2619	0.9149
2628	0.9147
2637	0.9146
2646	0.9144
2655	0.9143
2664	0.9142
2673	0.914
2682	0.9139
2691	0.9138
2700	0.9136
2709	0.9135
2718	0.9129
2727	0.9121
2736	0.9114
2745	0.9098
2754	0.9072
2763	0.9047
2772	0.9014
2781	0.8971
2790	0.8927
2799	0.8885
2808	0.8837
2817	0.8771
2826	0.87
2835	0.8602
2844	0.8495
2853	0.838
2862	0.8265
2871	0.8155
2880	0.8046
2889	0.7934
2898	0.7797
2907	0.7659
2916	0.7529
2925	0.74
2934	0.7267
2943	0.713
2952	0.6995
2961	0.6861
2970	0.6727
2979	0.6594
2988	0.6576
2997	0.6751
3006	0.7114
3015	0.7475
3024	0.7834
3033	0.8191
3042	0.8324
3051	0.8312
3060	0.8263
3069	0.8228
3078	0.8223
3087	0.8248
3096	0.8466
3105	0.871
3114	0.886
3123	0.8908
3132	0.8921
3141	0.8919
3150	0.8918
3159	0.8918
3168	0.8917
3177	0.8916
3186	0.8915
3195	0.8914
3204	0.8912
3213	0.8911
3222	0.8909
3231	0.8907
3240	0.8898
3249	0.8888
3258	0.8875
3267	0.8852
3276	0.8828
3285	0.8799
3294	0.877
3303	0.8743
3312	0.8719
3321	0.8704
3330	0.8704
3339	0.8704
3348	0.8704
3357	0.871
3366	0.8717
3375	0.8725
3384	0.8731
3393	0.8738
3402	0.8747
3411	0.8757
3420	0.8769
3429	0.8783
3438	0.8797
3447	0.8812
3456	0.8826
3465	0.8841
3474	0.8855
3483	0.8869
3492	0.8882
3501	0.8896
3510	0.8909
3519	0.8921
3528	0.8933
3537	0.8943
3546	0.8953
3555	0.8964
3564	0.8975
3573	0.8985
3582	0.8996
3591	0.9004
3600	0.9011
3609	0.9019
3618	0.9027
3627	0.9034
3636	0.9041
3645	0.9049
3654	0.9057
3663	0.9063
3672	0.9067
3681	0.9067
3690	0.9069
3699	0.907
3708	0.9071
3717	0.9073
3726	0.9074
3735	0.9075
3744	0.9076
3753	0.9076
3762	0.9075
3771	0.9074
3780	0.9073
3789	0.9072
3798	0.9072
3807	0.907
3816	0.907
3825	0.9068
3834	0.9068
3843	0.9066
3852	0.9065
3861	0.9064
3870	0.9062
3879	0.9062
3888	0.9061
3897	0.9059
3906	0.9058
3915	0.9056
3924	0.9054
3933	0.9052
3942	0.905
3951	0.9048
3960	0.9046
3969	0.9043
3978	0.9042
3987	0.904
3996	0.9038
