Infrared Spectrum: 4-BROMO-7-METHOXY-1-OXO-INDENE
Formula: C10 H7 Br O2
CAS: 116373-87-6
State: SOLID (1.0% IN KBr PELLET)
Class: COBLENTZ
Instrument: Not specified, most likely a prism, grating, or hybrid spectrometer.
Sampling: TRANSMISSION
Path length: 0.0355 CM THICK
Resolution: 4
Origin: ANDERSON PHYSICAL LABORATORY
1/CM	TRANSMITTANCE
664.486	0.794
672.897	0.785
681.308	0.7121
689.72	0.7029
698.131	0.832
706.542	0.859
714.953	0.86
723.365	0.898
731.776	0.902
740.187	0.899
748.598	0.901
757.01	0.892
765.421	0.886
773.832	0.874
782.243	0.86
790.655	0.836
799.066	0.767
807.477	0.4831
815.888	0.5589
824.3	0.57
832.711	0.573
841.122	0.8329
849.533	0.883
857.945	0.887
866.356	0.886
874.767	0.874
883.178	0.869
891.59	0.863
900.001	0.851
908.412	0.844
916.823	0.823
925.235	0.782
933.646	0.6271
942.057	0.8359
950.468	0.818
958.88	0.785
967.291	0.776
975.702	0.75
984.113	0.699
992.525	0.582
1000.94	0.404
1009.35	0.612
1017.76	0.3481
1026.17	0.2579
1034.58	0.7439
1042.99	0.856
1051.4	0.835
1059.81	0.794
1068.23	0.736
1076.64	0.494
1085.05	0.61
1093.46	0.785
1101.87	0.757
1110.28	0.726
1118.69	0.664
1127.1	0.447
1135.52	0.5969
1143.93	0.757
1152.34	0.733
1160.75	0.709
1169.16	0.675
1177.57	0.5981
1185.98	0.491
1194.39	0.3621
1202.81	0.2869
1211.22	0.633
1219.63	0.646
1228.04	0.543
1236.45	0.396
1244.86	0.461
1253.27	0.591
1261.68	0.494
1270.1	0.3361
1278.51	0.2169
1286.92	0.172
1295.33	0.185
1303.74	0.513
1312.15	0.775
1320.56	0.796
1328.97	0.7049
1337.39	0.384
1345.8	0.6748
1354.21	0.871
1362.62	0.863
1371.03	0.838
1379.44	0.793
1387.85	0.747
1396.26	0.699
1404.68	0.673
1413.09	0.657
1421.5	0.579
1429.91	0.446
1438.32	0.323
1446.73	0.558
1455.14	0.645
1463.55	0.504
1471.97	0.288
1480.38	0.139
1488.79	0.2761
1497.2	0.6271
1505.61	0.79
1514.02	0.82
1522.43	0.805
1530.84	0.8
1539.26	0.776
1547.67	0.733
1556.08	0.702
1564.49	0.6119
1572.9	0.5108
1581.31	0.2779
1589.72	0.148
1598.13	0.4339
1606.55	0.779
1614.96	0.787
1623.37	0.738
1631.78	0.72
1640.19	0.693
1648.6	0.639
1657.01	0.58
1665.42	0.528
1673.84	0.45
1682.25	0.38
1690.66	0.16
1699.07	0.068
1707.48	0.106
1715.89	0.2381
1724.3	0.583
1732.71	0.7331
1741.13	0.844
1749.54	0.8961
1757.95	0.953
1766.36	0.946
1774.77	0.941
1783.18	0.953
1791.59	0.961
1800	0.964
1808.42	0.956
1816.83	0.953
1825.24	0.956
1833.65	0.956
1842.06	0.938
1850.47	0.934
1858.88	0.919
1867.29	0.923
1875.71	0.922
1884.12	0.904
1892.53	0.896
1900.94	0.881
1909.35	0.871
1917.76	0.875
1926.17	0.883
1934.58	0.88
1943	0.878
1951.41	0.875
1959.82	0.869
1968.23	0.865
1976.64	0.865
1985.05	0.866
1993.46	0.865
2001.87	0.8595
2010.29	0.8562
2018.7	0.854
2027.11	0.853
2035.52	0.851
2043.93	0.851
2052.34	0.853
2060.75	0.8525
2069.16	0.8505
2077.58	0.8484
2085.99	0.847
2094.4	0.847
2102.81	0.847
2111.22	0.845
2119.63	0.8418
2128.04	0.8351
2136.45	0.8294
2144.86	0.827
2153.28	0.826
2161.69	0.824
2170.1	0.824
2178.51	0.824
2186.92	0.823
2195.33	0.8196
2203.74	0.8126
2212.15	0.8082
2220.57	0.805
2228.98	0.803
2237.39	0.802
2245.8	0.8
2254.21	0.797
2262.62	0.796
2271.03	0.794
2279.44	0.793
2287.86	0.7909
2296.27	0.79
2304.68	0.79
2313.09	0.788
2321.5	0.7878
2329.91	0.787
2338.32	0.7857
2346.73	0.785
2355.15	0.784
2363.56	0.782
2371.97	0.7796
2380.38	0.7751
2388.79	0.7608
2397.2	0.7567
2405.61	0.755
2414.02	0.755
2422.44	0.7548
2430.85	0.754
2439.26	0.754
2447.67	0.752
2456.08	0.7503
2464.49	0.748
2472.9	0.748
2481.31	0.745
2489.73	0.744
2498.14	0.7415
2506.55	0.7395
2514.96	0.735
2523.37	0.732
2531.78	0.73
2540.19	0.73
2548.6	0.733
2557.02	0.7353
2565.43	0.738
2573.84	0.738
2582.25	0.733
2590.66	0.7327
2599.07	0.7294
2607.48	0.729
2615.89	0.7259
2624.31	0.7224
2632.72	0.721
2641.13	0.7202
2649.54	0.7209
2657.95	0.7194
2666.36	0.718
2674.77	0.7153
2683.18	0.7116
2691.6	0.7063
2700.01	0.6994
2708.42	0.699
2716.83	0.697
2725.24	0.696
2733.65	0.6934
2742.06	0.6884
2750.47	0.6807
2758.89	0.6786
2767.3	0.6737
2775.71	0.6694
2784.12	0.6634
2792.53	0.652
2800.94	0.6431
2809.35	0.6316
2817.76	0.6237
2826.18	0.6228
2834.59	0.624
2843	0.6268
2851.41	0.625
2859.82	0.6218
2868.23	0.6136
2876.64	0.5894
2885.05	0.5786
2893.47	0.5727
2901.88	0.5659
2910.29	0.5581
2918.7	0.555
2927.11	0.555
2935.52	0.5623
2943.93	0.5786
2952.34	0.5882
2960.76	0.5928
2969.17	0.6032
2977.58	0.613
2985.99	0.616
2994.4	0.6115
3002.81	0.5986
3011.22	0.592
3019.63	0.589
3028.05	0.59
3036.46	0.5918
3044.87	0.594
3053.28	0.594
3061.69	0.591
3070.1	0.591
3078.51	0.5971
3086.92	0.6179
3095.34	0.6384
3103.75	0.6446
3112.16	0.648
3120.57	0.648
3128.98	0.6409
3137.39	0.6392
3145.8	0.6359
3154.21	0.6307
3162.63	0.628
3171.04	0.6253
3179.45	0.6219
3187.86	0.6187
3196.27	0.6154
3204.68	0.6133
3213.09	0.612
3221.5	0.61
3229.92	0.6094
3238.33	0.6017
3246.74	0.598
3255.15	0.597
3263.56	0.5928
3271.97	0.5892
3280.38	0.5859
3288.79	0.583
3297.21	0.582
3305.62	0.5763
3314.03	0.5708
3322.44	0.5662
3330.85	0.5564
3339.26	0.5475
3347.67	0.5375
3356.08	0.5297
3364.5	0.523
3372.91	0.5191
3381.32	0.5104
3389.73	0.5061
3398.14	0.5029
3406.55	0.502
3414.96	0.502
3423.37	0.5029
3431.79	0.505
3440.2	0.507
3448.61	0.5132
3457.02	0.5174
3465.43	0.5197
3473.84	0.522
3482.25	0.5252
3490.66	0.5295
3499.08	0.5372
3507.49	0.544
3515.9	0.5463
3524.31	0.548
3532.72	0.5498
3541.13	0.5531
3549.54	0.5598
3557.95	0.5636
3566.37	0.5678
3574.78	0.573
3583.19	0.5769
3591.6	0.58
3600.01	0.582
3608.42	0.5851
3616.83	0.5889
3625.24	0.5931
3633.66	0.594
3642.07	0.5951
3650.48	0.5973
3658.89	0.598
3667.3	0.5996
3675.71	0.598
3684.12	0.5977
3692.53	0.5958
3700.95	0.5942
3709.36	0.592
3717.77	0.591
3726.18	0.591
3734.59	0.5937
3743	0.595
3751.41	0.597
3759.82	0.5957
3768.24	0.5941
3776.65	0.5906
3785.06	0.5842
3793.47	0.582
3801.88	0.5829
3810.29	0.585
3818.7	0.586
3827.11	0.588
3835.53	0.588
3843.94	0.588
3852.35	0.5872
3860.76	0.5837
3869.17	0.582
3877.58	0.5816
3885.99	0.5796
3894.4	0.579
3902.82	0.5771
3911.23	0.577
3919.64	0.577
3928.05	0.576
3936.46	0.576
3944.87	0.574
3953.28	0.574
3961.69	0.574
3970.11	0.574
3978.52	0.57
