Infrared Spectrum: Diallylamine, N-(2-ethoxyethyl)-,
Formula: C10 H19 N O
CAS: 116373-80-9
State: LIQUID (NEAT)
Boiling point: 128-129 C
Class: COBLENTZ III
Instrument: BAIRD (GRATING)
Instrument parameters: NaCl PRISM
Path length: 0.003 CM
Resolution: 2
Origin: WYANDOTTE CHEMICALS CORP.
1/CM	TRANSMITTANCE
624.827	0.7634
633.704	0.7727
642.58	0.7573
651.457	0.7128
660.334	0.6103
669.21	0.7694
678.087	0.816
686.963	0.856
695.84	0.8826
704.717	0.8976
713.593	0.9068
722.47	0.9152
731.347	0.9159
740.223	0.9039
749.1	0.9023
757.977	0.902
766.853	0.9069
775.73	0.8835
784.606	0.8398
793.483	0.7857
802.36	0.7451
811.236	0.7147
820.113	0.7345
828.99	0.7232
837.866	0.6427
846.743	0.6338
855.62	0.6489
864.496	0.7269
873.373	0.7695
882.25	0.7048
891.126	0.6235
900.003	0.4012
908.879	0.0743
917.756	0.0248
926.633	0.1536
935.509	0.3559
944.386	0.5009
953.263	0.5106
962.139	0.4321
971.016	0.4365
979.893	0.4648
988.769	0.2488
997.646	0.0785
1006.52	0.2833
1015.4	0.4235
1024.28	0.3144
1033.15	0.2898
1042.03	0.293
1050.91	0.3028
1059.78	0.2874
1068.66	0.2578
1077.54	0.1994
1086.41	0.1577
1095.29	0.1048
1104.17	0.0346
1113.04	0.0221
1121.92	0.0236
1130.8	0.0268
1139.67	0.0616
1148.55	0.1343
1157.43	0.157
1166.3	0.2511
1175.18	0.3514
1184.06	0.493
1192.93	0.6533
1201.81	0.6926
1210.69	0.6909
1219.56	0.7312
1228.44	0.6567
1237.32	0.5322
1246.19	0.5027
1255.07	0.4524
1263.94	0.362
1272.82	0.4022
1281.7	0.4112
1290.57	0.4142
1299.45	0.4487
1308.33	0.5049
1317.2	0.5186
1326.08	0.4641
1334.96	0.3967
1343.83	0.4425
1352.71	0.3166
1361.59	0.265
1370.46	0.4306
1379.34	0.3362
1388.22	0.3291
1397.09	0.5072
1405.97	0.5113
1414.85	0.4375
1423.72	0.3018
1432.6	0.3162
1441.48	0.4236
1450.35	0.2902
1459.23	0.2646
1468.11	0.4136
1476.98	0.5575
1485.86	0.6446
1494.74	0.6489
1503.61	0.7329
1512.49	0.8405
1521.37	0.8709
1530.24	0.8784
1539.12	0.8797
1548	0.883
1556.87	0.8913
1565.75	0.9024
1574.63	0.9087
1583.5	0.9084
1592.38	0.9157
1601.26	0.9157
1610.13	0.9044
1619.01	0.8946
1627.89	0.8896
1636.76	0.8665
1645.64	0.707
1654.52	0.3866
1663.39	0.6992
1672.27	0.8585
1681.15	0.8944
1690.02	0.9191
1698.9	0.9289
1707.78	0.9442
1716.65	0.9454
1725.53	0.9438
1734.41	0.9419
1743.28	0.9411
1752.16	0.9493
1761.04	0.9596
1769.91	0.9599
1778.79	0.9576
1787.67	0.9538
1796.54	0.9445
1805.42	0.9392
1814.3	0.914
1823.17	0.8664
1832.05	0.827
1840.93	0.832
1849.8	0.8648
1858.68	0.8953
1867.56	0.917
1876.43	0.9385
1885.31	0.9426
1894.19	0.9404
1903.06	0.9364
1911.94	0.9313
1920.82	0.9253
1929.69	0.9198
1938.57	0.9154
1947.45	0.9123
1956.32	0.9102
1965.2	0.9111
1974.08	0.9178
1982.95	0.9322
1991.83	0.9479
2000.71	0.9604
2009.58	0.9644
2018.46	0.9648
2027.34	0.9644
2036.21	0.9637
2045.09	0.9627
2053.97	0.9621
2062.84	0.962
2071.72	0.9621
2080.6	0.9629
2089.47	0.9643
2098.35	0.9674
2107.23	0.9705
2116.1	0.9713
2124.98	0.9708
2133.86	0.9696
2142.73	0.9682
2151.61	0.9669
2160.49	0.9655
2169.36	0.9642
2178.24	0.9634
2187.12	0.9645
2195.99	0.9682
2204.87	0.968
2213.75	0.9666
2222.62	0.9642
2231.5	0.9614
2240.38	0.9586
2249.25	0.9562
2258.13	0.9588
2267.01	0.9623
2275.88	0.9644
2284.76	0.9654
2293.63	0.9665
2302.51	0.9678
2311.39	0.9689
2320.26	0.9704
2329.14	0.9712
2338.02	0.9701
2346.89	0.9672
2355.77	0.9644
2364.65	0.9614
2373.52	0.9599
2382.4	0.9592
2391.28	0.9599
2400.15	0.9607
2409.03	0.9619
2417.91	0.9631
2426.78	0.9643
2435.66	0.9651
2444.54	0.9659
2453.41	0.967
2462.29	0.9682
2471.17	0.9678
2480.04	0.9673
2488.92	0.9654
2497.8	0.9592
2506.67	0.9547
2515.55	0.9516
2524.43	0.9499
2533.3	0.9491
2542.18	0.9484
2551.06	0.948
2559.93	0.9442
2568.81	0.9335
2577.69	0.921
2586.56	0.9107
2595.44	0.9018
2604.32	0.8924
2613.19	0.8842
2622.07	0.877
2630.95	0.8705
2639.82	0.8643
2648.7	0.8581
2657.58	0.8478
2666.45	0.8297
2675.33	0.8054
2684.21	0.7662
2693.08	0.7297
2701.96	0.6522
2710.84	0.6275
2719.71	0.6057
2728.59	0.5761
2737.47	0.5283
2746.34	0.4594
2755.22	0.3911
2764.1	0.2793
2772.97	0.21
2781.85	0.1289
2790.73	0.0994
2799.6	0.0879
2808.48	0.0869
2817.36	0.0837
2826.23	0.0764
2835.11	0.0657
2843.99	0.0556
2852.86	0.0493
2861.74	0.0465
2870.62	0.0494
2879.49	0.0702
2888.37	0.0965
2897.25	0.1161
2906.12	0.1228
2915	0.1284
2923.88	0.134
2932.75	0.1416
2941.63	0.1491
2950.51	0.1556
2959.38	0.1564
2968.26	0.1408
2977.14	0.127
2986.01	0.1591
2994.89	0.2414
3003.77	0.323
3012.64	0.4043
3021.52	0.5187
3030.4	0.6436
3039.27	0.7261
3048.15	0.7223
3057.03	0.6189
3065.9	0.5231
3074.78	0.4878
3083.66	0.5478
3092.53	0.6307
3101.41	0.7133
3110.29	0.7953
3119.16	0.8765
3128.04	0.9125
3136.92	0.9154
3145.79	0.9156
3154.67	0.9159
3163.55	0.917
3172.42	0.9198
3181.3	0.9232
3190.18	0.9269
3199.05	0.9309
3207.93	0.9355
3216.81	0.9389
3225.68	0.9422
3234.56	0.9453
3243.44	0.9474
3252.31	0.9492
3261.19	0.9511
3270.07	0.9528
3278.94	0.9541
3287.82	0.9552
3296.7	0.9564
3305.57	0.9575
3314.45	0.9585
3323.32	0.9596
3332.2	0.9606
3341.08	0.9614
3349.95	0.9622
3358.83	0.963
3367.71	0.9638
3376.58	0.9645
3385.46	0.9649
3394.34	0.9653
3403.21	0.9658
3412.09	0.9663
3420.97	0.9668
3429.84	0.9673
3438.72	0.9677
3447.6	0.9682
3456.47	0.9687
3465.35	0.9692
3474.23	0.9696
3483.1	0.9701
3491.98	0.9706
3500.86	0.971
3509.73	0.9715
3518.61	0.9723
3527.49	0.9735
3536.36	0.9746
3545.24	0.9757
3554.12	0.9768
3562.99	0.9773
3571.87	0.9772
3580.75	0.9771
3589.62	0.977
3598.5	0.9769
3607.38	0.9769
3616.25	0.9771
3625.13	0.9774
3634.01	0.9787
3642.88	0.98
3651.76	0.9813
3660.64	0.9828
3669.51	0.9842
3678.39	0.9856
3687.27	0.9871
3696.14	0.9884
3705.02	0.9893
3713.9	0.9902
3722.77	0.9899
3731.65	0.9882
3740.53	0.9864
3749.4	0.9845
3758.28	0.9828
3767.16	0.9821
3776.03	0.983
3784.91	0.9841
3793.79	0.9852
3802.66	0.9864
3811.54	0.9875
3820.42	0.9879
3829.29	0.9861
3838.17	0.9837
3847.05	0.9814
3855.92	0.9793
3864.8	0.9774
3873.68	0.9767
3882.55	0.977
3891.43	0.9779
3900.31	0.9789
3909.18	0.98
3918.06	0.9807
3926.94	0.9798
3935.81	0.9789
3944.69	0.9771
