Infrared Spectrum: 2-Norbornanol, 3-(morpholinomethyl)-
Formula: C12 H21 N O2
CAS: 116345-99-4
State: SOLUTION (5% CCl4 FOR 3800-1330, 5% CS2 FOR 1330-460 CM^-^1)
Melting point: 51 C
Boiling point: 153 C AT 4 mmHg
Class: COBLENTZ III
Instrument: DOW KBr FOREPRISM-GRATING
Instrument parameters: BLAZED AT 3.5, 12.0, 20.0 MICRON AND CHANGED AT 5.0, 7.5, 14.9 MICRON
Sampling: TRANSMISSION
Path length: 0.010 CM, 0.010 CM
Resolution: 2
Origin: DOW CHEMICAL COMPANY
1/CM	TRANSMITTANCE
3798	0.9276
3789	0.9284
3780	0.9273
3771	0.9268
3762	0.9267
3753	0.9271
3744	0.9284
3735	0.9356
3726	0.9368
3717	0.9333
3708	0.9311
3699	0.9266
3690	0.9211
3681	0.916
3672	0.9163
3663	0.9169
3654	0.9187
3645	0.9178
3636	0.8912
3627	0.8292
3618	0.7957
3609	0.8038
3600	0.8714
3591	0.8883
3582	0.8897
3573	0.8892
3564	0.8862
3555	0.8735
3546	0.8594
3537	0.8458
3528	0.825
3519	0.8092
3510	0.7952
3501	0.781
3492	0.7682
3483	0.7569
3474	0.7469
3465	0.739
3456	0.7335
3447	0.73
3438	0.7272
3429	0.7251
3420	0.7248
3411	0.7283
3402	0.7338
3393	0.7401
3384	0.7462
3375	0.7519
3366	0.7574
3357	0.7635
3348	0.7696
3339	0.7735
3330	0.7773
3321	0.78
3312	0.784
3303	0.7849
3294	0.7874
3285	0.7905
3276	0.7943
3267	0.7986
3258	0.8019
3249	0.805
3240	0.8084
3231	0.8115
3222	0.8148
3213	0.8179
3204	0.819
3195	0.823
3186	0.8246
3177	0.8268
3168	0.8298
3159	0.8341
3150	0.8373
3141	0.8394
3132	0.8439
3123	0.8472
3114	0.8499
3105	0.8539
3096	0.8612
3087	0.8606
3078	0.8618
3069	0.8643
3060	0.8647
3051	0.8651
3042	0.8714
3033	0.8676
3024	0.8555
3015	0.8395
3006	0.8071
2997	0.7194
2988	0.5688
2979	0.3875
2970	0.2234
2961	0.1321
2952	0.1237
2943	0.2155
2934	0.2831
2925	0.3426
2916	0.3903
2907	0.4647
2898	0.4558
2889	0.4718
2880	0.3109
2871	0.3749
2862	0.4017
2853	0.4707
2844	0.6172
2835	0.5782
2826	0.463
2817	0.3845
2808	0.4218
2799	0.6095
2790	0.6257
2781	0.6257
2772	0.6055
2763	0.637
2754	0.7055
2745	0.7536
2736	0.7664
2727	0.822
2718	0.8324
2709	0.8381
2700	0.8275
2691	0.818
2682	0.8469
2673	0.8784
2664	0.8704
2655	0.8715
2646	0.8936
2637	0.9081
2628	0.9193
2619	0.9252
2610	0.9298
2601	0.9324
2592	0.9348
2583	0.9364
2574	0.9381
2565	0.9409
2556	0.9436
2547	0.9457
2538	0.9475
2529	0.9486
2520	0.9496
2511	0.9496
2502	0.95
2493	0.9509
2484	0.9517
2475	0.9544
2466	0.9552
2457	0.9553
2448	0.9571
2439	0.9575
2430	0.9577
2421	0.9578
2412	0.9581
2403	0.9603
2394	0.9607
2385	0.963
2376	0.9702
2367	0.9721
2358	0.9776
2349	0.9815
2340	0.9842
2331	0.9834
2322	0.9839
2313	0.9692
2304	0.9581
2295	0.9559
2286	0.9611
2277	0.9631
2268	0.9602
2259	0.9576
2250	0.9542
2241	0.9556
2232	0.9579
2223	0.9607
2214	0.9591
2205	0.9585
2196	0.9575
2187	0.9556
2178	0.9572
2169	0.9574
2160	0.956
2151	0.9558
2142	0.9559
2133	0.9559
2124	0.9543
2115	0.9497
2106	0.9497
2097	0.9479
2088	0.9493
2079	0.9489
2070	0.9478
2061	0.9464
2052	0.9461
2043	0.9449
2034	0.9443
2025	0.945
2016	0.947
2007	0.9458
1998	0.9488
1989	0.9564
1980	0.9504
1971	0.9523
1962	0.961
1953	0.9612
1944	0.9611
1935	0.9614
1926	0.9626
1917	0.962
1908	0.963
1899	0.9662
1890	0.9601
1881	0.9575
1872	0.9603
1863	0.9595
1854	0.9587
1845	0.9585
1836	0.9576
1827	0.9574
1818	0.9605
1809	0.9611
1800	0.9594
1791	0.9598
1782	0.9598
1773	0.9577
1764	0.9563
1755	0.9455
1746	0.9387
1737	0.9448
1728	0.9498
1719	0.9559
1710	0.9567
1701	0.9562
1692	0.945
1683	0.9449
1674	0.9444
1665	0.944
1656	0.9458
1647	0.9436
1638	0.9407
1629	0.9379
1620	0.9312
1611	0.9352
1602	0.9194
1593	0.9129
1584	0.9296
1575	0.9247
1566	0.8822
1557	0.8611
1548	0.957
1539	0.9757
1530	0.9535
1521	0.957
1512	0.9659
1503	0.9566
1494	0.9485
1485	0.9252
1476	0.831
1467	0.6886
1458	0.566
1449	0.678
1440	0.8594
1431	0.8996
1422	0.9003
1413	0.8874
1404	0.7941
1395	0.8479
1386	0.8795
1377	0.8082
1368	0.8222
1359	0.7549
1350	0.7523
1341	0.7566
1332	0.7292
1323	0.7324
1314	0.7145
1305	0.6223
1296	0.5165
1287	0.678
1278	0.6458
1269	0.604
1260	0.6842
1251	0.731
1242	0.7696
1233	0.8388
1224	0.8515
1215	0.8504
1206	0.8134
1197	0.8989
1188	0.879
1179	0.8573
1170	0.7503
1161	0.7383
1152	0.5969
1143	0.5271
1134	0.5856
1125	0.289
1116	0.1329
1107	0.7296
1098	0.7388
1089	0.7476
1080	0.8227
1071	0.5508
1062	0.6611
1053	0.4978
1044	0.5347
1035	0.5107
1026	0.7137
1017	0.6829
1008	0.7233
999	0.6876
990	0.8301
981	0.8954
972	0.9279
963	0.9317
954	0.928
945	0.9055
936	0.9241
927	0.9238
918	0.7728
909	0.8661
900	0.9068
891	0.8873
882	0.9091
873	0.6149
864	0.566
855	0.8278
846	0.9258
837	0.9411
828	0.9045
819	0.9324
810	0.91
801	0.8443
792	0.7246
783	0.9267
774	0.9363
765	0.9147
756	0.9283
747	0.9157
738	0.9279
729	0.9366
720	0.9416
711	0.9336
702	0.9286
693	0.9266
684	0.9285
675	0.9193
666	0.8874
657	0.8787
648	0.8756
639	0.8599
630	0.7557
621	0.8586
612	0.8673
603	0.8696
594	0.864
585	0.8574
576	0.838
567	0.8122
558	0.8149
549	0.8159
540	0.8338
531	0.8406
522	0.8388
513	0.8332
504	0.832
495	0.827
486	0.8229
477	0.8123
468	0.7943
