Infrared Spectrum: P-METHOXY CARBANILIC ACID, n-DODECYL ESTER
Formula: C20 H33 N O3
CAS: 116373-20-7
State: SOLID (2.0 mg / 200 mg KBr)
Class: COBLENTZ
Instrument: Not specified, most likely a grating spectrometer.
Sampling: TRANSMISSION
Resolution: 4
Origin: CITRUS EXPERIMENT STATION, UNIVERSITY OF FLORIDA (G. EDWARDS)
MICROMETERS	TRANSMITTANCE
2.04	0.819
2.07316	0.821
2.10632	0.821
2.13948	0.815
2.17264	0.817
2.20579	0.815
2.23895	0.818
2.27211	0.819
2.30527	0.821
2.33843	0.821
2.37159	0.819
2.40475	0.823
2.43791	0.822
2.47107	0.822
2.50423	0.822
2.53738	0.822
2.57054	0.822
2.6037	0.822
2.63686	0.823
2.67002	0.822
2.70318	0.821
2.73634	0.821
2.7695	0.814
2.80266	0.809
2.83582	0.802
2.86897	0.79
2.90213	0.778
2.93529	0.732
2.96845	0.44
3.00161	0.489
3.03477	0.731
3.06793	0.794
3.10109	0.817
3.13425	0.819
3.16741	0.817
3.20056	0.819
3.23372	0.79
3.26688	0.789
3.30004	0.766
3.3332	0.642
3.36636	0.336
3.39952	0.299
3.43268	0.59
3.46584	0.42
3.499	0.731
3.53215	0.813
3.56531	0.819
3.59847	0.829
3.63163	0.839
3.66479	0.842
3.69795	0.842
3.73111	0.845
3.76427	0.846
3.79743	0.847
3.83059	0.849
3.86374	0.85
3.8969	0.853
3.93006	0.853
3.96322	0.853
3.99638	0.853
4.02954	0.855
4.0627	0.854
4.09586	0.853
4.12902	0.851
4.16218	0.83
4.19533	0.838
4.22849	0.842
4.26165	0.854
4.29481	0.865
4.32797	0.865
4.36113	0.862
4.39429	0.862
4.42745	0.862
4.46061	0.862
4.49377	0.862
4.52692	0.863
4.56008	0.869
4.59324	0.87
4.6264	0.866
4.65956	0.862
4.69272	0.862
4.72588	0.862
4.75904	0.862
4.7922	0.862
4.82536	0.862
4.85851	0.862
4.89167	0.863
4.92483	0.869
4.95799	0.867
4.99115	0.87
5.02431	0.866
5.05747	0.869
5.09063	0.862
5.12379	0.869
5.15695	0.866
5.1901	0.869
5.22326	0.863
5.25642	0.862
5.28958	0.843
5.32274	0.862
5.3559	0.861
5.38906	0.863
5.42222	0.853
5.45538	0.85
5.48854	0.842
5.52169	0.841
5.55485	0.841
5.58801	0.838
5.62117	0.833
5.65433	0.81
5.68749	0.781
5.72065	0.74
5.75381	0.719
5.78697	0.58
5.82013	0.38
5.85328	0.242
5.88644	0.405
5.9196	0.71
5.95276	0.75
5.98592	0.775
6.01908	0.822
6.05224	0.829
6.0854	0.825
6.11856	0.805
6.15172	0.783
6.18487	0.773
6.21803	0.67
6.25119	0.759
6.28435	0.815
6.31751	0.783
6.35067	0.72
6.38383	0.53
6.41699	0.371
6.45015	0.267
6.48331	0.32
6.51646	0.528
6.54962	0.579
6.58278	0.711
6.61594	0.779
6.6491	0.787
6.68226	0.783
6.71542	0.683
6.74858	0.571
6.78174	0.564
6.8149	0.716
6.84805	0.767
6.88121	0.761
6.91437	0.782
6.94753	0.818
6.98069	0.802
7.01385	0.659
7.04701	0.656
7.08017	0.805
7.11333	0.813
7.14649	0.811
7.17964	0.823
7.2128	0.813
7.24596	0.821
7.27912	0.822
7.31228	0.821
7.34544	0.806
7.3786	0.803
7.41176	0.778
7.44492	0.771
7.47808	0.751
7.51123	0.718
7.54439	0.672
7.57755	0.651
7.61071	0.67
7.64387	0.602
7.67703	0.612
7.71019	0.723
7.74335	0.763
7.77651	0.765
7.80967	0.743
7.84282	0.694
7.87598	0.64
7.90914	0.522
7.9423	0.348
7.97546	0.201
8.00862	0.197
8.04178	0.264
8.07494	0.373
8.1081	0.453
8.14126	0.582
8.17441	0.695
8.20757	0.742
8.24073	0.777
8.27389	0.794
8.30705	0.807
8.34021	0.817
8.37337	0.787
8.40653	0.742
8.43969	0.724
8.47285	0.732
8.506	0.783
8.53916	0.835
8.57232	0.859
8.60548	0.862
8.63864	0.851
8.6718	0.847
8.70496	0.87
8.73812	0.87
8.77128	0.866
8.80444	0.859
8.83759	0.858
8.87075	0.859
8.90391	0.843
8.93707	0.821
8.97023	0.744
9.00339	0.748
9.03655	0.742
9.06971	0.734
9.10287	0.781
9.13603	0.81
9.16918	0.795
9.20234	0.73
9.2355	0.612
9.26866	0.531
9.30182	0.604
9.33498	0.724
9.36814	0.79
9.4013	0.801
9.43446	0.802
9.46762	0.814
9.50077	0.834
9.53393	0.835
9.56709	0.81
9.60025	0.777
9.63341	0.702
9.66657	0.606
9.69973	0.532
9.73289	0.59
9.76605	0.722
9.79921	0.794
9.83236	0.83
9.86552	0.839
9.89868	0.87
9.93184	0.89
9.965	0.893
9.99816	0.906
10.0313	0.91
10.0645	0.91
10.0976	0.907
10.1308	0.907
10.164	0.913
10.1971	0.917
10.2303	0.915
10.2634	0.907
10.2966	0.907
10.3297	0.91
10.3629	0.915
10.3961	0.919
10.4292	0.919
10.4624	0.91
10.4955	0.911
10.5287	0.917
10.5619	0.925
10.595	0.923
10.6282	0.921
10.6613	0.919
10.6945	0.919
10.7277	0.917
10.7608	0.911
10.794	0.917
10.8271	0.918
10.8603	0.921
10.8935	0.929
10.9266	0.933
10.9598	0.933
10.9929	0.927
11.0261	0.921
11.0592	0.925
11.0924	0.926
11.1256	0.931
11.1587	0.929
11.1919	0.923
11.225	0.918
11.2582	0.919
11.2914	0.922
11.3245	0.933
11.3577	0.933
11.3908	0.93
11.424	0.923
11.4572	0.919
11.4903	0.914
11.5235	0.914
11.5566	0.917
11.5898	0.922
11.623	0.922
11.6561	0.921
11.6893	0.918
11.7224	0.918
11.7556	0.918
11.7887	0.921
11.8219	0.917
11.8551	0.903
11.8882	0.883
11.9214	0.854
11.9545	0.83
11.9877	0.773
12.0209	0.7
12.054	0.624
12.0872	0.445
12.1203	0.401
12.1535	0.56
12.1867	0.739
12.2198	0.814
12.253	0.861
12.2861	0.877
12.3193	0.887
12.3524	0.906
12.3856	0.907
12.4188	0.909
12.4519	0.907
12.4851	0.909
12.5182	0.917
12.5514	0.922
12.5846	0.921
12.6177	0.913
12.6509	0.882
12.684	0.863
12.7172	0.834
12.7504	0.791
12.7835	0.761
12.8167	0.773
12.8498	0.811
12.883	0.817
12.9162	0.79
12.9493	0.763
12.9825	0.771
13.0156	0.799
13.0488	0.822
13.0819	0.851
13.1151	0.883
13.1483	0.902
13.1814	0.914
13.2146	0.913
13.2477	0.909
13.2809	0.907
13.3141	0.903
13.3472	0.89
13.3804	0.871
13.4135	0.83
13.4467	0.793
13.4799	0.77
13.513	0.782
13.5462	0.807
13.5793	0.831
13.6125	0.863
13.6456	0.882
13.6788	0.901
13.712	0.902
13.7451	0.891
13.7783	0.882
13.8114	0.867
13.8446	0.841
13.8778	0.802
13.9109	0.809
13.9441	0.831
13.9772	0.858
14.0104	0.89
14.0436	0.893
14.0767	0.887
14.1099	0.881
14.143	0.879
14.1762	0.879
14.2094	0.882
14.2425	0.873
14.2757	0.865
14.3088	0.858
14.342	0.851
14.3751	0.845
14.4083	0.831
14.4415	0.818
14.4746	0.799
14.5078	0.786
14.5409	0.783
14.5741	0.781
14.6073	0.775
14.6404	0.77
14.6736	0.755
14.7067	0.746
14.7399	0.736
14.7731	0.735
14.8062	0.73
14.8394	0.716
14.8725	0.692
14.9057	0.662
14.9389	0.642
14.972	0.659
15.0052	0.682
