Infrared Spectrum: m-DIOXANE, 2-PROPENYL-4-ISOPROPYL-5,5-DIMETHYL-
Formula: C12 H22 O2
CAS: 116373-71-8
Boiling point: 103 C AT 12 mmHg
Class: COBLENTZ
Instrument: Not specified, most likely a prism, grating, or hybrid spectrometer.
Sampling: TRANSMISSION
Path length: SMEAR
Resolution: 4
Origin: TENNESSEE EASTMAN COMPANY, RESEARCH LABORATORIES
MICROMETERS	TRANSMITTANCE
2.102	0.989
2.14294	0.994
2.18387	0.996
2.22481	0.996
2.26574	0.991
2.30668	0.982
2.34762	0.988
2.38855	0.988
2.42949	0.988
2.47042	0.993
2.51136	0.994
2.55229	0.994
2.59323	0.996
2.63417	0.998
2.6751	1
2.71604	0.998
2.75697	0.998
2.79791	0.996
2.83885	0.994
2.87978	0.993
2.92072	0.989
2.96165	0.984
3.00259	0.969
3.04353	0.957
3.08446	0.948
3.1254	0.945
3.16633	0.935
3.20727	0.924
3.24821	0.907
3.28914	0.76
3.33008	0.442
3.37101	0.075
3.41195	0.145
3.45288	0.251
3.49382	0.2
3.53476	0.36
3.57569	0.651
3.61663	0.683
3.65756	0.747
3.6985	0.758
3.73944	0.764
3.78037	0.83
3.82131	0.851
3.86224	0.864
3.90318	0.894
3.94412	0.928
3.98505	0.948
4.02599	0.953
4.06692	0.953
4.10786	0.955
4.14879	0.958
4.18973	0.958
4.23067	0.958
4.2716	0.957
4.31254	0.955
4.35347	0.955
4.39441	0.958
4.43535	0.96
4.47628	0.964
4.51722	0.964
4.55815	0.964
4.59909	0.964
4.64003	0.957
4.68096	0.955
4.7219	0.955
4.76283	0.955
4.80377	0.955
4.8447	0.953
4.88564	0.945
4.92658	0.943
4.96751	0.943
5.00845	0.947
5.04938	0.952
5.09032	0.953
5.13126	0.953
5.17219	0.958
5.21313	0.96
5.25406	0.964
5.295	0.965
5.33594	0.965
5.37687	0.965
5.41781	0.965
5.45874	0.964
5.49968	0.96
5.54062	0.96
5.58155	0.96
5.62249	0.958
5.66342	0.936
5.70436	0.912
5.74529	0.876
5.78623	0.871
5.82717	0.882
5.8681	0.856
5.90904	0.747
5.94997	0.562
5.99091	0.68
6.03185	0.777
6.07278	0.784
6.11372	0.81
6.15465	0.827
6.19559	0.842
6.23653	0.861
6.27746	0.876
6.3184	0.883
6.35933	0.873
6.40027	0.852
6.4412	0.849
6.48214	0.842
6.52308	0.849
6.56401	0.842
6.60495	0.83
6.64588	0.798
6.68682	0.711
6.72776	0.446
6.76869	0.258
6.80963	0.217
6.85056	0.278
6.8915	0.311
6.93244	0.408
6.97337	0.581
7.01431	0.646
7.05524	0.649
7.09618	0.485
7.13711	0.23
7.17805	0.138
7.21899	0.189
7.25992	0.321
7.30086	0.338
7.34179	0.263
7.38273	0.263
7.42367	0.577
7.4646	0.702
7.50554	0.717
7.54647	0.717
7.58741	0.584
7.62835	0.6
7.66928	0.644
7.71022	0.589
7.75115	0.611
7.79209	0.617
7.83303	0.637
7.87396	0.724
7.9149	0.743
7.95583	0.719
7.99677	0.76
8.0377	0.784
8.07864	0.779
8.11958	0.709
8.16051	0.488
8.20145	0.535
8.24238	0.646
8.28332	0.704
8.32426	0.687
8.36519	0.663
8.40613	0.6
8.44706	0.497
8.488	0.408
8.52894	0.29
8.56987	0.232
8.61081	0.213
8.65174	0.16
8.69268	0.117
8.73361	0.099
8.77455	0.092
8.81549	0.107
8.85642	0.143
8.89736	0.128
8.93829	0.07
8.97923	0.068
9.02017	0.158
9.0611	0.28
9.10204	0.403
9.14297	0.466
9.18391	0.435
9.22485	0.251
9.26578	0.104
9.30672	0.064
9.34765	0.104
9.38859	0.234
9.42952	0.364
9.47046	0.403
9.5114	0.336
9.55233	0.172
9.59327	0.129
9.6342	0.145
9.67514	0.123
9.71608	0.082
9.75701	0.076
9.79795	0.117
9.83888	0.186
9.87982	0.242
9.92076	0.273
9.96169	0.249
10.0026	0.237
10.0436	0.242
10.0845	0.251
10.1254	0.285
10.1664	0.264
10.2073	0.198
10.2482	0.152
10.2892	0.114
10.3301	0.08
10.3711	0.064
10.412	0.063
10.4529	0.128
10.4939	0.258
10.5348	0.4
10.5757	0.495
10.6167	0.548
10.6576	0.601
10.6985	0.63
10.7395	0.622
10.7804	0.576
10.8213	0.55
10.8623	0.55
10.9032	0.55
10.9442	0.548
10.9851	0.623
11.026	0.683
11.067	0.717
11.1079	0.743
11.1488	0.769
11.1898	0.781
11.2307	0.805
11.2716	0.842
11.3126	0.866
11.3535	0.878
11.3944	0.887
11.4354	0.897
11.4763	0.905
11.5173	0.909
11.5582	0.911
11.5991	0.914
11.6401	0.911
11.681	0.887
11.7219	0.861
11.7629	0.859
11.8038	0.861
11.8447	0.866
11.8857	0.882
11.9266	0.899
11.9676	0.905
12.0085	0.909
12.0494	0.912
12.0904	0.916
12.1313	0.916
12.1722	0.917
12.2132	0.919
12.2541	0.921
12.295	0.921
12.336	0.921
12.3769	0.917
12.4178	0.917
12.4588	0.914
12.4997	0.902
12.5407	0.895
12.5816	0.882
12.6225	0.854
12.6635	0.805
12.7044	0.74
12.7453	0.67
12.7863	0.687
12.8272	0.788
12.8681	0.834
12.9091	0.861
12.95	0.875
12.9909	0.885
13.0319	0.89
13.0728	0.892
13.1138	0.892
13.1547	0.894
13.1956	0.895
13.2366	0.897
13.2775	0.897
13.3184	0.897
13.3594	0.897
13.4003	0.899
13.4412	0.894
13.4822	0.883
13.5231	0.876
13.5641	0.87
13.605	0.866
13.6459	0.863
13.6869	0.859
13.7278	0.858
13.7687	0.854
13.8097	0.847
13.8506	0.835
13.8915	0.83
13.9325	0.829
13.9734	0.829
14.0143	0.827
14.0553	0.817
14.0962	0.803
14.1372	0.789
14.1781	0.779
14.219	0.764
14.26	0.757
14.3009	0.748
14.3418	0.736
14.3828	0.721
14.4237	0.7
14.4646	0.675
14.5056	0.652
14.5465	0.641
14.5874	0.639
14.6284	0.654
14.6693	0.676
14.7103	0.699
14.7512	0.709
14.7921	0.714
14.8331	0.717
14.874	0.717
14.9149	0.705
14.9559	0.687
14.9968	0.675
15.0377	0.671
15.0787	0.67
15.1196	0.663
15.1606	0.658
15.2015	0.651
15.2424	0.651
15.2834	0.649
15.3243	0.649
15.3652	0.649
15.4062	0.649
15.4471	0.649
15.488	0.647
15.529	0.644
15.5699	0.641
15.6108	0.639
15.6518	0.635
15.6927	0.632
15.7337	0.623
15.7746	0.615
15.8155	0.608
15.8565	0.601
15.8974	0.6
15.9383	0.6
