Infrared Spectrum: Urea],1,1'-(1,4-cyclohexylenedimethylene)bis[3-methyl-
Formula: C12 H24 N4 O2
CAS: 116373-59-2
State: SOLID (1 mg / 500 mg KBr DISC)
Class: COBLENTZ III
Instrument: PERKIN-ELMER 221 (GRATING)
Instrument parameters: FILTER AT 980 CM^-^1. GRATING 4000-1428 CM^-^1, NaCl PRISM 1428-650 CM^-^1
Sampling: TRANSMISSION
Resolution: 2
Origin: SOUTHERN RESEARCH INSTITUTE
1/CM	TRANSMITTANCE
550.745	0.618
559.772	0.6519
568.798	0.7048
577.825	0.7641
586.852	0.7777
595.879	0.7775
604.905	0.7755
613.932	0.7728
622.959	0.7697
631.986	0.7571
641.012	0.7379
650.039	0.7272
659.066	0.7028
668.093	0.6742
677.119	0.6555
686.146	0.6632
695.173	0.7112
704.2	0.7535
713.226	0.7959
722.253	0.8348
731.28	0.8549
740.307	0.8699
749.333	0.8823
758.36	0.8808
767.387	0.8839
776.414	0.9079
785.44	0.9136
794.467	0.9173
803.494	0.92
812.521	0.921
821.547	0.9233
830.574	0.9257
839.601	0.9268
848.628	0.9269
857.654	0.927
866.681	0.9276
875.708	0.9272
884.735	0.9235
893.761	0.9185
902.788	0.9178
911.815	0.9119
920.842	0.9152
929.868	0.9078
938.895	0.9086
947.922	0.9194
956.948	0.9193
965.975	0.9009
975.002	0.9291
984.029	0.9049
993.055	0.9016
1002.08	0.8865
1011.11	0.8862
1020.14	0.8886
1029.16	0.8827
1038.19	0.8749
1047.22	0.8561
1056.24	0.8768
1065.27	0.8799
1074.3	0.879
1083.32	0.875
1092.35	0.8697
1101.38	0.8676
1110.4	0.8643
1119.43	0.8608
1128.46	0.8574
1137.48	0.8432
1146.51	0.8259
1155.54	0.8178
1164.56	0.8273
1173.59	0.8415
1182.62	0.8314
1191.64	0.8223
1200.67	0.7559
1209.7	0.8054
1218.72	0.804
1227.75	0.7431
1236.78	0.6622
1245.8	0.5697
1254.83	0.5514
1263.86	0.6761
1272.88	0.7271
1281.91	0.6103
1290.94	0.7634
1299.96	0.8014
1308.99	0.8164
1318.02	0.8251
1327.05	0.8288
1336.07	0.843
1345.1	0.8409
1354.13	0.8381
1363.15	0.8378
1372.18	0.8503
1381.21	0.8556
1390.23	0.8527
1399.26	0.8431
1408.29	0.8132
1417.31	0.8755
1426.34	0.8757
1435.37	0.8349
1444.39	0.7396
1453.42	0.8649
1462.45	0.862
1471.47	0.8634
1480.5	0.8653
1489.53	0.8502
1498.55	0.8273
1507.58	0.8061
1516.61	0.7701
1525.63	0.676
1534.66	0.5898
1543.69	0.5915
1552.71	0.5814
1561.74	0.5066
1570.77	0.358
1579.79	0.2803
1588.82	0.2748
1597.85	0.3614
1606.87	0.3601
1615.9	0.2569
1624.93	0.1332
1633.95	0.2132
1642.98	0.3885
1652.01	0.526
1661.03	0.6835
1670.06	0.7422
1679.09	0.8058
1688.11	0.8491
1697.14	0.8783
1706.17	0.8945
1715.2	0.902
1724.22	0.9062
1733.25	0.909
1742.28	0.9153
1751.3	0.9152
1760.33	0.916
1769.36	0.9199
1778.38	0.928
1787.41	0.9311
1796.44	0.9315
1805.46	0.932
1814.49	0.9329
1823.52	0.934
1832.54	0.9348
1841.57	0.9342
1850.6	0.9328
1859.62	0.9317
1868.65	0.931
1877.68	0.9308
1886.7	0.9316
1895.73	0.9328
1904.76	0.933
1913.78	0.9312
1922.81	0.9288
1931.84	0.9271
1940.86	0.926
1949.89	0.9252
1958.92	0.9258
1967.94	0.9265
1976.97	0.9266
1986	0.9266
1995.02	0.926
2004.05	0.9256
2013.08	0.9251
2022.1	0.9253
2031.13	0.9254
2040.16	0.9257
2049.18	0.9259
2058.21	0.9255
2067.24	0.9251
2076.26	0.925
2085.29	0.9248
2094.32	0.9243
2103.35	0.9231
2112.37	0.9213
2121.4	0.9199
2130.43	0.9197
2139.45	0.9206
2148.48	0.9214
2157.51	0.9223
2166.53	0.9231
2175.56	0.924
2184.59	0.9248
2193.61	0.9257
2202.64	0.9265
2211.67	0.9274
2220.69	0.9278
2229.72	0.9285
2238.75	0.9294
2247.77	0.9301
2256.8	0.9306
2265.83	0.931
2274.85	0.9309
2283.88	0.9299
2292.91	0.9281
2301.93	0.9247
2310.96	0.921
2319.99	0.9178
2329.01	0.9162
2338.04	0.9182
2347.07	0.9224
2356.09	0.921
2365.12	0.916
2374.15	0.9223
2383.17	0.9255
2392.2	0.9273
2401.23	0.9282
2410.25	0.9279
2419.28	0.927
2428.31	0.925
2437.33	0.9228
2446.36	0.9241
2455.39	0.9288
2464.41	0.9309
2473.44	0.929
2482.47	0.9022
2491.5	0.9226
2500.52	0.9171
2509.55	0.917
2518.58	0.9184
2527.6	0.921
2536.63	0.9244
2545.66	0.9161
2554.68	0.9147
2563.71	0.9137
2572.74	0.9125
2581.76	0.9119
2590.79	0.9117
2599.82	0.9119
2608.84	0.9127
2617.87	0.9144
2626.9	0.9151
2635.92	0.9162
2644.95	0.917
2653.98	0.9163
2663	0.9147
2672.03	0.9128
2681.06	0.9112
2690.08	0.9089
2699.11	0.9066
2708.14	0.904
2717.16	0.9026
2726.19	0.9026
2735.22	0.9056
2744.24	0.9067
2753.27	0.9063
2762.3	0.9035
2771.32	0.9004
2780.35	0.8955
2789.38	0.8914
2798.4	0.8837
2807.43	0.8568
2816.46	0.8629
2825.48	0.8561
2834.51	0.8135
2843.54	0.7309
2852.56	0.647
2861.59	0.646
2870.62	0.7449
2879.65	0.7279
2888.67	0.6792
2897.7	0.6401
2906.73	0.5808
2915.75	0.6189
2924.78	0.615
2933.81	0.6573
2942.83	0.6911
2951.86	0.7
2960.89	0.7202
2969.91	0.8295
2978.94	0.8529
2987.97	0.8586
2996.99	0.8626
3006.02	0.8656
3015.05	0.8645
3024.07	0.8601
3033.1	0.8518
3042.13	0.8417
3051.15	0.8325
3060.18	0.8341
3069.21	0.8421
3078.23	0.8447
3087.26	0.8588
3096.29	0.8556
3105.31	0.8601
3114.34	0.8578
3123.37	0.8495
3132.39	0.8367
3141.42	0.8168
3150.45	0.8028
3159.47	0.7971
3168.5	0.7941
3177.53	0.7928
3186.55	0.7946
3195.58	0.7956
3204.61	0.7946
3213.63	0.7907
3222.66	0.7843
3231.69	0.7731
3240.71	0.7594
3249.74	0.744
3258.77	0.7277
3267.8	0.7085
3276.82	0.6861
3285.85	0.6618
3294.88	0.6303
3303.9	0.5836
3312.93	0.5161
3321.96	0.4255
3330.98	0.3378
3340.01	0.2877
3349.04	0.2823
3358.06	0.3326
3367.09	0.4042
3376.12	0.4758
3385.14	0.5398
3394.17	0.5703
3403.2	0.5859
3412.22	0.597
3421.25	0.6045
3430.28	0.6111
3439.3	0.6192
3448.33	0.6217
3457.36	0.638
3466.38	0.6477
3475.41	0.6541
3484.44	0.6611
3493.46	0.6662
3502.49	0.6804
3511.52	0.6917
3520.54	0.7026
3529.57	0.7177
3538.6	0.7298
3547.62	0.7388
3556.65	0.7496
3565.68	0.7649
3574.7	0.7768
3583.73	0.7874
3592.76	0.8
3601.78	0.8105
3610.81	0.8319
3619.84	0.8492
3628.86	0.8551
3637.89	0.8578
3646.92	0.8786
3655.95	0.8814
3664.97	0.8868
3674	0.9002
3683.03	0.8922
3692.05	0.8912
3701.08	0.8916
3710.11	0.9043
3719.13	0.9071
3728.16	0.9072
3737.19	0.9076
3746.21	0.906
3755.24	0.9003
3764.27	0.9009
3773.29	0.9072
3782.32	0.9111
3791.35	0.9111
3800.37	0.9106
3809.4	0.9102
3818.43	0.9095
3827.45	0.9086
3836.48	0.9079
3845.51	0.9072
3854.53	0.9071
3863.56	0.907
3872.59	0.8932
3881.61	0.9043
3890.64	0.9033
3899.67	0.9028
3908.69	0.9017
3917.72	0.902
3926.75	0.9065
3935.77	0.9069
3944.8	0.9079
3953.83	0.9095
3962.85	0.9143
3971.88	0.9105
3980.91	0.9078
3989.93	0.9077
3998.96	0.9088
4007.99	0.9114
