Infrared Spectrum: 2-CHLORO-3-(3,6-DIMETHYL-2-PYRAZYL METHYL)-6-METHYL PYRAZINE
Formula: C12 H13 Cl N4
CAS: 116374-07-3
State: SOLID (MINERAL OIL MULL)
Melting point: 65-66 C
Class: COBLENTZ
Instrument: Not specified, most likely a prism, grating, or hybrid spectrometer.
Sampling: TRANSMISSION
Resolution: 4
Origin: WYANDOTTE CHEMICALS CORP., WYANDOTTE, MICHIGAN, USA
MICROMETERS	TRANSMITTANCE
2.02	0.576
2.06088	0.588
2.10175	0.597
2.14263	0.602
2.18351	0.597
2.22438	0.595
2.26526	0.609
2.30613	0.617
2.34701	0.629
2.38789	0.638
2.42876	0.641
2.46964	0.641
2.51052	0.651
2.55139	0.658
2.59227	0.66
2.63315	0.668
2.67402	0.675
2.7149	0.68
2.75578	0.684
2.79665	0.68
2.83753	0.684
2.8784	0.68
2.91928	0.684
2.96016	0.682
3.00103	0.684
3.04191	0.68
3.08279	0.689
3.12366	0.682
3.16454	0.677
3.20542	0.668
3.24629	0.639
3.28717	0.539
3.32805	0.329
3.36892	0.061
3.4098	0.066
3.45067	0.168
3.49155	0.151
3.53243	0.54
3.5733	0.774
3.61418	0.807
3.65506	0.791
3.69593	0.79
3.73681	0.802
3.77769	0.803
3.81856	0.82
3.85944	0.827
3.90032	0.843
3.94119	0.848
3.98207	0.849
4.02294	0.853
4.06382	0.858
4.1047	0.848
4.14557	0.861
4.18645	0.86
4.22733	0.853
4.2682	0.853
4.30908	0.858
4.34996	0.863
4.39083	0.877
4.43171	0.883
4.47259	0.887
4.51346	0.89
4.55434	0.895
4.59521	0.892
4.63609	0.899
4.67697	0.906
4.71784	0.902
4.75872	0.901
4.7996	0.911
4.84047	0.909
4.88135	0.911
4.92223	0.912
4.9631	0.916
5.00398	0.911
5.04486	0.911
5.08573	0.909
5.12661	0.914
5.16748	0.921
5.20836	0.921
5.24924	0.923
5.29011	0.918
5.33099	0.899
5.37187	0.911
5.41274	0.933
5.45362	0.928
5.4945	0.926
5.53537	0.931
5.57625	0.918
5.61713	0.933
5.658	0.933
5.69888	0.936
5.73975	0.936
5.78063	0.936
5.82151	0.931
5.86238	0.928
5.90326	0.918
5.94414	0.918
5.98501	0.909
6.02589	0.902
6.06677	0.907
6.10764	0.912
6.14852	0.914
6.1894	0.919
6.23027	0.911
6.27115	0.912
6.31202	0.819
6.3529	0.75
6.39378	0.861
6.43465	0.858
6.47553	0.822
6.51641	0.749
6.55728	0.684
6.59816	0.755
6.63904	0.8
6.67991	0.778
6.72079	0.679
6.76167	0.491
6.80254	0.179
6.84342	0.098
6.88429	0.051
6.92517	0.148
6.96605	0.332
7.00692	0.387
7.0478	0.619
7.08868	0.651
7.12955	0.658
7.17043	0.648
7.21131	0.484
7.25218	0.255
7.29306	0.247
7.33394	0.339
7.37481	0.47
7.41569	0.43
7.45656	0.206
7.49744	0.375
7.53832	0.571
7.57919	0.687
7.62007	0.65
7.66095	0.315
7.70182	0.341
7.7427	0.6
7.78358	0.612
7.82445	0.65
7.86533	0.764
7.90621	0.788
7.94708	0.817
7.98796	0.786
8.02883	0.774
8.06971	0.793
8.11059	0.75
8.15146	0.829
8.19234	0.825
8.23322	0.755
8.27409	0.59
8.31497	0.633
8.35585	0.808
8.39672	0.856
8.4376	0.865
8.47848	0.837
8.51935	0.704
8.56023	0.583
8.6011	0.537
8.64198	0.375
8.68286	0.636
8.72373	0.784
8.76461	0.837
8.80549	0.873
8.84636	0.87
8.88724	0.834
8.92812	0.706
8.96899	0.465
9.00987	0.469
9.05075	0.47
9.09162	0.464
9.1325	0.232
9.17337	0.075
9.21425	0.24
9.25513	0.505
9.296	0.631
9.33688	0.689
9.37776	0.754
9.41863	0.781
9.45951	0.793
9.50039	0.8
9.54126	0.795
9.58214	0.771
9.62302	0.687
9.66389	0.537
9.70477	0.581
9.74564	0.696
9.78652	0.754
9.8274	0.781
9.86827	0.761
9.90915	0.595
9.95003	0.598
9.9909	0.749
10.0318	0.798
10.0727	0.798
10.1135	0.766
10.1544	0.679
10.1953	0.576
10.2362	0.563
10.277	0.686
10.3179	0.752
10.3588	0.808
10.3997	0.812
10.4405	0.82
10.4814	0.822
10.5223	0.798
10.5632	0.778
10.604	0.747
10.6449	0.616
10.6858	0.588
10.7267	0.679
10.7676	0.667
10.8084	0.459
10.8493	0.515
10.8902	0.704
10.9311	0.759
10.9719	0.788
11.0128	0.803
11.0537	0.8
11.0946	0.8
11.1354	0.831
11.1763	0.834
11.2172	0.86
11.2581	0.875
11.2989	0.889
11.3398	0.892
11.3807	0.902
11.4216	0.901
11.4625	0.907
11.5033	0.912
11.5442	0.916
11.5851	0.914
11.626	0.912
11.6668	0.914
11.7077	0.914
11.7486	0.909
11.7895	0.906
11.8303	0.909
11.8712	0.909
11.9121	0.918
11.953	0.918
11.9938	0.921
12.0347	0.924
12.0756	0.926
12.1165	0.924
12.1574	0.921
12.1982	0.901
12.2391	0.851
12.28	0.89
12.3209	0.921
12.3617	0.928
12.4026	0.935
12.4435	0.938
12.4844	0.943
12.5252	0.94
12.5661	0.943
12.607	0.931
12.6479	0.948
12.6887	0.947
12.7296	0.948
12.7705	0.948
12.8114	0.95
12.8523	0.947
12.8931	0.941
12.934	0.94
12.9749	0.931
13.0158	0.914
13.0566	0.846
13.0975	0.754
13.1384	0.796
13.1793	0.866
13.2201	0.897
13.261	0.895
13.3019	0.844
13.3428	0.757
13.3836	0.738
13.4245	0.726
13.4654	0.815
13.5063	0.87
13.5472	0.89
13.588	0.899
13.6289	0.902
13.6698	0.902
13.7107	0.911
13.7515	0.907
13.7924	0.911
13.8333	0.901
13.8742	0.89
13.915	0.858
13.9559	0.831
13.9968	0.866
14.0377	0.909
14.0785	0.928
14.1194	0.938
14.1603	0.943
14.2012	0.947
14.2421	0.953
14.2829	0.953
14.3238	0.95
14.3647	0.95
14.4056	0.95
14.4464	0.948
14.4873	0.948
14.5282	0.941
14.5691	0.94
14.6099	0.938
14.6508	0.936
14.6917	0.933
14.7326	0.924
14.7734	0.916
14.8143	0.914
14.8552	0.914
14.8961	0.914
14.937	0.914
14.9778	0.907
15.0187	0.883
15.0596	0.851
15.1005	0.861
15.1413	0.887
15.1822	0.901
15.2231	0.89
15.264	0.878
15.3048	0.868
15.3457	0.851
15.3866	0.844
15.4275	0.831
15.4683	0.827
15.5092	0.82
15.5501	0.817
15.591	0.815
15.6319	0.807
15.6727	0.798
15.7136	0.79
15.7545	0.781
15.7954	0.774
15.8362	0.759
15.8771	0.749
15.918	0.737
15.9589	0.728
