Infrared Spectrum: 1,3-CYCLOBUTANEDIOL, 2,2,4,4-TETRAMETHYL-, MONOACETATE
Formula: C10 H18 O3
CAS: 116373-49-0
Class: COBLENTZ
Instrument: Not specified, most likely a prism, grating, or hybrid spectrometer.
Sampling: TRANSMISSION
Path length: SMEAR
Resolution: 4
Origin: TENNESSEE EASTMAN COMPANY, RESEARCH LABORATORIES
MICROMETERS	TRANSMITTANCE
2.014	0.94
2.05496	0.943
2.09591	0.945
2.13687	0.95
2.17782	0.953
2.21878	0.95
2.25974	0.921
2.30069	0.907
2.34165	0.916
2.3826	0.917
2.42356	0.919
2.46451	0.924
2.50547	0.933
2.54643	0.941
2.58738	0.943
2.62834	0.95
2.66929	0.953
2.71025	0.952
2.75121	0.822
2.79216	0.54
2.83312	0.264
2.87407	0.186
2.91503	0.165
2.95598	0.205
2.99694	0.288
3.0379	0.394
3.07885	0.543
3.11981	0.67
3.16076	0.738
3.20172	0.791
3.24268	0.822
3.28363	0.805
3.32459	0.569
3.36554	0.119
3.4065	0.147
3.44746	0.208
3.48841	0.352
3.52937	0.678
3.57032	0.765
3.61128	0.813
3.65223	0.805
3.69319	0.781
3.73415	0.834
3.7751	0.859
3.81606	0.864
3.85701	0.88
3.89797	0.894
3.93893	0.917
3.97988	0.928
4.02084	0.924
4.06179	0.921
4.10275	0.919
4.1437	0.94
4.18466	0.945
4.22562	0.947
4.26657	0.947
4.30753	0.947
4.34848	0.952
4.38944	0.958
4.4304	0.962
4.47135	0.964
4.51231	0.964
4.55326	0.958
4.59422	0.929
4.63518	0.912
4.67613	0.948
4.71709	0.964
4.75804	0.981
4.799	0.989
4.83995	0.988
4.88091	0.982
4.92187	0.974
4.96282	0.974
5.00378	0.982
5.04473	0.979
5.08569	0.955
5.12665	0.964
5.1676	0.969
5.20856	0.974
5.24951	0.979
5.29047	0.979
5.33142	0.957
5.37238	0.945
5.41334	0.909
5.45429	0.871
5.49525	0.856
5.5362	0.823
5.57716	0.753
5.61812	0.652
5.65907	0.471
5.70003	0.237
5.74098	0.088
5.78194	0.07
5.82289	0.061
5.86385	0.112
5.90481	0.283
5.94576	0.502
5.98672	0.586
6.02767	0.627
6.06863	0.658
6.10959	0.728
6.15054	0.765
6.1915	0.794
6.23245	0.829
6.27341	0.837
6.31437	0.83
6.35532	0.827
6.39628	0.834
6.43723	0.818
6.47819	0.791
6.51914	0.789
6.5601	0.786
6.60106	0.779
6.64201	0.75
6.68297	0.716
6.72392	0.629
6.76488	0.393
6.80584	0.181
6.84679	0.208
6.88775	0.239
6.9287	0.282
6.96966	0.316
7.01061	0.331
7.05157	0.35
7.09253	0.37
7.13348	0.386
7.17444	0.309
7.21539	0.169
7.25635	0.1
7.29731	0.092
7.33826	0.15
7.37922	0.264
7.42017	0.358
7.46113	0.502
7.50209	0.511
7.54304	0.425
7.584	0.374
7.62495	0.36
7.66591	0.36
7.70686	0.348
7.74782	0.3
7.78878	0.241
7.82973	0.155
7.87069	0.095
7.91164	0.07
7.9526	0.056
7.99356	0.049
8.03451	0.047
8.07547	0.042
8.11642	0.056
8.15738	0.117
8.19833	0.189
8.23929	0.251
8.28025	0.295
8.3212	0.28
8.36216	0.271
8.40311	0.314
8.44407	0.374
8.48503	0.452
8.52598	0.511
8.56694	0.541
8.60789	0.555
8.64885	0.582
8.68981	0.603
8.73076	0.615
8.77172	0.603
8.81267	0.552
8.85363	0.427
8.89458	0.3
8.93554	0.239
8.9765	0.213
9.01745	0.208
9.05841	0.21
9.09936	0.247
9.14032	0.283
9.18128	0.304
9.22223	0.35
9.26319	0.374
9.30414	0.355
9.3451	0.287
9.38605	0.205
9.42701	0.126
9.46797	0.082
9.50892	0.063
9.54988	0.054
9.59083	0.056
9.63179	0.073
9.67275	0.123
9.7137	0.189
9.75466	0.261
9.79561	0.287
9.83657	0.235
9.87753	0.177
9.91848	0.152
9.95944	0.143
10.0004	0.143
10.0413	0.188
10.0823	0.239
10.1233	0.287
10.1642	0.333
10.2052	0.35
10.2461	0.335
10.2871	0.364
10.328	0.463
10.369	0.579
10.41	0.642
10.4509	0.652
10.4919	0.603
10.5328	0.567
10.5738	0.623
10.6147	0.671
10.6557	0.728
10.6966	0.76
10.7376	0.769
10.7786	0.741
10.8195	0.659
10.8605	0.57
10.9014	0.488
10.9424	0.47
10.9833	0.557
11.0243	0.69
11.0652	0.75
11.1062	0.784
11.1472	0.805
11.1881	0.811
11.2291	0.811
11.27	0.8
11.311	0.764
11.3519	0.728
11.3929	0.704
11.4338	0.7
11.4748	0.7
11.5158	0.695
11.5567	0.673
11.5977	0.666
11.6386	0.697
11.6796	0.753
11.7205	0.794
11.7615	0.808
11.8025	0.81
11.8434	0.796
11.8844	0.779
11.9253	0.779
11.9663	0.801
12.0072	0.822
12.0482	0.832
12.0891	0.834
12.1301	0.829
12.1711	0.805
12.212	0.793
12.253	0.772
12.2939	0.762
12.3349	0.755
12.3758	0.753
12.4168	0.753
12.4577	0.76
12.4987	0.777
12.5397	0.796
12.5806	0.811
12.6216	0.825
12.6625	0.829
12.7035	0.83
12.7444	0.829
12.7854	0.801
12.8263	0.743
12.8673	0.661
12.9083	0.598
12.9492	0.582
12.9902	0.629
13.0311	0.719
13.0721	0.774
13.113	0.811
13.154	0.82
13.1949	0.827
13.2359	0.827
13.2769	0.827
13.3178	0.827
13.3588	0.827
13.3997	0.825
13.4407	0.82
13.4816	0.818
13.5226	0.813
13.5636	0.808
13.6045	0.803
13.6455	0.801
13.6864	0.794
13.7274	0.791
13.7683	0.786
13.8093	0.779
13.8502	0.774
13.8912	0.769
13.9322	0.765
13.9731	0.758
14.0141	0.75
14.055	0.748
14.096	0.74
14.1369	0.733
14.1779	0.728
14.2188	0.723
14.2598	0.716
14.3008	0.704
14.3417	0.7
14.3827	0.692
14.4236	0.685
14.4646	0.676
14.5055	0.668
14.5465	0.661
14.5874	0.652
14.6284	0.646
14.6694	0.632
14.7103	0.623
14.7513	0.61
14.7922	0.596
14.8332	0.582
14.8741	0.56
14.9151	0.54
14.9561	0.523
14.997	0.505
15.038	0.482
15.0789	0.447
15.1199	0.423
15.1608	0.418
15.2018	0.418
15.2427	0.43
15.2837	0.444
15.3247	0.468
15.3656	0.48
15.4066	0.492
15.4475	0.5
15.4885	0.505
15.5294	0.512
15.5704	0.514
15.6113	0.517
15.6523	0.524
15.6933	0.526
15.7342	0.528
15.7752	0.528
15.8161	0.528
15.8571	0.529
15.898	0.531
15.939	0.535
15.9799	0.536
