Infrared Spectrum: M-DIOXANE, 2-ISOPROPENYL-4-ISOPROPYL-5,5-DIMETHYL-
Formula: C12 H22 O2
CAS: 116373-70-7
Boiling point: 89-91 C AT 12 mmHg
Class: COBLENTZ
Instrument: Not specified, most likely a prism, grating, or hybrid spectrometer.
Sampling: TRANSMISSION
Path length: SMEAR
Resolution: 4
Origin: TENNESSEE EASTMAN COMPANY, RESEARCH LABORATORIES
MICROMETERS	TRANSMITTANCE
2.048	0.993
2.08891	0.994
2.12983	0.994
2.17074	0.996
2.21166	0.996
2.25257	0.996
2.29349	0.996
2.3344	0.998
2.37532	0.998
2.41623	0.998
2.45715	0.998
2.49806	0.998
2.53898	0.998
2.57989	0.998
2.62081	0.996
2.66172	0.996
2.70264	0.996
2.74355	0.996
2.78447	0.996
2.82538	0.994
2.8663	0.994
2.90721	0.993
2.94813	0.993
2.98904	0.991
3.02996	0.977
3.07087	0.969
3.11179	0.969
3.1527	0.967
3.19362	0.962
3.23453	0.929
3.27545	0.878
3.31636	0.8
3.35728	0.227
3.39819	0.271
3.43911	0.42
3.48002	0.411
3.52094	0.418
3.56185	0.721
3.60277	0.777
3.64368	0.822
3.6846	0.844
3.72551	0.844
3.76643	0.878
3.80734	0.912
3.84826	0.921
3.88917	0.928
3.93009	0.941
3.971	0.967
4.01192	0.974
4.05283	0.976
4.09374	0.977
4.13466	0.981
4.17557	0.981
4.21649	0.981
4.2574	0.979
4.29832	0.97
4.33923	0.97
4.38015	0.979
4.42106	0.982
4.46198	0.984
4.50289	0.986
4.54381	0.986
4.58472	0.986
4.62564	0.984
4.66655	0.982
4.70747	0.982
4.74838	0.977
4.7893	0.977
4.83021	0.979
4.87113	0.977
4.91204	0.979
4.95296	0.979
4.99387	0.979
5.03479	0.988
5.0757	0.986
5.11662	0.988
5.15753	0.986
5.19845	0.988
5.23936	0.989
5.28028	0.989
5.32119	0.989
5.36211	0.989
5.40302	0.989
5.44394	0.977
5.48485	0.96
5.52577	0.96
5.56668	0.969
5.6076	0.972
5.64851	0.972
5.68943	0.97
5.73034	0.955
5.77126	0.938
5.81217	0.935
5.85309	0.919
5.894	0.894
5.93492	0.847
5.97583	0.82
6.01675	0.729
6.05766	0.736
6.09858	0.818
6.13949	0.829
6.1804	0.852
6.22132	0.878
6.26223	0.897
6.30315	0.911
6.34406	0.911
6.38498	0.895
6.42589	0.88
6.46681	0.876
6.50772	0.878
6.54864	0.882
6.58955	0.882
6.63047	0.859
6.67138	0.822
6.7123	0.683
6.75321	0.483
6.79413	0.309
6.83504	0.365
6.87596	0.396
6.91687	0.548
6.95779	0.608
6.9987	0.639
7.03962	0.611
7.08053	0.56
7.12145	0.601
7.16236	0.48
7.20328	0.459
7.24419	0.61
7.28511	0.487
7.32602	0.389
7.36694	0.442
7.40785	0.458
7.44877	0.7
7.48968	0.808
7.5306	0.82
7.57151	0.782
7.61243	0.699
7.65334	0.779
7.69426	0.798
7.73517	0.753
7.77609	0.765
7.817	0.75
7.85792	0.789
7.89883	0.823
7.93975	0.81
7.98066	0.803
8.02158	0.832
8.06249	0.841
8.10341	0.827
8.14432	0.659
8.18523	0.601
8.22615	0.717
8.26706	0.779
8.30798	0.789
8.34889	0.769
8.38981	0.769
8.43072	0.702
8.47164	0.639
8.51255	0.687
8.55347	0.707
8.59438	0.712
8.6353	0.69
8.67621	0.61
8.71713	0.485
8.75804	0.341
8.79896	0.217
8.83987	0.169
8.88079	0.138
8.9217	0.097
8.96262	0.082
9.00353	0.071
9.04445	0.071
9.08536	0.155
9.12628	0.328
9.16719	0.499
9.20811	0.611
9.24902	0.641
9.28994	0.637
9.33085	0.558
9.37177	0.463
9.41268	0.396
9.4536	0.35
9.49451	0.3
9.53543	0.256
9.57634	0.227
9.61726	0.215
9.65817	0.244
9.69909	0.343
9.74	0.43
9.78092	0.516
9.82183	0.488
9.86275	0.353
9.90366	0.295
9.94458	0.307
9.98549	0.355
10.0264	0.386
10.0673	0.36
10.1082	0.362
10.1492	0.341
10.1901	0.341
10.231	0.386
10.2719	0.47
10.3128	0.593
10.3537	0.629
10.3946	0.565
10.4356	0.449
10.4765	0.458
10.5174	0.601
10.5583	0.694
10.5992	0.731
10.6401	0.762
10.681	0.8
10.722	0.81
10.7629	0.796
10.8038	0.741
10.8447	0.682
10.8856	0.606
10.9265	0.499
10.9674	0.384
11.0084	0.348
11.0493	0.379
11.0902	0.475
11.1311	0.594
11.172	0.69
11.2129	0.758
11.2539	0.822
11.2948	0.861
11.3357	0.883
11.3766	0.899
11.4175	0.909
11.4584	0.907
11.4993	0.888
11.5403	0.868
11.5812	0.895
11.6221	0.923
11.663	0.931
11.7039	0.936
11.7448	0.936
11.7857	0.936
11.8267	0.936
11.8676	0.935
11.9085	0.929
11.9494	0.926
11.9903	0.926
12.0312	0.928
12.0722	0.931
12.1131	0.936
12.154	0.936
12.1949	0.938
12.2358	0.94
12.2767	0.94
12.3176	0.94
12.3586	0.94
12.3995	0.94
12.4404	0.938
12.4813	0.936
12.5222	0.929
12.5631	0.928
12.604	0.928
12.645	0.928
12.6859	0.905
12.7268	0.837
12.7677	0.794
12.8086	0.832
12.8495	0.883
12.8904	0.902
12.9314	0.914
12.9723	0.919
13.0132	0.921
13.0541	0.924
13.095	0.924
13.1359	0.924
13.1769	0.923
13.2178	0.923
13.2587	0.921
13.2996	0.921
13.3405	0.921
13.3814	0.919
13.4223	0.919
13.4633	0.917
13.5042	0.907
13.5451	0.9
13.586	0.892
13.6269	0.887
13.6678	0.883
13.7087	0.878
13.7497	0.87
13.7906	0.864
13.8315	0.856
13.8724	0.847
13.9133	0.846
13.9542	0.849
13.9952	0.854
14.0361	0.856
14.077	0.858
14.1179	0.856
14.1588	0.856
14.1997	0.856
14.2406	0.851
14.2816	0.842
14.3225	0.841
14.3634	0.837
14.4043	0.832
14.4452	0.82
14.4861	0.813
14.527	0.806
14.568	0.789
14.6089	0.779
14.6498	0.765
14.6907	0.753
14.7316	0.743
14.7725	0.735
14.8134	0.721
14.8544	0.707
14.8953	0.699
14.9362	0.692
14.9771	0.682
15.018	0.676
15.0589	0.668
15.0999	0.664
15.1408	0.664
15.1817	0.668
15.2226	0.676
15.2635	0.687
15.3044	0.69
15.3453	0.688
15.3863	0.688
15.4272	0.683
15.4681	0.678
15.509	0.675
15.5499	0.666
15.5908	0.656
15.6317	0.641
15.6727	0.625
15.7136	0.613
15.7545	0.608
15.7954	0.606
15.8363	0.606
15.8772	0.606
15.9182	0.608
15.9591	0.608
16	0.613
