Infrared Spectrum: BIS-(4-TERT-BUTYLPHENOXY) ETHOXY METHANE
Formula: C23 H32 03
CAS: 116374-08-4
State: SOLUTION (10% IN CCl4 FOR 5000-1350 CM^-^1, 10% IN CS2 FOR 1350-625 CM^-^1)
Class: COBLENTZ
Instrument: Not specified, most likely a prism, grating, or hybrid spectrometer.
Sampling: TRANSMISSION
Path length: 0.01 CM, 0.01 CM
Resolution: 4
Origin: DOW CHEMICAL COMPANY
MICROMETERS	TRANSMITTANCE
2.04	0.867
2.07917	0.867
2.11835	0.868
2.15752	0.87
2.19669	0.867
2.23586	0.854
2.27504	0.847
2.31421	0.86
2.35338	0.858
2.39255	0.858
2.43173	0.862
2.4709	0.867
2.51007	0.871
2.54924	0.871
2.58842	0.871
2.62759	0.876
2.66676	0.876
2.70594	0.871
2.74511	0.87
2.78428	0.857
2.82345	0.846
2.86263	0.828
2.9018	0.818
2.94097	0.818
2.98014	0.813
3.01932	0.818
3.05849	0.821
3.09766	0.823
3.13684	0.823
3.17601	0.824
3.21518	0.802
3.25435	0.745
3.29353	0.693
3.3327	0.632
3.37187	0.119
3.41104	0.226
3.45022	0.275
3.48939	0.492
3.52856	0.766
3.56773	0.784
3.60691	0.811
3.64608	0.831
3.68525	0.87
3.72443	0.88
3.7636	0.878
3.80277	0.883
3.84194	0.883
3.88112	0.876
3.92029	0.875
3.95946	0.88
3.99863	0.884
4.03781	0.891
4.07698	0.886
4.11615	0.889
4.15532	0.893
4.1945	0.891
4.23367	0.888
4.27284	0.88
4.31202	0.875
4.35119	0.886
4.39036	0.897
4.42953	0.902
4.46871	0.905
4.50788	0.907
4.54705	0.907
4.58622	0.907
4.6254	0.905
4.66457	0.904
4.70374	0.901
4.74291	0.894
4.78209	0.886
4.82126	0.886
4.86043	0.871
4.89961	0.878
4.93878	0.884
4.97795	0.883
5.01712	0.876
5.0563	0.881
5.09547	0.891
5.13464	0.897
5.17381	0.899
5.21299	0.893
5.25216	0.878
5.29133	0.855
5.33051	0.865
5.36968	0.878
5.40885	0.893
5.44802	0.902
5.4872	0.905
5.52637	0.905
5.56554	0.902
5.60471	0.899
5.64389	0.886
5.68306	0.876
5.72223	0.878
5.7614	0.878
5.80058	0.886
5.83975	0.883
5.87892	0.878
5.9181	0.871
5.95727	0.865
5.99644	0.844
6.03561	0.818
6.07479	0.797
6.11396	0.719
6.15313	0.551
6.1923	0.338
6.23148	0.531
6.27065	0.52
6.30982	0.458
6.34899	0.531
6.38817	0.504
6.42734	0.442
6.46651	0.455
6.50569	0.487
6.54486	0.405
6.58403	0.184
6.6232	0.157
6.66238	0.471
6.70155	0.495
6.74072	0.421
6.77989	0.457
6.81907	0.387
6.85824	0.495
6.89741	0.714
6.93659	0.769
6.97576	0.779
7.01493	0.709
7.0541	0.674
7.09328	0.711
7.13245	0.627
7.17162	0.666
7.21079	0.748
7.24997	0.609
7.28914	0.395
7.32831	0.525
7.36748	0.756
7.40666	0.761
7.44583	0.761
7.485	0.768
7.52418	0.737
7.56335	0.628
7.60252	0.508
7.64169	0.395
7.68087	0.26
7.72004	0.322
7.75921	0.481
7.79838	0.497
7.83756	0.442
7.87673	0.354
7.9159	0.202
7.95507	0.048
7.99425	0.014
8.03342	0.071
8.07259	0.176
8.11177	0.277
8.15094	0.442
8.19011	0.559
8.22928	0.632
8.26846	0.599
8.30763	0.58
8.3468	0.521
8.38597	0.299
8.42515	0.098
8.46432	0.231
8.50349	0.45
8.54266	0.568
8.58184	0.636
8.62101	0.632
8.66018	0.594
8.69936	0.504
8.73853	0.408
8.7777	0.29
8.81687	0.2
8.85605	0.171
8.89522	0.15
8.93439	0.113
8.97356	0.105
9.01274	0.16
9.05191	0.256
9.09108	0.317
9.13026	0.361
9.16943	0.39
9.2086	0.359
9.24777	0.319
9.28695	0.296
9.32612	0.278
9.36529	0.299
9.40446	0.32
9.44364	0.273
9.48281	0.171
9.52198	0.074
9.56115	0.05
9.60033	0.05
9.6395	0.063
9.67867	0.068
9.71785	0.111
9.75702	0.171
9.79619	0.256
9.83536	0.329
9.87454	0.35
9.91371	0.448
9.95288	0.521
9.99205	0.528
10.0312	0.52
10.0704	0.517
10.1096	0.531
10.1487	0.559
10.1879	0.596
10.2271	0.643
10.2663	0.664
10.3054	0.683
10.3446	0.696
10.3838	0.708
10.423	0.726
10.4621	0.737
10.5013	0.74
10.5405	0.73
10.5796	0.711
10.6188	0.687
10.658	0.645
10.6972	0.581
10.7363	0.518
10.7755	0.489
10.8147	0.487
10.8539	0.518
10.893	0.57
10.9322	0.635
10.9714	0.683
11.0105	0.717
11.0497	0.742
11.0889	0.76
11.1281	0.764
11.1672	0.769
11.2064	0.764
11.2456	0.756
11.2848	0.743
11.3239	0.73
11.3631	0.709
11.4023	0.683
11.4414	0.659
11.4806	0.619
11.5198	0.568
11.559	0.518
11.5981	0.486
11.6373	0.452
11.6765	0.448
11.7157	0.457
11.7548	0.473
11.794	0.495
11.8332	0.504
11.8723	0.491
11.9115	0.45
11.9507	0.387
11.9899	0.267
12.029	0.129
12.0682	0.051
12.1074	0.068
12.1466	0.225
12.1857	0.45
12.2249	0.536
12.2641	0.549
12.3032	0.547
12.3424	0.539
12.3816	0.499
12.4208	0.461
12.4599	0.466
12.4991	0.504
12.5383	0.56
12.5775	0.646
12.6166	0.68
12.6558	0.692
12.695	0.698
12.7341	0.706
12.7733	0.727
12.8125	0.745
12.8517	0.758
12.8908	0.766
12.93	0.771
12.9692	0.776
13.0084	0.779
13.0475	0.781
13.0867	0.781
13.1259	0.777
13.165	0.777
13.2042	0.776
13.2434	0.773
13.2826	0.773
13.3217	0.771
13.3609	0.769
13.4001	0.768
13.4392	0.764
13.4784	0.76
13.5176	0.756
13.5568	0.748
13.5959	0.735
13.6351	0.714
13.6743	0.677
13.7135	0.672
13.7526	0.7
13.7918	0.717
13.831	0.721
13.8701	0.721
13.9093	0.721
13.9485	0.716
13.9877	0.711
14.0268	0.706
14.066	0.703
14.1052	0.698
14.1444	0.692
14.1835	0.687
14.2227	0.679
14.2619	0.672
14.301	0.667
14.3402	0.658
14.3794	0.649
14.4186	0.641
14.4577	0.627
14.4969	0.611
14.5361	0.594
14.5753	0.57
14.6144	0.546
14.6536	0.521
14.6928	0.5
14.7319	0.491
14.7711	0.492
14.8103	0.502
14.8495	0.51
14.8886	0.512
14.9278	0.52
14.967	0.52
15.0062	0.52
15.0453	0.507
15.0845	0.499
15.1237	0.487
15.1628	0.473
15.202	0.458
15.2412	0.45
15.2804	0.44
15.3195	0.434
15.3587	0.431
15.3979	0.427
15.4371	0.424
15.4762	0.418
15.5154	0.413
15.5546	0.406
15.5937	0.4
15.6329	0.395
15.6721	0.387
15.7113	0.379
15.7504	0.369
15.7896	0.361
15.8288	0.356
15.868	0.358
