Infrared Spectrum: DI-(2-PHENYLPHENOXY) METHANE
Formula: C25 H20 O2
CAS: 116374-06-2
State: SOLUTION (10% IN CCl4 FOR 5000-1350 CM^-^1, 10% IN CS2 FOR 1350-625 CM^-^1)
Class: COBLENTZ
Instrument: Not specified, most likely a prism, grating, or hybrid spectrometer.
Sampling: TRANSMISSION
Path length: 0.01 CM, 0.01 CM
Resolution: 4
Origin: DOW CHEMICAL COMPANY
MICROMETERS	TRANSMITTANCE
2.028	0.868
2.06714	0.868
2.10627	0.867
2.14541	0.87
2.18454	0.873
2.22368	0.873
2.26282	0.873
2.30195	0.873
2.34109	0.877
2.38022	0.875
2.41936	0.867
2.4585	0.878
2.49763	0.883
2.53677	0.886
2.5759	0.883
2.61504	0.885
2.65418	0.881
2.69331	0.881
2.73245	0.88
2.77158	0.87
2.81072	0.868
2.84986	0.864
2.88899	0.854
2.92813	0.849
2.96726	0.843
3.0064	0.854
3.04554	0.859
3.08467	0.859
3.12381	0.86
3.16294	0.846
3.20208	0.762
3.24121	0.631
3.28035	0.559
3.31949	0.729
3.35862	0.765
3.39776	0.763
3.43689	0.834
3.47603	0.873
3.51517	0.88
3.5543	0.878
3.59344	0.889
3.63257	0.896
3.67171	0.901
3.71085	0.904
3.74998	0.904
3.78912	0.901
3.82825	0.898
3.86739	0.899
3.90653	0.902
3.94566	0.904
3.9848	0.906
4.02393	0.907
4.06307	0.907
4.10221	0.907
4.14134	0.906
4.18048	0.904
4.21961	0.902
4.25875	0.898
4.29789	0.894
4.33702	0.899
4.37616	0.904
4.41529	0.911
4.45443	0.92
4.49357	0.923
4.5327	0.93
4.57184	0.94
4.61097	0.938
4.65011	0.933
4.68925	0.933
4.72838	0.932
4.76752	0.93
4.80665	0.919
4.84579	0.902
4.88493	0.893
4.92406	0.886
4.9632	0.889
5.00233	0.889
5.04147	0.902
5.08061	0.875
5.11974	0.851
5.15888	0.873
5.19801	0.88
5.23715	0.865
5.27629	0.868
5.31542	0.864
5.35456	0.899
5.39369	0.901
5.43283	0.891
5.47197	0.872
5.5111	0.86
5.55024	0.875
5.58937	0.889
5.62851	0.899
5.66764	0.889
5.70678	0.878
5.74592	0.899
5.78505	0.901
5.82419	0.889
5.86332	0.881
5.90246	0.868
5.9416	0.867
5.98073	0.872
6.01987	0.868
6.059	0.859
6.09814	0.831
6.13728	0.77
6.17641	0.658
6.21555	0.5
6.25468	0.451
6.29382	0.398
6.33296	0.514
6.37209	0.519
6.41123	0.475
6.45036	0.462
6.4895	0.527
6.52864	0.561
6.56777	0.564
6.60691	0.482
6.64604	0.349
6.68518	0.47
6.72432	0.061
6.76345	0.464
6.80259	0.679
6.84172	0.656
6.88086	0.66
6.92	0.448
6.95913	0.582
6.99827	0.741
7.0374	0.656
7.07654	0.519
7.11568	0.639
7.15481	0.838
7.19395	0.841
7.23308	0.87
7.27222	0.878
7.31136	0.885
7.35049	0.883
7.38963	0.881
7.42876	0.865
7.4679	0.847
7.50704	0.822
7.54617	0.729
7.58531	0.69
7.62444	0.716
7.66358	0.713
7.70272	0.71
7.74185	0.718
7.78099	0.721
7.82012	0.652
7.85926	0.519
7.89839	0.451
7.93753	0.508
7.97667	0.519
8.0158	0.538
8.05494	0.522
8.09407	0.401
8.13321	0.279
8.17235	0.296
8.21148	0.372
8.25062	0.199
8.28975	0.029
8.32889	0.088
8.36803	0.406
8.40716	0.576
8.4463	0.694
8.48543	0.749
8.52457	0.703
8.56371	0.626
8.60284	0.718
8.64198	0.747
8.68111	0.656
8.72025	0.529
8.75939	0.577
8.79852	0.699
8.83766	0.608
8.87679	0.433
8.91593	0.296
8.95507	0.368
8.9942	0.537
9.03334	0.653
9.07247	0.768
9.11161	0.783
9.15075	0.744
9.18988	0.711
9.22902	0.681
9.26815	0.624
9.30729	0.558
9.34643	0.611
9.38556	0.522
9.4247	0.32
9.46383	0.179
9.50297	0.262
9.54211	0.425
9.58124	0.409
9.62038	0.291
9.65951	0.257
9.69865	0.229
9.73779	0.126
9.77692	0.042
9.81606	0.035
9.85519	0.111
9.89433	0.132
9.93347	0.038
9.9726	0.05
10.0117	0.064
10.0509	0.063
10.09	0.088
10.1291	0.168
10.1683	0.27
10.2074	0.417
10.2466	0.53
10.2857	0.605
10.3248	0.665
10.364	0.729
10.4031	0.791
10.4422	0.823
10.4814	0.836
10.5205	0.843
10.5596	0.813
10.5988	0.778
10.6379	0.758
10.677	0.788
10.7162	0.839
10.7553	0.859
10.7945	0.86
10.8336	0.851
10.8727	0.805
10.9119	0.711
10.951	0.661
10.9901	0.778
11.0293	0.841
11.0684	0.862
11.1075	0.862
11.1467	0.852
11.1858	0.847
11.225	0.828
11.2641	0.813
11.3032	0.796
11.3424	0.775
11.3815	0.76
11.4206	0.742
11.4598	0.723
11.4989	0.702
11.538	0.681
11.5772	0.666
11.6163	0.653
11.6554	0.648
11.6946	0.652
11.7337	0.673
11.7729	0.695
11.812	0.711
11.8511	0.729
11.8903	0.75
11.9294	0.766
11.9685	0.778
12.0077	0.789
12.0468	0.794
12.0859	0.799
12.1251	0.799
12.1642	0.792
12.2034	0.784
12.2425	0.771
12.2816	0.749
12.3208	0.721
12.3599	0.681
12.399	0.663
12.4382	0.611
12.4773	0.577
12.5164	0.645
12.5556	0.721
12.5947	0.744
12.6338	0.749
12.673	0.747
12.7121	0.741
12.7513	0.728
12.7904	0.702
12.8295	0.66
12.8687	0.561
12.9078	0.411
12.9469	0.245
12.9861	0.169
13.0252	0.241
13.0643	0.304
13.1035	0.309
13.1426	0.247
13.1818	0.155
13.2209	0.056
13.26	0.014
13.2992	0.014
13.3383	0.077
13.3774	0.177
13.4166	0.255
13.4557	0.258
13.4948	0.19
13.534	0.11
13.5731	0.079
13.6122	0.101
13.6514	0.184
13.6905	0.304
13.7297	0.419
13.7688	0.477
13.8079	0.495
13.8471	0.5
13.8862	0.506
13.9253	0.525
13.9645	0.551
14.0036	0.58
14.0427	0.588
14.0819	0.558
14.121	0.503
14.1601	0.402
14.1993	0.284
14.2384	0.145
14.2776	0.05
14.3167	0.033
14.3558	0.116
14.395	0.249
14.4341	0.417
14.4732	0.512
14.5124	0.558
14.5515	0.582
14.5906	0.598
14.6298	0.603
14.6689	0.601
14.7081	0.595
14.7472	0.587
14.7863	0.572
14.8255	0.559
14.8646	0.546
14.9037	0.53
14.9429	0.527
14.982	0.527
15.0211	0.524
15.0603	0.516
15.0994	0.508
15.1385	0.5
15.1777	0.488
15.2168	0.478
15.256	0.469
15.2951	0.462
15.3342	0.459
15.3734	0.456
15.4125	0.448
15.4516	0.438
15.4908	0.435
15.5299	0.428
15.569	0.425
15.6082	0.417
15.6473	0.411
15.6865	0.406
15.7256	0.401
15.7647	0.394
15.8039	0.388
15.843	0.385
15.8821	0.388
