Infrared Spectrum: 2-CARBOXAMIDE, 4-CYCLOHEXYL BUTYRIC ACID
Formula: C11 H19 N O3
CAS: 116346-21-5
State: SOLID (MINERAL OIL MULL)
Class: COBLENTZ
Instrument: Not specified, most likely a prism, grating, or hybrid spectrometer.
Sampling: TRANSMISSION
Resolution: 4
Origin: DOW CHEMICAL COMPANY
MICROMETERS	TRANSMITTANCE
2.027	0.794
2.06768	0.8
2.10836	0.805
2.14904	0.81
2.18972	0.816
2.23039	0.818
2.27107	0.811
2.31175	0.8
2.35243	0.796
2.39311	0.803
2.43379	0.813
2.47447	0.821
2.51515	0.828
2.55583	0.831
2.59651	0.833
2.63718	0.838
2.67786	0.843
2.71854	0.848
2.75922	0.855
2.7999	0.853
2.84058	0.843
2.88126	0.823
2.92194	0.746
2.96262	0.48
3.00329	0.339
3.04397	0.48
3.08465	0.473
3.12533	0.341
3.16601	0.394
3.20669	0.527
3.24737	0.556
3.28805	0.559
3.32873	0.524
3.3694	0.309
3.41008	0.031
3.45076	0.043
3.49144	0.08
3.53212	0.2
3.5728	0.453
3.61348	0.524
3.65416	0.573
3.69484	0.579
3.73552	0.578
3.77619	0.581
3.81687	0.588
3.85755	0.576
3.89823	0.569
3.93891	0.579
3.97959	0.591
4.02027	0.621
4.06095	0.66
4.10163	0.689
4.1423	0.717
4.18298	0.732
4.22366	0.747
4.26434	0.764
4.30502	0.788
4.3457	0.813
4.38638	0.821
4.42706	0.823
4.46774	0.828
4.50842	0.84
4.54909	0.843
4.58977	0.85
4.63045	0.862
4.67113	0.863
4.71181	0.867
4.75249	0.867
4.79317	0.867
4.83385	0.868
4.87453	0.872
4.9152	0.873
4.95588	0.872
4.99656	0.87
5.03724	0.868
5.07792	0.867
5.1186	0.863
5.15928	0.86
5.19996	0.855
5.24064	0.848
5.28131	0.838
5.32199	0.836
5.36267	0.831
5.40335	0.82
5.44403	0.813
5.48471	0.801
5.52539	0.789
5.56607	0.774
5.60675	0.752
5.64743	0.727
5.6881	0.658
5.72878	0.581
5.76946	0.416
5.81014	0.21
5.85082	0.186
5.8915	0.359
5.93218	0.482
5.97286	0.339
6.01354	0.171
6.05421	0.273
6.09489	0.5
6.13557	0.568
6.17625	0.578
6.21693	0.539
6.25761	0.517
6.29829	0.515
6.33897	0.578
6.37965	0.628
6.42033	0.689
6.461	0.709
6.50168	0.737
6.54236	0.754
6.58304	0.761
6.62372	0.763
6.6644	0.763
6.70508	0.739
6.74576	0.66
6.78644	0.465
6.82711	0.272
6.86779	0.272
6.90847	0.3
6.94915	0.319
6.98983	0.307
7.03051	0.381
7.07119	0.462
7.11187	0.43
7.15255	0.361
7.19322	0.351
7.2339	0.364
7.27458	0.44
7.31526	0.532
7.35594	0.556
7.39662	0.546
7.4373	0.573
7.47798	0.578
7.51866	0.593
7.55934	0.588
7.60001	0.534
7.64069	0.522
7.68137	0.532
7.72205	0.477
7.76273	0.559
7.80341	0.529
7.84409	0.47
7.88477	0.468
7.92545	0.531
7.96612	0.557
8.0068	0.532
8.04748	0.557
8.08816	0.571
8.12884	0.462
8.16952	0.3
8.2102	0.334
8.25088	0.531
8.29156	0.62
8.33224	0.579
8.37291	0.478
8.41359	0.504
8.45427	0.529
8.49495	0.524
8.53563	0.628
8.57631	0.672
8.61699	0.695
8.65767	0.7
8.69835	0.7
8.73902	0.67
8.7797	0.608
8.82038	0.566
8.86106	0.573
8.90174	0.568
8.94242	0.61
8.9831	0.675
9.02378	0.712
9.06446	0.724
9.10514	0.741
9.14581	0.763
9.18649	0.771
9.22717	0.779
9.26785	0.789
9.30853	0.806
9.34921	0.815
9.38989	0.815
9.43057	0.815
9.47125	0.828
9.51192	0.83
9.5526	0.83
9.59328	0.83
9.63396	0.823
9.67464	0.821
9.71532	0.823
9.756	0.825
9.79668	0.825
9.83736	0.823
9.87803	0.823
9.91871	0.823
9.95939	0.823
10.0001	0.82
10.0408	0.816
10.0814	0.815
10.1221	0.813
10.1628	0.803
10.2035	0.794
10.2441	0.781
10.2848	0.759
10.3255	0.739
10.3662	0.682
10.4069	0.678
10.4475	0.67
10.4882	0.63
10.5289	0.591
10.5696	0.569
10.6103	0.554
10.6509	0.544
10.6916	0.544
10.7323	0.557
10.773	0.581
10.8137	0.613
10.8543	0.633
10.895	0.65
10.9357	0.678
10.9764	0.714
11.017	0.744
11.0577	0.752
11.0984	0.731
11.1391	0.677
11.1798	0.69
11.2204	0.741
11.2611	0.757
11.3018	0.751
11.3425	0.766
11.3832	0.789
11.4238	0.8
11.4645	0.803
11.5052	0.806
11.5459	0.81
11.5866	0.81
11.6272	0.81
11.6679	0.803
11.7086	0.779
11.7493	0.761
11.7899	0.773
11.8306	0.794
11.8713	0.803
11.912	0.803
11.9527	0.798
11.9933	0.788
12.034	0.754
12.0747	0.721
12.1154	0.689
12.1561	0.702
12.1967	0.752
12.2374	0.779
12.2781	0.794
12.3188	0.801
12.3594	0.803
12.4001	0.801
12.4408	0.796
12.4815	0.791
12.5222	0.781
12.5628	0.771
12.6035	0.763
12.6442	0.754
12.6849	0.742
12.7256	0.719
12.7662	0.682
12.8069	0.642
12.8476	0.611
12.8883	0.611
12.929	0.623
12.9696	0.64
13.0103	0.668
13.051	0.69
13.0917	0.712
13.1323	0.729
13.173	0.744
13.2137	0.751
13.2544	0.754
13.2951	0.754
13.3357	0.754
13.3764	0.752
13.4171	0.749
13.4578	0.742
13.4985	0.736
13.5391	0.727
13.5798	0.715
13.6205	0.705
13.6612	0.7
13.7019	0.687
13.7425	0.673
13.7832	0.662
13.8239	0.65
13.8646	0.643
13.9052	0.638
13.9459	0.633
13.9866	0.628
14.0273	0.615
14.068	0.6
14.1086	0.583
14.1493	0.561
14.19	0.544
14.2307	0.521
14.2714	0.5
14.312	0.48
14.3527	0.46
14.3934	0.448
14.4341	0.438
14.4748	0.435
14.5154	0.435
14.5561	0.438
14.5968	0.447
14.6375	0.45
14.6781	0.452
14.7188	0.453
14.7595	0.455
14.8002	0.453
14.8409	0.45
14.8815	0.443
14.9222	0.436
14.9629	0.433
15.0036	0.433
15.0443	0.43
15.0849	0.423
15.1256	0.421
15.1663	0.42
15.207	0.42
15.2477	0.42
15.2883	0.42
15.329	0.418
15.3697	0.416
15.4104	0.411
15.451	0.41
15.4917	0.408
15.5324	0.403
15.5731	0.4
15.6138	0.398
15.6544	0.394
15.6951	0.391
15.7358	0.389
15.7765	0.391
