Infrared Spectrum: 2,6-DIALLYLPHENYL-N,N-DIMETHYL CARBAMATE
Formula: C15 H19 N O2
CAS: 116373-14-9
State: SOLUTION (10% CCl4 FOR 5000-1330, 10% CS2 FOR 1330-625 CM^-^1)
Class: COBLENTZ
Instrument: Not specified, most likely a prism, grating, or hybrid spectrometer.
Sampling: TRANSMISSION
Path length: 0.0117 CM, 0.0115 CM
Resolution: 4
Origin: DOW CHEMICAL COMPANY
MICROMETERS	TRANSMITTANCE
2.068	0.89
2.1091	0.888
2.1502	0.887
2.1913	0.882
2.23239	0.866
2.27349	0.859
2.31459	0.863
2.35569	0.87
2.39679	0.876
2.43789	0.883
2.47899	0.888
2.52009	0.892
2.56118	0.892
2.60228	0.894
2.64338	0.895
2.68448	0.895
2.72558	0.895
2.76668	0.894
2.80778	0.878
2.84887	0.852
2.88997	0.842
2.93107	0.83
2.97217	0.846
3.01327	0.863
3.05437	0.87
3.09547	0.875
3.13657	0.875
3.17766	0.87
3.21876	0.822
3.25986	0.697
3.30096	0.62
3.34206	0.642
3.38316	0.552
3.42426	0.423
3.46535	0.524
3.50645	0.654
3.54755	0.752
3.58865	0.832
3.62975	0.87
3.67085	0.882
3.71195	0.89
3.75305	0.894
3.79414	0.897
3.83524	0.897
3.87634	0.892
3.91744	0.89
3.95854	0.892
3.99964	0.895
4.04074	0.895
4.08183	0.9
4.12293	0.9
4.16403	0.899
4.20513	0.89
4.24623	0.887
4.28733	0.885
4.32843	0.885
4.36953	0.885
4.41062	0.89
4.45172	0.899
4.49282	0.904
4.53392	0.904
4.57502	0.904
4.61612	0.892
4.65722	0.897
4.69831	0.905
4.73941	0.9
4.78051	0.9
4.82161	0.904
4.86271	0.905
4.90381	0.897
4.94491	0.873
4.98601	0.856
5.0271	0.883
5.0682	0.892
5.1093	0.894
5.1504	0.899
5.1915	0.88
5.2326	0.885
5.2737	0.894
5.31479	0.887
5.35589	0.868
5.39699	0.847
5.43809	0.825
5.47919	0.818
5.52029	0.829
5.56139	0.832
5.60248	0.827
5.64358	0.806
5.68468	0.717
5.72578	0.552
5.76688	0.241
5.80798	0.035
5.84908	0.063
5.89018	0.285
5.93127	0.582
5.97237	0.692
6.01347	0.764
6.05457	0.755
6.09567	0.613
6.13677	0.586
6.17787	0.752
6.21896	0.705
6.26006	0.652
6.30116	0.572
6.34226	0.57
6.38336	0.548
6.42446	0.471
6.46556	0.42
6.50666	0.423
6.54775	0.452
6.58885	0.461
6.62995	0.454
6.67105	0.451
6.71215	0.418
6.75325	0.408
6.79435	0.393
6.83544	0.258
6.87654	0.217
6.91764	0.215
6.95874	0.189
6.99984	0.374
7.04094	0.485
7.08204	0.389
7.12314	0.335
7.16423	0.27
7.20533	0.046
7.24643	0.059
7.28753	0.288
7.32863	0.519
7.36973	0.668
7.41083	0.721
7.45192	0.741
7.49302	0.747
7.53412	0.729
7.57522	0.709
7.61632	0.688
7.65742	0.67
7.69852	0.641
7.73962	0.625
7.78071	0.591
7.82181	0.531
7.86291	0.502
7.90401	0.531
7.94511	0.502
7.98621	0.345
8.02731	0.176
8.0684	0.43
8.1095	0.567
8.1506	0.581
8.1917	0.535
8.2328	0.485
8.2739	0.456
8.315	0.432
8.3561	0.393
8.39719	0.329
8.43829	0.206
8.47939	0.099
8.52049	0.034
8.56159	0.02
8.60269	0.011
8.64379	0.013
8.68488	0.032
8.72598	0.121
8.76708	0.246
8.80818	0.377
8.84928	0.476
8.89038	0.54
8.93148	0.579
8.97258	0.589
9.01367	0.589
9.05477	0.591
9.09587	0.617
9.13697	0.652
9.17807	0.671
9.21917	0.673
9.26027	0.656
9.30136	0.629
9.34246	0.618
9.38356	0.596
9.42466	0.57
9.46576	0.594
9.50686	0.663
9.54796	0.705
9.58906	0.743
9.63015	0.76
9.67125	0.772
9.71235	0.777
9.75345	0.779
9.79455	0.757
9.83565	0.685
9.87675	0.558
9.91784	0.476
9.95894	0.5
10	0.519
10.0411	0.425
10.0822	0.333
10.1233	0.341
10.1644	0.523
10.2055	0.63
10.2466	0.692
10.2877	0.735
10.3288	0.747
10.3699	0.748
10.411	0.76
10.4521	0.779
10.4932	0.793
10.5343	0.798
10.5754	0.8
10.6165	0.784
10.6576	0.764
10.6987	0.731
10.7398	0.687
10.7809	0.637
10.822	0.558
10.8631	0.439
10.9042	0.283
10.9453	0.155
10.9864	0.123
11.0275	0.148
11.0686	0.261
11.1097	0.422
11.1508	0.558
11.1919	0.632
11.233	0.673
11.2741	0.695
11.3152	0.705
11.3563	0.704
11.3974	0.699
11.4385	0.692
11.4796	0.687
11.5207	0.678
11.5618	0.652
11.6029	0.611
11.644	0.55
11.6851	0.47
11.7262	0.429
11.7673	0.454
11.8084	0.509
11.8495	0.516
11.8906	0.562
11.9317	0.668
11.9728	0.731
12.0139	0.772
12.055	0.793
12.0961	0.805
12.1372	0.81
12.1783	0.81
12.2194	0.811
12.2605	0.811
12.3016	0.806
12.3427	0.793
12.3838	0.779
12.4249	0.758
12.466	0.728
12.5071	0.683
12.5482	0.654
12.5893	0.632
12.6304	0.627
12.6715	0.61
12.7126	0.558
12.7537	0.509
12.7948	0.476
12.8358	0.476
12.8769	0.512
12.918	0.557
12.9591	0.579
13.0002	0.581
13.0413	0.555
13.0824	0.504
13.1235	0.43
13.1646	0.343
13.2057	0.242
13.2468	0.189
13.2879	0.186
13.329	0.254
13.3701	0.335
13.4112	0.435
13.4523	0.514
13.4934	0.541
13.5345	0.552
13.5756	0.564
13.6167	0.608
13.6578	0.654
13.6989	0.682
13.74	0.705
13.7811	0.711
13.8222	0.712
13.8633	0.717
13.9044	0.712
13.9455	0.711
13.9866	0.704
14.0277	0.699
14.0688	0.694
14.1099	0.688
14.151	0.685
14.1921	0.68
14.2332	0.675
14.2743	0.67
14.3154	0.663
14.3565	0.656
14.3976	0.647
14.4387	0.639
14.4798	0.63
14.5209	0.62
14.562	0.606
14.6031	0.6
14.6442	0.582
14.6853	0.57
14.7264	0.558
14.7675	0.55
14.8086	0.54
14.8497	0.528
14.8908	0.519
14.9319	0.511
14.973	0.505
15.0141	0.499
15.0552	0.485
15.0963	0.47
15.1374	0.456
15.1785	0.444
15.2196	0.427
15.2607	0.415
15.3018	0.401
15.3429	0.394
15.384	0.391
15.4251	0.391
15.4662	0.389
15.5073	0.384
15.5484	0.381
15.5895	0.379
15.6306	0.374
15.6717	0.374
15.7128	0.369
15.7539	0.367
15.795	0.365
15.8361	0.357
15.8772	0.355
