Infrared Spectrum: 1,3-CYCLOBUTANEDIOL, 2,2,4,4-TETRAMETHYL-, MONOPELARGONATE
Formula: C17 H32 O3
CAS: 116373-52-5
Class: COBLENTZ
Instrument: Not specified, most likely a prism, grating, or hybrid spectrometer.
Sampling: TRANSMISSION
Path length: SMEAR
Resolution: 4
Origin: TENNESSEE EASTMAN COMPANY, RESEARCH LABORATORIES
MICROMETERS	TRANSMITTANCE
2.041	0.964
2.08205	0.965
2.12311	0.967
2.16416	0.969
2.20521	0.97
2.24626	0.96
2.28732	0.94
2.32837	0.94
2.36942	0.943
2.41048	0.943
2.45153	0.947
2.49258	0.948
2.53364	0.952
2.57469	0.952
2.61574	0.952
2.65679	0.952
2.69785	0.952
2.7389	0.924
2.77995	0.733
2.82101	0.5
2.86206	0.409
2.90311	0.428
2.94416	0.569
2.98522	0.674
3.02627	0.766
3.06732	0.822
3.10838	0.858
3.14943	0.875
3.19048	0.901
3.23154	0.909
3.27259	0.904
3.31364	0.732
3.35469	0.126
3.39575	0.052
3.4368	0.215
3.47785	0.244
3.51891	0.747
3.55996	0.841
3.60101	0.877
3.64206	0.882
3.68312	0.88
3.72417	0.894
3.76522	0.899
3.80628	0.912
3.84733	0.919
3.88838	0.93
3.92944	0.936
3.97049	0.943
4.01154	0.947
4.05259	0.947
4.09365	0.948
4.1347	0.948
4.17575	0.948
4.21681	0.948
4.25786	0.948
4.29891	0.94
4.33996	0.94
4.38102	0.947
4.42207	0.95
4.46312	0.952
4.50418	0.952
4.54523	0.952
4.58628	0.952
4.62734	0.952
4.66839	0.95
4.70944	0.95
4.75049	0.95
4.79155	0.95
4.8326	0.95
4.87365	0.95
4.91471	0.95
4.95576	0.95
4.99681	0.957
5.03786	0.957
5.07892	0.955
5.11997	0.955
5.16102	0.955
5.20208	0.955
5.24313	0.955
5.28418	0.953
5.32524	0.953
5.36629	0.947
5.40734	0.938
5.44839	0.931
5.48945	0.923
5.5305	0.911
5.57155	0.878
5.61261	0.832
5.65366	0.744
5.69471	0.447
5.73576	0.064
5.77682	0.076
5.81787	0.095
5.85892	0.216
5.89998	0.602
5.94103	0.72
5.98208	0.791
6.02314	0.831
6.06419	0.836
6.10524	0.854
6.14629	0.87
6.18735	0.882
6.2284	0.894
6.26945	0.899
6.31051	0.906
6.35156	0.901
6.39261	0.892
6.43366	0.887
6.47472	0.873
6.51577	0.873
6.55682	0.861
6.59788	0.848
6.63893	0.843
6.67998	0.81
6.72104	0.742
6.76209	0.315
6.80314	0.249
6.84419	0.348
6.88525	0.462
6.9263	0.573
6.96735	0.624
7.00841	0.585
7.04946	0.634
7.09051	0.679
7.13156	0.674
7.17262	0.515
7.21367	0.281
7.25472	0.286
7.29578	0.358
7.33683	0.481
7.37788	0.583
7.41894	0.552
7.45999	0.542
7.50104	0.532
7.54209	0.484
7.58315	0.445
7.6242	0.433
7.66525	0.428
7.70631	0.431
7.74736	0.397
7.78841	0.378
7.82946	0.37
7.87052	0.36
7.91157	0.302
7.95262	0.247
7.99368	0.255
8.03473	0.29
8.07578	0.327
8.11684	0.331
8.15789	0.298
8.19894	0.283
8.23999	0.266
8.28105	0.244
8.3221	0.203
8.36315	0.182
8.40421	0.168
8.44526	0.156
8.48631	0.138
8.52736	0.116
8.56842	0.124
8.60947	0.186
8.65052	0.322
8.69158	0.481
8.73263	0.588
8.77368	0.607
8.81474	0.563
8.85579	0.457
8.89684	0.329
8.93789	0.252
8.97895	0.209
9.02	0.175
9.06105	0.189
9.10211	0.305
9.14316	0.406
9.18421	0.491
9.22526	0.552
9.26632	0.552
9.30737	0.515
9.34842	0.479
9.38948	0.435
9.43053	0.366
9.47158	0.322
9.51264	0.288
9.55369	0.261
9.59474	0.252
9.63579	0.245
9.67685	0.245
9.7179	0.303
9.75895	0.372
9.80001	0.423
9.84106	0.402
9.88211	0.375
9.92316	0.339
9.96422	0.329
10.0053	0.377
10.0463	0.431
10.0874	0.523
10.1284	0.578
10.1695	0.588
10.2105	0.595
10.2516	0.616
10.2926	0.667
10.3337	0.716
10.3747	0.755
10.4158	0.762
10.4569	0.747
10.4979	0.732
10.539	0.771
10.58	0.793
10.6211	0.805
10.6621	0.81
10.7032	0.812
10.7442	0.812
10.7853	0.812
10.8263	0.81
10.8674	0.812
10.9084	0.815
10.9495	0.819
10.9905	0.825
11.0316	0.829
11.0726	0.839
11.1137	0.848
11.1548	0.849
11.1958	0.849
11.2369	0.851
11.2779	0.851
11.319	0.848
11.36	0.839
11.4011	0.825
11.4421	0.817
11.4832	0.802
11.5242	0.8
11.5653	0.8
11.6063	0.815
11.6474	0.836
11.6884	0.846
11.7295	0.853
11.7705	0.856
11.8116	0.856
11.8527	0.858
11.8937	0.861
11.9348	0.863
11.9758	0.865
12.0169	0.865
12.0579	0.863
12.099	0.86
12.14	0.854
12.1811	0.851
12.2221	0.849
12.2632	0.846
12.3042	0.844
12.3453	0.843
12.3863	0.839
12.4274	0.836
12.4684	0.834
12.5095	0.836
12.5506	0.836
12.5916	0.837
12.6327	0.836
12.6737	0.827
12.7148	0.813
12.7558	0.802
12.7969	0.781
12.8379	0.766
12.879	0.759
12.92	0.757
12.9611	0.767
13.0021	0.791
13.0432	0.802
13.0842	0.81
13.1253	0.813
13.1663	0.815
13.2074	0.81
13.2485	0.803
13.2895	0.802
13.3306	0.8
13.3716	0.8
13.4127	0.788
13.4537	0.784
13.4948	0.781
13.5358	0.776
13.5769	0.773
13.6179	0.762
13.659	0.747
13.7	0.721
13.7411	0.701
13.7821	0.692
13.8232	0.697
13.8642	0.715
13.9053	0.726
13.9464	0.732
13.9874	0.737
14.0285	0.74
14.0695	0.74
14.1106	0.74
14.1516	0.74
14.1927	0.74
14.2337	0.738
14.2748	0.737
14.3158	0.735
14.3569	0.73
14.3979	0.726
14.439	0.721
14.48	0.716
14.5211	0.711
14.5621	0.706
14.6032	0.701
14.6443	0.696
14.6853	0.691
14.7264	0.684
14.7674	0.675
14.8085	0.668
14.8495	0.66
14.8906	0.65
14.9316	0.641
14.9727	0.636
15.0137	0.626
15.0548	0.616
15.0958	0.61
15.1369	0.602
15.1779	0.598
15.219	0.593
15.26	0.588
15.3011	0.583
15.3422	0.578
15.3832	0.575
15.4243	0.566
15.4653	0.564
15.5064	0.559
15.5474	0.552
15.5885	0.554
15.6295	0.552
15.6706	0.551
15.7116	0.551
15.7527	0.549
15.7937	0.551
15.8348	0.547
15.8758	0.547
15.9169	0.551
15.9579	0.549
15.999	0.549
