Infrared Spectrum: 2-DIMETHYLAMINO-4-PHENYL-2,6-XYLENOL
Formula: C16 H19 N O
CAS: 116346-08-8
State: SOLUTION (10% CCl4 FOR 5000-1330, 10% CS2 FOR 1330-625 CM^-^1)
Class: COBLENTZ
Instrument: Not specified, most likely a prism, grating, or hybrid spectrometer.
Sampling: TRANSMISSION
Path length: 0.0130 CM, 0.0127 CM
Resolution: 4
Origin: DOW CHEMICAL COMPANY
MICROMETERS	TRANSMITTANCE
2.034	0.906
2.07504	0.899
2.11607	0.894
2.15711	0.897
2.19815	0.894
2.23918	0.883
2.28022	0.88
2.32126	0.882
2.36229	0.88
2.40333	0.88
2.44437	0.88
2.4854	0.889
2.52644	0.889
2.56748	0.892
2.60851	0.894
2.64955	0.894
2.69059	0.889
2.73162	0.878
2.77266	0.878
2.81369	0.868
2.85473	0.863
2.89577	0.849
2.9368	0.819
2.97784	0.774
3.01888	0.72
3.05991	0.668
3.10095	0.612
3.14199	0.566
3.18302	0.52
3.22406	0.435
3.2651	0.36
3.30613	0.331
3.34717	0.312
3.38821	0.3
3.42924	0.339
3.47028	0.271
3.51132	0.226
3.55235	0.221
3.59339	0.261
3.63443	0.435
3.67546	0.464
3.7165	0.501
3.75754	0.532
3.79857	0.534
3.83961	0.585
3.88065	0.624
3.92168	0.655
3.96272	0.67
4.00376	0.711
4.04479	0.74
4.08583	0.744
4.12687	0.737
4.1679	0.773
4.20894	0.769
4.24998	0.779
4.29101	0.791
4.33205	0.795
4.37308	0.796
4.41412	0.808
4.45516	0.817
4.49619	0.822
4.53723	0.827
4.57827	0.831
4.6193	0.834
4.66034	0.841
4.70138	0.849
4.74241	0.851
4.78345	0.848
4.82449	0.844
4.86552	0.848
4.90656	0.843
4.9476	0.836
4.98863	0.843
5.02967	0.844
5.07071	0.853
5.11174	0.82
5.15278	0.82
5.19382	0.853
5.23485	0.853
5.27589	0.796
5.31693	0.788
5.35796	0.822
5.399	0.827
5.44004	0.839
5.48107	0.832
5.52211	0.819
5.56315	0.812
5.60418	0.827
5.64522	0.81
5.68626	0.813
5.72729	0.815
5.76833	0.817
5.80937	0.831
5.8504	0.827
5.89144	0.82
5.93247	0.813
5.97351	0.802
6.01455	0.786
6.05558	0.783
6.09662	0.774
6.13766	0.636
6.17869	0.354
6.21973	0.237
6.26077	0.221
6.3018	0.411
6.34284	0.455
6.38388	0.445
6.42491	0.395
6.46595	0.372
6.50699	0.423
6.54802	0.459
6.58906	0.356
6.6301	0.191
6.67113	0.242
6.71217	0.175
6.75321	0.018
6.79424	0.08
6.83528	0.126
6.87632	0.348
6.91735	0.464
6.95839	0.6
6.99943	0.581
7.04046	0.532
7.0815	0.575
7.12254	0.517
7.16357	0.423
7.20461	0.453
7.24565	0.546
7.28668	0.621
7.32772	0.633
7.36876	0.501
7.40979	0.535
7.45083	0.75
7.49186	0.759
7.5329	0.73
7.57394	0.656
7.61497	0.54
7.65601	0.378
7.69705	0.436
7.73808	0.462
7.77912	0.426
7.82016	0.211
7.86119	0.056
7.90223	0.039
7.94327	0.049
7.9843	0.098
8.02534	0.242
8.06638	0.245
8.10741	0.401
8.14845	0.564
8.18949	0.656
8.23052	0.708
8.27156	0.721
8.3126	0.72
8.35363	0.701
8.39467	0.651
8.43571	0.527
8.47674	0.348
8.51778	0.489
8.55882	0.551
8.59985	0.576
8.64089	0.634
8.68193	0.639
8.72296	0.701
8.764	0.75
8.80504	0.755
8.84607	0.75
8.88711	0.694
8.92815	0.576
8.96918	0.459
9.01022	0.6
9.05125	0.689
9.09229	0.633
9.13333	0.571
9.17436	0.706
9.2154	0.755
9.25644	0.754
9.29747	0.699
9.33851	0.656
9.37955	0.708
9.42058	0.749
9.46162	0.749
9.50266	0.715
9.54369	0.616
9.58473	0.459
9.62577	0.409
9.6668	0.522
9.70784	0.465
9.74888	0.312
9.78991	0.349
9.83095	0.242
9.87199	0.255
9.91302	0.506
9.95406	0.651
9.9951	0.672
10.0361	0.696
10.0772	0.738
10.1182	0.742
10.1592	0.74
10.2003	0.709
10.2413	0.619
10.2824	0.435
10.3234	0.5
10.3644	0.675
10.4055	0.726
10.4465	0.75
10.4875	0.757
10.5286	0.759
10.5696	0.752
10.6106	0.72
10.6517	0.721
10.6927	0.745
10.7338	0.749
10.7748	0.747
10.8158	0.742
10.8569	0.735
10.8979	0.723
10.9389	0.696
10.98	0.662
11.021	0.638
11.062	0.602
11.1031	0.554
11.1441	0.561
11.1852	0.564
11.2262	0.409
11.2672	0.242
11.3083	0.242
11.3493	0.453
11.3903	0.546
11.4314	0.573
11.4724	0.578
11.5134	0.575
11.5545	0.568
11.5955	0.551
11.6366	0.539
11.6776	0.52
11.7186	0.496
11.7597	0.469
11.8007	0.416
11.8417	0.307
11.8828	0.232
11.9238	0.252
11.9649	0.341
12.0059	0.382
12.0469	0.353
12.088	0.237
12.129	0.117
12.17	0.092
12.2111	0.197
12.2521	0.322
12.2931	0.406
12.3342	0.459
12.3752	0.489
12.4163	0.517
12.4573	0.534
12.4983	0.549
12.5394	0.551
12.5804	0.556
12.6214	0.564
12.6625	0.578
12.7035	0.59
12.7445	0.598
12.7856	0.598
12.8266	0.585
12.8677	0.546
12.9087	0.452
12.9497	0.317
12.9908	0.203
13.0318	0.179
13.0728	0.199
13.1139	0.143
13.1549	0.042
13.1959	0.01
13.237	0.127
13.278	0.36
13.3191	0.498
13.3601	0.563
13.4011	0.605
13.4422	0.629
13.4832	0.641
13.5242	0.65
13.5653	0.639
13.6063	0.6
13.6474	0.559
13.6884	0.532
13.7294	0.535
13.7705	0.588
13.8115	0.631
13.8525	0.643
13.8936	0.641
13.9346	0.612
13.9756	0.569
14.0167	0.551
14.0577	0.549
14.0988	0.554
14.1398	0.542
14.1808	0.474
14.2219	0.389
14.2629	0.279
14.3039	0.168
14.345	0.087
14.386	0.061
14.427	0.121
14.4681	0.252
14.5091	0.387
14.5502	0.476
14.5912	0.517
14.6322	0.546
14.6733	0.558
14.7143	0.563
14.7553	0.566
14.7964	0.564
14.8374	0.558
14.8784	0.546
14.9195	0.537
14.9605	0.529
15.0016	0.525
15.0426	0.522
15.0836	0.515
15.1247	0.508
15.1657	0.491
15.2067	0.467
15.2478	0.44
15.2888	0.404
15.3299	0.378
15.3709	0.36
15.4119	0.36
15.453	0.382
15.494	0.402
15.535	0.419
15.5761	0.433
15.6171	0.436
15.6581	0.436
15.6992	0.436
15.7402	0.436
15.7813	0.436
15.8223	0.431
15.8633	0.426
15.9044	0.424
15.9454	0.428
