Infrared Spectrum: 2-BENZOFURANYLETHYLENE GLYCOL
Formula: C10 H10 O3
CAS: 116346-32-8
State: SOLUTION (3% CHCl3)
Class: COBLENTZ
Instrument: Not specified, most likely a grating spectrometer.
Sampling: TRANSMISSION
Path length: 0.030 CM
Resolution: 4
Origin: ABBOTT LABORATORIES
MICROMETERS	TRANSMITTANCE
2.021	0.901
2.05662	0.894
2.09223	0.892
2.12785	0.892
2.16347	0.892
2.19909	0.892
2.2347	0.901
2.27032	0.898
2.30594	0.892
2.34155	0.889
2.37717	0.892
2.41279	0.891
2.44841	0.887
2.48402	0.887
2.51964	0.875
2.55526	0.87
2.59087	0.875
2.62649	0.878
2.66211	0.882
2.69772	0.873
2.73334	0.852
2.76896	0.74
2.80458	0.417
2.84019	0.449
2.87581	0.435
2.91143	0.359
2.94704	0.315
2.98266	0.335
3.01828	0.385
3.0539	0.447
3.08951	0.552
3.12513	0.608
3.16075	0.671
3.19636	0.715
3.23198	0.733
3.2676	0.71
3.30322	0.696
3.33883	0.701
3.37445	0.694
3.41007	0.598
3.44568	0.629
3.4813	0.621
3.51692	0.719
3.55254	0.787
3.58815	0.808
3.62377	0.819
3.65939	0.835
3.695	0.842
3.73062	0.842
3.76624	0.85
3.80186	0.85
3.83747	0.849
3.87309	0.849
3.90871	0.85
3.94432	0.857
3.97994	0.859
4.01556	0.852
4.05117	0.835
4.08679	0.842
4.12241	0.847
4.15803	0.847
4.19364	0.854
4.22926	0.861
4.26488	0.871
4.30049	0.87
4.33611	0.873
4.37173	0.873
4.40735	0.875
4.44296	0.87
4.47858	0.875
4.5142	0.875
4.54981	0.878
4.58543	0.882
4.62105	0.877
4.65667	0.875
4.69228	0.87
4.7279	0.871
4.76352	0.873
4.79913	0.873
4.83475	0.871
4.87037	0.868
4.90599	0.868
4.9416	0.877
4.97722	0.88
5.01284	0.885
5.04845	0.88
5.08407	0.877
5.11969	0.871
5.1553	0.857
5.19092	0.842
5.22654	0.863
5.26216	0.85
5.29777	0.836
5.33339	0.864
5.36901	0.866
5.40462	0.863
5.44024	0.875
5.47586	0.871
5.51148	0.859
5.54709	0.873
5.58271	0.868
5.61833	0.826
5.65394	0.845
5.68956	0.868
5.72518	0.871
5.7608	0.871
5.79641	0.864
5.83203	0.857
5.86765	0.856
5.90326	0.856
5.93888	0.849
5.9745	0.829
6.01012	0.821
6.04573	0.842
6.08135	0.833
6.11697	0.815
6.15258	0.791
6.1882	0.742
6.22382	0.685
6.25943	0.663
6.29505	0.685
6.33067	0.701
6.36629	0.803
6.4019	0.821
6.43752	0.826
6.47314	0.836
6.50875	0.847
6.54437	0.843
6.57999	0.824
6.61561	0.789
6.65122	0.782
6.68684	0.794
6.72246	0.785
6.75807	0.759
6.79369	0.689
6.82931	0.612
6.86493	0.51
6.90054	0.17
6.93616	0.468
6.97178	0.614
7.00739	0.626
7.04301	0.591
7.07863	0.571
7.11425	0.536
7.14986	0.498
7.18548	0.471
7.2211	0.447
7.25671	0.436
7.29233	0.45
7.32795	0.47
7.36357	0.501
7.39918	0.51
7.4348	0.5
7.47042	0.514
7.50603	0.54
7.54165	0.538
7.57727	0.543
7.61288	0.545
7.6485	0.529
7.68412	0.491
7.71974	0.431
7.75535	0.542
7.79097	0.568
7.82659	0.528
7.8622	0.505
7.89782	0.505
7.93344	0.482
7.96906	0.38
8.00467	0.252
8.04029	0.198
8.07591	0.235
8.11152	0.264
8.14714	0.289
8.18276	0.315
8.21838	0.329
8.25399	0.343
8.28961	0.343
8.32523	0.354
8.36084	0.368
8.39646	0.385
8.43208	0.428
8.4677	0.433
8.50331	0.403
8.53893	0.331
8.57455	0.296
8.61016	0.368
8.64578	0.547
8.6814	0.575
8.71701	0.505
8.75263	0.535
8.78825	0.535
8.82387	0.494
8.85948	0.421
8.8951	0.38
8.93072	0.554
8.96633	0.577
9.00195	0.521
9.03757	0.438
9.07319	0.328
9.1088	0.315
9.14442	0.247
9.18004	0.198
9.21565	0.178
9.25127	0.175
9.28689	0.184
9.32251	0.198
9.35812	0.208
9.39374	0.219
9.42936	0.224
9.46497	0.228
9.50059	0.222
9.53621	0.21
9.57183	0.198
9.60744	0.192
9.64306	0.198
9.67868	0.185
9.71429	0.201
9.74991	0.233
9.78553	0.284
9.82114	0.336
9.85676	0.396
9.89238	0.401
9.928	0.366
9.96361	0.421
9.99923	0.514
10.0348	0.571
10.0705	0.587
10.1061	0.582
10.1417	0.577
10.1773	0.58
10.2129	0.58
10.2486	0.587
10.2842	0.6
10.3198	0.603
10.3554	0.517
10.391	0.428
10.4266	0.41
10.4623	0.526
10.4979	0.58
10.5335	0.51
10.5691	0.44
10.6047	0.449
10.6403	0.522
10.676	0.561
10.7116	0.587
10.7472	0.591
10.7828	0.6
10.8184	0.652
10.854	0.707
10.8897	0.766
10.9253	0.78
10.9609	0.785
10.9965	0.792
11.0321	0.791
11.0677	0.771
11.1034	0.757
11.139	0.735
11.1746	0.698
11.2102	0.605
11.2458	0.528
11.2814	0.473
11.3171	0.431
11.3527	0.4
11.3883	0.363
11.4239	0.317
11.4595	0.307
11.4951	0.394
11.5308	0.55
11.5664	0.64
11.602	0.678
11.6376	0.696
11.6732	0.707
11.7089	0.708
11.7445	0.701
11.7801	0.708
11.8157	0.719
11.8513	0.721
11.8869	0.698
11.9226	0.65
11.9582	0.594
11.9938	0.533
12.0294	0.501
12.065	0.468
12.1006	0.454
12.1363	0.471
12.1719	0.477
12.2075	0.473
12.2431	0.456
12.2787	0.447
12.3143	0.438
12.35	0.436
12.3856	0.459
12.4212	0.471
12.4568	0.484
12.4924	0.503
12.528	0.515
12.5637	0.522
12.5993	0.533
12.6349	0.547
12.6705	0.554
12.7061	0.568
12.7417	0.58
12.7774	0.598
12.813	0.607
12.8486	0.622
12.8842	0.635
12.9198	0.643
12.9554	0.657
12.9911	0.673
13.0267	0.678
13.0623	0.68
13.0979	0.685
13.1335	0.689
13.1692	0.694
13.2048	0.701
13.2404	0.721
13.276	0.731
13.3116	0.74
13.3472	0.743
13.3829	0.752
13.4185	0.757
13.4541	0.761
13.4897	0.763
13.5253	0.771
13.5609	0.78
13.5966	0.78
13.6322	0.784
13.6678	0.807
13.7034	0.821
13.739	0.828
13.7746	0.845
13.8103	0.859
13.8459	0.871
13.8815	0.878
13.9171	0.885
13.9527	0.894
13.9883	0.91
14.024	0.922
14.0596	0.933
14.0952	0.931
14.1308	0.931
14.1664	0.931
14.202	0.938
14.2377	0.931
14.2733	0.928
14.3089	0.931
14.3445	0.929
14.3801	0.933
14.4158	0.922
14.4514	0.908
14.487	0.903
14.5226	0.896
14.5582	0.887
14.5938	0.889
14.6295	0.891
14.6651	0.889
14.7007	0.898
14.7363	0.891
14.7719	0.9
14.8075	0.908
14.8432	0.91
14.8788	0.905
14.9144	0.907
14.95	0.907
14.9856	0.901
15.0212	0.884
15.0569	0.892
15.0925	0.88
15.1281	0.849
15.1637	0.777
15.1993	0.745
15.2349	0.703
15.2706	0.677
15.3062	0.668
15.3418	0.659
15.3774	0.649
15.413	0.643
