Infrared Spectrum: KETONE, 5-ACETAMIDO-4-NITRO-2-THIENYL ISOBUTYL
Formula: C10 H12 N2 O4 S
CAS: 116373-99-0
State: SOLID (PELLET)
Class: COBLENTZ
Instrument: Not specified, most likely a prism, grating, or hybrid spectrometer.
Sampling: TRANSMISSION
Resolution: 4
Origin: TENNESSEE EASTMAN COMPANY, RESEARCH LABORATORIES
MICROMETERS	TRANSMITTANCE
2.007	0.793
2.04704	0.788
2.08708	0.788
2.12712	0.79
2.16716	0.792
2.2072	0.793
2.24724	0.797
2.28728	0.798
2.32731	0.8
2.36735	0.802
2.40739	0.804
2.44743	0.804
2.48747	0.804
2.52751	0.804
2.56755	0.804
2.60759	0.804
2.64763	0.804
2.68767	0.802
2.72771	0.792
2.76775	0.747
2.80779	0.693
2.84783	0.646
2.88787	0.604
2.92791	0.592
2.96794	0.613
3.00798	0.628
3.04802	0.479
3.08806	0.584
3.1281	0.726
3.16814	0.775
3.20818	0.8
3.24822	0.752
3.28826	0.785
3.3283	0.793
3.36834	0.683
3.40838	0.728
3.44842	0.775
3.48846	0.8
3.5285	0.829
3.56853	0.835
3.60857	0.84
3.64861	0.84
3.68865	0.842
3.72869	0.847
3.76873	0.855
3.80877	0.862
3.84881	0.864
3.88885	0.867
3.92889	0.865
3.96893	0.865
4.00897	0.865
4.04901	0.865
4.08905	0.871
4.12909	0.872
4.16913	0.872
4.20916	0.872
4.2492	0.867
4.28924	0.822
4.32928	0.809
4.36932	0.857
4.40936	0.872
4.4494	0.884
4.48944	0.892
4.52948	0.894
4.56952	0.894
4.60956	0.897
4.6496	0.897
4.68964	0.897
4.72968	0.899
4.76972	0.901
4.80975	0.904
4.84979	0.904
4.88983	0.904
4.92987	0.909
4.96991	0.914
5.00995	0.919
5.04999	0.921
5.09003	0.916
5.13007	0.914
5.17011	0.917
5.21015	0.919
5.25019	0.921
5.29023	0.921
5.33027	0.919
5.37031	0.914
5.41034	0.914
5.45038	0.914
5.49042	0.914
5.53046	0.914
5.5705	0.906
5.61054	0.902
5.65058	0.887
5.69062	0.869
5.73066	0.842
5.7707	0.797
5.81074	0.566
5.85078	0.328
5.89082	0.636
5.93086	0.745
5.9709	0.726
6.01094	0.522
6.05097	0.164
6.09101	0.44
6.13105	0.758
6.17109	0.79
6.21113	0.793
6.25117	0.822
6.29121	0.837
6.33125	0.829
6.37129	0.778
6.41133	0.599
6.45137	0.159
6.49141	0.306
6.53145	0.276
6.57149	0.073
6.61153	0.033
6.65156	0.038
6.6916	0.303
6.73164	0.592
6.77168	0.599
6.81172	0.663
6.85176	0.695
6.8918	0.628
6.93184	0.552
6.97188	0.396
7.01192	0.221
7.05196	0.135
7.092	0.219
7.13204	0.321
7.17208	0.358
7.21212	0.261
7.25216	0.207
7.29219	0.343
7.33223	0.402
7.37227	0.375
7.41231	0.368
7.45235	0.556
7.49239	0.592
7.53243	0.212
7.57247	0.254
7.61251	0.569
7.65255	0.663
7.69259	0.688
7.73263	0.691
7.77267	0.683
7.81271	0.626
7.85275	0.561
7.89278	0.522
7.93282	0.308
7.97286	0.252
8.0129	0.527
8.05294	0.592
8.09298	0.604
8.13302	0.428
8.17306	0.194
8.2131	0.331
8.25314	0.293
8.29318	0.144
8.33322	0.164
8.37326	0.396
8.4133	0.554
8.45334	0.51
8.49338	0.487
8.53341	0.654
8.57345	0.731
8.61349	0.735
8.65353	0.512
8.69357	0.249
8.73361	0.396
8.77365	0.654
8.81369	0.77
8.85373	0.819
8.89377	0.84
8.93381	0.85
8.97385	0.855
9.01389	0.857
9.05393	0.819
9.09397	0.726
9.134	0.748
9.17404	0.768
9.21408	0.84
9.25412	0.871
9.29416	0.886
9.3342	0.889
9.37424	0.894
9.41428	0.896
9.45432	0.896
9.49436	0.896
9.5344	0.882
9.57444	0.85
9.61448	0.844
9.65452	0.849
9.69456	0.859
9.73459	0.847
9.77463	0.752
9.81467	0.664
9.85471	0.785
9.89475	0.86
9.93479	0.886
9.97483	0.891
10.0149	0.887
10.0549	0.857
10.0949	0.798
10.135	0.703
10.175	0.646
10.2151	0.737
10.2551	0.822
10.2951	0.855
10.3352	0.864
10.3752	0.876
10.4153	0.896
10.4553	0.911
10.4953	0.917
10.5354	0.919
10.5754	0.917
10.6155	0.909
10.6555	0.871
10.6955	0.819
10.7356	0.834
10.7756	0.852
10.8157	0.857
10.8557	0.876
10.8957	0.896
10.9358	0.834
10.9758	0.762
11.0159	0.845
11.0559	0.904
11.0959	0.929
11.136	0.932
11.176	0.934
11.2161	0.927
11.2561	0.912
11.2961	0.867
11.3362	0.815
11.3762	0.788
11.4162	0.782
11.4563	0.85
11.4963	0.891
11.5364	0.911
11.5764	0.919
11.6164	0.924
11.6565	0.926
11.6965	0.929
11.7366	0.932
11.7766	0.921
11.8166	0.855
11.8567	0.827
11.8967	0.871
11.9368	0.912
11.9768	0.931
12.0168	0.938
12.0569	0.941
12.0969	0.943
12.137	0.943
12.177	0.946
12.217	0.948
12.2571	0.946
12.2971	0.946
12.3372	0.944
12.3772	0.944
12.4172	0.944
12.4573	0.944
12.4973	0.944
12.5373	0.944
12.5774	0.946
12.6174	0.944
12.6575	0.941
12.6975	0.934
12.7375	0.927
12.7776	0.914
12.8176	0.871
12.8577	0.773
12.8977	0.643
12.9377	0.716
12.9778	0.82
13.0178	0.829
13.0579	0.711
13.0979	0.706
13.1379	0.819
13.178	0.844
13.218	0.842
13.2581	0.787
13.2981	0.73
13.3381	0.693
13.3782	0.683
13.4182	0.715
13.4583	0.76
13.4983	0.804
13.5383	0.839
13.5784	0.854
13.6184	0.857
13.6585	0.857
13.6985	0.857
13.7385	0.862
13.7786	0.864
13.8186	0.865
13.8586	0.865
13.8987	0.865
13.9387	0.862
13.9788	0.854
14.0188	0.845
14.0588	0.829
14.0989	0.819
14.1389	0.798
14.179	0.782
14.219	0.762
14.259	0.75
14.2991	0.737
14.3391	0.735
14.3792	0.735
14.4192	0.733
14.4592	0.731
14.4993	0.73
14.5393	0.725
14.5794	0.716
14.6194	0.703
14.6594	0.691
14.6995	0.67
14.7395	0.651
14.7796	0.633
14.8196	0.623
14.8596	0.619
14.8997	0.604
14.9397	0.586
14.9798	0.577
15.0198	0.577
15.0598	0.599
15.0999	0.604
15.1399	0.601
15.1799	0.592
15.22	0.581
15.26	0.569
15.3001	0.562
15.3401	0.551
15.3801	0.544
15.4202	0.536
15.4602	0.529
15.5003	0.519
15.5403	0.507
15.5803	0.5
15.6204	0.49
15.6604	0.484
15.7005	0.477
15.7405	0.469
15.7805	0.467
15.8206	0.462
15.8606	0.458
15.9007	0.45
15.9407	0.447
15.9807	0.448
