Infrared Spectrum: Cyclopropanecarbamic acid, N-phenethyl-, ethyl ester
Formula: C14 H19 N O2
CAS: 116373-13-8
State: LIQUID
Class: COBLENTZ III
Instrument: PERKIN-ELMER 21 (GRATING)
Instrument parameters: FILTER AT ABOUT 10 MICRONS
Path length: CAPILLARY
Resolution: 2
Origin: ABBOTT LABORATORIES
1/CM	TRANSMITTANCE
667	0.7803
676	0.7802
685	0.7818
694	0.5244
703	0.5165
712	0.7971
721	0.805
730	0.7584
739	0.6131
748	0.5339
757	0.7094
766	0.6379
775	0.5737
784	0.766
793	0.8561
802	0.8617
811	0.8461
820	0.8143
829	0.77
838	0.8163
847	0.8764
856	0.8856
865	0.8802
874	0.8536
883	0.8785
892	0.8509
901	0.8214
910	0.8251
919	0.855
928	0.8544
937	0.8643
946	0.8605
955	0.865
964	0.8774
973	0.8726
982	0.8276
991	0.8193
1000	0.8133
1009	0.7696
1018	0.5869
1027	0.469
1036	0.594
1045	0.6634
1054	0.5637
1063	0.4835
1072	0.7084
1081	0.6891
1090	0.6591
1099	0.6909
1108	0.6839
1117	0.5737
1126	0.3973
1135	0.4882
1144	0.6152
1153	0.6174
1162	0.5533
1171	0.4458
1180	0.326
1189	0.4626
1198	0.4998
1207	0.5498
1216	0.6955
1225	0.6378
1234	0.534
1243	0.5434
1252	0.5484
1261	0.5291
1270	0.4741
1279	0.3535
1288	0.2586
1297	0.267
1306	0.4322
1315	0.5402
1324	0.5807
1333	0.5974
1342	0.5843
1351	0.5071
1360	0.5275
1369	0.466
1378	0.2629
1387	0.4556
1396	0.4143
1405	0.2366
1414	0.2554
1423	0.4729
1432	0.5523
1441	0.4637
1450	0.369
1459	0.4675
1468	0.5909
1477	0.6195
1486	0.6724
1495	0.603
1504	0.8104
1513	0.8229
1522	0.8234
1531	0.8214
1540	0.818
1549	0.8265
1558	0.8419
1567	0.8487
1576	0.837
1585	0.8297
1594	0.8126
1603	0.7514
1612	0.8363
1621	0.8374
1630	0.8288
1639	0.8146
1648	0.7765
1657	0.7392
1666	0.6986
1675	0.6462
1684	0.4869
1693	0.1184
1702	0.0848
1711	0.0868
1720	0.2391
1729	0.5486
1738	0.7379
1747	0.7834
1756	0.8146
1765	0.833
1774	0.8372
1783	0.8452
1792	0.8604
1801	0.8622
1810	0.8618
1819	0.8656
1828	0.8707
1837	0.8786
1846	0.8849
1855	0.8868
1864	0.886
1873	0.8847
1882	0.8854
1891	0.8895
1900	0.8907
1909	0.8899
1918	0.8887
1927	0.8868
1936	0.8848
1945	0.8825
1954	0.8828
1963	0.8872
1972	0.8904
1981	0.8891
1990	0.8882
1999	0.8891
2008	0.8964
2017	0.8975
2026	0.8976
2035	0.8975
2044	0.8966
2053	0.8965
2062	0.8969
2071	0.8977
2080	0.8993
2089	0.9012
2098	0.9028
2107	0.9035
2116	0.9042
2125	0.9039
2134	0.9035
2143	0.9031
2152	0.9027
2161	0.9029
2170	0.9031
2179	0.9033
2188	0.9035
2197	0.9038
2206	0.904
2215	0.9044
2224	0.9046
2233	0.9049
2242	0.905
2251	0.9051
2260	0.9051
2269	0.9052
2278	0.9052
2287	0.9054
2296	0.9057
2305	0.906
2314	0.9062
2323	0.9065
2332	0.9058
2341	0.9051
2350	0.9044
2359	0.9038
2368	0.9032
2377	0.9027
2386	0.9022
2395	0.9017
2404	0.9013
2413	0.9012
2422	0.9013
2431	0.9013
2440	0.9013
2449	0.9014
2458	0.9014
2467	0.9012
2476	0.9008
2485	0.9006
2494	0.9002
2503	0.8998
2512	0.8996
2521	0.8994
2530	0.8993
2539	0.8991
2548	0.899
2557	0.8983
2566	0.8977
2575	0.897
2584	0.8962
2593	0.895
2602	0.8938
2611	0.895
2620	0.8973
2629	0.899
2638	0.899
2647	0.8985
2656	0.8973
2665	0.8963
2674	0.8953
2683	0.8945
2692	0.8935
2701	0.8925
2710	0.8914
2719	0.8898
2728	0.8882
2737	0.8867
2746	0.8853
2755	0.8841
2764	0.8827
2773	0.8804
2782	0.878
2791	0.8743
2800	0.8688
2809	0.8634
2818	0.8591
2827	0.8541
2836	0.8491
2845	0.8339
2854	0.7901
2863	0.7701
2872	0.7668
2881	0.7634
2890	0.7554
2899	0.7332
2908	0.7046
2917	0.6808
2926	0.6461
2935	0.6142
2944	0.6033
2953	0.6009
2962	0.5992
2971	0.5799
2980	0.5536
2989	0.5502
2998	0.594
3007	0.6369
3016	0.6405
3025	0.6422
3034	0.6858
3043	0.7439
3052	0.7625
3061	0.7696
3070	0.7738
3079	0.7775
3088	0.7805
3097	0.783
3106	0.787
3115	0.8408
3124	0.8838
3133	0.891
3142	0.8948
3151	0.8969
3160	0.8989
3169	0.9009
3178	0.9023
3187	0.9036
3196	0.9049
3205	0.9056
3214	0.906
3223	0.9063
3232	0.9067
3241	0.907
3250	0.9069
3259	0.9069
3268	0.9067
3277	0.906
3286	0.9051
3295	0.9041
3304	0.9025
3313	0.9008
3322	0.8991
3331	0.8971
3340	0.8953
3349	0.8936
3358	0.8923
3367	0.8923
3376	0.8923
3385	0.8923
3394	0.8928
3403	0.8935
3412	0.8942
3421	0.8951
3430	0.896
3439	0.897
3448	0.8978
3457	0.8988
3466	0.8995
3475	0.9
3484	0.9005
3493	0.9009
3502	0.9014
3511	0.9019
3520	0.9024
3529	0.9028
3538	0.9032
3547	0.9037
3556	0.9041
3565	0.9045
3574	0.905
3583	0.9053
3592	0.9058
3601	0.9061
3610	0.9063
3619	0.9065
3628	0.9067
3637	0.9069
3646	0.9071
3655	0.9074
3664	0.9075
3673	0.9077
3682	0.9077
3691	0.9077
3700	0.9078
3709	0.9078
3718	0.9078
3727	0.9078
3736	0.9077
3745	0.9075
3754	0.9074
3763	0.9073
3772	0.9071
3781	0.9071
3790	0.9069
3799	0.9068
3808	0.9066
3817	0.9064
3826	0.9063
3835	0.906
3844	0.9059
3853	0.9057
3862	0.9054
3871	0.9051
3880	0.9049
3889	0.9046
3898	0.9043
3907	0.904
3916	0.9038
3925	0.9035
3934	0.9032
3943	0.903
3952	0.9028
3961	0.9025
3970	0.9022
3979	0.902
3988	0.9017
3997	0.9015
