Infrared Spectrum: IMIDAZOLE-4(OR 5)-CARBOXAMIDE, N-BENZYL-5(OR 4)-(BENZYLAMINO)-
Formula: C18 H18 N4 O
CAS: 116373-95-6
State: SOLID (1 mg / 650 mg KBr DISC)
Class: COBLENTZ III
Instrument: PERKIN-ELMER 521 (GRATING)
Instrument parameters: FILTERS AT 3150, 2500, 2000, 1150, 700, 410 CM ^-^1, GRATING CHANGES AT 2000, 630 CM^-^1
Sampling: TRANSMISSION
Resolution: 4
Origin: SOUTHERN RES. INSTITUTE
1/CM	TRANSMITTANCE
257.192	0.258
266.355	0.336
275.517	0.412
284.68	0.465
293.842	0.518
303.005	0.573
312.167	0.618
321.33	0.652
330.493	0.681
339.655	0.712
348.818	0.726
357.98	0.74
367.143	0.768
376.305	0.8
385.468	0.813
394.631	0.833
403.793	0.85
412.956	0.847
422.118	0.837
431.281	0.767
440.443	0.75
449.606	0.829
458.768	0.848
467.931	0.848
477.094	0.826
486.256	0.784
495.419	0.823
504.581	0.862
513.744	0.861
522.906	0.843
532.069	0.809
541.232	0.767
550.394	0.829
559.557	0.834
568.719	0.803
577.882	0.787
587.044	0.75
596.207	0.787
605.37	0.791
614.532	0.616
623.695	0.79
632.857	0.796
642.02	0.816
651.182	0.84
660.345	0.862
669.508	0.868
678.67	0.804
687.833	0.658
696.995	0.571
706.158	0.7
715.32	0.849
724.483	0.777
733.645	0.675
742.808	0.621
751.971	0.761
761.133	0.712
770.296	0.859
779.458	0.853
788.621	0.805
797.783	0.754
806.946	0.677
816.109	0.74
825.271	0.834
834.434	0.895
843.596	0.892
852.759	0.896
861.921	0.915
871.084	0.906
880.247	0.875
889.409	0.834
898.572	0.831
907.734	0.787
916.897	0.765
926.059	0.803
935.222	0.888
944.385	0.923
953.547	0.912
962.71	0.837
971.872	0.894
981.035	0.914
990.197	0.914
999.36	0.897
1008.52	0.868
1017.69	0.834
1026.85	0.836
1036.01	0.893
1045.17	0.871
1054.34	0.872
1063.5	0.889
1072.66	0.81
1081.82	0.884
1090.99	0.881
1100.15	0.827
1109.31	0.793
1118.47	0.828
1127.64	0.844
1136.8	0.834
1145.96	0.666
1155.12	0.798
1164.29	0.843
1173.45	0.822
1182.61	0.805
1191.77	0.771
1200.94	0.715
1210.1	0.765
1219.26	0.706
1228.42	0.533
1237.59	0.575
1246.75	0.809
1255.91	0.829
1265.07	0.818
1274.24	0.791
1283.4	0.72
1292.56	0.616
1301.72	0.605
1310.89	0.641
1320.05	0.652
1329.21	0.796
1338.37	0.745
1347.54	0.67
1356.7	0.662
1365.86	0.8
1375.03	0.767
1384.19	0.721
1393.35	0.747
1402.51	0.706
1411.68	0.626
1420.84	0.671
1430	0.706
1439.16	0.712
1448.33	0.441
1457.49	0.395
1466.65	0.653
1475.81	0.792
1484.98	0.784
1494.14	0.643
1503.3	0.603
1512.46	0.682
1521.63	0.681
1530.79	0.537
1539.95	0.471
1549.11	0.687
1558.28	0.684
1567.44	0.529
1576.6	0.434
1585.76	0.6
1594.93	0.662
1604.09	0.628
1613.25	0.599
1622.41	0.54
1631.58	0.563
1640.74	0.558
1649.9	0.338
1659.06	0.165
1668.23	0.265
1677.39	0.556
1686.55	0.728
1695.72	0.787
1704.88	0.812
1714.04	0.836
1723.2	0.856
1732.37	0.876
1741.53	0.892
1750.69	0.897
1759.85	0.903
1769.02	0.914
1778.18	0.915
1787.34	0.913
1796.5	0.906
1805.67	0.906
1814.83	0.913
1823.99	0.917
1833.15	0.921
1842.32	0.923
1851.48	0.921
1860.64	0.919
1869.8	0.917
1878.97	0.919
1888.13	0.92
1897.29	0.922
1906.45	0.923
1915.62	0.921
1924.78	0.918
1933.94	0.915
1943.1	0.911
1952.27	0.911
1961.43	0.912
1970.59	0.914
1979.75	0.916
1988.92	0.918
1998.08	0.918
2007.24	0.917
2016.4	0.915
2025.57	0.915
2034.73	0.913
2043.89	0.912
2053.06	0.91
2062.22	0.909
2071.38	0.906
2080.54	0.903
2089.71	0.901
2098.87	0.9
2108.03	0.898
2117.19	0.896
2126.36	0.894
2135.52	0.893
2144.68	0.89
2153.84	0.888
2163.01	0.886
2172.17	0.884
2181.33	0.881
2190.49	0.88
2199.66	0.878
2208.82	0.877
2217.98	0.875
2227.14	0.874
2236.31	0.866
2245.47	0.861
2254.63	0.859
2263.79	0.858
2272.96	0.853
2282.12	0.849
2291.28	0.84
2300.44	0.834
2309.61	0.831
2318.77	0.822
2327.93	0.815
2337.09	0.811
2346.26	0.806
2355.42	0.804
2364.58	0.8
2373.75	0.798
2382.91	0.795
2392.07	0.79
2401.23	0.783
2410.4	0.778
2419.56	0.77
2428.72	0.76
2437.88	0.753
2447.05	0.748
2456.21	0.737
2465.37	0.731
2474.53	0.715
2483.7	0.696
2492.86	0.68
2502.02	0.663
2511.18	0.648
2520.35	0.637
2529.51	0.639
2538.67	0.642
2547.83	0.639
2557	0.617
2566.16	0.603
2575.32	0.59
2584.48	0.584
2593.65	0.578
2602.81	0.575
2611.97	0.573
2621.13	0.561
2630.3	0.54
2639.46	0.521
2648.62	0.503
2657.78	0.486
2666.95	0.468
2676.11	0.463
2685.27	0.458
2694.43	0.45
2703.6	0.443
2712.76	0.441
2721.92	0.442
2731.09	0.446
2740.25	0.458
2749.41	0.465
2758.57	0.475
2767.74	0.484
2776.9	0.493
2786.06	0.516
2795.22	0.537
2804.39	0.547
2813.55	0.554
2822.71	0.558
2831.87	0.55
2841.04	0.523
2850.2	0.508
2859.36	0.512
2868.52	0.534
2877.69	0.557
2886.85	0.565
2896.01	0.564
2905.17	0.552
2914.34	0.53
2923.5	0.505
2932.66	0.522
2941.82	0.553
2950.99	0.572
2960.15	0.578
2969.31	0.574
2978.47	0.578
2987.64	0.587
2996.8	0.608
3005.96	0.62
3015.12	0.621
3024.29	0.614
3033.45	0.627
3042.61	0.628
3051.77	0.608
3060.94	0.587
3070.1	0.592
3079.26	0.609
3088.43	0.616
3097.59	0.589
3106.75	0.536
3115.91	0.58
3125.08	0.65
3134.24	0.694
3143.4	0.723
3152.56	0.731
3161.73	0.732
3170.89	0.731
3180.05	0.726
3189.21	0.718
3198.38	0.702
3207.54	0.685
3216.7	0.645
3225.86	0.612
3235.03	0.584
3244.19	0.549
3253.35	0.525
3262.51	0.549
3271.68	0.58
3280.84	0.62
3290	0.657
3299.16	0.665
3308.33	0.671
3317.49	0.687
3326.65	0.722
3335.81	0.75
3344.98	0.77
3354.14	0.783
3363.3	0.791
3372.46	0.797
3381.63	0.801
3390.79	0.803
3399.95	0.804
3409.12	0.804
3418.28	0.806
3427.44	0.806
3436.6	0.807
3445.77	0.808
3454.93	0.809
3464.09	0.811
3473.25	0.812
3482.42	0.813
3491.58	0.815
3500.74	0.816
3509.9	0.819
3519.07	0.823
3528.23	0.827
3537.39	0.831
3546.55	0.835
3555.72	0.839
3564.88	0.843
3574.04	0.846
3583.2	0.849
3592.37	0.852
3601.53	0.856
3610.69	0.859
3619.85	0.862
3629.02	0.865
3638.18	0.866
3647.34	0.867
3656.5	0.867
3665.67	0.865
3674.83	0.863
3683.99	0.866
3693.15	0.869
3702.32	0.87
3711.48	0.868
3720.64	0.867
3729.8	0.865
3738.97	0.862
3748.13	0.863
3757.29	0.865
3766.46	0.868
3775.62	0.866
3784.78	0.864
3793.94	0.862
