Infrared Spectrum: Carbanilic acid, m-chloro-, cyclohexyl ester
Formula: C13 H16 Cl N O2
CAS: 116373-55-8
State: SOLID (SPLIT MULL), FLUOROLUBE FOR 3800-1335 CM^-^1, NUJOL FOR 1335-450 CM^-^1
Class: COBLENTZ III
Instrument: DOW KBr FOREPRISM-GRATING
Instrument parameters: BLAZED AT 3.5, 12.0, 20.0 MICRON AND CHANGED AT 5.0, 7.5, 14.9 MICRON
Sampling: TRANSMISSION
Resolution: 2
Origin: DOW CHEMICAL COMPANY
1/CM	TRANSMITTANCE
3790	0.6359
3781	0.6371
3772	0.6387
3763	0.6401
3754	0.6418
3745	0.6433
3736	0.6449
3727	0.6462
3718	0.6478
3709	0.6495
3700	0.6515
3691	0.6535
3682	0.6555
3673	0.6575
3664	0.659
3655	0.6605
3646	0.6621
3637	0.6636
3628	0.6651
3619	0.6667
3610	0.6682
3601	0.6699
3592	0.6715
3583	0.6733
3574	0.675
3565	0.6767
3556	0.6784
3547	0.6801
3538	0.6819
3529	0.6839
3520	0.6858
3511	0.6876
3502	0.6896
3493	0.6915
3484	0.6937
3475	0.6958
3466	0.698
3457	0.7001
3448	0.7025
3439	0.7054
3430	0.7084
3421	0.7114
3412	0.7144
3403	0.7169
3394	0.7186
3385	0.7197
3376	0.7204
3367	0.7211
3358	0.72
3349	0.7117
3340	0.6854
3331	0.6224
3322	0.4341
3313	0.174
3304	0.0724
3295	0.1242
3286	0.2494
3277	0.3245
3268	0.4262
3259	0.4835
3250	0.511
3241	0.533
3232	0.5567
3223	0.5771
3214	0.599
3205	0.616
3196	0.6224
3187	0.6136
3178	0.5998
3169	0.6027
3160	0.6401
3151	0.6591
3142	0.6598
3133	0.6418
3124	0.618
3115	0.6037
3106	0.5834
3097	0.6558
3088	0.6424
3079	0.6034
3070	0.6501
3061	0.6555
3052	0.6525
3043	0.6705
3034	0.6915
3025	0.6951
3016	0.6974
3007	0.7026
2998	0.7151
2989	0.7241
2980	0.7258
2971	0.7145
2962	0.621
2953	0.5592
2944	0.3423
2935	0.2361
2926	0.3304
2917	0.4604
2908	0.5165
2899	0.5318
2890	0.5738
2881	0.6347
2872	0.6389
2863	0.4612
2854	0.5329
2845	0.459
2836	0.6381
2827	0.6643
2818	0.6803
2809	0.6911
2800	0.699
2791	0.7035
2782	0.7048
2773	0.7051
2764	0.7061
2755	0.7118
2746	0.72
2737	0.7275
2728	0.7353
2719	0.7408
2710	0.7453
2701	0.7478
2692	0.7506
2683	0.7539
2674	0.7531
2665	0.7481
2656	0.7483
2647	0.7512
2638	0.7565
2629	0.7608
2620	0.7648
2611	0.7661
2602	0.7675
2593	0.7685
2584	0.7695
2575	0.7718
2566	0.7744
2557	0.7771
2548	0.78
2539	0.7828
2530	0.785
2521	0.7865
2512	0.7871
2503	0.7865
2494	0.7844
2485	0.7806
2476	0.779
2467	0.7794
2458	0.7815
2449	0.7836
2440	0.7845
2431	0.785
2422	0.7857
2413	0.786
2404	0.7865
2395	0.7868
2386	0.7871
2377	0.7868
2368	0.7868
2359	0.7865
2350	0.7861
2341	0.7858
2332	0.7855
2323	0.7833
2314	0.7821
2305	0.7815
2296	0.7815
2287	0.7819
2278	0.7825
2269	0.7822
2260	0.784
2251	0.7895
2242	0.7945
2233	0.7992
2224	0.8044
2215	0.8108
2206	0.8169
2197	0.82
2188	0.8218
2179	0.8246
2170	0.8275
2161	0.8305
2152	0.8335
2143	0.8356
2134	0.8375
2125	0.8395
2116	0.8415
2107	0.8435
2098	0.8455
2089	0.8475
2080	0.8496
2071	0.8518
2062	0.8541
2053	0.8564
2044	0.8591
2035	0.8617
2026	0.8642
2017	0.8658
2008	0.866
1999	0.8611
1990	0.8618
1981	0.8658
1972	0.8707
1963	0.8733
1954	0.8752
1945	0.8762
1936	0.8767
1927	0.8764
1918	0.8615
1909	0.8728
1900	0.8796
1891	0.8828
1882	0.8837
1873	0.8853
1864	0.8868
1855	0.8802
1846	0.8771
1837	0.8686
1828	0.8742
1819	0.8788
1810	0.8656
1801	0.8636
1792	0.8717
1783	0.8775
1774	0.8748
1765	0.8646
1756	0.8533
1747	0.8543
1738	0.7375
1729	0.7953
1720	0.7233
1711	0.473
1702	0.2346
1693	0.0113
1684	0.2594
1675	0.4859
1666	0.6267
1657	0.6951
1648	0.7637
1639	0.7921
1630	0.7722
1621	0.8046
1612	0.7687
1603	0.6707
1594	0.152
1585	0.0947
1576	0.6406
1567	0.7526
1558	0.7339
1549	0.3637
1540	0.0449
1531	0.064
1522	0.3069
1513	0.571
1504	0.6525
1495	0.7075
1486	0.7025
1477	0.4196
1468	0.5892
1459	0.6897
1450	0.4562
1441	0.3784
1432	0.6341
1423	0.0341
1414	0.5352
1405	0.6342
1396	0.6146
1387	0.6999
1378	0.7007
1369	0.6068
1360	0.6803
1351	0.6622
1342	0.6047
1333	0.6098
1324	0.5626
1315	0.4501
1306	0.5355
1297	0.5575
1288	0.4492
1279	0.1033
1270	0.2214
1261	0.4977
1252	0.5779
1243	0.2684
1234	0.0591
1225	0.0906
1216	0.3026
1207	0.4304
1198	0.5118
1189	0.531
1180	0.6368
1171	0.674
1162	0.6121
1153	0.6808
1144	0.7137
1135	0.7365
1126	0.7587
1117	0.7706
1108	0.7761
1099	0.7387
1090	0.6231
1081	0.7585
1072	0.5077
1063	0.6085
1054	0.1245
1045	0.3436
1036	0.5994
1027	0.6704
1018	0.715
1009	0.5064
1000	0.6162
991	0.3912
982	0.7361
973	0.7597
964	0.769
955	0.7476
946	0.7317
937	0.7757
928	0.7912
919	0.7975
910	0.7693
901	0.4548
892	0.5741
883	0.6535
874	0.7312
865	0.6615
856	0.7848
847	0.7981
838	0.7315
829	0.7945
820	0.8039
811	0.819
802	0.8097
793	0.8134
784	0.7786
775	0.3848
766	0.4148
757	0.7134
748	0.5912
739	0.7434
730	0.7372
721	0.7035
712	0.6798
703	0.6332
694	0.6196
685	0.4241
676	0.4345
667	0.6103
658	0.6737
649	0.7428
640	0.7771
631	0.7983
622	0.8144
613	0.8261
604	0.8349
595	0.841
586	0.843
577	0.8439
568	0.8282
559	0.8315
550	0.8318
541	0.8285
532	0.7911
523	0.8081
514	0.8094
505	0.8091
496	0.8096
487	0.8118
478	0.8151
469	0.8104
460	0.8089
451	0.8068
