Infrared Spectrum: N-[2-(3-METHYLPYRAZYL)]-3-METHYL-2-PYRAZONE
Formula: C10 H10 N4 O
CAS: 116373-03-6
State: SOLID (MINERAL OIL MULL)
Melting point: 147-147.5 C
Class: COBLENTZ
Instrument: Not specified, most likely a prism, grating, or hybrid spectrometer.
Sampling: TRANSMISSION
Resolution: 4
Origin: WYANDOTTE CHEMICALS CORP., WYANDOTTE, MICHIGAN, USA
MICROMETERS	TRANSMITTANCE
2.041	0.647
2.08191	0.658
2.12283	0.661
2.16374	0.654
2.20466	0.652
2.24557	0.647
2.28649	0.67
2.3274	0.671
2.36832	0.68
2.40923	0.692
2.45015	0.69
2.49106	0.695
2.53198	0.704
2.57289	0.714
2.61381	0.721
2.65472	0.728
2.69564	0.731
2.73655	0.733
2.77747	0.731
2.81838	0.728
2.8593	0.726
2.90021	0.726
2.94113	0.717
2.98204	0.721
3.02296	0.712
3.06387	0.717
3.10479	0.719
3.1457	0.711
3.18662	0.688
3.22753	0.647
3.26845	0.605
3.30936	0.376
3.35027	0.083
3.39119	0.042
3.4321	0.102
3.47302	0.116
3.51393	0.364
3.55485	0.719
3.59576	0.779
3.63668	0.791
3.67759	0.782
3.71851	0.805
3.75942	0.808
3.80034	0.823
3.84125	0.83
3.88217	0.842
3.92308	0.827
3.964	0.856
4.00491	0.861
4.04583	0.871
4.08674	0.873
4.12766	0.876
4.16857	0.871
4.20949	0.863
4.2504	0.852
4.29132	0.852
4.33223	0.873
4.37315	0.899
4.41406	0.9
4.45498	0.902
4.49589	0.905
4.53681	0.909
4.57772	0.917
4.61864	0.905
4.65955	0.917
4.70046	0.921
4.74138	0.929
4.78229	0.933
4.82321	0.935
4.86412	0.933
4.90504	0.929
4.94595	0.929
4.98687	0.94
5.02778	0.94
5.0687	0.928
5.10961	0.909
5.15053	0.935
5.19144	0.947
5.23236	0.955
5.27327	0.95
5.31419	0.955
5.3551	0.948
5.39602	0.943
5.43693	0.936
5.47785	0.948
5.51876	0.928
5.55968	0.95
5.60059	0.947
5.64151	0.935
5.68242	0.929
5.72334	0.921
5.76425	0.905
5.80517	0.866
5.84608	0.825
5.887	0.69
5.92791	0.393
5.96882	0.114
6.00974	0.254
6.05065	0.652
6.09157	0.711
6.13248	0.646
6.1734	0.186
6.21431	0.524
6.25523	0.694
6.29614	0.697
6.33706	0.781
6.37797	0.825
6.41889	0.82
6.4598	0.811
6.50072	0.642
6.54163	0.741
6.58255	0.82
6.62346	0.854
6.66438	0.846
6.70529	0.762
6.74621	0.6
6.78712	0.276
6.82804	0.239
6.86895	0.27
6.90987	0.194
6.95078	0.229
6.9917	0.423
7.03261	0.664
7.07353	0.606
7.11444	0.268
7.15536	0.362
7.19627	0.43
7.23719	0.2
7.2781	0.405
7.31901	0.588
7.35993	0.659
7.40084	0.697
7.44176	0.741
7.48267	0.776
7.52359	0.798
7.5645	0.803
7.60542	0.762
7.64633	0.639
7.68725	0.5
7.72816	0.656
7.76908	0.752
7.80999	0.731
7.85091	0.666
7.89182	0.288
7.93274	0.242
7.97365	0.478
8.01457	0.617
8.05548	0.683
8.0964	0.608
8.13731	0.558
8.17823	0.699
8.21914	0.731
8.26006	0.735
8.30097	0.707
8.34189	0.618
8.3828	0.499
8.42372	0.411
8.46463	0.606
8.50555	0.634
8.54646	0.535
8.58737	0.627
8.62829	0.709
8.6692	0.747
8.71012	0.772
8.75103	0.803
8.79195	0.82
8.83286	0.81
8.87378	0.796
8.91469	0.805
8.95561	0.765
8.99652	0.68
9.03744	0.784
9.07835	0.8
9.11927	0.733
9.16018	0.521
9.2011	0.558
9.24201	0.649
9.28293	0.753
9.32384	0.801
9.36476	0.813
9.40567	0.82
9.44659	0.827
9.4875	0.832
9.52842	0.829
9.56933	0.817
9.61025	0.777
9.65116	0.717
9.69208	0.803
9.73299	0.82
9.77391	0.803
9.81482	0.777
9.85574	0.83
9.89665	0.858
9.93756	0.864
9.97848	0.871
10.0194	0.863
10.0603	0.83
10.1012	0.748
10.1421	0.576
10.1831	0.613
10.224	0.731
10.2649	0.765
10.3058	0.781
10.3467	0.796
10.3876	0.81
10.4285	0.829
10.4695	0.832
10.5104	0.842
10.5513	0.854
10.5922	0.859
10.6331	0.863
10.674	0.858
10.7149	0.871
10.7559	0.875
10.7968	0.87
10.8377	0.861
10.8786	0.858
10.9195	0.851
10.9604	0.837
11.0014	0.738
11.0423	0.721
11.0832	0.632
11.1241	0.736
11.165	0.801
11.2059	0.825
11.2468	0.825
11.2878	0.755
11.3287	0.658
11.3696	0.565
11.4105	0.593
11.4514	0.7
11.4923	0.723
11.5332	0.712
11.5742	0.764
11.6151	0.834
11.656	0.873
11.6969	0.883
11.7378	0.892
11.7787	0.899
11.8196	0.902
11.8606	0.899
11.9015	0.902
11.9424	0.905
11.9833	0.911
12.0242	0.919
12.0651	0.916
12.1061	0.919
12.147	0.919
12.1879	0.912
12.2288	0.917
12.2697	0.919
12.3106	0.907
12.3515	0.907
12.3925	0.899
12.4334	0.883
12.4743	0.885
12.5152	0.894
12.5561	0.892
12.597	0.882
12.6379	0.87
12.6789	0.859
12.7198	0.82
12.7607	0.736
12.8016	0.5
12.8425	0.222
12.8834	0.307
12.9243	0.311
12.9653	0.494
13.0062	0.707
13.0471	0.803
13.088	0.852
13.1289	0.866
13.1698	0.825
13.2108	0.767
13.2517	0.815
13.2926	0.871
13.3335	0.887
13.3744	0.899
13.4153	0.9
13.4562	0.905
13.4972	0.902
13.5381	0.902
13.579	0.907
13.6199	0.9
13.6608	0.909
13.7017	0.907
13.7426	0.912
13.7836	0.907
13.8245	0.905
13.8654	0.904
13.9063	0.9
13.9472	0.911
13.9881	0.924
14.029	0.94
14.07	0.95
14.1109	0.962
14.1518	0.969
14.1927	0.969
14.2336	0.974
14.2745	0.977
14.3155	0.977
14.3564	0.984
14.3973	0.977
14.4382	0.976
14.4791	0.976
14.52	0.981
14.5609	0.976
14.6019	0.976
14.6428	0.979
14.6837	0.972
14.7246	0.969
14.7655	0.955
14.8064	0.928
14.8473	0.911
14.8883	0.899
14.9292	0.912
14.9701	0.919
15.011	0.912
15.0519	0.882
15.0928	0.873
15.1337	0.899
15.1747	0.926
15.2156	0.931
15.2565	0.931
15.2974	0.923
15.3383	0.917
15.3792	0.917
15.4202	0.907
15.4611	0.9
15.502	0.887
15.5429	0.885
15.5838	0.88
15.6247	0.871
15.6656	0.876
15.7066	0.861
15.7475	0.849
15.7884	0.841
15.8293	0.83
15.8702	0.818
15.9111	0.813
15.952	0.8
15.993	0.784
