Infrared Spectrum: Ketone, chloromethyl hexahydro-6-hydroxyidan-1-yl
Formula: C11 H17 Cl O2
CAS: 116373-84-3
State: SOLID (OIL MULL)
Class: COBLENTZ III
Instrument: PERKIN-ELMER 21 (GRATING)
Instrument parameters: NaCl PRISM
Sampling: TRANSMISSION
Resolution: 2
Origin: SMITH KLINE & FRENCH LABS.
1/CM	TRANSMITTANCE
667	0.6309
676	0.6585
685	0.6287
694	0.6469
703	0.7356
712	0.78
721	0.7747
730	0.7794
739	0.7553
748	0.6547
757	0.7351
766	0.8509
775	0.886
784	0.8659
793	0.8799
802	0.9075
811	0.9005
820	0.9028
829	0.9281
838	0.9234
847	0.9094
856	0.9268
865	0.9288
874	0.9205
883	0.8862
892	0.9083
901	0.8969
910	0.7649
919	0.8233
928	0.8627
937	0.8319
946	0.8726
955	0.8657
964	0.8462
973	0.793
982	0.766
991	0.7778
1000	0.8383
1009	0.7728
1018	0.6911
1027	0.6361
1036	0.729
1045	0.5376
1054	0.6453
1063	0.4351
1072	0.6346
1081	0.8255
1090	0.7548
1099	0.8309
1108	0.8391
1117	0.8442
1126	0.8502
1135	0.753
1144	0.7616
1153	0.8124
1162	0.8023
1171	0.8524
1180	0.8271
1189	0.8152
1198	0.7733
1207	0.8475
1216	0.838
1225	0.8221
1234	0.7941
1243	0.798
1252	0.784
1261	0.7596
1270	0.7195
1279	0.7716
1288	0.7166
1297	0.6544
1306	0.7471
1315	0.7714
1324	0.7263
1333	0.7457
1342	0.7359
1351	0.6715
1360	0.5623
1369	0.4137
1378	0.5737
1387	0.5294
1396	0.6832
1405	0.644
1414	0.7282
1423	0.7167
1432	0.5796
1441	0.2821
1450	0.2903
1459	0.3496
1468	0.7385
1477	0.8147
1486	0.8695
1495	0.8926
1504	0.9126
1513	0.9127
1522	0.9164
1531	0.9201
1540	0.92
1549	0.9226
1558	0.9253
1567	0.9214
1576	0.9169
1585	0.9116
1594	0.8988
1603	0.8753
1612	0.8969
1621	0.8906
1630	0.8788
1639	0.8655
1648	0.8444
1657	0.8127
1666	0.7605
1675	0.7388
1684	0.6627
1693	0.4675
1702	0.3507
1711	0.4634
1720	0.7011
1729	0.876
1738	0.9134
1747	0.9264
1756	0.9305
1765	0.9316
1774	0.9364
1783	0.9449
1792	0.9498
1801	0.9506
1810	0.9505
1819	0.9504
1828	0.95
1837	0.9497
1846	0.9495
1855	0.9496
1864	0.9496
1873	0.9497
1882	0.9497
1891	0.9498
1900	0.9499
1909	0.949
1918	0.9481
1927	0.9472
1936	0.9461
1945	0.945
1954	0.9438
1963	0.9427
1972	0.9417
1981	0.9405
1990	0.9389
1999	0.939
2008	0.9394
2017	0.9391
2026	0.9388
2035	0.9385
2044	0.9384
2053	0.9383
2062	0.9383
2071	0.9383
2080	0.9354
2089	0.9305
2098	0.9297
2107	0.9297
2116	0.929
2125	0.9257
2134	0.9242
2143	0.9235
2152	0.9233
2161	0.9241
2170	0.9219
2179	0.9188
2188	0.9181
2197	0.918
2206	0.9182
2215	0.9184
2224	0.918
2233	0.9175
2242	0.9173
2251	0.9172
2260	0.917
2269	0.9164
2278	0.9157
2287	0.9137
2296	0.9129
2305	0.9126
2314	0.9126
2323	0.9117
2332	0.9069
2341	0.9015
2350	0.8991
2359	0.8987
2368	0.8984
2377	0.8983
2386	0.8982
2395	0.8977
2404	0.8972
2413	0.8948
2422	0.8904
2431	0.886
2440	0.8848
2449	0.8837
2458	0.8825
2467	0.8813
2476	0.8802
2485	0.879
2494	0.8767
2503	0.874
2512	0.8703
2521	0.8664
2530	0.8625
2539	0.8583
2548	0.8523
2557	0.8463
2566	0.8402
2575	0.834
2584	0.8302
2593	0.8266
2602	0.8186
2611	0.8185
2620	0.8187
2629	0.8189
2638	0.8189
2647	0.8189
2656	0.8185
2665	0.818
2674	0.8162
2683	0.8126
2692	0.8087
2701	0.7995
2710	0.7886
2719	0.7737
2728	0.7553
2737	0.733
2746	0.7064
2755	0.5705
2764	0.4734
2773	0.3769
2782	0.281
2791	0.1857
2800	0.0936
2809	0.0793
2818	0.0831
2827	0.0845
2836	0.0737
2845	0.0433
2854	0.0304
2863	0.0307
2872	0.0336
2881	0.0534
2890	0.1029
2899	0.184
2908	0.2644
2917	0.3442
2926	0.4235
2935	0.5024
2944	0.5808
2953	0.6384
2962	0.6678
2971	0.688
2980	0.6954
2989	0.6981
2998	0.6999
3007	0.7009
3016	0.7
3025	0.6987
3034	0.6958
3043	0.6889
3052	0.6797
3061	0.6715
3070	0.6638
3079	0.6524
3088	0.64
3097	0.6277
3106	0.6155
3115	0.6034
3124	0.5913
3133	0.5793
3142	0.5673
3151	0.5555
3160	0.5437
3169	0.532
3178	0.5203
3187	0.5087
3196	0.4972
3205	0.4857
3214	0.4703
3223	0.458
3232	0.4515
3241	0.449
3250	0.4488
3259	0.4491
3268	0.4512
3277	0.4592
3286	0.4665
3295	0.4757
3304	0.4918
3313	0.5214
3322	0.5575
3331	0.5933
3340	0.6289
3349	0.6615
3358	0.6986
3367	0.7203
3376	0.7361
3385	0.7483
3394	0.7599
3403	0.772
3412	0.7842
3421	0.7962
3430	0.8069
3439	0.8148
3448	0.8164
3457	0.8165
3466	0.8163
3475	0.8162
3484	0.816
3493	0.8151
3502	0.8137
3511	0.8104
3520	0.8073
3529	0.8043
3538	0.8016
3547	0.799
3556	0.7965
3565	0.7941
3574	0.7917
3583	0.7893
3592	0.7869
3601	0.7848
3610	0.7832
3619	0.7817
3628	0.7802
3637	0.7788
3646	0.7773
3655	0.7757
3664	0.7741
3673	0.7725
3682	0.7709
3691	0.7694
3700	0.7678
3709	0.7662
3718	0.7647
3727	0.7634
3736	0.7627
3745	0.7621
3754	0.7615
3763	0.7598
3772	0.7579
3781	0.7559
3790	0.754
3799	0.7524
3808	0.7509
3817	0.7494
3826	0.749
3835	0.7488
3844	0.7485
3853	0.7482
3862	0.7476
3871	0.7456
3880	0.7424
3889	0.7393
3898	0.7364
3907	0.7342
3916	0.7323
3925	0.7314
3934	0.7307
3943	0.7299
3952	0.7284
3961	0.7269
3970	0.7251
3979	0.7222
3988	0.7192
3997	0.7177
