Infrared Spectrum: 3,4-Dimethyl-6-tert-butylcoumarin
Formula: C15 H18 O2
CAS: 116373-39-8
State: SOLUTION (10% CCl4 FOR 3800-1330, 10% CS2 FOR 1330-400 CM^-^1)
Class: COBLENTZ III
Instrument: DOW KBr FOREPRISM-GRATING
Instrument parameters: BLAZED AT 3.5, 12.0, 20.0 MICRON AND CHANGED AT 5.0, 7.5, 14.9 MICRON
Sampling: TRANSMISSION
Path length: 0.011 CM, 0.011 CM
Resolution: 2
Origin: DOW CHEMICAL COMPANY
1/CM	TRANSMITTANCE
3798	0.9102
3789	0.9116
3780	0.9116
3771	0.911
3762	0.9096
3753	0.9051
3744	0.8995
3735	0.905
3726	0.9074
3717	0.908
3708	0.9097
3699	0.9094
3690	0.9032
3681	0.8962
3672	0.9002
3663	0.9038
3654	0.9075
3645	0.9075
3636	0.9075
3627	0.9078
3618	0.9035
3609	0.8977
3600	0.8991
3591	0.9034
3582	0.8962
3573	0.8978
3564	0.8993
3555	0.8998
3546	0.896
3537	0.892
3528	0.8881
3519	0.8873
3510	0.8866
3501	0.8863
3492	0.8858
3483	0.8843
3474	0.8828
3465	0.8805
3456	0.8771
3447	0.8703
3438	0.8629
3429	0.8529
3420	0.8425
3411	0.8358
3402	0.8362
3393	0.8446
3384	0.8497
3375	0.8545
3366	0.8583
3357	0.8619
3348	0.8639
3339	0.8654
3330	0.8665
3321	0.8666
3312	0.8681
3303	0.8666
3294	0.8659
3285	0.8652
3276	0.865
3267	0.8652
3258	0.8647
3249	0.8643
3240	0.864
3231	0.8636
3222	0.8632
3213	0.8627
3204	0.8607
3195	0.8612
3186	0.8597
3177	0.8588
3168	0.86
3159	0.8626
3150	0.864
3141	0.8624
3132	0.8626
3123	0.8609
3114	0.8576
3105	0.8547
3096	0.8489
3087	0.8276
3078	0.8054
3069	0.8054
3060	0.8062
3051	0.804
3042	0.8008
3033	0.7877
3024	0.7704
3015	0.7533
3006	0.7277
2997	0.6843
2988	0.4959
2979	0.3008
2970	0.1051
2961	0.0924
2952	0.2325
2943	0.2908
2934	0.335
2925	0.3882
2916	0.4532
2907	0.4345
2898	0.4687
2889	0.5574
2880	0.5318
2871	0.4596
2862	0.5169
2853	0.6589
2844	0.7584
2835	0.8029
2826	0.8195
2817	0.83
2808	0.8403
2799	0.8491
2790	0.8569
2781	0.8646
2772	0.8724
2763	0.8771
2754	0.8788
2745	0.87
2736	0.8726
2727	0.8781
2718	0.8791
2709	0.8776
2700	0.8812
2691	0.8846
2682	0.8873
2673	0.89
2664	0.8923
2655	0.8947
2646	0.8959
2637	0.8957
2628	0.8973
2619	0.8976
2610	0.8978
2601	0.8981
2592	0.8984
2583	0.8987
2574	0.899
2565	0.8997
2556	0.9002
2547	0.9015
2538	0.9028
2529	0.9033
2520	0.9035
2511	0.9032
2502	0.9015
2493	0.8998
2484	0.8992
2475	0.8999
2466	0.8994
2457	0.899
2448	0.9002
2439	0.9006
2430	0.901
2421	0.901
2412	0.9013
2403	0.9023
2394	0.9016
2385	0.9025
2376	0.9072
2367	0.9062
2358	0.9075
2349	0.9072
2340	0.9074
2331	0.9063
2322	0.9091
2313	0.9053
2304	0.9014
2295	0.9013
2286	0.9053
2277	0.909
2268	0.9095
2259	0.9112
2250	0.9104
2241	0.9119
2232	0.9129
2223	0.9151
2214	0.9158
2205	0.9168
2196	0.914
2187	0.9084
2178	0.908
2169	0.9065
2160	0.9049
2151	0.9091
2142	0.9127
2133	0.9159
2124	0.9183
2115	0.9205
2106	0.9221
2097	0.9221
2088	0.9243
2079	0.9246
2070	0.9247
2061	0.9242
2052	0.9237
2043	0.9213
2034	0.9211
2025	0.9258
2016	0.9283
2007	0.9286
1998	0.9088
1989	0.9371
1980	0.9402
1971	0.9329
1962	0.9405
1953	0.9353
1944	0.9293
1935	0.927
1926	0.9219
1917	0.9142
1908	0.9039
1899	0.8967
1890	0.8992
1881	0.9115
1872	0.9129
1863	0.9119
1854	0.9094
1845	0.9058
1836	0.9003
1827	0.8971
1818	0.8992
1809	0.8938
1800	0.8832
1791	0.8609
1782	0.8207
1773	0.7457
1764	0.6125
1755	0.5764
1746	0.514
1737	0.2249
1728	0.0191
1719	0.0092
1710	0.0217
1701	0.0692
1692	0.2716
1683	0.4254
1674	0.5398
1665	0.4607
1656	0.1916
1647	0.126
1638	0.3225
1629	0.2853
1620	0.1924
1611	0.3699
1602	0.5729
1593	0.5696
1584	0.5102
1575	0.3567
1566	0.4559
1557	0.5403
1548	0.6375
1539	0.714
1530	0.7066
1521	0.6961
1512	0.6693
1503	0.5452
1494	0.3391
1485	0.3155
1476	0.4888
1467	0.2526
1458	0.4285
1449	0.4639
1440	0.3624
1431	0.4731
1422	0.4909
1413	0.4963
1404	0.6264
1395	0.519
1386	0.2811
1377	0.3792
1368	0.2224
1359	0.4387
1350	0.5454
1341	0.6695
1332	0.6875
1323	0.5758
1314	0.4564
1305	0.6945
1296	0.5721
1287	0.5975
1278	0.6317
1269	0.4024
1260	0.2521
1251	0.3095
1242	0.6071
1233	0.6444
1224	0.5919
1215	0.6374
1206	0.6334
1197	0.6264
1188	0.6707
1179	0.6727
1170	0.6251
1161	0.6785
1152	0.552
1143	0.5899
1134	0.5447
1125	0.643
1116	0.5742
1107	0.6708
1098	0.5756
1089	0.2058
1080	0.2129
1071	0.4071
1062	0.56
1053	0.7052
1044	0.7957
1035	0.823
1026	0.813
1017	0.7917
1008	0.7284
999	0.7773
990	0.8041
981	0.7518
972	0.737
963	0.7665
954	0.8096
945	0.8218
936	0.7815
927	0.6757
918	0.4647
909	0.6341
900	0.8017
891	0.7572
882	0.5501
873	0.7098
864	0.8178
855	0.7537
846	0.7717
837	0.7559
828	0.2036
819	0.6406
810	0.7484
801	0.8129
792	0.8538
783	0.8519
774	0.8686
765	0.7304
756	0.687
747	0.8421
738	0.8628
729	0.8654
720	0.8811
711	0.8941
702	0.8904
693	0.8211
684	0.9076
675	0.9152
666	0.9049
657	0.8508
648	0.7654
639	0.4603
630	0.8429
621	0.8867
612	0.8929
603	0.9082
594	0.8656
585	0.8829
576	0.8564
567	0.9224
558	0.9117
549	0.9156
540	0.9234
531	0.93
522	0.9215
513	0.8779
504	0.9422
495	0.9384
486	0.8785
477	0.9505
468	0.9513
459	0.9489
450	0.8556
441	0.9081
432	0.8792
423	0.8934
414	0.8338
405	0.6806
396	0.3997
387	0.3136
