Infrared Spectrum: 2-(2-CYCLOHEXYLPHENOXY) ETHYL-2-PHENOXYETHYL ETHER
Formula: C22 H28 O3
CAS: 116373-69-4
State: SOLUTION (10% IN CCl4 FOR 5000-1350 CM^-^1, 10% IN CS2 FOR 1350-625 CM^-^1)
Class: COBLENTZ
Instrument: Not specified, most likely a prism, grating, or hybrid spectrometer.
Sampling: TRANSMISSION
Path length: 0.01 CM, 0.01 CM
Resolution: 4
Origin: DOW CHEMICAL COMPANY
MICROMETERS	TRANSMITTANCE
2.035	0.873
2.07412	0.871
2.11324	0.871
2.15236	0.876
2.19148	0.873
2.2306	0.868
2.26971	0.863
2.30883	0.87
2.34795	0.867
2.38707	0.87
2.42619	0.865
2.46531	0.87
2.50443	0.875
2.54355	0.878
2.58267	0.878
2.62179	0.88
2.6609	0.88
2.70002	0.873
2.73914	0.868
2.77826	0.858
2.81738	0.842
2.8565	0.829
2.89562	0.82
2.93474	0.815
2.97386	0.815
3.01298	0.82
3.0521	0.821
3.09121	0.826
3.13033	0.829
3.16945	0.821
3.20857	0.769
3.24769	0.674
3.28681	0.649
3.32593	0.724
3.36505	0.431
3.40417	0.115
3.44329	0.269
3.4824	0.314
3.52152	0.714
3.56064	0.782
3.59976	0.813
3.63888	0.829
3.678	0.844
3.71712	0.854
3.75624	0.86
3.79536	0.867
3.83448	0.87
3.87359	0.87
3.91271	0.87
3.95183	0.873
3.99095	0.875
4.03007	0.88
4.06919	0.884
4.10831	0.886
4.14743	0.886
4.18655	0.884
4.22567	0.875
4.26479	0.876
4.3039	0.878
4.34302	0.88
4.38214	0.889
4.42126	0.894
4.46038	0.901
4.4995	0.904
4.53862	0.905
4.57774	0.905
4.61686	0.905
4.65598	0.905
4.69509	0.904
4.73421	0.901
4.77333	0.897
4.81245	0.893
4.85157	0.886
4.89069	0.88
4.92981	0.878
4.96893	0.88
5.00805	0.883
5.04717	0.886
5.08629	0.891
5.1254	0.876
5.16452	0.867
5.20364	0.88
5.24276	0.888
5.28188	0.883
5.321	0.897
5.36012	0.881
5.39924	0.876
5.43836	0.878
5.47748	0.899
5.51659	0.889
5.55571	0.886
5.59483	0.871
5.63395	0.841
5.67307	0.829
5.71219	0.828
5.75131	0.824
5.79043	0.844
5.82955	0.847
5.86867	0.846
5.90779	0.844
5.9469	0.846
5.98602	0.844
6.02514	0.831
6.06426	0.818
6.10338	0.789
6.1425	0.716
6.18162	0.568
6.22074	0.226
6.25986	0.26
6.29898	0.385
6.33809	0.508
6.37721	0.497
6.41633	0.458
6.45545	0.465
6.49457	0.534
6.53369	0.549
6.57281	0.525
6.61193	0.432
6.65105	0.215
6.69017	0.092
6.72928	0.353
6.7684	0.499
6.80752	0.46
6.84664	0.251
6.88576	0.32
6.92488	0.636
6.964	0.76
7.00312	0.768
7.04224	0.777
7.08136	0.771
7.12048	0.756
7.15959	0.752
7.19871	0.75
7.23783	0.695
7.27695	0.646
7.31607	0.64
7.35519	0.693
7.39431	0.722
7.43343	0.656
7.47255	0.567
7.51167	0.606
7.55078	0.67
7.5899	0.625
7.62902	0.482
7.66814	0.4
7.70726	0.408
7.74638	0.395
7.7855	0.486
7.82462	0.517
7.86374	0.427
7.90286	0.372
7.94198	0.249
7.98109	0.068
8.02021	0.019
8.05933	0.032
8.09845	0.079
8.13757	0.147
8.17669	0.225
8.21581	0.406
8.25493	0.594
8.29405	0.661
8.33317	0.67
8.37228	0.656
8.4114	0.641
8.45052	0.599
8.48964	0.487
8.52876	0.505
8.56788	0.555
8.607	0.513
8.64612	0.413
8.68524	0.299
8.72436	0.158
8.76348	0.09
8.80259	0.119
8.84171	0.196
8.88083	0.303
8.91995	0.405
8.95907	0.453
8.99819	0.46
9.03731	0.413
9.07643	0.418
9.11555	0.484
9.15467	0.508
9.19378	0.482
9.2329	0.419
9.27202	0.429
9.31114	0.452
9.35026	0.364
9.38938	0.273
9.4285	0.285
9.46762	0.317
9.50674	0.35
9.54586	0.403
9.58497	0.46
9.62409	0.515
9.66321	0.562
9.70233	0.588
9.74145	0.627
9.78057	0.698
9.81969	0.726
9.85881	0.732
9.89793	0.717
9.93705	0.667
9.97617	0.611
10.0153	0.648
10.0544	0.739
10.0935	0.779
10.1326	0.799
10.1718	0.81
10.2109	0.811
10.25	0.79
10.2891	0.771
10.3282	0.752
10.3674	0.721
10.4065	0.675
10.4456	0.641
10.4847	0.612
10.5238	0.598
10.563	0.596
10.6021	0.601
10.6412	0.593
10.6803	0.568
10.7194	0.541
10.7585	0.528
10.7977	0.538
10.8368	0.557
10.8759	0.576
10.915	0.602
10.9541	0.64
10.9933	0.672
11.0324	0.688
11.0715	0.696
11.1106	0.672
11.1497	0.64
11.1889	0.593
11.228	0.576
11.2671	0.63
11.3062	0.596
11.3453	0.547
11.3845	0.581
11.4236	0.641
11.4627	0.649
11.5018	0.648
11.5409	0.632
11.58	0.625
11.6192	0.623
11.6583	0.622
11.6974	0.62
11.7365	0.623
11.7756	0.632
11.8148	0.646
11.8539	0.654
11.893	0.659
11.9321	0.638
11.9712	0.611
12.0104	0.606
12.0495	0.628
12.0886	0.643
12.1277	0.653
12.1668	0.669
12.206	0.675
12.2451	0.659
12.2842	0.632
12.3233	0.612
12.3624	0.611
12.4015	0.62
12.4407	0.633
12.4798	0.623
12.5189	0.583
12.558	0.56
12.5971	0.56
12.6363	0.588
12.6754	0.623
12.7145	0.651
12.7536	0.664
12.7927	0.67
12.8319	0.675
12.871	0.669
12.9101	0.658
12.9492	0.638
12.9883	0.622
13.0275	0.599
13.0666	0.568
13.1057	0.521
13.1448	0.445
13.1839	0.345
13.223	0.197
13.2622	0.069
13.3013	0.011
13.3404	0.004
13.3795	0.061
13.4186	0.189
13.4578	0.312
13.4969	0.387
13.536	0.397
13.5751	0.392
13.6142	0.434
13.6534	0.517
13.6925	0.581
13.7316	0.63
13.7707	0.654
13.8098	0.67
13.849	0.677
13.8881	0.68
13.9272	0.682
13.9663	0.677
14.0054	0.675
14.0445	0.67
14.0837	0.666
14.1228	0.659
14.1619	0.649
14.201	0.638
14.2401	0.614
14.2793	0.581
14.3184	0.533
14.3575	0.47
14.3966	0.379
14.4357	0.29
14.4749	0.236
14.514	0.273
14.5531	0.384
14.5922	0.465
14.6313	0.525
14.6705	0.544
14.7096	0.549
14.7487	0.551
14.7878	0.549
14.8269	0.544
14.866	0.534
14.9052	0.528
14.9443	0.521
14.9834	0.521
15.0225	0.515
15.0616	0.507
15.1008	0.5
15.1399	0.492
15.179	0.479
15.2181	0.47
15.2572	0.46
15.2964	0.455
15.3355	0.45
15.3746	0.445
15.4137	0.439
15.4528	0.431
15.492	0.421
15.5311	0.418
15.5702	0.408
15.6093	0.401
15.6484	0.392
15.6875	0.387
15.7267	0.38
15.7658	0.369
15.8049	0.358
15.844	0.359
15.8831	0.367
