Infrared Spectrum: 2,2-DIPHENYL-6-MORPHOLINO-CYCLOHEXANONE HYDROCHLORIDE
Formula: C22 H25 N O2  * H Cl
CAS: 116373-18-3
State: SOLID (NUJOL MULL)
Class: COBLENTZ
Instrument: PERKIN-ELMER
Sampling: TRANSMISSION
Resolution: 4
Origin: ABBOTT LABORATORIES - WASHBURN
MICROMETERS	TRANSMITTANCE
2.056	0.38
2.09579	0.388
2.13557	0.4032
2.17536	0.4131
2.21514	0.4271
2.25493	0.433
2.29472	0.428
2.3345	0.437
2.37429	0.4381
2.41407	0.453
2.45386	0.463
2.49365	0.4789
2.53343	0.504
2.57322	0.512
2.613	0.5203
2.65279	0.532
2.69258	0.541
2.73236	0.541
2.77215	0.547
2.81193	0.5418
2.85172	0.5322
2.89151	0.53
2.93129	0.53
2.97108	0.539
3.01086	0.541
3.05065	0.5465
3.09044	0.551
3.13022	0.551
3.17001	0.5371
3.20979	0.4965
3.24958	0.4255
3.28937	0.3575
3.32915	0.0903
3.36894	0.0161
3.40872	0.0181
3.44851	0.0251
3.4883	0.2039
3.52808	0.5238
3.56787	0.5637
3.60765	0.606
3.64744	0.6011
3.68723	0.6039
3.72701	0.5891
3.7668	0.5712
3.80658	0.554
3.84637	0.552
3.88616	0.5508
3.92594	0.5283
3.96573	0.4918
4.00551	0.47
4.0453	0.4719
4.08509	0.4577
4.12487	0.4297
4.16466	0.4048
4.20444	0.398
4.24423	0.371
4.28402	0.3544
4.3238	0.2905
4.36359	0.2657
4.40337	0.241
4.44316	0.214
4.48295	0.1899
4.52273	0.1821
4.56252	0.1891
4.6023	0.2187
4.64209	0.2372
4.68188	0.274
4.72166	0.3212
4.76145	0.3483
4.80123	0.4019
4.84102	0.44
4.88081	0.4799
4.92059	0.5143
4.96038	0.5412
5.00016	0.567
5.03995	0.5884
5.07974	0.602
5.11952	0.644
5.15931	0.6536
5.19909	0.6574
5.23888	0.6729
5.27867	0.7016
5.31845	0.713
5.35824	0.7163
5.39802	0.7108
5.43781	0.6959
5.4776	0.7325
5.51738	0.743
5.55717	0.7272
5.59696	0.718
5.63674	0.6974
5.67653	0.6365
5.71631	0.3344
5.7561	0.0877
5.79589	0.4464
5.83567	0.6335
5.87546	0.6474
5.91524	0.6823
5.95503	0.7
5.99482	0.703
6.0346	0.7105
6.07439	0.721
6.11417	0.7258
6.15396	0.7208
6.19375	0.6841
6.23353	0.636
6.27332	0.6701
6.3131	0.6809
6.35289	0.7322
6.39268	0.725
6.43246	0.7319
6.47225	0.7387
6.51203	0.7414
6.55182	0.7259
6.59161	0.7029
6.63139	0.5793
6.67118	0.2915
6.71096	0.3353
6.75075	0.4193
6.79054	0.2406
6.83032	0.1289
6.87011	0.0966
6.90989	0.073
6.94968	0.304
6.98947	0.4397
7.02925	0.537
7.06904	0.3379
7.10882	0.3751
7.14861	0.3596
7.1884	0.4206
7.22818	0.409
7.26797	0.3221
7.30775	0.346
7.34754	0.4351
7.38733	0.5109
7.42711	0.4789
7.4669	0.4909
7.50668	0.537
7.54647	0.5246
7.58626	0.5209
7.62604	0.5138
7.66583	0.395
7.70561	0.5354
7.7454	0.4574
7.78519	0.4288
7.82497	0.4067
7.86476	0.2927
7.90454	0.2211
7.94433	0.5292
7.98412	0.6538
8.0239	0.6555
8.06369	0.541
8.10347	0.6608
8.14326	0.7003
8.18305	0.708
8.22283	0.7011
8.26262	0.6598
8.3024	0.6006
8.34219	0.6248
8.38198	0.566
8.42176	0.6073
8.46155	0.663
8.50133	0.63
8.54112	0.663
8.58091	0.6635
8.62069	0.6529
8.66048	0.6672
8.70026	0.6836
8.74005	0.6562
8.77984	0.531
8.81962	0.3741
8.85941	0.2096
8.89919	0.4685
8.93898	0.4961
8.97877	0.3073
9.01855	0.2511
9.05834	0.2685
9.09812	0.2142
9.13791	0.2648
9.1777	0.4432
9.21748	0.5526
9.25727	0.5313
9.29705	0.395
9.33684	0.3928
9.37663	0.5006
9.41641	0.5539
9.4562	0.5122
9.49598	0.4807
9.53577	0.266
9.57556	0.4907
9.61534	0.6115
9.65513	0.6376
9.69491	0.6104
9.7347	0.5538
9.77449	0.6325
9.81427	0.6308
9.85406	0.6513
9.89384	0.5186
9.93363	0.517
9.97342	0.5382
10.0132	0.6655
10.053	0.7032
10.0928	0.6939
10.1326	0.7273
10.1723	0.7302
10.2121	0.7
10.2519	0.7148
10.2917	0.7282
10.3315	0.7524
10.3713	0.762
10.4111	0.77
10.4508	0.7626
10.4906	0.7562
10.5304	0.758
10.5702	0.757
10.61	0.75
10.6498	0.7301
10.6896	0.6661
10.7294	0.5875
10.7691	0.6088
10.8089	0.6379
10.8487	0.4695
10.8885	0.27
10.9283	0.1935
10.9681	0.5225
11.0079	0.6661
11.0476	0.6658
11.0874	0.7098
11.1272	0.7439
11.167	0.7508
11.2068	0.742
11.2466	0.6913
11.2864	0.5465
11.3261	0.5127
11.3659	0.7115
11.4057	0.7553
11.4455	0.76
11.4853	0.6639
11.5251	0.3815
11.5649	0.5269
11.6046	0.7248
11.6444	0.77
11.6842	0.7658
11.724	0.7325
11.7638	0.718
11.8036	0.7527
11.8434	0.7827
11.8831	0.8046
11.9229	0.803
11.9627	0.762
12.0025	0.7775
12.0423	0.7954
12.0821	0.7891
12.1219	0.7961
12.1616	0.8095
12.2014	0.8201
12.2412	0.8319
12.281	0.8299
12.3208	0.8337
12.3606	0.8393
12.4004	0.8458
12.4401	0.8461
12.4799	0.839
12.5197	0.8297
12.5595	0.8097
12.5993	0.7697
12.6391	0.7699
12.6789	0.7817
12.7187	0.7945
12.7584	0.7941
12.7982	0.7926
12.838	0.7749
12.8778	0.7329
12.9176	0.6575
12.9574	0.4741
12.9972	0.2597
13.0369	0.1033
13.0767	0.1879
13.1165	0.4141
13.1563	0.4605
13.1961	0.3205
13.2359	0.1947
13.2757	0.3626
13.3154	0.5972
13.3552	0.6744
13.395	0.6911
13.4348	0.696
13.4746	0.6711
13.5144	0.6193
13.5542	0.4723
13.5939	0.2493
13.6337	0.1359
13.6735	0.1925
13.7133	0.493
13.7531	0.591
13.7929	0.6493
13.8327	0.6659
13.8724	0.668
13.9122	0.6708
13.952	0.664
13.9918	0.6182
14.0316	0.5384
14.0714	0.374
14.1112	0.1545
14.1509	0.1538
14.1907	0.2702
14.2305	0.2842
14.2703	0.1617
14.3101	0.1206
14.3499	0.35
14.3897	0.5394
14.4294	0.6403
14.4692	0.6818
14.509	0.693
14.5488	0.7
14.5886	0.6889
14.6284	0.671
14.6682	0.6778
14.708	0.6927
14.7477	0.682
14.7875	0.6575
14.8273	0.6718
14.8671	0.7084
14.9069	0.7271
14.9467	0.7423
14.9865	0.719
15.0262	0.718
15.066	0.726
15.1058	0.728
15.1456	0.723
15.1854	0.72
15.2252	0.708
15.265	0.7005
15.3047	0.7
15.3445	0.6984
15.3843	0.6796
15.4241	0.678
