Infrared Spectrum: 4-PHENYL-6-CHLORO-ACRIDONE
Formula: C19 H12 Cl N O
CAS: 116345-95-0
State: SOLID (1.0% IN KBr PELLET)
Class: COBLENTZ
Instrument: Not specified, most likely a prism, grating, or hybrid spectrometer.
Sampling: TRANSMISSION
Path length: 0.0355 CM THICK
Resolution: 4
Origin: ANDERSON PHYSICAL LABORATORY
1/CM	TRANSMITTANCE
674.766	0.685
683.177	0.5983
691.589	0.4757
700	0.317
708.411	0.7187
716.822	0.782
725.234	0.727
733.645	0.799
742.056	0.725
750.467	0.4811
758.879	0.185
767.29	0.3638
775.701	0.8859
784.112	0.878
792.524	0.848
800.935	0.811
809.346	0.824
817.757	0.869
826.169	0.889
834.58	0.812
842.991	0.557
851.402	0.787
859.814	0.757
868.225	0.451
876.636	0.7299
885.047	0.79
893.459	0.811
901.87	0.815
910.281	0.805
918.692	0.721
927.104	0.634
935.515	0.544
943.926	0.7361
952.337	0.2925
960.749	0.8419
969.16	0.863
977.571	0.796
985.982	0.791
994.394	0.773
1002.8	0.776
1011.22	0.766
1019.63	0.755
1028.04	0.73
1036.45	0.707
1044.86	0.748
1053.27	0.718
1061.68	0.652
1070.09	0.587
1078.51	0.391
1086.92	0.422
1095.33	0.647
1103.74	0.749
1112.15	0.763
1120.56	0.743
1128.97	0.731
1137.38	0.736
1145.8	0.724
1154.21	0.706
1162.62	0.67
1171.03	0.629
1179.44	0.4969
1187.85	0.499
1196.26	0.614
1204.67	0.701
1213.09	0.691
1221.5	0.671
1229.91	0.646
1238.32	0.596
1246.73	0.553
1255.14	0.415
1263.55	0.4251
1271.97	0.605
1280.38	0.626
1288.79	0.613
1297.2	0.596
1305.61	0.554
1314.02	0.433
1322.43	0.488
1330.84	0.545
1339.26	0.436
1347.67	0.47
1356.08	0.581
1364.49	0.563
1372.9	0.559
1381.31	0.574
1389.72	0.572
1398.13	0.535
1406.55	0.508
1414.96	0.476
1423.37	0.427
1431.78	0.298
1440.19	0.178
1448.6	0.323
1457.01	0.302
1465.42	0.397
1473.84	0.419
1482.25	0.388
1490.66	0.5
1499.07	0.416
1507.48	0.431
1515.89	0.3309
1524.3	0.221
1532.71	0.226
1541.13	0.314
1549.54	0.316
1557.95	0.232
1566.36	0.115
1574.77	0.068
1583.18	0.145
1591.59	0.158
1600	0.22
1608.42	0.187
1616.83	0.08
1625.24	0.073
1633.65	0.218
1642.06	0.502
1650.47	0.634
1658.88	0.767
1667.29	0.854
1675.71	0.875
1684.12	0.863
1692.53	0.851
1700.94	0.839
1709.35	0.842
1717.76	0.839
1726.17	0.805
1734.58	0.791
1743	0.812
1751.41	0.82
1759.82	0.815
1768.23	0.808
1776.64	0.788
1785.05	0.782
1793.46	0.782
1801.87	0.773
1810.29	0.761
1818.7	0.748
1827.11	0.743
1835.52	0.74
1843.93	0.73
1852.34	0.721
1860.75	0.719
1869.16	0.718
1877.58	0.712
1885.99	0.697
1894.4	0.676
1902.81	0.674
1911.22	0.679
1919.63	0.683
1928.04	0.677
1936.45	0.662
1944.87	0.65
1953.28	0.661
1961.69	0.658
1970.1	0.656
1978.51	0.655
1986.92	0.658
1995.33	0.658
2003.74	0.655
2012.16	0.653
2020.57	0.6505
2028.98	0.6445
2037.39	0.641
2045.8	0.6378
2054.21	0.636
2062.62	0.6343
2071.03	0.632
2079.45	0.6245
2087.86	0.622
2096.27	0.6153
2104.68	0.608
2113.09	0.6035
2121.5	0.6015
2129.91	0.5995
2138.32	0.598
2146.74	0.595
2155.15	0.593
2163.56	0.5923
2171.97	0.589
2180.38	0.5825
2188.79	0.58
2197.2	0.578
2205.61	0.577
2214.03	0.5735
2222.44	0.57
2230.85	0.5638
2239.26	0.559
2247.67	0.5555
2256.08	0.553
2264.49	0.551
2272.9	0.55
2281.32	0.547
2289.73	0.5445
2298.14	0.5425
2306.55	0.539
2314.96	0.5375
2323.37	0.534
2331.78	0.5278
2340.19	0.52
2348.61	0.5135
2357.02	0.509
2365.43	0.5065
2373.84	0.505
2382.25	0.5045
2390.66	0.503
2399.07	0.5023
2407.48	0.502
2415.9	0.502
2424.31	0.4985
2432.72	0.4933
2441.13	0.491
2449.54	0.491
2457.95	0.491
2466.36	0.49
2474.77	0.487
2483.19	0.4818
2491.6	0.479
2500.01	0.479
2508.42	0.479
2516.83	0.4788
2525.24	0.477
2533.65	0.4708
2542.06	0.467
2550.48	0.4623
2558.89	0.4575
2567.3	0.4525
2575.71	0.449
2584.12	0.446
2592.53	0.445
2600.94	0.443
2609.35	0.443
2617.77	0.442
2626.18	0.44
2634.59	0.4393
2643	0.439
2651.41	0.4368
2659.82	0.434
2668.23	0.433
2676.64	0.43
2685.06	0.428
2693.47	0.427
2701.88	0.425
2710.29	0.424
2718.7	0.422
2727.11	0.422
2735.52	0.421
2743.93	0.421
2752.35	0.4165
2760.76	0.4055
2769.17	0.403
2777.58	0.403
2785.99	0.401
2794.4	0.4
2802.81	0.3958
2811.22	0.389
2819.64	0.3823
2828.05	0.3765
2836.46	0.373
2844.87	0.371
2853.28	0.3673
2861.69	0.363
2870.1	0.361
2878.51	0.358
2886.93	0.3545
2895.34	0.3505
2903.75	0.3475
2912.16	0.344
2920.57	0.3408
2928.98	0.3375
2937.39	0.3325
2945.8	0.329
2954.22	0.3258
2962.63	0.3205
2971.04	0.311
2979.45	0.304
2987.86	0.2988
2996.27	0.296
3004.68	0.2953
3013.09	0.293
3021.51	0.293
3029.92	0.293
3038.33	0.293
3046.74	0.293
3055.15	0.289
3063.56	0.282
3071.97	0.2785
3080.38	0.277
3088.8	0.2747
3097.21	0.273
3105.62	0.272
3114.03	0.272
3122.44	0.2725
3130.85	0.275
3139.26	0.275
3147.67	0.272
3156.09	0.2645
3164.5	0.263
3172.91	0.2645
3181.32	0.271
3189.73	0.271
3198.14	0.271
3206.55	0.271
3214.96	0.271
3223.38	0.2705
3231.79	0.266
3240.2	0.2635
3248.61	0.26
3257.02	0.259
3265.43	0.259
3273.84	0.2598
3282.25	0.262
3290.67	0.268
3299.08	0.269
3307.49	0.269
3315.9	0.269
3324.31	0.2675
3332.72	0.2655
3341.13	0.2598
3349.54	0.256
3357.96	0.2538
3366.37	0.252
3374.78	0.2485
3383.19	0.245
3391.6	0.242
3400.01	0.242
3408.42	0.2413
3416.83	0.241
3425.25	0.2428
3433.66	0.246
3442.07	0.2502
3450.48	0.256
3458.89	0.257
3467.3	0.259
3475.71	0.2627
3484.12	0.265
3492.54	0.2665
3500.95	0.2715
3509.36	0.272
3517.77	0.271
3526.18	0.2675
3534.59	0.264
3543	0.2605
3551.41	0.256
3559.83	0.2516
3568.24	0.2415
3576.65	0.239
3585.06	0.241
3593.47	0.2524
3601.88	0.2669
3610.29	0.2748
3618.7	0.28
3627.12	0.2877
3635.53	0.2954
3643.94	0.3017
3652.35	0.308
3660.76	0.311
3669.17	0.315
3677.58	0.3185
3685.99	0.319
3694.41	0.32
3702.82	0.32
3711.23	0.32
3719.64	0.317
3728.05	0.3138
3736.46	0.312
3744.87	0.3103
3753.28	0.31
3761.7	0.31
3770.11	0.31
3778.52	0.308
3786.93	0.304
3795.34	0.302
3803.75	0.302
3812.16	0.2995
3820.57	0.299
3828.99	0.299
3837.4	0.299
3845.81	0.2983
3854.22	0.298
3862.63	0.296
3871.04	0.295
3879.45	0.293
3887.86	0.293
3896.28	0.293
3904.69	0.293
3913.1	0.293
3921.51	0.293
3929.92	0.293
3938.33	0.291
3946.74	0.2892
3955.15	0.287
3963.57	0.284
3971.98	0.284
3980.39	0.284
3988.8	0.284
