Infrared Spectrum: 1,3-CYCLOBUTANEDIOL, 2,2,4,4-TETRAMETHYL-, MONOFORMATE
Formula: C9 H16 O3
CAS: 116373-50-3
Class: COBLENTZ
Instrument: Not specified, most likely a prism, grating, or hybrid spectrometer.
Sampling: TRANSMISSION
Path length: SMEAR
Resolution: 4
Origin: TENNESSEE EASTMAN COMPANY, RESEARCH LABORATORIES
MICROMETERS	TRANSMITTANCE
2.027	0.917
2.06794	0.926
2.10887	0.926
2.14981	0.928
2.19074	0.933
2.23168	0.929
2.27261	0.921
2.31355	0.921
2.35448	0.924
2.39542	0.924
2.43635	0.921
2.47729	0.926
2.51823	0.928
2.55916	0.931
2.6001	0.931
2.64103	0.934
2.68197	0.931
2.7229	0.873
2.76384	0.566
2.80477	0.337
2.84571	0.251
2.88664	0.212
2.92758	0.222
2.96851	0.303
3.00945	0.424
3.05039	0.535
3.09132	0.655
3.13226	0.729
3.17319	0.794
3.21413	0.82
3.25506	0.833
3.296	0.784
3.33693	0.212
3.37787	0.128
3.4188	0.226
3.45974	0.34
3.50068	0.726
3.54161	0.785
3.58255	0.825
3.62348	0.823
3.66442	0.801
3.70535	0.844
3.74629	0.866
3.78722	0.88
3.82816	0.883
3.86909	0.892
3.91003	0.902
3.95096	0.914
3.9919	0.921
4.03284	0.924
4.07377	0.924
4.11471	0.926
4.15564	0.926
4.19658	0.919
4.23751	0.916
4.27845	0.916
4.31938	0.912
4.36032	0.928
4.40125	0.94
4.44219	0.945
4.48313	0.948
4.52406	0.943
4.565	0.943
4.60593	0.943
4.64687	0.943
4.6878	0.948
4.72874	0.948
4.76967	0.948
4.81061	0.946
4.85154	0.946
4.89248	0.946
4.93341	0.946
4.97435	0.952
5.01529	0.962
5.05622	0.964
5.09716	0.964
5.13809	0.962
5.17903	0.962
5.21996	0.96
5.2609	0.96
5.30183	0.95
5.34277	0.948
5.3837	0.953
5.42464	0.952
5.46558	0.945
5.50651	0.924
5.54745	0.897
5.58838	0.856
5.62932	0.818
5.67025	0.69
5.71119	0.47
5.75212	0.136
5.79306	0.039
5.83399	0.049
5.87493	0.082
5.91586	0.241
5.9568	0.513
5.99774	0.655
6.03867	0.722
6.07961	0.761
6.12054	0.797
6.16148	0.823
6.20241	0.849
6.24335	0.871
6.28428	0.888
6.32522	0.892
6.36615	0.892
6.40709	0.885
6.44803	0.886
6.48896	0.88
6.5299	0.878
6.57083	0.864
6.61177	0.859
6.6527	0.845
6.69364	0.789
6.73457	0.587
6.77551	0.188
6.81644	0.25
6.85738	0.306
6.89831	0.426
6.93925	0.556
6.98019	0.592
7.02112	0.57
7.06206	0.566
7.10299	0.594
7.14393	0.578
7.18486	0.404
7.2258	0.272
7.26673	0.28
7.30767	0.351
7.3486	0.541
7.38954	0.582
7.43048	0.619
7.47141	0.621
7.51235	0.546
7.55328	0.491
7.59422	0.479
7.63515	0.513
7.67609	0.554
7.71702	0.566
7.75796	0.565
7.79889	0.595
7.83983	0.614
7.88076	0.606
7.9217	0.589
7.96264	0.602
8.00357	0.613
8.04451	0.583
8.08544	0.498
8.12638	0.375
8.16731	0.25
8.20825	0.179
8.24918	0.118
8.29012	0.085
8.33105	0.061
8.37199	0.047
8.41293	0.044
8.45386	0.039
8.4948	0.039
8.53573	0.041
8.57667	0.059
8.6176	0.107
8.65854	0.181
8.69947	0.275
8.74041	0.371
8.78134	0.426
8.82228	0.426
8.86321	0.359
8.90415	0.265
8.94509	0.183
8.98602	0.143
9.02696	0.119
9.06789	0.113
9.10883	0.126
9.14976	0.191
9.1907	0.287
9.23163	0.414
9.27257	0.515
9.3135	0.549
9.35444	0.517
9.39538	0.481
9.43631	0.453
9.47725	0.465
9.51818	0.498
9.55912	0.539
9.60005	0.575
9.64099	0.589
9.68192	0.544
9.72286	0.469
9.76379	0.424
9.80473	0.393
9.84566	0.438
9.8866	0.501
9.92754	0.462
9.96847	0.335
10.0094	0.217
10.0503	0.176
10.0913	0.181
10.1322	0.227
10.1731	0.306
10.2141	0.363
10.255	0.376
10.296	0.349
10.3369	0.263
10.3778	0.231
10.4188	0.248
10.4597	0.308
10.5006	0.354
10.5416	0.428
10.5825	0.553
10.6234	0.659
10.6644	0.729
10.7053	0.779
10.7462	0.803
10.7872	0.82
10.8281	0.83
10.8691	0.835
10.91	0.839
10.9509	0.839
10.9919	0.837
11.0328	0.818
11.0737	0.792
11.1147	0.78
11.1556	0.779
11.1965	0.794
11.2375	0.808
11.2784	0.818
11.3193	0.821
11.3603	0.823
11.4012	0.818
11.4421	0.796
11.4831	0.773
11.524	0.75
11.565	0.748
11.6059	0.756
11.6468	0.773
11.6878	0.78
11.7287	0.782
11.7696	0.787
11.8106	0.797
11.8515	0.809
11.8924	0.816
11.9334	0.816
11.9743	0.801
12.0152	0.789
12.0562	0.77
12.0971	0.75
12.138	0.739
12.179	0.726
12.2199	0.722
12.2609	0.727
12.3018	0.739
12.3427	0.76
12.3837	0.777
12.4246	0.792
12.4655	0.803
12.5065	0.806
12.5474	0.806
12.5883	0.797
12.6293	0.779
12.6702	0.751
12.7111	0.739
12.7521	0.726
12.793	0.715
12.834	0.693
12.8749	0.691
12.9158	0.715
12.9568	0.739
12.9977	0.753
13.0386	0.768
13.0796	0.779
13.1205	0.782
13.1614	0.775
13.2024	0.746
13.2433	0.703
13.2842	0.657
13.3252	0.621
13.3661	0.616
13.407	0.616
13.448	0.636
13.4889	0.671
13.5299	0.707
13.5708	0.738
13.6117	0.748
13.6527	0.756
13.6936	0.758
13.7345	0.758
13.7755	0.758
13.8164	0.758
13.8573	0.758
13.8983	0.751
13.9392	0.744
13.9801	0.741
14.0211	0.732
14.062	0.726
14.1029	0.72
14.1439	0.717
14.1848	0.714
14.2258	0.71
14.2667	0.71
14.3076	0.705
14.3486	0.7
14.3895	0.696
14.4304	0.695
14.4714	0.69
14.5123	0.683
14.5532	0.681
14.5942	0.678
14.6351	0.671
14.676	0.666
14.717	0.66
14.7579	0.655
14.7989	0.65
14.8398	0.647
14.8807	0.638
14.9217	0.635
14.9626	0.633
15.0035	0.63
15.0445	0.623
15.0854	0.616
15.1263	0.606
15.1673	0.602
15.2082	0.599
15.2491	0.597
15.2901	0.592
15.331	0.59
15.3719	0.59
15.4129	0.59
15.4538	0.59
15.4948	0.589
15.5357	0.587
15.5766	0.583
15.6176	0.583
15.6585	0.582
15.6994	0.582
15.7404	0.58
15.7813	0.58
15.8222	0.58
15.8632	0.58
15.9041	0.58
15.945	0.58
15.986	0.58
