Infrared Spectrum: 4,4' SEC BUTYLIDENE BIS(O-ALLYLPHENOL)
Formula: C22 H26 O2
CAS: 116346-11-3
State: SOLUTION (10% CCl4 FOR 2.5-7.5, 10% CS2 FOR 7.5-16 MICRONS)
Class: COBLENTZ
Instrument: Not specified, most likely a prism, grating, or hybrid spectrometer.
Sampling: TRANSMISSION
Path length: 0.01 CM, 0.01 CM
Resolution: 4
Origin: DOW CHEMICAL COMPANY
MICROMETERS	TRANSMITTANCE
2.001	0.9
2.04097	0.9
2.08094	0.9
2.12091	0.901
2.16088	0.905
2.20085	0.898
2.24082	0.891
2.28079	0.883
2.32076	0.891
2.36073	0.893
2.4007	0.896
2.44067	0.898
2.48064	0.898
2.52061	0.893
2.56058	0.891
2.60056	0.895
2.64053	0.9
2.6805	0.886
2.72047	0.851
2.76044	0.652
2.80041	0.5
2.84038	0.425
2.88035	0.482
2.92032	0.552
2.96029	0.662
3.00026	0.752
3.04023	0.801
3.0802	0.835
3.12017	0.85
3.16014	0.858
3.20011	0.813
3.24008	0.712
3.28005	0.653
3.32002	0.63
3.35999	0.364
3.39996	0.452
3.43993	0.499
3.4799	0.63
3.51987	0.8
3.55984	0.881
3.59981	0.886
3.63978	0.886
3.67975	0.891
3.71972	0.893
3.75969	0.895
3.79967	0.898
3.83964	0.901
3.87961	0.901
3.91958	0.896
3.95955	0.893
3.99952	0.896
4.03949	0.901
4.07946	0.903
4.11943	0.903
4.1594	0.903
4.19937	0.891
4.23934	0.883
4.27931	0.89
4.31928	0.891
4.35925	0.9
4.39922	0.918
4.43919	0.935
4.47916	0.935
4.51913	0.936
4.5591	0.938
4.59907	0.938
4.63904	0.94
4.67901	0.936
4.71898	0.935
4.75895	0.936
4.79892	0.936
4.83889	0.931
4.87886	0.93
4.91883	0.93
4.9588	0.931
4.99878	0.92
5.03875	0.918
5.07872	0.925
5.11869	0.935
5.15866	0.933
5.19863	0.93
5.2386	0.91
5.27857	0.89
5.31854	0.881
5.35851	0.875
5.39848	0.875
5.43845	0.876
5.47842	0.883
5.51839	0.896
5.55836	0.9
5.59833	0.895
5.6383	0.895
5.67827	0.896
5.71824	0.898
5.75821	0.9
5.79818	0.896
5.83815	0.895
5.87812	0.891
5.91809	0.885
5.95806	0.875
5.99803	0.846
6.038	0.797
6.07797	0.62
6.11794	0.652
6.15791	0.682
6.19789	0.584
6.23786	0.565
6.27783	0.502
6.3178	0.54
6.35777	0.54
6.39774	0.485
6.43771	0.445
6.47768	0.462
6.51765	0.507
6.55762	0.475
6.59759	0.279
6.63756	0.128
6.67753	0.094
6.7175	0.469
6.75747	0.552
6.79744	0.542
6.83741	0.524
6.87738	0.562
6.91735	0.54
6.95732	0.47
6.99729	0.482
7.03726	0.487
7.07723	0.552
7.1172	0.703
7.15717	0.77
7.19714	0.658
7.23711	0.592
7.27708	0.647
7.31705	0.7
7.35702	0.668
7.397	0.617
7.43697	0.522
7.47694	0.45
7.51691	0.439
7.55688	0.5
7.59685	0.585
7.63682	0.574
7.67679	0.535
7.71676	0.524
7.75673	0.557
7.7967	0.504
7.83667	0.402
7.87664	0.261
7.91661	0.173
7.95658	0.271
7.99655	0.369
8.03652	0.349
8.07649	0.314
8.11646	0.329
8.15643	0.407
8.1964	0.402
8.23637	0.349
8.27634	0.277
8.31631	0.236
8.35628	0.186
8.39625	0.183
8.43622	0.234
8.47619	0.301
8.51616	0.339
8.55613	0.339
8.59611	0.377
8.63608	0.474
8.67605	0.53
8.71602	0.585
8.75599	0.64
8.79596	0.642
8.83593	0.58
8.8759	0.5
8.91587	0.4
8.95584	0.357
8.99581	0.364
9.03578	0.442
9.07575	0.499
9.11572	0.529
9.15569	0.569
9.19566	0.615
9.23563	0.633
9.2756	0.653
9.31557	0.697
9.35554	0.753
9.39551	0.793
9.43548	0.803
9.47545	0.813
9.51542	0.801
9.55539	0.76
9.59536	0.747
9.63533	0.772
9.6753	0.8
9.71527	0.815
9.75524	0.828
9.79522	0.828
9.83519	0.805
9.87516	0.777
9.91513	0.702
9.9551	0.602
9.99507	0.464
10.035	0.417
10.075	0.492
10.115	0.613
10.1549	0.715
10.1949	0.82
10.2349	0.845
10.2749	0.855
10.3148	0.861
10.3548	0.863
10.3948	0.861
10.4347	0.85
10.4747	0.83
10.5147	0.8
10.5547	0.762
10.5946	0.73
10.6346	0.69
10.6746	0.655
10.7145	0.607
10.7545	0.537
10.7945	0.422
10.8344	0.367
10.8744	0.351
10.9144	0.332
10.9544	0.282
10.9943	0.252
11.0343	0.309
11.0743	0.427
11.1142	0.512
11.1542	0.57
11.1942	0.592
11.2341	0.592
11.2741	0.58
11.3141	0.574
11.3541	0.579
11.394	0.61
11.434	0.64
11.474	0.657
11.5139	0.66
11.5539	0.652
11.5939	0.638
11.6339	0.625
11.6738	0.62
11.7138	0.62
11.7538	0.633
11.7937	0.655
11.8337	0.662
11.8737	0.657
11.9136	0.65
11.9536	0.622
11.9936	0.564
12.0336	0.464
12.0735	0.367
12.1135	0.321
12.1535	0.317
12.1934	0.314
12.2334	0.317
12.2734	0.336
12.3133	0.354
12.3533	0.376
12.3933	0.4
12.4333	0.429
12.4732	0.48
12.5132	0.53
12.5532	0.599
12.5931	0.63
12.6331	0.64
12.6731	0.633
12.713	0.613
12.753	0.59
12.793	0.554
12.833	0.517
12.8729	0.507
12.9129	0.537
12.9529	0.569
12.9928	0.605
13.0328	0.637
13.0728	0.66
13.1128	0.673
13.1527	0.683
13.1927	0.68
13.2327	0.663
13.2726	0.632
13.3126	0.612
13.3526	0.622
13.3925	0.65
13.4325	0.67
13.4725	0.672
13.5125	0.665
13.5524	0.657
13.5924	0.653
13.6324	0.657
13.6723	0.662
13.7123	0.67
13.7523	0.675
13.7922	0.683
13.8322	0.69
13.8722	0.697
13.9122	0.703
13.9521	0.703
13.9921	0.703
14.0321	0.695
14.072	0.69
14.112	0.683
14.152	0.68
14.192	0.672
14.2319	0.668
14.2719	0.662
14.3119	0.653
14.3518	0.647
14.3918	0.64
14.4318	0.63
14.4717	0.617
14.5117	0.602
14.5517	0.59
14.5917	0.575
14.6316	0.555
14.6716	0.542
14.7116	0.53
14.7515	0.515
14.7915	0.504
14.8315	0.494
14.8714	0.489
14.9114	0.48
14.9514	0.479
14.9914	0.477
15.0313	0.474
15.0713	0.465
15.1113	0.455
15.1512	0.445
15.1912	0.437
15.2312	0.424
15.2712	0.412
15.3111	0.404
15.3511	0.397
15.3911	0.392
15.431	0.391
15.471	0.391
15.511	0.391
15.5509	0.391
15.5909	0.389
15.6309	0.389
15.6709	0.384
15.7108	0.381
15.7508	0.376
15.7908	0.371
15.8307	0.364
15.8707	0.362
15.9107	0.367
