Infrared Spectrum: 1,3-CYCLOBUTANEDIOL, 2,2,4,4-TETRAMETHYL-, MONOHEXANOATE
Formula: C14 H26 O3
CAS: 116373-51-4
Boiling point: 157-158 C AT 16 mmHg
Class: COBLENTZ
Instrument: Not specified, most likely a prism, grating, or hybrid spectrometer.
Sampling: TRANSMISSION
Path length: SMEAR
Resolution: 4
Origin: TENNESSEE EASTMAN COMPANY, RESEARCH LABORATORIES
MICROMETERS	TRANSMITTANCE
2.02	1.001
2.06093	0.989
2.10185	0.987
2.14278	0.987
2.1837	0.987
2.22463	0.981
2.26556	0.948
2.30648	0.941
2.34741	0.945
2.38833	0.945
2.42926	0.945
2.47018	0.948
2.51111	0.95
2.55204	0.953
2.59296	0.953
2.63389	0.953
2.67481	0.953
2.71574	0.946
2.75667	0.823
2.79759	0.592
2.83852	0.422
2.87944	0.367
2.92037	0.414
2.96129	0.539
3.00222	0.651
3.04315	0.745
3.08407	0.814
3.125	0.845
3.16592	0.871
3.20685	0.907
3.24778	0.912
3.2887	0.871
3.32963	0.467
3.37055	0.096
3.41148	0.274
3.4524	0.286
3.49333	0.695
3.53426	0.812
3.57518	0.869
3.61611	0.883
3.65703	0.878
3.69796	0.886
3.73889	0.902
3.77981	0.91
3.82074	0.914
3.86166	0.922
3.90259	0.927
3.94352	0.939
3.98444	0.941
4.02537	0.945
4.06629	0.945
4.10722	0.945
4.14814	0.946
4.18907	0.945
4.23	0.946
4.27092	0.941
4.31185	0.938
4.35277	0.943
4.3937	0.95
4.43463	0.95
4.47555	0.95
4.51648	0.95
4.5574	0.95
4.59833	0.95
4.63925	0.95
4.68018	0.948
4.72111	0.948
4.76203	0.95
4.80296	0.951
4.84388	0.951
4.88481	0.951
4.92574	0.95
4.96666	0.951
5.00759	0.957
5.04851	0.955
5.08944	0.953
5.13036	0.955
5.17129	0.953
5.21222	0.955
5.25314	0.951
5.29407	0.951
5.33499	0.948
5.37592	0.941
5.41685	0.936
5.45777	0.927
5.4987	0.919
5.53962	0.907
5.58055	0.883
5.62148	0.835
5.6624	0.719
5.70333	0.396
5.74425	0.17
5.78518	0.195
5.8261	0.182
5.86703	0.352
5.90796	0.634
5.94888	0.75
5.98981	0.792
6.03073	0.828
6.07166	0.835
6.11259	0.852
6.15351	0.864
6.19444	0.878
6.23536	0.89
6.27629	0.898
6.31721	0.9
6.35814	0.898
6.39907	0.884
6.43999	0.883
6.48092	0.864
6.52184	0.865
6.56277	0.853
6.6037	0.843
6.64462	0.841
6.68555	0.8
6.72647	0.692
6.7674	0.317
6.80832	0.384
6.84925	0.443
6.89018	0.553
6.9311	0.623
6.97203	0.634
7.01295	0.606
7.05388	0.654
7.09481	0.692
7.13573	0.661
7.17666	0.539
7.21758	0.369
7.25851	0.383
7.29944	0.448
7.34036	0.558
7.38129	0.623
7.42221	0.584
7.46314	0.572
7.50406	0.577
7.54499	0.518
7.58592	0.451
7.62684	0.472
7.66777	0.487
7.70869	0.458
7.74962	0.443
7.79055	0.434
7.83147	0.431
7.8724	0.446
7.91332	0.426
7.95425	0.35
7.99517	0.3
8.0361	0.317
8.07703	0.378
8.11795	0.391
8.15888	0.391
8.1998	0.396
8.24073	0.4
8.28166	0.405
8.32258	0.369
8.36351	0.316
8.40443	0.259
8.44536	0.211
8.48628	0.189
8.52721	0.206
8.56814	0.3
8.60906	0.424
8.64999	0.546
8.69091	0.616
8.73184	0.649
8.77277	0.652
8.81369	0.616
8.85462	0.536
8.89554	0.448
8.93647	0.359
8.9774	0.317
9.01832	0.28
9.05925	0.257
9.10017	0.264
9.1411	0.347
9.18202	0.474
9.22295	0.558
9.26388	0.585
9.3048	0.585
9.34573	0.565
9.38665	0.553
9.42758	0.518
9.46851	0.439
9.50943	0.362
9.55036	0.317
9.59128	0.31
9.63221	0.312
9.67313	0.338
9.71406	0.365
9.75499	0.42
9.79591	0.472
9.83684	0.475
9.87776	0.439
9.91869	0.39
9.95962	0.369
10.0005	0.415
10.0415	0.486
10.0824	0.558
10.1233	0.601
10.1642	0.613
10.2052	0.613
10.2461	0.63
10.287	0.676
10.3279	0.73
10.3689	0.762
10.4098	0.774
10.4507	0.75
10.4917	0.738
10.5326	0.762
10.5735	0.786
10.6144	0.8
10.6554	0.807
10.6963	0.81
10.7372	0.812
10.7781	0.816
10.8191	0.817
10.86	0.817
10.9009	0.814
10.9418	0.812
10.9828	0.817
11.0237	0.823
11.0646	0.824
11.1055	0.829
11.1465	0.84
11.1874	0.852
11.2283	0.853
11.2692	0.853
11.3102	0.855
11.3511	0.855
11.392	0.841
11.4329	0.829
11.4739	0.821
11.5148	0.812
11.5557	0.804
11.5966	0.802
11.6376	0.814
11.6785	0.824
11.7194	0.829
11.7604	0.833
11.8013	0.84
11.8422	0.84
11.8831	0.845
11.9241	0.852
11.965	0.859
12.0059	0.864
12.0468	0.864
12.0878	0.864
12.1287	0.862
12.1696	0.85
12.2105	0.841
12.2515	0.835
12.2924	0.831
12.3333	0.829
12.3742	0.826
12.4152	0.826
12.4561	0.828
12.497	0.828
12.5379	0.828
12.5789	0.829
12.6198	0.829
12.6607	0.826
12.7016	0.821
12.7426	0.81
12.7835	0.8
12.8244	0.783
12.8654	0.764
12.9063	0.752
12.9472	0.759
12.9881	0.783
13.0291	0.804
13.07	0.817
13.1109	0.823
13.1518	0.824
13.1928	0.824
13.2337	0.819
13.2746	0.81
13.3155	0.804
13.3565	0.795
13.3974	0.786
13.4383	0.773
13.4792	0.759
13.5202	0.747
13.5611	0.733
13.602	0.73
13.6429	0.733
13.6839	0.737
13.7248	0.742
13.7657	0.75
13.8066	0.757
13.8476	0.761
13.8885	0.762
13.9294	0.762
13.9703	0.761
14.0113	0.757
14.0522	0.754
14.0931	0.749
14.1341	0.742
14.175	0.742
14.2159	0.738
14.2568	0.733
14.2978	0.73
14.3387	0.728
14.3796	0.726
14.4205	0.718
14.4615	0.713
14.5024	0.704
14.5433	0.702
14.5842	0.697
14.6252	0.69
14.6661	0.685
14.707	0.68
14.7479	0.673
14.7889	0.666
14.8298	0.656
14.8707	0.651
14.9116	0.642
14.9526	0.634
14.9935	0.63
15.0344	0.62
15.0753	0.611
15.1163	0.604
15.1572	0.599
15.1981	0.592
15.2391	0.587
15.28	0.584
15.3209	0.58
15.3618	0.573
15.4028	0.573
15.4437	0.57
15.4846	0.567
15.5255	0.56
15.5665	0.556
15.6074	0.554
15.6483	0.553
15.6892	0.553
15.7302	0.551
15.7711	0.549
15.812	0.551
15.8529	0.551
15.8939	0.551
15.9348	0.551
15.9757	0.551
