Infrared Spectrum: 1,3-CYCLOBUTANEDIOL, 2,2,4,4-TETRAMETHYL-, MONO(2-ETHYLHEXANOATE)
Formula: C16 H30 O3
CAS: 116373-48-9
Boiling point: 115-117 C AT 0.9 mmHg
Class: COBLENTZ
Instrument: Not specified, most likely a prism, grating, or hybrid spectrometer.
Sampling: TRANSMISSION
Path length: SMEAR
Resolution: 4
Origin: TENNESSEE EASTMAN COMPANY, RESEARCH LABORATORIES
MICROMETERS	TRANSMITTANCE
2.02	0.981
2.06097	0.979
2.10194	0.975
2.1429	0.972
2.18387	0.974
2.22484	0.963
2.26581	0.936
2.30677	0.933
2.34774	0.938
2.38871	0.939
2.42968	0.939
2.47065	0.941
2.51161	0.948
2.55258	0.95
2.59355	0.951
2.63452	0.951
2.67548	0.951
2.71645	0.931
2.75742	0.782
2.79839	0.523
2.83935	0.394
2.88032	0.365
2.92129	0.428
2.96226	0.566
3.00323	0.66
3.04419	0.737
3.08516	0.799
3.12613	0.826
3.1671	0.854
3.20806	0.886
3.24903	0.891
3.29	0.855
3.33097	0.481
3.37194	0.046
3.4129	0.19
3.45387	0.2
3.49484	0.656
3.53581	0.801
3.57677	0.855
3.61774	0.869
3.65871	0.861
3.69968	0.881
3.74065	0.898
3.78161	0.907
3.82258	0.915
3.86355	0.922
3.90452	0.931
3.94548	0.938
3.98645	0.941
4.02742	0.945
4.06839	0.945
4.10935	0.946
4.15032	0.946
4.19129	0.946
4.23226	0.946
4.27323	0.936
4.31419	0.933
4.35516	0.941
4.39613	0.948
4.4371	0.95
4.47806	0.951
4.51903	0.951
4.56	0.951
4.60097	0.95
4.64194	0.95
4.6829	0.95
4.72387	0.95
4.76484	0.95
4.80581	0.95
4.84677	0.95
4.88774	0.95
4.92871	0.95
4.96968	0.95
5.01065	0.955
5.05161	0.957
5.09258	0.951
5.13355	0.953
5.17452	0.955
5.21548	0.951
5.25645	0.953
5.29742	0.951
5.33839	0.948
5.37935	0.946
5.42032	0.936
5.46129	0.929
5.50226	0.919
5.54323	0.897
5.58419	0.857
5.62516	0.816
5.66613	0.732
5.7071	0.469
5.74806	0.072
5.78903	0.09
5.83	0.087
5.87097	0.238
5.91194	0.566
5.9529	0.722
5.99387	0.768
6.03484	0.799
6.07581	0.806
6.11677	0.825
6.15774	0.837
6.19871	0.857
6.23968	0.869
6.28065	0.883
6.32161	0.883
6.36258	0.873
6.40355	0.855
6.44452	0.85
6.48548	0.842
6.52645	0.838
6.56742	0.828
6.60839	0.816
6.64935	0.801
6.69032	0.735
6.73129	0.569
6.77226	0.147
6.81323	0.183
6.85419	0.295
6.89516	0.43
6.93613	0.626
6.9771	0.66
7.01806	0.65
7.05903	0.643
7.1	0.622
7.14097	0.487
7.18194	0.303
7.2229	0.226
7.26387	0.303
7.30484	0.391
7.34581	0.552
7.38677	0.566
7.42774	0.547
7.46871	0.564
7.50968	0.53
7.55065	0.5
7.59161	0.495
7.63258	0.492
7.67355	0.488
7.71452	0.437
7.75548	0.37
7.79645	0.339
7.83742	0.32
7.87839	0.253
7.91935	0.25
7.96032	0.277
8.00129	0.343
8.04226	0.377
8.08323	0.334
8.12419	0.26
8.16516	0.262
8.20613	0.257
8.2471	0.245
8.28806	0.224
8.32903	0.183
8.37	0.133
8.41097	0.087
8.45194	0.068
8.4929	0.06
8.53387	0.08
8.57484	0.149
8.61581	0.214
8.65677	0.205
8.69774	0.186
8.73871	0.272
8.77968	0.373
8.82065	0.399
8.86161	0.322
8.90258	0.245
8.94355	0.21
8.98452	0.198
9.02548	0.188
9.06645	0.174
9.10742	0.161
9.14839	0.197
9.18935	0.315
9.23032	0.368
9.27129	0.382
9.31226	0.403
9.35323	0.432
9.39419	0.435
9.43516	0.437
9.47613	0.428
9.5171	0.339
9.55806	0.243
9.59903	0.188
9.64	0.178
9.68097	0.176
9.72194	0.202
9.7629	0.26
9.80387	0.315
9.84484	0.317
9.88581	0.293
9.92677	0.257
9.96774	0.231
10.0087	0.279
10.0497	0.367
10.0906	0.454
10.1316	0.499
10.1726	0.5
10.2135	0.504
10.2545	0.536
10.2955	0.591
10.3365	0.646
10.3774	0.672
10.4184	0.679
10.4594	0.65
10.5003	0.651
10.5413	0.696
10.5823	0.727
10.6232	0.747
10.6642	0.773
10.7052	0.794
10.7461	0.802
10.7871	0.801
10.8281	0.795
10.869	0.77
10.91	0.758
10.951	0.763
10.9919	0.773
11.0329	0.78
11.0739	0.792
11.1148	0.804
11.1558	0.813
11.1968	0.819
11.2377	0.819
11.2787	0.819
11.3197	0.819
11.3606	0.813
11.4016	0.804
11.4426	0.795
11.4835	0.787
11.5245	0.783
11.5655	0.783
11.6065	0.792
11.6474	0.802
11.6884	0.813
11.7294	0.823
11.7703	0.83
11.8113	0.831
11.8523	0.83
11.8932	0.83
11.9342	0.83
11.9752	0.825
12.0161	0.813
12.0571	0.79
12.0981	0.768
12.139	0.751
12.18	0.735
12.221	0.73
12.2619	0.732
12.3029	0.744
12.3439	0.747
12.3848	0.751
12.4258	0.742
12.4668	0.73
12.5077	0.72
12.5487	0.713
12.5897	0.713
12.6306	0.715
12.6716	0.722
12.7126	0.732
12.7535	0.739
12.7945	0.739
12.8355	0.722
12.8765	0.699
12.9174	0.686
12.9584	0.687
12.9994	0.723
13.0403	0.747
13.0813	0.756
13.1223	0.759
13.1632	0.756
13.2042	0.73
13.2452	0.716
13.2861	0.708
13.3271	0.708
13.3681	0.715
13.409	0.722
13.45	0.723
13.491	0.715
13.5319	0.701
13.5729	0.689
13.6139	0.687
13.6548	0.684
13.6958	0.687
13.7368	0.703
13.7777	0.722
13.8187	0.73
13.8597	0.74
13.9006	0.744
13.9416	0.747
13.9826	0.749
14.0235	0.746
14.0645	0.744
14.1055	0.739
14.1465	0.735
14.1874	0.734
14.2284	0.727
14.2694	0.723
14.3103	0.716
14.3513	0.713
14.3923	0.708
14.4332	0.703
14.4742	0.694
14.5152	0.686
14.5561	0.68
14.5971	0.675
14.6381	0.668
14.679	0.66
14.72	0.653
14.761	0.648
14.8019	0.643
14.8429	0.636
14.8839	0.626
14.9248	0.62
14.9658	0.615
15.0068	0.607
15.0477	0.6
15.0887	0.595
15.1297	0.586
15.1706	0.581
15.2116	0.576
15.2526	0.572
15.2935	0.567
15.3345	0.562
15.3755	0.557
15.4165	0.557
15.4574	0.552
15.4984	0.552
15.5394	0.547
15.5803	0.543
15.6213	0.54
15.6623	0.538
15.7032	0.535
15.7442	0.535
15.7852	0.533
15.8261	0.533
15.8671	0.535
15.9081	0.535
15.949	0.535
15.99	0.535
