Infrared Spectrum: Alpha,Alpha-ETHYLENEDIIMINO-BIS-(4-TERT-BUTYL-o-CRESOL)
Formula: C24 H36 N2 O2
CAS: 116373-76-3
State: SOLID (MINERAL OIL MULL)
Class: COBLENTZ
Instrument: Not specified, most likely a prism, grating, or hybrid spectrometer.
Sampling: TRANSMISSION
Resolution: 4
Origin: DOW CHEMICAL COMPANY
MICROMETERS	TRANSMITTANCE
2.035	0.493
2.07412	0.5
2.11324	0.504
2.15235	0.511
2.19147	0.517
2.23059	0.522
2.26971	0.519
2.30883	0.519
2.34795	0.522
2.38706	0.533
2.42618	0.545
2.4653	0.555
2.50442	0.564
2.54354	0.569
2.58265	0.571
2.62177	0.576
2.66089	0.58
2.70001	0.582
2.73913	0.587
2.77825	0.588
2.81736	0.59
2.85648	0.592
2.8956	0.595
2.93472	0.595
2.97384	0.582
3.01295	0.556
3.05207	0.457
3.09119	0.449
3.13031	0.529
3.16943	0.504
3.20855	0.485
3.24766	0.464
3.28678	0.432
3.3259	0.381
3.36502	0.192
3.40414	0.033
3.44326	0.055
3.48237	0.085
3.52149	0.194
3.56061	0.364
3.59973	0.391
3.63885	0.399
3.67796	0.393
3.71708	0.389
3.7562	0.377
3.79532	0.367
3.83444	0.362
3.87356	0.373
3.91267	0.385
3.95179	0.401
3.99091	0.422
4.03003	0.453
4.06915	0.482
4.10826	0.503
4.14738	0.525
4.1865	0.54
4.22562	0.545
4.26474	0.555
4.30386	0.584
4.34297	0.603
4.38209	0.621
4.42121	0.632
4.46033	0.64
4.49945	0.644
4.53856	0.655
4.57768	0.658
4.6168	0.666
4.65592	0.669
4.69504	0.671
4.73416	0.679
4.77327	0.679
4.81239	0.681
4.85151	0.681
4.89063	0.682
4.92975	0.689
4.96886	0.69
5.00798	0.69
5.0471	0.69
5.08622	0.687
5.12534	0.69
5.16446	0.69
5.20357	0.686
5.24269	0.689
5.28181	0.673
5.32093	0.669
5.36005	0.679
5.39917	0.679
5.43828	0.676
5.4774	0.674
5.51652	0.674
5.55564	0.668
5.59476	0.665
5.63387	0.66
5.67299	0.661
5.71211	0.665
5.75123	0.669
5.79035	0.679
5.82947	0.682
5.86858	0.69
5.9077	0.702
5.94682	0.708
5.98594	0.716
6.02506	0.72
6.06417	0.729
6.10329	0.723
6.14241	0.656
6.18153	0.493
6.22065	0.576
6.25977	0.689
6.29888	0.721
6.338	0.744
6.37712	0.749
6.41624	0.747
6.45536	0.731
6.49447	0.718
6.53359	0.652
6.57271	0.446
6.61183	0.389
6.65095	0.521
6.69007	0.501
6.72918	0.38
6.7683	0.271
6.80742	0.152
6.84654	0.131
6.88566	0.166
6.92477	0.268
6.96389	0.436
7.00301	0.538
7.04213	0.598
7.08125	0.598
7.12037	0.567
7.15948	0.532
7.1986	0.467
7.23772	0.381
7.27684	0.438
7.31596	0.427
7.35508	0.58
7.39419	0.645
7.43331	0.677
7.47243	0.689
7.51155	0.655
7.55067	0.611
7.58978	0.632
7.6289	0.639
7.66802	0.551
7.70714	0.498
7.74626	0.346
7.78538	0.211
7.82449	0.296
7.86361	0.322
7.90273	0.419
7.94185	0.514
7.98097	0.577
8.02008	0.635
8.0592	0.671
8.09832	0.686
8.13744	0.676
8.17656	0.655
8.21568	0.637
8.25479	0.595
8.29391	0.606
8.33303	0.6
8.37215	0.538
8.41127	0.569
8.45038	0.645
8.4895	0.726
8.52862	0.747
8.56774	0.76
8.60686	0.758
8.64598	0.754
8.68509	0.742
8.72421	0.718
8.76333	0.65
8.80245	0.509
8.84157	0.514
8.88068	0.645
8.9198	0.711
8.95892	0.718
8.99804	0.708
9.03716	0.718
9.07628	0.728
9.11539	0.723
9.15451	0.699
9.19363	0.661
9.23275	0.595
9.27187	0.527
9.31098	0.485
9.3501	0.519
9.38922	0.6
9.42834	0.692
9.46746	0.723
9.50658	0.754
9.54569	0.775
9.58481	0.792
9.62393	0.802
9.66305	0.8
9.70217	0.797
9.74129	0.804
9.7804	0.812
9.81952	0.813
9.85864	0.813
9.89776	0.812
9.93688	0.809
9.97599	0.802
10.0151	0.799
10.0542	0.789
10.0933	0.773
10.1325	0.754
10.1716	0.718
10.2107	0.668
10.2498	0.619
10.2889	0.61
10.3281	0.686
10.3672	0.737
10.4063	0.762
10.4454	0.765
10.4845	0.757
10.5236	0.718
10.5628	0.66
10.6019	0.614
10.641	0.64
10.6801	0.663
10.7192	0.663
10.7584	0.648
10.7975	0.595
10.8366	0.543
10.8757	0.504
10.9148	0.498
10.9539	0.496
10.9931	0.485
11.0322	0.472
11.0713	0.485
11.1104	0.521
11.1495	0.503
11.1887	0.394
11.2278	0.265
11.2669	0.231
11.306	0.315
11.3451	0.401
11.3842	0.456
11.4234	0.501
11.4625	0.538
11.5016	0.567
11.5407	0.582
11.5798	0.598
11.619	0.61
11.6581	0.621
11.6972	0.632
11.7363	0.642
11.7754	0.652
11.8145	0.655
11.8537	0.656
11.8928	0.647
11.9319	0.619
11.971	0.561
12.0101	0.436
12.0493	0.341
12.0884	0.3
12.1275	0.396
12.1666	0.49
12.2057	0.564
12.2448	0.618
12.284	0.677
12.3231	0.699
12.3622	0.708
12.4013	0.707
12.4404	0.699
12.4796	0.679
12.5187	0.66
12.5578	0.645
12.5969	0.647
12.636	0.677
12.6752	0.697
12.7143	0.703
12.7534	0.71
12.7925	0.716
12.8316	0.723
12.8707	0.726
12.9099	0.736
12.949	0.737
12.9881	0.742
13.0272	0.745
13.0663	0.749
13.1055	0.749
13.1446	0.75
13.1837	0.75
13.2228	0.752
13.2619	0.752
13.301	0.754
13.3402	0.749
13.3793	0.741
13.4184	0.728
13.4575	0.707
13.4966	0.694
13.5358	0.692
13.5749	0.699
13.614	0.699
13.6531	0.695
13.6922	0.694
13.7313	0.699
13.7705	0.697
13.8096	0.692
13.8487	0.699
13.8878	0.705
13.9269	0.708
13.9661	0.713
14.0052	0.718
14.0443	0.716
14.0834	0.705
14.1225	0.707
14.1616	0.708
14.2008	0.703
14.2399	0.699
14.279	0.694
14.3181	0.687
14.3572	0.679
14.3964	0.673
14.4355	0.666
14.4746	0.66
14.5137	0.65
14.5528	0.642
14.5919	0.629
14.6311	0.611
14.6702	0.598
14.7093	0.58
14.7484	0.563
14.7875	0.551
14.8267	0.543
14.8658	0.54
14.9049	0.537
14.944	0.54
14.9831	0.553
15.0222	0.55
15.0614	0.54
15.1005	0.533
15.1396	0.527
15.1787	0.519
15.2178	0.506
15.257	0.495
15.2961	0.48
15.3352	0.462
15.3743	0.441
15.4134	0.414
15.4525	0.391
15.4917	0.373
15.5308	0.37
15.5699	0.375
15.609	0.38
15.6481	0.38
15.6873	0.38
15.7264	0.377
15.7655	0.372
15.8046	0.367
15.8437	0.362
15.8828	0.362
15.922	0.362
