Infrared Spectrum: 1,1-ETHANEDIOL, DIISOBUTYRATE
Formula: C10 H18 O4
CAS: 116346-31-7
Class: COBLENTZ
Instrument: Not specified, most likely a prism, grating, or hybrid spectrometer.
Sampling: TRANSMISSION
Path length: SMEAR
Resolution: 4
Origin: TENNESSEE EASTMAN COMPANY, RESEARCH LABORATORIES
MICROMETERS	TRANSMITTANCE
2.037	0.982
2.07429	0.981
2.11159	0.979
2.14888	0.979
2.18617	0.979
2.22346	0.976
2.26076	0.965
2.29805	0.964
2.33534	0.964
2.37263	0.965
2.40993	0.965
2.44722	0.964
2.48451	0.965
2.5218	0.97
2.5591	0.971
2.59639	0.971
2.63368	0.971
2.67097	0.971
2.70827	0.973
2.74556	0.973
2.78285	0.971
2.82014	0.97
2.85744	0.968
2.89473	0.962
2.93202	0.967
2.96931	0.967
3.00661	0.973
3.0439	0.973
3.08119	0.973
3.11849	0.973
3.15578	0.973
3.19307	0.973
3.23036	0.974
3.26766	0.973
3.30495	0.935
3.34224	0.466
3.37953	0.688
3.41683	0.769
3.45412	0.774
3.49141	0.951
3.5287	0.954
3.566	0.96
3.60329	0.964
3.64058	0.964
3.67787	0.964
3.71517	0.965
3.75246	0.965
3.78975	0.967
3.82704	0.968
3.86434	0.968
3.90163	0.967
3.93892	0.968
3.97621	0.967
4.01351	0.967
4.0508	0.967
4.08809	0.967
4.12538	0.967
4.16268	0.967
4.19997	0.967
4.23726	0.987
4.27456	1.001
4.31185	1.001
4.34914	0.987
4.38643	0.965
4.42373	0.965
4.46102	0.965
4.49831	0.962
4.5356	0.964
4.5729	0.964
4.61019	0.964
4.64748	0.964
4.68477	0.964
4.72207	0.964
4.75936	0.962
4.79665	0.962
4.83394	0.959
4.87124	0.956
4.90853	0.953
4.94582	0.953
4.98311	0.953
5.02041	0.953
5.0577	0.953
5.09499	0.953
5.13228	0.953
5.16958	0.954
5.20687	0.953
5.24416	0.953
5.28146	0.953
5.31875	0.951
5.35604	0.948
5.39333	0.946
5.43063	0.935
5.46792	0.923
5.50521	0.893
5.5425	0.863
5.5798	0.769
5.61709	0.632
5.65438	0.251
5.69167	0.082
5.72897	0.195
5.76626	0.557
5.80355	0.727
5.84084	0.784
5.87814	0.83
5.91543	0.859
5.95272	0.884
5.99001	0.902
6.02731	0.91
6.0646	0.921
6.10189	0.923
6.13918	0.928
6.17648	0.929
6.21377	0.934
6.25106	0.938
6.28835	0.942
6.32565	0.943
6.36294	0.943
6.40023	0.943
6.43753	0.942
6.47482	0.942
6.51211	0.932
6.5494	0.928
6.5867	0.915
6.62399	0.899
6.66128	0.879
6.69857	0.826
6.73587	0.737
6.77316	0.522
6.81045	0.615
6.84774	0.641
6.88504	0.685
6.92233	0.793
6.95962	0.851
6.99691	0.868
7.03421	0.87
7.0715	0.862
7.10879	0.809
7.14608	0.616
7.18338	0.472
7.22067	0.674
7.25796	0.701
7.29525	0.701
7.33255	0.721
7.36984	0.726
7.40713	0.713
7.44443	0.632
7.48172	0.63
7.51901	0.718
7.5563	0.78
7.5936	0.834
7.63089	0.856
7.66818	0.849
7.70547	0.829
7.74277	0.83
7.78006	0.832
7.81735	0.805
7.85464	0.763
7.89194	0.68
7.92923	0.611
7.96652	0.569
8.00381	0.599
8.04111	0.657
8.0784	0.685
8.11569	0.693
8.15298	0.688
8.19028	0.64
8.22757	0.577
8.26486	0.444
8.30215	0.378
8.33945	0.345
8.37674	0.378
8.41403	0.455
8.45133	0.539
8.48862	0.519
8.52591	0.389
8.5632	0.338
8.6005	0.341
8.63779	0.35
8.67508	0.35
8.71237	0.347
8.74967	0.35
8.78696	0.399
8.82425	0.433
8.86154	0.431
8.89884	0.422
8.93613	0.4
8.97342	0.377
9.01071	0.338
9.04801	0.297
9.0853	0.25
9.12259	0.212
9.15988	0.209
9.19718	0.219
9.23447	0.217
9.27176	0.198
9.30905	0.142
9.34635	0.101
9.38364	0.101
9.42093	0.128
9.45822	0.215
9.49552	0.25
9.53281	0.28
9.5701	0.338
9.6074	0.456
9.64469	0.599
9.68198	0.701
9.71927	0.76
9.75657	0.799
9.79386	0.834
9.83115	0.851
9.86844	0.863
9.90574	0.876
9.94303	0.887
9.98032	0.898
10.0176	0.899
10.0549	0.904
10.0922	0.904
10.1295	0.906
10.1668	0.906
10.2041	0.904
10.2414	0.896
10.2787	0.876
10.316	0.852
10.3532	0.848
10.3905	0.829
10.4278	0.799
10.4651	0.723
10.5024	0.607
10.5397	0.48
10.577	0.414
10.6143	0.406
10.6516	0.494
10.6889	0.569
10.7262	0.635
10.7635	0.677
10.8008	0.746
10.8381	0.805
10.8753	0.841
10.9126	0.863
10.9499	0.871
10.9872	0.876
11.0245	0.874
11.0618	0.863
11.0991	0.829
11.1364	0.758
11.1737	0.66
11.211	0.599
11.2483	0.582
11.2856	0.618
11.3229	0.671
11.3601	0.694
11.3974	0.694
11.4347	0.691
11.472	0.694
11.5093	0.749
11.5466	0.804
11.5839	0.84
11.6212	0.859
11.6585	0.86
11.6958	0.857
11.7331	0.83
11.7704	0.802
11.8077	0.796
11.845	0.796
11.8822	0.843
11.9195	0.881
11.9568	0.904
11.9941	0.924
12.0314	0.932
12.0687	0.938
12.106	0.94
12.1433	0.945
12.1806	0.948
12.2179	0.951
12.2552	0.951
12.2925	0.953
12.3298	0.954
12.367	0.954
12.4043	0.954
12.4416	0.954
12.4789	0.954
12.5162	0.954
12.5535	0.954
12.5908	0.954
12.6281	0.954
12.6654	0.954
12.7027	0.953
12.74	0.953
12.7773	0.953
12.8146	0.953
12.8519	0.951
12.8891	0.948
12.9264	0.94
12.9637	0.928
13.001	0.909
13.0383	0.892
13.0756	0.874
13.1129	0.856
13.1502	0.841
13.1875	0.832
13.2248	0.83
13.2621	0.829
13.2994	0.832
13.3367	0.84
13.3739	0.851
13.4112	0.86
13.4485	0.866
13.4858	0.876
13.5231	0.879
13.5604	0.881
13.5977	0.882
13.635	0.884
13.6723	0.885
13.7096	0.885
13.7469	0.885
13.7842	0.885
13.8215	0.885
13.8588	0.885
13.896	0.884
13.9333	0.882
13.9706	0.881
14.0079	0.879
14.0452	0.877
14.0825	0.873
14.1198	0.868
14.1571	0.865
14.1944	0.863
14.2317	0.86
14.269	0.857
14.3063	0.856
14.3436	0.851
14.3808	0.846
14.4181	0.841
14.4554	0.838
14.4927	0.835
14.53	0.83
14.5673	0.827
14.6046	0.823
14.6419	0.816
14.6792	0.812
14.7165	0.809
14.7538	0.805
14.7911	0.799
14.8284	0.794
14.8657	0.774
14.9029	0.76
14.9402	0.762
14.9775	0.762
15.0148	0.763
15.0521	0.76
15.0894	0.752
15.1267	0.748
15.164	0.746
15.2013	0.74
15.2386	0.735
15.2759	0.729
15.3132	0.719
15.3505	0.715
