Infrared Spectrum: 2-DIMETHYLAMINOMETHYL-1-(2'-PIPERIDYLMETHYL)-CYCLOHEXANOL
Formula: C15 H30 N2 O
CAS: 116373-16-1
State: SOLUTION (1% IN CS2)
Class: COBLENTZ
Instrument: PERKIN-ELMER
Sampling: TRANSMISSION
Path length: 0.10 CM
Resolution: 4
Origin: ABBOTT LABORATORIES - WASHBURN
MICROMETERS	TRANSMITTANCE
2.029	0.971
2.06879	0.968
2.10857	0.9761
2.14836	0.9729
2.18814	0.968
2.22793	0.96
2.26772	0.9331
2.3075	0.921
2.34729	0.915
2.38707	0.9248
2.42686	0.93
2.46665	0.925
2.50643	0.933
2.54622	0.935
2.58601	0.9312
2.62579	0.93
2.66558	0.935
2.70536	0.935
2.74515	0.92
2.78494	0.9083
2.82472	0.8833
2.86451	0.8433
2.90429	0.77
2.94408	0.6693
2.98387	0.5921
3.02365	0.543
3.06344	0.5605
3.10322	0.5759
3.14301	0.598
3.1828	0.6009
3.22258	0.594
3.26237	0.5932
3.30216	0.4462
3.34194	0.1976
3.38173	0.1012
3.42151	0.19
3.4613	0.1813
3.50109	0.2447
3.54087	0.2738
3.58066	0.2902
3.62044	0.4045
3.66023	0.4496
3.70002	0.4748
3.7398	0.4977
3.77959	0.504
3.81937	0.5257
3.85916	0.538
3.89895	0.5489
3.93873	0.551
3.97852	0.549
4.01831	0.554
4.05809	0.556
4.09788	0.5658
4.13766	0.5834
4.17745	0.6039
4.21724	0.6156
4.25702	0.643
4.29681	0.6569
4.33659	0.6756
4.37638	0.6791
4.41617	0.654
4.45595	0.6711
4.49574	0.6987
4.53552	0.7199
4.57531	0.7369
4.6151	0.755
4.65488	0.772
4.69467	0.7738
4.73446	0.7791
4.77424	0.7472
4.81403	0.747
4.85381	0.749
4.8936	0.7517
4.93339	0.7599
4.97317	0.7701
5.01296	0.7819
5.05274	0.7867
5.09253	0.7948
5.13232	0.795
5.1721	0.794
5.21189	0.802
5.25167	0.802
5.29146	0.805
5.33125	0.805
5.37103	0.805
5.41082	0.8073
5.4506	0.8122
5.49039	0.8122
5.53018	0.815
5.56996	0.815
5.60975	0.815
5.64954	0.8101
5.68932	0.7997
5.72911	0.7558
5.76889	0.7818
5.80868	0.813
5.84847	0.8226
5.88825	0.823
5.92804	0.8175
5.96782	0.8139
6.00761	0.8246
6.0474	0.823
6.08718	0.825
6.12697	0.828
6.16675	0.8371
6.20654	0.8554
6.24633	0.882
6.28611	0.89
6.3259	0.8929
6.36569	0.9125
6.40547	0.9173
6.44526	0.9238
6.48504	0.933
6.52483	0.9363
6.56462	0.9417
6.6044	0.9436
6.64419	0.946
6.68397	0.9464
6.72376	0.9478
6.76355	0.95
6.80333	0.946
6.84312	0.945
6.8829	0.948
6.92269	0.945
6.96248	0.946
7.00226	0.9423
7.04205	0.931
7.08184	0.9177
7.12162	0.8209
7.16141	0.4877
7.20119	0.302
7.24098	0.3216
7.28077	0.4048
7.32055	0.4284
7.36034	0.4504
7.40012	0.4625
7.43991	0.45
7.4797	0.4731
7.51948	0.5024
7.55927	0.4933
7.59905	0.4586
7.63884	0.4166
7.67863	0.405
7.71841	0.4146
7.7582	0.4414
7.79799	0.4291
7.83777	0.4092
7.87756	0.3681
7.91734	0.3034
7.95713	0.2669
7.99692	0.2567
8.0367	0.1927
8.07649	0.1391
8.11627	0.2217
8.15606	0.2808
8.19585	0.3197
8.23563	0.4476
8.27542	0.5037
8.3152	0.509
8.35499	0.508
8.39478	0.4596
8.43456	0.5113
8.47435	0.489
8.51413	0.3586
8.55392	0.287
8.59371	0.3137
8.63349	0.4124
8.67328	0.4859
8.71307	0.503
8.75285	0.4733
8.79264	0.4019
8.83242	0.3029
8.87221	0.247
8.912	0.2801
8.95178	0.3949
8.99157	0.487
9.03135	0.5085
9.07114	0.4733
9.11093	0.4442
9.15071	0.4199
9.1905	0.4282
9.23028	0.4836
9.27007	0.501
9.30986	0.5259
9.34964	0.5476
9.38943	0.564
9.42922	0.563
9.469	0.5633
9.50879	0.5348
9.54857	0.4697
9.58836	0.399
9.62815	0.4243
9.66793	0.4562
9.70772	0.4874
9.7475	0.5138
9.78729	0.4999
9.82708	0.4323
9.86686	0.3571
9.90665	0.3049
9.94643	0.3266
9.98622	0.3859
10.026	0.3733
10.0658	0.3307
10.1056	0.307
10.1454	0.3177
10.1852	0.323
10.2249	0.3243
10.2647	0.2832
10.3045	0.2512
10.3443	0.2705
10.3841	0.3129
10.4239	0.4191
10.4637	0.5513
10.5034	0.6095
10.5432	0.626
10.583	0.619
10.6228	0.614
10.6626	0.624
10.7024	0.6384
10.7422	0.6417
10.7819	0.6313
10.8217	0.588
10.8615	0.5585
10.9013	0.574
10.9411	0.5647
10.9809	0.5279
11.0207	0.4659
11.0604	0.4886
11.1002	0.5553
11.14	0.5889
11.1798	0.5608
11.2196	0.4681
11.2594	0.4558
11.2992	0.5014
11.3389	0.556
11.3787	0.6082
11.4185	0.626
11.4583	0.6302
11.4981	0.634
11.5379	0.6415
11.5777	0.651
11.6175	0.661
11.6572	0.6676
11.697	0.671
11.7368	0.6618
11.7766	0.654
11.8164	0.6308
11.8562	0.599
11.896	0.5715
11.9357	0.5342
11.9755	0.523
12.0153	0.5464
12.0551	0.5956
12.0949	0.6289
12.1347	0.6628
12.1745	0.674
12.2142	0.6734
12.254	0.654
12.2938	0.6618
12.3336	0.6892
12.3734	0.7003
12.4132	0.705
12.453	0.6961
12.4927	0.6907
12.5325	0.6862
12.5723	0.686
12.6121	0.6954
12.6519	0.7031
12.6917	0.7096
12.7315	0.7145
12.7712	0.719
12.811	0.725
12.8508	0.7326
12.8906	0.7375
12.9304	0.7394
12.9702	0.74
13.01	0.744
13.0498	0.742
13.0895	0.739
13.1293	0.74
13.1691	0.737
13.2089	0.7305
13.2487	0.727
13.2885	0.7296
13.3283	0.732
13.368	0.731
13.4078	0.72
13.4476	0.7196
13.4874	0.7193
13.5272	0.725
13.567	0.7324
13.6068	0.737
13.6465	0.7353
13.6863	0.745
13.7261	0.744
13.7659	0.739
13.8057	0.74
13.8455	0.729
13.8853	0.7229
13.925	0.7283
13.9648	0.7344
14.0046	0.7376
14.0444	0.739
14.0842	0.7428
14.124	0.7377
14.1638	0.7355
14.2035	0.7282
14.2433	0.7087
14.2831	0.7052
14.3229	0.7151
14.3627	0.729
14.4025	0.7368
14.4423	0.739
14.4821	0.7413
14.5218	0.7456
14.5616	0.74
14.6014	0.7396
14.6412	0.74
14.681	0.742
14.7208	0.74
14.7606	0.7363
14.8003	0.7373
14.8401	0.74
14.8799	0.742
14.9197	0.739
14.9595	0.7418
14.9993	0.7425
15.0391	0.74
15.0788	0.734
15.1186	0.7277
15.1584	0.727
15.1982	0.72
15.238	0.7046
15.2778	0.6716
15.3176	0.661
15.3573	0.6675
