Infrared Spectrum: N-BENZYLCYCLOPROPYLMETHYLAMINE
Formula: C11 H15 N
CAS: 116373-23-0
Class: COBLENTZ
Instrument: PERKIN-ELMER
Sampling: TRANSMISSION
Path length: CAPILLARY
Resolution: 4
Origin: ABBOTT LABORATORIES - WASHBURN
MICROMETERS	TRANSMITTANCE
2.041	0.884
2.07425	0.879
2.10749	0.8801
2.14074	0.88
2.17398	0.874
2.20723	0.871
2.24047	0.872
2.27372	0.8642
2.30696	0.871
2.34021	0.867
2.37345	0.8572
2.4067	0.8558
2.43994	0.869
2.47319	0.852
2.50643	0.8519
2.53968	0.866
2.57292	0.869
2.60617	0.869
2.63941	0.867
2.67266	0.869
2.7059	0.869
2.73915	0.8671
2.77239	0.8561
2.80564	0.857
2.83888	0.847
2.87213	0.8411
2.90537	0.8233
2.93862	0.8181
2.97186	0.7951
3.00511	0.7523
3.03835	0.742
3.0716	0.7495
3.10484	0.7896
3.13809	0.798
3.17133	0.8078
3.20458	0.8033
3.23782	0.5891
3.27107	0.476
3.30431	0.4507
3.33756	0.3804
3.3708	0.6277
3.40405	0.661
3.4373	0.477
3.47054	0.4305
3.50379	0.4289
3.53703	0.3939
3.57028	0.3436
3.60352	0.4246
3.63677	0.541
3.67001	0.6749
3.70326	0.738
3.7365	0.7473
3.76975	0.7958
3.80299	0.8029
3.83624	0.8241
3.86948	0.828
3.90273	0.8329
3.93597	0.8437
3.96922	0.8521
4.00246	0.859
4.03571	0.8571
4.06895	0.857
4.1022	0.8521
4.13544	0.851
4.16869	0.854
4.20193	0.856
4.23518	0.8539
4.26842	0.852
4.30167	0.8471
4.33491	0.849
4.36816	0.857
4.4014	0.856
4.43465	0.8561
4.46789	0.8489
4.50114	0.847
4.53438	0.849
4.56763	0.8489
4.60087	0.847
4.63412	0.849
4.66736	0.849
4.70061	0.851
4.73385	0.851
4.7671	0.847
4.80035	0.842
4.83359	0.8381
4.86684	0.8311
4.90008	0.833
4.93333	0.841
4.96657	0.8439
4.99982	0.8441
5.03306	0.838
5.06631	0.836
5.09955	0.8184
5.1328	0.7952
5.16604	0.7947
5.19929	0.8087
5.23253	0.824
5.26578	0.824
5.29902	0.8184
5.33227	0.8048
5.36551	0.8021
5.39876	0.8145
5.432	0.823
5.46525	0.8177
5.49849	0.809
5.53174	0.798
5.56498	0.809
5.59823	0.8218
5.63147	0.828
5.66472	0.836
5.69796	0.8357
5.73121	0.8331
5.76445	0.834
5.7977	0.836
5.83094	0.834
5.86419	0.8331
5.89743	0.829
5.93068	0.823
5.96392	0.8147
5.99717	0.8035
6.03041	0.7984
6.06366	0.796
6.09691	0.8024
6.13015	0.803
6.1634	0.8036
6.19664	0.7891
6.22989	0.6833
6.26313	0.7288
6.29638	0.7575
6.32962	0.7728
6.36287	0.8016
6.39611	0.811
6.42936	0.811
6.4626	0.8074
6.49585	0.795
6.52909	0.8044
6.56234	0.8076
6.59558	0.8006
6.62883	0.7755
6.66207	0.6486
6.69532	0.404
6.72856	0.6003
6.76181	0.644
6.79505	0.5945
6.8283	0.4537
6.86154	0.3627
6.89479	0.193
6.92803	0.2797
6.96128	0.3795
6.99452	0.5322
7.02777	0.5782
7.06101	0.6871
7.09426	0.727
7.1275	0.737
7.16075	0.7245
7.19399	0.6697
7.22724	0.6272
7.26048	0.6371
7.29373	0.6867
7.32697	0.6881
7.36022	0.5715
7.39346	0.551
7.42671	0.6424
7.45996	0.692
7.4932	0.694
7.52645	0.6368
7.55969	0.5898
7.59294	0.6122
7.62618	0.6606
7.65943	0.6612
7.69267	0.6188
7.72592	0.627
7.75916	0.6839
7.79241	0.7132
7.82565	0.7194
7.8589	0.72
7.89214	0.719
7.92539	0.709
7.95863	0.7083
7.99188	0.709
8.02512	0.6983
8.05837	0.6943
8.09161	0.7126
8.12486	0.719
8.1581	0.723
8.19135	0.723
8.22459	0.7149
8.25784	0.6996
8.29108	0.6686
8.32433	0.636
8.35757	0.626
8.39082	0.6433
8.42406	0.6758
8.45731	0.698
8.49055	0.705
8.5238	0.6947
8.55704	0.665
8.59029	0.6469
8.62353	0.6076
8.65678	0.566
8.69002	0.5482
8.72327	0.5733
8.75651	0.6112
8.78976	0.632
8.82301	0.6104
8.85625	0.5616
8.8895	0.4874
8.92274	0.3624
8.95599	0.3097
8.98923	0.2985
9.02248	0.3174
9.05572	0.325
9.08897	0.32
9.12221	0.3748
9.15546	0.4688
9.1887	0.5322
9.22195	0.573
9.25519	0.5909
9.28844	0.5751
9.32168	0.553
9.35493	0.5692
9.38817	0.6056
9.42142	0.619
9.45466	0.6237
9.48791	0.621
9.52115	0.6108
9.5544	0.5774
9.58764	0.552
9.62089	0.5736
9.65413	0.6084
9.68738	0.6115
9.72062	0.4619
9.75387	0.4159
9.78711	0.466
9.82036	0.3532
9.8536	0.3276
9.88685	0.402
9.92009	0.5328
9.95334	0.572
9.98658	0.59
10.0198	0.591
10.0531	0.5729
10.0863	0.563
10.1196	0.5549
10.1528	0.563
10.1861	0.5804
10.2193	0.6005
10.2525	0.6134
10.2858	0.611
10.319	0.6008
10.3523	0.59
10.3855	0.595
10.4188	0.6164
10.452	0.6382
10.4853	0.6641
10.5185	0.679
10.5518	0.6929
10.585	0.705
10.6182	0.7096
10.6515	0.7093
10.6847	0.712
10.718	0.705
10.7512	0.6909
10.7845	0.676
10.8177	0.676
10.851	0.677
10.8842	0.676
10.9174	0.6689
10.9507	0.659
10.9839	0.646
11.0172	0.6167
11.0504	0.5964
11.0837	0.5813
11.1169	0.5784
11.1502	0.5765
11.1834	0.576
11.2167	0.5807
11.2499	0.5857
11.2831	0.6152
11.3164	0.6549
11.3496	0.6773
11.3829	0.6976
11.4161	0.7145
11.4494	0.7224
11.4826	0.723
11.5159	0.7226
11.5491	0.72
11.5824	0.717
11.6156	0.7048
11.6488	0.6894
11.6821	0.6757
11.7153	0.6553
11.7486	0.6336
11.7818	0.6179
11.8151	0.6029
11.8483	0.585
11.8816	0.5731
11.9148	0.5385
11.948	0.5147
11.9813	0.4729
12.0145	0.4242
12.0478	0.387
12.081	0.3399
12.1143	0.3223
12.1475	0.3301
12.1808	0.3762
12.214	0.4404
12.2473	0.4794
12.2805	0.5173
12.3137	0.5345
12.347	0.5423
12.3802	0.543
12.4135	0.5466
12.4467	0.5397
12.48	0.533
12.5132	0.525
12.5465	0.523
12.5797	0.52
12.6129	0.523
12.6462	0.5368
12.6794	0.5546
12.7127	0.558
12.7459	0.5572
12.7792	0.5477
12.8124	0.5341
12.8457	0.5179
12.8789	0.5051
12.9122	0.4944
12.9454	0.4909
12.9786	0.4859
13.0119	0.4775
13.0451	0.4731
13.0784	0.4632
13.1116	0.4482
13.1449	0.4337
13.1781	0.4145
13.2114	0.3811
13.2446	0.3508
13.2779	0.3117
13.3111	0.2549
13.3443	0.2169
13.3776	0.181
13.4108	0.158
13.4441	0.14
13.4773	0.1201
13.5106	0.1141
13.5438	0.107
13.5771	0.102
13.6103	0.1
13.6435	0.1
13.6768	0.102
13.71	0.1161
13.7433	0.1333
13.7765	0.1576
13.8098	0.1835
13.843	0.2067
13.8763	0.236
13.9095	0.2599
13.9428	0.2682
13.976	0.28
14.0092	0.2901
14.0425	0.294
14.0757	0.2956
14.109	0.2948
14.1422	0.2894
14.1755	0.2632
14.2087	0.2265
14.242	0.1702
14.2752	0.1277
14.3085	0.0969
14.3417	0.0771
14.3749	0.0691
14.4082	0.1071
14.4414	0.1787
14.4747	0.2476
14.5079	0.3183
14.5412	0.3672
14.5744	0.4125
14.6077	0.442
14.6409	0.4603
14.6741	0.4744
14.7074	0.4872
14.7406	0.4945
14.7739	0.5114
14.8071	0.5146
14.8404	0.5178
14.8736	0.523
14.9069	0.522
14.9401	0.527
14.9734	0.5272
