Infrared Spectrum: PHOSPHONIC ACID, CHLOROMETHYL-, P-CHLOROPHENYL ETHYL ESTER
Formula: C9 H11 Cl2 O3 P
CAS: 116401-61-7
Boiling point: 131-141 C AT 1.0-1.6 mmHg
Class: COBLENTZ
Instrument: Not specified, most likely a prism, grating, or hybrid spectrometer.
Sampling: TRANSMISSION
Path length: SMEAR
Resolution: 4
Origin: TENNESSEE EASTMAN COMPANY, RESEARCH LABORATORIES
MICROMETERS	TRANSMITTANCE
2.06	0.981
2.1	0.983
2.14	0.974
2.18	0.979
2.22	0.979
2.26	0.966
2.29999	0.954
2.33999	0.959
2.37999	0.961
2.41999	0.961
2.45999	0.951
2.49999	0.959
2.53999	0.968
2.57999	0.956
2.61999	0.938
2.65999	0.941
2.69998	0.941
2.73998	0.933
2.77998	0.918
2.81998	0.898
2.85998	0.888
2.89998	0.858
2.93998	0.851
2.97998	0.809
3.01998	0.739
3.05998	0.682
3.09998	0.677
3.13997	0.732
3.17997	0.781
3.21997	0.772
3.25997	0.736
3.29997	0.757
3.33997	0.41
3.37997	0.515
3.41997	0.667
3.45997	0.828
3.49997	0.868
3.53996	0.901
3.57996	0.894
3.61996	0.913
3.65996	0.931
3.69996	0.938
3.73996	0.939
3.77996	0.936
3.81996	0.943
3.85996	0.949
3.89996	0.949
3.93996	0.939
3.97995	0.948
4.01995	0.949
4.05995	0.944
4.09995	0.943
4.13995	0.938
4.17995	0.936
4.21995	0.948
4.25995	0.958
4.29995	0.951
4.33995	0.951
4.37994	0.954
4.41994	0.949
4.45994	0.948
4.49994	0.951
4.53994	0.958
4.57994	0.966
4.61994	0.969
4.65994	0.969
4.69994	0.968
4.73994	0.966
4.77993	0.966
4.81993	0.969
4.85993	0.961
4.89993	0.953
4.93993	0.958
4.97993	0.959
5.01993	0.943
5.05993	0.936
5.09993	0.941
5.13993	0.943
5.17993	0.938
5.21992	0.918
5.25992	0.879
5.29992	0.859
5.33992	0.876
5.37992	0.911
5.41992	0.896
5.45992	0.896
5.49992	0.893
5.53992	0.899
5.57992	0.881
5.61991	0.873
5.65991	0.876
5.69991	0.876
5.73991	0.869
5.77991	0.873
5.81991	0.849
5.85991	0.866
5.89991	0.849
5.93991	0.849
5.97991	0.856
6.01991	0.846
6.0599	0.796
6.0999	0.821
6.1399	0.846
6.1799	0.856
6.2199	0.843
6.2599	0.684
6.2999	0.636
6.3399	0.816
6.3799	0.826
6.4199	0.821
6.45989	0.782
6.49989	0.809
6.53989	0.752
6.57989	0.731
6.61989	0.517
6.65989	0.136
6.69989	0.041
6.73989	0.235
6.77989	0.52
6.81989	0.584
6.85989	0.577
6.89988	0.522
6.93988	0.602
6.97988	0.716
7.01988	0.746
7.05988	0.662
7.09988	0.46
7.13988	0.392
7.17988	0.545
7.21988	0.714
7.25988	0.729
7.29987	0.622
7.33987	0.721
7.37987	0.781
7.41987	0.809
7.45987	0.808
7.49987	0.816
7.53987	0.809
7.57987	0.766
7.61987	0.706
7.65987	0.524
7.69987	0.297
7.73986	0.23
7.77986	0.125
7.81986	0.063
7.85986	0.053
7.89986	0.106
7.93986	0.181
7.97986	0.238
8.01986	0.268
8.05986	0.198
8.09986	0.108
8.13985	0.071
8.17985	0.061
8.21985	0.05
8.25985	0.041
8.29985	0.058
8.33985	0.176
8.37985	0.338
8.41985	0.482
8.45985	0.542
8.49985	0.49
8.53984	0.268
8.57984	0.188
8.61984	0.367
8.65984	0.535
8.69984	0.574
8.73984	0.565
8.77984	0.53
8.81984	0.51
8.85984	0.512
8.89984	0.54
8.93984	0.555
8.97983	0.542
9.01983	0.465
9.05983	0.27
9.09983	0.15
9.13983	0.11
9.17983	0.285
9.21983	0.404
9.25983	0.422
9.29983	0.37
9.33983	0.282
9.37982	0.222
9.41982	0.143
9.45982	0.09
9.49982	0.061
9.53982	0.043
9.57982	0.035
9.61982	0.028
9.65982	0.03
9.69982	0.04
9.73982	0.066
9.77982	0.101
9.81981	0.081
9.85981	0.163
9.89981	0.3
9.93981	0.385
9.97981	0.422
10.0198	0.417
10.0598	0.342
10.0998	0.252
10.1398	0.168
10.1798	0.11
10.2198	0.088
10.2598	0.086
10.2998	0.086
10.3398	0.086
10.3798	0.086
10.4198	0.08
10.4598	0.075
10.4998	0.065
10.5398	0.055
10.5798	0.05
10.6198	0.048
10.6598	0.048
10.6998	0.048
10.7398	0.045
10.7798	0.043
10.8198	0.053
10.8598	0.1
10.8998	0.166
10.9398	0.292
10.9798	0.402
11.0198	0.524
11.0598	0.601
11.0998	0.656
11.1398	0.699
11.1798	0.724
11.2198	0.744
11.2598	0.756
11.2998	0.764
11.3398	0.764
11.3798	0.766
11.4198	0.764
11.4598	0.761
11.4998	0.751
11.5398	0.739
11.5798	0.697
11.6198	0.627
11.6598	0.517
11.6998	0.395
11.7398	0.26
11.7798	0.191
11.8198	0.146
11.8598	0.126
11.8998	0.116
11.9398	0.108
11.9798	0.103
12.0198	0.118
12.0598	0.168
12.0998	0.223
12.1398	0.292
12.1798	0.335
12.2198	0.367
12.2598	0.397
12.2998	0.419
12.3398	0.465
12.3798	0.534
12.4198	0.614
12.4598	0.682
12.4998	0.719
12.5397	0.737
12.5797	0.739
12.6197	0.711
12.6597	0.676
12.6997	0.629
12.7397	0.574
12.7797	0.517
12.8197	0.499
12.8597	0.492
12.8997	0.517
12.9397	0.552
12.9797	0.567
13.0197	0.557
13.0597	0.527
13.0997	0.519
13.1397	0.517
13.1797	0.52
13.2197	0.517
13.2597	0.499
13.2997	0.465
13.3397	0.429
13.3797	0.412
13.4197	0.41
13.4597	0.447
13.4997	0.519
13.5397	0.57
13.5797	0.629
13.6197	0.666
13.6597	0.689
13.6997	0.701
13.7397	0.709
13.7797	0.712
13.8197	0.709
13.8597	0.692
13.8997	0.661
13.9397	0.609
13.9797	0.552
14.0197	0.507
14.0597	0.48
14.0997	0.455
14.1397	0.449
14.1797	0.449
14.2197	0.449
14.2597	0.449
14.2997	0.449
14.3397	0.449
14.3797	0.452
14.4197	0.46
14.4597	0.462
14.4997	0.464
14.5397	0.464
14.5797	0.472
14.6197	0.494
14.6597	0.514
14.6997	0.54
14.7397	0.569
14.7797	0.594
14.8197	0.609
14.8597	0.632
14.8997	0.636
14.9397	0.629
14.9797	0.644
15.0197	0.674
15.0597	0.687
15.0997	0.676
15.1397	0.672
15.1797	0.667
15.2197	0.664
15.2597	0.659
15.2997	0.652
15.3397	0.639
15.3797	0.627
15.4197	0.604
15.4597	0.582
15.4997	0.55
15.5397	0.524
15.5797	0.507
15.6197	0.504
15.6597	0.495
15.6997	0.495
15.7397	0.499
15.7797	0.509
15.8197	0.519
15.8597	0.53
15.8997	0.535
15.9397	0.537
15.9797	0.537
