Infrared Spectrum: 3',4'-DICHLORO-2-HYDROXY-5-ISOPROPYLBENZOPHENONE
Formula: C16 H14 Cl2 O2
CAS: 116495-89-7
State: SOLID (MINERAL OIL MULL)
Class: COBLENTZ
Instrument: Not specified, most likely a prism, grating, or hybrid spectrometer.
Sampling: TRANSMISSION
Resolution: 4
Origin: DOW CHEMICAL COMPANY
MICROMETERS	TRANSMITTANCE
2.008	0.308
2.04716	0.308
2.08632	0.318
2.12547	0.33
2.16463	0.343
2.20379	0.352
2.24295	0.362
2.2821	0.369
2.32126	0.377
2.36042	0.391
2.39958	0.403
2.43874	0.416
2.47789	0.426
2.51705	0.44
2.55621	0.455
2.59537	0.46
2.63452	0.469
2.67368	0.481
2.71284	0.491
2.752	0.505
2.79116	0.515
2.83031	0.531
2.86947	0.533
2.90863	0.492
2.94779	0.351
2.98695	0.147
3.0261	0.152
3.06526	0.263
3.10442	0.323
3.14358	0.383
3.18273	0.426
3.22189	0.455
3.26105	0.465
3.30021	0.458
3.33937	0.432
3.37852	0.188
3.41768	0.043
3.45684	0.105
3.496	0.157
3.53515	0.398
3.57431	0.572
3.61347	0.6
3.65263	0.6
3.69179	0.596
3.73094	0.609
3.7701	0.611
3.80926	0.629
3.84842	0.63
3.88757	0.634
3.92673	0.645
3.96589	0.653
4.00505	0.665
4.04421	0.682
4.08336	0.663
4.12252	0.673
4.16168	0.692
4.20084	0.695
4.23999	0.7
4.27915	0.713
4.31831	0.725
4.35747	0.734
4.39663	0.739
4.43578	0.747
4.47494	0.751
4.5141	0.752
4.55326	0.759
4.59242	0.762
4.63157	0.765
4.67073	0.765
4.70989	0.767
4.74905	0.767
4.7882	0.772
4.82736	0.78
4.86652	0.79
4.90568	0.791
4.94484	0.795
4.98399	0.791
5.02315	0.801
5.06231	0.806
5.10147	0.813
5.14062	0.813
5.17978	0.8
5.21894	0.791
5.2581	0.813
5.29726	0.824
5.33641	0.829
5.37557	0.832
5.41473	0.832
5.45389	0.834
5.49304	0.837
5.5322	0.835
5.57136	0.816
5.61052	0.808
5.64968	0.83
5.68883	0.845
5.72799	0.845
5.76715	0.852
5.80631	0.86
5.84546	0.852
5.88462	0.85
5.92378	0.832
5.96294	0.8
6.0021	0.689
6.04125	0.513
6.08041	0.169
6.11957	0.482
6.15873	0.603
6.19789	0.489
6.23704	0.211
6.2762	0.23
6.31536	0.126
6.35452	0.071
6.39367	0.131
6.43283	0.295
6.47199	0.396
6.51115	0.588
6.55031	0.604
6.58946	0.515
6.62862	0.463
6.66778	0.613
6.70694	0.655
6.74609	0.624
6.78525	0.458
6.82441	0.333
6.86357	0.396
6.90273	0.465
6.94188	0.64
6.98104	0.754
7.0202	0.778
7.05936	0.791
7.09851	0.785
7.13767	0.762
7.17683	0.702
7.21599	0.539
7.25515	0.452
7.2943	0.539
7.33346	0.601
7.37262	0.632
7.41178	0.699
7.45094	0.692
7.49009	0.603
7.52925	0.508
7.56841	0.312
7.60757	0.091
7.64672	0.304
7.68588	0.198
7.72504	0.073
7.7642	0.182
7.80336	0.232
7.84251	0.24
7.88167	0.292
7.92083	0.383
7.95999	0.404
7.99914	0.268
8.0383	0.442
8.07746	0.434
8.11662	0.276
8.15578	0.11
8.19493	0.157
8.23409	0.32
8.27325	0.473
8.31241	0.57
8.35156	0.601
8.39072	0.629
8.42988	0.642
8.46904	0.525
8.5082	0.461
8.54735	0.552
8.58651	0.396
8.62567	0.169
8.66483	0.338
8.70398	0.544
8.74314	0.582
8.7823	0.546
8.82146	0.487
8.86062	0.422
8.89977	0.585
8.93893	0.674
8.97809	0.639
9.01725	0.573
9.05641	0.613
9.09556	0.723
9.13472	0.764
9.17388	0.775
9.21304	0.791
9.25219	0.795
9.29135	0.796
9.33051	0.796
9.36967	0.8
9.40883	0.803
9.44798	0.814
9.48714	0.824
9.5263	0.826
9.56546	0.801
9.60461	0.734
9.64377	0.647
9.68293	0.487
9.72209	0.45
9.76125	0.734
9.8004	0.791
9.83956	0.834
9.87872	0.837
9.91788	0.84
9.95703	0.848
9.99619	0.86
10.0354	0.865
10.0745	0.866
10.1137	0.871
10.1528	0.873
10.192	0.876
10.2311	0.869
10.2703	0.839
10.3095	0.817
10.3486	0.817
10.3878	0.691
10.4269	0.556
10.4661	0.645
10.5052	0.559
10.5444	0.338
10.5836	0.424
10.6227	0.673
10.6619	0.757
10.701	0.796
10.7402	0.817
10.7793	0.829
10.8185	0.834
10.8577	0.84
10.8968	0.845
10.936	0.852
10.9751	0.856
11.0143	0.853
11.0535	0.845
11.0926	0.834
11.1318	0.751
11.1709	0.567
11.2101	0.629
11.2492	0.795
11.2884	0.809
11.3276	0.821
11.3667	0.827
11.4059	0.829
11.445	0.826
11.4842	0.821
11.5233	0.809
11.5625	0.793
11.6017	0.743
11.6408	0.6
11.68	0.432
11.7191	0.369
11.7583	0.604
11.7975	0.705
11.8366	0.721
11.8758	0.723
11.9149	0.66
11.9541	0.515
11.9932	0.44
12.0324	0.473
12.0716	0.525
12.1107	0.634
12.1499	0.736
12.189	0.767
12.2282	0.778
12.2673	0.786
12.3065	0.79
12.3457	0.79
12.3848	0.786
12.424	0.78
12.4631	0.773
12.5023	0.769
12.5414	0.772
12.5806	0.783
12.6198	0.788
12.6589	0.79
12.6981	0.793
12.7372	0.79
12.7764	0.786
12.8156	0.783
12.8547	0.782
12.8939	0.773
12.933	0.756
12.9722	0.674
13.0113	0.494
13.0505	0.3
13.0897	0.393
13.1288	0.617
13.168	0.72
13.2071	0.744
13.2463	0.757
13.2854	0.764
13.3246	0.765
13.3638	0.764
13.4029	0.76
13.4421	0.757
13.4812	0.754
13.5204	0.749
13.5596	0.744
13.5987	0.739
13.6379	0.734
13.677	0.726
13.7162	0.715
13.7553	0.704
13.7945	0.686
13.8337	0.65
13.8728	0.583
13.912	0.562
13.9511	0.614
13.9903	0.671
14.0294	0.694
14.0686	0.691
14.1078	0.679
14.1469	0.668
14.1861	0.653
14.2252	0.634
14.2644	0.611
14.3036	0.593
14.3427	0.562
14.3819	0.508
14.421	0.471
14.4602	0.455
14.4993	0.484
14.5385	0.536
14.5777	0.552
14.6168	0.539
14.656	0.521
14.6951	0.492
14.7343	0.461
14.7734	0.417
14.8126	0.38
14.8518	0.318
14.8909	0.265
14.9301	0.232
14.9692	0.227
15.0084	0.239
15.0475	0.248
15.0867	0.258
15.1259	0.271
15.165	0.284
15.2042	0.299
15.2433	0.31
15.2825	0.321
15.3217	0.32
15.3608	0.3
15.4	0.271
15.4391	0.258
15.4783	0.263
15.5174	0.291
15.5566	0.312
15.5958	0.326
15.6349	0.333
15.6741	0.333
15.7132	0.333
15.7524	0.334
15.7915	0.333
15.8307	0.331
15.8699	0.33
15.909	0.328
