Infrared Spectrum: o-n-PROPYL-o-(2,4,5-TRICHLOROPHENYL) CHLOROTHIOPHOSPHATE
Formula: C9 H9 Cl4 O2 P S
CAS: 116402-08-5
State: SOLUTION (10% CCl4 FOR 5000-1330, 10% CS2 FOR 1330-625 CM^-^1)
Class: COBLENTZ
Instrument: Not specified, most likely a prism, grating, or hybrid spectrometer.
Sampling: TRANSMISSION
Path length: 0.0124 CM, 0.0124 CM
Resolution: 4
Origin: DOW CHEMICAL COMPANY
MICROMETERS	TRANSMITTANCE
2.048	0.895
2.08892	0.895
2.12983	0.898
2.17075	0.897
2.21167	0.892
2.25258	0.885
2.2935	0.892
2.33442	0.892
2.37533	0.895
2.41625	0.892
2.45716	0.895
2.49808	0.902
2.539	0.905
2.57991	0.902
2.62083	0.892
2.66175	0.902
2.70266	0.89
2.74358	0.876
2.7845	0.854
2.82541	0.849
2.86633	0.869
2.90725	0.863
2.94816	0.857
2.98908	0.849
3.03	0.837
3.07091	0.825
3.11183	0.82
3.15275	0.804
3.19366	0.775
3.23458	0.768
3.27549	0.777
3.31641	0.672
3.35733	0.522
3.39824	0.671
3.43916	0.703
3.48008	0.784
3.52099	0.811
3.56191	0.823
3.60283	0.83
3.64374	0.835
3.68466	0.84
3.72558	0.851
3.76649	0.861
3.80741	0.863
3.84833	0.864
3.88924	0.866
3.93016	0.869
3.97107	0.868
4.01199	0.869
4.05291	0.871
4.09382	0.869
4.13474	0.873
4.17566	0.873
4.21657	0.854
4.25749	0.84
4.29841	0.833
4.33932	0.849
4.38024	0.861
4.42116	0.869
4.46207	0.871
4.50299	0.869
4.54391	0.869
4.58482	0.873
4.62574	0.873
4.66666	0.873
4.70757	0.88
4.74849	0.876
4.7894	0.881
4.83032	0.88
4.87124	0.881
4.91215	0.878
4.95307	0.875
4.99399	0.875
5.0349	0.878
5.07582	0.876
5.11674	0.88
5.15765	0.88
5.19857	0.875
5.23949	0.871
5.2804	0.871
5.32132	0.868
5.36224	0.869
5.40315	0.871
5.44407	0.871
5.48498	0.873
5.5259	0.873
5.56682	0.875
5.60773	0.873
5.64865	0.866
5.68957	0.851
5.73048	0.833
5.7714	0.842
5.81232	0.852
5.85323	0.857
5.89415	0.852
5.93507	0.849
5.97598	0.845
6.0169	0.845
6.05782	0.833
6.09873	0.821
6.13965	0.796
6.18056	0.753
6.22148	0.659
6.2624	0.542
6.30331	0.515
6.34423	0.506
6.38515	0.462
6.42606	0.41
6.46698	0.45
6.5079	0.518
6.54881	0.549
6.58973	0.587
6.63065	0.594
6.67156	0.506
6.71248	0.417
6.7534	0.325
6.79431	0.152
6.83523	0.118
6.87615	0.539
6.91706	0.676
6.95798	0.739
6.99889	0.744
7.03981	0.751
7.08073	0.741
7.12164	0.686
7.16256	0.703
7.20348	0.75
7.24439	0.772
7.28531	0.739
7.32623	0.559
7.36714	0.256
7.40806	0.623
7.44898	0.782
7.48989	0.809
7.53081	0.796
7.57173	0.779
7.61264	0.763
7.65356	0.744
7.69447	0.722
7.73539	0.743
7.77631	0.719
7.81722	0.679
7.85814	0.59
7.89906	0.482
7.93997	0.392
7.98089	0.301
8.02181	0.231
8.06272	0.318
8.10364	0.412
8.14456	0.582
8.18547	0.652
8.22639	0.691
8.26731	0.702
8.30822	0.693
8.34914	0.676
8.39006	0.65
8.43097	0.69
8.47189	0.695
8.5128	0.674
8.55372	0.672
8.59464	0.669
8.63555	0.64
8.67647	0.628
8.71739	0.602
8.7583	0.534
8.79922	0.412
8.84014	0.253
8.88105	0.212
8.92197	0.476
8.96289	0.577
9.0038	0.601
9.04472	0.575
9.08564	0.513
9.12655	0.448
9.16747	0.255
9.20838	0.078
9.2493	0.301
9.29022	0.453
9.33113	0.457
9.37205	0.395
9.41297	0.313
9.45388	0.246
9.4948	0.198
9.53572	0.224
9.57663	0.234
9.61755	0.186
9.65847	0.136
9.69938	0.085
9.7403	0.058
9.78122	0.046
9.82213	0.044
9.86305	0.051
9.90397	0.065
9.94488	0.089
9.9858	0.126
10.0267	0.181
10.0676	0.234
10.1085	0.268
10.1495	0.263
10.1904	0.226
10.2313	0.145
10.2722	0.07
10.3131	0.032
10.354	0.025
10.395	0.049
10.4359	0.14
10.4768	0.33
10.5177	0.428
10.5586	0.522
10.5995	0.568
10.6405	0.592
10.6814	0.606
10.7223	0.616
10.7632	0.621
10.8041	0.621
10.845	0.606
10.886	0.594
10.9269	0.585
10.9678	0.571
11.0087	0.583
11.0496	0.594
11.0905	0.58
11.1315	0.522
11.1724	0.445
11.2133	0.321
11.2542	0.171
11.2951	0.053
11.336	0.047
11.377	0.106
11.4179	0.147
11.4588	0.119
11.4997	0.066
11.5406	0.053
11.5815	0.07
11.6225	0.089
11.6634	0.089
11.7043	0.071
11.7452	0.073
11.7861	0.111
11.827	0.178
11.868	0.285
11.9089	0.354
11.9498	0.421
11.9907	0.484
12.0316	0.547
12.0725	0.59
12.1135	0.621
12.1544	0.647
12.1953	0.662
12.2362	0.674
12.2771	0.678
12.318	0.681
12.359	0.688
12.3999	0.698
12.4408	0.702
12.4817	0.702
12.5226	0.705
12.5635	0.712
12.6045	0.715
12.6454	0.715
12.6863	0.712
12.7272	0.702
12.7681	0.693
12.809	0.683
12.85	0.664
12.8909	0.63
12.9318	0.577
12.9727	0.5
13.0136	0.392
13.0545	0.28
13.0955	0.226
13.1364	0.202
13.1773	0.208
13.2182	0.246
13.2591	0.306
13.3	0.354
13.3409	0.392
13.3819	0.422
13.4228	0.441
13.4637	0.446
13.5046	0.426
13.5455	0.393
13.5864	0.359
13.6274	0.332
13.6683	0.321
13.7092	0.325
13.7501	0.335
13.791	0.347
13.8319	0.366
13.8729	0.388
13.9138	0.414
13.9547	0.44
13.9956	0.462
14.0365	0.489
14.0774	0.505
14.1184	0.511
14.1593	0.506
14.2002	0.498
14.2411	0.476
14.282	0.446
14.3229	0.419
14.3639	0.393
14.4048	0.369
14.4457	0.347
14.4866	0.318
14.5275	0.277
14.5684	0.236
14.6094	0.205
14.6503	0.222
14.6912	0.277
14.7321	0.318
14.773	0.339
14.8139	0.34
14.8549	0.327
14.8958	0.294
14.9367	0.258
14.9776	0.234
15.0185	0.205
15.0594	0.19
15.1004	0.183
15.1413	0.186
15.1822	0.202
15.2231	0.227
15.264	0.258
15.3049	0.285
15.3459	0.309
15.3868	0.328
15.4277	0.335
15.4686	0.342
15.5095	0.344
15.5504	0.342
15.5914	0.344
15.6323	0.339
15.6732	0.333
15.7141	0.328
15.755	0.321
