Infrared Spectrum: HYDROCINNAMIC ACID, 2-PHOSPHONO-, P,P-DIISOPROPYL C-METHYL ESTER
Formula: C16 H25 O5 P
CAS: 116401-34-4
State: LIQUID (NEAT)
Class: COBLENTZ III
Instrument: PERKIN-ELMER 21 (GRATING)
Instrument parameters: FILTER CHANGE AT ABOUT 1080 CM^-^1
Sampling: TRANSMISSION
Path length: CAPILLARY
Resolution: 2
Origin: SOUTHERN RESEARCH INSTITUTE
1/CM	TRANSMITTANCE
608.85	0.769
617.099	0.763
625.348	0.762
633.597	0.78
641.847	0.7908
650.096	0.797
658.345	0.8029
666.594	0.8237
674.843	0.8508
683.092	0.8638
691.342	0.8592
699.591	0.8082
707.84	0.3859
716.089	0.7209
724.338	0.783
732.587	0.7761
740.837	0.707
749.086	0.5871
757.335	0.5
765.584	0.5441
773.833	0.5816
782.082	0.6717
790.332	0.8162
798.581	0.817
806.83	0.7654
815.079	0.7821
823.328	0.8025
831.577	0.7995
839.827	0.7688
848.076	0.6925
856.325	0.7287
864.574	0.7197
872.823	0.671
881.072	0.708
889.322	0.6771
897.571	0.5004
905.82	0.5262
914.069	0.4753
922.318	0.5192
930.567	0.622
938.817	0.6162
947.066	0.568
955.315	0.5357
963.564	0.4025
971.813	0.2426
980.062	0.0886
988.312	0.0354
996.561	0.036
1004.81	0.0446
1013.06	0.0556
1021.31	0.0699
1029.56	0.1676
1037.81	0.2891
1046.06	0.4053
1054.3	0.5068
1062.55	0.5873
1070.8	0.6565
1079.05	0.663
1087.3	0.593
1095.55	0.637
1103.8	0.5418
1112.05	0.227
1120.3	0.3385
1128.55	0.4821
1136.8	0.527
1145.05	0.46
1153.29	0.2632
1161.54	0.2744
1169.79	0.3051
1178.04	0.3351
1186.29	0.3034
1194.54	0.395
1202.79	0.4728
1211.04	0.4863
1219.29	0.4673
1227.54	0.3617
1235.79	0.278
1244.04	0.2399
1252.28	0.1372
1260.53	0.113
1268.78	0.1373
1277.03	0.2618
1285.28	0.3982
1293.53	0.5061
1301.78	0.525
1310.03	0.5088
1318.28	0.4963
1326.53	0.4306
1334.78	0.4161
1343.03	0.4364
1351.27	0.4782
1359.52	0.504
1367.77	0.5438
1376.02	0.5579
1384.27	0.3717
1392.52	0.3797
1400.77	0.3778
1409.02	0.669
1417.27	0.7023
1425.52	0.7001
1433.77	0.6479
1442.02	0.59
1450.26	0.4372
1458.51	0.4287
1466.76	0.4487
1475.01	0.5121
1483.26	0.5866
1491.51	0.7044
1499.76	0.6731
1508.01	0.6065
1516.26	0.7591
1524.51	0.777
1532.76	0.78
1541.01	0.783
1549.25	0.78
1557.5	0.784
1565.75	0.779
1574	0.778
1582.25	0.7701
1590.5	0.765
1598.75	0.75
1607	0.7313
1615.25	0.7076
1623.5	0.749
1631.75	0.7452
1640	0.7351
1648.24	0.7213
1656.49	0.738
1664.74	0.739
1672.99	0.7336
1681.24	0.7222
1689.49	0.7133
1697.74	0.6965
1705.99	0.6509
1714.24	0.6412
1722.49	0.4582
1730.74	0.2964
1738.99	0.147
1747.23	0.1478
1755.48	0.3884
1763.73	0.5787
1771.98	0.6792
1780.23	0.7185
1788.48	0.7442
1796.73	0.75
1804.98	0.758
1813.23	0.758
1821.48	0.7587
1829.73	0.7657
1837.98	0.7737
1846.22	0.776
1854.47	0.778
1862.72	0.778
1870.97	0.776
1879.22	0.773
1887.47	0.772
1895.72	0.772
1903.97	0.7736
1912.22	0.778
1920.47	0.78
1928.72	0.78
1936.97	0.78
1945.21	0.78
1953.46	0.7774
1961.71	0.774
1969.96	0.776
1978.21	0.776
1986.46	0.776
1994.71	0.774
2002.96	0.774
2011.21	0.774
2019.46	0.779
2027.71	0.784
2035.96	0.78
2044.2	0.7805
2052.45	0.785
2060.7	0.7835
2068.95	0.778
2077.2	0.7665
2085.45	0.778
2093.7	0.78
2101.95	0.7845
2110.2	0.7845
2118.45	0.778
2126.7	0.784
2134.95	0.785
2143.19	0.787
2151.44	0.785
2159.69	0.7845
2167.94	0.788
2176.19	0.788
2184.44	0.7875
2192.69	0.787
2200.94	0.788
2209.19	0.787
2217.44	0.786
2225.69	0.7865
2233.94	0.788
2242.18	0.788
2250.43	0.787
2258.68	0.785
2266.93	0.7805
2275.18	0.781
2283.43	0.783
2291.68	0.7805
2299.93	0.78
2308.18	0.7905
2316.43	0.791
2324.68	0.79
2332.93	0.791
2341.17	0.791
2349.42	0.787
2357.67	0.787
2365.92	0.7875
2374.17	0.786
2382.42	0.7835
2390.67	0.786
2398.92	0.786
2407.17	0.787
2415.42	0.787
2423.67	0.7875
2431.92	0.786
2440.16	0.785
2448.41	0.784
2456.66	0.786
2464.91	0.7855
2473.16	0.785
2481.41	0.779
2489.66	0.779
2497.91	0.78
2506.16	0.78
2514.41	0.7835
2522.66	0.784
2530.91	0.784
2539.15	0.783
2547.4	0.781
2555.65	0.781
2563.9	0.78
2572.15	0.78
2580.4	0.781
2588.65	0.78
2596.9	0.779
2605.15	0.779
2613.4	0.776
2621.65	0.776
2629.9	0.7865
2638.14	0.7795
2646.39	0.778
2654.64	0.7785
2662.89	0.7805
2671.14	0.78
2679.39	0.778
2687.64	0.778
2695.89	0.778
2704.14	0.777
2712.39	0.7765
2720.64	0.774
2728.88	0.777
2737.13	0.777
2745.38	0.776
2753.63	0.7725
2761.88	0.767
2770.13	0.765
2778.38	0.761
2786.63	0.7565
2794.88	0.746
2803.13	0.743
2811.38	0.7385
2819.63	0.71
2827.87	0.6875
2836.12	0.6725
2844.37	0.6495
2852.62	0.636
2860.87	0.6325
2869.12	0.6225
2877.37	0.603
2885.62	0.5795
2893.87	0.5645
2902.12	0.5515
2910.37	0.5074
2918.62	0.459
2926.86	0.4285
2935.11	0.4225
2943.36	0.4225
2951.61	0.4295
2959.86	0.431
2968.11	0.4199
2976.36	0.3645
2984.61	0.33
2992.86	0.349
3001.11	0.4056
3009.36	0.4746
3017.61	0.5516
3025.85	0.6035
3034.1	0.615
3042.35	0.6225
3050.6	0.6325
3058.85	0.655
3067.1	0.674
3075.35	0.676
3083.6	0.677
3091.85	0.693
3100.1	0.7095
3108.35	0.7356
3116.6	0.745
3124.84	0.753
3133.09	0.76
3141.34	0.761
3149.59	0.7655
3157.84	0.768
3166.09	0.769
3174.34	0.769
3182.59	0.765
3190.84	0.753
3199.09	0.758
3207.34	0.7625
3215.59	0.7655
3223.83	0.7635
3232.08	0.7585
3240.33	0.7645
3248.58	0.762
3256.83	0.7645
3265.08	0.769
3273.33	0.7625
3281.58	0.7625
3289.83	0.763
3298.08	0.763
3306.33	0.7585
3314.58	0.7515
3322.82	0.747
3331.07	0.7505
3339.32	0.7535
3347.57	0.753
3355.82	0.75
3364.07	0.747
3372.32	0.7445
3380.57	0.74
3388.82	0.739
3397.07	0.741
3405.32	0.7425
3413.57	0.733
3421.81	0.732
3430.06	0.7205
3438.31	0.7095
3446.56	0.6965
3454.81	0.687
3463.06	0.68
3471.31	0.673
3479.56	0.6695
3487.81	0.673
3496.06	0.679
3504.31	0.688
3512.56	0.6905
3520.8	0.6915
3529.05	0.691
3537.3	0.69
3545.55	0.689
3553.8	0.699
3562.05	0.707
3570.3	0.714
3578.55	0.724
3586.8	0.728
3595.05	0.728
3603.3	0.7305
3611.55	0.734
3619.79	0.736
3628.04	0.741
3636.29	0.743
3644.54	0.743
3652.79	0.743
3661.04	0.7495
3669.29	0.758
3677.54	0.763
3685.79	0.766
3694.04	0.771
3702.29	0.777
3710.54	0.7835
3718.78	0.7865
3727.03	0.792
3735.28	0.791
3743.53	0.794
3751.78	0.794
3760.03	0.791
3768.28	0.7855
3776.53	0.777
3784.78	0.7775
3793.03	0.782
3801.28	0.79
