Infrared Spectrum: 2-(2,2-DIMETHYLPENTOXY)-3,6-DI-(n-HEPTYL) PYRAZINE
Formula: C25 H46 N2 O
CAS: 116403-03-3
State: LIQUID
Class: COBLENTZ
Instrument: Not specified, most likely a prism, grating, or hybrid spectrometer.
Sampling: TRANSMISSION
Path length: 0.003 CM
Resolution: 4
Origin: WYANDOTTE CHEMICALS CORP., WYANDOTTE, MICHIGAN, USA
MICROMETERS	TRANSMITTANCE
2.027	0.982
2.0679	0.986
2.10879	0.977
2.14969	0.938
2.19059	0.812
2.23149	0.843
2.27238	0.848
2.31328	0.869
2.35418	0.882
2.39507	0.911
2.43597	0.909
2.47687	0.923
2.51777	0.933
2.55866	0.974
2.59956	0.925
2.64046	0.986
2.68136	0.964
2.72225	0.962
2.76315	0.964
2.80405	0.931
2.84494	0.914
2.88584	0.892
2.92674	0.886
2.96764	0.872
3.00853	0.879
3.04943	0.875
3.09033	0.857
3.13122	0.819
3.17212	0.816
3.21302	0.802
3.25392	0.571
3.29481	0.365
3.33571	0.023
3.37661	0.047
3.41751	0.047
3.4584	0.049
3.4993	0.078
3.5402	0.352
3.58109	0.629
3.62199	0.704
3.66289	0.675
3.70379	0.753
3.74468	0.753
3.78558	0.799
3.82648	0.823
3.86737	0.848
3.90827	0.858
3.94917	0.879
3.99007	0.897
4.03096	0.901
4.07186	0.897
4.11276	0.897
4.15366	0.903
4.19455	0.908
4.23545	0.884
4.27635	0.874
4.31724	0.884
4.35814	0.923
4.39904	0.945
4.43994	0.943
4.48083	0.948
4.52173	0.952
4.56263	0.96
4.60352	0.959
4.64442	0.943
4.68532	0.945
4.72622	0.945
4.76711	0.955
4.80801	0.971
4.84891	0.964
4.88981	0.964
4.9307	0.96
4.9716	0.957
5.0125	0.948
5.05339	0.948
5.09429	0.96
5.13519	0.969
5.17609	0.971
5.21698	0.977
5.25788	0.972
5.29878	0.979
5.33967	0.986
5.38057	0.979
5.42147	0.986
5.46237	0.984
5.50326	0.977
5.54416	0.971
5.58506	0.962
5.62596	0.954
5.66685	0.931
5.70775	0.914
5.74865	0.914
5.78954	0.93
5.83044	0.914
5.87134	0.901
5.91224	0.899
5.95313	0.891
5.99403	0.87
6.03493	0.838
6.07582	0.814
6.11672	0.801
6.15762	0.79
6.19852	0.767
6.23941	0.702
6.28031	0.352
6.32121	0.42
6.36211	0.54
6.403	0.267
6.4439	0.129
6.4848	0.198
6.52569	0.403
6.56659	0.6
6.60749	0.63
6.64839	0.61
6.68928	0.503
6.73018	0.241
6.77108	0.059
6.81197	0.057
6.85287	0.049
6.89377	0.056
6.93467	0.066
6.97556	0.076
7.01646	0.137
7.05736	0.051
7.09826	0.051
7.13915	0.069
7.18005	0.069
7.22095	0.049
7.26184	0.064
7.30274	0.083
7.34364	0.074
7.38454	0.049
7.42543	0.045
7.46633	0.052
7.50723	0.079
7.54812	0.113
7.58902	0.102
7.62992	0.13
7.67082	0.151
7.71171	0.166
7.75261	0.212
7.79351	0.244
7.8344	0.246
7.8753	0.268
7.9162	0.311
7.9571	0.35
7.99799	0.391
8.03889	0.44
8.07979	0.445
8.12069	0.477
8.16158	0.522
8.20248	0.477
8.24338	0.44
8.28427	0.379
8.32517	0.309
8.36607	0.219
8.40697	0.098
8.44786	0.052
8.48876	0.051
8.52966	0.049
8.57055	0.047
8.61145	0.049
8.65235	0.059
8.69325	0.079
8.73414	0.141
8.77504	0.333
8.81594	0.537
8.85684	0.617
8.89773	0.61
8.93863	0.552
8.97953	0.503
9.02042	0.462
9.06132	0.455
9.10222	0.442
9.14312	0.401
9.18401	0.392
9.22491	0.387
9.26581	0.403
9.3067	0.464
9.3476	0.528
9.3885	0.576
9.4294	0.571
9.47029	0.545
9.51119	0.53
9.55209	0.44
9.59299	0.297
9.63388	0.149
9.67478	0.071
9.71568	0.059
9.75657	0.068
9.79747	0.086
9.83837	0.113
9.87927	0.156
9.92016	0.181
9.96106	0.19
10.002	0.197
10.0429	0.256
10.0838	0.341
10.1246	0.397
10.1655	0.409
10.2064	0.382
10.2473	0.346
10.2882	0.369
10.3291	0.44
10.37	0.551
10.4109	0.639
10.4518	0.675
10.4927	0.693
10.5336	0.698
10.5745	0.663
10.6154	0.605
10.6563	0.576
10.6972	0.561
10.7381	0.518
10.779	0.496
10.8199	0.525
10.8608	0.525
10.9017	0.551
10.9426	0.602
10.9835	0.624
11.0244	0.653
11.0653	0.666
11.1062	0.649
11.1471	0.63
11.188	0.598
11.2289	0.551
11.2698	0.481
11.3107	0.437
11.3516	0.391
11.3925	0.43
11.4334	0.573
11.4743	0.671
11.5152	0.727
11.5561	0.741
11.5969	0.741
11.6378	0.763
11.6787	0.797
11.7196	0.816
11.7605	0.826
11.8014	0.824
11.8423	0.819
11.8832	0.806
11.9241	0.799
11.965	0.799
12.0059	0.789
12.0468	0.787
12.0877	0.784
12.1286	0.789
12.1695	0.784
12.2104	0.78
12.2513	0.778
12.2922	0.767
12.3331	0.775
12.374	0.78
12.4149	0.784
12.4558	0.785
12.4967	0.773
12.5376	0.765
12.5785	0.755
12.6194	0.75
12.6603	0.739
12.7012	0.739
12.7421	0.739
12.783	0.727
12.8239	0.721
12.8648	0.714
12.9057	0.707
12.9466	0.69
12.9875	0.678
13.0284	0.668
13.0692	0.661
13.1101	0.668
13.151	0.675
13.1919	0.681
13.2328	0.693
13.2737	0.693
13.3146	0.698
13.3555	0.687
13.3964	0.661
13.4373	0.612
13.4782	0.566
13.5191	0.523
13.56	0.5
13.6009	0.522
13.6418	0.561
13.6827	0.579
13.7236	0.564
13.7645	0.53
13.8054	0.484
13.8463	0.448
13.8872	0.448
13.9281	0.498
13.969	0.569
14.0099	0.639
14.0508	0.687
14.0917	0.729
14.1326	0.75
14.1735	0.768
14.2144	0.789
14.2553	0.804
14.2962	0.806
14.3371	0.811
14.378	0.819
14.4189	0.821
14.4598	0.824
14.5007	0.829
14.5415	0.826
14.5824	0.823
14.6233	0.819
14.6642	0.812
14.7051	0.812
14.746	0.807
14.7869	0.787
14.8278	0.77
14.8687	0.765
14.9096	0.748
14.9505	0.739
14.9914	0.722
15.0323	0.692
15.0732	0.666
15.1141	0.663
15.155	0.67
15.1959	0.687
15.2368	0.678
15.2777	0.683
15.3186	0.693
15.3595	0.681
15.4004	0.687
15.4413	0.681
15.4822	0.671
15.5231	0.668
15.564	0.658
15.6049	0.649
15.6458	0.649
15.6867	0.63
15.7276	0.625
15.7685	0.62
15.8094	0.602
15.8503	0.591
15.8912	0.578
15.9321	0.566
15.973	0.562
