Infrared Spectrum: 6-BROMO-2,4-DI-t-AMYL PHENOL
Formula: C16 H25 Br O
CAS: 116434-86-7
State: SOLUTION (10% CCl4 FOR 5000-1330, 10% CS2 FOR 1330-625 CM^-^1)
Class: COBLENTZ
Instrument: Not specified, most likely a prism, grating, or hybrid spectrometer.
Sampling: TRANSMISSION
Path length: 0.0112 CM, 0.0112 CM
Resolution: 4
Origin: DOW CHEMICAL COMPANY
MICROMETERS	TRANSMITTANCE
2.027	0.901
2.06818	0.901
2.10935	0.899
2.15053	0.902
2.19171	0.906
2.23289	0.894
2.27406	0.88
2.31524	0.889
2.35642	0.896
2.39759	0.899
2.43877	0.901
2.47995	0.902
2.52113	0.906
2.5623	0.899
2.60348	0.909
2.64466	0.911
2.68583	0.911
2.72701	0.911
2.76819	0.901
2.80937	0.822
2.85054	0.55
2.89172	0.923
2.9329	0.892
2.97407	0.904
3.01525	0.901
3.05643	0.901
3.09761	0.901
3.13878	0.897
3.17996	0.897
3.22114	0.884
3.26231	0.873
3.30349	0.834
3.34467	0.528
3.38585	0.119
3.42702	0.296
3.4682	0.388
3.50938	0.735
3.55055	0.862
3.59173	0.885
3.63291	0.899
3.67409	0.899
3.71526	0.909
3.75644	0.908
3.79762	0.914
3.83879	0.921
3.87997	0.923
3.92115	0.928
3.96233	0.921
4.0035	0.926
4.04468	0.928
4.08586	0.926
4.12703	0.928
4.16821	0.928
4.20939	0.926
4.25057	0.921
4.29174	0.916
4.33292	0.909
4.3741	0.918
4.41527	0.931
4.45645	0.94
4.49763	0.95
4.53881	0.95
4.57998	0.948
4.62116	0.95
4.66234	0.948
4.70351	0.947
4.74469	0.948
4.78587	0.95
4.82705	0.948
4.86822	0.948
4.9094	0.948
4.95058	0.947
4.99175	0.943
5.03293	0.935
5.07411	0.948
5.11529	0.947
5.15646	0.95
5.19764	0.952
5.23882	0.948
5.27999	0.95
5.32117	0.948
5.36235	0.945
5.40353	0.948
5.4447	0.95
5.48588	0.95
5.52706	0.95
5.56824	0.942
5.60941	0.938
5.65059	0.942
5.69177	0.938
5.73294	0.93
5.77412	0.921
5.8153	0.931
5.85648	0.95
5.89765	0.942
5.93883	0.95
5.98001	0.947
6.02118	0.95
6.06236	0.948
6.10354	0.938
6.14472	0.911
6.18589	0.879
6.22707	0.795
6.26825	0.703
6.30942	0.618
6.3506	0.507
6.39178	0.466
6.43296	0.471
6.47413	0.492
6.51531	0.609
6.55649	0.659
6.59766	0.705
6.63884	0.746
6.68002	0.735
6.7212	0.514
6.76237	0.282
6.80355	0.192
6.84473	0.258
6.8859	0.395
6.92708	0.609
6.96826	0.775
7.00944	0.783
7.05061	0.705
7.09179	0.505
7.13297	0.492
7.17414	0.689
7.21532	0.526
7.2565	0.586
7.29768	0.643
7.33885	0.65
7.38003	0.827
7.42121	0.695
7.46238	0.495
7.50356	0.483
7.54474	0.695
7.58592	0.655
7.62709	0.512
7.66827	0.451
7.70945	0.562
7.75062	0.706
7.7918	0.666
7.83298	0.608
7.87416	0.64
7.91533	0.655
7.95651	0.505
7.99769	0.325
8.03886	0.475
8.08004	0.674
8.12122	0.727
8.1624	0.73
8.20357	0.752
8.24475	0.713
8.28593	0.609
8.3271	0.558
8.36828	0.575
8.40946	0.5
8.45064	0.381
8.49181	0.328
8.53299	0.402
8.57417	0.466
8.61534	0.58
8.65652	0.688
8.6977	0.758
8.73888	0.78
8.78005	0.781
8.82123	0.764
8.86241	0.798
8.90358	0.843
8.94476	0.867
8.98594	0.88
9.02712	0.889
9.06829	0.879
9.10947	0.831
9.15065	0.676
9.19182	0.684
9.233	0.831
9.27418	0.882
9.31536	0.897
9.35653	0.897
9.39771	0.867
9.43889	0.827
9.48006	0.873
9.52124	0.892
9.56242	0.899
9.6036	0.909
9.64477	0.916
9.68595	0.923
9.72713	0.918
9.7683	0.908
9.80948	0.887
9.85066	0.856
9.89184	0.807
9.93301	0.764
9.97419	0.807
10.0154	0.877
10.0565	0.873
10.0977	0.879
10.1389	0.916
10.1801	0.931
10.2213	0.947
10.2624	0.948
10.3036	0.95
10.3448	0.95
10.386	0.948
10.4271	0.95
10.4683	0.947
10.5095	0.947
10.5507	0.936
10.5918	0.919
10.633	0.885
10.6742	0.867
10.7154	0.875
10.7566	0.885
10.7977	0.899
10.8389	0.896
10.8801	0.875
10.9213	0.875
10.9624	0.889
11.0036	0.897
11.0448	0.896
11.086	0.875
11.1272	0.846
11.1683	0.829
11.2095	0.836
11.2507	0.824
11.2919	0.809
11.333	0.809
11.3742	0.8
11.4154	0.773
11.4566	0.72
11.4977	0.604
11.5389	0.478
11.5801	0.422
11.6213	0.574
11.6625	0.679
11.7036	0.717
11.7448	0.747
11.786	0.771
11.8272	0.802
11.8683	0.826
11.9095	0.834
11.9507	0.829
11.9919	0.812
12.033	0.787
12.0742	0.78
12.1154	0.795
12.1566	0.798
12.1978	0.785
12.2389	0.768
12.2801	0.775
12.3213	0.798
12.3625	0.81
12.4036	0.816
12.4448	0.793
12.486	0.766
12.5272	0.759
12.5684	0.763
12.6095	0.744
12.6507	0.701
12.6919	0.642
12.7331	0.609
12.7742	0.604
12.8154	0.591
12.8566	0.587
12.8978	0.66
12.9389	0.744
12.9801	0.778
13.0213	0.793
13.0625	0.807
13.1037	0.81
13.1448	0.81
13.186	0.81
13.2272	0.809
13.2684	0.798
13.3095	0.787
13.3507	0.747
13.3919	0.657
13.4331	0.55
13.4742	0.541
13.5154	0.582
13.5566	0.579
13.5978	0.592
13.639	0.654
13.6801	0.698
13.7213	0.725
13.7625	0.749
13.8037	0.763
13.8448	0.766
13.886	0.761
13.9272	0.754
13.9684	0.741
14.0096	0.706
14.0507	0.659
14.0919	0.584
14.1331	0.504
14.1743	0.456
14.2154	0.446
14.2566	0.494
14.2978	0.577
14.339	0.625
14.3801	0.654
14.4213	0.667
14.4625	0.676
14.5037	0.679
14.5449	0.679
14.586	0.678
14.6272	0.671
14.6684	0.666
14.7096	0.657
14.7507	0.65
14.7919	0.643
14.8331	0.633
14.8743	0.626
14.9154	0.616
14.9566	0.604
14.9978	0.597
15.039	0.58
15.0802	0.568
15.1213	0.557
15.1625	0.545
15.2037	0.534
15.2449	0.517
15.286	0.505
15.3272	0.49
15.3684	0.471
15.4096	0.449
15.4508	0.437
15.4919	0.436
15.5331	0.436
15.5743	0.436
15.6155	0.437
15.6566	0.437
15.6978	0.439
15.739	0.437
15.7802	0.434
15.8213	0.429
15.8625	0.427
15.9037	0.429
