Infrared Spectrum: BIS-(3-BENZOXYPHENYL) PHTHALATE
Formula: C34 H26 O6
CAS: 116402-24-5
State: SOLID (MINERAL OIL MULL)
Class: COBLENTZ
Instrument: Not specified, most likely a prism, grating, or hybrid spectrometer.
Sampling: TRANSMISSION
Resolution: 4
Origin: DOW CHEMICAL COMPANY
MICROMETERS	TRANSMITTANCE
2.023	0.73
2.0621	0.735
2.10119	0.743
2.14029	0.749
2.17938	0.752
2.21848	0.752
2.25757	0.754
2.29667	0.756
2.33577	0.76
2.37486	0.764
2.41396	0.768
2.45305	0.775
2.49215	0.783
2.53124	0.786
2.57034	0.793
2.60944	0.798
2.64853	0.799
2.68763	0.804
2.72672	0.809
2.76582	0.814
2.80491	0.817
2.84401	0.819
2.88311	0.82
2.9222	0.827
2.9613	0.828
3.00039	0.831
3.03949	0.835
3.07858	0.83
3.11768	0.823
3.15677	0.82
3.19587	0.814
3.23497	0.799
3.27406	0.791
3.31316	0.722
3.35225	0.462
3.39135	0.132
3.43044	0.269
3.46954	0.332
3.50864	0.707
3.54773	0.827
3.58683	0.856
3.62592	0.864
3.66502	0.864
3.70411	0.867
3.74321	0.87
3.78231	0.873
3.8214	0.877
3.8605	0.88
3.89959	0.886
3.93869	0.891
3.97778	0.893
4.01688	0.896
4.05598	0.899
4.09507	0.903
4.13417	0.903
4.17326	0.898
4.21236	0.898
4.25145	0.903
4.29055	0.906
4.32965	0.909
4.36874	0.911
4.40784	0.915
4.44693	0.917
4.48603	0.919
4.52512	0.92
4.56422	0.919
4.60332	0.917
4.64241	0.92
4.68151	0.92
4.7206	0.922
4.7597	0.924
4.79879	0.924
4.83789	0.927
4.87698	0.93
4.91608	0.935
4.95518	0.932
4.99427	0.919
5.03337	0.928
5.07246	0.93
5.11156	0.93
5.15065	0.928
5.18975	0.928
5.22885	0.928
5.26794	0.938
5.30704	0.938
5.34613	0.94
5.38523	0.941
5.42432	0.938
5.46342	0.928
5.50252	0.92
5.54161	0.917
5.58071	0.898
5.6198	0.835
5.6589	0.649
5.69799	0.423
5.73709	0.263
5.77619	0.344
5.81528	0.693
5.85438	0.836
5.89347	0.87
5.93257	0.896
5.97166	0.909
6.01076	0.914
6.04986	0.922
6.08895	0.92
6.12805	0.903
6.16714	0.83
6.20624	0.628
6.24533	0.681
6.28443	0.789
6.32353	0.878
6.36262	0.901
6.40172	0.909
6.44081	0.907
6.47991	0.919
6.519	0.919
6.5581	0.915
6.5972	0.899
6.63629	0.841
6.67539	0.705
6.71448	0.607
6.75358	0.597
6.79267	0.567
6.83177	0.528
6.87086	0.581
6.90996	0.746
6.94906	0.841
6.98815	0.877
7.02725	0.898
7.06634	0.903
7.10544	0.903
7.14453	0.888
7.18363	0.823
7.22273	0.731
7.26182	0.788
7.30092	0.841
7.34001	0.878
7.37911	0.873
7.4182	0.873
7.4573	0.877
7.4964	0.857
7.53549	0.786
7.57459	0.744
7.61368	0.731
7.65278	0.704
7.69187	0.568
7.73097	0.528
7.77007	0.478
7.80916	0.289
7.84826	0.26
7.88735	0.231
7.92645	0.221
7.96554	0.203
8.00464	0.174
8.04374	0.221
8.08283	0.282
8.12193	0.424
8.16102	0.659
8.20012	0.777
8.23921	0.83
8.27831	0.852
8.31741	0.87
8.3565	0.864
8.3956	0.828
8.43469	0.762
8.47379	0.76
8.51288	0.765
8.55198	0.739
8.59108	0.738
8.63017	0.714
8.66927	0.646
8.70836	0.492
8.74746	0.342
8.78655	0.429
8.82565	0.473
8.86474	0.345
8.90384	0.277
8.94294	0.445
8.98203	0.697
9.02113	0.802
9.06022	0.828
9.09932	0.823
9.13841	0.756
9.17751	0.638
9.21661	0.602
9.2557	0.567
9.2948	0.592
9.33389	0.649
9.37299	0.544
9.41208	0.449
9.45118	0.452
9.49028	0.41
9.52937	0.471
9.56847	0.662
9.60756	0.688
9.64666	0.72
9.68575	0.686
9.72485	0.6
9.76395	0.691
9.80304	0.835
9.84214	0.869
9.88123	0.865
9.92033	0.786
9.95942	0.819
9.99852	0.873
10.0376	0.891
10.0767	0.899
10.1158	0.903
10.1549	0.903
10.194	0.899
10.2331	0.899
10.2722	0.899
10.3113	0.894
10.3504	0.903
10.3895	0.909
10.4286	0.911
10.4677	0.911
10.5068	0.901
10.5459	0.882
10.585	0.844
10.6241	0.781
10.6631	0.767
10.7022	0.82
10.7413	0.87
10.7804	0.88
10.8195	0.891
10.8586	0.891
10.8977	0.89
10.9368	0.872
10.9759	0.831
11.015	0.783
11.0541	0.762
11.0932	0.759
11.1323	0.783
11.1714	0.794
11.2105	0.77
11.2496	0.804
11.2887	0.862
11.3278	0.883
11.3669	0.893
11.406	0.901
11.4451	0.904
11.4842	0.906
11.5233	0.909
11.5623	0.911
11.6014	0.912
11.6405	0.907
11.6796	0.903
11.7187	0.896
11.7578	0.891
11.7969	0.898
11.836	0.901
11.8751	0.899
11.9142	0.891
11.9533	0.882
11.9924	0.878
12.0315	0.88
12.0706	0.888
12.1097	0.893
12.1488	0.896
12.1879	0.899
12.227	0.899
12.2661	0.898
12.3052	0.894
12.3443	0.888
12.3834	0.873
12.4225	0.854
12.4615	0.838
12.5006	0.84
12.5397	0.851
12.5788	0.844
12.6179	0.809
12.657	0.793
12.6961	0.796
12.7352	0.794
12.7743	0.76
12.8134	0.684
12.8525	0.605
12.8916	0.579
12.9307	0.631
12.9698	0.741
13.0089	0.798
13.048	0.838
13.0871	0.849
13.1262	0.851
13.1653	0.841
13.2044	0.827
13.2435	0.819
13.2826	0.819
13.3217	0.822
13.3607	0.819
13.3998	0.807
13.4389	0.775
13.478	0.733
13.5171	0.701
13.5562	0.712
13.5953	0.751
13.6344	0.778
13.6735	0.785
13.7126	0.785
13.7517	0.777
13.7908	0.77
13.8299	0.762
13.869	0.752
13.9081	0.733
13.9472	0.699
13.9863	0.652
14.0254	0.579
14.0645	0.5
14.1036	0.403
14.1427	0.297
14.1818	0.277
14.2209	0.368
14.2599	0.465
14.299	0.567
14.3381	0.612
14.3772	0.623
14.4163	0.6
14.4554	0.576
14.4945	0.562
14.5336	0.57
14.5727	0.583
14.6118	0.597
14.6509	0.6
14.69	0.599
14.7291	0.583
14.7682	0.568
14.8073	0.55
14.8464	0.547
14.8855	0.552
14.9246	0.568
14.9637	0.591
15.0028	0.6
15.0419	0.6
15.081	0.592
15.1201	0.581
15.1592	0.57
15.1982	0.555
15.2373	0.549
15.2764	0.546
15.3155	0.546
15.3546	0.546
15.3937	0.541
15.4328	0.534
15.4719	0.529
15.511	0.52
15.5501	0.51
15.5892	0.504
15.6283	0.497
15.6674	0.489
15.7065	0.481
15.7456	0.474
15.7847	0.47
15.8238	0.463
15.8629	0.458
15.902	0.463
