Infrared Spectrum: PHOSPHORODIAMIDIC ACID, N,N'-BIS (p-n-BUTYL PHENYL), ETHYL ESTER
Formula: C22 H33 O2 N2 P
CAS: 116401-81-1
State: SOLID (KBr PELLET)
Class: COBLENTZ
Instrument: PERKIN-ELMER
Sampling: TRANSMISSION
Resolution: 4
Origin: STANDARD OIL OF OHIO
MICROMETERS	TRANSMITTANCE
1.973	0.962
2.00678	0.962
2.04057	0.964
2.07435	0.967
2.10814	0.965
2.14192	0.964
2.17571	0.959
2.20949	0.962
2.24327	0.964
2.27706	0.955
2.31084	0.95
2.34463	0.948
2.37841	0.952
2.4122	0.955
2.44598	0.955
2.47976	0.95
2.51355	0.954
2.54733	0.955
2.58112	0.959
2.6149	0.957
2.64868	0.96
2.68247	0.96
2.71625	0.959
2.75004	0.933
2.78382	0.885
2.81761	0.793
2.85139	0.71
2.88517	0.655
2.91896	0.626
2.95274	0.613
2.98653	0.611
3.02031	0.606
3.0541	0.466
3.08788	0.344
3.12166	0.321
3.15545	0.379
3.18923	0.526
3.22302	0.666
3.2568	0.708
3.29059	0.647
3.32437	0.659
3.35815	0.511
3.39194	0.269
3.42572	0.218
3.45951	0.47
3.49329	0.417
3.52707	0.633
3.56086	0.833
3.59464	0.873
3.62843	0.902
3.66221	0.916
3.696	0.923
3.72978	0.935
3.76356	0.94
3.79735	0.943
3.83113	0.95
3.86492	0.952
3.8987	0.959
3.93249	0.959
3.96627	0.955
4.00005	0.955
4.03384	0.962
4.06762	0.964
4.10141	0.965
4.13519	0.967
4.16898	0.967
4.20276	0.96
4.23654	0.954
4.27033	0.96
4.30411	0.965
4.3379	0.967
4.37168	0.971
4.40546	0.971
4.43925	0.969
4.47303	0.967
4.50682	0.967
4.5406	0.965
4.57439	0.965
4.60817	0.965
4.64195	0.964
4.67574	0.959
4.70952	0.957
4.74331	0.955
4.77709	0.954
4.81088	0.952
4.84466	0.952
4.87844	0.95
4.91223	0.95
4.94601	0.948
4.9798	0.952
5.01358	0.952
5.04737	0.954
5.08115	0.952
5.11493	0.952
5.14872	0.95
5.1825	0.945
5.21629	0.943
5.25007	0.931
5.28385	0.918
5.31764	0.918
5.35142	0.933
5.38521	0.945
5.41899	0.95
5.45278	0.952
5.48656	0.95
5.52034	0.947
5.55413	0.943
5.58791	0.938
5.6217	0.931
5.65548	0.931
5.68927	0.931
5.72305	0.935
5.75683	0.938
5.79062	0.936
5.8244	0.935
5.85819	0.935
5.89197	0.938
5.92576	0.931
5.95954	0.928
5.99332	0.906
6.02711	0.86
6.06089	0.836
6.09468	0.79
6.12846	0.744
6.16225	0.519
6.19603	0.383
6.22981	0.706
6.2636	0.81
6.29738	0.78
6.33117	0.841
6.36495	0.892
6.39873	0.897
6.43252	0.887
6.4663	0.855
6.50009	0.795
6.53387	0.666
6.56766	0.281
6.60144	0.032
6.63522	0.112
6.66901	0.562
6.70279	0.621
6.73658	0.533
6.77036	0.385
6.80415	0.31
6.83793	0.275
6.87171	0.35
6.9055	0.461
6.93928	0.572
6.97307	0.674
7.00685	0.775
7.04064	0.833
7.07442	0.838
7.1082	0.785
7.14199	0.541
7.17577	0.366
7.20956	0.332
7.24334	0.391
7.27712	0.477
7.31091	0.608
7.34469	0.664
7.37848	0.722
7.41226	0.763
7.44605	0.775
7.47983	0.785
7.51361	0.788
7.5474	0.768
7.58118	0.725
7.61497	0.659
7.64875	0.603
7.68254	0.468
7.71632	0.287
7.7501	0.212
7.78389	0.236
7.81767	0.294
7.85146	0.4
7.88524	0.534
7.91903	0.647
7.95281	0.669
7.98659	0.613
8.02038	0.509
8.05416	0.42
8.08795	0.344
8.12173	0.286
8.15551	0.274
8.1893	0.27
8.22308	0.236
8.25687	0.177
8.29065	0.158
8.32444	0.158
8.35822	0.148
8.392	0.143
8.42579	0.155
8.45957	0.26
8.49336	0.403
8.52714	0.528
8.56093	0.623
8.59471	0.628
8.62849	0.611
8.66228	0.63
8.69606	0.7
8.72985	0.737
8.76363	0.771
8.79742	0.78
8.8312	0.766
8.86498	0.708
8.89877	0.662
8.93255	0.643
8.96634	0.652
9.00012	0.695
9.03391	0.718
9.06769	0.695
9.10147	0.667
9.13526	0.664
9.16904	0.683
9.20283	0.717
9.23661	0.725
9.27039	0.718
9.30418	0.689
9.33796	0.652
9.37175	0.601
9.40553	0.551
9.43932	0.454
9.4731	0.364
9.50688	0.264
9.54067	0.195
9.57445	0.144
9.60824	0.137
9.64202	0.136
9.67581	0.144
9.70959	0.168
9.74337	0.211
9.77716	0.262
9.81094	0.265
9.84473	0.301
9.87851	0.417
9.9123	0.526
9.94608	0.54
9.97986	0.509
10.0136	0.437
10.0474	0.381
10.0812	0.294
10.115	0.214
10.1488	0.148
10.1826	0.127
10.2164	0.117
10.2501	0.098
10.2839	0.09
10.3177	0.088
10.3515	0.08
10.3853	0.08
10.4191	0.086
10.4528	0.107
10.4866	0.153
10.5204	0.207
10.5542	0.255
10.588	0.306
10.6218	0.357
10.6555	0.396
10.6893	0.419
10.7231	0.436
10.7569	0.451
10.7907	0.466
10.8245	0.495
10.8583	0.551
10.892	0.609
10.9258	0.676
10.9596	0.737
10.9934	0.775
11.0272	0.805
11.061	0.824
11.0947	0.836
11.1285	0.839
11.1623	0.844
11.1961	0.855
11.2299	0.856
11.2637	0.856
11.2974	0.853
11.3312	0.856
11.365	0.862
11.3988	0.87
11.4326	0.877
11.4664	0.882
11.5002	0.887
11.5339	0.887
11.5677	0.884
11.6015	0.877
11.6353	0.858
11.6691	0.838
11.7029	0.775
11.7366	0.717
11.7704	0.654
11.8042	0.604
11.838	0.568
11.8718	0.533
11.9056	0.504
11.9393	0.473
11.9731	0.448
12.0069	0.436
12.0407	0.432
12.0745	0.437
12.1083	0.444
12.1421	0.459
12.1758	0.477
12.2096	0.505
12.2434	0.536
12.2772	0.56
12.311	0.574
12.3448	0.586
12.3785	0.604
12.4123	0.64
12.4461	0.674
12.4799	0.693
12.5137	0.696
12.5475	0.693
12.5812	0.689
12.615	0.691
12.6488	0.7
12.6826	0.705
12.7164	0.705
12.7502	0.7
12.784	0.695
12.8177	0.695
12.8515	0.698
12.8853	0.701
12.9191	0.71
12.9529	0.724
12.9867	0.73
13.0204	0.737
13.0542	0.741
13.088	0.742
13.1218	0.742
13.1556	0.742
13.1894	0.744
13.2232	0.744
13.2569	0.749
13.2907	0.747
13.3245	0.751
13.3583	0.752
13.3921	0.756
13.4259	0.759
13.4596	0.764
13.4934	0.77
13.5272	0.776
13.561	0.78
13.5948	0.783
13.6286	0.787
13.6623	0.788
13.6961	0.787
13.7299	0.781
13.7637	0.776
13.7975	0.776
13.8313	0.781
13.8651	0.787
13.8988	0.792
13.9326	0.798
13.9664	0.802
14.0002	0.804
14.034	0.805
14.0678	0.809
14.1015	0.809
14.1353	0.81
14.1691	0.814
14.2029	0.816
14.2367	0.816
14.2705	0.819
14.3042	0.817
14.338	0.817
14.3718	0.819
14.4056	0.821
14.4394	0.821
14.4732	0.819
14.507	0.819
14.5407	0.817
14.5745	0.816
14.6083	0.814
14.6421	0.812
14.6759	0.807
14.7097	0.804
14.7434	0.804
14.7772	0.804
14.811	0.804
14.8448	0.798
14.8786	0.795
14.9124	0.793
14.9461	0.792
14.9799	0.792
15.0137	0.792
15.0475	0.792
15.0813	0.787
15.1151	0.78
15.1489	0.78
15.1826	0.773
15.2164	0.773
15.2502	0.771
15.284	0.764
15.3178	0.761
