Infrared Spectrum: 3,3'-(DIMETHYLSILYLDIOXY)BIS-2,2,4,4-TETRAMETHYL CYCLOBUTANOL
Formula: C18 H36 O4 Si
CAS: 116434-98-1
Class: COBLENTZ
Instrument: Not specified, most likely a prism, grating, or hybrid spectrometer.
Sampling: TRANSMISSION
Resolution: 4
MICROMETERS	TRANSMITTANCE
2	0.821
2.03986	0.823
2.07971	0.828
2.11957	0.83
2.15943	0.831
2.19929	0.831
2.23914	0.831
2.279	0.828
2.31886	0.828
2.35872	0.828
2.39857	0.83
2.43843	0.83
2.47829	0.83
2.51814	0.831
2.558	0.835
2.59786	0.835
2.63772	0.838
2.67757	0.84
2.71743	0.83
2.75729	0.77
2.79715	0.665
2.837	0.547
2.87686	0.386
2.91672	0.198
2.95657	0.118
2.99643	0.114
3.03629	0.201
3.07615	0.334
3.116	0.5
3.15586	0.637
3.19572	0.732
3.23558	0.792
3.27543	0.813
3.31529	0.7
3.35515	0.194
3.395	0.129
3.43486	0.219
3.47472	0.364
3.51458	0.77
3.55443	0.816
3.59429	0.855
3.63415	0.856
3.67401	0.848
3.71386	0.873
3.75372	0.916
3.79358	0.936
3.83343	0.951
3.87329	0.96
3.91315	0.968
3.95301	0.971
3.99286	0.971
4.03272	0.971
4.07258	0.973
4.11244	0.975
4.15229	0.976
4.19215	0.976
4.23201	0.978
4.27186	0.976
4.31172	0.978
4.35158	0.976
4.39144	0.98
4.43129	0.976
4.47115	0.976
4.51101	0.976
4.55086	0.976
4.59072	0.978
4.63058	0.978
4.67044	0.978
4.71029	0.978
4.75015	0.98
4.79001	0.981
4.82987	0.981
4.86972	0.98
4.90958	0.98
4.94944	0.981
4.98929	0.985
5.02915	0.986
5.06901	0.985
5.10887	0.985
5.14872	0.981
5.18858	0.981
5.22844	0.973
5.2683	0.98
5.30815	0.983
5.34801	0.983
5.38787	0.985
5.42772	0.986
5.46758	0.986
5.50744	0.988
5.5473	0.986
5.58715	0.986
5.62701	0.986
5.66687	0.986
5.70673	0.986
5.74658	0.981
5.78644	0.978
5.8263	0.975
5.86615	0.968
5.90601	0.963
5.94587	0.956
5.98573	0.946
6.02558	0.933
6.06544	0.92
6.1053	0.903
6.14516	0.903
6.18501	0.906
6.22487	0.913
6.26473	0.923
6.30458	0.928
6.34444	0.928
6.3843	0.928
6.42416	0.926
6.46401	0.926
6.50387	0.926
6.54373	0.926
6.58359	0.925
6.62344	0.906
6.6633	0.886
6.70316	0.831
6.74301	0.732
6.78287	0.312
6.82273	0.242
6.86259	0.359
6.90244	0.442
6.9423	0.585
6.98216	0.625
7.02202	0.65
7.06187	0.643
7.10173	0.653
7.14159	0.675
7.18144	0.637
7.2213	0.427
7.26116	0.482
7.30102	0.454
7.34087	0.397
7.38073	0.642
7.42059	0.682
7.46045	0.599
7.5003	0.547
7.54016	0.534
7.58002	0.529
7.61987	0.59
7.65973	0.695
7.69959	0.715
7.73945	0.693
7.7793	0.728
7.81916	0.73
7.85902	0.683
7.89888	0.459
7.93873	0.144
7.97859	0.227
8.01845	0.653
8.0583	0.73
8.09816	0.733
8.13802	0.668
8.17788	0.627
8.21773	0.618
8.25759	0.61
8.29745	0.41
8.33731	0.334
8.37716	0.485
8.41702	0.603
8.45688	0.637
8.49673	0.627
8.53659	0.532
8.57645	0.387
8.61631	0.277
8.65616	0.199
8.69602	0.168
8.73588	0.134
8.77574	0.109
8.81559	0.111
8.85545	0.207
8.89531	0.376
8.93516	0.492
8.97502	0.515
9.01488	0.487
9.05474	0.412
9.09459	0.291
9.13445	0.164
9.17431	0.091
9.21416	0.054
9.25402	0.049
9.29388	0.049
9.33374	0.048
9.37359	0.046
9.41345	0.048
9.45331	0.086
9.49317	0.214
9.53302	0.351
9.57288	0.467
9.61274	0.549
9.65259	0.599
9.69245	0.62
9.73231	0.628
9.77217	0.602
9.81202	0.449
9.85188	0.242
9.89174	0.098
9.9316	0.064
9.97145	0.186
10.0113	0.405
10.0512	0.5
10.091	0.54
10.1309	0.567
10.1707	0.58
10.2106	0.587
10.2505	0.592
10.2903	0.642
10.3302	0.727
10.37	0.773
10.4099	0.795
10.4497	0.792
10.4896	0.753
10.5295	0.728
10.5693	0.732
10.6092	0.743
10.649	0.748
10.6889	0.74
10.7287	0.69
10.7686	0.592
10.8085	0.412
10.8483	0.237
10.8882	0.106
10.928	0.068
10.9679	0.069
11.0077	0.179
11.0476	0.296
11.0875	0.372
11.1273	0.377
11.1672	0.321
11.207	0.296
11.2469	0.281
11.2867	0.231
11.3266	0.204
11.3665	0.226
11.4063	0.314
11.4462	0.399
11.486	0.432
11.5259	0.414
11.5657	0.367
11.6056	0.354
11.6455	0.405
11.6853	0.505
11.7252	0.599
11.765	0.633
11.8049	0.652
11.8447	0.63
11.8846	0.557
11.9245	0.469
11.9643	0.392
12.0042	0.347
12.044	0.334
12.0839	0.359
12.1237	0.402
12.1636	0.435
12.2035	0.452
12.2433	0.47
12.2832	0.48
12.323	0.482
12.3629	0.477
12.4027	0.454
12.4426	0.399
12.4825	0.316
12.5223	0.226
12.5622	0.179
12.602	0.184
12.6419	0.274
12.6817	0.349
12.7216	0.4
12.7615	0.42
12.8013	0.447
12.8412	0.522
12.881	0.602
12.9209	0.643
12.9607	0.683
13.0006	0.725
13.0405	0.777
13.0803	0.811
13.1202	0.835
13.16	0.851
13.1999	0.861
13.2397	0.866
13.2796	0.871
13.3195	0.875
13.3593	0.878
13.3992	0.878
13.439	0.88
13.4789	0.883
13.5187	0.886
13.5586	0.888
13.5985	0.891
13.6383	0.891
13.6782	0.891
13.718	0.891
13.7579	0.893
13.7978	0.893
13.8376	0.895
13.8775	0.895
13.9173	0.895
13.9572	0.895
13.997	0.895
14.0369	0.895
14.0768	0.895
14.1166	0.895
14.1565	0.895
14.1963	0.895
14.2362	0.895
14.276	0.895
14.3159	0.895
14.3558	0.895
14.3956	0.895
14.4355	0.895
14.4753	0.891
14.5152	0.891
14.555	0.888
14.5949	0.886
14.6348	0.886
14.6746	0.885
14.7145	0.883
14.7543	0.883
14.7942	0.883
14.834	0.883
14.8739	0.881
14.9138	0.875
14.9536	0.861
14.9935	0.83
15.0333	0.801
15.0732	0.787
15.113	0.778
15.1529	0.758
15.1928	0.74
15.2326	0.72
15.2725	0.717
15.3123	0.717
15.3522	0.717
15.392	0.722
15.4319	0.725
15.4718	0.727
15.5116	0.728
15.5515	0.73
15.5913	0.73
15.6312	0.73
15.671	0.73
15.7109	0.728
15.7508	0.723
15.7906	0.722
15.8305	0.717
15.8703	0.715
15.9102	0.712
15.95	0.712
15.9899	0.708
