Infrared Spectrum: PHOSPHORAMIDOUS ACID, METHYL, p-TOLYL-, DIETHYL ESTER
Formula: C12 H20 N O2 P
CAS: 116434-73-2
State: LIQUID
Class: COBLENTZ
Instrument: PERKIN-ELMER
Sampling: TRANSMISSION
Path length: 0.0024 CM
Resolution: 4
Origin: STANDARD OIL OF OHIO
MICROMETERS	TRANSMITTANCE
2.014	0.986
2.04777	0.988
2.08153	0.988
2.1153	0.986
2.14906	0.982
2.18283	0.977
2.21659	0.979
2.25036	0.959
2.28412	0.911
2.31789	0.913
2.35165	0.935
2.38542	0.957
2.41918	0.95
2.45295	0.926
2.48671	0.935
2.52048	0.955
2.55424	0.96
2.58801	0.969
2.62177	0.974
2.65554	0.979
2.6893	0.982
2.72307	0.979
2.75683	0.981
2.7906	0.986
2.82436	0.986
2.85813	0.982
2.89189	0.974
2.92566	0.957
2.95942	0.957
2.99319	0.962
3.02695	0.965
3.06072	0.964
3.09448	0.952
3.12825	0.943
3.16201	0.93
3.19578	0.869
3.22954	0.761
3.26331	0.585
3.29707	0.401
3.33084	0.125
3.3646	0.108
3.39837	0.095
3.43214	0.107
3.4659	0.222
3.49967	0.452
3.53343	0.602
3.5672	0.753
3.60096	0.858
3.63473	0.858
3.66849	0.855
3.70226	0.923
3.73602	0.954
3.76979	0.959
3.80355	0.954
3.83732	0.938
3.87108	0.921
3.90485	0.889
3.93861	0.921
3.97238	0.943
4.00614	0.945
4.03991	0.937
4.07367	0.933
4.10744	0.945
4.1412	0.95
4.17497	0.948
4.20873	0.947
4.2425	0.957
4.27626	0.962
4.31003	0.957
4.34379	0.952
4.37756	0.957
4.41132	0.96
4.44509	0.957
4.47885	0.959
4.51262	0.964
4.54638	0.962
4.58015	0.952
4.61391	0.93
4.64768	0.925
4.68144	0.923
4.71521	0.935
4.74897	0.942
4.78274	0.942
4.81651	0.937
4.85027	0.933
4.88404	0.945
4.9178	0.952
4.95157	0.957
4.98533	0.952
5.0191	0.947
5.05286	0.935
5.08663	0.921
5.12039	0.909
5.15416	0.904
5.18792	0.908
5.22169	0.911
5.25545	0.908
5.28922	0.867
5.32298	0.838
5.35675	0.88
5.39051	0.899
5.42428	0.906
5.45804	0.908
5.49181	0.904
5.52557	0.901
5.55934	0.901
5.5931	0.899
5.62687	0.891
5.66063	0.887
5.6944	0.894
5.72816	0.899
5.76193	0.899
5.79569	0.887
5.82946	0.875
5.86322	0.872
5.89699	0.863
5.93075	0.858
5.96452	0.852
5.99828	0.843
6.03205	0.826
6.06581	0.782
6.09958	0.685
6.13334	0.454
6.16711	0.176
6.20087	0.343
6.23464	0.681
6.26841	0.76
6.30217	0.634
6.33594	0.523
6.3697	0.724
6.40347	0.76
6.43723	0.753
6.471	0.717
6.50476	0.522
6.53853	0.302
6.57229	0.032
6.60606	0.022
6.63982	0.241
6.67359	0.452
6.70735	0.421
6.74112	0.272
6.77488	0.202
6.80865	0.251
6.84241	0.272
6.87618	0.219
6.90994	0.21
6.94371	0.297
6.97747	0.481
7.01124	0.545
7.045	0.578
7.07877	0.602
7.11253	0.598
7.1463	0.479
7.18006	0.147
7.21383	0.142
7.24759	0.365
7.28136	0.576
7.31512	0.579
7.34889	0.634
7.38265	0.712
7.41642	0.726
7.45018	0.722
7.48395	0.702
7.51771	0.664
7.55148	0.613
7.58524	0.505
7.61901	0.472
7.65278	0.346
7.68654	0.113
7.72031	0.018
7.75407	0.018
7.78784	0.064
7.8216	0.032
7.85537	0.017
7.88913	0.037
7.9229	0.153
7.95666	0.301
7.99043	0.418
8.02419	0.576
8.05796	0.634
8.09172	0.67
8.12549	0.687
8.15925	0.688
8.19302	0.685
8.22678	0.68
8.26055	0.683
8.29431	0.67
8.32808	0.603
8.36184	0.472
8.39561	0.282
8.42937	0.183
8.46314	0.139
8.4969	0.164
8.53067	0.232
8.56443	0.234
8.5982	0.2
8.63196	0.231
8.66573	0.333
8.69949	0.428
8.73326	0.522
8.76702	0.545
8.80079	0.544
8.83455	0.496
8.86832	0.403
8.90208	0.391
8.93585	0.375
8.96961	0.321
9.00338	0.267
9.03715	0.217
9.07091	0.124
9.10468	0.079
9.13844	0.078
9.17221	0.119
9.20597	0.144
9.23974	0.127
9.2735	0.076
9.30727	0.028
9.34103	0.015
9.3748	0.01
9.40856	0.008
9.44233	0.005
9.47609	0.005
9.50986	0.005
9.54362	0.005
9.57739	0.003
9.61115	0.003
9.64492	0.003
9.67868	0.003
9.71245	0.003
9.74621	0.005
9.77998	0.011
9.81374	0.028
9.84751	0.081
9.88127	0.18
9.91504	0.282
9.9488	0.379
9.98257	0.44
10.0163	0.498
10.0501	0.528
10.0839	0.547
10.1176	0.552
10.1514	0.552
10.1852	0.551
10.2189	0.537
10.2527	0.515
10.2865	0.5
10.3202	0.477
10.354	0.471
10.3878	0.462
10.4215	0.45
10.4553	0.43
10.489	0.403
10.5228	0.336
10.5566	0.273
10.5903	0.2
10.6241	0.125
10.6579	0.073
10.6916	0.03
10.7254	0.02
10.7592	0.015
10.7929	0.013
10.8267	0.015
10.8605	0.013
10.8942	0.011
10.928	0.008
10.9618	0.008
10.9955	0.006
11.0293	0.005
11.0631	0.01
11.0968	0.011
11.1306	0.015
11.1643	0.027
11.1981	0.071
11.2319	0.12
11.2656	0.142
11.2994	0.139
11.3332	0.119
11.3669	0.074
11.4007	0.028
11.4345	0.013
11.4682	0.008
11.502	0.006
11.5358	0.005
11.5695	0.008
11.6033	0.013
11.6371	0.028
11.6708	0.069
11.7046	0.151
11.7384	0.236
11.7721	0.328
11.8059	0.42
11.8397	0.472
11.8734	0.506
11.9072	0.515
11.9409	0.506
11.9747	0.488
12.0085	0.442
12.0422	0.384
12.076	0.328
12.1098	0.272
12.1435	0.212
12.1773	0.156
12.2111	0.117
12.2448	0.064
12.2786	0.034
12.3124	0.018
12.3461	0.018
12.3799	0.034
12.4137	0.102
12.4474	0.178
12.4812	0.26
12.515	0.294
12.5487	0.294
12.5825	0.251
12.6162	0.185
12.65	0.113
12.6838	0.051
12.7175	0.028
12.7513	0.032
12.7851	0.054
12.8188	0.09
12.8526	0.113
12.8864	0.12
12.9201	0.115
12.9539	0.103
12.9877	0.088
13.0214	0.081
13.0552	0.074
13.089	0.073
13.1227	0.073
13.1565	0.073
13.1903	0.074
13.224	0.073
13.2578	0.071
13.2916	0.071
13.3253	0.069
13.3591	0.069
13.3928	0.066
13.4266	0.062
13.4604	0.061
13.4941	0.056
13.5279	0.051
13.5617	0.051
13.5954	0.051
13.6292	0.049
13.663	0.051
13.6967	0.051
13.7305	0.052
13.7643	0.052
13.798	0.056
13.8318	0.061
13.8656	0.066
13.8993	0.073
13.9331	0.079
13.9669	0.093
14.0006	0.11
14.0344	0.13
14.0681	0.141
14.1019	0.153
14.1357	0.178
14.1694	0.219
14.2032	0.272
14.237	0.324
14.2707	0.369
14.3045	0.408
14.3383	0.438
14.372	0.474
14.4058	0.515
14.4396	0.539
14.4733	0.561
14.5071	0.581
14.5409	0.6
14.5746	0.619
14.6084	0.634
14.6422	0.649
14.6759	0.658
14.7097	0.666
14.7435	0.675
14.7772	0.683
14.811	0.688
14.8447	0.695
14.8785	0.695
14.9123	0.698
14.946	0.7
14.9798	0.7
15.0136	0.697
15.0473	0.681
15.0811	0.67
15.1149	0.654
15.1486	0.632
15.1824	0.603
15.2162	0.569
15.2499	0.513
15.2837	0.45
15.3175	0.369
15.3512	0.299
15.385	0.261
