Infrared Spectrum: p-METHOXY ANILINE HYDROBROMIDE
Formula: C7 H9 N O  * H Br
CAS: 116436-31-8
State: SOLID (MINERAL OIL MULL)
Melting point: 233-234 C
Class: COBLENTZ
Instrument: Not specified, most likely a grating spectrometer.
Sampling: TRANSMISSION
Resolution: 4
Origin: STANDARD OIL OF OHIO
1/CM	TRANSMITTANCE
613.34	0.751
621.798	0.755
630.256	0.765
638.715	0.797
647.173	0.812
655.631	0.815
664.089	0.831
672.547	0.839
681.006	0.844
689.464	0.841
697.922	0.809
706.38	0.809
714.838	0.704
723.297	0.467
731.755	0.814
740.213	0.844
748.671	0.856
757.129	0.856
765.588	0.854
774.046	0.854
782.504	0.849
790.962	0.837
799.42	0.81
807.879	0.716
816.337	0.447
824.795	0.148
833.253	0.097
841.711	0.673
850.17	0.8
858.628	0.827
867.086	0.831
875.544	0.831
884.002	0.832
892.461	0.832
900.919	0.831
909.377	0.827
917.835	0.822
926.293	0.814
934.752	0.804
943.21	0.8
951.668	0.792
960.126	0.778
968.584	0.79
977.043	0.79
985.501	0.768
993.959	0.731
1002.42	0.618
1010.88	0.398
1019.33	0.145
1027.79	0.293
1036.25	0.685
1044.71	0.756
1053.17	0.751
1061.62	0.751
1070.08	0.75
1078.54	0.738
1087	0.717
1095.46	0.653
1103.92	0.493
1112.37	0.364
1120.83	0.532
1129.29	0.601
1137.75	0.596
1146.21	0.54
1154.66	0.466
1163.12	0.315
1171.58	0.233
1180.04	0.535
1188.5	0.471
1196.96	0.326
1205.41	0.527
1213.87	0.655
1222.33	0.648
1230.79	0.606
1239.25	0.505
1247.7	0.371
1256.16	0.238
1264.62	0.146
1273.08	0.322
1281.54	0.547
1290	0.52
1298.45	0.42
1306.91	0.452
1315.37	0.523
1323.83	0.591
1332.29	0.609
1340.75	0.601
1349.2	0.586
1357.66	0.572
1366.12	0.564
1374.58	0.57
1383.04	0.626
1391.49	0.63
1399.95	0.626
1408.41	0.621
1416.87	0.621
1425.33	0.44
1433.79	0.297
1442.24	0.248
1450.7	0.146
1459.16	0.192
1467.62	0.326
1476.08	0.396
1484.53	0.329
1492.99	0.206
1501.45	0.06
1509.91	0.064
1518.37	0.123
1526.83	0.168
1535.28	0.162
1543.74	0.155
1552.2	0.167
1560.66	0.199
1569.12	0.238
1577.57	0.314
1586.03	0.386
1594.49	0.39
1602.95	0.298
1611.41	0.241
1619.87	0.253
1628.32	0.5
1636.78	0.592
1645.24	0.601
1653.7	0.614
1662.16	0.628
1670.61	0.631
1679.07	0.638
1687.53	0.635
1695.99	0.628
1704.45	0.618
1712.91	0.609
1721.36	0.616
1729.82	0.655
1738.28	0.665
1746.74	0.667
1755.2	0.668
1763.65	0.672
1772.11	0.673
1780.57	0.689
1789.03	0.712
1797.49	0.721
1805.95	0.729
1814.4	0.733
1822.86	0.733
1831.32	0.733
1839.78	0.741
1848.24	0.746
1856.7	0.744
1865.15	0.733
1873.61	0.722
1882.07	0.702
1890.53	0.687
1898.99	0.606
1907.44	0.692
1915.9	0.753
1924.36	0.756
1932.82	0.763
1941.28	0.761
1949.74	0.758
1958.19	0.755
1966.65	0.751
1975.11	0.751
1983.57	0.768
1992.03	0.775
2000.48	0.775
2008.94	0.77
2017.4	0.76
2025.86	0.738
2034.32	0.719
2042.78	0.743
2051.23	0.773
2059.69	0.771
2068.15	0.763
2076.61	0.758
2085.07	0.756
2093.52	0.753
2101.98	0.75
2110.44	0.739
2118.9	0.738
2127.36	0.75
2135.82	0.761
2144.27	0.763
2152.73	0.761
2161.19	0.756
2169.65	0.753
2178.11	0.753
2186.56	0.753
2195.02	0.751
2203.48	0.746
2211.94	0.738
2220.4	0.731
2228.86	0.724
2237.31	0.743
2245.77	0.75
2254.23	0.75
2262.69	0.75
2271.15	0.75
2279.61	0.748
2288.06	0.744
2296.52	0.741
2304.98	0.738
2313.44	0.726
2321.9	0.704
2330.35	0.701
2338.81	0.701
2347.27	0.701
2355.73	0.701
2364.19	0.701
2372.65	0.701
2381.1	0.701
2389.56	0.699
2398.02	0.694
2406.48	0.687
2414.94	0.675
2423.39	0.662
2431.85	0.652
2440.31	0.646
2448.77	0.636
2457.23	0.618
2465.69	0.604
2474.14	0.601
2482.6	0.591
2491.06	0.57
2499.52	0.54
2507.98	0.51
2516.43	0.489
2524.89	0.464
2533.35	0.44
2541.81	0.4
2550.27	0.342
2558.73	0.265
2567.18	0.185
2575.64	0.145
2584.1	0.119
2592.56	0.109
2601.02	0.096
2609.47	0.103
2617.93	0.128
2626.39	0.202
2634.85	0.25
2643.31	0.295
2651.77	0.307
2660.22	0.302
2668.68	0.288
2677.14	0.275
2685.6	0.263
2694.06	0.251
2702.51	0.238
2710.97	0.222
2719.43	0.206
2727.89	0.187
2736.35	0.167
2744.81	0.15
2753.26	0.138
2761.72	0.116
2770.18	0.086
2778.64	0.074
2787.1	0.045
2795.56	0.03
2804.01	0.023
2812.47	0.015
2820.93	0.003
2829.39	0
2837.85	0
2846.3	0
2854.76	0
2863.22	0
2871.68	0
2880.14	0
2888.6	0
2897.05	0
2905.51	0
2913.97	0
2922.43	0
2930.89	0
2939.34	0
2947.8	0
2956.26	0
2964.72	0
2973.18	0
2981.64	0.003
2990.09	0.01
2998.55	0.011
3007.01	0.015
3015.47	0.016
3023.93	0.018
3032.38	0.02
3040.84	0.021
3049.3	0.025
3057.76	0.023
3066.22	0.025
3074.68	0.03
3083.13	0.043
3091.59	0.059
3100.05	0.07
3108.51	0.089
3116.97	0.109
3125.42	0.116
3133.88	0.135
3142.34	0.162
3150.8	0.189
3159.26	0.222
3167.72	0.248
3176.17	0.29
3184.63	0.329
3193.09	0.366
3201.55	0.405
3210.01	0.43
3218.46	0.454
3226.92	0.481
3235.38	0.51
3243.84	0.533
3252.3	0.554
3260.76	0.564
3269.21	0.584
3277.67	0.597
3286.13	0.606
3294.59	0.614
3303.05	0.619
3311.51	0.623
3319.96	0.628
3328.42	0.633
3336.88	0.635
3345.34	0.635
3353.8	0.638
3362.25	0.641
3370.71	0.641
3379.17	0.641
3387.63	0.641
3396.09	0.641
3404.55	0.641
3413	0.641
3421.46	0.641
3429.92	0.641
3438.38	0.641
3446.84	0.638
3455.29	0.636
3463.75	0.635
3472.21	0.633
3480.67	0.633
3489.13	0.633
3497.59	0.633
3506.04	0.631
3514.5	0.631
3522.96	0.631
3531.42	0.631
3539.88	0.631
3548.33	0.63
3556.79	0.63
3565.25	0.628
3573.71	0.626
3582.17	0.626
3590.63	0.625
3599.08	0.623
3607.54	0.623
3616	0.621
3624.46	0.621
3632.92	0.619
3641.37	0.619
3649.83	0.616
3658.29	0.613
3666.75	0.609
3675.21	0.608
3683.67	0.606
3692.12	0.604
3700.58	0.603
3709.04	0.601
3717.5	0.601
3725.96	0.597
3734.42	0.596
3742.87	0.594
3751.33	0.592
3759.79	0.592
3768.25	0.591
3776.71	0.591
3785.16	0.591
3793.62	0.589
3802.08	0.584
3810.54	0.582
3819	0.579
3827.46	0.576
3835.91	0.574
3844.37	0.574
3852.83	0.572
3861.29	0.57
3869.75	0.569
3878.2	0.569
3886.66	0.567
3895.12	0.565
3903.58	0.565
3912.04	0.564
3920.5	0.562
3928.95	0.562
3937.41	0.562
3945.87	0.562
