Infrared Spectrum: PHOSPHONIC ACID, METHYL-, o,o-BIS-(3,3-DIMETHYL BUTYL) ESTER
Formula: C13 H29 O3 P
CAS: 116401-88-8
State: LIQUID
Class: COBLENTZ
Instrument: Not specified, most likely a prism, grating, or hybrid spectrometer.
Sampling: TRANSMISSION
Path length: LIQUID FILM BETWEEN KBr PLATES
Resolution: 4
Origin: G. A. M. S.
1/CM	TRANSMITTANCE
603.167	0.909
612.317	0.91
621.466	0.913
630.616	0.915
639.765	0.918
648.915	0.921
658.064	0.926
667.214	0.926
676.363	0.926
685.513	0.924
694.663	0.92
703.812	0.915
712.962	0.904
722.111	0.863
731.261	0.7491
740.41	0.678
749.56	0.793
758.709	0.629
767.859	0.7269
777.009	0.855
786.158	0.861
795.308	0.838
804.457	0.795
813.607	0.661
822.756	0.4761
831.906	0.367
841.055	0.372
850.205	0.4949
859.355	0.744
868.504	0.761
877.654	0.698
886.803	0.38
895.953	0.166
905.102	0.167
914.252	0.306
923.401	0.212
932.551	0.136
941.701	0.2839
950.85	0.636
960	0.669
969.149	0.638
978.299	0.567
987.448	0.344
996.598	0.1
1005.75	0.018
1014.9	0.015
1024.05	0.021
1033.2	0.047
1042.35	0.04
1051.5	0.032
1060.64	0.058
1069.79	0.198
1078.94	0.416
1088.09	0.601
1097.24	0.649
1106.39	0.686
1115.54	0.716
1124.69	0.746
1133.84	0.769
1142.99	0.783
1152.14	0.783
1161.29	0.786
1170.44	0.798
1179.59	0.792
1188.74	0.77
1197.89	0.74
1207.04	0.649
1216.19	0.4
1225.34	0.369
1234.49	0.1501
1243.64	0.041
1252.79	0.073
1261.93	0.244
1271.08	0.4359
1280.23	0.693
1289.38	0.693
1298.53	0.569
1307.68	0.2
1316.83	0.5179
1325.98	0.787
1335.13	0.813
1344.28	0.795
1353.43	0.74
1362.58	0.2801
1371.73	0.5349
1380.88	0.77
1390.03	0.775
1399.18	0.6
1408.33	0.704
1417.48	0.726
1426.63	0.761
1435.78	0.764
1444.93	0.73
1454.08	0.641
1463.23	0.478
1472.37	0.41
1481.52	0.275
1490.67	0.6669
1499.82	0.84
1508.97	0.876
1518.12	0.89
1527.27	0.898
1536.42	0.904
1545.57	0.909
1554.72	0.913
1563.87	0.916
1573.02	0.918
1582.17	0.918
1591.32	0.92
1600.47	0.921
1609.62	0.92
1618.77	0.912
1627.92	0.903
1637.07	0.898
1646.22	0.898
1655.37	0.906
1664.52	0.913
1673.66	0.918
1682.81	0.918
1691.96	0.904
1701.11	0.9
1710.26	0.903
1719.41	0.913
1728.56	0.926
1737.71	0.936
1746.86	0.947
1756.01	0.956
1765.16	0.963
1774.31	0.967
1783.46	0.969
1792.61	0.969
1801.76	0.97
1810.91	0.97
1820.06	0.967
1829.21	0.964
1838.36	0.961
1847.51	0.96
1856.66	0.96
1865.81	0.961
1874.96	0.961
1884.1	0.963
1893.25	0.967
1902.4	0.975
1911.55	0.981
1920.7	0.987
1929.85	0.992
1939	0.986
1948.15	0.963
1957.3	0.936
1966.45	0.984
1975.6	0.99
1984.75	0.989
1993.9	0.987
2003.05	0.984
2012.2	0.983
2021.35	0.983
2030.5	0.983
2039.65	0.983
2048.8	0.981
2057.95	0.98
2067.1	0.98
2076.25	0.98
2085.39	0.978
2094.54	0.978
2103.69	0.978
2112.84	0.978
2121.99	0.978
2131.14	0.976
2140.29	0.976
2149.44	0.975
2158.59	0.975
2167.74	0.973
2176.89	0.973
2186.04	0.973
2195.19	0.973
2204.34	0.97
2213.49	0.969
2222.64	0.967
2231.79	0.966
2240.94	0.963
2250.09	0.96
2259.24	0.958
2268.39	0.956
2277.54	0.953
2286.69	0.9519
2295.83	0.949
2304.98	0.947
2314.13	0.944
2323.28	0.941
2332.43	0.938
2341.58	0.935
2350.73	0.933
2359.88	0.932
2369.03	0.933
2378.18	0.9331
2387.33	0.936
2396.48	0.938
2405.63	0.94
2414.78	0.943
2423.93	0.944
2433.08	0.944
2442.23	0.944
2451.38	0.943
2460.53	0.94
2469.68	0.936
2478.83	0.9349
2487.98	0.932
2497.12	0.9299
2506.27	0.9289
2515.42	0.927
2524.57	0.926
2533.72	0.924
2542.87	0.924
2552.02	0.923
2561.17	0.923
2570.32	0.921
2579.47	0.92
2588.62	0.918
2597.77	0.916
2606.92	0.9129
2616.07	0.91
2625.22	0.9068
2634.37	0.903
2643.52	0.8979
2652.67	0.8929
2661.82	0.8889
2670.97	0.883
2680.12	0.8799
2689.27	0.8729
2698.42	0.869
2707.56	0.867
2716.71	0.867
2725.86	0.867
2735.01	0.866
2744.16	0.8639
2753.31	0.8609
2762.46	0.8559
2771.61	0.8517
2780.76	0.8438
2789.91	0.8328
2799.06	0.8167
2808.21	0.7835
2817.36	0.7608
2826.51	0.708
2835.66	0.6378
2844.81	0.5477
2853.96	0.4725
2863.11	0.3779
2872.26	0.3182
2881.41	0.2809
2890.56	0.2812
2899.71	0.2777
2908.85	0.254
2918	0.2112
2927.15	0.1569
2936.3	0.1135
2945.45	0.0927
2954.6	0.0891
2963.75	0.0983
2972.9	0.1363
2982.05	0.2726
2991.2	0.4142
3000.35	0.5393
3009.5	0.6987
3018.65	0.7729
3027.8	0.7983
3036.95	0.8097
3046.1	0.8264
3055.25	0.8362
3064.4	0.843
3073.55	0.847
3082.7	0.85
3091.85	0.852
3101	0.852
3110.15	0.852
3119.29	0.852
3128.44	0.852
3137.59	0.852
3146.74	0.852
3155.89	0.85
3165.04	0.849
3174.19	0.849
3183.34	0.847
3192.49	0.846
3201.64	0.8461
3210.79	0.847
3219.94	0.849
3229.09	0.85
3238.24	0.8521
3247.39	0.8533
3256.54	0.856
3265.69	0.858
3274.84	0.858
3283.99	0.858
3293.14	0.858
3302.29	0.8577
3311.44	0.856
3320.58	0.853
3329.73	0.852
3338.88	0.8499
3348.03	0.8457
3357.18	0.8427
3366.33	0.8377
3375.48	0.8328
3384.63	0.8268
3393.78	0.8227
3402.93	0.8147
3412.08	0.8115
3421.23	0.8027
3430.38	0.7977
3439.53	0.7917
3448.68	0.7868
3457.83	0.7827
3466.98	0.78
3476.13	0.7777
3485.28	0.778
3494.43	0.78
3503.58	0.781
3512.73	0.783
3521.88	0.784
3531.02	0.7873
3540.17	0.7925
3549.32	0.8005
3558.47	0.8095
3567.62	0.8184
3576.77	0.8245
3585.92	0.8322
3595.07	0.8384
3604.22	0.8435
3613.37	0.8492
3622.52	0.8534
3631.67	0.8584
3640.82	0.8632
3649.97	0.867
3659.12	0.87
3668.27	0.8722
3677.42	0.8734
3686.57	0.876
3695.72	0.878
3704.87	0.8802
3714.02	0.881
3723.17	0.883
3732.31	0.883
3741.46	0.883
3750.61	0.881
3759.76	0.88
3768.91	0.8796
3778.06	0.876
3787.21	0.875
3796.36	0.873
3805.51	0.872
3814.66	0.872
3823.81	0.87
3832.96	0.87
3842.11	0.87
3851.26	0.869
3860.41	0.867
3869.56	0.867
3878.71	0.866
3887.86	0.864
3897.01	0.864
3906.16	0.864
3915.31	0.864
3924.46	0.866
3933.6	0.8662
3942.75	0.8674
3951.9	0.869
3961.05	0.87
3970.2	0.872
3979.35	0.873
