Infrared Spectrum: Alpha-P-n-BUTYL-BENZHYDRYL-ACETOPHENONE
Formula: C25 H26 O
CAS: 116400-85-2
State: SOLID (1.0% IN KBr PELLET)
Class: COBLENTZ
Instrument: Not specified, most likely a prism, grating, or hybrid spectrometer.
Sampling: TRANSMISSION
Path length: 0.0355 CM THICK
Resolution: 4
Origin: ANDERSON PHYSICAL LABORATORY
1/CM	TRANSMITTANCE
674.766	0.835
683.177	0.6086
691.589	0.4508
700	0.304
708.411	0.8138
716.822	0.977
725.234	0.946
733.645	0.7302
742.056	0.4729
750.467	0.4541
758.879	0.494
767.29	0.9039
775.701	0.8152
784.112	0.941
792.524	0.95
800.935	0.94
809.346	0.922
817.757	0.886
826.169	0.5831
834.58	0.749
842.991	0.877
851.402	0.913
859.814	0.928
868.225	0.952
876.636	0.944
885.047	0.907
893.459	0.938
901.87	0.941
910.281	0.917
918.692	0.743
927.104	0.829
935.515	0.899
943.926	0.911
952.338	0.89
960.749	0.835
969.16	0.793
977.571	0.772
985.983	0.535
994.394	0.667
1002.81	0.706
1011.22	0.6681
1019.63	0.8141
1028.04	0.761
1036.45	0.76
1044.86	0.8079
1053.27	0.842
1061.68	0.818
1070.1	0.829
1078.51	0.751
1086.92	0.775
1095.33	0.79
1103.74	0.815
1112.15	0.767
1120.56	0.715
1128.97	0.835
1137.39	0.848
1145.8	0.841
1154.21	0.817
1162.62	0.791
1171.03	0.782
1179.44	0.716
1187.85	0.635
1196.26	0.599
1204.68	0.4731
1213.09	0.3919
1221.5	0.68
1229.91	0.821
1238.32	0.827
1246.73	0.763
1255.14	0.671
1263.55	0.5049
1271.97	0.5929
1280.38	0.716
1288.79	0.728
1297.2	0.749
1305.61	0.695
1314.02	0.73
1322.43	0.733
1330.84	0.628
1339.26	0.643
1347.67	0.719
1356.08	0.727
1364.49	0.712
1372.9	0.535
1381.31	0.523
1389.72	0.686
1398.13	0.77
1406.55	0.758
1414.96	0.661
1423.37	0.515
1431.78	0.614
1440.19	0.7659
1448.6	0.6381
1457.01	0.376
1465.42	0.574
1473.84	0.748
1482.25	0.823
1490.66	0.826
1499.07	0.64
1507.48	0.6141
1515.89	0.676
1524.3	0.757
1532.71	0.857
1541.13	0.883
1549.54	0.875
1557.95	0.868
1566.36	0.86
1574.77	0.809
1583.18	0.644
1591.59	0.68
1600	0.494
1608.42	0.6639
1616.83	0.748
1625.24	0.794
1633.65	0.805
1642.06	0.781
1650.47	0.736
1658.88	0.685
1667.29	0.616
1675.71	0.4359
1684.12	0.2109
1692.53	0.3039
1700.94	0.6489
1709.35	0.869
1717.76	0.893
1726.17	0.902
1734.58	0.904
1743	0.905
1751.41	0.902
1759.82	0.898
1768.23	0.893
1776.64	0.892
1785.05	0.895
1793.46	0.893
1801.87	0.889
1810.29	0.883
1818.7	0.878
1827.11	0.887
1835.52	0.892
1843.93	0.893
1852.34	0.899
1860.75	0.896
1869.16	0.889
1877.58	0.884
1885.99	0.875
1894.4	0.863
1902.81	0.854
1911.22	0.862
1919.63	0.851
1928.04	0.86
1936.45	0.866
1944.87	0.859
1953.28	0.854
1961.69	0.856
1970.1	0.853
1978.51	0.853
1986.92	0.863
1995.33	0.865
2003.74	0.869
2012.16	0.871
2020.57	0.872
2028.98	0.8735
2037.39	0.874
2045.8	0.874
2054.21	0.874
2062.62	0.8725
2071.03	0.872
2079.45	0.8704
2087.86	0.8685
2096.27	0.8664
2104.68	0.865
2113.09	0.8627
2121.5	0.86
2129.91	0.859
2138.32	0.857
2146.74	0.857
2155.15	0.856
2163.56	0.854
2171.97	0.8528
2180.38	0.8493
2188.79	0.8474
2197.2	0.8453
2205.61	0.845
2214.03	0.8447
2222.44	0.844
2230.85	0.842
2239.26	0.8387
2247.67	0.8343
2256.08	0.832
2264.49	0.829
2272.91	0.829
2281.32	0.827
2289.73	0.826
2298.14	0.824
2306.55	0.8205
2314.96	0.8138
2323.37	0.8097
2331.78	0.8062
2340.2	0.806
2348.61	0.806
2357.02	0.805
2365.43	0.805
2373.84	0.8046
2382.25	0.803
2390.66	0.802
2399.07	0.8001
2407.49	0.7998
2415.9	0.799
2424.31	0.799
2432.72	0.799
2441.13	0.799
2449.54	0.799
2457.95	0.797
2466.36	0.797
2474.78	0.794
2483.19	0.793
2491.6	0.7915
2500.01	0.79
2508.42	0.7895
2516.83	0.7875
2525.24	0.7855
2533.65	0.782
2542.07	0.7805
2550.48	0.777
2558.89	0.7734
2567.3	0.77
2575.71	0.7684
2584.12	0.7649
2592.53	0.7632
2600.94	0.76
2609.36	0.7577
2617.77	0.7545
2626.18	0.752
2634.59	0.7509
2643	0.7487
2651.41	0.7469
2659.82	0.7452
2668.23	0.742
2676.65	0.7397
2685.06	0.7352
2693.47	0.734
2701.88	0.731
2710.29	0.73
2718.7	0.728
2727.11	0.7271
2735.52	0.725
2743.94	0.724
2752.35	0.7198
2760.76	0.7163
2769.17	0.7129
2777.58	0.7096
2785.99	0.7064
2794.4	0.7013
2802.81	0.6898
2811.23	0.6728
2819.64	0.6508
2828.05	0.624
2836.46	0.5922
2844.87	0.5537
2853.28	0.5101
2861.69	0.4596
2870.1	0.455
2878.52	0.4563
2886.93	0.468
2895.34	0.4759
2903.75	0.4758
2912.16	0.4483
2920.57	0.43
2928.98	0.4251
2937.39	0.4218
2945.81	0.4143
2954.22	0.3678
2962.63	0.368
2971.04	0.414
2979.45	0.4587
2987.86	0.504
2996.27	0.5468
3004.68	0.5443
3013.1	0.5304
3021.51	0.5117
3029.92	0.512
3038.33	0.5163
3046.74	0.5251
3055.15	0.5366
3063.56	0.5501
3071.97	0.5652
3080.39	0.5807
3088.8	0.5976
3097.21	0.6133
3105.62	0.6283
3114.03	0.6422
3122.44	0.6541
3130.85	0.6621
3139.26	0.664
3147.68	0.664
3156.09	0.664
3164.5	0.662
3172.91	0.661
3181.32	0.6598
3189.73	0.6582
3198.14	0.656
3206.55	0.655
3214.97	0.6524
3223.38	0.6503
3231.79	0.649
3240.2	0.647
3248.61	0.6448
3257.02	0.643
3265.43	0.641
3273.84	0.64
3282.26	0.64
3290.67	0.64
3299.08	0.6366
3307.49	0.6298
3315.9	0.6217
3324.31	0.6143
3332.72	0.6095
3341.13	0.6032
3349.55	0.5983
3357.96	0.5951
3366.37	0.5898
3374.78	0.5882
3383.19	0.5846
3391.6	0.5811
3400.01	0.5778
3408.42	0.5746
3416.84	0.5713
3425.25	0.5691
3433.66	0.568
3442.07	0.566
3450.48	0.5653
3458.89	0.565
3467.3	0.563
3475.71	0.563
3484.13	0.563
3492.54	0.563
3500.95	0.565
3509.36	0.565
3517.77	0.566
3526.18	0.568
3534.59	0.5683
3543	0.569
3551.42	0.571
3559.83	0.574
3568.24	0.575
3576.65	0.5775
3585.06	0.5808
3593.47	0.5811
3601.88	0.5833
3610.3	0.5866
3618.71	0.589
3627.12	0.59
3635.53	0.592
3643.94	0.5926
3652.35	0.593
3660.76	0.593
3669.17	0.593
3677.59	0.593
3686	0.593
3694.41	0.593
3702.82	0.593
3711.23	0.593
3719.64	0.593
3728.05	0.5951
3736.46	0.596
3744.88	0.598
3753.29	0.5989
3761.7	0.6011
3770.11	0.602
3778.52	0.5997
3786.93	0.5964
3795.34	0.593
3803.75	0.592
3812.17	0.5907
3820.58	0.589
3828.99	0.59
3837.4	0.59
3845.81	0.59
3854.22	0.59
3862.63	0.59
3871.04	0.59
3879.46	0.589
3887.87	0.587
3896.28	0.584
3904.69	0.5821
3913.1	0.5803
3921.51	0.577
3929.92	0.5736
3938.33	0.572
3946.75	0.572
3955.16	0.572
3963.57	0.572
3971.98	0.571
3980.39	0.5695
3988.8	0.568
