Infrared Spectrum: 3-PENTANOL, 2-(2-BENZIMIDAZOLYL)-2,4-DIMETHYL-
Formula: C14 H20 N2 O
CAS: 116465-68-0
State: SOLID
Melting point: 206-207 C
Class: COBLENTZ
Instrument: Not specified, most likely a prism, grating, or hybrid spectrometer.
Sampling: TRANSMISSION
Resolution: 4
Origin: TENNESSEE EASTMAN COMPANY, RESEARCH LABORATORIES
MICROMETERS	TRANSMITTANCE
2.013	0.785
2.05296	0.79
2.09292	0.795
2.13289	0.797
2.17285	0.8
2.21281	0.801
2.25277	0.797
2.29273	0.803
2.33269	0.805
2.37266	0.806
2.41262	0.81
2.45258	0.811
2.49254	0.81
2.5325	0.811
2.57247	0.815
2.61243	0.818
2.65239	0.821
2.69235	0.813
2.73231	0.685
2.77227	0.562
2.81224	0.432
2.8522	0.347
2.89216	0.277
2.93212	0.254
2.97208	0.256
3.01205	0.291
3.05201	0.337
3.09197	0.352
3.13193	0.346
3.17189	0.316
3.21185	0.304
3.25182	0.267
3.29178	0.249
3.33174	0.219
3.3717	0.128
3.41166	0.141
3.45163	0.156
3.49159	0.234
3.53155	0.349
3.57151	0.425
3.61147	0.477
3.65144	0.485
3.6914	0.52
3.73136	0.575
3.77132	0.587
3.81128	0.602
3.85124	0.687
3.89121	0.72
3.93117	0.745
3.97113	0.778
4.01109	0.795
4.05105	0.806
4.09102	0.83
4.13098	0.843
4.17094	0.853
4.2109	0.861
4.25086	0.863
4.29082	0.865
4.33079	0.866
4.37075	0.891
4.41071	0.906
4.45067	0.913
4.49063	0.918
4.5306	0.921
4.57056	0.923
4.61052	0.921
4.65048	0.92
4.69044	0.92
4.7304	0.92
4.77037	0.923
4.81033	0.928
4.85029	0.928
4.89025	0.928
4.93021	0.925
4.97018	0.926
5.01014	0.93
5.0501	0.93
5.09006	0.93
5.13002	0.928
5.16998	0.883
5.20995	0.92
5.24991	0.9
5.28987	0.91
5.32983	0.92
5.36979	0.915
5.40976	0.918
5.44972	0.918
5.48968	0.908
5.52964	0.901
5.5696	0.903
5.60956	0.863
5.64953	0.86
5.68949	0.883
5.72945	0.878
5.76941	0.873
5.80937	0.87
5.84934	0.86
5.8893	0.848
5.92926	0.835
5.96922	0.803
6.00918	0.788
6.04915	0.765
6.08911	0.718
6.12907	0.702
6.16903	0.633
6.20899	0.74
6.24895	0.767
6.28892	0.728
6.32888	0.83
6.36884	0.846
6.4088	0.841
6.44876	0.825
6.48873	0.723
6.52869	0.537
6.56865	0.554
6.60861	0.623
6.64857	0.727
6.68853	0.675
6.7285	0.562
6.76846	0.307
6.80842	0.257
6.84838	0.166
6.88834	0.193
6.92831	0.327
6.96827	0.429
7.00823	0.364
7.04819	0.202
7.08815	0.089
7.12811	0.049
7.16808	0.106
7.20804	0.304
7.248	0.425
7.28796	0.387
7.32792	0.331
7.36789	0.45
7.40785	0.517
7.44781	0.524
7.48777	0.559
7.52773	0.678
7.56769	0.683
7.60766	0.525
7.64762	0.469
7.68758	0.615
7.72754	0.57
7.7675	0.579
7.80747	0.292
7.84743	0.169
7.88739	0.497
7.92735	0.608
7.96731	0.603
8.00727	0.55
8.04724	0.51
8.0872	0.492
8.12716	0.291
8.16712	0.41
8.20708	0.535
8.24705	0.587
8.28701	0.613
8.32697	0.68
8.36693	0.698
8.40689	0.705
8.44685	0.648
8.48682	0.547
8.52678	0.502
8.56674	0.527
8.6067	0.559
8.64666	0.615
8.68663	0.692
8.72659	0.723
8.76655	0.738
8.80651	0.737
8.84647	0.683
8.88644	0.597
8.9264	0.517
8.96636	0.447
9.00632	0.58
9.04628	0.705
9.08624	0.727
9.12621	0.712
9.16617	0.742
9.20613	0.79
9.24609	0.805
9.28605	0.811
9.32602	0.815
9.36598	0.815
9.40594	0.803
9.4459	0.782
9.48586	0.737
9.52582	0.68
9.56579	0.613
9.60575	0.534
9.64571	0.447
9.68567	0.344
9.72563	0.289
9.7656	0.266
9.80556	0.261
9.84552	0.352
9.88548	0.439
9.92544	0.5
9.9654	0.422
10.0054	0.237
10.0453	0.149
10.0853	0.264
10.1253	0.397
10.1652	0.417
10.2052	0.392
10.2451	0.371
10.2851	0.377
10.3251	0.519
10.365	0.618
10.405	0.642
10.4449	0.638
10.4849	0.635
10.5249	0.653
10.5648	0.698
10.6048	0.718
10.6448	0.683
10.6847	0.643
10.7247	0.665
10.7646	0.678
10.8046	0.673
10.8446	0.692
10.8845	0.705
10.9245	0.693
10.9645	0.71
11.0044	0.725
11.0444	0.722
11.0843	0.732
11.1243	0.79
11.1643	0.801
11.2042	0.782
11.2442	0.737
11.2841	0.71
11.3241	0.708
11.3641	0.723
11.404	0.743
11.444	0.757
11.484	0.763
11.5239	0.765
11.5639	0.765
11.6038	0.763
11.6438	0.757
11.6838	0.753
11.7237	0.752
11.7637	0.75
11.8036	0.75
11.8436	0.75
11.8836	0.747
11.9235	0.748
11.9635	0.748
12.0035	0.747
12.0434	0.75
12.0834	0.748
12.1233	0.752
12.1633	0.752
12.2033	0.735
12.2432	0.718
12.2832	0.71
12.3232	0.733
12.3631	0.73
12.4031	0.678
12.443	0.663
12.483	0.685
12.523	0.72
12.5629	0.742
12.6029	0.738
12.6428	0.743
12.6828	0.762
12.7228	0.782
12.7627	0.793
12.8027	0.793
12.8427	0.792
12.8826	0.715
12.9226	0.5
12.9625	0.405
13.0025	0.635
13.0425	0.722
13.0824	0.723
13.1224	0.627
13.1624	0.384
13.2023	0.186
13.2423	0.158
13.2822	0.216
13.3222	0.252
13.3622	0.282
13.4021	0.314
13.4421	0.339
13.482	0.331
13.522	0.302
13.562	0.312
13.6019	0.437
13.6419	0.59
13.6819	0.7
13.7218	0.757
13.7618	0.775
13.8017	0.778
13.8417	0.782
13.8817	0.785
13.9216	0.783
13.9616	0.787
14.0015	0.78
14.0415	0.778
14.0815	0.773
14.1214	0.77
14.1614	0.765
14.2014	0.758
14.2413	0.752
14.2813	0.75
14.3212	0.74
14.3612	0.733
14.4012	0.727
14.4411	0.722
14.4811	0.713
14.5211	0.708
14.561	0.7
14.601	0.692
14.6409	0.685
14.6809	0.675
14.7209	0.665
14.7608	0.655
14.8008	0.643
14.8407	0.632
14.8807	0.61
14.9207	0.582
14.9606	0.549
15.0006	0.535
15.0406	0.549
15.0805	0.554
15.1205	0.55
15.1604	0.539
15.2004	0.529
15.2404	0.517
15.2803	0.502
15.3203	0.497
15.3603	0.484
15.4002	0.472
15.4402	0.464
15.4801	0.454
15.5201	0.445
15.5601	0.44
15.6	0.432
15.64	0.424
15.6799	0.412
15.7199	0.404
15.7599	0.4
15.7998	0.394
15.8398	0.389
15.8798	0.384
15.9197	0.381
15.9597	0.376
