Infrared Spectrum: 2,4-DIAMINO-6-ETHOXYPYRIMIDINE
Formula: C6 H10 N4 O
CAS: 116436-03-4
State: SOLID (0.9 mg / 650 KBr DISC)
Class: COBLENTZ III
Instrument: PERKIN-ELMER 21 (GRATING)
Instrument parameters: FILTER CHANGE AT ABOUT 1085 CM^-^1.
Sampling: TRANSMISSION
Resolution: 2
Origin: SOUTHERN RESEARCH INSTITUTE
1/CM	TRANSMITTANCE
610.323	0.698
619.276	0.6991
628.229	0.7001
637.181	0.6942
646.134	0.6758
655.087	0.6492
664.04	0.6254
672.993	0.6063
681.946	0.582
690.898	0.5493
699.851	0.545
708.804	0.5324
717.757	0.5883
726.71	0.5882
735.663	0.593
744.615	0.602
753.568	0.603
762.521	0.5871
771.474	0.5703
780.427	0.5327
789.38	0.4693
798.332	0.1836
807.285	0.4454
816.238	0.5362
825.191	0.5661
834.144	0.5825
843.097	0.5874
852.049	0.5797
861.002	0.575
869.955	0.5564
878.908	0.5253
887.861	0.4783
896.814	0.5351
905.766	0.5629
914.719	0.565
923.672	0.556
932.625	0.556
941.578	0.556
950.53	0.555
959.483	0.5382
968.436	0.5244
977.389	0.4792
986.342	0.4729
995.295	0.4796
1004.25	0.4521
1013.2	0.4369
1022.15	0.3618
1031.11	0.2833
1040.06	0.235
1049.01	0.2638
1057.96	0.3588
1066.92	0.4606
1075.87	0.5222
1084.82	0.5225
1093.78	0.5106
1102.73	0.4847
1111.68	0.4409
1120.63	0.488
1129.59	0.4487
1138.54	0.4488
1147.49	0.4537
1156.45	0.443
1165.4	0.4504
1174.35	0.4413
1183.3	0.3965
1192.26	0.31
1201.21	0.1792
1210.16	0.0523
1219.12	0.1108
1228.07	0.2371
1237.02	0.4544
1245.97	0.5324
1254.93	0.55
1263.88	0.5265
1272.83	0.487
1281.79	0.4511
1290.74	0.3842
1299.69	0.4014
1308.64	0.526
1317.6	0.5172
1326.55	0.4608
1335.5	0.4239
1344.45	0.3085
1353.41	0.1321
1362.36	0.3247
1371.31	0.3695
1380.27	0.2414
1389.22	0.1389
1398.17	0.2595
1407.12	0.2365
1416.08	0.1422
1425.03	0.0432
1433.98	0.0556
1442.94	0.1358
1451.89	0.2138
1460.84	0.226
1469.79	0.286
1478.75	0.4084
1487.7	0.4467
1496.65	0.464
1505.61	0.4458
1514.56	0.3971
1523.51	0.3216
1532.46	0.2564
1541.42	0.1504
1550.37	0.0974
1559.32	0.0578
1568.28	0.02
1577.23	0.015
1586.18	0.0164
1595.13	0.0295
1604.09	0.0498
1613.04	0.1217
1621.99	0.0764
1630.95	0.034
1639.9	0.0567
1648.85	0.0941
1657.8	0.1048
1666.76	0.1789
1675.71	0.2777
1684.66	0.3474
1693.62	0.4326
1702.57	0.4854
1711.52	0.5396
1720.47	0.5706
1729.43	0.6085
1738.38	0.6435
1747.33	0.6594
1756.29	0.6732
1765.24	0.6902
1774.19	0.727
1783.14	0.7397
1792.1	0.7599
1801.05	0.7774
1810	0.7888
1818.95	0.8007
1827.91	0.8066
1836.86	0.8146
1845.81	0.819
1854.77	0.821
1863.72	0.822
1872.67	0.822
1881.62	0.822
1890.58	0.8208
1899.53	0.81
1908.48	0.808
1917.44	0.812
1926.39	0.814
1935.34	0.82
1944.29	0.821
1953.25	0.821
1962.2	0.82
1971.15	0.812
1980.11	0.8114
1989.06	0.8
1998.01	0.8075
2006.96	0.8066
2015.92	0.8026
2024.87	0.797
2033.82	0.796
2042.78	0.791
2051.73	0.788
2060.68	0.787
2069.63	0.788
2078.59	0.7899
2087.54	0.789
2096.49	0.778
2105.45	0.779
2114.4	0.7721
2123.35	0.7669
2132.3	0.763
2141.26	0.7694
2150.21	0.77
2159.16	0.773
2168.12	0.7696
2177.07	0.763
2186.02	0.763
2194.97	0.7583
2203.93	0.7617
2212.88	0.7619
2221.83	0.7617
2230.79	0.7644
2239.74	0.7606
2248.69	0.7588
2257.64	0.7511
2266.6	0.7479
2275.55	0.747
2284.5	0.746
2293.45	0.751
2302.41	0.7411
2311.36	0.7328
2320.31	0.7439
2329.27	0.743
2338.22	0.7406
2347.17	0.735
2356.12	0.7286
2365.08	0.7236
2374.03	0.7299
2382.98	0.742
2391.94	0.7391
2400.89	0.729
2409.84	0.7247
2418.79	0.7252
2427.75	0.7307
2436.7	0.728
2445.65	0.7216
2454.61	0.7176
2463.56	0.714
2472.51	0.7084
2481.46	0.713
2490.42	0.7111
2499.37	0.7021
2508.32	0.699
2517.28	0.6931
2526.23	0.692
2535.18	0.6856
2544.13	0.684
2553.09	0.685
2562.04	0.682
2570.99	0.678
2579.95	0.676
2588.9	0.676
2597.85	0.6676
2606.8	0.662
2615.76	0.664
2624.71	0.654
2633.66	0.663
2642.62	0.654
2651.57	0.649
2660.52	0.649
2669.47	0.6511
2678.43	0.6474
2687.38	0.6494
2696.33	0.65
2705.28	0.6411
2714.24	0.6371
2723.19	0.635
2732.14	0.6306
2741.1	0.6166
2750.05	0.607
2759	0.606
2767.95	0.6104
2776.91	0.6129
2785.86	0.6164
2794.81	0.617
2803.77	0.6154
2812.72	0.6104
2821.67	0.6006
2830.62	0.6006
2839.58	0.585
2848.53	0.5776
2857.48	0.574
2866.44	0.574
2875.39	0.5696
2884.34	0.5546
2893.29	0.5397
2902.25	0.5251
2911.2	0.518
2920.15	0.515
2929.11	0.5086
2938.06	0.5096
2947.01	0.4946
2955.96	0.4767
2964.92	0.4552
2973.87	0.4424
2982.82	0.4722
2991.78	0.5068
3000.73	0.522
3009.68	0.5181
3018.63	0.4956
3027.59	0.4846
3036.54	0.4797
3045.49	0.4691
3054.45	0.4391
3063.4	0.4278
3072.35	0.3966
3081.3	0.3701
3090.26	0.3686
3099.21	0.3501
3108.16	0.3307
3117.12	0.3157
3126.07	0.2787
3135.02	0.2507
3143.97	0.2102
3152.93	0.1677
3161.88	0.1556
3170.83	0.151
3179.78	0.1554
3188.74	0.1634
3197.69	0.1902
3206.64	0.2232
3215.6	0.2538
3224.55	0.2709
3233.5	0.2923
3242.45	0.3139
3251.41	0.3243
3260.36	0.3251
3269.31	0.3117
3278.27	0.2962
3287.22	0.2752
3296.17	0.2487
3305.12	0.2148
3314.08	0.1772
3323.03	0.157
3331.98	0.1673
3340.94	0.1744
3349.89	0.1794
3358.84	0.1908
3367.79	0.2088
3376.75	0.2743
3385.7	0.3619
3394.65	0.371
3403.61	0.3717
3412.56	0.3316
3421.51	0.2798
3430.46	0.2141
3439.42	0.1794
3448.37	0.189
3457.32	0.189
3466.28	0.2104
3475.23	0.3381
3484.18	0.4452
3493.13	0.526
3502.09	0.5792
3511.04	0.6078
3519.99	0.621
3528.95	0.6284
3537.9	0.64
3546.85	0.6413
3555.8	0.657
3564.76	0.664
3573.71	0.6616
3582.66	0.6674
3591.61	0.676
3600.57	0.6844
3609.52	0.6879
3618.47	0.691
3627.43	0.6958
3636.38	0.699
3645.33	0.7019
3654.28	0.7059
3663.24	0.708
3672.19	0.7021
3681.14	0.696
3690.1	0.695
3699.05	0.6969
3708	0.7
3716.95	0.7059
3725.91	0.708
3734.86	0.709
3743.81	0.7076
3752.77	0.694
3761.72	0.6931
3770.67	0.692
3779.62	0.691
3788.58	0.6896
3797.53	0.6866
3806.48	0.681
3815.44	0.678
3824.39	0.677
3833.34	0.6706
3842.29	0.671
3851.25	0.6716
3860.2	0.67
3869.15	0.67
3878.11	0.67
3887.06	0.672
3896.01	0.6706
3904.96	0.667
3913.92	0.6586
3922.87	0.653
3931.82	0.6584
3940.78	0.661
3949.73	0.661
3958.68	0.6549
3967.63	0.654
3976.59	0.6547
3985.54	0.648
3994.49	0.648
4003.45	0.648
