Infrared Spectrum: N-(Beta-DIMETHYLAMINOETHYL) 3-BROMO-2,2-DIPHENYL PROPIONAMIDE
Formula: C19 H23 N2 O Br
CAS: 116402-45-0
State: SOLUTION (7% CHCl3)
Class: COBLENTZ
Instrument: Not specified, most likely a grating spectrometer.
Sampling: TRANSMISSION
Path length: 0.009 CM
Resolution: 4
Origin: ABBOTT LABORATORIES
MICROMETERS	TRANSMITTANCE
2.014	0.978
2.04794	0.978
2.08188	0.973
2.11583	0.97
2.14977	0.971
2.18371	0.971
2.21765	0.965
2.25159	0.963
2.28554	0.966
2.31948	0.965
2.35342	0.963
2.38736	0.961
2.4213	0.978
2.45525	0.951
2.48919	0.95
2.52313	0.95
2.55707	0.951
2.59101	0.953
2.62496	0.966
2.6589	0.963
2.69284	0.963
2.72678	0.966
2.76072	0.96
2.79466	0.978
2.82861	0.95
2.86255	0.936
2.89649	0.92
2.93043	0.86
2.96437	0.819
2.99832	0.824
3.03226	0.859
3.0662	0.887
3.10014	0.902
3.13408	0.912
3.16803	0.915
3.20197	0.915
3.23591	0.917
3.26985	0.9
3.30379	0.86
3.33774	0.81
3.37168	0.679
3.40562	0.689
3.43956	0.733
3.4735	0.782
3.50745	0.777
3.54139	0.771
3.57533	0.684
3.60927	0.708
3.64321	0.699
3.67716	0.822
3.7111	0.87
3.74504	0.898
3.77898	0.913
3.81292	0.922
3.84687	0.922
3.88081	0.923
3.91475	0.927
3.94869	0.927
3.98263	0.93
4.01657	0.928
4.05052	0.92
4.08446	0.918
4.1184	0.922
4.15234	0.928
4.18628	0.933
4.22023	0.963
4.25417	0.948
4.28811	0.95
4.32205	0.938
4.35599	0.93
4.38994	0.928
4.42388	0.932
4.45782	0.932
4.49176	0.935
4.5257	0.935
4.55965	0.93
4.59359	0.935
4.62753	0.933
4.66147	0.932
4.69541	0.932
4.72936	0.932
4.7633	0.932
4.79724	0.93
4.83118	0.933
4.86512	0.932
4.89907	0.93
4.93301	0.93
4.96695	0.93
5.00089	0.93
5.03483	0.928
5.06878	0.927
5.10272	0.917
5.13666	0.91
5.1706	0.912
5.20454	0.922
5.23849	0.925
5.27243	0.923
5.30637	0.918
5.34031	0.913
5.37425	0.918
5.40819	0.923
5.44214	0.925
5.47608	0.923
5.51002	0.918
5.54396	0.912
5.5779	0.913
5.61185	0.912
5.64579	0.917
5.67973	0.918
5.71367	0.913
5.74761	0.913
5.78156	0.91
5.8155	0.903
5.84944	0.907
5.88338	0.897
5.91732	0.88
5.95127	0.776
5.98521	0.593
6.01915	0.383
6.05309	0.2
6.08703	0.215
6.12098	0.502
6.15492	0.737
6.18886	0.809
6.2228	0.832
6.25674	0.784
6.29069	0.817
6.32463	0.85
6.35857	0.859
6.39251	0.868
6.42645	0.878
6.4604	0.859
6.49434	0.839
6.52828	0.8
6.56222	0.688
6.59616	0.605
6.6301	0.434
6.66405	0.356
6.69799	0.349
6.73193	0.333
6.76587	0.474
6.79981	0.601
6.83376	0.623
6.8677	0.597
6.90164	0.593
6.93558	0.573
6.96952	0.6
7.00347	0.731
7.03741	0.824
7.07135	0.859
7.10529	0.837
7.13923	0.834
7.17318	0.867
7.20712	0.882
7.24106	0.883
7.275	0.868
7.30894	0.859
7.34289	0.867
7.37683	0.875
7.41077	0.854
7.44471	0.829
7.47865	0.83
7.5126	0.862
7.54654	0.867
7.58048	0.868
7.61442	0.867
7.64836	0.859
7.68231	0.857
7.71625	0.844
7.75019	0.812
7.78413	0.767
7.81807	0.719
7.85202	0.713
7.88596	0.746
7.9199	0.734
7.95384	0.714
7.98778	0.681
8.02172	0.665
8.05567	0.668
8.08961	0.671
8.12355	0.665
8.15749	0.678
8.19143	0.724
8.22538	0.749
8.25932	0.759
8.29326	0.772
8.3272	0.792
8.36114	0.857
8.39509	0.925
8.42903	0.87
8.46297	0.85
8.49691	0.852
8.53085	0.868
8.5648	0.875
8.59874	0.87
8.63268	0.854
8.66662	0.825
8.70056	0.814
8.73451	0.854
8.76845	0.878
8.80239	0.893
8.83633	0.898
8.87027	0.898
8.90422	0.897
8.93816	0.895
8.9721	0.893
9.00604	0.888
9.03998	0.88
9.07393	0.875
9.10787	0.857
9.14181	0.812
9.17575	0.815
9.20969	0.829
9.24364	0.827
9.27758	0.834
9.31152	0.844
9.34546	0.868
9.3794	0.873
9.41334	0.868
9.44729	0.845
9.48123	0.796
9.51517	0.767
9.54911	0.771
9.58305	0.794
9.617	0.787
9.65094	0.767
9.68488	0.757
9.71882	0.797
9.75276	0.842
9.78671	0.859
9.82065	0.859
9.85459	0.862
9.88853	0.875
9.92247	0.888
9.95642	0.893
9.99036	0.878
10.0243	0.87
10.0582	0.893
10.0922	0.893
10.1261	0.89
10.1601	0.885
10.194	0.88
10.228	0.887
10.2619	0.893
10.2958	0.895
10.3298	0.895
10.3637	0.898
10.3977	0.895
10.4316	0.882
10.4655	0.864
10.4995	0.847
10.5334	0.845
10.5674	0.859
10.6013	0.873
10.6353	0.88
10.6692	0.883
10.7031	0.89
10.7371	0.907
10.771	0.922
10.805	0.935
10.8389	0.933
10.8728	0.927
10.9068	0.917
10.9407	0.908
10.9747	0.908
11.0086	0.905
11.0426	0.905
11.0765	0.903
11.1104	0.903
11.1444	0.907
11.1783	0.91
11.2123	0.908
11.2462	0.907
11.2802	0.908
11.3141	0.908
11.348	0.908
11.382	0.902
11.4159	0.903
11.4499	0.907
11.4838	0.905
11.5177	0.903
11.5517	0.893
11.5856	0.892
11.6196	0.885
11.6535	0.887
11.6875	0.892
11.7214	0.887
11.7553	0.893
11.7893	0.897
11.8232	0.893
11.8572	0.892
11.8911	0.89
11.925	0.893
11.959	0.91
11.9929	0.908
12.0269	0.912
12.0608	0.905
12.0948	0.903
12.1287	0.9
12.1626	0.905
12.1966	0.913
12.2305	0.925
12.2645	0.943
12.2984	0.953
12.3324	0.963
12.3663	0.98
12.4002	0.993
12.4342	1.009
12.4681	1.011
12.5021	1.011
12.536	1.011
12.5699	1.011
12.6039	1.011
12.6378	1.011
12.6718	1.011
12.7057	1.011
12.7397	1.011
12.7736	1.014
12.8075	1.013
12.8415	1.011
12.8754	1.011
12.9094	1.011
12.9433	1.011
12.9772	1.013
13.0112	1.011
13.0451	1.011
13.0791	1.011
13.113	1.013
13.147	1.013
13.1809	1.013
13.2148	1.011
13.2488	1.009
13.2827	1.011
13.3167	1.011
13.3506	1.011
13.3846	1.011
13.4185	1.011
13.4524	1.006
13.4864	1.009
13.5203	1.011
13.5543	1.011
13.5882	1.009
13.6221	1.009
13.6561	1.009
13.69	1.009
13.724	1.011
13.7579	1.011
13.7919	1.009
13.8258	1.009
13.8597	1.009
13.8937	1.009
13.9276	1.008
13.9616	1.001
13.9955	0.993
14.0294	0.983
14.0634	0.95
14.0973	0.89
14.1313	0.779
14.1652	0.663
14.1992	0.565
14.2331	0.461
14.267	0.412
14.301	0.383
14.3349	0.394
14.3689	0.442
14.4028	0.543
14.4368	0.669
14.4707	0.761
14.5046	0.809
14.5386	0.84
14.5725	0.859
14.6065	0.872
14.6404	0.89
14.6743	0.892
14.7083	0.895
14.7422	0.903
14.7762	0.92
14.8101	0.936
14.8441	0.945
14.878	0.958
14.9119	0.965
14.9459	0.963
14.9798	0.963
15.0138	0.958
15.0477	0.95
15.0817	0.912
15.1156	0.867
15.1495	0.859
15.1835	0.855
15.2174	0.867
15.2514	0.873
15.2853	0.873
15.3192	0.872
15.3532	0.857
15.3871	0.847
15.4211	0.827
15.455	0.807
