Infrared Spectrum: PHOSPHONOTHIOIC ACID, METHYL-, o,o-DIHEXYL ESTER
Formula: C13 H29 O2 P S
CAS: 116401-93-5
State: LIQUID
Class: COBLENTZ
Instrument: Not specified, most likely a prism, grating, or hybrid spectrometer.
Sampling: TRANSMISSION
Path length: LIQUID FILM BETWEEN KBr PLATES
Resolution: 4
Origin: G. A. M. S.
1/CM	TRANSMITTANCE
599.941	0.483
609.107	0.499
618.272	0.523
627.438	0.614
636.604	0.714
645.77	0.483
654.935	0.537
664.101	0.844
673.267	0.9
682.432	0.92
691.598	0.929
700.764	0.929
709.93	0.927
719.095	0.921
728.261	0.903
737.427	0.874
746.592	0.829
755.758	0.757
764.924	0.566
774.09	0.1932
783.255	0.096
792.421	0.124
801.587	0.5939
810.752	0.639
819.918	0.4731
829.084	0.431
838.25	0.795
847.415	0.771
856.581	0.5991
865.747	0.413
874.912	0.589
884.078	0.525
893.244	0.242
902.409	0.062
911.575	0.039
920.741	0.062
929.907	0.238
939.072	0.436
948.238	0.37
957.404	0.1961
966.569	0.041
975.735	0.029
984.901	0.027
994.067	0.033
1003.23	0.046
1012.4	0.049
1021.56	0.072
1030.73	0.09
1039.9	0.058
1049.06	0.087
1058.23	0.274
1067.39	0.48
1076.56	0.548
1085.72	0.611
1094.89	0.625
1104.06	0.738
1113.22	0.72
1122.39	0.605
1131.55	0.777
1140.72	0.778
1149.88	0.5759
1159.05	0.715
1168.22	0.824
1177.38	0.834
1186.55	0.791
1195.71	0.809
1204.88	0.829
1214.04	0.818
1223.21	0.797
1232.38	0.714
1241.54	0.571
1250.71	0.599
1259.87	0.509
1269.04	0.642
1278.2	0.781
1287.37	0.712
1296.54	0.357
1305.7	0.499
1314.87	0.718
1324.03	0.735
1333.2	0.682
1342.36	0.728
1351.53	0.703
1360.7	0.608
1369.86	0.417
1379.03	0.545
1388.19	0.749
1397.36	0.758
1406.52	0.596
1415.69	0.5829
1424.86	0.688
1434.02	0.611
1443.19	0.384
1452.35	0.181
1461.52	0.4599
1470.68	0.625
1479.85	0.854
1489.02	0.894
1498.18	0.909
1507.35	0.913
1516.51	0.917
1525.68	0.918
1534.84	0.918
1544.01	0.915
1553.18	0.913
1562.34	0.912
1571.51	0.915
1580.67	0.923
1589.84	0.932
1599	0.937
1608.17	0.938
1617.33	0.943
1626.5	0.947
1635.67	0.949
1644.83	0.952
1654	0.952
1663.16	0.953
1672.33	0.953
1681.49	0.95
1690.66	0.947
1699.83	0.944
1708.99	0.941
1718.16	0.935
1727.32	0.93
1736.49	0.929
1745.65	0.927
1754.82	0.924
1763.99	0.926
1773.15	0.929
1782.32	0.932
1791.48	0.93
1800.65	0.923
1809.81	0.924
1818.98	0.933
1828.15	0.941
1837.31	0.949
1846.48	0.958
1855.64	0.966
1864.81	0.961
1873.97	0.96
1883.14	0.956
1892.31	0.958
1901.47	0.961
1910.64	0.967
1919.8	0.972
1928.97	0.976
1938.13	0.98
1947.3	0.976
1956.47	0.969
1965.63	0.986
1974.8	0.995
1983.96	0.996
1993.13	0.993
2002.29	0.9875
2011.46	0.9863
2020.63	0.9845
2029.79	0.9815
2038.96	0.98
2048.12	0.978
2057.29	0.9753
2066.45	0.973
2075.62	0.972
2084.79	0.969
2093.95	0.969
2103.12	0.967
2112.28	0.966
2121.45	0.964
2130.61	0.964
2139.78	0.9603
2148.95	0.96
2158.11	0.958
2167.28	0.9566
2176.44	0.9553
2185.61	0.955
2194.77	0.9523
2203.94	0.953
2213.11	0.953
2222.27	0.9557
2231.44	0.956
2240.6	0.958
2249.77	0.958
2258.93	0.96
2268.1	0.958
2277.27	0.958
2286.43	0.9553
2295.6	0.9524
2304.76	0.945
2313.93	0.9384
2323.09	0.9324
2332.26	0.9277
2341.43	0.926
2350.59	0.924
2359.76	0.9266
2368.92	0.9313
2378.09	0.9376
2387.25	0.9466
2396.42	0.9512
2405.59	0.955
2414.75	0.9556
2423.92	0.956
2433.08	0.9554
2442.25	0.953
2451.41	0.952
2460.58	0.9478
2469.75	0.9464
2478.91	0.9448
2488.08	0.9434
2497.24	0.9404
2506.41	0.938
2515.57	0.9374
2524.74	0.9338
2533.91	0.932
2543.07	0.9264
2552.24	0.9234
2561.4	0.9174
2570.57	0.9124
2579.73	0.9073
2588.9	0.9034
2598.07	0.8959
2607.23	0.8909
2616.4	0.8823
2625.56	0.8687
2634.73	0.8558
2643.89	0.8432
2653.06	0.8359
2662.23	0.8345
2671.39	0.8416
2680.56	0.8521
2689.72	0.8605
2698.89	0.8665
2708.05	0.8745
2717.22	0.88
2726.39	0.882
2735.55	0.881
2744.72	0.8755
2753.88	0.8629
2763.05	0.8439
2772.21	0.8275
2781.38	0.812
2790.55	0.796
2799.71	0.7725
2808.88	0.7291
2818.04	0.6887
2827.21	0.6177
2836.37	0.466
2845.54	0.3659
2854.71	0.2897
2863.87	0.1851
2873.04	0.1684
2882.2	0.2089
2891.37	0.3199
2900.53	0.2941
2909.7	0.2074
2918.87	0.1458
2928.03	0.0667
2937.2	0.03
2946.36	0.0462
2955.53	0.0727
2964.69	0.1303
2973.86	0.2685
2983.03	0.4096
2992.19	0.5344
3001.36	0.6696
3010.52	0.7604
3019.69	0.7985
3028.85	0.8218
3038.02	0.8595
3047.19	0.8787
3056.35	0.8873
3065.52	0.8944
3074.68	0.8974
3083.85	0.9004
3093.01	0.903
3102.18	0.904
3111.35	0.9064
3120.51	0.9082
3129.68	0.907
3138.84	0.907
3148.01	0.909
3157.17	0.909
3166.34	0.9094
3175.51	0.91
3184.67	0.91
3193.84	0.91
3203	0.912
3212.17	0.9124
3221.33	0.913
3230.5	0.913
3239.67	0.9137
3248.83	0.915
3258	0.915
3267.16	0.917
3276.33	0.917
3285.49	0.918
3294.66	0.918
3303.83	0.918
3312.99	0.918
3322.16	0.918
3331.32	0.918
3340.49	0.9177
3349.65	0.917
3358.82	0.918
3367.99	0.915
3377.15	0.915
3386.32	0.913
3395.48	0.9123
3404.65	0.9114
3413.81	0.9097
3422.98	0.907
3432.15	0.906
3441.31	0.9063
3450.48	0.909
3459.64	0.9093
3468.81	0.912
3477.97	0.9129
3487.14	0.917
3496.31	0.917
3505.47	0.9186
3514.64	0.92
3523.8	0.92
3532.97	0.92
3542.13	0.921
3551.3	0.921
3560.47	0.921
3569.63	0.921
3578.8	0.921
3587.96	0.921
3597.13	0.921
3606.29	0.92
3615.46	0.92
3624.63	0.92
3633.79	0.92
3642.96	0.9185
3652.12	0.92
3661.29	0.9195
3670.45	0.92
3679.62	0.918
3688.79	0.9185
3697.95	0.918
3707.12	0.918
3716.28	0.917
3725.45	0.917
3734.61	0.915
3743.78	0.915
3752.95	0.913
3762.11	0.9146
3771.28	0.912
3780.44	0.912
3789.61	0.9116
3798.77	0.91
3807.94	0.91
3817.11	0.9104
3826.27	0.91
3835.44	0.91
3844.6	0.9104
3853.77	0.91
3862.93	0.909
3872.1	0.907
3881.27	0.907
3890.43	0.906
3899.6	0.9062
3908.76	0.9062
3917.93	0.9069
3927.09	0.9043
3936.26	0.9057
3945.43	0.9031
3954.59	0.9027
3963.76	0.9013
3972.92	0.9027
3982.09	0.9009
