Infrared Spectrum: ALLENE, 1,1-BIS(TRIPHENYLSILYL)-
Formula: C39 H32 Si2
CAS: 116402-38-1
State: SOLID (KBr PELLET)
Melting point: 187.5-189.5 C
Class: COBLENTZ
Instrument: Not specified, most likely a prism, grating, or hybrid spectrometer.
Sampling: TRANSMISSION
Resolution: 4
Origin: TENNESSEE EASTMAN COMPANY, RESEARCH LABORATORIES
MICROMETERS	TRANSMITTANCE
2.144	0.789
2.18501	0.797
2.22603	0.802
2.26704	0.804
2.30806	0.811
2.34907	0.813
2.39008	0.819
2.4311	0.816
2.47211	0.821
2.51313	0.835
2.55414	0.838
2.59515	0.843
2.63617	0.845
2.67718	0.847
2.7182	0.85
2.75921	0.85
2.80022	0.847
2.84124	0.84
2.88225	0.835
2.92327	0.837
2.96428	0.847
3.00529	0.854
3.04631	0.861
3.08732	0.869
3.12834	0.876
3.16935	0.843
3.21036	0.845
3.25138	0.504
3.29239	0.694
3.33341	0.809
3.37442	0.83
3.41543	0.861
3.45645	0.876
3.49746	0.891
3.53848	0.9
3.57949	0.91
3.6205	0.912
3.66152	0.917
3.70253	0.912
3.74355	0.912
3.78456	0.921
3.82557	0.922
3.86659	0.921
3.9076	0.922
3.94862	0.929
3.98963	0.933
4.03064	0.934
4.07166	0.936
4.11267	0.936
4.15369	0.939
4.1947	0.943
4.23571	0.943
4.27673	0.929
4.31774	0.929
4.35876	0.939
4.39977	0.945
4.44078	0.945
4.4818	0.946
4.52281	0.948
4.56383	0.951
4.60484	0.951
4.64585	0.953
4.68687	0.957
4.72788	0.953
4.7689	0.951
4.80991	0.958
4.85092	0.962
4.89194	0.957
4.93295	0.953
4.97397	0.951
5.01498	0.924
5.05599	0.873
5.09701	0.869
5.13802	0.907
5.17904	0.89
5.22005	0.78
5.26106	0.217
5.30208	0.3
5.34309	0.777
5.38411	0.85
5.42512	0.807
5.46613	0.843
5.50715	0.888
5.54816	0.922
5.58918	0.914
5.63019	0.903
5.6712	0.934
5.71222	0.936
5.75323	0.919
5.79425	0.909
5.83526	0.926
5.87627	0.934
5.91729	0.936
5.9583	0.927
5.99932	0.9
6.04033	0.891
6.08135	0.922
6.12236	0.931
6.16337	0.917
6.20439	0.914
6.2454	0.91
6.28642	0.78
6.32743	0.907
6.36844	0.837
6.40946	0.927
6.45047	0.939
6.49149	0.946
6.5325	0.951
6.57351	0.953
6.61453	0.955
6.65554	0.945
6.69656	0.677
6.73757	0.843
6.77858	0.927
6.8196	0.934
6.86061	0.929
6.90163	0.917
6.94264	0.644
6.98365	0.114
7.02467	0.708
7.06568	0.857
7.1067	0.874
7.14771	0.881
7.18872	0.85
7.22974	0.821
7.27075	0.838
7.31177	0.861
7.35278	0.864
7.39379	0.857
7.43481	0.883
7.47582	0.857
7.51684	0.819
7.55785	0.873
7.59886	0.866
7.63988	0.811
7.68089	0.826
7.72191	0.871
7.76292	0.914
7.80393	0.934
7.84495	0.931
7.88596	0.873
7.92698	0.78
7.96799	0.854
8.009	0.934
8.05002	0.955
8.09103	0.963
8.13205	0.979
8.17306	0.982
8.21407	0.984
8.25509	0.982
8.2961	0.979
8.33712	0.866
8.37813	0.787
8.41914	0.828
8.46016	0.91
8.50117	0.955
8.54219	0.969
8.5832	0.957
8.62421	0.885
8.66523	0.907
8.70624	0.939
8.74726	0.941
8.78827	0.914
8.82928	0.869
8.8703	0.782
8.91131	0.502
8.95233	0.142
8.99334	0.072
9.03435	0.257
9.07537	0.36
9.11638	0.71
9.1574	0.749
9.19841	0.85
9.23942	0.926
9.28044	0.957
9.32145	0.927
9.36247	0.895
9.40348	0.946
9.44449	0.96
9.48551	0.965
9.52652	0.965
9.56754	0.963
9.60855	0.963
9.64956	0.955
9.69058	0.794
9.73159	0.867
9.77261	0.941
9.81362	0.951
9.85463	0.951
9.89565	0.955
9.93666	0.951
9.97768	0.761
10.0187	0.753
10.0597	0.91
10.1007	0.924
10.1417	0.919
10.1827	0.951
10.2238	0.945
10.2648	0.934
10.3058	0.933
10.3468	0.955
10.3878	0.974
10.4288	0.975
10.4698	0.977
10.5109	0.981
10.5519	0.982
10.5929	0.982
10.6339	0.982
10.6749	0.981
10.7159	0.981
10.7569	0.975
10.798	0.965
10.839	0.953
10.88	0.955
10.921	0.939
10.962	0.943
11.003	0.96
11.044	0.97
11.0851	0.97
11.1261	0.965
11.1671	0.963
11.2081	0.955
11.2491	0.934
11.2901	0.902
11.3311	0.864
11.3722	0.804
11.4132	0.72
11.4542	0.502
11.4952	0.2
11.5362	0.243
11.5772	0.468
11.6182	0.692
11.6593	0.765
11.7003	0.831
11.7413	0.862
11.7823	0.891
11.8233	0.929
11.8643	0.941
11.9053	0.948
11.9463	0.955
11.9874	0.96
12.0284	0.97
12.0694	0.975
12.1104	0.982
12.1514	0.984
12.1924	0.984
12.2334	0.986
12.2745	0.986
12.3155	0.986
12.3565	0.987
12.3975	0.987
12.4385	0.987
12.4795	0.984
12.5205	0.982
12.5616	0.981
12.6026	0.977
12.6436	0.972
12.6846	0.97
12.7256	0.97
12.7666	0.97
12.8076	0.97
12.8487	0.967
12.8897	0.962
12.9307	0.958
12.9717	0.95
13.0127	0.939
13.0537	0.931
13.0947	0.922
13.1358	0.9
13.1768	0.852
13.2178	0.74
13.2588	0.703
13.2998	0.727
13.3408	0.667
13.3818	0.545
13.4229	0.44
13.4639	0.389
13.5049	0.296
13.5459	0.277
13.5869	0.281
13.6279	0.207
13.6689	0.21
13.71	0.358
13.751	0.533
13.792	0.602
13.833	0.538
13.874	0.377
13.915	0.281
13.956	0.24
13.997	0.168
14.0381	0.101
14.0791	0.084
14.1201	0.072
14.1611	0.08
14.2021	0.089
14.2431	0.101
14.2841	0.089
14.3252	0.084
14.3662	0.089
14.4072	0.152
14.4482	0.24
14.4892	0.361
14.5302	0.464
14.5712	0.576
14.6123	0.643
14.6533	0.66
14.6943	0.662
14.7353	0.668
14.7763	0.675
14.8173	0.687
14.8583	0.701
14.8994	0.73
14.9404	0.759
14.9814	0.78
15.0224	0.789
15.0634	0.802
15.1044	0.811
15.1454	0.823
15.1865	0.826
15.2275	0.828
15.2685	0.828
15.3095	0.831
15.3505	0.83
15.3915	0.821
15.4325	0.814
15.4736	0.809
15.5146	0.806
15.5556	0.807
15.5966	0.801
15.6376	0.799
15.6786	0.795
15.7196	0.794
15.7607	0.789
15.8017	0.778
15.8427	0.773
15.8837	0.773
15.9247	0.768
15.9657	0.768
