Infrared Spectrum: SUCCINIC ACID,2-(o-HYDROXYPHENYL)-2-PHENYL-,Gamma-LACTONE
Formula: C16 H12 O4
CAS: 116465-78-2
State: SOLID (NUJOL MULL)
Class: COBLENTZ III
Instrument: PERKIN-ELMER 421 (GRATING)
Instrument parameters: GRATING CHANGE AT 1999 CM^-^1
Resolution: 2
Origin: ABBOTT LABORATORIES
1/CM	TRANSMITTANCE
669	0.6437
678	0.5453
687	0.4463
696	0.6897
705	0.7228
714	0.6783
723	0.5886
732	0.4153
741	0.5993
750	0.5898
759	0.7762
768	0.8052
777	0.8102
786	0.8074
795	0.8009
804	0.7981
813	0.795
822	0.7835
831	0.7642
840	0.7175
849	0.7488
858	0.7119
867	0.6616
876	0.5181
885	0.5696
894	0.5711
903	0.5202
912	0.5946
921	0.6876
930	0.7498
939	0.7357
948	0.6568
957	0.7005
966	0.7341
975	0.7127
984	0.6229
993	0.649
1002	0.614
1011	0.6016
1020	0.7144
1029	0.6618
1038	0.5321
1047	0.4154
1056	0.4505
1065	0.2983
1074	0.6037
1083	0.7293
1092	0.6972
1101	0.7093
1110	0.6809
1119	0.4475
1128	0.6629
1137	0.7229
1146	0.732
1155	0.7521
1164	0.7251
1173	0.6846
1182	0.7319
1191	0.7013
1200	0.6903
1209	0.5226
1218	0.2573
1227	0.4585
1236	0.5078
1245	0.5024
1254	0.4641
1263	0.6316
1272	0.6581
1281	0.4974
1290	0.6819
1299	0.7136
1308	0.6986
1317	0.6038
1326	0.6601
1335	0.5709
1344	0.5589
1353	0.6141
1362	0.5167
1371	0.4745
1380	0.5481
1389	0.5808
1398	0.4768
1407	0.6751
1416	0.6528
1425	0.4496
1434	0.2168
1443	0.2491
1452	0.1084
1461	0.3388
1470	0.2934
1479	0.6012
1488	0.5776
1497	0.7693
1506	0.7717
1515	0.7678
1524	0.7721
1533	0.7785
1542	0.7796
1551	0.7603
1560	0.7279
1569	0.6951
1578	0.6588
1587	0.601
1596	0.6892
1605	0.5663
1614	0.7031
1623	0.7156
1632	0.6899
1641	0.667
1650	0.6534
1659	0.5943
1668	0.5315
1677	0.4949
1686	0.2415
1695	0.156
1704	0.2275
1713	0.5674
1722	0.6892
1731	0.6975
1740	0.6966
1749	0.664
1758	0.6287
1767	0.6124
1776	0.5502
1785	0.1904
1794	0.1075
1803	0.3423
1812	0.5955
1821	0.6773
1830	0.7218
1839	0.7677
1848	0.7867
1857	0.7936
1866	0.8014
1875	0.7997
1884	0.7926
1893	0.8056
1902	0.8073
1911	0.8058
1920	0.8038
1929	0.8019
1938	0.7915
1947	0.7945
1956	0.8102
1965	0.802
1974	0.7985
1983	0.799
1992	0.83
2001	0.8289
2010	0.8247
2019	0.8201
2028	0.8178
2037	0.8171
2046	0.8178
2055	0.819
2064	0.8195
2073	0.8183
2082	0.8159
2091	0.812
2100	0.8091
2109	0.807
2118	0.8086
2127	0.811
2136	0.8114
2145	0.8102
2154	0.8081
2163	0.8051
2172	0.8026
2181	0.8002
2190	0.7989
2199	0.7979
2208	0.7964
2217	0.7947
2226	0.7928
2235	0.7906
2244	0.7884
2253	0.7873
2262	0.7865
2271	0.7851
2280	0.783
2289	0.7775
2298	0.7717
2307	0.7662
2316	0.7641
2325	0.7647
2334	0.766
2343	0.767
2352	0.7679
2361	0.768
2370	0.761
2379	0.7552
2388	0.7524
2397	0.7507
2406	0.7489
2415	0.7463
2424	0.7372
2433	0.7291
2442	0.7246
2451	0.7188
2460	0.7117
2469	0.7051
2478	0.6981
2487	0.6909
2496	0.683
2505	0.6746
2514	0.6654
2523	0.655
2532	0.6421
2541	0.632
2550	0.6226
2559	0.6196
2568	0.6208
2577	0.6254
2586	0.6268
2595	0.6235
2604	0.6205
2613	0.6192
2622	0.6081
2631	0.5892
2640	0.5737
2649	0.5624
2658	0.559
2667	0.5677
2676	0.5937
2685	0.6164
2694	0.6231
2703	0.6162
2712	0.6014
2721	0.5989
2730	0.5962
2739	0.5912
2748	0.5761
2757	0.5643
2766	0.5691
2775	0.575
2784	0.5728
2793	0.5514
2802	0.5165
2811	0.4795
2820	0.4264
2829	0.1402
2838	0.0648
2847	0.0562
2856	0.0726
2865	0.0967
2874	0.1038
2883	0.0721
2892	0.0364
2901	0.0222
2910	0.0172
2919	0.0159
2928	0.0273
2937	0.0283
2946	0.0319
2955	0.0777
2964	0.1472
2973	0.2619
2982	0.3347
2991	0.3838
3000	0.4066
3009	0.418
3018	0.4255
3027	0.4521
3036	0.4612
3045	0.4754
3054	0.4898
3063	0.5041
3072	0.517
3081	0.5184
3090	0.5314
3099	0.5435
3108	0.5547
3117	0.5656
3126	0.5758
3135	0.586
3144	0.5967
3153	0.6063
3162	0.6152
3171	0.6229
3180	0.6301
3189	0.6372
3198	0.6443
3207	0.6527
3216	0.661
3225	0.668
3234	0.6737
3243	0.679
3252	0.6824
3261	0.6858
3270	0.689
3279	0.6923
3288	0.6941
3297	0.6952
3306	0.6961
3315	0.6966
3324	0.6979
3333	0.7011
3342	0.7059
3351	0.7117
3360	0.714
3369	0.7154
3378	0.7148
3387	0.7142
3396	0.7143
3405	0.7145
3414	0.7147
3423	0.7148
3432	0.7148
3441	0.7142
3450	0.7136
3459	0.713
3468	0.7126
3477	0.7121
3486	0.7114
3495	0.7106
3504	0.7098
3513	0.7086
3522	0.7075
3531	0.7061
3540	0.7041
3549	0.7022
3558	0.6986
3567	0.6924
3576	0.6864
3585	0.6974
3594	0.7046
3603	0.7045
3612	0.7055
3621	0.7038
3630	0.6996
3639	0.6987
3648	0.7007
3657	0.7012
3666	0.7
3675	0.6962
3684	0.6949
3693	0.6938
3702	0.6931
3711	0.6924
3720	0.6927
3729	0.691
3738	0.6879
3747	0.6863
3756	0.6864
3765	0.6852
3774	0.6836
3783	0.6822
3792	0.6813
3801	0.6811
3810	0.6818
3819	0.681
3828	0.6776
3837	0.6764
3846	0.6783
3855	0.6761
3864	0.6754
3873	0.6769
3882	0.6789
3891	0.6698
3900	0.6725
3909	0.6766
3918	0.668
3927	0.6668
3936	0.6665
3945	0.665
3954	0.6631
3963	0.6615
3972	0.66
3981	0.658
3990	0.6576
3999	0.6572
