Infrared Spectrum: PHOSPHORIC ACID, TRIS(2,2-DIMETHYLPENTYL) ESTER
Formula: C21 H45 O4 P
CAS: 116402-18-7
Boiling point: 133 C AT 0.3 mmHg
Class: COBLENTZ
Instrument: Not specified, most likely a prism, grating, or hybrid spectrometer.
Sampling: TRANSMISSION
Path length: SMEAR
Resolution: 4
Origin: TENNESSEE EASTMAN COMPANY, RESEARCH LABORATORIES
MICROMETERS	TRANSMITTANCE
2.033	0.961
2.073	0.959
2.113	0.958
2.15301	0.958
2.19301	0.959
2.23301	0.958
2.27301	0.931
2.31301	0.914
2.35302	0.911
2.39302	0.913
2.43302	0.918
2.47302	0.921
2.51302	0.928
2.55302	0.928
2.59303	0.938
2.63303	0.938
2.67303	0.946
2.71303	0.948
2.75303	0.943
2.79304	0.936
2.83304	0.933
2.87304	0.933
2.91304	0.934
2.95304	0.933
2.99305	0.936
3.03305	0.938
3.07305	0.938
3.11305	0.934
3.15305	0.919
3.19306	0.914
3.23306	0.913
3.27306	0.904
3.31306	0.851
3.35306	0.492
3.39306	0.131
3.43307	0.31
3.47307	0.337
3.51307	0.649
3.55307	0.819
3.59307	0.869
3.63308	0.874
3.67308	0.861
3.71308	0.883
3.75308	0.899
3.79308	0.899
3.83309	0.913
3.87309	0.926
3.91309	0.929
3.95309	0.934
3.99309	0.939
4.0331	0.943
4.0731	0.943
4.1131	0.943
4.1531	0.941
4.1931	0.941
4.2331	0.964
4.27311	0.958
4.31311	0.929
4.35311	0.899
4.39311	0.946
4.43311	0.949
4.47312	0.944
4.51312	0.948
4.55312	0.949
4.59312	0.949
4.63312	0.949
4.67313	0.949
4.71313	0.949
4.75313	0.949
4.79313	0.948
4.83313	0.949
4.87314	0.948
4.91314	0.948
4.95314	0.948
4.99314	0.949
5.03314	0.948
5.07315	0.938
5.11315	0.929
5.15315	0.929
5.19315	0.931
5.23315	0.926
5.27315	0.928
5.31316	0.933
5.35316	0.939
5.39316	0.938
5.43316	0.924
5.47316	0.928
5.51317	0.934
5.55317	0.939
5.59317	0.943
5.63317	0.951
5.67317	0.943
5.71318	0.949
5.75318	0.944
5.79318	0.939
5.83318	0.936
5.87318	0.948
5.91319	0.921
5.95319	0.938
5.99319	0.936
6.03319	0.933
6.07319	0.929
6.11319	0.938
6.1532	0.934
6.1932	0.936
6.2332	0.936
6.2732	0.938
6.3132	0.939
6.35321	0.938
6.39321	0.943
6.43321	0.914
6.47321	0.923
6.51321	0.904
6.55322	0.904
6.59322	0.899
6.63322	0.863
6.67322	0.839
6.71322	0.646
6.75323	0.4
6.79323	0.409
6.83323	0.502
6.87323	0.611
6.91323	0.732
6.95323	0.792
6.99324	0.851
7.03324	0.863
7.07324	0.868
7.11324	0.794
7.15324	0.639
7.19325	0.764
7.23325	0.676
7.27325	0.602
7.31325	0.512
7.35325	0.667
7.39326	0.828
7.43326	0.866
7.47326	0.869
7.51326	0.861
7.55326	0.821
7.59327	0.791
7.63327	0.714
7.67327	0.594
7.71327	0.474
7.75327	0.347
7.79327	0.277
7.83328	0.302
7.87328	0.318
7.91328	0.317
7.95328	0.464
7.99328	0.661
8.03329	0.724
8.07329	0.739
8.11329	0.772
8.15329	0.774
8.19329	0.762
8.2333	0.777
8.2733	0.814
8.3133	0.747
8.3533	0.789
8.3933	0.771
8.43331	0.782
8.47331	0.824
8.51331	0.839
8.55331	0.853
8.59331	0.854
8.63331	0.854
8.67332	0.854
8.71332	0.854
8.75332	0.853
8.79332	0.846
8.83332	0.836
8.87333	0.824
8.91333	0.811
8.95333	0.791
8.99333	0.771
9.03333	0.722
9.07334	0.652
9.11334	0.584
9.15334	0.567
9.19334	0.519
9.23334	0.489
9.27335	0.48
9.31335	0.46
9.35335	0.45
9.39335	0.454
9.43335	0.444
9.47335	0.358
9.51336	0.235
9.55336	0.128
9.59336	0.081
9.63336	0.056
9.67336	0.05
9.71337	0.048
9.75337	0.046
9.79337	0.046
9.83337	0.065
9.87337	0.088
9.91338	0.123
9.95338	0.19
9.99338	0.287
10.0334	0.348
10.0734	0.367
10.1134	0.383
10.1534	0.398
10.1934	0.415
10.2334	0.544
10.2734	0.622
10.3134	0.674
10.3534	0.704
10.3934	0.719
10.4334	0.732
10.4734	0.722
10.5134	0.679
10.5534	0.644
10.5934	0.637
10.6334	0.622
10.6734	0.599
10.7134	0.564
10.7534	0.564
10.7934	0.555
10.8334	0.544
10.8734	0.587
10.9134	0.624
10.9534	0.621
10.9934	0.567
11.0334	0.504
11.0734	0.454
11.1134	0.4
11.1534	0.365
11.1934	0.355
11.2334	0.36
11.2734	0.388
11.3134	0.404
11.3534	0.412
11.3934	0.445
11.4334	0.507
11.4735	0.56
11.5135	0.599
11.5535	0.626
11.5935	0.652
11.6335	0.676
11.6735	0.722
11.7135	0.774
11.7535	0.813
11.7935	0.833
11.8335	0.846
11.8735	0.854
11.9135	0.859
11.9535	0.863
11.9935	0.859
12.0335	0.854
12.0735	0.839
12.1135	0.821
12.1535	0.801
12.1935	0.781
12.2335	0.767
12.2735	0.761
12.3135	0.761
12.3535	0.769
12.3935	0.784
12.4335	0.803
12.4735	0.821
12.5135	0.836
12.5535	0.848
12.5935	0.858
12.6335	0.869
12.6735	0.878
12.7135	0.884
12.7535	0.889
12.7935	0.893
12.8335	0.893
12.8735	0.893
12.9135	0.893
12.9535	0.893
12.9935	0.893
13.0335	0.891
13.0735	0.891
13.1135	0.888
13.1535	0.879
13.1935	0.876
13.2335	0.874
13.2735	0.871
13.3135	0.854
13.3535	0.836
13.3935	0.801
13.4335	0.754
13.4735	0.731
13.5135	0.736
13.5535	0.781
13.5936	0.809
13.6336	0.846
13.6736	0.858
13.7136	0.864
13.7536	0.868
13.7936	0.871
13.8336	0.873
13.8736	0.873
13.9136	0.873
13.9536	0.873
13.9936	0.874
14.0336	0.873
14.0736	0.871
14.1136	0.869
14.1536	0.868
14.1936	0.861
14.2336	0.859
14.2736	0.856
14.3136	0.853
14.3536	0.849
14.3936	0.844
14.4336	0.841
14.4736	0.836
14.5136	0.826
14.5536	0.823
14.5936	0.814
14.6336	0.811
14.6736	0.806
14.7136	0.797
14.7536	0.789
14.7936	0.786
14.8336	0.782
14.8736	0.771
14.9136	0.754
14.9536	0.731
14.9936	0.727
15.0336	0.751
15.0736	0.762
15.1136	0.752
15.1536	0.734
15.1936	0.734
15.2336	0.731
15.2736	0.729
15.3136	0.726
15.3536	0.722
15.3936	0.719
15.4336	0.717
15.4736	0.716
15.5136	0.714
15.5536	0.711
15.5936	0.711
15.6336	0.706
15.6737	0.702
15.7137	0.701
15.7537	0.699
15.7937	0.697
15.8337	0.694
15.8737	0.691
15.9137	0.687
15.9537	0.687
15.9937	0.684
