Infrared Spectrum: PHOSPHONIC DIAMIDE, N,N'-BIS (p-BUTYL PHENYL)-
Formula: C20 H29 N2 O P
CAS: 116401-80-0
State: SOLID (KBr PELLET)
Class: COBLENTZ
Instrument: PERKIN-ELMER
Sampling: TRANSMISSION
Resolution: 4
Origin: STANDARD OIL OF OHIO
MICROMETERS	TRANSMITTANCE
2.02	0.846
2.05373	0.847
2.08746	0.849
2.1212	0.849
2.15493	0.846
2.18866	0.847
2.22239	0.849
2.25613	0.849
2.28986	0.841
2.32359	0.839
2.35732	0.839
2.39106	0.842
2.42479	0.842
2.45852	0.837
2.49225	0.841
2.52599	0.842
2.55972	0.844
2.59345	0.847
2.62718	0.844
2.66091	0.846
2.69465	0.839
2.72838	0.809
2.76211	0.729
2.79584	0.604
2.82958	0.506
2.86331	0.447
2.89704	0.402
2.93077	0.396
2.96451	0.423
2.99824	0.427
3.03197	0.354
3.0657	0.275
3.09943	0.27
3.13317	0.283
3.1669	0.349
3.20063	0.456
3.23436	0.538
3.2681	0.515
3.30183	0.548
3.33556	0.521
3.36929	0.25
3.40303	0.177
3.43676	0.236
3.47049	0.339
3.50422	0.442
3.53796	0.645
3.57169	0.704
3.60542	0.734
3.63915	0.766
3.67288	0.782
3.70662	0.798
3.74035	0.807
3.77408	0.815
3.80781	0.817
3.84155	0.82
3.87528	0.82
3.90901	0.822
3.94274	0.824
3.97648	0.831
4.01021	0.842
4.04394	0.849
4.07767	0.837
4.11141	0.817
4.14514	0.741
4.17887	0.722
4.2126	0.761
4.24633	0.795
4.28007	0.817
4.3138	0.841
4.34753	0.853
4.38126	0.856
4.415	0.858
4.44873	0.858
4.48246	0.854
4.51619	0.853
4.54993	0.854
4.58366	0.856
4.61739	0.854
4.65112	0.851
4.68485	0.849
4.71859	0.847
4.75232	0.847
4.78605	0.847
4.81978	0.846
4.85352	0.844
4.88725	0.842
4.92098	0.842
4.95471	0.846
4.98845	0.846
5.02218	0.847
5.05591	0.849
5.08964	0.847
5.12338	0.844
5.15711	0.844
5.19084	0.842
5.22457	0.834
5.2583	0.817
5.29204	0.81
5.32577	0.819
5.3595	0.836
5.39323	0.847
5.42697	0.851
5.4607	0.851
5.49443	0.853
5.52816	0.851
5.5619	0.847
5.59563	0.841
5.62936	0.842
5.66309	0.837
5.69683	0.837
5.73056	0.836
5.76429	0.834
5.79802	0.831
5.83175	0.829
5.86549	0.832
5.89922	0.827
5.93295	0.826
5.96668	0.807
6.00042	0.751
6.03415	0.717
6.06788	0.653
6.10161	0.621
6.13535	0.506
6.16908	0.332
6.20281	0.486
6.23654	0.667
6.27027	0.714
6.30401	0.716
6.33774	0.785
6.37147	0.798
6.4052	0.798
6.43894	0.775
6.47267	0.746
6.5064	0.619
6.54013	0.354
6.57387	0.082
6.6076	0.097
6.64133	0.444
6.67506	0.631
6.7088	0.643
6.74253	0.579
6.77626	0.439
6.80999	0.222
6.84372	0.214
6.87746	0.378
6.91119	0.532
6.94492	0.587
6.97865	0.675
7.01239	0.739
7.04612	0.76
7.07985	0.748
7.11358	0.645
7.14732	0.481
7.18105	0.32
7.21478	0.375
7.24851	0.432
7.28225	0.548
7.31598	0.621
7.34971	0.648
7.38344	0.682
7.41717	0.702
7.45091	0.707
7.48464	0.712
7.51837	0.709
7.5521	0.682
7.58584	0.635
7.61957	0.603
7.6533	0.545
7.68703	0.4
7.72077	0.246
7.7545	0.204
7.78823	0.32
7.82196	0.378
7.8557	0.452
7.88943	0.55
7.92316	0.606
7.95689	0.587
7.99062	0.503
8.02436	0.408
8.05809	0.341
8.09182	0.351
8.12555	0.412
8.15929	0.461
8.19302	0.511
8.22675	0.52
8.26048	0.498
8.29422	0.437
8.32795	0.375
8.36168	0.302
8.39541	0.244
8.42914	0.175
8.46288	0.136
8.49661	0.116
8.53034	0.079
8.56407	0.04
8.59781	0.114
8.63154	0.332
8.66527	0.472
8.699	0.572
8.73274	0.631
8.76647	0.679
8.8002	0.719
8.83393	0.721
8.86767	0.67
8.9014	0.614
8.93513	0.619
8.96886	0.67
9.00259	0.706
9.03633	0.707
9.07006	0.704
9.10379	0.707
9.13752	0.712
9.17126	0.716
9.20499	0.716
9.23872	0.706
9.27245	0.692
9.30619	0.677
9.33992	0.672
9.37365	0.672
9.40738	0.668
9.44112	0.665
9.47485	0.665
9.50858	0.663
9.54231	0.657
9.57604	0.638
9.60978	0.609
9.64351	0.584
9.67724	0.55
9.71097	0.516
9.74471	0.496
9.77844	0.506
9.81217	0.471
9.8459	0.493
9.87964	0.603
9.91337	0.64
9.9471	0.643
9.98083	0.626
10.0146	0.601
10.0483	0.569
10.082	0.518
10.1158	0.432
10.1495	0.354
10.1832	0.27
10.217	0.182
10.2507	0.126
10.2844	0.119
10.3182	0.138
10.3519	0.158
10.3856	0.173
10.4194	0.175
10.4531	0.18
10.4868	0.201
10.5205	0.251
10.5543	0.3
10.588	0.354
10.6217	0.415
10.6555	0.452
10.6892	0.474
10.7229	0.488
10.7567	0.498
10.7904	0.505
10.8241	0.511
10.8579	0.525
10.8916	0.55
10.9253	0.579
10.9591	0.611
10.9928	0.631
11.0265	0.648
11.0603	0.658
11.094	0.66
11.1277	0.66
11.1615	0.668
11.1952	0.685
11.2289	0.69
11.2627	0.694
11.2964	0.697
11.3301	0.701
11.3639	0.702
11.3976	0.707
11.4313	0.712
11.4651	0.717
11.4988	0.721
11.5325	0.722
11.5663	0.728
11.6	0.729
11.6337	0.726
11.6674	0.716
11.7012	0.699
11.7349	0.665
11.7686	0.621
11.8024	0.584
11.8361	0.528
11.8698	0.464
11.9036	0.388
11.9373	0.354
11.971	0.351
12.0048	0.351
12.0385	0.356
12.0722	0.359
12.106	0.366
12.1397	0.366
12.1734	0.359
12.2072	0.351
12.2409	0.354
12.2746	0.353
12.3084	0.349
12.3421	0.359
12.3758	0.432
12.4096	0.516
12.4433	0.574
12.477	0.608
12.5108	0.625
12.5445	0.633
12.5782	0.641
12.612	0.65
12.6457	0.658
12.6794	0.66
12.7132	0.658
12.7469	0.658
12.7806	0.653
12.8143	0.652
12.8481	0.653
12.8818	0.657
12.9155	0.663
12.9493	0.668
12.983	0.675
13.0167	0.68
13.0505	0.682
13.0842	0.682
13.1179	0.68
13.1517	0.675
13.1854	0.67
13.2191	0.668
13.2529	0.675
13.2866	0.68
13.3203	0.689
13.3541	0.694
13.3878	0.699
13.4215	0.699
13.4553	0.701
13.489	0.701
13.5227	0.699
13.5565	0.699
13.5902	0.699
13.6239	0.699
13.6577	0.694
13.6914	0.687
13.7251	0.675
13.7589	0.672
13.7926	0.677
13.8263	0.685
13.8601	0.69
13.8938	0.694
13.9275	0.695
13.9612	0.697
13.995	0.699
14.0287	0.699
14.0624	0.694
14.0962	0.687
14.1299	0.684
14.1636	0.682
14.1974	0.682
14.2311	0.682
14.2648	0.682
14.2986	0.682
14.3323	0.68
14.366	0.682
14.3998	0.684
14.4335	0.684
14.4672	0.684
14.501	0.685
14.5347	0.685
14.5684	0.685
14.6022	0.685
14.6359	0.684
14.6696	0.684
14.7034	0.684
14.7371	0.682
14.7708	0.68
14.8046	0.679
14.8383	0.677
14.872	0.677
14.9058	0.675
14.9395	0.673
14.9732	0.67
15.007	0.67
15.0407	0.667
15.0744	0.665
15.1081	0.662
15.1419	0.658
15.1756	0.657
15.2093	0.657
15.2431	0.655
15.2768	0.653
15.3105	0.652
15.3443	0.646
15.378	0.646
