Infrared Spectrum: 2(3H)- Benzofuranone, 3-phenyl-3-(2-piperidinoethyl)-,
Formula: C21 H23 N O2
CAS: 116465-80-6
State: SOLUTION 7% (CS2 FOR 7.5-15 microns, AND CCl4 FOR 2.5-7.5 microns)
Class: COBLENTZ III
Instrument: PERKIN-ELMER 21 (GRATING)
Instrument parameters: FILTER AT ABOUT 10 MICRONS
Path length: 0.01 CM
Resolution: 2
Origin: ABBOTT LABORATORIES
1/CM	TRANSMITTANCE
666.999	0.8119
675.911	0.785
684.822	0.6606
693.734	0.4252
702.646	0.4245
711.557	0.781
720.469	0.799
729.381	0.785
738.292	0.6477
747.204	0.2389
756.115	0.4254
765.027	0.7245
773.939	0.8391
782.85	0.8886
791.762	0.8169
800.674	0.7884
809.585	0.7839
818.497	0.758
827.409	0.8072
836.32	0.8081
845.232	0.8111
854.144	0.6664
863.055	0.7626
871.967	0.6612
880.879	0.5352
889.79	0.5753
898.702	0.7216
907.614	0.7072
916.525	0.6852
925.437	0.7504
934.348	0.7392
943.26	0.6571
952.172	0.4362
961.083	0.6603
969.995	0.7428
978.907	0.7579
987.818	0.7222
996.73	0.601
1005.64	0.3069
1014.55	0.4064
1023.46	0.4326
1032.38	0.128
1041.29	0.2648
1050.2	0.3739
1059.11	0.5906
1068.02	0.6986
1076.93	0.7156
1085.85	0.7476
1094.76	0.7598
1103.67	0.7176
1112.58	0.5223
1121.49	0.3517
1130.4	0.3272
1139.32	0.6803
1148.23	0.5835
1157.14	0.6149
1166.05	0.6873
1174.96	0.668
1183.87	0.5655
1192.79	0.5764
1201.7	0.6952
1210.61	0.6748
1219.52	0.6473
1228.43	0.493
1237.34	0.4538
1246.26	0.6183
1255.17	0.5837
1264.08	0.5989
1272.99	0.5315
1281.9	0.469
1290.81	0.6583
1299.73	0.6499
1308.64	0.7057
1317.55	0.6567
1326.46	0.673
1335.37	0.7191
1344.28	0.6967
1353.2	0.6217
1362.11	0.7693
1371.02	0.6417
1379.93	0.6773
1388.84	0.7586
1397.75	0.7779
1406.67	0.7784
1415.58	0.7926
1424.49	0.7617
1433.4	0.6114
1442.31	0.4838
1451.22	0.472
1460.14	0.2284
1469.05	0.5144
1477.96	0.3502
1486.87	0.61
1495.78	0.5948
1504.69	0.8159
1513.61	0.8692
1522.52	0.8897
1531.43	0.9031
1540.34	0.9081
1549.25	0.9066
1558.16	0.8852
1567.08	0.8652
1575.99	0.8205
1584.9	0.7753
1593.81	0.6408
1602.72	0.6493
1611.63	0.6783
1620.55	0.5718
1629.46	0.8079
1638.37	0.8275
1647.28	0.8302
1656.19	0.8297
1665.1	0.8266
1674.02	0.8278
1682.93	0.8332
1691.84	0.8356
1700.75	0.8355
1709.66	0.8341
1718.57	0.8319
1727.49	0.8284
1736.4	0.8233
1745.31	0.808
1754.22	0.7858
1763.13	0.7525
1772.04	0.7066
1780.96	0.6268
1789.87	0.3687
1798.78	0.072
1807.69	0.1348
1816.6	0.3865
1825.51	0.6436
1834.43	0.7363
1843.34	0.8022
1852.25	0.8239
1861.16	0.8255
1870.07	0.8228
1878.98	0.8251
1887.9	0.8298
1896.81	0.8371
1905.72	0.8413
1914.63	0.8417
1923.54	0.8396
1932.45	0.8315
1941.36	0.8307
1950.28	0.838
1959.19	0.8464
1968.1	0.8507
1977.01	0.8539
1985.92	0.8548
1994.83	0.8552
2003.75	0.8546
2012.66	0.8539
2021.57	0.8533
2030.48	0.8527
2039.39	0.8522
2048.3	0.8523
2057.22	0.8523
2066.13	0.8525
2075.04	0.8536
2083.95	0.8548
2092.86	0.856
2101.77	0.8569
2110.69	0.8578
2119.6	0.8589
2128.51	0.8601
2137.42	0.8612
2146.33	0.8623
2155.24	0.8633
2164.16	0.863
2173.07	0.8628
2181.98	0.8626
2190.89	0.8624
2199.8	0.8622
2208.71	0.862
2217.63	0.8616
2226.54	0.8607
2235.45	0.8598
2244.36	0.8589
2253.27	0.8579
2262.18	0.8573
2271.1	0.8575
2280.01	0.8576
2288.92	0.8577
2297.83	0.8583
2306.74	0.8599
2315.65	0.8615
2324.57	0.8614
2333.48	0.8611
2342.39	0.8605
2351.3	0.86
2360.21	0.8595
2369.12	0.8601
2378.04	0.8607
2386.95	0.8609
2395.86	0.8598
2404.77	0.8586
2413.68	0.8573
2422.59	0.8557
2431.51	0.8541
2440.42	0.8534
2449.33	0.8532
2458.24	0.8531
2467.15	0.8533
2476.06	0.8536
2484.98	0.8543
2493.89	0.8539
2502.8	0.854
2511.71	0.8541
2520.62	0.8541
2529.53	0.853
2538.45	0.8518
2547.36	0.8485
2556.27	0.8435
2565.18	0.8381
2574.09	0.8332
2583	0.8285
2591.92	0.8244
2600.83	0.8195
2609.74	0.814
2618.65	0.8076
2627.56	0.7986
2636.47	0.789
2645.39	0.7792
2654.3	0.7664
2663.21	0.7527
2672.12	0.7394
2681.03	0.7305
2689.94	0.7072
2698.86	0.6817
2707.77	0.6497
2716.68	0.613
2725.59	0.6097
2734.5	0.5809
2743.41	0.5389
2752.33	0.5271
2761.24	0.5202
2770.15	0.5173
2779.06	0.5182
2787.97	0.5305
2796.88	0.5551
2805.79	0.5795
2814.71	0.5988
2823.62	0.6023
2832.53	0.6045
2841.44	0.6366
2850.35	0.6591
2859.26	0.6415
2868.18	0.5761
2877.09	0.5111
2886	0.4464
2894.91	0.3822
2903.82	0.3214
2912.73	0.3186
2921.65	0.3535
2930.56	0.4596
2939.47	0.5649
2948.38	0.6696
2957.29	0.7586
2966.2	0.7846
2975.12	0.7879
2984.03	0.7888
2992.94	0.7845
3001.85	0.7658
3010.76	0.7487
3019.67	0.7434
3028.59	0.7418
3037.5	0.7416
3046.41	0.7446
3055.32	0.7637
3064.23	0.7841
3073.14	0.8045
3082.06	0.8248
3090.97	0.845
3099.88	0.8616
3108.79	0.8681
3117.7	0.8726
3126.61	0.8762
3135.53	0.8794
3144.44	0.8817
3153.35	0.8838
3162.26	0.8849
3171.17	0.8858
3180.08	0.8866
3189	0.8875
3197.91	0.8884
3206.82	0.8891
3215.73	0.8893
3224.64	0.8896
3233.55	0.8898
3242.47	0.8896
3251.38	0.8894
3260.29	0.8893
3269.2	0.8891
3278.11	0.8888
3287.02	0.8884
3295.94	0.8878
3304.85	0.8874
3313.76	0.8869
3322.67	0.8863
3331.58	0.8856
3340.49	0.8849
3349.41	0.8842
3358.32	0.8835
3367.23	0.8838
3376.14	0.8841
3385.05	0.8845
3393.96	0.8847
3402.88	0.8848
3411.79	0.8849
3420.7	0.8849
3429.61	0.885
3438.52	0.8845
3447.43	0.8841
3456.35	0.8836
3465.26	0.8831
3474.17	0.8824
3483.08	0.8817
3491.99	0.8811
3500.9	0.8805
3509.82	0.8797
3518.73	0.8791
3527.64	0.8789
3536.55	0.8786
3545.46	0.8784
3554.37	0.8788
3563.29	0.8791
3572.2	0.8795
3581.11	0.8799
3590.02	0.8803
3598.93	0.8808
3607.84	0.8814
3616.76	0.882
3625.67	0.8826
3634.58	0.8831
3643.49	0.8837
3652.4	0.8844
3661.31	0.8851
3670.23	0.8858
3679.14	0.8865
3688.05	0.8872
3696.96	0.8879
3705.87	0.888
3714.78	0.888
3723.69	0.888
3732.61	0.888
3741.52	0.888
3750.43	0.8879
3759.34	0.8877
3768.25	0.8875
3777.16	0.8873
3786.08	0.8871
3794.99	0.8869
3803.9	0.8867
3812.81	0.8865
3821.72	0.8862
3830.63	0.8859
3839.55	0.8856
3848.46	0.8853
3857.37	0.8851
3866.28	0.8848
3875.19	0.8845
3884.1	0.8842
3893.02	0.884
3901.93	0.8837
3910.84	0.8835
3919.75	0.8832
3928.66	0.883
3937.57	0.8827
3946.49	0.8825
3955.4	0.8822
3964.31	0.8821
