Infrared Spectrum: 2-(N,N-DI-n-HEXYLAMINO)-3-METHYL PYRAZINE
Formula: C17 H31 N3
CAS: 116403-07-7
State: LIQUID
Class: COBLENTZ
Instrument: Not specified, most likely a prism, grating, or hybrid spectrometer.
Sampling: TRANSMISSION
Path length: 0.0015 CM
Resolution: 4
Origin: WYANDOTTE CHEMICALS CORP., WYANDOTTE, MICHIGAN, USA
MICROMETERS	TRANSMITTANCE
2	0.981
2.04088	0.981
2.08175	0.963
2.12263	0.967
2.1635	0.922
2.20438	0.884
2.24526	0.884
2.28613	0.9
2.32701	0.903
2.36788	0.902
2.40876	0.919
2.44964	0.914
2.49051	0.927
2.53139	0.95
2.57226	0.934
2.61314	0.951
2.65402	0.941
2.69489	0.931
2.73577	0.912
2.77664	0.891
2.81752	0.864
2.8584	0.836
2.89927	0.819
2.94015	0.81
2.98102	0.802
3.0219	0.8
3.06278	0.809
3.10365	0.793
3.14453	0.793
3.1854	0.759
3.22628	0.711
3.26716	0.427
3.30803	0.39
3.34891	0.06
3.38978	0.053
3.43066	0.061
3.47154	0.07
3.51241	0.225
3.55329	0.479
3.59416	0.635
3.63504	0.663
3.67592	0.695
3.71679	0.728
3.75767	0.761
3.79854	0.781
3.83942	0.797
3.8803	0.812
3.92117	0.821
3.96205	0.826
4.00292	0.841
4.0438	0.833
4.08468	0.829
4.12555	0.814
4.16643	0.821
4.2073	0.807
4.24818	0.804
4.28906	0.845
4.32993	0.872
4.37081	0.864
4.41168	0.857
4.45256	0.865
4.49344	0.865
4.53431	0.871
4.57519	0.878
4.61606	0.879
4.65694	0.878
4.69782	0.872
4.73869	0.883
4.77957	0.89
4.82044	0.9
4.86132	0.9
4.9022	0.895
4.94307	0.902
4.98395	0.905
5.02482	0.908
5.0657	0.907
5.10657	0.902
5.14745	0.907
5.18833	0.905
5.2292	0.895
5.27008	0.891
5.31095	0.876
5.35183	0.881
5.39271	0.912
5.43358	0.905
5.47446	0.903
5.51533	0.893
5.55621	0.881
5.59709	0.869
5.63796	0.85
5.67884	0.845
5.71971	0.824
5.76059	0.762
5.80147	0.762
5.84234	0.749
5.88322	0.706
5.92409	0.697
5.96497	0.706
6.00585	0.723
6.04672	0.728
6.0876	0.737
6.12847	0.738
6.16935	0.735
6.21023	0.699
6.2511	0.63
6.29198	0.451
6.33285	0.321
6.37373	0.402
6.41461	0.524
6.45548	0.41
6.49636	0.128
6.53723	0.137
6.57811	0.391
6.61899	0.438
6.65986	0.336
6.70074	0.257
6.74161	0.166
6.78249	0.051
6.82337	0.072
6.86424	0.092
6.90512	0.072
6.94599	0.08
6.98687	0.065
7.02775	0.06
7.06862	0.087
7.1095	0.281
7.15037	0.359
7.19125	0.254
7.23213	0.084
7.273	0.061
7.31388	0.097
7.35475	0.211
7.39563	0.305
7.43651	0.355
7.47738	0.383
7.51826	0.429
7.55913	0.441
7.60001	0.395
7.64089	0.336
7.68176	0.304
7.72264	0.29
7.76351	0.331
7.80439	0.352
7.84527	0.357
7.88614	0.333
7.92702	0.295
7.96789	0.242
8.00877	0.298
8.04965	0.371
8.09052	0.348
8.1314	0.35
8.17227	0.355
8.21315	0.352
8.25403	0.319
8.2949	0.238
8.33578	0.163
8.37665	0.13
8.41753	0.111
8.45841	0.171
8.49928	0.225
8.54016	0.274
8.58103	0.355
8.62191	0.371
8.66279	0.403
8.70366	0.407
8.74454	0.36
8.78541	0.268
8.82629	0.13
8.86717	0.097
8.90804	0.159
8.94892	0.256
8.98979	0.321
9.03067	0.273
9.07155	0.298
9.11242	0.388
9.1533	0.463
9.19417	0.5
9.23505	0.477
9.27593	0.527
9.3168	0.582
9.35768	0.616
9.39855	0.62
9.43943	0.623
9.48031	0.625
9.52118	0.621
9.56206	0.621
9.60293	0.599
9.64381	0.542
9.68469	0.451
9.72556	0.448
9.76644	0.529
9.80731	0.58
9.84819	0.606
9.88907	0.601
9.92994	0.58
9.97082	0.572
10.0117	0.584
10.0526	0.594
10.0934	0.563
10.1343	0.524
10.1752	0.42
10.2161	0.317
10.2569	0.331
10.2978	0.455
10.3387	0.542
10.3796	0.592
10.4205	0.618
10.4613	0.625
10.5022	0.634
10.5431	0.652
10.584	0.652
10.6248	0.656
10.6657	0.664
10.7066	0.678
10.7475	0.683
10.7883	0.701
10.8292	0.713
10.8701	0.721
10.911	0.738
10.9518	0.75
10.9927	0.754
11.0336	0.75
11.0745	0.733
11.1153	0.719
11.1562	0.702
11.1971	0.663
11.238	0.634
11.2788	0.625
11.3197	0.635
11.3606	0.661
11.4015	0.68
11.4424	0.683
11.4832	0.664
11.5241	0.628
11.565	0.616
11.6059	0.637
11.6467	0.652
11.6876	0.644
11.7285	0.625
11.7694	0.58
11.8102	0.525
11.8511	0.467
11.892	0.417
11.9329	0.365
11.9737	0.353
12.0146	0.371
12.0555	0.42
12.0964	0.5
12.1372	0.599
12.1781	0.661
12.219	0.711
12.2599	0.737
12.3007	0.75
12.3416	0.766
12.3825	0.762
12.4234	0.769
12.4643	0.771
12.5051	0.771
12.546	0.759
12.5869	0.754
12.6278	0.747
12.6686	0.743
12.7095	0.754
12.7504	0.757
12.7913	0.766
12.8321	0.769
12.873	0.768
12.9139	0.766
12.9548	0.766
12.9956	0.754
13.0365	0.754
13.0774	0.737
13.1183	0.721
13.1591	0.711
13.2	0.704
13.2409	0.699
13.2818	0.701
13.3226	0.706
13.3635	0.702
13.4044	0.713
13.4453	0.702
13.4862	0.716
13.527	0.706
13.5679	0.701
13.6088	0.671
13.6497	0.642
13.6905	0.592
13.7314	0.553
13.7723	0.51
13.8132	0.489
13.854	0.493
13.8949	0.537
13.9358	0.604
13.9767	0.659
14.0175	0.687
14.0584	0.713
14.0993	0.728
14.1402	0.733
14.181	0.742
14.2219	0.742
14.2628	0.75
14.3037	0.752
14.3445	0.754
14.3854	0.761
14.4263	0.766
14.4672	0.771
14.5081	0.776
14.5489	0.781
14.5898	0.79
14.6307	0.795
14.6716	0.804
14.7124	0.807
14.7533	0.802
14.7942	0.802
14.8351	0.807
14.8759	0.814
14.9168	0.807
14.9577	0.81
14.9986	0.805
15.0394	0.785
15.0803	0.78
15.1212	0.793
15.1621	0.809
15.2029	0.805
15.2438	0.804
15.2847	0.793
15.3256	0.793
15.3664	0.785
15.4073	0.783
15.4482	0.778
15.4891	0.776
15.53	0.769
15.5708	0.766
15.6117	0.757
15.6526	0.756
15.6935	0.752
15.7343	0.747
15.7752	0.742
15.8161	0.728
15.857	0.726
15.8978	0.714
15.9387	0.711
15.9796	0.702
