Infrared Spectrum: 2-MERCAPTO-1,4-NAPHTHOQUINONE
Formula: C10 H6 O2 S
CAS: 116401-72-0
State: SOLID (MINERAL OIL MULL)
Class: COBLENTZ
Instrument: Not specified, most likely a prism, grating, or hybrid spectrometer.
Sampling: TRANSMISSION
Resolution: 4
Origin: WYANDOTTE CHEMICALS CORP., WYANDOTTE, MICHIGAN, USA
MICROMETERS	TRANSMITTANCE
2.027	0.287
2.06794	0.299
2.10887	0.31
2.14981	0.327
2.19074	0.339
2.23168	0.342
2.27261	0.35
2.31355	0.373
2.35448	0.386
2.39542	0.4
2.43635	0.413
2.47729	0.413
2.51822	0.429
2.55916	0.444
2.60009	0.458
2.64103	0.465
2.68196	0.471
2.7229	0.488
2.76384	0.495
2.80477	0.5
2.84571	0.495
2.88664	0.497
2.92758	0.499
2.96851	0.5
3.00945	0.504
3.05038	0.504
3.09132	0.509
3.13225	0.516
3.17319	0.516
3.21412	0.517
3.25506	0.488
3.29599	0.458
3.33693	0.294
3.37786	0.027
3.4188	0.02
3.45973	0.064
3.50067	0.052
3.54161	0.316
3.58254	0.601
3.62348	0.643
3.66441	0.654
3.70535	0.655
3.74628	0.664
3.78722	0.676
3.82815	0.689
3.86909	0.703
3.91002	0.717
3.95096	0.727
3.99189	0.739
4.03283	0.751
4.07376	0.754
4.1147	0.754
4.15563	0.761
4.19657	0.763
4.23751	0.768
4.27844	0.768
4.31938	0.783
4.36031	0.795
4.40125	0.819
4.44218	0.821
4.48312	0.824
4.52405	0.826
4.56499	0.838
4.60592	0.855
4.64686	0.865
4.68779	0.865
4.72873	0.872
4.76966	0.875
4.8106	0.89
4.85153	0.901
4.89247	0.908
4.93341	0.904
4.97434	0.902
5.01528	0.913
5.05621	0.902
5.09715	0.911
5.13808	0.902
5.17902	0.919
5.21995	0.931
5.26089	0.935
5.30182	0.933
5.34276	0.945
5.38369	0.921
5.42463	0.959
5.46556	0.962
5.5065	0.962
5.54743	0.971
5.58837	0.962
5.62931	0.967
5.67024	0.971
5.71118	0.962
5.75211	0.933
5.79305	0.93
5.83398	0.919
5.87492	0.87
5.91585	0.807
5.95679	0.337
5.99772	0.206
6.03866	0.383
6.07959	0.177
6.12053	0.594
6.16146	0.652
6.2024	0.557
6.24333	0.163
6.28427	0.247
6.3252	0.413
6.36614	0.24
6.40708	0.173
6.44801	0.492
6.48895	0.691
6.52988	0.7
6.57082	0.79
6.61175	0.809
6.65269	0.807
6.69362	0.751
6.73456	0.632
6.77549	0.429
6.81643	0.253
6.85736	0.308
6.8983	0.366
6.93923	0.499
6.98017	0.635
7.0211	0.597
7.06204	0.809
7.10298	0.833
7.14391	0.843
7.18485	0.805
7.22578	0.643
7.26672	0.502
7.30765	0.666
7.34859	0.739
7.38952	0.761
7.43046	0.594
7.47139	0.172
7.51233	0.236
7.55326	0.17
7.5942	0.364
7.63513	0.357
7.67607	0.098
7.717	0.04
7.75794	0.229
7.79888	0.454
7.83981	0.519
7.88075	0.635
7.92168	0.587
7.96262	0.136
8.00355	0.228
8.04449	0.589
8.08542	0.678
8.12636	0.635
8.16729	0.679
8.20823	0.599
8.24916	0.73
8.2901	0.763
8.33103	0.787
8.37197	0.814
8.4129	0.812
8.45384	0.802
8.49478	0.795
8.53571	0.816
8.57665	0.783
8.61758	0.754
8.65852	0.771
8.69945	0.812
8.74039	0.821
8.78132	0.827
8.82226	0.79
8.86319	0.441
8.90413	0.088
8.94506	0.468
8.986	0.664
9.02693	0.724
9.06787	0.746
9.1088	0.686
9.14974	0.703
9.19067	0.662
9.23161	0.718
9.27255	0.626
9.31348	0.442
9.35442	0.64
9.39535	0.744
9.43629	0.788
9.47722	0.822
9.51816	0.843
9.55909	0.85
9.60003	0.851
9.64096	0.853
9.6819	0.855
9.72283	0.848
9.76377	0.773
9.8047	0.841
9.84564	0.858
9.88657	0.873
9.92751	0.882
9.96845	0.89
10.0094	0.908
10.0503	0.913
10.0913	0.918
10.1322	0.918
10.1731	0.914
10.2141	0.899
10.255	0.855
10.2959	0.809
10.3369	0.834
10.3778	0.894
10.4187	0.906
10.4597	0.916
10.5006	0.913
10.5415	0.901
10.5825	0.771
10.6234	0.766
10.6643	0.873
10.7053	0.921
10.7462	0.925
10.7872	0.923
10.8281	0.933
10.869	0.935
10.91	0.933
10.9509	0.935
10.9918	0.945
11.0328	0.943
11.0737	0.933
11.1146	0.933
11.1556	0.875
11.1965	0.802
11.2374	0.902
11.2784	0.902
11.3193	0.892
11.3602	0.856
11.4012	0.72
11.4421	0.4
11.4831	0.172
11.524	0.235
11.5649	0.373
11.6059	0.405
11.6468	0.253
11.6877	0.286
11.7287	0.575
11.7696	0.729
11.8105	0.788
11.8515	0.834
11.8924	0.873
11.9333	0.916
11.9743	0.931
12.0152	0.942
12.0561	0.952
12.0971	0.955
12.138	0.96
12.179	0.96
12.2199	0.965
12.2608	0.962
12.3018	0.954
12.3427	0.943
12.3836	0.936
12.4246	0.909
12.4655	0.798
12.5064	0.8
12.5474	0.873
12.5883	0.899
12.6292	0.919
12.6702	0.921
12.7111	0.899
12.752	0.793
12.793	0.616
12.8339	0.316
12.8749	0.143
12.9158	0.173
12.9567	0.54
12.9977	0.773
13.0386	0.884
13.0795	0.914
13.1205	0.93
13.1614	0.94
13.2023	0.945
13.2433	0.947
13.2842	0.947
13.3251	0.948
13.3661	0.945
13.407	0.945
13.4479	0.945
13.4889	0.938
13.5298	0.931
13.5708	0.928
13.6117	0.923
13.6526	0.923
13.6936	0.918
13.7345	0.913
13.7754	0.884
13.8164	0.821
13.8573	0.792
13.8982	0.814
13.9392	0.844
13.9801	0.865
14.021	0.885
14.062	0.894
14.1029	0.889
14.1438	0.87
14.1848	0.807
14.2257	0.655
14.2667	0.403
14.3076	0.212
14.3485	0.183
14.3895	0.327
14.4304	0.533
14.4713	0.695
14.5123	0.793
14.5532	0.856
14.5941	0.882
14.6351	0.906
14.676	0.909
14.7169	0.906
14.7579	0.906
14.7988	0.909
14.8397	0.896
14.8807	0.887
14.9216	0.875
14.9626	0.85
15.0035	0.802
15.0444	0.72
15.0854	0.592
15.1263	0.555
15.1672	0.618
15.2082	0.688
15.2491	0.72
15.29	0.715
15.331	0.739
15.3719	0.747
15.4128	0.752
15.4538	0.759
15.4947	0.752
15.5356	0.747
15.5766	0.744
15.6175	0.741
15.6585	0.73
15.6994	0.715
15.7403	0.701
15.7813	0.695
15.8222	0.683
15.8631	0.669
15.9041	0.659
15.945	0.65
15.9859	0.635
