Infrared Spectrum: Maleic acid, bis(2,2,2-trifluoroethyl) ester
Formula: C8 H6 F6 O4
CAS: 116401-64-0
State: LIQUID (NEAT)
Class: COBLENTZ III
Instrument: BAIRD (GRATING)
Instrument parameters: NaCl PRISM
Path length: 0.0015 CM
Resolution: 2
Origin: WYANDOTTE CHEMICALS CORP.
1/CM	TRANSMITTANCE
627	0.7055
636	0.6411
645	0.6169
654	0.4573
663	0.5037
672	0.5775
681	0.6627
690	0.7079
699	0.762
708	0.8687
717	0.8676
726	0.8534
735	0.8606
744	0.8785
753	0.8893
762	0.8706
771	0.8165
780	0.8186
789	0.7679
798	0.6534
807	0.3952
816	0.3593
825	0.3444
834	0.4224
843	0.33
852	0.4723
861	0.5614
870	0.5375
879	0.5485
888	0.5356
897	0.5426
906	0.5169
915	0.5021
924	0.4753
933	0.4415
942	0.3703
951	0.2087
960	0.0896
969	0.059
978	0.0374
987	0.0328
996	0.2484
1005	0.5259
1014	0.6473
1023	0.6164
1032	0.4717
1041	0.177
1050	0.0649
1059	0.1002
1068	0.174
1077	0.3251
1086	0.4923
1095	0.5514
1104	0.5253
1113	0.4777
1122	0.3663
1131	0.1659
1140	0.0322
1149	0.0203
1158	0.0196
1167	0.0175
1176	0.0183
1185	0.0176
1194	0.0169
1203	0.0163
1212	0.0157
1221	0.015
1230	0.017
1239	0.0202
1248	0.0223
1257	0.0231
1266	0.0205
1275	0.0165
1284	0.0134
1293	0.0107
1302	0.0095
1311	0.011
1320	0.018
1329	0.063
1338	0.248
1347	0.4307
1356	0.556
1365	0.6038
1374	0.6024
1383	0.5318
1392	0.2774
1401	0.1089
1410	0.1247
1419	0.0402
1428	0.0217
1437	0.114
1446	0.2621
1455	0.2935
1464	0.2707
1473	0.375
1482	0.665
1491	0.7373
1500	0.777
1509	0.8007
1518	0.8245
1527	0.8427
1536	0.859
1545	0.874
1554	0.8868
1563	0.8966
1572	0.9009
1581	0.9013
1590	0.9
1599	0.8976
1608	0.8878
1617	0.8636
1626	0.8247
1635	0.7758
1644	0.6944
1653	0.4424
1662	0.3056
1671	0.4342
1680	0.5615
1689	0.6849
1698	0.7004
1707	0.6645
1716	0.6009
1725	0.5375
1734	0.3306
1743	0.0754
1752	0.0266
1761	0.0197
1770	0.0206
1779	0.0404
1788	0.197
1797	0.4239
1806	0.6182
1815	0.7213
1824	0.7784
1833	0.8354
1842	0.855
1851	0.8617
1860	0.8759
1869	0.9147
1878	0.9227
1887	0.9397
1896	0.959
1905	0.9617
1914	0.9629
1923	0.963
1932	0.9629
1941	0.9626
1950	0.962
1959	0.961
1968	0.9593
1977	0.956
1986	0.9505
1995	0.9386
2004	0.9349
2013	0.9367
2022	0.9413
2031	0.9458
2040	0.9493
2049	0.9494
2058	0.9455
2067	0.9376
2076	0.9334
2085	0.9344
2094	0.9357
2103	0.9279
2112	0.9246
2121	0.9315
2130	0.9482
2139	0.9549
2148	0.9554
2157	0.9558
2166	0.9564
2175	0.9573
2184	0.9581
2193	0.9586
2202	0.9589
2211	0.9595
2220	0.96
2229	0.9609
2238	0.9619
2247	0.9628
2256	0.9631
2265	0.962
2274	0.9592
2283	0.9543
2292	0.9489
2301	0.9454
2310	0.9468
2319	0.9492
2328	0.9498
2337	0.9492
2346	0.9457
2355	0.941
2364	0.936
2373	0.9326
2382	0.9334
2391	0.9354
2400	0.9377
2409	0.9391
2418	0.94
2427	0.9402
2436	0.9397
2445	0.9392
2454	0.9391
2463	0.942
2472	0.9481
2481	0.9514
2490	0.9517
2499	0.9511
2508	0.9501
2517	0.9485
2526	0.9468
2535	0.9448
2544	0.9427
2553	0.9406
2562	0.9385
2571	0.9361
2580	0.9342
2589	0.9342
2598	0.9357
2607	0.9389
2616	0.9428
2625	0.9469
2634	0.9498
2643	0.9508
2652	0.95
2661	0.9487
2670	0.9473
2679	0.9444
2688	0.9414
2697	0.9384
2706	0.9363
2715	0.9355
2724	0.9365
2733	0.9375
2742	0.9385
2751	0.9388
2760	0.9392
2769	0.939
2778	0.938
2787	0.9363
2796	0.9343
2805	0.9318
2814	0.9284
2823	0.9247
2832	0.9206
2841	0.9164
2850	0.912
2859	0.907
2868	0.901
2877	0.8955
2886	0.8904
2895	0.8853
2904	0.8799
2913	0.8741
2922	0.8675
2931	0.8629
2940	0.8621
2949	0.8619
2958	0.8619
2967	0.8618
2976	0.8613
2985	0.8273
2994	0.7664
3003	0.706
3012	0.6459
3021	0.6338
3030	0.6893
3039	0.7527
3048	0.7803
3057	0.787
3066	0.7902
3075	0.7858
3084	0.7695
3093	0.7533
3102	0.75
3111	0.7865
3120	0.8332
3129	0.8867
3138	0.8966
3147	0.9044
3156	0.9105
3165	0.914
3174	0.9166
3183	0.9189
3192	0.9205
3201	0.9219
3210	0.9233
3219	0.9243
3228	0.9253
3237	0.9263
3246	0.927
3255	0.9275
3264	0.9279
3273	0.9275
3282	0.9271
3291	0.9266
3300	0.9259
3309	0.9249
3318	0.924
3327	0.923
3336	0.9219
3345	0.9207
3354	0.9198
3363	0.9198
3372	0.9203
3381	0.9218
3390	0.9232
3399	0.9243
3408	0.9253
3417	0.9254
3426	0.9255
3435	0.9254
3444	0.9248
3453	0.9244
3462	0.9231
3471	0.921
3480	0.919
3489	0.9157
3498	0.9117
3507	0.9064
3516	0.9059
3525	0.9102
3534	0.9166
3543	0.923
3552	0.929
3561	0.9344
3570	0.9387
3579	0.9429
3588	0.9471
3597	0.9516
3606	0.9561
3615	0.9607
3624	0.965
3633	0.9691
3642	0.9733
3651	0.9772
3660	0.9804
3669	0.9838
3678	0.9869
3687	0.9891
3696	0.9911
3705	0.9926
3714	0.9934
3723	0.9942
3732	0.995
3741	0.9958
3750	0.9965
3759	0.997
3768	0.9976
3777	0.9982
3786	0.9988
3795	0.9993
3804	0.9998
3813	1
3822	1.0001
3831	1.0004
3840	1.0005
3849	1.0007
3858	1.0008
3867	1.0011
3876	1.0012
3885	1.0013
3894	1.0014
3903	1.0016
3912	1.0017
3921	1.0018
3930	1.0019
3939	1.002
3948	1.002
3957	1.002
3966	1.002
3975	1.002
3984	1.002
3993	1.002
