Infrared Spectrum: GLYCERINE MONO-Alpha,Alpha-DICHLOROPROPIONATE
Formula: C6 H10 Cl2 O4
CAS: 116402-61-0
State: SOLID (MINERAL OIL MULL)
Class: COBLENTZ
Instrument: Not specified, most likely a prism, grating, or hybrid spectrometer.
Sampling: TRANSMISSION
Resolution: 4
Origin: DOW CHEMICAL COMPANY
MICROMETERS	TRANSMITTANCE
2	0.879
2.04102	0.869
2.08203	0.867
2.12305	0.873
2.16407	0.879
2.20508	0.857
2.2461	0.828
2.28712	0.823
2.32813	0.831
2.36915	0.842
2.41017	0.833
2.45119	0.837
2.4922	0.861
2.53322	0.866
2.57424	0.861
2.61525	0.869
2.65627	0.864
2.69729	0.864
2.7383	0.847
2.77932	0.79
2.82034	0.668
2.86135	0.428
2.90237	0.188
2.94339	0.101
2.9844	0.13
3.02542	0.078
3.06644	0.051
3.10745	0.044
3.14847	0.072
3.18949	0.166
3.2305	0.293
3.27152	0.372
3.31254	0.358
3.35356	0.188
3.39457	0.041
3.43559	0.046
3.47661	0.063
3.51762	0.253
3.55864	0.507
3.59966	0.542
3.64067	0.56
3.68169	0.602
3.72271	0.622
3.76372	0.668
3.80474	0.687
3.84576	0.675
3.88677	0.687
3.92779	0.727
3.96881	0.74
4.00982	0.766
4.05084	0.771
4.09186	0.789
4.13288	0.782
4.17389	0.777
4.21491	0.782
4.25593	0.801
4.29694	0.826
4.33796	0.825
4.37898	0.837
4.41999	0.821
4.46101	0.831
4.50203	0.837
4.54304	0.833
4.58406	0.825
4.62508	0.823
4.66609	0.83
4.70711	0.833
4.74813	0.837
4.78914	0.825
4.83016	0.825
4.87118	0.837
4.9122	0.833
4.95321	0.83
4.99423	0.835
5.03525	0.83
5.07626	0.825
5.11728	0.825
5.1583	0.842
5.19931	0.864
5.24033	0.855
5.28135	0.845
5.32236	0.842
5.36338	0.821
5.4044	0.792
5.44541	0.763
5.48643	0.761
5.52745	0.72
5.56846	0.615
5.60948	0.404
5.6505	0.113
5.69151	0.044
5.73253	0.068
5.77355	0.456
5.81457	0.526
5.85558	0.595
5.8966	0.749
5.93762	0.775
5.97863	0.792
6.01965	0.799
6.06067	0.799
6.10168	0.801
6.1427	0.816
6.18372	0.83
6.22473	0.821
6.26575	0.799
6.30677	0.761
6.34778	0.768
6.3888	0.771
6.42982	0.765
6.47083	0.747
6.51185	0.734
6.55287	0.713
6.59389	0.689
6.6349	0.665
6.67592	0.615
6.71694	0.495
6.75795	0.305
6.79897	0.085
6.83999	0.097
6.881	0.109
6.92202	0.171
6.96304	0.368
7.00405	0.377
7.04507	0.325
7.08609	0.307
7.1271	0.267
7.16812	0.222
7.20914	0.114
7.25015	0.13
7.29117	0.32
7.33219	0.367
7.3732	0.365
7.41422	0.433
7.45524	0.504
7.49626	0.456
7.53727	0.406
7.57829	0.346
7.61931	0.269
7.66032	0.301
7.70134	0.322
7.74236	0.281
7.78337	0.2
7.82439	0.097
7.86541	0.034
7.90642	0.022
7.94744	0.027
7.98846	0.073
8.02947	0.209
8.07049	0.305
8.11151	0.269
8.15252	0.224
8.19354	0.214
8.23456	0.192
8.27558	0.174
8.31659	0.303
8.35761	0.459
8.39863	0.54
8.43964	0.572
8.48066	0.59
8.52168	0.603
8.56269	0.607
8.60371	0.583
8.64473	0.538
8.68574	0.449
8.72676	0.255
8.76778	0.078
8.80879	0.039
8.84981	0.089
8.89083	0.123
8.93184	0.099
8.97286	0.138
9.01388	0.197
9.0549	0.284
9.09591	0.255
9.13693	0.13
9.17795	0.025
9.21896	0.034
9.25998	0.09
9.301	0.106
9.34201	0.039
9.38303	0.054
9.42405	0.121
9.46506	0.06
9.50608	0.013
9.5471	0.012
9.58811	0.024
9.62913	0.09
9.67015	0.3
9.71116	0.394
9.75218	0.492
9.7932	0.554
9.83421	0.605
9.87523	0.632
9.91625	0.641
9.95727	0.617
9.99828	0.581
10.0393	0.514
10.0803	0.367
10.1213	0.18
10.1623	0.113
10.2034	0.233
10.2444	0.456
10.2854	0.588
10.3264	0.639
10.3674	0.686
10.4085	0.711
10.4495	0.72
10.4905	0.722
10.5315	0.715
10.5725	0.699
10.6135	0.653
10.6546	0.605
10.6956	0.464
10.7366	0.277
10.7776	0.186
10.8186	0.427
10.8596	0.622
10.9007	0.655
10.9417	0.632
10.9827	0.554
11.0237	0.399
11.0647	0.221
11.1057	0.209
11.1468	0.408
11.1878	0.583
11.2288	0.662
11.2698	0.698
11.3108	0.715
11.3518	0.722
11.3929	0.722
11.4339	0.701
11.4749	0.67
11.5159	0.631
11.5569	0.56
11.5979	0.459
11.639	0.344
11.68	0.295
11.721	0.439
11.762	0.569
11.803	0.622
11.844	0.672
11.8851	0.703
11.9261	0.713
11.9671	0.715
12.0081	0.711
12.0491	0.698
12.0901	0.689
12.1312	0.686
12.1722	0.679
12.2132	0.663
12.2542	0.653
12.2952	0.646
12.3362	0.629
12.3773	0.612
12.4183	0.588
12.4593	0.548
12.5003	0.499
12.5413	0.399
12.5823	0.243
12.6234	0.118
12.6644	0.217
12.7054	0.348
12.7464	0.382
12.7874	0.387
12.8284	0.363
12.8695	0.344
12.9105	0.327
12.9515	0.307
12.9925	0.295
13.0335	0.286
13.0745	0.276
13.1156	0.264
13.1566	0.265
13.1976	0.264
13.2386	0.26
13.2796	0.262
13.3206	0.264
13.3617	0.262
13.4027	0.259
13.4437	0.25
13.4847	0.233
13.5257	0.21
13.5667	0.171
13.6078	0.133
13.6488	0.113
13.6898	0.166
13.7308	0.214
13.7718	0.241
13.8128	0.257
13.8539	0.264
13.8949	0.271
13.9359	0.281
13.9769	0.286
14.0179	0.288
14.0589	0.283
14.1	0.274
14.141	0.264
14.182	0.248
14.223	0.226
14.264	0.205
14.305	0.188
14.3461	0.169
14.3871	0.166
14.4281	0.147
14.4691	0.113
14.5101	0.078
14.5512	0.042
14.5922	0.018
14.6332	0.003
14.6742	0
14.7152	0.001
14.7562	0.015
14.7973	0.037
14.8383	0.063
14.8793	0.084
14.9203	0.102
14.9613	0.14
15.0023	0.176
15.0434	0.202
15.0844	0.212
15.1254	0.222
15.1664	0.234
15.2074	0.246
15.2484	0.253
15.2895	0.262
15.3305	0.271
15.3715	0.281
15.4125	0.288
15.4535	0.295
15.4945	0.303
15.5356	0.313
15.5766	0.31
15.6176	0.312
15.6586	0.313
15.6996	0.315
15.7406	0.312
15.7817	0.308
