Infrared Spectrum: PHOSPHONIC DIAMIDE, N,N'-BIS (2,4-DIMETHYLPHENYL)
Formula: C16 H21 N2 O P
CAS: 116401-83-3
State: LIQUID
Class: COBLENTZ
Instrument: PERKIN-ELMER
Sampling: TRANSMISSION
Path length: CAPILLARY
Resolution: 4
Origin: STANDARD OIL OF OHIO
MICROMETERS	TRANSMITTANCE
1.987	0.79
2.02075	0.794
2.05449	0.792
2.08824	0.784
2.12199	0.772
2.15574	0.763
2.18948	0.778
2.22323	0.773
2.25698	0.736
2.29073	0.727
2.32447	0.75
2.35822	0.763
2.39197	0.772
2.42572	0.753
2.45946	0.761
2.49321	0.758
2.52696	0.765
2.56071	0.77
2.59445	0.78
2.6282	0.78
2.66195	0.787
2.6957	0.794
2.72944	0.794
2.76319	0.794
2.79694	0.785
2.83069	0.712
2.86443	0.571
2.89818	0.428
2.93193	0.289
2.96568	0.251
2.99942	0.231
3.03317	0.161
3.06692	0.13
3.10067	0.13
3.13441	0.153
3.16816	0.202
3.20191	0.224
3.23566	0.204
3.2694	0.137
3.30315	0.163
3.3369	0.129
3.37065	0.113
3.40439	0.115
3.43814	0.18
3.47189	0.256
3.50564	0.413
3.53938	0.513
3.57313	0.583
3.60688	0.61
3.64063	0.627
3.67437	0.687
3.70812	0.698
3.74187	0.702
3.77562	0.705
3.80936	0.709
3.84311	0.712
3.87686	0.714
3.91061	0.719
3.94435	0.731
3.9781	0.738
4.01185	0.743
4.0456	0.738
4.07934	0.721
4.11309	0.651
4.14684	0.591
4.18059	0.569
4.21433	0.595
4.24808	0.668
4.28183	0.715
4.31558	0.765
4.34932	0.773
4.38307	0.78
4.41682	0.784
4.45057	0.785
4.48431	0.787
4.51806	0.789
4.55181	0.795
4.58556	0.794
4.6193	0.794
4.65305	0.792
4.6868	0.795
4.72055	0.792
4.75429	0.79
4.78804	0.789
4.82179	0.789
4.85554	0.79
4.88928	0.79
4.92303	0.795
4.95678	0.792
4.99053	0.79
5.02427	0.787
5.05802	0.777
5.09177	0.777
5.12552	0.784
5.15926	0.778
5.19301	0.77
5.22676	0.758
5.26051	0.744
5.29425	0.736
5.328	0.738
5.36175	0.751
5.3955	0.76
5.42924	0.76
5.46299	0.751
5.49674	0.755
5.53049	0.765
5.56423	0.772
5.59798	0.77
5.63173	0.76
5.66548	0.746
5.69922	0.738
5.73297	0.741
5.76672	0.755
5.80047	0.755
5.83421	0.746
5.86796	0.739
5.90171	0.724
5.93546	0.717
5.9692	0.704
6.00295	0.68
6.0367	0.632
6.07045	0.511
6.10419	0.37
6.13794	0.238
6.17169	0.243
6.20544	0.335
6.23918	0.401
6.27293	0.306
6.30668	0.268
6.34043	0.397
6.37417	0.517
6.40792	0.549
6.44167	0.539
6.47542	0.501
6.50916	0.414
6.54291	0.246
6.57666	0.039
6.61041	0.006
6.64415	0.01
6.6779	0.068
6.71165	0.151
6.7454	0.146
6.77914	0.2
6.81289	0.215
6.84664	0.224
6.88038	0.219
6.91413	0.212
6.94788	0.251
6.98163	0.282
7.01537	0.297
7.04912	0.295
7.08287	0.27
7.11662	0.207
7.15036	0.175
7.18411	0.149
7.21786	0.139
7.25161	0.146
7.28535	0.173
7.3191	0.243
7.35285	0.301
7.3866	0.353
7.42034	0.406
7.45409	0.496
7.48784	0.562
7.52159	0.581
7.55533	0.578
7.58908	0.561
7.62283	0.53
7.65658	0.498
7.69032	0.352
7.72407	0.198
7.75782	0.132
7.79157	0.122
7.82531	0.134
7.85906	0.137
7.89281	0.115
7.92656	0.088
7.9603	0.125
7.99405	0.183
8.0278	0.258
8.06155	0.294
8.09529	0.265
8.12904	0.163
8.16279	0.137
8.19654	0.12
8.23028	0.103
8.26403	0.095
8.29778	0.093
8.33153	0.093
8.36527	0.103
8.39902	0.124
8.43277	0.149
8.46652	0.18
8.50026	0.232
8.53401	0.282
8.56776	0.326
8.60151	0.329
8.63525	0.336
8.669	0.421
8.70275	0.528
8.7365	0.571
8.77024	0.581
8.80399	0.549
8.83774	0.479
8.87149	0.369
8.90523	0.28
8.93898	0.287
8.97273	0.379
9.00648	0.525
9.04022	0.583
9.07397	0.61
9.10772	0.612
9.14147	0.619
9.17521	0.629
9.20896	0.646
9.24271	0.653
9.27646	0.654
9.3102	0.653
9.34395	0.647
9.3777	0.641
9.41145	0.624
9.44519	0.603
9.47894	0.566
9.51269	0.513
9.54644	0.476
9.58018	0.423
9.61393	0.377
9.64768	0.346
9.68143	0.355
9.71517	0.394
9.74892	0.43
9.78267	0.443
9.81642	0.433
9.85016	0.414
9.88391	0.384
9.91766	0.336
9.95141	0.302
9.98515	0.297
10.0189	0.333
10.0526	0.345
10.0864	0.338
10.1201	0.309
10.1539	0.28
10.1876	0.253
10.2214	0.236
10.2551	0.212
10.2889	0.198
10.3226	0.187
10.3564	0.178
10.3901	0.178
10.4239	0.185
10.4576	0.202
10.4914	0.221
10.5251	0.231
10.5589	0.238
10.5926	0.246
10.6264	0.27
10.6601	0.307
10.6939	0.341
10.7276	0.367
10.7613	0.369
10.7951	0.346
10.8288	0.326
10.8626	0.307
10.8963	0.297
10.9301	0.294
10.9638	0.29
10.9976	0.29
11.0313	0.29
11.0651	0.29
11.0988	0.292
11.1326	0.297
11.1663	0.306
11.2001	0.319
11.2338	0.331
11.2676	0.338
11.3013	0.341
11.3351	0.338
11.3688	0.329
11.4025	0.321
11.4363	0.311
11.47	0.307
11.5038	0.312
11.5375	0.321
11.5713	0.331
11.605	0.34
11.6388	0.346
11.6725	0.352
11.7063	0.36
11.74	0.372
11.7738	0.384
11.8075	0.401
11.8413	0.423
11.875	0.443
11.9088	0.46
11.9425	0.477
11.9763	0.489
12.01	0.494
12.0437	0.493
12.0775	0.482
12.1112	0.464
12.145	0.437
12.1787	0.416
12.2125	0.389
12.2462	0.37
12.28	0.352
12.3137	0.343
12.3475	0.338
12.3812	0.341
12.415	0.355
12.4487	0.374
12.4825	0.399
12.5162	0.438
12.55	0.465
12.5837	0.508
12.6175	0.552
12.6512	0.579
12.685	0.608
12.7187	0.629
12.7524	0.639
12.7862	0.641
12.8199	0.639
12.8537	0.63
12.8874	0.619
12.9212	0.607
12.9549	0.602
12.9887	0.602
13.0224	0.602
13.0562	0.598
13.0899	0.595
13.1237	0.585
13.1574	0.574
13.1912	0.569
13.2249	0.569
13.2587	0.585
13.2924	0.6
13.3262	0.612
13.3599	0.63
13.3936	0.639
13.4274	0.654
13.4611	0.661
13.4949	0.67
13.5286	0.675
13.5624	0.68
13.5961	0.678
13.6299	0.676
13.6636	0.68
13.6974	0.688
13.7311	0.698
13.7649	0.7
13.7986	0.697
13.8324	0.683
13.8661	0.666
13.8999	0.651
13.9336	0.615
13.9674	0.579
14.0011	0.556
14.0349	0.535
14.0686	0.527
14.1023	0.523
14.1361	0.525
14.1698	0.539
14.2036	0.556
14.2373	0.579
14.2711	0.61
14.3048	0.627
14.3386	0.642
14.3723	0.653
14.4061	0.654
14.4398	0.654
14.4736	0.651
14.5073	0.639
14.5411	0.617
14.5748	0.591
14.6086	0.554
14.6423	0.503
14.6761	0.45
14.7098	0.401
14.7435	0.372
14.7773	0.369
14.811	0.391
14.8448	0.447
14.8785	0.525
14.9123	0.561
14.946	0.583
14.9798	0.613
15.0135	0.63
15.0473	0.641
15.081	0.641
15.1148	0.642
15.1485	0.642
15.1823	0.642
15.216	0.642
15.2498	0.642
15.2835	0.642
15.3173	0.642
15.351	0.641
15.3848	0.637
