Infrared Spectrum: 4-(2-PHENOXYPHENYL) MORPHOLINE
Formula: C16 H17 N O2
CAS: 116400-68-1
State: SOLUTION (10% IN CCl4 FOR 5000-1350 CM^-^1, 10% IN CS2 FOR 1350-625 CM^-^1)
Class: COBLENTZ
Instrument: Not specified, most likely a prism, grating, or hybrid spectrometer.
Sampling: TRANSMISSION
Path length: 0.01 CM, 0.01 CM
Resolution: 4
Origin: DOW CHEMICAL COMPANY
MICROMETERS	TRANSMITTANCE
2.028	0.853
2.06714	0.856
2.10627	0.86
2.14541	0.858
2.18454	0.865
2.22368	0.866
2.26282	0.863
2.30195	0.866
2.34109	0.868
2.38022	0.868
2.41936	0.866
2.45849	0.866
2.49763	0.874
2.53677	0.876
2.5759	0.879
2.61504	0.882
2.65417	0.889
2.69331	0.889
2.73245	0.891
2.77158	0.891
2.81072	0.884
2.84985	0.873
2.88899	0.856
2.92813	0.832
2.96726	0.84
3.0064	0.861
3.04553	0.868
3.08467	0.868
3.1238	0.865
3.16294	0.86
3.20208	0.842
3.24121	0.749
3.28035	0.648
3.31948	0.699
3.35862	0.557
3.39776	0.497
3.43689	0.559
3.47603	0.5
3.51516	0.424
3.5543	0.455
3.59344	0.747
3.63257	0.782
3.67171	0.809
3.71084	0.824
3.74998	0.852
3.78911	0.881
3.82825	0.892
3.86739	0.886
3.90652	0.884
3.94566	0.899
3.98479	0.904
4.02393	0.902
4.06307	0.899
4.1022	0.889
4.14134	0.891
4.18047	0.9
4.21961	0.899
4.25874	0.899
4.29788	0.894
4.33702	0.9
4.37615	0.904
4.41529	0.92
4.45442	0.92
4.49356	0.921
4.5327	0.934
4.57183	0.947
4.61097	0.949
4.6501	0.947
4.68924	0.946
4.72838	0.946
4.76751	0.943
4.80665	0.936
4.84578	0.939
4.88492	0.902
4.92405	0.899
4.96319	0.899
5.00233	0.902
5.04146	0.905
5.0806	0.891
5.11973	0.884
5.15887	0.887
5.19801	0.863
5.23714	0.902
5.27628	0.902
5.31541	0.904
5.35455	0.905
5.39369	0.899
5.43282	0.9
5.47196	0.91
5.51109	0.923
5.55023	0.921
5.58936	0.9
5.6285	0.884
5.66764	0.902
5.70677	0.92
5.74591	0.921
5.78504	0.908
5.82418	0.894
5.86332	0.876
5.90245	0.876
5.94159	0.884
5.98072	0.886
6.01986	0.881
6.059	0.876
6.09813	0.858
6.13727	0.821
6.1764	0.712
6.21554	0.427
6.25467	0.221
6.29381	0.222
6.33295	0.32
6.37208	0.445
6.41122	0.481
6.45035	0.452
6.48949	0.476
6.52863	0.525
6.56776	0.495
6.6069	0.432
6.64603	0.253
6.68517	0.055
6.72431	0.091
6.76344	0.343
6.80258	0.52
6.84171	0.453
6.88085	0.147
6.91998	0.435
6.95912	0.734
6.99826	0.801
7.03739	0.809
7.07653	0.806
7.11566	0.809
7.1548	0.813
7.19394	0.76
7.23307	0.588
7.27221	0.489
7.31134	0.715
7.35048	0.749
7.38961	0.77
7.42875	0.642
7.46789	0.518
7.50702	0.611
7.54616	0.751
7.58529	0.759
7.62443	0.676
7.66357	0.521
7.7027	0.473
7.74184	0.491
7.78097	0.531
7.82011	0.562
7.85925	0.591
7.89838	0.507
7.93752	0.302
7.97665	0.065
8.01579	0.04
8.05492	0.013
8.09406	0.066
8.1332	0.17
8.17233	0.104
8.21147	0.027
8.2506	0.091
8.28974	0.206
8.32888	0.416
8.36801	0.491
8.40715	0.622
8.44628	0.661
8.48542	0.622
8.52456	0.534
8.56369	0.492
8.60283	0.414
8.64196	0.591
8.6811	0.686
8.72023	0.759
8.75937	0.764
8.79851	0.721
8.83764	0.601
8.87678	0.396
8.91591	0.086
8.95505	0.065
8.99419	0.242
9.03332	0.36
9.07246	0.443
9.11159	0.674
9.15073	0.778
9.18987	0.801
9.229	0.804
9.26814	0.77
9.30727	0.598
9.34641	0.46
9.38554	0.656
9.42468	0.733
9.46382	0.586
9.50295	0.521
9.54209	0.608
9.58122	0.533
9.62036	0.573
9.6595	0.715
9.69863	0.72
9.73777	0.642
9.7769	0.637
9.81604	0.827
9.85518	0.874
9.89431	0.892
9.93345	0.9
9.97258	0.902
10.0117	0.905
10.0509	0.907
10.09	0.91
10.1291	0.912
10.1683	0.917
10.2074	0.917
10.2465	0.915
10.2857	0.902
10.3248	0.9
10.3639	0.891
10.4031	0.874
10.4422	0.858
10.4813	0.827
10.5205	0.769
10.5596	0.64
10.5988	0.434
10.6379	0.139
10.677	0.143
10.7162	0.271
10.7553	0.281
10.7944	0.413
10.8336	0.523
10.8727	0.569
10.9118	0.712
10.951	0.795
10.9901	0.821
11.0293	0.822
11.0684	0.811
11.1075	0.801
11.1467	0.79
11.1858	0.772
11.2249	0.744
11.2641	0.679
11.3032	0.668
11.3423	0.699
11.3815	0.681
11.4206	0.6
11.4597	0.465
11.4989	0.313
11.538	0.398
11.5772	0.544
11.6163	0.541
11.6554	0.481
11.6946	0.452
11.7337	0.39
11.7728	0.359
11.812	0.572
11.8511	0.661
11.8902	0.721
11.9294	0.762
11.9685	0.77
12.0076	0.777
12.0468	0.78
12.0859	0.778
12.1251	0.769
12.1642	0.767
12.2033	0.764
12.2425	0.762
12.2816	0.764
12.3207	0.756
12.3599	0.749
12.399	0.73
12.4381	0.689
12.4773	0.632
12.5164	0.552
12.5556	0.473
12.5947	0.411
12.6338	0.437
12.673	0.552
12.7121	0.621
12.7512	0.661
12.7904	0.684
12.8295	0.697
12.8686	0.702
12.9078	0.7
12.9469	0.686
12.986	0.663
13.0252	0.621
13.0643	0.551
13.1035	0.468
13.1426	0.352
13.1817	0.23
13.2209	0.131
13.26	0.055
13.2991	0.013
13.3383	0
13.3774	0
13.4165	0.034
13.4557	0.121
13.4948	0.26
13.5339	0.362
13.5731	0.463
13.6122	0.557
13.6514	0.604
13.6905	0.643
13.7296	0.665
13.7688	0.673
13.8079	0.663
13.847	0.656
13.8862	0.666
13.9253	0.687
13.9644	0.702
14.0036	0.71
14.0427	0.713
14.0818	0.715
14.121	0.71
14.1601	0.702
14.1993	0.691
14.2384	0.669
14.2775	0.643
14.3167	0.585
14.3558	0.507
14.3949	0.426
14.4341	0.304
14.4732	0.222
14.5123	0.214
14.5515	0.302
14.5906	0.424
14.6298	0.541
14.6689	0.585
14.708	0.603
14.7472	0.611
14.7863	0.614
14.8254	0.613
14.8646	0.606
14.9037	0.598
14.9428	0.59
14.982	0.588
15.0211	0.577
15.0602	0.562
15.0994	0.551
15.1385	0.541
15.1777	0.53
15.2168	0.521
15.2559	0.512
15.2951	0.504
15.3342	0.499
15.3733	0.497
15.4125	0.491
15.4516	0.487
15.4907	0.478
15.5299	0.463
15.569	0.452
15.6081	0.437
15.6473	0.422
15.6864	0.406
15.7256	0.385
15.7647	0.365
15.8038	0.359
15.843	0.356
15.8821	0.365
