Infrared Spectrum: PHOSPHOROUS ACID, TRIS(2,2-DIMETHYLPENTYL) ESTER
Formula: C21 H45 O3 P
CAS: 116402-22-3
Boiling point: 120-121 C AT 0.2 mmHg
Class: COBLENTZ
Instrument: Not specified, most likely a prism, grating, or hybrid spectrometer.
Sampling: TRANSMISSION
Path length: SMEAR
Resolution: 4
Origin: TENNESSEE EASTMAN COMPANY, RESEARCH LABORATORIES
MICROMETERS	TRANSMITTANCE
2.045	0.946
2.08507	0.946
2.12513	0.948
2.1652	0.948
2.20527	0.949
2.24534	0.944
2.2854	0.923
2.32547	0.916
2.36554	0.916
2.40561	0.918
2.44567	0.923
2.48574	0.928
2.52581	0.931
2.56588	0.931
2.60594	0.928
2.64601	0.931
2.68608	0.934
2.72615	0.936
2.76621	0.938
2.80628	0.938
2.84635	0.938
2.88642	0.938
2.92648	0.938
2.96655	0.936
3.00662	0.934
3.04669	0.934
3.08675	0.934
3.12682	0.929
3.16689	0.916
3.20695	0.916
3.24702	0.916
3.28709	0.901
3.32716	0.827
3.36722	0.182
3.40729	0.209
3.44736	0.352
3.48743	0.409
3.52749	0.752
3.56756	0.851
3.60763	0.882
3.6477	0.882
3.68776	0.861
3.72783	0.899
3.7679	0.908
3.80797	0.913
3.84803	0.918
3.8881	0.928
3.92817	0.931
3.96824	0.938
4.0083	0.943
4.04837	0.946
4.08844	0.948
4.1285	0.948
4.16857	0.948
4.20864	0.948
4.24871	0.946
4.28877	0.944
4.32884	0.943
4.36891	0.941
4.40898	0.941
4.44904	0.944
4.48911	0.948
4.52918	0.949
4.56925	0.951
4.60931	0.951
4.64938	0.951
4.68945	0.951
4.72952	0.953
4.76958	0.953
4.80965	0.954
4.84972	0.951
4.88979	0.949
4.92985	0.949
4.96992	0.949
5.00999	0.949
5.05006	0.951
5.09012	0.951
5.13019	0.953
5.17026	0.953
5.21032	0.953
5.25039	0.954
5.29046	0.953
5.33053	0.953
5.37059	0.953
5.41066	0.946
5.45073	0.936
5.4908	0.931
5.53086	0.933
5.57093	0.934
5.611	0.939
5.65107	0.943
5.69113	0.944
5.7312	0.944
5.77127	0.941
5.81134	0.939
5.8514	0.939
5.89147	0.934
5.93154	0.933
5.97161	0.929
6.01167	0.928
6.05174	0.928
6.09181	0.914
6.13187	0.923
6.17194	0.924
6.21201	0.924
6.25208	0.929
6.29214	0.933
6.33221	0.933
6.37228	0.934
6.41235	0.926
6.45241	0.928
6.49248	0.914
6.53255	0.913
6.57262	0.899
6.61268	0.891
6.65275	0.879
6.69282	0.802
6.73289	0.571
6.77295	0.441
6.81302	0.531
6.85309	0.581
6.89316	0.729
6.93322	0.789
6.97329	0.852
7.01336	0.872
7.05343	0.884
7.09349	0.879
7.13356	0.76
7.17363	0.61
7.21369	0.76
7.25376	0.739
7.29383	0.732
7.3339	0.561
7.37396	0.807
7.41403	0.882
7.4541	0.899
7.49417	0.903
7.53423	0.894
7.5743	0.869
7.61437	0.866
7.65444	0.861
7.6945	0.849
7.73457	0.832
7.77464	0.826
7.81471	0.839
7.85477	0.851
7.89484	0.831
7.93491	0.857
7.97498	0.879
8.01504	0.882
8.05511	0.874
8.09518	0.869
8.13525	0.874
8.17531	0.862
8.21538	0.854
8.25545	0.864
8.29551	0.877
8.33558	0.836
8.37565	0.837
8.41572	0.832
8.45578	0.851
8.49585	0.862
8.53592	0.867
8.57599	0.871
8.61605	0.874
8.65612	0.876
8.69619	0.876
8.73626	0.876
8.77632	0.876
8.81639	0.874
8.85646	0.871
8.89653	0.869
8.93659	0.862
8.97666	0.857
9.01673	0.846
9.0568	0.817
9.09686	0.764
9.13693	0.752
9.177	0.737
9.21706	0.692
9.25713	0.685
9.2972	0.662
9.33727	0.603
9.37733	0.555
9.4174	0.541
9.45747	0.57
9.49754	0.6
9.5376	0.591
9.57767	0.555
9.61774	0.491
9.65781	0.369
9.69787	0.247
9.73794	0.15
9.77801	0.102
9.81808	0.086
9.85814	0.085
9.89821	0.086
9.93828	0.088
9.97835	0.105
10.0184	0.204
10.0585	0.299
10.0985	0.324
10.1386	0.329
10.1787	0.332
10.2187	0.448
10.2588	0.576
10.2989	0.678
10.339	0.729
10.379	0.754
10.4191	0.774
10.4592	0.792
10.4992	0.789
10.5393	0.739
10.5794	0.719
10.6194	0.72
10.6595	0.724
10.6996	0.724
10.7396	0.722
10.7797	0.764
10.8198	0.782
10.8598	0.765
10.8999	0.764
10.94	0.787
10.98	0.821
11.0201	0.851
11.0602	0.854
11.1002	0.854
11.1403	0.854
11.1804	0.842
11.2204	0.812
11.2605	0.789
11.3006	0.772
11.3406	0.78
11.3807	0.806
11.4208	0.826
11.4608	0.841
11.5009	0.839
11.541	0.809
11.581	0.789
11.6211	0.789
11.6612	0.807
11.7012	0.812
11.7413	0.802
11.7814	0.779
11.8214	0.744
11.8615	0.7
11.9016	0.652
11.9416	0.585
11.9817	0.518
12.0218	0.448
12.0619	0.377
12.1019	0.339
12.142	0.317
12.1821	0.304
12.2221	0.301
12.2622	0.299
12.3023	0.299
12.3423	0.301
12.3824	0.302
12.4225	0.307
12.4625	0.321
12.5026	0.341
12.5427	0.362
12.5827	0.384
12.6228	0.408
12.6629	0.434
12.7029	0.453
12.743	0.478
12.7831	0.5
12.8231	0.518
12.8632	0.531
12.9033	0.54
12.9433	0.545
12.9834	0.543
13.0235	0.54
13.0635	0.541
13.1036	0.548
13.1437	0.558
13.1837	0.571
13.2238	0.581
13.2639	0.6
13.3039	0.635
13.344	0.665
13.3841	0.688
13.4241	0.69
13.4642	0.69
13.5043	0.693
13.5443	0.73
13.5844	0.777
13.6245	0.807
13.6645	0.822
13.7046	0.836
13.7447	0.844
13.7847	0.847
13.8248	0.849
13.8649	0.852
13.905	0.856
13.945	0.856
13.9851	0.857
14.0252	0.856
14.0652	0.857
14.1053	0.857
14.1454	0.857
14.1854	0.857
14.2255	0.856
14.2656	0.852
14.3056	0.851
14.3457	0.849
14.3858	0.844
14.4258	0.842
14.4659	0.832
14.506	0.827
14.546	0.824
14.5861	0.821
14.6262	0.816
14.6662	0.811
14.7063	0.806
14.7464	0.802
14.7864	0.795
14.8265	0.79
14.8666	0.782
14.9066	0.777
14.9467	0.754
14.9868	0.754
15.0268	0.765
15.0669	0.77
15.107	0.765
15.147	0.762
15.1871	0.752
15.2272	0.754
15.2672	0.749
15.3073	0.744
15.3474	0.74
15.3874	0.735
15.4275	0.732
15.4676	0.729
15.5076	0.725
15.5477	0.724
15.5878	0.72
15.6278	0.719
15.6679	0.715
15.708	0.714
15.7481	0.712
15.7881	0.707
15.8282	0.704
15.8683	0.704
15.9083	0.7
15.9484	0.697
