Infrared Spectrum: 2-PHENOXY-3-BENZYL PYRAZINE
Formula: C17 H14 N2 O
CAS: 116435-98-4
Boiling point: 138 C AT 0.09 mmHg
Class: COBLENTZ
Instrument: Not specified, most likely a prism, grating, or hybrid spectrometer.
Sampling: TRANSMISSION
Resolution: 4
Origin: WYANDOTTE CHEMICALS CORP., WYANDOTTE, MICHIGAN, USA
MICROMETERS	TRANSMITTANCE
2.027	0.965
2.06792	0.931
2.10883	0.945
2.14975	0.959
2.19067	0.96
2.23159	0.945
2.2725	0.933
2.31342	0.945
2.35434	0.89
2.39525	0.885
2.43617	0.935
2.47709	0.941
2.518	0.935
2.55892	0.955
2.59984	0.964
2.64076	0.962
2.68167	0.94
2.72259	0.935
2.76351	0.943
2.80442	0.918
2.84534	0.895
2.88626	0.873
2.92718	0.861
2.96809	0.849
3.00901	0.829
3.04993	0.82
3.09084	0.817
3.13176	0.791
3.17268	0.766
3.2136	0.627
3.25451	0.208
3.29543	0.365
3.33635	0.672
3.37726	0.626
3.41818	0.653
3.4591	0.796
3.50001	0.808
3.54093	0.851
3.58185	0.897
3.62277	0.889
3.66368	0.853
3.7046	0.895
3.74552	0.904
3.78643	0.909
3.82735	0.902
3.86827	0.901
3.90919	0.909
3.9501	0.909
3.99102	0.907
4.03194	0.895
4.07285	0.883
4.11377	0.863
4.15469	0.87
4.1956	0.87
4.23652	0.86
4.27744	0.851
4.31836	0.863
4.35927	0.872
4.40019	0.895
4.44111	0.919
4.48202	0.935
4.52294	0.933
4.56386	0.919
4.60478	0.901
4.64569	0.906
4.68661	0.916
4.72753	0.919
4.76844	0.912
4.80936	0.911
4.85028	0.894
4.8912	0.902
4.93211	0.897
4.97303	0.863
5.01395	0.846
5.05486	0.834
5.09578	0.822
5.1367	0.773
5.17761	0.716
5.21853	0.75
5.25945	0.8
5.30037	0.784
5.34128	0.788
5.3822	0.786
5.42312	0.815
5.46403	0.854
5.50495	0.832
5.54587	0.762
5.58679	0.745
5.6277	0.752
5.66862	0.79
5.70954	0.812
5.75045	0.79
5.79137	0.764
5.83229	0.784
5.8732	0.776
5.91412	0.771
5.95504	0.764
5.99596	0.745
6.03687	0.735
6.07779	0.713
6.11871	0.646
6.15962	0.546
6.20054	0.139
6.24146	0.095
6.28238	0.213
6.32329	0.361
6.36421	0.479
6.40513	0.407
6.44604	0.18
6.48696	0.085
6.52788	0.278
6.5688	0.455
6.60971	0.36
6.65063	0.035
6.69155	0.052
6.73246	0.163
6.77338	0.226
6.8143	0.097
6.85521	0.087
6.89613	0.104
6.93705	0.105
6.97797	0.109
7.01888	0.083
7.0598	0.029
7.10072	0.025
7.14163	0.027
7.18255	0.032
7.22347	0.04
7.26439	0.032
7.3053	0.051
7.34622	0.172
7.38714	0.249
7.42805	0.194
7.46897	0.112
7.50989	0.088
7.5508	0.071
7.59172	0.061
7.63264	0.071
7.67356	0.059
7.71447	0.039
7.75539	0.034
7.79631	0.032
7.83722	0.044
7.87814	0.097
7.91906	0.141
7.95998	0.16
8.00089	0.126
8.04181	0.16
8.08273	0.175
8.12364	0.146
8.16456	0.042
8.20548	0.03
8.2464	0.029
8.28731	0.03
8.32823	0.027
8.36915	0.029
8.41006	0.035
8.45098	0.049
8.4919	0.04
8.53281	0.03
8.57373	0.032
8.61465	0.039
8.65557	0.054
8.69648	0.134
8.7374	0.262
8.77832	0.349
8.81923	0.37
8.86015	0.315
8.90107	0.237
8.94199	0.122
8.9829	0.192
9.02382	0.322
9.06474	0.477
9.10565	0.581
9.14657	0.592
9.18749	0.569
9.2284	0.453
9.26932	0.325
9.31024	0.197
9.35116	0.242
9.39207	0.467
9.43299	0.619
9.47391	0.67
9.51482	0.697
9.55574	0.692
9.59666	0.672
9.63758	0.624
9.67849	0.404
9.71941	0.274
9.76033	0.218
9.80124	0.331
9.84216	0.476
9.88308	0.457
9.924	0.433
9.96491	0.404
10.0058	0.559
10.0467	0.616
10.0877	0.585
10.1286	0.527
10.1695	0.474
10.2104	0.5
10.2513	0.578
10.2922	0.619
10.3332	0.641
10.3741	0.646
10.415	0.656
10.4559	0.665
10.4968	0.684
10.5378	0.715
10.5787	0.721
10.6196	0.703
10.6605	0.598
10.7014	0.44
10.7423	0.443
10.7833	0.46
10.8242	0.418
10.8651	0.389
10.906	0.368
10.9469	0.281
10.9878	0.206
11.0288	0.225
11.0697	0.296
11.1106	0.334
11.1515	0.346
11.1924	0.392
11.2333	0.469
11.2743	0.518
11.3152	0.578
11.3561	0.604
11.397	0.609
11.4379	0.593
11.4788	0.564
11.5198	0.535
11.5607	0.498
11.6016	0.44
11.6425	0.361
11.6834	0.284
11.7243	0.232
11.7653	0.199
11.8062	0.191
11.8471	0.213
11.888	0.238
11.9289	0.221
11.9698	0.18
12.0108	0.175
12.0517	0.213
12.0926	0.24
12.1335	0.259
12.1744	0.264
12.2154	0.298
12.2563	0.353
12.2972	0.378
12.3381	0.36
12.379	0.319
12.4199	0.283
12.4609	0.269
12.5018	0.281
12.5427	0.319
12.5836	0.363
12.6245	0.404
12.6654	0.43
12.7064	0.431
12.7473	0.419
12.7882	0.401
12.8291	0.336
12.87	0.225
12.9109	0.187
12.9519	0.211
12.9928	0.249
13.0337	0.262
13.0746	0.238
13.1155	0.203
13.1564	0.16
13.1974	0.112
13.2383	0.073
13.2792	0.068
13.3201	0.066
13.361	0.066
13.4019	0.071
13.4429	0.098
13.4838	0.119
13.5247	0.134
13.5656	0.121
13.6065	0.083
13.6474	0.052
13.6884	0.044
13.7293	0.039
13.7702	0.044
13.8111	0.056
13.852	0.107
13.893	0.184
13.9339	0.259
13.9748	0.319
14.0157	0.358
14.0566	0.383
14.0975	0.401
14.1385	0.389
14.1794	0.334
14.2203	0.245
14.2612	0.155
14.3021	0.1
14.343	0.081
14.384	0.073
14.4249	0.078
14.4658	0.083
14.5067	0.083
14.5476	0.09
14.5885	0.1
14.6295	0.139
14.6704	0.233
14.7113	0.336
14.7522	0.436
14.7931	0.525
14.834	0.588
14.875	0.616
14.9159	0.634
14.9568	0.65
14.9977	0.653
15.0386	0.643
15.0795	0.646
15.1205	0.668
15.1614	0.668
15.2023	0.677
15.2432	0.674
15.2841	0.672
15.325	0.67
15.366	0.674
15.4069	0.682
15.4478	0.686
15.4887	0.682
15.5296	0.68
15.5706	0.677
15.6115	0.663
15.6524	0.651
15.6933	0.641
15.7342	0.633
15.7751	0.627
15.8161	0.627
15.857	0.629
15.8979	0.629
15.9388	0.629
15.9797	0.626
