Infrared Spectrum: Benzhydrol, 4,4'-dichloro-alpha-fluoromethyl-
Formula: C14 H11 Cl2 F O
CAS: 116434-70-9
State: SOLUTION (10% CCl4 FOR 3800-1330, 10% CS2 FOR 1330-450 CM^-^1)
Class: COBLENTZ III
Instrument: DOW KBr FOREPRISM-GRATING
Instrument parameters: BLAZED AT 3.5, 12.0, 20.0 MICRON AND CHANGED AT 5.0, 7.5, 14.9 MICRON
Sampling: TRANSMISSION
Path length: 0.011 CM, 0.011 CM
Resolution: 2
Origin: DOW CHEMICAL COMPANY
1/CM	TRANSMITTANCE
457	0.7119
466	0.6911
475	0.6962
484	0.7342
493	0.6957
502	0.4245
511	0.558
520	0.5369
529	0.2926
538	0.5803
547	0.5234
556	0.651
565	0.7638
574	0.778
583	0.784
592	0.8015
601	0.7992
610	0.6791
619	0.7385
628	0.6327
637	0.5233
646	0.7698
655	0.8069
664	0.8232
673	0.8342
682	0.8256
691	0.8265
700	0.7456
709	0.7925
718	0.7351
727	0.5991
736	0.8145
745	0.7095
754	0.3314
763	0.8768
772	0.8815
781	0.92
790	0.8496
799	0.7417
808	0.5001
817	0.0978
826	0.0465
835	0.4362
844	0.73
853	0.7983
862	0.7915
871	0.6972
880	0.4899
889	0.7217
898	0.7858
907	0.7778
916	0.7011
925	0.2477
934	0.6253
943	0.4222
952	0.6745
961	0.7106
970	0.7855
979	0.7919
988	0.7717
997	0.7028
1006	0.5009
1015	0.0988
1024	0.192
1033	0.5349
1042	0.7062
1051	0.6803
1060	0.5818
1069	0.6433
1078	0.5562
1087	0.1334
1096	0.1041
1105	0.5527
1114	0.6468
1123	0.6448
1132	0.4467
1141	0.6197
1150	0.688
1159	0.5202
1168	0.3096
1177	0.5612
1186	0.6389
1195	0.7205
1204	0.6715
1213	0.6871
1222	0.7517
1231	0.7489
1240	0.7671
1249	0.7586
1258	0.6943
1267	0.6434
1276	0.726
1285	0.6915
1294	0.7024
1303	0.6996
1312	0.6001
1321	0.4481
1330	0.5498
1339	0.6597
1348	0.6888
1357	0.6968
1366	0.7149
1375	0.663
1384	0.6925
1393	0.6271
1402	0.3098
1411	0.5699
1420	0.7406
1429	0.7808
1438	0.7883
1447	0.7584
1456	0.571
1465	0.6151
1474	0.5607
1483	0.3502
1492	0.0344
1501	0.4944
1510	0.7715
1519	0.8523
1528	0.8394
1537	0.8467
1546	0.8555
1555	0.8471
1564	0.8188
1573	0.7169
1582	0.7743
1591	0.624
1600	0.6265
1609	0.8001
1618	0.8174
1627	0.8124
1636	0.7911
1645	0.7605
1654	0.7508
1663	0.7772
1672	0.81
1681	0.8262
1690	0.8257
1699	0.8153
1708	0.7982
1717	0.7769
1726	0.7614
1735	0.7701
1744	0.7828
1753	0.7958
1762	0.7911
1771	0.7804
1780	0.7465
1789	0.7347
1798	0.7765
1807	0.8185
1816	0.8355
1825	0.8438
1834	0.8485
1843	0.8495
1852	0.8467
1861	0.8468
1870	0.8471
1879	0.8444
1888	0.8323
1897	0.8128
1906	0.7825
1915	0.8138
1924	0.8441
1933	0.8531
1942	0.8649
1951	0.8655
1960	0.8657
1969	0.8682
1978	0.8701
1987	0.8715
1996	0.8945
2005	0.9093
2014	0.9083
2023	0.907
2032	0.9062
2041	0.9066
2050	0.9075
2059	0.9086
2068	0.9097
2077	0.9109
2086	0.912
2095	0.9123
2104	0.9128
2113	0.9136
2122	0.9143
2131	0.9148
2140	0.9154
2149	0.9157
2158	0.9156
2167	0.9149
2176	0.9138
2185	0.9128
2194	0.9121
2203	0.9112
2212	0.9104
2221	0.9097
2230	0.9089
2239	0.9081
2248	0.9071
2257	0.9061
2266	0.905
2275	0.9037
2284	0.9009
2293	0.9052
2302	0.9059
2311	0.9071
2320	0.9115
2329	0.9111
2338	0.9084
2347	0.9056
2356	0.9038
2365	0.9023
2374	0.9011
2383	0.8998
2392	0.8987
2401	0.8982
2410	0.898
2419	0.8978
2428	0.8978
2437	0.8971
2446	0.8961
2455	0.8946
2464	0.8928
2473	0.8909
2482	0.8899
2491	0.8888
2500	0.8881
2509	0.8875
2518	0.8868
2527	0.8854
2536	0.8838
2545	0.882
2554	0.88
2563	0.8778
2572	0.8765
2581	0.876
2590	0.8756
2599	0.8756
2608	0.8763
2617	0.8775
2626	0.8789
2635	0.8788
2644	0.8775
2653	0.8762
2662	0.875
2671	0.8739
2680	0.8728
2689	0.8718
2698	0.8707
2707	0.8695
2716	0.8684
2725	0.8675
2734	0.8668
2743	0.8662
2752	0.8655
2761	0.8646
2770	0.8637
2779	0.8628
2788	0.862
2797	0.8613
2806	0.8607
2815	0.8599
2824	0.8583
2833	0.8571
2842	0.8604
2851	0.8645
2860	0.8601
2869	0.8537
2878	0.8455
2887	0.8242
2896	0.7826
2905	0.8373
2914	0.8518
2923	0.8523
2932	0.8393
2941	0.8103
2950	0.7389
2959	0.6733
2968	0.7408
2977	0.7268
2986	0.6782
2995	0.7367
3004	0.8085
3013	0.8224
3022	0.8188
3031	0.7884
3040	0.7868
3049	0.7914
3058	0.7901
3067	0.7893
3076	0.7878
3085	0.7767
3094	0.7984
3103	0.8208
3112	0.83
3121	0.8362
3130	0.8385
3139	0.839
3148	0.8407
3157	0.8446
3166	0.8478
3175	0.8507
3184	0.853
3193	0.8552
3202	0.8568
3211	0.8587
3220	0.8597
3229	0.8606
3238	0.8608
3247	0.86
3256	0.8592
3265	0.8584
3274	0.8575
3283	0.8568
3292	0.8562
3301	0.8561
3310	0.856
3319	0.8558
3328	0.8553
3337	0.8544
3346	0.8521
3355	0.8488
3364	0.8454
3373	0.8406
3382	0.8358
3391	0.8295
3400	0.8231
3409	0.813
3418	0.803
3427	0.7951
3436	0.7876
3445	0.7826
3454	0.7808
3463	0.7821
3472	0.7847
3481	0.7888
3490	0.796
3499	0.8031
3508	0.8083
3517	0.8095
3526	0.8028
3535	0.7922
3544	0.775
3553	0.7425
3562	0.6503
3571	0.5244
3580	0.3771
3589	0.3083
3598	0.516
3607	0.7575
3616	0.8351
3625	0.8525
3634	0.861
3643	0.8641
3652	0.864
3661	0.8675
3670	0.8692
3679	0.8699
3688	0.8708
3697	0.8709
3706	0.8668
3715	0.8709
3724	0.8757
3733	0.876
3742	0.8736
3751	0.8712
3760	0.8698
3769	0.8687
3778	0.869
3787	0.8693
3796	0.8695
