Infrared Spectrum: 2,4-DICHLOROBENZOIC ACID, 2,4-DIMETHYL PHENYL ESTER
Formula: C15 H12 Cl2 O2
CAS: 116465-98-6
State: SOLUTION (10% IN CCl4 FOR 5000-1350 CM^-^1, 10% IN CS2 FOR 1350-625 CM^-^1)
Class: COBLENTZ
Instrument: Not specified, most likely a prism, grating, or hybrid spectrometer.
Sampling: TRANSMISSION
Path length: 0.01 CM, 0.01 CM
Resolution: 4
Origin: DOW CHEMICAL COMPANY
MICROMETERS	TRANSMITTANCE
2.038	0.894
2.07727	0.894
2.11655	0.889
2.15582	0.894
2.1951	0.892
2.23437	0.887
2.27365	0.886
2.31292	0.891
2.3522	0.892
2.39147	0.892
2.43075	0.897
2.47002	0.897
2.50929	0.9
2.54857	0.9
2.58784	0.904
2.62712	0.905
2.66639	0.907
2.70567	0.907
2.74494	0.904
2.78422	0.9
2.82349	0.895
2.86277	0.882
2.90204	0.889
2.94131	0.894
2.98059	0.891
3.01986	0.892
3.05914	0.887
3.09841	0.874
3.13769	0.861
3.17696	0.829
3.21624	0.79
3.25551	0.756
3.29478	0.687
3.33406	0.666
3.37333	0.624
3.41261	0.613
3.45188	0.717
3.49116	0.77
3.53043	0.822
3.56971	0.83
3.60898	0.837
3.64826	0.827
3.68753	0.843
3.7268	0.853
3.76608	0.86
3.80535	0.863
3.84463	0.868
3.8839	0.865
3.92318	0.869
3.96245	0.871
4.00173	0.874
4.041	0.873
4.08028	0.879
4.11955	0.881
4.15882	0.881
4.1981	0.876
4.23737	0.874
4.27665	0.873
4.31592	0.876
4.3552	0.884
4.39447	0.899
4.43375	0.905
4.47302	0.905
4.5123	0.908
4.55157	0.917
4.59084	0.904
4.63012	0.908
4.66939	0.908
4.70867	0.905
4.74794	0.913
4.78722	0.92
4.82649	0.91
4.86577	0.913
4.90504	0.92
4.94432	0.913
4.98359	0.904
5.02286	0.905
5.06214	0.907
5.10141	0.907
5.14069	0.912
5.17996	0.897
5.21924	0.882
5.25851	0.902
5.29779	0.884
5.33706	0.902
5.37633	0.904
5.41561	0.894
5.45488	0.882
5.49416	0.865
5.53343	0.845
5.57271	0.811
5.61198	0.691
5.65126	0.403
5.69053	0.136
5.72981	0.141
5.76908	0.256
5.80835	0.487
5.84763	0.746
5.8869	0.813
5.92618	0.84
5.96545	0.84
6.00473	0.843
6.044	0.85
6.08328	0.839
6.12255	0.813
6.16183	0.743
6.2011	0.661
6.24037	0.432
6.27965	0.151
6.31892	0.286
6.3582	0.465
6.39747	0.396
6.43675	0.359
6.47602	0.435
6.5153	0.471
6.55457	0.391
6.59385	0.336
6.63312	0.278
6.67239	0.217
6.71167	0.468
6.75094	0.476
6.79022	0.414
6.82949	0.569
6.86877	0.588
6.90804	0.596
6.94732	0.699
6.98659	0.754
7.02587	0.775
7.06514	0.775
7.10441	0.756
7.14369	0.728
7.18296	0.665
7.22224	0.44
7.26151	0.331
7.30079	0.743
7.34006	0.816
7.37934	0.83
7.41861	0.842
7.45788	0.843
7.49716	0.83
7.53643	0.813
7.57571	0.777
7.61498	0.733
7.65426	0.7
7.69353	0.59
7.73281	0.386
7.77208	0.201
7.81136	0.078
7.85063	0.078
7.8899	0.165
7.92918	0.216
7.96845	0.252
8.00773	0.195
8.047	0.126
8.08628	0.063
8.12555	0.245
8.16483	0.491
8.2041	0.588
8.24338	0.56
8.28265	0.38
8.32192	0.141
8.3612	0.029
8.40047	0.094
8.43975	0.434
8.47902	0.642
8.5183	0.736
8.55757	0.752
8.59685	0.704
8.63612	0.585
8.6754	0.4
8.71467	0.242
8.75394	0.36
8.79322	0.458
8.83249	0.421
8.87177	0.24
8.91104	0.068
8.95032	0.06
8.98959	0.082
9.02887	0.082
9.06814	0.165
9.10742	0.221
9.14669	0.2
9.18596	0.125
9.22524	0.167
9.26451	0.487
9.30379	0.619
9.34306	0.652
9.38234	0.725
9.42161	0.764
9.46089	0.764
9.50016	0.72
9.53943	0.595
9.57871	0.323
9.61798	0.078
9.65726	0.055
9.69653	0.252
9.73581	0.539
9.77508	0.704
9.81436	0.746
9.85363	0.764
9.89291	0.817
9.93218	0.843
9.97145	0.873
10.0107	0.881
10.05	0.886
10.0893	0.891
10.1286	0.892
10.1678	0.892
10.2071	0.894
10.2464	0.894
10.2857	0.891
10.3249	0.886
10.3642	0.879
10.4035	0.874
10.4427	0.871
10.482	0.873
10.5213	0.874
10.5606	0.865
10.5998	0.826
10.6391	0.811
10.6784	0.858
10.7177	0.861
10.7569	0.855
10.7962	0.871
10.8355	0.876
10.8748	0.879
10.914	0.881
10.9533	0.876
10.9926	0.873
11.0319	0.869
11.0711	0.861
11.1104	0.847
11.1497	0.827
11.189	0.806
11.2282	0.759
11.2675	0.687
11.3068	0.601
11.3461	0.468
11.3853	0.338
11.4246	0.208
11.4639	0.133
11.5032	0.18
11.5424	0.382
11.5817	0.515
11.621	0.586
11.6603	0.609
11.6995	0.629
11.7388	0.643
11.7781	0.656
11.8174	0.665
11.8566	0.671
11.8959	0.66
11.9352	0.596
11.9745	0.515
12.0137	0.439
12.053	0.426
12.0923	0.439
12.1316	0.388
12.1708	0.336
12.2101	0.386
12.2494	0.517
12.2887	0.622
12.3279	0.681
12.3672	0.704
12.4065	0.705
12.4458	0.686
12.485	0.655
12.5243	0.59
12.5636	0.495
12.6028	0.439
12.6421	0.491
12.6814	0.611
12.7207	0.7
12.7599	0.741
12.7992	0.752
12.8385	0.754
12.8778	0.734
12.917	0.691
12.9563	0.622
12.9956	0.489
13.0349	0.341
13.0741	0.248
13.1134	0.23
13.1527	0.357
13.192	0.494
13.2312	0.603
13.2705	0.655
13.3098	0.718
13.3491	0.762
13.3883	0.783
13.4276	0.803
13.4669	0.809
13.5062	0.814
13.5454	0.816
13.5847	0.814
13.624	0.813
13.6633	0.809
13.7025	0.804
13.7418	0.798
13.7811	0.782
13.8204	0.767
13.8596	0.759
13.8989	0.764
13.9382	0.769
13.9775	0.769
14.0167	0.762
14.056	0.754
14.0953	0.746
14.1346	0.725
14.1738	0.708
14.2131	0.692
14.2524	0.692
14.2917	0.697
14.3309	0.7
14.3702	0.694
14.4095	0.679
14.4488	0.661
14.488	0.637
14.5273	0.611
14.5666	0.582
14.6058	0.551
14.6451	0.513
14.6844	0.491
14.7237	0.481
14.7629	0.487
14.8022	0.495
14.8415	0.499
14.8808	0.499
14.92	0.499
14.9593	0.513
14.9986	0.541
15.0379	0.552
15.0771	0.552
15.1164	0.546
15.1557	0.538
15.195	0.528
15.2342	0.52
15.2735	0.507
15.3128	0.499
15.3521	0.495
15.3913	0.489
15.4306	0.481
15.4699	0.478
15.5092	0.473
15.5484	0.465
15.5877	0.46
15.627	0.455
15.6663	0.448
15.7055	0.443
15.7448	0.439
15.7841	0.432
15.8234	0.427
15.8626	0.426
15.9019	0.429
