Infrared Spectrum: CYCLOBUTANONE, 3,3'-(DIMETHYLSILYLDIOXY) BIS-2,2,4,4-TETRAMETHYL
Formula: C18 H32 O4 Si
CAS: 116434-99-2
Class: COBLENTZ
Instrument: Not specified, most likely a prism, grating, or hybrid spectrometer.
Sampling: TRANSMISSION
Resolution: 4
Origin: TENNESSEE EASTMAN COMPANY, RESEARCH LABORATORIES
MICROMETERS	TRANSMITTANCE
2.007	0.998
2.04686	1
2.08671	1.001
2.12657	1.001
2.16643	1.001
2.20629	0.998
2.24614	0.996
2.286	0.993
2.32586	0.993
2.36571	0.993
2.40557	0.993
2.44543	0.993
2.48528	0.996
2.52514	0.998
2.565	0.998
2.60486	0.998
2.64471	0.998
2.68457	0.998
2.72443	0.995
2.76428	0.988
2.80414	0.961
2.844	0.965
2.88386	0.968
2.92371	0.968
2.96357	0.968
3.00343	0.968
3.04328	0.968
3.08314	0.968
3.123	0.966
3.16285	0.963
3.20271	0.961
3.24257	0.963
3.28243	0.935
3.32228	0.608
3.36214	0.359
3.402	0.502
3.44185	0.603
3.48171	0.895
3.52157	0.918
3.56143	0.935
3.60128	0.946
3.64114	0.946
3.681	0.95
3.72085	0.953
3.76071	0.963
3.80057	0.965
3.84042	0.968
3.88028	0.966
3.92014	0.97
3.96	0.97
3.99985	0.968
4.03971	0.966
4.07957	0.968
4.11942	0.97
4.15928	0.97
4.19914	0.968
4.239	0.968
4.27885	0.97
4.31871	0.97
4.35857	0.97
4.39842	0.97
4.43828	0.97
4.47814	0.97
4.51799	0.97
4.55785	0.968
4.59771	0.97
4.63757	0.968
4.67742	0.968
4.71728	0.97
4.75714	0.97
4.79699	0.966
4.83685	0.961
4.87671	0.961
4.91657	0.961
4.95642	0.963
4.99628	0.963
5.03614	0.963
5.07599	0.961
5.11585	0.955
5.15571	0.93
5.19556	0.913
5.23542	0.926
5.27528	0.936
5.31514	0.94
5.35499	0.941
5.39485	0.935
5.43471	0.913
5.47456	0.845
5.51442	0.627
5.55428	0.287
5.59414	0.114
5.63399	0.242
5.67385	0.695
5.71371	0.773
5.75356	0.836
5.79342	0.881
5.83328	0.9
5.87313	0.901
5.91299	0.905
5.95285	0.908
5.99271	0.91
6.03256	0.913
6.07242	0.913
6.11228	0.915
6.15213	0.915
6.19199	0.915
6.23185	0.913
6.27171	0.913
6.31156	0.915
6.35142	0.913
6.39128	0.913
6.43113	0.913
6.47099	0.913
6.51085	0.913
6.5507	0.915
6.59056	0.913
6.63042	0.906
6.67028	0.886
6.71013	0.821
6.74999	0.59
6.78985	0.346
6.8297	0.449
6.86956	0.539
6.90942	0.705
6.94928	0.808
6.98913	0.823
7.02899	0.801
7.06885	0.782
7.1087	0.733
7.14856	0.52
7.18842	0.469
7.22828	0.615
7.26813	0.708
7.30799	0.61
7.34785	0.697
7.3877	0.83
7.42756	0.856
7.46742	0.87
7.50727	0.89
7.54713	0.9
7.58699	0.896
7.62685	0.888
7.6667	0.883
7.70656	0.873
7.74642	0.835
7.78627	0.73
7.82613	0.534
7.86599	0.467
7.90585	0.289
7.9457	0.384
7.98556	0.722
8.02542	0.81
8.06527	0.83
8.10513	0.833
8.14499	0.816
8.18484	0.777
8.2247	0.722
8.26456	0.652
8.30442	0.507
8.34427	0.48
8.38413	0.612
8.42399	0.697
8.46384	0.708
8.5037	0.693
8.54356	0.632
8.58342	0.545
8.62327	0.439
8.66313	0.331
8.70299	0.224
8.74284	0.154
8.7827	0.136
8.82256	0.136
8.86241	0.111
8.90227	0.068
8.94213	0.051
8.98199	0.051
9.02184	0.149
9.0617	0.354
9.10156	0.524
9.14141	0.613
9.18127	0.678
9.22113	0.73
9.26099	0.752
9.30084	0.762
9.3407	0.768
9.38056	0.773
9.42041	0.773
9.46027	0.772
9.50013	0.772
9.53998	0.728
9.57984	0.663
9.6197	0.537
9.65956	0.359
9.69941	0.249
9.73927	0.227
9.77913	0.239
9.81898	0.349
9.85884	0.569
9.8987	0.663
9.93856	0.733
9.97841	0.77
10.0183	0.793
10.0581	0.801
10.098	0.801
10.1378	0.803
10.1777	0.803
10.2176	0.793
10.2574	0.757
10.2973	0.76
10.3371	0.773
10.377	0.78
10.4168	0.778
10.4567	0.78
10.4966	0.793
10.5364	0.8
10.5763	0.805
10.6161	0.801
10.656	0.79
10.6958	0.76
10.7357	0.708
10.7756	0.628
10.8154	0.5
10.8553	0.339
10.8951	0.231
10.935	0.169
10.9748	0.154
11.0147	0.176
11.0546	0.232
11.0944	0.286
11.1343	0.306
11.1741	0.307
11.214	0.292
11.2538	0.272
11.2937	0.271
11.3336	0.304
11.3734	0.387
11.4133	0.485
11.4531	0.549
11.493	0.589
11.5328	0.597
11.5727	0.597
11.6126	0.575
11.6524	0.537
11.6923	0.497
11.7321	0.462
11.772	0.434
11.8118	0.425
11.8517	0.429
11.8916	0.475
11.9314	0.547
11.9713	0.613
12.0111	0.687
12.051	0.725
12.0908	0.75
12.1307	0.76
12.1706	0.763
12.2104	0.762
12.2503	0.752
12.2901	0.688
12.33	0.607
12.3698	0.48
12.4097	0.364
12.4496	0.311
12.4894	0.279
12.5293	0.279
12.5691	0.317
12.609	0.412
12.6488	0.499
12.6887	0.574
12.7285	0.647
12.7684	0.715
12.8083	0.763
12.8481	0.801
12.888	0.825
12.9278	0.841
12.9677	0.856
13.0075	0.86
13.0474	0.866
13.0873	0.873
13.1271	0.878
13.167	0.88
13.2068	0.881
13.2467	0.881
13.2865	0.883
13.3264	0.883
13.3663	0.883
13.4061	0.883
13.446	0.883
13.4858	0.883
13.5257	0.875
13.5655	0.871
13.6054	0.863
13.6453	0.861
13.6851	0.861
13.725	0.861
13.7648	0.861
13.8047	0.86
13.8445	0.855
13.8844	0.851
13.9243	0.85
13.9641	0.85
14.004	0.855
14.0438	0.856
14.0837	0.858
14.1235	0.861
14.1634	0.865
14.2033	0.868
14.2431	0.87
14.283	0.87
14.3228	0.87
14.3627	0.871
14.4025	0.871
14.4424	0.871
14.4823	0.871
14.5221	0.871
14.562	0.871
14.6018	0.871
14.6417	0.871
14.6815	0.871
14.7214	0.871
14.7613	0.871
14.8011	0.871
14.841	0.87
14.8808	0.863
14.9207	0.856
14.9605	0.855
15.0004	0.85
15.0403	0.84
15.0801	0.831
15.12	0.823
15.1598	0.806
15.1997	0.797
15.2395	0.788
15.2794	0.787
15.3193	0.785
15.3591	0.787
15.399	0.785
15.4388	0.787
15.4787	0.788
15.5185	0.788
15.5584	0.788
15.5983	0.788
15.6381	0.79
15.678	0.79
15.7178	0.788
15.7577	0.788
15.7975	0.788
15.8374	0.787
15.8773	0.787
15.9171	0.787
15.957	0.785
