Infrared Spectrum: 1',1',2',2-TETRACHLORO ETHYL BENZENE
Formula: C8 H6 Cl4
CAS: 116401-13-9
State: SOLUTION (10% CCl4 FOR 5000-1330, 10% CS2 FOR 1330-625 CM^-^1)
Class: COBLENTZ
Instrument: Not specified, most likely a prism, grating, or hybrid spectrometer.
Sampling: TRANSMISSION
Path length: 0.0112 CM, 0.0111 CM
Resolution: 4
Origin: DOW CHEMICAL COMPANY
MICROMETERS	TRANSMITTANCE
2.007	0.841
2.04795	0.841
2.08891	0.841
2.12986	0.842
2.17082	0.854
2.21177	0.858
2.25272	0.858
2.29368	0.858
2.33463	0.851
2.37558	0.859
2.41654	0.856
2.45749	0.866
2.49845	0.861
2.5394	0.866
2.58035	0.863
2.62131	0.866
2.66226	0.861
2.70321	0.864
2.74417	0.859
2.78512	0.851
2.82608	0.859
2.86703	0.851
2.90798	0.859
2.94894	0.856
2.98989	0.854
3.03084	0.854
3.0718	0.849
3.11275	0.839
3.15371	0.842
3.19466	0.817
3.23561	0.757
3.27657	0.786
3.31752	0.803
3.35847	0.854
3.39943	0.856
3.44038	0.863
3.48134	0.87
3.52229	0.873
3.56324	0.873
3.6042	0.876
3.64515	0.882
3.6861	0.885
3.72706	0.885
3.76801	0.888
3.80897	0.892
3.84992	0.89
3.89087	0.888
3.93183	0.888
3.97278	0.892
4.01373	0.897
4.05469	0.897
4.09564	0.897
4.1366	0.897
4.17755	0.892
4.2185	0.871
4.25946	0.878
4.30041	0.883
4.34136	0.888
4.38232	0.9
4.42327	0.905
4.46423	0.917
4.50518	0.923
4.54613	0.923
4.58709	0.921
4.62804	0.921
4.66899	0.921
4.70995	0.921
4.7509	0.921
4.79186	0.921
4.83281	0.921
4.87376	0.921
4.91472	0.917
4.95567	0.914
4.99662	0.9
5.03758	0.885
5.07853	0.878
5.11949	0.899
5.16044	0.921
5.20139	0.905
5.24235	0.883
5.2833	0.882
5.32425	0.904
5.36521	0.902
5.40616	0.902
5.44712	0.899
5.48807	0.885
5.52902	0.873
5.56998	0.899
5.61093	0.899
5.65188	0.892
5.69284	0.887
5.73379	0.892
5.77475	0.899
5.8157	0.899
5.85665	0.892
5.89761	0.883
5.93856	0.878
5.97951	0.88
6.02047	0.882
6.06142	0.876
6.10238	0.864
6.14333	0.844
6.18428	0.789
6.22524	0.702
6.26619	0.641
6.30714	0.62
6.3481	0.581
6.38905	0.54
6.43001	0.49
6.47096	0.526
6.51191	0.598
6.55287	0.629
6.59382	0.67
6.63477	0.688
6.67573	0.629
6.71668	0.803
6.75764	0.837
6.79859	0.827
6.83954	0.671
6.8805	0.617
6.92145	0.846
6.9624	0.87
7.00336	0.863
7.04431	0.87
7.08527	0.875
7.12622	0.873
7.16717	0.864
7.20813	0.883
7.24908	0.899
7.29003	0.902
7.33099	0.902
7.37194	0.894
7.4129	0.87
7.45385	0.856
7.4948	0.852
7.53576	0.841
7.57671	0.861
7.61766	0.885
7.65862	0.887
7.69957	0.882
7.74053	0.871
7.78148	0.846
7.82243	0.813
7.86339	0.858
7.90434	0.854
7.94529	0.852
7.98625	0.866
8.0272	0.873
8.06816	0.871
8.10911	0.864
8.15006	0.846
8.19102	0.791
8.23197	0.688
8.27292	0.663
8.31388	0.758
8.35483	0.656
8.39579	0.564
8.43674	0.606
8.47769	0.767
8.51865	0.823
8.5596	0.825
8.60055	0.825
8.64151	0.858
8.68246	0.871
8.72342	0.882
8.76437	0.887
8.80532	0.887
8.84628	0.887
8.88723	0.888
8.92818	0.89
8.96914	0.88
9.01009	0.87
9.05105	0.878
9.092	0.883
9.13295	0.887
9.17391	0.878
9.21486	0.866
9.25581	0.866
9.29677	0.876
9.33772	0.887
9.37868	0.888
9.41963	0.89
9.46058	0.888
9.50154	0.882
9.54249	0.873
9.58344	0.822
9.6244	0.711
9.66535	0.796
9.70631	0.847
9.74726	0.811
9.78821	0.731
9.82917	0.683
9.87012	0.76
9.91107	0.8
9.95203	0.774
9.99298	0.839
10.0339	0.868
10.0749	0.873
10.1158	0.878
10.1568	0.89
10.1978	0.904
10.2387	0.914
10.2797	0.916
10.3206	0.919
10.3616	0.919
10.4025	0.923
10.4435	0.919
10.4844	0.924
10.5254	0.919
10.5663	0.919
10.6073	0.914
10.6482	0.907
10.6892	0.89
10.7301	0.885
10.7711	0.878
10.8121	0.859
10.853	0.825
10.894	0.825
10.9349	0.847
10.9759	0.856
11.0168	0.858
11.0578	0.846
11.0987	0.822
11.1397	0.765
11.1806	0.652
11.2216	0.581
11.2625	0.656
11.3035	0.714
11.3445	0.714
11.3854	0.687
11.4264	0.659
11.4673	0.605
11.5083	0.536
11.5492	0.552
11.5902	0.594
11.6311	0.606
11.6721	0.615
11.713	0.625
11.754	0.635
11.7949	0.646
11.8359	0.639
11.8769	0.61
11.9178	0.57
11.9588	0.565
11.9997	0.582
12.0407	0.504
12.0816	0.321
12.1226	0.271
12.1635	0.422
12.2045	0.541
12.2454	0.613
12.2864	0.634
12.3273	0.649
12.3683	0.659
12.4093	0.666
12.4502	0.658
12.4912	0.646
12.5321	0.634
12.5731	0.588
12.614	0.476
12.655	0.329
12.6959	0.157
12.7369	0.068
12.7778	0.068
12.8188	0.172
12.8597	0.278
12.9007	0.299
12.9417	0.21
12.9826	0.131
13.0236	0.107
13.0645	0.133
13.1055	0.147
13.1464	0.186
13.1874	0.285
13.2283	0.423
13.2693	0.505
13.3102	0.56
13.3512	0.588
13.3921	0.603
13.4331	0.62
13.4741	0.629
13.515	0.632
13.556	0.617
13.5969	0.589
13.6379	0.543
13.6788	0.444
13.7198	0.326
13.7607	0.234
13.8017	0.191
13.8426	0.138
13.8836	0.056
13.9245	0
13.9655	0
14.0065	0.071
14.0474	0.196
14.0884	0.309
14.1293	0.391
14.1703	0.441
14.2112	0.454
14.2522	0.432
14.2931	0.357
14.3341	0.252
14.375	0.196
14.416	0.176
14.4569	0.177
14.4979	0.229
14.5388	0.312
14.5798	0.393
14.6208	0.444
14.6617	0.471
14.7027	0.495
14.7436	0.507
14.7846	0.517
14.8255	0.514
14.8665	0.488
14.9074	0.468
14.9484	0.471
14.9893	0.5
15.0303	0.517
15.0712	0.524
15.1122	0.524
15.1532	0.519
15.1941	0.516
15.2351	0.509
15.276	0.502
15.317	0.495
15.3579	0.49
15.3989	0.483
15.4398	0.478
15.4808	0.47
15.5217	0.464
15.5627	0.454
15.6036	0.446
15.6446	0.437
15.6856	0.427
15.7265	0.413
15.7675	0.391
15.8084	0.369
15.8494	0.347
15.8903	0.379
