Infrared Spectrum: 3-(N,N-DI-n-HEXYLAMINO)-2-METHYL-5-(n-HEPTYL)-PYRAZINE
Formula: C24 H45 N3
CAS: 116403-06-6
State: LIQUID
Class: COBLENTZ
Instrument: Not specified, most likely a prism, grating, or hybrid spectrometer.
Sampling: TRANSMISSION
Path length: 0.0015 CM
Resolution: 4
Origin: WYANDOTTE CHEMICALS CORP., WYANDOTTE, MICHIGAN, USA
MICROMETERS	TRANSMITTANCE
2.027	0.99
2.06685	0.993
2.10669	0.988
2.14654	0.983
2.18638	0.938
2.22623	0.922
2.26607	0.92
2.30592	0.938
2.34577	0.938
2.38561	0.948
2.42546	0.945
2.4653	0.961
2.50515	0.96
2.545	0.97
2.58484	0.968
2.62469	0.981
2.66453	0.981
2.70438	0.98
2.74422	0.978
2.78407	0.958
2.82392	0.958
2.86376	0.947
2.90361	0.937
2.94345	0.93
2.9833	0.927
3.02315	0.923
3.06299	0.915
3.10284	0.907
3.14268	0.889
3.18253	0.879
3.22237	0.859
3.26222	0.73
3.30207	0.576
3.34191	0.096
3.38176	0.059
3.4216	0.074
3.46145	0.072
3.5013	0.225
3.54114	0.509
3.58099	0.726
3.62083	0.796
3.66068	0.786
3.70052	0.809
3.74037	0.827
3.78022	0.849
3.82006	0.877
3.85991	0.884
3.89975	0.9
3.9396	0.908
3.97945	0.913
4.01929	0.92
4.05914	0.92
4.09898	0.918
4.13883	0.922
4.17867	0.918
4.21852	0.912
4.25837	0.91
4.29821	0.922
4.33806	0.927
4.3779	0.94
4.41775	0.942
4.45759	0.943
4.49744	0.935
4.53729	0.947
4.57713	0.94
4.61698	0.942
4.65682	0.945
4.69667	0.943
4.73652	0.948
4.77636	0.945
4.81621	0.958
4.85605	0.953
4.8959	0.948
4.93574	0.945
4.97559	0.947
5.01544	0.95
5.05528	0.951
5.09513	0.961
5.13497	0.96
5.17482	0.956
5.21467	0.958
5.25451	0.96
5.29436	0.956
5.3342	0.958
5.37405	0.955
5.41389	0.96
5.45374	0.955
5.49359	0.958
5.53343	0.951
5.57328	0.947
5.61312	0.943
5.65297	0.937
5.69282	0.928
5.73266	0.917
5.77251	0.902
5.81235	0.887
5.8522	0.88
5.89204	0.865
5.93189	0.86
5.97174	0.862
6.01158	0.849
6.05143	0.837
6.09127	0.837
6.13112	0.834
6.17097	0.829
6.21081	0.824
6.25066	0.821
6.2905	0.763
6.33035	0.576
6.37019	0.574
6.41004	0.66
6.44989	0.571
6.48973	0.208
6.52958	0.236
6.56942	0.506
6.60927	0.599
6.64911	0.612
6.68896	0.546
6.72881	0.455
6.76865	0.226
6.8085	0.104
6.84834	0.104
6.88819	0.099
6.92804	0.107
6.96788	0.173
7.00773	0.216
7.04757	0.165
7.08742	0.182
7.12726	0.306
7.16711	0.451
7.20696	0.42
7.2468	0.168
7.28665	0.152
7.32649	0.149
7.36634	0.16
7.40619	0.228
7.44603	0.327
7.48588	0.425
7.52572	0.413
7.56557	0.392
7.60541	0.377
7.64526	0.369
7.68511	0.37
7.72495	0.407
7.7648	0.447
7.80464	0.466
7.84449	0.491
7.88434	0.514
7.92418	0.465
7.96403	0.456
8.00387	0.552
8.04372	0.624
8.08356	0.594
8.12341	0.602
8.16326	0.645
8.2031	0.647
8.24295	0.617
8.28279	0.61
8.32264	0.607
8.36248	0.579
8.40233	0.519
8.44218	0.437
8.48202	0.357
8.52187	0.309
8.56171	0.289
8.60156	0.273
8.64141	0.268
8.68125	0.324
8.7211	0.412
8.76094	0.47
8.80079	0.319
8.84063	0.178
8.88048	0.241
8.92033	0.319
8.96017	0.412
9.00002	0.448
9.03986	0.389
9.07971	0.407
9.11956	0.486
9.1594	0.571
9.19925	0.627
9.23909	0.662
9.27894	0.678
9.31878	0.708
9.35863	0.721
9.39848	0.726
9.43832	0.715
9.47817	0.713
9.51801	0.713
9.55786	0.718
9.59771	0.713
9.63755	0.698
9.6774	0.667
9.71724	0.657
9.75709	0.663
9.79693	0.662
9.83678	0.653
9.87663	0.649
9.91647	0.657
9.95632	0.667
9.99616	0.663
10.036	0.67
10.0759	0.688
10.1157	0.711
10.1555	0.721
10.1954	0.741
10.2352	0.766
10.2751	0.788
10.3149	0.794
10.3548	0.806
10.3946	0.809
10.4345	0.817
10.4743	0.827
10.5142	0.847
10.554	0.846
10.5939	0.862
10.6337	0.86
10.6735	0.855
10.7134	0.852
10.7532	0.847
10.7931	0.847
10.8329	0.841
10.8728	0.834
10.9126	0.821
10.9525	0.809
10.9923	0.802
11.0322	0.799
11.072	0.799
11.1118	0.794
11.1517	0.788
11.1915	0.763
11.2314	0.741
11.2712	0.705
11.3111	0.685
11.3509	0.673
11.3908	0.683
11.4306	0.695
11.4705	0.725
11.5103	0.75
11.5502	0.776
11.59	0.788
11.6298	0.816
11.6697	0.831
11.7095	0.847
11.7494	0.864
11.7892	0.872
11.8291	0.869
11.8689	0.875
11.9088	0.88
11.9486	0.879
11.9885	0.879
12.0283	0.887
12.0681	0.892
12.108	0.894
12.1478	0.887
12.1877	0.884
12.2275	0.884
12.2674	0.879
12.3072	0.869
12.3471	0.869
12.3869	0.867
12.4268	0.87
12.4666	0.864
12.5065	0.864
12.5463	0.867
12.5861	0.86
12.626	0.849
12.6658	0.847
12.7057	0.842
12.7455	0.844
12.7854	0.846
12.8252	0.844
12.8651	0.842
12.9049	0.836
12.9448	0.831
12.9846	0.831
13.0244	0.822
13.0643	0.814
13.1041	0.807
13.144	0.796
13.1838	0.789
13.2237	0.798
13.2635	0.799
13.3034	0.807
13.3432	0.816
13.3831	0.826
13.4229	0.826
13.4627	0.826
13.5026	0.819
13.5424	0.816
13.5823	0.802
13.6221	0.779
13.662	0.748
13.7018	0.713
13.7417	0.69
13.7815	0.649
13.8214	0.617
13.8612	0.605
13.9011	0.629
13.9409	0.667
13.9807	0.736
14.0206	0.793
14.0604	0.816
14.1003	0.846
14.1401	0.869
14.18	0.88
14.2198	0.89
14.2597	0.897
14.2995	0.887
14.3394	0.897
14.3792	0.889
14.419	0.884
14.4589	0.884
14.4987	0.889
14.5386	0.89
14.5784	0.897
14.6183	0.899
14.6581	0.908
14.698	0.908
14.7378	0.917
14.7777	0.918
14.8175	0.92
14.8574	0.92
14.8972	0.918
14.937	0.915
14.9769	0.91
15.0167	0.899
15.0566	0.872
15.0964	0.826
15.1363	0.817
15.1761	0.831
15.216	0.864
15.2558	0.875
15.2957	0.879
15.3355	0.879
15.3753	0.875
15.4152	0.867
15.455	0.867
15.4949	0.859
15.5347	0.86
15.5746	0.849
15.6144	0.852
15.6543	0.847
15.6941	0.839
15.734	0.829
15.7738	0.824
15.8137	0.814
15.8535	0.806
15.8933	0.802
15.9332	0.801
15.973	0.798
