Infrared Spectrum: 2-FUROIC ACID, 3,4-DICHLOROPHENYL ESTER
Formula: C11 H6 Cl2 O3
CAS: 116401-45-7
State: SOLUTION (10% IN CCl4 FOR 5000-1350 CM^-^1, 10% IN CS2 FOR 1350-625 CM^-^1)
Class: COBLENTZ
Instrument: Not specified, most likely a prism, grating, or hybrid spectrometer.
Sampling: TRANSMISSION
Path length: 0.01 CM, 0.01 CM
Resolution: 4
Origin: DOW CHEMICAL COMPANY
MICROMETERS	TRANSMITTANCE
2.023	0.856
2.0621	0.862
2.10119	0.864
2.14029	0.865
2.17938	0.869
2.21848	0.869
2.25757	0.87
2.29667	0.872
2.33576	0.875
2.37486	0.877
2.41395	0.877
2.45305	0.877
2.49214	0.878
2.53124	0.883
2.57033	0.885
2.60943	0.888
2.64853	0.885
2.68762	0.883
2.72672	0.886
2.76581	0.87
2.80491	0.861
2.844	0.846
2.8831	0.83
2.92219	0.844
2.96129	0.848
3.00038	0.848
3.03948	0.854
3.07857	0.848
3.11767	0.843
3.15676	0.812
3.19586	0.815
3.23496	0.84
3.27405	0.865
3.31315	0.883
3.35224	0.883
3.39134	0.88
3.43043	0.893
3.46953	0.88
3.50862	0.882
3.54772	0.898
3.58681	0.896
3.62591	0.898
3.665	0.906
3.7041	0.903
3.74319	0.903
3.78229	0.907
3.82139	0.914
3.86048	0.909
3.89958	0.907
3.93867	0.912
3.97777	0.912
4.01686	0.907
4.05596	0.909
4.09505	0.912
4.13415	0.901
4.17324	0.903
4.21234	0.906
4.25143	0.904
4.29053	0.903
4.32963	0.903
4.36872	0.907
4.40782	0.912
4.44691	0.915
4.48601	0.924
4.5251	0.925
4.5642	0.92
4.60329	0.912
4.64239	0.911
4.68148	0.912
4.72058	0.911
4.75967	0.891
4.79877	0.896
4.83786	0.919
4.87696	0.922
4.91606	0.914
4.95515	0.912
4.99425	0.914
5.03334	0.911
5.07244	0.911
5.11153	0.912
5.15063	0.914
5.18972	0.911
5.22882	0.901
5.26791	0.883
5.30701	0.867
5.3461	0.883
5.3852	0.896
5.42429	0.894
5.46339	0.88
5.50249	0.87
5.54158	0.836
5.58068	0.693
5.61977	0.46
5.65887	0.098
5.69796	0.056
5.73706	0.082
5.77615	0.376
5.81525	0.623
5.85434	0.767
5.89344	0.812
5.93253	0.823
5.97163	0.841
6.01072	0.852
6.04982	0.841
6.08892	0.819
6.12801	0.799
6.16711	0.756
6.2062	0.652
6.2453	0.453
6.28439	0.381
6.32349	0.231
6.36258	0.252
6.40168	0.397
6.44077	0.449
6.47987	0.521
6.51896	0.578
6.55806	0.589
6.59715	0.61
6.63625	0.673
6.67535	0.665
6.71444	0.495
6.75354	0.281
6.79263	0.04
6.83173	0.171
6.87082	0.476
6.90992	0.702
6.94901	0.785
6.98811	0.804
7.0272	0.796
7.0663	0.743
7.10539	0.646
7.14449	0.347
7.18358	0.289
7.22268	0.567
7.26178	0.702
7.30087	0.765
7.33997	0.791
7.37906	0.801
7.41816	0.789
7.45725	0.772
7.49635	0.77
7.53544	0.751
7.57454	0.691
7.61363	0.578
7.65273	0.336
7.69182	0.092
7.73092	0.027
7.77002	0.15
7.80911	0.369
7.84821	0.505
7.8873	0.584
7.9264	0.466
7.96549	0.18
8.00459	0.205
8.04368	0.512
8.08278	0.337
8.12187	0.331
8.16097	0.568
8.20006	0.36
8.23916	0.087
8.27825	0.054
8.31735	0.29
8.35645	0.546
8.39554	0.599
8.43464	0.6
8.47373	0.405
8.51283	0.177
8.55192	0.252
8.59102	0.232
8.63011	0.5
8.66921	0.652
8.7083	0.662
8.7474	0.663
8.78649	0.647
8.82559	0.565
8.86468	0.35
8.90378	0.127
8.94288	0.109
8.98197	0.432
9.02107	0.518
9.06016	0.311
9.09926	0.08
9.13835	0.066
9.17745	0.088
9.21654	0.021
9.25564	0.03
9.29473	0.035
9.33383	0.059
9.37292	0.085
9.41202	0.423
9.45111	0.625
9.49021	0.705
9.52931	0.712
9.5684	0.652
9.6075	0.47
9.64659	0.282
9.68569	0.177
9.72478	0.436
9.76388	0.581
9.80297	0.483
9.84207	0.256
9.88116	0.306
9.92026	0.736
9.95935	0.819
9.99845	0.851
10.0375	0.87
10.0766	0.877
10.1157	0.885
10.1548	0.893
10.1939	0.898
10.233	0.899
10.2721	0.901
10.3112	0.901
10.3503	0.896
10.3894	0.89
10.4285	0.878
10.4676	0.862
10.5067	0.833
10.5458	0.791
10.5849	0.715
10.624	0.599
10.6631	0.415
10.7022	0.224
10.7413	0.297
10.7804	0.62
10.8195	0.751
10.8585	0.796
10.8976	0.809
10.9367	0.812
10.9758	0.796
11.0149	0.747
11.054	0.705
11.0931	0.644
11.1322	0.528
11.1713	0.426
11.2104	0.36
11.2495	0.273
11.2886	0.159
11.3277	0.264
11.3668	0.295
11.4059	0.271
11.445	0.327
11.4841	0.466
11.5232	0.557
11.5623	0.6
11.6014	0.617
11.6405	0.626
11.6795	0.639
11.7186	0.646
11.7577	0.662
11.7968	0.68
11.8359	0.684
11.875	0.668
11.9141	0.626
11.9532	0.602
11.9923	0.586
12.0314	0.552
12.0705	0.579
12.1096	0.646
12.1487	0.683
12.1878	0.691
12.2269	0.689
12.266	0.673
12.3051	0.652
12.3442	0.623
12.3833	0.581
12.4224	0.536
12.4615	0.495
12.5006	0.453
12.5396	0.432
12.5787	0.455
12.6178	0.534
12.6569	0.607
12.696	0.655
12.7351	0.683
12.7742	0.691
12.8133	0.691
12.8524	0.673
12.8915	0.651
12.9306	0.602
12.9697	0.534
13.0088	0.436
13.0479	0.336
13.087	0.21
13.1261	0.075
13.1652	0.016
13.2043	0.054
13.2434	0.174
13.2825	0.303
13.3216	0.348
13.3606	0.368
13.3997	0.403
13.4388	0.474
13.4779	0.588
13.517	0.662
13.5561	0.701
13.5952	0.72
13.6343	0.731
13.6734	0.738
13.7125	0.741
13.7516	0.744
13.7907	0.746
13.8298	0.747
13.8689	0.746
13.908	0.741
13.9471	0.738
13.9862	0.736
14.0253	0.73
14.0644	0.723
14.1035	0.718
14.1426	0.702
14.1817	0.689
14.2207	0.668
14.2598	0.641
14.2989	0.61
14.338	0.581
14.3771	0.568
14.4162	0.558
14.4553	0.549
14.4944	0.542
14.5335	0.544
14.5726	0.558
14.6117	0.584
14.6508	0.599
14.6899	0.605
14.729	0.609
14.7681	0.609
14.8072	0.602
14.8463	0.589
14.8854	0.575
14.9245	0.544
14.9636	0.495
15.0027	0.452
15.0417	0.432
15.0808	0.434
15.1199	0.457
15.159	0.476
15.1981	0.486
15.2372	0.489
15.2763	0.489
15.3154	0.487
15.3545	0.484
15.3936	0.483
15.4327	0.478
15.4718	0.473
15.5109	0.468
15.55	0.465
15.5891	0.46
15.6282	0.452
15.6673	0.444
15.7064	0.439
15.7455	0.431
15.7846	0.424
15.8237	0.42
15.8628	0.423
15.9018	0.434
15.9409	0.447
15.98	0.463
