Infrared Spectrum: Glycine, N-(2-mercaptoethyl)-, methyl ester
Formula: C5 H11 N O2 S
CAS: 116435-39-3
State: LIQUID (NEAT)
Class: COBLENTZ III
Instrument: PERKIN-ELMER 521 (GRATING)
Instrument parameters: FILTERS AT 3150, 2500, 2000, 1150, 700, 410. GRATING CHANGES: 2000, 630
Path length: CAPILLARY
Resolution: 2
Origin: SOUTHERN RESEARCH INSTITUTE
1/CM	TRANSMITTANCE
249.78	0.6204
259.826	0.6465
269.872	0.6683
279.918	0.6819
289.964	0.6899
300.01	0.7079
310.056	0.7069
320.102	0.6928
330.148	0.6535
340.194	0.6332
350.239	0.6769
360.285	0.7341
370.331	0.7753
380.377	0.7972
390.423	0.7865
400.469	0.8102
410.515	0.8225
420.561	0.812
430.607	0.817
440.653	0.8315
450.699	0.8388
460.745	0.8378
470.791	0.8358
480.837	0.8354
490.883	0.8392
500.929	0.8473
510.975	0.8574
521.021	0.8611
531.066	0.8559
541.112	0.8489
551.158	0.828
561.204	0.7646
571.25	0.7414
581.296	0.7571
591.342	0.7473
601.388	0.7658
611.434	0.7645
621.48	0.7556
631.526	0.7364
641.572	0.7
651.618	0.6504
661.664	0.6306
671.71	0.6559
681.756	0.6341
691.802	0.6123
701.848	0.5911
711.893	0.5607
721.939	0.5263
731.985	0.5011
742.031	0.5038
752.077	0.522
762.123	0.5388
772.169	0.5401
782.215	0.541
792.261	0.555
802.307	0.5907
812.353	0.6453
822.399	0.6774
832.445	0.6774
842.491	0.6995
852.537	0.744
862.583	0.7389
872.629	0.6768
882.675	0.6417
892.72	0.7155
902.766	0.79
912.812	0.7822
922.858	0.7251
932.904	0.7217
942.95	0.7437
952.996	0.6906
963.042	0.6016
973.088	0.5132
983.134	0.5038
993.18	0.4974
1003.23	0.4936
1013.27	0.605
1023.32	0.6599
1033.36	0.6949
1043.41	0.707
1053.46	0.7058
1063.5	0.6958
1073.55	0.6643
1083.59	0.6342
1093.64	0.6359
1103.69	0.6288
1113.73	0.4995
1123.78	0.3256
1133.82	0.22
1143.87	0.2351
1153.92	0.2762
1163.96	0.214
1174.01	0.1972
1184.05	0.1847
1194.1	0.1494
1204.14	0.1464
1214.19	0.1627
1224.24	0.2049
1234.28	0.2665
1244.33	0.3069
1254.37	0.3467
1264.42	0.3645
1274.47	0.3767
1284.51	0.4321
1294.56	0.4644
1304.6	0.6011
1314.65	0.6253
1324.7	0.5856
1334.74	0.4533
1344.79	0.4784
1354.83	0.5139
1364.88	0.4985
1374.93	0.5488
1384.97	0.603
1395.02	0.6712
1405.06	0.5244
1415.11	0.4085
1425.16	0.2719
1435.2	0.3043
1445.25	0.3749
1455.29	0.3614
1465.34	0.4515
1475.39	0.5676
1485.43	0.7073
1495.48	0.7524
1505.52	0.7764
1515.57	0.7968
1525.61	0.8071
1535.66	0.8128
1545.71	0.8158
1555.75	0.8159
1565.8	0.8153
1575.84	0.8152
1585.89	0.8136
1595.94	0.8112
1605.98	0.8078
1616.03	0.8035
1626.07	0.7987
1636.12	0.7884
1646.17	0.7715
1656.21	0.7423
1666.26	0.7163
1676.3	0.7139
1686.35	0.6617
1696.4	0.6088
1706.44	0.5145
1716.49	0.2219
1726.53	0.0953
1736.58	0.0838
1746.63	0.1871
1756.67	0.3665
1766.72	0.5728
1776.76	0.6788
1786.81	0.7434
1796.86	0.7802
1806.9	0.8061
1816.95	0.8253
1826.99	0.8391
1837.04	0.8466
1847.09	0.8494
1857.13	0.8512
1867.18	0.8527
1877.22	0.8541
1887.27	0.8556
1897.31	0.858
1907.36	0.8594
1917.41	0.8584
1927.45	0.8535
1937.5	0.822
1947.54	0.8536
1957.59	0.8591
1967.64	0.8634
1977.68	0.8652
1987.73	0.8628
1997.77	0.8615
2007.82	0.8678
2017.87	0.8667
2027.91	0.8659
2037.96	0.8646
2048	0.8625
2058.05	0.8598
2068.1	0.8558
2078.14	0.8513
2088.19	0.8538
2098.23	0.8566
2108.28	0.8638
2118.33	0.8687
2128.37	0.8732
2138.42	0.874
2148.46	0.8736
2158.51	0.8729
2168.56	0.8723
2178.6	0.8716
2188.65	0.8717
2198.69	0.8721
2208.74	0.8724
2218.79	0.8727
2228.83	0.873
2238.88	0.8719
2248.92	0.8705
2258.97	0.8682
2269.01	0.8658
2279.06	0.8634
2289.11	0.8608
2299.15	0.8582
2309.2	0.8559
2319.24	0.8541
2329.29	0.8522
2339.34	0.8495
2349.38	0.8402
2359.43	0.837
2369.47	0.8341
2379.52	0.8316
2389.57	0.8292
2399.61	0.8268
2409.66	0.8245
2419.7	0.8222
2429.75	0.82
2439.8	0.8177
2449.84	0.8148
2459.89	0.8117
2469.93	0.807
2479.98	0.8014
2490.03	0.7966
2500.07	0.79
2510.12	0.7819
2520.16	0.7684
2530.21	0.7525
2540.26	0.739
2550.3	0.7284
2560.35	0.7303
2570.39	0.7584
2580.44	0.8029
2590.49	0.8194
2600.53	0.8244
2610.58	0.8265
2620.62	0.8255
2630.67	0.8242
2640.71	0.8208
2650.76	0.8161
2660.81	0.8162
2670.85	0.8157
2680.9	0.8068
2690.94	0.7958
2700.99	0.7939
2711.04	0.794
2721.08	0.7946
2731.13	0.7931
2741.17	0.779
2751.22	0.765
2761.27	0.7575
2771.31	0.7073
2781.36	0.6418
2791.4	0.588
2801.45	0.5233
2811.5	0.4856
2821.54	0.46
2831.59	0.447
2841.63	0.4527
2851.68	0.505
2861.73	0.5517
2871.77	0.5519
2881.82	0.5183
2891.86	0.4856
2901.91	0.4586
2911.96	0.431
2922	0.4007
2932.05	0.3858
2942.09	0.3409
2952.14	0.3963
2962.19	0.5036
2972.23	0.594
2982.28	0.6193
2992.32	0.6106
3002.37	0.6409
3012.41	0.6796
3022.46	0.7005
3032.51	0.7354
3042.55	0.7884
3052.6	0.8025
3062.64	0.8122
3072.69	0.8191
3082.74	0.8229
3092.78	0.8263
3102.83	0.8288
3112.87	0.8311
3122.92	0.8322
3132.97	0.8365
3143.01	0.8202
3153.06	0.8142
3163.1	0.8136
3173.15	0.8125
3183.2	0.8092
3193.24	0.8053
3203.29	0.7986
3213.33	0.7919
3223.38	0.7841
3233.43	0.7746
3243.47	0.7595
3253.52	0.744
3263.56	0.7256
3273.61	0.7055
3283.66	0.6851
3293.7	0.6589
3303.75	0.6293
3313.79	0.5994
3323.84	0.5816
3333.88	0.5866
3343.93	0.6091
3353.98	0.6424
3364.02	0.6757
3374.07	0.7154
3384.11	0.7423
3394.16	0.7627
3404.21	0.7731
3414.25	0.7789
3424.3	0.7818
3434.34	0.783
3444.39	0.7822
3454.44	0.7819
3464.48	0.7837
3474.53	0.791
3484.57	0.8039
3494.62	0.8123
3504.67	0.8195
3514.71	0.8233
3524.76	0.826
3534.8	0.8262
3544.85	0.8255
3554.9	0.8247
3564.94	0.8228
3574.99	0.8206
3585.03	0.8188
3595.08	0.8177
3605.13	0.8166
3615.17	0.8167
3625.22	0.8201
3635.26	0.8242
3645.31	0.8314
3655.36	0.8414
3665.4	0.8531
3675.45	0.8625
3685.49	0.8708
3695.54	0.8773
3705.58	0.8822
3715.63	0.8838
3725.68	0.8854
3735.72	0.8856
3745.77	0.885
3755.81	0.8843
3765.86	0.8834
3775.91	0.8821
3785.95	0.8808
3796	0.8796
3806.04	0.8785
3816.09	0.8775
3826.14	0.8766
3836.18	0.8757
3846.23	0.8747
3856.27	0.8738
3866.32	0.8734
3876.37	0.873
3886.41	0.8725
3896.46	0.8721
3906.5	0.8714
3916.55	0.8703
3926.6	0.8691
3936.64	0.868
3946.69	0.8676
3956.73	0.8671
3966.78	0.8667
3976.83	0.8659
3986.87	0.865
3996.92	0.8642
4006.96	0.8633
