Infrared Spectrum: (2-TRIMETHYLSILYLETHYL) PYRAZINE
Formula: C9 H16 N2 Si
CAS: 116403-11-3
State: LIQUID
Class: COBLENTZ
Instrument: Not specified, most likely a prism, grating, or hybrid spectrometer.
Sampling: TRANSMISSION
Path length: 0.003 CM
Resolution: 4
Origin: WYANDOTTE CHEMICALS CORP., WYANDOTTE, MICHIGAN, USA
MICROMETERS	TRANSMITTANCE
2.055	0.969
2.09594	0.955
2.13687	0.946
2.17781	0.941
2.21874	0.904
2.25968	0.921
2.30061	0.898
2.34155	0.916
2.38248	0.922
2.42342	0.928
2.46435	0.938
2.50529	0.95
2.54622	0.941
2.58716	0.91
2.62809	0.9
2.66903	0.892
2.70996	0.893
2.7509	0.886
2.79183	0.883
2.83277	0.873
2.8737	0.869
2.91464	0.859
2.95558	0.854
2.99651	0.863
3.03745	0.869
3.07838	0.859
3.11932	0.845
3.16025	0.818
3.20119	0.794
3.24212	0.659
3.28306	0.345
3.32399	0.453
3.36493	0.135
3.40586	0.102
3.4468	0.131
3.48773	0.323
3.52867	0.517
3.5696	0.65
3.61054	0.779
3.65147	0.854
3.69241	0.886
3.73334	0.902
3.77428	0.89
3.81521	0.9
3.85615	0.916
3.89709	0.917
3.93802	0.926
3.97896	0.934
4.01989	0.931
4.06083	0.91
4.10176	0.928
4.1427	0.934
4.18363	0.945
4.22457	0.94
4.2655	0.95
4.30644	0.948
4.34737	0.933
4.38831	0.924
4.42924	0.929
4.47018	0.936
4.51111	0.924
4.55205	0.928
4.59298	0.931
4.63392	0.938
4.67485	0.931
4.71579	0.928
4.75673	0.922
4.79766	0.904
4.8386	0.898
4.87953	0.902
4.92047	0.912
4.9614	0.919
5.00234	0.919
5.04327	0.91
5.08421	0.912
5.12514	0.912
5.16608	0.869
5.20701	0.809
5.24795	0.823
5.28888	0.864
5.32982	0.883
5.37075	0.888
5.41169	0.875
5.45262	0.9
5.49356	0.898
5.53449	0.89
5.57543	0.892
5.61636	0.88
5.6573	0.883
5.69824	0.876
5.73917	0.864
5.78011	0.832
5.82104	0.72
5.86198	0.823
5.90291	0.866
5.94385	0.868
5.98478	0.854
6.02572	0.847
6.06665	0.839
6.10759	0.842
6.14852	0.847
6.18946	0.851
6.23039	0.832
6.27133	0.715
6.31226	0.63
6.3532	0.808
6.39413	0.815
6.43507	0.804
6.476	0.654
6.51694	0.291
6.55788	0.501
6.59881	0.671
6.63975	0.743
6.68068	0.724
6.72162	0.436
6.76255	0.191
6.80349	0.501
6.84442	0.462
6.88536	0.289
6.92629	0.231
6.96723	0.279
7.00816	0.244
7.0491	0.126
7.09003	0.042
7.13097	0.046
7.1719	0.284
7.21284	0.489
7.25377	0.542
7.29471	0.583
7.33564	0.595
7.37658	0.623
7.41751	0.628
7.45845	0.599
7.49939	0.597
7.54032	0.621
7.58126	0.539
7.62219	0.395
7.66313	0.4
7.70406	0.505
7.745	0.549
7.78593	0.51
7.82687	0.369
7.8678	0.241
7.90874	0.08
7.94967	0.041
7.99061	0.023
8.03154	0.044
8.07248	0.104
8.11341	0.28
8.15435	0.491
8.19528	0.546
8.23622	0.633
8.27715	0.683
8.31809	0.676
8.35903	0.582
8.39996	0.352
8.4409	0.167
8.48183	0.14
8.52277	0.193
8.5637	0.224
8.60464	0.239
8.64557	0.318
8.68651	0.434
8.72744	0.532
8.76838	0.59
8.80931	0.607
8.85025	0.601
8.89118	0.589
8.93212	0.573
8.97305	0.537
9.01399	0.47
9.05492	0.38
9.09586	0.316
9.13679	0.318
9.17773	0.412
9.21866	0.546
9.2596	0.613
9.30054	0.628
9.34147	0.583
9.38241	0.375
9.42334	0.089
9.46428	0.239
9.50521	0.493
9.54615	0.613
9.58708	0.648
9.62802	0.659
9.66895	0.642
9.70989	0.571
9.75082	0.4
9.79176	0.118
9.83269	0.049
9.87363	0.208
9.91456	0.325
9.9555	0.373
9.99643	0.41
10.0374	0.489
10.0783	0.57
10.1192	0.638
10.1602	0.683
10.2011	0.717
10.242	0.727
10.283	0.736
10.3239	0.738
10.3649	0.738
10.4058	0.741
10.4467	0.748
10.4877	0.748
10.5286	0.734
10.5695	0.714
10.6105	0.693
10.6514	0.65
10.6923	0.618
10.7333	0.594
10.7742	0.587
10.8151	0.554
10.8561	0.46
10.897	0.316
10.9379	0.219
10.9789	0.133
11.0198	0.08
11.0608	0.09
11.1017	0.143
11.1426	0.207
11.1836	0.241
11.2245	0.236
11.2654	0.212
11.3064	0.159
11.3473	0.106
11.3882	0.058
11.4292	0.032
11.4701	0.025
11.511	0.025
11.552	0.025
11.5929	0.025
11.6338	0.029
11.6748	0.029
11.7157	0.027
11.7566	0.025
11.7976	0.025
11.8385	0.027
11.8795	0.025
11.9204	0.025
11.9613	0.029
12.0023	0.027
12.0432	0.025
12.0841	0.029
12.1251	0.027
12.166	0.034
12.2069	0.046
12.2479	0.073
12.2888	0.106
12.3297	0.167
12.3707	0.226
12.4116	0.279
12.4525	0.32
12.4935	0.363
12.5344	0.392
12.5754	0.416
12.6163	0.438
12.6572	0.438
12.6982	0.417
12.7391	0.371
12.78	0.357
12.821	0.359
12.8619	0.347
12.9028	0.296
12.9438	0.243
12.9847	0.2
13.0256	0.178
13.0666	0.159
13.1075	0.135
13.1484	0.116
13.1894	0.111
13.2303	0.121
13.2713	0.147
13.3122	0.172
13.3531	0.208
13.3941	0.246
13.435	0.299
13.4759	0.347
13.5169	0.38
13.5578	0.421
13.5987	0.448
13.6397	0.479
13.6806	0.508
13.7215	0.518
13.7625	0.527
13.8034	0.539
13.8443	0.541
13.8853	0.541
13.9262	0.535
13.9672	0.518
14.0081	0.494
14.049	0.469
14.09	0.428
14.1309	0.385
14.1718	0.323
14.2128	0.277
14.2537	0.241
14.2946	0.21
14.3356	0.19
14.3765	0.172
14.4174	0.166
14.4584	0.152
14.4993	0.15
14.5402	0.16
14.5812	0.195
14.6221	0.25
14.6631	0.308
14.704	0.375
14.7449	0.438
14.7859	0.488
14.8268	0.51
14.8677	0.532
14.9087	0.542
14.9496	0.547
14.9905	0.547
15.0315	0.522
15.0724	0.488
15.1133	0.469
15.1543	0.472
15.1952	0.476
15.2361	0.494
15.2771	0.508
15.318	0.522
15.3589	0.532
15.3999	0.541
15.4408	0.539
15.4818	0.529
15.5227	0.527
15.5636	0.52
15.6046	0.518
15.6455	0.522
15.6864	0.52
15.7274	0.525
15.7683	0.515
15.8092	0.506
15.8502	0.501
15.8911	0.496
15.932	0.489
15.973	0.486
