Infrared Spectrum: 2-(2',4',6'-TRICHLOROPHENOXY)-4-METHYLTHIO-ACETO-PHENONE
Formula: C15 H11 Cl3 O2 S
CAS: 116465-23-7
State: SOLID (MINERAL OIL MULL)
Class: COBLENTZ
Instrument: Not specified, most likely a prism, grating, or hybrid spectrometer.
Sampling: TRANSMISSION
Resolution: 4
Origin: DOW CHEMICAL COMPANY
MICROMETERS	TRANSMITTANCE
2.021	0.61
2.06016	0.618
2.09931	0.627
2.13847	0.635
2.17763	0.64
2.21678	0.646
2.25594	0.643
2.2951	0.644
2.33425	0.651
2.37341	0.659
2.41256	0.667
2.45172	0.674
2.49088	0.68
2.53003	0.685
2.56919	0.69
2.60835	0.695
2.6475	0.7
2.68666	0.703
2.72582	0.706
2.76497	0.706
2.80413	0.701
2.84329	0.698
2.88244	0.698
2.9216	0.701
2.96075	0.703
2.99991	0.708
3.03907	0.714
3.07822	0.721
3.11738	0.721
3.15654	0.719
3.19569	0.716
3.23485	0.701
3.27401	0.703
3.31316	0.675
3.35232	0.485
3.39148	0.218
3.43063	0.216
3.46979	0.32
3.50895	0.472
3.5481	0.728
3.58726	0.755
3.62641	0.763
3.66557	0.765
3.70473	0.768
3.74388	0.773
3.78304	0.778
3.8222	0.783
3.86135	0.788
3.90051	0.798
3.93967	0.801
3.97882	0.802
4.01798	0.809
4.05714	0.811
4.09629	0.814
4.13545	0.817
4.1746	0.819
4.21376	0.817
4.25292	0.819
4.29207	0.824
4.33123	0.827
4.37039	0.828
4.40954	0.83
4.4487	0.832
4.48786	0.832
4.52701	0.833
4.56617	0.835
4.60533	0.837
4.64448	0.838
4.68364	0.838
4.72279	0.842
4.76195	0.843
4.80111	0.843
4.84026	0.846
4.87942	0.846
4.91858	0.845
4.95773	0.848
4.99689	0.851
5.03605	0.856
5.0752	0.859
5.11436	0.859
5.15352	0.853
5.19267	0.851
5.23183	0.853
5.27099	0.856
5.31014	0.863
5.3493	0.866
5.38845	0.868
5.42761	0.869
5.46677	0.866
5.50592	0.868
5.54508	0.863
5.58424	0.861
5.62339	0.863
5.66255	0.858
5.70171	0.85
5.74086	0.843
5.78002	0.832
5.81918	0.811
5.85833	0.744
5.89749	0.477
5.93664	0.425
5.9758	0.781
6.01496	0.776
6.05411	0.791
6.09327	0.811
6.13243	0.799
6.17158	0.788
6.21074	0.69
6.2499	0.452
6.28905	0.61
6.32821	0.736
6.36737	0.716
6.40652	0.631
6.44568	0.765
6.48484	0.828
6.52399	0.83
6.56315	0.828
6.6023	0.828
6.64146	0.819
6.68062	0.789
6.71977	0.755
6.75893	0.534
6.79809	0.407
6.83724	0.425
6.8764	0.524
6.91556	0.486
6.95471	0.462
6.99387	0.561
7.03303	0.684
7.07218	0.648
7.11134	0.697
7.15049	0.687
7.18965	0.576
7.22881	0.581
7.26796	0.671
7.30712	0.723
7.34628	0.771
7.38543	0.789
7.42459	0.801
7.46375	0.814
7.5029	0.815
7.54206	0.807
7.58122	0.775
7.62037	0.771
7.65953	0.799
7.69868	0.807
7.73784	0.798
7.777	0.791
7.81615	0.771
7.85531	0.721
7.89447	0.679
7.93362	0.641
7.97278	0.566
8.01194	0.451
8.05109	0.454
8.09025	0.641
8.12941	0.662
8.16856	0.705
8.20772	0.754
8.24688	0.762
8.28603	0.762
8.32519	0.741
8.36434	0.672
8.4035	0.685
8.44266	0.767
8.48181	0.786
8.52097	0.798
8.56013	0.801
8.59928	0.801
8.63844	0.799
8.6776	0.791
8.71675	0.749
8.75591	0.705
8.79507	0.762
8.83422	0.781
8.87338	0.762
8.91253	0.796
8.95169	0.804
8.99085	0.801
9.03	0.785
9.06916	0.726
9.10832	0.597
9.14747	0.6
9.18663	0.693
9.22579	0.636
9.26494	0.687
9.3041	0.754
9.34326	0.687
9.38241	0.57
9.42157	0.578
9.46073	0.697
9.49988	0.731
9.53904	0.754
9.57819	0.77
9.61735	0.778
9.65651	0.78
9.69566	0.788
9.73482	0.802
9.77398	0.819
9.81313	0.815
9.85229	0.815
9.89145	0.83
9.9306	0.832
9.96976	0.828
10.0089	0.824
10.0481	0.824
10.0872	0.822
10.1264	0.817
10.1655	0.789
10.2047	0.719
10.2439	0.547
10.283	0.464
10.3222	0.493
10.3613	0.49
10.4005	0.579
10.4396	0.692
10.4788	0.77
10.5179	0.801
10.5571	0.812
10.5963	0.817
10.6354	0.82
10.6746	0.824
10.7137	0.828
10.7529	0.83
10.792	0.832
10.8312	0.832
10.8704	0.833
10.9095	0.835
10.9487	0.837
10.9878	0.838
11.027	0.838
11.0661	0.842
11.1053	0.842
11.1445	0.842
11.1836	0.842
11.2228	0.832
11.2619	0.819
11.3011	0.814
11.3402	0.83
11.3794	0.84
11.4185	0.843
11.4577	0.837
11.4969	0.832
11.536	0.828
11.5752	0.812
11.6143	0.767
11.6535	0.661
11.6926	0.527
11.7318	0.539
11.771	0.711
11.8101	0.778
11.8493	0.781
11.8884	0.77
11.9276	0.75
11.9667	0.68
12.0059	0.591
12.0451	0.579
12.0842	0.635
12.1234	0.664
12.1625	0.627
12.2017	0.548
12.2408	0.519
12.28	0.527
12.3191	0.519
12.3583	0.467
12.3975	0.452
12.4366	0.547
12.4758	0.6
12.5149	0.651
12.5541	0.71
12.5932	0.755
12.6324	0.781
12.6716	0.798
12.7107	0.809
12.7499	0.811
12.789	0.814
12.8282	0.819
12.8673	0.819
12.9065	0.82
12.9456	0.819
12.9848	0.815
13.024	0.811
13.0631	0.806
13.1023	0.793
13.1414	0.762
13.1806	0.706
13.2197	0.657
13.2589	0.69
13.2981	0.76
13.3372	0.785
13.3764	0.794
13.4155	0.801
13.4547	0.799
13.4938	0.794
13.533	0.791
13.5722	0.789
13.6113	0.783
13.6505	0.778
13.6896	0.763
13.7288	0.754
13.7679	0.745
13.8071	0.737
13.8462	0.734
13.8854	0.745
13.9246	0.755
13.9637	0.76
14.0029	0.757
14.042	0.754
14.0812	0.752
14.1203	0.755
14.1595	0.755
14.1987	0.75
14.2378	0.747
14.277	0.742
14.3161	0.739
14.3553	0.737
14.3944	0.736
14.4336	0.732
14.4728	0.724
14.5119	0.719
14.5511	0.705
14.5902	0.697
14.6294	0.684
14.6685	0.68
14.7077	0.68
14.7468	0.679
14.786	0.675
14.8252	0.674
14.8643	0.671
14.9035	0.657
14.9426	0.653
14.9818	0.653
15.0209	0.649
15.0601	0.641
15.0993	0.633
15.1384	0.627
15.1776	0.618
15.2167	0.61
15.2559	0.602
15.295	0.596
15.3342	0.589
15.3733	0.579
15.4125	0.571
15.4517	0.565
15.4908	0.558
15.53	0.553
15.5691	0.55
15.6083	0.543
15.6474	0.539
15.6866	0.532
15.7258	0.529
15.7649	0.524
15.8041	0.519
