Infrared Spectrum: 2,2-DICHLOROPROPIONIC ACID, PENTACHLOROPHENYL ESTER
Formula: C9 H3 Cl7 O2
CAS: 116402-62-1
State: SOLUTION (10% CCl4 FOR 5000-1330, 10% CS2 FOR 1330-625 CM^-^1)
Class: COBLENTZ
Instrument: Not specified, most likely a prism, grating, or hybrid spectrometer.
Sampling: TRANSMISSION
Path length: 0.0120 CM, 0.0120 CM
Resolution: 4
Origin: DOW CHEMICAL COMPANY
MICROMETERS	TRANSMITTANCE
2.014	0.899
2.05502	0.899
2.09603	0.899
2.13705	0.902
2.17806	0.901
2.21908	0.897
2.26009	0.904
2.30111	0.908
2.34213	0.904
2.38314	0.904
2.42416	0.906
2.46517	0.908
2.50619	0.904
2.54721	0.906
2.58822	0.911
2.62924	0.911
2.67025	0.913
2.71127	0.909
2.75228	0.901
2.7933	0.896
2.83432	0.909
2.87533	0.913
2.91635	0.913
2.95736	0.913
2.99838	0.914
3.0394	0.914
3.08041	0.914
3.12143	0.916
3.16244	0.913
3.20346	0.911
3.24447	0.913
3.28549	0.904
3.32651	0.899
3.36752	0.897
3.40854	0.909
3.44955	0.909
3.49057	0.916
3.53159	0.921
3.5726	0.921
3.61362	0.925
3.65463	0.926
3.69565	0.928
3.73666	0.926
3.77768	0.928
3.8187	0.928
3.85971	0.93
3.90073	0.933
3.94174	0.928
3.98276	0.931
4.02378	0.923
4.06479	0.931
4.10581	0.933
4.14682	0.931
4.18784	0.925
4.22885	0.913
4.26987	0.908
4.31089	0.909
4.3519	0.914
4.39292	0.926
4.43393	0.931
4.47495	0.938
4.51597	0.942
4.55698	0.935
4.598	0.942
4.63901	0.94
4.68003	0.936
4.72104	0.921
4.76206	0.928
4.80308	0.938
4.84409	0.938
4.88511	0.933
4.92612	0.933
4.96714	0.925
5.00816	0.914
5.04917	0.926
5.09019	0.931
5.1312	0.933
5.17222	0.943
5.21323	0.942
5.25425	0.942
5.29527	0.933
5.33628	0.921
5.3773	0.909
5.41831	0.892
5.45933	0.827
5.50034	0.613
5.54136	0.304
5.58238	0.221
5.62339	0.509
5.66441	0.853
5.70542	0.884
5.74644	0.904
5.78746	0.921
5.82847	0.928
5.86949	0.93
5.9105	0.931
5.95152	0.942
5.99253	0.948
6.03355	0.952
6.07457	0.94
6.11558	0.916
6.1566	0.885
6.19761	0.824
6.23863	0.727
6.27965	0.66
6.32066	0.625
6.36168	0.567
6.40269	0.471
6.44371	0.482
6.48472	0.568
6.52574	0.642
6.56676	0.712
6.60777	0.77
6.64879	0.826
6.6898	0.872
6.73082	0.884
6.77184	0.882
6.81285	0.853
6.85387	0.773
6.89488	0.691
6.9359	0.829
6.97691	0.846
7.01793	0.822
7.05895	0.77
7.09996	0.643
7.14098	0.369
7.18199	0.117
7.22301	0.088
7.26403	0.262
7.30504	0.124
7.34606	0.417
7.38707	0.669
7.42809	0.783
7.4691	0.817
7.51012	0.834
7.55114	0.833
7.59215	0.809
7.63317	0.792
7.67418	0.783
7.7152	0.761
7.75622	0.836
7.79723	0.86
7.83825	0.863
7.87926	0.822
7.92028	0.761
7.96129	0.742
8.00231	0.706
8.04333	0.568
8.08434	0.264
8.12536	0.102
8.16637	0.264
8.20739	0.396
8.24841	0.318
8.28942	0.378
8.33044	0.531
8.37145	0.572
8.41247	0.437
8.45348	0.494
8.4945	0.727
8.53552	0.824
8.57653	0.853
8.61755	0.872
8.65856	0.865
8.69958	0.844
8.74059	0.793
8.78161	0.688
8.82263	0.625
8.86364	0.759
8.90466	0.763
8.94567	0.724
8.98669	0.647
9.02771	0.465
9.06872	0.207
9.10974	0.071
9.15075	0.172
9.19177	0.219
9.23278	0.158
9.2738	0.114
9.31482	0.148
9.35583	0.279
9.39685	0.378
9.43786	0.459
9.47888	0.567
9.5199	0.695
9.56091	0.763
9.60193	0.8
9.64294	0.834
9.68396	0.855
9.72497	0.875
9.76599	0.884
9.80701	0.892
9.84802	0.897
9.88904	0.904
9.93005	0.908
9.97107	0.902
10.0121	0.88
10.0531	0.831
10.0941	0.78
10.1351	0.816
10.1761	0.877
10.2172	0.887
10.2582	0.868
10.2992	0.851
10.3402	0.892
10.3812	0.913
10.4222	0.916
10.4633	0.919
10.5043	0.919
10.5453	0.913
10.5863	0.908
10.6273	0.901
10.6683	0.899
10.7094	0.892
10.7504	0.873
10.7914	0.848
10.8324	0.851
10.8734	0.884
10.9144	0.889
10.9554	0.89
10.9965	0.889
11.0375	0.887
11.0785	0.879
11.1195	0.863
11.1605	0.819
11.2015	0.729
11.2426	0.649
11.2836	0.66
11.3246	0.695
11.3656	0.73
11.4066	0.749
11.4476	0.752
11.4887	0.752
11.5297	0.742
11.5707	0.724
11.6117	0.698
11.6527	0.659
11.6937	0.613
11.7348	0.591
11.7758	0.601
11.8168	0.652
11.8578	0.727
11.8988	0.785
11.9398	0.807
11.9808	0.819
12.0219	0.824
12.0629	0.816
12.1039	0.8
12.1449	0.763
12.1859	0.722
12.2269	0.696
12.268	0.684
12.309	0.637
12.35	0.567
12.391	0.502
12.432	0.449
12.473	0.454
12.5141	0.47
12.5551	0.415
12.5961	0.35
12.6371	0.359
12.6781	0.456
12.7191	0.512
12.7601	0.563
12.8012	0.616
12.8422	0.669
12.8832	0.684
12.9242	0.683
12.9652	0.671
13.0062	0.681
13.0473	0.718
13.0883	0.752
13.1293	0.768
13.1703	0.776
13.2113	0.778
13.2523	0.78
13.2934	0.771
13.3344	0.759
13.3754	0.746
13.4164	0.741
13.4574	0.725
13.4984	0.712
13.5394	0.684
13.5805	0.659
13.6215	0.635
13.6625	0.603
13.7035	0.545
13.7445	0.463
13.7855	0.352
13.8266	0.226
13.8676	0.146
13.9086	0.132
13.9496	0.206
13.9906	0.316
14.0316	0.405
14.0727	0.471
14.1137	0.502
14.1547	0.514
14.1957	0.514
14.2367	0.519
14.2777	0.543
14.3187	0.575
14.3598	0.599
14.4008	0.613
14.4418	0.62
14.4828	0.621
14.5238	0.623
14.5648	0.621
14.6059	0.614
14.6469	0.611
14.6879	0.603
14.7289	0.591
14.7699	0.574
14.8109	0.56
14.852	0.533
14.893	0.509
14.934	0.488
14.975	0.482
15.016	0.471
15.057	0.449
15.098	0.427
15.1391	0.407
15.1801	0.395
15.2211	0.393
15.2621	0.402
15.3031	0.413
15.3441	0.419
15.3852	0.422
15.4262	0.41
15.4672	0.385
15.5082	0.344
15.5492	0.315
15.5902	0.308
15.6313	0.321
15.6723	0.339
15.7133	0.349
15.7543	0.356
15.7953	0.359
15.8363	0.362
15.8773	0.364
15.9184	0.352
