Infrared Spectrum: DI-[2-(4-TERT-BUTYL-2,6-DICHLOROPHENOXY) ETHYL] ETHER
Formula: C24 H30 Cl4 O3
CAS: 116401-27-5
State: SOLUTION (10% IN CCl4 FOR 5000-1350 CM^-^1, 10% IN CS2 FOR 1350-625 CM^-^1)
Class: COBLENTZ
Instrument: Not specified, most likely a prism, grating, or hybrid spectrometer.
Sampling: TRANSMISSION
Path length: 0.01 CM, 0.01 CM
Resolution: 4
Origin: DOW CHEMICAL COMPANY
MICROMETERS	TRANSMITTANCE
2.033	0.853
2.0722	0.86
2.11139	0.858
2.15059	0.86
2.18979	0.862
2.22899	0.855
2.26818	0.839
2.30738	0.845
2.34658	0.85
2.38578	0.853
2.42497	0.855
2.46417	0.86
2.50337	0.862
2.54256	0.863
2.58176	0.863
2.62096	0.863
2.66016	0.87
2.69935	0.86
2.73855	0.866
2.77775	0.852
2.81695	0.832
2.85614	0.829
2.89534	0.823
2.93454	0.816
2.97373	0.819
3.01293	0.819
3.05213	0.816
3.09133	0.821
3.13052	0.821
3.16972	0.827
3.20892	0.831
3.24812	0.821
3.28731	0.813
3.32651	0.707
3.36571	0.305
3.4049	0.313
3.4441	0.413
3.4833	0.496
3.5225	0.748
3.56169	0.788
3.60089	0.814
3.64009	0.819
3.67929	0.827
3.71848	0.852
3.75768	0.86
3.79688	0.868
3.83607	0.87
3.87527	0.87
3.91447	0.865
3.95367	0.863
3.99286	0.871
4.03206	0.871
4.07126	0.878
4.11046	0.875
4.14965	0.875
4.18885	0.878
4.22805	0.862
4.26724	0.857
4.30644	0.862
4.34564	0.858
4.38484	0.868
4.42403	0.875
4.46323	0.884
4.50243	0.887
4.54163	0.889
4.58082	0.879
4.62002	0.881
4.65922	0.887
4.69842	0.887
4.73761	0.887
4.77681	0.879
4.81601	0.876
4.8552	0.878
4.8944	0.879
4.9336	0.875
4.9728	0.87
5.01199	0.866
5.05119	0.873
5.09039	0.875
5.12959	0.878
5.16878	0.879
5.20798	0.881
5.24718	0.878
5.28637	0.879
5.32557	0.883
5.36477	0.875
5.40397	0.881
5.44316	0.876
5.48236	0.878
5.52156	0.883
5.56076	0.875
5.59995	0.873
5.63915	0.853
5.67835	0.834
5.71754	0.818
5.75674	0.842
5.79594	0.865
5.83514	0.858
5.87433	0.862
5.91353	0.86
5.95273	0.858
5.99193	0.855
6.03112	0.85
6.07032	0.832
6.10952	0.819
6.14871	0.805
6.18791	0.75
6.22711	0.654
6.26631	0.563
6.3055	0.555
6.3447	0.519
6.3839	0.464
6.4231	0.237
6.46229	0.271
6.50149	0.441
6.54069	0.475
6.57988	0.512
6.61908	0.551
6.65828	0.545
6.69748	0.358
6.73667	0.056
6.77587	0.155
6.81507	0.215
6.85427	0.272
6.89346	0.376
6.93266	0.558
6.97186	0.685
7.01105	0.685
7.05025	0.672
7.08945	0.626
7.12865	0.49
7.16784	0.324
7.20704	0.441
7.24624	0.49
7.28544	0.521
7.32463	0.576
7.36383	0.68
7.40303	0.779
7.44222	0.771
7.48142	0.75
7.52062	0.746
7.55982	0.73
7.59901	0.646
7.63821	0.506
7.67741	0.428
7.71661	0.344
7.7558	0.215
7.795	0.092
7.8342	0.06
7.87339	0.165
7.91259	0.295
7.95179	0.36
7.99099	0.407
8.03018	0.47
8.06938	0.532
8.10858	0.595
8.14778	0.628
8.18697	0.599
8.22617	0.597
8.26537	0.615
8.30456	0.642
8.34376	0.696
8.38296	0.712
8.42216	0.715
8.46135	0.704
8.50055	0.698
8.53975	0.668
8.57895	0.646
8.61814	0.574
8.65734	0.477
8.69654	0.318
8.73573	0.25
8.77493	0.259
8.81413	0.313
8.85333	0.402
8.89252	0.49
8.93172	0.571
8.97092	0.62
9.01012	0.652
9.04931	0.655
9.08851	0.639
9.12771	0.589
9.1669	0.501
9.2061	0.387
9.2453	0.41
9.2845	0.576
9.32369	0.613
9.36289	0.629
9.40209	0.605
9.44129	0.538
9.48048	0.454
9.51968	0.355
9.55888	0.327
9.59807	0.357
9.63727	0.391
9.67647	0.446
9.71567	0.509
9.75486	0.534
9.79406	0.534
9.83326	0.5
9.87246	0.439
9.91165	0.412
9.95085	0.443
9.99005	0.493
10.0292	0.553
10.0684	0.602
10.1076	0.659
10.1468	0.681
10.186	0.698
10.2252	0.722
10.2644	0.74
10.3036	0.74
10.3428	0.728
10.382	0.72
10.4212	0.702
10.4604	0.678
10.4996	0.649
10.5388	0.62
10.578	0.602
10.6172	0.597
10.6564	0.597
10.6956	0.603
10.7348	0.608
10.774	0.584
10.8132	0.574
10.8524	0.589
10.8916	0.61
10.9308	0.633
10.97	0.652
11.0092	0.665
11.0484	0.657
11.0876	0.637
11.1268	0.631
11.166	0.61
11.2052	0.555
11.2444	0.477
11.2836	0.378
11.3228	0.316
11.362	0.327
11.4011	0.342
11.4403	0.285
11.4795	0.155
11.5187	0.204
11.5579	0.375
11.5971	0.465
11.6363	0.509
11.6755	0.525
11.7147	0.547
11.7539	0.558
11.7931	0.577
11.8323	0.589
11.8715	0.599
11.9107	0.61
11.9499	0.613
11.9891	0.61
12.0283	0.589
12.0675	0.569
12.1067	0.542
12.1459	0.524
12.1851	0.521
12.2243	0.512
12.2635	0.49
12.3027	0.431
12.3419	0.353
12.3811	0.232
12.4203	0.115
12.4595	0.055
12.4987	0.082
12.5379	0.204
12.5771	0.345
12.6163	0.461
12.6555	0.538
12.6947	0.573
12.7339	0.602
12.7731	0.629
12.8123	0.646
12.8514	0.655
12.8906	0.663
12.9298	0.668
12.969	0.672
13.0082	0.67
13.0474	0.662
13.0866	0.649
13.1258	0.625
13.165	0.587
13.2042	0.55
13.2434	0.538
13.2826	0.548
13.3218	0.564
13.361	0.577
13.4002	0.581
13.4394	0.579
13.4786	0.589
13.5178	0.607
13.557	0.633
13.5962	0.641
13.6354	0.644
13.6746	0.644
13.7138	0.641
13.753	0.634
13.7922	0.629
13.8314	0.618
13.8706	0.608
13.9098	0.599
13.949	0.59
13.9882	0.589
14.0274	0.579
14.0666	0.564
14.1058	0.553
14.145	0.548
14.1842	0.547
14.2234	0.55
14.2626	0.551
14.3017	0.55
14.3409	0.548
14.3801	0.543
14.4193	0.54
14.4585	0.537
14.4977	0.534
14.5369	0.53
14.5761	0.529
14.6153	0.521
14.6545	0.516
14.6937	0.509
14.7329	0.501
14.7721	0.498
14.8113	0.487
14.8505	0.477
14.8897	0.462
14.9289	0.451
14.9681	0.452
15.0073	0.454
15.0465	0.439
15.0857	0.426
15.1249	0.412
15.1641	0.4
15.2033	0.389
15.2425	0.375
15.2817	0.36
15.3209	0.34
15.3601	0.314
15.3993	0.275
15.4385	0.235
15.4777	0.212
15.5169	0.214
15.5561	0.24
15.5953	0.264
15.6345	0.28
15.6737	0.288
15.7129	0.292
15.752	0.293
15.7912	0.295
15.8304	0.292
15.8696	0.292
15.9088	0.269
15.948	0.259
