Infrared Spectrum: BENZOPHENONE, 5-CHLORO-4-DODECYLOXY-2-HYDROXY-4'-METHOXY-
Formula: C26 H35 Cl O4
CAS: 116400-88-5
State: SOLID (KBr PELLET)
Melting point: 45-46 C
Class: COBLENTZ
Instrument: Not specified, most likely a prism, grating, or hybrid spectrometer.
Sampling: TRANSMISSION
Resolution: 4
Origin: TENNESSEE EASTMAN COMPANY, RESEARCH LABORATORIES
MICROMETERS	TRANSMITTANCE
2	0.626
2.04105	0.628
2.0821	0.64
2.12315	0.648
2.1642	0.659
2.20526	0.671
2.24631	0.672
2.28736	0.676
2.32841	0.681
2.36946	0.688
2.41051	0.698
2.45156	0.707
2.49261	0.714
2.53367	0.724
2.57472	0.731
2.61577	0.738
2.65682	0.746
2.69787	0.751
2.73892	0.755
2.77997	0.744
2.82102	0.726
2.86208	0.715
2.90313	0.7
2.94418	0.698
2.98523	0.72
3.02628	0.736
3.06733	0.751
3.10838	0.76
3.14943	0.768
3.19048	0.777
3.23154	0.782
3.27259	0.78
3.31364	0.773
3.35469	0.642
3.39574	0.196
3.43679	0.315
3.47784	0.4
3.51889	0.542
3.55995	0.789
3.601	0.813
3.64205	0.823
3.6831	0.832
3.72415	0.842
3.7652	0.847
3.80625	0.852
3.8473	0.852
3.88836	0.857
3.92941	0.866
3.97046	0.88
4.01151	0.892
4.05256	0.895
4.09361	0.9
4.13466	0.909
4.17571	0.91
4.21677	0.91
4.25782	0.912
4.29887	0.914
4.33992	0.916
4.38097	0.922
4.42202	0.931
4.46307	0.936
4.50412	0.943
4.54517	0.943
4.58623	0.945
4.62728	0.948
4.66833	0.95
4.70938	0.952
4.75043	0.952
4.79148	0.952
4.83253	0.952
4.87358	0.95
4.91464	0.952
4.95569	0.952
4.99674	0.97
5.03779	0.967
5.07884	0.964
5.11989	0.962
5.16094	0.964
5.20199	0.962
5.24305	0.962
5.2841	0.964
5.32515	0.969
5.3662	0.97
5.40725	0.97
5.4483	0.97
5.48935	0.97
5.5304	0.97
5.57145	0.967
5.61251	0.965
5.65356	0.962
5.69461	0.957
5.73566	0.938
5.77671	0.936
5.81776	0.934
5.85881	0.933
5.89986	0.919
5.94092	0.905
5.98197	0.827
6.02302	0.746
6.06407	0.611
6.10512	0.431
6.14617	0.393
6.18722	0.333
6.22827	0.174
6.26933	0.234
6.31038	0.52
6.35143	0.539
6.39248	0.71
6.43353	0.816
6.47458	0.845
6.51563	0.859
6.55668	0.726
6.59773	0.546
6.63879	0.638
6.67984	0.628
6.72089	0.712
6.76194	0.541
6.80299	0.424
6.84404	0.606
6.88509	0.736
6.92614	0.773
6.9672	0.777
7.00825	0.683
7.0493	0.595
7.09035	0.672
7.1314	0.741
7.17245	0.642
7.2135	0.626
7.25455	0.611
7.29561	0.611
7.33666	0.623
7.37771	0.604
7.41876	0.511
7.45981	0.476
7.50086	0.609
7.54191	0.636
7.58296	0.563
7.62401	0.438
7.66507	0.438
7.70612	0.542
7.74717	0.601
7.78822	0.407
7.82927	0.347
7.87032	0.238
7.91137	0.14
7.95242	0.087
7.99348	0.111
8.03453	0.393
8.07558	0.613
8.11663	0.659
8.15768	0.648
8.19873	0.712
8.23978	0.705
8.28083	0.553
8.32189	0.398
8.36294	0.436
8.40399	0.469
8.44504	0.476
8.48609	0.385
8.52714	0.39
8.56819	0.643
8.60924	0.763
8.6503	0.773
8.69135	0.763
8.7324	0.748
8.77345	0.782
8.8145	0.832
8.85555	0.842
8.8966	0.84
8.93765	0.82
8.9787	0.816
9.01976	0.854
9.06081	0.868
9.10186	0.866
9.14291	0.866
9.18396	0.851
9.22501	0.809
9.26606	0.76
9.30711	0.741
9.34817	0.698
9.38922	0.643
9.43027	0.589
9.47132	0.625
9.51237	0.703
9.55342	0.72
9.59447	0.606
9.63552	0.535
9.67658	0.556
9.71763	0.69
9.75868	0.751
9.79973	0.787
9.84078	0.796
9.88183	0.804
9.92288	0.809
9.96393	0.811
10.005	0.821
10.046	0.842
10.0871	0.854
10.1281	0.873
10.1692	0.883
10.2102	0.9
10.2513	0.902
10.2923	0.898
10.3334	0.881
10.3744	0.859
10.4155	0.839
10.4565	0.84
10.4976	0.849
10.5387	0.842
10.5797	0.839
10.6208	0.852
10.6618	0.856
10.7029	0.806
10.7439	0.785
10.785	0.799
10.826	0.823
10.8671	0.851
10.9081	0.861
10.9492	0.863
10.9902	0.851
11.0313	0.832
11.0723	0.856
11.1134	0.875
11.1544	0.876
11.1955	0.856
11.2365	0.857
11.2776	0.898
11.3186	0.94
11.3597	0.952
11.4007	0.958
11.4418	0.96
11.4828	0.958
11.5239	0.958
11.5649	0.958
11.606	0.943
11.647	0.914
11.6881	0.856
11.7291	0.753
11.7702	0.657
11.8112	0.647
11.8523	0.722
11.8933	0.777
11.9344	0.791
11.9754	0.799
12.0165	0.803
12.0575	0.785
12.0986	0.773
12.1396	0.797
12.1807	0.792
12.2217	0.77
12.2628	0.768
12.3039	0.767
12.3449	0.794
12.386	0.803
12.427	0.796
12.4681	0.806
12.5091	0.842
12.5502	0.857
12.5912	0.859
12.6323	0.856
12.6733	0.847
12.7144	0.842
12.7554	0.813
12.7965	0.741
12.8375	0.729
12.8786	0.815
12.9196	0.881
12.9607	0.921
13.0017	0.936
13.0428	0.938
13.0838	0.938
13.1249	0.934
13.1659	0.9
13.207	0.857
13.248	0.806
13.2891	0.796
13.3301	0.797
13.3712	0.808
13.4122	0.821
13.4533	0.84
13.4943	0.869
13.5354	0.888
13.5764	0.902
13.6175	0.91
13.6585	0.916
13.6996	0.916
13.7406	0.912
13.7817	0.897
13.8227	0.888
13.8638	0.883
13.9048	0.881
13.9459	0.89
13.987	0.924
14.028	0.96
14.0691	0.979
14.1101	0.991
14.1512	0.998
14.1922	1.005
14.2333	1.011
14.2743	1.013
14.3154	1.01
14.3564	0.993
14.3975	0.991
14.4385	0.993
14.4796	0.994
14.5206	0.996
14.5617	0.998
14.6027	0.998
14.6438	0.998
14.6848	0.998
14.7259	0.998
14.7669	0.996
14.808	0.994
14.849	0.993
14.8901	0.991
14.9311	0.984
14.9722	0.979
15.0132	0.976
15.0543	0.977
15.0953	0.979
15.1364	0.979
15.1774	0.982
15.2185	0.984
15.2595	0.984
15.3006	0.984
15.3416	0.984
15.3827	0.982
15.4237	0.974
15.4648	0.967
15.5058	0.958
15.5469	0.943
15.5879	0.933
15.629	0.917
15.6701	0.892
15.7111	0.875
15.7522	0.854
15.7932	0.839
15.8343	0.816
15.8753	0.796
15.9164	0.785
