Infrared Spectrum: 2-(N-n-HEXYL-N-n-OCTYLAMINO)-3-METHYL PYRAZINE
Formula: C19 H35 N3
CAS: 116402-87-0
State: LIQUID
Class: COBLENTZ
Instrument: Not specified, most likely a prism, grating, or hybrid spectrometer.
Sampling: TRANSMISSION
Path length: 0.0015 CM
Resolution: 4
Origin: WYANDOTTE CHEMICALS CORP., WYANDOTTE, MICHIGAN, USA
MICROMETERS	TRANSMITTANCE
2.02	0.964
2.06088	0.957
2.10175	0.954
2.14263	0.947
2.1835	0.914
2.22438	0.831
2.26526	0.855
2.30613	0.87
2.34701	0.873
2.38788	0.889
2.42876	0.904
2.46964	0.901
2.51051	0.909
2.55139	0.94
2.59227	0.948
2.63314	0.947
2.67402	0.952
2.71489	0.935
2.75577	0.936
2.79665	0.923
2.83752	0.89
2.8784	0.877
2.91927	0.85
2.96015	0.839
3.00103	0.827
3.0419	0.829
3.08278	0.836
3.12365	0.831
3.16453	0.817
3.20541	0.797
3.24628	0.754
3.28716	0.374
3.32804	0.434
3.36891	0.069
3.40979	0.054
3.45066	0.068
3.49154	0.066
3.53242	0.156
3.57329	0.456
3.61417	0.647
3.65504	0.717
3.69592	0.703
3.7368	0.756
3.77767	0.776
3.81855	0.81
3.85942	0.834
3.9003	0.85
3.94118	0.863
3.98205	0.873
4.02293	0.892
4.0638	0.892
4.10468	0.89
4.14556	0.88
4.18643	0.875
4.22731	0.87
4.26819	0.827
4.30906	0.851
4.34994	0.88
4.39081	0.904
4.43169	0.913
4.47257	0.908
4.51344	0.913
4.55432	0.918
4.59519	0.921
4.63607	0.926
4.67695	0.919
4.71782	0.908
4.7587	0.916
4.79957	0.921
4.84045	0.933
4.88133	0.936
4.9222	0.936
4.96308	0.935
5.00396	0.942
5.04483	0.943
5.08571	0.935
5.12658	0.94
5.16746	0.942
5.20834	0.933
5.24921	0.926
5.29009	0.921
5.33096	0.894
5.37184	0.894
5.41272	0.94
5.45359	0.935
5.49447	0.938
5.53534	0.931
5.57622	0.902
5.6171	0.894
5.65797	0.867
5.69885	0.879
5.73972	0.838
5.7806	0.793
5.82148	0.776
5.86235	0.8
5.90323	0.788
5.94411	0.759
5.98498	0.752
6.02586	0.764
6.06673	0.764
6.10761	0.766
6.14849	0.759
6.18936	0.754
6.23024	0.722
6.27111	0.674
6.31199	0.601
6.35287	0.364
6.39374	0.344
6.43462	0.522
6.47549	0.507
6.51637	0.229
6.55725	0.182
6.59812	0.374
6.639	0.5
6.67988	0.417
6.72075	0.264
6.76163	0.19
6.8025	0.061
6.84338	0.086
6.88426	0.1
6.92513	0.08
6.96601	0.088
7.00688	0.073
7.04776	0.071
7.08864	0.08
7.12951	0.231
7.17039	0.316
7.21126	0.25
7.25214	0.088
7.29302	0.068
7.33389	0.086
7.37477	0.194
7.41564	0.27
7.45652	0.32
7.4974	0.361
7.53827	0.398
7.57915	0.412
7.62003	0.39
7.6609	0.339
7.70178	0.301
7.74265	0.284
7.78353	0.311
7.82441	0.325
7.86528	0.32
7.90616	0.333
7.94703	0.318
7.98791	0.269
8.02879	0.267
8.06966	0.304
8.11054	0.311
8.15141	0.342
8.19229	0.359
8.23317	0.345
8.27404	0.32
8.31492	0.253
8.3558	0.17
8.39667	0.114
8.43755	0.11
8.47842	0.173
8.5193	0.24
8.56018	0.253
8.60105	0.289
8.64193	0.332
8.6828	0.35
8.72368	0.356
8.76456	0.344
8.80543	0.235
8.84631	0.115
8.88718	0.091
8.92806	0.143
8.96894	0.231
9.00981	0.269
9.05069	0.238
9.09156	0.291
9.13244	0.415
9.17332	0.497
9.21419	0.511
9.25507	0.471
9.29595	0.529
9.33682	0.582
9.3777	0.591
9.41857	0.599
9.45945	0.601
9.50033	0.601
9.5412	0.601
9.58208	0.601
9.62295	0.589
9.66383	0.514
9.70471	0.412
9.74558	0.42
9.78646	0.524
9.82733	0.589
9.86821	0.608
9.90909	0.621
9.94996	0.625
9.99084	0.628
10.0317	0.635
10.0726	0.623
10.1135	0.601
10.1543	0.533
10.1952	0.412
10.2361	0.291
10.277	0.323
10.3178	0.446
10.3587	0.533
10.3996	0.586
10.4405	0.613
10.4814	0.633
10.5222	0.637
10.5631	0.643
10.604	0.623
10.6449	0.616
10.6857	0.621
10.7266	0.65
10.7675	0.671
10.8084	0.686
10.8492	0.703
10.8901	0.71
10.931	0.739
10.9719	0.744
11.0127	0.752
11.0536	0.751
11.0945	0.749
11.1354	0.744
11.1762	0.729
11.2171	0.701
11.258	0.679
11.2989	0.671
11.3398	0.679
11.3806	0.689
11.4215	0.698
11.4624	0.691
11.5033	0.66
11.5441	0.613
11.585	0.596
11.6259	0.604
11.6668	0.609
11.7076	0.604
11.7485	0.582
11.7894	0.531
11.8303	0.477
11.8711	0.402
11.912	0.335
11.9529	0.301
11.9938	0.304
12.0346	0.35
12.0755	0.408
12.1164	0.502
12.1573	0.594
12.1981	0.666
12.239	0.718
12.2799	0.744
12.3208	0.756
12.3617	0.756
12.4025	0.763
12.4434	0.766
12.4843	0.78
12.5252	0.785
12.566	0.788
12.6069	0.787
12.6478	0.778
12.6887	0.773
12.7295	0.773
12.7704	0.773
12.8113	0.763
12.8522	0.764
12.893	0.768
12.9339	0.763
12.9748	0.759
13.0157	0.749
13.0565	0.737
13.0974	0.735
13.1383	0.729
13.1792	0.724
13.2201	0.722
13.2609	0.72
13.3018	0.722
13.3427	0.727
13.3836	0.729
13.4244	0.729
13.4653	0.727
13.5062	0.713
13.5471	0.703
13.5879	0.691
13.6288	0.672
13.6697	0.652
13.7106	0.625
13.7514	0.594
13.7923	0.56
13.8332	0.512
13.8741	0.485
13.9149	0.492
13.9558	0.543
13.9967	0.608
14.0376	0.65
14.0784	0.684
14.1193	0.708
14.1602	0.724
14.2011	0.739
14.242	0.744
14.2828	0.754
14.3237	0.756
14.3646	0.768
14.4055	0.773
14.4463	0.778
14.4872	0.787
14.5281	0.798
14.569	0.802
14.6098	0.802
14.6507	0.816
14.6916	0.822
14.7325	0.824
14.7733	0.827
14.8142	0.834
14.8551	0.829
14.896	0.831
14.9368	0.833
14.9777	0.838
15.0186	0.81
15.0595	0.781
15.1004	0.775
15.1412	0.793
15.1821	0.807
15.223	0.814
15.2639	0.814
15.3047	0.809
15.3456	0.805
15.3865	0.8
15.4274	0.79
15.4682	0.785
15.5091	0.783
15.55	0.78
15.5909	0.775
15.6317	0.773
15.6726	0.764
15.7135	0.764
15.7544	0.754
15.7952	0.751
15.8361	0.747
15.877	0.744
15.9179	0.741
15.9587	0.734
