Infrared Spectrum: 1,3-PROPANEDIOL, 2,2-DIMETHYL-, CYCLIC 2,2-DICHLORO-VINYL PHOSPHONATE
Formula: C7 H11 Cl2 O4 P
CAS: 116402-11-0
Class: COBLENTZ
Instrument: Not specified, most likely a prism, grating, or hybrid spectrometer.
Sampling: TRANSMISSION
Path length: 0.0030 CM
Resolution: 4
Origin: TENNESSEE EASTMAN COMPANY, RESEARCH LABORATORIES
MICROMETERS	TRANSMITTANCE
2.066	0.99
2.10553	0.99
2.14506	0.988
2.18459	0.988
2.22412	0.973
2.26365	0.955
2.30317	0.958
2.3427	0.968
2.38223	0.968
2.42176	0.971
2.46129	0.971
2.50082	0.968
2.54035	0.97
2.57988	0.975
2.61941	0.981
2.65894	0.985
2.69846	0.97
2.73799	0.895
2.77752	0.78
2.81705	0.654
2.85658	0.496
2.89611	0.342
2.93564	0.289
2.97517	0.287
3.0147	0.303
3.05423	0.34
3.09375	0.383
3.13328	0.446
3.17281	0.533
3.21234	0.591
3.25187	0.594
3.2914	0.632
3.33093	0.49
3.37046	0.212
3.40999	0.378
3.44952	0.375
3.48904	0.551
3.52857	0.563
3.5681	0.699
3.60763	0.785
3.64716	0.815
3.68669	0.832
3.72622	0.853
3.76575	0.873
3.80528	0.885
3.84481	0.893
3.88433	0.9
3.92386	0.906
3.96339	0.911
4.00292	0.911
4.04245	0.921
4.08198	0.93
4.12151	0.936
4.16104	0.935
4.20057	0.923
4.2401	0.931
4.27962	0.938
4.31915	0.945
4.35868	0.951
4.39821	0.953
4.43774	0.955
4.47727	0.958
4.5168	0.958
4.55633	0.96
4.59586	0.96
4.63539	0.96
4.67491	0.961
4.71444	0.961
4.75397	0.958
4.7935	0.951
4.83303	0.95
4.87256	0.946
4.91209	0.95
4.95162	0.956
4.99115	0.963
5.03068	0.961
5.0702	0.961
5.10973	0.96
5.14926	0.951
5.18879	0.946
5.22832	0.946
5.26785	0.95
5.30738	0.951
5.34691	0.95
5.38644	0.928
5.42597	0.923
5.46549	0.93
5.50502	0.94
5.54455	0.945
5.58408	0.943
5.62361	0.935
5.66314	0.906
5.70267	0.91
5.7422	0.915
5.78173	0.915
5.82126	0.913
5.86079	0.905
5.90031	0.878
5.93984	0.847
5.97937	0.77
6.0189	0.654
6.05843	0.591
6.09796	0.593
6.13749	0.709
6.17702	0.779
6.21655	0.818
6.25608	0.842
6.2956	0.863
6.33513	0.875
6.37466	0.882
6.41419	0.88
6.45372	0.882
6.49325	0.877
6.53278	0.875
6.57231	0.855
6.61184	0.83
6.65137	0.782
6.69089	0.646
6.73042	0.423
6.76995	0.362
6.80948	0.421
6.84901	0.548
6.88854	0.599
6.92807	0.652
6.9676	0.667
7.00713	0.672
7.04666	0.647
7.08618	0.612
7.12571	0.614
7.16524	0.641
7.20477	0.621
7.2443	0.501
7.28383	0.446
7.32336	0.548
7.36289	0.576
7.40242	0.629
7.44195	0.649
7.48147	0.599
7.521	0.475
7.56053	0.279
7.60006	0.239
7.63959	0.2
7.67912	0.141
7.71865	0.107
7.75818	0.088
7.79771	0.096
7.83724	0.142
7.87676	0.192
7.91629	0.247
7.95582	0.303
7.99535	0.353
8.03488	0.383
8.07441	0.393
8.11394	0.383
8.15347	0.363
8.193	0.357
8.23253	0.333
8.27205	0.367
8.31158	0.393
8.35111	0.393
8.39064	0.388
8.43017	0.426
8.4697	0.473
8.50923	0.475
8.54876	0.418
8.58829	0.32
8.62782	0.227
8.66734	0.169
8.70687	0.159
8.7464	0.189
8.78593	0.224
8.82546	0.274
8.86499	0.284
8.90452	0.287
8.94405	0.29
8.98358	0.307
9.02311	0.317
9.06263	0.312
9.10216	0.272
9.14169	0.23
9.18122	0.176
9.22075	0.124
9.26028	0.081
9.29981	0.053
9.33934	0.039
9.37887	0.029
9.4184	0.018
9.45793	0.018
9.49745	0.013
9.53698	0.013
9.57651	0.013
9.61604	0.013
9.65557	0.014
9.6951	0.018
9.73463	0.033
9.77416	0.039
9.81369	0.038
9.85322	0.024
9.89274	0.019
9.93227	0.028
9.9718	0.054
10.0113	0.079
10.0509	0.081
10.0904	0.086
10.1299	0.099
10.1694	0.116
10.209	0.147
10.2485	0.21
10.288	0.318
10.3276	0.4
10.3671	0.453
10.4066	0.49
10.4462	0.498
10.4857	0.476
10.5252	0.421
10.5647	0.431
10.6043	0.549
10.6438	0.599
10.6833	0.609
10.7229	0.606
10.7624	0.576
10.8019	0.504
10.8414	0.438
10.881	0.368
10.9205	0.388
10.96	0.485
10.9996	0.544
11.0391	0.554
11.0786	0.554
11.1181	0.544
11.1577	0.536
11.1972	0.521
11.2367	0.5
11.2763	0.485
11.3158	0.473
11.3553	0.47
11.3948	0.455
11.4344	0.41
11.4739	0.32
11.5134	0.235
11.553	0.139
11.5925	0.093
11.632	0.073
11.6715	0.063
11.7111	0.063
11.7506	0.081
11.7901	0.112
11.8297	0.194
11.8692	0.29
11.9087	0.365
11.9483	0.421
11.9878	0.456
12.0273	0.478
12.0668	0.49
12.1064	0.491
12.1459	0.5
12.1854	0.5
12.225	0.5
12.2645	0.508
12.304	0.511
12.3435	0.518
12.3831	0.518
12.4226	0.503
12.4621	0.475
12.5017	0.451
12.5412	0.42
12.5807	0.413
12.6202	0.413
12.6598	0.413
12.6993	0.433
12.7388	0.481
12.7784	0.516
12.8179	0.521
12.8574	0.523
12.8969	0.529
12.9365	0.548
12.976	0.563
13.0155	0.588
13.0551	0.604
13.0946	0.621
13.1341	0.629
13.1737	0.636
13.2132	0.641
13.2527	0.642
13.2922	0.646
13.3318	0.649
13.3713	0.652
13.4108	0.652
13.4504	0.652
13.4899	0.651
13.5294	0.646
13.5689	0.639
13.6085	0.629
13.648	0.621
13.6875	0.619
13.7271	0.612
13.7666	0.609
13.8061	0.609
13.8456	0.607
13.8852	0.607
13.9247	0.607
13.9642	0.607
14.0038	0.607
14.0433	0.606
14.0828	0.604
14.1223	0.599
14.1619	0.596
14.2014	0.591
14.2409	0.589
14.2805	0.589
14.32	0.589
14.3595	0.589
14.3991	0.591
14.4386	0.589
14.4781	0.589
14.5176	0.589
14.5572	0.589
14.5967	0.588
14.6362	0.583
14.6758	0.578
14.7153	0.573
14.7548	0.568
14.7943	0.563
14.8339	0.558
14.8734	0.551
14.9129	0.543
14.9525	0.536
14.992	0.521
15.0315	0.503
15.071	0.481
15.1106	0.465
15.1501	0.458
15.1896	0.451
15.2292	0.451
15.2687	0.451
15.3082	0.453
15.3477	0.453
15.3873	0.455
15.4268	0.456
15.4663	0.458
15.5059	0.461
15.5454	0.461
15.5849	0.461
15.6245	0.461
15.664	0.465
15.7035	0.465
15.743	0.466
15.7826	0.466
15.8221	0.466
15.8616	0.468
15.9012	0.466
15.9407	0.468
15.9802	0.468
