Infrared Spectrum: Urea,[4-(2-furylmethyl(methyl)amino)-2,2-diphenyl-n-butyl]-,
Formula: C23 H27 N3 O2
CAS: 116496-68-5
State: SOLUTION 7% (CHCl3)
Melting point: 157-158 C
Class: COBLENTZ
Instrument: PERKIN-ELMER 21 (GRATING)
Instrument parameters: FILTER AT ABOUT 10 MICRONS
Path length: 0.01 CM
Resolution: 2
Origin: ABBOTT LABORATORIES
1/CM	TRANSMITTANCE
779	0.8779
788	0.8764
797	0.8295
806	0.735
815	0.7937
824	0.8009
833	0.7993
842	0.7971
851	0.7946
860	0.7786
869	0.7912
878	0.7823
887	0.8117
896	0.786
905	0.7261
914	0.6846
923	0.8338
932	0.819
941	0.7948
950	0.809
959	0.7954
968	0.7951
977	0.7796
986	0.7687
995	0.7082
1004	0.5977
1013	0.6048
1022	0.6489
1031	0.7026
1040	0.7509
1049	0.7606
1058	0.7256
1067	0.6087
1076	0.7263
1085	0.7477
1094	0.7783
1103	0.7536
1112	0.7087
1121	0.6926
1130	0.666
1139	0.4828
1148	0.7067
1157	0.7549
1166	0.7755
1175	0.7805
1184	0.815
1193	0.8049
1202	0.7581
1211	0.7557
1220	0.7448
1229	0.72
1238	0.7085
1247	0.7208
1256	0.7321
1265	0.7194
1274	0.7276
1283	0.7255
1292	0.6857
1301	0.6195
1310	0.5592
1319	0.5501
1328	0.5947
1337	0.6518
1346	0.6608
1355	0.6835
1364	0.6962
1373	0.7105
1382	0.728
1391	0.8051
1400	0.8098
1409	0.7643
1418	0.7434
1427	0.6447
1436	0.4598
1445	0.5522
1454	0.5736
1463	0.6143
1472	0.637
1481	0.4922
1490	0.4618
1499	0.4806
1508	0.4165
1517	0.3201
1526	0.3607
1535	0.4686
1544	0.5087
1553	0.5501
1562	0.5471
1571	0.5177
1580	0.4186
1589	0.3502
1598	0.4151
1607	0.5423
1616	0.616
1625	0.625
1634	0.5924
1643	0.3763
1652	0.2026
1661	0.1656
1670	0.1668
1679	0.2732
1688	0.5171
1697	0.6579
1706	0.8011
1715	0.8269
1724	0.8395
1733	0.8502
1742	0.8579
1751	0.8662
1760	0.8735
1769	0.8776
1778	0.8785
1787	0.8742
1796	0.8686
1805	0.8722
1814	0.8814
1823	0.8892
1832	0.8912
1841	0.8908
1850	0.8833
1859	0.8777
1868	0.8781
1877	0.8806
1886	0.8844
1895	0.8868
1904	0.8884
1913	0.8845
1922	0.8755
1931	0.8698
1940	0.8696
1949	0.8737
1958	0.881
1967	0.8884
1976	0.8912
1985	0.8921
1994	0.8928
2003	0.8934
2012	0.8932
2021	0.8925
2030	0.8915
2039	0.8896
2048	0.8875
2057	0.8859
2066	0.8845
2075	0.8838
2084	0.8834
2093	0.8832
2102	0.8831
2111	0.883
2120	0.8832
2129	0.8835
2138	0.8836
2147	0.8834
2156	0.8826
2165	0.8817
2174	0.881
2183	0.8805
2192	0.8798
2201	0.8793
2210	0.8789
2219	0.8786
2228	0.8804
2237	0.8816
2246	0.8821
2255	0.882
2264	0.8832
2273	0.884
2282	0.8857
2291	0.8887
2300	0.8864
2309	0.8835
2318	0.8812
2327	0.8795
2336	0.8809
2345	0.8841
2354	0.8892
2363	0.8937
2372	0.8879
2381	0.8775
2390	0.8686
2399	0.8614
2408	0.856
2417	0.8528
2426	0.8508
2435	0.849
2444	0.8479
2453	0.8481
2462	0.8483
2471	0.8486
2480	0.8491
2489	0.8497
2498	0.8503
2507	0.8512
2516	0.852
2525	0.8527
2534	0.8535
2543	0.8542
2552	0.8548
2561	0.8554
2570	0.8557
2579	0.8555
2588	0.8545
2597	0.8537
2606	0.8519
2615	0.8499
2624	0.8459
2633	0.8409
2642	0.8357
2651	0.8288
2660	0.8212
2669	0.8127
2678	0.803
2687	0.7926
2696	0.7817
2705	0.7696
2714	0.7565
2723	0.7386
2732	0.7087
2741	0.6875
2750	0.6701
2759	0.6529
2768	0.6387
2777	0.639
2786	0.6463
2795	0.6499
2804	0.6473
2813	0.6448
2822	0.6447
2831	0.6435
2840	0.64
2849	0.6364
2858	0.6308
2867	0.6163
2876	0.5973
2885	0.5803
2894	0.56
2903	0.5484
2912	0.5409
2921	0.5344
2930	0.5226
2939	0.4971
2948	0.4855
2957	0.4831
2966	0.5318
2975	0.6646
2984	0.7057
2993	0.7063
3002	0.7067
3011	0.7073
3020	0.7094
3029	0.7153
3038	0.7272
3047	0.7406
3056	0.746
3065	0.7448
3074	0.7439
3083	0.7426
3092	0.7409
3101	0.7384
3110	0.7352
3119	0.7326
3128	0.73
3137	0.7287
3146	0.7296
3155	0.732
3164	0.7342
3173	0.7353
3182	0.7347
3191	0.7327
3200	0.7296
3209	0.7263
3218	0.7228
3227	0.7185
3236	0.7138
3245	0.7077
3254	0.701
3263	0.6934
3272	0.686
3281	0.6784
3290	0.671
3299	0.6637
3308	0.6563
3317	0.6489
3326	0.6417
3335	0.6344
3344	0.6272
3353	0.6201
3362	0.6163
3371	0.618
3380	0.6444
3389	0.679
3398	0.7107
3407	0.7164
3416	0.7088
3425	0.6962
3434	0.6836
3443	0.6711
3452	0.6637
3461	0.6684
3470	0.6811
3479	0.7214
3488	0.7862
3497	0.8183
3506	0.8261
3515	0.8312
3524	0.8348
3533	0.8368
3542	0.8385
3551	0.8395
3560	0.8407
3569	0.842
3578	0.8433
3587	0.8448
3596	0.8465
3605	0.8493
3614	0.8532
3623	0.8565
3632	0.8593
3641	0.8592
3650	0.857
3659	0.8535
3668	0.8504
3677	0.8476
3686	0.8454
3695	0.8446
3704	0.8442
3713	0.8444
3722	0.8447
3731	0.8453
3740	0.846
3749	0.8467
3758	0.8474
3767	0.8473
3776	0.8467
3785	0.8454
3794	0.8436
3803	0.842
3812	0.8408
3821	0.8402
3830	0.8403
3839	0.8405
3848	0.8408
3857	0.8411
3866	0.8415
3875	0.8419
3884	0.8423
3893	0.8426
3902	0.8429
3911	0.8433
3920	0.8436
3929	0.8439
3938	0.8442
3947	0.8445
3956	0.8447
3965	0.8449
3974	0.8452
3983	0.8455
3992	0.8458
