Infrared Spectrum: 19-NORTESTOSTERONE, 4-CHLORO-, ACETATE
Formula: C20 H27 Cl O3
CAS: 1164-99-4
State: SOLID (OIL MULL)
Class: COBLENTZ III
Instrument: PERKIN-ELMER 21 (GRATING)
Instrument parameters: NaCl PRISM
Sampling: TRANSMISSION
Resolution: 2
Origin: SMITH, KLINE & FRENCH LABS.
1/CM	TRANSMITTANCE
673	0.7409
682	0.7326
691	0.746
700	0.7504
709	0.7841
718	0.7635
727	0.7684
736	0.7815
745	0.8039
754	0.8161
763	0.8151
772	0.8197
781	0.8129
790	0.7985
799	0.6225
808	0.7835
817	0.7773
826	0.7049
835	0.504
844	0.7801
853	0.788
862	0.6924
871	0.7994
880	0.7986
889	0.7607
898	0.4927
907	0.7738
916	0.7501
925	0.6901
934	0.7533
943	0.7378
952	0.6783
961	0.6589
970	0.6104
979	0.5034
988	0.668
997	0.599
1006	0.4994
1015	0.3373
1024	0.345
1033	0.3966
1042	0.2423
1051	0.2455
1060	0.5641
1069	0.6546
1078	0.6799
1087	0.6677
1096	0.6887
1105	0.6373
1114	0.4129
1123	0.5928
1132	0.6795
1141	0.6117
1150	0.6339
1159	0.6327
1168	0.5525
1177	0.4614
1186	0.5848
1195	0.5053
1204	0.3533
1213	0.2623
1222	0.21
1231	0.0815
1240	0.1003
1249	0.1957
1258	0.3164
1267	0.4463
1276	0.4588
1285	0.3916
1294	0.5884
1303	0.5972
1312	0.4669
1321	0.6022
1330	0.5837
1339	0.5699
1348	0.4823
1357	0.2389
1366	0.2638
1375	0.2309
1384	0.349
1393	0.5521
1402	0.6459
1411	0.6158
1420	0.5411
1429	0.4349
1438	0.3192
1447	0.1792
1456	0.131
1465	0.143
1474	0.3818
1483	0.5452
1492	0.6617
1501	0.6765
1510	0.7144
1519	0.7249
1528	0.715
1537	0.6974
1546	0.6896
1555	0.6703
1564	0.6359
1573	0.5576
1582	0.2483
1591	0.4235
1600	0.6722
1609	0.6824
1618	0.6675
1627	0.6444
1636	0.594
1645	0.5552
1654	0.5136
1663	0.4442
1672	0.2554
1681	0.0988
1690	0.0991
1699	0.4596
1708	0.5595
1717	0.4578
1726	0.258
1735	0.103
1744	0.3158
1753	0.6946
1762	0.7753
1771	0.8067
1780	0.8164
1789	0.8057
1798	0.7953
1807	0.79
1816	0.8146
1825	0.8404
1834	0.8396
1843	0.838
1852	0.8369
1861	0.836
1870	0.8349
1879	0.8338
1888	0.8328
1897	0.8302
1906	0.8272
1915	0.8239
1924	0.8209
1933	0.8182
1942	0.8154
1951	0.8118
1960	0.8084
1969	0.8051
1978	0.8031
1987	0.801
1996	0.799
2005	0.7971
2014	0.7954
2023	0.7937
2032	0.7919
2041	0.7902
2050	0.7886
2059	0.7869
2068	0.7852
2077	0.7837
2086	0.7824
2095	0.7812
2104	0.78
2113	0.7788
2122	0.7776
2131	0.7763
2140	0.7749
2149	0.7735
2158	0.7723
2167	0.771
2176	0.7695
2185	0.7679
2194	0.7664
2203	0.7649
2212	0.7634
2221	0.761
2230	0.7583
2239	0.755
2248	0.7517
2257	0.749
2266	0.7466
2275	0.7443
2284	0.7398
2293	0.7352
2302	0.7319
2311	0.7292
2320	0.7267
2329	0.7251
2338	0.7242
2347	0.7245
2356	0.725
2365	0.7254
2374	0.7236
2383	0.7216
2392	0.719
2401	0.7163
2410	0.7134
2419	0.71
2428	0.7068
2437	0.7056
2446	0.7044
2455	0.7032
2464	0.7024
2473	0.7015
2482	0.7006
2491	0.6996
2500	0.6972
2509	0.6947
2518	0.6902
2527	0.6856
2536	0.6789
2545	0.672
2554	0.6652
2563	0.6588
2572	0.6525
2581	0.6462
2590	0.6406
2599	0.6351
2608	0.63
2617	0.6261
2626	0.6223
2635	0.6196
2644	0.618
2653	0.6165
2662	0.6149
2671	0.6133
2680	0.6124
2689	0.6117
2698	0.6111
2707	0.6104
2716	0.6097
2725	0.6089
2734	0.6066
2743	0.5902
2752	0.5695
2761	0.5449
2770	0.5121
2779	0.4732
2788	0.3835
2797	0.286
2806	0.2009
2815	0.148
2824	0.1029
2833	0.0721
2842	0.0653
2851	0.0656
2860	0.0655
2869	0.0651
2878	0.0647
2887	0.0642
2896	0.0636
2905	0.0629
2914	0.0648
2923	0.0679
2932	0.072
2941	0.0839
2950	0.2065
2959	0.2996
2968	0.3275
2977	0.3816
2986	0.4177
2995	0.4462
3004	0.4642
3013	0.4781
3022	0.4896
3031	0.4991
3040	0.5055
3049	0.508
3058	0.5104
3067	0.5211
3076	0.5286
3085	0.5294
3094	0.5302
3103	0.5307
3112	0.531
3121	0.5313
3130	0.5317
3139	0.5322
3148	0.5326
3157	0.5355
3166	0.5376
3175	0.5378
3184	0.5377
3193	0.5375
3202	0.5374
3211	0.5372
3220	0.537
3229	0.5368
3238	0.5367
3247	0.5364
3256	0.5357
3265	0.5347
3274	0.5338
3283	0.5328
3292	0.5292
3301	0.5249
3310	0.5216
3319	0.5184
3328	0.5156
3337	0.5133
3346	0.512
3355	0.5113
3364	0.5108
3373	0.5109
3382	0.511
3391	0.5111
3400	0.5121
3409	0.5137
3418	0.5153
3427	0.517
3436	0.5217
3445	0.527
3454	0.5314
3463	0.5356
3472	0.537
3481	0.5376
3490	0.5373
3499	0.5369
3508	0.536
3517	0.535
3526	0.5341
3535	0.5327
3544	0.5314
3553	0.5302
3562	0.5289
3571	0.5277
3580	0.5262
3589	0.5245
3598	0.5228
3607	0.5211
3616	0.5195
3625	0.5179
3634	0.5161
3643	0.5143
3652	0.5125
3661	0.5106
3670	0.5089
3679	0.5072
3688	0.5057
3697	0.5044
3706	0.503
3715	0.5015
3724	0.4995
3733	0.4976
3742	0.4958
3751	0.494
3760	0.4926
3769	0.4911
3778	0.4897
3787	0.4883
3796	0.4869
3805	0.4855
3814	0.4841
3823	0.4827
3832	0.4813
3841	0.4799
3850	0.4786
3859	0.477
3868	0.4753
3877	0.4737
3886	0.472
3895	0.4704
3904	0.4687
3913	0.4671
3922	0.4654
3931	0.4638
3940	0.4622
3949	0.4606
3958	0.459
3967	0.4575
3976	0.4559
3985	0.4543
3994	0.453
