Infrared Spectrum: Thioxanthene-3,7-diamine, 10,10-dioxide
Formula: C13 H12 N2 O2 S
CAS: 116496-60-7
State: SOLID (SPLIT MULL), FLUOROLUBE FOR 3800-1330 CM^-^1, NUJOL FOR 1330-400 CM^-^1
Class: COBLENTZ III
Instrument: DOW KBr FOREPRISM-GRATING
Instrument parameters: BLAZED AT 3.5, 12.0, 20.0 MICRON AND CHANGED AT 5.0, 7.5, 14.9 MICRON
Sampling: TRANSMISSION
Resolution: 2
Origin: DOW CHEMICAL COMPANY
1/CM	TRANSMITTANCE
384	0.5187
393	0.5067
402	0.4912
411	0.4677
420	0.4547
429	0.4492
438	0.3874
447	0.3866
456	0.3806
465	0.4239
474	0.5954
483	0.602
492	0.5834
501	0.5618
510	0.5425
519	0.5156
528	0.4798
537	0.4179
546	0.3246
555	0.0107
564	0.1571
573	0.3093
582	0.2594
591	0.1916
600	0.0506
609	0.3506
618	0.6066
627	0.4174
636	0.4044
645	0.4384
654	0.4778
663	0.5291
672	0.5764
681	0.6128
690	0.3272
699	0.3238
708	0.3332
717	0.2178
726	0.5927
735	0.7355
744	0.7755
753	0.8088
762	0.8343
771	0.8525
780	0.8625
789	0.8446
798	0.5978
807	0.7026
816	0.7851
825	0.7151
834	0.1475
843	0.6339
852	0.7044
861	0.6112
870	0.7824
879	0.8483
888	0.8478
897	0.8312
906	0.7601
915	0.7699
924	0.6145
933	0.8238
942	0.853
951	0.8128
960	0.7951
969	0.8581
978	0.8662
987	0.8652
996	0.8582
1005	0.8488
1014	0.838
1023	0.8244
1032	0.7765
1041	0.544
1050	0.7692
1059	0.7636
1068	0.7475
1077	0.7186
1086	0.6962
1095	0.7322
1104	0.7237
1113	0.6422
1122	0.5071
1131	0.1116
1140	0.0158
1149	0.1684
1158	0.0391
1167	0.5167
1176	0.5365
1185	0.7395
1194	0.7371
1203	0.6544
1212	0.7357
1221	0.7156
1230	0.5999
1239	0.6687
1248	0.6182
1257	0.4329
1266	0.1634
1275	0.0469
1284	0.0076
1293	0.0798
1302	0.2329
1311	0.233
1320	0.4385
1329	0.6782
1338	0.7068
1347	0.7171
1356	0.7754
1365	0.7812
1374	0.7885
1383	0.781
1392	0.7938
1401	0.7939
1410	0.7772
1419	0.7297
1428	0.5948
1437	0.559
1446	0.775
1455	0.7689
1464	0.6961
1473	0.5534
1482	0.3734
1491	0.0114
1500	0.0344
1509	0.5353
1518	0.7421
1527	0.8138
1536	0.8239
1545	0.821
1554	0.8168
1563	0.7097
1572	0.7446
1581	0.753
1590	0.6755
1599	0.393
1608	0.1636
1617	0.0717
1626	0.1183
1635	0.3023
1644	0.1906
1653	0.5944
1662	0.7146
1671	0.8238
1680	0.8447
1689	0.8333
1698	0.7745
1707	0.7488
1716	0.8097
1725	0.8811
1734	0.8856
1743	0.8806
1752	0.8777
1761	0.8787
1770	0.8767
1779	0.8695
1788	0.8711
1797	0.8727
1806	0.8712
1815	0.8706
1824	0.8687
1833	0.8665
1842	0.8638
1851	0.8651
1860	0.8611
1869	0.8589
1878	0.8511
1887	0.8475
1896	0.8488
1905	0.8075
1914	0.8404
1923	0.8361
1932	0.8378
1941	0.8482
1950	0.8481
1959	0.8471
1968	0.834
1977	0.8343
1986	0.8335
1995	0.8394
2004	0.8474
2013	0.8471
2022	0.8461
2031	0.8437
2040	0.838
2049	0.8313
2058	0.8254
2067	0.8252
2076	0.8255
2085	0.8257
2094	0.827
2103	0.8254
2112	0.8225
2121	0.8191
2130	0.8154
2139	0.8111
2148	0.8069
2157	0.8035
2166	0.7946
2175	0.788
2184	0.7868
2193	0.7861
2202	0.7846
2211	0.7832
2220	0.7819
2229	0.7807
2238	0.7781
2247	0.7737
2256	0.7697
2265	0.7662
2274	0.7625
2283	0.7624
2292	0.7533
2301	0.7592
2310	0.7546
2319	0.7308
2328	0.7424
2337	0.7576
2346	0.7451
2355	0.7548
2364	0.7544
2373	0.7536
2382	0.7507
2391	0.7448
2400	0.7395
2409	0.7368
2418	0.7408
2427	0.746
2436	0.7506
2445	0.7492
2454	0.7465
2463	0.7492
2472	0.751
2481	0.7505
2490	0.7482
2499	0.7451
2508	0.7425
2517	0.7398
2526	0.7376
2535	0.7357
2544	0.7339
2553	0.7321
2562	0.73
2571	0.7265
2580	0.7221
2589	0.7165
2598	0.7103
2607	0.7051
2616	0.7039
2625	0.7045
2634	0.7043
2643	0.7018
2652	0.6969
2661	0.6948
2670	0.6946
2679	0.6936
2688	0.6915
2697	0.6886
2706	0.6848
2715	0.6796
2724	0.6728
2733	0.6654
2742	0.6599
2751	0.6624
2760	0.6668
2769	0.6658
2778	0.6608
2787	0.6561
2796	0.65
2805	0.6307
2814	0.5375
2823	0.6506
2832	0.651
2841	0.6431
2850	0.6262
2859	0.5886
2868	0.5162
2877	0.6344
2886	0.6347
2895	0.6315
2904	0.628
2913	0.6225
2922	0.6182
2931	0.6169
2940	0.6102
2949	0.5972
2958	0.5918
2967	0.6068
2976	0.6043
2985	0.5969
2994	0.5903
3003	0.5879
3012	0.5857
3021	0.5695
3030	0.5345
3039	0.5512
3048	0.4907
3057	0.5232
3066	0.5717
3075	0.5728
3084	0.578
3093	0.5771
3102	0.5734
3111	0.5691
3120	0.5655
3129	0.5625
3138	0.559
3147	0.5546
3156	0.5501
3165	0.5432
3174	0.5343
3183	0.5208
3192	0.5026
3201	0.4912
3210	0.4806
3219	0.4659
3228	0.4496
3237	0.3743
3246	0.3554
3255	0.3945
3264	0.3987
3273	0.4467
3282	0.4577
3291	0.4547
3300	0.4485
3309	0.4372
3318	0.4141
3327	0.3852
3336	0.3542
3345	0.2928
3354	0.2228
3363	0.0006
3372	0.0453
3381	0.307
3390	0.4146
3399	0.4123
3408	0.3784
3417	0.3344
3426	0.2249
3435	0.0103
3444	0.1748
3453	0.1396
3462	0.4097
3471	0.4612
3480	0.4816
3489	0.4934
3498	0.4962
3507	0.4968
3516	0.4975
3525	0.499
3534	0.5022
3543	0.5062
3552	0.5074
3561	0.5006
3570	0.4937
3579	0.4895
3588	0.4952
3597	0.4943
3606	0.4903
3615	0.497
3624	0.4974
3633	0.4965
3642	0.4957
3651	0.4947
3660	0.4936
3669	0.4921
3678	0.4898
3687	0.4862
3696	0.4803
3705	0.4743
3714	0.4689
3723	0.468
3732	0.4676
3741	0.4668
3750	0.4654
3759	0.4639
3768	0.4623
3777	0.4606
3786	0.4591
3795	0.4577
