Infrared Spectrum: 2-(p-NONYLPHENOXY)-6-TRIDECYL PYRAZINE
Formula: C32 H52 N2 O
CAS: 116403-08-8
State: LIQUID
Class: COBLENTZ
Instrument: Not specified, most likely a prism, grating, or hybrid spectrometer.
Sampling: TRANSMISSION
Path length: 0.0015 CM
Resolution: 4
Origin: WYANDOTTE CHEMICALS CORP., WYANDOTTE, MICHIGAN, USA
MICROMETERS	TRANSMITTANCE
2.027	0.952
2.06788	0.95
2.10875	0.943
2.14963	0.947
2.19051	0.917
2.23138	0.868
2.27226	0.875
2.31314	0.88
2.35401	0.88
2.39489	0.882
2.43576	0.895
2.47664	0.904
2.51752	0.909
2.55839	0.912
2.59927	0.912
2.64015	0.919
2.68102	0.914
2.7219	0.912
2.76278	0.914
2.80365	0.916
2.84453	0.904
2.88541	0.892
2.92628	0.887
2.96716	0.88
3.00804	0.852
3.04891	0.837
3.08979	0.811
3.13066	0.805
3.17154	0.782
3.21242	0.767
3.25329	0.695
3.29417	0.564
3.33505	0.328
3.37592	0.044
3.4168	0.047
3.45768	0.09
3.49855	0.071
3.53943	0.401
3.58031	0.663
3.62118	0.757
3.66206	0.77
3.70294	0.781
3.74381	0.798
3.78469	0.811
3.82556	0.817
3.86644	0.832
3.90732	0.842
3.94819	0.854
3.98907	0.861
4.02995	0.868
4.07082	0.861
4.1117	0.858
4.15258	0.852
4.19345	0.856
4.23433	0.851
4.27521	0.844
4.31608	0.863
4.35696	0.871
4.39783	0.88
4.43871	0.88
4.47959	0.873
4.52046	0.883
4.56134	0.894
4.60222	0.888
4.64309	0.89
4.68397	0.888
4.72485	0.89
4.76572	0.89
4.8066	0.89
4.84748	0.882
4.88835	0.871
4.92923	0.864
4.97011	0.861
5.01098	0.864
5.05186	0.88
5.09273	0.873
5.13361	0.89
5.17449	0.888
5.21536	0.887
5.25624	0.89
5.29712	0.87
5.33799	0.834
5.37887	0.863
5.41975	0.875
5.46062	0.88
5.5015	0.875
5.54238	0.876
5.58325	0.871
5.62413	0.863
5.66501	0.841
5.70588	0.829
5.74676	0.842
5.78763	0.832
5.82851	0.818
5.86939	0.808
5.91026	0.8
5.95114	0.782
5.99202	0.765
6.03289	0.736
6.07377	0.747
6.11465	0.76
6.15552	0.716
6.1964	0.593
6.23728	0.642
6.27815	0.576
6.31903	0.608
6.35991	0.671
6.40078	0.654
6.44166	0.492
6.48253	0.314
6.52341	0.447
6.56429	0.398
6.60516	0.112
6.64604	0.198
6.68692	0.396
6.72779	0.406
6.76867	0.145
6.80955	0.061
6.85042	0.099
6.8913	0.145
6.93218	0.174
6.97305	0.242
7.01393	0.331
7.05481	0.235
7.09568	0.162
7.13656	0.28
7.17743	0.251
7.21831	0.078
7.25919	0.044
7.30006	0.046
7.34094	0.071
7.38182	0.128
7.42269	0.191
7.46357	0.249
7.50445	0.357
7.54532	0.393
7.5862	0.35
7.62708	0.283
7.66795	0.244
7.70883	0.211
7.74971	0.182
7.79058	0.189
7.83146	0.232
7.87233	0.287
7.91321	0.335
7.95409	0.35
7.99496	0.317
8.03584	0.329
8.07672	0.295
8.11759	0.227
8.15847	0.152
8.19935	0.07
8.24022	0.054
8.2811	0.152
8.32198	0.309
8.36285	0.376
8.40373	0.326
8.4446	0.167
8.48548	0.056
8.52636	0.061
8.56723	0.157
8.60811	0.271
8.64899	0.237
8.68986	0.285
8.73074	0.411
8.77162	0.507
8.81249	0.57
8.85337	0.62
8.89425	0.596
8.93512	0.536
8.976	0.511
9.01688	0.577
9.05775	0.608
9.09863	0.61
9.1395	0.613
9.18038	0.62
9.22126	0.629
9.26213	0.632
9.30301	0.649
9.34389	0.67
9.38476	0.682
9.42564	0.7
9.46652	0.697
9.50739	0.7
9.54827	0.69
9.58915	0.67
9.63002	0.646
9.6709	0.606
9.71178	0.572
9.75265	0.505
9.79353	0.405
9.8344	0.222
9.87528	0.321
9.91616	0.432
9.95703	0.538
9.99791	0.6
10.0388	0.659
10.0797	0.68
10.1205	0.7
10.1614	0.704
10.2023	0.7
10.2432	0.683
10.284	0.688
10.3249	0.688
10.3658	0.688
10.4067	0.699
10.4476	0.719
10.4884	0.723
10.5293	0.735
10.5702	0.75
10.6111	0.75
10.6519	0.741
10.6928	0.733
10.7337	0.741
10.7746	0.743
10.8154	0.745
10.8563	0.75
10.8972	0.753
10.9381	0.752
10.9789	0.752
11.0198	0.747
11.0607	0.738
11.1016	0.733
11.1425	0.719
11.1833	0.688
11.2242	0.659
11.2651	0.63
11.306	0.613
11.3468	0.611
11.3877	0.632
11.4286	0.651
11.4695	0.664
11.5103	0.656
11.5512	0.651
11.5921	0.647
11.633	0.627
11.6738	0.586
11.7147	0.526
11.7556	0.482
11.7965	0.442
11.8374	0.396
11.8782	0.355
11.9191	0.333
11.96	0.321
12.0009	0.331
12.0417	0.357
12.0826	0.4
12.1235	0.466
12.1644	0.524
12.2052	0.56
12.2461	0.593
12.287	0.605
12.3279	0.62
12.3687	0.644
12.4096	0.664
12.4505	0.7
12.4914	0.69
12.5323	0.688
12.5731	0.687
12.614	0.678
12.6549	0.68
12.6958	0.695
12.7366	0.688
12.7775	0.683
12.8184	0.687
12.8593	0.692
12.9001	0.7
12.941	0.705
12.9819	0.711
13.0228	0.716
13.0636	0.719
13.1045	0.719
13.1454	0.714
13.1863	0.712
13.2272	0.709
13.268	0.705
13.3089	0.707
13.3498	0.702
13.3907	0.695
13.4315	0.687
13.4724	0.68
13.5133	0.671
13.5542	0.666
13.595	0.659
13.6359	0.661
13.6768	0.649
13.7177	0.641
13.7585	0.618
13.7994	0.603
13.8403	0.601
13.8812	0.562
13.9221	0.565
13.9629	0.603
14.0038	0.637
14.0447	0.671
14.0856	0.69
14.1264	0.717
14.1673	0.729
14.2082	0.736
14.2491	0.75
14.2899	0.762
14.3308	0.757
14.3717	0.758
14.4126	0.758
14.4534	0.75
14.4943	0.753
14.5352	0.748
14.5761	0.745
14.617	0.735
14.6578	0.733
14.6987	0.729
14.7396	0.728
14.7805	0.726
14.8213	0.724
14.8622	0.726
14.9031	0.728
14.944	0.729
14.9848	0.721
15.0257	0.694
15.0666	0.699
15.1075	0.74
15.1483	0.736
15.1892	0.726
15.2301	0.719
15.271	0.714
15.3119	0.716
15.3527	0.707
15.3936	0.697
15.4345	0.699
15.4754	0.694
15.5162	0.683
15.5571	0.685
15.598	0.694
15.6389	0.688
15.6797	0.676
15.7206	0.685
15.7615	0.68
15.8024	0.67
15.8432	0.661
15.8841	0.654
15.925	0.649
15.9659	0.644
