Infrared Spectrum: 1,3-DI(p-NITROBENZYL)-5-AMYL-5-ETHYLBARBITURIC ACID
Formula: C25 H28 N4 O7
CAS: 116465-41-9
State: SOLUTION (7% IN CHCl3)
Class: COBLENTZ
Instrument: PERKIN-ELMER
Sampling: TRANSMISSION
Path length: 0.010 CM
Resolution: 4
Origin: ABBOTT LABORATORIES - WASHBURN
MICROMETERS	TRANSMITTANCE
2.063	0.978
2.10268	0.97
2.14237	0.968
2.18205	0.968
2.22174	0.968
2.26142	0.97
2.3011	0.9662
2.34079	0.9611
2.38047	0.958
2.42016	0.9581
2.45984	0.956
2.49952	0.958
2.53921	0.958
2.57889	0.963
2.61857	0.9697
2.65826	0.9662
2.69794	0.9683
2.73763	0.961
2.77731	0.965
2.81699	0.9452
2.85668	0.9379
2.89636	0.9409
2.93605	0.935
2.97573	0.925
3.01541	0.926
3.0551	0.9328
3.09478	0.9301
3.13447	0.9301
3.17415	0.9347
3.21383	0.9282
3.25352	0.9114
3.2932	0.8855
3.33288	0.8612
3.37257	0.7522
3.41225	0.677
3.45194	0.7499
3.49162	0.773
3.5313	0.8281
3.57099	0.8942
3.61067	0.9276
3.65036	0.9348
3.69004	0.9409
3.72972	0.945
3.76941	0.948
3.80909	0.9509
3.84878	0.9431
3.88846	0.943
3.92814	0.943
3.96783	0.945
4.00751	0.95
4.04719	0.9478
4.08688	0.941
4.12656	0.93
4.16625	0.9328
4.20593	0.9448
4.24561	0.946
4.2853	0.95
4.32498	0.946
4.36467	0.943
4.40435	0.938
4.44403	0.945
4.48372	0.946
4.5234	0.945
4.56309	0.9447
4.60277	0.9459
4.64245	0.9483
4.68214	0.95
4.72182	0.951
4.7615	0.9462
4.80119	0.9481
4.84087	0.9529
4.88056	0.951
4.92024	0.948
4.95992	0.946
4.99961	0.948
5.03929	0.951
5.07898	0.946
5.11866	0.9453
5.15834	0.9346
5.19803	0.921
5.23771	0.9315
5.2774	0.9382
5.31708	0.945
5.35676	0.943
5.39645	0.94
5.43613	0.9404
5.47581	0.935
5.5155	0.9271
5.55518	0.9158
5.59487	0.908
5.63455	0.9059
5.67423	0.8953
5.71392	0.856
5.7536	0.7973
5.79329	0.8068
5.83297	0.7804
5.87265	0.6164
5.91234	0.2889
5.95202	0.0677
5.99171	0.0552
6.03139	0.5036
6.07107	0.6483
6.11076	0.7565
6.15044	0.794
6.19012	0.7861
6.22981	0.462
6.26949	0.5908
6.30918	0.7821
6.34886	0.811
6.38854	0.8209
6.42823	0.821
6.46791	0.7893
6.5076	0.6816
6.54728	0.3647
6.58696	0.1455
6.62665	0.3015
6.66633	0.5194
6.70602	0.663
6.7457	0.6614
6.78538	0.7626
6.82507	0.7393
6.86475	0.6337
6.90443	0.5935
6.94412	0.4574
6.9838	0.2117
7.02349	0.1968
7.06317	0.3129
7.10285	0.3325
7.14254	0.2575
7.18222	0.2526
7.22191	0.1901
7.26159	0.2441
7.30127	0.3778
7.34096	0.4769
7.38064	0.4209
7.42033	0.2056
7.46001	0.0433
7.49969	0.0265
7.53938	0.3012
7.57906	0.5048
7.61875	0.5438
7.65843	0.4834
7.69811	0.4416
7.7378	0.5592
7.77748	0.603
7.81716	0.5371
7.85685	0.4558
7.89653	0.4369
7.93622	0.4975
7.9759	0.6382
8.01558	0.7611
8.05527	0.7897
8.09495	0.7828
8.13464	0.7673
8.17432	0.758
8.214	0.76
8.25369	0.767
8.29337	0.7721
8.33306	0.778
8.37274	0.7867
8.41242	0.7502
8.45211	0.6108
8.49179	0.5545
8.53147	0.586
8.57116	0.6991
8.61084	0.7347
8.65053	0.7246
8.69021	0.72
8.72989	0.6976
8.76958	0.6723
8.80926	0.7276
8.84895	0.7742
8.88863	0.79
8.92831	0.7746
8.968	0.7479
9.00768	0.6579
9.04737	0.5102
9.08705	0.5382
9.12673	0.6427
9.16642	0.7483
9.2061	0.7774
9.24578	0.808
9.28547	0.8385
9.32515	0.8562
9.36484	0.87
9.40452	0.8922
9.4442	0.9006
9.48389	0.9097
9.52357	0.9142
9.56326	0.918
9.60294	0.9252
9.64262	0.9209
9.68231	0.9065
9.72199	0.8808
9.76168	0.8508
9.80136	0.8139
9.84104	0.7385
9.88073	0.6976
9.92041	0.7958
9.96009	0.836
9.99978	0.846
10.0395	0.84
10.0791	0.8522
10.1188	0.8796
10.1585	0.902
10.1982	0.908
10.2379	0.91
10.2776	0.9105
10.3172	0.905
10.3569	0.906
10.3966	0.911
10.4363	0.906
10.476	0.9073
10.5157	0.912
10.5554	0.9153
10.595	0.92
10.6347	0.9127
10.6744	0.9031
10.7141	0.8913
10.7538	0.883
10.7935	0.8717
10.8331	0.8473
10.8728	0.8289
10.9125	0.818
10.9522	0.816
10.9919	0.8249
11.0316	0.8448
11.0712	0.8695
11.1109	0.8941
11.1506	0.9122
11.1903	0.9189
11.23	0.9254
11.2697	0.9245
11.3093	0.92
11.349	0.916
11.3887	0.9082
11.4284	0.8935
11.4681	0.8558
11.5078	0.8143
11.5475	0.7839
11.5871	0.7615
11.6268	0.7276
11.6665	0.6744
11.7062	0.5711
11.7459	0.5383
11.7856	0.5911
11.8252	0.6692
11.8649	0.7462
11.9046	0.7781
11.9443	0.8084
11.984	0.8251
12.0237	0.84
12.0633	0.845
12.103	0.8523
12.1427	0.855
12.1824	0.8385
12.2221	0.8177
12.2618	0.798
12.3014	0.7826
12.3411	0.7529
12.3808	0.7202
12.4205	0.6934
12.4602	0.6906
12.4999	0.7105
12.5395	0.728
12.5792	0.7429
12.6189	0.7534
12.6586	0.767
12.6983	0.772
12.738	0.775
12.7777	0.7811
12.8173	0.7876
12.857	0.792
12.8967	0.793
12.9364	0.793
12.9761	0.793
13.0158	0.795
13.0554	0.7998
13.0951	0.806
13.1348	0.8142
13.1745	0.82
13.2142	0.821
13.2539	0.8235
13.2935	0.83
13.3332	0.831
13.3729	0.8401
13.4126	0.8459
13.4523	0.8494
13.492	0.851
13.5316	0.8582
13.5713	0.8674
13.611	0.8715
13.6507	0.875
13.6904	0.883
13.7301	0.8877
13.7697	0.893
13.8094	0.8944
13.8491	0.9005
13.8888	0.906
13.9285	0.911
13.9682	0.91
14.0079	0.911
14.0475	0.9011
14.0872	0.8866
14.1269	0.8654
14.1666	0.8302
14.2063	0.7826
14.246	0.7308
14.2856	0.7078
14.3253	0.6891
14.365	0.663
14.4047	0.6646
14.4444	0.6922
14.4841	0.7375
14.5237	0.7718
14.5634	0.8068
14.6031	0.8324
14.6428	0.8533
14.6825	0.8712
14.7222	0.8828
14.7618	0.893
14.8015	0.9025
14.8412	0.9169
14.8809	0.923
14.9206	0.925
14.9603	0.923
14.9999	0.9231
15.0396	0.9251
15.0793	0.9182
15.119	0.9207
15.1587	0.9256
15.1984	0.93
15.2381	0.923
15.2777	0.928
15.3174	0.931
15.3571	0.9329
15.3968	0.9283
15.4365	0.9295
