Infrared Spectrum: 2,6-PYRIDINEDICARBAMIC ACID, 3,4-DIAMINO-, DIETHYL ESTER, HYDROCHLORIDE
Formula: C11 H18 Cl N5 O4
CAS: 116403-19-1
State: SOLID (1 mg / 650 mg KBr DISC)
Class: COBLENTZ III
Instrument: PERKIN-ELMER 521 (GRATING)
Instrument parameters: FILTERS AT 3150, 2500, 2000, 1150, 700, 410 CM ^-^1, GRATING CHANGES AT 2000, 630 CM ^-^1
Sampling: TRANSMISSION
Resolution: 4
Origin: SOUTHERN RES. INSTITUTE
1/CM	TRANSMITTANCE
252.778	0.34
261.831	0.3669
270.884	0.4289
279.936	0.4622
288.989	0.5071
298.042	0.5467
307.095	0.5753
316.148	0.5882
325.2	0.6052
334.253	0.627
343.306	0.634
352.359	0.631
361.412	0.6313
370.464	0.6393
379.517	0.6698
388.57	0.7003
397.623	0.7059
406.676	0.7
415.728	0.699
424.781	0.7019
433.834	0.7079
442.887	0.709
451.94	0.71
460.993	0.7114
470.045	0.711
479.098	0.709
488.151	0.7005
497.204	0.6921
506.257	0.6816
515.309	0.6767
524.362	0.6657
533.415	0.6475
542.468	0.6338
551.521	0.636
560.573	0.6452
569.626	0.651
578.679	0.654
587.732	0.6718
596.785	0.6758
605.837	0.6868
614.89	0.689
623.943	0.6907
632.996	0.691
642.049	0.691
651.101	0.6915
660.154	0.696
669.207	0.697
678.26	0.697
687.313	0.6947
696.365	0.6888
705.418	0.6859
714.471	0.6839
723.524	0.6749
732.577	0.665
741.629	0.663
750.682	0.6506
759.735	0.59
768.788	0.5811
777.841	0.645
786.894	0.6842
795.946	0.6906
804.999	0.699
814.052	0.7
823.105	0.6902
832.158	0.6623
841.21	0.651
850.263	0.6505
859.316	0.6832
868.369	0.7228
877.422	0.74
886.474	0.739
895.527	0.7499
904.58	0.7726
913.633	0.7828
922.686	0.785
931.738	0.785
940.791	0.785
949.844	0.7784
958.897	0.7744
967.95	0.7615
977.002	0.7496
986.055	0.7348
995.108	0.7075
1004.16	0.6547
1013.21	0.5744
1022.27	0.4743
1031.32	0.4844
1040.37	0.5624
1049.42	0.6409
1058.48	0.6601
1067.53	0.6474
1076.58	0.612
1085.64	0.5703
1094.69	0.5394
1103.74	0.6168
1112.79	0.672
1121.85	0.6745
1130.9	0.681
1139.95	0.6792
1149.01	0.6643
1158.06	0.6444
1167.11	0.6057
1176.16	0.5735
1185.22	0.5287
1194.27	0.4421
1203.32	0.318
1212.38	0.2052
1221.43	0.1472
1230.48	0.1497
1239.53	0.175
1248.59	0.249
1257.64	0.3385
1266.69	0.4326
1275.74	0.4013
1284.8	0.4004
1293.85	0.4749
1302.9	0.5386
1311.96	0.5891
1321.01	0.6214
1330.06	0.6732
1339.11	0.7239
1348.17	0.74
1357.22	0.7268
1366.27	0.6483
1375.33	0.6281
1384.38	0.5816
1393.43	0.5844
1402.48	0.6013
1411.54	0.5955
1420.59	0.5698
1429.64	0.3867
1438.7	0.2965
1447.75	0.289
1456.8	0.3147
1465.85	0.3698
1474.91	0.4009
1483.96	0.4404
1493.01	0.4572
1502.07	0.4959
1511.12	0.5686
1520.17	0.612
1529.22	0.6181
1538.28	0.5927
1547.33	0.571
1556.38	0.571
1565.43	0.563
1574.49	0.4496
1583.54	0.3426
1592.59	0.3194
1601.65	0.2573
1610.7	0.1894
1619.75	0.2212
1628.8	0.2983
1637.86	0.2952
1646.91	0.218
1655.96	0.1741
1665.02	0.2119
1674.07	0.296
1683.12	0.458
1692.17	0.5299
1701.23	0.4814
1710.28	0.4132
1719.33	0.3478
1728.39	0.3298
1737.44	0.4095
1746.49	0.5013
1755.54	0.5783
1764.6	0.6665
1773.65	0.7442
1782.7	0.773
1791.75	0.7883
1800.81	0.799
1809.86	0.8102
1818.91	0.818
1827.97	0.8271
1837.02	0.83
1846.07	0.8369
1855.12	0.84
1864.18	0.844
1873.23	0.847
1882.28	0.8487
1891.34	0.85
1900.39	0.8526
1909.44	0.8535
1918.49	0.8555
1927.55	0.856
1936.6	0.858
1945.65	0.859
1954.71	0.859
1963.76	0.859
1972.81	0.859
1981.86	0.859
1990.92	0.858
1999.97	0.857
2009.02	0.856
2018.07	0.856
2027.13	0.856
2036.18	0.856
2045.23	0.856
2054.29	0.857
2063.34	0.856
2072.39	0.857
2081.44	0.858
2090.5	0.859
2099.55	0.859
2108.6	0.859
2117.66	0.859
2126.71	0.859
2135.76	0.859
2144.81	0.859
2153.87	0.859
2162.92	0.859
2171.97	0.859
2181.03	0.859
2190.08	0.858
2199.13	0.857
2208.18	0.856
2217.24	0.855
2226.29	0.853
2235.34	0.852
2244.4	0.852
2253.45	0.852
2262.5	0.852
2271.55	0.852
2280.61	0.852
2289.66	0.852
2298.71	0.851
2307.76	0.85
2316.82	0.85
2325.87	0.849
2334.92	0.848
2343.98	0.847
2353.03	0.844
2362.08	0.841
2371.13	0.841
2380.19	0.841
2389.24	0.84
2398.29	0.839
2407.35	0.838
2416.4	0.837
2425.45	0.837
2434.5	0.835
2443.56	0.834
2452.61	0.832
2461.66	0.83
2470.72	0.828
2479.77	0.825
2488.82	0.823
2497.87	0.822
2506.93	0.82
2515.98	0.819
2525.03	0.816
2534.08	0.813
2543.14	0.811
2552.19	0.81
2561.24	0.809
2570.3	0.807
2579.35	0.804
2588.4	0.798
2597.45	0.7951
2606.51	0.789
2615.56	0.786
2624.61	0.782
2633.67	0.776
2642.72	0.7691
2651.77	0.76
2660.82	0.756
2669.88	0.748
2678.93	0.74
2687.98	0.7291
2697.04	0.726
2706.09	0.721
2715.14	0.718
2724.19	0.712
2733.25	0.707
2742.3	0.7001
2751.35	0.697
2760.41	0.6911
2769.46	0.6811
2778.51	0.6721
2787.56	0.66
2796.62	0.6551
2805.67	0.647
2814.72	0.639
2823.77	0.639
2832.83	0.636
2841.88	0.6261
2850.93	0.615
2859.99	0.6001
2869.04	0.587
2878.09	0.578
2887.14	0.5711
2896.2	0.567
2905.25	0.556
2914.3	0.547
2923.36	0.534
2932.41	0.519
2941.46	0.5219
2950.51	0.526
2959.57	0.5191
2968.62	0.4991
2977.67	0.477
2986.73	0.48
2995.78	0.4979
3004.83	0.5169
3013.88	0.519
3022.94	0.517
3031.99	0.508
3041.04	0.4921
3050.09	0.4781
3059.15	0.468
3068.2	0.457
3077.25	0.449
3086.31	0.442
3095.36	0.434
3104.41	0.426
3113.46	0.425
3122.52	0.424
3131.57	0.418
3140.62	0.4081
3149.68	0.3971
3158.73	0.391
3167.78	0.389
3176.83	0.391
3185.89	0.394
3194.94	0.399
3203.99	0.4059
3213.05	0.412
3222.1	0.422
3231.15	0.4379
3240.2	0.4549
3249.26	0.4719
3258.31	0.476
3267.36	0.475
3276.41	0.474
3285.47	0.47
3294.52	0.468
3303.57	0.467
3312.63	0.461
3321.68	0.4541
3330.73	0.449
3339.78	0.4361
3348.84	0.4131
3357.89	0.406
3366.94	0.4109
3376	0.4459
3385.05	0.5008
3394.1	0.5319
3403.15	0.55
3412.21	0.572
3421.26	0.582
3430.31	0.59
3439.37	0.592
3448.42	0.589
3457.47	0.578
3466.52	0.5938
3475.58	0.6388
3484.63	0.6669
3493.68	0.6839
3502.74	0.6969
3511.79	0.705
3520.84	0.7159
3529.89	0.7309
3538.95	0.743
3548	0.754
3557.05	0.7649
3566.1	0.7749
3575.16	0.783
3584.21	0.794
3593.26	0.804
3602.32	0.813
3611.37	0.8279
3620.42	0.831
3629.47	0.841
3638.53	0.849
3647.58	0.852
3656.63	0.853
3665.69	0.853
3674.74	0.853
3683.79	0.856
3692.84	0.858
3701.9	0.861
3710.95	0.861
3720	0.862
3729.06	0.862
3738.11	0.862
3747.16	0.862
3756.21	0.862
3765.27	0.862
3774.32	0.862
3783.37	0.863
3792.42	0.862
