Infrared Spectrum: 3-DECENE, 1-IODO-
Formula: C10 H19 I
CAS: 116401-32-2
State: SOLUTION (10% CCl4 FOR 4000-1130, 10% CS2 FOR 1130-450 CM^-^1) VS SOLVENT
Class: COBLENTZ III
Instrument: CARY 90 (GRATING)
Instrument parameters: ORDER CHANGES: 3000, 2000, 1200 CM^-^1
Sampling: TRANSMISSION
Path length: 0.011 CM, AND 0.010 CM
Resolution: 2
Origin: WESTERN REGIONAL RES. USDA
1/CM	TRANSMITTANCE
3996	0.938
3987	0.937
3978	0.9359
3969	0.9352
3960	0.9351
3951	0.9361
3942	0.9371
3933	0.9378
3924	0.9383
3915	0.9388
3906	0.9397
3897	0.9405
3888	0.9418
3879	0.9433
3870	0.9447
3861	0.945
3852	0.945
3843	0.9444
3834	0.944
3825	0.9434
3816	0.9428
3807	0.9408
3798	0.9389
3789	0.9388
3780	0.94
3771	0.9418
3762	0.9435
3753	0.9441
3744	0.9425
3735	0.9405
3726	0.9386
3717	0.9367
3708	0.9348
3699	0.9338
3690	0.9331
3681	0.9323
3672	0.9316
3663	0.9313
3654	0.931
3645	0.9307
3636	0.9305
3627	0.9303
3618	0.9304
3609	0.9304
3600	0.9307
3591	0.9312
3582	0.9318
3573	0.9324
3564	0.9331
3555	0.9334
3546	0.9337
3537	0.9343
3528	0.9355
3519	0.9364
3510	0.9374
3501	0.9382
3492	0.9391
3483	0.94
3474	0.9413
3465	0.9416
3456	0.9405
3447	0.9393
3438	0.9389
3429	0.939
3420	0.9391
3411	0.9391
3402	0.9392
3393	0.9391
3384	0.9388
3375	0.9383
3366	0.938
3357	0.9375
3348	0.9373
3339	0.9371
3330	0.937
3321	0.9368
3312	0.9367
3303	0.9365
3294	0.9365
3285	0.9371
3276	0.938
3267	0.9386
3258	0.9392
3249	0.9397
3240	0.9402
3231	0.9398
3222	0.9386
3213	0.9371
3204	0.936
3195	0.9348
3186	0.9343
3177	0.9339
3168	0.9336
3159	0.9333
3150	0.9328
3141	0.932
3132	0.9301
3123	0.9281
3114	0.9255
3105	0.9225
3096	0.9191
3087	0.9184
3078	0.9105
3069	0.903
3060	0.8978
3051	0.891
3042	0.8734
3033	0.8235
3024	0.7149
3015	0.5584
3006	0.5768
2997	0.7099
2988	0.6875
2979	0.533
2970	0.3784
2961	0.2238
2952	0.1323
2943	0.2284
2934	0.1744
2925	0.06
2916	0.0692
2907	0.1846
2898	0.3003
2889	0.4158
2880	0.516
2871	0.4074
2862	0.3512
2853	0.1849
2844	0.3324
2835	0.6169
2826	0.7315
2817	0.8055
2808	0.8504
2799	0.8671
2790	0.8843
2781	0.895
2772	0.9037
2763	0.909
2754	0.9084
2745	0.9059
2736	0.9028
2727	0.9045
2718	0.9107
2709	0.9168
2700	0.921
2691	0.9233
2682	0.922
2673	0.916
2664	0.9139
2655	0.9173
2646	0.9207
2637	0.9235
2628	0.9246
2619	0.9257
2610	0.9267
2601	0.9267
2592	0.9264
2583	0.9261
2574	0.9259
2565	0.9259
2556	0.9268
2547	0.9278
2538	0.9288
2529	0.9303
2520	0.9321
2511	0.9338
2502	0.9356
2493	0.9357
2484	0.9354
2475	0.9351
2466	0.9349
2457	0.9338
2448	0.9318
2439	0.9297
2430	0.9275
2421	0.9268
2412	0.9261
2403	0.9253
2394	0.9252
2385	0.9253
2376	0.9254
2367	0.9255
2358	0.9257
2349	0.9258
2340	0.9265
2331	0.9275
2322	0.9282
2313	0.9288
2304	0.93
2295	0.932
2286	0.9341
2277	0.935
2268	0.936
2259	0.9378
2250	0.9396
2241	0.9412
2232	0.9395
2223	0.9381
2214	0.9381
2205	0.9382
2196	0.9382
2187	0.9378
2178	0.9375
2169	0.9371
2160	0.9367
2151	0.9363
2142	0.9359
2133	0.9356
2124	0.9359
2115	0.9362
2106	0.9366
2097	0.9368
2088	0.9373
2079	0.9375
2070	0.9378
2061	0.9378
2052	0.9378
2043	0.9378
2034	0.9378
2025	0.9378
2016	0.9378
2007	0.9378
1998	0.9378
1989	0.9378
1980	0.9378
1971	0.9375
1962	0.9371
1953	0.9368
1944	0.9364
1935	0.936
1926	0.9357
1917	0.9359
1908	0.936
1899	0.9348
1890	0.9331
1881	0.9335
1872	0.9342
1863	0.9349
1854	0.9328
1845	0.9307
1836	0.9293
1827	0.9292
1818	0.93
1809	0.9308
1800	0.9318
1791	0.9327
1782	0.9315
1773	0.9309
1764	0.9296
1755	0.9261
1746	0.9251
1737	0.9256
1728	0.9255
1719	0.923
1710	0.9171
1701	0.9132
1692	0.9153
1683	0.9184
1674	0.9199
1665	0.9099
1656	0.8964
1647	0.9018
1638	0.922
1629	0.9331
1620	0.9381
1611	0.9407
1602	0.9404
1593	0.9396
1584	0.9375
1575	0.935
1566	0.9314
1557	0.9271
1548	0.9192
1539	0.9234
1530	0.9246
1521	0.9218
1512	0.9181
1503	0.9113
1494	0.9025
1485	0.8838
1476	0.8474
1467	0.549
1458	0.5766
1449	0.6343
1440	0.7203
1431	0.7425
1422	0.71
1413	0.884
1404	0.8435
1395	0.8961
1386	0.8496
1377	0.7693
1368	0.8906
1359	0.8978
1350	0.885
1341	0.8914
1332	0.8989
1323	0.8765
1314	0.8552
1305	0.8462
1296	0.8339
1287	0.8677
1278	0.8871
1269	0.8695
1260	0.8447
1251	0.7695
1242	0.4871
1233	0.6405
1224	0.8641
1215	0.8809
1206	0.8951
1197	0.8923
1188	0.8582
1179	0.8155
1170	0.4923
1161	0.6179
1152	0.8499
1143	0.8978
1134	0.9151
1125	0.9223
1116	0.9223
1107	0.9178
1098	0.9427
1089	0.9485
1080	0.9521
1071	0.9488
1062	0.9397
1053	0.9225
1044	0.9128
1035	0.9115
1026	0.9249
1017	0.9357
1008	0.9433
999	0.9435
990	0.9485
981	0.9474
972	0.9338
963	0.9125
954	0.9515
945	0.9549
936	0.9515
927	0.9336
918	0.9174
909	0.9356
900	0.9463
891	0.9482
882	0.9538
873	0.9681
864	0.9745
855	0.9837
846	0.9927
837	0.9961
828	0.9895
819	0.9818
810	0.9794
801	0.98
792	0.9547
783	0.9508
774	0.9538
765	0.9504
756	0.9443
747	0.9014
738	0.7742
729	0.713
720	0.7172
711	0.7741
702	0.8074
693	0.8454
684	0.8823
675	0.9461
666	0.9706
657	0.9867
648	0.9949
639	0.9965
630	0.9965
621	0.9873
612	0.9766
603	0.9756
594	0.9787
585	0.9828
576	0.988
567	0.9951
558	1.0057
549	1.0171
540	1.0217
531	1.0165
522	0.9962
513	0.9762
504	0.9517
495	0.9337
486	0.9231
477	0.918
