Infrared Spectrum: A,A-DICYCLOPROPYL-2-PYRIDINE METHANOL
Formula: C12 H15 N O
CAS: 116400-65-8
State: SOLUTION (10% CHCl3)
Class: COBLENTZ
Instrument: Not specified, most likely a grating spectrometer.
Sampling: TRANSMISSION
Path length: 0.010 CM CELL
Resolution: 4
Origin: ABBOTT LABORATORIES
MICROMETERS	TRANSMITTANCE
2.021	0.969
2.05594	0.967
2.09087	0.969
2.12581	0.957
2.16075	0.957
2.19569	0.965
2.23062	0.945
2.26556	0.952
2.3005	0.96
2.33544	0.948
2.37037	0.945
2.40531	0.948
2.44025	0.946
2.47519	0.943
2.51012	0.941
2.54506	0.94
2.58	0.941
2.61494	0.943
2.64987	0.943
2.68481	0.941
2.71975	0.938
2.75469	0.928
2.78962	0.916
2.82456	0.875
2.8595	0.809
2.89444	0.751
2.92937	0.578
2.96431	0.587
2.99925	0.652
3.03419	0.739
3.06912	0.804
3.10406	0.845
3.139	0.863
3.17394	0.827
3.20887	0.676
3.24381	0.695
3.27875	0.563
3.31369	0.539
3.34862	0.703
3.38356	0.784
3.4185	0.849
3.45343	0.868
3.48837	0.878
3.52331	0.898
3.55825	0.907
3.59318	0.914
3.62812	0.921
3.66306	0.922
3.698	0.922
3.73293	0.922
3.76787	0.922
3.80281	0.919
3.83775	0.917
3.87268	0.916
3.90762	0.91
3.94256	0.905
3.9775	0.897
4.01243	0.888
4.04737	0.876
4.08231	0.873
4.11725	0.88
4.15218	0.892
4.18712	0.898
4.22206	0.905
4.257	0.916
4.29193	0.919
4.32687	0.921
4.36181	0.922
4.39675	0.912
4.43168	0.907
4.46662	0.902
4.50156	0.898
4.5365	0.897
4.57143	0.897
4.60637	0.897
4.64131	0.897
4.67625	0.897
4.71118	0.897
4.74612	0.893
4.78106	0.883
4.81599	0.881
4.85093	0.881
4.88587	0.888
4.92081	0.892
4.95574	0.895
4.99068	0.895
5.02562	0.892
5.06056	0.876
5.09549	0.875
5.13043	0.871
5.16537	0.868
5.20031	0.866
5.23524	0.866
5.27018	0.868
5.30512	0.868
5.34006	0.869
5.37499	0.871
5.40993	0.875
5.44487	0.875
5.47981	0.875
5.51474	0.878
5.54968	0.88
5.58462	0.883
5.61956	0.88
5.65449	0.88
5.68943	0.878
5.72437	0.876
5.75931	0.875
5.79424	0.871
5.82918	0.868
5.86412	0.857
5.89906	0.854
5.93399	0.854
5.96893	0.854
6.00387	0.854
6.03881	0.851
6.07374	0.847
6.10868	0.842
6.14362	0.828
6.17855	0.796
6.21349	0.777
6.24843	0.482
6.28337	0.26
6.3183	0.628
6.35324	0.465
6.38818	0.613
6.42312	0.758
6.45805	0.825
6.49299	0.844
6.52793	0.851
6.56287	0.854
6.5978	0.849
6.63274	0.844
6.66768	0.832
6.70262	0.811
6.73755	0.787
6.77249	0.71
6.80743	0.493
6.84237	0.553
6.8773	0.582
6.91224	0.604
6.94718	0.476
6.98212	0.236
7.01705	0.313
7.05199	0.306
7.08693	0.267
7.12187	0.232
7.1568	0.267
7.19174	0.321
7.22668	0.484
7.26162	0.611
7.29655	0.667
7.33149	0.645
7.36643	0.595
7.40137	0.505
7.4363	0.357
7.47124	0.368
7.50618	0.488
7.54111	0.599
7.57605	0.636
7.61099	0.666
7.64593	0.696
7.68086	0.707
7.7158	0.599
7.75074	0.633
7.78568	0.686
7.82061	0.729
7.85555	0.751
7.89049	0.753
7.92543	0.734
7.96036	0.71
7.9953	0.681
8.03024	0.64
8.06518	0.619
8.10011	0.606
8.13505	0.604
8.16999	0.609
8.20493	0.625
8.23986	0.647
8.2748	0.669
8.30974	0.698
8.34468	0.698
8.37961	0.693
8.41455	0.578
8.44949	0.45
8.48443	0.465
8.51936	0.541
8.5543	0.566
8.58924	0.597
8.62418	0.614
8.65911	0.599
8.69405	0.5
8.72899	0.618
8.76392	0.688
8.79886	0.633
8.8338	0.53
8.86874	0.549
8.90367	0.633
8.93861	0.683
8.97355	0.695
9.00849	0.695
9.04342	0.676
9.07836	0.659
9.1133	0.626
9.14824	0.595
9.18317	0.645
9.21811	0.702
9.25305	0.738
9.28799	0.743
9.32292	0.741
9.35786	0.736
9.3928	0.72
9.42774	0.672
9.46267	0.595
9.49761	0.541
9.53255	0.477
9.56749	0.45
9.60242	0.434
9.63736	0.272
9.6723	0.267
9.70724	0.284
9.74217	0.282
9.77711	0.294
9.81205	0.323
9.84699	0.339
9.88192	0.267
9.91686	0.234
9.9518	0.284
9.98674	0.351
10.0217	0.407
10.0566	0.535
10.0915	0.592
10.1265	0.652
10.1614	0.678
10.1964	0.698
10.2313	0.698
10.2662	0.691
10.3012	0.693
10.3361	0.714
10.371	0.731
10.406	0.72
10.4409	0.717
10.4759	0.739
10.5108	0.758
10.5457	0.77
10.5807	0.78
10.6156	0.791
10.6505	0.794
10.6855	0.787
10.7204	0.768
10.7554	0.729
10.7903	0.571
10.8252	0.547
10.8602	0.561
10.8951	0.573
10.93	0.453
10.965	0.393
10.9999	0.433
11.0349	0.594
11.0698	0.672
11.1047	0.729
11.1397	0.75
11.1746	0.761
11.2095	0.765
11.2445	0.767
11.2794	0.765
11.3144	0.758
11.3493	0.744
11.3842	0.729
11.4192	0.679
11.4541	0.592
11.489	0.532
11.524	0.589
11.5589	0.642
11.5939	0.688
11.6288	0.72
11.6637	0.738
11.6987	0.738
11.7336	0.707
11.7685	0.695
11.8035	0.71
11.8384	0.746
11.8734	0.77
11.9083	0.777
11.9432	0.779
11.9782	0.773
12.0131	0.756
12.048	0.734
12.083	0.708
12.1179	0.678
12.1529	0.65
12.1878	0.619
12.2227	0.582
12.2577	0.556
12.2926	0.549
12.3275	0.558
12.3625	0.597
12.3974	0.655
12.4324	0.705
12.4673	0.731
12.5022	0.756
12.5372	0.782
12.5721	0.789
12.607	0.794
12.642	0.804
12.6769	0.816
12.7119	0.832
12.7468	0.847
12.7817	0.854
12.8167	0.864
12.8516	0.876
12.8865	0.885
12.9215	0.895
12.9564	0.904
12.9914	0.907
13.0263	0.917
13.0612	0.934
13.0962	0.943
13.1311	0.953
13.166	0.965
13.201	0.969
13.2359	0.977
13.2709	0.986
13.3058	0.994
13.3407	0.998
13.3757	1.011
13.4106	1.018
13.4455	1.02
13.4805	1.02
13.5154	1.022
13.5504	1.022
13.5853	1.022
13.6202	1.022
13.6552	1.022
13.6901	1.022
13.725	1.022
13.76	1.022
13.7949	1.022
13.8299	1.022
13.8648	1.022
13.8997	1.018
13.9347	1.01
13.9696	1
14.0045	0.994
14.0395	0.976
14.0744	0.946
14.1094	0.922
14.1443	0.902
14.1792	0.875
14.2142	0.861
14.2491	0.854
14.284	0.847
14.319	0.845
14.3539	0.84
14.3889	0.835
14.4238	0.839
14.4587	0.845
14.4937	0.847
14.5286	0.849
14.5635	0.857
14.5985	0.859
14.6334	0.861
14.6684	0.863
14.7033	0.863
14.7382	0.863
14.7732	0.868
14.8081	0.875
14.843	0.881
14.878	0.886
14.9129	0.892
14.9479	0.893
14.9828	0.893
15.0177	0.886
15.0527	0.881
15.0876	0.876
15.1225	0.857
15.1575	0.845
15.1924	0.823
15.2274	0.816
15.2623	0.821
15.2972	0.83
15.3322	0.835
15.3671	0.842
15.402	0.845
15.437	0.854
15.4719	0.864
