Infrared Spectrum: DI-(2-ETHYLBUTYL)-2,5-DIPHENYL ADIPATE
Formula: C30 H42 O4
CAS: 116435-61-1
Class: COBLENTZ
Instrument: Not specified, most likely a prism, grating, or hybrid spectrometer.
Sampling: TRANSMISSION
Path length: 0.0026 CM
Resolution: 4
MICROMETERS	TRANSMITTANCE
2.029	0.913
2.06777	0.908
2.10653	0.908
2.1453	0.915
2.18407	0.907
2.22283	0.886
2.2616	0.878
2.30037	0.884
2.33913	0.894
2.3779	0.897
2.41667	0.887
2.45543	0.882
2.4942	0.917
2.53297	0.918
2.57173	0.925
2.6105	0.931
2.64927	0.936
2.68804	0.928
2.7268	0.921
2.76557	0.933
2.80434	0.928
2.8431	0.928
2.88187	0.899
2.92064	0.902
2.9594	0.926
2.99817	0.93
3.03694	0.93
3.0757	0.926
3.11447	0.92
3.15324	0.91
3.192	0.897
3.23077	0.822
3.26954	0.639
3.3083	0.552
3.34707	0.489
3.38584	0.039
3.4246	0.074
3.46337	0.209
3.50214	0.173
3.5409	0.639
3.57967	0.804
3.61844	0.871
3.6572	0.886
3.69597	0.881
3.73474	0.904
3.7735	0.917
3.81227	0.92
3.85104	0.921
3.88981	0.921
3.92857	0.938
3.96734	0.941
4.00611	0.941
4.04487	0.941
4.08364	0.943
4.12241	0.943
4.16117	0.936
4.19994	0.943
4.23871	0.944
4.27747	0.946
4.31624	0.943
4.35501	0.936
4.39377	0.938
4.43254	0.949
4.47131	0.954
4.51007	0.957
4.54884	0.956
4.58761	0.954
4.62637	0.956
4.66514	0.949
4.70391	0.954
4.74267	0.952
4.78144	0.952
4.82021	0.952
4.85897	0.952
4.89774	0.951
4.93651	0.957
4.97527	0.957
5.01404	0.947
5.05281	0.933
5.09158	0.918
5.13034	0.892
5.16911	0.902
5.20788	0.936
5.24664	0.938
5.28541	0.913
5.32418	0.902
5.36294	0.9
5.40171	0.92
5.44048	0.934
5.47924	0.921
5.51801	0.897
5.55678	0.85
5.59554	0.839
5.63431	0.8
5.67308	0.704
5.71184	0.536
5.75061	0.13
5.78938	0.011
5.82814	0.026
5.86691	0.325
5.90568	0.606
5.94444	0.681
5.98321	0.782
6.02198	0.843
6.06074	0.869
6.09951	0.882
6.13828	0.897
6.17704	0.891
6.21581	0.813
6.25458	0.622
6.29335	0.813
6.33211	0.856
6.37088	0.897
6.40965	0.917
6.44841	0.894
6.48718	0.894
6.52595	0.882
6.56471	0.899
6.60348	0.871
6.64225	0.8
6.68101	0.378
6.71978	0.504
6.75855	0.569
6.79731	0.373
6.83608	0.138
6.87485	0.11
6.91361	0.362
6.95238	0.588
6.99115	0.731
7.02991	0.798
7.06868	0.8
7.10745	0.772
7.14621	0.687
7.18498	0.494
7.22375	0.331
7.26251	0.369
7.30128	0.534
7.34005	0.505
7.37881	0.422
7.41758	0.383
7.45635	0.383
7.49512	0.386
7.53388	0.419
7.57265	0.455
7.61142	0.476
7.65018	0.434
7.68895	0.408
7.72772	0.362
7.76648	0.336
7.80525	0.265
7.84402	0.198
7.88278	0.175
7.92155	0.162
7.96032	0.164
7.99908	0.191
8.03785	0.2
8.07662	0.201
8.11538	0.213
8.15415	0.198
8.19292	0.152
8.23168	0.13
8.27045	0.1
8.30922	0.1
8.34798	0.133
8.38675	0.175
8.42552	0.177
8.46428	0.146
8.50305	0.058
8.54182	0.026
8.58058	0.03
8.61935	0.032
8.65812	0.03
8.69689	0.029
8.73565	0.029
8.77442	0.094
8.81319	0.274
8.85195	0.422
8.89072	0.543
8.92949	0.585
8.96825	0.586
9.00702	0.572
9.04579	0.591
9.08455	0.622
9.12332	0.621
9.16209	0.619
9.20085	0.642
9.23962	0.624
9.27839	0.549
9.31715	0.533
9.35592	0.567
9.39469	0.572
9.43345	0.577
9.47222	0.544
9.51099	0.521
9.54975	0.534
9.58852	0.549
9.62729	0.538
9.66605	0.463
9.70482	0.455
9.74359	0.52
9.78235	0.534
9.82112	0.52
9.85989	0.502
9.89866	0.469
9.93742	0.403
9.97619	0.401
10.015	0.469
10.0537	0.487
10.0925	0.533
10.1313	0.58
10.17	0.614
10.2088	0.647
10.2476	0.666
10.2863	0.661
10.3251	0.655
10.3639	0.643
10.4026	0.614
10.4414	0.598
10.4802	0.575
10.5189	0.569
10.5577	0.603
10.5965	0.653
10.6352	0.686
10.674	0.723
10.7128	0.73
10.7515	0.733
10.7903	0.738
10.8291	0.749
10.8678	0.756
10.9066	0.76
10.9454	0.751
10.9841	0.739
11.0229	0.73
11.0617	0.744
11.1004	0.767
11.1392	0.78
11.178	0.796
11.2167	0.808
11.2555	0.827
11.2943	0.845
11.333	0.865
11.3718	0.878
11.4106	0.884
11.4493	0.892
11.4881	0.899
11.5269	0.907
11.5656	0.904
11.6044	0.902
11.6432	0.91
11.6819	0.92
11.7207	0.913
11.7595	0.905
11.7982	0.899
11.837	0.879
11.8758	0.866
11.9145	0.86
11.9533	0.853
11.9921	0.845
12.0308	0.821
12.0696	0.814
12.1084	0.811
12.1471	0.821
12.1859	0.827
12.2247	0.839
12.2634	0.84
12.3022	0.839
12.341	0.845
12.3797	0.85
12.4185	0.826
12.4573	0.8
12.496	0.764
12.5348	0.695
12.5736	0.647
12.6123	0.643
12.6511	0.699
12.6899	0.726
12.7286	0.712
12.7674	0.669
12.8062	0.617
12.8449	0.596
12.8837	0.552
12.9225	0.541
12.9612	0.541
13	0.557
13.0388	0.567
13.0775	0.569
13.1163	0.577
13.1551	0.582
13.1938	0.583
13.2326	0.577
13.2714	0.573
13.3101	0.582
13.3489	0.583
13.3877	0.588
13.4264	0.57
13.4652	0.523
13.504	0.46
13.5427	0.398
13.5815	0.347
13.6203	0.307
13.659	0.292
13.6978	0.297
13.7366	0.333
13.7753	0.403
13.8141	0.504
13.8529	0.567
13.8916	0.624
13.9304	0.652
13.9692	0.666
14.0079	0.663
14.0467	0.653
14.0855	0.617
14.1242	0.547
14.163	0.453
14.2018	0.356
14.2405	0.248
14.2793	0.157
14.3181	0.113
14.3568	0.104
14.3956	0.128
14.4344	0.217
14.4731	0.39
14.5119	0.557
14.5507	0.663
14.5894	0.723
14.6282	0.759
14.667	0.778
14.7057	0.791
14.7445	0.803
14.7833	0.806
14.822	0.806
14.8608	0.813
14.8996	0.813
14.9383	0.809
14.9771	0.806
15.0159	0.803
15.0546	0.804
15.0934	0.806
15.1322	0.803
15.1709	0.811
15.2097	0.808
15.2485	0.806
15.2872	0.804
15.326	0.8
15.3648	0.793
15.4035	0.79
15.4423	0.785
15.4811	0.78
15.5198	0.773
15.5586	0.764
15.5974	0.77
15.6361	0.757
15.6749	0.751
15.7137	0.744
15.7524	0.741
15.7912	0.728
15.83	0.72
15.8687	0.708
15.9075	0.704
15.9463	0.704
15.985	0.7
