Infrared Spectrum: 1,3-PROPANEDIOL,2,2-DIMETHYL-, BIS(DIETHYLPHOSPHATE)
Formula: C13 H30 O8 P2
CAS: 116402-41-6
Boiling point: 183-188 C AT 3.1 mmHg
Class: COBLENTZ
Instrument: Not specified, most likely a prism, grating, or hybrid spectrometer.
Sampling: TRANSMISSION
Path length: SMEAR
Resolution: 4
Origin: TENNESSEE EASTMAN COMPANY, RESEARCH LABORATORIES
MICROMETERS	TRANSMITTANCE
2.026	0.981
2.06602	0.981
2.10604	0.981
2.14607	0.981
2.18609	0.979
2.22611	0.956
2.26613	0.948
2.30616	0.948
2.34618	0.949
2.3862	0.953
2.42622	0.954
2.46624	0.953
2.50627	0.953
2.54629	0.956
2.58631	0.956
2.62633	0.956
2.66635	0.956
2.70638	0.951
2.7464	0.914
2.78642	0.864
2.82644	0.835
2.86647	0.82
2.90649	0.83
2.94651	0.855
2.98653	0.867
3.02655	0.879
3.06658	0.881
3.1066	0.882
3.14662	0.882
3.18664	0.887
3.22666	0.881
3.26669	0.857
3.30671	0.74
3.34673	0.323
3.38675	0.48
3.42678	0.53
3.4668	0.72
3.50682	0.797
3.54684	0.825
3.58686	0.835
3.62689	0.84
3.66691	0.847
3.70693	0.86
3.74695	0.865
3.78697	0.867
3.827	0.876
3.86702	0.881
3.90704	0.884
3.94706	0.887
3.98709	0.894
4.02711	0.897
4.06713	0.901
4.10715	0.901
4.14717	0.901
4.1872	0.901
4.22722	0.901
4.26724	0.886
4.30726	0.876
4.34728	0.874
4.38731	0.889
4.42733	0.891
4.46735	0.896
4.50737	0.899
4.5474	0.901
4.58742	0.902
4.62744	0.902
4.66746	0.902
4.70748	0.904
4.74751	0.906
4.78753	0.907
4.82755	0.907
4.86757	0.907
4.90759	0.907
4.94762	0.907
4.98764	0.907
5.02766	0.907
5.06768	0.906
5.10771	0.902
5.14773	0.899
5.18775	0.894
5.22777	0.879
5.26779	0.874
5.30782	0.874
5.34784	0.874
5.38786	0.872
5.42788	0.852
5.4679	0.867
5.50793	0.874
5.54795	0.871
5.58797	0.855
5.62799	0.852
5.66802	0.849
5.70804	0.845
5.74806	0.83
5.78808	0.834
5.8281	0.832
5.86813	0.834
5.90815	0.834
5.94817	0.83
5.98819	0.832
6.02821	0.832
6.06824	0.812
6.10826	0.824
6.14828	0.832
6.1883	0.839
6.22833	0.852
6.26835	0.859
6.30837	0.865
6.34839	0.857
6.38841	0.854
6.42844	0.852
6.46846	0.834
6.50848	0.845
6.5485	0.832
6.58852	0.829
6.62855	0.814
6.66857	0.763
6.70859	0.567
6.74861	0.53
6.78864	0.616
6.82866	0.638
6.86868	0.641
6.9087	0.659
6.94872	0.753
6.98875	0.783
7.02877	0.778
7.06879	0.73
7.10881	0.633
7.14883	0.556
7.18886	0.636
7.22888	0.656
7.2689	0.552
7.30892	0.594
7.34895	0.726
7.38897	0.767
7.42899	0.783
7.46901	0.777
7.50903	0.758
7.54906	0.703
7.58908	0.574
7.6291	0.353
7.66912	0.211
7.70915	0.204
7.74917	0.212
7.78919	0.187
7.82921	0.15
7.86923	0.155
7.90926	0.179
7.94928	0.252
7.9893	0.35
8.02932	0.442
8.06934	0.514
8.10937	0.552
8.14939	0.591
8.18941	0.618
8.22943	0.624
8.26946	0.671
8.30948	0.678
8.3495	0.681
8.38952	0.673
8.42954	0.653
8.46957	0.594
8.50959	0.484
8.54961	0.418
8.58963	0.467
8.62965	0.572
8.66968	0.616
8.7097	0.633
8.74972	0.634
8.78974	0.634
8.82977	0.623
8.86979	0.604
8.90981	0.577
8.94983	0.527
8.98985	0.474
9.02988	0.385
9.0699	0.351
9.10992	0.363
9.14994	0.356
9.18996	0.288
9.22999	0.195
9.27001	0.15
9.31003	0.142
9.35005	0.142
9.39008	0.123
9.4301	0.083
9.47012	0.055
9.51014	0.035
9.55016	0.03
9.59019	0.028
9.63021	0.026
9.67023	0.028
9.71025	0.03
9.75027	0.036
9.7903	0.048
9.83032	0.048
9.87034	0.05
9.91036	0.09
9.95039	0.154
9.99041	0.201
10.0304	0.204
10.0705	0.19
10.1105	0.167
10.1505	0.152
10.1905	0.142
10.2305	0.14
10.2706	0.145
10.3106	0.157
10.3506	0.179
10.3906	0.195
10.4307	0.217
10.4707	0.227
10.5107	0.239
10.5507	0.271
10.5907	0.318
10.6308	0.386
10.6708	0.46
10.7108	0.541
10.7508	0.584
10.7909	0.611
10.8309	0.619
10.8709	0.604
10.9109	0.614
10.9509	0.675
10.991	0.718
11.031	0.742
11.071	0.757
11.111	0.755
11.151	0.742
11.1911	0.716
11.2311	0.681
11.2711	0.621
11.3111	0.567
11.3512	0.53
11.3912	0.51
11.4312	0.51
11.4712	0.525
11.5112	0.541
11.5513	0.542
11.5913	0.509
11.6313	0.467
11.6713	0.395
11.7114	0.353
11.7514	0.373
11.7914	0.443
11.8314	0.52
11.8714	0.561
11.9115	0.561
11.9515	0.522
11.9915	0.487
12.0315	0.407
12.0716	0.39
12.1116	0.396
12.1516	0.417
12.1916	0.438
12.2316	0.462
12.2717	0.477
12.3117	0.482
12.3517	0.484
12.3917	0.48
12.4318	0.482
12.4718	0.49
12.5118	0.536
12.5518	0.576
12.5918	0.614
12.6319	0.653
12.6719	0.67
12.7119	0.695
12.7519	0.723
12.792	0.737
12.832	0.745
12.872	0.745
12.912	0.745
12.952	0.733
12.9921	0.726
13.0321	0.718
13.0721	0.703
13.1121	0.69
13.1522	0.68
13.1922	0.668
13.2322	0.658
13.2722	0.649
13.3122	0.649
13.3523	0.653
13.3923	0.659
13.4323	0.668
13.4723	0.676
13.5124	0.686
13.5524	0.698
13.5924	0.703
13.6324	0.71
13.6724	0.723
13.7125	0.728
13.7525	0.737
13.7925	0.742
13.8325	0.747
13.8726	0.75
13.9126	0.753
13.9526	0.755
13.9926	0.755
14.0326	0.753
14.0727	0.755
14.1127	0.757
14.1527	0.755
14.1927	0.753
14.2328	0.75
14.2728	0.747
14.3128	0.743
14.3528	0.737
14.3928	0.735
14.4329	0.73
14.4729	0.73
14.5129	0.726
14.5529	0.716
14.593	0.715
14.633	0.711
14.673	0.708
14.713	0.703
14.753	0.698
14.7931	0.69
14.8331	0.685
14.8731	0.68
14.9131	0.675
14.9532	0.663
14.9932	0.658
15.0332	0.654
15.0732	0.651
15.1132	0.649
15.1533	0.643
15.1933	0.639
15.2333	0.631
15.2733	0.629
15.3134	0.623
15.3534	0.618
15.3934	0.613
15.4334	0.604
15.4734	0.603
15.5135	0.599
15.5535	0.597
15.5935	0.596
15.6335	0.594
15.6736	0.591
15.7136	0.589
15.7536	0.584
15.7936	0.581
15.8336	0.576
15.8737	0.574
15.9137	0.571
15.9537	0.569
15.9937	0.567
