Infrared Spectrum: Benzoic acid, 2,5-difluoro-4-nitro
Formula: C7 H3 F2 N O4
CAS: 116465-48-6
State: SOLID (0.8 mg / 650 mg KBr DISC)
Class: COBLENTZ III
Instrument: PERKIN-ELMER 221 (GRATING)
Instrument parameters: FILTER AT 980 CM^-^1. GRATING 4000-1428 CM^-^1, NaCl PRISM 1428-650 CM^-^1
Sampling: TRANSMISSION
Resolution: 2
Origin: SOUTHERN RESEARCH INSTITUTE
1/CM	TRANSMITTANCE
636.78	0.7934
645.818	0.7921
654.856	0.7862
663.894	0.778
672.932	0.7784
681.97	0.7641
691.008	0.7244
700.047	0.7069
709.085	0.7096
718.123	0.6977
727.161	0.6672
736.199	0.5971
745.237	0.4842
754.275	0.347
763.313	0.4671
772.351	0.507
781.389	0.6895
790.427	0.5005
799.465	0.3856
808.503	0.5043
817.542	0.7108
826.58	0.7002
835.618	0.656
844.656	0.5981
853.694	0.5012
862.732	0.5969
871.77	0.5984
880.808	0.5441
889.846	0.6036
898.884	0.5248
907.922	0.3671
916.96	0.5891
925.998	0.6966
935.037	0.6678
944.075	0.6436
953.113	0.6559
962.151	0.6733
971.189	0.6949
980.227	0.7307
989.265	0.7013
998.303	0.6978
1007.34	0.6954
1016.38	0.6929
1025.42	0.6914
1034.46	0.6918
1043.49	0.6906
1052.53	0.688
1061.57	0.6833
1070.61	0.677
1079.65	0.6699
1088.68	0.6549
1097.72	0.6369
1106.76	0.6258
1115.8	0.6246
1124.84	0.6204
1133.87	0.6079
1142.91	0.5833
1151.95	0.5528
1160.99	0.5283
1170.03	0.4171
1179.06	0.3381
1188.1	0.2268
1197.14	0.388
1206.18	0.4975
1215.22	0.472
1224.26	0.4706
1233.29	0.4668
1242.33	0.4468
1251.37	0.4041
1260.41	0.308
1269.45	0.2172
1278.48	0.2724
1287.52	0.4949
1296.56	0.5193
1305.6	0.3871
1314.64	0.4287
1323.67	0.4744
1332.71	0.4694
1341.75	0.4424
1350.79	0.3491
1359.83	0.4203
1368.86	0.6456
1377.9	0.6477
1386.94	0.5735
1395.98	0.4495
1405.02	0.3641
1414.05	0.3621
1423.09	0.353
1432.13	0.3636
1441.17	0.2971
1450.21	0.3375
1459.25	0.4937
1468.28	0.5518
1477.32	0.5331
1486.36	0.3677
1495.4	0.3841
1504.44	0.5254
1513.47	0.4674
1522.51	0.3184
1531.55	0.2916
1540.59	0.2944
1549.63	0.3061
1558.66	0.4028
1567.7	0.4984
1576.74	0.5082
1585.78	0.4981
1594.82	0.426
1603.85	0.3437
1612.89	0.4761
1621.93	0.479
1630.97	0.4818
1640.01	0.4948
1649.04	0.478
1658.08	0.4727
1667.12	0.4514
1676.16	0.3559
1685.2	0.2047
1694.24	0.1767
1703.27	0.1737
1712.31	0.2235
1721.35	0.2582
1730.39	0.4032
1739.43	0.4934
1748.46	0.5812
1757.5	0.599
1766.54	0.6554
1775.58	0.6756
1784.62	0.6789
1793.65	0.6844
1802.69	0.6893
1811.73	0.6955
1820.77	0.7038
1829.81	0.7124
1838.84	0.7188
1847.88	0.7213
1856.92	0.7222
1865.96	0.7239
1875	0.7249
1884.03	0.7254
1893.07	0.7256
1902.11	0.7257
1911.15	0.7264
1920.19	0.7273
1929.23	0.7272
1938.26	0.7263
1947.3	0.7254
1956.34	0.7246
1965.38	0.724
1974.42	0.7229
1983.45	0.7213
1992.49	0.7196
2001.53	0.7175
2010.57	0.7153
2019.61	0.7131
2028.64	0.711
2037.68	0.7104
2046.72	0.7099
2055.76	0.7097
2064.8	0.7094
2073.83	0.709
2082.87	0.7086
2091.91	0.7076
2100.95	0.7064
2109.99	0.7053
2119.02	0.7036
2128.06	0.7015
2137.1	0.6994
2146.14	0.6975
2155.18	0.6957
2164.22	0.6942
2173.25	0.6931
2182.29	0.6919
2191.33	0.6908
2200.37	0.6896
2209.41	0.6879
2218.44	0.6861
2227.48	0.684
2236.52	0.6808
2245.56	0.6775
2254.6	0.6724
2263.63	0.666
2272.67	0.6591
2281.71	0.6493
2290.75	0.6376
2299.79	0.6256
2308.82	0.6141
2317.86	0.6029
2326.9	0.5988
2335.94	0.5971
2344.98	0.5967
2354.01	0.5977
2363.05	0.5989
2372.09	0.5989
2381.13	0.5971
2390.17	0.592
2399.21	0.5847
2408.24	0.5767
2417.28	0.568
2426.32	0.559
2435.36	0.5494
2444.4	0.54
2453.43	0.5314
2462.47	0.5229
2471.51	0.5143
2480.55	0.5074
2489.59	0.5013
2498.62	0.4969
2507.66	0.493
2516.7	0.4906
2525.74	0.4887
2534.78	0.4874
2543.81	0.4867
2552.85	0.486
2561.89	0.4853
2570.93	0.4847
2579.97	0.4844
2589	0.4842
2598.04	0.4841
2607.08	0.4843
2616.12	0.4841
2625.16	0.4842
2634.2	0.4842
2643.23	0.4841
2652.27	0.4839
2661.31	0.4837
2670.35	0.4835
2679.39	0.4836
2688.42	0.4837
2697.46	0.4834
2706.5	0.4832
2715.54	0.4813
2724.58	0.4792
2733.61	0.4765
2742.65	0.4737
2751.69	0.4681
2760.73	0.4604
2769.77	0.4527
2778.8	0.4451
2787.84	0.4385
2796.88	0.4331
2805.92	0.4283
2814.96	0.4256
2823.99	0.4241
2833.03	0.4246
2842.07	0.4256
2851.11	0.4259
2860.15	0.4251
2869.19	0.4252
2878.22	0.4258
2887.26	0.4257
2896.3	0.4257
2905.34	0.4256
2914.38	0.4256
2923.41	0.4259
2932.45	0.4264
2941.49	0.427
2950.53	0.4269
2959.57	0.4263
2968.6	0.4255
2977.64	0.4244
2986.68	0.4232
2995.72	0.4216
3004.76	0.421
3013.79	0.4201
3022.83	0.418
3031.87	0.4168
3040.91	0.4156
3049.95	0.4134
3058.98	0.4106
3068.02	0.3999
3077.06	0.3878
3086.1	0.4197
3095.14	0.4432
3104.18	0.4875
3113.21	0.4962
3122.25	0.5015
3131.29	0.5055
3140.33	0.5108
3149.37	0.5387
3158.4	0.5724
3167.44	0.5877
3176.48	0.5965
3185.52	0.603
3194.56	0.6107
3203.59	0.6208
3212.63	0.6313
3221.67	0.641
3230.71	0.6463
3239.75	0.6505
3248.78	0.6554
3257.82	0.6563
3266.86	0.6573
3275.9	0.6576
3284.94	0.6567
3293.97	0.6556
3303.01	0.6545
3312.05	0.6536
3321.09	0.6528
3330.13	0.652
3339.17	0.6515
3348.2	0.6509
3357.24	0.6502
3366.28	0.6491
3375.32	0.648
3384.36	0.6461
3393.39	0.6473
3402.43	0.6487
3411.47	0.6518
3420.51	0.6551
3429.55	0.6587
3438.58	0.6622
3447.62	0.6663
3456.66	0.6709
3465.7	0.6755
3474.74	0.6795
3483.77	0.683
3492.81	0.6862
3501.85	0.6894
3510.89	0.693
3519.93	0.6972
3528.96	0.7019
3538	0.7063
3547.04	0.7099
3556.08	0.7136
3565.12	0.7173
3574.16	0.7203
3583.19	0.7233
3592.23	0.7252
3601.27	0.7267
3610.31	0.7273
3619.35	0.7277
3628.38	0.7276
3637.42	0.7275
3646.46	0.727
3655.5	0.7264
3664.54	0.7259
3673.57	0.7256
3682.61	0.7253
3691.65	0.725
3700.69	0.7247
3709.73	0.7243
3718.76	0.7241
3727.8	0.7242
3736.84	0.7243
3745.88	0.7244
3754.92	0.7246
3763.95	0.7248
3772.99	0.7248
3782.03	0.7247
3791.07	0.7242
3800.11	0.7221
3809.15	0.7197
3818.18	0.7187
3827.22	0.718
3836.26	0.7179
3845.3	0.7177
3854.34	0.7172
3863.37	0.7167
3872.41	0.7163
3881.45	0.7157
3890.49	0.7152
3899.53	0.7148
3908.56	0.7144
3917.6	0.7141
3926.64	0.7139
3935.68	0.7136
3944.72	0.7133
3953.75	0.7128
3962.79	0.7122
3971.83	0.7116
3980.87	0.7109
3989.91	0.71
3998.94	0.709
4007.98	0.7081
