Infrared Spectrum: 2-[2'-(Alpha-METHYLBENZYLOXY)ETHOXY]ETHYL BENZOATE
Formula: C19 H22 O4
CAS: 116495-71-7
State: SOLUTION (10% CCl4 FOR 5000-1330, 10% CS2 FOR 1330-625 CM^-^1)
Class: COBLENTZ
Instrument: Not specified, most likely a prism, grating, or hybrid spectrometer.
Sampling: TRANSMISSION
Path length: 0.0123 CM, 0.0110 CM
Resolution: 4
Origin: DOW CHEMICAL COMPANY
MICROMETERS	TRANSMITTANCE
2.089	0.892
2.13001	0.889
2.17103	0.887
2.21204	0.887
2.25306	0.88
2.29407	0.873
2.33508	0.875
2.3761	0.875
2.41711	0.868
2.45813	0.868
2.49914	0.883
2.54015	0.892
2.58117	0.892
2.62218	0.892
2.6632	0.892
2.70421	0.892
2.74522	0.887
2.78624	0.883
2.82725	0.88
2.86826	0.868
2.90928	0.872
2.95029	0.894
2.99131	0.89
3.03232	0.89
3.07333	0.892
3.11435	0.887
3.15536	0.883
3.19638	0.815
3.23739	0.701
3.2784	0.67
3.31942	0.668
3.36043	0.472
3.40145	0.45
3.44246	0.377
3.48347	0.385
3.52449	0.699
3.5655	0.776
3.60652	0.824
3.64753	0.834
3.68854	0.861
3.72956	0.88
3.77057	0.89
3.81159	0.878
3.8526	0.878
3.89361	0.892
3.93463	0.89
3.97564	0.892
4.01666	0.901
4.05767	0.901
4.09868	0.901
4.1397	0.901
4.18071	0.892
4.22173	0.895
4.26274	0.892
4.30375	0.885
4.34477	0.882
4.38578	0.883
4.42679	0.889
4.46781	0.89
4.50882	0.897
4.54984	0.899
4.59085	0.899
4.63186	0.899
4.67288	0.899
4.71389	0.901
4.75491	0.901
4.79592	0.899
4.83693	0.894
4.87795	0.901
4.91896	0.901
4.95998	0.889
5.00099	0.875
5.042	0.863
5.08302	0.829
5.12403	0.831
5.16505	0.87
5.20606	0.866
5.24707	0.866
5.28809	0.872
5.3291	0.868
5.37012	0.89
5.41113	0.887
5.45214	0.868
5.49316	0.839
5.53417	0.843
5.57519	0.848
5.6162	0.822
5.65721	0.807
5.69823	0.716
5.73924	0.558
5.78026	0.138
5.82127	0.073
5.86228	0.554
5.9033	0.766
5.94431	0.79
5.98532	0.824
6.02634	0.843
6.06735	0.843
6.10837	0.843
6.14938	0.82
6.19039	0.692
6.23141	0.583
6.27242	0.61
6.31344	0.552
6.35445	0.576
6.39546	0.515
6.43648	0.469
6.47749	0.494
6.51851	0.59
6.55952	0.633
6.60053	0.677
6.64155	0.687
6.68256	0.578
6.72358	0.738
6.76459	0.721
6.8056	0.622
6.84662	0.462
6.88763	0.315
6.92865	0.621
6.96966	0.759
7.01067	0.786
7.05169	0.786
7.0927	0.745
7.13372	0.703
7.17473	0.697
7.21574	0.656
7.25676	0.53
7.29777	0.5
7.33879	0.569
7.3798	0.527
7.42081	0.549
7.46183	0.617
7.50284	0.612
7.54385	0.544
7.58487	0.441
7.62588	0.52
7.6669	0.489
7.70791	0.419
7.74892	0.315
7.78994	0.133
7.83095	0.018
7.87197	0.022
7.91298	0.124
7.95399	0.284
7.99501	0.293
8.03602	0.421
8.07704	0.585
8.11805	0.697
8.15906	0.72
8.20008	0.696
8.24109	0.607
8.28211	0.558
8.32312	0.715
8.36413	0.737
8.40515	0.703
8.44616	0.593
8.48718	0.452
8.52819	0.529
8.5692	0.571
8.61022	0.476
8.65123	0.361
8.69225	0.271
8.73326	0.22
8.77427	0.197
8.81529	0.175
8.8563	0.155
8.89732	0.112
8.93833	0.075
8.97934	0.044
9.02036	0.029
9.06137	0.027
9.10238	0.032
9.1434	0.046
9.18441	0.081
9.22543	0.155
9.26644	0.261
9.30745	0.295
9.34847	0.215
9.38948	0.226
9.4305	0.455
9.47151	0.558
9.51252	0.59
9.55354	0.592
9.59455	0.58
9.63557	0.552
9.67658	0.474
9.71759	0.351
9.75861	0.438
9.79962	0.607
9.84064	0.636
9.88165	0.581
9.92266	0.619
9.96368	0.679
10.0047	0.667
10.0457	0.679
10.0867	0.721
10.1277	0.749
10.1687	0.757
10.2098	0.761
10.2508	0.766
10.2918	0.774
10.3328	0.771
10.3738	0.744
10.4148	0.697
10.4558	0.663
10.4969	0.626
10.5379	0.616
10.5789	0.626
10.6199	0.638
10.6609	0.645
10.7019	0.648
10.7429	0.677
10.784	0.703
10.825	0.711
10.866	0.732
10.907	0.744
10.948	0.737
10.989	0.726
11.03	0.773
11.0711	0.798
11.1121	0.807
11.1531	0.8
11.1941	0.778
11.2351	0.744
11.2761	0.708
11.3171	0.674
11.3582	0.656
11.3992	0.648
11.4402	0.648
11.4812	0.648
11.5222	0.646
11.5632	0.638
11.6042	0.616
11.6452	0.593
11.6863	0.575
11.7273	0.571
11.7683	0.585
11.8093	0.617
11.8503	0.662
11.8913	0.716
11.9323	0.755
11.9734	0.783
12.0144	0.798
12.0554	0.813
12.0964	0.822
12.1374	0.836
12.1784	0.846
12.2194	0.848
12.2605	0.848
12.3015	0.841
12.3425	0.834
12.3835	0.827
12.4245	0.822
12.4655	0.817
12.5065	0.822
12.5476	0.836
12.5886	0.843
12.6296	0.843
12.6706	0.839
12.7116	0.827
12.7526	0.825
12.7936	0.815
12.8347	0.796
12.8757	0.776
12.9167	0.752
12.9577	0.716
12.9987	0.667
13.0397	0.614
13.0807	0.501
13.1218	0.368
13.1628	0.312
13.2038	0.322
13.2448	0.457
13.2858	0.566
13.3268	0.627
13.3678	0.672
13.4088	0.697
13.4499	0.713
13.4909	0.725
13.5319	0.73
13.5729	0.737
13.6139	0.737
13.6549	0.73
13.6959	0.716
13.737	0.699
13.778	0.675
13.819	0.643
13.86	0.581
13.901	0.491
13.942	0.356
13.983	0.226
14.0241	0.075
14.0651	0.018
14.1061	0.027
14.1471	0.08
14.1881	0.117
14.2291	0.097
14.2701	0.078
14.3112	0.122
14.3522	0.24
14.3932	0.377
14.4342	0.457
14.4752	0.476
14.5162	0.476
14.5572	0.486
14.5983	0.51
14.6393	0.537
14.6803	0.551
14.7213	0.546
14.7623	0.534
14.8033	0.532
14.8443	0.537
14.8854	0.556
14.9264	0.568
14.9674	0.575
15.0084	0.578
15.0494	0.573
15.0904	0.566
15.1314	0.561
15.1724	0.558
15.2135	0.552
15.2545	0.54
15.2955	0.535
15.3365	0.532
15.3775	0.53
15.4185	0.529
15.4595	0.525
15.5006	0.523
15.5416	0.523
15.5826	0.522
15.6236	0.52
15.6646	0.517
15.7056	0.515
15.7466	0.517
15.7877	0.518
15.8287	0.518
15.8697	0.518
15.9107	0.518
