Infrared Spectrum: 2-(p-NONYLPHENOXY)-6-(2-PHENYLETHYL) PYRAZINE
Formula: C27 H34 N2 O
CAS: 116402-77-8
State: LIQUID
Class: COBLENTZ
Instrument: Not specified, most likely a prism, grating, or hybrid spectrometer.
Sampling: TRANSMISSION
Path length: 0.0015 CM
Resolution: 4
Origin: WYANDOTTE CHEMICALS CORP., WYANDOTTE, MICHIGAN, USA
MICROMETERS	TRANSMITTANCE
2.02	0.926
2.06088	0.909
2.10175	0.914
2.14263	0.924
2.18351	0.898
2.22438	0.89
2.26526	0.895
2.30614	0.9
2.34701	0.9
2.38789	0.89
2.42877	0.907
2.46964	0.907
2.51052	0.91
2.55139	0.922
2.59227	0.9
2.63315	0.921
2.67402	0.924
2.7149	0.916
2.75578	0.921
2.79665	0.902
2.83753	0.898
2.87841	0.883
2.91928	0.875
2.96016	0.859
3.00104	0.857
3.04191	0.849
3.08279	0.84
3.12367	0.828
3.16454	0.825
3.20542	0.772
3.2463	0.578
3.28717	0.484
3.32805	0.316
3.36892	0.058
3.4098	0.106
3.45068	0.226
3.49155	0.255
3.53243	0.686
3.57331	0.804
3.61418	0.845
3.65506	0.849
3.69594	0.864
3.73681	0.886
3.77769	0.89
3.81857	0.89
3.85944	0.89
3.90032	0.902
3.9412	0.909
3.98207	0.907
4.02295	0.914
4.06383	0.912
4.1047	0.9
4.14558	0.904
4.18645	0.907
4.22733	0.886
4.26821	0.866
4.30908	0.878
4.34996	0.909
4.39084	0.933
4.43171	0.924
4.47259	0.933
4.51347	0.941
4.55434	0.94
4.59522	0.943
4.6361	0.945
4.67697	0.943
4.71785	0.95
4.75873	0.94
4.7996	0.95
4.84048	0.94
4.88136	0.934
4.92223	0.926
4.96311	0.926
5.00398	0.926
5.04486	0.934
5.08574	0.936
5.12661	0.936
5.16749	0.914
5.20837	0.914
5.24924	0.936
5.29012	0.909
5.331	0.878
5.37187	0.909
5.41275	0.928
5.45363	0.94
5.4945	0.933
5.53538	0.919
5.57626	0.902
5.61713	0.916
5.65801	0.9
5.69889	0.898
5.73976	0.904
5.78064	0.909
5.82151	0.916
5.86239	0.898
5.90327	0.881
5.94414	0.868
5.98502	0.844
6.0259	0.801
6.06677	0.809
6.10765	0.779
6.14853	0.765
6.1894	0.518
6.23028	0.647
6.27116	0.568
6.31203	0.645
6.35291	0.707
6.39379	0.693
6.43466	0.523
6.47554	0.297
6.51642	0.412
6.55729	0.4
6.59817	0.14
6.63904	0.099
6.67992	0.332
6.7208	0.438
6.76167	0.303
6.80255	0.118
6.84343	0.099
6.8843	0.166
6.92518	0.212
6.96606	0.275
7.00693	0.344
7.04781	0.2
7.08869	0.102
7.12956	0.243
7.17044	0.303
7.21132	0.109
7.25219	0.049
7.29307	0.046
7.33395	0.075
7.37482	0.126
7.4157	0.198
7.45657	0.311
7.49745	0.424
7.53833	0.421
7.5792	0.371
7.62008	0.294
7.66096	0.2
7.70183	0.167
7.74271	0.162
7.78359	0.171
7.82446	0.214
7.86534	0.279
7.90622	0.299
7.94709	0.351
7.98797	0.337
8.02885	0.328
8.06972	0.328
8.1106	0.282
8.15148	0.202
8.19235	0.094
8.23323	0.049
8.2741	0.109
8.31498	0.267
8.35586	0.333
8.39673	0.306
8.43761	0.184
8.47849	0.077
8.51936	0.059
8.56024	0.157
8.60112	0.25
8.64199	0.265
8.68287	0.321
8.72375	0.429
8.76462	0.525
8.8055	0.553
8.84638	0.549
8.88725	0.52
8.92813	0.534
8.96901	0.561
9.00988	0.655
9.05076	0.698
9.09163	0.698
9.13251	0.702
9.17339	0.707
9.21426	0.71
9.25514	0.647
9.29602	0.614
9.33689	0.707
9.37777	0.772
9.41865	0.792
9.45952	0.791
9.5004	0.791
9.54128	0.775
9.58215	0.746
9.62303	0.698
9.66391	0.597
9.70478	0.511
9.74566	0.484
9.78654	0.41
9.82741	0.256
9.86829	0.272
9.90916	0.443
9.95004	0.587
9.99092	0.652
10.0318	0.729
10.0727	0.761
10.1135	0.773
10.1544	0.758
10.1953	0.738
10.2362	0.708
10.2771	0.693
10.3179	0.7
10.3588	0.72
10.3997	0.755
10.4406	0.797
10.4814	0.815
10.5223	0.832
10.5632	0.835
10.6041	0.828
10.6449	0.809
10.6858	0.801
10.7267	0.791
10.7676	0.777
10.8084	0.755
10.8493	0.753
10.8902	0.748
10.9311	0.75
10.972	0.779
11.0128	0.785
11.0537	0.789
11.0946	0.799
11.1355	0.801
11.1763	0.784
11.2172	0.767
11.2581	0.738
11.299	0.729
11.3398	0.726
11.3807	0.732
11.4216	0.731
11.4625	0.734
11.5033	0.731
11.5442	0.722
11.5851	0.714
11.626	0.691
11.6669	0.635
11.7077	0.577
11.7486	0.529
11.7895	0.488
11.8304	0.446
11.8712	0.395
11.9121	0.349
11.953	0.339
11.9939	0.357
12.0347	0.393
12.0756	0.47
12.1165	0.537
12.1574	0.604
12.1982	0.643
12.2391	0.672
12.28	0.683
12.3209	0.719
12.3618	0.746
12.4026	0.763
12.4435	0.773
12.4844	0.775
12.5253	0.767
12.5661	0.758
12.607	0.731
12.6479	0.719
12.6888	0.715
12.7296	0.734
12.7705	0.739
12.8114	0.75
12.8523	0.76
12.8931	0.767
12.934	0.765
12.9749	0.753
13.0158	0.739
13.0567	0.738
13.0975	0.731
13.1384	0.71
13.1793	0.664
13.2202	0.614
13.261	0.559
13.3019	0.489
13.3428	0.436
13.3837	0.409
13.4245	0.405
13.4654	0.431
13.5063	0.477
13.5472	0.506
13.5881	0.535
13.6289	0.558
13.6698	0.601
13.7107	0.619
13.7516	0.633
13.7924	0.642
13.8333	0.657
13.8742	0.664
13.9151	0.683
13.9559	0.7
13.9968	0.719
14.0377	0.731
14.0786	0.741
14.1194	0.739
14.1603	0.707
14.2012	0.64
14.2421	0.532
14.283	0.412
14.3238	0.304
14.3647	0.258
14.4056	0.273
14.4465	0.375
14.4873	0.51
14.5282	0.621
14.5691	0.683
14.61	0.751
14.6508	0.785
14.6917	0.811
14.7326	0.823
14.7735	0.832
14.8143	0.839
14.8552	0.847
14.8961	0.84
14.937	0.844
14.9779	0.835
15.0187	0.803
15.0596	0.782
15.1005	0.799
15.1414	0.82
15.1822	0.823
15.2231	0.823
15.264	0.821
15.3049	0.809
15.3457	0.799
15.3866	0.791
15.4275	0.779
15.4684	0.773
15.5092	0.763
15.5501	0.76
15.591	0.753
15.6319	0.748
15.6728	0.731
15.7136	0.729
15.7545	0.715
15.7954	0.703
15.8363	0.696
15.8771	0.686
15.918	0.671
15.9589	0.659
