Infrared Spectrum: Adipic acid, 3,4-bis(3',4'-dimethoxyphenyl)-, dimethyl ester
Formula: C24 H30 O8
CAS: 116435-60-0
State: SOLUTION 7% (CHCl3 FOR 2.5-15 microns)
Melting point: 184-186 C
Class: COBLENTZ
Instrument: PERKIN-ELMER 421 (GRATING)
Instrument parameters: GRATING CHANGE AT 1999 CM^-^
Path length: 0.01 CM
Resolution: 2
Origin: ABBOTT LABORATORIES
1/CM	TRANSMITTANCE
781	0.7761
790	0.7763
799	0.7307
808	0.7554
817	0.9036
826	0.9066
835	0.8884
844	0.7413
853	0.6463
862	0.8553
871	0.8636
880	0.7682
889	0.635
898	0.7186
907	0.855
916	0.9393
925	0.9437
934	0.9201
943	0.9049
952	0.8892
961	0.8291
970	0.792
979	0.7624
988	0.7652
997	0.7398
1006	0.6055
1015	0.4649
1024	0.1822
1033	0.4752
1042	0.7044
1051	0.7461
1060	0.7642
1069	0.7683
1078	0.7773
1087	0.7956
1096	0.8079
1105	0.797
1114	0.7426
1123	0.557
1132	0.2307
1141	0.0907
1150	0.1776
1159	0.2217
1168	0.3861
1177	0.507
1186	0.4927
1195	0.4264
1204	0.3636
1213	0.3008
1222	0.2379
1231	0.1751
1240	0.1123
1249	0.0543
1258	0.0509
1267	0.2189
1276	0.3868
1285	0.4548
1294	0.4484
1303	0.4763
1312	0.5533
1321	0.5699
1330	0.5914
1339	0.5282
1348	0.5394
1357	0.5188
1366	0.5419
1375	0.7719
1384	0.8162
1393	0.8199
1402	0.7383
1411	0.5661
1420	0.4828
1429	0.4313
1438	0.2777
1447	0.4403
1456	0.3224
1465	0.623
1474	0.7298
1483	0.6335
1492	0.4337
1501	0.2867
1510	0.2776
1519	0.6979
1528	0.8062
1537	0.8284
1546	0.8404
1555	0.8404
1564	0.8093
1573	0.7301
1582	0.5354
1591	0.5797
1600	0.682
1609	0.8486
1618	0.8559
1627	0.8613
1636	0.8621
1645	0.8613
1654	0.8543
1663	0.8355
1672	0.8053
1681	0.7872
1690	0.6944
1699	0.5693
1708	0.3746
1717	0.1504
1726	0.1174
1735	0.2288
1744	0.5632
1753	0.8171
1762	0.8608
1771	0.8809
1780	0.8941
1789	0.9031
1798	0.9037
1807	0.9014
1816	0.9005
1825	0.9013
1834	0.9076
1843	0.9141
1852	0.9177
1861	0.9199
1870	0.9208
1879	0.9208
1888	0.9198
1897	0.9179
1906	0.9173
1915	0.9178
1924	0.9178
1933	0.917
1942	0.9157
1951	0.9142
1960	0.9121
1969	0.9096
1978	0.9054
1987	0.8945
1996	0.8634
2005	0.8587
2014	0.8564
2023	0.8555
2032	0.8584
2041	0.863
2050	0.869
2059	0.8755
2068	0.8788
2077	0.8792
2086	0.88
2095	0.8813
2104	0.882
2113	0.8822
2122	0.8825
2131	0.8828
2140	0.8829
2149	0.8823
2158	0.882
2167	0.884
2176	0.8861
2185	0.8858
2194	0.8854
2203	0.886
2212	0.8863
2221	0.8866
2230	0.8861
2239	0.8846
2248	0.8844
2257	0.8846
2266	0.8849
2275	0.8853
2284	0.8859
2293	0.8879
2302	0.8897
2311	0.8915
2320	0.8928
2329	0.8935
2338	0.8939
2347	0.895
2356	0.8969
2365	0.8995
2374	0.9037
2383	0.9041
2392	0.8912
2401	0.8669
2410	0.8618
2419	0.8605
2428	0.8601
2437	0.86
2446	0.8569
2455	0.8524
2464	0.8499
2473	0.8483
2482	0.8449
2491	0.8499
2500	0.8498
2509	0.8481
2518	0.8476
2527	0.8477
2536	0.8477
2545	0.8478
2554	0.8479
2563	0.848
2572	0.848
2581	0.8481
2590	0.8485
2599	0.8515
2608	0.8547
2617	0.8574
2626	0.8596
2635	0.8605
2644	0.8605
2653	0.8606
2662	0.8607
2671	0.8604
2680	0.8599
2689	0.8597
2698	0.8596
2707	0.8594
2716	0.8591
2725	0.8581
2734	0.8566
2743	0.8551
2752	0.8541
2761	0.8525
2770	0.8503
2779	0.8481
2788	0.8444
2797	0.8382
2806	0.8259
2815	0.8006
2824	0.6271
2833	0.5719
2842	0.7593
2851	0.8033
2860	0.7969
2869	0.7673
2878	0.7508
2887	0.699
2896	0.6122
2905	0.5923
2914	0.6185
2923	0.547
2932	0.499
2941	0.4625
2950	0.478
2959	0.5369
2968	0.6553
2977	0.6635
2986	0.6186
2995	0.436
3004	0.4393
3013	0.4637
3022	0.474
3031	0.6016
3040	0.6999
3049	0.7313
3058	0.7627
3067	0.7886
3076	0.7992
3085	0.8062
3094	0.8134
3103	0.8196
3112	0.8247
3121	0.8309
3130	0.8343
3139	0.835
3148	0.8356
3157	0.8363
3166	0.8363
3175	0.8357
3184	0.835
3193	0.835
3202	0.8349
3211	0.835
3220	0.8355
3229	0.8371
3238	0.8368
3247	0.8361
3256	0.8366
3265	0.837
3274	0.8373
3283	0.8369
3292	0.8365
3301	0.8355
3310	0.8344
3319	0.8338
3328	0.834
3337	0.834
3346	0.8334
3355	0.8328
3364	0.8321
3373	0.8315
3382	0.8311
3391	0.8297
3400	0.8282
3409	0.8271
3418	0.8265
3427	0.8267
3436	0.8288
3445	0.832
3454	0.8355
3463	0.8397
3472	0.8414
3481	0.8419
3490	0.8426
3499	0.8434
3508	0.8444
3517	0.8455
3526	0.8475
3535	0.8501
3544	0.8526
3553	0.8547
3562	0.8569
3571	0.8596
3580	0.8622
3589	0.864
3598	0.8646
3607	0.8649
3616	0.8649
3625	0.8645
3634	0.8633
3643	0.8622
3652	0.8629
3661	0.8632
3670	0.8641
3679	0.8656
3688	0.8675
3697	0.8678
3706	0.868
3715	0.868
3724	0.867
3733	0.8659
3742	0.865
3751	0.8644
3760	0.8645
3769	0.8647
3778	0.8649
3787	0.8651
3796	0.8651
3805	0.8651
3814	0.865
3823	0.8648
3832	0.8645
3841	0.8642
3850	0.8642
3859	0.8643
3868	0.8638
3877	0.8632
3886	0.8621
3895	0.8613
3904	0.8612
3913	0.861
3922	0.8608
3931	0.8603
3940	0.8599
3949	0.8598
3958	0.8596
3967	0.8592
3976	0.8595
3985	0.8597
3994	0.8597
