Infrared Spectrum: P-HYDROXYBENZALDEHYDE P-CHLOROPHENYL HYDRAZONE
Formula: C13 H11 Cl N2 O
CAS: 116465-70-4
State: SOLID (MINERAL OIL MULL)
Class: COBLENTZ
Instrument: Not specified, most likely a prism, grating, or hybrid spectrometer.
Sampling: TRANSMISSION
Resolution: 4
MICROMETERS	TRANSMITTANCE
2.027	0.268
2.0682	0.258
2.1094	0.268
2.15059	0.282
2.19179	0.29
2.23299	0.302
2.27419	0.309
2.31539	0.314
2.35658	0.324
2.39778	0.338
2.43898	0.35
2.48018	0.369
2.52138	0.389
2.56258	0.403
2.60377	0.415
2.64497	0.422
2.68617	0.435
2.72737	0.452
2.76857	0.468
2.80976	0.461
2.85096	0.415
2.89216	0.35
2.93336	0.304
2.97456	0.297
3.01575	0.28
3.05695	0.374
3.09815	0.403
3.13935	0.415
3.18055	0.427
3.22175	0.439
3.26294	0.432
3.30414	0.405
3.34534	0.297
3.38654	0.032
3.42774	0.059
3.46893	0.112
3.51013	0.333
3.55133	0.55
3.59253	0.581
3.63373	0.589
3.67492	0.591
3.71612	0.598
3.75732	0.608
3.79852	0.622
3.83972	0.63
3.88092	0.641
3.92211	0.654
3.96331	0.666
4.00451	0.673
4.04571	0.676
4.08691	0.685
4.1281	0.695
4.1693	0.697
4.2105	0.7
4.2517	0.716
4.2929	0.738
4.33409	0.743
4.37529	0.738
4.41649	0.748
4.45769	0.752
4.49889	0.752
4.54009	0.762
4.58128	0.764
4.62248	0.772
4.66368	0.781
4.70488	0.781
4.74608	0.786
4.78727	0.788
4.82847	0.8
4.86967	0.805
4.91087	0.806
4.95207	0.811
4.99326	0.817
5.03446	0.822
5.07566	0.827
5.11686	0.832
5.15806	0.841
5.19926	0.839
5.24045	0.827
5.28165	0.82
5.32285	0.818
5.36405	0.861
5.40525	0.864
5.44644	0.863
5.48764	0.861
5.52884	0.868
5.57004	0.873
5.61124	0.875
5.65243	0.875
5.69363	0.887
5.73483	0.89
5.77603	0.902
5.81723	0.9
5.85843	0.909
5.89962	0.9
5.94082	0.839
5.98202	0.813
6.02322	0.868
6.06442	0.875
6.10561	0.876
6.14681	0.786
6.18801	0.543
6.22921	0.177
6.27041	0.405
6.3116	0.623
6.3528	0.762
6.394	0.806
6.4352	0.841
6.4764	0.788
6.5176	0.687
6.55879	0.605
6.59999	0.42
6.64119	0.179
6.68239	0.309
6.72359	0.379
6.76478	0.423
6.80598	0.326
6.84718	0.3
6.88838	0.345
6.92958	0.471
6.97077	0.726
7.01197	0.782
7.05317	0.716
7.09437	0.699
7.13557	0.794
7.17676	0.711
7.21796	0.543
7.25916	0.488
7.30036	0.603
7.34156	0.623
7.38276	0.635
7.42395	0.694
7.46515	0.731
7.50635	0.76
7.54755	0.7
7.58875	0.62
7.62994	0.719
7.67114	0.584
7.71234	0.4
7.75354	0.652
7.79474	0.707
7.83593	0.678
7.87713	0.588
7.91833	0.422
7.95953	0.23
8.00073	0.217
8.04193	0.218
8.08312	0.2
8.12432	0.288
8.16552	0.446
8.20672	0.577
8.24792	0.634
8.28911	0.659
8.33031	0.699
8.37151	0.736
8.41271	0.764
8.45391	0.782
8.4951	0.711
8.5363	0.594
8.5775	0.68
8.6187	0.733
8.6599	0.738
8.7011	0.752
8.74229	0.68
8.78349	0.528
8.82469	0.444
8.86589	0.591
8.90709	0.694
8.94828	0.731
8.98948	0.762
9.03068	0.77
9.07188	0.697
9.11308	0.553
9.15427	0.357
9.19547	0.309
9.23667	0.558
9.27787	0.659
9.31907	0.699
9.36027	0.753
9.40146	0.798
9.44266	0.82
9.48386	0.829
9.52506	0.844
9.56626	0.858
9.60745	0.861
9.64865	0.866
9.68985	0.87
9.73105	0.87
9.77225	0.873
9.81344	0.875
9.85464	0.871
9.89584	0.861
9.93704	0.859
9.97824	0.849
10.0194	0.885
10.0606	0.894
10.1018	0.899
10.143	0.899
10.1842	0.897
10.2254	0.895
10.2666	0.878
10.3078	0.868
10.349	0.888
10.3902	0.892
10.4314	0.892
10.4726	0.883
10.5138	0.868
10.555	0.83
10.5962	0.796
10.6374	0.861
10.6786	0.875
10.7198	0.885
10.761	0.887
10.8022	0.878
10.8434	0.822
10.8846	0.705
10.9258	0.651
10.967	0.637
11.0082	0.77
11.0494	0.873
11.0906	0.907
11.1318	0.917
11.173	0.928
11.2142	0.935
11.2554	0.936
11.2966	0.941
11.3378	0.947
11.379	0.95
11.4202	0.953
11.4614	0.953
11.5026	0.948
11.5438	0.943
11.585	0.936
11.6262	0.931
11.6674	0.919
11.7086	0.899
11.7498	0.861
11.791	0.796
11.8322	0.723
11.8734	0.69
11.9145	0.678
11.9557	0.589
11.9969	0.384
12.0381	0.194
12.0793	0.167
12.1205	0.208
12.1617	0.252
12.2029	0.282
12.2441	0.418
12.2853	0.601
12.3265	0.724
12.3677	0.794
12.4089	0.823
12.4501	0.835
12.4913	0.847
12.5325	0.844
12.5737	0.829
12.6149	0.832
12.6561	0.859
12.6973	0.883
12.7385	0.9
12.7797	0.905
12.8209	0.907
12.8621	0.909
12.9033	0.909
12.9445	0.902
12.9857	0.897
13.0269	0.895
13.0681	0.895
13.1093	0.894
13.1505	0.885
13.1917	0.876
13.2329	0.873
13.2741	0.871
13.3153	0.864
13.3565	0.859
13.3977	0.852
13.4389	0.846
13.4801	0.827
13.5213	0.822
13.5625	0.813
13.6037	0.805
13.6449	0.796
13.6861	0.789
13.7273	0.781
13.7685	0.769
13.8097	0.758
13.8509	0.752
13.8921	0.745
13.9333	0.747
13.9745	0.75
14.0157	0.757
14.0569	0.76
14.098	0.752
14.1392	0.745
14.1804	0.726
14.2216	0.714
14.2628	0.711
14.304	0.707
14.3452	0.707
14.3864	0.705
14.4276	0.7
14.4688	0.688
14.51	0.675
14.5512	0.661
14.5924	0.651
14.6336	0.637
14.6748	0.63
14.716	0.63
14.7572	0.627
14.7984	0.62
14.8396	0.613
14.8808	0.605
14.922	0.596
14.9632	0.591
15.0044	0.586
15.0456	0.569
15.0868	0.56
15.128	0.55
15.1692	0.538
15.2104	0.529
15.2516	0.526
15.2928	0.516
15.334	0.502
15.3752	0.487
15.4164	0.458
15.4576	0.43
15.4988	0.415
15.54	0.408
15.5812	0.411
15.6224	0.413
15.6636	0.417
15.7048	0.415
15.746	0.417
15.7872	0.413
15.8284	0.415
15.8696	0.417
