Infrared Spectrum: 1-n-BUTYL-PHENOBARBITAL
Formula: C16 H20 N2 O3
CAS: 116495-69-3
State: LIQUID
Class: COBLENTZ
Instrument: PERKIN-ELMER
Sampling: TRANSMISSION
Path length: CAPILLARY
Resolution: 4
Origin: ABBOTT LABORATORIES - WASHBURN
MICROMETERS	TRANSMITTANCE
2.041	0.843
2.08089	0.845
2.12079	0.8501
2.16068	0.8478
2.20058	0.84
2.24047	0.8509
2.28036	0.8501
2.32026	0.833
2.36015	0.84
2.40005	0.8448
2.43994	0.85
2.47983	0.8361
2.51973	0.841
2.55962	0.8509
2.59952	0.851
2.63941	0.8559
2.6793	0.8598
2.7192	0.8551
2.75909	0.8254
2.79899	0.7969
2.83888	0.778
2.87877	0.778
2.91867	0.7633
2.95856	0.7311
2.99846	0.6608
3.03835	0.5278
3.07824	0.3426
3.11814	0.2629
3.15803	0.3319
3.19793	0.4009
3.23782	0.378
3.27772	0.4195
3.31761	0.5241
3.3575	0.5351
3.3974	0.3169
3.43729	0.3368
3.47719	0.4897
3.51708	0.446
3.55697	0.6455
3.59687	0.7164
3.63676	0.7678
3.67666	0.7979
3.71655	0.8211
3.75644	0.833
3.79634	0.836
3.83623	0.835
3.87613	0.831
3.91602	0.831
3.95591	0.8309
3.99581	0.825
4.0357	0.826
4.0756	0.825
4.11549	0.826
4.15538	0.823
4.19528	0.8201
4.23517	0.813
4.27507	0.818
4.31496	0.823
4.35485	0.818
4.39475	0.82
4.43464	0.815
4.47454	0.8101
4.51443	0.811
4.55432	0.813
4.59422	0.8131
4.63411	0.81
4.67401	0.81
4.7139	0.8061
4.75379	0.8062
4.79369	0.808
4.83358	0.8051
4.87348	0.803
4.91337	0.803
4.95326	0.803
4.99316	0.8001
5.03305	0.786
5.07295	0.7785
5.11284	0.7719
5.15273	0.77
5.19263	0.773
5.23252	0.7693
5.27242	0.76
5.31231	0.753
5.3522	0.7501
5.3921	0.76
5.43199	0.753
5.47189	0.7252
5.51178	0.6958
5.55168	0.661
5.59157	0.6186
5.63146	0.5238
5.67136	0.3257
5.71125	0.1886
5.75115	0.1842
5.79104	0.1014
5.83093	0.101
5.87083	0.1094
5.91072	0.0966
5.95062	0.1005
5.99051	0.1314
6.0304	0.2247
6.0703	0.3544
6.11019	0.4567
6.15009	0.5163
6.18998	0.5402
6.22987	0.5401
6.26977	0.519
6.30966	0.5756
6.34956	0.6296
6.38945	0.6555
6.42934	0.6604
6.46924	0.6557
6.50913	0.6474
6.54903	0.621
6.58892	0.611
6.62881	0.5767
6.66871	0.4756
6.7086	0.367
6.7485	0.4718
6.78839	0.4855
6.82828	0.2943
6.86818	0.2275
6.90807	0.1784
6.94797	0.1344
6.98786	0.1408
7.02775	0.1552
7.06765	0.14
7.10754	0.1294
7.14744	0.1578
7.18733	0.2119
7.22722	0.1768
7.26712	0.1423
7.30701	0.1426
7.34691	0.138
7.3868	0.1301
7.42669	0.1375
7.46659	0.1721
7.50648	0.2257
7.54638	0.271
7.58627	0.2264
7.62617	0.1721
7.66606	0.1722
7.70595	0.2057
7.74585	0.2415
7.78574	0.3435
7.82564	0.4175
7.86553	0.4389
7.90542	0.4777
7.94532	0.491
7.98521	0.5101
8.02511	0.5654
8.065	0.5823
8.10489	0.5908
8.14479	0.5637
8.18468	0.5211
8.22458	0.4368
8.26447	0.3091
8.30436	0.2425
8.34426	0.2622
8.38415	0.3339
8.42405	0.4761
8.46394	0.5641
8.50383	0.578
8.54373	0.59
8.58362	0.5949
8.62352	0.5952
8.66341	0.605
8.7033	0.6345
8.7432	0.6275
8.78309	0.613
8.82299	0.6205
8.86288	0.6366
8.90277	0.6484
8.94267	0.6341
8.98256	0.5901
9.02246	0.6326
9.06235	0.641
9.10224	0.6396
9.14214	0.5744
9.18203	0.4596
9.22193	0.4018
9.26182	0.4579
9.30171	0.5243
9.34161	0.56
9.3815	0.5601
9.4214	0.5893
9.46129	0.639
9.50118	0.6755
9.54108	0.6969
9.58097	0.708
9.62087	0.6411
9.66076	0.563
9.70065	0.6385
9.74055	0.6857
9.78044	0.696
9.82034	0.69
9.86023	0.695
9.90013	0.6935
9.94002	0.6733
9.97991	0.635
10.0198	0.688
10.0597	0.6935
10.0996	0.7102
10.1395	0.7161
10.1794	0.723
10.2193	0.7131
10.2592	0.6917
10.2991	0.6766
10.339	0.6621
10.3789	0.6827
10.4187	0.7089
10.4586	0.726
10.4985	0.7258
10.5384	0.6997
10.5783	0.6426
10.6182	0.6013
10.6581	0.5976
10.698	0.591
10.7379	0.5743
10.7778	0.5746
10.8177	0.6251
10.8576	0.6772
10.8975	0.686
10.9374	0.683
10.9773	0.681
11.0172	0.68
11.0571	0.6858
11.0969	0.6958
11.1368	0.701
11.1767	0.6955
11.2166	0.691
11.2565	0.6908
11.2964	0.676
11.3363	0.6759
11.3762	0.668
11.4161	0.6562
11.456	0.6401
11.4959	0.6224
11.5358	0.6018
11.5757	0.5891
11.6156	0.5842
11.6555	0.573
11.6954	0.5692
11.7353	0.5609
11.7751	0.5481
11.815	0.5252
11.8549	0.5072
11.8948	0.4916
11.9347	0.481
11.9746	0.4804
12.0145	0.48
12.0544	0.475
12.0943	0.48
12.1342	0.476
12.1741	0.473
12.214	0.468
12.2539	0.4636
12.2938	0.4516
12.3337	0.448
12.3736	0.4531
12.4134	0.446
12.4533	0.4465
12.4932	0.45
12.5331	0.4427
12.573	0.435
12.6129	0.4151
12.6528	0.4023
12.6927	0.3798
12.7326	0.368
12.7725	0.3555
12.8124	0.345
12.8523	0.3393
12.8922	0.3289
12.9321	0.3121
12.972	0.288
13.0119	0.2717
13.0518	0.2613
13.0916	0.253
13.1315	0.251
13.1714	0.259
13.2113	0.2894
13.2512	0.3256
13.2911	0.3602
13.331	0.3861
13.3709	0.4
13.4108	0.398
13.4507	0.3952
13.4906	0.3886
13.5305	0.3755
13.5704	0.3656
13.6103	0.355
13.6502	0.355
13.6901	0.348
13.73	0.34
13.7698	0.328
13.8097	0.3132
13.8496	0.308
13.8895	0.3136
13.9294	0.3273
13.9693	0.3391
14.0092	0.348
14.0491	0.3486
14.089	0.3609
14.1289	0.366
14.1688	0.3609
14.2087	0.3433
14.2486	0.3172
14.2885	0.2849
14.3284	0.2511
14.3683	0.228
14.4082	0.216
14.448	0.231
14.4879	0.2534
14.5278	0.2969
14.5677	0.3528
14.6076	0.3959
14.6475	0.4256
14.6874	0.4357
14.7273	0.4472
14.7672	0.4589
14.8071	0.475
14.847	0.4774
14.8869	0.4834
14.9268	0.485
14.9667	0.4899
15.0066	0.503
15.0465	0.503
15.0863	0.501
15.1262	0.4991
15.1661	0.5
15.206	0.501
15.2459	0.501
15.2858	0.498
15.3257	0.501
15.3656	0.4981
15.4055	0.498
