Infrared Spectrum: 2-(p-NONYLPHENOXY)-3-METHYL-6-BENZYL PYRAZINE
Formula: C27 H34 N2 O
CAS: 116402-76-7
State: LIQUID
Class: COBLENTZ
Instrument: Not specified, most likely a prism, grating, or hybrid spectrometer.
Sampling: TRANSMISSION
Path length: CAPILLARY
Resolution: 4
Origin: WYANDOTTE CHEMICALS CORP., WYANDOTTE, MICHIGAN, USA
MICROMETERS	TRANSMITTANCE
2	0.969
2.04082	0.969
2.08164	0.969
2.12245	0.967
2.16327	0.952
2.20409	0.931
2.24491	0.931
2.28572	0.938
2.32654	0.938
2.36736	0.926
2.40818	0.945
2.44899	0.952
2.48981	0.948
2.53063	0.947
2.57145	0.953
2.61226	0.959
2.65308	0.955
2.6939	0.95
2.73472	0.948
2.77553	0.95
2.81635	0.931
2.85717	0.921
2.89799	0.918
2.9388	0.911
2.97962	0.897
3.02044	0.889
3.06126	0.878
3.10207	0.866
3.14289	0.86
3.18371	0.846
3.22453	0.745
3.26534	0.629
3.30616	0.624
3.34698	0.17
3.3878	0.232
3.42861	0.382
3.46943	0.392
3.51025	0.682
3.55107	0.837
3.59188	0.87
3.6327	0.875
3.67352	0.873
3.71434	0.897
3.75515	0.906
3.79597	0.899
3.83679	0.907
3.87761	0.909
3.91842	0.907
3.95924	0.911
4.00006	0.912
4.04088	0.914
4.08169	0.904
4.12251	0.901
4.16333	0.904
4.20415	0.892
4.24496	0.895
4.28578	0.923
4.3266	0.93
4.36742	0.933
4.40823	0.919
4.44905	0.928
4.48987	0.928
4.53069	0.926
4.5715	0.93
4.61232	0.93
4.65314	0.93
4.69396	0.926
4.73477	0.931
4.77559	0.924
4.81641	0.923
4.85723	0.912
4.89804	0.914
4.93886	0.912
4.97968	0.912
5.0205	0.919
5.06131	0.912
5.10213	0.912
5.14295	0.899
5.18377	0.894
5.22458	0.914
5.2654	0.901
5.30622	0.873
5.34704	0.89
5.38785	0.909
5.42867	0.912
5.46949	0.911
5.51031	0.899
5.55112	0.88
5.59194	0.883
5.63276	0.868
5.67358	0.861
5.71439	0.861
5.75521	0.86
5.79603	0.841
5.83685	0.822
5.87766	0.791
5.91848	0.795
5.9593	0.774
6.00012	0.771
6.04093	0.773
6.08175	0.759
6.12257	0.745
6.16339	0.627
6.2042	0.66
6.24502	0.656
6.28584	0.651
6.32666	0.732
6.36747	0.704
6.40829	0.585
6.44911	0.518
6.48993	0.626
6.53074	0.585
6.57156	0.278
6.61238	0.199
6.6532	0.416
6.69401	0.561
6.73483	0.459
6.77565	0.276
6.81647	0.187
6.85728	0.237
6.8981	0.317
6.93892	0.36
6.97974	0.462
7.02055	0.525
7.06137	0.472
7.10219	0.482
7.14301	0.37
7.18382	0.233
7.22464	0.081
7.26546	0.063
7.30628	0.133
7.34709	0.3
7.38791	0.419
7.42873	0.459
7.46955	0.481
7.51036	0.486
7.55118	0.515
7.592	0.515
7.63282	0.494
7.67363	0.474
7.71445	0.453
7.75527	0.45
7.79609	0.467
7.8369	0.508
7.87772	0.511
7.91854	0.527
7.95936	0.573
8.00017	0.581
8.04099	0.544
8.08181	0.467
8.12263	0.36
8.16344	0.244
8.20426	0.121
8.24508	0.163
8.2859	0.356
8.32671	0.481
8.36753	0.477
8.40835	0.346
8.44917	0.203
8.48998	0.133
8.5308	0.257
8.57162	0.356
8.61244	0.39
8.65325	0.399
8.69407	0.498
8.73489	0.581
8.77571	0.653
8.81652	0.692
8.85734	0.675
8.89816	0.612
8.93898	0.6
8.97979	0.668
9.02061	0.73
9.06143	0.749
9.10225	0.749
9.14306	0.754
9.18388	0.762
9.2247	0.744
9.26552	0.68
9.30633	0.738
9.34715	0.779
9.38797	0.803
9.42879	0.813
9.4696	0.807
9.51042	0.807
9.55124	0.79
9.59206	0.757
9.63287	0.709
9.67369	0.612
9.71451	0.616
9.75533	0.61
9.79614	0.513
9.83696	0.382
9.87778	0.525
9.9186	0.645
9.95941	0.679
10.0002	0.745
10.041	0.783
10.0819	0.791
10.1227	0.781
10.1635	0.764
10.2043	0.762
10.2451	0.79
10.286	0.803
10.3268	0.812
10.3676	0.81
10.4084	0.819
10.4492	0.829
10.49	0.831
10.5309	0.843
10.5717	0.841
10.6125	0.831
10.6533	0.82
10.6941	0.81
10.7349	0.803
10.7758	0.796
10.8166	0.793
10.8574	0.793
10.8982	0.793
10.939	0.8
10.9799	0.796
11.0207	0.798
11.0615	0.791
11.1023	0.791
11.1431	0.783
11.1839	0.766
11.2248	0.75
11.2656	0.732
11.3064	0.73
11.3472	0.738
11.388	0.754
11.4288	0.779
11.4697	0.793
11.5105	0.79
11.5513	0.79
11.5921	0.764
11.6329	0.728
11.6737	0.67
11.7146	0.621
11.7554	0.58
11.7962	0.546
11.837	0.515
11.8778	0.496
11.9187	0.493
11.9595	0.503
12.0003	0.52
12.0411	0.546
12.0819	0.578
12.1227	0.614
12.1636	0.643
12.2044	0.653
12.2452	0.672
12.286	0.68
12.3268	0.696
12.3676	0.72
12.4085	0.735
12.4493	0.745
12.4901	0.754
12.5309	0.752
12.5717	0.749
12.6126	0.754
12.6534	0.773
12.6942	0.774
12.735	0.764
12.7758	0.757
12.8166	0.754
12.8575	0.749
12.8983	0.738
12.9391	0.733
12.9799	0.732
13.0207	0.74
13.0615	0.733
13.1024	0.728
13.1432	0.706
13.184	0.68
13.2248	0.645
13.2656	0.629
13.3065	0.612
13.3473	0.6
13.3881	0.614
13.4289	0.631
13.4697	0.646
13.5105	0.65
13.5514	0.645
13.5922	0.622
13.633	0.547
13.6738	0.453
13.7146	0.412
13.7554	0.452
13.7963	0.506
13.8371	0.551
13.8779	0.549
13.9187	0.523
13.9595	0.523
14.0003	0.561
14.0412	0.631
14.082	0.682
14.1228	0.709
14.1636	0.699
14.2044	0.658
14.2453	0.59
14.2861	0.501
14.3269	0.404
14.3677	0.365
14.4085	0.395
14.4493	0.481
14.4902	0.585
14.531	0.677
14.5718	0.732
14.6126	0.762
14.6534	0.774
14.6942	0.779
14.7351	0.784
14.7759	0.786
14.8167	0.79
14.8575	0.796
14.8983	0.798
14.9392	0.793
14.98	0.791
15.0208	0.774
15.0616	0.767
15.1024	0.783
15.1432	0.796
15.1841	0.796
15.2249	0.79
15.2657	0.79
15.3065	0.783
15.3473	0.788
15.3881	0.786
15.429	0.778
15.4698	0.776
15.5106	0.781
15.5514	0.79
15.5922	0.779
15.633	0.779
15.6739	0.776
15.7147	0.771
15.7555	0.769
15.7963	0.766
15.8371	0.754
15.878	0.744
15.9188	0.732
15.9596	0.73
