Infrared Spectrum: [2-(o-NITROPHENOXY)ETHYL]TRIMETHYLAMMONIUM BROMIDE
Formula: C11 H17 Br N2 O3
CAS: 116436-30-7
State: SOLID (NUJOL MULL)
Class: COBLENTZ III
Instrument: PERKIN-ELMER 221 (GRATING)
Instrument parameters: FILTER AT 980 CM^-^1. GRATING 4000-1428 CM^-^1, NaCl PRISM 1428-650 CM^-^1
Sampling: TRANSMISSION
Resolution: 2
Origin: SOUTHERN RESEARCH INSTITUTE
1/CM	TRANSMITTANCE
652.632	0.656
661.739	0.3831
670.845	0.7518
679.952	0.6913
689.059	0.5675
698.165	0.7776
707.272	0.6929
716.379	0.6804
725.485	0.6198
734.592	0.2467
743.699	0.4083
752.805	0.7429
761.912	0.386
771.019	0.7866
780.125	0.8089
789.232	0.6632
798.339	0.8674
807.446	0.8663
816.552	0.8373
825.659	0.8095
834.766	0.6046
843.872	0.2672
852.979	0.843
862.086	0.7474
871.192	0.3319
880.299	0.7513
889.406	0.738
898.512	0.5454
907.619	0.6584
916.726	0.7279
925.832	0.6582
934.939	0.3659
944.046	0.2517
953.152	0.2317
962.259	0.6579
971.366	0.808
980.472	0.812
989.579	0.8079
998.686	0.787
1007.79	0.7415
1016.9	0.5678
1026.01	0.6592
1035.11	0.5203
1044.22	0.3344
1053.33	0.766
1062.43	0.7536
1071.54	0.6626
1080.65	0.4606
1089.75	0.689
1098.86	0.748
1107.97	0.7399
1117.07	0.7091
1126.18	0.6515
1135.29	0.5184
1144.39	0.5147
1153.5	0.2117
1162.61	0.7046
1171.71	0.6885
1180.82	0.6696
1189.93	0.6417
1199.03	0.5794
1208.14	0.507
1217.25	0.4818
1226.35	0.3537
1235.46	0.1576
1244.57	0.1726
1253.67	0.418
1262.78	0.1579
1271.89	0.0881
1280.99	0.3745
1290.1	0.3567
1299.21	0.3694
1308.31	0.4973
1317.42	0.4264
1326.53	0.2795
1335.63	0.121
1344.74	0.1039
1353.85	0.315
1362.95	0.2293
1372.06	0.3577
1381.17	0.572
1390.27	0.3482
1399.38	0.3524
1408.49	0.5831
1417.59	0.5787
1426.7	0.4539
1435.81	0.2277
1444.91	0.0872
1454.02	0.072
1463.13	0.0859
1472.23	0.0896
1481.34	0.0588
1490.45	0.3347
1499.55	0.2988
1508.66	0.1147
1517.77	0.048
1526.87	0.3951
1535.98	0.5627
1545.09	0.6916
1554.19	0.703
1563.3	0.6419
1572.41	0.281
1581.51	0.6276
1590.62	0.4309
1599.73	0.1047
1608.83	0.5337
1617.94	0.7822
1627.05	0.844
1636.15	0.8565
1645.26	0.8654
1654.37	0.867
1663.47	0.8645
1672.58	0.8568
1681.69	0.8487
1690.79	0.809
1699.9	0.825
1709.01	0.829
1718.11	0.8275
1727.22	0.7913
1736.33	0.8238
1745.43	0.8225
1754.54	0.81
1763.65	0.8197
1772.75	0.8187
1781.86	0.8022
1790.97	0.792
1800.07	0.8041
1809.18	0.81
1818.29	0.8102
1827.39	0.8056
1836.5	0.8152
1845.61	0.818
1854.71	0.8174
1863.82	0.8135
1872.93	0.8086
1882.03	0.8023
1891.14	0.7943
1900.25	0.795
1909.35	0.7919
1918.46	0.7859
1927.57	0.7721
1936.67	0.7787
1945.78	0.786
1954.89	0.7702
1963.99	0.7726
1973.1	0.7826
1982.21	0.777
1991.31	0.7726
2000.42	0.7674
2009.53	0.7607
2018.63	0.757
2027.74	0.753
2036.85	0.7467
2045.95	0.747
2055.06	0.748
2064.17	0.7437
2073.27	0.739
2082.38	0.7414
2091.49	0.739
2100.59	0.739
2109.7	0.739
2118.81	0.7347
2127.91	0.7267
2137.02	0.722
2146.13	0.724
2155.23	0.721
2164.34	0.717
2173.45	0.712
2182.55	0.712
2191.66	0.711
2200.77	0.709
2209.87	0.7087
2218.98	0.704
2228.09	0.698
2237.19	0.698
2246.3	0.695
2255.41	0.6937
2264.51	0.6897
2273.62	0.6837
2282.73	0.674
2291.83	0.674
2300.94	0.6737
2310.05	0.667
2319.15	0.6574
2328.26	0.6444
2337.37	0.6477
2346.47	0.648
2355.58	0.6404
2364.69	0.634
2373.79	0.6413
2382.9	0.6423
2392.01	0.6404
2401.11	0.6383
2410.22	0.639
2419.33	0.637
2428.43	0.6297
2437.54	0.629
2446.65	0.632
2455.75	0.632
2464.86	0.628
2473.97	0.62
2483.07	0.6144
2492.18	0.6077
2501.29	0.6027
2510.39	0.597
2519.5	0.594
2528.61	0.593
2537.71	0.5887
2546.82	0.5807
2555.93	0.573
2565.03	0.5727
2574.14	0.568
2583.25	0.5654
2592.35	0.5627
2601.46	0.559
2610.57	0.554
2619.67	0.554
2628.78	0.555
2637.89	0.555
2646.99	0.5507
2656.1	0.536
2665.21	0.534
2674.31	0.533
2683.42	0.5317
2692.53	0.529
2701.63	0.527
2710.74	0.524
2719.85	0.5194
2728.95	0.523
2738.06	0.5227
2747.17	0.5147
2756.27	0.5103
2765.38	0.5187
2774.49	0.4964
2783.59	0.484
2792.7	0.4754
2801.81	0.4547
2810.91	0.4131
2820.02	0.3684
2829.13	0.2709
2838.23	0.0796
2847.34	0.0117
2856.45	0.007
2865.55	0.0063
2874.66	0.0126
2883.77	0.0157
2892.87	0.0097
2901.98	0.005
2911.09	0.003
2920.19	0.002
2929.3	0.003
2938.41	0.0053
2947.51	0.005
2956.62	0.0027
2965.73	0
2974.83	0.0246
2983.94	0.0669
2993.05	0.1296
3002.15	0.135
3011.26	0.0969
3020.37	0.2746
3029.47	0.319
3038.58	0.329
3047.69	0.332
3056.79	0.3393
3065.9	0.3387
3075.01	0.334
3084.12	0.3535
3093.22	0.376
3102.33	0.3793
3111.44	0.389
3120.54	0.396
3129.65	0.4013
3138.76	0.408
3147.86	0.406
3156.97	0.4066
3166.08	0.4093
3175.18	0.41
3184.29	0.411
3193.4	0.411
3202.5	0.413
3211.61	0.413
3220.72	0.415
3229.82	0.4173
3238.93	0.418
3248.04	0.418
3257.14	0.418
3266.25	0.418
3275.36	0.418
3284.46	0.414
3293.57	0.409
3302.68	0.4087
3311.78	0.408
3320.89	0.408
3330	0.408
3339.1	0.4083
3348.21	0.408
3357.32	0.4074
3366.42	0.406
3375.53	0.405
3384.64	0.404
3393.74	0.402
3402.85	0.4
3411.96	0.398
3421.06	0.398
3430.17	0.397
3439.28	0.396
3448.38	0.395
3457.49	0.393
3466.6	0.393
3475.7	0.392
3484.81	0.392
3493.92	0.392
3503.02	0.392
3512.13	0.391
3521.24	0.3904
3530.34	0.389
3539.45	0.391
3548.56	0.391
3557.66	0.391
3566.77	0.389
3575.88	0.3887
3584.98	0.388
3594.09	0.388
3603.2	0.387
3612.3	0.3827
3621.41	0.382
3630.52	0.382
3639.62	0.3797
3648.73	0.378
3657.84	0.375
3666.94	0.374
3676.05	0.3737
3685.16	0.37
3694.26	0.3707
3703.37	0.37
3712.48	0.37
3721.58	0.3667
3730.69	0.365
3739.8	0.365
3748.9	0.366
3758.01	0.363
3767.12	0.362
3776.22	0.3617
3785.33	0.361
3794.44	0.357
3803.54	0.356
3812.65	0.3577
3821.76	0.356
3830.86	0.352
3839.97	0.3527
3849.08	0.352
3858.18	0.349
3867.29	0.3464
3876.4	0.3464
3885.5	0.348
3894.61	0.345
3903.72	0.344
3912.82	0.3437
3921.93	0.3407
3931.04	0.339
3940.14	0.338
3949.25	0.336
3958.36	0.336
3967.46	0.3374
3976.57	0.338
3985.68	0.336
3994.78	0.336
4003.89	0.336
4013	0.335
