Infrared Spectrum: 2,2,2'-TRICHLORO-N-BUTYL PROPIONANILIDE
Formula: C13 H16 Cl3 N O
CAS: 116402-44-9
State: SOLUTION (10% IN CCl4 FOR 5000-1350 CM^-^1, 10% IN CS2 FOR 1350-625 CM^-^1)
Class: COBLENTZ
Instrument: Not specified, most likely a prism, grating, or hybrid spectrometer.
Sampling: TRANSMISSION
Path length: 0.01 CM, 0.01 CM
Resolution: 4
Origin: DOW CHEMICAL COMPANY
MICROMETERS	TRANSMITTANCE
2.034	0.869
2.07316	0.869
2.11231	0.869
2.15147	0.869
2.19062	0.869
2.22978	0.868
2.26893	0.863
2.30809	0.866
2.34725	0.869
2.3864	0.869
2.42556	0.868
2.46471	0.871
2.50387	0.877
2.54303	0.879
2.58218	0.877
2.62134	0.874
2.66049	0.877
2.69965	0.874
2.7388	0.876
2.77796	0.874
2.81712	0.869
2.85627	0.869
2.89543	0.861
2.93458	0.859
2.97374	0.863
3.01289	0.859
3.05205	0.871
3.09121	0.872
3.13036	0.872
3.16952	0.869
3.20867	0.863
3.24783	0.82
3.28699	0.801
3.32614	0.771
3.3653	0.444
3.40445	0.371
3.44361	0.643
3.48276	0.617
3.52192	0.83
3.56108	0.856
3.60023	0.871
3.63939	0.871
3.67854	0.879
3.7177	0.881
3.75685	0.882
3.79601	0.887
3.83517	0.889
3.87432	0.89
3.91348	0.892
3.95263	0.892
3.99179	0.895
4.03095	0.897
4.0701	0.895
4.10926	0.897
4.14841	0.899
4.18757	0.897
4.22672	0.89
4.26588	0.887
4.30504	0.885
4.34419	0.879
4.38335	0.887
4.4225	0.899
4.46166	0.902
4.50081	0.903
4.53997	0.902
4.57913	0.903
4.61828	0.903
4.65744	0.902
4.69659	0.902
4.73575	0.905
4.7749	0.905
4.81406	0.903
4.85322	0.902
4.89237	0.902
4.93153	0.902
4.97068	0.902
5.00984	0.899
5.049	0.899
5.08815	0.894
5.12731	0.882
5.16646	0.894
5.20562	0.881
5.24477	0.889
5.28393	0.892
5.32309	0.89
5.36224	0.892
5.4014	0.889
5.44055	0.882
5.47971	0.882
5.51886	0.876
5.55802	0.872
5.59718	0.882
5.63633	0.872
5.67549	0.861
5.71464	0.85
5.7538	0.819
5.79296	0.802
5.83211	0.752
5.87127	0.656
5.91042	0.451
5.94958	0.224
5.98873	0.063
6.02789	0.122
6.06705	0.552
6.1062	0.701
6.14536	0.729
6.18451	0.747
6.22367	0.617
6.26282	0.504
6.30198	0.496
6.34114	0.548
6.38029	0.526
6.41945	0.465
6.4586	0.457
6.49776	0.532
6.53692	0.565
6.57607	0.563
6.61523	0.578
6.65438	0.612
6.69354	0.488
6.73269	0.195
6.77185	0.275
6.81101	0.442
6.85016	0.449
6.88932	0.366
6.92847	0.356
6.96763	0.55
7.00678	0.594
7.04594	0.565
7.0851	0.42
7.12425	0.273
7.16341	0.275
7.20256	0.372
7.24172	0.335
7.28088	0.553
7.32003	0.675
7.35919	0.724
7.39834	0.739
7.4375	0.758
7.47665	0.757
7.51581	0.739
7.55497	0.721
7.59412	0.644
7.63328	0.53
7.67243	0.394
7.71159	0.35
7.75074	0.431
7.7899	0.439
7.82906	0.532
7.86821	0.609
7.90737	0.597
7.94652	0.576
7.98568	0.579
8.02484	0.638
8.06399	0.695
8.10315	0.708
8.1423	0.615
8.18146	0.529
8.22061	0.579
8.25977	0.695
8.29893	0.765
8.33808	0.812
8.37724	0.828
8.41639	0.832
8.45555	0.828
8.4947	0.819
8.53386	0.801
8.57302	0.737
8.61217	0.731
8.65133	0.739
8.69048	0.728
8.72964	0.698
8.7688	0.649
8.80795	0.612
8.84711	0.558
8.88626	0.478
8.92542	0.459
8.96457	0.55
9.00373	0.625
9.04289	0.666
9.08204	0.64
9.1212	0.545
9.16035	0.447
9.19951	0.438
9.23866	0.408
9.27782	0.338
9.31698	0.301
9.35613	0.306
9.39529	0.345
9.43444	0.488
9.4736	0.514
9.51276	0.587
9.55191	0.677
9.59107	0.615
9.63022	0.547
9.66938	0.635
9.70853	0.721
9.74769	0.757
9.78685	0.776
9.826	0.786
9.86516	0.798
9.90431	0.827
9.94347	0.833
9.98262	0.825
10.0218	0.807
10.0609	0.798
10.1001	0.807
10.1392	0.819
10.1784	0.827
10.2176	0.835
10.2567	0.84
10.2959	0.84
10.335	0.837
10.3742	0.812
10.4133	0.794
10.4525	0.794
10.4916	0.814
10.5308	0.817
10.57	0.798
10.6091	0.788
10.6483	0.827
10.6874	0.859
10.7266	0.868
10.7657	0.866
10.8049	0.863
10.8441	0.859
10.8832	0.858
10.9224	0.856
10.9615	0.848
11.0007	0.835
11.0398	0.828
11.079	0.827
11.1181	0.825
11.1573	0.82
11.1965	0.811
11.2356	0.799
11.2748	0.78
11.3139	0.758
11.3531	0.744
11.3922	0.728
11.4314	0.698
11.4705	0.677
11.5097	0.669
11.5489	0.657
11.588	0.649
11.6272	0.644
11.6663	0.643
11.7055	0.651
11.7446	0.672
11.7838	0.697
11.8229	0.723
11.8621	0.747
11.9013	0.755
11.9404	0.76
11.9796	0.765
12.0187	0.768
12.0579	0.77
12.097	0.77
12.1362	0.77
12.1753	0.765
12.2145	0.757
12.2537	0.752
12.2928	0.745
12.332	0.737
12.3711	0.731
12.4103	0.728
12.4494	0.721
12.4886	0.716
12.5278	0.703
12.5669	0.682
12.6061	0.659
12.6452	0.636
12.6844	0.596
12.7235	0.537
12.7627	0.451
12.8018	0.416
12.841	0.447
12.8802	0.509
12.9193	0.532
12.9585	0.517
12.9976	0.498
13.0368	0.469
13.0759	0.397
13.1151	0.276
13.1542	0.18
13.1934	0.18
13.2326	0.355
13.2717	0.48
13.3109	0.513
13.35	0.508
13.3892	0.49
13.4283	0.469
13.4675	0.433
13.5066	0.382
13.5458	0.306
13.585	0.245
13.6241	0.229
13.6633	0.301
13.7024	0.444
13.7416	0.545
13.7807	0.604
13.8199	0.64
13.859	0.654
13.8982	0.661
13.9374	0.661
13.9765	0.653
14.0157	0.63
14.0548	0.596
14.094	0.55
14.1331	0.511
14.1723	0.506
14.2114	0.537
14.2506	0.561
14.2898	0.578
14.3289	0.583
14.3681	0.583
14.4072	0.573
14.4464	0.563
14.4855	0.553
14.5247	0.539
14.5639	0.509
14.603	0.482
14.6422	0.47
14.6813	0.47
14.7205	0.482
14.7596	0.482
14.7988	0.46
14.8379	0.434
14.8771	0.41
14.9163	0.395
14.9554	0.39
14.9946	0.395
15.0337	0.397
15.0729	0.381
15.112	0.359
15.1512	0.332
15.1903	0.304
15.2295	0.263
15.2687	0.231
15.3078	0.208
15.347	0.188
15.3861	0.171
15.4253	0.151
15.4644	0.131
15.5036	0.118
15.5427	0.117
15.5819	0.118
15.6211	0.138
15.6602	0.154
15.6994	0.171
15.7385	0.19
15.7777	0.206
15.8168	0.221
15.856	0.223
15.8951	0.201
