Infrared Spectrum: HEXANAL, 3-OXO-2,2,4-TRIETHYL
Formula: C12 H22 O2
CAS: 116435-57-5
State: LIQUID
Boiling point: 107.5 C AT 9.1 mmHg
Class: COBLENTZ
Instrument: Not specified, most likely a prism, grating, or hybrid spectrometer.
Sampling: TRANSMISSION
Path length: SMEAR
Resolution: 4
Origin: TENNESSEE EASTMAN COMPANY, RESEARCH LABORATORIES
MICROMETERS	TRANSMITTANCE
2.026	0.935
2.06473	0.933
2.10346	0.933
2.14218	0.93
2.18091	0.922
2.21964	0.912
2.25837	0.86
2.29709	0.849
2.33582	0.868
2.37455	0.887
2.41328	0.889
2.452	0.891
2.49073	0.899
2.52946	0.907
2.56819	0.92
2.60692	0.926
2.64564	0.933
2.68437	0.935
2.7231	0.931
2.76183	0.933
2.80055	0.933
2.83928	0.936
2.87801	0.918
2.91674	0.855
2.95547	0.819
2.99419	0.876
3.03292	0.897
3.07165	0.905
3.11038	0.9
3.1491	0.876
3.18783	0.853
3.22656	0.842
3.26529	0.824
3.30401	0.754
3.34274	0.008
3.38147	0.058
3.4202	0.176
3.45893	0.133
3.49765	0.42
3.53638	0.475
3.57511	0.621
3.61384	0.691
3.65256	0.579
3.69129	0.537
3.73002	0.65
3.76875	0.819
3.80748	0.863
3.8462	0.897
3.88493	0.912
3.92366	0.931
3.96239	0.941
4.00111	0.946
4.03984	0.946
4.07857	0.941
4.1173	0.943
4.15602	0.944
4.19475	0.933
4.23348	0.949
4.27221	0.948
4.31094	0.941
4.34966	0.946
4.38839	0.952
4.42712	0.961
4.46585	0.957
4.50457	0.954
4.5433	0.952
4.58203	0.961
4.62076	0.959
4.65949	0.959
4.69821	0.961
4.73694	0.957
4.77567	0.962
4.8144	0.964
4.85312	0.961
4.89185	0.959
4.93058	0.962
4.96931	0.964
5.00803	0.972
5.04676	0.967
5.08549	0.964
5.12422	0.957
5.16295	0.954
5.20167	0.954
5.2404	0.952
5.27913	0.954
5.31786	0.951
5.35658	0.948
5.39531	0.944
5.43404	0.936
5.47277	0.922
5.5115	0.902
5.55022	0.887
5.58895	0.86
5.62768	0.821
5.66641	0.715
5.70513	0.465
5.74386	0.152
5.78259	0.068
5.82132	0.152
5.86004	0.06
5.89877	0.024
5.9375	0.077
5.97623	0.287
6.01496	0.521
6.05368	0.644
6.09241	0.741
6.13114	0.79
6.16987	0.823
6.20859	0.844
6.24732	0.862
6.28605	0.871
6.32478	0.875
6.36351	0.876
6.40223	0.875
6.44096	0.873
6.47969	0.858
6.51842	0.863
6.55714	0.852
6.59587	0.837
6.6346	0.808
6.67333	0.777
6.71205	0.676
6.75078	0.477
6.78951	0.157
6.82824	0.073
6.86697	0.139
6.90569	0.23
6.94442	0.441
6.98315	0.623
7.02188	0.693
7.0606	0.707
7.09933	0.678
7.13806	0.586
7.17679	0.298
7.21552	0.149
7.25424	0.245
7.29297	0.381
7.3317	0.433
7.37043	0.55
7.40915	0.649
7.44788	0.662
7.48661	0.644
7.52534	0.667
7.56406	0.641
7.60279	0.688
7.64152	0.714
7.68025	0.711
7.71898	0.72
7.7577	0.751
7.79643	0.728
7.83516	0.711
7.87389	0.655
7.91261	0.535
7.95134	0.525
7.99007	0.649
8.0288	0.696
8.06753	0.696
8.10625	0.766
8.14498	0.808
8.18371	0.79
8.22244	0.741
8.26116	0.685
8.29989	0.61
8.33862	0.569
8.37735	0.555
8.41607	0.469
8.4548	0.381
8.49353	0.35
8.53226	0.376
8.57099	0.446
8.60971	0.506
8.64844	0.573
8.68717	0.625
8.7259	0.675
8.76462	0.724
8.80335	0.78
8.84208	0.814
8.88081	0.821
8.91954	0.814
8.95826	0.792
8.99699	0.793
9.03572	0.795
9.07445	0.751
9.11317	0.688
9.1519	0.675
9.19063	0.694
9.22936	0.615
9.26808	0.413
9.30681	0.337
9.34554	0.454
9.38427	0.521
9.423	0.422
9.46172	0.292
9.50045	0.262
9.53918	0.337
9.57791	0.386
9.61663	0.394
9.65536	0.409
9.69409	0.456
9.73282	0.503
9.77155	0.516
9.81027	0.461
9.849	0.439
9.88773	0.477
9.92646	0.545
9.96518	0.577
10.0039	0.527
10.0426	0.444
10.0814	0.36
10.1201	0.316
10.1588	0.305
10.1976	0.329
10.2363	0.349
10.275	0.373
10.3137	0.383
10.3525	0.405
10.3912	0.475
10.4299	0.569
10.4686	0.654
10.5074	0.715
10.5461	0.75
10.5848	0.761
10.6236	0.759
10.6623	0.732
10.701	0.688
10.7397	0.647
10.7785	0.634
10.8172	0.644
10.8559	0.644
10.8946	0.629
10.9334	0.626
10.9721	0.625
11.0108	0.621
11.0496	0.659
11.0883	0.733
11.127	0.788
11.1657	0.821
11.2045	0.837
11.2432	0.844
11.2819	0.844
11.3207	0.836
11.3594	0.813
11.3981	0.777
11.4368	0.725
11.4756	0.672
11.5143	0.634
11.553	0.62
11.5917	0.62
11.6305	0.625
11.6692	0.629
11.7079	0.654
11.7467	0.689
11.7854	0.724
11.8241	0.748
11.8628	0.751
11.9016	0.732
11.9403	0.691
11.979	0.646
12.0178	0.613
12.0565	0.581
12.0952	0.519
12.1339	0.431
12.1727	0.345
12.2114	0.282
12.2501	0.262
12.2888	0.28
12.3276	0.355
12.3663	0.462
12.405	0.56
12.4438	0.626
12.4825	0.654
12.5212	0.647
12.5599	0.6
12.5987	0.53
12.6374	0.449
12.6761	0.402
12.7149	0.391
12.7536	0.407
12.7923	0.422
12.831	0.444
12.8698	0.472
12.9085	0.498
12.9472	0.517
12.9859	0.519
13.0247	0.514
13.0634	0.503
13.1021	0.495
13.1409	0.483
13.1796	0.485
13.2183	0.516
13.257	0.556
13.2958	0.608
13.3345	0.654
13.3732	0.688
13.412	0.714
13.4507	0.727
13.4894	0.733
13.5281	0.737
13.5669	0.735
13.6056	0.735
13.6443	0.733
13.683	0.73
13.7218	0.732
13.7605	0.741
13.7992	0.746
13.838	0.754
13.8767	0.756
13.9154	0.759
13.9541	0.758
13.9929	0.758
14.0316	0.756
14.0703	0.75
14.1091	0.741
14.1478	0.737
14.1865	0.728
14.2252	0.73
14.264	0.73
14.3027	0.733
14.3414	0.737
14.3801	0.741
14.4189	0.745
14.4576	0.746
14.4963	0.753
14.5351	0.753
14.5738	0.753
14.6125	0.753
14.6512	0.751
14.69	0.746
14.7287	0.743
14.7674	0.735
14.8061	0.728
14.8449	0.719
14.8836	0.707
14.9223	0.694
14.9611	0.683
14.9998	0.676
15.0385	0.665
15.0772	0.644
15.116	0.633
15.1547	0.629
15.1934	0.628
15.2322	0.623
15.2709	0.623
15.3096	0.623
15.3483	0.625
15.3871	0.629
15.4258	0.637
15.4645	0.637
15.5032	0.637
15.542	0.639
15.5807	0.642
15.6194	0.646
15.6582	0.647
15.6969	0.646
15.7356	0.642
15.7743	0.642
15.8131	0.642
15.8518	0.646
15.8905	0.644
15.9293	0.641
15.968	0.646
