Infrared Spectrum: PHOSPHONOTHIOIC ACID, METHYL-, o,o-BIS-3,3-DIMETHYL BUTYL ESTER
Formula: C13 H29 O2 P S
CAS: 116401-92-4
State: SOLID (OIL MULL)
Class: COBLENTZ
Instrument: Not specified, most likely a prism, grating, or hybrid spectrometer.
Sampling: TRANSMISSION
Resolution: 4
Origin: G. A. M. S.
1/CM	TRANSMITTANCE
620.564	0.701
628.966	0.755
637.368	0.794
645.77	0.857
654.172	0.877
662.574	0.887
670.975	0.894
679.377	0.901
687.779	0.903
696.181	0.901
704.583	0.897
712.985	0.88
721.387	0.875
729.789	0.875
738.191	0.849
746.593	0.708
754.994	0.843
763.396	0.803
771.798	0.714
780.2	0.3681
788.602	0.314
797.004	0.416
805.406	0.546
813.808	0.52
822.21	0.529
830.612	0.589
839.014	0.703
847.415	0.786
855.817	0.798
864.219	0.768
872.621	0.72
881.023	0.634
889.425	0.459
897.827	0.155
906.229	0.132
914.631	0.236
923.033	0.228
931.435	0.388
939.836	0.548
948.238	0.6779
956.64	0.738
965.042	0.731
973.444	0.698
981.846	0.645
990.248	0.516
998.65	0.2282
1007.05	0.049
1015.45	0.05
1023.86	0.095
1032.26	0.141
1040.66	0.127
1049.06	0.119
1057.46	0.176
1065.86	0.396
1074.27	0.569
1082.67	0.717
1091.07	0.769
1099.47	0.795
1107.87	0.817
1116.28	0.831
1124.68	0.832
1133.08	0.834
1141.48	0.829
1149.88	0.817
1158.29	0.811
1166.69	0.809
1175.09	0.818
1183.49	0.821
1191.89	0.815
1200.3	0.792
1208.7	0.735
1217.1	0.694
1225.5	0.781
1233.9	0.812
1242.31	0.807
1250.71	0.814
1259.11	0.798
1267.51	0.804
1275.91	0.827
1284.31	0.777
1292.72	0.5019
1301.12	0.609
1309.52	0.804
1317.92	0.857
1326.32	0.855
1334.73	0.847
1343.13	0.823
1351.53	0.764
1359.93	0.4711
1368.33	0.4999
1376.74	0.688
1385.14	0.795
1393.54	0.768
1401.94	0.732
1410.34	0.764
1418.75	0.809
1427.15	0.809
1435.55	0.763
1443.95	0.671
1452.35	0.529
1460.75	0.413
1469.16	0.443
1477.56	0.45
1485.96	0.729
1494.36	0.857
1502.76	0.89
1511.17	0.903
1519.57	0.909
1527.97	0.915
1536.37	0.921
1544.77	0.924
1553.18	0.926
1561.58	0.93
1569.98	0.93
1578.38	0.93
1586.78	0.932
1595.19	0.933
1603.59	0.933
1611.99	0.933
1620.39	0.933
1628.79	0.933
1637.19	0.933
1645.6	0.933
1654	0.935
1662.4	0.937
1670.8	0.938
1679.2	0.938
1687.61	0.94
1696.01	0.941
1704.41	0.941
1712.81	0.943
1721.21	0.949
1729.62	0.955
1738.02	0.96
1746.42	0.966
1754.82	0.97
1763.22	0.973
1771.63	0.975
1780.03	0.975
1788.43	0.978
1796.83	0.976
1805.23	0.973
1813.63	0.969
1822.04	0.963
1830.44	0.956
1838.84	0.961
1847.24	0.969
1855.64	0.969
1864.05	0.972
1872.45	0.978
1880.85	0.983
1889.25	0.989
1897.65	0.993
1906.06	0.993
1914.46	0.993
1922.86	0.993
1931.26	0.992
1939.66	0.987
1948.07	0.976
1956.47	0.981
1964.87	1
1973.27	1.001
1981.67	0.998
1990.07	0.993
1998.48	0.986
2006.88	0.9807
2015.28	0.98
2023.68	0.976
2032.08	0.973
2040.49	0.9714
2048.89	0.969
2057.29	0.967
2065.69	0.9634
2074.09	0.9623
2082.5	0.9609
2090.9	0.96
2099.3	0.96
2107.7	0.958
2116.1	0.958
2124.51	0.958
2132.91	0.958
2141.31	0.958
2149.71	0.956
2158.11	0.956
2166.51	0.953
2174.92	0.953
2183.32	0.952
2191.72	0.95
2200.12	0.95
2208.52	0.949
2216.93	0.949
2225.33	0.946
2233.73	0.9432
2242.13	0.9405
2250.53	0.9377
2258.94	0.9329
2267.34	0.9304
2275.74	0.9264
2284.14	0.9237
2292.54	0.92
2300.95	0.918
2309.35	0.9158
2317.75	0.9143
2326.15	0.912
2334.55	0.912
2342.95	0.912
2351.36	0.912
2359.76	0.912
2368.16	0.913
2376.56	0.915
2384.96	0.917
2393.37	0.918
2401.77	0.918
2410.17	0.92
2418.57	0.92
2426.97	0.92
2435.38	0.92
2443.78	0.92
2452.18	0.92
2460.58	0.918
2468.98	0.917
2477.39	0.915
2485.79	0.912
2494.19	0.909
2502.59	0.9067
2510.99	0.903
2519.39	0.9018
2527.8	0.8992
2536.2	0.8967
2544.6	0.8941
2553	0.89
2561.4	0.8882
2569.81	0.887
2578.21	0.886
2586.61	0.883
2595.01	0.8805
2603.41	0.8778
2611.82	0.874
2620.22	0.8705
2628.62	0.8665
2637.02	0.8638
2645.42	0.86
2653.83	0.8572
2662.23	0.8529
2670.63	0.8467
2679.03	0.8428
2687.43	0.8356
2695.83	0.8329
2704.24	0.8303
2712.64	0.827
2721.04	0.827
2729.44	0.826
2737.84	0.826
2746.25	0.8239
2754.65	0.823
2763.05	0.816
2771.45	0.8082
2779.85	0.7965
2788.26	0.7726
2796.66	0.7535
2805.06	0.7224
2813.46	0.6643
2821.86	0.549
2830.27	0.4194
2838.67	0.3088
2847.07	0.2183
2855.47	0.196
2863.87	0.1976
2872.27	0.2001
2880.68	0.1929
2889.08	0.1484
2897.48	0.1279
2905.88	0.0832
2914.28	0.0683
2922.69	0.066
2931.09	0.064
2939.49	0.062
2947.89	0.0796
2956.29	0.1839
2964.7	0.3
2973.1	0.4038
2981.5	0.5084
2989.9	0.6109
2998.3	0.711
3006.71	0.7705
3015.11	0.7858
3023.51	0.8006
3031.91	0.8029
3040.31	0.8067
3048.71	0.8115
3057.12	0.814
3065.52	0.817
3073.92	0.817
3082.32	0.817
3090.72	0.818
3099.13	0.817
3107.53	0.818
3115.93	0.818
3124.33	0.818
3132.73	0.818
3141.14	0.818
3149.54	0.82
3157.94	0.82
3166.34	0.821
3174.74	0.821
3183.15	0.823
3191.55	0.8248
3199.95	0.826
3208.35	0.8289
3216.75	0.8304
3225.15	0.8315
3233.56	0.832
3241.96	0.8339
3250.36	0.8347
3258.76	0.8345
3267.16	0.834
3275.57	0.834
3283.97	0.834
3292.37	0.834
3300.77	0.832
3309.17	0.832
3317.58	0.832
3325.98	0.834
3334.38	0.834
3342.78	0.8341
3351.18	0.835
3359.59	0.835
3367.99	0.837
3376.39	0.837
3384.79	0.837
3393.19	0.837
3401.59	0.8374
3410	0.84
3418.4	0.84
3426.8	0.841
3435.2	0.841
3443.6	0.843
3452.01	0.843
3460.41	0.843
3468.81	0.844
3477.21	0.844
3485.61	0.846
3494.02	0.846
3502.42	0.846
3510.82	0.846
3519.22	0.846
3527.62	0.8468
3536.03	0.847
3544.43	0.847
3552.83	0.847
3561.23	0.847
3569.63	0.847
3578.03	0.847
3586.44	0.847
3594.84	0.8461
3603.24	0.846
3611.64	0.846
3620.04	0.844
3628.45	0.844
3636.85	0.8433
3645.25	0.843
3653.65	0.843
3662.05	0.843
3670.46	0.843
3678.86	0.842
3687.26	0.841
3695.66	0.841
3704.06	0.8402
3712.47	0.84
3720.87	0.838
3729.27	0.837
3737.67	0.8354
3746.07	0.835
3754.47	0.835
3762.88	0.834
3771.28	0.8323
3779.68	0.834
3788.08	0.832
3796.48	0.8319
3804.89	0.8292
3813.29	0.829
3821.69	0.8266
3830.09	0.826
3838.49	0.8241
3846.9	0.8233
3855.3	0.823
3863.7	0.821
3872.1	0.821
3880.5	0.821
3888.91	0.821
3897.31	0.8215
3905.71	0.823
3914.11	0.823
3922.51	0.8235
3930.91	0.824
3939.32	0.824
3947.72	0.824
3956.12	0.824
3964.52	0.824
