Infrared Spectrum: 2-(P-t-DODECYLANILINO)-3-METHYL PYRAZINE
Formula: C23 H35 N3
CAS: 116402-82-5
State: LIQUID (VISC.)
Class: COBLENTZ
Instrument: Not specified, most likely a prism, grating, or hybrid spectrometer.
Sampling: TRANSMISSION
Path length: CAPILLARY
Resolution: 4
Origin: WYANDOTTE CHEMICALS CORP., WYANDOTTE, MICHIGAN, USA
MICROMETERS	TRANSMITTANCE
2.033	0.998
2.07283	0.983
2.11266	0.976
2.15249	0.973
2.19231	0.918
2.23214	0.888
2.27197	0.892
2.3118	0.913
2.35163	0.912
2.39146	0.912
2.43128	0.932
2.47111	0.93
2.51094	0.928
2.55077	0.948
2.5906	0.95
2.63043	0.965
2.67026	0.951
2.71008	0.941
2.74991	0.943
2.78974	0.932
2.82957	0.907
2.8694	0.804
2.90923	0.588
2.94906	0.558
2.98888	0.466
3.02871	0.321
3.06854	0.402
3.10837	0.461
3.1482	0.487
3.18803	0.505
3.22785	0.421
3.26768	0.303
3.30751	0.353
3.34734	0.061
3.38717	0.061
3.427	0.069
3.46683	0.081
3.50665	0.225
3.54648	0.605
3.58631	0.701
3.62614	0.759
3.66597	0.757
3.7058	0.794
3.74563	0.83
3.78545	0.834
3.82528	0.852
3.86511	0.845
3.90494	0.849
3.94477	0.872
3.9846	0.857
4.02442	0.872
4.06425	0.87
4.10408	0.852
4.14391	0.865
4.18374	0.86
4.22357	0.825
4.2634	0.844
4.30322	0.875
4.34305	0.903
4.38288	0.908
4.42271	0.903
4.46254	0.885
4.50237	0.908
4.54219	0.925
4.58202	0.92
4.62185	0.917
4.66168	0.917
4.70151	0.912
4.74134	0.922
4.78117	0.927
4.82099	0.923
4.86082	0.932
4.90065	0.923
4.94048	0.922
4.98031	0.922
5.02014	0.93
5.05997	0.918
5.09979	0.927
5.13962	0.927
5.17945	0.918
5.21928	0.915
5.25911	0.898
5.29894	0.854
5.33876	0.822
5.37859	0.877
5.41842	0.893
5.45825	0.905
5.49808	0.907
5.53791	0.9
5.57774	0.88
5.61756	0.852
5.65739	0.82
5.69722	0.824
5.73705	0.834
5.77688	0.829
5.81671	0.82
5.85654	0.802
5.89636	0.784
5.93619	0.739
5.97602	0.701
6.01585	0.661
6.05568	0.592
6.09551	0.419
6.13533	0.213
6.17516	0.086
6.21499	0.097
6.25482	0.222
6.29465	0.194
6.33448	0.33
6.37431	0.285
6.41413	0.134
6.45396	0.116
6.49379	0.061
6.53362	0.063
6.57345	0.061
6.61328	0.061
6.6531	0.064
6.69293	0.107
6.73276	0.112
6.77259	0.071
6.81242	0.071
6.85225	0.106
6.89208	0.122
6.9319	0.102
6.97173	0.112
7.01156	0.071
7.05139	0.058
7.09122	0.081
7.13105	0.137
7.17088	0.071
7.2107	0.059
7.25053	0.064
7.29036	0.094
7.33019	0.152
7.37002	0.262
7.40985	0.243
7.44967	0.213
7.4895	0.208
7.52933	0.237
7.56916	0.215
7.60899	0.197
7.64882	0.253
7.68865	0.334
7.72847	0.364
7.7683	0.394
7.80813	0.452
7.84796	0.475
7.88779	0.373
7.92762	0.271
7.96745	0.323
8.00727	0.318
8.0471	0.308
8.08693	0.303
8.12676	0.373
8.16659	0.469
8.20642	0.519
8.24624	0.485
8.28607	0.349
8.3259	0.144
8.36573	0.082
8.40556	0.129
8.44539	0.296
8.48522	0.479
8.52504	0.59
8.56487	0.618
8.6047	0.608
8.64453	0.595
8.68436	0.552
8.72419	0.373
8.76401	0.195
8.80384	0.303
8.84367	0.442
8.8835	0.484
8.92333	0.489
8.96316	0.553
9.00299	0.592
9.04281	0.61
9.08264	0.621
9.12247	0.651
9.1623	0.666
9.20213	0.661
9.24196	0.669
9.28179	0.686
9.32161	0.679
9.36144	0.681
9.40127	0.66
9.4411	0.631
9.48093	0.661
9.52076	0.701
9.56058	0.719
9.60041	0.714
9.64024	0.698
9.68007	0.651
9.7199	0.601
9.75973	0.623
9.79956	0.611
9.83938	0.509
9.87921	0.54
9.91904	0.605
9.95887	0.661
9.9987	0.683
10.0385	0.686
10.0784	0.669
10.1182	0.608
10.158	0.507
10.1978	0.404
10.2377	0.383
10.2775	0.469
10.3173	0.565
10.3572	0.598
10.397	0.606
10.4368	0.618
10.4766	0.63
10.5165	0.661
10.5563	0.691
10.5961	0.701
10.636	0.703
10.6758	0.703
10.7156	0.721
10.7554	0.733
10.7953	0.741
10.8351	0.751
10.8749	0.747
10.9148	0.741
10.9546	0.704
10.9944	0.698
11.0342	0.703
11.0741	0.721
11.1139	0.751
11.1537	0.761
11.1936	0.769
11.2334	0.769
11.2732	0.774
11.313	0.772
11.3529	0.764
11.3927	0.771
11.4325	0.761
11.4724	0.761
11.5122	0.757
11.552	0.752
11.5918	0.746
11.6317	0.723
11.6715	0.704
11.7113	0.671
11.7512	0.625
11.791	0.565
11.8308	0.492
11.8706	0.399
11.9105	0.311
11.9503	0.225
11.9901	0.155
12.03	0.114
12.0698	0.094
12.1096	0.122
12.1494	0.175
12.1893	0.253
12.2291	0.32
12.2689	0.364
12.3088	0.384
12.3486	0.421
12.3884	0.454
12.4282	0.456
12.4681	0.436
12.5079	0.391
12.5477	0.364
12.5875	0.393
12.6274	0.464
12.6672	0.552
12.707	0.595
12.7469	0.605
12.7867	0.601
12.8265	0.613
12.8663	0.641
12.9062	0.641
12.946	0.651
12.9858	0.653
13.0257	0.651
13.0655	0.613
13.1053	0.608
13.1451	0.625
13.185	0.643
13.2248	0.656
13.2646	0.656
13.3045	0.658
13.3443	0.656
13.3841	0.65
13.4239	0.63
13.4638	0.633
13.5036	0.638
13.5434	0.65
13.5833	0.645
13.6231	0.626
13.6629	0.613
13.7027	0.58
13.7426	0.562
13.7824	0.572
13.8222	0.611
13.8621	0.645
13.9019	0.674
13.9417	0.701
13.9815	0.721
14.0214	0.728
14.0612	0.734
14.101	0.736
14.1409	0.734
14.1807	0.724
14.2205	0.703
14.2603	0.684
14.3002	0.663
14.34	0.655
14.3798	0.656
14.4197	0.676
14.4595	0.691
14.4993	0.709
14.5391	0.724
14.579	0.733
14.6188	0.733
14.6586	0.742
14.6985	0.742
14.7383	0.742
14.7781	0.739
14.8179	0.741
14.8578	0.741
14.8976	0.733
14.9374	0.723
14.9773	0.723
15.0171	0.719
15.0569	0.701
15.0967	0.686
15.1366	0.681
15.1764	0.681
15.2162	0.681
15.2561	0.683
15.2959	0.681
15.3357	0.683
15.3755	0.686
15.4154	0.688
15.4552	0.684
15.495	0.689
15.5349	0.688
15.5747	0.688
15.6145	0.691
15.6543	0.691
15.6942	0.689
15.734	0.698
15.7738	0.693
15.8137	0.696
15.8535	0.689
15.8933	0.689
15.9331	0.684
15.973	0.676
16.0128	0.674
