Infrared Spectrum: 5-CHLORO-2-PIPERIDYL-ACETANILIDE
Formula: C13 H17 N2 Cl O
CAS: 116495-98-8
State: SOLID (1.0% IN KBr PELLET)
Class: COBLENTZ
Instrument: Not specified, most likely a prism, grating, or hybrid spectrometer.
Sampling: TRANSMISSION
Path length: 0.0355 CM
Resolution: 4
Origin: ANDERSON PHYSICAL LABORATORY
1/CM	TRANSMITTANCE
667.708	0.639
676.14	0.705
684.572	0.713
693.005	0.702
701.437	0.66
709.869	0.599
718.301	0.533
726.734	0.483
735.166	0.447
743.598	0.46
752.03	0.531
760.462	0.7229
768.895	0.768
777.327	0.77
785.759	0.768
794.191	0.756
802.624	0.675
811.056	0.427
819.488	0.7699
827.92	0.797
836.352	0.779
844.785	0.768
853.217	0.722
861.649	0.629
870.081	0.512
878.514	0.453
886.946	0.551
895.378	0.435
903.81	0.692
912.242	0.731
920.675	0.699
929.107	0.822
937.539	0.822
945.971	0.809
954.404	0.782
962.836	0.716
971.268	0.744
979.7	0.764
988.132	0.735
996.565	0.702
1005	0.624
1013.43	0.539
1021.86	0.515
1030.29	0.472
1038.73	0.542
1047.16	0.726
1055.59	0.732
1064.02	0.671
1072.45	0.732
1080.89	0.714
1089.32	0.627
1097.75	0.5761
1106.18	0.483
1114.62	0.642
1123.05	0.5301
1131.48	0.468
1139.91	0.552
1148.34	0.68
1156.78	0.668
1165.21	0.722
1173.64	0.683
1182.07	0.621
1190.51	0.5401
1198.94	0.415
1207.37	0.483
1215.8	0.3791
1224.23	0.327
1232.67	0.295
1241.1	0.253
1249.53	0.453
1257.96	0.588
1266.4	0.489
1274.83	0.545
1283.26	0.51
1291.69	0.397
1300.12	0.6809
1308.56	0.687
1316.99	0.632
1325.42	0.546
1333.85	0.546
1342.29	0.57
1350.72	0.5241
1359.15	0.4211
1367.58	0.381
1376.01	0.292
1384.45	0.318
1392.88	0.406
1401.31	0.312
1409.74	0.195
1418.18	0.115
1426.61	0.258
1435.04	0.256
1443.47	0.196
1451.9	0.153
1460.34	0.201
1468.77	0.256
1477.2	0.315
1485.63	0.352
1494.07	0.313
1502.5	0.229
1510.93	0.154
1519.36	0.153
1527.79	0.207
1536.23	0.3189
1544.66	0.6089
1553.09	0.63
1561.52	0.572
1569.96	0.5
1578.39	0.247
1586.82	0.238
1595.25	0.474
1603.68	0.6809
1612.12	0.701
1620.55	0.642
1628.98	0.596
1637.41	0.515
1645.85	0.442
1654.28	0.253
1662.71	0.151
1671.14	0.184
1679.57	0.387
1688.01	0.48
1696.44	0.7188
1704.87	0.825
1713.3	0.851
1721.74	0.872
1730.17	0.873
1738.6	0.872
1747.03	0.887
1755.46	0.908
1763.9	0.917
1772.33	0.92
1780.76	0.923
1789.19	0.93
1797.63	0.932
1806.06	0.93
1814.49	0.929
1822.92	0.929
1831.35	0.926
1839.79	0.921
1848.22	0.912
1856.65	0.908
1865.08	0.914
1873.52	0.92
1881.95	0.923
1890.38	0.921
1898.81	0.917
1907.24	0.917
1915.68	0.92
1924.11	0.918
1932.54	0.912
1940.97	0.912
1949.41	0.912
1957.84	0.909
1966.27	0.906
1974.7	0.903
1983.13	0.903
1991.57	0.903
2000	0.905
2008.43	0.9082
2016.86	0.911
2025.3	0.9058
2033.73	0.903
2042.16	0.902
2050.59	0.9
2059.02	0.902
2067.46	0.903
2075.89	0.903
2084.32	0.903
2092.75	0.903
2101.19	0.9049
2109.62	0.906
2118.05	0.908
2126.48	0.908
2134.91	0.905
2143.35	0.903
2151.78	0.9043
2160.21	0.9074
2168.64	0.908
2177.08	0.908
2185.51	0.908
2193.94	0.908
2202.37	0.908
2210.8	0.906
2219.24	0.9042
2227.67	0.9043
2236.1	0.9077
2244.53	0.9145
2252.97	0.92
2261.4	0.9173
2269.83	0.915
2278.26	0.914
2286.69	0.911
2295.13	0.9067
2303.56	0.9021
2311.99	0.897
2320.42	0.8952
2328.86	0.894
2337.29	0.8987
2345.72	0.902
2354.15	0.9
2362.58	0.899
2371.02	0.8961
2379.45	0.893
2387.88	0.893
2396.31	0.893
2404.75	0.8902
2413.18	0.8898
2421.61	0.8876
2430.04	0.8858
2438.47	0.885
2446.91	0.8849
2455.34	0.8833
2463.77	0.8814
2472.2	0.8793
2480.64	0.879
2489.07	0.879
2497.5	0.8768
2505.93	0.8734
2514.36	0.8729
2522.8	0.8711
2531.23	0.8653
2539.66	0.8614
2548.09	0.8549
2556.53	0.8517
2564.96	0.8499
2573.39	0.8426
2581.82	0.8369
2590.25	0.8321
2598.69	0.8237
2607.12	0.8164
2615.55	0.813
2623.98	0.8082
2632.42	0.8004
2640.85	0.7873
2649.28	0.7789
2657.71	0.7702
2666.14	0.766
2674.58	0.7617
2683.01	0.758
2691.44	0.7545
2699.87	0.751
2708.31	0.7493
2716.74	0.7459
2725.17	0.7302
2733.6	0.7235
2742.03	0.7066
2750.47	0.669
2758.9	0.6309
2767.33	0.5785
2775.76	0.5351
2784.2	0.5251
2792.63	0.5291
2801.06	0.5504
2809.49	0.5572
2817.92	0.5609
2826.36	0.574
2834.79	0.6007
2843.22	0.6258
2851.65	0.63
2860.09	0.6196
2868.52	0.588
2876.95	0.5606
2885.38	0.5347
2893.81	0.5027
2902.25	0.4368
2910.68	0.4039
2919.11	0.4049
2927.54	0.4186
2935.98	0.4531
2944.41	0.5782
2952.84	0.7124
2961.27	0.7902
2969.7	0.8221
2978.14	0.8293
2986.57	0.83
2995	0.8265
3003.43	0.8216
3011.87	0.819
3020.3	0.818
3028.73	0.8117
3037.16	0.7988
3045.59	0.7902
3054.03	0.7851
3062.46	0.7734
3070.89	0.7659
3079.32	0.762
3087.76	0.764
3096.19	0.765
3104.62	0.7657
3113.05	0.7658
3121.48	0.7623
3129.92	0.7539
3138.35	0.7294
3146.78	0.7224
3155.21	0.7203
3163.65	0.7137
3172.08	0.7007
3180.51	0.6816
3188.94	0.6606
3197.37	0.641
3205.81	0.6189
3214.24	0.6045
3222.67	0.5577
3231.1	0.4986
3239.54	0.445
3247.97	0.3975
3256.4	0.329
3264.83	0.2999
3273.26	0.2986
3281.7	0.321
3290.13	0.3514
3298.56	0.3803
3306.99	0.4977
3315.43	0.6066
3323.86	0.6867
3332.29	0.7231
3340.72	0.7266
3349.15	0.728
3357.59	0.728
3366.02	0.726
3374.45	0.7244
3382.88	0.7225
3391.32	0.7166
3399.75	0.7129
3408.18	0.7107
3416.61	0.71
3425.04	0.71
3433.48	0.71
3441.91	0.7115
3450.34	0.713
3458.77	0.714
3467.21	0.716
3475.64	0.7228
3484.07	0.7315
3492.5	0.7347
3500.93	0.738
3509.37	0.7407
3517.8	0.7455
3526.23	0.749
3534.66	0.7529
3543.1	0.7609
3551.53	0.7734
3559.96	0.7812
3568.39	0.7879
3576.82	0.7972
3585.26	0.8024
3593.69	0.8084
3602.12	0.8119
3610.55	0.813
3618.99	0.8139
3627.42	0.815
3635.85	0.8179
3644.28	0.818
3652.71	0.818
3661.15	0.818
3669.58	0.816
3678.01	0.8128
3686.44	0.81
3694.88	0.8093
3703.31	0.809
3711.74	0.807
3720.17	0.806
3728.6	0.804
3737.04	0.804
3745.47	0.803
3753.9	0.801
3762.33	0.8
3770.77	0.8009
3779.2	0.801
3787.63	0.801
3796.06	0.8004
3804.49	0.8
3812.93	0.7979
3821.36	0.797
3829.79	0.797
3838.22	0.797
3846.66	0.798
3855.09	0.8
3863.52	0.8
3871.95	0.798
3880.38	0.7968
3888.82	0.7916
3897.25	0.7898
3905.68	0.7834
3914.11	0.7767
3922.55	0.773
3930.98	0.771
3939.41	0.77
3947.84	0.77
3956.27	0.771
3964.71	0.773
3973.14	0.7757
3981.57	0.776
