Infrared Spectrum: ALLYL-2,5-DICHLOROPHENYL ETHER
Formula: C9 H8 Cl2 O
CAS: 116435-13-3
State: SOLUTION (10% CCl4 FOR 5000-1300, 10% CS2 FOR 1300-625 CM^-^1)
Class: COBLENTZ
Instrument: Not specified, most likely a prism, grating, or hybrid spectrometer.
Sampling: TRANSMISSION
Path length: 0.01 CM, 0.01 CM
Resolution: 4
Origin: DOW CHEMICAL COMPANY
MICROMETERS	TRANSMITTANCE
2.019	0.873
2.056	0.872
2.09301	0.873
2.13001	0.87
2.16701	0.875
2.20401	0.873
2.24102	0.873
2.27802	0.872
2.31502	0.876
2.35202	0.875
2.38903	0.875
2.42603	0.883
2.46303	0.875
2.50004	0.883
2.53704	0.881
2.57404	0.884
2.61104	0.884
2.64805	0.887
2.68505	0.889
2.72205	0.886
2.75906	0.873
2.79606	0.866
2.83306	0.864
2.87006	0.858
2.90707	0.85
2.94407	0.846
2.98107	0.843
3.01807	0.843
3.05508	0.841
3.09208	0.841
3.12908	0.836
3.16609	0.829
3.20309	0.809
3.24009	0.76
3.27709	0.793
3.3141	0.775
3.3511	0.772
3.3881	0.727
3.4251	0.703
3.46211	0.704
3.49911	0.795
3.53611	0.846
3.57312	0.863
3.61012	0.867
3.64712	0.869
3.68412	0.873
3.72113	0.875
3.75813	0.876
3.79513	0.887
3.83213	0.892
3.86914	0.889
3.90614	0.88
3.94314	0.876
3.98015	0.886
4.01715	0.892
4.05415	0.898
4.09115	0.903
4.12816	0.898
4.16516	0.895
4.20216	0.889
4.23917	0.881
4.27617	0.876
4.31317	0.88
4.35017	0.878
4.38718	0.889
4.42418	0.904
4.46118	0.912
4.49818	0.912
4.53519	0.909
4.57219	0.904
4.60919	0.9
4.6462	0.9
4.6832	0.91
4.7202	0.909
4.7572	0.909
4.79421	0.913
4.83121	0.913
4.86821	0.91
4.90521	0.901
4.94222	0.898
4.97922	0.895
5.01622	0.895
5.05323	0.903
5.09023	0.906
5.12723	0.913
5.16423	0.912
5.20124	0.903
5.23824	0.895
5.27524	0.89
5.31225	0.866
5.34925	0.818
5.38625	0.878
5.42325	0.896
5.46026	0.898
5.49726	0.9
5.53426	0.898
5.57126	0.896
5.60827	0.896
5.64527	0.898
5.68227	0.892
5.71928	0.881
5.75628	0.875
5.79328	0.884
5.83028	0.886
5.86729	0.878
5.90429	0.866
5.94129	0.836
5.97829	0.83
6.0153	0.796
6.0523	0.752
6.0893	0.812
6.12631	0.806
6.16331	0.753
6.20031	0.636
6.23731	0.443
6.27432	0.156
6.31132	0.146
6.34832	0.303
6.38533	0.352
6.42233	0.415
6.45933	0.438
6.49633	0.518
6.53334	0.543
6.57034	0.575
6.60734	0.618
6.64434	0.61
6.68135	0.387
6.71835	0.158
6.75535	0.104
6.79236	0.289
6.82936	0.312
6.86636	0.529
6.90336	0.673
6.94037	0.61
6.97737	0.464
7.01437	0.393
7.05137	0.416
7.08838	0.226
7.12538	0.156
7.16238	0.461
7.19939	0.493
7.23639	0.496
7.27339	0.543
7.31039	0.484
7.3474	0.656
7.3844	0.743
7.4214	0.826
7.4584	0.847
7.49541	0.85
7.53241	0.84
7.56941	0.82
7.60642	0.787
7.64342	0.729
7.68042	0.616
7.71742	0.532
7.75443	0.472
7.79143	0.41
7.82843	0.329
7.86544	0.16
7.90244	0.063
7.93944	0.138
7.97644	0.209
8.01345	0.249
8.05045	0.216
8.08745	0.258
8.12445	0.504
8.16146	0.595
8.19846	0.693
8.23546	0.736
8.27247	0.75
8.30947	0.755
8.34647	0.761
8.38347	0.769
8.42048	0.756
8.45748	0.756
8.49448	0.764
8.53148	0.767
8.56849	0.756
8.60549	0.733
8.64249	0.706
8.6795	0.695
8.7165	0.673
8.7535	0.581
8.7905	0.426
8.82751	0.278
8.86451	0.527
8.90151	0.615
8.93852	0.62
8.97552	0.589
9.01252	0.54
9.04952	0.489
9.08653	0.33
9.12353	0.169
9.16053	0.173
9.19753	0.395
9.23454	0.521
9.27154	0.572
9.30854	0.564
9.34555	0.444
9.38255	0.253
9.41955	0.112
9.45655	0.201
9.49356	0.486
9.53056	0.581
9.56756	0.586
9.60456	0.566
9.64157	0.533
9.67857	0.464
9.71557	0.383
9.75258	0.252
9.78958	0.176
9.82658	0.147
9.86358	0.193
9.90059	0.229
9.93759	0.224
9.97459	0.169
10.0116	0.184
10.0486	0.213
10.0856	0.289
10.1226	0.33
10.1596	0.338
10.1966	0.406
10.2336	0.527
10.2706	0.653
10.3076	0.723
10.3446	0.752
10.3816	0.763
10.4186	0.767
10.4556	0.766
10.4926	0.753
10.5296	0.735
10.5666	0.687
10.6036	0.616
10.6406	0.495
10.6776	0.356
10.7146	0.232
10.7517	0.163
10.7887	0.167
10.8257	0.281
10.8627	0.461
10.8997	0.54
10.9367	0.575
10.9737	0.578
11.0107	0.55
11.0477	0.478
11.0847	0.353
11.1217	0.25
11.1587	0.233
11.1957	0.376
11.2327	0.556
11.2697	0.615
11.3067	0.636
11.3437	0.636
11.3807	0.621
11.4177	0.576
11.4547	0.516
11.4917	0.466
11.5287	0.463
11.5657	0.473
11.6027	0.518
11.6397	0.567
11.6767	0.581
11.7137	0.586
11.7507	0.581
11.7877	0.553
11.8247	0.486
11.8617	0.373
11.8987	0.261
11.9357	0.152
11.9727	0.2
12.0097	0.455
12.0467	0.58
12.0837	0.64
12.1208	0.687
12.1578	0.7
12.1948	0.701
12.2318	0.695
12.2688	0.673
12.3058	0.629
12.3428	0.569
12.3798	0.47
12.4168	0.301
12.4538	0.15
12.4908	0.103
12.5278	0.307
12.5648	0.54
12.6018	0.636
12.6388	0.71
12.6758	0.73
12.7128	0.75
12.7498	0.76
12.7868	0.767
12.8238	0.775
12.8608	0.78
12.8978	0.786
12.9348	0.789
12.9718	0.792
13.0088	0.79
13.0458	0.79
13.0828	0.792
13.1198	0.793
13.1568	0.79
13.1938	0.793
13.2308	0.795
13.2678	0.79
13.3048	0.787
13.3418	0.787
13.3788	0.784
13.4158	0.78
13.4529	0.778
13.4899	0.773
13.5269	0.77
13.5639	0.766
13.6009	0.756
13.6379	0.744
13.6749	0.726
13.7119	0.703
13.7489	0.687
13.7859	0.683
13.8229	0.689
13.8599	0.698
13.8969	0.704
13.9339	0.706
13.9709	0.696
14.0079	0.687
14.0449	0.673
14.0819	0.667
14.1189	0.658
14.1559	0.661
14.1929	0.666
14.2299	0.664
14.2669	0.663
14.3039	0.658
14.3409	0.653
14.3779	0.632
14.4149	0.647
14.4519	0.638
14.4889	0.629
14.5259	0.624
14.5629	0.618
14.5999	0.612
14.6369	0.603
14.6739	0.596
14.7109	0.589
14.7479	0.578
14.785	0.575
14.822	0.564
14.859	0.555
14.896	0.54
14.933	0.532
14.97	0.533
15.007	0.53
15.044	0.515
15.081	0.495
15.118	0.484
15.155	0.47
15.192	0.463
15.229	0.45
15.266	0.44
15.303	0.43
15.34	0.424
15.377	0.416
15.414	0.412
15.451	0.407
15.488	0.4
15.525	0.4
15.562	0.396
15.599	0.392
15.636	0.389
15.673	0.383
15.71	0.381
15.747	0.376
15.784	0.372
15.821	0.367
15.858	0.369
15.895	0.375
