Infrared Spectrum: 2-(o-PHENYLPHENOXY) PYRAZINE
Formula: C16 H12 N2 O
CAS: 116435-19-9
State: LIQUID
Class: COBLENTZ
Instrument: Not specified, most likely a prism, grating, or hybrid spectrometer.
Sampling: TRANSMISSION
Path length: CAPILLARY
Resolution: 4
Origin: WYANDOTTE CHEMICALS CORP., WYANDOTTE, MICHIGAN, USA
MICROMETERS	TRANSMITTANCE
2.048	0.964
2.08889	0.955
2.12979	0.953
2.17068	0.959
2.21158	0.962
2.25247	0.959
2.29336	0.952
2.33426	0.959
2.37515	0.959
2.41605	0.936
2.45694	0.948
2.49783	0.96
2.53873	0.952
2.57962	0.962
2.62052	0.964
2.66141	0.962
2.70231	0.962
2.7432	0.959
2.78409	0.953
2.82499	0.947
2.86588	0.94
2.90678	0.923
2.94767	0.924
2.98856	0.918
3.02946	0.895
3.07035	0.892
3.11125	0.878
3.15214	0.865
3.19303	0.858
3.23393	0.834
3.27482	0.621
3.31572	0.711
3.35661	0.831
3.3975	0.849
3.4384	0.86
3.47929	0.885
3.52019	0.897
3.56108	0.918
3.60198	0.928
3.64287	0.924
3.68376	0.926
3.72466	0.931
3.76555	0.933
3.80645	0.94
3.84734	0.943
3.88823	0.94
3.92913	0.931
3.97002	0.933
4.01092	0.94
4.05181	0.943
4.0927	0.931
4.1336	0.93
4.17449	0.933
4.21539	0.933
4.25628	0.928
4.29717	0.926
4.33807	0.926
4.37896	0.933
4.41986	0.938
4.46075	0.943
4.50165	0.948
4.54254	0.953
4.58343	0.955
4.62433	0.95
4.66522	0.953
4.70612	0.953
4.74701	0.953
4.7879	0.941
4.8288	0.93
4.86969	0.933
4.91059	0.936
4.95148	0.94
4.99237	0.938
5.03327	0.928
5.07416	0.916
5.11506	0.923
5.15595	0.902
5.19684	0.89
5.23774	0.897
5.27863	0.894
5.31953	0.895
5.36042	0.897
5.40132	0.916
5.44221	0.918
5.4831	0.901
5.524	0.892
5.56489	0.882
5.60579	0.899
5.64668	0.904
5.68757	0.901
5.72847	0.889
5.76936	0.899
5.81026	0.892
5.85115	0.88
5.89204	0.885
5.93294	0.873
5.97383	0.877
6.01473	0.875
6.05562	0.86
6.09651	0.853
6.13741	0.836
6.1783	0.791
6.2192	0.754
6.26009	0.701
6.30099	0.549
6.34188	0.735
6.38277	0.788
6.42367	0.754
6.46456	0.617
6.50546	0.308
6.54635	0.452
6.58724	0.699
6.62814	0.493
6.66903	0.709
6.70993	0.532
6.75082	0.167
6.79171	0.39
6.83261	0.511
6.8735	0.576
6.9144	0.54
6.95529	0.232
6.99618	0.39
7.03708	0.474
7.07797	0.276
7.11887	0.042
7.15976	0.093
7.20066	0.336
7.24155	0.496
7.28244	0.546
7.32334	0.701
7.36423	0.762
7.40513	0.773
7.44602	0.761
7.48691	0.72
7.52781	0.694
7.5687	0.684
7.6096	0.624
7.65049	0.426
7.69138	0.257
7.73228	0.232
7.77317	0.107
7.81407	0.081
7.85496	0.163
7.89585	0.259
7.93675	0.238
7.97764	0.203
8.01854	0.377
8.05943	0.624
8.10033	0.72
8.14122	0.737
8.18211	0.696
8.22301	0.612
8.2639	0.426
8.3048	0.221
8.34569	0.211
8.38658	0.36
8.42748	0.257
8.46837	0.203
8.50927	0.337
8.55016	0.527
8.59105	0.544
8.63195	0.406
8.67284	0.39
8.71374	0.482
8.75463	0.687
8.79552	0.788
8.83642	0.819
8.87731	0.825
8.91821	0.774
8.9591	0.638
9	0.578
9.04089	0.715
9.08178	0.803
9.12268	0.82
9.16357	0.825
9.20447	0.819
9.24536	0.774
9.28625	0.706
9.32715	0.749
9.36804	0.769
9.40894	0.701
9.44983	0.718
9.49072	0.725
9.53162	0.617
9.57251	0.684
9.61341	0.726
9.6543	0.711
9.69519	0.718
9.73609	0.75
9.77698	0.769
9.81788	0.767
9.85877	0.633
9.89967	0.351
9.94056	0.484
9.98145	0.745
10.0223	0.779
10.0632	0.81
10.1041	0.813
10.145	0.812
10.1859	0.8
10.2268	0.781
10.2677	0.773
10.3086	0.788
10.3495	0.793
10.3904	0.807
10.4313	0.817
10.4722	0.829
10.5131	0.829
10.554	0.812
10.5949	0.805
10.6358	0.798
10.6767	0.819
10.7175	0.841
10.7584	0.849
10.7993	0.839
10.8402	0.813
10.8811	0.791
10.922	0.773
10.9629	0.773
11.0038	0.793
11.0447	0.79
11.0856	0.75
11.1265	0.778
11.1674	0.793
11.2083	0.738
11.2492	0.65
11.2901	0.619
11.331	0.72
11.3719	0.779
11.4127	0.8
11.4536	0.783
11.4945	0.759
11.5354	0.732
11.5763	0.708
11.6172	0.701
11.6581	0.699
11.699	0.697
11.7399	0.682
11.7808	0.65
11.8217	0.602
11.8626	0.556
11.9035	0.523
11.9444	0.53
11.9853	0.6
12.0262	0.65
12.0671	0.691
12.1079	0.75
12.1488	0.791
12.1897	0.783
12.2306	0.759
12.2715	0.742
12.3124	0.75
12.3533	0.773
12.3942	0.783
12.4351	0.771
12.476	0.757
12.5169	0.752
12.5578	0.779
12.5987	0.808
12.6396	0.81
12.6805	0.81
12.7214	0.779
12.7623	0.723
12.8031	0.631
12.844	0.544
12.8849	0.465
12.9258	0.402
12.9667	0.363
13.0076	0.332
13.0485	0.349
13.0894	0.406
13.1303	0.479
13.1712	0.549
13.2121	0.575
13.253	0.551
13.2939	0.486
13.3348	0.411
13.3757	0.354
13.4166	0.331
13.4575	0.332
13.4983	0.313
13.5392	0.279
13.5801	0.281
13.621	0.336
13.6619	0.407
13.7028	0.506
13.7437	0.621
13.7846	0.694
13.8255	0.723
13.8664	0.72
13.9073	0.716
13.9482	0.742
13.9891	0.764
14.03	0.784
14.0709	0.783
14.1118	0.755
14.1527	0.691
14.1935	0.593
14.2344	0.455
14.2753	0.336
14.3162	0.262
14.3571	0.249
14.398	0.322
14.4389	0.462
14.4798	0.622
14.5207	0.732
14.5616	0.79
14.6025	0.819
14.6434	0.839
14.6843	0.853
14.7252	0.863
14.7661	0.863
14.807	0.868
14.8478	0.863
14.8887	0.868
14.9296	0.863
14.9705	0.868
15.0114	0.851
15.0523	0.837
15.0932	0.843
15.1341	0.865
15.175	0.868
15.2159	0.87
15.2568	0.863
15.2977	0.868
15.3386	0.868
15.3795	0.853
15.4204	0.863
15.4613	0.858
15.5022	0.853
15.543	0.858
15.5839	0.861
15.6248	0.858
15.6657	0.858
15.7066	0.848
15.7475	0.851
15.7884	0.846
15.8293	0.841
15.8702	0.839
15.9111	0.831
15.952	0.832
15.9929	0.827
