Infrared Spectrum: 2-PHENOXY-3-(Alpha,Alpha-DIFLUOROBENZYL) PYRAZINE
Formula: C17 H12 F2 N2 O
CAS: 116403-01-1
State: LIQUID
Class: COBLENTZ
Instrument: Not specified, most likely a prism, grating, or hybrid spectrometer.
Sampling: TRANSMISSION
Path length: CAPILLARY
Resolution: 4
Origin: WYANDOTTE CHEMICALS CORP., WYANDOTTE, MICHIGAN, USA
MICROMETERS	TRANSMITTANCE
2.02	0.976
2.061	0.964
2.10199	0.969
2.14299	0.972
2.18399	0.976
2.22499	0.965
2.26598	0.965
2.30698	0.969
2.34798	0.958
2.38897	0.938
2.42997	0.953
2.47097	0.957
2.51196	0.958
2.55296	0.965
2.59396	0.967
2.63496	0.969
2.67595	0.974
2.71695	0.962
2.75795	0.964
2.79894	0.958
2.83994	0.946
2.88094	0.931
2.92194	0.919
2.96293	0.912
3.00393	0.907
3.04493	0.902
3.08592	0.893
3.12692	0.883
3.16792	0.88
3.20891	0.854
3.24991	0.669
3.29091	0.66
3.33191	0.837
3.3729	0.839
3.4139	0.823
3.4549	0.859
3.49589	0.878
3.53689	0.89
3.57789	0.909
3.61889	0.909
3.65988	0.907
3.70088	0.909
3.74188	0.914
3.78287	0.912
3.82387	0.912
3.86487	0.909
3.90587	0.912
3.94686	0.919
3.98786	0.91
4.02886	0.91
4.06985	0.904
4.11085	0.902
4.15185	0.91
4.19284	0.9
4.23384	0.893
4.27484	0.9
4.31584	0.916
4.35683	0.926
4.39783	0.928
4.43883	0.917
4.47982	0.922
4.52082	0.916
4.56182	0.922
4.60282	0.929
4.64381	0.922
4.68481	0.922
4.72581	0.924
4.7668	0.929
4.8078	0.926
4.8488	0.921
4.88979	0.922
4.93079	0.914
4.97179	0.898
5.01279	0.902
5.05378	0.897
5.09478	0.895
5.13578	0.881
5.17677	0.864
5.21777	0.88
5.25877	0.892
5.29977	0.886
5.34076	0.885
5.38176	0.881
5.42276	0.881
5.46375	0.892
5.50475	0.888
5.54575	0.864
5.58674	0.864
5.62774	0.864
5.66874	0.859
5.70974	0.859
5.75073	0.851
5.79173	0.83
5.83273	0.833
5.87372	0.83
5.91472	0.815
5.95572	0.775
5.99672	0.801
6.03771	0.796
6.07871	0.809
6.11971	0.797
6.1607	0.76
6.2017	0.546
6.2427	0.44
6.2837	0.491
6.32469	0.505
6.36569	0.606
6.40669	0.604
6.44768	0.481
6.48868	0.164
6.52968	0.316
6.57067	0.606
6.61167	0.621
6.65267	0.28
6.69367	0.208
6.73466	0.465
6.77566	0.583
6.81666	0.511
6.85765	0.412
6.89865	0.505
6.93965	0.436
6.98065	0.253
7.02164	0.212
7.06264	0.066
7.10364	0.051
7.14463	0.148
7.18563	0.311
7.22663	0.452
7.26762	0.5
7.30862	0.431
7.34962	0.486
7.39062	0.577
7.43161	0.511
7.47261	0.402
7.51361	0.311
7.5546	0.231
7.5956	0.282
7.6366	0.315
7.6776	0.284
7.71859	0.212
7.75959	0.154
7.80059	0.114
7.84158	0.08
7.88258	0.116
7.92358	0.19
7.96457	0.174
8.00557	0.2
8.04657	0.354
8.08757	0.477
8.12856	0.51
8.16956	0.385
8.21056	0.207
8.25155	0.166
8.29255	0.154
8.33355	0.135
8.37455	0.152
8.41554	0.148
8.45654	0.169
8.49754	0.268
8.53853	0.321
8.57953	0.296
8.62053	0.347
8.66152	0.416
8.70252	0.472
8.74352	0.53
8.78452	0.558
8.82551	0.59
8.86651	0.626
8.90751	0.66
8.9485	0.686
8.9895	0.683
9.0305	0.676
9.0715	0.667
9.11249	0.664
9.15349	0.669
9.19449	0.664
9.23548	0.625
9.27648	0.537
9.31748	0.537
9.35848	0.583
9.39947	0.592
9.44047	0.58
9.48147	0.613
9.52246	0.652
9.56346	0.671
9.60446	0.688
9.64545	0.669
9.68645	0.582
9.72745	0.529
9.76845	0.527
9.80944	0.59
9.85044	0.493
9.89144	0.34
9.93243	0.402
9.97343	0.476
10.0144	0.58
10.0554	0.666
10.0964	0.72
10.1374	0.748
10.1784	0.767
10.2194	0.768
10.2604	0.763
10.3014	0.748
10.3424	0.731
10.3834	0.727
10.4244	0.732
10.4654	0.743
10.5064	0.756
10.5474	0.775
10.5884	0.763
10.6294	0.748
10.6704	0.744
10.7114	0.717
10.7524	0.645
10.7934	0.614
10.8344	0.63
10.8754	0.669
10.9164	0.693
10.9574	0.695
10.9984	0.662
11.0394	0.611
11.0804	0.602
11.1213	0.602
11.1623	0.618
11.2033	0.631
11.2443	0.65
11.2853	0.657
11.3263	0.63
11.3673	0.601
11.4083	0.568
11.4493	0.549
11.4903	0.551
11.5313	0.571
11.5723	0.628
11.6133	0.678
11.6543	0.715
11.6953	0.746
11.7363	0.763
11.7773	0.77
11.8183	0.768
11.8593	0.758
11.9003	0.731
11.9413	0.672
11.9823	0.652
12.0233	0.672
12.0643	0.681
12.1053	0.686
12.1463	0.684
12.1873	0.674
12.2283	0.669
12.2693	0.684
12.3103	0.71
12.3513	0.734
12.3923	0.751
12.4333	0.763
12.4743	0.767
12.5152	0.758
12.5562	0.748
12.5972	0.734
12.6382	0.717
12.6792	0.666
12.7202	0.599
12.7612	0.559
12.8022	0.513
12.8432	0.424
12.8842	0.304
12.9252	0.239
12.9662	0.248
13.0072	0.282
13.0482	0.301
13.0892	0.284
13.1302	0.284
13.1712	0.304
13.2122	0.345
13.2532	0.383
13.2942	0.409
13.3352	0.405
13.3762	0.398
13.4172	0.429
13.4582	0.501
13.4992	0.573
13.5402	0.614
13.5812	0.628
13.6222	0.628
13.6632	0.609
13.7042	0.577
13.7452	0.568
13.7862	0.566
13.8272	0.575
13.8682	0.561
13.9091	0.532
13.9501	0.506
13.9911	0.482
14.0321	0.479
14.0731	0.484
14.1141	0.484
14.1551	0.474
14.1961	0.446
14.2371	0.398
14.2781	0.347
14.3191	0.282
14.3601	0.246
14.4011	0.217
14.4421	0.203
14.4831	0.191
14.5241	0.188
14.5651	0.203
14.6061	0.272
14.6471	0.38
14.6881	0.5
14.7291	0.599
14.7701	0.657
14.8111	0.69
14.8521	0.714
14.8931	0.724
14.9341	0.729
14.9751	0.731
15.0161	0.715
15.0571	0.708
15.0981	0.72
15.1391	0.739
15.1801	0.738
15.2211	0.738
15.2621	0.731
15.303	0.731
15.344	0.731
15.385	0.727
15.426	0.731
15.467	0.738
15.508	0.731
15.549	0.732
15.59	0.738
15.631	0.727
15.672	0.719
15.713	0.705
15.754	0.703
15.795	0.7
15.836	0.712
15.877	0.707
15.918	0.702
15.959	0.696
16	0.688
