Infrared Spectrum: 2-(P-NONYLPHENOXY)-3-(P-PHENOXYBENZYL) PYRAZINE
Formula: C32 H36 N2 O2
CAS: 116402-78-9
State: LIQUID
Class: COBLENTZ
Instrument: Not specified, most likely a prism, grating, or hybrid spectrometer.
Sampling: TRANSMISSION
Resolution: 4
Origin: WYANDOTTE CHEMICALS CORP., WYANDOTTE, MICHIGAN, USA
MICROMETERS	TRANSMITTANCE
2.007	0.945
2.04791	0.945
2.08883	0.947
2.12974	0.948
2.17066	0.929
2.21157	0.933
2.25249	0.929
2.2934	0.936
2.33432	0.931
2.37523	0.921
2.41615	0.928
2.45706	0.935
2.49798	0.931
2.53889	0.948
2.57981	0.95
2.62072	0.952
2.66164	0.95
2.70255	0.938
2.74347	0.941
2.78438	0.953
2.8253	0.928
2.86621	0.921
2.90713	0.916
2.94804	0.916
2.98895	0.902
3.02987	0.895
3.07078	0.894
3.1117	0.888
3.15261	0.878
3.19353	0.87
3.23444	0.781
3.27536	0.69
3.31627	0.704
3.35719	0.251
3.3981	0.364
3.43902	0.507
3.47993	0.517
3.52085	0.779
3.56176	0.858
3.60268	0.882
3.64359	0.89
3.68451	0.887
3.72542	0.9
3.76634	0.909
3.80725	0.907
3.84816	0.902
3.88908	0.909
3.92999	0.911
3.97091	0.919
4.01182	0.909
4.05274	0.907
4.09365	0.899
4.13457	0.894
4.17548	0.892
4.2164	0.899
4.25731	0.89
4.29823	0.907
4.33914	0.919
4.38006	0.928
4.42097	0.928
4.46189	0.924
4.5028	0.921
4.54372	0.924
4.58463	0.933
4.62555	0.931
4.66646	0.921
4.70738	0.929
4.74829	0.929
4.7892	0.929
4.83012	0.923
4.87103	0.919
4.91195	0.916
4.95286	0.912
4.99378	0.911
5.03469	0.917
5.07561	0.912
5.11652	0.917
5.15744	0.909
5.19835	0.902
5.23927	0.909
5.28018	0.899
5.3211	0.895
5.36201	0.909
5.40293	0.911
5.44384	0.911
5.48476	0.921
5.52567	0.919
5.56659	0.905
5.6075	0.892
5.64841	0.895
5.68933	0.902
5.73024	0.9
5.77116	0.885
5.81207	0.892
5.85299	0.882
5.8939	0.87
5.93482	0.841
5.97573	0.788
6.01665	0.767
6.05756	0.794
6.09848	0.793
6.13939	0.699
6.18031	0.577
6.22122	0.369
6.26214	0.468
6.30305	0.649
6.34397	0.731
6.38488	0.75
6.4258	0.664
6.46671	0.569
6.50763	0.659
6.54854	0.576
6.58945	0.198
6.63037	0.317
6.67128	0.16
6.7122	0.41
6.75311	0.483
6.79403	0.41
6.83494	0.355
6.87586	0.434
6.91677	0.536
6.95769	0.591
6.9986	0.589
7.03952	0.408
7.08043	0.241
7.12135	0.235
7.16226	0.405
7.20318	0.422
7.24409	0.367
7.28501	0.376
7.32592	0.509
7.36684	0.617
7.40775	0.671
7.44867	0.661
7.48958	0.615
7.53049	0.596
7.57141	0.545
7.61232	0.514
7.65324	0.512
7.69415	0.459
7.73507	0.418
7.77598	0.411
7.8169	0.471
7.85781	0.516
7.89873	0.502
7.93964	0.36
7.98056	0.196
8.02147	0.14
8.06239	0.15
8.1033	0.188
8.14422	0.222
8.18513	0.191
8.22605	0.229
8.26696	0.386
8.30788	0.442
8.34879	0.499
8.3897	0.528
8.43062	0.434
8.47153	0.304
8.51245	0.299
8.55336	0.377
8.59428	0.49
8.63519	0.589
8.67611	0.673
8.71702	0.717
8.75794	0.748
8.79885	0.777
8.83977	0.793
8.88068	0.762
8.9216	0.695
8.96251	0.699
9.00343	0.76
9.04434	0.779
9.08526	0.791
9.12617	0.791
9.16709	0.805
9.208	0.808
9.24892	0.784
9.28983	0.762
9.33074	0.776
9.37166	0.839
9.41257	0.856
9.45349	0.854
9.4944	0.856
9.53532	0.856
9.57623	0.847
9.61715	0.844
9.65806	0.841
9.69898	0.813
9.73989	0.748
9.78081	0.714
9.82172	0.598
9.86264	0.676
9.90355	0.741
9.94447	0.801
9.98538	0.81
10.0263	0.83
10.0672	0.829
10.1081	0.827
10.149	0.823
10.19	0.823
10.2309	0.832
10.2718	0.832
10.3127	0.827
10.3536	0.811
10.3945	0.803
10.4354	0.782
10.4764	0.789
10.5173	0.818
10.5582	0.837
10.5991	0.841
10.64	0.841
10.6809	0.839
10.7218	0.837
10.7628	0.841
10.8037	0.849
10.8446	0.837
10.8855	0.81
10.9264	0.805
10.9673	0.8
11.0083	0.777
11.0492	0.764
11.0901	0.758
11.131	0.772
11.1719	0.777
11.2128	0.765
11.2537	0.745
11.2947	0.721
11.3356	0.724
11.3765	0.728
11.4174	0.719
11.4583	0.654
11.4992	0.618
11.5401	0.658
11.5811	0.702
11.622	0.704
11.6629	0.682
11.7038	0.639
11.7447	0.618
11.7856	0.598
11.8265	0.586
11.8675	0.576
11.9084	0.57
11.9493	0.582
11.9902	0.608
12.0311	0.641
12.072	0.658
12.1129	0.678
12.1539	0.694
12.1948	0.702
12.2357	0.712
12.2766	0.717
12.3175	0.728
12.3584	0.733
12.3994	0.741
12.4403	0.741
12.4812	0.75
12.5221	0.752
12.563	0.745
12.6039	0.74
12.6448	0.728
12.6858	0.719
12.7267	0.709
12.7676	0.707
12.8085	0.717
12.8494	0.719
12.8903	0.728
12.9312	0.721
12.9722	0.716
13.0131	0.699
13.054	0.676
13.0949	0.654
13.1358	0.632
13.1767	0.617
13.2176	0.589
13.2586	0.6
13.2995	0.61
13.3404	0.649
13.3813	0.685
13.4222	0.723
13.4631	0.738
13.5041	0.757
13.545	0.772
13.5859	0.779
13.6268	0.786
13.6677	0.788
13.7086	0.789
13.7495	0.805
13.7905	0.81
13.8314	0.835
13.8723	0.842
13.9132	0.849
13.9541	0.856
13.995	0.866
14.0359	0.858
14.0769	0.863
14.1178	0.854
14.1587	0.846
14.1996	0.832
14.2405	0.81
14.2814	0.779
14.3223	0.75
14.3633	0.699
14.4042	0.654
14.4451	0.603
14.486	0.579
14.5269	0.582
14.5678	0.632
14.6088	0.705
14.6497	0.758
14.6906	0.789
14.7315	0.817
14.7724	0.822
14.8133	0.832
14.8542	0.827
14.8952	0.83
14.9361	0.834
14.977	0.818
15.0179	0.789
15.0588	0.793
15.0997	0.82
15.1406	0.835
15.1816	0.839
15.2225	0.827
15.2634	0.817
15.3043	0.818
15.3452	0.813
15.3861	0.808
15.427	0.801
15.468	0.796
15.5089	0.794
15.5498	0.789
15.5907	0.788
15.6316	0.779
15.6725	0.781
15.7134	0.772
15.7544	0.77
15.7953	0.758
15.8362	0.76
15.8771	0.748
15.918	0.743
