Infrared Spectrum: 5-AMINO-2-HYDROXY-4-METHOXY BENZOPHENONE
Formula: C14 H13 N O3
CAS: 116495-86-4
State: SOLID (KBr PELLET)
Class: COBLENTZ
Instrument: Not specified, most likely a prism, grating, or hybrid spectrometer.
Sampling: TRANSMISSION
Resolution: 4
Origin: TENNESSEE EASTMAN COMPANY, RESEARCH LABORATORIES
MICROMETERS	TRANSMITTANCE
2.014	0.519
2.05494	0.536
2.09589	0.553
2.13683	0.562
2.17777	0.57
2.21872	0.577
2.25966	0.588
2.3006	0.606
2.34155	0.611
2.38249	0.618
2.42343	0.622
2.46438	0.629
2.50532	0.634
2.54626	0.644
2.58721	0.651
2.62815	0.663
2.66909	0.67
2.71004	0.68
2.75098	0.68
2.79192	0.676
2.83287	0.661
2.87381	0.641
2.91476	0.519
2.9557	0.502
2.99664	0.468
3.03759	0.463
3.07853	0.511
3.11947	0.552
3.16042	0.547
3.20136	0.591
3.2423	0.608
3.28325	0.55
3.32419	0.558
3.36513	0.545
3.40608	0.521
3.44702	0.588
3.48796	0.615
3.52891	0.629
3.56985	0.678
3.61079	0.688
3.65174	0.697
3.69268	0.707
3.73362	0.714
3.77457	0.717
3.81551	0.726
3.85645	0.745
3.8974	0.772
3.93834	0.801
3.97928	0.818
4.02023	0.829
4.06117	0.83
4.10211	0.832
4.14306	0.839
4.184	0.851
4.22494	0.852
4.26589	0.852
4.30683	0.856
4.34777	0.87
4.38872	0.902
4.42966	0.904
4.4706	0.907
4.51155	0.912
4.55249	0.926
4.59344	0.936
4.63438	0.936
4.67532	0.933
4.71627	0.935
4.75721	0.948
4.79815	0.95
4.8391	0.96
4.88004	0.952
4.92098	0.94
4.96193	0.931
5.00287	0.953
5.04381	0.952
5.08476	0.94
5.1257	0.948
5.16664	0.957
5.20759	0.955
5.24853	0.953
5.28947	0.969
5.33042	0.979
5.37136	0.982
5.4123	0.974
5.45325	0.967
5.49419	0.958
5.53513	0.958
5.57608	0.96
5.61702	0.958
5.65796	0.948
5.69891	0.935
5.73985	0.941
5.78079	0.943
5.82174	0.929
5.86268	0.909
5.90362	0.88
5.94457	0.82
5.98551	0.774
6.02645	0.728
6.0674	0.601
6.10834	0.164
6.14928	0.136
6.19023	0.133
6.23117	0.041
6.27212	0.035
6.31306	0.133
6.354	0.15
6.39495	0.213
6.43589	0.4
6.47683	0.422
6.51778	0.388
6.55872	0.227
6.59966	0.049
6.64061	0.135
6.68155	0.223
6.72249	0.376
6.76344	0.517
6.80438	0.36
6.84532	0.28
6.88627	0.297
6.92721	0.15
6.96815	0.449
7.0091	0.413
7.05004	0.466
7.09098	0.499
7.13193	0.396
7.17287	0.2
7.21381	0.131
7.25476	0.157
7.2957	0.227
7.33664	0.244
7.37759	0.215
7.41853	0.111
7.45947	0.052
7.50042	0.095
7.54136	0.229
7.5823	0.331
7.62325	0.358
7.66419	0.309
7.70513	0.251
7.74608	0.123
7.78702	0.041
7.82796	0.051
7.86891	0.126
7.90985	0.254
7.9508	0.34
7.99174	0.328
8.03268	0.188
8.07363	0.061
8.11457	0.051
8.15551	0.135
8.19646	0.194
8.2374	0.111
8.27834	0.112
8.31929	0.052
8.36023	0.056
8.40117	0.252
8.44212	0.323
8.48306	0.252
8.524	0.194
8.56495	0.249
8.60589	0.376
8.64683	0.54
8.68778	0.603
8.72872	0.627
8.76966	0.514
8.81061	0.225
8.85155	0.088
8.89249	0.119
8.93344	0.273
8.97438	0.415
9.01532	0.541
9.05627	0.625
9.09721	0.695
9.13815	0.731
9.1791	0.748
9.22004	0.726
9.26098	0.611
9.30193	0.659
9.34287	0.764
9.38381	0.796
9.42476	0.808
9.4657	0.818
9.50664	0.829
9.54759	0.83
9.58853	0.832
9.62948	0.798
9.67042	0.642
9.71136	0.449
9.75231	0.608
9.79325	0.57
9.83419	0.348
9.87514	0.415
9.91608	0.649
9.95702	0.702
9.99797	0.676
10.0389	0.81
10.0799	0.817
10.1208	0.852
10.1617	0.868
10.2027	0.863
10.2436	0.811
10.2846	0.818
10.3255	0.871
10.3665	0.899
10.4074	0.911
10.4483	0.911
10.4893	0.9
10.5302	0.88
10.5712	0.863
10.6121	0.81
10.6531	0.692
10.694	0.471
10.7349	0.37
10.7759	0.54
10.8168	0.637
10.8578	0.502
10.8987	0.229
10.9397	0.328
10.9806	0.519
11.0216	0.668
11.0625	0.74
11.1034	0.764
11.1444	0.74
11.1853	0.687
11.2263	0.55
11.2672	0.425
11.3082	0.444
11.3491	0.553
11.39	0.618
11.431	0.671
11.4719	0.699
11.5129	0.724
11.5538	0.741
11.5948	0.745
11.6357	0.726
11.6766	0.695
11.7176	0.656
11.7585	0.617
11.7995	0.564
11.8404	0.505
11.8814	0.454
11.9223	0.411
11.9632	0.316
12.0042	0.232
12.0451	0.275
12.0861	0.394
12.127	0.468
12.168	0.492
12.2089	0.492
12.2499	0.473
12.2908	0.449
12.3317	0.418
12.3727	0.384
12.4136	0.35
12.4546	0.347
12.4955	0.415
12.5365	0.451
12.5774	0.427
12.6183	0.374
12.6593	0.329
12.7002	0.288
12.7412	0.252
12.7821	0.229
12.8231	0.217
12.864	0.21
12.9049	0.208
12.9459	0.208
12.9868	0.217
13.0278	0.225
13.0687	0.237
13.1097	0.241
13.1506	0.247
13.1916	0.254
13.2325	0.258
13.2734	0.261
13.3144	0.263
13.3553	0.27
13.3963	0.271
13.4372	0.278
13.4782	0.294
13.5191	0.299
13.56	0.28
13.601	0.268
13.6419	0.283
13.6829	0.341
13.7238	0.393
13.7648	0.432
13.8057	0.446
13.8466	0.432
13.8876	0.4
13.9285	0.379
13.9695	0.376
14.0104	0.384
14.0514	0.391
14.0923	0.389
14.1333	0.358
14.1742	0.299
14.2151	0.232
14.2561	0.177
14.297	0.135
14.338	0.129
14.3789	0.174
14.4199	0.254
14.4608	0.335
14.5017	0.398
14.5427	0.427
14.5836	0.427
14.6246	0.4
14.6655	0.382
14.7065	0.376
14.7474	0.4
14.7883	0.425
14.8293	0.451
14.8702	0.464
14.9112	0.48
14.9521	0.485
14.9931	0.488
15.034	0.505
15.0749	0.511
15.1159	0.512
15.1568	0.499
15.1978	0.47
15.2387	0.429
15.2797	0.4
15.3206	0.384
15.3616	0.391
15.4025	0.423
15.4434	0.449
15.4844	0.47
15.5253	0.48
15.5663	0.49
15.6072	0.492
15.6482	0.499
15.6891	0.499
15.73	0.5
15.771	0.5
15.8119	0.494
15.8529	0.494
15.8938	0.494
15.9348	0.49
15.9757	0.488
