Infrared Spectrum: N-BENZYL-N'-(o-NITROPHENYL)-PIPERAZINE HYDROCHLORIDE
Formula: C17 H19 N3 O2  * H Cl
CAS: 116402-27-8
State: SOLID (NUJOL MULL)
Class: COBLENTZ
Instrument: PERKIN-ELMER
Sampling: TRANSMISSION
Resolution: 4
Origin: ABBOTT LABORATORIES - WASHBURN
MICROMETERS	TRANSMITTANCE
2.042	0.446
2.08179	0.469
2.12157	0.4807
2.16136	0.4993
2.20114	0.5129
2.24093	0.526
2.28072	0.548
2.3205	0.5432
2.36029	0.5315
2.40007	0.535
2.43986	0.555
2.47965	0.5629
2.51943	0.576
2.55922	0.599
2.59901	0.608
2.63879	0.6169
2.67858	0.6199
2.71836	0.63
2.75815	0.6367
2.79794	0.637
2.83772	0.637
2.87751	0.6429
2.91729	0.65
2.95708	0.6567
2.99687	0.6598
3.03665	0.6619
3.07644	0.668
3.11622	0.682
3.15601	0.675
3.1958	0.672
3.23558	0.6681
3.27537	0.6424
3.31515	0.5881
3.35494	0.5353
3.39473	0.1289
3.43451	0.038
3.4743	0.0209
3.51409	0.0428
3.55387	0.1836
3.59366	0.4401
3.63344	0.6409
3.67323	0.6879
3.71302	0.6702
3.7528	0.6406
3.79259	0.6228
3.83237	0.6177
3.87216	0.6221
3.91195	0.5815
3.95173	0.5413
3.99152	0.4563
4.0313	0.3726
4.07109	0.3728
4.11088	0.2205
4.15066	0.1554
4.19045	0.1419
4.23023	0.1641
4.27002	0.214
4.30981	0.2863
4.34959	0.3886
4.38938	0.4537
4.42917	0.5039
4.46895	0.5443
4.50874	0.5659
4.54852	0.6047
4.58831	0.6266
4.6281	0.6465
4.66788	0.6575
4.70767	0.6718
4.74745	0.68
4.78724	0.683
4.82703	0.69
4.86681	0.695
4.9066	0.7
4.94638	0.704
4.98617	0.7089
5.02596	0.7116
5.06574	0.7107
5.10553	0.6999
5.14531	0.7057
5.1851	0.7143
5.22489	0.715
5.26467	0.715
5.30446	0.712
5.34424	0.7196
5.38403	0.73
5.42382	0.734
5.4636	0.7277
5.50339	0.7248
5.54318	0.712
5.58296	0.7249
5.62275	0.7315
5.66253	0.7294
5.70232	0.725
5.74211	0.72
5.78189	0.724
5.82168	0.72
5.86146	0.7237
5.90125	0.72
5.94104	0.719
5.98082	0.7124
6.02061	0.7131
6.06039	0.707
6.10018	0.695
6.13997	0.6831
6.17975	0.6073
6.21954	0.317
6.25932	0.3915
6.29911	0.5944
6.3389	0.5987
6.37868	0.494
6.41847	0.5452
6.45826	0.5623
6.49804	0.5144
6.53783	0.322
6.57761	0.1636
6.6174	0.1168
6.65719	0.299
6.69697	0.3468
6.73676	0.3247
6.77654	0.3288
6.81633	0.1708
6.85612	0.0858
6.8959	0.071
6.93569	0.1157
6.97547	0.1937
7.01526	0.4205
7.05505	0.5086
7.09483	0.5182
7.13462	0.3742
7.1744	0.4231
7.21419	0.36
7.25398	0.2681
7.29376	0.1855
7.33355	0.2286
7.37334	0.3093
7.41312	0.2902
7.45291	0.2021
7.49269	0.1501
7.53248	0.217
7.57227	0.3156
7.61205	0.3481
7.65184	0.3858
7.69162	0.3819
7.73141	0.3235
7.7712	0.3482
7.81098	0.3991
7.85077	0.346
7.89055	0.4654
7.93034	0.4214
7.97013	0.2825
8.00991	0.4236
8.0497	0.4839
8.08948	0.4251
8.12927	0.5367
8.16906	0.5767
8.20884	0.5221
8.24863	0.342
8.28842	0.4902
8.3282	0.597
8.36799	0.6079
8.40777	0.5898
8.44756	0.6042
8.48735	0.5772
8.52713	0.5298
8.56692	0.493
8.6067	0.481
8.64649	0.4157
8.68628	0.5734
8.72606	0.5974
8.76585	0.5647
8.80563	0.5175
8.84542	0.5802
8.88521	0.5126
8.92499	0.4536
8.96478	0.5939
9.00456	0.628
9.04435	0.6263
9.08414	0.6354
9.12392	0.6277
9.16371	0.5695
9.2035	0.4335
9.24328	0.4609
9.28307	0.5427
9.32285	0.5952
9.36264	0.6283
9.40243	0.6062
9.44221	0.4939
9.482	0.585
9.52178	0.633
9.56157	0.5598
9.60136	0.5338
9.64114	0.6032
9.68093	0.632
9.72071	0.6258
9.7605	0.6552
9.80029	0.663
9.84007	0.67
9.87986	0.679
9.91964	0.683
9.95943	0.6837
9.99922	0.6984
10.039	0.6969
10.0788	0.6853
10.1186	0.6562
10.1584	0.6496
10.1981	0.638
10.2379	0.6108
10.2777	0.5463
10.3175	0.4508
10.3573	0.3422
10.3971	0.3928
10.4369	0.5337
10.4766	0.5934
10.5164	0.5877
10.5562	0.5603
10.596	0.5489
10.6358	0.4497
10.6756	0.3321
10.7154	0.395
10.7552	0.5243
10.7949	0.5936
10.8347	0.5937
10.8745	0.5446
10.9143	0.5889
10.9541	0.6617
10.9939	0.6869
11.0337	0.696
11.0734	0.704
11.1132	0.71
11.153	0.71
11.1928	0.709
11.2326	0.7118
11.2724	0.712
11.3122	0.7219
11.3519	0.7209
11.3917	0.7243
11.4315	0.724
11.4713	0.725
11.5111	0.7203
11.5509	0.715
11.5907	0.7095
11.6304	0.6941
11.6702	0.6596
11.71	0.5141
11.7498	0.387
11.7896	0.5164
11.8294	0.6338
11.8692	0.6539
11.9089	0.681
11.9487	0.7027
11.9885	0.7116
12.0283	0.705
12.0681	0.6903
12.1079	0.7042
12.1477	0.7212
12.1875	0.7245
12.2272	0.7278
12.267	0.73
12.3068	0.724
12.3466	0.7156
12.3864	0.709
12.4262	0.7131
12.466	0.7196
12.5057	0.714
12.5455	0.715
12.5853	0.717
12.6251	0.7051
12.6649	0.6922
12.7047	0.6624
12.7445	0.5964
12.7842	0.4823
12.824	0.2693
12.8638	0.2787
12.9036	0.4561
12.9434	0.5696
12.9832	0.6116
13.023	0.6334
13.0627	0.6294
13.1025	0.5972
13.1423	0.5498
13.1821	0.4496
13.2219	0.2988
13.2617	0.2851
13.3015	0.2822
13.3412	0.1734
13.381	0.144
13.4208	0.229
13.4606	0.3285
13.5004	0.462
13.5402	0.5384
13.58	0.572
13.6198	0.5818
13.6595	0.588
13.6993	0.5859
13.7391	0.583
13.7789	0.5757
13.8187	0.565
13.8585	0.561
13.8983	0.5717
13.938	0.578
13.9778	0.58
14.0176	0.5682
14.0574	0.5362
14.0972	0.4722
14.137	0.4019
14.1768	0.353
14.2165	0.3624
14.2563	0.372
14.2961	0.3162
14.3359	0.2016
14.3757	0.1754
14.4155	0.3481
14.4553	0.4861
14.495	0.5602
14.5348	0.576
14.5746	0.5859
14.6144	0.588
14.6542	0.585
14.694	0.588
14.7338	0.586
14.7735	0.5775
14.8133	0.573
14.8531	0.571
14.8929	0.5612
14.9327	0.5488
14.9725	0.545
15.0123	0.5233
15.052	0.4974
15.0918	0.5108
15.1316	0.531
15.1714	0.541
15.2112	0.5494
15.251	0.555
15.2908	0.548
15.3306	0.5457
15.3703	0.541
