Infrared Spectrum: BIS(3,5-DIMETHYLPHENYL)-2-ETHYL-4-METHYLPENTYL PHOSPHATE
Formula: C24 H35 O4 P
CAS: 116402-05-2
Class: COBLENTZ
Instrument: Not specified, most likely a prism, grating, or hybrid spectrometer.
Sampling: TRANSMISSION
Path length: SMEAR
Resolution: 4
Origin: TENNESSEE EASTMAN COMPANY, RESEARCH LABORATORIES
MICROMETERS	TRANSMITTANCE
2	0.979
2.04093	0.986
2.08187	0.986
2.1228	0.989
2.16374	0.989
2.20467	0.989
2.24561	0.974
2.28654	0.96
2.32748	0.964
2.36841	0.969
2.40935	0.972
2.45028	0.97
2.49121	0.972
2.53215	0.972
2.57308	0.974
2.61402	0.97
2.65495	0.976
2.69589	0.97
2.73682	0.965
2.77776	0.955
2.81869	0.953
2.85962	0.943
2.90056	0.941
2.94149	0.95
2.98243	0.947
3.02336	0.948
3.0643	0.948
3.10523	0.948
3.14617	0.947
3.1871	0.943
3.22804	0.924
3.26897	0.825
3.3099	0.721
3.35084	0.162
3.39177	0.232
3.43271	0.447
3.47364	0.517
3.51458	0.834
3.55551	0.902
3.59645	0.926
3.63738	0.909
3.67831	0.928
3.71925	0.95
3.76018	0.952
3.80112	0.953
3.84205	0.955
3.88299	0.955
3.92392	0.957
3.96486	0.96
4.00579	0.967
4.04673	0.965
4.08766	0.957
4.12859	0.95
4.16953	0.95
4.21046	0.96
4.2514	0.95
4.29233	0.936
4.33327	0.94
4.3742	0.957
4.41514	0.957
4.45607	0.965
4.497	0.969
4.53794	0.964
4.57887	0.957
4.61981	0.959
4.66074	0.964
4.70168	0.964
4.74261	0.964
4.78355	0.965
4.82448	0.967
4.86542	0.964
4.90635	0.957
4.94728	0.955
4.98822	0.96
5.02915	0.965
5.07009	0.962
5.11102	0.953
5.15196	0.943
5.19289	0.936
5.23383	0.938
5.27476	0.941
5.31569	0.945
5.35663	0.941
5.39756	0.941
5.4385	0.936
5.47943	0.936
5.52037	0.935
5.5613	0.931
5.60224	0.921
5.64317	0.897
5.68411	0.889
5.72504	0.849
5.76597	0.844
5.80691	0.863
5.84784	0.868
5.88878	0.86
5.92971	0.878
5.97065	0.878
6.01158	0.875
6.05252	0.853
6.09345	0.844
6.13438	0.786
6.17532	0.249
6.21625	0.47
6.25719	0.174
6.29812	0.443
6.33906	0.648
6.37999	0.704
6.42093	0.709
6.46186	0.703
6.5028	0.709
6.54373	0.691
6.58466	0.675
6.6256	0.631
6.66653	0.58
6.70747	0.423
6.7484	0.29
6.78934	0.206
6.83027	0.264
6.87121	0.375
6.91214	0.467
6.95307	0.559
6.99401	0.631
7.03494	0.699
7.07588	0.749
7.11681	0.762
7.15775	0.715
7.19868	0.604
7.23962	0.581
7.28055	0.663
7.32149	0.653
7.36242	0.767
7.40335	0.795
7.44429	0.791
7.48522	0.764
7.52616	0.733
7.56709	0.629
7.60803	0.307
7.64896	0.155
7.6899	0.105
7.73083	0.051
7.77176	0.063
7.8127	0.211
7.85363	0.412
7.89457	0.534
7.9355	0.585
7.97644	0.674
8.01737	0.725
8.05831	0.773
8.09924	0.796
8.14018	0.795
8.18111	0.817
8.22204	0.832
8.26298	0.834
8.30391	0.802
8.34485	0.822
8.38578	0.813
8.42672	0.803
8.46765	0.761
8.50859	0.653
8.54952	0.542
8.59045	0.482
8.63139	0.279
8.67232	0.252
8.71326	0.162
8.75419	0.08
8.79513	0.093
8.83606	0.327
8.877	0.52
8.91793	0.619
8.95887	0.667
8.9998	0.684
9.04073	0.703
9.08167	0.701
9.1226	0.663
9.16354	0.612
9.20447	0.558
9.24541	0.522
9.28634	0.481
9.32728	0.407
9.36821	0.313
9.40915	0.221
9.45008	0.151
9.49101	0.083
9.53195	0.049
9.57288	0.039
9.61382	0.03
9.65475	0.022
9.69569	0.023
9.73662	0.025
9.77756	0.035
9.81849	0.058
9.85942	0.107
9.90036	0.191
9.94129	0.257
9.98223	0.186
10.0232	0.196
10.0641	0.204
10.105	0.189
10.146	0.175
10.1869	0.151
10.2278	0.102
10.2688	0.071
10.3097	0.063
10.3506	0.083
10.3916	0.145
10.4325	0.252
10.4734	0.293
10.5144	0.276
10.5553	0.372
10.5962	0.506
10.6372	0.602
10.6781	0.656
10.719	0.692
10.76	0.696
10.8009	0.692
10.8419	0.692
10.8828	0.694
10.9237	0.684
10.9647	0.68
11.0056	0.663
11.0465	0.605
11.0875	0.472
11.1284	0.361
11.1693	0.307
11.2103	0.3
11.2512	0.324
11.2921	0.307
11.3331	0.237
11.374	0.165
11.4149	0.126
11.4559	0.124
11.4968	0.167
11.5377	0.235
11.5787	0.339
11.6196	0.423
11.6605	0.447
11.7015	0.421
11.7424	0.358
11.7833	0.288
11.8243	0.274
11.8652	0.37
11.9061	0.503
11.9471	0.633
11.988	0.713
12.029	0.754
12.0699	0.778
12.1108	0.798
12.1518	0.81
12.1927	0.817
12.2336	0.819
12.2746	0.813
12.3155	0.803
12.3564	0.791
12.3974	0.767
12.4383	0.752
12.4792	0.744
12.5202	0.745
12.5611	0.752
12.602	0.759
12.643	0.764
12.6839	0.766
12.7248	0.774
12.7658	0.781
12.8067	0.784
12.8476	0.784
12.8886	0.776
12.9295	0.774
12.9704	0.776
13.0114	0.791
13.0523	0.812
13.0933	0.825
13.1342	0.834
13.1751	0.841
13.2161	0.843
13.257	0.844
13.2979	0.846
13.3389	0.846
13.3798	0.846
13.4207	0.844
13.4617	0.841
13.5026	0.837
13.5435	0.832
13.5845	0.832
13.6254	0.827
13.6663	0.824
13.7073	0.819
13.7482	0.815
13.7891	0.813
13.8301	0.812
13.871	0.807
13.9119	0.805
13.9529	0.802
13.9938	0.8
14.0347	0.795
14.0757	0.793
14.1166	0.786
14.1575	0.783
14.1985	0.774
14.2394	0.769
14.2804	0.759
14.3213	0.747
14.3622	0.73
14.4032	0.701
14.4441	0.648
14.485	0.576
14.526	0.462
14.5669	0.404
14.6078	0.38
14.6488	0.402
14.6897	0.459
14.7306	0.515
14.7716	0.585
14.8125	0.629
14.8534	0.656
14.8944	0.665
14.9353	0.665
14.9762	0.66
15.0172	0.658
15.0581	0.656
15.099	0.648
15.14	0.643
15.1809	0.633
15.2218	0.629
15.2628	0.617
15.3037	0.609
15.3446	0.605
15.3856	0.593
15.4265	0.587
15.4675	0.575
15.5084	0.564
15.5493	0.551
15.5903	0.54
15.6312	0.529
15.6721	0.513
15.7131	0.508
15.754	0.503
15.7949	0.496
15.8359	0.494
15.8768	0.493
15.9177	0.493
15.9587	0.494
15.9996	0.496
