Infrared Spectrum: ACETIC ACID, [3-HYDROXY-4,4'-CARBONYLBIS(PHENYLENEOXY)DI-], DIDODECYL ESTER
Formula: C41 H62 O8
CAS: 116436-40-9
Class: COBLENTZ
Instrument: Not specified, most likely a prism, grating, or hybrid spectrometer.
Sampling: TRANSMISSION
Resolution: 4
Origin: TENNESSEE EASTMAN COMPANY, RESEARCH LABORATORIES
MICROMETERS	TRANSMITTANCE
2.027	0.686
2.06696	0.681
2.10691	0.672
2.14687	0.671
2.18682	0.669
2.22678	0.667
2.26674	0.661
2.30669	0.661
2.34665	0.661
2.3866	0.661
2.42656	0.662
2.46652	0.667
2.50647	0.674
2.54643	0.676
2.58638	0.679
2.62634	0.689
2.6663	0.697
2.70625	0.697
2.74621	0.669
2.78617	0.631
2.82612	0.598
2.86608	0.581
2.90603	0.583
2.94599	0.614
2.98595	0.652
3.0259	0.679
3.06586	0.7
3.10581	0.71
3.14577	0.717
3.18573	0.725
3.22568	0.724
3.26564	0.715
3.30559	0.699
3.34555	0.485
3.38551	0.068
3.42546	0.181
3.46542	0.156
3.50537	0.466
3.54533	0.71
3.58529	0.762
3.62524	0.782
3.6652	0.799
3.70515	0.808
3.74511	0.813
3.78507	0.825
3.82502	0.832
3.86498	0.84
3.90493	0.852
3.94489	0.882
3.98485	0.897
4.0248	0.901
4.06476	0.905
4.10471	0.91
4.14467	0.911
4.18463	0.911
4.22458	0.911
4.26454	0.911
4.3045	0.911
4.34445	0.928
4.38441	0.948
4.42436	0.956
4.46432	0.96
4.50428	0.958
4.54423	0.958
4.58419	0.948
4.62414	0.936
4.6641	0.936
4.70406	0.936
4.74401	0.94
4.78397	0.943
4.82392	0.95
4.86388	0.95
4.90384	0.946
4.94379	0.95
4.98375	0.951
5.0237	0.951
5.06366	0.948
5.10362	0.948
5.14357	0.946
5.18353	0.94
5.22348	0.928
5.26344	0.926
5.3034	0.933
5.34335	0.935
5.38331	0.936
5.42326	0.93
5.46322	0.908
5.50318	0.903
5.54313	0.888
5.58309	0.812
5.62304	0.48
5.663	0.021
5.70296	0.227
5.74291	0.692
5.78287	0.765
5.82283	0.8
5.86278	0.832
5.90274	0.842
5.94269	0.845
5.98265	0.832
6.02261	0.779
6.06256	0.576
6.10252	0.209
6.14247	0.093
6.18243	0.232
6.22239	0.172
6.26234	0.139
6.3023	0.235
6.34225	0.197
6.38221	0.335
6.42217	0.705
6.46212	0.707
6.50208	0.71
6.54203	0.506
6.58199	0.262
6.62195	0.252
6.6619	0.388
6.70186	0.626
6.74181	0.476
6.78177	0.39
6.82173	0.543
6.86168	0.674
6.90164	0.475
6.94159	0.465
6.98155	0.504
7.02151	0.47
7.06146	0.631
7.10142	0.734
7.14137	0.762
7.18133	0.697
7.22129	0.559
7.26124	0.607
7.3012	0.657
7.34116	0.591
7.38111	0.446
7.42107	0.245
7.46102	0.32
7.50098	0.531
7.54094	0.558
7.58089	0.348
7.62085	0.171
7.6608	0.259
7.70076	0.134
7.74072	0.096
7.78067	0.267
7.82063	0.37
7.86058	0.34
7.90054	0.33
7.9405	0.445
7.98045	0.511
8.02041	0.458
8.06036	0.382
8.10032	0.303
8.14028	0.161
8.18023	0.053
8.22019	0.038
8.26014	0.049
8.3001	0.119
8.34006	0.149
8.38001	0.127
8.41997	0.129
8.45992	0.043
8.49988	0.064
8.53984	0.083
8.57979	0.219
8.61975	0.483
8.6597	0.649
8.69966	0.717
8.73962	0.727
8.77957	0.568
8.81953	0.25
8.85949	0.383
8.89944	0.568
8.9394	0.622
8.97935	0.679
9.01931	0.712
9.05927	0.765
9.09922	0.802
9.13918	0.808
9.17913	0.765
9.21909	0.649
9.25905	0.498
9.299	0.385
9.33896	0.318
9.37891	0.308
9.41887	0.297
9.45883	0.425
9.49878	0.686
9.53874	0.765
9.57869	0.822
9.61865	0.852
9.65861	0.857
9.69856	0.857
9.73852	0.853
9.77847	0.815
9.81843	0.779
9.85839	0.808
9.89834	0.862
9.9383	0.892
9.97825	0.905
10.0182	0.91
10.0582	0.915
10.0981	0.911
10.1381	0.865
10.178	0.84
10.218	0.848
10.2579	0.843
10.2979	0.843
10.3379	0.82
10.3778	0.779
10.4178	0.681
10.4577	0.596
10.4977	0.574
10.5376	0.626
10.5776	0.696
10.6176	0.744
10.6575	0.777
10.6975	0.833
10.7374	0.89
10.7774	0.913
10.8173	0.918
10.8573	0.906
10.8972	0.842
10.9372	0.82
10.9772	0.86
11.0171	0.923
11.0571	0.958
11.097	0.971
11.137	0.98
11.1769	0.97
11.2169	0.953
11.2568	0.955
11.2968	0.965
11.3368	0.968
11.3767	0.963
11.4167	0.915
11.4566	0.812
11.4966	0.715
11.5365	0.76
11.5765	0.79
11.6165	0.691
11.6564	0.614
11.6964	0.598
11.7363	0.576
11.7763	0.611
11.8162	0.696
11.8562	0.719
11.8961	0.742
11.9361	0.779
11.9761	0.79
12.016	0.79
12.056	0.787
12.0959	0.785
12.1359	0.785
12.1758	0.787
12.2158	0.789
12.2557	0.799
12.2957	0.81
12.3357	0.815
12.3756	0.825
12.4156	0.828
12.4555	0.822
12.4955	0.79
12.5354	0.759
12.5754	0.717
12.6154	0.679
12.6553	0.639
12.6953	0.604
12.7352	0.579
12.7752	0.559
12.8151	0.539
12.8551	0.503
12.895	0.445
12.935	0.38
12.975	0.368
13.0149	0.588
13.0549	0.739
13.0948	0.8
13.1348	0.832
13.1747	0.85
13.2147	0.865
13.2547	0.878
13.2946	0.895
13.3346	0.9
13.3745	0.901
13.4145	0.908
13.4544	0.91
13.4944	0.901
13.5343	0.875
13.5743	0.832
13.6143	0.807
13.6542	0.8
13.6942	0.78
13.7341	0.754
13.7741	0.71
13.814	0.671
13.854	0.679
13.8939	0.742
13.9339	0.784
13.9739	0.792
14.0138	0.795
14.0538	0.808
14.0937	0.845
14.1337	0.885
14.1736	0.921
14.2136	0.948
14.2536	0.968
14.2935	0.978
14.3335	0.978
14.3734	0.978
14.4134	0.931
14.4533	0.888
14.4933	0.85
14.5332	0.845
14.5732	0.85
14.6132	0.887
14.6531	0.915
14.6931	0.951
14.733	0.98
14.773	0.998
14.8129	1
14.8529	1
14.8928	1
14.9328	1
14.9728	0.998
15.0127	0.991
15.0527	0.986
15.0926	0.988
15.1326	0.991
15.1725	0.99
15.2125	0.99
15.2525	0.99
15.2924	0.983
15.3324	0.971
15.3723	0.953
15.4123	0.933
15.4522	0.913
15.4922	0.9
15.5321	0.89
15.5721	0.882
15.6121	0.873
15.652	0.86
15.692	0.848
15.7319	0.842
15.7719	0.828
15.8118	0.81
15.8518	0.795
15.8918	0.784
15.9317	0.77
15.9717	0.755
