Infrared Spectrum: 2-(N-n-HEXYL-N-n-OCTYLAMINO)-3-(n-NONYL) PYRAZINE
Formula: C27 H51 N3
CAS: 116402-86-9
State: LIQUID
Class: COBLENTZ
Instrument: Not specified, most likely a prism, grating, or hybrid spectrometer.
Sampling: TRANSMISSION
Path length: 0.0015 CM
Resolution: 4
Origin: WYANDOTTE CHEMICALS CORP., WYANDOTTE, MICHIGAN, USA
MICROMETERS	TRANSMITTANCE
2.027	0.991
2.0679	0.986
2.10879	0.979
2.14969	0.967
2.19059	0.848
2.23149	0.882
2.27238	0.897
2.31328	0.904
2.35418	0.909
2.39507	0.931
2.43597	0.935
2.47687	0.943
2.51776	0.959
2.55866	0.982
2.59956	0.964
2.64046	0.979
2.68135	0.955
2.72225	0.957
2.76315	0.948
2.80404	0.923
2.84494	0.903
2.88584	0.879
2.92673	0.862
2.96763	0.857
3.00853	0.853
3.04943	0.86
3.09032	0.852
3.13122	0.838
3.17212	0.829
3.21301	0.77
3.25391	0.574
3.29481	0.51
3.3357	0.098
3.3766	0.049
3.4175	0.052
3.4584	0.057
3.49929	0.071
3.54019	0.312
3.58109	0.612
3.62198	0.709
3.66288	0.693
3.70378	0.751
3.74467	0.755
3.78557	0.812
3.82647	0.841
3.86737	0.865
3.90826	0.891
3.94916	0.903
3.99006	0.909
4.03095	0.918
4.07185	0.918
4.11275	0.916
4.15365	0.909
4.19454	0.904
4.23544	0.901
4.27634	0.896
4.31723	0.901
4.35813	0.925
4.39903	0.938
4.43992	0.93
4.48082	0.947
4.52172	0.95
4.56262	0.948
4.60351	0.955
4.64441	0.952
4.68531	0.95
4.7262	0.954
4.7671	0.957
4.808	0.967
4.84889	0.969
4.88979	0.967
4.93069	0.962
4.97159	0.957
5.01248	0.965
5.05338	0.965
5.09428	0.979
5.13517	0.974
5.17607	0.969
5.21697	0.96
5.25786	0.962
5.29876	0.942
5.33966	0.933
5.38056	0.954
5.42145	0.971
5.46235	0.969
5.50325	0.969
5.54414	0.95
5.58504	0.942
5.62594	0.92
5.66683	0.903
5.70773	0.906
5.74863	0.88
5.78953	0.787
5.83042	0.801
5.87132	0.763
5.91222	0.744
5.95311	0.726
5.99401	0.722
6.03491	0.688
6.0758	0.692
6.1167	0.704
6.1576	0.68
6.1985	0.653
6.23939	0.579
6.28029	0.386
6.32119	0.215
6.36208	0.343
6.40298	0.43
6.44388	0.464
6.48478	0.26
6.52567	0.096
6.56657	0.204
6.60747	0.331
6.64836	0.299
6.68926	0.226
6.73016	0.217
6.77105	0.132
6.81195	0.061
6.85285	0.086
6.89375	0.098
6.93464	0.102
6.97554	0.091
7.01644	0.076
7.05733	0.057
7.09823	0.112
7.13913	0.29
7.18002	0.282
7.22092	0.129
7.26182	0.064
7.30272	0.085
7.34361	0.158
7.38451	0.197
7.42541	0.248
7.4663	0.319
7.5072	0.399
7.5481	0.42
7.58899	0.379
7.62989	0.319
7.67079	0.292
7.71169	0.301
7.75258	0.328
7.79348	0.352
7.83438	0.352
7.87527	0.343
7.91617	0.319
7.95707	0.28
7.99796	0.294
8.03886	0.353
8.07976	0.363
8.12066	0.375
8.16155	0.399
8.20245	0.379
8.24335	0.34
8.28424	0.27
8.32514	0.229
8.36604	0.265
8.40694	0.304
8.44783	0.318
8.48873	0.302
8.52963	0.258
8.57052	0.256
8.61142	0.241
8.65232	0.202
8.69321	0.2
8.73411	0.215
8.77501	0.251
8.81591	0.256
8.8568	0.181
8.8977	0.221
8.9386	0.285
8.97949	0.35
9.02039	0.328
9.06129	0.331
9.10218	0.397
9.14308	0.459
9.18398	0.486
9.22488	0.5
9.26577	0.513
9.30667	0.557
9.34757	0.578
9.38846	0.578
9.42936	0.586
9.47026	0.586
9.51115	0.59
9.55205	0.588
9.59295	0.596
9.63385	0.608
9.67474	0.612
9.71564	0.608
9.75654	0.612
9.79743	0.624
9.83833	0.632
9.87923	0.642
9.92012	0.627
9.96102	0.588
10.0019	0.612
10.0428	0.639
10.0837	0.656
10.1246	0.664
10.1655	0.68
10.2064	0.683
10.2473	0.671
10.2882	0.663
10.3291	0.661
10.37	0.653
10.4109	0.666
10.4518	0.663
10.4927	0.68
10.5336	0.683
10.5745	0.678
10.6154	0.678
10.6563	0.676
10.6972	0.681
10.7381	0.702
10.779	0.702
10.8199	0.721
10.8608	0.724
10.9017	0.739
10.9426	0.746
10.9834	0.75
11.0243	0.744
11.0652	0.736
11.1061	0.729
11.147	0.715
11.1879	0.709
11.2288	0.69
11.2697	0.67
11.3106	0.658
11.3515	0.663
11.3924	0.683
11.4333	0.685
11.4742	0.688
11.5151	0.676
11.556	0.675
11.5969	0.666
11.6378	0.67
11.6787	0.653
11.7196	0.644
11.7605	0.612
11.8014	0.564
11.8423	0.508
11.8832	0.45
11.9241	0.408
11.965	0.397
12.0059	0.384
12.0468	0.379
12.0877	0.42
12.1286	0.517
12.1695	0.627
12.2104	0.681
12.2513	0.702
12.2922	0.717
12.333	0.736
12.3739	0.748
12.4148	0.748
12.4557	0.758
12.4966	0.761
12.5375	0.767
12.5784	0.768
12.6193	0.76
12.6602	0.763
12.7011	0.768
12.742	0.772
12.7829	0.777
12.8238	0.778
12.8647	0.77
12.9056	0.765
12.9465	0.753
12.9874	0.741
13.0283	0.732
13.0692	0.717
13.1101	0.717
13.151	0.702
13.1919	0.702
13.2328	0.693
13.2737	0.685
13.3146	0.678
13.3555	0.659
13.3964	0.659
13.4373	0.666
13.4782	0.663
13.5191	0.67
13.56	0.658
13.6009	0.647
13.6418	0.63
13.6827	0.608
13.7235	0.581
13.7644	0.532
13.8053	0.496
13.8462	0.435
13.8871	0.416
13.928	0.442
13.9689	0.498
14.0098	0.561
14.0507	0.619
14.0916	0.654
14.1325	0.697
14.1734	0.722
14.2143	0.738
14.2552	0.755
14.2961	0.767
14.337	0.772
14.3779	0.778
14.4188	0.78
14.4597	0.789
14.5006	0.794
14.5415	0.807
14.5824	0.809
14.6233	0.801
14.6642	0.816
14.7051	0.814
14.746	0.823
14.7869	0.821
14.8278	0.816
14.8687	0.811
14.9096	0.818
14.9505	0.812
14.9914	0.812
15.0323	0.79
15.0731	0.753
15.114	0.76
15.1549	0.782
15.1958	0.794
15.2367	0.795
15.2776	0.787
15.3185	0.789
15.3594	0.784
15.4003	0.777
15.4412	0.777
15.4821	0.773
15.523	0.765
15.5639	0.763
15.6048	0.761
15.6457	0.755
15.6866	0.75
15.7275	0.739
15.7684	0.727
15.8093	0.729
15.8502	0.717
15.8911	0.715
15.932	0.712
15.9729	0.704
