Infrared Spectrum: Malonic acid, Beta-bromophenethyl-, diethyl ester
Formula: C15 H19 Br O4
CAS: 116400-67-0
State: SOLUTION (10% CCl4 FOR 3800-1330, 10% CS2 FOR 1330-400 CM^-^1)
Class: COBLENTZ III
Instrument: BECKMAN IR-9 (GRATING)
Instrument parameters: ORDER CHANGES: 670, 1200, 2000 CM^-^1
Sampling: TRANSMISSION
Path length: 0.010 CM, 0.010 CM
Resolution: 2
Origin: DOW CHEMICAL COMPANY
1/CM	TRANSMITTANCE
3800	0.9276
3791	0.9286
3782	0.9267
3773	0.9276
3764	0.9273
3755	0.927
3746	0.9266
3737	0.9278
3728	0.9275
3719	0.9257
3710	0.9273
3701	0.928
3692	0.9262
3683	0.9239
3674	0.9232
3665	0.9226
3656	0.9208
3647	0.9187
3638	0.9173
3629	0.916
3620	0.9164
3611	0.9223
3602	0.9209
3593	0.9117
3584	0.913
3575	0.9152
3566	0.9148
3557	0.9139
3548	0.9143
3539	0.9126
3530	0.9115
3521	0.9075
3512	0.9046
3503	0.8994
3494	0.8922
3485	0.8845
3476	0.8795
3467	0.8788
3458	0.8843
3449	0.8915
3440	0.8978
3431	0.9012
3422	0.9021
3413	0.9009
3404	0.8995
3395	0.8985
3386	0.8979
3377	0.8971
3368	0.8965
3359	0.896
3350	0.8956
3341	0.8951
3332	0.8946
3323	0.8942
3314	0.8937
3305	0.8948
3296	0.8933
3287	0.8932
3278	0.8941
3269	0.8943
3260	0.894
3251	0.8936
3242	0.8931
3233	0.8926
3224	0.8925
3215	0.8923
3206	0.8908
3197	0.8915
3188	0.8913
3179	0.8894
3170	0.8891
3161	0.8897
3152	0.8891
3143	0.8855
3134	0.8839
3125	0.8755
3116	0.8539
3107	0.8477
3098	0.8005
3089	0.8062
3080	0.8035
3071	0.7463
3062	0.7878
3053	0.8069
3044	0.7552
3035	0.6962
3026	0.7569
3017	0.7193
3008	0.5734
2999	0.4731
2990	0.3733
2981	0.4304
2972	0.568
2963	0.6094
2954	0.6701
2945	0.5954
2936	0.6272
2927	0.7072
2918	0.7053
2909	0.674
2900	0.7213
2891	0.8011
2882	0.7954
2873	0.7834
2864	0.8352
2855	0.8557
2846	0.867
2837	0.8765
2828	0.881
2819	0.8869
2810	0.8901
2801	0.8949
2792	0.8975
2783	0.899
2774	0.9015
2765	0.903
2756	0.9044
2747	0.9059
2738	0.9075
2729	0.9089
2720	0.9102
2711	0.911
2702	0.9118
2693	0.9127
2684	0.9135
2675	0.9143
2666	0.9145
2657	0.9161
2648	0.9154
2639	0.9149
2630	0.9152
2621	0.9165
2612	0.9163
2603	0.9161
2594	0.916
2585	0.9157
2576	0.9155
2567	0.9153
2558	0.915
2549	0.9147
2540	0.9145
2531	0.9142
2522	0.9139
2513	0.9135
2504	0.9134
2495	0.9131
2486	0.9128
2477	0.914
2468	0.9138
2459	0.9136
2450	0.9124
2441	0.9134
2432	0.9133
2423	0.9132
2414	0.9131
2405	0.9144
2396	0.9145
2387	0.9163
2378	0.9209
2369	0.9225
2360	0.9224
2351	0.9213
2342	0.9171
2333	0.915
2324	0.9177
2315	0.9165
2306	0.9157
2297	0.9166
2288	0.9151
2279	0.9164
2270	0.9159
2261	0.9149
2252	0.9146
2243	0.9143
2234	0.9138
2225	0.9147
2216	0.9141
2207	0.9141
2198	0.9143
2189	0.913
2180	0.9137
2171	0.9157
2162	0.915
2153	0.9146
2144	0.9143
2135	0.9138
2126	0.9128
2117	0.9111
2108	0.9094
2099	0.9079
2090	0.9065
2081	0.9049
2072	0.9044
2063	0.9049
2054	0.9064
2045	0.9041
2036	0.9027
2027	0.9021
2018	0.9004
2009	0.899
2000	0.8995
1991	0.9062
1982	0.9044
1973	0.8951
1964	0.8911
1955	0.8864
1946	0.8766
1937	0.8974
1928	0.8989
1919	0.8964
1910	0.8905
1901	0.8836
1892	0.8776
1883	0.873
1874	0.8712
1865	0.8805
1856	0.8876
1847	0.8764
1838	0.8684
1829	0.8534
1820	0.832
1811	0.8023
1802	0.7505
1793	0.6978
1784	0.6808
1775	0.6349
1766	0.4314
1757	0.105
1748	0
1739	0
1730	0.0001
1721	0.2455
1712	0.5737
1703	0.6393
1694	0.6547
1685	0.7761
1676	0.816
1667	0.839
1658	0.8512
1649	0.8605
1640	0.8643
1631	0.8654
1622	0.8608
1613	0.8463
1604	0.8205
1595	0.8116
1586	0.8047
1577	0.8214
1568	0.7831
1559	0.7632
1550	0.8266
1541	0.8717
1532	0.8639
1523	0.8615
1514	0.8557
1505	0.8148
1496	0.6269
1487	0.7824
1478	0.6023
1469	0.5846
1460	0.5546
1451	0.5235
1442	0.5527
1433	0.7077
1424	0.6926
1415	0.7818
1406	0.7575
1397	0.6553
1388	0.623
1379	0.5391
1370	0.2505
1361	0.6675
1352	0.6456
1343	0.4244
1334	0.3945
1325	0.4437
1316	0.4198
1307	0.225
1298	0.2307
1289	0.2494
1280	0.245
1271	0.1856
1262	0.0725
1253	0.1552
1244	0.1429
1235	0.1501
1226	0.1958
1217	0.2132
1208	0.2238
1199	0.2274
1190	0.1857
1181	0.1539
1172	0.1833
1163	0.1568
1154	0.1077
1145	0.136
1136	0.3635
1127	0.6285
1118	0.6131
1109	0.5445
1100	0.4552
1091	0.4777
1082	0.6497
1073	0.6691
1064	0.6634
1055	0.4456
1046	0.3951
1037	0.3403
1028	0.3357
1019	0.4697
1010	0.6533
1001	0.7707
992	0.8295
983	0.8301
974	0.7803
965	0.7845
956	0.8268
947	0.8666
938	0.9032
929	0.9103
920	0.889
911	0.8822
902	0.8917
893	0.8439
884	0.8276
875	0.7228
866	0.5719
857	0.6835
848	0.8788
839	0.8468
830	0.859
821	0.8356
812	0.8233
803	0.8385
794	0.8388
785	0.8335
776	0.7775
767	0.6208
758	0.719
749	0.7593
740	0.7923
731	0.8116
722	0.8098
713	0.7388
704	0.4326
695	0.1885
686	0.7638
677	0.7762
668	0.82
659	0.8137
650	0.8606
641	0.8927
632	0.8723
623	0.8345
614	0.8657
605	0.8328
596	0.7397
587	0.6922
578	0.7546
569	0.8044
560	0.8369
551	0.8586
542	0.8333
533	0.746
524	0.7555
515	0.8069
506	0.8293
497	0.8238
488	0.826
479	0.8219
470	0.8086
461	0.7812
452	0.7441
443	0.6916
434	0.6311
425	0.5218
416	0.3679
407	0.1618
