Infrared Spectrum: Benzoic acid, p-(2-Iodoacetamido)-, ethyl ester
Formula: C11 H12 I N O3
CAS: 116465-51-1
State: SOLID (NUJOL MULL)
Melting point: 142 C
Class: COBLENTZ III
Instrument: PERKIN-ELMER 21 (GRATING)
Instrument parameters: FILTER AT ABOUT 10 MICRONS
Resolution: 2
Origin: ABBOTT LABORATORIES
1/CM	TRANSMITTANCE
669	0.6167
678	0.6061
687	0.4467
696	0.3524
705	0.6134
714	0.5413
723	0.417
732	0.2932
741	0.529
750	0.5631
759	0.3761
768	0.0456
777	0.6199
786	0.6888
795	0.709
804	0.694
813	0.6291
822	0.5952
831	0.6965
840	0.6615
849	0.3202
858	0.5838
867	0.6315
876	0.6558
885	0.7525
894	0.7636
903	0.7708
912	0.7612
921	0.7513
930	0.7411
939	0.7394
948	0.7347
957	0.6914
966	0.5951
975	0.5339
984	0.729
993	0.7182
1002	0.6942
1011	0.6295
1020	0.407
1029	0.5139
1038	0.6806
1047	0.7073
1056	0.6988
1065	0.6498
1074	0.5231
1083	0.3162
1092	0.5736
1101	0.4633
1110	0.2386
1119	0.3401
1128	0.2498
1137	0.4454
1146	0.5108
1155	0.6193
1164	0.6111
1173	0.251
1182	0.4322
1191	0.6745
1200	0.6679
1209	0.653
1218	0.6196
1227	0.5112
1236	0.4514
1245	0.4713
1254	0.439
1263	0.3296
1272	0.1363
1281	0.0278
1290	0.011
1299	0.1003
1308	0.17
1317	0.3182
1326	0.3675
1335	0.161
1344	0.4426
1353	0.4779
1362	0.2972
1371	0.294
1380	0.1983
1389	0.3015
1398	0.3329
1407	0.2314
1416	0.2296
1425	0.2401
1434	0.3002
1443	0.2024
1452	0.1262
1461	0.0767
1470	0.085
1479	0.2778
1488	0.4552
1497	0.5001
1506	0.4831
1515	0.2509
1524	0.3542
1533	0.3715
1542	0.1907
1551	0.052
1560	0.08
1569	0.4161
1578	0.5724
1587	0.5877
1596	0.5575
1605	0.3122
1614	0.0617
1623	0.1783
1632	0.3575
1641	0.3524
1650	0.3079
1659	0.057
1668	0.0238
1677	0.0447
1686	0.2541
1695	0.4613
1704	0.5245
1713	0.4616
1722	0.3553
1731	0.0318
1740	0.2157
1749	0.5453
1758	0.7316
1767	0.7617
1776	0.8113
1785	0.8126
1794	0.8072
1803	0.8051
1812	0.8169
1821	0.8289
1830	0.8396
1839	0.8423
1848	0.8412
1857	0.8417
1866	0.8489
1875	0.8506
1884	0.8492
1893	0.8427
1902	0.8298
1911	0.8168
1920	0.8059
1929	0.7954
1938	0.8023
1947	0.8302
1956	0.8362
1965	0.8359
1974	0.8327
1983	0.8272
1992	0.8237
2001	0.8219
2010	0.8226
2019	0.8275
2028	0.8253
2037	0.8215
2046	0.8182
2055	0.8164
2064	0.8162
2073	0.8169
2082	0.8152
2091	0.8127
2100	0.8098
2109	0.8063
2118	0.8037
2127	0.8017
2136	0.7997
2145	0.7979
2154	0.7961
2163	0.7964
2172	0.7968
2181	0.7971
2190	0.7975
2199	0.7976
2208	0.7954
2217	0.7925
2226	0.7895
2235	0.7863
2244	0.7828
2253	0.7799
2262	0.7779
2271	0.776
2280	0.774
2289	0.7726
2298	0.7714
2307	0.7703
2316	0.7692
2325	0.7677
2334	0.7661
2343	0.7656
2352	0.7652
2361	0.7655
2370	0.7666
2379	0.7667
2388	0.7647
2397	0.7618
2406	0.7606
2415	0.7597
2424	0.7599
2433	0.76
2442	0.7602
2451	0.7604
2460	0.7605
2469	0.7605
2478	0.7603
2487	0.759
2496	0.7554
2505	0.7509
2514	0.7456
2523	0.7404
2532	0.7351
2541	0.7304
2550	0.7265
2559	0.7202
2568	0.7082
2577	0.6979
2586	0.6935
2595	0.69
2604	0.6867
2613	0.684
2622	0.6812
2631	0.6782
2640	0.6739
2649	0.6706
2658	0.6674
2667	0.6649
2676	0.6623
2685	0.6599
2694	0.6572
2703	0.6546
2712	0.6512
2721	0.6478
2730	0.6443
2739	0.6411
2748	0.6389
2757	0.6362
2766	0.6333
2775	0.6303
2784	0.6276
2793	0.6237
2802	0.6143
2811	0.5928
2820	0.5704
2829	0.5379
2838	0.5088
2847	0.4721
2856	0.351
2865	0.2287
2874	0.1035
2883	0.027
2892	0.0165
2901	0.0153
2910	0.0154
2919	0.0163
2928	0.0172
2937	0.0193
2946	0.022
2955	0.0246
2964	0.0279
2973	0.0334
2982	0.0382
2991	0.0459
3000	0.0952
3009	0.1518
3018	0.208
3027	0.2639
3036	0.3194
3045	0.3746
3054	0.4071
3063	0.4081
3072	0.4093
3081	0.4007
3090	0.3897
3099	0.3783
3108	0.3672
3117	0.3558
3126	0.352
3135	0.3482
3144	0.342
3153	0.3259
3162	0.3092
3171	0.2939
3180	0.2952
3189	0.3126
3198	0.3271
3207	0.3272
3216	0.3263
3225	0.301
3234	0.266
3243	0.2322
3252	0.2248
3261	0.2238
3270	0.2227
3279	0.221
3288	0.2022
3297	0.1764
3306	0.1506
3315	0.1252
3324	0.1117
3333	0.1092
3342	0.111
3351	0.1425
3360	0.1771
3369	0.2115
3378	0.2458
3387	0.2799
3396	0.2999
3405	0.3036
3414	0.3046
3423	0.3037
3432	0.3028
3441	0.3018
3450	0.3009
3459	0.3001
3468	0.3005
3477	0.3009
3486	0.3022
3495	0.3045
3504	0.3087
3513	0.3152
3522	0.3217
3531	0.3288
3540	0.3372
3549	0.3464
3558	0.3542
3567	0.3617
3576	0.3707
3585	0.3855
3594	0.4034
3603	0.4163
3612	0.427
3621	0.4385
3630	0.4512
3639	0.4635
3648	0.4753
3657	0.4852
3666	0.495
3675	0.5046
3684	0.5141
3693	0.525
3702	0.5366
3711	0.545
3720	0.5503
3729	0.5543
3738	0.5569
3747	0.5583
3756	0.5588
3765	0.559
3774	0.5587
3783	0.5583
3792	0.5576
3801	0.5569
3810	0.556
3819	0.5549
3828	0.5537
3837	0.5526
3846	0.5516
3855	0.5504
3864	0.5491
3873	0.548
3882	0.5468
3891	0.5461
3900	0.5456
3909	0.545
3918	0.5444
3927	0.5438
3936	0.5432
3945	0.543
3954	0.543
3963	0.5429
3972	0.5429
3981	0.5428
3990	0.5428
3999	0.5428
