Infrared Spectrum: 2,4-DICHLOROPHENYL-DIETHYLTHIONOCARBAMATE
Formula: C11 H13 Cl2 N O S
CAS: 116401-19-5
State: SOLUTION (10% CCl4 FOR 5000-1330, 10% CS2 FOR 1330-625 CM^-^1)
Melting point: 56-57 C
Class: COBLENTZ
Instrument: Not specified, most likely a prism, grating, or hybrid spectrometer.
Sampling: TRANSMISSION
Path length: 0.0125 CM, 0.0119 CM
Resolution: 4
Origin: DOW CHEMICAL COMPANY
MICROMETERS	TRANSMITTANCE
2.062	0.893
2.10319	0.895
2.14439	0.895
2.18558	0.892
2.22678	0.881
2.26797	0.881
2.30917	0.885
2.35036	0.886
2.39156	0.888
2.43275	0.89
2.47395	0.893
2.51514	0.892
2.55634	0.898
2.59753	0.893
2.63873	0.892
2.67992	0.893
2.72112	0.89
2.76231	0.89
2.80351	0.89
2.8447	0.89
2.8859	0.89
2.92709	0.89
2.96829	0.886
3.00948	0.886
3.05068	0.885
3.09187	0.881
3.13307	0.876
3.17426	0.861
3.21546	0.842
3.25665	0.844
3.29785	0.738
3.33904	0.443
3.38024	0.517
3.42143	0.705
3.46263	0.775
3.50382	0.851
3.54502	0.864
3.58621	0.88
3.62741	0.866
3.6686	0.871
3.7098	0.878
3.75099	0.88
3.79219	0.881
3.83338	0.88
3.87458	0.878
3.91577	0.871
3.95697	0.871
3.99816	0.88
4.03936	0.871
4.08055	0.878
4.12175	0.878
4.16294	0.878
4.20414	0.876
4.24533	0.868
4.28653	0.857
4.32772	0.857
4.36892	0.866
4.41011	0.868
4.45131	0.863
4.4925	0.859
4.5337	0.859
4.57489	0.861
4.61609	0.868
4.65728	0.873
4.69848	0.876
4.73967	0.876
4.78087	0.871
4.82206	0.873
4.86326	0.869
4.90445	0.871
4.94565	0.869
4.98684	0.868
5.02804	0.869
5.06923	0.871
5.11043	0.864
5.15162	0.864
5.19282	0.866
5.23401	0.868
5.27521	0.859
5.3164	0.825
5.3576	0.837
5.39879	0.854
5.43999	0.857
5.48118	0.861
5.52238	0.863
5.56357	0.868
5.60477	0.863
5.64596	0.857
5.68716	0.837
5.72835	0.833
5.76955	0.818
5.81074	0.833
5.85194	0.852
5.89313	0.854
5.93433	0.854
5.97552	0.851
6.01672	0.837
6.05791	0.828
6.09911	0.809
6.1403	0.803
6.1815	0.779
6.22269	0.683
6.26389	0.493
6.30508	0.395
6.34628	0.446
6.38747	0.436
6.42867	0.373
6.46986	0.347
6.51106	0.279
6.55225	0.191
6.59345	0.066
6.63464	0.047
6.67584	0.183
6.71703	0.184
6.75822	0.053
6.79942	0.101
6.84061	0.16
6.88181	0.179
6.923	0.157
6.9642	0.101
7.00539	0.323
7.04659	0.633
7.08778	0.655
7.12898	0.63
7.17017	0.515
7.21137	0.28
7.25256	0.34
7.29376	0.479
7.33495	0.375
7.37615	0.441
7.41734	0.479
7.45854	0.628
7.49973	0.539
7.54093	0.289
7.58212	0.138
7.62332	0.297
7.66451	0.392
7.70571	0.241
7.7469	0.08
7.7881	0.054
7.82929	0.32
7.87049	0.39
7.91168	0.26
7.95288	0.263
7.99407	0.383
8.03527	0.376
8.07646	0.238
8.11766	0.297
8.15885	0.184
8.20005	0.047
8.24124	0.023
8.28244	0.169
8.32363	0.467
8.36483	0.559
8.40602	0.609
8.44722	0.648
8.48841	0.676
8.52961	0.654
8.5708	0.547
8.612	0.309
8.65319	0.196
8.69439	0.364
8.73558	0.465
8.77678	0.484
8.81797	0.517
8.85917	0.518
8.90036	0.431
8.94156	0.301
8.98275	0.157
9.02395	0.042
9.06514	0.053
9.10634	0.061
9.14753	0.025
9.18873	0.018
9.22992	0.053
9.27112	0.104
9.31231	0.19
9.35351	0.363
9.3947	0.421
9.4359	0.315
9.47709	0.308
9.51829	0.573
9.55948	0.666
9.60068	0.712
9.64187	0.734
9.68307	0.746
9.72426	0.755
9.76546	0.753
9.80665	0.739
9.84785	0.722
9.88904	0.722
9.93024	0.756
9.97143	0.78
10.0126	0.796
10.0538	0.804
10.095	0.811
10.1362	0.815
10.1774	0.815
10.2186	0.815
10.2598	0.811
10.301	0.809
10.3422	0.806
10.3834	0.808
10.4246	0.809
10.4658	0.799
10.507	0.775
10.5482	0.722
10.5894	0.631
10.6306	0.568
10.6717	0.643
10.7129	0.72
10.7541	0.763
10.7953	0.78
10.8365	0.785
10.8777	0.784
10.9189	0.738
10.9601	0.633
11.0013	0.58
11.0425	0.621
11.0837	0.707
11.1249	0.758
11.1661	0.775
11.2073	0.779
11.2485	0.779
11.2897	0.768
11.3309	0.75
11.3721	0.727
11.4133	0.696
11.4544	0.666
11.4956	0.592
11.5368	0.441
11.578	0.263
11.6192	0.289
11.6604	0.457
11.7016	0.534
11.7428	0.558
11.784	0.537
11.8252	0.412
11.8664	0.284
11.9076	0.308
11.9488	0.496
11.99	0.614
12.0312	0.676
12.0724	0.702
12.1136	0.707
12.1548	0.681
12.196	0.607
12.2372	0.438
12.2783	0.321
12.3195	0.361
12.3607	0.553
12.4019	0.672
12.4431	0.729
12.4843	0.75
12.5255	0.753
12.5667	0.751
12.6079	0.726
12.6491	0.686
12.6903	0.664
12.7315	0.66
12.7727	0.671
12.8139	0.695
12.8551	0.722
12.8963	0.743
12.9375	0.755
12.9787	0.765
13.0199	0.765
13.0611	0.763
13.1022	0.76
13.1434	0.753
13.1846	0.743
13.2258	0.71
13.267	0.667
13.3082	0.594
13.3494	0.479
13.3906	0.347
13.4318	0.212
13.473	0.21
13.5142	0.371
13.5554	0.541
13.5966	0.619
13.6378	0.657
13.679	0.667
13.7202	0.667
13.7614	0.654
13.8026	0.604
13.8438	0.532
13.885	0.426
13.9261	0.381
13.9673	0.436
14.0085	0.53
14.0497	0.623
14.0909	0.648
14.1321	0.664
14.1733	0.669
14.2145	0.669
14.2557	0.667
14.2969	0.664
14.3381	0.662
14.3793	0.659
14.4205	0.652
14.4617	0.647
14.5029	0.636
14.5441	0.633
14.5853	0.626
14.6265	0.614
14.6677	0.604
14.7089	0.597
14.75	0.594
14.7912	0.583
14.8324	0.57
14.8736	0.554
14.9148	0.537
14.956	0.506
14.9972	0.484
15.0384	0.474
15.0796	0.467
15.1208	0.467
15.162	0.469
15.2032	0.467
15.2444	0.462
15.2856	0.458
15.3268	0.445
15.368	0.438
15.4092	0.426
15.4504	0.419
15.4916	0.41
15.5328	0.409
15.5739	0.405
15.6151	0.402
15.6563	0.4
15.6975	0.398
15.7387	0.397
15.7799	0.397
15.8211	0.397
15.8623	0.397
15.9035	0.393
15.9447	0.388
