Infrared Spectrum: 2-(N,N-DI-n-BUTYL AMINO)-3-(5-NONYL) PYRAZINE
Formula: C21 H39 N3
CAS: 116402-95-0
State: LIQUID
Class: COBLENTZ
Instrument: Not specified, most likely a prism, grating, or hybrid spectrometer.
Sampling: TRANSMISSION
Path length: 0.0015 CM
Resolution: 4
Origin: WYANDOTTE CHEMICALS CORP., WYANDOTTE, MICHIGAN, USA
MICROMETERS	TRANSMITTANCE
2.033	0.941
2.07279	0.941
2.11258	0.945
2.15237	0.926
2.19217	0.887
2.23196	0.88
2.27175	0.893
2.31154	0.893
2.35133	0.898
2.39112	0.913
2.43092	0.926
2.47071	0.931
2.5105	0.936
2.55029	0.94
2.59008	0.935
2.62987	0.943
2.66966	0.946
2.70946	0.941
2.74925	0.935
2.78904	0.93
2.82883	0.916
2.86862	0.91
2.90841	0.906
2.94821	0.895
2.988	0.892
3.02779	0.888
3.06758	0.883
3.10737	0.86
3.14716	0.847
3.18696	0.82
3.22675	0.737
3.26654	0.509
3.30633	0.393
3.34612	0.053
3.38591	0.064
3.4257	0.094
3.4655	0.084
3.50529	0.375
3.54508	0.599
3.58487	0.722
3.62466	0.764
3.66445	0.764
3.70425	0.789
3.74404	0.81
3.78383	0.828
3.82362	0.835
3.86341	0.853
3.9032	0.867
3.94299	0.873
3.98279	0.882
4.02258	0.883
4.06237	0.883
4.10216	0.88
4.14195	0.875
4.18174	0.87
4.22154	0.863
4.26133	0.87
4.30112	0.877
4.34091	0.883
4.3807	0.888
4.42049	0.888
4.46028	0.89
4.50008	0.901
4.53987	0.903
4.57966	0.906
4.61945	0.913
4.65924	0.905
4.69903	0.91
4.73883	0.911
4.77862	0.911
4.81841	0.92
4.8582	0.92
4.89799	0.915
4.93778	0.913
4.97758	0.918
5.01737	0.92
5.05716	0.921
5.09695	0.928
5.13674	0.923
5.17653	0.928
5.21632	0.92
5.25612	0.913
5.29591	0.905
5.3357	0.911
5.37549	0.921
5.41528	0.921
5.45507	0.921
5.49487	0.916
5.53466	0.915
5.57445	0.905
5.61424	0.893
5.65403	0.888
5.69382	0.887
5.73361	0.875
5.77341	0.857
5.8132	0.842
5.85299	0.833
5.89278	0.83
5.93257	0.827
5.97236	0.83
6.01216	0.827
6.05195	0.815
6.09174	0.792
6.13153	0.78
6.17132	0.754
6.21111	0.697
6.2509	0.546
6.2907	0.182
6.33049	0.325
6.37028	0.465
6.41007	0.533
6.44986	0.34
6.48965	0.076
6.52945	0.162
6.56924	0.397
6.60903	0.485
6.64882	0.272
6.68861	0.224
6.7284	0.274
6.7682	0.069
6.80799	0.089
6.84778	0.129
6.88757	0.179
6.92736	0.152
6.96715	0.137
7.00694	0.152
7.04674	0.101
7.08653	0.186
7.12632	0.3
7.16611	0.33
7.2059	0.142
7.24569	0.091
7.28549	0.149
7.32528	0.24
7.36507	0.292
7.40486	0.342
7.44465	0.405
7.48444	0.476
7.52423	0.509
7.56403	0.456
7.60382	0.375
7.64361	0.347
7.6834	0.34
7.72319	0.325
7.76298	0.353
7.80278	0.426
7.84257	0.488
7.88236	0.465
7.92215	0.39
7.96194	0.382
8.00173	0.438
8.04152	0.45
8.08132	0.357
8.12111	0.322
8.1609	0.318
8.20069	0.29
8.24048	0.303
8.28027	0.41
8.32007	0.45
8.35986	0.35
8.39965	0.287
8.43944	0.299
8.47923	0.352
8.51902	0.383
8.55882	0.338
8.59861	0.303
8.6384	0.3
8.67819	0.282
8.71798	0.166
8.75777	0.156
8.79756	0.265
8.83736	0.423
8.87715	0.443
8.91694	0.348
8.95673	0.274
8.99652	0.3
9.03631	0.348
9.07611	0.358
9.1159	0.388
9.15569	0.397
9.19548	0.443
9.23527	0.498
9.27506	0.576
9.31485	0.632
9.35465	0.644
9.39444	0.651
9.43423	0.647
9.47402	0.659
9.51381	0.674
9.5536	0.699
9.5934	0.724
9.63319	0.75
9.67298	0.76
9.71277	0.764
9.75256	0.752
9.79235	0.749
9.83214	0.749
9.87194	0.755
9.91173	0.742
9.95152	0.682
9.99131	0.578
10.0311	0.509
10.0709	0.619
10.1107	0.694
10.1505	0.72
10.1903	0.724
10.2301	0.724
10.2699	0.732
10.3096	0.732
10.3494	0.729
10.3892	0.722
10.429	0.729
10.4688	0.724
10.5086	0.709
10.5484	0.681
10.5882	0.651
10.628	0.636
10.6678	0.637
10.7076	0.654
10.7474	0.649
10.7871	0.609
10.8269	0.569
10.8667	0.612
10.9065	0.694
10.9463	0.735
10.9861	0.737
11.0259	0.732
11.0657	0.71
11.1055	0.677
11.1453	0.689
11.1851	0.714
11.2248	0.747
11.2646	0.76
11.3044	0.77
11.3442	0.77
11.384	0.774
11.4238	0.777
11.4636	0.789
11.5034	0.795
11.5432	0.802
11.583	0.789
11.6228	0.76
11.6626	0.73
11.7023	0.671
11.7421	0.614
11.7819	0.541
11.8217	0.475
11.8615	0.438
11.9013	0.443
11.9411	0.488
11.9809	0.541
12.0207	0.584
12.0605	0.621
12.1003	0.672
12.1401	0.725
12.1798	0.76
12.2196	0.78
12.2594	0.8
12.2992	0.812
12.339	0.822
12.3788	0.83
12.4186	0.837
12.4584	0.84
12.4982	0.828
12.538	0.825
12.5778	0.817
12.6176	0.813
12.6573	0.807
12.6971	0.808
12.7369	0.81
12.7767	0.807
12.8165	0.802
12.8563	0.8
12.8961	0.8
12.9359	0.817
12.9757	0.82
13.0155	0.832
13.0553	0.823
13.0951	0.81
13.1348	0.782
13.1746	0.76
13.2144	0.735
13.2542	0.719
13.294	0.697
13.3338	0.687
13.3736	0.671
13.4134	0.659
13.4532	0.651
13.493	0.651
13.5328	0.661
13.5726	0.659
13.6123	0.644
13.6521	0.631
13.6919	0.609
13.7317	0.611
13.7715	0.629
13.8113	0.697
13.8511	0.75
13.8909	0.784
13.9307	0.802
13.9705	0.822
14.0103	0.832
14.05	0.832
14.0898	0.835
14.1296	0.84
14.1694	0.84
14.2092	0.843
14.249	0.85
14.2888	0.85
14.3286	0.852
14.3684	0.855
14.4082	0.857
14.448	0.862
14.4878	0.863
14.5275	0.863
14.5673	0.863
14.6071	0.87
14.6469	0.87
14.6867	0.873
14.7265	0.875
14.7663	0.875
14.8061	0.873
14.8459	0.872
14.8857	0.863
14.9255	0.87
14.9653	0.858
15.005	0.85
15.0448	0.82
15.0846	0.772
15.1244	0.759
15.1642	0.774
15.204	0.789
15.2438	0.813
15.2836	0.823
15.3234	0.823
15.3632	0.817
15.403	0.817
15.4428	0.817
15.4825	0.812
15.5223	0.812
15.5621	0.817
15.6019	0.807
15.6417	0.803
15.6815	0.8
15.7213	0.792
15.7611	0.784
15.8009	0.78
15.8407	0.774
15.8805	0.767
15.9203	0.762
15.96	0.754
15.9998	0.747
