Infrared Spectrum: INDENO[1,2-C]PYRAZOL-4-ONE, 7-CHLORO-3-PROPYL-, HYDRAZONE
Formula: C13 H13 Cl N4
CAS: 116434-72-1
State: SOLID (KBr DISC)
Class: COBLENTZ III
Instrument: PERKIN-ELMER 21 (GRATING)
Instrument parameters: NaCl PRISM
Sampling: TRANSMISSION
Resolution: 2
Origin: SMITH KLINE & FRENCH LABS.
MICROMETERS	TRANSMITTANCE
2.009	0.38
2.04319	0.379
2.07737	0.37
2.11156	0.368
2.14575	0.374
2.17994	0.374
2.21412	0.379
2.24831	0.381
2.2825	0.391
2.31669	0.402
2.35087	0.408
2.38506	0.415
2.41925	0.415
2.45343	0.412
2.48762	0.435
2.52181	0.451
2.556	0.469
2.59018	0.479
2.62437	0.481
2.65856	0.482
2.69275	0.5
2.72693	0.518
2.76112	0.529
2.79531	0.513
2.82949	0.498
2.86368	0.478
2.89787	0.45
2.93206	0.421
2.96624	0.251
3.00043	0.258
3.03462	0.257
3.0688	0.251
3.10299	0.202
3.13718	0.13
3.17137	0.117
3.20555	0.117
3.23974	0.119
3.27393	0.128
3.30812	0.156
3.3423	0.16
3.37649	0.153
3.41068	0.15
3.44486	0.15
3.47905	0.15
3.51324	0.152
3.54743	0.23
3.58161	0.259
3.6158	0.282
3.64999	0.287
3.68418	0.319
3.71836	0.359
3.75255	0.392
3.78674	0.448
3.82092	0.462
3.85511	0.47
3.8893	0.487
3.92349	0.491
3.95767	0.509
3.99186	0.52
4.02605	0.532
4.06024	0.552
4.09442	0.56
4.12861	0.571
4.1628	0.578
4.19698	0.581
4.23117	0.59
4.26536	0.6
4.29955	0.602
4.33373	0.609
4.36792	0.619
4.40211	0.621
4.4363	0.623
4.47048	0.63
4.50467	0.634
4.53886	0.642
4.57304	0.651
4.60723	0.65
4.64142	0.653
4.67561	0.662
4.70979	0.671
4.74398	0.673
4.77817	0.681
4.81236	0.675
4.84654	0.687
4.88073	0.69
4.91492	0.697
4.9491	0.702
4.98329	0.707
5.01748	0.708
5.05167	0.714
5.08585	0.72
5.12004	0.723
5.15423	0.726
5.18841	0.729
5.2226	0.729
5.25679	0.726
5.29098	0.704
5.32516	0.712
5.35935	0.73
5.39354	0.737
5.42773	0.743
5.46191	0.742
5.4961	0.745
5.53029	0.747
5.56447	0.742
5.59866	0.742
5.63285	0.734
5.66704	0.714
5.70122	0.723
5.73541	0.729
5.7696	0.72
5.80379	0.715
5.83797	0.731
5.87216	0.731
5.90635	0.732
5.94053	0.73
5.97472	0.72
6.00891	0.674
6.0431	0.65
6.07728	0.563
6.11147	0.54
6.14566	0.323
6.17985	0.243
6.21403	0.412
6.24822	0.381
6.28241	0.29
6.31659	0.259
6.35078	0.28
6.38497	0.486
6.41916	0.61
6.45334	0.662
6.48753	0.69
6.52172	0.721
6.55591	0.659
6.59009	0.347
6.62428	0.267
6.65847	0.452
6.69265	0.582
6.72684	0.501
6.76103	0.35
6.79522	0.33
6.8294	0.18
6.86359	0.119
6.89778	0.224
6.93197	0.23
6.96615	0.33
7.00034	0.391
7.03453	0.464
7.06871	0.535
7.1029	0.568
7.13709	0.543
7.17128	0.535
7.20546	0.454
7.23965	0.53
7.27384	0.373
7.30802	0.282
7.34221	0.432
7.3764	0.569
7.41059	0.642
7.44477	0.662
7.47896	0.67
7.51315	0.6
7.54734	0.414
7.58152	0.389
7.61571	0.463
7.6499	0.569
7.68408	0.584
7.71827	0.5
7.75246	0.431
7.78665	0.497
7.82083	0.469
7.85502	0.431
7.88921	0.451
7.9234	0.523
7.95758	0.578
7.99177	0.541
8.02596	0.504
8.06014	0.608
8.09433	0.659
8.12852	0.682
8.16271	0.701
8.19689	0.71
8.23108	0.704
8.26527	0.678
8.29946	0.657
8.33364	0.614
8.36783	0.541
8.40202	0.437
8.4362	0.354
8.47039	0.34
8.50458	0.42
8.53877	0.482
8.57295	0.559
8.60714	0.624
8.64133	0.669
8.67552	0.67
8.7097	0.57
8.74389	0.559
8.77808	0.617
8.81226	0.648
8.84645	0.589
8.88064	0.528
8.91483	0.587
8.94901	0.631
8.9832	0.658
9.01739	0.645
9.05157	0.582
9.08576	0.551
9.11995	0.441
9.15414	0.312
9.18832	0.404
9.22251	0.484
9.2567	0.424
9.29089	0.32
9.32507	0.292
9.35926	0.356
9.39345	0.385
9.42763	0.39
9.46182	0.376
9.49601	0.401
9.5302	0.49
9.56438	0.551
9.59857	0.591
9.63276	0.613
9.66695	0.642
9.70113	0.663
9.73532	0.679
9.76951	0.701
9.80369	0.712
9.83788	0.719
9.87207	0.739
9.90626	0.742
9.94044	0.757
9.97463	0.759
10.0088	0.72
10.043	0.557
10.0772	0.403
10.1114	0.479
10.1456	0.492
10.1798	0.4
10.2139	0.503
10.2481	0.58
10.2823	0.608
10.3165	0.624
10.3507	0.621
10.3849	0.612
10.4191	0.628
10.4533	0.658
10.4874	0.7
10.5216	0.72
10.5558	0.72
10.59	0.725
10.6242	0.723
10.6584	0.698
10.6926	0.609
10.7268	0.47
10.7609	0.37
10.7951	0.34
10.8293	0.369
10.8635	0.489
10.8977	0.571
10.9319	0.62
10.9661	0.651
11.0002	0.675
11.0344	0.692
11.0686	0.698
11.1028	0.7
11.137	0.697
11.1712	0.691
11.2054	0.668
11.2396	0.648
11.2737	0.589
11.3079	0.558
11.3421	0.501
11.3763	0.471
11.4105	0.539
11.4447	0.57
11.4789	0.584
11.5131	0.596
11.5472	0.589
11.5814	0.523
11.6156	0.45
11.6498	0.578
11.684	0.61
11.7182	0.613
11.7524	0.614
11.7866	0.606
11.8207	0.601
11.8549	0.591
11.8891	0.579
11.9233	0.578
11.9575	0.568
11.9917	0.543
12.0259	0.517
12.0601	0.506
12.0942	0.45
12.1284	0.359
12.1626	0.226
12.1968	0.203
12.231	0.24
12.2652	0.289
12.2994	0.351
12.3336	0.38
12.3677	0.41
12.4019	0.44
12.4361	0.442
12.4703	0.434
12.5045	0.439
12.5387	0.442
12.5729	0.441
12.607	0.432
12.6412	0.434
12.6754	0.439
12.7096	0.434
12.7438	0.43
12.778	0.429
12.8122	0.43
12.8464	0.432
12.8805	0.42
12.9147	0.39
12.9489	0.318
12.9831	0.237
13.0173	0.236
13.0515	0.254
13.0857	0.25
13.1199	0.22
13.154	0.243
13.1882	0.279
13.2224	0.302
13.2566	0.306
13.2908	0.309
13.325	0.307
13.3592	0.303
13.3934	0.29
13.4275	0.339
13.4617	0.352
13.4959	0.363
13.5301	0.37
13.5643	0.379
13.5985	0.386
13.6327	0.389
13.6669	0.398
13.701	0.4
13.7352	0.407
13.7694	0.408
13.8036	0.413
13.8378	0.42
13.872	0.431
13.9062	0.439
13.9404	0.446
13.9745	0.447
14.0087	0.439
14.0429	0.443
14.0771	0.44
14.1113	0.436
14.1455	0.436
14.1797	0.44
14.2139	0.439
14.248	0.441
14.2822	0.441
14.3164	0.443
14.3506	0.46
14.3848	0.463
14.419	0.473
14.4532	0.478
14.4873	0.481
14.5215	0.482
14.5557	0.482
14.5899	0.493
14.6241	0.491
14.6583	0.491
14.6925	0.495
14.7267	0.497
14.7608	0.491
14.795	0.485
14.8292	0.482
14.8634	0.498
14.8976	0.506
14.9318	0.513
14.966	0.515
15.0002	0.521
15.0343	0.524
15.0685	0.524
