Infrared Spectrum: Alpha,Alpha-DIFLUOROPHENACYL PYRAZINE
Formula: C12 H8 F2 N2 O
CAS: 116403-02-2
State: SOLID (MINERAL OIL MULL)
Melting point: 61-62 C
Class: COBLENTZ
Instrument: Not specified, most likely a prism, grating, or hybrid spectrometer.
Sampling: TRANSMISSION
Resolution: 4
Origin: WYANDOTTE CHEMICALS CORP., WYANDOTTE, MICHIGAN, USA
MICROMETERS	TRANSMITTANCE
2.086	0.509
2.12575	0.511
2.16551	0.513
2.20526	0.516
2.24502	0.521
2.28477	0.531
2.32453	0.538
2.36428	0.543
2.40404	0.559
2.44379	0.564
2.48354	0.571
2.5233	0.581
2.56305	0.589
2.60281	0.591
2.64256	0.598
2.68232	0.599
2.72207	0.602
2.76183	0.602
2.80158	0.596
2.84133	0.588
2.88109	0.584
2.92084	0.578
2.9606	0.559
3.00035	0.574
3.04011	0.553
3.07986	0.533
3.11962	0.556
3.15937	0.558
3.19912	0.526
3.23888	0.446
3.27863	0.461
3.31839	0.244
3.35814	0.038
3.3979	0.041
3.43765	0.093
3.4774	0.088
3.51716	0.383
3.55691	0.707
3.59667	0.76
3.63642	0.769
3.67618	0.759
3.71593	0.777
3.75569	0.774
3.79544	0.784
3.83519	0.795
3.87495	0.803
3.9147	0.818
3.95446	0.823
3.99421	0.83
4.03397	0.837
4.07372	0.842
4.11348	0.84
4.15323	0.835
4.19298	0.833
4.23274	0.82
4.27249	0.817
4.31225	0.832
4.352	0.863
4.39176	0.885
4.43151	0.872
4.47127	0.875
4.51102	0.873
4.55077	0.883
4.59053	0.887
4.63028	0.888
4.67004	0.895
4.70979	0.901
4.74955	0.908
4.7893	0.91
4.82906	0.916
4.86881	0.921
4.90856	0.928
4.94832	0.928
4.98807	0.926
5.02783	0.921
5.06758	0.901
5.10734	0.865
5.14709	0.92
5.18685	0.915
5.2266	0.905
5.26635	0.882
5.30611	0.92
5.34586	0.936
5.38562	0.936
5.42537	0.92
5.46513	0.933
5.50488	0.901
5.54463	0.903
5.58439	0.938
5.62414	0.92
5.6639	0.92
5.70365	0.915
5.74341	0.877
5.78316	0.568
5.82292	0.044
5.86267	0.151
5.90242	0.526
5.94218	0.616
5.98193	0.667
6.02169	0.735
6.06144	0.79
6.1012	0.8
6.14095	0.782
6.18071	0.563
6.22046	0.365
6.26021	0.569
6.29997	0.626
6.33972	0.78
6.37948	0.828
6.41923	0.797
6.45899	0.789
6.49874	0.73
6.5385	0.521
6.57825	0.564
6.618	0.649
6.65776	0.601
6.69751	0.682
6.73727	0.49
6.77702	0.247
6.81678	0.222
6.85653	0.098
6.89629	0.214
6.93604	0.458
6.97579	0.654
7.01555	0.697
7.0553	0.32
7.09506	0.325
7.13481	0.455
7.17457	0.455
7.21432	0.38
7.25408	0.328
7.29383	0.549
7.33358	0.631
7.37334	0.682
7.41309	0.699
7.45285	0.702
7.4926	0.707
7.53236	0.626
7.57211	0.596
7.61186	0.44
7.65162	0.415
7.69137	0.423
7.73113	0.176
7.77088	0.101
7.81064	0.21
7.85039	0.27
7.89015	0.403
7.9299	0.559
7.96965	0.647
8.00941	0.659
8.04916	0.639
8.08892	0.661
8.12867	0.704
8.16843	0.774
8.20818	0.792
8.24794	0.789
8.28769	0.714
8.32744	0.686
8.3672	0.561
8.40695	0.455
8.44671	0.498
8.48646	0.456
8.52622	0.33
8.56597	0.292
8.60573	0.345
8.64548	0.41
8.68523	0.352
8.72499	0.114
8.76474	0.069
8.8045	0.181
8.84425	0.328
8.88401	0.337
8.92376	0.149
8.96352	0.049
9.00327	0.044
9.04302	0.098
9.08278	0.249
9.12253	0.416
9.16229	0.48
9.20204	0.45
9.2418	0.37
9.28155	0.385
9.32131	0.42
9.36106	0.461
9.40081	0.315
9.44057	0.121
9.48032	0.313
9.52008	0.581
9.55983	0.705
9.59959	0.749
9.63934	0.75
9.6791	0.659
9.71885	0.594
9.7586	0.483
9.79836	0.059
9.83811	0.054
9.87787	0.192
9.91762	0.425
9.95738	0.533
9.99713	0.478
10.0369	0.654
10.0766	0.705
10.1164	0.691
10.1561	0.719
10.1959	0.657
10.2357	0.609
10.2754	0.561
10.3152	0.629
10.3549	0.712
10.3947	0.739
10.4344	0.749
10.4742	0.757
10.5139	0.774
10.5537	0.794
10.5934	0.808
10.6332	0.802
10.673	0.784
10.7127	0.745
10.7525	0.669
10.7922	0.74
10.832	0.777
10.8717	0.74
10.9115	0.629
10.9512	0.448
10.991	0.144
11.0307	0.049
11.0705	0.134
11.1103	0.353
11.15	0.534
11.1898	0.634
11.2295	0.714
11.2693	0.767
11.309	0.787
11.3488	0.769
11.3885	0.749
11.4283	0.719
11.468	0.71
11.5078	0.503
11.5476	0.237
11.5873	0.184
11.6271	0.239
11.6668	0.544
11.7066	0.671
11.7463	0.686
11.7861	0.631
11.8258	0.612
11.8656	0.662
11.9053	0.73
11.9451	0.792
11.9849	0.818
12.0246	0.838
12.0644	0.838
12.1041	0.838
12.1439	0.862
12.1836	0.878
12.2234	0.888
12.2631	0.887
12.3029	0.89
12.3426	0.887
12.3824	0.86
12.4222	0.853
12.4619	0.868
12.5017	0.863
12.5414	0.81
12.5812	0.604
12.6209	0.495
12.6607	0.712
12.7004	0.815
12.7402	0.852
12.7799	0.865
12.8197	0.863
12.8594	0.827
12.8992	0.752
12.939	0.654
12.9787	0.508
13.0185	0.406
13.0582	0.548
13.098	0.676
13.1377	0.747
13.1775	0.789
13.2172	0.792
13.257	0.777
13.2967	0.735
13.3365	0.642
13.3763	0.561
13.416	0.561
13.4558	0.622
13.4955	0.696
13.5353	0.732
13.575	0.749
13.6148	0.757
13.6545	0.755
13.6943	0.749
13.734	0.737
13.7738	0.709
13.8136	0.664
13.8533	0.602
13.8931	0.509
13.9328	0.393
13.9726	0.247
14.0123	0.114
14.0521	0.089
14.0918	0.127
14.1316	0.205
14.1713	0.353
14.2111	0.485
14.2509	0.598
14.2906	0.657
14.3304	0.697
14.3701	0.72
14.4099	0.729
14.4496	0.709
14.4894	0.662
14.5291	0.588
14.5689	0.508
14.6086	0.44
14.6484	0.342
14.6882	0.26
14.7279	0.252
14.7677	0.325
14.8074	0.413
14.8472	0.498
14.8869	0.528
14.9267	0.526
14.9664	0.49
15.0062	0.448
15.0459	0.416
15.0857	0.413
15.1255	0.433
15.1652	0.495
15.205	0.579
15.2447	0.639
15.2845	0.677
15.3242	0.702
15.364	0.71
15.4037	0.717
15.4435	0.719
15.4832	0.715
15.523	0.715
15.5627	0.715
15.6025	0.71
15.6423	0.702
15.682	0.7
15.7218	0.697
15.7615	0.691
15.8013	0.684
15.841	0.679
15.8808	0.672
15.9205	0.661
15.9603	0.649
16	0.642
