Infrared Spectrum: Succinic acid, 2-[4(5)-nitroimidazol-5(4)-carboxamido]-
Formula: C8 H8 N4 O7
CAS: 116401-56-0
State: SOLID (0.9 mg / 650 mg KBr DISC)
Class: COBLENTZ III
Instrument: PERKIN-ELMER 21 (GRATING)
Instrument parameters: FILTER CHANGE ABOUT 1070 CM^-^1
Resolution: 2
Origin: SOUTHERN RESEARCH INSTITUTE
1/CM	TRANSMITTANCE
608	0.5473
617	0.4809
626	0.4337
635	0.4445
644	0.6566
653	0.7428
662	0.7446
671	0.7299
680	0.7048
689	0.6737
698	0.6245
707	0.5687
716	0.66
725	0.6535
734	0.6151
743	0.5676
752	0.5264
761	0.4798
770	0.4343
779	0.4341
788	0.3272
797	0.2457
806	0.2872
815	0.3916
824	0.532
833	0.5386
842	0.5919
851	0.5905
860	0.5711
869	0.5422
878	0.4441
887	0.4884
896	0.6302
905	0.7215
914	0.7581
923	0.7135
932	0.6579
941	0.6066
950	0.414
959	0.7118
968	0.7754
977	0.7721
986	0.7603
995	0.7406
1004	0.6946
1013	0.6921
1022	0.7298
1031	0.7109
1040	0.7257
1049	0.7327
1058	0.733
1067	0.7424
1076	0.6427
1085	0.571
1094	0.625
1103	0.5345
1112	0.3767
1121	0.6254
1130	0.6087
1139	0.5328
1148	0.2829
1157	0.3606
1166	0.46
1175	0.3865
1184	0.2211
1193	0.1911
1202	0.2917
1211	0.4531
1220	0.4494
1229	0.3641
1238	0.1811
1247	0.2919
1256	0.3862
1265	0.3974
1274	0.2844
1283	0.1649
1292	0.2687
1301	0.4295
1310	0.3875
1319	0.1981
1328	0.1781
1337	0.2778
1346	0.3868
1355	0.3385
1364	0.1639
1373	0.1715
1382	0.4605
1391	0.45
1400	0.3927
1409	0.3204
1418	0.2024
1427	0.2287
1436	0.1772
1445	0.1938
1454	0.4919
1463	0.4811
1472	0.3623
1481	0.1624
1490	0.4478
1499	0.3522
1508	0.191
1517	0.0819
1526	0.082
1535	0.2019
1544	0.4462
1553	0.5687
1562	0.5034
1571	0.3009
1580	0.3463
1589	0.4478
1598	0.4294
1607	0.339
1616	0.2218
1625	0.0599
1634	0.1103
1643	0.1402
1652	0.0955
1661	0.0995
1670	0.1587
1679	0.2614
1688	0.414
1697	0.4372
1706	0.4375
1715	0.4285
1724	0.3677
1733	0.2385
1742	0.1122
1751	0.1247
1760	0.5395
1769	0.6156
1778	0.6763
1787	0.7089
1796	0.7418
1805	0.7549
1814	0.763
1823	0.7662
1832	0.7684
1841	0.7753
1850	0.7841
1859	0.7883
1868	0.7921
1877	0.7943
1886	0.7961
1895	0.7966
1904	0.7964
1913	0.7963
1922	0.7959
1931	0.7948
1940	0.7932
1949	0.7942
1958	0.7934
1967	0.7925
1976	0.7912
1985	0.7898
1994	0.7881
2003	0.7863
2012	0.7845
2021	0.7827
2030	0.7809
2039	0.7791
2048	0.7773
2057	0.7757
2066	0.7741
2075	0.7727
2084	0.7715
2093	0.7703
2102	0.7688
2111	0.7667
2120	0.7639
2129	0.7611
2138	0.7579
2147	0.7546
2156	0.7506
2165	0.7463
2174	0.7426
2183	0.7394
2192	0.7359
2201	0.7323
2210	0.7288
2219	0.7251
2228	0.7207
2237	0.7163
2246	0.7118
2255	0.7067
2264	0.7017
2273	0.6971
2282	0.6917
2291	0.6847
2300	0.6776
2309	0.6741
2318	0.6704
2327	0.6616
2336	0.6512
2345	0.6456
2354	0.641
2363	0.6346
2372	0.6284
2381	0.6231
2390	0.6154
2399	0.6062
2408	0.5975
2417	0.5893
2426	0.5821
2435	0.5758
2444	0.571
2453	0.5677
2462	0.5654
2471	0.5643
2480	0.5639
2489	0.5636
2498	0.5632
2507	0.5628
2516	0.5628
2525	0.5634
2534	0.563
2543	0.5661
2552	0.5715
2561	0.5712
2570	0.5707
2579	0.5711
2588	0.5713
2597	0.5727
2606	0.5733
2615	0.5732
2624	0.5729
2633	0.5721
2642	0.5704
2651	0.5665
2660	0.5609
2669	0.5541
2678	0.544
2687	0.5358
2696	0.5316
2705	0.5266
2714	0.5192
2723	0.5152
2732	0.5099
2741	0.5031
2750	0.4877
2759	0.473
2768	0.46
2777	0.4467
2786	0.4349
2795	0.4243
2804	0.4149
2813	0.4069
2822	0.4038
2831	0.4051
2840	0.4062
2849	0.4067
2858	0.4018
2867	0.3938
2876	0.3865
2885	0.3775
2894	0.3679
2903	0.3583
2912	0.3484
2921	0.3396
2930	0.3363
2939	0.3347
2948	0.3307
2957	0.3151
2966	0.3053
2975	0.2961
2984	0.2908
2993	0.2869
3002	0.2843
3011	0.2811
3020	0.2755
3029	0.2667
3038	0.2582
3047	0.2499
3056	0.2397
3065	0.2296
3074	0.2195
3083	0.2071
3092	0.1927
3101	0.1753
3110	0.1539
3119	0.127
3128	0.1077
3137	0.112
3146	0.1219
3155	0.1333
3164	0.1578
3173	0.2061
3182	0.2372
3191	0.2745
3200	0.3138
3209	0.3405
3218	0.3658
3227	0.3802
3236	0.3936
3245	0.3984
3254	0.3944
3263	0.3747
3272	0.3418
3281	0.305
3290	0.2781
3299	0.2985
3308	0.3503
3317	0.4307
3326	0.4688
3335	0.5003
3344	0.5092
3353	0.5119
3362	0.5205
3371	0.5252
3380	0.5275
3389	0.5306
3398	0.5348
3407	0.5426
3416	0.5529
3425	0.5636
3434	0.575
3443	0.5855
3452	0.592
3461	0.6007
3470	0.6175
3479	0.6345
3488	0.6508
3497	0.6665
3506	0.6815
3515	0.6958
3524	0.7095
3533	0.724
3542	0.739
3551	0.7537
3560	0.7683
3569	0.7822
3578	0.7941
3587	0.8073
3596	0.82
3605	0.8318
3614	0.8421
3623	0.8486
3632	0.8543
3641	0.8583
3650	0.8607
3659	0.8623
3668	0.8632
3677	0.8649
3686	0.8685
3695	0.8712
3704	0.8706
3713	0.8699
3722	0.8701
3731	0.871
3740	0.872
3749	0.873
3758	0.8731
3767	0.8732
3776	0.8735
3785	0.8739
3794	0.8735
3803	0.8732
3812	0.872
3821	0.8702
3830	0.8683
3839	0.8662
3848	0.8634
3857	0.8606
3866	0.8578
3875	0.8555
3884	0.8557
3893	0.8567
