Infrared Spectrum: 1,2,4-TRICHLORO-3-IODOBUTANE
Formula: C4 H6 Cl3 I
CAS: 116401-08-2
State: SOLUTION (10% IN CCl4 FOR 5000-1330, 10% IN CS2 FOR 1330-625 CM^-^1)
Class: COBLENTZ
Instrument: Not specified, most likely a prism, grating, or hybrid spectrometer.
Sampling: TRANSMISSION
Path length: 0.01, 0.010 CM
Resolution: 4
Origin: DOW CHEMICAL COMPANY
MICROMETERS	TRANSMITTANCE
2.007	0.8
2.04717	0.8
2.08734	0.8
2.12751	0.803
2.16768	0.805
2.20786	0.808
2.24803	0.808
2.2882	0.81
2.32837	0.813
2.36854	0.813
2.40871	0.817
2.44888	0.822
2.48905	0.824
2.52922	0.825
2.5694	0.829
2.60957	0.834
2.64974	0.829
2.68991	0.834
2.73008	0.835
2.77025	0.834
2.81042	0.827
2.85059	0.805
2.89076	0.79
2.93094	0.769
2.97111	0.769
3.01128	0.78
3.05145	0.793
3.09162	0.802
3.13179	0.81
3.17196	0.825
3.21213	0.834
3.2523	0.834
3.29248	0.83
3.33265	0.817
3.37282	0.739
3.41299	0.805
3.45316	0.839
3.49333	0.83
3.5335	0.837
3.57367	0.854
3.61384	0.852
3.65402	0.856
3.69419	0.861
3.73436	0.859
3.77453	0.859
3.8147	0.866
3.85487	0.868
3.89504	0.869
3.93521	0.869
3.97538	0.869
4.01556	0.871
4.05573	0.871
4.0959	0.871
4.13607	0.873
4.17624	0.871
4.21641	0.869
4.25658	0.869
4.29675	0.869
4.33692	0.857
4.3771	0.857
4.41727	0.873
4.45744	0.876
4.49761	0.879
4.53778	0.884
4.57795	0.886
4.61812	0.891
4.65829	0.895
4.69846	0.895
4.73864	0.895
4.77881	0.893
4.81898	0.893
4.85915	0.891
4.89932	0.891
4.93949	0.891
4.97966	0.891
5.01983	0.891
5.06	0.891
5.10018	0.895
5.14035	0.896
5.18052	0.896
5.22069	0.896
5.26086	0.895
5.30103	0.893
5.3412	0.893
5.38137	0.891
5.42154	0.891
5.46172	0.893
5.50189	0.893
5.54206	0.895
5.58223	0.896
5.6224	0.896
5.66257	0.896
5.70274	0.896
5.74291	0.895
5.78308	0.893
5.82326	0.89
5.86343	0.883
5.9036	0.871
5.94377	0.868
5.98394	0.866
6.02411	0.861
6.06428	0.859
6.10445	0.851
6.14462	0.84
6.1848	0.808
6.22497	0.751
6.26514	0.654
6.30531	0.588
6.34548	0.561
6.38565	0.514
6.42582	0.441
6.46599	0.426
6.50616	0.514
6.54634	0.573
6.58651	0.62
6.62668	0.693
6.66685	0.754
6.70702	0.793
6.74719	0.813
6.78736	0.82
6.82753	0.82
6.8677	0.796
6.90788	0.719
6.94805	0.588
6.98822	0.384
7.02839	0.693
7.06856	0.796
7.10873	0.803
7.1489	0.82
7.18907	0.83
7.22924	0.832
7.26942	0.832
7.30959	0.832
7.34976	0.82
7.38993	0.776
7.4301	0.78
7.47027	0.8
7.51044	0.798
7.55061	0.774
7.59078	0.732
7.63096	0.697
7.67113	0.663
7.7113	0.487
7.75147	0.538
7.79164	0.678
7.83181	0.736
7.87198	0.752
7.91215	0.763
7.95232	0.756
7.9925	0.756
8.03267	0.759
8.07284	0.754
8.11301	0.741
8.15318	0.703
8.19335	0.725
8.23352	0.754
8.27369	0.719
8.31386	0.661
8.35404	0.705
8.39421	0.763
8.43438	0.747
8.47455	0.673
8.51472	0.708
8.55489	0.764
8.59506	0.78
8.63523	0.783
8.6754	0.785
8.71558	0.796
8.75575	0.802
8.79592	0.793
8.83609	0.729
8.87626	0.644
8.91643	0.632
8.9566	0.686
8.99677	0.737
9.03694	0.776
9.07712	0.793
9.11729	0.798
9.15746	0.793
9.19763	0.793
9.2378	0.793
9.27797	0.79
9.31814	0.795
9.35831	0.81
9.39848	0.812
9.43866	0.812
9.47883	0.813
9.519	0.815
9.55917	0.813
9.59934	0.813
9.63951	0.807
9.67968	0.802
9.71985	0.798
9.76002	0.796
9.8002	0.8
9.84037	0.802
9.88054	0.793
9.92071	0.758
9.96088	0.719
10.0011	0.722
10.0412	0.763
10.0814	0.79
10.1216	0.798
10.1617	0.802
10.2019	0.8
10.2421	0.795
10.2822	0.781
10.3224	0.774
10.3626	0.78
10.4028	0.786
10.4429	0.795
10.4831	0.802
10.5233	0.805
10.5634	0.803
10.6036	0.795
10.6438	0.781
10.684	0.766
10.7241	0.739
10.7643	0.737
10.8045	0.719
10.8446	0.592
10.8848	0.45
10.925	0.499
10.9652	0.656
11.0053	0.72
11.0455	0.737
11.0857	0.741
11.1258	0.741
11.166	0.739
11.2062	0.739
11.2464	0.732
11.2865	0.741
11.3267	0.736
11.3669	0.725
11.407	0.715
11.4472	0.698
11.4874	0.69
11.5276	0.671
11.5677	0.649
11.6079	0.637
11.6481	0.636
11.6882	0.634
11.7284	0.636
11.7686	0.654
11.8088	0.685
11.8489	0.707
11.8891	0.732
11.9293	0.752
11.9694	0.769
12.0096	0.776
12.0498	0.781
12.0899	0.785
12.1301	0.785
12.1703	0.786
12.2105	0.786
12.2506	0.778
12.2908	0.769
12.331	0.768
12.3711	0.769
12.4113	0.773
12.4515	0.773
12.4917	0.776
12.5318	0.776
12.572	0.771
12.6122	0.761
12.6523	0.758
12.6925	0.754
12.7327	0.747
12.7729	0.739
12.813	0.727
12.8532	0.702
12.8934	0.676
12.9335	0.659
12.9737	0.656
13.0139	0.653
13.0541	0.648
13.0942	0.644
13.1344	0.654
13.1746	0.676
13.2147	0.681
13.2549	0.681
13.2951	0.671
13.3353	0.664
13.3754	0.661
13.4156	0.656
13.4558	0.629
13.4959	0.578
13.5361	0.527
13.5763	0.499
13.6165	0.502
13.6566	0.516
13.6968	0.516
13.737	0.482
13.7771	0.45
13.8173	0.406
13.8575	0.363
13.8976	0.302
13.9378	0.275
13.978	0.302
14.0182	0.373
14.0583	0.45
14.0985	0.502
14.1387	0.534
14.1788	0.549
14.219	0.551
14.2592	0.548
14.2994	0.543
14.3395	0.539
14.3797	0.532
14.4199	0.531
14.46	0.527
14.5002	0.534
14.5404	0.541
14.5806	0.541
14.6207	0.543
14.6609	0.543
14.7011	0.541
14.7412	0.532
14.7814	0.527
14.8216	0.521
14.8618	0.516
14.9019	0.512
14.9421	0.504
14.9823	0.497
15.0224	0.47
15.0626	0.455
15.1028	0.441
15.143	0.429
15.1831	0.417
15.2233	0.399
15.2635	0.38
15.3036	0.363
15.3438	0.35
15.384	0.343
15.4242	0.34
15.4643	0.345
15.5045	0.35
15.5447	0.355
15.5848	0.362
15.625	0.365
15.6652	0.367
15.7053	0.368
15.7455	0.368
15.7857	0.368
15.8259	0.368
15.866	0.37
15.9062	0.375
