Infrared Spectrum: FORMAMIDE, N-(4-AMINO-2-CHLORO-5-PYRIMIDINYL)-
Formula: C5 H5 Cl N4 O
CAS: 116434-76-5
State: SOLID (1 mg / 650 mg KBr DISC)
Class: COBLENTZ III
Instrument: PERKIN-ELMER 21 (GRATING)
Instrument parameters: FILTER CHANGE AT ABOUT 1080 CM^-^1
Sampling: TRANSMISSION
Resolution: 2
Origin: SOUTHERN RESEARCH INSTITUTE
1/CM	TRANSMITTANCE
636.194	0.629
644.828	0.5914
653.463	0.5481
662.097	0.6213
670.731	0.6427
679.366	0.5614
688	0.4967
696.635	0.562
705.269	0.557
713.903	0.5514
722.538	0.5637
731.172	0.571
739.806	0.557
748.441	0.5208
757.075	0.5004
765.71	0.5948
774.344	0.7143
782.978	0.7828
791.613	0.8052
800.247	0.8154
808.881	0.821
817.516	0.8207
826.15	0.8119
834.785	0.8049
843.419	0.79
852.053	0.7435
860.688	0.652
869.322	0.5202
877.956	0.6902
886.591	0.8208
895.225	0.822
903.859	0.817
912.494	0.8081
921.128	0.7916
929.763	0.763
938.397	0.7219
947.031	0.6614
955.666	0.4486
964.3	0.4816
972.934	0.2793
981.569	0.7236
990.203	0.854
998.838	0.8403
1007.47	0.8193
1016.11	0.7874
1024.74	0.7849
1033.38	0.7629
1042.01	0.7419
1050.64	0.738
1059.28	0.7567
1067.91	0.758
1076.55	0.758
1085.18	0.7472
1093.82	0.733
1102.45	0.7133
1111.08	0.6943
1119.72	0.6721
1128.35	0.6295
1136.99	0.5648
1145.62	0.5642
1154.26	0.614
1162.89	0.6732
1171.52	0.639
1180.16	0.5626
1188.79	0.4299
1197.43	0.5144
1206.06	0.4546
1214.7	0.5783
1223.33	0.5342
1231.97	0.48
1240.6	0.2753
1249.23	0.173
1257.87	0.2154
1266.5	0.3173
1275.14	0.2581
1283.77	0.4071
1292.41	0.5521
1301.04	0.582
1309.67	0.5403
1318.31	0.4977
1326.94	0.4924
1335.58	0.5447
1344.21	0.5433
1352.85	0.479
1361.48	0.3888
1370.12	0.2712
1378.75	0.1664
1387.38	0.1185
1396.02	0.213
1404.65	0.3679
1413.29	0.5568
1421.92	0.5485
1430.56	0.5233
1439.19	0.4757
1447.82	0.4167
1456.46	0.375
1465.09	0.3279
1473.73	0.2368
1482.36	0.2648
1491	0.3312
1499.63	0.3081
1508.27	0.2586
1516.9	0.2105
1525.53	0.1077
1534.17	0.1275
1542.8	0.3004
1551.44	0.2658
1560.07	0.1511
1568.71	0.1584
1577.34	0.302
1585.97	0.1869
1594.61	0.1142
1603.24	0.318
1611.88	0.4125
1620.51	0.3181
1629.15	0.2109
1637.78	0.0885
1646.42	0.0289
1655.05	0.033
1663.68	0.0678
1672.32	0.1149
1680.95	0.2327
1689.59	0.3356
1698.22	0.4863
1706.86	0.5474
1715.49	0.5954
1724.12	0.6771
1732.76	0.7263
1741.39	0.7616
1750.03	0.7927
1758.66	0.8161
1767.3	0.8349
1775.93	0.8529
1784.57	0.8684
1793.2	0.881
1801.83	0.891
1810.47	0.8975
1819.1	0.9062
1827.74	0.911
1836.37	0.912
1845.01	0.917
1853.64	0.921
1862.27	0.921
1870.91	0.921
1879.54	0.9189
1888.18	0.917
1896.81	0.916
1905.45	0.915
1914.08	0.915
1922.72	0.913
1931.35	0.9113
1939.98	0.8981
1948.62	0.89
1957.25	0.891
1965.89	0.8985
1974.52	0.908
1983.16	0.91
1991.79	0.91
2000.42	0.91
2009.06	0.908
2017.69	0.9067
2026.33	0.902
2034.96	0.898
2043.6	0.895
2052.23	0.894
2060.87	0.894
2069.5	0.894
2078.13	0.894
2086.77	0.892
2095.4	0.891
2104.04	0.8917
2112.67	0.891
2121.31	0.89
2129.94	0.887
2138.57	0.885
2147.21	0.883
2155.84	0.8787
2164.48	0.8737
2173.11	0.8697
2181.75	0.868
2190.38	0.868
2199.02	0.863
2207.65	0.863
2216.28	0.862
2224.92	0.859
2233.55	0.858
2242.19	0.855
2250.82	0.854
2259.46	0.853
2268.09	0.85
2276.72	0.847
2285.36	0.842
2293.99	0.837
2302.63	0.833
2311.26	0.83
2319.9	0.827
2328.53	0.825
2337.17	0.826
2345.8	0.828
2354.43	0.83
2363.07	0.83
2371.7	0.828
2380.34	0.827
2388.97	0.824
2397.61	0.817
2406.24	0.8133
2414.87	0.81
2423.51	0.809
2432.14	0.809
2440.78	0.809
2449.41	0.8067
2458.05	0.8017
2466.68	0.796
2475.32	0.794
2483.95	0.789
2492.58	0.7847
2501.22	0.78
2509.85	0.777
2518.49	0.778
2527.12	0.778
2535.76	0.778
2544.39	0.777
2553.02	0.774
2561.66	0.7713
2570.29	0.766
2578.93	0.7587
2587.56	0.7507
2596.2	0.7407
2604.83	0.733
2613.46	0.7267
2622.1	0.7207
2630.73	0.7157
2639.37	0.7107
2648	0.702
2656.64	0.692
2665.27	0.6803
2673.91	0.6667
2682.54	0.661
2691.17	0.665
2699.81	0.668
2708.44	0.671
2717.08	0.671
2725.71	0.669
2734.35	0.6667
2742.98	0.6557
2751.61	0.6483
2760.25	0.6307
2768.88	0.6187
2777.52	0.6077
2786.15	0.5997
2794.79	0.5967
2803.42	0.5937
2812.06	0.5887
2820.69	0.5837
2829.32	0.5693
2837.96	0.5583
2846.59	0.547
2855.23	0.531
2863.86	0.515
2872.5	0.497
2881.13	0.4786
2889.76	0.4603
2898.4	0.4507
2907.03	0.4463
2915.67	0.442
2924.3	0.438
2932.94	0.4303
2941.57	0.421
2950.21	0.405
2958.84	0.3903
2967.47	0.3743
2976.11	0.3566
2984.74	0.317
2993.38	0.282
3002.01	0.25
3010.65	0.229
3019.28	0.2147
3027.91	0.209
3036.55	0.21
3045.18	0.213
3053.82	0.2107
3062.45	0.2057
3071.09	0.1987
3079.72	0.195
3088.36	0.193
3096.99	0.1983
3105.62	0.2053
3114.26	0.2143
3122.89	0.221
3131.53	0.224
3140.16	0.224
3148.8	0.2157
3157.43	0.2053
3166.06	0.1963
3174.7	0.1877
3183.33	0.175
3191.97	0.1623
3200.6	0.1567
3209.24	0.155
3217.87	0.1573
3226.51	0.1683
3235.14	0.2064
3243.77	0.2337
3252.41	0.2723
3261.04	0.2893
3269.68	0.2967
3278.31	0.2957
3286.95	0.288
3295.58	0.2787
3304.21	0.273
3312.85	0.272
3321.48	0.274
3330.12	0.2757
3338.75	0.277
3347.39	0.275
3356.02	0.2727
3364.66	0.2633
3373.29	0.2527
3381.92	0.252
3390.56	0.2791
3399.19	0.3301
3407.83	0.3908
3416.46	0.4527
3425.1	0.502
3433.73	0.5297
3442.36	0.5737
3451	0.601
3459.63	0.6267
3468.27	0.6443
3476.9	0.6553
3485.54	0.6603
3494.17	0.6854
3502.81	0.6973
3511.44	0.7047
3520.07	0.713
3528.71	0.7247
3537.34	0.7353
3545.98	0.74
3554.61	0.7463
3563.25	0.7573
3571.88	0.767
3580.51	0.777
3589.15	0.78
3597.78	0.7917
3606.42	0.7983
3615.05	0.803
3623.69	0.813
3632.32	0.8213
3640.96	0.8287
3649.59	0.832
3658.22	0.832
3666.86	0.832
3675.49	0.831
3684.13	0.83
3692.76	0.828
3701.4	0.83
3710.03	0.833
3718.66	0.832
3727.3	0.831
3735.93	0.8277
3744.57	0.823
3753.2	0.8217
3761.84	0.822
3770.47	0.822
3779.11	0.822
3787.74	0.822
3796.37	0.8217
3805.01	0.821
3813.64	0.82
3822.28	0.818
3830.91	0.817
3839.55	0.816
3848.18	0.815
3856.81	0.814
3865.45	0.812
3874.08	0.8107
3882.72	0.809
3891.35	0.809
3899.99	0.809
3908.62	0.807
3917.25	0.806
3925.89	0.805
3934.52	0.805
3943.16	0.804
3951.79	0.802
3960.43	0.802
3969.06	0.801
3977.7	0.8
3986.33	0.8
3994.96	0.799
4003.6	0.799
4012.23	0.799
