Infrared Spectrum: as-Triazine-6-carboxylic acid, 3-amino-5-hydroxy-
Formula: C4 H4 N4 O3
CAS: 116496-93-6
State: SOLID (1.0 mg / 650 mg FOR 3900-1100 AND 0.5 mg / 650 mg FOR 1100-400 CM^-^1, KBr DISC)
Class: COBLENTZ III
Instrument: PERKIN-ELMER 21 (GRATING)
Instrument parameters: FILTER CHANGE ABOUT 1090 CM^-^1
Resolution: 2
Origin: SOUTHERN RESEARCH INSTITUTE
1/CM	TRANSMITTANCE
603.869	0.4401
612.897	0.4139
621.925	0.431
630.953	0.5164
639.981	0.6585
649.009	0.6924
658.038	0.7313
667.066	0.7533
676.094	0.8205
685.122	0.8417
694.15	0.8484
703.178	0.8433
712.206	0.8353
721.234	0.8209
730.262	0.7996
739.29	0.7613
748.318	0.6583
757.347	0.7647
766.375	0.7464
775.403	0.7759
784.431	0.7783
793.459	0.7465
802.487	0.6662
811.515	0.5526
820.543	0.2384
829.571	0.7674
838.599	0.7714
847.627	0.7577
856.656	0.7199
865.684	0.657
874.712	0.6245
883.74	0.6445
892.768	0.6628
901.796	0.7188
910.824	0.7417
919.852	0.7514
928.88	0.7533
937.908	0.7519
946.936	0.7427
955.965	0.726
964.993	0.7055
974.021	0.6786
983.049	0.6502
992.077	0.6065
1001.11	0.5564
1010.13	0.5024
1019.16	0.4912
1028.19	0.5455
1037.22	0.6107
1046.25	0.641
1055.27	0.648
1064.3	0.6353
1073.33	0.5883
1082.36	0.3906
1091.39	0.596
1100.41	0.5326
1109.44	0.4851
1118.47	0.4637
1127.5	0.4455
1136.53	0.4246
1145.55	0.3304
1154.58	0.0813
1163.61	0.1147
1172.64	0.2952
1181.67	0.3706
1190.69	0.3914
1199.72	0.3944
1208.75	0.3891
1217.78	0.3771
1226.81	0.3627
1235.84	0.3474
1244.86	0.329
1253.89	0.3069
1262.92	0.2768
1271.95	0.2393
1280.98	0.1975
1290	0.1468
1299.03	0.0594
1308.06	0.0322
1317.09	0.0668
1326.12	0.2001
1335.14	0.3003
1344.17	0.3759
1353.2	0.3586
1362.23	0.3325
1371.26	0.2884
1380.28	0.2165
1389.31	0.177
1398.34	0.174
1407.37	0.1742
1416.4	0.1417
1425.43	0.1006
1434.45	0.0888
1443.48	0.091
1452.51	0.0659
1461.54	0.0304
1470.57	0.0386
1479.59	0.0417
1488.62	0.0422
1497.65	0.1099
1506.68	0.1264
1515.71	0.0607
1524.73	0.0213
1533.76	0.0254
1542.79	0.1121
1551.82	0.1365
1560.85	0.1418
1569.87	0.1378
1578.9	0.2105
1587.93	0.2842
1596.96	0.234
1605.99	0.1136
1615.02	0.0234
1624.04	0.0143
1633.07	0.0356
1642.1	0.128
1651.13	0.0904
1660.16	0.0421
1669.18	0.0166
1678.21	0.0106
1687.24	0.0129
1696.27	0.0247
1705.3	0.0258
1714.32	0.0574
1723.35	0.0704
1732.38	0.1211
1741.41	0.1459
1750.44	0.2061
1759.46	0.2476
1768.49	0.297
1777.52	0.3425
1786.55	0.3818
1795.58	0.3912
1804.61	0.3957
1813.63	0.3872
1822.66	0.375
1831.69	0.3661
1840.72	0.3573
1849.75	0.3487
1858.77	0.3411
1867.8	0.3367
1876.83	0.3377
1885.86	0.3408
1894.89	0.3476
1903.91	0.3602
1912.94	0.3702
1921.97	0.4008
1931	0.4205
1940.03	0.4431
1949.05	0.4666
1958.08	0.4877
1967.11	0.5073
1976.14	0.5261
1985.17	0.5401
1994.2	0.5564
2003.22	0.5709
2012.25	0.5728
2021.28	0.5835
2030.31	0.5906
2039.34	0.6036
2048.36	0.5997
2057.39	0.6232
2066.42	0.6305
2075.45	0.6321
2084.48	0.6325
2093.5	0.6282
2102.53	0.6199
2111.56	0.6186
2120.59	0.6247
2129.62	0.6193
2138.64	0.6109
2147.67	0.6044
2156.7	0.6006
2165.73	0.5853
2174.76	0.5718
2183.79	0.5588
2192.81	0.5453
2201.84	0.5352
2210.87	0.5261
2219.9	0.5229
2228.93	0.513
2237.95	0.5113
2246.98	0.5072
2256.01	0.5009
2265.04	0.4901
2274.07	0.4809
2283.09	0.4754
2292.12	0.4555
2301.15	0.424
2310.18	0.4009
2319.21	0.38
2328.23	0.3723
2337.26	0.3718
2346.29	0.3682
2355.32	0.3632
2364.35	0.3631
2373.38	0.3631
2382.4	0.3615
2391.43	0.3574
2400.46	0.3572
2409.49	0.3584
2418.52	0.3616
2427.54	0.3593
2436.57	0.3554
2445.6	0.3573
2454.63	0.3618
2463.66	0.3623
2472.68	0.3622
2481.71	0.3621
2490.74	0.3623
2499.77	0.3763
2508.8	0.3806
2517.82	0.3803
2526.85	0.389
2535.88	0.404
2544.91	0.4079
2553.94	0.4229
2562.96	0.4388
2571.99	0.4454
2581.02	0.4513
2590.05	0.456
2599.08	0.458
2608.11	0.4577
2617.13	0.4558
2626.16	0.4508
2635.19	0.4532
2644.22	0.4615
2653.25	0.4695
2662.27	0.4807
2671.3	0.4878
2680.33	0.4822
2689.36	0.471
2698.39	0.4703
2707.41	0.4723
2716.44	0.4722
2725.47	0.4696
2734.5	0.4638
2743.53	0.4449
2752.55	0.4363
2761.58	0.4261
2770.61	0.406
2779.64	0.3854
2788.67	0.383
2797.7	0.3838
2806.72	0.3794
2815.75	0.3706
2824.78	0.3609
2833.81	0.3511
2842.84	0.3388
2851.86	0.3268
2860.89	0.3093
2869.92	0.2981
2878.95	0.2877
2887.98	0.2663
2897	0.2412
2906.03	0.186
2915.06	0.1605
2924.09	0.1543
2933.12	0.1466
2942.14	0.1428
2951.17	0.1298
2960.2	0.1309
2969.23	0.1401
2978.26	0.1378
2987.29	0.1313
2996.31	0.1258
3005.34	0.1186
3014.37	0.1085
3023.4	0.0992
3032.43	0.0908
3041.45	0.0902
3050.48	0.0915
3059.51	0.077
3068.54	0.0786
3077.57	0.0811
3086.59	0.0948
3095.62	0.1154
3104.65	0.1412
3113.68	0.1585
3122.71	0.1768
3131.73	0.198
3140.76	0.1957
3149.79	0.1842
3158.82	0.1732
3167.85	0.1575
3176.88	0.1569
3185.9	0.1571
3194.93	0.1565
3203.96	0.1575
3212.99	0.1624
3222.02	0.1561
3231.04	0.1414
3240.07	0.1262
3249.1	0.1125
3258.13	0.0994
3267.16	0.092
3276.18	0.092
3285.21	0.0973
3294.24	0.0974
3303.27	0.0953
3312.3	0.0879
3321.32	0.0989
3330.35	0.0876
3339.38	0.0807
3348.41	0.0721
3357.44	0.063
3366.47	0.0643
3375.49	0.0718
3384.52	0.0782
3393.55	0.1584
3402.58	0.2337
3411.61	0.3104
3420.63	0.4049
3429.66	0.4597
3438.69	0.5057
3447.72	0.5443
3456.75	0.5719
3465.77	0.6026
3474.8	0.6193
3483.83	0.6201
3492.86	0.6301
3501.89	0.6787
3510.91	0.6919
3519.94	0.6904
3528.97	0.7064
3538	0.7048
3547.03	0.7187
3556.06	0.7309
3565.08	0.7464
3574.11	0.7732
3583.14	0.7771
3592.17	0.7907
3601.2	0.7972
3610.22	0.7922
3619.25	0.8113
3628.28	0.8272
3637.31	0.8325
3646.34	0.837
3655.36	0.8493
3664.39	0.8639
3673.42	0.8543
3682.45	0.8523
3691.48	0.8685
3700.5	0.8835
3709.53	0.8695
3718.56	0.8529
3727.59	0.8448
3736.62	0.8399
3745.64	0.8461
3754.67	0.8592
3763.7	0.8683
3772.73	0.88
3781.76	0.8776
3790.79	0.8665
3799.81	0.8597
3808.84	0.8777
3817.87	0.8503
3826.9	0.867
3835.93	0.8651
3844.95	0.8583
3853.98	0.8621
3863.01	0.8609
3872.04	0.8452
3881.07	0.8439
3890.09	0.861
3899.12	0.8641
3908.15	0.8632
