Infrared Spectrum: 1,7-DIAMINO-Beta-NAPHTHOL
Formula: C10 H10 N2 O
CAS: 116400-70-5
State: SOLID (0.50% IN KBr PELLET)
Class: COBLENTZ
Instrument: Not specified, most likely a prism, grating, or hybrid spectrometer.
Sampling: TRANSMISSION
Path length: 0.0355 CM THICK
Resolution: 4
Origin: ANDERSON PHYSICAL LABORATORY
1/CM	TRANSMITTANCE
670.2	0.758
678.616	0.755
687.033	0.751
695.449	0.742
703.866	0.721
712.282	0.688
720.699	0.664
729.115	0.683
737.532	0.679
745.948	0.661
754.365	0.775
762.781	0.794
771.198	0.772
779.614	0.745
788.031	0.724
796.447	0.692
804.864	0.638
813.28	0.58
821.696	0.457
830.113	0.452
838.529	0.547
846.946	0.6709
855.362	0.716
863.779	0.715
872.195	0.713
880.612	0.71
889.028	0.689
897.445	0.659
905.861	0.653
914.278	0.653
922.694	0.658
931.111	0.668
939.527	0.686
947.943	0.748
956.36	0.782
964.776	0.802
973.193	0.835
981.609	0.854
990.026	0.86
998.442	0.86
1006.86	0.862
1015.28	0.86
1023.69	0.859
1032.11	0.859
1040.52	0.857
1048.94	0.857
1057.36	0.856
1065.77	0.853
1074.19	0.85
1082.61	0.847
1091.02	0.844
1099.44	0.841
1107.86	0.835
1116.27	0.817
1124.69	0.803
1133.11	0.79
1141.52	0.758
1149.94	0.745
1158.36	0.758
1166.77	0.724
1175.19	0.626
1183.6	0.6049
1192.02	0.725
1200.44	0.701
1208.85	0.646
1217.27	0.53
1225.69	0.416
1234.1	0.247
1242.52	0.38
1250.94	0.496
1259.35	0.488
1267.77	0.6369
1276.19	0.709
1284.6	0.6411
1293.02	0.7389
1301.44	0.805
1309.85	0.805
1318.27	0.805
1326.68	0.805
1335.1	0.805
1343.52	0.799
1351.93	0.784
1360.35	0.766
1368.77	0.721
1377.18	0.614
1385.6	0.59
1394.02	0.593
1402.43	0.593
1410.85	0.526
1419.27	0.488
1427.68	0.628
1436.1	0.745
1444.52	0.749
1452.93	0.737
1461.35	0.706
1469.76	0.62
1478.18	0.532
1486.6	0.611
1495.01	0.751
1503.43	0.758
1511.85	0.74
1520.26	0.707
1528.68	0.691
1537.1	0.68
1545.51	0.683
1553.93	0.713
1562.35	0.709
1570.76	0.683
1579.18	0.656
1587.6	0.584
1596.01	0.545
1604.43	0.3982
1612.84	0.328
1621.26	0.427
1629.68	0.43
1638.09	0.437
1646.51	0.625
1654.93	0.707
1663.34	0.773
1671.76	0.799
1680.18	0.841
1688.59	0.866
1697.01	0.878
1705.43	0.883
1713.84	0.889
1722.26	0.887
1730.68	0.89
1739.09	0.892
1747.51	0.892
1755.92	0.893
1764.34	0.893
1772.76	0.895
1781.17	0.895
1789.59	0.895
1798.01	0.895
1806.42	0.893
1814.84	0.89
1823.26	0.887
1831.67	0.886
1840.09	0.886
1848.51	0.886
1856.92	0.886
1865.34	0.883
1873.76	0.88
1882.17	0.877
1890.59	0.871
1899	0.866
1907.42	0.865
1915.84	0.866
1924.25	0.871
1932.67	0.874
1941.09	0.872
1949.5	0.871
1957.92	0.871
1966.34	0.871
1974.75	0.871
1983.17	0.866
1991.59	0.862
2000	0.859
2008.42	0.8598
2016.84	0.857
2025.25	0.857
2033.67	0.857
2042.08	0.856
2050.5	0.856
2058.92	0.8545
2067.33	0.853
2075.75	0.851
2084.17	0.85
2092.58	0.848
2101	0.848
2109.42	0.847
2117.83	0.845
2126.25	0.8442
2134.67	0.839
2143.08	0.8345
2151.5	0.8325
2159.92	0.832
2168.33	0.83
2176.75	0.83
2185.16	0.83
2193.58	0.8292
2202	0.829
2210.41	0.827
2218.83	0.8244
2227.25	0.8202
2235.66	0.817
2244.08	0.8132
2252.5	0.8074
2260.91	0.7998
2269.33	0.7958
2277.75	0.79
2286.16	0.7875
2294.58	0.7819
2303	0.7667
2311.41	0.7561
2319.83	0.752
2328.24	0.7512
2336.66	0.749
2345.08	0.749
2353.49	0.7484
2361.91	0.748
2370.33	0.746
2378.74	0.7457
2387.16	0.743
2395.58	0.7404
2403.99	0.7358
2412.41	0.73
2420.83	0.7233
2429.24	0.7182
2437.66	0.7087
2446.08	0.7007
2454.49	0.6966
2462.91	0.6882
2471.32	0.6757
2479.74	0.6671
2488.16	0.6614
2496.57	0.6563
2504.99	0.6486
2513.41	0.6384
2521.82	0.6281
2530.24	0.6195
2538.66	0.6138
2547.07	0.6093
2555.49	0.6058
2563.91	0.604
2572.32	0.602
2580.74	0.6
2589.16	0.5954
2597.57	0.5903
2605.99	0.5869
2614.4	0.586
2622.82	0.5848
2631.24	0.584
2639.65	0.583
2648.07	0.583
2656.49	0.583
2664.9	0.583
2673.32	0.583
2681.74	0.583
2690.15	0.583
2698.57	0.583
2706.99	0.583
2715.4	0.583
2723.82	0.583
2732.24	0.581
2740.65	0.581
2749.07	0.581
2757.48	0.581
2765.9	0.581
2774.32	0.581
2782.73	0.58
2791.15	0.5787
2799.57	0.5744
2807.98	0.5706
2816.4	0.5631
2824.82	0.5564
2833.23	0.554
2841.65	0.5505
2850.07	0.5446
2858.48	0.5414
2866.9	0.5353
2875.32	0.5329
2883.73	0.5296
2892.15	0.526
2900.56	0.521
2908.98	0.52
2917.4	0.5192
2925.81	0.518
2934.23	0.517
2942.65	0.5137
2951.06	0.5116
2959.48	0.511
2967.9	0.511
2976.31	0.511
2984.73	0.509
2993.15	0.509
3001.56	0.509
3009.98	0.509
3018.4	0.511
3026.81	0.511
3035.23	0.509
3043.64	0.511
3052.06	0.512
3060.48	0.5147
3068.89	0.5179
3077.31	0.5213
3085.73	0.5249
3094.14	0.527
3102.56	0.527
3110.98	0.529
3119.39	0.529
3127.81	0.529
3136.23	0.529
3144.64	0.529
3153.06	0.529
3161.47	0.529
3169.89	0.527
3178.31	0.526
3186.72	0.524
3195.14	0.5216
3203.56	0.5201
3211.97	0.52
3220.39	0.5176
3228.81	0.5129
3237.22	0.5001
3245.64	0.489
3254.06	0.4763
3262.47	0.4655
3270.89	0.4465
3279.31	0.437
3287.72	0.4351
3296.14	0.4354
3304.55	0.4517
3312.97	0.4687
3321.39	0.4912
3329.8	0.519
3338.22	0.527
3346.64	0.5263
3355.05	0.5176
3363.47	0.5088
3371.89	0.5002
3380.3	0.499
3388.72	0.4995
3397.14	0.5199
3405.55	0.5438
3413.97	0.5702
3422.39	0.5919
3430.8	0.596
3439.22	0.601
3447.63	0.6025
3456.05	0.606
3464.47	0.6095
3472.88	0.611
3481.3	0.6197
3489.72	0.6269
3498.13	0.6317
3506.55	0.637
3514.97	0.644
3523.38	0.6485
3531.8	0.6528
3540.22	0.656
3548.63	0.6618
3557.05	0.6685
3565.47	0.6725
3573.88	0.679
3582.3	0.6858
3590.71	0.691
3599.13	0.6935
3607.55	0.697
3615.96	0.7
3624.38	0.7
3632.8	0.7
3641.21	0.7
3649.63	0.7
3658.05	0.7
3666.46	0.7
3674.88	0.7
3683.3	0.698
3691.71	0.6975
3700.13	0.697
3708.55	0.695
3716.96	0.694
3725.38	0.6929
3733.79	0.692
3742.21	0.691
3750.63	0.691
3759.04	0.688
3767.46	0.688
3775.88	0.686
3784.29	0.685
3792.71	0.685
3801.13	0.685
3809.54	0.683
3817.96	0.682
3826.38	0.6809
3834.79	0.68
3843.21	0.68
3851.63	0.679
3860.04	0.679
3868.46	0.677
3876.87	0.676
3885.29	0.6754
3893.71	0.6734
3902.12	0.673
3910.54	0.673
3918.96	0.673
3927.37	0.673
3935.79	0.673
3944.21	0.673
3952.62	0.673
3961.04	0.6736
3969.46	0.674
3977.87	0.673
3986.29	0.673
