Infrared Spectrum: 3-(N,N-DI-n-PENTYLAMINO)-2,5-DIMETHYL PYRAZINE
Formula: C16 H29 N3
CAS: 116402-81-4
State: LIQUID
Class: COBLENTZ
Instrument: Not specified, most likely a prism, grating, or hybrid spectrometer.
Sampling: TRANSMISSION
Path length: 0.003 CM
Resolution: 4
Origin: WYANDOTTE CHEMICALS CORP., WYANDOTTE, MICHIGAN, USA
MICROMETERS	TRANSMITTANCE
2.033	0.993
2.07283	0.985
2.11266	0.976
2.15249	0.961
2.19231	0.905
2.23214	0.89
2.27197	0.913
2.3118	0.923
2.35163	0.922
2.39146	0.928
2.43129	0.946
2.47112	0.951
2.51094	0.961
2.55077	0.966
2.5906	0.978
2.63043	0.978
2.67026	0.975
2.71009	0.971
2.74992	0.97
2.78975	0.948
2.82957	0.935
2.8694	0.918
2.90923	0.907
2.94906	0.895
2.98889	0.89
3.02872	0.872
3.06855	0.878
3.10838	0.87
3.1482	0.859
3.18803	0.839
3.22786	0.812
3.26769	0.61
3.30752	0.424
3.34735	0.053
3.38718	0.058
3.427	0.061
3.46683	0.063
3.50666	0.187
3.54649	0.421
3.58632	0.661
3.62615	0.744
3.66598	0.736
3.70581	0.776
3.74563	0.805
3.78546	0.829
3.82529	0.859
3.86512	0.86
3.90495	0.888
3.94478	0.885
3.98461	0.902
4.02444	0.912
4.06426	0.91
4.10409	0.903
4.14392	0.898
4.18375	0.888
4.22358	0.882
4.26341	0.864
4.30324	0.88
4.34307	0.892
4.38289	0.902
4.42272	0.918
4.46255	0.933
4.50238	0.936
4.54221	0.94
4.58204	0.94
4.62187	0.936
4.66169	0.943
4.70152	0.948
4.74135	0.932
4.78118	0.938
4.82101	0.951
4.86084	0.948
4.90067	0.938
4.9405	0.94
4.98032	0.95
5.02015	0.945
5.05998	0.948
5.09981	0.953
5.13964	0.958
5.17947	0.948
5.2193	0.951
5.25913	0.95
5.29895	0.953
5.33878	0.946
5.37861	0.96
5.41844	0.951
5.45827	0.96
5.4981	0.946
5.53793	0.933
5.57775	0.938
5.61758	0.93
5.65741	0.927
5.69724	0.91
5.73707	0.887
5.7769	0.872
5.81673	0.859
5.85656	0.872
5.89638	0.86
5.93621	0.849
5.97604	0.842
6.01587	0.822
6.0557	0.81
6.09553	0.802
6.13536	0.82
6.17519	0.8
6.21501	0.781
6.25484	0.737
6.29467	0.651
6.3345	0.353
6.37433	0.399
6.41416	0.401
6.45399	0.301
6.49382	0.074
6.53364	0.15
6.57347	0.286
6.6133	0.364
6.65313	0.374
6.69296	0.336
6.73279	0.232
6.77262	0.106
6.81244	0.063
6.85227	0.061
6.8921	0.053
6.93193	0.064
6.97176	0.072
7.01159	0.086
7.05142	0.066
7.09125	0.086
7.13107	0.197
7.1709	0.31
7.21073	0.197
7.25056	0.072
7.29039	0.059
7.33022	0.067
7.37005	0.064
7.40988	0.107
7.4497	0.189
7.48953	0.29
7.52936	0.243
7.56919	0.147
7.60902	0.184
7.64885	0.182
7.68868	0.22
7.72851	0.243
7.76833	0.286
7.80816	0.32
7.84799	0.339
7.88782	0.452
7.92765	0.361
7.96748	0.293
8.00731	0.273
8.04713	0.354
8.08696	0.477
8.12679	0.533
8.16662	0.522
8.20645	0.538
8.24628	0.577
8.28611	0.58
8.32594	0.47
8.36576	0.248
8.40559	0.112
8.44542	0.119
8.48525	0.132
8.52508	0.134
8.56491	0.164
8.60474	0.232
8.64457	0.288
8.68439	0.334
8.72422	0.341
8.76405	0.197
8.80388	0.077
8.84371	0.061
8.88354	0.077
8.92337	0.127
8.9632	0.189
9.00302	0.242
9.04285	0.222
9.08268	0.192
9.12251	0.24
9.16234	0.356
9.20217	0.475
9.242	0.553
9.28182	0.573
9.32165	0.6
9.36148	0.613
9.40131	0.626
9.44114	0.633
9.48097	0.61
9.5208	0.552
9.56063	0.51
9.60045	0.495
9.64028	0.461
9.68011	0.384
9.71994	0.33
9.75977	0.442
9.7996	0.52
9.83943	0.548
9.87926	0.542
9.91908	0.52
9.95891	0.502
9.99874	0.512
10.0386	0.537
10.0784	0.55
10.1182	0.542
10.1581	0.538
10.1979	0.545
10.2377	0.545
10.2775	0.504
10.3174	0.467
10.3572	0.464
10.397	0.504
10.4369	0.543
10.4767	0.603
10.5165	0.65
10.5563	0.696
10.5962	0.716
10.636	0.704
10.6758	0.694
10.7157	0.686
10.7555	0.701
10.7953	0.719
10.8351	0.724
10.875	0.728
10.9148	0.724
10.9546	0.734
10.9945	0.751
11.0343	0.757
11.0741	0.764
11.1139	0.749
11.1538	0.746
11.1936	0.737
11.2334	0.729
11.2733	0.703
11.3131	0.681
11.3529	0.653
11.3927	0.62
11.4326	0.58
11.4724	0.562
11.5122	0.557
11.5521	0.592
11.5919	0.618
11.6317	0.661
11.6715	0.678
11.7114	0.718
11.7512	0.729
11.791	0.744
11.8309	0.739
11.8707	0.744
11.9105	0.747
11.9503	0.772
11.9902	0.792
12.03	0.814
12.0698	0.83
12.1097	0.832
12.1495	0.849
12.1893	0.864
12.2291	0.87
12.269	0.877
12.3088	0.885
12.3486	0.882
12.3885	0.89
12.4283	0.878
12.4681	0.88
12.5079	0.872
12.5478	0.868
12.5876	0.859
12.6274	0.852
12.6673	0.84
12.7071	0.82
12.7469	0.797
12.7868	0.767
12.8266	0.737
12.8664	0.716
12.9062	0.698
12.9461	0.669
12.9859	0.651
13.0257	0.63
13.0656	0.606
13.1054	0.575
13.1452	0.527
13.185	0.467
13.2249	0.462
13.2647	0.495
13.3045	0.577
13.3444	0.641
13.3842	0.689
13.424	0.701
13.4638	0.711
13.5037	0.706
13.5435	0.699
13.5833	0.673
13.6232	0.646
13.663	0.615
13.7028	0.597
13.7426	0.587
13.7825	0.588
13.8223	0.6
13.8621	0.641
13.902	0.679
13.9418	0.718
13.9816	0.736
14.0214	0.752
14.0613	0.766
14.1011	0.771
14.1409	0.771
14.1808	0.769
14.2206	0.761
14.2604	0.749
14.3002	0.737
14.3401	0.723
14.3799	0.713
14.4197	0.706
14.4596	0.711
14.4994	0.699
14.5392	0.701
14.579	0.703
14.6189	0.704
14.6587	0.704
14.6985	0.711
14.7384	0.713
14.7782	0.714
14.818	0.709
14.8578	0.703
14.8977	0.701
14.9375	0.698
14.9773	0.699
15.0172	0.689
15.057	0.651
15.0968	0.593
15.1366	0.58
15.1765	0.603
15.2163	0.63
15.2561	0.643
15.296	0.648
15.3358	0.641
15.3756	0.63
15.4154	0.625
15.4553	0.608
15.4951	0.6
15.5349	0.592
15.5748	0.575
15.6146	0.565
15.6544	0.557
15.6942	0.542
15.7341	0.524
15.7739	0.517
15.8137	0.507
15.8536	0.507
15.8934	0.5
15.9332	0.492
15.973	0.49
