Infrared Spectrum: Cyclopropane, 1-methoxy-2,3-dimethyl-
Formula: C6 H12 O
CAS: 116405-11-9
State: SOLUTION (11% CCl4 FOR 3800-1300, 10% CS2 FOR 1300-650, AND 11% CCl4 FOR 650-250)
Class: COBLENTZ III
Instrument: PERKIN-ELMER 521 (GRATING)
Instrument parameters: FILTERS AT 3150, 2500, 2000, 1150, 700, 410. GRATING CHANGES: 2000, 630
Path length: 0.011 CM, 0.011 CM, AND 0.012 CM
Resolution: 2
Origin: DOW CORNING CORP.
1/CM	TRANSMITTANCE
243	0.8104
252	0.81
261	0.8079
270	0.8075
279	0.8087
288	0.8099
297	0.8099
306	0.8082
315	0.8124
324	0.8441
333	0.846
342	0.846
351	0.8444
360	0.8388
369	0.8272
378	0.8137
387	0.8048
396	0.7989
405	0.8058
414	0.8048
423	0.8289
432	0.8323
441	0.7644
450	0.8286
459	0.8375
468	0.8363
477	0.7663
486	0.7593
495	0.8323
504	0.839
513	0.844
522	0.8469
531	0.849
540	0.8488
549	0.8435
558	0.8239
567	0.82
576	0.8433
585	0.8294
594	0.7144
603	0.8479
612	0.8656
621	0.8691
630	0.8662
639	0.878
648	0.9016
657	0.9309
666	0.9454
675	0.9483
684	0.9469
693	0.9402
702	0.939
711	0.9403
720	0.9384
729	0.9329
738	0.927
747	0.9217
756	0.885
765	0.6621
774	0.6981
783	0.7942
792	0.834
801	0.7943
810	0.5311
819	0.7121
828	0.8528
837	0.7835
846	0.8054
855	0.685
864	0.821
873	0.8831
882	0.8947
891	0.8951
900	0.8858
909	0.8746
918	0.8612
927	0.8442
936	0.7929
945	0.5944
954	0.4778
963	0.4583
972	0.6556
981	0.3881
990	0.3671
999	0.5838
1008	0.7797
1017	0.7973
1026	0.7868
1035	0.7313
1044	0.5986
1053	0.4914
1062	0.372
1071	0.0815
1080	0.4345
1089	0.5198
1098	0.5851
1107	0.4257
1116	0.1013
1125	0.3885
1134	0.305
1143	0.3472
1152	0.5243
1161	0.4854
1170	0.7011
1179	0.6958
1188	0.6414
1197	0.4768
1206	0.2109
1215	0.1313
1224	0.3434
1233	0.6806
1242	0.7322
1251	0.7567
1260	0.7626
1269	0.7456
1278	0.7648
1287	0.7676
1296	0.7362
1305	0.7753
1314	0.752
1323	0.6502
1332	0.1801
1341	0.6895
1350	0.7614
1359	0.7554
1368	0.7182
1377	0.4384
1386	0.7249
1395	0.7542
1404	0.7433
1413	0.6848
1422	0.4348
1431	0.642
1440	0.4663
1449	0.1458
1458	0.1861
1467	0.4122
1476	0.7077
1485	0.7725
1494	0.8156
1503	0.838
1512	0.8497
1521	0.859
1530	0.8743
1539	0.8806
1548	0.8736
1557	0.8594
1566	0.8535
1575	0.8495
1584	0.8441
1593	0.837
1602	0.8292
1611	0.8242
1620	0.8257
1629	0.8295
1638	0.8367
1647	0.8385
1656	0.8408
1665	0.8459
1674	0.8459
1683	0.8425
1692	0.8452
1701	0.8442
1710	0.8363
1719	0.8309
1728	0.8302
1737	0.8332
1746	0.8274
1755	0.825
1764	0.8497
1773	0.8524
1782	0.8552
1791	0.8571
1800	0.8583
1809	0.8577
1818	0.8577
1827	0.8584
1836	0.8589
1845	0.8594
1854	0.8598
1863	0.8603
1872	0.8605
1881	0.8601
1890	0.8592
1899	0.8587
1908	0.8577
1917	0.8584
1926	0.8551
1935	0.8536
1944	0.8578
1953	0.8559
1962	0.8512
1971	0.8472
1980	0.8507
1989	0.8522
1998	0.8593
2007	0.8728
2016	0.8706
2025	0.866
2034	0.8609
2043	0.856
2052	0.8586
2061	0.8545
2070	0.8587
2079	0.867
2088	0.8715
2097	0.8717
2106	0.8726
2115	0.875
2124	0.8747
2133	0.8728
2142	0.8726
2151	0.8748
2160	0.8741
2169	0.8721
2178	0.8694
2187	0.8683
2196	0.8687
2205	0.8698
2214	0.8696
2223	0.8689
2232	0.8719
2241	0.8756
2250	0.8794
2259	0.8828
2268	0.8862
2277	0.8876
2286	0.8882
2295	0.889
2304	0.8897
2313	0.8903
2322	0.8912
2331	0.8926
2340	0.8941
2349	0.8959
2358	0.8976
2367	0.8981
2376	0.8986
2385	0.8978
2394	0.8953
2403	0.8921
2412	0.8893
2421	0.888
2430	0.8869
2439	0.8879
2448	0.889
2457	0.8916
2466	0.8934
2475	0.8958
2484	0.8993
2493	0.898
2502	0.891
2511	0.8883
2520	0.888
2529	0.8881
2538	0.8885
2547	0.8877
2556	0.8867
2565	0.8863
2574	0.8861
2583	0.8844
2592	0.8822
2601	0.8788
2610	0.8845
2619	0.8875
2628	0.8887
2637	0.8892
2646	0.8862
2655	0.8815
2664	0.8782
2673	0.8779
2682	0.8781
2691	0.8782
2700	0.8795
2709	0.8706
2718	0.8638
2727	0.8642
2736	0.8329
2745	0.7417
2754	0.823
2763	0.8368
2772	0.8325
2781	0.8175
2790	0.804
2799	0.7705
2808	0.6961
2817	0.6348
2826	0.2362
2835	0.4099
2844	0.5838
2853	0.5596
2862	0.5528
2871	0.3229
2880	0.1498
2889	0.2064
2898	0.2713
2907	0.1878
2916	0.2117
2925	0.1744
2934	0.0985
2943	0.0757
2952	0.0949
2961	0.0734
2970	0.0807
2979	0.1825
2988	0.2167
2997	0.1845
3006	0.1784
3015	0.1816
3024	0.4335
3033	0.6245
3042	0.7204
3051	0.756
3060	0.7819
3069	0.7985
3078	0.8114
3087	0.8216
3096	0.8291
3105	0.8344
3114	0.8394
3123	0.8441
3132	0.8488
3141	0.8523
3150	0.8521
3159	0.8533
3168	0.8586
3177	0.8627
3186	0.8679
3195	0.8722
3204	0.8748
3213	0.882
3222	0.8865
3231	0.8881
3240	0.8896
3249	0.8909
3258	0.8919
3267	0.8929
3276	0.8939
3285	0.8957
3294	0.8975
3303	0.8982
3312	0.8986
3321	0.899
3330	0.8993
3339	0.8996
3348	0.8998
3357	0.9
3366	0.9005
3375	0.9009
3384	0.9014
3393	0.9018
3402	0.902
3411	0.9021
3420	0.9022
3429	0.9021
3438	0.9019
3447	0.9016
3456	0.9014
3465	0.9011
3474	0.9009
3483	0.8994
3492	0.8976
3501	0.8942
3510	0.8931
3519	0.8949
3528	0.8974
3537	0.8999
3546	0.9016
3555	0.9029
3564	0.9043
3573	0.9058
3582	0.9072
3591	0.9079
3600	0.9086
3609	0.9089
3618	0.9094
3627	0.9099
3636	0.9102
3645	0.9104
3654	0.911
3663	0.9111
3672	0.9109
3681	0.9099
3690	0.9055
3699	0.9004
3708	0.9048
3717	0.9081
3726	0.9078
3735	0.9067
3744	0.9055
3753	0.9051
3762	0.9051
3771	0.9061
3780	0.9067
3789	0.9067
3798	0.9059
3807	0.9048
3816	0.9037
