Infrared Spectrum: o-ETHYL-o-(2,4,6-TRICHLOROPHENYL)-N-ETHYLAMIDO THIOPHOSPHATE
Formula: C10 H13 Cl3 N O2 P S
CAS: 116401-94-6
State: SOLUTION (10% CCl4 FOR 5000-1330, 10% CS2 FOR 1330-625 CM^-^1)
Class: COBLENTZ
Instrument: Not specified, most likely a prism, grating, or hybrid spectrometer.
Sampling: TRANSMISSION
Path length: 0.0120 CM, 0.0110 CM
Resolution: 4
Origin: DOW CHEMICAL COMPANY
MICROMETERS	TRANSMITTANCE
2.027	0.902
2.06806	0.904
2.10911	0.899
2.15017	0.902
2.19123	0.894
2.23229	0.888
2.27334	0.89
2.3144	0.897
2.35546	0.897
2.39652	0.895
2.43757	0.894
2.47863	0.895
2.51969	0.899
2.56075	0.9
2.6018	0.902
2.64286	0.899
2.68392	0.9
2.72497	0.895
2.76603	0.883
2.80709	0.876
2.84815	0.858
2.8892	0.7
2.93026	0.74
2.97132	0.813
3.01238	0.829
3.05343	0.861
3.09449	0.87
3.13555	0.87
3.1766	0.863
3.21766	0.832
3.25872	0.864
3.29978	0.788
3.34083	0.5
3.38189	0.632
3.42295	0.664
3.46401	0.806
3.50506	0.851
3.54612	0.87
3.58718	0.876
3.62824	0.88
3.66929	0.88
3.71035	0.887
3.75141	0.888
3.79246	0.89
3.83352	0.892
3.87458	0.89
3.91564	0.892
3.95669	0.887
3.99775	0.887
4.03881	0.888
4.07987	0.892
4.12092	0.892
4.16198	0.888
4.20304	0.88
4.24409	0.873
4.28515	0.88
4.32621	0.873
4.36727	0.878
4.40832	0.887
4.44938	0.892
4.49044	0.894
4.5315	0.892
4.57255	0.888
4.61361	0.89
4.65467	0.892
4.69573	0.892
4.73678	0.894
4.77784	0.894
4.8189	0.888
4.85995	0.887
4.90101	0.89
4.94207	0.888
4.98313	0.878
5.02418	0.873
5.06524	0.878
5.1063	0.88
5.14736	0.878
5.18841	0.876
5.22947	0.882
5.27053	0.878
5.31158	0.873
5.35264	0.868
5.3937	0.866
5.43476	0.873
5.47581	0.875
5.51687	0.88
5.55793	0.882
5.59899	0.882
5.64004	0.876
5.6811	0.875
5.72216	0.864
5.76322	0.837
5.80427	0.823
5.84533	0.859
5.88639	0.873
5.92744	0.875
5.9685	0.87
6.00956	0.866
6.05062	0.854
6.09167	0.835
6.13273	0.825
6.17379	0.803
6.21485	0.743
6.2559	0.652
6.29696	0.547
6.33802	0.444
6.37907	0.353
6.42013	0.312
6.46119	0.415
6.50225	0.521
6.5433	0.572
6.58436	0.615
6.62542	0.651
6.66648	0.692
6.70753	0.67
6.74859	0.581
6.78965	0.37
6.83071	0.181
6.87176	0.085
6.91282	0.153
6.95388	0.388
6.99493	0.343
7.03599	0.415
7.07705	0.411
7.11811	0.345
7.15916	0.304
7.20022	0.252
7.24128	0.451
7.28234	0.564
7.32339	0.721
7.36445	0.76
7.40551	0.762
7.44657	0.758
7.48762	0.767
7.52868	0.781
7.56974	0.791
7.61079	0.794
7.65185	0.776
7.69291	0.752
7.73397	0.733
7.77502	0.682
7.81608	0.613
7.85714	0.558
7.8982	0.47
7.93925	0.252
7.98031	0.157
8.02137	0.347
8.06242	0.637
8.10348	0.736
8.14454	0.777
8.1856	0.803
8.22665	0.813
8.26771	0.811
8.30877	0.772
8.34983	0.735
8.39088	0.762
8.43194	0.786
8.473	0.767
8.51406	0.719
8.55511	0.649
8.59617	0.605
8.63723	0.622
8.67828	0.617
8.71934	0.543
8.7604	0.499
8.80146	0.449
8.84251	0.353
8.88357	0.244
8.92463	0.186
8.96569	0.164
9.00674	0.16
9.0478	0.264
9.08886	0.358
9.12991	0.434
9.17097	0.487
9.21203	0.485
9.25309	0.401
9.29414	0.333
9.3352	0.276
9.37626	0.27
9.41732	0.299
9.45837	0.258
9.49943	0.17
9.54049	0.092
9.58155	0.047
9.6226	0.03
9.66366	0.041
9.70472	0.105
9.74577	0.241
9.78683	0.406
9.82789	0.543
9.86895	0.622
9.91	0.682
9.95106	0.709
9.99212	0.719
10.0332	0.724
10.0742	0.705
10.1153	0.652
10.1563	0.581
10.1974	0.495
10.2385	0.358
10.2795	0.237
10.3206	0.169
10.3616	0.148
10.4027	0.155
10.4437	0.179
10.4848	0.222
10.5259	0.292
10.5669	0.374
10.608	0.461
10.649	0.547
10.6901	0.605
10.7311	0.642
10.7722	0.654
10.8133	0.634
10.8543	0.593
10.8954	0.514
10.9364	0.413
10.9775	0.276
11.0186	0.145
11.0596	0.095
11.1007	0.109
11.1417	0.152
11.1828	0.244
11.2238	0.405
11.2649	0.535
11.306	0.584
11.347	0.589
11.3881	0.562
11.4291	0.517
11.4702	0.459
11.5112	0.396
11.5523	0.316
11.5934	0.246
11.6344	0.172
11.6755	0.075
11.7165	0.085
11.7576	0.235
11.7986	0.324
11.8397	0.386
11.8808	0.418
11.9218	0.42
11.9629	0.405
12.0039	0.355
12.045	0.288
12.086	0.205
12.1271	0.104
12.1682	0.025
12.2092	0
12.2503	0
12.2913	0
12.3324	0
12.3734	0
12.4145	0.01
12.4556	0.022
12.4966	0.035
12.5377	0.058
12.5787	0.099
12.6198	0.145
12.6608	0.201
12.7019	0.247
12.743	0.3
12.784	0.341
12.8251	0.379
12.8661	0.427
12.9072	0.476
12.9482	0.538
12.9893	0.582
13.0304	0.617
13.0714	0.641
13.1125	0.661
13.1535	0.673
13.1946	0.68
13.2356	0.682
13.2767	0.687
13.3178	0.687
13.3588	0.682
13.3999	0.671
13.4409	0.663
13.482	0.652
13.523	0.632
13.5641	0.593
13.6052	0.543
13.6462	0.461
13.6873	0.357
13.7283	0.28
13.7694	0.285
13.8104	0.42
13.8515	0.526
13.8926	0.593
13.9336	0.627
13.9747	0.637
14.0157	0.639
14.0568	0.632
14.0978	0.622
14.1389	0.601
14.18	0.581
14.221	0.55
14.2621	0.514
14.3031	0.47
14.3442	0.408
14.3853	0.348
14.4263	0.304
14.4674	0.271
14.5084	0.259
14.5495	0.266
14.5905	0.275
14.6316	0.276
14.6727	0.275
14.7137	0.268
14.7548	0.27
14.7958	0.285
14.8369	0.311
14.8779	0.335
14.919	0.36
14.9601	0.386
15.0011	0.403
15.0422	0.413
15.0832	0.418
15.1243	0.418
15.1653	0.41
15.2064	0.405
15.2475	0.396
15.2885	0.388
15.3296	0.382
15.3706	0.379
15.4117	0.37
15.4527	0.362
15.4938	0.358
15.5349	0.353
15.5759	0.345
15.617	0.34
15.658	0.331
15.6991	0.326
15.7401	0.316
15.7812	0.314
15.8223	0.305
15.8633	0.299
15.9044	0.297
15.9454	0.312
