Infrared Spectrum: 2,3,4,6-TETRACHLOROPHENYL SALICYLATE
Formula: C13 H6 Cl4 O3
CAS: 116465-50-0
State: SOLUTION (10% IN CCl4 FOR 5000-1350 CM^-^1, 10% IN CS2 FOR 1350-625 CM^-^1)
Class: COBLENTZ
Instrument: Not specified, most likely a prism, grating, or hybrid spectrometer.
Sampling: TRANSMISSION
Path length: 0.01 CM, 0.01 CM
Resolution: 4
Origin: DOW CHEMICAL COMPANY
MICROMETERS	TRANSMITTANCE
2.048	0.892
2.08712	0.89
2.12624	0.889
2.16535	0.89
2.20447	0.895
2.24359	0.897
2.28271	0.902
2.32183	0.895
2.36095	0.898
2.40006	0.897
2.43918	0.897
2.4783	0.898
2.51742	0.902
2.55654	0.902
2.59566	0.898
2.63477	0.903
2.67389	0.9
2.71301	0.902
2.75213	0.892
2.79125	0.878
2.83037	0.865
2.86948	0.855
2.9086	0.813
2.94772	0.743
2.98684	0.593
3.02596	0.471
3.06508	0.6
3.10419	0.746
3.14331	0.797
3.18243	0.81
3.22155	0.781
3.26067	0.76
3.29979	0.788
3.3389	0.799
3.37802	0.792
3.41714	0.804
3.45626	0.817
3.49538	0.821
3.5345	0.821
3.57361	0.828
3.61273	0.831
3.65185	0.842
3.69097	0.852
3.73009	0.86
3.76921	0.863
3.80832	0.866
3.84744	0.871
3.88656	0.878
3.92568	0.878
3.9648	0.881
4.00392	0.878
4.04303	0.889
4.08215	0.895
4.12127	0.898
4.16039	0.902
4.19951	0.902
4.23863	0.879
4.27774	0.879
4.31686	0.881
4.35598	0.89
4.3951	0.903
4.43422	0.908
4.47334	0.913
4.51245	0.919
4.55157	0.914
4.59069	0.9
4.62981	0.902
4.66893	0.908
4.70805	0.911
4.74716	0.906
4.78628	0.902
4.8254	0.902
4.86452	0.905
4.90364	0.91
4.94275	0.906
4.98187	0.9
5.02099	0.895
5.06011	0.908
5.09923	0.894
5.13835	0.906
5.17746	0.881
5.21658	0.887
5.2557	0.897
5.29482	0.908
5.33394	0.908
5.37306	0.9
5.41217	0.895
5.45129	0.902
5.49041	0.874
5.52953	0.889
5.56865	0.9
5.60777	0.878
5.64688	0.812
5.686	0.804
5.72512	0.77
5.76424	0.63
5.80336	0.443
5.84248	0.133
5.88159	0.101
5.92071	0.486
5.95983	0.73
5.99895	0.781
6.03807	0.8
6.07719	0.791
6.1163	0.739
6.15542	0.505
6.19454	0.447
6.23366	0.622
6.27278	0.441
6.3119	0.272
6.35101	0.441
6.39013	0.433
6.42925	0.357
6.46837	0.365
6.50749	0.483
6.54661	0.467
6.58572	0.396
6.62484	0.479
6.66396	0.613
6.70308	0.465
6.7422	0.197
6.78132	0.373
6.82043	0.446
6.85955	0.656
6.89867	0.634
6.93779	0.491
6.97691	0.2
7.01603	0.191
7.05514	0.555
7.09426	0.581
7.13338	0.504
7.1725	0.375
7.21162	0.256
7.25074	0.28
7.28985	0.321
7.32897	0.181
7.36809	0.409
7.40721	0.595
7.44633	0.585
7.48545	0.401
7.52456	0.467
7.56368	0.504
7.6028	0.444
7.64192	0.359
7.68104	0.195
7.72015	0.033
7.75927	0.126
7.79839	0.211
7.83751	0.359
7.87663	0.508
7.91575	0.455
7.95486	0.279
7.99398	0.157
8.0331	0.085
8.07222	0.139
8.11134	0.285
8.15046	0.343
8.18957	0.349
8.22869	0.314
8.26781	0.231
8.30693	0.134
8.34605	0.123
8.38517	0.272
8.42428	0.338
8.4634	0.293
8.50252	0.216
8.54164	0.29
8.58076	0.487
8.61988	0.351
8.65899	0.171
8.69811	0.581
8.73723	0.719
8.77635	0.696
8.81547	0.55
8.85459	0.402
8.8937	0.24
8.93282	0.11
8.97194	0.104
9.01106	0.447
9.05018	0.629
9.0893	0.735
9.12841	0.781
9.16753	0.802
9.20665	0.812
9.24577	0.817
9.28489	0.815
9.32401	0.784
9.36312	0.725
9.40224	0.593
9.44136	0.38
9.48048	0.118
9.5196	0.016
9.55872	0.014
9.59783	0.096
9.63695	0.303
9.67607	0.362
9.71519	0.476
9.75431	0.605
9.79343	0.682
9.83254	0.756
9.87166	0.78
9.91078	0.808
9.9499	0.833
9.98902	0.849
10.0281	0.868
10.0673	0.873
10.1064	0.878
10.1455	0.876
10.1846	0.868
10.2237	0.861
10.2628	0.868
10.302	0.868
10.3411	0.858
10.3802	0.861
10.4193	0.873
10.4584	0.866
10.4976	0.844
10.5367	0.842
10.5758	0.866
10.6149	0.847
10.654	0.792
10.6931	0.727
10.7323	0.797
10.7714	0.849
10.8105	0.863
10.8496	0.866
10.8887	0.869
10.9279	0.868
10.967	0.866
11.0061	0.863
11.0452	0.863
11.0843	0.858
11.1234	0.857
11.1626	0.844
11.2017	0.828
11.2408	0.812
11.2799	0.794
11.319	0.768
11.3582	0.741
11.3973	0.691
11.4364	0.589
11.4755	0.465
11.5146	0.33
11.5537	0.329
11.5929	0.341
11.632	0.341
11.6711	0.476
11.7102	0.582
11.7493	0.621
11.7885	0.653
11.8276	0.682
11.8667	0.685
11.9058	0.653
11.9449	0.574
11.9841	0.502
12.0232	0.454
12.0623	0.402
12.1014	0.34
12.1405	0.34
12.1796	0.455
12.2188	0.617
12.2579	0.701
12.297	0.76
12.3361	0.776
12.3752	0.781
12.4144	0.788
12.4535	0.789
12.4926	0.791
12.5317	0.788
12.5708	0.781
12.6099	0.775
12.6491	0.765
12.6882	0.751
12.7273	0.746
12.7664	0.749
12.8055	0.752
12.8447	0.741
12.8838	0.715
12.9229	0.661
12.962	0.605
13.0011	0.571
13.0402	0.548
13.0794	0.497
13.1185	0.373
13.1576	0.21
13.1967	0.083
13.2358	0.027
13.275	0.054
13.3141	0.202
13.3532	0.418
13.3923	0.568
13.4314	0.642
13.4705	0.686
13.5097	0.72
13.5488	0.739
13.5879	0.746
13.627	0.747
13.6661	0.743
13.7053	0.731
13.7444	0.715
13.7835	0.682
13.8226	0.622
13.8617	0.552
13.9008	0.531
13.94	0.552
13.9791	0.579
14.0182	0.582
14.0573	0.568
14.0964	0.56
14.1356	0.565
14.1747	0.569
14.2138	0.552
14.2529	0.504
14.292	0.438
14.3311	0.327
14.3703	0.256
14.4094	0.253
14.4485	0.304
14.4876	0.373
14.5267	0.415
14.5659	0.43
14.605	0.425
14.6441	0.406
14.6832	0.382
14.7223	0.353
14.7615	0.322
14.8006	0.293
14.8397	0.268
14.8788	0.25
14.9179	0.24
14.957	0.232
14.9962	0.231
15.0353	0.229
15.0744	0.229
15.1135	0.231
15.1526	0.235
15.1918	0.24
15.2309	0.245
15.27	0.25
15.3091	0.258
15.3482	0.268
15.3873	0.272
15.4265	0.277
15.4656	0.284
15.5047	0.288
15.5438	0.284
15.5829	0.269
15.6221	0.242
15.6612	0.211
15.7003	0.194
15.7394	0.186
15.7785	0.187
15.8176	0.202
15.8568	0.211
15.8959	0.205
15.935	0.215
