Infrared Spectrum: BENZOIC ACID, 2-(3-BUTYL-3-METHYL-1-TRIAZENO)-, HYDRAZIDE
Formula: C12 H19 N5 O
CAS: 116466-08-1
State: SOLID (1 mg / 650 mg KBr DISC)
Class: COBLENTZ III
Instrument: PERKIN-ELMER 521 (GRATING)
Instrument parameters: FILTERS AT 3150, 2500, 2000, 1150, 700, 410 CM ^-^1, GRATING CHANGES AT 2000, 630 CM ^-^1
Sampling: TRANSMISSION
Resolution: 4
Origin: SOUTHERN RES. INSTITUTE
1/CM	TRANSMITTANCE
247.149	0.219
256.394	0.247
265.639	0.312
274.884	0.378
284.129	0.44
293.374	0.497
302.619	0.542
311.864	0.575
321.109	0.589
330.354	0.6
339.599	0.615
348.844	0.633
358.089	0.622
367.334	0.605
376.579	0.721
385.824	0.782
395.069	0.81
404.314	0.82
413.559	0.838
422.804	0.855
432.049	0.857
441.294	0.859
450.539	0.861
459.784	0.866
469.029	0.872
478.274	0.889
487.519	0.894
496.764	0.894
506.009	0.895
515.254	0.894
524.499	0.884
533.744	0.859
542.989	0.766
552.234	0.869
561.479	0.887
570.724	0.877
579.969	0.863
589.214	0.83
598.459	0.61
607.704	0.733
616.949	0.709
626.194	0.688
635.439	0.715
644.684	0.791
653.929	0.847
663.174	0.874
672.419	0.869
681.664	0.864
690.909	0.915
700.154	0.924
709.399	0.935
718.644	0.938
727.889	0.932
737.134	0.901
746.379	0.908
755.624	0.661
764.869	0.573
774.114	0.931
783.359	0.92
792.604	0.867
801.849	0.898
811.093	0.938
820.338	0.938
829.583	0.927
838.828	0.938
848.073	0.938
857.318	0.928
866.563	0.902
875.808	0.855
885.053	0.848
894.298	0.894
903.543	0.896
912.788	0.87
922.033	0.894
931.278	0.864
940.523	0.8
949.768	0.597
959.013	0.675
968.258	0.847
977.503	0.895
986.748	0.895
995.993	0.894
1005.24	0.892
1014.48	0.888
1023.73	0.88
1032.97	0.871
1042.22	0.85
1051.46	0.84
1060.71	0.768
1069.95	0.688
1079.2	0.81
1088.44	0.706
1097.69	0.742
1106.93	0.784
1116.18	0.73
1125.42	0.65
1134.67	0.85
1143.91	0.846
1153.16	0.711
1162.4	0.807
1171.65	0.824
1180.89	0.824
1190.14	0.719
1199.38	0.561
1208.63	0.749
1217.87	0.834
1227.12	0.835
1236.36	0.819
1245.61	0.776
1254.85	0.695
1264.1	0.747
1273.34	0.715
1282.59	0.612
1291.83	0.531
1301.08	0.6
1310.32	0.65
1319.57	0.631
1328.81	0.6
1338.06	0.559
1347.3	0.38
1356.55	0.261
1365.79	0.425
1375.04	0.277
1384.28	0.58
1393.53	0.741
1402.77	0.828
1412.02	0.828
1421.26	0.494
1430.51	0.666
1439.75	0.567
1449	0.749
1458.24	0.668
1467.49	0.406
1476.73	0.637
1485.98	0.546
1495.22	0.732
1504.47	0.837
1513.71	0.838
1522.96	0.776
1532.2	0.683
1541.45	0.607
1550.69	0.67
1559.94	0.608
1569.18	0.769
1578.43	0.718
1587.67	0.525
1596.92	0.376
1606.16	0.445
1615.41	0.593
1624.65	0.694
1633.9	0.657
1643.14	0.413
1652.39	0.57
1661.63	0.749
1670.88	0.859
1680.12	0.918
1689.37	0.949
1698.61	0.959
1707.86	0.968
1717.1	0.971
1726.35	0.972
1735.59	0.977
1744.84	0.979
1754.08	0.982
1763.33	0.989
1772.57	0.992
1781.82	0.994
1791.06	0.993
1800.31	0.992
1809.55	0.989
1818.8	0.986
1828.04	0.982
1837.29	0.975
1846.53	0.98
1855.78	0.976
1865.02	0.981
1874.27	0.983
1883.51	0.981
1892.76	0.979
1902	0.977
1911.25	0.974
1920.49	0.971
1929.74	0.967
1938.98	0.959
1948.23	0.971
1957.47	0.964
1966.72	0.97
1975.96	0.974
1985.21	0.974
1994.45	0.967
2003.7	0.962
2012.94	0.959
2022.19	0.959
2031.43	0.958
2040.68	0.957
2049.92	0.957
2059.17	0.957
2068.41	0.957
2077.66	0.957
2086.9	0.957
2096.15	0.956
2105.39	0.955
2114.64	0.955
2123.88	0.955
2133.13	0.955
2142.37	0.955
2151.62	0.954
2160.86	0.953
2170.11	0.952
2179.35	0.952
2188.6	0.951
2197.84	0.949
2207.09	0.947
2216.33	0.946
2225.58	0.945
2234.82	0.945
2244.07	0.944
2253.31	0.943
2262.56	0.942
2271.8	0.942
2281.05	0.942
2290.29	0.942
2299.54	0.941
2308.78	0.939
2318.03	0.937
2327.27	0.935
2336.52	0.935
2345.76	0.934
2355.01	0.932
2364.25	0.932
2373.5	0.932
2382.74	0.932
2391.99	0.93
2401.23	0.929
2410.48	0.928
2419.72	0.926
2428.97	0.924
2438.21	0.922
2447.46	0.92
2456.7	0.92
2465.95	0.921
2475.19	0.919
2484.44	0.917
2493.68	0.915
2502.93	0.913
2512.17	0.911
2521.42	0.91
2530.66	0.908
2539.91	0.907
2549.15	0.906
2558.4	0.905
2567.64	0.905
2576.89	0.904
2586.13	0.903
2595.38	0.902
2604.62	0.901
2613.87	0.901
2623.11	0.901
2632.36	0.9
2641.6	0.898
2650.85	0.898
2660.09	0.897
2669.34	0.894
2678.58	0.892
2687.83	0.89
2697.07	0.885
2706.32	0.882
2715.56	0.879
2724.81	0.877
2734.05	0.877
2743.3	0.876
2752.54	0.874
2761.79	0.872
2771.03	0.871
2780.28	0.869
2789.52	0.866
2798.77	0.862
2808.01	0.851
2817.26	0.844
2826.5	0.833
2835.75	0.821
2844.99	0.794
2854.24	0.762
2863.48	0.735
2872.73	0.722
2881.97	0.784
2891.22	0.786
2900.46	0.758
2909.71	0.711
2918.95	0.692
2928.2	0.62
2937.44	0.661
2946.69	0.704
2955.93	0.587
2965.18	0.624
2974.42	0.794
2983.67	0.843
2992.91	0.841
3002.16	0.848
3011.4	0.85
3020.65	0.847
3029.89	0.837
3039.14	0.833
3048.38	0.826
3057.63	0.814
3066.87	0.81
3076.12	0.822
3085.36	0.828
3094.61	0.827
3103.85	0.823
3113.1	0.819
3122.34	0.815
3131.59	0.796
3140.83	0.788
3150.08	0.776
3159.32	0.762
3168.57	0.743
3177.81	0.721
3187.06	0.697
3196.3	0.67
3205.55	0.648
3214.79	0.623
3224.04	0.58
3233.28	0.564
3242.53	0.58
3251.77	0.608
3261.02	0.636
3270.26	0.655
3279.51	0.664
3288.75	0.655
3298	0.613
3307.24	0.437
3316.49	0.598
3325.73	0.779
3334.98	0.806
3344.22	0.81
3353.47	0.81
3362.71	0.808
3371.96	0.806
3381.2	0.802
3390.45	0.8
3399.69	0.796
3408.94	0.793
3418.18	0.792
3427.43	0.793
3436.67	0.794
3445.92	0.795
3455.16	0.796
3464.41	0.797
3473.65	0.798
3482.9	0.8
3492.14	0.801
3501.39	0.803
3510.63	0.806
3519.88	0.81
3529.12	0.813
3538.37	0.818
3547.61	0.822
3556.86	0.825
3566.1	0.828
3575.35	0.832
3584.59	0.836
3593.84	0.84
3603.08	0.844
3612.33	0.847
3621.57	0.85
3630.82	0.852
3640.06	0.854
3649.31	0.854
3658.55	0.853
3667.8	0.854
3677.04	0.854
3686.29	0.855
3695.53	0.856
3704.78	0.857
3714.02	0.857
3723.27	0.857
3732.51	0.857
3741.76	0.856
3751	0.856
3760.25	0.855
3769.49	0.855
3778.74	0.854
3787.98	0.854
3797.23	0.852
