Infrared Spectrum: 4(3H)-PYRIMIDINONE, 6-AMINO-2-CHLORO-5-NITRO-
Formula: C4 H3 Cl N4 O3
CAS: 116434-77-6
State: SOLID (0.7 mg / 650 KBr DISC)
Class: COBLENTZ III
Instrument: PERKIN-ELMER 21 (GRATING)
Instrument parameters: FILTER CHANGE AT ABOUT 1090 CM^-^1.
Sampling: TRANSMISSION
Resolution: 2
Origin: SOUTHERN RESEARCH INSTITUTE
1/CM	TRANSMITTANCE
614.88	0.864
623.949	0.8504
633.018	0.8314
642.086	0.8187
651.155	0.886
660.224	0.8815
669.293	0.8726
678.362	0.723
687.431	0.75
696.499	0.7522
705.568	0.8051
714.637	0.84
723.706	0.8617
732.775	0.8712
741.844	0.8583
750.912	0.8676
759.981	0.8197
769.05	0.7296
778.119	0.7626
787.188	0.7808
796.257	0.6987
805.325	0.1802
814.394	0.8033
823.463	0.8805
832.532	0.887
841.601	0.8713
850.67	0.8776
859.738	0.882
868.807	0.884
877.876	0.884
886.945	0.884
896.014	0.8809
905.083	0.876
914.151	0.8642
923.22	0.8505
932.289	0.8412
941.358	0.8214
950.427	0.785
959.496	0.7472
968.564	0.6417
977.633	0.1791
986.702	0.4671
995.771	0.8092
1004.84	0.813
1013.91	0.8015
1022.98	0.763
1032.05	0.6912
1041.11	0.5598
1050.18	0.744
1059.25	0.811
1068.32	0.8083
1077.39	0.8009
1086.46	0.783
1095.53	0.7687
1104.6	0.752
1113.67	0.7334
1122.73	0.7166
1131.8	0.6941
1140.87	0.6655
1149.94	0.6374
1159.01	0.576
1168.08	0.568
1177.15	0.5793
1186.22	0.604
1195.29	0.603
1204.35	0.5832
1213.42	0.5128
1222.49	0.3927
1231.56	0.2539
1240.63	0.2879
1249.7	0.412
1258.77	0.3598
1267.84	0.1771
1276.9	0.0796
1285.97	0.0386
1295.04	0.0483
1304.11	0.1034
1313.18	0.1823
1322.25	0.35
1331.32	0.4809
1340.39	0.5408
1349.46	0.562
1358.52	0.583
1367.59	0.5714
1376.66	0.556
1385.73	0.5465
1394.8	0.5279
1403.87	0.4717
1412.94	0.4198
1422.01	0.4064
1431.07	0.4773
1440.14	0.4723
1449.21	0.4197
1458.28	0.2821
1467.35	0.1446
1476.42	0.0776
1485.49	0.0698
1494.56	0.1211
1503.63	0.2132
1512.69	0.1813
1521.76	0.1365
1530.83	0.1299
1539.9	0.1592
1548.97	0.1651
1558.04	0.1563
1567.11	0.1439
1576.18	0.0949
1585.24	0.0339
1594.31	0.033
1603.38	0.1006
1612.45	0.1495
1621.52	0.195
1630.59	0.1372
1639.66	0.092
1648.73	0.1417
1657.8	0.1674
1666.86	0.234
1675.93	0.3839
1685	0.4627
1694.07	0.5208
1703.14	0.5957
1712.21	0.6454
1721.28	0.6748
1730.35	0.7075
1739.41	0.7335
1748.48	0.7619
1757.55	0.8123
1766.62	0.8262
1775.69	0.8333
1784.76	0.841
1793.83	0.854
1802.9	0.8589
1811.97	0.8638
1821.03	0.876
1830.1	0.8764
1839.17	0.882
1848.24	0.88
1857.31	0.886
1866.38	0.882
1875.45	0.8861
1884.52	0.887
1893.58	0.8869
1902.65	0.887
1911.72	0.886
1920.79	0.886
1929.86	0.889
1938.93	0.889
1948	0.889
1957.07	0.889
1966.14	0.887
1975.2	0.885
1984.27	0.882
1993.34	0.882
2002.41	0.881
2011.48	0.8801
2020.55	0.88
2029.62	0.877
2038.69	0.875
2047.76	0.871
2056.82	0.8671
2065.89	0.8641
2074.96	0.8603
2084.03	0.8531
2093.1	0.8461
2102.17	0.844
2111.24	0.8383
2120.31	0.835
2129.37	0.8281
2138.44	0.826
2147.51	0.824
2156.58	0.8257
2165.65	0.8289
2174.72	0.8379
2183.79	0.838
2192.86	0.832
2201.93	0.836
2210.99	0.833
2220.06	0.8263
2229.13	0.8231
2238.2	0.82
2247.27	0.817
2256.34	0.813
2265.41	0.8139
2274.48	0.8189
2283.54	0.823
2292.61	0.823
2301.68	0.8181
2310.75	0.817
2319.82	0.811
2328.89	0.807
2337.96	0.7971
2347.03	0.788
2356.1	0.7803
2365.16	0.777
2374.23	0.7767
2383.3	0.7799
2392.37	0.7839
2401.44	0.788
2410.51	0.788
2419.58	0.786
2428.65	0.7803
2437.71	0.78
2446.78	0.782
2455.85	0.782
2464.92	0.7779
2473.99	0.7731
2483.06	0.771
2492.13	0.771
2501.2	0.77
2510.27	0.7654
2519.33	0.762
2528.4	0.7521
2537.47	0.752
2546.54	0.753
2555.61	0.7484
2564.68	0.743
2573.75	0.739
2582.82	0.738
2591.88	0.739
2600.95	0.7381
2610.02	0.7233
2619.09	0.719
2628.16	0.7043
2637.23	0.7029
2646.3	0.7079
2655.37	0.708
2664.44	0.708
2673.5	0.708
2682.57	0.7061
2691.64	0.701
2700.71	0.6954
2709.78	0.6903
2718.85	0.6863
2727.92	0.6773
2736.99	0.6761
2746.05	0.6631
2755.12	0.6581
2764.19	0.6366
2773.26	0.6251
2782.33	0.625
2791.4	0.621
2800.47	0.6121
2809.54	0.6051
2818.61	0.6027
2827.67	0.5991
2836.74	0.5863
2845.81	0.585
2854.88	0.5781
2863.95	0.5721
2873.02	0.5653
2882.09	0.559
2891.16	0.5501
2900.23	0.5367
2909.29	0.5061
2918.36	0.4883
2927.43	0.4796
2936.5	0.4691
2945.57	0.461
2954.64	0.4346
2963.71	0.4184
2972.78	0.4031
2981.84	0.3951
2990.91	0.3734
2999.98	0.3641
3009.05	0.3581
3018.12	0.3501
3027.19	0.3383
3036.26	0.3293
3045.33	0.3173
3054.4	0.2974
3063.46	0.2823
3072.53	0.2643
3081.6	0.2471
3090.67	0.2138
3099.74	0.1954
3108.81	0.18
3117.88	0.17
3126.95	0.1787
3136.01	0.1889
3145.08	0.198
3154.15	0.2119
3163.22	0.2249
3172.29	0.2289
3181.36	0.2526
3190.43	0.2707
3199.5	0.2817
3208.57	0.296
3217.63	0.296
3226.7	0.2911
3235.77	0.286
3244.84	0.284
3253.91	0.3006
3262.98	0.3234
3272.05	0.3449
3281.12	0.3723
3290.18	0.4029
3299.25	0.4196
3308.32	0.426
3317.39	0.43
3326.46	0.434
3335.53	0.434
3344.6	0.4233
3353.67	0.4146
3362.74	0.403
3371.8	0.4
3380.87	0.3866
3389.94	0.3537
3399.01	0.3121
3408.08	0.2433
3417.15	0.1989
3426.22	0.2689
3435.29	0.4194
3444.35	0.487
3453.42	0.49
3462.49	0.488
3471.56	0.4793
3480.63	0.4723
3489.7	0.4571
3498.77	0.4369
3507.84	0.3937
3516.91	0.3235
3525.97	0.256
3535.04	0.1913
3544.11	0.175
3553.18	0.198
3562.25	0.2629
3571.32	0.3322
3580.39	0.4472
3589.46	0.5316
3598.52	0.6077
3607.59	0.6649
3616.66	0.7036
3625.73	0.7217
3634.8	0.7379
3643.87	0.7586
3652.94	0.7623
3662.01	0.7659
3671.08	0.773
3680.14	0.777
3689.21	0.783
3698.28	0.7804
3707.35	0.778
3716.42	0.778
3725.49	0.782
3734.56	0.7781
3743.63	0.769
3752.7	0.7709
3761.76	0.7713
3770.83	0.768
3779.9	0.768
3788.97	0.7651
3798.04	0.7624
3807.11	0.7561
3816.18	0.753
3825.25	0.76
3834.31	0.7461
3843.38	0.7497
3852.45	0.747
3861.52	0.7443
3870.59	0.746
3879.66	0.747
3888.73	0.746
3897.8	0.7431
3906.87	0.74
3915.93	0.738
3925	0.737
3934.07	0.735
3943.14	0.738
3952.21	0.7291
3961.28	0.7289
3970.35	0.7301
3979.42	0.7276
3988.48	0.724
3997.55	0.724
4006.62	0.724
