Infrared Spectrum: CYCLOHEXANETHIOL, 2-(6-PURINYLAMINO)-, HYDROCHLORIDE
Formula: C11 H16 Cl N5 S
CAS: 116402-72-3
State: SOLID (1 mg / 650 mg KBr DISC)
Class: COBLENTZ III
Instrument: PERKIN-ELMER 521 (GRATING)
Instrument parameters: FILTERS AT 3150, 2500, 2000, 1150, 700, 410 CM ^-^1, GRATING CHANGES AT 2000, 630 CM ^-^1
Sampling: TRANSMISSION
Resolution: 4
Origin: SOUTHERN RES. INSTITUTE
1/CM	TRANSMITTANCE
236.608	0.225
245.808	0.242
255.008	0.287
264.207	0.417
273.407	0.457
282.607	0.51
291.807	0.574
301.007	0.588
310.206	0.582
319.406	0.624
328.606	0.716
337.806	0.751
347.006	0.77
356.206	0.79
365.405	0.807
374.605	0.823
383.805	0.848
393.005	0.852
402.205	0.854
411.404	0.854
420.604	0.851
429.804	0.848
439.004	0.857
448.204	0.859
457.403	0.848
466.603	0.87
475.803	0.873
485.003	0.855
494.203	0.851
503.402	0.859
512.602	0.832
521.802	0.675
531.002	0.761
540.202	0.876
549.401	0.873
558.601	0.839
567.801	0.741
577.001	0.833
586.201	0.846
595.401	0.805
604.6	0.688
613.8	0.646
623	0.867
632.2	0.852
641.4	0.845
650.599	0.778
659.799	0.848
668.999	0.819
678.199	0.851
687.399	0.846
696.598	0.82
705.798	0.801
714.998	0.78
724.198	0.744
733.398	0.747
742.597	0.772
751.797	0.757
760.997	0.652
770.197	0.414
779.397	0.81
788.596	0.76
797.796	0.727
806.996	0.699
816.196	0.639
825.396	0.635
834.596	0.662
843.795	0.716
852.995	0.753
862.195	0.781
871.395	0.78
880.595	0.752
889.794	0.725
898.994	0.745
908.194	0.791
917.394	0.824
926.594	0.812
935.793	0.702
944.993	0.804
954.193	0.741
963.393	0.807
972.593	0.88
981.792	0.873
990.992	0.855
1000.19	0.831
1009.39	0.811
1018.59	0.782
1027.79	0.698
1036.99	0.76
1046.19	0.78
1055.39	0.792
1064.59	0.81
1073.79	0.804
1082.99	0.785
1092.19	0.768
1101.39	0.757
1110.59	0.738
1119.79	0.75
1128.99	0.692
1138.19	0.672
1147.39	0.761
1156.59	0.755
1165.79	0.779
1174.99	0.794
1184.19	0.759
1193.39	0.636
1202.59	0.429
1211.79	0.289
1220.99	0.632
1230.19	0.814
1239.39	0.805
1248.59	0.79
1257.79	0.755
1266.99	0.709
1276.19	0.651
1285.39	0.618
1294.59	0.746
1303.79	0.735
1312.99	0.717
1322.19	0.695
1331.39	0.628
1340.58	0.52
1349.78	0.402
1358.98	0.555
1368.18	0.548
1377.38	0.451
1386.58	0.414
1395.78	0.307
1404.98	0.323
1414.18	0.633
1423.38	0.58
1432.58	0.497
1441.78	0.383
1450.98	0.236
1460.18	0.217
1469.38	0.301
1478.58	0.552
1487.78	0.512
1496.98	0.69
1506.18	0.58
1515.38	0.507
1524.58	0.723
1533.78	0.753
1542.98	0.743
1552.18	0.708
1561.38	0.662
1570.58	0.59
1579.78	0.542
1588.98	0.57
1598.18	0.536
1607.38	0.429
1616.58	0.372
1625.78	0.35
1634.98	0.305
1644.18	0.2
1653.38	0.082
1662.58	0.083
1671.78	0.17
1680.98	0.347
1690.18	0.599
1699.38	0.744
1708.58	0.809
1717.78	0.854
1726.98	0.872
1736.18	0.878
1745.38	0.88
1754.58	0.879
1763.78	0.88
1772.98	0.878
1782.18	0.875
1791.38	0.87
1800.58	0.864
1809.78	0.863
1818.97	0.879
1828.17	0.889
1837.37	0.895
1846.57	0.899
1855.77	0.899
1864.97	0.895
1874.17	0.893
1883.37	0.892
1892.57	0.89
1901.77	0.889
1910.97	0.887
1920.17	0.886
1929.37	0.884
1938.57	0.881
1947.77	0.878
1956.97	0.873
1966.17	0.865
1975.37	0.866
1984.57	0.869
1993.77	0.872
2002.97	0.87
2012.17	0.869
2021.37	0.867
2030.57	0.864
2039.77	0.862
2048.97	0.859
2058.17	0.858
2067.37	0.856
2076.57	0.854
2085.77	0.852
2094.97	0.85
2104.17	0.845
2113.37	0.842
2122.57	0.839
2131.77	0.836
2140.97	0.834
2150.17	0.831
2159.37	0.823
2168.57	0.817
2177.77	0.813
2186.97	0.81
2196.17	0.806
2205.37	0.8
2214.57	0.792
2223.77	0.785
2232.97	0.782
2242.17	0.775
2251.37	0.766
2260.57	0.76
2269.77	0.753
2278.97	0.745
2288.17	0.736
2297.36	0.728
2306.56	0.709
2315.76	0.698
2324.96	0.687
2334.16	0.679
2343.36	0.67
2352.56	0.662
2361.76	0.66
2370.96	0.651
2380.16	0.646
2389.36	0.636
2398.56	0.624
2407.76	0.616
2416.96	0.605
2426.16	0.599
2435.36	0.593
2444.56	0.58
2453.76	0.561
2462.96	0.546
2472.16	0.526
2481.36	0.51
2490.56	0.496
2499.76	0.483
2508.96	0.472
2518.16	0.46
2527.36	0.451
2536.56	0.431
2545.76	0.415
2554.96	0.437
2564.16	0.441
2573.36	0.432
2582.56	0.425
2591.76	0.404
2600.96	0.388
2610.16	0.384
2619.36	0.388
2628.56	0.381
2637.76	0.365
2646.96	0.359
2656.16	0.357
2665.36	0.355
2674.56	0.348
2683.76	0.336
2692.96	0.324
2702.16	0.318
2711.36	0.316
2720.56	0.317
2729.76	0.318
2738.96	0.321
2748.16	0.324
2757.36	0.328
2766.56	0.331
2775.75	0.334
2784.95	0.343
2794.15	0.35
2803.35	0.359
2812.55	0.365
2821.75	0.366
2830.95	0.355
2840.15	0.311
2849.35	0.277
2858.55	0.31
2867.75	0.35
2876.95	0.349
2886.15	0.337
2895.35	0.315
2904.55	0.285
2913.75	0.249
2922.95	0.217
2932.15	0.194
2941.35	0.227
2950.55	0.272
2959.75	0.308
2968.95	0.336
2978.15	0.351
2987.35	0.356
2996.55	0.354
3005.75	0.343
3014.95	0.339
3024.15	0.34
3033.35	0.346
3042.55	0.353
3051.75	0.369
3060.95	0.407
3070.15	0.4
3079.35	0.379
3088.55	0.36
3097.75	0.392
3106.95	0.419
3116.15	0.438
3125.35	0.447
3134.55	0.451
3143.75	0.461
3152.95	0.481
3162.15	0.507
3171.35	0.526
3180.55	0.532
3189.75	0.533
3198.95	0.536
3208.15	0.543
3217.35	0.564
3226.55	0.576
3235.75	0.579
3244.95	0.595
3254.14	0.634
3263.34	0.663
3272.54	0.684
3281.74	0.709
3290.94	0.73
3300.14	0.743
3309.34	0.753
3318.54	0.758
3327.74	0.764
3336.94	0.765
3346.14	0.76
3355.34	0.753
3364.54	0.744
3373.74	0.737
3382.94	0.731
3392.14	0.725
3401.34	0.722
3410.54	0.719
3419.74	0.718
3428.94	0.719
3438.14	0.721
3447.34	0.724
3456.54	0.728
3465.74	0.732
3474.94	0.736
3484.14	0.741
3493.34	0.745
3502.54	0.75
3511.74	0.755
3520.94	0.763
3530.14	0.771
3539.34	0.781
3548.54	0.787
3557.74	0.795
3566.94	0.801
3576.14	0.807
3585.34	0.813
3594.54	0.824
3603.74	0.832
3612.94	0.837
3622.14	0.842
3631.34	0.848
3640.54	0.851
3649.74	0.854
3658.94	0.856
3668.14	0.853
3677.34	0.851
3686.54	0.854
3695.74	0.857
3704.94	0.859
3714.14	0.859
3723.34	0.857
3732.53	0.855
3741.73	0.853
3750.93	0.851
3760.13	0.853
3769.33	0.854
3778.53	0.854
3787.73	0.852
3796.93	0.851
3806.13	0.851
