Infrared Spectrum: 2-(N,N-DI-n-HEXYLAMINO)-3-(n-HEPTYL)PYRAZINE
Formula: C23 H43 N3
CAS: 116403-05-5
State: LIQUID
Class: COBLENTZ
Instrument: Not specified, most likely a prism, grating, or hybrid spectrometer.
Sampling: TRANSMISSION
Path length: 0.0015 CM
Resolution: 4
Origin: WYANDOTTE CHEMICALS CORP., WYANDOTTE, MICHIGAN, USA
MICROMETERS	TRANSMITTANCE
2.033	0.981
2.07287	0.981
2.11274	0.98
2.15261	0.968
2.19247	0.93
2.23234	0.918
2.27221	0.92
2.31208	0.923
2.35195	0.928
2.39182	0.933
2.43169	0.943
2.47155	0.95
2.51142	0.958
2.55129	0.961
2.59116	0.971
2.63103	0.971
2.6709	0.97
2.71077	0.966
2.75064	0.963
2.7905	0.958
2.83037	0.94
2.87024	0.938
2.91011	0.932
2.94998	0.928
2.98985	0.925
3.02972	0.918
3.06958	0.91
3.10945	0.9
3.14932	0.883
3.18919	0.857
3.22906	0.814
3.26893	0.543
3.3088	0.489
3.34866	0.059
3.38853	0.054
3.4284	0.077
3.46827	0.066
3.50814	0.245
3.54801	0.593
3.58788	0.733
3.62775	0.787
3.66761	0.774
3.70748	0.809
3.74735	0.809
3.78722	0.845
3.82709	0.868
3.86696	0.88
3.90683	0.888
3.94669	0.908
3.98656	0.917
4.02643	0.918
4.0663	0.917
4.10617	0.913
4.14604	0.912
4.18591	0.91
4.22577	0.905
4.26564	0.908
4.30551	0.917
4.34538	0.918
4.38525	0.92
4.42512	0.927
4.46499	0.932
4.50486	0.933
4.54472	0.935
4.58459	0.936
4.62446	0.936
4.66433	0.933
4.7042	0.936
4.74407	0.94
4.78394	0.943
4.8238	0.948
4.86367	0.948
4.90354	0.948
4.94341	0.941
4.98328	0.946
5.02315	0.946
5.06302	0.948
5.10288	0.95
5.14275	0.955
5.18262	0.951
5.22249	0.95
5.26236	0.941
5.30223	0.935
5.3421	0.928
5.38197	0.948
5.42183	0.946
5.4617	0.948
5.50157	0.948
5.54144	0.941
5.58131	0.93
5.62118	0.92
5.66105	0.917
5.70091	0.917
5.74078	0.912
5.78065	0.88
5.82052	0.873
5.86039	0.868
5.90026	0.845
5.94013	0.844
5.97999	0.854
6.01986	0.839
6.05973	0.837
6.0996	0.83
6.13947	0.825
6.17934	0.82
6.21921	0.809
6.25907	0.8
6.29894	0.757
6.33881	0.64
6.37868	0.605
6.41855	0.696
6.45842	0.681
6.49829	0.411
6.53816	0.278
6.57802	0.553
6.61789	0.676
6.65776	0.611
6.69763	0.527
6.7375	0.394
6.77737	0.076
6.81724	0.114
6.8571	0.169
6.89697	0.237
6.93684	0.268
6.97671	0.215
7.01658	0.106
7.05645	0.079
7.09632	0.233
7.13618	0.399
7.17605	0.439
7.21592	0.195
7.25579	0.107
7.29566	0.19
7.33553	0.288
7.3754	0.316
7.41527	0.358
7.45513	0.437
7.495	0.53
7.53487	0.56
7.57474	0.547
7.61461	0.495
7.65448	0.459
7.69435	0.436
7.73421	0.437
7.77408	0.487
7.81395	0.502
7.85382	0.515
7.89369	0.477
7.93356	0.419
7.97343	0.399
8.01329	0.543
8.05316	0.575
8.09303	0.537
8.1329	0.51
8.17277	0.53
8.21264	0.52
8.25251	0.507
8.29238	0.477
8.33224	0.462
8.37211	0.462
8.41198	0.462
8.45185	0.409
8.49172	0.359
8.53159	0.348
8.57146	0.33
8.61132	0.268
8.65119	0.265
8.69106	0.321
8.73093	0.417
8.7708	0.449
8.81067	0.295
8.85054	0.225
8.8904	0.3
8.93027	0.363
8.97014	0.436
9.01001	0.429
9.04988	0.404
9.08975	0.462
9.12962	0.514
9.16948	0.542
9.20935	0.55
9.24922	0.573
9.28909	0.623
9.32896	0.658
9.36883	0.688
9.4087	0.711
9.44857	0.718
9.48843	0.721
9.5283	0.734
9.56817	0.759
9.60804	0.764
9.64791	0.749
9.68778	0.729
9.72765	0.718
9.76751	0.716
9.80738	0.714
9.84725	0.721
9.88712	0.726
9.92699	0.726
9.96686	0.726
10.0067	0.728
10.0466	0.728
10.0865	0.731
10.1263	0.729
10.1662	0.724
10.2061	0.729
10.2459	0.737
10.2858	0.739
10.3257	0.749
10.3655	0.754
10.4054	0.762
10.4453	0.766
10.4851	0.767
10.525	0.772
10.5649	0.777
10.6048	0.782
10.6446	0.789
10.6845	0.787
10.7244	0.789
10.7642	0.791
10.8041	0.802
10.844	0.812
10.8838	0.827
10.9237	0.829
10.9636	0.834
11.0034	0.839
11.0433	0.84
11.0832	0.84
11.123	0.824
11.1629	0.8
11.2028	0.777
11.2427	0.749
11.2825	0.742
11.3224	0.751
11.3623	0.771
11.4021	0.777
11.442	0.784
11.4819	0.774
11.5217	0.776
11.5616	0.776
11.6015	0.776
11.6413	0.767
11.6812	0.747
11.7211	0.719
11.7609	0.691
11.8008	0.628
11.8407	0.577
11.8806	0.519
11.9204	0.515
11.9603	0.53
12.0002	0.597
12.04	0.65
12.0799	0.718
12.1198	0.771
12.1596	0.807
12.1995	0.83
12.2394	0.847
12.2792	0.852
12.3191	0.854
12.359	0.857
12.3988	0.86
12.4387	0.862
12.4786	0.87
12.5184	0.87
12.5583	0.867
12.5982	0.86
12.6381	0.859
12.6779	0.862
12.7178	0.867
12.7577	0.87
12.7975	0.873
12.8374	0.878
12.8773	0.872
12.9171	0.872
12.957	0.859
12.9969	0.854
13.0367	0.845
13.0766	0.839
13.1165	0.825
13.1563	0.819
13.1962	0.812
13.2361	0.812
13.276	0.819
13.3158	0.82
13.3557	0.822
13.3956	0.822
13.4354	0.82
13.4753	0.819
13.5152	0.81
13.555	0.802
13.5949	0.787
13.6348	0.769
13.6746	0.733
13.7145	0.691
13.7544	0.651
13.7942	0.615
13.8341	0.587
13.874	0.59
13.9139	0.63
13.9537	0.691
13.9936	0.744
14.0335	0.784
14.0733	0.809
14.1132	0.829
14.1531	0.85
14.1929	0.859
14.2328	0.868
14.2727	0.877
14.3125	0.89
14.3524	0.895
14.3923	0.902
14.4321	0.903
14.472	0.908
14.5119	0.917
14.5518	0.92
14.5916	0.92
14.6315	0.922
14.6714	0.923
14.7112	0.925
14.7511	0.93
14.791	0.93
14.8308	0.93
14.8707	0.93
14.9106	0.928
14.9504	0.925
14.9903	0.917
15.0302	0.903
15.07	0.867
15.1099	0.83
15.1498	0.829
15.1896	0.852
15.2295	0.877
15.2694	0.892
15.3093	0.895
15.3491	0.898
15.389	0.893
15.4289	0.892
15.4687	0.885
15.5086	0.887
15.5485	0.882
15.5883	0.878
15.6282	0.873
15.6681	0.87
15.7079	0.86
15.7478	0.85
15.7877	0.849
15.8275	0.829
15.8674	0.829
15.9073	0.827
15.9472	0.819
15.987	0.805
