Infrared Spectrum: 2-PHENYL-4,7-DICHLORO-QUINOLINE
Formula: C15 H9 N Cl2
CAS: 116434-94-7
State: SOLID (1.0% IN KBr PELLET)
Class: COBLENTZ
Instrument: Not specified, most likely a prism, grating, or hybrid spectrometer.
Sampling: TRANSMISSION
Path length: 0.0355 CM
Resolution: 4
Origin: ANDERSON PHYSICAL LABORATORY
1/CM	TRANSMITTANCE
661.682	0.298
670.093	0.2499
678.504	0.301
686.916	0.7988
695.327	0.887
703.738	0.92
712.149	0.922
720.561	0.914
728.972	0.908
737.383	0.88
745.794	0.835
754.205	0.6912
762.617	0.338
771.028	0.4283
779.439	0.8402
787.85	0.871
796.262	0.823
804.673	0.6591
813.084	0.349
821.495	0.6129
829.906	0.767
838.318	0.65
846.729	0.2661
855.14	0.56
863.551	0.424
871.963	0.719
880.374	0.3681
888.785	0.7149
897.196	0.722
905.607	0.47
914.019	0.416
922.43	0.943
930.841	0.931
939.252	0.893
947.664	0.857
956.075	0.845
964.486	0.781
972.897	0.454
981.309	0.8419
989.72	0.902
998.131	0.878
1006.54	0.86
1014.95	0.856
1023.36	0.7721
1031.78	0.653
1040.19	0.865
1048.6	0.823
1057.01	0.754
1065.42	0.623
1073.83	0.4
1082.24	0.286
1090.65	0.8109
1099.07	0.7701
1107.48	0.8989
1115.89	0.928
1124.3	0.914
1132.71	0.905
1141.12	0.862
1149.53	0.847
1157.94	0.809
1166.36	0.769
1174.77	0.851
1183.18	0.7601
1191.59	0.668
1200	0.6821
1208.41	0.8227
1216.82	0.782
1225.23	0.602
1233.65	0.896
1242.06	0.901
1250.47	0.892
1258.88	0.874
1267.29	0.841
1275.7	0.778
1284.11	0.758
1292.52	0.818
1300.94	0.764
1309.35	0.707
1317.76	0.505
1326.17	0.259
1334.58	0.752
1342.99	0.8919
1351.4	0.886
1359.81	0.857
1368.22	0.827
1376.64	0.778
1385.05	0.722
1393.46	0.592
1401.87	0.449
1410.28	0.448
1418.69	0.73
1427.1	0.5231
1435.51	0.6788
1443.93	0.712
1452.34	0.6231
1460.75	0.482
1469.16	0.581
1477.57	0.401
1485.98	0.218
1494.39	0.338
1502.8	0.652
1511.22	0.649
1519.63	0.65
1528.04	0.5211
1536.45	0.4301
1544.86	0.43
1553.27	0.505
1561.68	0.488
1570.09	0.388
1578.51	0.164
1586.92	0.203
1595.33	0.163
1603.74	0.218
1612.15	0.217
1620.56	0.8089
1628.97	0.922
1637.38	0.965
1645.8	0.991
1654.21	1
1662.62	0.985
1671.03	0.953
1679.44	0.935
1687.85	0.92
1696.26	0.92
1704.67	0.914
1713.08	0.898
1721.5	0.889
1729.91	0.889
1738.32	0.887
1746.73	0.871
1755.14	0.866
1763.55	0.869
1771.96	0.883
1780.37	0.884
1788.79	0.874
1797.2	0.865
1805.61	0.865
1814.02	0.862
1822.43	0.851
1830.84	0.847
1839.25	0.845
1847.66	0.839
1856.08	0.835
1864.49	0.818
1872.9	0.802
1881.31	0.788
1889.72	0.779
1898.13	0.775
1906.54	0.781
1914.95	0.793
1923.37	0.796
1931.78	0.785
1940.19	0.785
1948.6	0.785
1957.01	0.776
1965.42	0.766
1973.83	0.767
1982.24	0.763
1990.66	0.761
1999.07	0.766
2007.48	0.76
2015.89	0.7548
2024.3	0.747
2032.71	0.7422
2041.12	0.739
2049.53	0.7359
2057.95	0.7279
2066.36	0.725
2074.77	0.7239
2083.18	0.7196
2091.59	0.7155
2100	0.7106
2108.41	0.7028
2116.82	0.6931
2125.23	0.689
2133.65	0.689
2142.06	0.688
2150.47	0.6874
2158.88	0.6839
2167.29	0.6804
2175.7	0.6768
2184.11	0.6697
2192.52	0.661
2200.94	0.6563
2209.35	0.6497
2217.76	0.646
2226.17	0.646
2234.58	0.644
2242.99	0.638
2251.4	0.627
2259.81	0.6148
2268.23	0.613
2276.64	0.6127
2285.05	0.611
2293.46	0.6081
2301.87	0.5924
2310.28	0.5857
2318.69	0.5822
2327.1	0.581
2335.52	0.581
2343.93	0.581
2352.34	0.5818
2360.75	0.5837
2369.16	0.584
2377.57	0.5838
2385.98	0.5797
2394.39	0.5699
2402.81	0.568
2411.22	0.568
2419.63	0.5699
2428.04	0.571
2436.45	0.568
2444.86	0.5624
2453.27	0.559
2461.68	0.5563
2470.1	0.553
2478.51	0.5392
2486.92	0.5265
2495.33	0.5208
2503.74	0.511
2512.15	0.5058
2520.56	0.505
2528.97	0.503
2537.38	0.502
2545.8	0.4997
2554.21	0.4965
2562.62	0.4932
2571.03	0.491
2579.44	0.49
2587.85	0.488
2596.26	0.488
2604.67	0.488
2613.09	0.4864
2621.5	0.485
2629.91	0.484
2638.32	0.482
2646.73	0.48
2655.14	0.4763
2663.55	0.4734
2671.96	0.4729
2680.38	0.4713
2688.79	0.4694
2697.2	0.4645
2705.61	0.4597
2714.02	0.455
2722.43	0.4588
2730.84	0.461
2739.25	0.4597
2747.67	0.4431
2756.08	0.4378
2764.49	0.4313
2772.9	0.43
2781.31	0.431
2789.72	0.4304
2798.13	0.4271
2806.54	0.4271
2814.96	0.4318
2823.37	0.4367
2831.78	0.4361
2840.19	0.4322
2848.6	0.4246
2857.01	0.4197
2865.42	0.4181
2873.83	0.416
2882.25	0.416
2890.66	0.416
2899.07	0.416
2907.48	0.418
2915.89	0.4171
2924.3	0.4079
2932.71	0.3912
2941.12	0.3695
2949.53	0.3615
2957.95	0.361
2966.36	0.3591
2974.77	0.3553
2983.18	0.35
2991.59	0.3453
3000	0.338
3008.41	0.3305
3016.82	0.3225
3025.24	0.322
3033.65	0.323
3042.06	0.3313
3050.47	0.333
3058.88	0.3373
3067.29	0.344
3075.7	0.346
3084.11	0.3424
3092.53	0.3402
3100.94	0.34
3109.35	0.34
3117.76	0.34
3126.17	0.34
3134.58	0.3411
3142.99	0.3433
3151.4	0.344
3159.82	0.346
3168.23	0.3438
3176.64	0.3367
3185.05	0.3298
3193.46	0.328
3201.87	0.325
3210.28	0.321
3218.69	0.3134
3227.11	0.3102
3235.52	0.31
3243.93	0.3139
3252.34	0.3238
3260.75	0.3259
3269.16	0.3259
3277.57	0.3165
3285.98	0.3014
3294.4	0.2981
3302.81	0.2959
3311.22	0.2888
3319.63	0.2863
3328.04	0.2812
3336.45	0.2745
3344.86	0.272
3353.27	0.27
3361.68	0.2623
3370.1	0.2598
3378.51	0.259
3386.92	0.259
3395.33	0.259
3403.74	0.259
3412.15	0.257
3420.56	0.2539
3428.97	0.2481
3437.39	0.247
3445.8	0.245
3454.21	0.245
3462.62	0.247
3471.03	0.248
3479.44	0.248
3487.85	0.25
3496.26	0.25
3504.68	0.25
3513.09	0.25
3521.5	0.251
3529.91	0.253
3538.32	0.253
3546.73	0.254
3555.14	0.254
3563.55	0.254
3571.97	0.2549
3580.38	0.2586
3588.79	0.262
3597.2	0.2599
3605.61	0.2567
3614.02	0.2549
3622.43	0.2514
3630.84	0.2511
3639.26	0.254
3647.67	0.256
3656.08	0.2586
3664.49	0.2559
3672.9	0.2537
3681.31	0.2536
3689.72	0.2568
3698.13	0.257
3706.55	0.256
3714.96	0.2534
3723.37	0.2501
3731.78	0.25
3740.19	0.251
3748.6	0.251
3757.01	0.2501
3765.42	0.2467
3773.83	0.2429
3782.25	0.239
3790.66	0.2362
3799.07	0.233
3807.48	0.233
3815.89	0.233
3824.3	0.233
3832.71	0.2317
3841.12	0.2296
3849.54	0.227
3857.95	0.226
3866.36	0.224
3874.77	0.224
3883.18	0.224
3891.59	0.226
3900	0.2274
3908.41	0.23
3916.83	0.23
3925.24	0.23
3933.65	0.2286
3942.06	0.226
3950.47	0.224
3958.88	0.223
3967.29	0.2226
3975.7	0.221
3984.12	0.221
