Infrared Spectrum: 4-(2,6-DICHLOROSTYRYL) PYRIDINE HYDROCHLORIDE
Formula: C13 H10 N Cl3
CAS: 116403-15-7
State: SOLID (MINERAL OIL MULL)
Class: COBLENTZ
Instrument: Not specified, most likely a prism, grating, or hybrid spectrometer.
Sampling: TRANSMISSION
Resolution: 4
Origin: WYANDOTTE CHEMICALS CORP., WYANDOTTE, MICHIGAN, USA
MICROMETERS	TRANSMITTANCE
2.034	0.272
2.07486	0.279
2.11571	0.291
2.15657	0.298
2.19742	0.299
2.23828	0.301
2.27913	0.311
2.31999	0.32
2.36084	0.321
2.4017	0.345
2.44256	0.35
2.48341	0.352
2.52427	0.362
2.56512	0.379
2.60598	0.378
2.64683	0.385
2.68769	0.398
2.72854	0.402
2.7694	0.402
2.81026	0.386
2.85111	0.374
2.89197	0.356
2.93282	0.352
2.97368	0.354
3.01453	0.362
3.05539	0.379
3.09625	0.393
3.1371	0.403
3.17796	0.417
3.21881	0.386
3.25967	0.332
3.30052	0.32
3.34138	0.127
3.38223	0.028
3.42309	0.045
3.46395	0.091
3.5048	0.076
3.54566	0.453
3.58651	0.487
3.62737	0.48
3.66822	0.459
3.70908	0.451
3.74993	0.444
3.79079	0.442
3.83165	0.419
3.8725	0.398
3.91336	0.369
3.95421	0.344
3.99507	0.332
4.03592	0.31
4.07678	0.299
4.11763	0.304
4.15849	0.315
4.19935	0.337
4.2402	0.349
4.28106	0.367
4.32191	0.393
4.36277	0.424
4.40362	0.453
4.44448	0.47
4.48533	0.483
4.52619	0.49
4.56705	0.509
4.6079	0.509
4.64876	0.516
4.68961	0.541
4.73047	0.541
4.77132	0.568
4.81218	0.579
4.85304	0.577
4.89389	0.567
4.93475	0.574
4.9756	0.601
5.01646	0.592
5.05731	0.603
5.09817	0.613
5.13902	0.594
5.17988	0.604
5.22074	0.633
5.26159	0.65
5.30245	0.654
5.3433	0.664
5.38416	0.679
5.42501	0.676
5.46587	0.683
5.50672	0.684
5.54758	0.693
5.58844	0.705
5.62929	0.718
5.67015	0.727
5.711	0.727
5.75186	0.739
5.79271	0.754
5.83357	0.766
5.87442	0.766
5.91528	0.788
5.95614	0.814
5.99699	0.821
6.03785	0.809
6.0787	0.269
6.11956	0.311
6.16041	0.557
6.20127	0.349
6.24213	0.608
6.28298	0.643
6.32384	0.666
6.36469	0.655
6.40555	0.626
6.4464	0.71
6.48726	0.768
6.52811	0.776
6.56897	0.645
6.60983	0.391
6.65068	0.39
6.69154	0.551
6.73239	0.507
6.77325	0.318
6.8141	0.289
6.85496	0.386
6.89581	0.444
6.93667	0.367
6.97753	0.431
7.01838	0.637
7.05924	0.691
7.10009	0.715
7.14095	0.72
7.1818	0.678
7.22266	0.516
7.26351	0.478
7.30437	0.521
7.34523	0.674
7.38608	0.701
7.42694	0.729
7.46779	0.718
7.50865	0.65
7.5495	0.689
7.59036	0.746
7.63121	0.758
7.67207	0.746
7.71293	0.676
7.75378	0.73
7.79464	0.775
7.83549	0.785
7.87635	0.773
7.9172	0.729
7.95806	0.751
7.99892	0.746
8.03977	0.798
8.08063	0.822
8.12148	0.817
8.16234	0.833
8.20319	0.851
8.24405	0.822
8.2849	0.73
8.32576	0.545
8.36662	0.717
8.40747	0.659
8.44833	0.65
8.48918	0.78
8.53004	0.824
8.57089	0.792
8.61175	0.78
8.6526	0.821
8.69346	0.844
8.73432	0.88
8.77517	0.889
8.81603	0.889
8.85688	0.892
8.89774	0.887
8.93859	0.877
8.97945	0.873
9.0203	0.885
9.06116	0.868
9.10202	0.822
9.14287	0.768
9.18373	0.829
9.22458	0.86
9.26544	0.865
9.30629	0.862
9.34715	0.862
9.388	0.836
9.42886	0.868
9.46972	0.88
9.51057	0.89
9.55143	0.89
9.59228	0.887
9.63314	0.844
9.67399	0.78
9.71485	0.798
9.75571	0.846
9.79656	0.87
9.83742	0.896
9.87827	0.921
9.91913	0.923
9.95998	0.909
10.0008	0.848
10.0417	0.614
10.0825	0.545
10.1234	0.521
10.1643	0.381
10.2051	0.529
10.246	0.717
10.2868	0.781
10.3277	0.827
10.3685	0.843
10.4094	0.87
10.4503	0.882
10.4911	0.885
10.532	0.889
10.5728	0.873
10.6137	0.843
10.6545	0.771
10.6954	0.732
10.7362	0.761
10.7771	0.787
10.818	0.817
10.8588	0.846
10.8997	0.87
10.9405	0.872
10.9814	0.85
11.0222	0.879
11.0631	0.913
11.1039	0.923
11.1448	0.925
11.1857	0.928
11.2265	0.925
11.2674	0.919
11.3082	0.913
11.3491	0.916
11.3899	0.93
11.4308	0.938
11.4716	0.926
11.5125	0.846
11.5534	0.78
11.5942	0.843
11.6351	0.887
11.6759	0.882
11.7168	0.908
11.7576	0.936
11.7985	0.94
11.8393	0.94
11.8802	0.936
11.9211	0.94
11.9619	0.94
12.0028	0.931
12.0436	0.918
12.0845	0.89
12.1253	0.851
12.1662	0.798
12.207	0.775
12.2479	0.79
12.2888	0.788
12.3296	0.754
12.3705	0.691
12.4113	0.533
12.4522	0.39
12.493	0.269
12.5339	0.243
12.5747	0.243
12.6156	0.243
12.6565	0.204
12.6973	0.277
12.7382	0.4
12.779	0.543
12.8199	0.64
12.8607	0.683
12.9016	0.7
12.9424	0.72
12.9833	0.758
13.0242	0.802
13.065	0.829
13.1059	0.851
13.1467	0.87
13.1876	0.884
13.2284	0.894
13.2693	0.899
13.3101	0.901
13.351	0.908
13.3919	0.909
13.4327	0.908
13.4736	0.908
13.5144	0.904
13.5553	0.899
13.5961	0.897
13.637	0.865
13.6778	0.78
13.7187	0.741
13.7596	0.81
13.8004	0.855
13.8413	0.862
13.8821	0.862
13.923	0.865
13.9638	0.88
14.0047	0.836
14.0455	0.773
14.0864	0.785
14.1273	0.848
14.1681	0.873
14.209	0.894
14.2498	0.902
14.2907	0.914
14.3315	0.914
14.3724	0.911
14.4132	0.906
14.4541	0.904
14.495	0.897
14.5358	0.885
14.5767	0.88
14.6175	0.87
14.6584	0.862
14.6992	0.848
14.7401	0.833
14.7809	0.827
14.8218	0.817
14.8627	0.809
14.9035	0.8
14.9444	0.792
14.9852	0.759
15.0261	0.706
15.0669	0.662
15.1078	0.7
15.1486	0.732
15.1895	0.729
15.2304	0.712
15.2712	0.695
15.3121	0.683
15.3529	0.671
15.3938	0.657
15.4346	0.633
15.4755	0.62
15.5163	0.599
15.5572	0.596
15.5981	0.584
15.6389	0.579
15.6798	0.567
15.7206	0.553
15.7615	0.536
15.8023	0.521
15.8432	0.511
15.884	0.5
15.9249	0.488
15.9658	0.477
