Infrared Spectrum: Uracil, 1,3-bis(p-nitrobenzyl)-
Formula: C18 H14 N4 O6
CAS: 116496-70-9
State: SOLID (1 mg / 650 mg KBr DISC)
Class: COBLENTZ III
Instrument: PERKIN-ELMER 521 (GRATING)
Instrument parameters: FILTERS AT 3150, 2500, 2000, 1150, 700, 410. GRATING CHANGES: 2000, 630
Sampling: TRANSMISSION
Resolution: 2
Origin: SOUTHERN RESEARCH INSTITUTE
1/CM	TRANSMITTANCE
254.855	0.3561
264.914	0.4209
274.973	0.481
285.032	0.5564
295.092	0.6393
305.151	0.663
315.21	0.6793
325.269	0.7028
335.328	0.7306
345.387	0.7554
355.447	0.7687
365.506	0.7528
375.565	0.7161
385.624	0.6974
395.683	0.7732
405.742	0.7984
415.801	0.792
425.861	0.804
435.92	0.7981
445.979	0.7989
456.038	0.8228
466.097	0.8187
476.156	0.832
486.216	0.8423
496.275	0.8389
506.334	0.825
516.393	0.803
526.452	0.7649
536.511	0.682
546.57	0.7754
556.63	0.6813
566.689	0.8445
576.748	0.8482
586.807	0.845
596.866	0.8297
606.925	0.8154
616.985	0.8222
627.044	0.8307
637.103	0.8251
647.162	0.8441
657.221	0.8284
667.28	0.825
677.339	0.8098
687.399	0.6594
697.458	0.8234
707.517	0.8037
717.576	0.7736
727.635	0.7299
737.694	0.6964
747.753	0.845
757.813	0.7473
767.872	0.8649
777.931	0.807
787.99	0.6969
798.049	0.5561
808.108	0.6357
818.168	0.7976
828.227	0.7868
838.286	0.7445
848.345	0.684
858.404	0.7987
868.463	0.8734
878.522	0.8693
888.582	0.8021
898.641	0.8535
908.7	0.8568
918.759	0.8074
928.818	0.8316
938.877	0.855
948.937	0.8411
958.996	0.8269
969.055	0.8229
979.114	0.8098
989.173	0.7952
999.232	0.7676
1009.29	0.7358
1019.35	0.785
1029.41	0.7792
1039.47	0.7759
1049.53	0.7727
1059.59	0.7708
1069.65	0.7588
1079.71	0.7487
1089.76	0.7195
1099.82	0.6186
1109.88	0.6569
1119.94	0.7995
1130	0.8049
1140.06	0.8015
1150.12	0.7875
1160.18	0.7675
1170.24	0.7181
1180.3	0.7472
1190.36	0.6794
1200.42	0.6576
1210.47	0.6322
1220.53	0.6963
1230.59	0.7371
1240.65	0.77
1250.71	0.7678
1260.77	0.7553
1270.83	0.726
1280.89	0.6908
1290.95	0.6628
1301.01	0.5812
1311.07	0.492
1321.13	0.4696
1331.18	0.2342
1341.24	0.1853
1351.3	0.3864
1361.36	0.6337
1371.42	0.7251
1381.48	0.5354
1391.54	0.7093
1401.6	0.663
1411.66	0.6742
1421.72	0.706
1431.78	0.5681
1441.84	0.3552
1451.89	0.638
1461.95	0.7621
1472.01	0.7616
1482.07	0.6501
1492.13	0.6146
1502.19	0.2093
1512.25	0.3039
1522.31	0.4366
1532.37	0.6653
1542.43	0.8303
1552.49	0.8398
1562.54	0.8191
1572.6	0.782
1582.66	0.7403
1592.72	0.5529
1602.78	0.6064
1612.84	0.662
1622.9	0.5539
1632.96	0.4892
1643.02	0.3173
1653.08	0.1481
1663.14	0.1374
1673.2	0.3521
1683.25	0.541
1693.31	0.3634
1703.37	0.3883
1713.43	0.6497
1723.49	0.7708
1733.55	0.8306
1743.61	0.8756
1753.67	0.8945
1763.73	0.9048
1773.79	0.9102
1783.85	0.9117
1793.91	0.9142
1803.96	0.9215
1814.02	0.9279
1824.08	0.9318
1834.14	0.9334
1844.2	0.9335
1854.26	0.9328
1864.32	0.9314
1874.38	0.9293
1884.44	0.9277
1894.5	0.9265
1904.56	0.919
1914.62	0.9121
1924.67	0.9118
1934.73	0.914
1944.79	0.9199
1954.85	0.9243
1964.91	0.9254
1974.97	0.9259
1985.03	0.9259
1995.09	0.9208
2005.15	0.9149
2015.21	0.9125
2025.27	0.9126
2035.33	0.913
2045.38	0.9129
2055.44	0.9127
2065.5	0.9116
2075.56	0.9108
2085.62	0.9109
2095.68	0.9108
2105.74	0.9103
2115.8	0.9099
2125.86	0.9093
2135.92	0.9088
2145.98	0.9072
2156.03	0.9054
2166.09	0.9037
2176.15	0.9021
2186.21	0.9005
2196.27	0.899
2206.33	0.8976
2216.39	0.8976
2226.45	0.8982
2236.51	0.8987
2246.57	0.8987
2256.63	0.8985
2266.69	0.8983
2276.74	0.8973
2286.8	0.896
2296.86	0.8947
2306.92	0.8937
2316.98	0.8925
2327.04	0.8912
2337.1	0.8899
2347.16	0.889
2357.22	0.8884
2367.28	0.8882
2377.34	0.8876
2387.4	0.8869
2397.45	0.8859
2407.51	0.8838
2417.57	0.8806
2427.63	0.877
2437.69	0.8745
2447.75	0.8723
2457.81	0.8726
2467.87	0.8872
2477.93	0.8765
2487.99	0.8746
2498.05	0.8741
2508.11	0.874
2518.16	0.8749
2528.22	0.876
2538.28	0.8751
2548.34	0.8741
2558.4	0.8732
2568.46	0.8724
2578.52	0.8717
2588.58	0.8714
2598.64	0.8713
2608.7	0.8704
2618.76	0.8693
2628.82	0.8681
2638.87	0.8669
2648.93	0.8654
2658.99	0.8638
2669.05	0.8623
2679.11	0.861
2689.17	0.8598
2699.23	0.8586
2709.29	0.8579
2719.35	0.8573
2729.41	0.8566
2739.47	0.856
2749.52	0.8534
2759.58	0.849
2769.64	0.8475
2779.7	0.8472
2789.76	0.847
2799.82	0.8464
2809.88	0.8439
2819.94	0.8361
2830	0.8247
2840.06	0.8161
2850.12	0.8153
2860.18	0.8201
2870.23	0.8243
2880.29	0.8261
2890.35	0.8247
2900.41	0.819
2910.47	0.8133
2920.53	0.808
2930.59	0.803
2940.65	0.7986
2950.71	0.797
2960.77	0.8047
2970.83	0.8198
2980.89	0.8172
2990.94	0.8106
3001	0.8106
3011.06	0.8153
3021.12	0.8187
3031.18	0.8147
3041.24	0.806
3051.3	0.7924
3061.36	0.776
3071.42	0.759
3081.48	0.7568
3091.54	0.7729
3101.6	0.7683
3111.65	0.7876
3121.71	0.8129
3131.77	0.8347
3141.83	0.8278
3151.89	0.8171
3161.95	0.8155
3172.01	0.813
3182.07	0.8098
3192.13	0.8053
3202.19	0.8009
3212.25	0.7972
3222.31	0.7932
3232.36	0.7891
3242.42	0.7849
3252.48	0.7808
3262.54	0.7767
3272.6	0.7734
3282.66	0.7702
3292.72	0.7667
3302.78	0.762
3312.84	0.7558
3322.9	0.7491
3332.96	0.7423
3343.01	0.7358
3353.07	0.7295
3363.13	0.7232
3373.19	0.7181
3383.25	0.7136
3393.31	0.7103
3403.37	0.7076
3413.43	0.706
3423.49	0.7049
3433.55	0.704
3443.61	0.7046
3453.67	0.7059
3463.72	0.7082
3473.78	0.7123
3483.84	0.7164
3493.9	0.7204
3503.96	0.7244
3514.02	0.7283
3524.08	0.7373
3534.14	0.747
3544.2	0.7548
3554.26	0.7637
3564.32	0.773
3574.38	0.7821
3584.43	0.7911
3594.49	0.8001
3604.55	0.8065
3614.61	0.8125
3624.67	0.8179
3634.73	0.823
3644.79	0.827
3654.85	0.8305
3664.91	0.8353
3674.97	0.8294
3685.03	0.8266
3695.09	0.8362
3705.14	0.839
3715.2	0.8403
3725.26	0.8397
3735.32	0.8389
3745.38	0.8371
3755.44	0.8355
3765.5	0.8386
3775.56	0.8462
3785.62	0.8481
3795.68	0.8473
3805.74	0.8455
3815.8	0.8413
3825.85	0.8403
3835.91	0.8398
3845.97	0.8399
3856.03	0.8392
3866.09	0.8312
3876.15	0.8324
3886.21	0.8345
3896.27	0.8342
3906.33	0.8342
3916.39	0.8339
3926.45	0.8322
3936.5	0.8344
3946.56	0.8357
3956.62	0.8358
3966.68	0.8357
3976.74	0.8354
3986.8	0.8351
3996.86	0.8349
4006.92	0.835
4016.98	0.835
