Infrared Spectrum: Imidazole-5-sulfonamide,4-(benzylamino)-N,N-dibenzyl-
Formula: C24 H24 N4 O2 S
CAS: 116401-57-1
State: SOLID (0.8 mg / 650 mg KBr DISC)
Class: COBLENTZ III
Instrument: PERKIN-ELMER 21 (GRATING)
Instrument parameters: FILTER CHANGE ABOUT 1070 CM^-^1
Sampling: TRANSMISSION
Resolution: 2
Origin: SOUTHERN RESEARCH INSTITUTE
1/CM	TRANSMITTANCE
620.18	0.9732
629.221	1.0251
638.263	1.0314
647.304	1.0186
656.346	0.9077
665.387	0.9594
674.429	0.9323
683.47	0.6757
692.512	0.4061
701.553	0.9252
710.595	0.8781
719.636	0.477
728.678	0.835
737.719	0.6679
746.761	0.6974
755.802	0.8943
764.844	0.713
773.885	0.6573
782.927	0.922
791.968	0.9333
801.01	0.9237
810.051	0.9156
819.093	0.9116
828.134	0.817
837.176	0.9448
846.217	0.9456
855.259	0.9383
864.3	0.9201
873.342	0.8703
882.383	0.7449
891.425	0.6588
900.466	0.8521
909.508	0.8516
918.549	0.6849
927.591	0.5647
936.632	0.8936
945.673	0.9137
954.715	0.9063
963.756	0.9142
972.798	0.9054
981.839	0.8775
990.881	0.8371
999.922	0.768
1008.96	0.5443
1018.01	0.5887
1027.05	0.8174
1036.09	0.7938
1045.13	0.5721
1054.17	0.6515
1063.21	0.7867
1072.25	0.8038
1081.3	0.7772
1090.34	0.7812
1099.38	0.7582
1108.42	0.7171
1117.46	0.458
1126.5	0.1649
1135.54	0.3403
1144.59	0.6898
1153.63	0.7591
1162.67	0.8246
1171.71	0.7807
1180.75	0.5836
1189.79	0.6243
1198.84	0.6722
1207.88	0.8383
1216.92	0.8181
1225.96	0.7343
1235	0.5732
1244.04	0.5057
1253.08	0.8568
1262.13	0.8556
1271.17	0.7978
1280.21	0.7592
1289.25	0.687
1298.29	0.5377
1307.33	0.3017
1316.37	0.3061
1325.42	0.6394
1334.46	0.7228
1343.5	0.6473
1352.54	0.7523
1361.58	0.8197
1370.62	0.8125
1379.66	0.7837
1388.71	0.8656
1397.75	0.8635
1406.79	0.8534
1415.83	0.7956
1424.87	0.7458
1433.91	0.4486
1442.96	0.341
1452	0.7134
1461.04	0.8601
1470.08	0.8754
1479.12	0.8684
1488.16	0.6825
1497.2	0.7558
1506.25	0.8119
1515.29	0.7785
1524.33	0.7676
1533.37	0.7917
1542.41	0.8185
1551.45	0.8229
1560.49	0.8219
1569.54	0.8148
1578.58	0.794
1587.62	0.7672
1596.66	0.73
1605.7	0.7234
1614.74	0.7146
1623.78	0.6628
1632.83	0.6201
1641.87	0.7655
1650.91	0.8096
1659.95	0.8321
1668.99	0.8905
1678.03	0.8998
1687.08	0.9036
1696.12	0.9061
1705.16	0.9085
1714.2	0.9105
1723.24	0.9117
1732.28	0.912
1741.32	0.9111
1750.37	0.9104
1759.41	0.9109
1768.45	0.9117
1777.49	0.9049
1786.53	0.8984
1795.57	0.9043
1804.61	0.9047
1813.66	0.904
1822.7	0.9012
1831.74	0.8974
1840.78	0.8934
1849.82	0.8899
1858.86	0.888
1867.91	0.8843
1876.95	0.8802
1885.99	0.878
1895.03	0.877
1904.07	0.8759
1913.11	0.8747
1922.15	0.8737
1931.2	0.8647
1940.24	0.8591
1949.28	0.86
1958.32	0.8614
1967.36	0.8624
1976.4	0.864
1985.44	0.8624
1994.49	0.855
2003.53	0.8474
2012.57	0.8389
2021.61	0.8303
2030.65	0.8206
2039.69	0.8098
2048.73	0.7987
2057.78	0.7876
2066.82	0.7764
2075.86	0.7648
2084.9	0.7525
2093.94	0.7426
2102.98	0.7377
2112.03	0.7349
2121.07	0.7407
2130.11	0.751
2139.15	0.7636
2148.19	0.7732
2157.23	0.7813
2166.27	0.7879
2175.32	0.7936
2184.36	0.7983
2193.4	0.8013
2202.44	0.804
2211.48	0.8031
2220.52	0.8004
2229.56	0.7959
2238.61	0.7879
2247.65	0.7787
2256.69	0.7687
2265.73	0.7577
2274.77	0.7443
2283.81	0.7317
2292.85	0.7156
2301.9	0.7008
2310.94	0.6884
2319.98	0.6787
2329.02	0.6709
2338.06	0.6642
2347.1	0.6575
2356.15	0.6523
2365.19	0.6474
2374.23	0.6398
2383.27	0.6348
2392.31	0.6351
2401.35	0.6354
2410.39	0.6339
2419.44	0.6277
2428.48	0.619
2437.52	0.6163
2446.56	0.6225
2455.6	0.6274
2464.64	0.6254
2473.68	0.6226
2482.73	0.6142
2491.77	0.6054
2500.81	0.5976
2509.85	0.5902
2518.89	0.5837
2527.93	0.5786
2536.98	0.5762
2546.02	0.5767
2555.06	0.5779
2564.1	0.5816
2573.14	0.5862
2582.18	0.5921
2591.22	0.5982
2600.27	0.6092
2609.31	0.6245
2618.35	0.6398
2627.39	0.6505
2636.43	0.6529
2645.47	0.6518
2654.51	0.6496
2663.56	0.6469
2672.6	0.644
2681.64	0.6418
2690.68	0.6404
2699.72	0.6401
2708.76	0.6405
2717.8	0.6476
2726.85	0.6541
2735.89	0.657
2744.93	0.6624
2753.97	0.6692
2763.01	0.6728
2772.05	0.6716
2781.1	0.6698
2790.14	0.6688
2799.18	0.668
2808.22	0.6666
2817.26	0.6641
2826.3	0.6613
2835.34	0.6575
2844.39	0.6539
2853.43	0.6504
2862.47	0.6463
2871.51	0.6422
2880.55	0.6395
2889.59	0.6375
2898.63	0.6372
2907.68	0.6496
2916.72	0.675
2925.76	0.6934
2934.8	0.7011
2943.84	0.7047
2952.88	0.708
2961.92	0.7079
2970.97	0.7058
2980.01	0.6999
2989.05	0.6894
2998.09	0.6782
3007.13	0.6763
3016.17	0.6855
3025.22	0.6912
3034.26	0.6922
3043.3	0.6939
3052.34	0.7063
3061.38	0.7278
3070.42	0.7296
3079.46	0.7269
3088.51	0.7175
3097.55	0.7053
3106.59	0.6816
3115.63	0.6471
3124.67	0.6004
3133.71	0.5536
3142.75	0.5098
3151.8	0.5036
3160.84	0.5412
3169.88	0.6035
3178.92	0.6541
3187.96	0.7129
3197	0.7447
3206.05	0.7771
3215.09	0.8036
3224.13	0.8138
3233.17	0.8206
3242.21	0.826
3251.25	0.8305
3260.29	0.8339
3269.34	0.8362
3278.38	0.837
3287.42	0.8363
3296.46	0.8338
3305.5	0.8299
3314.54	0.8251
3323.58	0.82
3332.63	0.8145
3341.67	0.8081
3350.71	0.8017
3359.75	0.7954
3368.79	0.7893
3377.83	0.7838
3386.87	0.7776
3395.92	0.7737
3404.96	0.7725
3414	0.7737
3423.04	0.7754
3432.08	0.7775
3441.12	0.7804
3450.17	0.7839
3459.21	0.788
3468.25	0.7929
3477.29	0.7988
3486.33	0.8049
3495.37	0.8117
3504.41	0.8186
3513.46	0.8256
3522.5	0.8325
3531.54	0.8389
3540.58	0.8457
3549.62	0.8536
3558.66	0.8571
3567.7	0.8579
3576.75	0.8708
3585.79	0.8801
3594.83	0.883
3603.87	0.8848
3612.91	0.886
3621.95	0.8873
3630.99	0.8888
3640.04	0.8903
3649.08	0.8921
3658.12	0.8928
3667.16	0.8933
3676.2	0.8938
3685.24	0.8944
3694.29	0.895
3703.33	0.8954
3712.37	0.8958
3721.41	0.8955
3730.45	0.8946
3739.49	0.8945
3748.53	0.896
3757.58	0.8996
3766.62	0.9014
3775.66	0.8956
3784.7	0.8942
3793.74	0.895
3802.78	0.896
3811.82	0.8961
3820.87	0.896
3829.91	0.8956
3838.95	0.8951
3847.99	0.8945
3857.03	0.8941
3866.07	0.8942
3875.11	0.895
3884.16	0.8956
3893.2	0.8952
3902.24	0.893
3911.28	0.8919
3920.32	0.8924
3929.36	0.8922
3938.41	0.8916
3947.45	0.8905
3956.49	0.8897
3965.53	0.8891
3974.57	0.8879
3983.61	0.8846
3992.65	0.883
4001.7	0.8816
4010.74	0.8776
4019.78	0.8768
4028.82	0.8777
4037.86	0.88
4046.9	0.8822
4055.94	0.8833
4064.99	0.8821
