Infrared Spectrum: 2-(N,N-DI-n-PENTYLAMINO)-3-METHYL-6-(n-HEPTYL) PYRAZINE
Formula: C22 H41 N3
CAS: 116402-83-6
State: LIQUID
Class: COBLENTZ
Instrument: Not specified, most likely a prism, grating, or hybrid spectrometer.
Sampling: TRANSMISSION
Path length: 0.0015 CM
Resolution: 4
Origin: WYANDOTTE CHEMICALS CORP., WYANDOTTE, MICHIGAN, USA
MICROMETERS	TRANSMITTANCE
2.034	0.96
2.0749	0.965
2.11579	0.957
2.15669	0.948
2.19759	0.901
2.23848	0.88
2.27938	0.897
2.32028	0.902
2.36118	0.901
2.40207	0.911
2.44297	0.921
2.48387	0.928
2.52476	0.938
2.56566	0.95
2.60656	0.938
2.64745	0.95
2.68835	0.948
2.72925	0.942
2.77015	0.945
2.81104	0.936
2.85194	0.921
2.89284	0.902
2.93373	0.889
2.97463	0.88
3.01553	0.875
3.05642	0.873
3.09732	0.865
3.13822	0.848
3.17912	0.838
3.22001	0.814
3.26091	0.72
3.30181	0.548
3.3427	0.091
3.3836	0.045
3.4245	0.051
3.46539	0.059
3.50629	0.105
3.54719	0.427
3.58808	0.666
3.62898	0.756
3.66988	0.737
3.71078	0.78
3.75167	0.788
3.79257	0.816
3.83347	0.836
3.87436	0.846
3.91526	0.862
3.95616	0.87
3.99705	0.88
4.03795	0.89
4.07885	0.885
4.11975	0.87
4.16064	0.872
4.20154	0.868
4.24244	0.863
4.28333	0.862
4.32423	0.877
4.36513	0.897
4.40602	0.908
4.44692	0.901
4.48782	0.909
4.52872	0.911
4.56961	0.909
4.61051	0.913
4.65141	0.919
4.6923	0.919
4.7332	0.916
4.7741	0.921
4.81499	0.921
4.85589	0.925
4.89679	0.916
4.93769	0.918
4.97858	0.916
5.01948	0.928
5.06038	0.918
5.10127	0.926
5.14217	0.93
5.18307	0.928
5.22396	0.925
5.26486	0.926
5.30576	0.923
5.34665	0.925
5.38755	0.933
5.42845	0.919
5.46935	0.921
5.51024	0.921
5.55114	0.906
5.59204	0.906
5.63293	0.894
5.67383	0.889
5.71473	0.868
5.75562	0.856
5.79652	0.844
5.83742	0.834
5.87832	0.834
5.91921	0.822
5.96011	0.827
6.00101	0.816
6.0419	0.812
6.0828	0.807
6.1237	0.798
6.16459	0.802
6.20549	0.8
6.24639	0.787
6.28729	0.744
6.32818	0.54
6.36908	0.487
6.40998	0.584
6.45087	0.502
6.49177	0.131
6.53267	0.199
6.57356	0.453
6.61446	0.546
6.65536	0.541
6.69625	0.466
6.73715	0.337
6.77805	0.059
6.81895	0.073
6.85984	0.059
6.90074	0.052
6.94164	0.091
6.98253	0.143
7.02343	0.146
7.06433	0.1
7.10522	0.172
7.14612	0.304
7.18702	0.359
7.22792	0.127
7.26881	0.083
7.30971	0.08
7.35061	0.081
7.3915	0.146
7.4324	0.218
7.4733	0.315
7.51419	0.349
7.55509	0.308
7.59599	0.304
7.63689	0.304
7.67778	0.308
7.71868	0.332
7.75958	0.359
7.80047	0.381
7.84137	0.381
7.88227	0.434
7.92316	0.427
7.96406	0.437
8.00496	0.431
8.04585	0.471
8.08675	0.543
8.12765	0.601
8.16855	0.604
8.20944	0.613
8.25034	0.633
8.29124	0.628
8.33213	0.555
8.37303	0.422
8.41393	0.301
8.45482	0.282
8.49572	0.272
8.53662	0.255
8.57752	0.236
8.61841	0.218
8.65931	0.25
8.70021	0.345
8.7411	0.4
8.782	0.258
8.8229	0.117
8.86379	0.131
8.90469	0.221
8.94559	0.299
8.98649	0.362
9.02738	0.34
9.06828	0.275
9.10918	0.291
9.15007	0.376
9.19097	0.482
9.23187	0.56
9.27276	0.604
9.31366	0.63
9.35456	0.654
9.39546	0.664
9.43635	0.669
9.47725	0.655
9.51815	0.623
9.55904	0.599
9.59994	0.599
9.64084	0.596
9.68173	0.574
9.72263	0.574
9.76353	0.609
9.80442	0.625
9.84532	0.637
9.88622	0.652
9.92712	0.647
9.96801	0.633
10.0089	0.645
10.0498	0.649
10.0907	0.642
10.1316	0.628
10.1725	0.625
10.2134	0.623
10.2543	0.628
10.2952	0.618
10.3361	0.618
10.377	0.657
10.4179	0.701
10.4588	0.739
10.4997	0.752
10.5406	0.761
10.5815	0.759
10.6224	0.749
10.6633	0.747
10.7042	0.73
10.7451	0.734
10.786	0.737
10.8268	0.735
10.8677	0.737
10.9086	0.732
10.9495	0.727
10.9904	0.729
11.0313	0.729
11.0722	0.727
11.1131	0.71
11.154	0.703
11.1949	0.689
11.2358	0.672
11.2767	0.655
11.3176	0.638
11.3585	0.623
11.3994	0.618
11.4403	0.62
11.4812	0.64
11.5221	0.66
11.563	0.691
11.6039	0.708
11.6448	0.722
11.6857	0.737
11.7266	0.739
11.7675	0.749
11.8084	0.746
11.8493	0.741
11.8902	0.735
11.9311	0.746
11.972	0.759
12.0129	0.766
12.0538	0.773
12.0947	0.787
12.1356	0.797
12.1764	0.8
12.2173	0.809
12.2582	0.802
12.2991	0.807
12.34	0.81
12.3809	0.814
12.4218	0.81
12.4627	0.81
12.5036	0.809
12.5445	0.809
12.5854	0.807
12.6263	0.802
12.6672	0.798
12.7081	0.785
12.749	0.77
12.7899	0.756
12.8308	0.746
12.8717	0.724
12.9126	0.713
12.9535	0.695
12.9944	0.686
13.0353	0.686
13.0762	0.689
13.1171	0.698
13.158	0.708
13.1989	0.722
13.2398	0.737
13.2807	0.751
13.3216	0.768
13.3625	0.77
13.4034	0.773
13.4443	0.761
13.4852	0.752
13.526	0.735
13.5669	0.717
13.6078	0.695
13.6487	0.671
13.6896	0.655
13.7305	0.643
13.7714	0.623
13.8123	0.62
13.8532	0.621
13.8941	0.649
13.935	0.688
13.9759	0.725
14.0168	0.756
14.0577	0.775
14.0986	0.788
14.1395	0.802
14.1804	0.807
14.2213	0.809
14.2622	0.807
14.3031	0.809
14.344	0.805
14.3849	0.809
14.4258	0.804
14.4667	0.804
14.5076	0.81
14.5485	0.812
14.5894	0.817
14.6303	0.821
14.6712	0.826
14.7121	0.833
14.753	0.829
14.7939	0.838
14.8348	0.831
14.8756	0.827
14.9165	0.826
14.9574	0.826
14.9983	0.812
15.0392	0.775
15.0801	0.746
15.121	0.747
15.1619	0.773
15.2028	0.788
15.2437	0.797
15.2846	0.793
15.3255	0.78
15.3664	0.778
15.4073	0.773
15.4482	0.766
15.4891	0.759
15.53	0.747
15.5709	0.742
15.6118	0.744
15.6527	0.734
15.6936	0.725
15.7345	0.715
15.7754	0.718
15.8163	0.705
15.8572	0.7
15.8981	0.696
15.939	0.698
15.9799	0.695
