Infrared Spectrum: 2-(p-NONYLPHENOXY)-3-METHYL-6-(p-PHENOXYBENZYL)PYRAZINE
Formula: C33 H38 N2 O2
CAS: 116402-89-2
State: LIQUID
Class: COBLENTZ
Instrument: Not specified, most likely a prism, grating, or hybrid spectrometer.
Sampling: TRANSMISSION
Path length: CAPILLARY
Resolution: 4
Origin: WYANDOTTE CHEMICALS CORP., WYANDOTTE, MICHIGAN, USA
MICROMETERS	TRANSMITTANCE
2.054	0.972
2.09486	0.974
2.13572	0.972
2.17658	0.965
2.21744	0.957
2.25829	0.96
2.29915	0.962
2.34001	0.955
2.38087	0.955
2.42173	0.965
2.46259	0.964
2.50345	0.958
2.54431	0.977
2.58517	0.962
2.62602	0.974
2.66688	0.96
2.70774	0.952
2.7486	0.948
2.78946	0.917
2.83032	0.89
2.87118	0.871
2.91204	0.861
2.95289	0.854
2.99375	0.854
3.03461	0.856
3.07547	0.866
3.11633	0.866
3.15719	0.873
3.19805	0.847
3.23891	0.714
3.27977	0.722
3.32062	0.498
3.36148	0.241
3.40234	0.347
3.4432	0.501
3.48406	0.616
3.52492	0.845
3.56578	0.917
3.60664	0.931
3.6475	0.922
3.68835	0.936
3.72921	0.957
3.77007	0.957
3.81093	0.957
3.85179	0.96
3.89265	0.964
3.93351	0.967
3.97437	0.97
4.01523	0.967
4.05608	0.96
4.09694	0.946
4.1378	0.945
4.17866	0.941
4.21952	0.931
4.26038	0.926
4.30124	0.945
4.3421	0.977
4.38295	0.988
4.42381	0.976
4.46467	0.976
4.50553	0.982
4.54639	0.982
4.58725	0.991
4.62811	0.991
4.66897	0.986
4.70983	0.982
4.75068	0.979
4.79154	0.981
4.8324	0.981
4.87326	0.965
4.91412	0.97
4.95498	0.962
4.99584	0.964
5.0367	0.967
5.07756	0.962
5.11841	0.964
5.15927	0.964
5.20013	0.95
5.24099	0.958
5.28185	0.95
5.32271	0.933
5.36357	0.943
5.40443	0.957
5.44529	0.962
5.48614	0.97
5.527	0.969
5.56786	0.964
5.60872	0.938
5.64958	0.921
5.69044	0.929
5.7313	0.922
5.77216	0.904
5.81301	0.892
5.85387	0.881
5.89473	0.869
5.93559	0.854
5.97645	0.825
6.01731	0.797
6.05817	0.779
6.09903	0.756
6.13989	0.683
6.18074	0.515
6.2216	0.335
6.26246	0.34
6.30332	0.592
6.34418	0.729
6.38504	0.726
6.4259	0.643
6.46676	0.604
6.50762	0.643
6.54847	0.525
6.58933	0.253
6.63019	0.234
6.67105	0.147
6.71191	0.297
6.75277	0.385
6.79363	0.308
6.83449	0.256
6.87535	0.321
6.9162	0.383
6.95706	0.474
6.99792	0.566
7.03878	0.594
7.07964	0.573
7.1205	0.589
7.16136	0.443
7.20222	0.207
7.24307	0.113
7.28393	0.121
7.32479	0.284
7.36565	0.494
7.40651	0.595
7.44737	0.595
7.48823	0.551
7.52909	0.561
7.56995	0.577
7.6108	0.554
7.65166	0.542
7.69252	0.515
7.73338	0.488
7.77424	0.467
7.8151	0.5
7.85596	0.493
7.89682	0.428
7.93768	0.321
7.97853	0.169
8.01939	0.116
8.06025	0.119
8.10111	0.152
8.14197	0.191
8.18283	0.157
8.22369	0.121
8.26455	0.244
8.30541	0.421
8.34626	0.513
8.38712	0.529
8.42798	0.392
8.46884	0.217
8.5097	0.241
8.55056	0.316
8.59142	0.38
8.63228	0.464
8.67313	0.511
8.71399	0.585
8.75485	0.64
8.79571	0.705
8.83657	0.773
8.87743	0.755
8.91829	0.712
8.95915	0.731
9.00001	0.784
9.04086	0.801
9.08172	0.801
9.12258	0.821
9.16344	0.839
9.2043	0.833
9.24516	0.804
9.28602	0.763
9.32688	0.78
9.36774	0.851
9.40859	0.878
9.44945	0.888
9.49031	0.888
9.53117	0.885
9.57203	0.871
9.61289	0.847
9.65375	0.825
9.69461	0.787
9.73547	0.69
9.77632	0.626
9.81718	0.5
9.85804	0.541
9.8989	0.695
9.93976	0.755
9.98062	0.801
10.0215	0.842
10.0623	0.859
10.1032	0.856
10.1441	0.84
10.1849	0.842
10.2258	0.851
10.2666	0.857
10.3075	0.856
10.3483	0.849
10.3892	0.82
10.4301	0.797
10.4709	0.767
10.5118	0.784
10.5526	0.825
10.5935	0.849
10.6344	0.859
10.6752	0.863
10.7161	0.868
10.7569	0.869
10.7978	0.878
10.8387	0.869
10.8795	0.859
10.9204	0.851
10.9612	0.832
11.0021	0.818
11.0429	0.806
11.0838	0.799
11.1247	0.799
11.1655	0.787
11.2064	0.773
11.2472	0.758
11.2881	0.751
11.329	0.763
11.3698	0.767
11.4107	0.743
11.4515	0.643
11.4924	0.573
11.5333	0.63
11.5741	0.698
11.615	0.715
11.6558	0.69
11.6967	0.662
11.7375	0.643
11.7784	0.626
11.8193	0.602
11.8601	0.583
11.901	0.565
11.9418	0.561
11.9827	0.568
12.0236	0.597
12.0644	0.616
12.1053	0.633
12.1461	0.652
12.187	0.66
12.2279	0.664
12.2687	0.659
12.3096	0.679
12.3504	0.703
12.3913	0.726
12.4321	0.732
12.473	0.734
12.5139	0.72
12.5547	0.703
12.5956	0.69
12.6364	0.666
12.6773	0.659
12.7182	0.648
12.759	0.65
12.7999	0.648
12.8407	0.65
12.8816	0.654
12.9225	0.66
12.9633	0.654
13.0042	0.648
13.045	0.64
13.0859	0.626
13.1268	0.619
13.1676	0.604
13.2085	0.589
13.2493	0.573
13.2902	0.556
13.331	0.551
13.3719	0.563
13.4128	0.599
13.4536	0.626
13.4945	0.647
13.5353	0.672
13.5762	0.71
13.6171	0.748
13.6579	0.779
13.6988	0.797
13.7396	0.804
13.7805	0.815
13.8214	0.827
13.8622	0.84
13.9031	0.847
13.9439	0.857
13.9848	0.861
14.0256	0.864
14.0665	0.866
14.1074	0.869
14.1482	0.859
14.1891	0.851
14.2299	0.828
14.2708	0.797
14.3117	0.763
14.3525	0.719
14.3934	0.66
14.4342	0.59
14.4751	0.53
14.516	0.506
14.5568	0.517
14.5977	0.585
14.6385	0.667
14.6794	0.743
14.7202	0.78
14.7611	0.803
14.802	0.809
14.8428	0.818
14.8837	0.83
14.9245	0.832
14.9654	0.84
15.0063	0.808
15.0471	0.789
15.088	0.785
15.1288	0.809
15.1697	0.823
15.2106	0.825
15.2514	0.816
15.2923	0.806
15.3331	0.799
15.374	0.796
15.4148	0.791
15.4557	0.784
15.4966	0.78
15.5374	0.775
15.5783	0.773
15.6191	0.773
15.66	0.772
15.7009	0.77
15.7417	0.763
15.7826	0.758
15.8234	0.751
15.8643	0.746
15.9052	0.748
15.946	0.738
15.9869	0.729
