Infrared Spectrum: PHOSPHONIC ACID, PHENYL-, BIS(2-ETHYL-4-METHYLPENTYL) ESTER
Formula: C22 H39 O3 P
CAS: 116401-89-9
Class: COBLENTZ
Instrument: Not specified, most likely a prism, grating, or hybrid spectrometer.
Sampling: TRANSMISSION
Path length: SMEAR
Resolution: 4
Origin: TENNESSEE EASTMAN COMPANY, RESEARCH LABORATORIES
MICROMETERS	TRANSMITTANCE
2.094	0.897
2.13396	0.902
2.17392	0.906
2.21387	0.907
2.25383	0.907
2.29379	0.907
2.33375	0.907
2.3737	0.907
2.41366	0.907
2.45362	0.907
2.49358	0.907
2.53354	0.914
2.57349	0.914
2.61345	0.914
2.65341	0.916
2.69337	0.914
2.73332	0.916
2.77328	0.909
2.81324	0.904
2.8532	0.901
2.89316	0.892
2.93311	0.901
2.97307	0.914
3.01303	0.924
3.05299	0.927
3.09294	0.929
3.1329	0.927
3.17286	0.926
3.21282	0.922
3.25277	0.874
3.29273	0.85
3.33269	0.506
3.37265	0.189
3.41261	0.322
3.45256	0.411
3.49252	0.699
3.53248	0.845
3.57244	0.892
3.61239	0.904
3.65235	0.906
3.69231	0.907
3.73227	0.929
3.77223	0.932
3.81218	0.939
3.85214	0.937
3.8921	0.942
3.93206	0.949
3.97201	0.954
4.01197	0.954
4.05193	0.953
4.09189	0.953
4.13185	0.953
4.1718	0.953
4.21176	0.964
4.25172	0.971
4.29168	0.914
4.33163	0.902
4.37159	0.946
4.41155	0.956
4.45151	0.956
4.49147	0.956
4.53142	0.958
4.57138	0.958
4.61134	0.958
4.6513	0.959
4.69125	0.959
4.73121	0.959
4.77117	0.961
4.81113	0.961
4.85109	0.961
4.89104	0.959
4.931	0.959
4.97096	0.958
5.01092	0.956
5.05087	0.953
5.09083	0.951
5.13079	0.954
5.17075	0.953
5.21071	0.937
5.25066	0.932
5.29062	0.932
5.33058	0.941
5.37054	0.934
5.41049	0.932
5.45045	0.927
5.49041	0.919
5.53037	0.934
5.57033	0.937
5.61028	0.939
5.65024	0.939
5.6902	0.953
5.73016	0.947
5.77011	0.934
5.81007	0.946
5.85003	0.941
5.88999	0.919
5.92994	0.932
5.9699	0.916
6.00986	0.922
6.04982	0.921
6.08978	0.919
6.12973	0.919
6.16969	0.921
6.20965	0.921
6.24961	0.86
6.28956	0.919
6.32952	0.926
6.36948	0.929
6.40944	0.904
6.4494	0.926
6.48935	0.917
6.52931	0.917
6.56927	0.904
6.60923	0.89
6.64918	0.877
6.68914	0.778
6.7291	0.677
6.76906	0.456
6.80902	0.453
6.84897	0.612
6.88893	0.635
6.92889	0.62
6.96885	0.842
7.0088	0.87
7.04876	0.879
7.08872	0.874
7.12868	0.823
7.16864	0.701
7.20859	0.6
7.24855	0.726
7.28851	0.692
7.32847	0.724
7.36842	0.852
7.40838	0.862
7.44834	0.864
7.4883	0.85
7.52826	0.855
7.56821	0.864
7.60817	0.848
7.64813	0.84
7.68809	0.82
7.72804	0.783
7.768	0.724
7.80796	0.635
7.84792	0.528
7.88787	0.387
7.92783	0.273
7.96779	0.26
8.00775	0.332
8.04771	0.479
8.08766	0.614
8.12762	0.701
8.16758	0.788
8.20754	0.833
8.24749	0.854
8.28745	0.857
8.32741	0.857
8.36737	0.859
8.40733	0.85
8.44728	0.82
8.48724	0.771
8.5272	0.729
8.56716	0.714
8.60711	0.703
8.64707	0.701
8.68703	0.691
8.72699	0.62
8.76695	0.392
8.8069	0.275
8.84686	0.496
8.88682	0.627
8.92678	0.701
8.96673	0.736
9.00669	0.753
9.04665	0.756
9.08661	0.738
9.12657	0.686
9.16652	0.627
9.20648	0.583
9.24644	0.582
9.2864	0.553
9.32635	0.515
9.36631	0.458
9.40627	0.355
9.44623	0.283
9.48619	0.25
9.52614	0.238
9.5661	0.238
9.60606	0.244
9.64602	0.244
9.68597	0.219
9.72593	0.187
9.76589	0.169
9.80585	0.151
9.84581	0.139
9.88576	0.139
9.92572	0.156
9.96568	0.203
10.0056	0.246
10.0456	0.266
10.0856	0.258
10.1255	0.236
10.1655	0.234
10.2054	0.255
10.2454	0.32
10.2853	0.406
10.3253	0.424
10.3653	0.401
10.4052	0.375
10.4452	0.401
10.4851	0.484
10.5251	0.575
10.565	0.619
10.605	0.667
10.645	0.701
10.6849	0.736
10.7249	0.741
10.7648	0.723
10.8048	0.687
10.8447	0.684
10.8847	0.689
10.9247	0.686
10.9646	0.706
11.0046	0.751
11.0445	0.776
11.0845	0.771
11.1245	0.743
11.1644	0.721
11.2044	0.711
11.2443	0.703
11.2843	0.691
11.3242	0.664
11.3642	0.644
11.4042	0.634
11.4441	0.622
11.4841	0.615
11.524	0.614
11.564	0.615
11.6039	0.619
11.6439	0.622
11.6839	0.622
11.7238	0.62
11.7638	0.625
11.8037	0.637
11.8437	0.639
11.8837	0.639
11.9236	0.644
11.9636	0.662
12.0035	0.684
12.0435	0.694
12.0834	0.701
12.1234	0.692
12.1634	0.671
12.2033	0.652
12.2433	0.644
12.2832	0.644
12.3232	0.632
12.3631	0.634
12.4031	0.635
12.4431	0.639
12.483	0.657
12.523	0.674
12.5629	0.686
12.6029	0.701
12.6428	0.714
12.6828	0.744
12.7228	0.755
12.7627	0.763
12.8027	0.766
12.8426	0.758
12.8826	0.75
12.9226	0.738
12.9625	0.734
13.0025	0.743
13.0424	0.744
13.0824	0.723
13.1223	0.662
13.1623	0.592
13.2023	0.545
13.2422	0.5
13.2822	0.494
13.3221	0.567
13.3621	0.676
13.402	0.763
13.442	0.803
13.482	0.832
13.5219	0.847
13.5619	0.85
13.6018	0.852
13.6418	0.852
13.6817	0.847
13.7217	0.82
13.7617	0.78
13.8016	0.724
13.8416	0.649
13.8815	0.619
13.9215	0.615
13.9615	0.634
14.0014	0.669
14.0414	0.699
14.0813	0.716
14.1213	0.726
14.1612	0.713
14.2012	0.666
14.2412	0.6
14.2811	0.53
14.3211	0.463
14.361	0.441
14.401	0.484
14.4409	0.57
14.4809	0.672
14.5209	0.726
14.5608	0.778
14.6008	0.8
14.6407	0.807
14.6807	0.81
14.7207	0.812
14.7606	0.813
14.8006	0.812
14.8405	0.812
14.8805	0.803
14.9204	0.793
14.9604	0.79
15.0004	0.793
15.0403	0.798
15.0803	0.802
15.1202	0.802
15.1602	0.8
15.2001	0.795
15.2401	0.791
15.2801	0.785
15.32	0.781
15.36	0.776
15.3999	0.773
15.4399	0.768
15.4798	0.766
15.5198	0.76
15.5598	0.751
15.5997	0.746
15.6397	0.734
15.6796	0.729
15.7196	0.723
15.7596	0.714
15.7995	0.704
15.8395	0.692
15.8794	0.691
15.9194	0.689
15.9593	0.734
15.9993	0.686
