Infrared Spectrum: ETHANOL, 2-[(6-AMINO-5-NITRO-4-PYRIMIDINYL)THIO]-
Formula: C6 H8 N4 O3 S
CAS: 116434-78-7
State: SOLID (1 mg / 650 mg KBr DISC)
Class: COBLENTZ III
Instrument: PERKIN-ELMER 221 (GRATING)
Instrument parameters: FILTER AT 980 CM ^-^1, GRATING FOR 4000-1428 CM^-^1, NaCl PRISM FOR 1428-650 CM^-^1
Sampling: TRANSMISSION
Resolution: 4
Origin: SOUTHERN RES. INSTITUTE
1/CM	TRANSMITTANCE
639.044	0.828
648.187	0.845
657.331	0.845
666.474	0.909
675.618	0.933
684.761	0.949
693.905	0.958
703.048	0.959
712.192	0.961
721.335	0.96
730.479	0.939
739.622	0.892
748.765	0.948
757.909	0.905
767.052	0.874
776.196	0.936
785.339	0.869
794.483	0.733
803.626	0.955
812.77	0.99
821.913	0.99
831.057	0.987
840.2	0.984
849.344	0.971
858.487	0.948
867.63	0.738
876.774	0.933
885.917	0.988
895.061	0.989
904.204	0.986
913.348	0.977
922.491	0.966
931.635	0.954
940.778	0.94
949.922	0.91
959.065	0.9
968.208	0.763
977.352	0.641
986.495	0.898
995.639	0.816
1004.78	0.722
1013.93	0.837
1023.07	0.715
1032.21	0.546
1041.36	0.506
1050.5	0.767
1059.64	0.885
1068.79	0.929
1077.93	0.927
1087.07	0.917
1096.22	0.91
1105.36	0.902
1114.5	0.882
1123.65	0.878
1132.79	0.878
1141.93	0.875
1151.08	0.852
1160.22	0.843
1169.36	0.823
1178.51	0.8
1187.65	0.78
1196.79	0.7
1205.94	0.68
1215.08	0.816
1224.23	0.845
1233.37	0.817
1242.51	0.741
1251.66	0.647
1260.8	0.624
1269.94	0.66
1279.09	0.728
1288.23	0.789
1297.37	0.794
1306.52	0.662
1315.66	0.483
1324.8	0.305
1333.95	0.484
1343.09	0.631
1352.23	0.786
1361.38	0.781
1370.52	0.676
1379.66	0.559
1388.81	0.643
1397.95	0.805
1407.09	0.73
1416.24	0.824
1425.38	0.8
1434.52	0.745
1443.67	0.658
1452.81	0.579
1461.96	0.624
1471.1	0.649
1480.24	0.606
1489.39	0.494
1498.53	0.448
1507.67	0.576
1516.82	0.461
1525.96	0.592
1535.1	0.669
1544.25	0.652
1553.39	0.556
1562.53	0.295
1571.68	0.233
1580.82	0.356
1589.96	0.485
1599.11	0.644
1608.25	0.722
1617.39	0.722
1626.54	0.546
1635.68	0.447
1644.82	0.217
1653.97	0.334
1663.11	0.595
1672.25	0.783
1681.4	0.834
1690.54	0.881
1699.69	0.91
1708.83	0.942
1717.97	0.956
1727.12	0.965
1736.26	0.974
1745.4	0.979
1754.55	0.983
1763.69	0.987
1772.83	0.988
1781.98	0.988
1791.12	0.988
1800.26	0.987
1809.41	0.987
1818.55	0.987
1827.69	0.987
1836.84	0.987
1845.98	0.986
1855.12	0.986
1864.27	0.986
1873.41	0.985
1882.55	0.984
1891.7	0.984
1900.84	0.984
1909.98	0.983
1919.13	0.982
1928.27	0.981
1937.42	0.98
1946.56	0.977
1955.7	0.974
1964.85	0.971
1973.99	0.967
1983.13	0.962
1992.28	0.959
2001.42	0.957
2010.56	0.955
2019.71	0.953
2028.85	0.951
2037.99	0.949
2047.14	0.948
2056.28	0.946
2065.42	0.945
2074.57	0.945
2083.71	0.943
2092.85	0.942
2102	0.941
2111.14	0.938
2120.28	0.936
2129.43	0.933
2138.57	0.932
2147.71	0.933
2156.86	0.933
2166	0.933
2175.14	0.93
2184.29	0.929
2193.43	0.928
2202.58	0.925
2211.72	0.923
2220.86	0.923
2230.01	0.924
2239.15	0.924
2248.29	0.923
2257.44	0.923
2266.58	0.92
2275.72	0.917
2284.87	0.916
2294.01	0.913
2303.15	0.911
2312.3	0.908
2321.44	0.903
2330.58	0.898
2339.73	0.894
2348.87	0.891
2358.01	0.888
2367.16	0.887
2376.3	0.888
2385.44	0.889
2394.59	0.891
2403.73	0.891
2412.87	0.893
2422.02	0.894
2431.16	0.895
2440.31	0.895
2449.45	0.894
2458.59	0.892
2467.74	0.89
2476.88	0.887
2486.02	0.884
2495.17	0.88
2504.31	0.877
2513.45	0.874
2522.6	0.871
2531.74	0.87
2540.88	0.869
2550.03	0.868
2559.17	0.866
2568.31	0.866
2577.46	0.863
2586.6	0.862
2595.74	0.86
2604.89	0.859
2614.03	0.857
2623.17	0.854
2632.32	0.851
2641.46	0.848
2650.6	0.843
2659.75	0.84
2668.89	0.838
2678.04	0.837
2687.18	0.837
2696.32	0.836
2705.47	0.834
2714.61	0.834
2723.75	0.831
2732.9	0.829
2742.04	0.828
2751.18	0.827
2760.33	0.824
2769.47	0.822
2778.61	0.819
2787.76	0.816
2796.9	0.812
2806.04	0.808
2815.19	0.804
2824.33	0.8
2833.47	0.796
2842.62	0.791
2851.76	0.786
2860.9	0.781
2870.05	0.775
2879.19	0.764
2888.33	0.757
2897.48	0.751
2906.62	0.745
2915.77	0.737
2924.91	0.729
2934.05	0.72
2943.2	0.703
2952.34	0.697
2961.48	0.701
2970.63	0.741
2979.77	0.739
2988.91	0.735
2998.06	0.731
3007.2	0.727
3016.34	0.723
3025.49	0.716
3034.63	0.702
3043.77	0.684
3052.92	0.67
3062.06	0.659
3071.2	0.649
3080.35	0.64
3089.49	0.634
3098.63	0.628
3107.78	0.621
3116.92	0.6
3126.06	0.575
3135.21	0.535
3144.35	0.492
3153.49	0.456
3162.64	0.426
3171.78	0.426
3180.93	0.448
3190.07	0.532
3199.21	0.561
3208.36	0.585
3217.5	0.591
3226.64	0.598
3235.79	0.643
3244.93	0.646
3254.07	0.637
3263.22	0.594
3272.36	0.544
3281.5	0.506
3290.65	0.515
3299.79	0.547
3308.93	0.585
3318.08	0.605
3327.22	0.601
3336.36	0.593
3345.51	0.581
3354.65	0.568
3363.79	0.555
3372.94	0.546
3382.08	0.541
3391.22	0.524
3400.37	0.507
3409.51	0.433
3418.66	0.437
3427.8	0.557
3436.94	0.63
3446.09	0.645
3455.23	0.663
3464.37	0.686
3473.52	0.696
3482.66	0.704
3491.8	0.71
3500.95	0.718
3510.09	0.732
3519.23	0.743
3528.38	0.746
3537.52	0.752
3546.66	0.761
3555.81	0.765
3564.95	0.777
3574.09	0.788
3583.24	0.793
3592.38	0.8
3601.52	0.809
3610.67	0.818
3619.81	0.827
3628.95	0.831
3638.1	0.834
3647.24	0.836
3656.39	0.837
3665.53	0.835
3674.67	0.835
3683.82	0.837
3692.96	0.838
3702.1	0.837
3711.25	0.834
3720.39	0.832
3729.53	0.83
3738.68	0.827
3747.82	0.825
3756.96	0.828
3766.11	0.829
3775.25	0.828
3784.39	0.825
3793.54	0.823
3802.68	0.819
3811.82	0.816
3820.97	0.815
3830.11	0.814
3839.25	0.813
3848.4	0.812
3857.54	0.812
3866.68	0.811
3875.83	0.81
3884.97	0.809
3894.12	0.808
3903.26	0.807
3912.4	0.805
3921.55	0.803
3930.69	0.801
3939.83	0.799
3948.98	0.799
3958.12	0.801
3967.26	0.802
3976.41	0.803
3985.55	0.804
3994.69	0.804
4003.84	0.802
4012.98	0.801
