Infrared Spectrum: 2-(N,N-DI-n-BUTYLAMINO)-3-(n-PENTYL)PYRAZINE
Formula: C17 H31 N3
CAS: 116403-00-0
State: LIQUID
Class: COBLENTZ
Instrument: Not specified, most likely a prism, grating, or hybrid spectrometer.
Sampling: TRANSMISSION
Path length: 0.0015 CM
Resolution: 4
Origin: WYANDOTTE CHEMICALS CORP., WYANDOTTE, MICHIGAN, USA
MICROMETERS	TRANSMITTANCE
2.027	0.961
2.06679	0.96
2.10658	0.951
2.14637	0.945
2.18617	0.911
2.22596	0.905
2.26575	0.92
2.30554	0.92
2.34533	0.92
2.38512	0.925
2.42491	0.928
2.4647	0.935
2.5045	0.941
2.54429	0.95
2.58408	0.948
2.62387	0.953
2.66366	0.95
2.70345	0.955
2.74324	0.95
2.78304	0.938
2.82283	0.93
2.86262	0.921
2.90241	0.91
2.9422	0.91
2.98199	0.905
3.02178	0.903
3.06158	0.898
3.10137	0.868
3.14116	0.852
3.18095	0.815
3.22074	0.78
3.26053	0.498
3.30032	0.395
3.34011	0.054
3.37991	0.081
3.4197	0.111
3.45949	0.129
3.49928	0.378
3.53907	0.632
3.57886	0.75
3.61865	0.782
3.65845	0.785
3.69824	0.81
3.73803	0.82
3.77782	0.847
3.81761	0.87
3.8574	0.872
3.89719	0.883
3.93699	0.892
3.97678	0.882
4.01657	0.89
4.05636	0.882
4.09615	0.885
4.13594	0.877
4.17573	0.872
4.21552	0.867
4.25532	0.887
4.29511	0.905
4.3349	0.915
4.37469	0.906
4.41448	0.888
4.45427	0.898
4.49406	0.905
4.53386	0.906
4.57365	0.91
4.61344	0.92
4.65323	0.913
4.69302	0.91
4.73281	0.918
4.7726	0.92
4.8124	0.925
4.85219	0.928
4.89198	0.928
4.93177	0.92
4.97156	0.921
5.01135	0.923
5.05114	0.918
5.09093	0.921
5.13073	0.923
5.17052	0.921
5.21031	0.918
5.2501	0.906
5.28989	0.9
5.32968	0.903
5.36947	0.918
5.40927	0.92
5.44906	0.918
5.48885	0.911
5.52864	0.91
5.56843	0.9
5.60822	0.883
5.64801	0.883
5.68781	0.89
5.7276	0.882
5.76739	0.868
5.80718	0.852
5.84697	0.86
5.88676	0.845
5.92655	0.845
5.96634	0.837
6.00614	0.827
6.04593	0.82
6.08572	0.812
6.12551	0.807
6.1653	0.797
6.20509	0.774
6.24488	0.696
6.28468	0.513
6.32447	0.516
6.36426	0.566
6.40405	0.627
6.44384	0.524
6.48363	0.182
6.52342	0.277
6.56322	0.506
6.60301	0.589
6.6428	0.473
6.68259	0.405
6.72238	0.305
6.76217	0.081
6.80196	0.119
6.84175	0.181
6.88155	0.217
6.92134	0.215
6.96113	0.142
7.00092	0.081
7.04071	0.086
7.0805	0.245
7.12029	0.358
7.16009	0.318
7.19988	0.117
7.23967	0.093
7.27946	0.176
7.31925	0.28
7.35904	0.318
7.39883	0.352
7.43863	0.41
7.47842	0.471
7.51821	0.521
7.558	0.503
7.59779	0.443
7.63758	0.39
7.67737	0.38
7.71716	0.36
7.75696	0.357
7.79675	0.451
7.83654	0.521
7.87633	0.5
7.91612	0.44
7.95591	0.436
7.9957	0.483
8.0355	0.456
8.07529	0.416
8.11508	0.362
8.15487	0.342
8.19466	0.403
8.23445	0.445
8.27424	0.448
8.31404	0.433
8.35383	0.387
8.39362	0.348
8.43341	0.353
8.4732	0.37
8.51299	0.318
8.55278	0.234
8.59257	0.215
8.63237	0.267
8.67216	0.33
8.71195	0.36
8.75174	0.343
8.79153	0.232
8.83132	0.179
8.87111	0.279
8.91091	0.315
8.9507	0.328
8.99049	0.362
9.03028	0.378
9.07007	0.373
9.10986	0.433
9.14965	0.458
9.18945	0.473
9.22924	0.508
9.26903	0.558
9.30882	0.594
9.34861	0.599
9.3884	0.599
9.42819	0.627
9.46798	0.651
9.50778	0.684
9.54757	0.729
9.58736	0.754
9.62715	0.752
9.66694	0.759
9.70673	0.749
9.74652	0.74
9.78632	0.72
9.82611	0.73
9.8659	0.74
9.90569	0.752
9.94548	0.739
9.98527	0.7
10.0251	0.699
10.0649	0.744
10.1046	0.754
10.1444	0.749
10.1842	0.735
10.224	0.74
10.2638	0.732
10.3036	0.734
10.3434	0.735
10.3832	0.73
10.423	0.742
10.4628	0.74
10.5026	0.739
10.5424	0.714
10.5821	0.689
10.6219	0.654
10.6617	0.642
10.7015	0.622
10.7413	0.591
10.7811	0.544
10.8209	0.548
10.8607	0.636
10.9005	0.715
10.9403	0.754
10.9801	0.75
11.0198	0.745
11.0596	0.7
11.0994	0.677
11.1392	0.709
11.179	0.747
11.2188	0.772
11.2586	0.774
11.2984	0.774
11.3382	0.775
11.378	0.769
11.4178	0.772
11.4576	0.782
11.4973	0.785
11.5371	0.767
11.5769	0.744
11.6167	0.719
11.6565	0.682
11.6963	0.637
11.7361	0.596
11.7759	0.534
11.8157	0.49
11.8555	0.456
11.8953	0.451
11.935	0.48
11.9748	0.516
12.0146	0.576
12.0544	0.642
12.0942	0.704
12.134	0.747
12.1738	0.77
12.2136	0.797
12.2534	0.8
12.2932	0.808
12.333	0.815
12.3728	0.813
12.4125	0.81
12.4523	0.817
12.4921	0.815
12.5319	0.808
12.5717	0.803
12.6115	0.803
12.6513	0.803
12.6911	0.808
12.7309	0.81
12.7707	0.807
12.8105	0.803
12.8503	0.81
12.89	0.813
12.9298	0.82
12.9696	0.817
13.0094	0.81
13.0492	0.808
13.089	0.8
13.1288	0.794
13.1686	0.777
13.2084	0.765
13.2482	0.75
13.288	0.722
13.3277	0.712
13.3675	0.697
13.4073	0.689
13.4471	0.681
13.4869	0.682
13.5267	0.691
13.5665	0.679
13.6063	0.664
13.6461	0.641
13.6859	0.621
13.7257	0.622
13.7655	0.652
13.8052	0.692
13.845	0.74
13.8848	0.77
13.9246	0.78
13.9644	0.8
14.0042	0.807
14.044	0.813
14.0838	0.817
14.1236	0.817
14.1634	0.82
14.2032	0.832
14.2429	0.822
14.2827	0.822
14.3225	0.823
14.3623	0.828
14.4021	0.833
14.4419	0.832
14.4817	0.838
14.5215	0.843
14.5613	0.84
14.6011	0.84
14.6409	0.843
14.6807	0.84
14.7204	0.843
14.7602	0.845
14.8	0.842
14.8398	0.837
14.8796	0.837
14.9194	0.837
14.9592	0.832
14.999	0.818
15.0388	0.782
15.0786	0.745
15.1184	0.74
15.1581	0.762
15.1979	0.79
15.2377	0.803
15.2775	0.8
15.3173	0.8
15.3571	0.8
15.3969	0.8
15.4367	0.792
15.4765	0.789
15.5163	0.784
15.5561	0.784
15.5959	0.78
15.6356	0.782
15.6754	0.772
15.7152	0.765
15.755	0.755
15.7948	0.75
15.8346	0.745
15.8744	0.734
15.9142	0.732
15.954	0.725
15.9938	0.722
