Infrared Spectrum: CYCLOPENTANEMETHANETHIOL, 1-(6-PURINYLAMINO)-, HYDROCHLORIDE
Formula: C11 H16 Cl N5 S
CAS: 116402-73-4
State: SOLID (1 mg / 650 mg KBr DISC)
Class: COBLENTZ III
Instrument: PERKIN-ELMER 521 (GRATING)
Instrument parameters: FILTERS AT 3150, 2500, 2000, 1150, 700, 410 CM ^-^1, GRATING CHANGES AT 2000, 630 CM ^-^1
Sampling: TRANSMISSION
Resolution: 4
Origin: SOUTHERN RES. INSTITUTE
1/CM	TRANSMITTANCE
267.178	0.353
276.38	0.409
285.583	0.488
294.785	0.54
303.988	0.575
313.19	0.566
322.393	0.552
331.595	0.648
340.798	0.74
350	0.771
359.203	0.798
368.405	0.824
377.608	0.846
386.81	0.862
396.013	0.873
405.215	0.881
414.418	0.891
423.62	0.894
432.822	0.892
442.025	0.888
451.227	0.876
460.43	0.868
469.632	0.846
478.835	0.883
488.037	0.896
497.24	0.887
506.442	0.876
515.645	0.878
524.847	0.855
534.05	0.736
543.252	0.758
552.455	0.836
561.657	0.888
570.859	0.881
580.062	0.868
589.264	0.844
598.467	0.817
607.669	0.681
616.872	0.488
626.074	0.76
635.277	0.881
644.479	0.877
653.682	0.863
662.884	0.801
672.087	0.833
681.289	0.849
690.492	0.846
699.694	0.832
708.897	0.812
718.099	0.807
727.301	0.811
736.504	0.812
745.706	0.811
754.909	0.805
764.111	0.77
773.314	0.574
782.516	0.719
791.719	0.75
800.921	0.744
810.124	0.749
819.326	0.743
828.529	0.722
837.731	0.725
846.934	0.753
856.136	0.786
865.339	0.811
874.541	0.817
883.743	0.803
892.946	0.778
902.148	0.766
911.351	0.791
920.553	0.824
929.756	0.847
938.958	0.839
948.161	0.738
957.363	0.792
966.566	0.876
975.768	0.885
984.971	0.869
994.173	0.858
1003.38	0.866
1012.58	0.859
1021.78	0.857
1030.98	0.866
1040.19	0.863
1049.39	0.847
1058.59	0.827
1067.79	0.81
1077	0.798
1086.2	0.763
1095.4	0.773
1104.6	0.785
1113.81	0.742
1123.01	0.769
1132.21	0.778
1141.41	0.786
1150.62	0.78
1159.82	0.751
1169.02	0.758
1178.22	0.772
1187.42	0.738
1196.63	0.655
1205.83	0.479
1215.03	0.353
1224.23	0.46
1233.44	0.681
1242.64	0.732
1251.84	0.747
1261.04	0.73
1270.25	0.69
1279.45	0.632
1288.65	0.552
1297.85	0.642
1307.06	0.67
1316.26	0.671
1325.46	0.664
1334.66	0.606
1343.87	0.475
1353.07	0.472
1362.27	0.591
1371.47	0.523
1380.68	0.395
1389.88	0.268
1399.08	0.303
1408.28	0.563
1417.49	0.592
1426.69	0.508
1435.89	0.419
1445.09	0.321
1454.3	0.217
1463.5	0.241
1472.7	0.289
1481.9	0.544
1491.11	0.58
1500.31	0.553
1509.51	0.403
1518.71	0.632
1527.92	0.789
1537.12	0.751
1546.32	0.704
1555.52	0.598
1564.73	0.533
1573.93	0.561
1583.13	0.603
1592.33	0.488
1601.54	0.361
1610.74	0.306
1619.94	0.246
1629.14	0.121
1638.35	0.067
1647.55	0.079
1656.75	0.198
1665.95	0.418
1675.16	0.593
1684.36	0.781
1693.56	0.827
1702.76	0.869
1711.97	0.891
1721.17	0.897
1730.37	0.898
1739.57	0.898
1748.78	0.899
1757.98	0.898
1767.18	0.897
1776.38	0.895
1785.59	0.894
1794.79	0.889
1803.99	0.884
1813.19	0.881
1822.4	0.885
1831.6	0.893
1840.8	0.897
1850	0.899
1859.21	0.899
1868.41	0.897
1877.61	0.896
1886.81	0.894
1896.02	0.894
1905.22	0.894
1914.42	0.893
1923.62	0.891
1932.82	0.889
1942.03	0.884
1951.23	0.881
1960.43	0.878
1969.63	0.881
1978.84	0.881
1988.04	0.879
1997.24	0.878
2006.44	0.878
2015.65	0.876
2024.85	0.875
2034.05	0.873
2043.25	0.872
2052.46	0.869
2061.66	0.867
2070.86	0.864
2080.06	0.862
2089.27	0.859
2098.47	0.856
2107.67	0.853
2116.87	0.85
2126.08	0.848
2135.28	0.844
2144.48	0.837
2153.68	0.832
2162.89	0.828
2172.09	0.825
2181.29	0.821
2190.49	0.817
2199.7	0.811
2208.9	0.806
2218.1	0.796
2227.3	0.793
2236.51	0.789
2245.71	0.78
2254.91	0.774
2264.11	0.767
2273.32	0.759
2282.52	0.751
2291.72	0.747
2300.92	0.734
2310.13	0.721
2319.33	0.705
2328.53	0.697
2337.73	0.685
2346.94	0.675
2356.14	0.664
2365.34	0.662
2374.54	0.659
2383.75	0.652
2392.95	0.643
2402.15	0.632
2411.35	0.625
2420.56	0.616
2429.76	0.604
2438.96	0.593
2448.16	0.58
2457.37	0.567
2466.57	0.552
2475.77	0.538
2484.97	0.523
2494.18	0.507
2503.38	0.49
2512.58	0.473
2521.78	0.464
2530.99	0.461
2540.19	0.456
2549.39	0.45
2558.59	0.446
2567.8	0.44
2577	0.437
2586.2	0.434
2595.4	0.423
2604.61	0.396
2613.81	0.388
2623.01	0.39
2632.21	0.393
2641.42	0.383
2650.62	0.37
2659.82	0.362
2669.02	0.357
2678.22	0.353
2687.43	0.345
2696.63	0.333
2705.83	0.325
2715.03	0.319
2724.24	0.314
2733.44	0.31
2742.64	0.308
2751.84	0.306
2761.05	0.293
2770.25	0.287
2779.45	0.283
2788.65	0.281
2797.86	0.285
2807.06	0.293
2816.26	0.302
2825.46	0.322
2834.67	0.324
2843.87	0.311
2853.07	0.3
2862.27	0.287
2871.48	0.276
2880.68	0.297
2889.88	0.309
2899.08	0.305
2908.29	0.291
2917.49	0.274
2926.69	0.252
2935.89	0.228
2945.1	0.203
2954.3	0.192
2963.5	0.207
2972.7	0.225
2981.91	0.264
2991.11	0.288
3000.31	0.292
3009.51	0.293
3018.72	0.296
3027.92	0.299
3037.12	0.306
3046.32	0.319
3055.53	0.347
3064.73	0.362
3073.93	0.344
3083.13	0.339
3092.34	0.344
3101.54	0.357
3110.74	0.371
3119.94	0.38
3129.15	0.389
3138.35	0.402
3147.55	0.436
3156.75	0.465
3165.96	0.489
3175.16	0.482
3184.36	0.47
3193.56	0.46
3202.77	0.463
3211.97	0.475
3221.17	0.482
3230.37	0.482
3239.58	0.484
3248.78	0.507
3257.98	0.546
3267.18	0.587
3276.39	0.623
3285.59	0.647
3294.79	0.67
3303.99	0.691
3313.2	0.709
3322.4	0.713
3331.6	0.716
3340.8	0.715
3350.01	0.714
3359.21	0.708
3368.41	0.699
3377.61	0.69
3386.82	0.68
3396.02	0.674
3405.22	0.669
3414.42	0.664
3423.62	0.661
3432.83	0.662
3442.03	0.664
3451.23	0.666
3460.43	0.669
3469.64	0.672
3478.84	0.676
3488.04	0.68
3497.24	0.686
3506.45	0.693
3515.65	0.701
3524.85	0.709
3534.05	0.718
3543.26	0.728
3552.46	0.736
3561.66	0.743
3570.86	0.752
3580.07	0.763
3589.27	0.773
3598.47	0.782
3607.67	0.791
3616.88	0.798
3626.08	0.806
3635.28	0.817
3644.48	0.822
3653.69	0.824
3662.89	0.825
3672.09	0.826
3681.29	0.827
3690.5	0.829
3699.7	0.83
3708.9	0.83
3718.1	0.829
3727.31	0.827
3736.51	0.826
3745.71	0.824
3754.91	0.824
3764.12	0.824
3773.32	0.824
3782.52	0.824
