Infrared Spectrum: PHOSPHONIC DIAMIDE, N,N'-BIS (p-DIMETHYLANILINE)
Formula: C16 H23 N4 O P
CAS: 116401-82-2
State: SOLID (KBr PELLET)
Class: COBLENTZ
Instrument: PERKIN-ELMER
Sampling: TRANSMISSION
Resolution: 4
Origin: STANDARD OIL OF OHIO
MICROMETERS	TRANSMITTANCE
1.98	0.877
2.01377	0.88
2.04753	0.884
2.0813	0.885
2.11506	0.887
2.14883	0.885
2.18259	0.889
2.21636	0.894
2.25012	0.892
2.28389	0.889
2.31765	0.889
2.35142	0.892
2.38518	0.897
2.41895	0.899
2.45271	0.901
2.48648	0.901
2.52024	0.901
2.55401	0.902
2.58777	0.904
2.62154	0.911
2.6553	0.911
2.68907	0.906
2.72283	0.882
2.7566	0.802
2.79037	0.698
2.82413	0.589
2.8579	0.526
2.89166	0.492
2.92543	0.499
2.95919	0.505
2.99296	0.504
3.02672	0.451
3.06049	0.378
3.09425	0.345
3.12802	0.366
3.16178	0.449
3.19555	0.557
3.22931	0.599
3.26308	0.614
3.29684	0.643
3.33061	0.594
3.36437	0.524
3.39814	0.529
3.4319	0.517
3.46567	0.488
3.49944	0.499
3.5332	0.526
3.56697	0.483
3.60073	0.669
3.6345	0.798
3.66826	0.85
3.70203	0.87
3.73579	0.882
3.76956	0.889
3.80332	0.892
3.83709	0.902
3.87085	0.908
3.90462	0.909
3.93838	0.914
3.97215	0.918
4.00591	0.919
4.03968	0.921
4.07344	0.916
4.10721	0.902
4.14097	0.873
4.17474	0.814
4.2085	0.783
4.24227	0.8
4.27604	0.833
4.3098	0.889
4.34357	0.919
4.37733	0.93
4.4111	0.93
4.44486	0.931
4.47863	0.933
4.51239	0.935
4.54616	0.935
4.57992	0.933
4.61369	0.931
4.64745	0.93
4.68122	0.928
4.71498	0.926
4.74875	0.925
4.78251	0.921
4.81628	0.918
4.85004	0.916
4.88381	0.914
4.91757	0.914
4.95134	0.919
4.9851	0.925
5.01887	0.928
5.05264	0.931
5.0864	0.93
5.12017	0.928
5.15393	0.928
5.1877	0.926
5.22146	0.918
5.25523	0.906
5.28899	0.899
5.32276	0.896
5.35652	0.892
5.39029	0.889
5.42405	0.906
5.45782	0.921
5.49158	0.925
5.52535	0.928
5.55911	0.93
5.59288	0.928
5.62664	0.925
5.66041	0.918
5.69417	0.913
5.72794	0.909
5.76171	0.906
5.79547	0.901
5.82924	0.897
5.863	0.88
5.89677	0.872
5.93053	0.865
5.9643	0.853
5.99806	0.829
6.03183	0.788
6.06559	0.741
6.09936	0.705
6.13312	0.64
6.16689	0.582
6.20065	0.635
6.23442	0.717
6.26818	0.747
6.30195	0.758
6.33571	0.754
6.36948	0.752
6.40324	0.737
6.43701	0.638
6.47077	0.488
6.50454	0.219
6.53831	0.027
6.57207	0.008
6.60584	0.066
6.6396	0.333
6.67337	0.499
6.70713	0.499
6.7409	0.398
6.77466	0.352
6.80843	0.342
6.84219	0.328
6.87596	0.318
6.90972	0.323
6.94349	0.417
6.97725	0.625
7.01102	0.705
7.04478	0.684
7.07855	0.664
7.11231	0.701
7.14608	0.591
7.17984	0.4
7.21361	0.379
7.24737	0.456
7.28114	0.534
7.31491	0.55
7.34867	0.504
7.38244	0.432
7.4162	0.378
7.44997	0.371
7.48373	0.407
7.5175	0.473
7.55126	0.478
7.58503	0.402
7.61879	0.417
7.65256	0.466
7.68632	0.427
7.72009	0.284
7.75385	0.17
7.78762	0.187
7.82138	0.342
7.85515	0.497
7.88891	0.599
7.92268	0.614
7.95644	0.56
7.99021	0.458
8.02398	0.272
8.05774	0.219
8.09151	0.235
8.12527	0.301
8.15904	0.315
8.1928	0.277
8.22657	0.262
8.26033	0.265
8.2941	0.258
8.32786	0.226
8.36163	0.192
8.39539	0.153
8.42916	0.131
8.46292	0.12
8.49669	0.12
8.53045	0.134
8.56422	0.151
8.59798	0.19
8.63175	0.286
8.66551	0.419
8.69928	0.475
8.73304	0.495
8.76681	0.494
8.80058	0.487
8.83434	0.494
8.86811	0.534
8.90187	0.604
8.93564	0.678
8.9694	0.732
9.00317	0.775
9.03693	0.792
9.0707	0.797
9.10446	0.793
9.13823	0.792
9.17199	0.797
9.20576	0.802
9.23952	0.802
9.27329	0.793
9.30705	0.773
9.34082	0.742
9.37458	0.691
9.40835	0.621
9.44211	0.555
9.47588	0.54
9.50964	0.56
9.54341	0.58
9.57718	0.563
9.61094	0.54
9.64471	0.541
9.67847	0.565
9.71224	0.608
9.746	0.647
9.77977	0.671
9.81353	0.679
9.8473	0.655
9.88106	0.541
9.91483	0.475
9.94859	0.58
9.98236	0.626
10.0161	0.604
10.0499	0.526
10.0837	0.431
10.1174	0.33
10.1512	0.258
10.1849	0.209
10.2187	0.18
10.2525	0.153
10.2862	0.139
10.32	0.134
10.3538	0.132
10.3875	0.131
10.4213	0.132
10.4551	0.134
10.4888	0.129
10.5226	0.122
10.5564	0.132
10.5901	0.155
10.6239	0.204
10.6577	0.252
10.6914	0.293
10.7252	0.327
10.759	0.361
10.7927	0.379
10.8265	0.41
10.8603	0.453
10.894	0.5
10.9278	0.545
10.9615	0.592
10.9953	0.635
11.0291	0.681
11.0628	0.72
11.0966	0.744
11.1304	0.771
11.1641	0.802
11.1979	0.816
11.2317	0.829
11.2654	0.841
11.2992	0.848
11.333	0.853
11.3667	0.86
11.4005	0.862
11.4343	0.862
11.468	0.863
11.5018	0.865
11.5356	0.865
11.5693	0.863
11.6031	0.862
11.6369	0.855
11.6706	0.85
11.7044	0.838
11.7381	0.824
11.7719	0.804
11.8057	0.775
11.8394	0.746
11.8732	0.705
11.907	0.654
11.9407	0.606
11.9745	0.553
12.0083	0.495
12.042	0.441
12.0758	0.381
12.1096	0.323
12.1433	0.274
12.1771	0.248
12.2109	0.243
12.2446	0.243
12.2784	0.255
12.3122	0.287
12.3459	0.339
12.3797	0.403
12.4135	0.468
12.4472	0.529
12.481	0.582
12.5147	0.62
12.5485	0.64
12.5823	0.662
12.616	0.688
12.6498	0.72
12.6836	0.756
12.7173	0.78
12.7511	0.795
12.7849	0.805
12.8186	0.821
12.8524	0.831
12.8862	0.841
12.9199	0.846
12.9537	0.85
12.9875	0.851
13.0212	0.853
13.055	0.853
13.0888	0.85
13.1225	0.846
13.1563	0.846
13.1901	0.844
13.2238	0.843
13.2576	0.841
13.2914	0.838
13.3251	0.836
13.3589	0.831
13.3926	0.827
13.4264	0.826
13.4602	0.824
13.4939	0.819
13.5277	0.812
13.5615	0.804
13.5952	0.798
13.629	0.79
13.6628	0.781
13.6965	0.775
13.7303	0.77
13.7641	0.768
13.7978	0.764
13.8316	0.761
13.8654	0.761
13.8991	0.759
13.9329	0.756
13.9667	0.752
14.0004	0.752
14.0342	0.749
14.068	0.742
14.1017	0.735
14.1355	0.73
14.1692	0.725
14.203	0.72
14.2368	0.718
14.2705	0.718
14.3043	0.718
14.3381	0.718
14.3718	0.718
14.4056	0.72
14.4394	0.72
14.4731	0.72
14.5069	0.722
14.5407	0.722
14.5744	0.727
14.6082	0.73
14.642	0.732
14.6757	0.735
14.7095	0.737
14.7433	0.742
14.777	0.744
14.8108	0.746
14.8446	0.746
14.8783	0.747
14.9121	0.746
14.9458	0.747
14.9796	0.746
15.0134	0.746
15.0471	0.744
15.0809	0.741
15.1147	0.739
15.1484	0.734
15.1822	0.732
15.216	0.73
15.2497	0.73
15.2835	0.727
15.3173	0.724
15.351	0.722
15.3848	0.718
