Infrared Spectrum: P-TERT-AMYL-N,N-BIS(3-PHENYLPROPYL)ANILINE
Formula: C29 H37 N
CAS: 116436-27-2
State: SOLID (MINERAL OIL MULL)
Melting point: 48-52 C
Class: COBLENTZ
Instrument: Not specified, most likely a prism, grating, or hybrid spectrometer.
Sampling: TRANSMISSION
Resolution: 4
Origin: WYANDOTTE CHEMICALS CORP., WYANDOTTE, MICHIGAN, USA
MICROMETERS	TRANSMITTANCE
2.015	0.345
2.05492	0.347
2.09484	0.355
2.13476	0.358
2.17468	0.345
2.2146	0.332
2.25452	0.323
2.29444	0.328
2.33436	0.33
2.37428	0.327
2.4142	0.332
2.45412	0.343
2.49404	0.352
2.53396	0.353
2.57388	0.362
2.6138	0.365
2.65372	0.377
2.69364	0.38
2.73356	0.378
2.77348	0.38
2.8134	0.383
2.85332	0.387
2.89324	0.39
2.93316	0.392
2.97308	0.39
3.013	0.392
3.05292	0.392
3.09284	0.382
3.13276	0.378
3.17268	0.362
3.2126	0.303
3.25252	0.155
3.29244	0.105
3.33236	0.031
3.37228	0.025
3.4122	0.031
3.45212	0.026
3.49204	0.031
3.53196	0.151
3.57188	0.338
3.6118	0.42
3.65172	0.437
3.69164	0.442
3.73156	0.449
3.77148	0.469
3.8114	0.472
3.85132	0.482
3.89124	0.499
3.93116	0.509
3.97108	0.532
4.011	0.545
4.05092	0.554
4.09084	0.565
4.13076	0.569
4.17068	0.572
4.2106	0.57
4.25052	0.554
4.29044	0.569
4.33036	0.574
4.37028	0.599
4.4102	0.607
4.45012	0.606
4.49004	0.619
4.52996	0.622
4.56988	0.629
4.6098	0.632
4.64972	0.632
4.68964	0.639
4.72956	0.657
4.76948	0.666
4.8094	0.666
4.84932	0.684
4.88924	0.686
4.92916	0.682
4.96908	0.687
5.009	0.691
5.04892	0.701
5.08884	0.691
5.12876	0.661
5.16868	0.651
5.2086	0.691
5.24852	0.726
5.28844	0.712
5.32836	0.677
5.36828	0.612
5.4082	0.692
5.44812	0.729
5.48804	0.732
5.52795	0.684
5.56787	0.717
5.60779	0.761
5.64771	0.757
5.68763	0.732
5.72755	0.744
5.76747	0.789
5.80739	0.797
5.84731	0.803
5.88723	0.808
5.92715	0.823
5.96707	0.818
6.00699	0.786
6.04691	0.836
6.08683	0.649
6.12675	0.225
6.16667	0.085
6.20659	0.245
6.24651	0.487
6.28643	0.627
6.32635	0.666
6.36627	0.524
6.40619	0.595
6.44611	0.524
6.48603	0.387
6.52595	0.056
6.56587	0.053
6.60579	0.171
6.64571	0.08
6.68563	0.202
6.72555	0.103
6.76547	0.026
6.80539	0.036
6.84531	0.05
6.88523	0.123
6.92515	0.257
6.96507	0.485
7.00499	0.509
7.04491	0.52
7.08483	0.425
7.12475	0.1
7.16467	0.126
7.20459	0.071
7.24451	0.031
7.28443	0.043
7.32435	0.146
7.36427	0.3
7.40419	0.3
7.44411	0.352
7.48403	0.452
7.52395	0.472
7.56387	0.522
7.60379	0.487
7.64371	0.4
7.68363	0.238
7.72355	0.227
7.76347	0.343
7.80339	0.457
7.84331	0.49
7.88323	0.419
7.92315	0.123
7.96307	0.25
8.00299	0.372
8.04291	0.449
8.08283	0.45
8.12275	0.459
8.16267	0.442
8.20259	0.267
8.24251	0.043
8.28243	0.09
8.32235	0.196
8.36227	0.375
8.40219	0.412
8.44211	0.141
8.48203	0.071
8.52195	0.212
8.56187	0.338
8.60179	0.404
8.64171	0.425
8.68163	0.507
8.72155	0.504
8.76147	0.472
8.80139	0.385
8.84131	0.404
8.88123	0.419
8.92115	0.509
8.96107	0.555
9.00099	0.667
9.04091	0.717
9.08083	0.56
9.12075	0.393
9.16067	0.465
9.20059	0.3
9.24051	0.582
9.28043	0.687
9.32035	0.732
9.36027	0.741
9.40019	0.716
9.44011	0.606
9.48003	0.584
9.51995	0.632
9.55987	0.397
9.59979	0.307
9.63971	0.325
9.67963	0.283
9.71955	0.447
9.75947	0.509
9.79939	0.544
9.83931	0.619
9.87923	0.627
9.91915	0.627
9.95907	0.614
9.99899	0.692
10.0389	0.727
10.0788	0.706
10.1187	0.717
10.1587	0.729
10.1986	0.704
10.2385	0.584
10.2784	0.454
10.3183	0.44
10.3583	0.585
10.3982	0.671
10.4381	0.706
10.478	0.741
10.5179	0.764
10.5579	0.771
10.5978	0.769
10.6377	0.786
10.6776	0.761
10.7175	0.742
10.7575	0.774
10.7974	0.769
10.8373	0.781
10.8772	0.808
10.9171	0.811
10.9571	0.722
10.997	0.49
11.0369	0.689
11.0768	0.809
11.1167	0.871
11.1567	0.901
11.1966	0.906
11.2365	0.904
11.2764	0.913
11.3163	0.924
11.3563	0.938
11.3962	0.944
11.4361	0.943
11.476	0.941
11.5159	0.944
11.5559	0.939
11.5958	0.943
11.6357	0.929
11.6756	0.881
11.7155	0.741
11.7555	0.746
11.7954	0.799
11.8353	0.762
11.8752	0.644
11.9151	0.676
11.9551	0.771
11.995	0.826
12.0349	0.836
12.0748	0.841
12.1147	0.826
12.1547	0.796
12.1946	0.712
12.2345	0.585
12.2744	0.419
12.3143	0.146
12.3543	0.036
12.3942	0.078
12.4341	0.255
12.474	0.449
12.5139	0.537
12.5539	0.44
12.5938	0.499
12.6337	0.639
12.6736	0.651
12.7135	0.55
12.7535	0.469
12.7934	0.435
12.8333	0.539
12.8732	0.599
12.9131	0.606
12.9531	0.592
12.993	0.557
13.0329	0.51
13.0728	0.417
13.1127	0.267
13.1527	0.155
13.1926	0.095
13.2325	0.048
13.2724	0.036
13.3123	0.048
13.3523	0.08
13.3922	0.151
13.4321	0.235
13.472	0.303
13.5119	0.367
13.5519	0.429
13.5918	0.484
13.6317	0.544
13.6716	0.58
13.7115	0.59
13.7515	0.547
13.7914	0.57
13.8313	0.616
13.8712	0.649
13.9111	0.671
13.9511	0.684
13.991	0.687
14.0309	0.662
14.0708	0.609
14.1107	0.507
14.1507	0.372
14.1906	0.253
14.2305	0.135
14.2704	0.095
14.3103	0.066
14.3503	0.058
14.3902	0.071
14.4301	0.138
14.47	0.273
14.5099	0.41
14.5499	0.55
14.5898	0.642
14.6297	0.694
14.6696	0.734
14.7095	0.774
14.7495	0.813
14.7894	0.833
14.8293	0.856
14.8692	0.871
14.9091	0.881
14.9491	0.894
14.989	0.888
15.0289	0.849
15.0688	0.808
15.1087	0.821
15.1487	0.858
15.1886	0.889
15.2285	0.898
15.2684	0.889
15.3083	0.884
15.3483	0.871
15.3882	0.849
15.4281	0.833
15.468	0.806
15.5079	0.771
15.5479	0.719
15.5878	0.706
15.6277	0.691
15.6676	0.691
15.7075	0.691
15.7475	0.697
15.7874	0.699
15.8273	0.682
15.8672	0.674
15.9071	0.659
15.9471	0.647
15.987	0.631
16.0269	0.626
