Infrared Spectrum: PHOSPHORAMIDIC ACID, (p-BUTYLPHENYL)-, DIETHYL ESTER
Formula: C14 H24 N O3 P
CAS: 116401-77-5
State: LIQUID
Class: COBLENTZ
Instrument: PERKIN-ELMER
Sampling: TRANSMISSION
Path length: 0.0032 CM
Resolution: 4
Origin: STANDARD OIL OF OHIO
MICROMETERS	TRANSMITTANCE
2.007	0.986
2.04069	0.988
2.07439	0.988
2.10808	0.989
2.14178	0.988
2.17547	0.979
2.20917	0.979
2.24286	0.976
2.27656	0.93
2.31025	0.898
2.34394	0.918
2.37764	0.93
2.41133	0.933
2.44503	0.932
2.47872	0.916
2.51242	0.938
2.54611	0.952
2.57981	0.966
2.6135	0.971
2.64719	0.971
2.68089	0.974
2.71458	0.972
2.74828	0.971
2.78197	0.972
2.81567	0.971
2.84936	0.942
2.88306	0.84
2.91675	0.677
2.95044	0.575
2.98414	0.499
3.01783	0.772
3.05153	0.857
3.08522	0.843
3.11892	0.879
3.15261	0.889
3.18631	0.87
3.22	0.728
3.25369	0.623
3.28739	0.4
3.32108	0.212
3.35478	0.035
3.38847	0.011
3.42217	0.015
3.45586	0.047
3.48956	0.061
3.52325	0.293
3.55695	0.565
3.59064	0.724
3.62433	0.796
3.65803	0.82
3.69172	0.85
3.72542	0.855
3.75911	0.864
3.79281	0.879
3.8265	0.889
3.8602	0.889
3.89389	0.891
3.92758	0.901
3.96128	0.906
3.99497	0.923
4.02867	0.937
4.06236	0.933
4.09606	0.935
4.12975	0.932
4.16345	0.932
4.19714	0.932
4.23083	0.937
4.26453	0.935
4.29822	0.937
4.33192	0.935
4.36561	0.93
4.39931	0.928
4.433	0.93
4.4667	0.937
4.50039	0.937
4.53408	0.928
4.56778	0.928
4.60147	0.93
4.63517	0.93
4.66886	0.933
4.70256	0.933
4.73625	0.933
4.76995	0.928
4.80364	0.928
4.83733	0.925
4.87103	0.925
4.90472	0.926
4.93842	0.923
4.97211	0.925
5.00581	0.926
5.0395	0.926
5.0732	0.926
5.10689	0.918
5.14058	0.91
5.17428	0.904
5.20797	0.901
5.24167	0.893
5.27536	0.869
5.30906	0.835
5.34275	0.799
5.37645	0.82
5.41014	0.85
5.44383	0.87
5.47753	0.891
5.51122	0.901
5.54492	0.903
5.57861	0.894
5.61231	0.881
5.646	0.87
5.6797	0.865
5.71339	0.867
5.74708	0.876
5.78078	0.882
5.81447	0.882
5.84817	0.879
5.88186	0.87
5.91556	0.859
5.94925	0.843
5.98295	0.816
6.01664	0.769
6.05034	0.677
6.08403	0.488
6.11772	0.295
6.15142	0.074
6.18511	0.037
6.21881	0.241
6.2525	0.529
6.2862	0.607
6.31989	0.64
6.35359	0.626
6.38728	0.565
6.42097	0.624
6.45467	0.577
6.48836	0.431
6.52206	0.123
6.55575	0.027
6.58945	0.016
6.62314	0.078
6.65684	0.359
6.69053	0.398
6.72422	0.307
6.75792	0.246
6.79161	0.224
6.82531	0.144
6.859	0.149
6.8927	0.157
6.92639	0.2
6.96009	0.375
6.99378	0.497
7.02747	0.546
7.06117	0.528
7.09486	0.426
7.12856	0.329
7.16225	0.164
7.19595	0.154
7.22964	0.19
7.26334	0.103
7.29703	0.1
7.33072	0.162
7.36442	0.12
7.39811	0.134
7.43181	0.188
7.4655	0.242
7.4992	0.3
7.53289	0.281
7.56659	0.203
7.60028	0.185
7.63397	0.246
7.66767	0.263
7.70136	0.229
7.73506	0.171
7.76875	0.106
7.80245	0.056
7.83614	0.023
7.86984	0.01
7.90353	0.003
7.93722	0.005
7.97092	0.011
8.00461	0.061
8.03831	0.146
8.072	0.263
8.1057	0.397
8.13939	0.483
8.17309	0.534
8.20678	0.541
8.24047	0.517
8.27417	0.419
8.30786	0.32
8.34156	0.203
8.37525	0.154
8.40895	0.169
8.44264	0.239
8.47634	0.222
8.51003	0.317
8.54372	0.334
8.57742	0.28
8.61111	0.269
8.64481	0.239
8.6785	0.144
8.7122	0.157
8.74589	0.22
8.77959	0.317
8.81328	0.392
8.84698	0.415
8.88067	0.421
8.91436	0.426
8.94806	0.404
8.98175	0.387
9.01545	0.354
9.04914	0.281
9.08284	0.212
9.11653	0.186
9.15023	0.191
9.18392	0.229
9.21761	0.239
9.25131	0.195
9.285	0.14
9.3187	0.127
9.35239	0.13
9.38609	0.135
9.41978	0.122
9.45348	0.1
9.48717	0.057
9.52086	0.016
9.55456	0.008
9.58825	0.003
9.62195	0.001
9.65564	0.001
9.68934	0.001
9.72303	0.001
9.75673	0.003
9.79042	0.008
9.82411	0.025
9.85781	0.064
9.8915	0.129
9.9252	0.191
9.95889	0.252
9.99259	0.31
10.0263	0.317
10.06	0.278
10.0937	0.203
10.1274	0.134
10.1611	0.078
10.1948	0.057
10.2284	0.045
10.2621	0.04
10.2958	0.045
10.3295	0.061
10.3632	0.086
10.3969	0.127
10.4306	0.154
10.4643	0.196
10.498	0.229
10.5317	0.259
10.5654	0.288
10.5991	0.319
10.6328	0.359
10.6665	0.398
10.7002	0.426
10.7339	0.463
10.7676	0.533
10.8013	0.572
10.8349	0.606
10.8686	0.634
10.9023	0.679
10.936	0.706
10.9697	0.726
11.0034	0.74
11.0371	0.745
11.0708	0.735
11.1045	0.707
11.1382	0.697
11.1719	0.707
11.2056	0.719
11.2393	0.724
11.273	0.719
11.3067	0.721
11.3404	0.731
11.3741	0.74
11.4078	0.748
11.4414	0.755
11.4751	0.762
11.5088	0.765
11.5425	0.765
11.5762	0.758
11.6099	0.752
11.6436	0.738
11.6773	0.724
11.711	0.709
11.7447	0.689
11.7784	0.658
11.8121	0.624
11.8458	0.59
11.8795	0.541
11.9132	0.477
11.9469	0.4
11.9806	0.324
12.0143	0.246
12.0479	0.169
12.0816	0.129
12.1153	0.1
12.149	0.079
12.1827	0.073
12.2164	0.076
12.2501	0.083
12.2838	0.088
12.3175	0.088
12.3512	0.083
12.3849	0.069
12.4186	0.061
12.4523	0.061
12.486	0.078
12.5197	0.096
12.5534	0.118
12.5871	0.149
12.6208	0.168
12.6544	0.212
12.6881	0.249
12.7218	0.28
12.7555	0.315
12.7892	0.356
12.8229	0.397
12.8566	0.426
12.8903	0.466
12.924	0.522
12.9577	0.577
12.9914	0.604
13.0251	0.624
13.0588	0.634
13.0925	0.636
13.1262	0.634
13.1599	0.629
13.1936	0.624
13.2273	0.611
13.2609	0.599
13.2946	0.573
13.3283	0.543
13.362	0.509
13.3957	0.483
13.4294	0.47
13.4631	0.475
13.4968	0.499
13.5305	0.526
13.5642	0.551
13.5979	0.565
13.6316	0.572
13.6653	0.57
13.699	0.57
13.7327	0.568
13.7664	0.578
13.8001	0.592
13.8338	0.606
13.8674	0.621
13.9011	0.634
13.9348	0.651
13.9685	0.66
14.0022	0.668
14.0359	0.672
14.0696	0.674
14.1033	0.675
14.137	0.677
14.1707	0.674
14.2044	0.668
14.2381	0.667
14.2718	0.662
14.3055	0.658
14.3392	0.653
14.3729	0.646
14.4066	0.641
14.4403	0.633
14.4739	0.631
14.5076	0.633
14.5413	0.633
14.575	0.629
14.6087	0.626
14.6424	0.624
14.6761	0.628
14.7098	0.638
14.7435	0.641
14.7772	0.641
14.8109	0.64
14.8446	0.636
14.8783	0.634
14.912	0.631
14.9457	0.633
14.9794	0.631
15.0131	0.628
15.0468	0.616
15.0804	0.602
15.1141	0.597
15.1478	0.594
15.1815	0.597
15.2152	0.601
15.2489	0.606
15.2826	0.609
15.3163	0.614
15.35	0.617
15.3837	0.617
