Infrared Spectrum: 2-(p-t-BUTYLPHENOXY)-3-(2-TRIMETHYLSILYLETHYL) PYRAZINE
Formula: C19 H28 N2 O Si
CAS: 116402-99-4
State: SOLID (MINERAL OIL MULL)
Class: COBLENTZ
Instrument: Not specified, most likely a prism, grating, or hybrid spectrometer.
Sampling: TRANSMISSION
Resolution: 4
Origin: WYANDOTTE CHEMICALS CORP., WYANDOTTE, MICHIGAN, USA
MICROMETERS	TRANSMITTANCE
2.034	0.54
2.07486	0.538
2.11571	0.542
2.15657	0.547
2.19742	0.538
2.23828	0.536
2.27914	0.545
2.31999	0.543
2.36085	0.55
2.4017	0.569
2.44256	0.571
2.48342	0.576
2.52427	0.583
2.56513	0.591
2.60598	0.595
2.64684	0.608
2.6877	0.603
2.72855	0.607
2.76941	0.629
2.81026	0.62
2.85112	0.62
2.89198	0.624
2.93283	0.62
2.97369	0.622
3.01454	0.617
3.0554	0.62
3.09625	0.614
3.13711	0.603
3.17797	0.598
3.21882	0.579
3.25968	0.495
3.30053	0.466
3.34139	0.257
3.38225	0.042
3.4231	0.046
3.46396	0.073
3.50481	0.078
3.54567	0.404
3.58653	0.636
3.62738	0.71
3.66824	0.703
3.70909	0.711
3.74995	0.716
3.79081	0.74
3.83166	0.747
3.87252	0.759
3.91337	0.766
3.95423	0.783
3.99509	0.777
4.03594	0.777
4.0768	0.765
4.11765	0.771
4.15851	0.771
4.19937	0.783
4.24022	0.782
4.28108	0.777
4.32193	0.801
4.36279	0.819
4.40365	0.842
4.4445	0.825
4.48536	0.835
4.52621	0.837
4.56707	0.842
4.60793	0.849
4.64878	0.849
4.68964	0.847
4.73049	0.857
4.77135	0.866
4.81221	0.876
4.85306	0.874
4.89392	0.862
4.93477	0.874
4.97563	0.878
5.01648	0.876
5.05734	0.879
5.0982	0.893
5.13905	0.898
5.17991	0.89
5.22076	0.867
5.26162	0.859
5.30248	0.845
5.34333	0.885
5.38419	0.917
5.42504	0.926
5.4659	0.938
5.50676	0.939
5.54761	0.914
5.58847	0.926
5.62932	0.931
5.67018	0.921
5.71104	0.919
5.75189	0.934
5.79275	0.938
5.8336	0.941
5.87446	0.907
5.91532	0.909
5.95617	0.917
5.99703	0.871
6.03788	0.898
6.07874	0.909
6.1196	0.905
6.16045	0.886
6.20131	0.792
6.24216	0.873
6.28302	0.895
6.32388	0.891
6.36473	0.902
6.40559	0.888
6.44644	0.672
6.4873	0.574
6.52816	0.65
6.56901	0.475
6.60987	0.162
6.65072	0.343
6.69158	0.435
6.73244	0.372
6.77329	0.238
6.81415	0.162
6.855	0.228
6.89586	0.308
6.93671	0.356
6.97757	0.3
7.01843	0.274
7.05928	0.168
7.10014	0.089
7.14099	0.066
7.18185	0.063
7.22271	0.087
7.26356	0.144
7.30442	0.205
7.34527	0.253
7.38613	0.355
7.42699	0.205
7.46784	0.128
7.5087	0.197
7.54955	0.336
7.59041	0.421
7.63127	0.437
7.67212	0.392
7.71298	0.421
7.75383	0.456
7.79469	0.322
7.83555	0.307
7.8764	0.259
7.91726	0.332
7.95811	0.171
7.99897	0.097
8.03983	0.178
8.08068	0.401
8.12154	0.301
8.16239	0.24
8.20325	0.111
8.24411	0.102
8.28496	0.233
8.32582	0.307
8.36667	0.349
8.40753	0.221
8.44839	0.121
8.48924	0.13
8.5301	0.082
8.57095	0.156
8.61181	0.156
8.65267	0.262
8.69352	0.384
8.73438	0.44
8.77523	0.463
8.81609	0.562
8.85694	0.6
8.8978	0.6
8.93866	0.452
8.97951	0.159
9.02037	0.385
9.06122	0.572
9.10208	0.629
9.14294	0.608
9.18379	0.62
9.22465	0.672
9.2655	0.677
9.30636	0.636
9.34722	0.71
9.38807	0.728
9.42893	0.742
9.46978	0.746
9.51064	0.754
9.5515	0.756
9.59235	0.758
9.63321	0.739
9.67406	0.675
9.71492	0.497
9.75578	0.327
9.79663	0.372
9.83749	0.396
9.87834	0.351
9.9192	0.6
9.96006	0.665
10.0009	0.713
10.0418	0.747
10.0826	0.758
10.1235	0.783
10.1643	0.787
10.2052	0.801
10.246	0.787
10.2869	0.783
10.3278	0.785
10.3686	0.765
10.4095	0.756
10.4503	0.773
10.4912	0.783
10.532	0.802
10.5729	0.804
10.6138	0.809
10.6546	0.785
10.6955	0.765
10.7363	0.765
10.7772	0.763
10.818	0.711
10.8589	0.682
10.8997	0.672
10.9406	0.598
10.9815	0.456
11.0223	0.322
11.0632	0.281
11.104	0.18
11.1449	0.276
11.1857	0.411
11.2266	0.459
11.2674	0.449
11.3083	0.425
11.3492	0.367
11.39	0.308
11.4309	0.248
11.4717	0.192
11.5126	0.137
11.5534	0.111
11.5943	0.087
11.6351	0.085
11.676	0.101
11.7169	0.099
11.7577	0.072
11.7986	0.065
11.8394	0.06
11.8803	0.054
11.9211	0.051
11.962	0.051
12.0029	0.051
12.0437	0.058
12.0846	0.072
12.1254	0.096
12.1663	0.126
12.2071	0.138
12.248	0.192
12.2888	0.31
12.3297	0.413
12.3706	0.514
12.4114	0.578
12.4523	0.62
12.4931	0.641
12.534	0.672
12.5748	0.691
12.6157	0.699
12.6565	0.711
12.6974	0.713
12.7383	0.734
12.7791	0.715
12.82	0.66
12.8608	0.574
12.9017	0.603
12.9425	0.677
12.9834	0.713
13.0243	0.698
13.0651	0.646
13.106	0.581
13.1468	0.554
13.1877	0.56
13.2285	0.602
13.2694	0.653
13.3102	0.686
13.3511	0.691
13.392	0.684
13.4328	0.632
13.4737	0.602
13.5145	0.603
13.5554	0.648
13.5962	0.663
13.6371	0.643
13.6779	0.614
13.7188	0.648
13.7597	0.691
13.8005	0.72
13.8414	0.753
13.8822	0.78
13.9231	0.801
13.9639	0.818
14.0048	0.835
14.0457	0.838
14.0865	0.837
14.1274	0.819
14.1682	0.79
14.2091	0.768
14.2499	0.761
14.2908	0.737
14.3316	0.715
14.3725	0.668
14.4134	0.608
14.4542	0.55
14.4951	0.523
14.5359	0.521
14.5768	0.559
14.6176	0.6
14.6585	0.667
14.6993	0.706
14.7402	0.753
14.7811	0.785
14.8219	0.809
14.8628	0.825
14.9036	0.83
14.9445	0.837
14.9853	0.816
15.0262	0.775
15.0671	0.756
15.1079	0.783
15.1488	0.809
15.1896	0.813
15.2305	0.799
15.2713	0.787
15.3122	0.773
15.353	0.754
15.3939	0.722
15.4348	0.692
15.4756	0.67
15.5165	0.677
15.5573	0.679
15.5982	0.701
15.639	0.703
15.6799	0.706
15.7207	0.698
15.7616	0.68
15.8025	0.668
15.8433	0.656
15.8842	0.636
15.925	0.626
15.9659	0.614
