Infrared Spectrum: HEPTANANILIDE, 3'-CHLORO-6-METHYL-
Formula: C14 H20 Cl N O
CAS: 116435-55-3
State: SOLUTION (10% CCl4 FOR 5000-1330, 10% CS2 FOR 1330-625 CM^-^1)
Class: COBLENTZ
Instrument: Not specified, most likely a prism, grating, or hybrid spectrometer.
Sampling: TRANSMISSION
Path length: 0.0124 CM, 0.0105 CM
Resolution: 4
Origin: DOW CHEMICAL COMPANY
MICROMETERS	TRANSMITTANCE
2.041	0.901
2.08216	0.902
2.12332	0.901
2.16447	0.897
2.20563	0.897
2.24679	0.896
2.28795	0.889
2.32911	0.885
2.37026	0.887
2.41142	0.887
2.45258	0.887
2.49374	0.889
2.5349	0.894
2.57606	0.899
2.61721	0.901
2.65837	0.902
2.69953	0.902
2.74069	0.906
2.78185	0.908
2.823	0.904
2.86416	0.887
2.90532	0.826
2.94648	0.73
2.98764	0.42
3.02879	0.247
3.06995	0.386
3.11111	0.529
3.15227	0.599
3.19343	0.58
3.23458	0.597
3.27574	0.638
3.3169	0.676
3.35806	0.422
3.39922	0.177
3.44038	0.444
3.48153	0.604
3.52269	0.798
3.56385	0.819
3.60501	0.843
3.64617	0.851
3.68732	0.86
3.72848	0.87
3.76964	0.868
3.8108	0.87
3.85196	0.879
3.89311	0.882
3.93427	0.882
3.97543	0.882
4.01659	0.882
4.05775	0.882
4.0989	0.882
4.14006	0.882
4.18122	0.879
4.22238	0.879
4.26354	0.879
4.3047	0.88
4.34585	0.884
4.38701	0.887
4.42817	0.887
4.46933	0.887
4.51049	0.887
4.55164	0.887
4.5928	0.887
4.63396	0.887
4.67512	0.884
4.71628	0.889
4.75743	0.89
4.79859	0.89
4.83975	0.89
4.88091	0.89
4.92207	0.89
4.96322	0.89
5.00438	0.899
5.04554	0.889
5.0867	0.887
5.12786	0.879
5.16902	0.863
5.21017	0.875
5.25133	0.884
5.29249	0.884
5.33365	0.879
5.37481	0.862
5.41596	0.862
5.45712	0.868
5.49828	0.872
5.53944	0.867
5.5806	0.844
5.62175	0.826
5.66291	0.816
5.70407	0.797
5.74523	0.778
5.78639	0.744
5.82754	0.628
5.8687	0.468
5.90986	0.359
5.95102	0.206
5.99218	0.069
6.03334	0.03
6.07449	0.327
6.11565	0.509
6.15681	0.494
6.19797	0.325
6.23913	0.102
6.28028	0.023
6.32144	0.245
6.3626	0.402
6.40376	0.378
6.44492	0.245
6.48607	0.129
6.52723	0.063
6.56839	0.057
6.60955	0.115
6.65071	0.284
6.69186	0.333
6.73302	0.097
6.77418	0.081
6.81534	0.201
6.8565	0.286
6.89766	0.378
6.93881	0.388
6.97997	0.245
7.02113	0.074
7.06229	0.102
7.10345	0.17
7.1446	0.257
7.18576	0.463
7.22692	0.5
7.26808	0.502
7.30924	0.448
7.35039	0.563
7.39155	0.545
7.43271	0.444
7.47387	0.4
7.51503	0.427
7.55618	0.512
7.59734	0.487
7.6385	0.378
7.67966	0.349
7.72082	0.424
7.76197	0.522
7.80313	0.526
7.84429	0.419
7.88545	0.417
7.92661	0.495
7.96777	0.47
8.00892	0.405
8.05008	0.432
8.09124	0.5
8.1324	0.606
8.17356	0.691
8.21471	0.717
8.25587	0.73
8.29703	0.693
8.33819	0.575
8.37935	0.425
8.4205	0.373
8.46166	0.434
8.50282	0.507
8.54398	0.531
8.58514	0.528
8.62629	0.652
8.66745	0.787
8.70861	0.829
8.74977	0.856
8.79093	0.863
8.83209	0.856
8.87324	0.785
8.9144	0.725
8.95556	0.701
8.99672	0.659
9.03788	0.541
9.07903	0.412
9.12019	0.33
9.16135	0.485
9.20251	0.652
9.24367	0.705
9.28482	0.575
9.32598	0.563
9.36714	0.826
9.4083	0.899
9.44946	0.918
9.49061	0.928
9.53177	0.93
9.57293	0.935
9.61409	0.935
9.65525	0.936
9.69641	0.935
9.73756	0.93
9.77872	0.928
9.81988	0.936
9.86104	0.94
9.9022	0.945
9.94335	0.936
9.98451	0.821
10.0257	0.727
10.0668	0.902
10.108	0.931
10.1491	0.908
10.1903	0.877
10.2315	0.836
10.2726	0.81
10.3138	0.8
10.3549	0.797
10.3961	0.807
10.4373	0.829
10.4784	0.843
10.5196	0.855
10.5607	0.885
10.6019	0.896
10.643	0.887
10.6842	0.865
10.7254	0.889
10.7665	0.908
10.8077	0.902
10.8488	0.879
10.89	0.865
10.9311	0.85
10.9723	0.798
11.0135	0.737
11.0546	0.649
11.0958	0.584
11.1369	0.597
11.1781	0.647
11.2193	0.666
11.2604	0.647
11.3016	0.587
11.3427	0.502
11.3839	0.431
11.425	0.398
11.4662	0.407
11.5074	0.449
11.5485	0.494
11.5897	0.519
11.6308	0.597
11.672	0.679
11.7132	0.744
11.7543	0.781
11.7955	0.831
11.8366	0.875
11.8778	0.885
11.9189	0.89
11.9601	0.897
12.0013	0.911
12.0424	0.911
12.0836	0.916
12.1247	0.918
12.1659	0.921
12.207	0.923
12.2482	0.918
12.2894	0.908
12.3305	0.899
12.3717	0.89
12.4128	0.88
12.454	0.87
12.4952	0.85
12.5363	0.824
12.5775	0.788
12.6186	0.746
12.6598	0.691
12.7009	0.597
12.7421	0.471
12.7833	0.31
12.8244	0.155
12.8656	0.073
12.9067	0.068
12.9479	0.166
12.9891	0.385
13.0302	0.567
13.0714	0.638
13.1125	0.667
13.1537	0.674
13.1948	0.678
13.236	0.678
13.2772	0.667
13.3183	0.659
13.3595	0.647
13.4006	0.642
13.4418	0.63
13.4829	0.625
13.5241	0.616
13.5653	0.616
13.6064	0.611
13.6476	0.609
13.6887	0.606
13.7299	0.604
13.7711	0.599
13.8122	0.604
13.8534	0.604
13.8945	0.603
13.9357	0.604
13.9768	0.608
14.018	0.608
14.0592	0.606
14.1003	0.606
14.1415	0.603
14.1826	0.596
14.2238	0.57
14.265	0.55
14.3061	0.524
14.3473	0.499
14.3884	0.478
14.4296	0.468
14.4707	0.458
14.5119	0.449
14.5531	0.425
14.5942	0.383
14.6354	0.327
14.6765	0.287
14.7177	0.289
14.7589	0.362
14.8	0.47
14.8412	0.57
14.8823	0.625
14.9235	0.667
14.9646	0.686
15.0058	0.712
15.047	0.717
15.0881	0.724
15.1293	0.729
15.1704	0.729
15.2116	0.725
15.2527	0.724
15.2939	0.725
15.3351	0.725
15.3762	0.727
15.4174	0.727
15.4585	0.729
15.4997	0.734
15.5409	0.735
15.582	0.739
15.6232	0.737
15.6643	0.739
15.7055	0.737
15.7466	0.742
15.7878	0.742
15.829	0.742
