Infrared Spectrum: 3H-NAPHTH[1,2-d]IMIDAZOLE, 3-(P-NITROANILINO)-2-(P-NITROPHENYL)-
Formula: C23 H15 N5 O4
CAS: 116401-68-4
State: SOLID (KBr DISC)
Class: COBLENTZ III
Instrument: UNICAM SP-200
Sampling: TRANSMISSION
Resolution: 4
Origin: HUNGARIAN ACAD. OF SCI., VIA SCIENTIFIC DOC. CENTRE LTD.
1/CM	TRANSMITTANCE
650.79	0.717
661.849	0.73
672.908	0.741
683.967	0.671
695.026	0.467
706.086	0.61
717.145	0.671
728.204	0.726
739.263	0.678
750.322	0.394
761.381	0.605
772.44	0.738
783.499	0.765
794.558	0.775
805.617	0.6561
816.677	0.397
827.736	0.544
838.795	0.605
849.854	0.455
860.913	0.392
871.972	0.515
883.031	0.736
894.09	0.768
905.149	0.761
916.208	0.772
927.268	0.777
938.327	0.779
949.386	0.766
960.445	0.748
971.504	0.747
982.563	0.752
993.622	0.749
1004.68	0.728
1015.74	0.687
1026.8	0.723
1037.86	0.695
1048.92	0.716
1059.98	0.712
1071.04	0.672
1082.09	0.685
1093.15	0.664
1104.21	0.344
1115.27	0.3669
1126.33	0.61
1137.39	0.691
1148.45	0.708
1159.51	0.696
1170.57	0.6661
1181.63	0.55
1192.69	0.68
1203.75	0.703
1214.8	0.716
1225.86	0.715
1236.92	0.647
1247.98	0.628
1259.04	0.62
1270.1	0.489
1281.16	0.519
1292.22	0.406
1303.28	0.334
1314.34	0.268
1325.4	0.177
1336.45	0.066
1347.51	0.044
1358.57	0.3619
1369.63	0.546
1380.69	0.563
1391.75	0.627
1402.81	0.661
1413.87	0.685
1424.93	0.68
1435.99	0.623
1447.05	0.647
1458.1	0.654
1469.16	0.558
1480.22	0.517
1491.28	0.46
1502.34	0.2251
1513.4	0.154
1524.46	0.142
1535.52	0.306
1546.58	0.629
1557.64	0.673
1568.7	0.673
1579.75	0.4331
1590.81	0.121
1601.87	0.238
1612.93	0.553
1623.99	0.656
1635.05	0.711
1646.11	0.734
1657.17	0.745
1668.23	0.744
1679.29	0.752
1690.35	0.753
1701.4	0.765
1712.46	0.772
1723.52	0.774
1734.58	0.771
1745.64	0.769
1756.7	0.769
1767.76	0.774
1778.82	0.773
1789.88	0.775
1800.94	0.779
1812	0.781
1823.05	0.78
1834.11	0.784
1845.17	0.784
1856.23	0.78
1867.29	0.772
1878.35	0.764
1889.41	0.758
1900.47	0.758
1911.53	0.758
1922.59	0.76
1933.65	0.762
1944.7	0.762
1955.76	0.762
1966.82	0.764
1977.88	0.766
1988.94	0.765
2000	0.763
2011.06	0.768
2022.12	0.768
2033.18	0.767
2044.24	0.767
2055.3	0.767
2066.35	0.767
2077.41	0.7667
2088.47	0.7635
2099.53	0.762
2110.59	0.7603
2121.65	0.76
2132.71	0.759
2143.77	0.758
2154.83	0.758
2165.89	0.757
2176.95	0.7545
2188.01	0.7511
2199.06	0.7471
2210.12	0.7432
2221.18	0.741
2232.24	0.7448
2243.3	0.7483
2254.36	0.7482
2265.42	0.7457
2276.48	0.7426
2287.54	0.739
2298.6	0.7433
2309.66	0.7439
2320.71	0.7404
2331.77	0.7413
2342.83	0.7455
2353.89	0.74
2364.95	0.7355
2376.01	0.734
2387.07	0.729
2398.13	0.7251
2409.19	0.7157
2420.25	0.7042
2431.31	0.7073
2442.36	0.7125
2453.42	0.715
2464.48	0.7153
2475.54	0.715
2486.6	0.714
2497.66	0.715
2508.72	0.7129
2519.78	0.71
2530.84	0.711
2541.9	0.7061
2552.96	0.6981
2564.01	0.696
2575.07	0.6946
2586.13	0.6893
2597.19	0.6857
2608.25	0.6842
2619.31	0.684
2630.37	0.6833
2641.43	0.682
2652.49	0.682
2663.55	0.68
2674.61	0.679
2685.66	0.675
2696.72	0.6684
2707.78	0.66
2718.84	0.6545
2729.9	0.6501
2740.96	0.6372
2752.02	0.6304
2763.08	0.6287
2774.14	0.6232
2785.2	0.6161
2796.26	0.604
2807.31	0.602
2818.37	0.602
2829.43	0.5942
2840.49	0.5824
2851.55	0.571
2862.61	0.5679
2873.67	0.562
2884.73	0.56
2895.79	0.558
2906.85	0.557
2917.91	0.555
2928.96	0.5496
2940.02	0.547
2951.08	0.5437
2962.14	0.5412
2973.2	0.5365
2984.26	0.5241
2995.32	0.5188
3006.38	0.516
3017.44	0.5139
3028.5	0.512
3039.56	0.511
3050.62	0.5075
3061.67	0.501
3072.73	0.496
3083.79	0.4901
3094.85	0.4818
3105.91	0.4734
3116.97	0.4673
3128.03	0.4642
3139.09	0.4663
3150.15	0.469
3161.21	0.471
3172.27	0.473
3183.32	0.4732
3194.38	0.4773
3205.44	0.48
3216.5	0.482
3227.56	0.483
3238.62	0.483
3249.68	0.483
3260.74	0.4869
3271.8	0.4966
3282.86	0.5106
3293.92	0.5226
3304.97	0.533
3316.03	0.5416
3327.09	0.5473
3338.15	0.5517
3349.21	0.5554
3360.27	0.5577
3371.33	0.5591
3382.39	0.5616
3393.45	0.564
3404.51	0.566
3415.57	0.571
3426.62	0.573
3437.68	0.5779
3448.74	0.58
3459.8	0.582
3470.86	0.581
3481.92	0.581
3492.98	0.581
3504.04	0.5818
3515.1	0.583
3526.16	0.585
3537.22	0.5892
3548.27	0.5946
3559.33	0.6
3570.39	0.602
3581.45	0.607
3592.51	0.613
3603.57	0.62
3614.63	0.624
3625.69	0.6269
3636.75	0.6298
3647.81	0.633
3658.87	0.636
3669.92	0.638
3680.98	0.64
3692.04	0.641
3703.1	0.6378
3714.16	0.636
3725.22	0.636
3736.28	0.634
3747.34	0.6331
3758.4	0.635
3769.46	0.635
3780.52	0.6325
3791.57	0.63
3802.63	0.629
3813.69	0.6271
3824.75	0.6256
3835.81	0.6223
3846.87	0.6207
3857.93	0.619
3868.99	0.6212
3880.05	0.6237
3891.11	0.6226
3902.17	0.619
3913.22	0.6149
3924.28	0.612
3935.34	0.612
3946.4	0.611
3957.46	0.609
3968.52	0.6095
3979.58	0.611
3990.64	0.6106
4001.7	0.6081
4012.76	0.607
4023.82	0.605
4034.88	0.6075
4045.93	0.61
4056.99	0.609
4068.05	0.607
4079.11	0.6029
4090.17	0.6014
4101.23	0.6011
4112.29	0.6036
4123.35	0.605
4134.41	0.605
4145.47	0.604
4156.53	0.602
4167.58	0.6011
4178.64	0.6006
4189.7	0.6
4200.76	0.5997
4211.82	0.599
4222.88	0.598
4233.94	0.598
4245	0.5958
4256.06	0.593
4267.12	0.5941
4278.18	0.5944
4289.23	0.592
4300.29	0.591
4311.35	0.59
4322.41	0.5895
4333.47	0.588
4344.53	0.588
4355.59	0.588
4366.65	0.5846
4377.71	0.5808
4388.77	0.582
4399.83	0.581
4410.88	0.581
4421.94	0.5827
4433	0.581
4444.06	0.5794
4455.12	0.578
4466.18	0.5764
4477.24	0.576
4488.3	0.5745
4499.36	0.574
4510.42	0.5726
4521.48	0.57
4532.53	0.5676
4543.59	0.567
4554.65	0.569
4565.71	0.5672
4576.77	0.5658
4587.83	0.5657
4598.89	0.566
4609.95	0.5664
4621.01	0.5638
4632.07	0.562
4643.13	0.562
4654.18	0.564
4665.24	0.562
4676.3	0.5605
4687.36	0.562
4698.42	0.562
4709.48	0.5629
4720.54	0.564
4731.6	0.5612
4742.66	0.5597
4753.72	0.559
4764.78	0.558
4775.83	0.557
4786.89	0.5558
4797.95	0.5544
4809.01	0.5561
4820.07	0.5564
4831.13	0.555
4842.19	0.559
4853.25	0.559
4864.31	0.5506
4875.37	0.5491
4886.43	0.5476
4897.48	0.547
4908.54	0.548
4919.6	0.549
4930.66	0.5488
4941.72	0.5456
4952.78	0.5438
