Infrared Spectrum: DI-[2-(2-PHENYLPHENOXY) ETHYL] ETHER
Formula: C28 H26 O3
CAS: 116435-16-6
State: SOLUTION (10% IN CS2)
Class: COBLENTZ
Instrument: Not specified, most likely a prism, grating, or hybrid spectrometer.
Sampling: TRANSMISSION
Path length: 0.0115 CM
Resolution: 4
Origin: DOW CHEMICAL COMPANY
MICROMETERS	TRANSMITTANCE
2.041	0.852
2.08016	0.855
2.11931	0.841
2.15847	0.844
2.19762	0.852
2.23678	0.854
2.27593	0.836
2.31509	0.849
2.35425	0.852
2.3934	0.851
2.43256	0.833
2.47171	0.843
2.51087	0.854
2.55003	0.86
2.58918	0.86
2.62834	0.857
2.66749	0.864
2.70665	0.859
2.7458	0.859
2.78496	0.852
2.82412	0.851
2.86327	0.854
2.90243	0.852
2.94158	0.854
2.98074	0.855
3.01989	0.854
3.05905	0.857
3.09821	0.854
3.13736	0.847
3.17652	0.83
3.21567	0.747
3.25483	0.611
3.29399	0.545
3.33314	0.741
3.3723	0.627
3.41145	0.456
3.45061	0.525
3.48976	0.601
3.52892	0.745
3.56808	0.757
3.60723	0.804
3.64639	0.82
3.68554	0.839
3.7247	0.862
3.76385	0.865
3.80301	0.862
3.84217	0.86
3.88132	0.859
3.92048	0.855
3.95963	0.857
3.99879	0.86
4.03795	0.865
4.0771	0.872
4.11626	0.875
4.15541	0.875
4.19457	0.854
4.23372	0.8
4.27288	0.677
4.31204	0.457
4.35119	0.482
4.39035	0.768
4.4295	0.815
4.46866	0.778
4.50781	0.666
4.54697	0.43
4.58613	0.127
4.62528	0.038
4.66444	0.05
4.70359	0.242
4.74275	0.569
4.7819	0.773
4.82106	0.831
4.86022	0.854
4.89937	0.862
4.93853	0.867
4.97768	0.87
5.01684	0.865
5.056	0.862
5.09515	0.843
5.13431	0.822
5.17346	0.83
5.21262	0.857
5.25177	0.826
5.29093	0.82
5.33009	0.831
5.36924	0.87
5.4084	0.87
5.44755	0.868
5.48671	0.859
5.52586	0.839
5.56502	0.849
5.60418	0.852
5.64333	0.852
5.68249	0.854
5.72164	0.841
5.7608	0.859
5.79996	0.864
5.83911	0.852
5.87827	0.831
5.91742	0.82
5.95658	0.807
5.99573	0.812
6.03489	0.791
6.07405	0.754
6.1132	0.689
6.15236	0.59
6.19151	0.372
6.23067	0.216
6.26982	0.119
6.30898	0.051
6.34814	0.027
6.38729	0.022
6.42645	0.024
6.4656	0.022
6.50476	0.027
6.54392	0.022
6.58307	0.022
6.62223	0.024
6.66138	0.019
6.70054	0.016
6.73969	0.014
6.77885	0.014
6.81801	0.016
6.85716	0.017
6.89632	0.029
6.93547	0.038
6.97463	0.114
7.01378	0.252
7.05294	0.411
7.0921	0.488
7.13125	0.561
7.17041	0.605
7.20956	0.653
7.24872	0.677
7.28788	0.699
7.32703	0.679
7.36619	0.729
7.40534	0.763
7.4445	0.742
7.48365	0.728
7.52281	0.742
7.56197	0.695
7.60112	0.644
7.64028	0.527
7.67943	0.453
7.71859	0.474
7.75774	0.482
7.7969	0.436
7.83606	0.297
7.87521	0.135
7.91437	0.092
7.95352	0.195
7.99268	0.199
8.03184	0.15
8.07099	0.118
8.11015	0.131
8.1493	0.21
8.18846	0.255
8.22761	0.427
8.26677	0.597
8.30593	0.718
8.34508	0.744
8.38424	0.739
8.42339	0.721
8.46255	0.716
8.5017	0.697
8.54086	0.635
8.58002	0.516
8.61917	0.524
8.65833	0.474
8.69748	0.323
8.73664	0.205
8.7758	0.177
8.81495	0.215
8.85411	0.195
8.89326	0.142
8.93242	0.284
8.97157	0.449
9.01073	0.537
9.04989	0.595
9.08904	0.639
9.1282	0.656
9.16735	0.663
9.20651	0.663
9.24566	0.629
9.28482	0.521
9.32398	0.423
9.36313	0.349
9.40229	0.257
9.44144	0.245
9.4806	0.33
9.51976	0.446
9.55891	0.5
9.59807	0.498
9.63722	0.5
9.67638	0.553
9.71553	0.598
9.75469	0.652
9.79385	0.697
9.833	0.684
9.87216	0.543
9.91131	0.538
9.95047	0.713
9.98962	0.692
10.0288	0.674
10.0679	0.731
10.1071	0.763
10.1462	0.779
10.1854	0.788
10.2246	0.788
10.2637	0.788
10.3029	0.766
10.342	0.747
10.3812	0.731
10.4203	0.699
10.4595	0.665
10.4986	0.632
10.5378	0.6
10.577	0.592
10.6161	0.587
10.6553	0.577
10.6944	0.548
10.7336	0.538
10.7727	0.558
10.8119	0.559
10.8511	0.559
10.8902	0.555
10.9294	0.519
10.9685	0.496
11.0077	0.561
11.0468	0.653
11.086	0.699
11.1251	0.711
11.1643	0.721
11.2035	0.728
11.2426	0.728
11.2818	0.718
11.3209	0.708
11.3601	0.694
11.3992	0.682
11.4384	0.671
11.4775	0.66
11.5167	0.648
11.5559	0.635
11.595	0.616
11.6342	0.601
11.6733	0.588
11.7125	0.582
11.7516	0.582
11.7908	0.601
11.8299	0.648
11.8691	0.663
11.9083	0.668
11.9474	0.669
11.9866	0.671
12.0257	0.661
12.0649	0.652
12.104	0.64
12.1432	0.629
12.1823	0.627
12.2215	0.663
12.2607	0.682
12.2998	0.684
12.339	0.673
12.3781	0.658
12.4173	0.645
12.4564	0.64
12.4956	0.644
12.5348	0.653
12.5739	0.674
12.6131	0.682
12.6522	0.687
12.6914	0.69
12.7305	0.692
12.7697	0.69
12.8088	0.671
12.848	0.648
12.8872	0.567
12.9263	0.423
12.9655	0.273
13.0046	0.202
13.0438	0.307
13.0829	0.396
13.1221	0.398
13.1612	0.352
13.2004	0.288
13.2396	0.174
13.2787	0.063
13.3179	0.017
13.357	0.046
13.3962	0.122
13.4353	0.241
13.4745	0.278
13.5136	0.25
13.5528	0.182
13.592	0.119
13.6311	0.101
13.6703	0.129
13.7094	0.181
13.7486	0.249
13.7877	0.347
13.8269	0.428
13.866	0.49
13.9052	0.53
13.9444	0.555
13.9835	0.567
14.0227	0.572
14.0618	0.564
14.101	0.537
14.1401	0.48
14.1793	0.386
14.2184	0.276
14.2576	0.165
14.2968	0.067
14.3359	0.045
14.3751	0.122
14.4142	0.257
14.4534	0.393
14.4925	0.464
14.5317	0.509
14.5709	0.527
14.61	0.537
14.6492	0.538
14.6883	0.533
14.7275	0.53
14.7666	0.522
14.8058	0.514
14.8449	0.503
14.8841	0.487
14.9233	0.475
14.9624	0.475
15.0016	0.482
15.0407	0.472
15.0799	0.462
15.119	0.456
15.1582	0.448
15.1973	0.438
15.2365	0.425
15.2757	0.417
15.3148	0.412
15.354	0.407
15.3931	0.404
15.4323	0.398
15.4714	0.389
15.5106	0.381
15.5497	0.373
15.5889	0.368
15.6281	0.364
15.6672	0.357
15.7064	0.351
15.7455	0.346
15.7847	0.341
15.8238	0.334
15.863	0.334
15.9021	0.346
