Infrared Spectrum: 2-(N,N-DI-n-HEXYLAMINO)-3,6-DIMETHYL PYRAZINE
Formula: C18 H33 N3
CAS: 116403-04-4
State: LIQUID
Class: COBLENTZ
Instrument: Not specified, most likely a prism, grating, or hybrid spectrometer.
Sampling: TRANSMISSION
Path length: 0.003 CM
Resolution: 4
Origin: WYANDOTTE CHEMICALS CORP., WYANDOTTE, MICHIGAN, USA
MICROMETERS	TRANSMITTANCE
2.007	0.974
2.04786	0.981
2.08871	0.977
2.12957	0.979
2.17042	0.95
2.21128	0.89
2.25213	0.881
2.29299	0.9
2.33384	0.912
2.3747	0.922
2.41556	0.921
2.45641	0.928
2.49727	0.943
2.53812	0.952
2.57898	0.962
2.61983	0.967
2.66069	0.957
2.70154	0.958
2.7424	0.95
2.78326	0.938
2.82411	0.931
2.86497	0.929
2.90582	0.917
2.94668	0.912
2.98753	0.91
3.02839	0.898
3.06924	0.88
3.1101	0.878
3.15095	0.856
3.19181	0.847
3.23267	0.821
3.27352	0.678
3.31438	0.503
3.35523	0.116
3.39609	0.054
3.43694	0.059
3.4778	0.073
3.51865	0.095
3.55951	0.434
3.60037	0.676
3.64122	0.75
3.68208	0.727
3.72293	0.782
3.76379	0.791
3.80464	0.828
3.8455	0.845
3.88635	0.851
3.92721	0.869
3.96807	0.881
4.00892	0.886
4.04978	0.89
4.09063	0.89
4.13149	0.881
4.17234	0.886
4.2132	0.871
4.25405	0.881
4.29491	0.888
4.33577	0.888
4.37662	0.881
4.41748	0.907
4.45833	0.917
4.49919	0.924
4.54004	0.922
4.5809	0.928
4.62175	0.921
4.66261	0.933
4.70346	0.926
4.74432	0.919
4.78518	0.919
4.82603	0.924
4.86689	0.924
4.90774	0.928
4.9486	0.924
4.98945	0.929
5.03031	0.938
5.07116	0.938
5.11202	0.948
5.15288	0.94
5.19373	0.936
5.23459	0.94
5.27544	0.931
5.3163	0.938
5.35715	0.941
5.39801	0.94
5.43886	0.943
5.47972	0.943
5.52058	0.929
5.56143	0.922
5.60229	0.919
5.64314	0.917
5.684	0.9
5.72485	0.89
5.76571	0.861
5.80656	0.859
5.84742	0.859
5.88828	0.854
5.92913	0.849
5.96999	0.839
6.01084	0.82
6.0517	0.804
6.09255	0.813
6.13341	0.813
6.17426	0.803
6.21512	0.791
6.25597	0.767
6.29683	0.693
6.33769	0.376
6.37854	0.417
6.4194	0.46
6.46025	0.309
6.50111	0.089
6.54196	0.205
6.58282	0.361
6.62367	0.431
6.66453	0.414
6.70539	0.321
6.74624	0.238
6.7871	0.061
6.82795	0.068
6.86881	0.053
6.90966	0.059
6.95052	0.073
6.99137	0.097
7.03223	0.087
7.07309	0.075
7.11394	0.16
7.1548	0.316
7.19565	0.359
7.23651	0.116
7.27736	0.07
7.31822	0.07
7.35907	0.07
7.39993	0.094
7.44079	0.205
7.48164	0.318
7.5225	0.282
7.56335	0.162
7.60421	0.188
7.64506	0.193
7.68592	0.229
7.72677	0.27
7.76763	0.296
7.80849	0.356
7.84934	0.424
7.8902	0.443
7.93105	0.364
7.97191	0.244
8.01276	0.428
8.05362	0.489
8.09447	0.465
8.13533	0.496
8.17618	0.544
8.21704	0.506
8.2579	0.491
8.29875	0.482
8.33961	0.405
8.38046	0.258
8.42132	0.147
8.46217	0.152
8.50303	0.154
8.54388	0.142
8.58474	0.154
8.6256	0.184
8.66645	0.232
8.70731	0.289
8.74816	0.256
8.78902	0.125
8.82987	0.061
8.87073	0.08
8.91158	0.119
8.95244	0.186
8.9933	0.229
9.03415	0.188
9.07501	0.238
9.11586	0.376
9.15672	0.498
9.19757	0.563
9.23843	0.583
9.27928	0.602
9.32014	0.63
9.361	0.64
9.40185	0.633
9.44271	0.623
9.48356	0.621
9.52442	0.609
9.56527	0.599
9.60613	0.575
9.64698	0.501
9.68784	0.385
9.72869	0.385
9.76955	0.464
9.81041	0.484
9.85126	0.479
9.89212	0.474
9.93297	0.46
9.97383	0.445
10.0147	0.445
10.0555	0.484
10.0964	0.558
10.1373	0.595
10.1781	0.633
10.219	0.65
10.2598	0.654
10.3007	0.659
10.3415	0.664
10.3824	0.664
10.4232	0.659
10.4641	0.648
10.5049	0.66
10.5458	0.678
10.5867	0.717
10.6275	0.744
10.6684	0.76
10.7092	0.777
10.7501	0.777
10.7909	0.784
10.8318	0.775
10.8726	0.775
10.9135	0.756
10.9544	0.746
10.9952	0.738
11.0361	0.744
11.0769	0.741
11.1178	0.741
11.1586	0.714
11.1995	0.696
11.2403	0.652
11.2812	0.618
11.3221	0.595
11.3629	0.585
11.4038	0.565
11.4446	0.577
11.4855	0.573
11.5263	0.597
11.5672	0.626
11.608	0.664
11.6489	0.7
11.6898	0.744
11.7306	0.768
11.7715	0.785
11.8123	0.806
11.8532	0.816
11.894	0.84
11.9349	0.852
11.9757	0.861
12.0166	0.864
12.0575	0.868
12.0983	0.868
12.1392	0.864
12.18	0.857
12.2209	0.854
12.2617	0.847
12.3026	0.835
12.3434	0.825
12.3843	0.816
12.4252	0.818
12.466	0.82
12.5069	0.813
12.5477	0.804
12.5886	0.789
12.6294	0.775
12.6703	0.777
12.7111	0.777
12.752	0.77
12.7929	0.775
12.8337	0.765
12.8746	0.751
12.9154	0.743
12.9563	0.72
12.9971	0.702
13.038	0.666
13.0788	0.625
13.1197	0.58
13.1606	0.534
13.2014	0.515
13.2423	0.53
13.2831	0.566
13.324	0.613
13.3648	0.645
13.4057	0.671
13.4465	0.683
13.4874	0.691
13.5283	0.688
13.5691	0.684
13.61	0.662
13.6508	0.616
13.6917	0.59
13.7325	0.547
13.7734	0.508
13.8142	0.486
13.8551	0.501
13.896	0.546
13.9368	0.619
13.9777	0.671
14.0185	0.727
14.0594	0.753
14.1002	0.775
14.1411	0.791
14.1819	0.801
14.2228	0.796
14.2637	0.796
14.3045	0.791
14.3454	0.779
14.3862	0.773
14.4271	0.761
14.4679	0.753
14.5088	0.739
14.5496	0.746
14.5905	0.739
14.6314	0.753
14.6722	0.756
14.7131	0.744
14.7539	0.748
14.7948	0.753
14.8356	0.746
14.8765	0.746
14.9173	0.739
14.9582	0.739
14.9991	0.724
15.0399	0.681
15.0808	0.635
15.1216	0.63
15.1625	0.647
15.2033	0.671
15.2442	0.679
15.285	0.683
15.3259	0.684
15.3668	0.664
15.4076	0.655
15.4485	0.652
15.4893	0.636
15.5302	0.618
15.571	0.613
15.6119	0.599
15.6527	0.59
15.6936	0.577
15.7345	0.559
15.7753	0.547
15.8162	0.534
15.857	0.537
15.8979	0.527
15.9387	0.515
15.9796	0.518
