Infrared Spectrum: Benzofuran- 2(3H)-one, 3-allyl-3-phenyl-,
Formula: C17 H14 O2
CAS: 116465-79-3
State: SOLUTION 7% (CHCl3 FOR 2.5-12.5 microns)
Class: COBLENTZ
Instrument: PERKIN-ELMER 21 (GRATING)
Instrument parameters: FILTER AT ABOUT 10 MICRONS
Path length: 0.01 CM
Resolution: 2
Origin: ABBOTT LABORATORIES
1/CM	TRANSMITTANCE
805	0.9755
813	0.9455
821	0.9015
829	0.8675
837	0.8484
845	0.861
853	0.8541
861	0.8022
869	0.7353
877	0.5917
885	0.6103
893	0.7504
901	0.7014
909	0.6819
917	0.6456
925	0.4993
933	0.5036
941	0.6547
949	0.5569
957	0.7263
965	0.7399
973	0.6253
981	0.6021
989	0.6507
997	0.5273
1005	0.6356
1013	0.6888
1021	0.5586
1029	0.5643
1037	0.447
1045	0.3628
1053	0.2461
1061	0.1465
1069	0.3029
1077	0.5992
1085	0.6582
1093	0.7552
1101	0.7604
1109	0.6983
1117	0.5362
1125	0.5947
1133	0.4741
1141	0.432
1149	0.6085
1157	0.7348
1165	0.7581
1173	0.7491
1181	0.7757
1189	0.8069
1197	0.7836
1205	0.6499
1213	0.5888
1221	0.5716
1229	0.5412
1237	0.5973
1245	0.7523
1253	0.7911
1261	0.8058
1269	0.7952
1277	0.7557
1285	0.7037
1293	0.5371
1301	0.7483
1309	0.753
1317	0.7308
1325	0.7242
1333	0.7545
1341	0.8082
1349	0.8221
1357	0.8242
1365	0.8247
1373	0.8248
1381	0.8215
1389	0.8144
1397	0.8106
1405	0.7948
1413	0.7755
1421	0.7988
1429	0.7565
1437	0.6838
1445	0.6518
1453	0.6638
1461	0.3352
1469	0.3803
1477	0.4619
1485	0.4708
1493	0.6155
1501	0.5936
1509	0.8384
1517	0.8737
1525	0.8804
1533	0.8748
1541	0.8635
1549	0.8561
1557	0.846
1565	0.8386
1573	0.8247
1581	0.7928
1589	0.7546
1597	0.6958
1605	0.5821
1613	0.6928
1621	0.5961
1629	0.5288
1637	0.7583
1645	0.7324
1653	0.7704
1661	0.8167
1669	0.8217
1677	0.8231
1685	0.8226
1693	0.8217
1701	0.8204
1709	0.8188
1717	0.8171
1725	0.8141
1733	0.8104
1741	0.7994
1749	0.774
1757	0.7448
1765	0.7134
1773	0.68
1781	0.6376
1789	0.5405
1797	0.2535
1805	0.0571
1813	0.0576
1821	0.2743
1829	0.4257
1837	0.612
1845	0.7371
1853	0.7593
1861	0.7766
1869	0.7878
1877	0.7992
1885	0.8107
1893	0.8169
1901	0.8209
1909	0.8222
1917	0.8278
1925	0.8389
1933	0.8409
1941	0.834
1949	0.8253
1957	0.8246
1965	0.8296
1973	0.8377
1981	0.845
1989	0.8474
1997	0.8485
2005	0.8538
2013	0.8579
2021	0.8587
2029	0.8595
2037	0.8604
2045	0.8605
2053	0.8604
2061	0.8602
2069	0.8597
2077	0.859
2085	0.8584
2093	0.8578
2101	0.8574
2109	0.857
2117	0.8574
2125	0.8581
2133	0.8587
2141	0.8608
2149	0.8633
2157	0.8644
2165	0.8655
2173	0.8656
2181	0.8648
2189	0.864
2197	0.8633
2205	0.863
2213	0.864
2221	0.8654
2229	0.8665
2237	0.8675
2245	0.8674
2253	0.8669
2261	0.8666
2269	0.8664
2277	0.8662
2285	0.8663
2293	0.8667
2301	0.8673
2309	0.8715
2317	0.8784
2325	0.8811
2333	0.8827
2341	0.8831
2349	0.8834
2357	0.8832
2365	0.883
2373	0.8834
2381	0.8843
2389	0.8925
2397	0.8954
2405	0.893
2413	0.8871
2421	0.886
2429	0.8846
2437	0.8814
2445	0.8764
2453	0.8702
2461	0.8689
2469	0.8683
2477	0.8683
2485	0.8689
2493	0.8702
2501	0.8718
2509	0.8737
2517	0.875
2525	0.8756
2533	0.8749
2541	0.8742
2549	0.8729
2557	0.8714
2565	0.8699
2573	0.8685
2581	0.8672
2589	0.8668
2597	0.8669
2605	0.8669
2613	0.8675
2621	0.8681
2629	0.8687
2637	0.8696
2645	0.871
2653	0.8723
2661	0.8735
2669	0.8741
2677	0.8748
2685	0.8742
2693	0.8734
2701	0.8728
2709	0.8721
2717	0.8716
2725	0.8716
2733	0.8716
2741	0.8716
2749	0.8716
2757	0.8716
2765	0.8717
2773	0.8718
2781	0.872
2789	0.8721
2797	0.8723
2805	0.8724
2813	0.8725
2821	0.8726
2829	0.873
2837	0.8735
2845	0.8739
2853	0.8741
2861	0.8742
2869	0.8729
2877	0.8713
2885	0.8683
2893	0.8651
2901	0.8617
2909	0.8583
2917	0.8557
2925	0.854
2933	0.8544
2941	0.8555
2949	0.8565
2957	0.8549
2965	0.8495
2973	0.842
2981	0.8296
2989	0.8129
2997	0.7972
3005	0.7856
3013	0.7726
3021	0.7654
3029	0.7609
3037	0.7602
3045	0.7597
3053	0.7599
3061	0.7604
3069	0.7625
3077	0.7707
3085	0.7792
3093	0.7893
3101	0.8039
3109	0.8191
3117	0.8355
3125	0.8536
3133	0.8748
3141	0.8772
3149	0.878
3157	0.8787
3165	0.8794
3173	0.8796
3181	0.8799
3189	0.8831
3197	0.8877
3205	0.8908
3213	0.8929
3221	0.8931
3229	0.8933
3237	0.8934
3245	0.8934
3253	0.8933
3261	0.8932
3269	0.893
3277	0.8928
3285	0.8927
3293	0.8925
3301	0.8923
3309	0.8921
3317	0.8919
3325	0.8917
3333	0.8916
3341	0.8915
3349	0.8914
3357	0.8914
3365	0.8914
3373	0.8914
3381	0.8913
3389	0.8913
3397	0.8912
3405	0.8912
3413	0.8912
3421	0.8911
3429	0.8907
3437	0.8903
3445	0.8899
3453	0.8895
3461	0.889
3469	0.8887
3477	0.8883
3485	0.888
3493	0.8878
3501	0.8877
3509	0.8862
3517	0.8839
3525	0.8818
3533	0.8799
3541	0.8782
3549	0.8766
3557	0.8754
3565	0.8747
3573	0.8739
3581	0.8736
3589	0.8741
3597	0.8746
3605	0.8753
3613	0.8762
3621	0.8771
3629	0.8779
3637	0.879
3645	0.8804
3653	0.8816
3661	0.8828
3669	0.8839
3677	0.8852
3685	0.8864
3693	0.8876
3701	0.8889
3709	0.8901
3717	0.8913
3725	0.8924
3733	0.8926
3741	0.8928
3749	0.893
3757	0.8932
3765	0.8933
3773	0.8935
3781	0.8935
3789	0.8932
3797	0.8929
3805	0.8927
3813	0.8924
3821	0.8921
3829	0.8918
3837	0.8916
3845	0.8915
3853	0.8913
3861	0.8912
3869	0.891
3877	0.8908
3885	0.8907
3893	0.8906
3901	0.8903
3909	0.8902
3917	0.89
3925	0.8897
3933	0.8896
3941	0.8894
3949	0.8892
3957	0.889
3965	0.8888
3973	0.8886
3981	0.8884
3989	0.8882
3997	0.8881
