Infrared Spectrum: N-(PHENOTHIAZINE-10-CARBONYL) PIPERAZINE HYDROCHLORIDE
Formula: C17 H17 N3 O S  * H Cl
CAS: 116434-92-5
State: SOLID (NUJOL MULL)
Class: COBLENTZ
Instrument: PERKIN-ELMER
Sampling: TRANSMISSION
Resolution: 4
Origin: ABBOTT LABORATORIES - WASHBURN
MICROMETERS	TRANSMITTANCE
2.023	0.301
2.0566	0.31
2.0902	0.32
2.1238	0.33
2.1574	0.3403
2.191	0.3551
2.2246	0.3663
2.2582	0.3792
2.2918	0.389
2.3254	0.393
2.359	0.396
2.3926	0.411
2.4262	0.4201
2.4598	0.427
2.4934	0.437
2.527	0.444
2.5606	0.4613
2.5942	0.4692
2.6278	0.4789
2.6614	0.486
2.695	0.494
2.7286	0.5
2.7622	0.501
2.7958	0.5079
2.8294	0.505
2.863	0.508
2.8966	0.5013
2.9302	0.503
2.9638	0.5099
2.9974	0.51
3.031	0.501
3.0646	0.496
3.0982	0.5201
3.1318	0.5331
3.1654	0.54
3.199	0.5493
3.2326	0.557
3.2662	0.5454
3.2998	0.5013
3.3334	0.4617
3.367	0.377
3.4006	0.1462
3.4342	0.0496
3.4678	0.0201
3.5014	0.056
3.535	0.0856
3.5686	0.2786
3.6022	0.3518
3.6358	0.361
3.6694	0.3471
3.703	0.328
3.7366	0.269
3.7702	0.3494
3.8038	0.438
3.8374	0.4046
3.871	0.4375
3.9046	0.5051
3.9382	0.5539
3.9718	0.5739
4.0054	0.579
4.039	0.545
4.0726	0.4402
4.1062	0.4554
4.1398	0.5493
4.1734	0.6053
4.207	0.6201
4.2406	0.625
4.2742	0.63
4.3078	0.645
4.3414	0.6501
4.375	0.645
4.4086	0.654
4.4422	0.659
4.4758	0.661
4.5094	0.6639
4.543	0.6621
4.5766	0.667
4.6102	0.6642
4.6438	0.649
4.6774	0.6639
4.711	0.674
4.7446	0.676
4.7782	0.6769
4.8118	0.676
4.8454	0.6761
4.879	0.6811
4.9126	0.688
4.9462	0.683
4.9798	0.684
5.0134	0.694
5.047	0.694
5.0806	0.693
5.1142	0.6985
5.1478	0.693
5.1814	0.702
5.215	0.6949
5.2486	0.6915
5.2822	0.6903
5.3158	0.7065
5.3494	0.7102
5.383	0.7163
5.4166	0.7161
5.4502	0.7084
5.4838	0.7097
5.5174	0.7145
5.551	0.722
5.5846	0.7187
5.6182	0.7179
5.6518	0.723
5.6854	0.7243
5.719	0.7163
5.7526	0.716
5.7862	0.715
5.8198	0.7099
5.8534	0.7106
5.887	0.6985
5.9206	0.6718
5.9542	0.6114
5.9878	0.4283
6.0214	0.1782
6.055	0.1475
6.0886	0.3188
6.1222	0.4697
6.1558	0.5396
6.1894	0.5718
6.223	0.5501
6.2566	0.5343
6.2902	0.5025
6.3238	0.5636
6.3574	0.6205
6.391	0.6177
6.4246	0.6349
6.4582	0.6751
6.4918	0.674
6.5254	0.6868
6.559	0.686
6.5926	0.683
6.6262	0.676
6.6598	0.672
6.6934	0.6642
6.727	0.619
6.7606	0.5328
6.7942	0.3351
6.8278	0.3048
6.8614	0.1042
6.895	0.0835
6.9286	0.1812
6.9622	0.2537
6.9958	0.3498
7.0294	0.4198
7.063	0.379
7.0966	0.4518
7.1302	0.3781
7.1638	0.1971
7.1974	0.1379
7.231	0.1295
7.2646	0.1643
7.2982	0.2029
7.3318	0.2894
7.3654	0.433
7.399	0.506
7.4326	0.5372
7.4662	0.481
7.4998	0.5278
7.5334	0.5884
7.567	0.6094
7.6006	0.6043
7.6342	0.472
7.6678	0.481
7.7014	0.3963
7.735	0.2336
7.7686	0.3008
7.8022	0.3338
7.8358	0.254
7.8694	0.3729
7.903	0.4998
7.9366	0.5248
7.9702	0.3994
8.0038	0.2712
8.0374	0.1213
8.071	0.2237
8.1046	0.3266
8.1382	0.307
8.1718	0.4203
8.2054	0.435
8.239	0.4967
8.2726	0.5585
8.3062	0.5813
8.3398	0.6
8.3734	0.6076
8.407	0.6191
8.4406	0.5988
8.4742	0.6327
8.5078	0.6446
8.5414	0.6418
8.575	0.5897
8.6086	0.5091
8.6422	0.462
8.6758	0.4334
8.7094	0.5119
8.743	0.5476
8.7766	0.5841
8.8102	0.5979
8.8438	0.5647
8.8774	0.5353
8.911	0.5588
8.9446	0.5509
8.9782	0.5945
9.0118	0.6013
9.0454	0.6238
9.079	0.6214
9.1126	0.616
9.1462	0.618
9.1798	0.6281
9.2134	0.6225
9.247	0.4505
9.2806	0.526
9.3142	0.6029
9.3478	0.6422
9.3814	0.6418
9.415	0.6219
9.4486	0.64
9.4822	0.632
9.5158	0.6423
9.5494	0.6293
9.583	0.5375
9.6166	0.488
9.6502	0.5541
9.6838	0.5466
9.7174	0.5611
9.751	0.5939
9.7846	0.6201
9.8182	0.6429
9.8518	0.6649
9.8854	0.6763
9.919	0.6852
9.9526	0.6968
9.9862	0.6979
10.0198	0.6717
10.0534	0.6446
10.087	0.5428
10.1206	0.4991
10.1542	0.5634
10.1878	0.642
10.2214	0.6742
10.255	0.6848
10.2886	0.692
10.3222	0.7065
10.3558	0.711
10.3894	0.6997
10.423	0.6803
10.4566	0.6761
10.4902	0.7077
10.5238	0.715
10.5574	0.7003
10.591	0.6338
10.6246	0.636
10.6582	0.6705
10.6918	0.696
10.7254	0.703
10.759	0.713
10.7926	0.7102
10.8262	0.685
10.8598	0.6061
10.8934	0.6619
10.927	0.6976
10.9606	0.6674
10.9942	0.6641
11.0278	0.7021
11.0614	0.721
11.095	0.728
11.1286	0.7276
11.1622	0.7222
11.1958	0.7283
11.2294	0.7382
11.263	0.74
11.2966	0.744
11.3302	0.749
11.3638	0.754
11.3974	0.752
11.431	0.7508
11.4646	0.7479
11.4982	0.748
11.5318	0.742
11.5654	0.7482
11.599	0.745
11.6326	0.7394
11.6662	0.7251
11.6998	0.737
11.7334	0.7379
11.767	0.7398
11.8006	0.737
11.8342	0.7358
11.8678	0.7102
11.9014	0.697
11.935	0.7062
11.9686	0.7188
12.0022	0.7286
12.0358	0.7387
12.0694	0.745
12.103	0.744
12.1366	0.7253
12.1702	0.7066
12.2038	0.7
12.2374	0.6915
12.271	0.6904
12.3046	0.7021
12.3382	0.7127
12.3718	0.7237
12.4054	0.7323
12.439	0.7357
12.4726	0.742
12.5062	0.738
12.5398	0.74
12.5734	0.745
12.607	0.7442
12.6406	0.74
12.6742	0.738
12.7078	0.727
12.7414	0.7113
12.775	0.6926
12.8086	0.6182
12.8422	0.4437
12.8758	0.2971
12.9094	0.4508
12.943	0.5259
12.9766	0.5789
13.0102	0.6154
13.0438	0.6114
13.0774	0.5804
13.111	0.4995
13.1446	0.4071
13.1782	0.3701
13.2118	0.3408
13.2454	0.4745
13.279	0.562
13.3126	0.6016
13.3462	0.6128
13.3798	0.5911
13.4134	0.5375
13.447	0.4186
13.4806	0.3285
13.5142	0.4693
13.5478	0.561
13.5814	0.607
13.615	0.6259
13.6486	0.5964
13.6822	0.5166
13.7158	0.4335
13.7494	0.4422
13.783	0.528
13.8166	0.5888
13.8502	0.601
13.8838	0.5788
13.9174	0.5629
13.951	0.6259
13.9846	0.653
14.0182	0.6624
14.0518	0.6714
14.0854	0.6777
14.119	0.683
14.1526	0.6876
14.1862	0.689
14.2198	0.683
14.2534	0.6808
14.287	0.6765
14.3206	0.6667
14.3542	0.6633
14.3878	0.6675
14.4214	0.667
14.455	0.669
14.4886	0.667
14.5222	0.6655
14.5558	0.657
14.5894	0.6517
14.623	0.6367
14.6566	0.623
14.6902	0.6324
14.7238	0.6335
14.7574	0.638
14.791	0.633
14.8246	0.63
14.8582	0.6242
14.8918	0.6174
14.9254	0.613
14.959	0.6164
14.9926	0.6278
15.0262	0.6098
15.0598	0.603
15.0934	0.6
15.127	0.5894
15.1606	0.593
15.1942	0.5867
15.2278	0.5764
15.2614	0.5563
15.295	0.5044
15.3286	0.4717
15.3622	0.477
15.3958	0.5025
15.4294	0.5484
