Infrared Spectrum: 3,4-DICHLOROBENZOIC ACID, 4-ISOPROPYL PHENYL ESTER
Formula: C16 H14 Cl2 O2
CAS: 116465-99-7
State: SOLUTION (10% IN CCl4 FOR 5000-1350 CM^-^1, 10% IN CS2 FOR 1350-625 CM^-^1)
Class: COBLENTZ
Instrument: Not specified, most likely a prism, grating, or hybrid spectrometer.
Sampling: TRANSMISSION
Path length: 0.01 CM, 0.01 CM
Resolution: 4
Origin: DOW CHEMICAL COMPANY
MICROMETERS	TRANSMITTANCE
2.029	0.869
2.06812	0.871
2.10723	0.871
2.14635	0.871
2.18546	0.873
2.22458	0.873
2.26369	0.868
2.30281	0.868
2.34192	0.869
2.38104	0.873
2.42015	0.873
2.45927	0.878
2.49839	0.878
2.5375	0.882
2.57662	0.878
2.61573	0.878
2.65485	0.881
2.69396	0.873
2.73308	0.881
2.77219	0.873
2.81131	0.876
2.85043	0.868
2.88954	0.863
2.92866	0.874
2.96777	0.873
3.00689	0.869
3.046	0.876
3.08512	0.868
3.12423	0.866
3.16335	0.861
3.20246	0.84
3.24158	0.804
3.2807	0.773
3.31981	0.76
3.35893	0.502
3.39804	0.562
3.43716	0.639
3.47627	0.699
3.51539	0.855
3.5545	0.871
3.59362	0.879
3.63274	0.881
3.67185	0.879
3.71097	0.889
3.75008	0.892
3.7892	0.891
3.82831	0.889
3.86743	0.879
3.90654	0.879
3.94566	0.897
3.98477	0.891
4.02389	0.895
4.06301	0.9
4.10212	0.899
4.14124	0.894
4.18035	0.892
4.21947	0.874
4.25858	0.868
4.2977	0.868
4.33681	0.876
4.37593	0.879
4.41505	0.895
4.45416	0.908
4.49328	0.92
4.53239	0.92
4.57151	0.913
4.61062	0.895
4.64974	0.895
4.68885	0.905
4.72797	0.899
4.76708	0.904
4.8062	0.899
4.84532	0.895
4.88443	0.887
4.92355	0.891
4.96266	0.878
5.00178	0.882
5.04089	0.878
5.08001	0.892
5.11912	0.899
5.15824	0.884
5.19735	0.866
5.23647	0.869
5.27559	0.835
5.3147	0.882
5.35382	0.873
5.39293	0.878
5.43205	0.868
5.47116	0.852
5.51028	0.821
5.54939	0.804
5.58851	0.793
5.62763	0.713
5.66674	0.491
5.70586	0.104
5.74497	0.118
5.78409	0.554
5.8232	0.744
5.86232	0.772
5.90143	0.83
5.94055	0.827
5.97966	0.816
6.01878	0.83
6.0579	0.83
6.09701	0.814
6.13613	0.795
6.17524	0.704
6.21436	0.539
6.25347	0.347
6.29259	0.434
6.3317	0.494
6.37082	0.403
6.40994	0.396
6.44905	0.424
6.48817	0.52
6.52728	0.547
6.5664	0.487
6.60551	0.305
6.64463	0.351
6.68374	0.621
6.72286	0.616
6.76197	0.46
6.80109	0.37
6.84021	0.622
6.87932	0.721
6.91844	0.759
6.95755	0.756
6.99667	0.715
7.03578	0.725
7.0749	0.749
7.11401	0.695
7.15313	0.551
7.19225	0.291
7.23136	0.443
7.27048	0.671
7.30959	0.715
7.34871	0.791
7.38782	0.78
7.42694	0.752
7.46605	0.78
7.50517	0.795
7.54428	0.767
7.5834	0.717
7.62252	0.617
7.66163	0.521
7.70075	0.404
7.73986	0.178
7.77898	0.074
7.81809	0.045
7.85721	0.029
7.89632	0.138
7.93544	0.458
7.97455	0.435
8.01367	0.13
8.05279	0.034
8.0919	0.032
8.13102	0.125
8.17013	0.253
8.20925	0.156
8.24836	0.149
8.28748	0.034
8.32659	0.022
8.36571	0.159
8.40483	0.37
8.44394	0.559
8.48306	0.487
8.52217	0.178
8.56129	0.284
8.6004	0.59
8.63952	0.689
8.67863	0.679
8.71775	0.601
8.75686	0.523
8.79598	0.507
8.8351	0.546
8.87421	0.586
8.91333	0.678
8.95244	0.723
8.99156	0.715
9.03067	0.666
9.06979	0.56
9.1089	0.422
9.14802	0.211
9.18714	0.144
9.22625	0.16
9.26537	0.068
9.30448	0.217
9.3436	0.476
9.38271	0.603
9.42183	0.512
9.46094	0.346
9.50006	0.44
9.53917	0.647
9.57829	0.632
9.61741	0.421
9.65652	0.172
9.69564	0.559
9.73475	0.671
9.77387	0.551
9.81298	0.396
9.8521	0.741
9.89121	0.83
9.93033	0.871
9.96945	0.879
10.0086	0.886
10.0477	0.891
10.0868	0.892
10.1259	0.895
10.165	0.899
10.2041	0.899
10.2433	0.899
10.2824	0.9
10.3215	0.891
10.3606	0.884
10.3997	0.881
10.4388	0.876
10.4779	0.879
10.5171	0.882
10.5562	0.881
10.5953	0.866
10.6344	0.837
10.6735	0.847
10.7126	0.863
10.7518	0.855
10.7909	0.837
10.83	0.811
10.8691	0.801
10.9082	0.788
10.9473	0.717
10.9864	0.619
11.0256	0.572
11.0647	0.538
11.1038	0.518
11.1429	0.531
11.182	0.452
11.2211	0.362
11.2603	0.432
11.2994	0.585
11.3385	0.634
11.3776	0.65
11.4167	0.66
11.4558	0.66
11.4949	0.652
11.5341	0.639
11.5732	0.621
11.6123	0.595
11.6514	0.577
11.6905	0.534
11.7296	0.484
11.7688	0.391
11.8079	0.331
11.847	0.347
11.8861	0.411
11.9252	0.413
11.9643	0.372
12.0035	0.351
12.0426	0.388
12.0817	0.429
12.1208	0.468
12.1599	0.502
12.199	0.5
12.2381	0.473
12.2773	0.466
12.3164	0.533
12.3555	0.616
12.3946	0.669
12.4337	0.713
12.4728	0.725
12.512	0.738
12.5511	0.743
12.5902	0.744
12.6293	0.739
12.6684	0.733
12.7075	0.712
12.7466	0.682
12.7858	0.626
12.8249	0.541
12.864	0.492
12.9031	0.551
12.9422	0.642
12.9813	0.689
13.0205	0.702
13.0596	0.694
13.0987	0.671
13.1378	0.619
13.1769	0.536
13.216	0.404
13.2551	0.203
13.2943	0.091
13.3334	0.154
13.3725	0.357
13.4116	0.547
13.4507	0.632
13.4898	0.679
13.529	0.702
13.5681	0.715
13.6072	0.731
13.6463	0.736
13.6854	0.736
13.7245	0.725
13.7636	0.704
13.8028	0.669
13.8419	0.63
13.881	0.616
13.9201	0.648
13.9592	0.682
13.9983	0.694
14.0375	0.694
14.0766	0.686
14.1157	0.679
14.1548	0.673
14.1939	0.663
14.233	0.66
14.2721	0.66
14.3113	0.656
14.3504	0.65
14.3895	0.64
14.4286	0.622
14.4677	0.606
14.5068	0.6
14.546	0.596
14.5851	0.593
14.6242	0.573
14.6633	0.531
14.7024	0.479
14.7415	0.422
14.7807	0.396
14.8198	0.404
14.8589	0.424
14.898	0.45
14.9371	0.489
14.9762	0.53
15.0153	0.533
15.0545	0.523
15.0936	0.515
15.1327	0.505
15.1718	0.497
15.2109	0.489
15.25	0.479
15.2892	0.471
15.3283	0.465
15.3674	0.458
15.4065	0.452
15.4456	0.443
15.4847	0.439
15.5238	0.429
15.563	0.422
15.6021	0.416
15.6412	0.406
15.6803	0.4
15.7194	0.39
15.7585	0.38
15.7977	0.377
15.8368	0.375
15.8759	0.382
15.915	0.401
