Infrared Spectrum: PHOSPHORIC TRIAMIDE, N,N',N''-TRIS-(2,4-DIMETHYL PHENYL)-,
Formula: C24 H30 N3 O P
CAS: 116402-14-3
State: SOLID (KBr PELLET)
Class: COBLENTZ
Instrument: PERKIN-ELMER
Sampling: TRANSMISSION
Resolution: 4
Origin: STANDARD OIL OF OHIO
MICROMETERS	TRANSMITTANCE
2.007	0.898
2.04075	0.901
2.07449	0.903
2.10824	0.9
2.14199	0.9
2.17574	0.898
2.20948	0.908
2.24323	0.908
2.27698	0.9
2.31073	0.896
2.34447	0.901
2.37822	0.908
2.41197	0.913
2.44572	0.913
2.47946	0.913
2.51321	0.911
2.54696	0.911
2.5807	0.911
2.61445	0.913
2.6482	0.913
2.68195	0.913
2.71569	0.9
2.74944	0.859
2.78319	0.779
2.81694	0.713
2.85068	0.654
2.88443	0.554
2.91818	0.5
2.95193	0.498
2.98567	0.459
3.01942	0.413
3.05317	0.401
3.08692	0.437
3.12066	0.523
3.15441	0.623
3.18816	0.703
3.2219	0.73
3.25565	0.696
3.2894	0.647
3.32315	0.657
3.35689	0.6
3.39064	0.549
3.42439	0.6
3.45814	0.649
3.49188	0.706
3.52563	0.842
3.55938	0.862
3.59313	0.883
3.62687	0.889
3.66062	0.898
3.69437	0.923
3.72811	0.932
3.76186	0.937
3.79561	0.938
3.82936	0.944
3.8631	0.944
3.89685	0.942
3.9306	0.938
3.96435	0.94
3.99809	0.944
4.03184	0.945
4.06559	0.944
4.09934	0.945
4.13308	0.942
4.16683	0.94
4.20058	0.942
4.23433	0.944
4.26807	0.942
4.30182	0.942
4.33557	0.944
4.36931	0.947
4.40306	0.947
4.43681	0.949
4.47056	0.95
4.5043	0.952
4.53805	0.95
4.5718	0.95
4.60555	0.95
4.63929	0.949
4.67304	0.949
4.70679	0.949
4.74054	0.945
4.77428	0.945
4.80803	0.944
4.84178	0.942
4.87552	0.938
4.90927	0.938
4.94302	0.94
4.97677	0.94
5.01051	0.938
5.04426	0.938
5.07801	0.938
5.11176	0.94
5.1455	0.938
5.17925	0.935
5.213	0.928
5.24675	0.923
5.28049	0.916
5.31424	0.913
5.34799	0.916
5.38173	0.925
5.41548	0.928
5.44923	0.927
5.48298	0.927
5.51672	0.928
5.55047	0.932
5.58422	0.93
5.61797	0.927
5.65171	0.922
5.68546	0.915
5.71921	0.91
5.75296	0.91
5.7867	0.915
5.82045	0.918
5.8542	0.923
5.88795	0.927
5.92169	0.93
5.95544	0.938
5.98919	0.918
6.02293	0.874
6.05668	0.825
6.09043	0.801
6.12418	0.705
6.15792	0.569
6.19167	0.662
6.22542	0.745
6.25917	0.679
6.29291	0.53
6.32666	0.583
6.36041	0.752
6.39416	0.801
6.4279	0.81
6.46165	0.801
6.4954	0.737
6.52914	0.561
6.56289	0.296
6.59664	0.101
6.63039	0.088
6.66413	0.22
6.69788	0.444
6.73163	0.538
6.76538	0.527
6.79912	0.508
6.83287	0.508
6.86662	0.5
6.90037	0.484
6.93411	0.5
6.96786	0.549
7.00161	0.562
7.03536	0.542
7.0691	0.472
7.10285	0.371
7.1366	0.261
7.17034	0.15
7.20409	0.135
7.23784	0.149
7.27159	0.186
7.30533	0.303
7.33908	0.45
7.37283	0.584
7.40658	0.716
7.44032	0.772
7.47407	0.825
7.50782	0.842
7.54157	0.844
7.57531	0.84
7.60906	0.832
7.64281	0.777
7.67655	0.63
7.7103	0.406
7.74405	0.284
7.7778	0.223
7.81154	0.288
7.84529	0.371
7.87904	0.349
7.91279	0.264
7.94653	0.261
7.98028	0.391
8.01403	0.552
8.04778	0.608
8.08152	0.603
8.11527	0.525
8.14902	0.416
8.18277	0.288
8.21651	0.208
8.25026	0.228
8.28401	0.284
8.31775	0.318
8.3515	0.305
8.38525	0.284
8.419	0.284
8.45274	0.306
8.48649	0.332
8.52024	0.4
8.55399	0.471
8.58773	0.491
8.62148	0.496
8.65523	0.615
8.68898	0.749
8.72272	0.823
8.75647	0.864
8.79022	0.877
8.82396	0.862
8.85771	0.764
8.89146	0.533
8.92521	0.374
8.95895	0.425
8.9927	0.611
9.02645	0.73
9.0602	0.801
9.09394	0.794
9.12769	0.801
9.16144	0.85
9.19519	0.862
9.22893	0.859
9.26268	0.835
9.29643	0.81
9.33017	0.808
9.36392	0.816
9.39767	0.823
9.43142	0.825
9.46516	0.818
9.49891	0.808
9.53266	0.786
9.56641	0.754
9.60015	0.715
9.6339	0.688
9.66765	0.677
9.7014	0.681
9.73514	0.683
9.76889	0.667
9.80264	0.613
9.83639	0.538
9.87013	0.469
9.90388	0.391
9.93763	0.332
9.97137	0.376
10.0051	0.488
10.0389	0.55
10.0726	0.55
10.1064	0.513
10.1401	0.452
10.1739	0.396
10.2076	0.333
10.2414	0.286
10.2751	0.249
10.3088	0.223
10.3426	0.211
10.3763	0.201
10.4101	0.193
10.4438	0.186
10.4776	0.188
10.5113	0.198
10.5451	0.222
10.5788	0.266
10.6126	0.34
10.6463	0.42
10.6801	0.5
10.7138	0.537
10.7476	0.54
10.7813	0.474
10.8151	0.381
10.8488	0.303
10.8826	0.277
10.9163	0.266
10.95	0.274
10.9838	0.298
11.0175	0.333
11.0513	0.376
11.085	0.423
11.1188	0.464
11.1525	0.501
11.1863	0.537
11.22	0.564
11.2538	0.581
11.2875	0.6
11.3213	0.61
11.355	0.615
11.3888	0.615
11.4225	0.613
11.4563	0.613
11.49	0.62
11.5238	0.661
11.5575	0.686
11.5912	0.708
11.625	0.728
11.6587	0.75
11.6925	0.761
11.7262	0.771
11.76	0.777
11.7937	0.781
11.8275	0.781
11.8612	0.777
11.895	0.769
11.9287	0.755
11.9625	0.73
11.9962	0.703
12.03	0.664
12.0637	0.628
12.0975	0.601
12.1312	0.567
12.165	0.54
12.1987	0.518
12.2324	0.5
12.2662	0.483
12.2999	0.474
12.3337	0.469
12.3674	0.464
12.4012	0.459
12.4349	0.461
12.4687	0.467
12.5024	0.5
12.5362	0.588
12.5699	0.662
12.6037	0.715
12.6374	0.75
12.6712	0.764
12.7049	0.766
12.7387	0.762
12.7724	0.752
12.8062	0.737
12.8399	0.727
12.8736	0.72
12.9074	0.716
12.9411	0.718
12.9749	0.727
13.0086	0.74
13.0424	0.749
13.0761	0.757
13.1099	0.762
13.1436	0.767
13.1774	0.772
13.2111	0.776
13.2449	0.779
13.2786	0.783
13.3124	0.786
13.3461	0.791
13.3799	0.8
13.4136	0.808
13.4474	0.816
13.4811	0.825
13.5148	0.832
13.5486	0.835
13.5823	0.837
13.6161	0.835
13.6498	0.832
13.6836	0.828
13.7173	0.823
13.7511	0.816
13.7848	0.813
13.8186	0.81
13.8523	0.8
13.8861	0.784
13.9198	0.772
13.9536	0.764
13.9873	0.75
14.0211	0.723
14.0548	0.703
14.0886	0.683
14.1223	0.672
14.156	0.672
14.1898	0.701
14.2235	0.73
14.2573	0.752
14.291	0.769
14.3248	0.783
14.3585	0.8
14.3923	0.808
14.426	0.818
14.4598	0.822
14.4935	0.823
14.5273	0.825
14.561	0.83
14.5948	0.832
14.6285	0.832
14.6623	0.832
14.696	0.832
14.7298	0.833
14.7635	0.832
14.7972	0.832
14.831	0.83
14.8647	0.828
14.8985	0.828
14.9322	0.827
14.966	0.827
14.9997	0.825
15.0335	0.822
15.0672	0.816
15.101	0.813
15.1347	0.811
15.1685	0.808
15.2022	0.806
15.236	0.806
15.2697	0.805
15.3035	0.801
15.3372	0.798
15.371	0.791
