Infrared Spectrum: 2-PHENOXY-3-METHYL-6-BENZYL PYRAZINE
Formula: C18 H16 N2 O
CAS: 116435-99-5
State: LIQUID
Boiling point: 157-160 C AT 0.17 mmHg
Class: COBLENTZ
Instrument: Not specified, most likely a prism, grating, or hybrid spectrometer.
Sampling: TRANSMISSION
Path length: 0.0015 CM
Resolution: 4
Origin: WYANDOTTE CHEMICALS CORP., WYANDOTTE, MICHIGAN, USA
MICROMETERS	TRANSMITTANCE
2.033	0.978
2.07277	0.971
2.11255	0.968
2.15232	0.975
2.1921	0.968
2.23187	0.96
2.27165	0.961
2.31142	0.968
2.35119	0.96
2.39097	0.915
2.43074	0.948
2.47052	0.956
2.51029	0.96
2.55007	0.973
2.58984	0.978
2.62962	0.975
2.66939	0.99
2.70916	0.971
2.74894	0.971
2.78871	0.966
2.82849	0.948
2.86826	0.936
2.90804	0.911
2.94781	0.903
2.98758	0.9
3.02736	0.897
3.06713	0.892
3.10691	0.883
3.14668	0.878
3.18646	0.865
3.22623	0.755
3.26601	0.441
3.30578	0.514
3.34555	0.709
3.38533	0.676
3.4251	0.621
3.46488	0.805
3.50465	0.833
3.54443	0.857
3.5842	0.901
3.62397	0.91
3.66375	0.888
3.70352	0.918
3.7433	0.93
3.78307	0.928
3.82285	0.921
3.86262	0.923
3.90239	0.925
3.94217	0.926
3.98194	0.916
4.02172	0.913
4.06149	0.916
4.10127	0.911
4.14104	0.906
4.18082	0.897
4.22059	0.88
4.26036	0.888
4.30014	0.911
4.33991	0.92
4.37969	0.933
4.41946	0.926
4.45924	0.931
4.49901	0.938
4.53878	0.951
4.57856	0.95
4.61833	0.946
4.65811	0.943
4.69788	0.936
4.73766	0.936
4.77743	0.935
4.81721	0.931
4.85698	0.92
4.89675	0.92
4.93653	0.898
4.9763	0.89
5.01608	0.903
5.05585	0.885
5.09563	0.89
5.1354	0.868
5.17517	0.83
5.21495	0.852
5.25472	0.89
5.2945	0.887
5.33427	0.88
5.37405	0.862
5.41382	0.872
5.45359	0.895
5.49337	0.893
5.53314	0.852
5.57292	0.833
5.61269	0.84
5.65247	0.837
5.69224	0.857
5.73202	0.843
5.77179	0.832
5.81156	0.837
5.85134	0.843
5.89111	0.84
5.93089	0.815
5.97066	0.797
6.01044	0.762
6.05021	0.745
6.08998	0.722
6.12976	0.697
6.16953	0.559
6.20931	0.151
6.24908	0.28
6.28886	0.416
6.32863	0.607
6.36841	0.629
6.40818	0.475
6.44795	0.388
6.48773	0.297
6.5275	0.461
6.56728	0.599
6.60705	0.518
6.64683	0.076
6.6866	0.107
6.72637	0.299
6.76615	0.169
6.80592	0.049
6.8457	0.049
6.88547	0.083
6.92525	0.109
6.96502	0.154
7.00479	0.269
7.04457	0.398
7.08434	0.382
7.12412	0.305
7.16389	0.126
7.20367	0.021
7.24344	0.026
7.28322	0.024
7.32299	0.031
7.36276	0.119
7.40254	0.23
7.44231	0.237
7.48209	0.269
7.52186	0.269
7.56164	0.312
7.60141	0.294
7.64118	0.262
7.68096	0.227
7.72073	0.179
7.76051	0.167
7.80028	0.194
7.84006	0.252
7.87983	0.27
7.91961	0.315
7.95938	0.382
7.99915	0.415
8.03893	0.406
8.0787	0.377
8.11848	0.36
8.15825	0.257
8.19803	0.048
8.2378	0.024
8.27757	0.026
8.31735	0.028
8.35712	0.053
8.3969	0.102
8.43667	0.121
8.47645	0.122
8.51622	0.049
8.55599	0.028
8.59577	0.046
8.63554	0.079
8.67532	0.126
8.71509	0.234
8.75487	0.338
8.79464	0.445
8.83442	0.491
8.87419	0.458
8.91396	0.42
8.95374	0.594
8.99351	0.661
9.03329	0.714
9.07306	0.76
9.11284	0.772
9.15261	0.772
9.19238	0.747
9.23216	0.632
9.27193	0.403
9.31171	0.358
9.35148	0.561
9.39126	0.699
9.43103	0.755
9.47081	0.765
9.51058	0.765
9.55035	0.737
9.59013	0.684
9.6299	0.602
9.66968	0.433
9.70945	0.295
9.74923	0.24
9.789	0.313
9.82877	0.4
9.86855	0.47
9.90832	0.566
9.9481	0.401
9.98787	0.473
10.0276	0.676
10.0674	0.699
10.1072	0.689
10.147	0.657
10.1867	0.651
10.2265	0.686
10.2663	0.73
10.3061	0.755
10.3458	0.759
10.3856	0.769
10.4254	0.78
10.4652	0.794
10.5049	0.817
10.5447	0.823
10.5845	0.82
10.6243	0.808
10.664	0.805
10.7038	0.779
10.7436	0.757
10.7834	0.727
10.8231	0.724
10.8629	0.722
10.9027	0.722
10.9425	0.705
10.9822	0.672
11.022	0.609
11.0618	0.549
11.1016	0.543
11.1413	0.571
11.1811	0.601
11.2209	0.601
11.2607	0.602
11.3004	0.609
11.3402	0.631
11.38	0.664
11.4197	0.699
11.4595	0.755
11.4993	0.797
11.5391	0.82
11.5788	0.83
11.6186	0.835
11.6584	0.835
11.6982	0.823
11.7379	0.808
11.7777	0.779
11.8175	0.724
11.8573	0.644
11.897	0.481
11.9368	0.362
11.9766	0.387
12.0164	0.493
12.0561	0.549
12.0959	0.566
12.1357	0.564
12.1755	0.564
12.2152	0.594
12.255	0.636
12.2948	0.664
12.3346	0.676
12.3743	0.676
12.4141	0.679
12.4539	0.666
12.4937	0.666
12.5334	0.676
12.5732	0.689
12.613	0.694
12.6528	0.686
12.6925	0.636
12.7323	0.519
12.7721	0.448
12.8119	0.411
12.8516	0.403
12.8914	0.428
12.9312	0.47
12.9709	0.504
13.0107	0.518
13.0505	0.514
13.0903	0.458
13.13	0.363
13.1698	0.279
13.2096	0.234
13.2494	0.225
13.2891	0.22
13.3289	0.171
13.3687	0.104
13.4085	0.066
13.4482	0.053
13.488	0.058
13.5278	0.061
13.5676	0.056
13.6073	0.068
13.6471	0.091
13.6869	0.142
13.7267	0.214
13.7664	0.279
13.8062	0.315
13.846	0.337
13.8858	0.327
13.9255	0.312
13.9653	0.275
14.0051	0.269
14.0449	0.27
14.0846	0.277
14.1244	0.285
14.1642	0.308
14.204	0.337
14.2437	0.327
14.2835	0.255
14.3233	0.172
14.3631	0.122
14.4028	0.126
14.4426	0.147
14.4824	0.154
14.5221	0.141
14.5619	0.147
14.6017	0.179
14.6415	0.27
14.6812	0.398
14.721	0.523
14.7608	0.609
14.8006	0.666
14.8403	0.684
14.8801	0.697
14.9199	0.7
14.9597	0.696
14.9994	0.677
15.0392	0.659
15.079	0.652
15.1188	0.662
15.1585	0.669
15.1983	0.664
15.2381	0.666
15.2779	0.672
15.3176	0.682
15.3574	0.689
15.3972	0.694
15.437	0.697
15.4767	0.684
15.5165	0.692
15.5563	0.679
15.5961	0.677
15.6358	0.672
15.6756	0.671
15.7154	0.676
15.7552	0.676
15.7949	0.676
15.8347	0.664
15.8745	0.662
15.9143	0.662
15.954	0.659
15.9938	0.651
