Infrared Spectrum: 2-(N-METHYLANILINO)-3-TRIDECYL PYRAZINE
Formula: C24 H37 N3
CAS: 116402-91-6
State: LIQUID
Class: COBLENTZ
Instrument: Not specified, most likely a prism, grating, or hybrid spectrometer.
Sampling: TRANSMISSION
Path length: 0.0015 CM
Resolution: 4
Origin: WYANDOTTE CHEMICALS CORP., WYANDOTTE, MICHIGAN, USA
MICROMETERS	TRANSMITTANCE
2.027	0.967
2.06782	0.96
2.10864	0.95
2.14945	0.948
2.19027	0.925
2.23109	0.897
2.27191	0.904
2.31272	0.896
2.35354	0.902
2.39436	0.899
2.43518	0.914
2.47599	0.919
2.51681	0.935
2.55763	0.931
2.59845	0.933
2.63926	0.935
2.68008	0.943
2.7209	0.936
2.76172	0.935
2.80253	0.925
2.84335	0.925
2.88417	0.919
2.92499	0.923
2.9658	0.908
3.00662	0.904
3.04744	0.904
3.08826	0.896
3.12907	0.884
3.16989	0.865
3.21071	0.8
3.25153	0.621
3.29234	0.398
3.33316	0.441
3.37398	0.071
3.4148	0.052
3.45561	0.093
3.49643	0.09
3.53725	0.32
3.57807	0.642
3.61888	0.778
3.6597	0.8
3.70052	0.819
3.74134	0.8
3.78215	0.822
3.82297	0.841
3.86379	0.85
3.90461	0.856
3.94542	0.879
3.98624	0.889
4.02706	0.906
4.06788	0.896
4.10869	0.899
4.14951	0.89
4.19033	0.896
4.23115	0.892
4.27196	0.894
4.31278	0.875
4.3536	0.89
4.39442	0.901
4.43523	0.911
4.47605	0.911
4.51687	0.909
4.55769	0.913
4.5985	0.916
4.63932	0.921
4.68014	0.921
4.72096	0.909
4.76177	0.918
4.80259	0.93
4.84341	0.923
4.88423	0.923
4.92504	0.925
4.96586	0.923
5.00668	0.921
5.0475	0.931
5.08831	0.921
5.12913	0.923
5.16995	0.89
5.21077	0.868
5.25158	0.885
5.2924	0.899
5.33322	0.875
5.37404	0.882
5.41485	0.892
5.45567	0.904
5.49649	0.899
5.53731	0.897
5.57812	0.875
5.61894	0.851
5.65976	0.87
5.70058	0.884
5.74139	0.865
5.78221	0.856
5.82303	0.851
5.86385	0.848
5.90467	0.829
5.94548	0.812
5.9863	0.802
6.02712	0.792
6.06794	0.776
6.10875	0.739
6.14957	0.609
6.19039	0.352
6.23121	0.189
6.27202	0.371
6.31284	0.502
6.35366	0.534
6.39448	0.623
6.43529	0.623
6.47611	0.42
6.51693	0.105
6.55775	0.265
6.59856	0.33
6.63938	0.091
6.6802	0.132
6.72102	0.265
6.76183	0.153
6.80265	0.085
6.84347	0.107
6.88429	0.131
6.9251	0.127
6.96592	0.085
7.00674	0.173
7.04756	0.325
7.08837	0.131
7.12919	0.069
7.17001	0.063
7.21083	0.126
7.25164	0.182
7.29246	0.189
7.33328	0.172
7.3741	0.18
7.41491	0.24
7.45573	0.279
7.49655	0.27
7.53737	0.286
7.57818	0.364
7.619	0.388
7.65982	0.379
7.70064	0.402
7.74145	0.424
7.78227	0.47
7.82309	0.477
7.86391	0.47
7.90472	0.398
7.94554	0.335
7.98636	0.299
8.02718	0.356
8.06799	0.441
8.10881	0.543
8.14963	0.618
8.19045	0.604
8.23126	0.558
8.27208	0.514
8.3129	0.473
8.35372	0.41
8.39453	0.298
8.43535	0.219
8.47617	0.201
8.51699	0.218
8.5578	0.241
8.59862	0.226
8.63944	0.19
8.68026	0.19
8.72107	0.229
8.76189	0.243
8.80271	0.187
8.84353	0.149
8.88434	0.224
8.92516	0.255
8.96598	0.354
9.0068	0.439
9.04761	0.497
9.08843	0.55
9.12925	0.587
9.17007	0.568
9.21088	0.5
9.2517	0.437
9.29252	0.441
9.33334	0.478
9.37415	0.517
9.41497	0.543
9.45579	0.572
9.49661	0.572
9.53742	0.604
9.57824	0.681
9.61906	0.724
9.65988	0.712
9.7007	0.64
9.74151	0.594
9.78233	0.666
9.82315	0.737
9.86397	0.756
9.90478	0.729
9.9456	0.696
9.98642	0.652
10.0272	0.696
10.0681	0.749
10.1089	0.778
10.1497	0.797
10.1905	0.795
10.2313	0.804
10.2721	0.798
10.313	0.807
10.3538	0.792
10.3946	0.79
10.4354	0.785
10.4762	0.788
10.517	0.79
10.5579	0.798
10.5987	0.797
10.6395	0.822
10.6803	0.826
10.7211	0.831
10.762	0.829
10.8028	0.826
10.8436	0.81
10.8844	0.793
10.9252	0.747
10.966	0.691
11.0069	0.599
11.0477	0.548
11.0885	0.516
11.1293	0.545
11.1701	0.589
11.2109	0.645
11.2518	0.696
11.2926	0.724
11.3334	0.752
11.3742	0.771
11.415	0.771
11.4558	0.775
11.4967	0.764
11.5375	0.758
11.5783	0.739
11.6191	0.712
11.6599	0.66
11.7008	0.626
11.7416	0.577
11.7824	0.521
11.8232	0.477
11.864	0.449
11.9048	0.419
11.9457	0.461
11.9865	0.538
12.0273	0.635
12.0681	0.698
12.1089	0.735
12.1497	0.77
12.1906	0.785
12.2314	0.8
12.2722	0.8
12.313	0.81
12.3538	0.822
12.3947	0.829
12.4355	0.838
12.4763	0.841
12.5171	0.846
12.5579	0.853
12.5987	0.85
12.6396	0.839
12.6804	0.838
12.7212	0.834
12.762	0.816
12.8028	0.809
12.8436	0.763
12.8845	0.703
12.9253	0.625
12.9661	0.521
13.0069	0.41
13.0477	0.335
13.0885	0.284
13.1294	0.27
13.1702	0.265
13.211	0.269
13.2518	0.274
13.2926	0.294
13.3335	0.339
13.3743	0.405
13.4151	0.504
13.4559	0.587
13.4967	0.633
13.5375	0.666
13.5784	0.678
13.6192	0.688
13.66	0.681
13.7008	0.664
13.7416	0.643
13.7824	0.603
13.8233	0.568
13.8641	0.524
13.9049	0.511
13.9457	0.522
13.9865	0.551
14.0274	0.551
14.0682	0.55
14.109	0.533
14.1498	0.504
14.1906	0.439
14.2314	0.361
14.2723	0.275
14.3131	0.218
14.3539	0.187
14.3947	0.175
14.4355	0.187
14.4763	0.24
14.5172	0.299
14.558	0.396
14.5988	0.495
14.6396	0.604
14.6804	0.686
14.7213	0.741
14.7621	0.773
14.8029	0.79
14.8437	0.793
14.8845	0.804
14.9253	0.798
14.9662	0.8
15.007	0.783
15.0478	0.752
15.0886	0.708
15.1294	0.689
15.1702	0.73
15.2111	0.766
15.2519	0.788
15.2927	0.798
15.3335	0.807
15.3743	0.804
15.4151	0.805
15.456	0.805
15.4968	0.805
15.5376	0.798
15.5784	0.809
15.6192	0.807
15.6601	0.8
15.7009	0.79
15.7417	0.79
15.7825	0.783
15.8233	0.776
15.8641	0.77
15.905	0.768
15.9458	0.751
15.9866	0.751
