Infrared Spectrum: 9H-PURINE, 6-HYDRAZINO-9-(2-HYDROXYCYCLOHEXYL)-, CIS-
Formula: C11 H16 N6 O
CAS: 116402-75-6
State: SOLID (KBr DISC)
Class: COBLENTZ III
Instrument: PERKIN-ELMER 21 (GRATING)
Instrument parameters: FILTER CHANGE AT ABOUT 1090 CM^-^1.
Sampling: TRANSMISSION
Resolution: 2
Origin: SOUTHERN RESEARCH INSTITUTE
1/CM	TRANSMITTANCE
606.573	0.907
615.684	0.9043
624.794	0.8767
633.905	0.8168
643.015	0.6348
652.126	0.6751
661.237	0.7618
670.347	0.7905
679.458	0.7717
688.569	0.8078
697.679	0.8281
706.79	0.7858
715.9	0.7425
725.011	0.719
734.122	0.7271
743.232	0.7449
752.343	0.754
761.454	0.7194
770.564	0.767
779.675	0.6603
788.785	0.6383
797.896	0.741
807.007	0.8205
816.117	0.7868
825.228	0.7806
834.339	0.764
843.449	0.853
852.56	0.8368
861.67	0.85
870.781	0.861
879.892	0.8561
889.002	0.8329
898.113	0.7754
907.224	0.8055
916.334	0.8207
925.445	0.8387
934.555	0.825
943.666	0.7833
952.777	0.663
961.887	0.6279
970.998	0.7048
980.109	0.6434
989.219	0.7035
998.33	0.6489
1007.44	0.6959
1016.55	0.8325
1025.66	0.8292
1034.77	0.827
1043.88	0.8263
1052.99	0.8124
1062.1	0.7682
1071.21	0.7858
1080.33	0.804
1089.44	0.825
1098.55	0.8265
1107.66	0.8026
1116.77	0.6621
1125.88	0.5444
1134.99	0.714
1144.1	0.6937
1153.21	0.6783
1162.32	0.7943
1171.43	0.7742
1180.54	0.7589
1189.65	0.7371
1198.76	0.647
1207.87	0.6992
1216.98	0.6889
1226.1	0.5817
1235.21	0.4325
1244.32	0.6526
1253.43	0.728
1262.54	0.739
1271.65	0.7611
1280.76	0.7407
1289.87	0.6294
1298.98	0.5004
1308.09	0.4012
1317.2	0.5283
1326.31	0.5845
1335.42	0.5528
1344.53	0.4874
1353.64	0.5684
1362.75	0.6597
1371.87	0.6792
1380.98	0.6459
1390.09	0.668
1399.2	0.6699
1408.31	0.6713
1417.42	0.6583
1426.53	0.691
1435.64	0.6612
1444.75	0.6414
1453.86	0.5549
1462.97	0.5451
1472.08	0.5566
1481.19	0.5653
1490.3	0.6552
1499.41	0.7578
1508.52	0.7708
1517.64	0.7636
1526.75	0.7001
1535.86	0.7269
1544.97	0.7707
1554.08	0.7732
1563.19	0.6809
1572.3	0.5693
1581.41	0.5907
1590.52	0.66
1599.63	0.5548
1608.74	0.4336
1617.85	0.2044
1626.96	0.1806
1636.07	0.3328
1645.18	0.2784
1654.29	0.23
1663.41	0.3925
1672.52	0.6672
1681.63	0.7596
1690.74	0.7867
1699.85	0.8177
1708.96	0.8504
1718.07	0.869
1727.18	0.8805
1736.29	0.8894
1745.4	0.8976
1754.51	0.9023
1763.62	0.91
1772.73	0.9043
1781.84	0.912
1790.95	0.913
1800.06	0.911
1809.18	0.913
1818.29	0.911
1827.4	0.915
1836.51	0.919
1845.62	0.919
1854.73	0.917
1863.84	0.919
1872.95	0.9167
1882.06	0.915
1891.17	0.9096
1900.28	0.903
1909.39	0.9071
1918.5	0.913
1927.61	0.916
1936.72	0.913
1945.83	0.915
1954.95	0.917
1964.06	0.917
1973.17	0.917
1982.28	0.917
1991.39	0.919
2000.5	0.9222
2009.61	0.917
2018.72	0.9178
2027.83	0.919
2036.94	0.917
2046.05	0.917
2055.16	0.917
2064.27	0.917
2073.38	0.916
2082.49	0.916
2091.6	0.916
2100.72	0.915
2109.83	0.913
2118.94	0.911
2128.05	0.911
2137.16	0.911
2146.27	0.9124
2155.38	0.913
2164.49	0.9126
2173.6	0.912
2182.71	0.912
2191.82	0.912
2200.93	0.912
2210.04	0.912
2219.15	0.91
2228.26	0.907
2237.37	0.904
2246.49	0.9064
2255.6	0.9076
2264.71	0.9012
2273.82	0.9
2282.93	0.9
2292.04	0.9
2301.15	0.897
2310.26	0.894
2319.37	0.893
2328.48	0.893
2337.59	0.891
2346.7	0.89
2355.81	0.889
2364.92	0.89
2374.03	0.893
2383.14	0.894
2392.26	0.893
2401.37	0.8906
2410.48	0.889
2419.59	0.885
2428.7	0.883
2437.81	0.883
2446.92	0.882
2456.03	0.878
2465.14	0.8728
2474.25	0.8766
2483.36	0.876
2492.47	0.877
2501.58	0.8752
2510.69	0.868
2519.8	0.868
2528.91	0.873
2538.03	0.8662
2547.14	0.864
2556.25	0.8606
2565.36	0.86
2574.47	0.8516
2583.58	0.848
2592.69	0.846
2601.8	0.8426
2610.91	0.8376
2620.02	0.8369
2629.13	0.83
2638.24	0.8262
2647.35	0.821
2656.46	0.821
2665.57	0.816
2674.68	0.814
2683.8	0.814
2692.91	0.82
2702.02	0.8206
2711.13	0.8036
2720.24	0.7956
2729.35	0.7758
2738.46	0.7932
2747.57	0.7826
2756.68	0.777
2765.79	0.775
2774.9	0.7722
2784.01	0.7646
2793.12	0.7442
2802.23	0.7265
2811.34	0.686
2820.45	0.6292
2829.57	0.5755
2838.68	0.5506
2847.79	0.5757
2856.9	0.601
2866.01	0.5902
2875.12	0.5699
2884.23	0.5535
2893.34	0.5245
2902.45	0.4708
2911.56	0.3113
2920.67	0.3054
2929.78	0.3769
2938.89	0.5254
2948	0.5996
2957.11	0.636
2966.22	0.649
2975.34	0.6466
2984.45	0.6392
2993.56	0.6256
3002.67	0.6055
3011.78	0.5892
3020.89	0.5832
3030	0.5789
3039.11	0.576
3048.22	0.576
3057.33	0.573
3066.44	0.5629
3075.55	0.5516
3084.66	0.5447
3093.77	0.529
3102.88	0.5095
3111.99	0.4761
3121.11	0.4516
3130.22	0.4386
3139.33	0.4162
3148.44	0.3911
3157.55	0.3626
3166.66	0.3351
3175.77	0.3209
3184.88	0.3106
3193.99	0.305
3203.1	0.305
3212.21	0.303
3221.32	0.305
3230.43	0.306
3239.54	0.3104
3248.65	0.3168
3257.76	0.3358
3266.88	0.3605
3275.99	0.3938
3285.1	0.4014
3294.21	0.413
3303.32	0.4328
3312.43	0.4776
3321.54	0.5139
3330.65	0.5405
3339.76	0.5488
3348.87	0.5658
3357.98	0.5724
3367.09	0.578
3376.2	0.584
3385.31	0.5918
3394.42	0.593
3403.53	0.5944
3412.65	0.6029
3421.76	0.6148
3430.87	0.619
3439.98	0.6211
3449.09	0.6318
3458.2	0.638
3467.31	0.6478
3476.42	0.6561
3485.53	0.6648
3494.64	0.6815
3503.75	0.6991
3512.86	0.7211
3521.97	0.7314
3531.08	0.739
3540.19	0.7495
3549.3	0.7664
3558.42	0.7848
3567.53	0.7981
3576.64	0.8074
3585.75	0.8108
3594.86	0.8258
3603.97	0.842
3613.08	0.8464
3622.19	0.851
3631.3	0.855
3640.41	0.8634
3649.52	0.864
3658.63	0.865
3667.74	0.8674
3676.85	0.868
3685.96	0.868
3695.07	0.869
3704.19	0.87
3713.3	0.87
3722.41	0.87
3731.52	0.87
3740.63	0.8686
3749.74	0.869
3758.85	0.8708
3767.96	0.874
3777.07	0.8804
3786.18	0.883
3795.29	0.883
3804.4	0.881
3813.51	0.8759
3822.62	0.8712
3831.73	0.869
3840.84	0.869
3849.96	0.869
3859.07	0.869
3868.18	0.8708
3877.29	0.872
3886.4	0.8696
3895.51	0.867
3904.62	0.8694
3913.73	0.8724
3922.84	0.873
3931.95	0.873
3941.06	0.873
3950.17	0.872
3959.28	0.8686
3968.39	0.87
3977.5	0.872
3986.61	0.873
3995.73	0.873
4004.84	0.87
4013.95	0.8676
4023.06	0.865
