Infrared Spectrum: (2-PENTEN-2-YL) HYDANTOIN
Formula: C8 H12 N2 O2
CAS: 116435-47-3
State: SOLID (KBr PELLET)
Class: COBLENTZ
Instrument: PERKIN-ELMER
Sampling: TRANSMISSION
Resolution: 4
Origin: ABBOTT LABORATORIES - WASHBURN
MICROMETERS	TRANSMITTANCE
2.039	0.79
2.07287	0.792
2.10675	0.792
2.14062	0.795
2.1745	0.8016
2.20837	0.8118
2.24225	0.812
2.27612	0.8131
2.31	0.822
2.34387	0.812
2.37775	0.826
2.41162	0.827
2.4455	0.831
2.47937	0.8238
2.51325	0.829
2.54712	0.829
2.581	0.834
2.61487	0.839
2.64875	0.846
2.68262	0.847
2.7165	0.847
2.75037	0.8463
2.78425	0.832
2.81812	0.8102
2.852	0.773
2.88587	0.7361
2.91975	0.7041
2.95362	0.6792
2.9875	0.6581
3.02137	0.6462
3.05525	0.5832
3.08912	0.4828
3.123	0.317
3.15687	0.2142
3.19075	0.1734
3.22462	0.1799
3.2585	0.1985
3.29237	0.2108
3.32625	0.2351
3.36012	0.3152
3.39399	0.351
3.42787	0.347
3.46174	0.3526
3.49562	0.3999
3.52949	0.4098
3.56337	0.514
3.59724	0.5469
3.63112	0.6195
3.66499	0.65
3.69887	0.653
3.73274	0.6815
3.76662	0.7338
3.80049	0.7545
3.83437	0.7921
3.86824	0.7921
3.90212	0.7939
3.93599	0.807
3.96987	0.809
4.00374	0.805
4.03762	0.807
4.07149	0.812
4.10537	0.812
4.13924	0.8052
4.17312	0.807
4.20699	0.795
4.24087	0.798
4.27474	0.8199
4.30862	0.8358
4.34249	0.8412
4.37637	0.8246
4.41024	0.817
4.44412	0.8188
4.47799	0.814
4.51187	0.81
4.54574	0.8101
4.57962	0.805
4.61349	0.805
4.64737	0.7956
4.68124	0.805
4.71512	0.804
4.74899	0.804
4.78286	0.802
4.81674	0.797
4.85061	0.797
4.88449	0.792
4.91836	0.785
4.95224	0.78
4.98611	0.782
5.01999	0.7918
5.05386	0.795
5.08774	0.7921
5.12161	0.7803
5.15549	0.783
5.18936	0.783
5.22324	0.782
5.25711	0.7788
5.29099	0.7686
5.32486	0.7567
5.35874	0.7436
5.39261	0.7212
5.42649	0.7078
5.46036	0.6694
5.49424	0.6144
5.52811	0.5477
5.56199	0.4364
5.59586	0.1694
5.62974	0.0428
5.66361	0.028
5.69749	0.1311
5.73136	0.2212
5.76524	0.1789
5.79911	0.0547
5.83299	0.0295
5.86686	0.1285
5.90074	0.3431
5.93461	0.465
5.96849	0.2064
6.00236	0.0415
6.03624	0.0669
6.07011	0.2281
6.10398	0.3678
6.13786	0.4578
6.17173	0.5183
6.20561	0.5573
6.23948	0.5852
6.27336	0.5998
6.30723	0.616
6.34111	0.633
6.37498	0.645
6.40886	0.6429
6.44273	0.65
6.47661	0.65
6.51048	0.6616
6.54436	0.6695
6.57823	0.6793
6.61211	0.692
6.64598	0.6915
6.67986	0.697
6.71373	0.697
6.74761	0.6835
6.78148	0.6504
6.81536	0.5672
6.84923	0.5141
6.88311	0.493
6.91698	0.5022
6.95086	0.5307
6.98473	0.556
7.01861	0.5464
7.05248	0.4705
7.08636	0.2915
7.12023	0.1969
7.15411	0.1771
7.18798	0.1553
7.22186	0.1907
7.25573	0.2422
7.28961	0.2125
7.32348	0.1913
7.35736	0.3119
7.39123	0.4083
7.4251	0.4687
7.45898	0.376
7.49285	0.3842
7.52673	0.4737
7.5606	0.455
7.59448	0.3575
7.62835	0.2914
7.66223	0.3063
7.6961	0.3511
7.72998	0.4298
7.76385	0.5159
7.79773	0.5672
7.8316	0.5972
7.86548	0.621
7.89935	0.642
7.93323	0.6646
7.9671	0.6604
8.00098	0.636
8.03485	0.6666
8.06873	0.6366
8.1026	0.5206
8.13648	0.561
8.17035	0.6423
8.20423	0.6725
8.2381	0.6619
8.27198	0.5984
8.30585	0.4541
8.33973	0.3625
8.3736	0.4423
8.40748	0.5923
8.44135	0.6262
8.47523	0.6721
8.5091	0.6902
8.54298	0.69
8.57685	0.6687
8.61073	0.5098
8.6446	0.4361
8.67848	0.5535
8.71235	0.6492
8.74622	0.6875
8.7801	0.7096
8.81397	0.7166
8.84785	0.7202
8.88172	0.726
8.9156	0.7268
8.94947	0.72
8.98335	0.7102
9.01722	0.6639
9.0511	0.5689
9.08497	0.4391
9.11885	0.5306
9.15272	0.6328
9.1866	0.6781
9.22047	0.7092
9.25435	0.7161
9.28822	0.7141
9.3221	0.7275
9.35597	0.7436
9.38985	0.7478
9.42372	0.7497
9.4576	0.748
9.49147	0.753
9.52535	0.7433
9.55922	0.7368
9.5931	0.7255
9.62697	0.7012
9.66085	0.6715
9.69472	0.6303
9.7286	0.5415
9.76247	0.5011
9.79635	0.5364
9.83022	0.5745
9.8641	0.579
9.89797	0.5851
9.93185	0.6271
9.96572	0.6734
9.9996	0.7118
10.0335	0.7432
10.0673	0.7509
10.1012	0.76
10.1351	0.766
10.169	0.7724
10.2028	0.7777
10.2367	0.7813
10.2706	0.78
10.3045	0.78
10.3383	0.78
10.3722	0.78
10.4061	0.783
10.44	0.7826
10.4738	0.782
10.5077	0.7828
10.5416	0.7795
10.5755	0.77
10.6093	0.7646
10.6432	0.7544
10.6771	0.7379
10.711	0.6901
10.7448	0.6769
10.7787	0.7107
10.8126	0.7406
10.8465	0.7647
10.8803	0.773
10.9142	0.7814
10.9481	0.7827
10.982	0.7827
11.0158	0.783
11.0497	0.783
11.0836	0.785
11.1175	0.785
11.1513	0.7812
11.1852	0.778
11.2191	0.777
11.253	0.777
11.2868	0.7704
11.3207	0.763
11.3546	0.7526
11.3885	0.7389
11.4223	0.726
11.4562	0.729
11.4901	0.7409
11.524	0.7499
11.5578	0.7528
11.5917	0.7558
11.6256	0.758
11.6595	0.756
11.6933	0.7453
11.7272	0.7385
11.7611	0.722
11.795	0.725
11.8288	0.733
11.8627	0.7271
11.8966	0.7202
11.9305	0.7167
11.9643	0.7068
11.9982	0.6965
12.0321	0.691
12.066	0.6769
12.0998	0.6599
12.1337	0.646
12.1676	0.631
12.2015	0.606
12.2353	0.5813
12.2692	0.5579
12.3031	0.5247
12.337	0.4862
12.3708	0.4481
12.4047	0.3899
12.4386	0.3399
12.4725	0.3011
12.5063	0.2875
12.5402	0.3037
12.5741	0.3384
12.608	0.362
12.6418	0.3936
12.6757	0.418
12.7096	0.4495
12.7435	0.4711
12.7773	0.4893
12.8112	0.4908
12.8451	0.4437
12.879	0.2988
12.9128	0.2779
12.9467	0.4256
12.9806	0.478
13.0145	0.4632
13.0483	0.4254
13.0822	0.4607
13.1161	0.5321
13.15	0.5796
13.1838	0.6125
13.2177	0.619
13.2516	0.605
13.2855	0.5593
13.3193	0.4936
13.3532	0.3885
13.3871	0.2978
13.421	0.2575
13.4548	0.2586
13.4887	0.2944
13.5226	0.3421
13.5565	0.3892
13.5903	0.4203
13.6242	0.4488
13.6581	0.4657
13.692	0.474
13.7258	0.4757
13.7597	0.483
13.7936	0.4864
13.8275	0.481
13.8613	0.4714
13.8952	0.4571
13.9291	0.445
13.963	0.4322
13.9968	0.4226
14.0307	0.4062
14.0646	0.3949
14.0985	0.386
14.1323	0.3753
14.1662	0.381
14.2001	0.3851
14.234	0.39
14.2678	0.3984
14.3017	0.4168
14.3356	0.4299
14.3695	0.4438
14.4033	0.4651
14.4372	0.4806
14.4711	0.4888
14.505	0.5107
14.5388	0.5193
14.5727	0.5293
14.6066	0.535
14.6405	0.5375
14.6743	0.5298
14.7082	0.5308
14.7421	0.5474
14.776	0.5681
14.8098	0.5835
14.8437	0.5949
14.8776	0.608
14.9115	0.611
14.9453	0.608
14.9792	0.6251
15.0131	0.635
15.047	0.6193
15.0808	0.6064
15.1147	0.5849
15.1486	0.5479
15.1825	0.4951
15.2163	0.4067
15.2502	0.3011
15.2841	0.247
15.318	0.2229
15.3518	0.2744
15.3857	0.3484
15.4196	0.4204
