Infrared Spectrum: Androstane-17Beta-carboxylic acid,5Alpha,6Beta-dichloro-3-hydroxy-, acetate
Formula: C22 H32 Cl2 O4
CAS: 116405-12-0
State: SOLID (KBr DISC)
Melting point: 214 C
Class: COBLENTZ III
Instrument: PERKIN-ELMER 21 (GRATING)
Instrument parameters: FILTER AT ABOUT 10 MICRONS
Resolution: 2
Origin: ABBOTT LABORATORIES
1/CM	TRANSMITTANCE
668	0.6429
677	0.6863
686	0.7636
695	0.7972
704	0.7543
713	0.7641
722	0.7383
731	0.6721
740	0.7406
749	0.8136
758	0.7872
767	0.7779
776	0.7759
785	0.7712
794	0.7589
803	0.7497
812	0.7566
821	0.759
830	0.7341
839	0.756
848	0.7596
857	0.7703
866	0.7603
875	0.7062
884	0.6913
893	0.7179
902	0.6757
911	0.5293
920	0.6392
929	0.6185
938	0.5924
947	0.5137
956	0.493
965	0.4298
974	0.5813
983	0.6162
992	0.623
1001	0.5919
1010	0.5137
1019	0.3504
1028	0.2249
1037	0.3919
1046	0.5422
1055	0.5261
1064	0.6257
1073	0.6654
1082	0.5343
1091	0.6757
1100	0.7131
1109	0.66
1118	0.5773
1127	0.5726
1136	0.575
1145	0.5113
1154	0.4636
1163	0.525
1172	0.5818
1181	0.5191
1190	0.4743
1199	0.4548
1208	0.336
1217	0.1919
1226	0.0645
1235	0.0474
1244	0.0902
1253	0.1713
1262	0.2661
1271	0.33
1280	0.3942
1289	0.4303
1298	0.4499
1307	0.5179
1316	0.5999
1325	0.5962
1334	0.5739
1343	0.5648
1352	0.4366
1361	0.3106
1370	0.3936
1379	0.3574
1388	0.4599
1397	0.5377
1406	0.5249
1415	0.48
1424	0.4107
1433	0.3813
1442	0.4635
1451	0.4783
1460	0.4985
1469	0.504
1478	0.6083
1487	0.7561
1496	0.7751
1505	0.7868
1514	0.7949
1523	0.7978
1532	0.797
1541	0.7966
1550	0.7961
1559	0.7966
1568	0.7969
1577	0.7957
1586	0.7893
1595	0.7767
1604	0.7625
1613	0.7441
1622	0.7239
1631	0.6989
1640	0.673
1649	0.6441
1658	0.6142
1667	0.5671
1676	0.4728
1685	0.2173
1694	0.1038
1703	0.1236
1712	0.1823
1721	0.1889
1730	0.0892
1739	0.0708
1748	0.1835
1757	0.4583
1766	0.5926
1775	0.6522
1784	0.6909
1793	0.7127
1802	0.7316
1811	0.7471
1820	0.7583
1829	0.7673
1838	0.7744
1847	0.7803
1856	0.7843
1865	0.7875
1874	0.7903
1883	0.7928
1892	0.7948
1901	0.7963
1910	0.7977
1919	0.7995
1928	0.8055
1937	0.8073
1946	0.8067
1955	0.8054
1964	0.8069
1973	0.8104
1982	0.8151
1991	0.8185
2000	0.8207
2009	0.8218
2018	0.8223
2027	0.8228
2036	0.8235
2045	0.8235
2054	0.8232
2063	0.8218
2072	0.8197
2081	0.8171
2090	0.8164
2099	0.8157
2108	0.8156
2117	0.8157
2126	0.8158
2135	0.8156
2144	0.8154
2153	0.8151
2162	0.8147
2171	0.8144
2180	0.814
2189	0.8137
2198	0.8134
2207	0.8125
2216	0.8115
2225	0.8097
2234	0.8073
2243	0.8048
2252	0.8017
2261	0.7987
2270	0.7954
2279	0.7914
2288	0.7878
2297	0.7856
2306	0.7836
2315	0.784
2324	0.7844
2333	0.7853
2342	0.7846
2351	0.7821
2360	0.7792
2369	0.7758
2378	0.7718
2387	0.7674
2396	0.7628
2405	0.7582
2414	0.7524
2423	0.7456
2432	0.7379
2441	0.7293
2450	0.7196
2459	0.7131
2468	0.7105
2477	0.7081
2486	0.7023
2495	0.6898
2504	0.6768
2513	0.6646
2522	0.6531
2531	0.6433
2540	0.6367
2549	0.6349
2558	0.6348
2567	0.6353
2576	0.6322
2585	0.6284
2594	0.6247
2603	0.6211
2612	0.6167
2621	0.613
2630	0.6103
2639	0.6084
2648	0.6079
2657	0.6095
2666	0.6125
2675	0.6138
2684	0.6139
2693	0.6131
2702	0.6117
2711	0.6104
2720	0.6092
2729	0.6076
2738	0.6058
2747	0.6035
2756	0.5991
2765	0.5924
2774	0.5841
2783	0.5713
2792	0.5551
2801	0.5376
2810	0.4945
2819	0.4509
2828	0.4076
2837	0.3689
2846	0.3539
2855	0.3362
2864	0.3229
2873	0.3129
2882	0.2986
2891	0.2713
2900	0.2441
2909	0.217
2918	0.19
2927	0.1683
2936	0.1582
2945	0.1542
2954	0.1542
2963	0.1923
2972	0.2622
2981	0.3291
2990	0.3571
2999	0.3713
3008	0.3867
3017	0.4158
3026	0.4669
3035	0.4813
3044	0.485
3053	0.4874
3062	0.49
3071	0.4927
3080	0.4963
3089	0.501
3098	0.5063
3107	0.5117
3116	0.5172
3125	0.5233
3134	0.5294
3143	0.5351
3152	0.5409
3161	0.5486
3170	0.5579
3179	0.5684
3188	0.5777
3197	0.5852
3206	0.5911
3215	0.5966
3224	0.6001
3233	0.6034
3242	0.6068
3251	0.61
3260	0.613
3269	0.6162
3278	0.6192
3287	0.6222
3296	0.6252
3305	0.6281
3314	0.6311
3323	0.6334
3332	0.6355
3341	0.6377
3350	0.6399
3359	0.6421
3368	0.6442
3377	0.6463
3386	0.6484
3395	0.6505
3404	0.6526
3413	0.6551
3422	0.6588
3431	0.6658
3440	0.677
3449	0.6859
3458	0.6964
3467	0.7074
3476	0.7182
3485	0.7259
3494	0.7333
3503	0.7406
3512	0.7472
3521	0.7537
3530	0.76
3539	0.7656
3548	0.7708
3557	0.776
3566	0.781
3575	0.7854
3584	0.7898
3593	0.7941
3602	0.7975
3611	0.8005
3620	0.8035
3629	0.8057
3638	0.807
3647	0.8075
3656	0.8076
3665	0.8077
3674	0.8076
3683	0.8075
3692	0.8073
3701	0.8068
3710	0.8064
3719	0.8059
3728	0.8056
3737	0.8052
3746	0.8049
3755	0.8046
3764	0.8042
3773	0.8038
3782	0.8034
3791	0.803
3800	0.8026
3809	0.8022
3818	0.8018
3827	0.8014
3836	0.801
3845	0.8006
3854	0.8001
3863	0.7996
3872	0.7991
3881	0.7986
3890	0.798
3899	0.7974
3908	0.7968
3917	0.7962
3926	0.7957
3935	0.7951
3944	0.7945
3953	0.7939
3962	0.7933
3971	0.7928
3980	0.7923
3989	0.7917
3998	0.7913
