Infrared Spectrum: BENZOPHENONE, 5-HEPTYL-2,4-DIHYDROXY-
Formula: C20 H24 O3
CAS: 116495-91-1
State: SOLID (OIL MULL)
Class: COBLENTZ
Instrument: Not specified, most likely a prism, grating, or hybrid spectrometer.
Sampling: TRANSMISSION
Resolution: 4
Origin: TENNESSEE EASTMAN COMPANY, RESEARCH LABORATORIES
MICROMETERS	TRANSMITTANCE
2.034	0.361
2.07514	0.366
2.11629	0.373
2.15743	0.388
2.19857	0.397
2.23971	0.398
2.28086	0.398
2.322	0.398
2.36314	0.4
2.40429	0.416
2.44543	0.419
2.48657	0.436
2.52771	0.44
2.56886	0.446
2.61	0.45
2.65114	0.467
2.69229	0.482
2.73343	0.5
2.77457	0.518
2.81571	0.532
2.85686	0.541
2.898	0.488
2.93914	0.361
2.98029	0.292
3.02143	0.342
3.06257	0.369
3.10371	0.381
3.14486	0.381
3.186	0.398
3.22714	0.416
3.26829	0.397
3.30943	0.345
3.35057	0.08
3.39171	0.035
3.43286	0.034
3.474	0.051
3.51514	0.246
3.55629	0.45
3.59743	0.511
3.63857	0.513
3.67971	0.511
3.72086	0.515
3.762	0.515
3.80314	0.525
3.84429	0.539
3.88543	0.551
3.92657	0.565
3.96771	0.58
4.00886	0.599
4.05	0.607
4.09114	0.613
4.13229	0.625
4.17343	0.628
4.21457	0.633
4.25571	0.635
4.29686	0.631
4.338	0.64
4.37914	0.666
4.42029	0.672
4.46143	0.683
4.50257	0.69
4.54371	0.7
4.58486	0.7
4.626	0.71
4.66714	0.719
4.70829	0.722
4.74943	0.731
4.79057	0.743
4.83171	0.748
4.87286	0.751
4.914	0.753
4.95514	0.755
4.99629	0.761
5.03743	0.761
5.07857	0.761
5.11971	0.772
5.16086	0.779
5.202	0.777
5.24314	0.787
5.28429	0.797
5.32543	0.806
5.36657	0.811
5.40771	0.82
5.44886	0.827
5.49	0.83
5.53114	0.832
5.57229	0.839
5.61343	0.849
5.65457	0.851
5.69571	0.851
5.73686	0.861
5.778	0.885
5.81914	0.89
5.86029	0.89
5.90143	0.892
5.94257	0.89
5.98371	0.868
6.02486	0.815
6.066	0.65
6.10714	0.349
6.14829	0.135
6.18943	0.164
6.23057	0.133
6.27171	0.157
6.31286	0.344
6.354	0.357
6.39514	0.431
6.43629	0.518
6.47743	0.544
6.51857	0.556
6.55971	0.508
6.60086	0.412
6.642	0.375
6.68314	0.412
6.72429	0.453
6.76543	0.325
6.80657	0.184
6.84771	0.198
6.88886	0.248
6.93	0.416
6.97114	0.522
7.01229	0.511
7.05343	0.636
7.09457	0.667
7.13571	0.631
7.17686	0.491
7.218	0.279
7.25914	0.203
7.30029	0.25
7.34143	0.27
7.38257	0.265
7.42371	0.21
7.46486	0.196
7.506	0.183
7.54714	0.28
7.58829	0.38
7.62943	0.46
7.67057	0.337
7.71171	0.27
7.75286	0.217
7.794	0.15
7.83514	0.207
7.87629	0.258
7.91743	0.285
7.95857	0.196
7.99971	0.181
8.04086	0.22
8.082	0.311
8.12314	0.366
8.16429	0.349
8.20543	0.363
8.24657	0.434
8.28771	0.486
8.32886	0.513
8.37	0.476
8.41114	0.351
8.45229	0.301
8.49343	0.299
8.53457	0.371
8.57571	0.457
8.61686	0.511
8.658	0.565
8.69914	0.618
8.74029	0.659
8.78143	0.662
8.82257	0.583
8.86371	0.34
8.90486	0.22
8.946	0.232
8.98714	0.294
9.02829	0.438
9.06943	0.523
9.11057	0.568
9.15171	0.595
9.19286	0.618
9.234	0.625
9.27514	0.601
9.31629	0.601
9.35743	0.648
9.39857	0.672
9.43971	0.683
9.48086	0.696
9.522	0.703
9.56314	0.703
9.60429	0.703
9.64543	0.705
9.68657	0.678
9.72771	0.664
9.76886	0.696
9.81	0.708
9.85114	0.724
9.89229	0.732
9.93343	0.743
9.97457	0.727
10.0157	0.726
10.0569	0.734
10.098	0.739
10.1391	0.739
10.1803	0.727
10.2214	0.727
10.2626	0.727
10.3037	0.732
10.3449	0.753
10.386	0.758
10.4271	0.763
10.4683	0.767
10.5094	0.768
10.5506	0.768
10.5917	0.705
10.6329	0.477
10.674	0.397
10.7151	0.568
10.7563	0.655
10.7974	0.695
10.8386	0.657
10.8797	0.577
10.9209	0.597
10.962	0.647
11.0031	0.638
11.0443	0.659
11.0854	0.714
11.1266	0.717
11.1677	0.712
11.2089	0.702
11.25	0.712
11.2911	0.732
11.3323	0.756
11.3734	0.761
11.4146	0.767
11.4557	0.765
11.4969	0.76
11.538	0.719
11.5791	0.698
11.6203	0.667
11.6614	0.609
11.7026	0.582
11.7437	0.601
11.7849	0.618
11.826	0.652
11.8671	0.688
11.9083	0.686
11.9494	0.638
11.9906	0.573
12.0317	0.577
12.0729	0.648
12.114	0.681
12.1551	0.702
12.1963	0.707
12.2374	0.71
12.2786	0.708
12.3197	0.708
12.3609	0.705
12.402	0.69
12.4431	0.678
12.4843	0.674
12.5254	0.678
12.5666	0.679
12.6077	0.679
12.6489	0.671
12.69	0.65
12.7311	0.626
12.7723	0.623
12.8134	0.623
12.8546	0.623
12.8957	0.623
12.9369	0.623
12.978	0.616
13.0191	0.604
13.0603	0.592
13.1014	0.58
13.1426	0.563
13.1837	0.547
13.2249	0.527
13.266	0.523
13.3071	0.546
13.3483	0.571
13.3894	0.58
13.4306	0.582
13.4717	0.582
13.5129	0.58
13.554	0.58
13.5951	0.582
13.6363	0.583
13.6774	0.59
13.7186	0.59
13.7597	0.58
13.8009	0.568
13.842	0.575
13.8831	0.599
13.9243	0.616
13.9654	0.621
14.0066	0.625
14.0477	0.623
14.0889	0.601
14.13	0.535
14.1711	0.438
14.2123	0.328
14.2534	0.277
14.2946	0.282
14.3357	0.397
14.3769	0.452
14.418	0.515
14.4591	0.527
14.5003	0.527
14.5414	0.522
14.5826	0.522
14.6237	0.525
14.6649	0.542
14.706	0.549
14.7471	0.553
14.7883	0.553
14.8294	0.553
14.8706	0.547
14.9117	0.539
14.9529	0.537
14.994	0.546
15.0351	0.556
15.0763	0.556
15.1174	0.554
15.1586	0.551
15.1997	0.546
15.2409	0.537
15.282	0.534
15.3231	0.525
15.3643	0.518
15.4054	0.511
15.4466	0.506
15.4877	0.5
15.5289	0.493
15.57	0.481
15.6111	0.464
15.6523	0.438
15.6934	0.434
15.7346	0.429
15.7757	0.424
15.8169	0.416
15.858	0.398
15.8991	0.392
15.9403	0.388
15.9814	0.386
