Infrared Spectrum: Alpha-PHENYL-Beta-DIMETHYLAMINO ETHYL LAURATE HYDROCHLORIDE
Formula: C22 H38 Cl N O2
CAS: 116401-31-1
State: SOLID (MINERAL OIL MULL)
Class: COBLENTZ
Instrument: Not specified, most likely a prism, grating, or hybrid spectrometer.
Sampling: TRANSMISSION
Resolution: 4
Origin: DOW CHEMICAL COMPANY
MICROMETERS	TRANSMITTANCE
2.041	0.864
2.08214	0.864
2.12327	0.864
2.16441	0.864
2.20555	0.857
2.24669	0.828
2.28782	0.821
2.32896	0.828
2.3701	0.832
2.41123	0.835
2.45237	0.854
2.49351	0.873
2.53464	0.883
2.57578	0.888
2.61692	0.886
2.65806	0.895
2.69919	0.895
2.74033	0.892
2.78147	0.89
2.8226	0.883
2.86374	0.864
2.90488	0.861
2.94602	0.866
2.98715	0.864
3.02829	0.868
3.06943	0.868
3.11056	0.859
3.1517	0.849
3.19284	0.835
3.23398	0.775
3.27511	0.717
3.31625	0.626
3.35739	0.16
3.39852	0.032
3.43966	0.087
3.4808	0.114
3.52193	0.465
3.56307	0.602
3.60421	0.64
3.64535	0.599
3.68648	0.554
3.72762	0.438
3.76876	0.345
3.80989	0.297
3.85103	0.337
3.89217	0.421
3.93331	0.452
3.97444	0.45
4.01558	0.41
4.05672	0.532
4.09785	0.609
4.13899	0.7
4.18013	0.753
4.22126	0.787
4.2624	0.825
4.30354	0.851
4.34468	0.871
4.38581	0.89
4.42695	0.904
4.46809	0.914
4.50922	0.917
4.55036	0.921
4.5915	0.929
4.63264	0.936
4.67377	0.933
4.71491	0.933
4.75605	0.941
4.79718	0.945
4.83832	0.945
4.87946	0.957
4.9206	0.952
4.96173	0.952
5.00287	0.96
5.04401	0.96
5.08514	0.948
5.12628	0.952
5.16742	0.964
5.20855	0.958
5.24969	0.948
5.29083	0.938
5.33197	0.941
5.3731	0.962
5.41424	0.958
5.45538	0.955
5.49651	0.943
5.53765	0.924
5.57879	0.919
5.61993	0.898
5.66106	0.791
5.7022	0.448
5.74334	0.2
5.78447	0.837
5.82561	0.849
5.86675	0.859
5.90789	0.876
5.94902	0.897
5.99016	0.892
6.0313	0.89
6.07243	0.898
6.11357	0.897
6.15471	0.878
6.19584	0.857
6.23698	0.845
6.27812	0.83
6.31926	0.875
6.36039	0.893
6.40153	0.9
6.44267	0.9
6.4838	0.876
6.52494	0.861
6.56608	0.852
6.60722	0.825
6.64835	0.707
6.68949	0.714
6.73063	0.503
6.77176	0.19
6.8129	0.207
6.85404	0.357
6.89517	0.496
6.93631	0.558
6.97745	0.601
7.01859	0.431
7.05972	0.402
7.10086	0.376
7.142	0.32
7.18313	0.428
7.22427	0.407
7.26541	0.52
7.30655	0.602
7.34768	0.613
7.38882	0.679
7.42996	0.708
7.47109	0.679
7.51223	0.746
7.55337	0.792
7.59451	0.777
7.63564	0.717
7.67678	0.672
7.71792	0.775
7.75905	0.804
7.80019	0.768
7.84133	0.705
7.88246	0.715
7.9236	0.83
7.96474	0.835
8.00588	0.784
8.04701	0.65
8.08815	0.705
8.12929	0.806
8.17042	0.761
8.21156	0.621
8.2527	0.59
8.29384	0.636
8.33497	0.773
8.37611	0.792
8.41725	0.748
8.45838	0.681
8.49952	0.506
8.54066	0.301
8.58179	0.226
8.62293	0.167
8.66407	0.089
8.70521	0.106
8.74634	0.292
8.78748	0.486
8.82862	0.607
8.86975	0.628
8.91089	0.636
8.95203	0.669
8.99317	0.705
9.0343	0.75
9.07544	0.76
9.11658	0.672
9.15771	0.563
9.19885	0.585
9.23999	0.65
9.28113	0.645
9.32226	0.667
9.3634	0.775
9.40454	0.792
9.44567	0.804
9.48681	0.84
9.52795	0.842
9.56908	0.816
9.61022	0.736
9.65136	0.702
9.6925	0.726
9.73363	0.744
9.77477	0.686
9.81591	0.702
9.85704	0.768
9.89818	0.681
9.93932	0.643
9.98046	0.717
10.0216	0.808
10.0627	0.832
10.1039	0.861
10.145	0.871
10.1861	0.861
10.2273	0.837
10.2684	0.813
10.3096	0.738
10.3507	0.708
10.3918	0.82
10.433	0.868
10.4741	0.881
10.5152	0.881
10.5564	0.847
10.5975	0.746
10.6386	0.573
10.6798	0.57
10.7209	0.746
10.7621	0.828
10.8032	0.856
10.8443	0.871
10.8855	0.875
10.9266	0.849
10.9677	0.842
11.0089	0.881
11.05	0.89
11.0912	0.907
11.1323	0.91
11.1734	0.904
11.2146	0.892
11.2557	0.88
11.2968	0.869
11.338	0.863
11.3791	0.832
11.4203	0.734
11.4614	0.602
11.5025	0.546
11.5437	0.621
11.5848	0.75
11.6259	0.83
11.6671	0.861
11.7082	0.883
11.7493	0.9
11.7905	0.912
11.8316	0.914
11.8728	0.914
11.9139	0.917
11.955	0.926
11.9962	0.934
12.0373	0.936
12.0784	0.931
12.1196	0.929
12.1607	0.924
12.2019	0.912
12.243	0.916
12.2841	0.922
12.3253	0.931
12.3664	0.934
12.4075	0.934
12.4487	0.934
12.4898	0.931
12.531	0.928
12.5721	0.924
12.6132	0.922
12.6544	0.917
12.6955	0.902
12.7366	0.909
12.7778	0.893
12.8189	0.863
12.8601	0.849
12.9012	0.852
12.9423	0.873
12.9835	0.876
13.0246	0.868
13.0657	0.832
13.1069	0.765
13.148	0.633
13.1891	0.51
13.2303	0.513
13.2714	0.66
13.3126	0.751
13.3537	0.791
13.3948	0.803
13.436	0.82
13.4771	0.82
13.5182	0.815
13.5594	0.809
13.6005	0.801
13.6417	0.784
13.6828	0.756
13.7239	0.732
13.7651	0.724
13.8062	0.693
13.8473	0.628
13.8885	0.59
13.9296	0.609
13.9708	0.679
14.0119	0.715
14.053	0.732
14.0942	0.736
14.1353	0.717
14.1764	0.681
14.2176	0.614
14.2587	0.529
14.2998	0.407
14.341	0.316
14.3821	0.327
14.4233	0.443
14.4644	0.568
14.5055	0.647
14.5467	0.672
14.5878	0.688
14.6289	0.69
14.6701	0.69
14.7112	0.683
14.7524	0.676
14.7935	0.666
14.8346	0.657
14.8758	0.65
14.9169	0.64
14.958	0.635
14.9992	0.631
15.0403	0.625
15.0815	0.618
15.1226	0.614
15.1637	0.606
15.2049	0.595
15.246	0.589
15.2871	0.585
15.3283	0.575
15.3694	0.563
15.4105	0.559
15.4517	0.553
15.4928	0.547
15.534	0.532
15.5751	0.513
15.6162	0.501
15.6574	0.489
15.6985	0.477
15.7396	0.472
15.7808	0.46
15.8219	0.44
15.8631	0.434
15.9042	0.433
15.9453	0.445
