Infrared Spectrum: BENZOPHENONE, 2,4,4'-TRIHYDROXY-4'-LAURATE
Formula: C25 H32 O5
CAS: 116495-93-3
State: SOLID (KBr PELLET)
Class: COBLENTZ
Instrument: Not specified, most likely a prism, grating, or hybrid spectrometer.
Sampling: TRANSMISSION
Resolution: 4
Origin: TENNESSEE EASTMAN COMPANY, RESEARCH LABORATORIES
MICROMETERS	TRANSMITTANCE
2	0.603
2.0411	0.594
2.08219	0.585
2.12329	0.584
2.16439	0.584
2.20549	0.579
2.24658	0.577
2.28768	0.577
2.32878	0.577
2.36987	0.575
2.41097	0.577
2.45207	0.577
2.49316	0.579
2.53426	0.582
2.57536	0.582
2.61646	0.589
2.65755	0.591
2.69865	0.592
2.73975	0.585
2.78084	0.563
2.82194	0.542
2.86304	0.524
2.90414	0.518
2.94523	0.518
2.98633	0.537
3.02743	0.554
3.06852	0.565
3.10962	0.57
3.15072	0.58
3.19181	0.585
3.23291	0.589
3.27401	0.582
3.31511	0.587
3.3562	0.386
3.3973	0.278
3.4384	0.463
3.47949	0.475
3.52059	0.64
3.56169	0.676
3.60279	0.692
3.64388	0.699
3.68498	0.706
3.72608	0.713
3.76717	0.721
3.80827	0.726
3.84937	0.733
3.89046	0.743
3.93156	0.759
3.97266	0.768
4.01376	0.78
4.05485	0.788
4.09595	0.797
4.13705	0.8
4.17814	0.8
4.21924	0.8
4.26034	0.8
4.30144	0.805
4.34253	0.831
4.38363	0.838
4.42473	0.845
4.46582	0.85
4.50692	0.853
4.54802	0.862
4.58911	0.867
4.63021	0.876
4.67131	0.881
4.71241	0.884
4.7535	0.888
4.7946	0.893
4.8357	0.898
4.87679	0.9
4.91789	0.9
4.95899	0.903
5.00009	0.914
5.04118	0.912
5.08228	0.914
5.12338	0.919
5.16447	0.92
5.20557	0.92
5.24667	0.922
5.28776	0.926
5.32886	0.927
5.36996	0.931
5.41106	0.931
5.45215	0.931
5.49325	0.919
5.53435	0.905
5.57544	0.823
5.61654	0.561
5.65764	0.489
5.69874	0.687
5.73983	0.743
5.78093	0.793
5.82203	0.761
5.86312	0.769
5.90422	0.855
5.94532	0.872
5.98641	0.848
6.02751	0.807
6.06861	0.649
6.10971	0.266
6.1508	0.216
6.1919	0.316
6.233	0.343
6.27409	0.482
6.31519	0.5
6.35629	0.692
6.39739	0.749
6.43848	0.785
6.47958	0.786
6.52068	0.783
6.56177	0.737
6.60287	0.668
6.64397	0.599
6.68507	0.652
6.72616	0.733
6.76726	0.673
6.80836	0.651
6.84945	0.67
6.89055	0.621
6.93165	0.73
6.97274	0.738
7.01384	0.689
7.05494	0.69
7.09604	0.776
7.13713	0.793
7.17823	0.778
7.21933	0.713
7.26042	0.683
7.30152	0.661
7.34262	0.599
7.38372	0.544
7.42481	0.506
7.46591	0.408
7.50701	0.453
7.5481	0.561
7.5892	0.62
7.6303	0.656
7.67139	0.608
7.71249	0.594
7.75359	0.615
7.79469	0.603
7.83578	0.573
7.87688	0.551
7.91798	0.469
7.95907	0.271
8.00017	0.197
8.04127	0.328
8.08237	0.453
8.12346	0.443
8.16456	0.431
8.20566	0.493
8.24675	0.539
8.28785	0.573
8.32895	0.584
8.37004	0.592
8.41114	0.567
8.45224	0.52
8.49334	0.506
8.53443	0.482
8.57553	0.501
8.61663	0.503
8.65772	0.338
8.69882	0.25
8.73992	0.304
8.78102	0.328
8.82211	0.367
8.86321	0.376
8.90431	0.293
8.9454	0.242
8.9865	0.312
9.0276	0.398
9.06869	0.453
9.10979	0.541
9.15089	0.64
9.19199	0.69
9.23308	0.701
9.27418	0.713
9.31528	0.749
9.35637	0.776
9.39747	0.797
9.43857	0.812
9.47967	0.826
9.52076	0.84
9.56186	0.847
9.60296	0.859
9.64405	0.86
9.68515	0.853
9.72625	0.86
9.76734	0.867
9.80844	0.878
9.84954	0.883
9.89064	0.886
9.93173	0.855
9.97283	0.829
10.0139	0.835
10.055	0.797
10.0961	0.697
10.1372	0.594
10.1783	0.572
10.2194	0.683
10.2605	0.793
10.3016	0.848
10.3427	0.874
10.3838	0.89
10.4249	0.893
10.466	0.895
10.5071	0.898
10.5482	0.896
10.5893	0.879
10.6304	0.821
10.6715	0.78
10.7126	0.786
10.7537	0.817
10.7948	0.824
10.8359	0.81
10.877	0.781
10.9181	0.756
10.9592	0.737
11.0003	0.735
11.0414	0.747
11.0825	0.764
11.1235	0.78
11.1646	0.795
11.2057	0.816
11.2468	0.836
11.2879	0.853
11.329	0.869
11.3701	0.883
11.4112	0.888
11.4523	0.886
11.4934	0.884
11.5345	0.876
11.5756	0.853
11.6167	0.85
11.6578	0.85
11.6989	0.852
11.74	0.859
11.7811	0.869
11.8222	0.89
11.8633	0.898
11.9044	0.902
11.9455	0.902
11.9866	0.902
12.0277	0.898
12.0688	0.891
12.1099	0.888
12.151	0.881
12.1921	0.878
12.2332	0.857
12.2743	0.852
12.3154	0.838
12.3565	0.823
12.3976	0.809
12.4387	0.795
12.4798	0.783
12.5208	0.774
12.5619	0.783
12.603	0.802
12.6441	0.807
12.6852	0.81
12.7263	0.807
12.7674	0.805
12.8085	0.795
12.8496	0.79
12.8907	0.783
12.9318	0.783
12.9729	0.785
13.014	0.788
13.0551	0.792
13.0962	0.793
13.1373	0.793
13.1784	0.793
13.2195	0.79
13.2606	0.792
13.3017	0.797
13.3428	0.814
13.3839	0.84
13.425	0.86
13.4661	0.891
13.5072	0.905
13.5483	0.912
13.5894	0.914
13.6305	0.915
13.6716	0.915
13.7127	0.915
13.7538	0.915
13.7949	0.912
13.836	0.912
13.8771	0.912
13.9181	0.914
13.9592	0.912
14.0003	0.89
14.0414	0.845
14.0825	0.786
14.1236	0.719
14.1647	0.658
14.2058	0.604
14.2469	0.56
14.288	0.534
14.3291	0.539
14.3702	0.644
14.4113	0.752
14.4524	0.831
14.4935	0.874
14.5346	0.905
14.5757	0.915
14.6168	0.924
14.6579	0.929
14.699	0.934
14.7401	0.939
14.7812	0.943
14.8223	0.951
14.8634	0.955
14.9045	0.953
14.9456	0.953
14.9867	0.934
15.0278	0.92
15.0689	0.92
15.11	0.922
15.1511	0.922
15.1922	0.92
15.2333	0.915
15.2744	0.912
15.3154	0.902
15.3565	0.893
15.3976	0.886
15.4387	0.879
15.4798	0.876
15.5209	0.857
15.562	0.847
15.6031	0.84
15.6442	0.828
15.6853	0.807
15.7264	0.793
15.7675	0.776
15.8086	0.762
15.8497	0.749
15.8908	0.73
15.9319	0.721
15.973	0.719
