Infrared Spectrum: 2-(p-NONYLPHENOXY)-3-METHYL-6-(5-NONYL) PYRAZINE
Formula: C29 H46 N2 O
CAS: 116402-96-1
State: LIQUID
Class: COBLENTZ
Instrument: Not specified, most likely a prism, grating, or hybrid spectrometer.
Sampling: TRANSMISSION
Path length: 0.0015 CM
Resolution: 4
Origin: WYANDOTTE CHEMICALS CORP., WYANDOTTE, MICHIGAN, USA
MICROMETERS	TRANSMITTANCE
2.02	0.979
2.06086	0.974
2.10172	0.975
2.14258	0.946
2.18343	0.905
2.22429	0.909
2.26515	0.917
2.30601	0.922
2.34687	0.919
2.38773	0.934
2.42859	0.945
2.46944	0.95
2.5103	0.951
2.55116	0.95
2.59202	0.95
2.63288	0.946
2.67374	0.939
2.7146	0.926
2.75545	0.914
2.79631	0.9
2.83717	0.893
2.87803	0.881
2.91889	0.874
2.95975	0.874
3.0006	0.874
3.04146	0.871
3.08232	0.873
3.12318	0.854
3.16404	0.861
3.2049	0.821
3.24576	0.641
3.28661	0.651
3.32747	0.161
3.36833	0.037
3.40919	0.068
3.45005	0.12
3.49091	0.2
3.53177	0.716
3.57262	0.816
3.61348	0.85
3.65434	0.831
3.6952	0.869
3.73606	0.874
3.77692	0.893
3.81778	0.903
3.85863	0.9
3.89949	0.919
3.94035	0.912
3.98121	0.921
4.02207	0.926
4.06293	0.909
4.10379	0.909
4.14464	0.91
4.1855	0.9
4.22636	0.895
4.26722	0.902
4.30808	0.917
4.34894	0.945
4.3898	0.927
4.43065	0.924
4.47151	0.933
4.51237	0.941
4.55323	0.938
4.59409	0.938
4.63495	0.933
4.6758	0.931
4.71666	0.945
4.75752	0.936
4.79838	0.934
4.83924	0.929
4.8801	0.921
4.92096	0.924
4.96181	0.921
5.00267	0.927
5.04353	0.931
5.08439	0.938
5.12525	0.939
5.16611	0.931
5.20697	0.934
5.24782	0.931
5.28868	0.902
5.32954	0.888
5.3704	0.929
5.41126	0.929
5.45212	0.931
5.49298	0.936
5.53383	0.922
5.57469	0.915
5.61555	0.898
5.65641	0.891
5.69727	0.903
5.73813	0.909
5.77899	0.897
5.81984	0.881
5.8607	0.874
5.90156	0.862
5.94242	0.843
5.98328	0.821
6.02414	0.806
6.065	0.804
6.10585	0.795
6.14671	0.694
6.18757	0.684
6.22843	0.703
6.26929	0.67
6.31015	0.744
6.351	0.766
6.39186	0.701
6.43272	0.533
6.47358	0.459
6.51444	0.579
6.5553	0.31
6.59616	0.077
6.63701	0.379
6.67787	0.523
6.71873	0.416
6.75959	0.123
6.80045	0.066
6.84131	0.147
6.88217	0.279
6.92302	0.351
6.96388	0.425
7.00474	0.557
7.0456	0.492
7.08646	0.459
7.12732	0.367
7.16818	0.121
7.20903	0.032
7.24989	0.044
7.29075	0.063
7.33161	0.075
7.37247	0.066
7.41333	0.085
7.45419	0.162
7.49504	0.32
7.5359	0.401
7.57676	0.377
7.61762	0.348
7.65848	0.348
7.69934	0.339
7.7402	0.355
7.78105	0.391
7.82191	0.451
7.86277	0.469
7.90363	0.433
7.94449	0.401
7.98535	0.396
8.0262	0.361
8.06706	0.31
8.10792	0.228
8.14878	0.169
8.18964	0.073
8.2305	0.054
8.27136	0.178
8.31221	0.348
8.35307	0.397
8.39393	0.365
8.43479	0.214
8.47565	0.075
8.51651	0.058
8.55737	0.123
8.59822	0.245
8.63908	0.279
8.67994	0.324
8.7208	0.396
8.76166	0.492
8.80252	0.61
8.84338	0.667
8.88423	0.617
8.92509	0.552
8.96595	0.531
9.00681	0.595
9.04767	0.627
9.08853	0.631
9.12939	0.636
9.17024	0.639
9.2111	0.641
9.25196	0.641
9.29282	0.662
9.33368	0.679
9.37454	0.699
9.4154	0.739
9.45625	0.775
9.49711	0.795
9.53797	0.801
9.57883	0.792
9.61969	0.783
9.66055	0.775
9.7014	0.759
9.74226	0.723
9.78312	0.6
9.82398	0.325
9.86484	0.492
9.9057	0.593
9.94656	0.653
9.98741	0.708
10.0283	0.759
10.0691	0.787
10.11	0.802
10.1508	0.813
10.1917	0.809
10.2326	0.799
10.2734	0.794
10.3143	0.78
10.3551	0.773
10.396	0.771
10.4369	0.789
10.4777	0.792
10.5186	0.799
10.5594	0.804
10.6003	0.792
10.6412	0.759
10.682	0.742
10.7229	0.742
10.7637	0.747
10.8046	0.754
10.8454	0.778
10.8863	0.797
10.9272	0.801
10.968	0.792
11.0089	0.795
11.0497	0.77
11.0906	0.747
11.1315	0.722
11.1723	0.682
11.2132	0.641
11.254	0.646
11.2949	0.704
11.3357	0.766
11.3766	0.792
11.4175	0.809
11.4583	0.813
11.4992	0.806
11.54	0.79
11.5809	0.756
11.6218	0.706
11.6626	0.646
11.7035	0.6
11.7443	0.571
11.7852	0.526
11.826	0.483
11.8669	0.421
11.9078	0.401
11.9486	0.391
11.9895	0.399
12.0303	0.439
12.0712	0.488
12.1121	0.535
12.1529	0.588
12.1938	0.617
12.2346	0.634
12.2755	0.646
12.3164	0.663
12.3572	0.686
12.3981	0.711
12.4389	0.739
12.4798	0.77
12.5206	0.789
12.5615	0.795
12.6024	0.799
12.6432	0.795
12.6841	0.785
12.7249	0.768
12.7658	0.753
12.8067	0.742
12.8475	0.751
12.8884	0.758
12.9292	0.766
12.9701	0.775
13.0109	0.771
13.0518	0.771
13.0927	0.778
13.1335	0.78
13.1744	0.778
13.2152	0.771
13.2561	0.765
13.297	0.758
13.3378	0.754
13.3787	0.749
13.4195	0.739
13.4604	0.735
13.5012	0.73
13.5421	0.72
13.583	0.716
13.6238	0.711
13.6647	0.71
13.7055	0.708
13.7464	0.715
13.7873	0.723
13.8281	0.734
13.869	0.759
13.9098	0.783
13.9507	0.813
13.9916	0.823
14.0324	0.838
14.0733	0.842
14.1141	0.845
14.155	0.849
14.1958	0.849
14.2367	0.847
14.2776	0.843
14.3184	0.842
14.3593	0.842
14.4001	0.83
14.441	0.828
14.4819	0.83
14.5227	0.831
14.5636	0.828
14.6044	0.823
14.6453	0.821
14.6861	0.828
14.727	0.826
14.7679	0.821
14.8087	0.823
14.8496	0.823
14.8904	0.828
14.9313	0.825
14.9722	0.816
15.013	0.792
15.0539	0.783
15.0947	0.813
15.1356	0.816
15.1764	0.819
15.2173	0.811
15.2582	0.814
15.299	0.807
15.3399	0.802
15.3807	0.792
15.4216	0.797
15.4625	0.785
15.5033	0.79
15.5442	0.785
15.585	0.783
15.6259	0.78
15.6668	0.783
15.7076	0.78
15.7485	0.778
15.7893	0.768
15.8302	0.749
15.871	0.749
15.9119	0.749
15.9528	0.735
