Infrared Spectrum: 2-(p-NONYLPHENOXY)-3-(n-PENTYL)-6-(5-NONYL) PYRAZINE
Formula: C33 H54 N2 O
CAS: 116402-98-3
State: LIQUID
Class: COBLENTZ
Instrument: Not specified, most likely a prism, grating, or hybrid spectrometer.
Sampling: TRANSMISSION
Path length: 0.0015 CM
Resolution: 4
Origin: WYANDOTTE CHEMICALS CORP., WYANDOTTE, MICHIGAN, USA
MICROMETERS	TRANSMITTANCE
2.007	0.96
2.04789	0.957
2.08879	0.96
2.12968	0.96
2.17058	0.936
2.21147	0.892
2.25237	0.899
2.29326	0.902
2.33415	0.909
2.37505	0.9
2.41594	0.919
2.45684	0.926
2.49773	0.919
2.53863	0.928
2.57952	0.945
2.62041	0.936
2.66131	0.941
2.7022	0.926
2.7431	0.919
2.78399	0.902
2.82489	0.883
2.86578	0.859
2.90667	0.847
2.94757	0.834
2.98846	0.82
3.02936	0.811
3.07025	0.822
3.11115	0.82
3.15204	0.827
3.19293	0.823
3.23383	0.784
3.27472	0.625
3.31562	0.56
3.35651	0.129
3.39741	0.051
3.4383	0.066
3.47919	0.128
3.52009	0.222
3.56098	0.714
3.60188	0.808
3.64277	0.839
3.68367	0.829
3.72456	0.868
3.76545	0.868
3.80635	0.895
3.84724	0.9
3.88814	0.905
3.92903	0.909
3.96993	0.919
4.01082	0.924
4.05171	0.929
4.09261	0.917
4.1335	0.921
4.1744	0.919
4.21529	0.926
4.25619	0.888
4.29708	0.926
4.33797	0.957
4.37887	0.969
4.41976	0.95
4.46066	0.943
4.50155	0.945
4.54245	0.94
4.58334	0.955
4.62423	0.95
4.66513	0.958
4.70602	0.947
4.74692	0.943
4.78781	0.943
4.82871	0.943
4.8696	0.938
4.91049	0.94
4.95139	0.94
4.99228	0.931
5.03318	0.943
5.07407	0.941
5.11497	0.953
5.15586	0.953
5.19675	0.955
5.23765	0.964
5.27854	0.962
5.31944	0.921
5.36033	0.933
5.40123	0.962
5.44212	0.96
5.48301	0.955
5.52391	0.969
5.5648	0.943
5.6057	0.941
5.64659	0.919
5.68749	0.909
5.72838	0.856
5.76927	0.866
5.81017	0.876
5.85106	0.876
5.89196	0.878
5.93285	0.846
5.97375	0.825
6.01464	0.772
6.05553	0.789
6.09643	0.793
6.13732	0.798
6.17822	0.68
6.21911	0.74
6.26001	0.735
6.3009	0.694
6.34179	0.76
6.38269	0.767
6.42358	0.69
6.46448	0.553
6.50537	0.529
6.54627	0.588
6.58716	0.314
6.62805	0.121
6.66895	0.459
6.70984	0.55
6.75074	0.42
6.79163	0.121
6.83253	0.097
6.87342	0.184
6.91431	0.311
6.95521	0.398
6.9961	0.505
7.037	0.606
7.07789	0.509
7.11879	0.492
7.15968	0.317
7.20057	0.128
7.24147	0.049
7.28236	0.059
7.32326	0.082
7.36415	0.094
7.40505	0.063
7.44594	0.102
7.48683	0.223
7.52773	0.382
7.56862	0.434
7.60952	0.4
7.65041	0.372
7.69131	0.382
7.7322	0.358
7.77309	0.396
7.81399	0.422
7.85488	0.473
7.89578	0.49
7.93667	0.425
7.97757	0.4
8.01846	0.364
8.05935	0.319
8.10025	0.273
8.14114	0.22
8.18204	0.165
8.22293	0.071
8.26383	0.071
8.30472	0.247
8.34561	0.398
8.38651	0.418
8.4274	0.365
8.4683	0.208
8.50919	0.075
8.55009	0.07
8.59098	0.16
8.63187	0.271
8.67277	0.282
8.71366	0.34
8.75456	0.394
8.79545	0.49
8.83635	0.603
8.87724	0.62
8.91813	0.558
8.95903	0.505
8.99992	0.526
9.04082	0.593
9.08171	0.615
9.12261	0.615
9.1635	0.623
9.2044	0.629
9.24529	0.632
9.28618	0.646
9.32708	0.654
9.36797	0.654
9.40887	0.687
9.44976	0.717
9.49066	0.748
9.53155	0.77
9.57244	0.788
9.61334	0.779
9.65423	0.788
9.69513	0.779
9.73602	0.769
9.77692	0.724
9.81781	0.505
9.8587	0.352
9.8996	0.593
9.94049	0.642
9.98139	0.7
10.0223	0.752
10.0632	0.791
10.1041	0.827
10.145	0.837
10.1859	0.835
10.2268	0.822
10.2676	0.811
10.3085	0.813
10.3494	0.8
10.3903	0.793
10.4312	0.803
10.4721	0.811
10.513	0.817
10.5539	0.829
10.5948	0.813
10.6357	0.794
10.6766	0.769
10.7175	0.767
10.7584	0.776
10.7993	0.788
10.8402	0.801
10.8811	0.83
10.922	0.841
10.9628	0.852
11.0037	0.832
11.0446	0.829
11.0855	0.801
11.1264	0.788
11.1673	0.741
11.2082	0.702
11.2491	0.671
11.29	0.723
11.3309	0.786
11.3718	0.829
11.4127	0.851
11.4536	0.866
11.4945	0.859
11.5354	0.851
11.5763	0.82
11.6172	0.786
11.6581	0.724
11.6989	0.675
11.7398	0.627
11.7807	0.603
11.8216	0.552
11.8625	0.5
11.9034	0.458
11.9443	0.439
11.9852	0.439
12.0261	0.471
12.067	0.517
12.1079	0.579
12.1488	0.622
12.1897	0.668
12.2306	0.678
12.2715	0.707
12.3124	0.712
12.3533	0.74
12.3941	0.765
12.435	0.801
12.4759	0.81
12.5168	0.837
12.5577	0.846
12.5986	0.858
12.6395	0.847
12.6804	0.849
12.7213	0.829
12.7622	0.811
12.8031	0.794
12.844	0.801
12.8849	0.81
12.9258	0.82
12.9667	0.82
13.0076	0.82
13.0485	0.82
13.0894	0.832
13.1302	0.827
13.1711	0.83
13.212	0.823
13.2529	0.823
13.2938	0.811
13.3347	0.811
13.3756	0.8
13.4165	0.801
13.4574	0.791
13.4983	0.779
13.5392	0.774
13.5801	0.762
13.621	0.762
13.6619	0.757
13.7028	0.757
13.7437	0.764
13.7846	0.776
13.8254	0.786
13.8663	0.81
13.9072	0.837
13.9481	0.861
13.989	0.882
14.0299	0.892
14.0708	0.899
14.1117	0.907
14.1526	0.907
14.1935	0.907
14.2344	0.909
14.2753	0.907
14.3162	0.904
14.3571	0.905
14.398	0.9
14.4389	0.9
14.4798	0.89
14.5207	0.9
14.5615	0.894
14.6024	0.904
14.6433	0.904
14.6842	0.916
14.7251	0.916
14.766	0.916
14.8069	0.909
14.8478	0.917
14.8887	0.912
14.9296	0.926
14.9705	0.919
15.0114	0.905
15.0523	0.899
15.0932	0.907
15.1341	0.919
15.175	0.926
15.2159	0.921
15.2567	0.928
15.2976	0.916
15.3385	0.921
15.3794	0.911
15.4203	0.911
15.4612	0.907
15.5021	0.907
15.543	0.911
15.5839	0.909
15.6248	0.899
15.6657	0.895
15.7066	0.887
15.7475	0.897
15.7884	0.885
15.8293	0.887
15.8702	0.876
15.9111	0.868
15.952	0.866
