Infrared Spectrum: PHOSPHORO DIAMIDIC ACID, N,N'-BIS (2,4-DIMETHYL PHENYL), ETHYL ESTER
Formula: C18 H25 N2 O2 P
CAS: 116401-84-4
State: SOLID (0.5% IN KBr PELLET)
Class: COBLENTZ
Instrument: PERKIN-ELMER
Sampling: TRANSMISSION
Resolution: 4
Origin: STANDARD OIL OF OHIO
MICROMETERS	TRANSMITTANCE
1.993	0.962
2.02673	0.964
2.06046	0.964
2.0942	0.962
2.12793	0.96
2.16166	0.96
2.19539	0.96
2.22913	0.96
2.26286	0.957
2.29659	0.948
2.33032	0.945
2.36406	0.948
2.39779	0.954
2.43152	0.957
2.46525	0.955
2.49899	0.952
2.53272	0.952
2.56645	0.952
2.60018	0.954
2.63392	0.957
2.66765	0.957
2.70138	0.955
2.73511	0.948
2.76884	0.903
2.80258	0.829
2.83631	0.75
2.87004	0.681
2.90377	0.613
2.93751	0.568
2.97124	0.593
3.00497	0.6
3.0387	0.562
3.07244	0.5
3.10617	0.481
3.1399	0.515
3.17363	0.602
3.20737	0.693
3.2411	0.736
3.27483	0.727
3.30856	0.678
3.3423	0.596
3.37603	0.562
3.40976	0.532
3.44349	0.59
3.47722	0.637
3.51096	0.719
3.54469	0.806
3.57842	0.863
3.61215	0.891
3.64589	0.908
3.67962	0.913
3.71335	0.93
3.74708	0.94
3.78082	0.945
3.81455	0.948
3.84828	0.948
3.88201	0.948
3.91575	0.945
3.94948	0.943
3.98321	0.948
4.01694	0.948
4.05067	0.945
4.08441	0.948
4.11814	0.947
4.15187	0.943
4.1856	0.943
4.21934	0.943
4.25307	0.945
4.2868	0.948
4.32053	0.948
4.35427	0.948
4.388	0.948
4.42173	0.947
4.45546	0.95
4.4892	0.95
4.52293	0.948
4.55666	0.948
4.59039	0.948
4.62413	0.945
4.65786	0.943
4.69159	0.945
4.72532	0.943
4.75905	0.942
4.79279	0.94
4.82652	0.94
4.86025	0.938
4.89398	0.937
4.92772	0.938
4.96145	0.937
4.99518	0.938
5.02891	0.938
5.06265	0.938
5.09638	0.938
5.13011	0.94
5.16384	0.938
5.19758	0.937
5.23131	0.931
5.26504	0.926
5.29877	0.921
5.33251	0.92
5.36624	0.925
5.39997	0.926
5.4337	0.93
5.46743	0.928
5.50117	0.928
5.5349	0.928
5.56863	0.926
5.60236	0.926
5.6361	0.926
5.66983	0.921
5.70356	0.916
5.73729	0.911
5.77103	0.913
5.80476	0.918
5.83849	0.92
5.87222	0.92
5.90596	0.916
5.93969	0.916
5.97342	0.906
6.00715	0.882
6.04089	0.853
6.07462	0.819
6.10835	0.789
6.14208	0.717
6.17581	0.668
6.20955	0.753
6.24328	0.772
6.27701	0.692
6.31074	0.668
6.34448	0.77
6.37821	0.828
6.41194	0.84
6.44567	0.828
6.47941	0.807
6.51314	0.724
6.54687	0.619
6.5806	0.391
6.61434	0.124
6.64807	0.127
6.6818	0.301
6.71553	0.5
6.74927	0.605
6.783	0.602
6.81673	0.602
6.85046	0.595
6.88419	0.562
6.91793	0.527
6.95166	0.532
6.98539	0.564
7.01912	0.549
7.05286	0.503
7.08659	0.471
7.12032	0.403
7.15405	0.307
7.18779	0.263
7.22152	0.263
7.25525	0.312
7.28898	0.375
7.32272	0.482
7.35645	0.636
7.39018	0.714
7.42391	0.78
7.45765	0.816
7.49138	0.836
7.52511	0.845
7.55884	0.846
7.59257	0.838
7.62631	0.804
7.66004	0.751
7.69377	0.574
7.7275	0.44
7.76124	0.321
7.79497	0.309
7.8287	0.435
7.86243	0.467
7.89617	0.387
7.9299	0.336
7.96363	0.367
7.99736	0.426
8.0311	0.435
8.06483	0.375
8.09856	0.294
8.13229	0.272
8.16602	0.272
8.19976	0.267
8.23349	0.222
8.26722	0.195
8.30095	0.193
8.33469	0.248
8.36842	0.363
8.40215	0.481
8.43588	0.603
8.46962	0.668
8.50335	0.707
8.53708	0.704
8.57081	0.644
8.60455	0.579
8.63828	0.591
8.67201	0.673
8.70574	0.753
8.73948	0.787
8.77321	0.802
8.80694	0.809
8.84067	0.79
8.8744	0.683
8.90814	0.545
8.94187	0.51
8.9756	0.574
9.00933	0.678
9.04307	0.709
9.0768	0.683
9.11053	0.661
9.14426	0.668
9.178	0.704
9.21173	0.719
9.24546	0.714
9.27919	0.7
9.31293	0.666
9.34666	0.627
9.38039	0.554
9.41412	0.489
9.44786	0.397
9.48159	0.292
9.51532	0.21
9.54905	0.149
9.58278	0.137
9.61652	0.134
9.65025	0.144
9.68398	0.168
9.71771	0.231
9.75145	0.289
9.78518	0.352
9.81891	0.387
9.85264	0.413
9.88638	0.42
9.92011	0.408
9.95384	0.399
9.98757	0.423
10.0213	0.442
10.055	0.421
10.0888	0.367
10.1225	0.304
10.1562	0.236
10.19	0.195
10.2237	0.173
10.2574	0.153
10.2912	0.144
10.3249	0.141
10.3586	0.137
10.3924	0.137
10.4261	0.144
10.4598	0.154
10.4936	0.181
10.5273	0.215
10.561	0.244
10.5948	0.28
10.6285	0.331
10.6622	0.387
10.696	0.437
10.7297	0.477
10.7634	0.477
10.7972	0.437
10.8309	0.386
10.8646	0.391
10.8983	0.431
10.9321	0.489
10.9658	0.539
10.9995	0.559
11.0333	0.573
11.067	0.586
11.1007	0.603
11.1345	0.627
11.1682	0.659
11.2019	0.68
11.2357	0.695
11.2694	0.707
11.3031	0.712
11.3369	0.714
11.3706	0.714
11.4043	0.71
11.4381	0.704
11.4718	0.707
11.5055	0.722
11.5393	0.76
11.573	0.79
11.6067	0.812
11.6405	0.828
11.6742	0.838
11.7079	0.845
11.7417	0.85
11.7754	0.85
11.8091	0.846
11.8429	0.838
11.8766	0.824
11.9103	0.802
11.9441	0.767
11.9778	0.732
12.0115	0.693
12.0452	0.651
12.079	0.605
12.1127	0.578
12.1464	0.552
12.1802	0.53
12.2139	0.517
12.2476	0.506
12.2814	0.501
12.3151	0.51
12.3488	0.523
12.3826	0.545
12.4163	0.562
12.45	0.573
12.4838	0.591
12.5175	0.613
12.5512	0.641
12.585	0.67
12.6187	0.693
12.6524	0.714
12.6862	0.729
12.7199	0.743
12.7536	0.75
12.7874	0.753
12.8211	0.755
12.8548	0.753
12.8886	0.753
12.9223	0.751
12.956	0.75
12.9898	0.748
13.0235	0.748
13.0572	0.748
13.091	0.748
13.1247	0.748
13.1584	0.748
13.1921	0.746
13.2259	0.748
13.2596	0.75
13.2933	0.751
13.3271	0.753
13.3608	0.756
13.3945	0.768
13.4283	0.777
13.462	0.787
13.4957	0.801
13.5295	0.809
13.5632	0.818
13.5969	0.828
13.6307	0.835
13.6644	0.836
13.6981	0.836
13.7319	0.836
13.7656	0.835
13.7993	0.835
13.8331	0.828
13.8668	0.821
13.9005	0.812
13.9343	0.804
13.968	0.801
14.0017	0.792
14.0355	0.784
14.0692	0.778
14.1029	0.78
14.1367	0.782
14.1704	0.784
14.2041	0.787
14.2379	0.794
14.2716	0.804
14.3053	0.812
14.339	0.819
14.3728	0.821
14.4065	0.821
14.4402	0.824
14.474	0.823
14.5077	0.823
14.5414	0.821
14.5752	0.819
14.6089	0.816
14.6426	0.811
14.6764	0.804
14.7101	0.801
14.7438	0.799
14.7776	0.797
14.8113	0.797
14.845	0.797
14.8788	0.801
14.9125	0.804
14.9462	0.804
14.98	0.806
15.0137	0.804
15.0474	0.804
15.0812	0.801
15.1149	0.801
15.1486	0.799
15.1824	0.797
15.2161	0.797
15.2498	0.794
15.2836	0.789
15.3173	0.787
15.351	0.789
15.3848	0.79
