Infrared Spectrum: 7,9,10-TRI-HYDROXY-1,5-ISO-PHENAZINE
Formula: C12 H8 N2 O3
CAS: 116495-78-4
State: SOLID (1.0% IN KBr PELLET)
Class: COBLENTZ
Instrument: Not specified, most likely a prism, grating, or hybrid spectrometer.
Sampling: TRANSMISSION
Path length: 0.0355 CM THICK
Resolution: 4
Origin: ANDERSON PHYSICAL LABORATORY
1/CM	TRANSMITTANCE
669.476	0.655
677.903	0.595
686.33	0.63
694.757	0.591
703.184	0.603
711.611	0.658
720.038	0.642
728.465	0.609
736.892	0.579
745.319	0.571
753.746	0.549
762.173	0.534
770.6	0.529
779.027	0.511
787.454	0.452
795.881	0.336
804.308	0.311
812.735	0.35
821.162	0.398
829.589	0.462
838.016	0.535
846.443	0.594
854.869	0.591
863.296	0.601
871.723	0.676
880.15	0.666
888.577	0.601
897.004	0.558
905.431	0.748
913.858	0.82
922.285	0.817
930.712	0.802
939.139	0.742
947.566	0.7
955.993	0.8059
964.42	0.856
972.847	0.848
981.274	0.835
989.701	0.832
998.128	0.824
1006.56	0.799
1014.98	0.784
1023.41	0.796
1031.84	0.785
1040.26	0.764
1048.69	0.724
1057.12	0.658
1065.54	0.667
1073.97	0.733
1082.4	0.736
1090.82	0.736
1099.25	0.721
1107.68	0.691
1116.11	0.661
1124.53	0.621
1132.96	0.598
1141.39	0.57
1149.81	0.444
1158.24	0.473
1166.67	0.425
1175.09	0.299
1183.52	0.191
1191.95	0.2639
1200.38	0.571
1208.8	0.492
1217.23	0.628
1225.66	0.568
1234.08	0.395
1242.51	0.423
1250.94	0.547
1259.36	0.523
1267.79	0.537
1276.22	0.525
1284.65	0.443
1293.07	0.333
1301.5	0.26
1309.93	0.3769
1318.35	0.453
1326.78	0.342
1335.21	0.266
1343.63	0.317
1352.06	0.426
1360.49	0.4739
1368.92	0.636
1377.34	0.637
1385.77	0.594
1394.2	0.519
1402.62	0.544
1411.05	0.5
1419.48	0.414
1427.9	0.299
1436.33	0.269
1444.76	0.3599
1453.18	0.517
1461.61	0.526
1470.04	0.336
1478.47	0.288
1486.89	0.305
1495.32	0.333
1503.75	0.384
1512.17	0.431
1520.6	0.45
1529.03	0.42
1537.45	0.363
1545.88	0.311
1554.31	0.263
1562.74	0.272
1571.16	0.288
1579.59	0.275
1588.02	0.223
1596.44	0.211
1604.87	0.248
1613.3	0.242
1621.72	0.226
1630.15	0.257
1638.58	0.278
1647.01	0.211
1655.43	0.184
1663.86	0.187
1672.29	0.235
1680.71	0.486
1689.14	0.6429
1697.57	0.7439
1705.99	0.802
1714.42	0.821
1722.85	0.838
1731.28	0.865
1739.7	0.877
1748.13	0.887
1756.56	0.893
1764.98	0.893
1773.41	0.893
1781.84	0.892
1790.26	0.892
1798.69	0.892
1807.12	0.89
1815.54	0.89
1823.97	0.889
1832.4	0.887
1840.83	0.886
1849.25	0.886
1857.68	0.886
1866.11	0.886
1874.53	0.886
1882.96	0.883
1891.39	0.878
1899.81	0.877
1908.24	0.875
1916.67	0.872
1925.1	0.877
1933.52	0.886
1941.95	0.875
1950.38	0.872
1958.8	0.868
1967.23	0.865
1975.66	0.868
1984.08	0.865
1992.51	0.856
2000.94	0.853
2009.37	0.851
2017.79	0.8477
2026.22	0.836
2034.65	0.832
2043.07	0.831
2051.5	0.8292
2059.93	0.8259
2068.35	0.8187
2076.78	0.8124
2085.21	0.8094
2093.64	0.803
2102.06	0.8014
2110.49	0.799
2118.92	0.797
2127.34	0.7899
2135.77	0.7838
2144.2	0.7784
2152.62	0.7725
2161.05	0.7625
2169.48	0.7547
2177.9	0.7475
2186.33	0.7398
2194.76	0.732
2203.19	0.7313
2211.61	0.7294
2220.04	0.7209
2228.47	0.712
2236.89	0.711
2245.32	0.7066
2253.75	0.7004
2262.17	0.6875
2270.6	0.6809
2279.03	0.6724
2287.46	0.6664
2295.88	0.6559
2304.31	0.6402
2312.74	0.6291
2321.16	0.6195
2329.59	0.6142
2338.02	0.6082
2346.44	0.604
2354.87	0.6001
2363.3	0.5927
2371.73	0.5826
2380.15	0.5776
2388.58	0.576
2397.01	0.5699
2405.43	0.5573
2413.86	0.5506
2422.29	0.5384
2430.71	0.5284
2439.14	0.5211
2447.57	0.5117
2456	0.5011
2464.42	0.4922
2472.85	0.4811
2481.28	0.4738
2489.7	0.471
2498.13	0.4673
2506.56	0.462
2514.98	0.4565
2523.41	0.455
2531.84	0.455
2540.26	0.4525
2548.69	0.4492
2557.12	0.449
2565.55	0.4484
2573.97	0.4465
2582.4	0.446
2590.83	0.447
2599.25	0.447
2607.68	0.4511
2616.11	0.4528
2624.53	0.455
2632.96	0.4557
2641.39	0.4539
2649.82	0.453
2658.24	0.452
2666.67	0.4497
2675.1	0.4478
2683.52	0.4443
2691.95	0.4368
2700.38	0.4317
2708.8	0.431
2717.23	0.431
2725.66	0.4289
2734.09	0.428
2742.51	0.426
2750.94	0.4251
2759.37	0.4199
2767.79	0.4111
2776.22	0.3979
2784.65	0.3819
2793.07	0.3746
2801.5	0.3702
2809.93	0.3684
2818.36	0.3624
2826.78	0.3505
2835.21	0.347
2843.64	0.3394
2852.06	0.3351
2860.49	0.3328
2868.92	0.3281
2877.34	0.327
2885.77	0.327
2894.2	0.327
2902.62	0.3266
2911.05	0.3239
2919.48	0.3142
2927.91	0.3076
2936.33	0.305
2944.76	0.305
2953.19	0.305
2961.61	0.303
2970.04	0.303
2978.47	0.303
2986.89	0.303
2995.32	0.306
3003.75	0.3085
3012.18	0.309
3020.6	0.309
3029.03	0.309
3037.46	0.309
3045.88	0.3105
3054.31	0.311
3062.74	0.3082
3071.16	0.3055
3079.59	0.3058
3088.02	0.308
3096.45	0.311
3104.87	0.3115
3113.3	0.312
3121.73	0.3121
3130.15	0.3156
3138.58	0.3244
3147.01	0.3298
3155.43	0.3332
3163.86	0.339
3172.29	0.3432
3180.72	0.348
3189.14	0.3535
3197.57	0.3674
3206	0.3798
3214.42	0.3838
3222.85	0.393
3231.28	0.3954
3239.7	0.396
3248.13	0.398
3256.56	0.398
3264.98	0.3984
3273.41	0.399
3281.84	0.399
3290.27	0.399
3298.69	0.399
3307.12	0.399
3315.55	0.399
3323.97	0.3988
3332.4	0.3972
3340.83	0.3934
3349.25	0.3862
3357.68	0.379
3366.11	0.3695
3374.54	0.3553
3382.96	0.3425
3391.39	0.3292
3399.82	0.3173
3408.24	0.3045
3416.67	0.2962
3425.1	0.291
3433.52	0.29
3441.95	0.29
3450.38	0.29
3458.81	0.2902
3467.23	0.2994
3475.66	0.3178
3484.09	0.3289
3492.51	0.3335
3500.94	0.3375
3509.37	0.3462
3517.79	0.36
3526.22	0.39
3534.65	0.4272
3543.08	0.4683
3551.5	0.5103
3559.93	0.5434
3568.36	0.5733
3576.78	0.6034
3585.21	0.6222
3593.64	0.6416
3602.06	0.6774
3610.49	0.6948
3618.92	0.7054
3627.35	0.7143
3635.77	0.7176
3644.2	0.72
3652.63	0.7199
3661.05	0.717
3669.48	0.7159
3677.91	0.715
3686.33	0.715
3694.76	0.7147
3703.19	0.7128
3711.61	0.7093
3720.04	0.7059
3728.47	0.7026
3736.9	0.7008
3745.32	0.6991
3753.75	0.697
3762.18	0.6959
3770.6	0.691
3779.03	0.6901
3787.46	0.6879
3795.88	0.6846
3804.31	0.6741
3812.74	0.6721
3821.17	0.67
3829.59	0.6696
3838.02	0.669
3846.45	0.667
3854.87	0.6635
3863.3	0.658
3871.73	0.658
3880.15	0.657
3888.58	0.655
3897.01	0.6546
3905.44	0.654
3913.86	0.652
3922.29	0.6506
3930.72	0.649
3939.14	0.649
3947.57	0.649
3956	0.648
3964.42	0.646
3972.85	0.646
3981.28	0.646
3989.71	0.646
3998.13	0.647
