Infrared Spectrum: N,N'-ETHYLENE BIS(A,A-DICHLOROPROPIONAMIDE)
Formula: C8 H12 Cl4 N2 O2
CAS: 116402-52-9
State: SOLID (MINERAL OIL MULL)
Class: COBLENTZ
Instrument: Not specified, most likely a prism, grating, or hybrid spectrometer.
Sampling: TRANSMISSION
Resolution: 4
Origin: DOW CHEMICAL COMPANY
MICROMETERS	TRANSMITTANCE
2.033	0.67
2.07308	0.675
2.11316	0.678
2.15324	0.68
2.19332	0.683
2.23339	0.665
2.27347	0.665
2.31355	0.672
2.35363	0.685
2.39371	0.692
2.43379	0.702
2.47387	0.71
2.51395	0.722
2.55402	0.729
2.5941	0.735
2.63418	0.744
2.67426	0.747
2.71434	0.752
2.75442	0.754
2.7945	0.76
2.83458	0.764
2.87465	0.752
2.91473	0.662
2.95481	0.416
2.99489	0.152
3.03497	0.439
3.07505	0.551
3.11513	0.61
3.15521	0.633
3.19528	0.625
3.23536	0.57
3.27544	0.543
3.31552	0.478
3.3556	0.183
3.39568	0.031
3.43576	0.068
3.47584	0.1
3.51592	0.602
3.55599	0.7
3.59607	0.739
3.63615	0.744
3.67623	0.749
3.71631	0.747
3.75639	0.765
3.79647	0.764
3.83655	0.772
3.87662	0.785
3.9167	0.797
3.95678	0.807
3.99686	0.812
4.03694	0.811
4.07702	0.814
4.1171	0.811
4.15718	0.817
4.19725	0.821
4.23733	0.822
4.27741	0.822
4.31749	0.826
4.35757	0.829
4.39765	0.831
4.43773	0.832
4.47781	0.836
4.51789	0.836
4.55796	0.836
4.59804	0.836
4.63812	0.837
4.6782	0.841
4.71828	0.847
4.75836	0.849
4.79844	0.846
4.83852	0.847
4.87859	0.851
4.91867	0.852
4.95875	0.856
4.99883	0.859
5.03891	0.862
5.07899	0.861
5.11907	0.861
5.15915	0.861
5.19922	0.861
5.2393	0.861
5.27938	0.861
5.31946	0.861
5.35954	0.866
5.39962	0.867
5.4397	0.864
5.47978	0.861
5.51985	0.854
5.55993	0.851
5.60001	0.842
5.64009	0.827
5.68017	0.801
5.72025	0.77
5.76033	0.74
5.80041	0.71
5.84049	0.56
5.88056	0.351
5.92064	0.118
5.96072	0.071
6.0008	0.12
6.04088	0.309
6.08096	0.468
6.12104	0.531
6.16112	0.6
6.20119	0.642
6.24127	0.66
6.28135	0.658
6.32143	0.625
6.36151	0.558
6.40159	0.401
6.44167	0.122
6.48175	0.133
6.52182	0.331
6.5619	0.538
6.60198	0.618
6.64206	0.64
6.68214	0.648
6.72222	0.61
6.7623	0.488
6.80238	0.252
6.84245	0.219
6.88253	0.17
6.92261	0.351
6.96269	0.585
7.00277	0.665
7.04285	0.707
7.08293	0.717
7.12301	0.722
7.16309	0.68
7.20316	0.533
7.24324	0.279
7.28332	0.453
7.3234	0.58
7.36348	0.64
7.40356	0.645
7.44364	0.645
7.48372	0.655
7.52379	0.61
7.56387	0.538
7.60395	0.551
7.64403	0.538
7.68411	0.489
7.72419	0.413
7.76427	0.282
7.80435	0.274
7.84442	0.399
7.8845	0.531
7.92458	0.573
7.96466	0.581
8.00474	0.478
8.04482	0.311
8.0849	0.456
8.12498	0.638
8.16505	0.682
8.20513	0.707
8.24521	0.727
8.28529	0.747
8.32537	0.754
8.36545	0.759
8.40553	0.76
8.44561	0.76
8.48569	0.759
8.52576	0.749
8.56584	0.722
8.60592	0.632
8.646	0.5
8.68608	0.469
8.72616	0.66
8.76624	0.73
8.80632	0.759
8.84639	0.77
8.88647	0.779
8.92655	0.772
8.96663	0.75
9.00671	0.73
9.04679	0.7
9.08687	0.65
9.12695	0.491
9.16702	0.332
9.2071	0.334
9.24718	0.349
9.28726	0.297
9.32734	0.339
9.36742	0.443
9.4075	0.613
9.44758	0.672
9.48766	0.702
9.52773	0.727
9.56781	0.744
9.60789	0.75
9.64797	0.71
9.68805	0.628
9.72813	0.628
9.76821	0.709
9.80829	0.764
9.84836	0.779
9.88844	0.795
9.92852	0.804
9.9686	0.809
10.0087	0.812
10.0488	0.816
10.0888	0.816
10.1289	0.816
10.169	0.817
10.2091	0.812
10.2492	0.814
10.2892	0.811
10.3293	0.811
10.3694	0.814
10.4095	0.816
10.4495	0.821
10.4896	0.821
10.5297	0.827
10.5698	0.827
10.6099	0.826
10.6499	0.822
10.69	0.821
10.7301	0.814
10.7702	0.809
10.8103	0.789
10.8503	0.745
10.8904	0.64
10.9305	0.573
10.9706	0.658
11.0106	0.729
11.0507	0.77
11.0908	0.811
11.1309	0.822
11.171	0.827
11.211	0.829
11.2511	0.831
11.2912	0.834
11.3313	0.839
11.3714	0.842
11.4114	0.846
11.4515	0.846
11.4916	0.847
11.5317	0.847
11.5718	0.849
11.6118	0.849
11.6519	0.846
11.692	0.841
11.7321	0.839
11.7721	0.836
11.8122	0.832
11.8523	0.834
11.8924	0.834
11.9325	0.832
11.9725	0.831
12.0126	0.829
12.0527	0.827
12.0928	0.821
12.1329	0.817
12.1729	0.812
12.213	0.801
12.2531	0.795
12.2932	0.787
12.3332	0.78
12.3733	0.767
12.4134	0.749
12.4535	0.704
12.4936	0.56
12.5336	0.372
12.5737	0.215
12.6138	0.346
12.6539	0.568
12.694	0.66
12.734	0.688
12.7741	0.7
12.8142	0.702
12.8543	0.697
12.8944	0.688
12.9344	0.71
12.9745	0.737
13.0146	0.754
13.0547	0.759
13.0947	0.76
13.1348	0.76
13.1749	0.76
13.215	0.757
13.2551	0.75
13.2951	0.747
13.3352	0.744
13.3753	0.734
13.4154	0.727
13.4555	0.719
13.4955	0.714
13.5356	0.707
13.5757	0.702
13.6158	0.698
13.6558	0.692
13.6959	0.687
13.736	0.672
13.7761	0.66
13.8162	0.648
13.8562	0.632
13.8963	0.62
13.9364	0.61
13.9765	0.588
14.0166	0.548
14.0566	0.508
14.0967	0.489
14.1368	0.498
14.1769	0.531
14.217	0.563
14.257	0.58
14.2971	0.591
14.3372	0.6
14.3773	0.602
14.4173	0.602
14.4574	0.598
14.4975	0.591
14.5376	0.586
14.5777	0.58
14.6177	0.57
14.6578	0.565
14.6979	0.556
14.738	0.548
14.7781	0.541
14.8181	0.53
14.8582	0.521
14.8983	0.51
14.9384	0.5
14.9784	0.479
15.0185	0.456
15.0586	0.429
15.0987	0.409
15.1388	0.386
15.1788	0.362
15.2189	0.339
15.259	0.327
15.2991	0.307
15.3392	0.287
15.3792	0.267
15.4193	0.245
15.4594	0.22
15.4995	0.188
15.5396	0.157
15.5796	0.13
15.6197	0.113
15.6598	0.098
15.6999	0.088
15.7399	0.078
15.78	0.073
15.8201	0.071
15.8602	0.068
15.9003	0.065
15.9403	0.068
