Infrared Spectrum: 2-(N,N-DI-n-PENTYL AMINO)-3-(n-PENTYL)PYRAZINE
Formula: C19 H35 N3
CAS: 116402-84-7
State: LIQUID
Class: COBLENTZ
Instrument: Not specified, most likely a prism, grating, or hybrid spectrometer.
Sampling: TRANSMISSION
Path length: 0.003 CM
Resolution: 4
Origin: WYANDOTTE CHEMICALS CORP., WYANDOTTE, MICHIGAN, USA
MICROMETERS	TRANSMITTANCE
2.02	0.975
2.05985	0.98
2.0997	0.978
2.13955	0.95
2.17939	0.892
2.21924	0.885
2.25909	0.927
2.29894	0.923
2.33879	0.922
2.37864	0.938
2.41849	0.943
2.45833	0.955
2.49818	0.95
2.53803	0.958
2.57788	0.965
2.61773	0.961
2.65758	0.951
2.69743	0.955
2.73727	0.942
2.77712	0.923
2.81697	0.913
2.85682	0.897
2.89667	0.882
2.93652	0.875
2.97637	0.874
3.01621	0.87
3.05606	0.859
3.09591	0.827
3.13576	0.822
3.17561	0.781
3.21546	0.75
3.25531	0.41
3.29515	0.399
3.335	0.046
3.37485	0.057
3.4147	0.067
3.45455	0.069
3.4944	0.268
3.53424	0.513
3.57409	0.69
3.61394	0.751
3.65379	0.735
3.69364	0.776
3.73349	0.799
3.77334	0.827
3.81318	0.844
3.85303	0.86
3.89288	0.88
3.93273	0.885
3.97258	0.903
4.01243	0.905
4.05228	0.894
4.09212	0.9
4.13197	0.895
4.17182	0.887
4.21167	0.887
4.25152	0.903
4.29137	0.899
4.33122	0.899
4.37106	0.9
4.41091	0.918
4.45076	0.925
4.49061	0.923
4.53046	0.933
4.57031	0.927
4.61016	0.938
4.65	0.927
4.68985	0.932
4.7297	0.942
4.76955	0.948
4.8094	0.95
4.84925	0.951
4.8891	0.955
4.92894	0.948
4.96879	0.951
5.00864	0.956
5.04849	0.951
5.08834	0.963
5.12819	0.951
5.16804	0.951
5.20788	0.956
5.24773	0.95
5.28758	0.93
5.32743	0.927
5.36728	0.951
5.40713	0.955
5.44698	0.947
5.48682	0.955
5.52667	0.947
5.56652	0.928
5.60637	0.908
5.64622	0.905
5.68607	0.9
5.72592	0.862
5.76576	0.814
5.80561	0.819
5.84546	0.812
5.88531	0.798
5.92516	0.796
5.96501	0.801
6.00486	0.802
6.0447	0.798
6.08455	0.791
6.1244	0.784
6.16425	0.774
6.2041	0.75
6.24395	0.698
6.28379	0.455
6.32364	0.46
6.36349	0.43
6.40334	0.582
6.44319	0.45
6.48304	0.117
6.52289	0.122
6.56273	0.422
6.60258	0.533
6.64243	0.412
6.68228	0.298
6.72213	0.215
6.76198	0.056
6.80183	0.064
6.84167	0.097
6.88152	0.134
6.92137	0.139
6.96122	0.089
7.00107	0.064
7.04092	0.057
7.08077	0.13
7.12061	0.291
7.16046	0.254
7.20031	0.096
7.24016	0.064
7.28001	0.1
7.31986	0.18
7.35971	0.208
7.39955	0.248
7.4394	0.299
7.47925	0.377
7.5191	0.428
7.55895	0.437
7.5988	0.369
7.63865	0.331
7.67849	0.312
7.71834	0.311
7.75819	0.332
7.79804	0.327
7.83789	0.299
7.87774	0.304
7.91759	0.38
7.95743	0.379
7.99728	0.357
8.03713	0.306
8.07698	0.322
8.11683	0.384
8.15668	0.392
8.19653	0.35
8.23637	0.299
8.27622	0.312
8.31607	0.349
8.35592	0.337
8.39577	0.306
8.43562	0.269
8.47547	0.253
8.51531	0.22
8.55516	0.158
8.59501	0.142
8.63486	0.155
8.67471	0.21
8.71456	0.24
8.75441	0.233
8.79425	0.158
8.8341	0.099
8.87395	0.129
8.9138	0.185
8.95365	0.258
8.9935	0.264
9.03334	0.235
9.07319	0.236
9.11304	0.311
9.15289	0.359
9.19274	0.357
9.23259	0.379
9.27244	0.427
9.31228	0.478
9.35213	0.5
9.39198	0.526
9.43183	0.574
9.47168	0.63
9.51153	0.657
9.55138	0.657
9.59122	0.653
9.63107	0.64
9.67092	0.65
9.71077	0.66
9.75062	0.657
9.79047	0.66
9.83032	0.65
9.87016	0.649
9.91001	0.63
9.94986	0.6
9.98971	0.582
10.0296	0.571
10.0694	0.617
10.1093	0.627
10.1491	0.619
10.189	0.617
10.2288	0.599
10.2687	0.567
10.3085	0.541
10.3483	0.543
10.3882	0.528
10.428	0.551
10.4679	0.572
10.5077	0.62
10.5476	0.649
10.5874	0.67
10.6273	0.7
10.6671	0.713
10.707	0.731
10.7468	0.73
10.7867	0.751
10.8265	0.764
10.8664	0.763
10.9062	0.768
10.9461	0.763
10.9859	0.761
11.0258	0.768
11.0656	0.759
11.1055	0.74
11.1453	0.731
11.1852	0.738
11.225	0.738
11.2649	0.751
11.3047	0.751
11.3446	0.759
11.3844	0.766
11.4243	0.768
11.4641	0.778
11.504	0.758
11.5438	0.725
11.5837	0.682
11.6235	0.644
11.6633	0.596
11.7032	0.562
11.743	0.518
11.7829	0.451
11.8227	0.405
11.8626	0.374
11.9024	0.352
11.9423	0.362
11.9821	0.397
12.022	0.478
12.0618	0.564
12.1017	0.645
12.1415	0.705
12.1814	0.759
12.2212	0.794
12.2611	0.806
12.3009	0.817
12.3408	0.826
12.3806	0.829
12.4205	0.831
12.4603	0.821
12.5002	0.819
12.54	0.822
12.5799	0.822
12.6197	0.817
12.6596	0.819
12.6994	0.811
12.7393	0.801
12.7791	0.788
12.819	0.774
12.8588	0.75
12.8987	0.716
12.9385	0.703
12.9784	0.675
13.0182	0.662
13.058	0.66
13.0979	0.66
13.1377	0.662
13.1776	0.668
13.2174	0.682
13.2573	0.685
13.2971	0.698
13.337	0.701
13.3768	0.698
13.4167	0.683
13.4565	0.668
13.4964	0.658
13.5362	0.632
13.5761	0.619
13.6159	0.596
13.6558	0.557
13.6956	0.536
13.7355	0.519
13.7753	0.521
13.8152	0.541
13.855	0.577
13.8949	0.619
13.9347	0.652
13.9746	0.678
14.0144	0.692
14.0543	0.711
14.0941	0.716
14.134	0.748
14.1738	0.738
14.2137	0.754
14.2535	0.759
14.2934	0.748
14.3332	0.758
14.3731	0.75
14.4129	0.754
14.4527	0.754
14.4926	0.751
14.5324	0.745
14.5723	0.748
14.6121	0.745
14.652	0.731
14.6918	0.738
14.7317	0.73
14.7715	0.728
14.8114	0.713
14.8512	0.72
14.8911	0.71
14.9309	0.698
14.9708	0.701
15.0106	0.677
15.0505	0.645
15.0903	0.587
15.1302	0.587
15.17	0.612
15.2099	0.627
15.2497	0.649
15.2896	0.645
15.3294	0.642
15.3693	0.637
15.4091	0.644
15.449	0.629
15.4888	0.629
15.5287	0.62
15.5685	0.609
15.6084	0.599
15.6482	0.581
15.6881	0.582
15.7279	0.574
15.7678	0.559
15.8076	0.549
15.8474	0.536
15.8873	0.534
15.9271	0.511
15.967	0.509
