Infrared Spectrum: PHOSPHOROUS ACID, BIS(2,2-DIMETHYLPENTYL) ESTER
Formula: C14 H31 O3 P
CAS: 116402-21-2
Boiling point: 104-105 C AT 0.5 mmHg
Class: COBLENTZ
Instrument: Not specified, most likely a prism, grating, or hybrid spectrometer.
Sampling: TRANSMISSION
Path length: SMEAR
Resolution: 4
Origin: TENNESSEE EASTMAN COMPANY, RESEARCH LABORATORIES
MICROMETERS	TRANSMITTANCE
2.066	0.974
2.10604	0.974
2.14608	0.973
2.18613	0.974
2.22617	0.973
2.26621	0.954
2.30625	0.936
2.34629	0.934
2.38634	0.936
2.42638	0.936
2.46642	0.936
2.50646	0.936
2.54651	0.936
2.58655	0.939
2.62659	0.939
2.66663	0.939
2.70667	0.939
2.74672	0.939
2.78676	0.927
2.8268	0.916
2.86684	0.906
2.90688	0.897
2.94693	0.899
2.98697	0.909
3.02701	0.922
3.06705	0.922
3.10709	0.924
3.14714	0.922
3.18718	0.921
3.22722	0.919
3.26726	0.911
3.30731	0.859
3.34735	0.474
3.38739	0.098
3.42743	0.312
3.46747	0.312
3.50752	0.652
3.54756	0.827
3.5876	0.865
3.62764	0.874
3.66768	0.867
3.70773	0.879
3.74777	0.901
3.78781	0.902
3.82785	0.907
3.86789	0.919
3.90794	0.926
3.94798	0.927
3.98802	0.931
4.02806	0.931
4.06811	0.921
4.10815	0.847
4.14819	0.756
4.18823	0.763
4.22827	0.862
4.26832	0.88
4.30836	0.879
4.3484	0.899
4.38844	0.931
4.42848	0.939
4.46853	0.941
4.50857	0.941
4.54861	0.944
4.58865	0.944
4.62869	0.944
4.66874	0.944
4.70878	0.944
4.74882	0.944
4.78886	0.944
4.82891	0.944
4.86895	0.944
4.90899	0.944
4.94903	0.944
4.98907	0.946
5.02912	0.951
5.06916	0.951
5.1092	0.946
5.14924	0.939
5.18928	0.937
5.22933	0.939
5.26937	0.939
5.30941	0.937
5.34945	0.937
5.38949	0.936
5.42954	0.934
5.46958	0.934
5.50962	0.937
5.54966	0.937
5.58971	0.936
5.62975	0.937
5.66979	0.937
5.70983	0.941
5.74987	0.941
5.78992	0.934
5.82996	0.934
5.87	0.941
5.91004	0.924
5.95008	0.932
5.99013	0.932
6.03017	0.932
6.07021	0.927
6.11025	0.921
6.15029	0.922
6.19034	0.924
6.23038	0.932
6.27042	0.939
6.31046	0.944
6.35051	0.939
6.39055	0.941
6.43059	0.924
6.47063	0.921
6.51067	0.911
6.55072	0.906
6.59076	0.894
6.6308	0.874
6.67084	0.843
6.71088	0.619
6.75093	0.389
6.79097	0.441
6.83101	0.505
6.87105	0.627
6.91109	0.748
6.95114	0.798
6.99118	0.852
7.03122	0.859
7.07126	0.862
7.11131	0.802
7.15135	0.667
7.19139	0.744
7.23143	0.692
7.27147	0.624
7.31152	0.533
7.35156	0.697
7.3916	0.84
7.43164	0.87
7.47168	0.874
7.51173	0.864
7.55177	0.84
7.59181	0.815
7.63185	0.785
7.67189	0.708
7.71194	0.63
7.75198	0.538
7.79202	0.392
7.83206	0.273
7.87211	0.211
7.91215	0.172
7.95219	0.161
7.99223	0.303
8.03227	0.5
8.07232	0.595
8.11236	0.694
8.1524	0.723
8.19244	0.726
8.23248	0.76
8.27253	0.793
8.31257	0.802
8.35261	0.802
8.39265	0.802
8.43269	0.807
8.47274	0.83
8.51278	0.843
8.55282	0.848
8.59286	0.852
8.63291	0.854
8.67295	0.852
8.71299	0.852
8.75303	0.854
8.79307	0.852
8.83312	0.85
8.87316	0.843
8.9132	0.83
8.95324	0.808
8.99328	0.78
9.03333	0.724
9.07337	0.617
9.11341	0.53
9.15345	0.458
9.19349	0.369
9.23354	0.333
9.27358	0.33
9.31362	0.332
9.35366	0.333
9.39371	0.335
9.43375	0.335
9.47379	0.31
9.51383	0.263
9.55387	0.228
9.59392	0.208
9.63396	0.204
9.674	0.214
9.71404	0.255
9.75408	0.276
9.79413	0.28
9.83417	0.271
9.87421	0.251
9.91425	0.236
9.95429	0.209
9.99434	0.196
10.0344	0.157
10.0744	0.125
10.1145	0.112
10.1545	0.102
10.1945	0.097
10.2346	0.087
10.2746	0.08
10.3147	0.078
10.3547	0.083
10.3948	0.115
10.4348	0.243
10.4748	0.345
10.5149	0.431
10.5549	0.469
10.595	0.491
10.635	0.503
10.6751	0.52
10.7151	0.533
10.7551	0.568
10.7952	0.642
10.8352	0.652
10.8753	0.651
10.9153	0.672
10.9553	0.739
10.9954	0.778
11.0354	0.788
11.0755	0.788
11.1155	0.783
11.1556	0.761
11.1956	0.743
11.2356	0.721
11.2757	0.708
11.3157	0.697
11.3558	0.689
11.3958	0.681
11.4359	0.664
11.4759	0.659
11.5159	0.661
11.556	0.661
11.596	0.666
11.6361	0.671
11.6761	0.684
11.7161	0.703
11.7562	0.724
11.7962	0.734
11.8363	0.748
11.8763	0.753
11.9164	0.756
11.9564	0.755
11.9964	0.756
12.0365	0.748
12.0765	0.736
12.1166	0.731
12.1566	0.729
12.1967	0.728
12.2367	0.729
12.2767	0.729
12.3168	0.744
12.3568	0.761
12.3969	0.771
12.4369	0.786
12.4769	0.812
12.517	0.83
12.557	0.84
12.5971	0.85
12.6371	0.855
12.6772	0.865
12.7172	0.872
12.7572	0.875
12.7973	0.882
12.8373	0.884
12.8774	0.884
12.9174	0.884
12.9575	0.884
12.9975	0.884
13.0375	0.882
13.0776	0.882
13.1176	0.882
13.1577	0.879
13.1977	0.877
13.2377	0.875
13.2778	0.87
13.3178	0.859
13.3579	0.842
13.3979	0.808
13.438	0.78
13.478	0.765
13.518	0.766
13.5581	0.796
13.5981	0.84
13.6382	0.852
13.6782	0.86
13.7183	0.867
13.7583	0.87
13.7983	0.872
13.8384	0.874
13.8784	0.875
13.9185	0.875
13.9585	0.875
13.9985	0.875
14.0386	0.875
14.0786	0.875
14.1187	0.875
14.1587	0.874
14.1988	0.872
14.2388	0.869
14.2788	0.862
14.3189	0.857
14.3589	0.854
14.399	0.85
14.439	0.843
14.4791	0.84
14.5191	0.835
14.5591	0.83
14.5992	0.827
14.6392	0.82
14.6793	0.807
14.7193	0.803
14.7593	0.796
14.7994	0.795
14.8394	0.786
14.8795	0.781
14.9195	0.763
14.9596	0.746
14.9996	0.744
15.0396	0.755
15.0797	0.756
15.1197	0.753
15.1598	0.751
15.1998	0.744
15.2399	0.741
15.2799	0.741
15.3199	0.739
15.36	0.738
15.4	0.734
15.4401	0.733
15.4801	0.729
15.5201	0.728
15.5602	0.728
15.6002	0.723
15.6403	0.721
15.6803	0.718
15.7204	0.718
15.7604	0.718
15.8004	0.718
15.8405	0.716
15.8805	0.714
15.9206	0.714
15.9606	0.713
16.0007	0.713
