Infrared Spectrum: 1,3,4-Oxadiazol-2(3H)-one, 3-acetyl-5-(5-nitro-2-furyl)-,
Formula: C8 H5 N3 O6
CAS: 116401-76-4
State: SOLUTION 2.3% (CHCl3 FOR 2-12.2 microns)
Class: COBLENTZ
Instrument: PERKIN-ELMER 21 (GRATING)
Instrument parameters: FILTER AT ABOUT 10 MICRONS
Path length: 0.03 CM
Resolution: 2
Origin: ABBOTT LABORATORIES
1/CM	TRANSMITTANCE
793	0.6042
802	0.5959
811	0.6043
820	0.7958
829	0.8663
838	0.8689
847	0.8649
856	0.8533
865	0.8423
874	0.8238
883	0.7826
892	0.497
901	0.8062
910	0.7736
919	0.4865
928	0.3348
937	0.3326
946	0.326
955	0.3741
964	0.4698
973	0.7142
982	0.7109
991	0.4825
1000	0.5149
1009	0.4286
1018	0.5509
1027	0.7533
1036	0.815
1045	0.8176
1054	0.8037
1063	0.773
1072	0.8154
1081	0.8119
1090	0.8011
1099	0.7374
1108	0.6498
1117	0.7615
1126	0.7848
1135	0.7311
1144	0.7187
1153	0.7093
1162	0.725
1171	0.5338
1180	0.3685
1189	0.3227
1198	0.3204
1207	0.3126
1216	0.3033
1225	0.3011
1234	0.2955
1243	0.2863
1252	0.2118
1261	0.086
1270	0.0058
1279	0.0045
1288	0.0602
1297	0.1184
1306	0.0739
1315	0.0542
1324	0.0225
1333	0.1262
1342	0.0046
1351	0.1732
1360	0.2012
1369	0.3215
1378	0.4599
1387	0.6467
1396	0.5696
1405	0.614
1414	0.7249
1423	0.7711
1432	0.7805
1441	0.7812
1450	0.7851
1459	0.7719
1468	0.7118
1477	0.5787
1486	0.3886
1495	0.4103
1504	0.3468
1513	0.312
1522	0.2416
1531	0.1803
1540	0.184
1549	0.4777
1558	0.457
1567	0.2928
1576	0.5648
1585	0.7473
1594	0.7484
1603	0.7439
1612	0.7147
1621	0.6021
1630	0.5402
1639	0.5303
1648	0.5625
1657	0.7821
1666	0.8127
1675	0.8087
1684	0.7894
1693	0.768
1702	0.7477
1711	0.7328
1720	0.5734
1729	0.3839
1738	0.2152
1747	0.1489
1756	0.1636
1765	0.2894
1774	0.4366
1783	0.3699
1792	0.3211
1801	0.151
1810	0.0089
1819	0.0116
1828	0.0653
1837	0.0874
1846	0.1766
1855	0.2615
1864	0.2874
1873	0.4407
1882	0.5854
1891	0.6188
1900	0.715
1909	0.7442
1918	0.748
1927	0.7536
1936	0.7758
1945	0.805
1954	0.8363
1963	0.8566
1972	0.8572
1981	0.8575
1990	0.8612
1999	0.8684
2008	0.8704
2017	0.871
2026	0.8713
2035	0.8713
2044	0.8712
2053	0.8714
2062	0.8716
2071	0.8718
2080	0.872
2089	0.872
2098	0.8714
2107	0.8709
2116	0.8707
2125	0.8709
2134	0.8711
2143	0.8714
2152	0.8716
2161	0.8724
2170	0.8782
2179	0.8834
2188	0.8859
2197	0.8873
2206	0.8881
2215	0.8884
2224	0.8887
2233	0.8889
2242	0.8886
2251	0.8882
2260	0.8879
2269	0.8875
2278	0.8873
2287	0.8871
2296	0.8869
2305	0.8867
2314	0.8865
2323	0.8864
2332	0.8862
2341	0.8861
2350	0.8861
2359	0.8861
2368	0.8861
2377	0.8861
2386	0.8861
2395	0.8861
2404	0.8861
2413	0.8861
2422	0.8862
2431	0.8862
2440	0.8863
2449	0.8863
2458	0.8864
2467	0.8864
2476	0.8866
2485	0.8867
2494	0.8869
2503	0.8871
2512	0.8873
2521	0.8875
2530	0.8876
2539	0.8878
2548	0.8879
2557	0.8878
2566	0.8878
2575	0.8878
2584	0.8878
2593	0.8869
2602	0.8853
2611	0.8838
2620	0.8822
2629	0.8818
2638	0.8819
2647	0.8819
2656	0.882
2665	0.8822
2674	0.8825
2683	0.8828
2692	0.8826
2701	0.8825
2710	0.8824
2719	0.8823
2728	0.8817
2737	0.881
2746	0.8802
2755	0.8795
2764	0.8778
2773	0.8749
2782	0.8723
2791	0.8714
2800	0.8708
2809	0.8711
2818	0.8714
2827	0.8717
2836	0.8719
2845	0.8719
2854	0.8718
2863	0.8717
2872	0.8712
2881	0.8708
2890	0.8701
2899	0.868
2908	0.8642
2917	0.8546
2926	0.8438
2935	0.8317
2944	0.8185
2953	0.8045
2962	0.7941
2971	0.7842
2980	0.7804
2989	0.7787
2998	0.7777
3007	0.7781
3016	0.7802
3025	0.7784
3034	0.7781
3043	0.7771
3052	0.7761
3061	0.7739
3070	0.7697
3079	0.7635
3088	0.757
3097	0.7521
3106	0.7507
3115	0.7645
3124	0.7942
3133	0.8238
3142	0.8532
3151	0.8763
3160	0.8814
3169	0.8842
3178	0.8864
3187	0.8876
3196	0.8881
3205	0.8883
3214	0.8886
3223	0.8885
3232	0.8883
3241	0.8881
3250	0.8879
3259	0.8878
3268	0.8875
3277	0.887
3286	0.8861
3295	0.8851
3304	0.8843
3313	0.8832
3322	0.8821
3331	0.8811
3340	0.88
3349	0.8789
3358	0.8775
3367	0.8761
3376	0.8747
3385	0.8733
3394	0.872
3403	0.8706
3412	0.8694
3421	0.8682
3430	0.8669
3439	0.8653
3448	0.8638
3457	0.8623
3466	0.8607
3475	0.8595
3484	0.8588
3493	0.8582
3502	0.8575
3511	0.857
3520	0.8573
3529	0.8577
3538	0.8586
3547	0.8614
3556	0.8641
3565	0.8665
3574	0.8687
3583	0.8708
3592	0.8729
3601	0.8752
3610	0.8776
3619	0.8792
3628	0.88
3637	0.881
3646	0.8815
3655	0.8821
3664	0.8826
3673	0.8831
3682	0.8837
3691	0.8845
3700	0.8853
3709	0.8861
3718	0.8867
3727	0.8872
3736	0.8878
3745	0.8883
3754	0.8889
3763	0.8892
3772	0.8894
3781	0.8896
3790	0.8899
3799	0.89
3808	0.8903
3817	0.8906
3826	0.8907
3835	0.8908
3844	0.8908
3853	0.8909
3862	0.891
3871	0.8911
3880	0.8911
3889	0.8911
3898	0.891
3907	0.8909
3916	0.8908
3925	0.8907
3934	0.8907
3943	0.8906
3952	0.8905
3961	0.8904
3970	0.8903
3979	0.8901
3988	0.8898
3997	0.8895
