Infrared Spectrum: BENZOIC ACID, 4-[3-(2-CHLOROETHYL)UREIDO]-3,5-DIMETHYL-
Formula: C12 H15 Cl N2 O3
CAS: 116465-96-4
State: SOLID (1 mg / 650 mg KBr DISC)
Class: COBLENTZ III
Instrument: PERKIN-ELMER 521 (GRATING)
Instrument parameters: FILTERS AT 3130, 2475, 2000, 620. GRATING CHANGES: 2000, 630 CM^-^1
Sampling: TRANSMISSION
Resolution: 2
Origin: SOUTHERN RESEARCH INSTITUTE
1/CM	TRANSMITTANCE
258.158	0.199
267.722	0.263
277.286	0.384
286.85	0.422
296.414	0.463
305.978	0.506
315.542	0.541
325.106	0.574
334.67	0.604
344.234	0.633
353.798	0.663
363.362	0.673
372.926	0.676
382.49	0.688
392.054	0.687
401.618	0.717
411.182	0.726
420.746	0.719
430.311	0.693
439.875	0.669
449.439	0.632
459.003	0.6709
468.567	0.721
478.131	0.715
487.695	0.69
497.259	0.711
506.823	0.724
516.387	0.726
525.951	0.711
535.515	0.706
545.079	0.695
554.643	0.652
564.207	0.659
573.771	0.69
583.335	0.671
592.899	0.64
602.463	0.664
612.027	0.624
621.591	0.608
631.155	0.588
640.719	0.552
650.283	0.507
659.847	0.501
669.411	0.551
678.975	0.586
688.539	0.56
698.103	0.593
707.667	0.608
717.231	0.573
726.795	0.693
736.359	0.69
745.923	0.659
755.487	0.642
765.051	0.598
774.616	0.485
784.18	0.652
793.744	0.7
803.308	0.692
812.872	0.724
822.436	0.722
832	0.745
841.564	0.752
851.128	0.745
860.692	0.732
870.256	0.709
879.82	0.705
889.384	0.69
898.948	0.636
908.512	0.65
918.076	0.678
927.64	0.646
937.204	0.633
946.768	0.631
956.332	0.68
965.896	0.717
975.46	0.724
985.024	0.714
994.588	0.692
1004.15	0.693
1013.72	0.711
1023.28	0.707
1032.84	0.681
1042.41	0.702
1051.97	0.708
1061.54	0.67
1071.1	0.674
1080.66	0.699
1090.23	0.697
1099.79	0.675
1109.36	0.615
1118.92	0.676
1128.48	0.662
1138.05	0.668
1147.61	0.669
1157.18	0.652
1166.74	0.629
1176.3	0.581
1185.87	0.504
1195.43	0.431
1205	0.423
1214.56	0.369
1224.12	0.28
1233.69	0.362
1243.25	0.326
1252.82	0.275
1262.38	0.261
1271.94	0.3949
1281.51	0.521
1291.07	0.5
1300.64	0.42
1310.2	0.34
1319.77	0.315
1329.33	0.397
1338.89	0.536
1348.46	0.623
1358.02	0.614
1367.59	0.58
1377.15	0.526
1386.71	0.592
1396.28	0.575
1405.84	0.513
1415.41	0.404
1424.97	0.329
1434.53	0.304
1444.1	0.413
1453.66	0.527
1463.23	0.594
1472.79	0.59
1482.35	0.569
1491.92	0.558
1501.48	0.512
1511.05	0.457
1520.61	0.45
1530.17	0.412
1539.74	0.325
1549.3	0.2469
1558.87	0.181
1568.43	0.158
1577.99	0.171
1587.56	0.223
1597.12	0.262
1606.69	0.334
1616.25	0.26
1625.81	0.159
1635.38	0.135
1644.94	0.253
1654.51	0.39
1664.07	0.397
1673.63	0.323
1683.2	0.189
1692.76	0.168
1702.33	0.218
1711.89	0.449
1721.45	0.586
1731.02	0.678
1740.58	0.717
1750.15	0.74
1759.71	0.749
1769.27	0.753
1778.84	0.746
1788.4	0.747
1797.97	0.751
1807.53	0.759
1817.09	0.764
1826.66	0.768
1836.22	0.771
1845.79	0.774
1855.35	0.775
1864.91	0.778
1874.48	0.781
1884.04	0.787
1893.61	0.793
1903.17	0.791
1912.73	0.793
1922.3	0.791
1931.86	0.795
1941.43	0.8
1950.99	0.804
1960.56	0.804
1970.12	0.804
1979.68	0.804
1989.25	0.8
1998.81	0.793
2008.38	0.791
2017.94	0.793
2027.5	0.793
2037.07	0.793
2046.63	0.793
2056.2	0.793
2065.76	0.791
2075.32	0.791
2084.89	0.791
2094.45	0.793
2104.02	0.793
2113.58	0.793
2123.14	0.793
2132.71	0.791
2142.27	0.791
2151.84	0.79
2161.4	0.789
2170.96	0.788
2180.53	0.788
2190.09	0.787
2199.66	0.785
2209.22	0.783
2218.78	0.78
2228.35	0.777
2237.91	0.776
2247.48	0.775
2257.04	0.774
2266.6	0.772
2276.17	0.774
2285.73	0.772
2295.3	0.771
2304.86	0.77
2314.42	0.768
2323.99	0.762
2333.55	0.756
2343.12	0.7551
2352.68	0.7501
2362.24	0.7491
2371.81	0.746
2381.37	0.741
2390.94	0.7372
2400.5	0.733
2410.06	0.728
2419.63	0.724
2429.19	0.7177
2438.76	0.709
2448.32	0.7024
2457.88	0.6994
2467.45	0.6794
2477.01	0.6715
2486.58	0.66
2496.14	0.6541
2505.7	0.6426
2515.27	0.629
2524.83	0.6199
2534.4	0.606
2543.96	0.606
2553.52	0.606
2563.09	0.605
2572.65	0.605
2582.22	0.605
2591.78	0.6009
2601.34	0.5768
2610.91	0.5609
2620.47	0.5631
2630.04	0.5801
2639.6	0.602
2649.17	0.606
2658.73	0.607
2668.29	0.6061
2677.86	0.605
2687.42	0.6
2696.99	0.596
2706.55	0.594
2716.11	0.592
2725.68	0.5937
2735.24	0.596
2744.81	0.6
2754.37	0.6
2763.93	0.5984
2773.5	0.5864
2783.06	0.57
2792.63	0.5515
2802.19	0.5395
2811.75	0.5245
2821.32	0.5136
2830.88	0.5076
2840.45	0.4972
2850.01	0.485
2859.57	0.482
2869.14	0.483
2878.7	0.4808
2888.27	0.4776
2897.83	0.4671
2907.39	0.4422
2916.96	0.4241
2926.52	0.432
2936.09	0.437
2945.65	0.4279
2955.21	0.416
2964.78	0.417
2974.34	0.4199
2983.91	0.429
2993.47	0.431
3003.03	0.436
3012.6	0.436
3022.16	0.4406
3031.73	0.444
3041.29	0.445
3050.85	0.448
3060.42	0.448
3069.98	0.447
3079.55	0.444
3089.11	0.444
3098.67	0.4476
3108.24	0.456
3117.8	0.465
3127.37	0.4755
3136.93	0.4804
3146.49	0.483
3156.06	0.485
3165.62	0.4883
3175.19	0.491
3184.75	0.491
3194.31	0.489
3203.88	0.4808
3213.44	0.4664
3223.01	0.4498
3232.57	0.4299
3242.13	0.4114
3251.7	0.3815
3261.26	0.3588
3270.83	0.331
3280.39	0.312
3289.95	0.3001
3299.52	0.2791
3309.08	0.274
3318.65	0.2779
3328.21	0.2868
3337.78	0.3152
3347.34	0.3531
3356.9	0.393
3366.47	0.4226
3376.03	0.4491
3385.6	0.4706
3395.16	0.4951
3404.72	0.5106
3414.29	0.5186
3423.85	0.5301
3433.42	0.542
3442.98	0.549
3452.54	0.5575
3462.11	0.562
3471.67	0.573
3481.24	0.577
3490.8	0.586
3500.36	0.593
3509.93	0.6043
3519.49	0.6157
3529.06	0.629
3538.62	0.6362
3548.18	0.651
3557.75	0.6622
3567.31	0.6761
3576.88	0.6872
3586.44	0.7051
3596	0.714
3605.57	0.732
3615.13	0.7499
3624.7	0.759
3634.26	0.7718
3643.82	0.7849
3653.39	0.7968
3662.95	0.8068
3672.52	0.8215
3682.08	0.829
3691.64	0.8337
3701.21	0.838
3710.77	0.843
3720.34	0.845
3729.9	0.845
3739.46	0.846
3749.03	0.8465
3758.59	0.848
3768.16	0.848
3777.72	0.85
3787.28	0.85
3796.85	0.85
3806.41	0.85
