Infrared Spectrum: 2,4-IMIDAZOLIDINEDIONE, 1,3-BIS(CHLOROMETHYL)-5,5-DIMETHYL-
Formula: C7 H10 Cl2 N2 O2
CAS: 116401-49-1
State: SOLID (OIL MULL)
Class: COBLENTZ III
Instrument: BAIRD (GRATING)
Instrument parameters: NaCl PRISM
Resolution: 2
Origin: WYANDOTTE CHEMICALS CORP.
1/CM	TRANSMITTANCE
626	0.5138
635	0.6508
644	0.7357
653	0.7877
662	0.8041
671	0.7964
680	0.8575
689	0.9035
698	0.9077
707	0.8867
716	0.7989
725	0.7294
734	0.5417
743	0.4837
752	0.8623
761	0.8804
770	0.8319
779	0.8738
788	0.8856
797	0.8791
806	0.869
815	0.8271
824	0.7312
833	0.8685
842	0.8485
851	0.8465
860	0.8399
869	0.8301
878	0.8209
887	0.7602
896	0.5695
905	0.7422
914	0.8452
923	0.8149
932	0.787
941	0.7508
950	0.7613
959	0.7401
968	0.7185
977	0.6697
986	0.7599
995	0.7527
1004	0.7308
1013	0.6912
1022	0.66
1031	0.6515
1040	0.6309
1049	0.6315
1058	0.61
1067	0.5783
1076	0.5484
1085	0.5341
1094	0.5026
1103	0.468
1112	0.4193
1121	0.3397
1130	0.2354
1139	0.1588
1148	0.2512
1157	0.3667
1166	0.5885
1175	0.6472
1184	0.6206
1193	0.6431
1202	0.5996
1211	0.5334
1220	0.4583
1229	0.3315
1238	0.2386
1247	0.3265
1256	0.4129
1265	0.5142
1274	0.5922
1283	0.5763
1292	0.5056
1301	0.4237
1310	0.3735
1319	0.3635
1328	0.3644
1337	0.3261
1346	0.2036
1355	0.1149
1364	0.08
1373	0.0901
1382	0.1403
1391	0.2555
1400	0.4578
1409	0.6031
1418	0.3959
1427	0.5249
1436	0.3983
1445	0.3545
1454	0.2637
1463	0.1616
1472	0.1088
1481	0.2551
1490	0.6041
1499	0.7341
1508	0.7542
1517	0.7589
1526	0.7531
1535	0.7384
1544	0.737
1553	0.7219
1562	0.7148
1571	0.6963
1580	0.6675
1589	0.652
1598	0.62
1607	0.5885
1616	0.5585
1625	0.533
1634	0.51
1643	0.4797
1652	0.4437
1661	0.4082
1670	0.3505
1679	0.2774
1688	0.2042
1697	0.151
1706	0.1159
1715	0.0916
1724	0.0855
1733	0.0824
1742	0.1083
1751	0.1966
1760	0.284
1769	0.3181
1778	0.356
1787	0.4569
1796	0.5401
1805	0.6225
1814	0.7305
1823	0.7889
1832	0.8236
1841	0.8333
1850	0.8378
1859	0.8388
1868	0.8483
1877	0.8573
1886	0.8606
1895	0.8636
1904	0.8626
1913	0.861
1922	0.8598
1931	0.8588
1940	0.8585
1949	0.8583
1958	0.8578
1967	0.8566
1976	0.8537
1985	0.8492
1994	0.8445
2003	0.8394
2012	0.8341
2021	0.8295
2030	0.8251
2039	0.8199
2048	0.8148
2057	0.8097
2066	0.8051
2075	0.8007
2084	0.7962
2093	0.7919
2102	0.788
2111	0.7841
2120	0.7797
2129	0.7754
2138	0.77
2147	0.7622
2156	0.7538
2165	0.751
2174	0.7504
2183	0.7504
2192	0.7477
2201	0.7436
2210	0.7391
2219	0.7341
2228	0.7291
2237	0.7256
2246	0.7236
2255	0.7227
2264	0.7204
2273	0.7155
2282	0.7057
2291	0.6938
2300	0.6794
2309	0.6683
2318	0.661
2327	0.6569
2336	0.6546
2345	0.6539
2354	0.6561
2363	0.6622
2372	0.6626
2381	0.6621
2390	0.6588
2399	0.6516
2408	0.648
2417	0.6473
2426	0.6469
2435	0.6465
2444	0.6493
2453	0.6452
2462	0.6436
2471	0.6414
2480	0.6389
2489	0.6372
2498	0.6349
2507	0.632
2516	0.6276
2525	0.6232
2534	0.6186
2543	0.6141
2552	0.6101
2561	0.6062
2570	0.602
2579	0.5977
2588	0.5935
2597	0.5892
2606	0.5847
2615	0.5802
2624	0.5752
2633	0.5703
2642	0.5653
2651	0.5606
2660	0.5559
2669	0.5513
2678	0.5468
2687	0.5428
2696	0.5386
2705	0.5352
2714	0.5327
2723	0.5318
2732	0.5312
2741	0.5306
2750	0.5298
2759	0.5286
2768	0.5265
2777	0.5158
2786	0.4959
2795	0.4657
2804	0.4389
2813	0.4106
2822	0.3878
2831	0.2017
2840	0.0621
2849	0.029
2858	0.0261
2867	0.0254
2876	0.0245
2885	0.022
2894	0.0182
2903	0.0156
2912	0.0143
2921	0.0141
2930	0.0141
2939	0.015
2948	0.0163
2957	0.0176
2966	0.029
2975	0.0808
2984	0.1323
2993	0.1834
3002	0.2343
3011	0.268
3020	0.2953
3029	0.3172
3038	0.3369
3047	0.3498
3056	0.3589
3065	0.3673
3074	0.375
3083	0.3799
3092	0.3825
3101	0.3828
3110	0.3826
3119	0.3823
3128	0.3819
3137	0.3814
3146	0.3809
3155	0.3803
3164	0.3797
3173	0.3791
3182	0.3786
3191	0.378
3200	0.3776
3209	0.3771
3218	0.3767
3227	0.3763
3236	0.376
3245	0.3757
3254	0.3755
3263	0.3753
3272	0.3752
3281	0.375
3290	0.3749
3299	0.3748
3308	0.3747
3317	0.3747
3326	0.3747
3335	0.3748
3344	0.375
3353	0.3752
3362	0.3754
3371	0.3757
3380	0.3762
3389	0.3767
3398	0.3773
3407	0.3783
3416	0.3794
3425	0.3806
3434	0.382
3443	0.3836
3452	0.3859
3461	0.3888
3470	0.3912
3479	0.3932
3488	0.3948
3497	0.3963
3506	0.3976
3515	0.3989
3524	0.4001
3533	0.4012
3542	0.4023
3551	0.4032
3560	0.4044
3569	0.4054
3578	0.4055
3587	0.4055
3596	0.4053
3605	0.4051
3614	0.4048
3623	0.4044
3632	0.4038
3641	0.4033
3650	0.4026
3659	0.4018
3668	0.401
3677	0.4001
3686	0.3989
3695	0.3978
3704	0.3965
3713	0.3951
3722	0.3938
3731	0.3923
3740	0.3904
3749	0.3885
3758	0.3865
3767	0.3844
3776	0.3823
3785	0.3802
3794	0.3784
3803	0.3766
3812	0.3749
3821	0.3746
3830	0.3743
3839	0.3741
3848	0.3737
3857	0.3718
3866	0.369
3875	0.3662
3884	0.3635
3893	0.361
3902	0.3586
3911	0.3569
3920	0.3554
3929	0.3541
3938	0.3531
3947	0.3521
3956	0.3513
3965	0.3507
3974	0.35
3983	0.3495
3992	0.3491
