Infrared Spectrum: 1,2,3,4-TETRAHYDRO-1-(3'-METHOXY-4'-BENZYLOXYBENZYL)-9-PYRID[3,4,b] INDOLE HYDROCHLORIDE
Formula: C26 H26 N2 O2  * H Cl
CAS: 116401-20-8
State: SOLID (NUJOL MULL)
Class: COBLENTZ
Instrument: PERKIN-ELMER
Sampling: TRANSMISSION
Resolution: 4
Origin: ABBOTT LABORATORIES - WASHBURN
MICROMETERS	TRANSMITTANCE
2.027	0.312
2.067	0.324
2.107	0.336
2.14701	0.3422
2.18701	0.3541
2.22701	0.364
2.26701	0.371
2.30701	0.379
2.34702	0.3658
2.38702	0.3761
2.42702	0.386
2.46702	0.397
2.50702	0.4025
2.54702	0.4141
2.58703	0.424
2.62703	0.437
2.66703	0.442
2.70703	0.4445
2.74703	0.4572
2.78704	0.46
2.82704	0.465
2.86704	0.467
2.90704	0.4623
2.94704	0.477
2.98705	0.46
3.02705	0.4439
3.06705	0.3541
3.10705	0.3729
3.14705	0.4091
3.18705	0.415
3.22706	0.427
3.26706	0.3971
3.30706	0.3362
3.34706	0.2954
3.38706	0.1503
3.42707	0.0309
3.46707	0.023
3.50707	0.0312
3.54707	0.0628
3.58707	0.4057
3.62708	0.507
3.66708	0.51
3.70708	0.4751
3.74708	0.4229
3.78708	0.3691
3.82709	0.3711
3.86709	0.417
3.90709	0.4083
3.94709	0.3536
3.98709	0.4603
4.02709	0.497
4.0671	0.47
4.1071	0.4714
4.1471	0.45
4.1871	0.4972
4.2271	0.524
4.26711	0.54
4.30711	0.5499
4.34711	0.5655
4.38711	0.5719
4.42711	0.5751
4.46712	0.59
4.50712	0.6002
4.54712	0.605
4.58712	0.61
4.62712	0.61
4.66712	0.613
4.70713	0.62
4.74713	0.627
4.78713	0.6281
4.82713	0.63
4.86713	0.623
4.90714	0.63
4.94714	0.633
4.98714	0.637
5.02714	0.645
5.06714	0.647
5.10715	0.6495
5.14715	0.653
5.18715	0.66
5.22715	0.653
5.26715	0.66
5.30715	0.655
5.34716	0.66
5.38716	0.6652
5.42716	0.672
5.46716	0.6767
5.50716	0.6725
5.54717	0.6793
5.58717	0.6823
5.62717	0.678
5.66717	0.68
5.70717	0.683
5.74718	0.688
5.78718	0.695
5.82718	0.6884
5.86718	0.69
5.90718	0.6926
5.94719	0.685
5.98719	0.683
6.02719	0.6937
6.06719	0.703
6.10719	0.71
6.14719	0.6928
6.1872	0.672
6.2272	0.6022
6.2672	0.4689
6.3072	0.4793
6.3472	0.6374
6.38721	0.6778
6.42721	0.6912
6.46721	0.71
6.50721	0.6969
6.54721	0.5617
6.58722	0.322
6.62722	0.2671
6.66722	0.4583
6.70722	0.53
6.74722	0.5534
6.78722	0.5071
6.82723	0.1291
6.86723	0.102
6.90723	0.1036
6.94723	0.2342
6.98723	0.3152
7.02724	0.4266
7.06724	0.3833
7.10724	0.5644
7.14724	0.6028
7.18724	0.511
7.22725	0.4705
7.26725	0.3419
7.30725	0.3178
7.34725	0.424
7.38725	0.5555
7.42726	0.5682
7.46726	0.495
7.50726	0.4188
7.54726	0.5084
7.58726	0.5792
7.62726	0.5297
7.66727	0.5819
7.70727	0.505
7.74727	0.462
7.78727	0.5003
7.82727	0.4037
7.86728	0.2576
7.90728	0.2316
7.94728	0.2463
7.98728	0.3046
8.02728	0.4894
8.06729	0.5469
8.10729	0.519
8.14729	0.4585
8.18729	0.2659
8.22729	0.389
8.26729	0.5151
8.3073	0.5698
8.3473	0.5209
8.3873	0.4222
8.4273	0.4964
8.4673	0.584
8.50731	0.5852
8.54731	0.5426
8.58731	0.3513
8.62731	0.3005
8.66731	0.3928
8.70732	0.4181
8.74732	0.321
8.78732	0.281
8.82732	0.4708
8.86732	0.5314
8.90733	0.5724
8.94733	0.5861
8.98733	0.5929
9.02733	0.6087
9.06733	0.6184
9.10733	0.6321
9.14734	0.6404
9.18734	0.645
9.22734	0.6471
9.26734	0.5905
9.30734	0.6183
9.34735	0.6553
9.38735	0.668
9.42735	0.6389
9.46735	0.6187
9.50735	0.658
9.54736	0.6621
9.58736	0.665
9.62736	0.5601
9.66736	0.432
9.70736	0.4472
9.74736	0.4483
9.78737	0.2847
9.82737	0.4296
9.86737	0.494
9.90737	0.5247
9.94737	0.6026
9.98738	0.6368
10.0274	0.6398
10.0674	0.6565
10.1074	0.6673
10.1474	0.655
10.1874	0.6675
10.2274	0.68
10.2674	0.688
10.3074	0.6906
10.3474	0.6966
10.3874	0.6928
10.4274	0.7017
10.4674	0.7097
10.5074	0.708
10.5474	0.71
10.5874	0.708
10.6274	0.685
10.6674	0.668
10.7074	0.6806
10.7474	0.7072
10.7874	0.717
10.8274	0.725
10.8674	0.725
10.9074	0.7197
10.9474	0.7235
10.9874	0.6996
11.0274	0.71
11.0674	0.7044
11.1074	0.7174
11.1474	0.7315
11.1874	0.7328
11.2274	0.6964
11.2674	0.5556
11.3074	0.6131
11.3474	0.6998
11.3874	0.7156
11.4274	0.7081
11.4674	0.7125
11.5074	0.7307
11.5474	0.745
11.5875	0.7521
11.6275	0.753
11.6675	0.753
11.7075	0.7432
11.7475	0.7378
11.7875	0.7494
11.8275	0.758
11.8675	0.762
11.9075	0.7674
11.9475	0.768
11.9875	0.7705
12.0275	0.7747
12.0675	0.77
12.1075	0.775
12.1475	0.773
12.1875	0.7693
12.2275	0.7589
12.2675	0.7524
12.3075	0.7052
12.3475	0.5706
12.3875	0.5048
12.4275	0.5414
12.4675	0.6549
12.5075	0.7077
12.5475	0.7377
12.5875	0.7569
12.6275	0.7602
12.6675	0.768
12.7075	0.768
12.7475	0.758
12.7875	0.7415
12.8275	0.6996
12.8675	0.5968
12.9075	0.525
12.9475	0.6129
12.9875	0.6758
13.0275	0.6773
13.0675	0.6246
13.1075	0.5114
13.1475	0.4895
13.1875	0.4973
13.2275	0.4692
13.2675	0.5949
13.3075	0.6171
13.3475	0.5838
13.3875	0.4614
13.4275	0.2952
13.4675	0.222
13.5075	0.2419
13.5475	0.2972
13.5875	0.3264
13.6275	0.3515
13.6675	0.416
13.7076	0.5048
13.7476	0.5489
13.7876	0.5555
13.8276	0.5515
13.8676	0.5854
13.9076	0.616
13.9476	0.6416
13.9876	0.6574
14.0276	0.6623
14.0676	0.668
14.1076	0.6629
14.1476	0.6375
14.1876	0.5606
14.2276	0.4501
14.2676	0.4466
14.3076	0.5209
14.3476	0.5671
14.3876	0.6158
14.4276	0.6357
14.4676	0.653
14.5076	0.6554
14.5476	0.655
14.5876	0.65
14.6276	0.6453
14.6676	0.6341
14.7076	0.6274
14.7476	0.6075
14.7876	0.5954
14.8276	0.5693
14.8676	0.542
14.9076	0.5082
14.9476	0.4797
14.9876	0.4544
15.0276	0.4426
15.0676	0.4782
15.1076	0.5183
15.1476	0.5506
15.1876	0.567
15.2276	0.5744
15.2676	0.577
15.3076	0.579
15.3476	0.574
15.3876	0.5688
15.4276	0.56
