Infrared Spectrum: UREA, 1,1'-p-PHENYLENEBIS[3-(2-HYDROXYETHYL)-3-NITROSO-
Formula: C12 H16 N6 O6
CAS: 116401-09-3
State: SOLID (1 mg / 650 mg KBr DISC)
Class: COBLENTZ III
Instrument: PERKIN-ELMER 221 (GRATING)
Instrument parameters: FILTER AT 980 CM ^-^1, GRATING FOR 4000-1428 CM^-^1,NaCl PRISM FOR 1428-650 CM^-^1
Sampling: TRANSMISSION
Resolution: 4
Origin: SOUTHERN RES. INSTITUTE
1/CM	TRANSMITTANCE
610.278	0.69
619.402	0.69
628.527	0.69
637.651	0.684
646.775	0.671
655.899	0.639
665.024	0.608
674.148	0.591
683.272	0.618
692.396	0.656
701.521	0.697
710.645	0.732
719.769	0.749
728.894	0.75
738.018	0.681
747.142	0.567
756.266	0.674
765.391	0.426
774.515	0.637
783.639	0.734
792.764	0.749
801.888	0.745
811.012	0.738
820.136	0.602
829.261	0.454
838.385	0.57
847.509	0.59
856.633	0.577
865.758	0.657
874.882	0.744
884.006	0.744
893.131	0.735
902.255	0.772
911.379	0.803
920.503	0.808
929.628	0.805
938.752	0.757
947.876	0.63
957.001	0.359
966.125	0.239
975.249	0.359
984.373	0.514
993.498	0.292
1002.62	0.299
1011.75	0.449
1020.87	0.591
1029.99	0.687
1039.12	0.705
1048.24	0.661
1057.37	0.455
1066.49	0.56
1075.62	0.63
1084.74	0.574
1093.86	0.231
1102.99	0.132
1112.11	0.241
1121.24	0.465
1130.36	0.553
1139.49	0.648
1148.61	0.763
1157.73	0.779
1166.86	0.797
1175.98	0.812
1185.11	0.812
1194.23	0.81
1203.36	0.799
1212.48	0.71
1221.6	0.673
1230.73	0.554
1239.85	0.511
1248.98	0.633
1258.1	0.716
1267.23	0.729
1276.35	0.638
1285.47	0.511
1294.6	0.526
1303.72	0.545
1312.85	0.425
1321.97	0.389
1331.1	0.46
1340.22	0.48
1349.34	0.578
1358.47	0.619
1367.59	0.637
1376.72	0.644
1385.84	0.632
1394.97	0.537
1404.09	0.439
1413.21	0.598
1422.34	0.643
1431.46	0.663
1440.59	0.662
1449.71	0.606
1458.84	0.409
1467.96	0.298
1477.08	0.182
1486.21	0.145
1495.33	0.198
1504.46	0.254
1513.58	0.192
1522.71	0.111
1531.83	0.114
1540.95	0.198
1550.08	0.339
1559.2	0.372
1568.33	0.411
1577.45	0.513
1586.58	0.679
1595.7	0.502
1604.82	0.257
1613.95	0.497
1623.07	0.646
1632.2	0.717
1641.32	0.75
1650.45	0.778
1659.57	0.785
1668.69	0.799
1677.82	0.808
1686.94	0.78
1696.07	0.724
1705.19	0.593
1714.32	0.467
1723.44	0.384
1732.56	0.173
1741.69	0.27
1750.81	0.441
1759.94	0.611
1769.06	0.739
1778.19	0.795
1787.31	0.836
1796.43	0.858
1805.56	0.879
1814.68	0.89
1823.81	0.892
1832.93	0.899
1842.06	0.902
1851.18	0.902
1860.3	0.905
1869.43	0.907
1878.55	0.907
1887.68	0.904
1896.8	0.897
1905.93	0.905
1915.05	0.908
1924.17	0.91
1933.3	0.911
1942.42	0.913
1951.55	0.913
1960.67	0.913
1969.8	0.913
1978.92	0.912
1988.04	0.912
1997.17	0.911
2006.29	0.911
2015.42	0.911
2024.54	0.909
2033.67	0.908
2042.79	0.905
2051.91	0.905
2061.04	0.903
2070.16	0.902
2079.29	0.902
2088.41	0.902
2097.54	0.902
2106.66	0.901
2115.78	0.9
2124.91	0.899
2134.03	0.899
2143.16	0.901
2152.28	0.9
2161.41	0.899
2170.53	0.899
2179.65	0.898
2188.78	0.896
2197.9	0.894
2207.03	0.89
2216.15	0.884
2225.28	0.879
2234.4	0.875
2243.52	0.872
2252.65	0.87
2261.77	0.865
2270.9	0.862
2280.02	0.862
2289.15	0.864
2298.27	0.867
2307.39	0.87
2316.52	0.87
2325.64	0.873
2334.77	0.874
2343.89	0.874
2353.02	0.875
2362.14	0.876
2371.26	0.876
2380.39	0.876
2389.51	0.877
2398.64	0.877
2407.76	0.877
2416.88	0.876
2426.01	0.876
2435.13	0.876
2444.26	0.876
2453.38	0.876
2462.51	0.875
2471.63	0.874
2480.75	0.874
2489.88	0.873
2499	0.873
2508.13	0.873
2517.25	0.872
2526.38	0.871
2535.5	0.87
2544.62	0.87
2553.75	0.869
2562.87	0.869
2572	0.868
2581.12	0.867
2590.25	0.865
2599.37	0.864
2608.49	0.863
2617.62	0.861
2626.74	0.861
2635.87	0.86
2644.99	0.858
2654.12	0.857
2663.24	0.855
2672.36	0.854
2681.49	0.853
2690.61	0.851
2699.74	0.849
2708.86	0.848
2717.99	0.846
2727.11	0.845
2736.23	0.843
2745.36	0.841
2754.48	0.839
2763.61	0.837
2772.73	0.834
2781.86	0.832
2790.98	0.829
2800.1	0.823
2809.23	0.815
2818.35	0.809
2827.48	0.804
2836.6	0.798
2845.73	0.792
2854.85	0.788
2863.97	0.785
2873.1	0.775
2882.22	0.743
2891.35	0.716
2900.47	0.731
2909.6	0.759
2918.72	0.758
2927.84	0.736
2936.97	0.714
2946.09	0.722
2955.22	0.731
2964.34	0.727
2973.47	0.718
2982.59	0.755
2991.71	0.785
3000.84	0.785
3009.96	0.779
3019.09	0.77
3028.21	0.768
3037.34	0.766
3046.46	0.761
3055.58	0.755
3064.71	0.746
3073.83	0.735
3082.96	0.727
3092.08	0.719
3101.21	0.71
3110.33	0.691
3119.45	0.676
3128.58	0.671
3137.7	0.667
3146.83	0.656
3155.95	0.637
3165.08	0.618
3174.2	0.601
3183.32	0.591
3192.45	0.577
3201.57	0.56
3210.7	0.539
3219.82	0.528
3228.95	0.514
3238.07	0.504
3247.19	0.492
3256.32	0.473
3265.44	0.449
3274.57	0.42
3283.69	0.385
3292.82	0.343
3301.94	0.293
3311.06	0.262
3320.19	0.291
3329.31	0.324
3338.44	0.366
3347.56	0.417
3356.69	0.445
3365.81	0.481
3374.93	0.497
3384.06	0.508
3393.18	0.524
3402.31	0.545
3411.43	0.565
3420.56	0.574
3429.68	0.593
3438.8	0.605
3447.93	0.613
3457.05	0.621
3466.18	0.636
3475.3	0.65
3484.43	0.664
3493.55	0.671
3502.67	0.681
3511.8	0.69
3520.92	0.706
3530.05	0.722
3539.17	0.738
3548.3	0.751
3557.42	0.765
3566.54	0.775
3575.67	0.786
3584.79	0.799
3593.92	0.807
3603.04	0.827
3612.17	0.837
3621.29	0.844
3630.41	0.85
3639.54	0.855
3648.66	0.858
3657.79	0.862
3666.91	0.864
3676.04	0.866
3685.16	0.867
3694.28	0.867
3703.41	0.865
3712.53	0.864
3721.66	0.862
3730.78	0.861
3739.91	0.859
3749.03	0.861
3758.15	0.864
3767.28	0.867
3776.4	0.867
3785.53	0.866
3794.65	0.864
3803.78	0.863
3812.9	0.861
3822.02	0.861
3831.15	0.86
3840.27	0.859
3849.4	0.858
3858.52	0.857
3867.65	0.857
3876.77	0.857
3885.89	0.857
3895.02	0.856
3904.14	0.856
3913.27	0.856
3922.39	0.856
3931.52	0.856
3940.64	0.856
3949.76	0.856
3958.89	0.856
3968.01	0.856
3977.14	0.856
3986.26	0.855
3995.39	0.854
4004.51	0.854
