Infrared Spectrum: 1,2-BENZISOTHIAZOLIN-3-ONE, 2-(0-TOLYLSULFONYL)-, 1,1-DIOXIDE
Formula: C14 H11 N O5 S2
CAS: 116400-87-4
State: SOLID (SPLIT MULL), FLUOROLUBE FOR 3800-1330 CM^-^1, NUJOL FOR 1330-200 CM^-^1
Class: COBLENTZ III
Instrument: PERKIN-ELMER 225
Sampling: TRANSMISSION
Resolution: 2
Origin: DOW CHEMICAL COMPANY
1/CM	TRANSMITTANCE
202	0.8217
211	0.8405
220	0.8713
229	0.8737
238	0.878
247	0.886
256	0.799
265	0.8054
274	0.6904
283	0.3212
292	0.7865
301	0.7892
310	0.8094
319	0.7964
328	0.743
337	0.4819
346	0.5829
355	0.5851
364	0.6471
373	0.2173
382	0.2511
391	0.5638
400	0.1168
409	0.6474
418	0.6984
427	0.713
436	0.7196
445	0.6908
454	0.8475
463	0.8495
472	0.8589
481	0.8614
490	0.8321
499	0.5218
508	0.8482
517	0.8462
526	0.8158
535	0.7412
544	0.751
553	0.7395
562	0.8275
571	0.5745
580	0.8752
589	0.8493
598	0.6734
607	0.6499
616	0.8737
625	0.8607
634	0.7717
643	0.8894
652	0.8958
661	0.6775
670	0.8816
679	0.403
688	0.8752
697	0.8747
706	0.8425
715	0.8103
724	0.7806
733	0.7767
742	0.5595
751	0.5025
760	0.7031
769	0.6265
778	0.4735
787	0.7536
796	0.8701
805	0.8757
814	0.8688
823	0.8449
832	0.7961
841	0.6741
850	0.5545
859	0.8114
868	0.8609
877	0.87
886	0.8625
895	0.8401
904	0.8564
913	0.8534
922	0.8413
931	0.83
940	0.7689
949	0.4156
958	0.8022
967	0.8312
976	0.8268
985	0.8504
994	0.8487
1003	0.8124
1012	0.7796
1021	0.7906
1030	0.798
1039	0.7838
1048	0.6758
1057	0.7835
1066	0.7839
1075	0.7654
1084	0.5778
1093	0.7801
1102	0.7728
1111	0.7425
1120	0.6689
1129	0.4503
1138	0.5964
1147	0.6806
1156	0.6115
1165	0.3314
1174	0.1819
1183	0.3304
1192	0.1439
1201	0.416
1210	0.6912
1219	0.7375
1228	0.6397
1237	0.4971
1246	0.7011
1255	0.7355
1264	0.7478
1273	0.7046
1282	0.633
1291	0.5549
1300	0.4656
1309	0.2348
1318	0.3107
1327	0.3708
1336	0.2203
1345	0.4534
1354	0.3545
1363	0.535
1372	0.2192
1381	0.7054
1390	0.8047
1399	0.8551
1408	0.8715
1417	0.8733
1426	0.8782
1435	0.8825
1444	0.8728
1453	0.8308
1462	0.8568
1471	0.8288
1480	0.888
1489	0.879
1498	0.8621
1507	0.8433
1516	0.7753
1525	0.4089
1534	0.6756
1543	0.8528
1552	0.8453
1561	0.873
1570	0.8803
1579	0.8299
1588	0.8008
1597	0.7851
1606	0.8648
1615	0.8709
1624	0.8813
1633	0.8831
1642	0.8778
1651	0.8713
1660	0.8734
1669	0.8713
1678	0.8637
1687	0.8521
1696	0.8408
1705	0.8227
1714	0.76
1723	0.6994
1732	0.7045
1741	0.5392
1750	0.4419
1759	0.8155
1768	0.866
1777	0.8677
1786	0.8678
1795	0.8718
1804	0.8814
1813	0.8813
1822	0.8775
1831	0.8718
1840	0.8694
1849	0.8701
1858	0.8695
1867	0.8687
1876	0.8697
1885	0.8696
1894	0.8677
1903	0.8649
1912	0.863
1921	0.8607
1930	0.8596
1939	0.8585
1948	0.8574
1957	0.8571
1966	0.8552
1975	0.8536
1984	0.8503
1993	0.8461
2002	0.8385
2011	0.8333
2020	0.8311
2029	0.8304
2038	0.8299
2047	0.8295
2056	0.8291
2065	0.8286
2074	0.8283
2083	0.8278
2092	0.8274
2101	0.8264
2110	0.8245
2119	0.8235
2128	0.8238
2137	0.824
2146	0.8241
2155	0.8237
2164	0.8234
2173	0.8234
2182	0.8231
2191	0.8227
2200	0.8207
2209	0.8183
2218	0.8161
2227	0.8138
2236	0.8111
2245	0.8095
2254	0.8085
2263	0.8075
2272	0.8062
2281	0.8039
2290	0.8025
2299	0.8021
2308	0.803
2317	0.8044
2326	0.8058
2335	0.8072
2344	0.8103
2353	0.8165
2362	0.8188
2371	0.8203
2380	0.8218
2389	0.8233
2398	0.8228
2407	0.8223
2416	0.8218
2425	0.8213
2434	0.8206
2443	0.8194
2452	0.8183
2461	0.8171
2470	0.8158
2479	0.8147
2488	0.814
2497	0.8134
2506	0.8128
2515	0.8124
2524	0.8114
2533	0.8105
2542	0.8095
2551	0.8084
2560	0.8071
2569	0.8058
2578	0.8046
2587	0.8031
2596	0.8014
2605	0.7982
2614	0.7954
2623	0.7943
2632	0.793
2641	0.7912
2650	0.7896
2659	0.7885
2668	0.7875
2677	0.7865
2686	0.7857
2695	0.785
2704	0.7844
2713	0.7843
2722	0.7845
2731	0.7847
2740	0.7849
2749	0.7845
2758	0.7841
2767	0.7836
2776	0.7818
2785	0.7801
2794	0.7793
2803	0.778
2812	0.775
2821	0.7722
2830	0.7695
2839	0.7667
2848	0.7641
2857	0.7617
2866	0.7592
2875	0.7556
2884	0.7519
2893	0.7483
2902	0.7446
2911	0.7411
2920	0.7391
2929	0.7368
2938	0.7351
2947	0.7338
2956	0.7325
2965	0.7314
2974	0.7305
2983	0.7295
2992	0.7264
3001	0.7228
3010	0.7185
3019	0.7168
3028	0.7157
3037	0.7147
3046	0.7156
3055	0.7131
3064	0.7001
3073	0.6939
3082	0.6743
3091	0.6906
3100	0.7169
3109	0.7165
3118	0.7125
3127	0.7005
3136	0.7047
3145	0.7221
3154	0.7228
3163	0.7212
3172	0.7215
3181	0.721
3190	0.7206
3199	0.7197
3208	0.7185
3217	0.7172
3226	0.7165
3235	0.7156
3244	0.7144
3253	0.713
3262	0.7105
3271	0.7086
3280	0.7071
3289	0.7055
3298	0.7041
3307	0.7026
3316	0.7014
3325	0.7
3334	0.6988
3343	0.6976
3352	0.6967
3361	0.6962
3370	0.6961
3379	0.6954
3388	0.6943
3397	0.6918
3406	0.6901
3415	0.6898
3424	0.6897
3433	0.6895
3442	0.6891
3451	0.6883
3460	0.6876
3469	0.6871
3478	0.6882
3487	0.6895
3496	0.6915
3505	0.6924
3514	0.6918
3523	0.6903
3532	0.6885
3541	0.6864
3550	0.6839
3559	0.6812
3568	0.6783
3577	0.6747
3586	0.6745
3595	0.6803
3604	0.6815
3613	0.6819
3622	0.6819
3631	0.6818
3640	0.6817
3649	0.6812
3658	0.6808
3667	0.6799
3676	0.6788
3685	0.6771
3694	0.6761
3703	0.6756
3712	0.6755
3721	0.6757
3730	0.6761
3739	0.6765
3748	0.6771
3757	0.6775
3766	0.678
3775	0.6774
3784	0.6717
3793	0.6708
