Infrared Spectrum: SULFONYL-M,P'-DIBENZOIC ACID, DIPHENACYL ESTER
Formula: C30 H22 O8 S
CAS: 116465-55-5
State: SOLID (NUJOL MULL)
Class: COBLENTZ
Instrument: Not specified, most likely a prism, grating, or hybrid spectrometer.
Sampling: TRANSMISSION
Resolution: 4
Origin: TENNESSEE EASTMAN COMPANY, RESEARCH LABORATORIES
MICROMETERS	TRANSMITTANCE
2.047	0.772
2.08589	0.778
2.12477	0.78
2.16366	0.783
2.20254	0.788
2.24143	0.791
2.28031	0.777
2.3192	0.769
2.35808	0.769
2.39697	0.772
2.43585	0.775
2.47474	0.778
2.51363	0.798
2.55251	0.803
2.5914	0.806
2.63028	0.811
2.66917	0.817
2.70805	0.821
2.74694	0.826
2.78582	0.827
2.82471	0.83
2.86359	0.834
2.90248	0.832
2.94137	0.832
2.98025	0.834
3.01914	0.835
3.05802	0.84
3.09691	0.84
3.13579	0.834
3.17468	0.816
3.21356	0.811
3.25245	0.773
3.29133	0.725
3.33022	0.559
3.36911	0.123
3.40799	0.047
3.44688	0.042
3.48576	0.042
3.52465	0.373
3.56353	0.738
3.60242	0.813
3.6413	0.826
3.68019	0.816
3.71907	0.822
3.75796	0.824
3.79685	0.829
3.83573	0.84
3.87462	0.853
3.9135	0.873
3.95239	0.887
3.99127	0.904
4.03016	0.908
4.06904	0.917
4.10793	0.92
4.14681	0.92
4.1857	0.92
4.22459	0.93
4.26347	0.941
4.30236	0.944
4.34124	0.944
4.38013	0.944
4.41901	0.943
4.4579	0.946
4.49678	0.946
4.53567	0.947
4.57456	0.947
4.61344	0.951
4.65233	0.952
4.69121	0.952
4.7301	0.954
4.76898	0.96
4.80787	0.96
4.84675	0.962
4.88564	0.962
4.92452	0.962
4.96341	0.964
5.0023	0.967
5.04118	0.967
5.08007	0.967
5.11895	0.967
5.15784	0.969
5.19672	0.97
5.23561	0.97
5.27449	0.972
5.31338	0.972
5.35226	0.972
5.39115	0.973
5.43004	0.973
5.46892	0.972
5.50781	0.972
5.54669	0.973
5.58558	0.972
5.62446	0.97
5.66335	0.941
5.70223	0.798
5.74112	0.43
5.78	0.596
5.81889	0.744
5.85778	0.595
5.89666	0.351
5.93555	0.666
5.97443	0.813
6.01332	0.847
6.0522	0.873
6.09109	0.899
6.12997	0.92
6.16886	0.925
6.20774	0.923
6.24663	0.78
6.28552	0.85
6.3244	0.835
6.36329	0.9
6.40217	0.934
6.44106	0.947
6.47994	0.947
6.51883	0.947
6.55771	0.947
6.5966	0.939
6.63548	0.908
6.67437	0.861
6.71326	0.756
6.75214	0.591
6.79103	0.213
6.82991	0.203
6.8688	0.204
6.90768	0.38
6.94657	0.58
6.98545	0.661
7.02434	0.643
7.06322	0.731
7.10211	0.777
7.141	0.697
7.17988	0.642
7.21877	0.416
7.25765	0.3
7.29654	0.364
7.33542	0.486
7.37431	0.707
7.41319	0.747
7.45208	0.743
7.49096	0.452
7.52985	0.682
7.56874	0.728
7.60762	0.739
7.64651	0.681
7.68539	0.604
7.72428	0.461
7.76316	0.328
7.80205	0.282
7.84093	0.375
7.87982	0.57
7.9187	0.665
7.95759	0.7
7.99648	0.7
8.03536	0.676
8.07425	0.6
8.11313	0.419
8.15202	0.499
8.1909	0.697
8.22979	0.773
8.26867	0.822
8.30756	0.848
8.34644	0.856
8.38533	0.827
8.42422	0.76
8.4631	0.63
8.50199	0.547
8.54087	0.4
8.57976	0.279
8.61864	0.45
8.65753	0.645
8.69641	0.66
8.7353	0.653
8.77418	0.697
8.81307	0.707
8.85196	0.539
8.89084	0.414
8.92973	0.543
8.96861	0.613
9.0075	0.611
9.04638	0.684
9.08527	0.674
9.12415	0.674
9.16304	0.767
9.20193	0.806
9.24081	0.814
9.2797	0.813
9.31858	0.821
9.35747	0.848
9.39635	0.871
9.43524	0.874
9.47412	0.874
9.51301	0.873
9.55189	0.873
9.59078	0.876
9.62967	0.873
9.66855	0.869
9.70744	0.874
9.74632	0.882
9.78521	0.884
9.82409	0.798
9.86298	0.682
9.90186	0.795
9.94075	0.808
9.97963	0.816
10.0185	0.842
10.0574	0.858
10.0963	0.852
10.1352	0.852
10.1741	0.86
10.2129	0.856
10.2518	0.816
10.2907	0.751
10.3296	0.733
10.3685	0.692
10.4074	0.694
10.4463	0.757
10.4851	0.819
10.524	0.84
10.5629	0.865
10.6018	0.873
10.6407	0.874
10.6796	0.878
10.7185	0.881
10.7573	0.881
10.7962	0.881
10.8351	0.852
10.874	0.858
10.9129	0.881
10.9518	0.887
10.9907	0.902
11.0295	0.918
11.0684	0.93
11.1073	0.936
11.1462	0.941
11.1851	0.939
11.224	0.943
11.2629	0.949
11.3017	0.952
11.3406	0.952
11.3795	0.954
11.4184	0.956
11.4573	0.956
11.4962	0.917
11.5351	0.891
11.5739	0.886
11.6128	0.881
11.6517	0.918
11.6906	0.93
11.7295	0.93
11.7684	0.907
11.8073	0.881
11.8461	0.905
11.885	0.931
11.9239	0.936
11.9628	0.938
12.0017	0.936
12.0406	0.931
12.0794	0.933
12.1183	0.939
12.1572	0.941
12.1961	0.923
12.235	0.904
12.2739	0.902
12.3128	0.902
12.3516	0.902
12.3905	0.9
12.4294	0.905
12.4683	0.91
12.5072	0.904
12.5461	0.892
12.585	0.899
12.6238	0.912
12.6627	0.913
12.7016	0.92
12.7405	0.925
12.7794	0.926
12.8183	0.925
12.8572	0.912
12.896	0.873
12.9349	0.819
12.9738	0.72
13.0127	0.582
13.0516	0.497
13.0905	0.52
13.1294	0.647
13.1682	0.681
13.2071	0.676
13.246	0.668
13.2849	0.717
13.3238	0.752
13.3627	0.713
13.4016	0.593
13.4404	0.515
13.4793	0.546
13.5182	0.676
13.5571	0.733
13.596	0.756
13.6349	0.756
13.6738	0.697
13.7126	0.626
13.7515	0.637
13.7904	0.694
13.8293	0.743
13.8682	0.775
13.9071	0.8
13.946	0.813
13.9848	0.824
14.0237	0.827
14.0626	0.83
14.1015	0.832
14.1404	0.832
14.1793	0.829
14.2181	0.817
14.257	0.803
14.2959	0.791
14.3348	0.756
14.3737	0.669
14.4126	0.569
14.4515	0.479
14.4903	0.455
14.5292	0.482
14.5681	0.554
14.607	0.596
14.6459	0.6
14.6848	0.6
14.7237	0.6
14.7625	0.6
14.8014	0.6
14.8403	0.6
14.8792	0.635
14.9181	0.663
14.957	0.687
14.9959	0.712
15.0347	0.726
15.0736	0.73
15.1125	0.73
15.1514	0.73
15.1903	0.73
15.2292	0.73
15.2681	0.728
15.3069	0.725
15.3458	0.72
15.3847	0.718
15.4236	0.718
15.4625	0.718
15.5014	0.718
15.5403	0.72
15.5791	0.72
15.618	0.72
15.6569	0.72
15.6958	0.72
15.7347	0.72
15.7736	0.721
15.8125	0.721
15.8513	0.723
15.8902	0.723
15.9291	0.723
15.968	0.723
