Infrared Spectrum: BENZENE, 2,4-DIMETHYL-1-(2-PROPYNOXY)-
Formula: C11 H12 O
CAS: 116435-18-8
State: SOLUTION (10% IN CCl4 FOR 3800-1330, 10% IN CS2 FOR 1330-450 CM^-^1)
Class: COBLENTZ III
Instrument: DOW KBr FOREPRISM-GRATING
Instrument parameters: BLAZED AT 3.5, 12.0, 20.0 MICRON; GRATING CHANGES AT 5.0, 7.5, 14.9 MICRON
Sampling: TRANSMISSION
Path length: 0.011 AND 0.011 CM
Resolution: 4
Origin: DOW CHEMICAL COMPANY
1/CM	TRANSMITTANCE
450.315	0.917
458.596	0.917
466.877	0.917
475.157	0.924
483.438	1.001
491.719	1.009
500	1.014
508.28	1.012
516.561	1.012
524.842	1.011
533.123	0.979
541.403	0.88
549.684	0.915
557.965	0.829
566.246	0.99
574.526	0.987
582.807	0.998
591.088	0.977
599.369	0.9501
607.649	0.884
615.93	0.711
624.211	0.1704
632.492	0.1279
640.772	0.4999
649.053	0.615
657.334	0.4791
665.615	0.126
673.895	0.4808
682.176	0.8117
690.457	0.9219
698.738	0.944
707.018	0.757
715.299	0.957
723.58	1.016
731.861	1.029
740.141	0.9851
748.422	0.777
756.703	1.003
764.984	0.981
773.264	1.003
781.545	0.955
789.826	0.6967
798.107	0.047
806.387	0.4279
814.668	0.8139
822.949	0.893
831.23	0.985
839.51	0.959
847.791	0.88
856.072	0.832
864.353	0.819
872.633	0.4306
880.914	0.8539
889.195	0.961
897.476	0.985
905.756	0.961
914.037	0.8161
922.318	0.6692
930.599	0.84
938.88	0.935
947.16	0.983
955.441	0.957
963.722	0.93
972.003	0.893
980.283	0.893
988.564	0.882
996.845	0.801
1005.13	0.5443
1013.41	0.3819
1021.69	0.3511
1029.97	0.069
1038.25	0.0549
1046.53	0.5528
1054.81	0.867
1063.09	0.941
1071.37	0.972
1079.65	0.992
1087.93	0.977
1096.21	0.955
1104.49	0.887
1112.78	0.784
1121.06	0.6082
1129.34	0.0913
1137.62	0.2969
1145.9	0.731
1154.18	0.7619
1162.46	0.735
1170.74	0.876
1179.02	0.928
1187.3	0.895
1195.58	0.746
1203.86	0.2665
1212.14	0.02
1220.43	0.064
1228.71	0.1388
1236.99	0.503
1245.27	0.354
1253.55	0.1827
1261.83	0.2841
1270.11	0.2398
1278.39	0.716
1286.67	0.7111
1294.95	0.58
1303.23	0.362
1311.51	0.6796
1319.79	0.821
1328.07	0.821
1336.36	0.816
1344.64	0.818
1352.92	0.808
1361.2	0.623
1369.48	0.562
1377.76	0.527
1386.04	0.86
1394.32	0.9
1402.6	0.882
1410.88	0.858
1419.16	0.841
1427.44	0.7661
1435.72	0.619
1444.01	0.54
1452.29	0.4311
1460.57	0.4959
1468.85	0.65
1477.13	0.6021
1485.41	0.49
1493.69	0.233
1501.97	0.003
1510.25	0.0599
1518.53	0.3559
1526.81	0.536
1535.09	0.516
1543.37	0.468
1551.66	0.474
1559.94	0.5509
1568.22	0.6249
1576.5	0.658
1584.78	0.667
1593.06	0.702
1601.34	0.737
1609.62	0.678
1617.9	0.788
1626.18	0.935
1634.46	0.996
1642.74	1.009
1651.02	1.005
1659.31	0.99
1667.59	0.981
1675.87	0.992
1684.15	0.998
1692.43	0.998
1700.71	0.992
1708.99	0.981
1717.27	0.974
1725.55	0.97
1733.83	0.966
1742.11	0.961
1750.39	0.974
1758.67	0.988
1766.95	0.99
1775.24	0.988
1783.52	0.985
1791.8	0.979
1800.08	0.979
1808.36	0.987
1816.64	0.987
1824.92	0.983
1833.2	0.966
1841.48	0.944
1849.76	0.955
1858.04	0.981
1866.32	0.988
1874.6	0.99
1882.89	0.99
1891.17	0.99
1899.45	0.988
1907.73	0.985
1916.01	0.987
1924.29	0.987
1932.57	0.987
1940.85	0.983
1949.13	0.983
1957.41	0.983
1965.69	0.983
1973.97	0.983
1982.25	0.983
1990.54	0.977
1998.82	0.972
2007.1	0.97
2015.38	0.973
2023.66	0.977
2031.94	0.967
2040.22	0.959
2048.5	0.957
2056.78	0.955
2065.06	0.957
2073.34	0.9789
2081.62	0.984
2089.9	0.985
2098.19	0.985
2106.47	0.981
2114.75	0.9627
2123.03	0.889
2131.31	0.9439
2139.59	0.9658
2147.87	0.994
2156.15	0.994
2164.43	0.994
2172.71	0.996
2180.99	0.994
2189.27	0.994
2197.55	0.9931
2205.83	0.992
2214.12	0.9911
2222.4	0.9881
2230.68	0.9866
2238.96	0.9831
2247.24	0.9801
2255.52	0.979
2263.8	0.979
2272.08	0.977
2280.36	0.974
2288.64	0.974
2296.92	0.974
2305.2	0.9769
2313.48	0.979
2321.77	0.9874
2330.05	1.0004
2338.33	1.0001
2346.61	0.9943
2354.89	0.9901
2363.17	0.988
2371.45	0.987
2379.73	0.987
2388.01	0.985
2396.29	0.985
2404.57	0.981
2412.85	0.979
2421.13	0.981
2429.42	0.9839
2437.7	0.987
2445.98	0.987
2454.26	0.987
2462.54	0.987
2470.82	0.987
2479.1	0.987
2487.38	0.987
2495.66	0.987
2503.94	0.987
2512.22	0.987
2520.5	0.987
2528.78	0.987
2537.07	0.987
2545.35	0.987
2553.63	0.987
2561.91	0.987
2570.19	0.987
2578.47	0.987
2586.75	0.987
2595.03	0.987
2603.31	0.987
2611.59	0.987
2619.87	0.987
2628.15	0.987
2636.43	0.987
2644.71	0.987
2653	0.987
2661.28	0.985
2669.56	0.985
2677.84	0.983
2686.12	0.9792
2694.4	0.9766
2702.68	0.9685
2710.96	0.9615
2719.24	0.9553
2727.52	0.9282
2735.8	0.9175
2744.08	0.9603
2752.36	0.9783
2760.65	0.977
2768.93	0.9743
2777.21	0.9673
2785.49	0.9633
2793.77	0.9583
2802.05	0.9446
2810.33	0.933
2818.61	0.92
2826.89	0.9008
2835.17	0.8557
2843.45	0.7847
2851.73	0.6677
2860.01	0.5309
2868.3	0.5267
2876.58	0.6016
2884.86	0.641
2893.14	0.6068
2901.42	0.545
2909.7	0.4205
2917.98	0.3199
2926.26	0.2619
2934.54	0.4433
2942.82	0.4823
2951.1	0.46
2959.38	0.4633
2967.66	0.5341
2975.95	0.586
2984.23	0.6228
2992.51	0.6653
3000.79	0.6695
3009.07	0.6085
3017.35	0.5803
3025.63	0.626
3033.91	0.6933
3042.19	0.7384
3050.47	0.8106
3058.75	0.8575
3067.03	0.8853
3075.31	0.9046
3083.59	0.9337
3091.88	0.9502
3100.16	0.9622
3108.44	0.9686
3116.72	0.97
3125	0.9763
3133.28	0.9918
3141.56	1.001
3149.84	1.003
3158.12	1.003
3166.4	1.003
3174.68	1.003
3182.96	1.001
3191.24	1.001
3199.53	1.001
3207.81	1.0007
3216.09	1
3224.37	0.998
3232.65	0.996
3240.93	0.992
3249.21	0.9839
3257.49	0.9717
3265.77	0.9574
3274.05	0.9015
3282.33	0.834
3290.61	0.7349
3298.89	0.57
3307.18	0.3626
3315.46	0.0859
3323.74	0.3765
3332.02	0.8412
3340.3	0.9489
3348.58	0.9783
3356.86	0.99
3365.14	0.9995
3373.42	1.0021
3381.7	1.007
3389.98	1.011
3398.26	1.009
3406.54	1.009
3414.83	1.0075
3423.11	1.007
3431.39	1.005
3439.67	1.003
3447.95	1.003
3456.23	1.001
3464.51	1
3472.79	0.998
3481.07	0.9965
3489.35	0.9955
3497.63	0.994
3505.91	0.994
3514.19	0.994
3522.47	0.992
3530.76	0.992
3539.04	0.992
3547.32	0.992
3555.6	0.992
3563.88	0.99
3572.16	0.99
3580.44	0.99
3588.72	0.99
3597	0.99
3605.28	0.988
3613.56	0.988
3621.84	0.988
3630.12	0.988
3638.41	0.9878
3646.69	0.987
3654.97	0.987
3663.25	0.987
3671.53	0.987
3679.81	0.987
3688.09	0.987
3696.37	0.987
3704.65	0.987
3712.93	0.987
