Infrared Spectrum: DISULFIDE, BIS(2-THENOYL)-
Formula: C10 H6 O2 S4
CAS: 116401-30-0
State: SOLID (NUJOL MULL)
Class: COBLENTZ III
Instrument: PERKIN-ELMER 21 (GRATING)
Instrument parameters: NaCl PRISM
Sampling: TRANSMISSION
Resolution: 2
Origin: SMITH KLINE & FRENCH LABS.
MICROMETERS	TRANSMITTANCE
2	0.669
2.03433	0.674
2.06865	0.68
2.10298	0.689
2.13731	0.692
2.17163	0.698
2.20596	0.713
2.24028	0.718
2.27461	0.719
2.30894	0.722
2.34326	0.722
2.37759	0.722
2.41192	0.722
2.44624	0.724
2.48057	0.729
2.5149	0.731
2.54922	0.74
2.58355	0.741
2.61788	0.742
2.6522	0.747
2.68653	0.749
2.72085	0.751
2.75518	0.751
2.78951	0.752
2.82383	0.752
2.85816	0.752
2.89249	0.751
2.92681	0.742
2.96114	0.73
2.99547	0.73
3.02979	0.729
3.06412	0.728
3.09845	0.73
3.13277	0.734
3.1671	0.738
3.20142	0.741
3.23575	0.742
3.27008	0.736
3.3044	0.736
3.33873	0.738
3.37306	0.713
3.40738	0.303
3.44171	0.17
3.47604	0.201
3.51036	0.25
3.54469	0.313
3.57902	0.586
3.61334	0.697
3.64767	0.74
3.68199	0.753
3.71632	0.758
3.75065	0.762
3.78497	0.762
3.8193	0.768
3.85363	0.773
3.88795	0.778
3.92228	0.779
3.95661	0.785
3.99093	0.791
4.02526	0.798
4.05958	0.801
4.09391	0.804
4.12824	0.805
4.16256	0.807
4.19689	0.81
4.23122	0.81
4.26554	0.809
4.29987	0.807
4.3342	0.81
4.36852	0.812
4.40285	0.813
4.43718	0.818
4.4715	0.822
4.50583	0.821
4.54015	0.821
4.57448	0.822
4.60881	0.821
4.64313	0.824
4.67746	0.824
4.71179	0.827
4.74611	0.827
4.78044	0.827
4.81477	0.827
4.84909	0.828
4.88342	0.828
4.91775	0.832
4.95207	0.832
4.9864	0.832
5.02072	0.834
5.05505	0.832
5.08938	0.832
5.1237	0.833
5.15803	0.834
5.19236	0.834
5.22668	0.837
5.26101	0.838
5.29534	0.839
5.32966	0.839
5.36399	0.84
5.39832	0.842
5.43264	0.843
5.46697	0.839
5.50129	0.833
5.53562	0.835
5.56995	0.842
5.60427	0.843
5.6386	0.84
5.67293	0.839
5.70725	0.838
5.74158	0.834
5.77591	0.838
5.81023	0.839
5.84456	0.838
5.87888	0.834
5.91321	0.805
5.94754	0.473
5.98186	0.4
6.01619	0.554
6.05052	0.651
6.08484	0.669
6.11917	0.744
6.1535	0.78
6.18782	0.793
6.22215	0.804
6.25648	0.812
6.2908	0.813
6.32513	0.811
6.35945	0.802
6.39378	0.801
6.42811	0.806
6.46243	0.817
6.49676	0.822
6.53109	0.824
6.56541	0.832
6.59974	0.831
6.63407	0.749
6.66839	0.772
6.70272	0.788
6.73705	0.804
6.77137	0.788
6.8057	0.708
6.84002	0.539
6.87435	0.531
6.90868	0.563
6.943	0.648
6.97733	0.701
7.01166	0.749
7.04598	0.78
7.08031	0.777
7.11464	0.498
7.14896	0.548
7.18329	0.714
7.21762	0.767
7.25194	0.711
7.28627	0.665
7.32059	0.703
7.35492	0.742
7.38925	0.766
7.42357	0.768
7.4579	0.685
7.49223	0.751
7.52655	0.773
7.56088	0.788
7.59521	0.799
7.62953	0.801
7.66386	0.8
7.69818	0.8
7.73251	0.8
7.76684	0.8
7.80116	0.801
7.83549	0.802
7.86982	0.809
7.90414	0.811
7.93847	0.812
7.9728	0.812
8.00712	0.812
8.04145	0.82
8.07578	0.821
8.1101	0.809
8.14443	0.592
8.17875	0.706
8.21308	0.75
8.24741	0.769
8.28173	0.701
8.31606	0.6
8.35039	0.402
8.38471	0.416
8.41904	0.6
8.45337	0.708
8.48769	0.742
8.52202	0.761
8.55635	0.761
8.59067	0.768
8.625	0.766
8.65932	0.761
8.69365	0.762
8.72798	0.767
8.7623	0.771
8.79663	0.771
8.83096	0.769
8.86528	0.771
8.89961	0.768
8.93394	0.768
8.96826	0.768
9.00259	0.768
9.03692	0.764
9.07124	0.76
9.10557	0.76
9.13989	0.76
9.17422	0.758
9.20855	0.758
9.24287	0.758
9.2772	0.757
9.31153	0.742
9.34585	0.649
9.38018	0.69
9.41451	0.725
9.44883	0.735
9.48316	0.675
9.51748	0.542
9.55181	0.66
9.58614	0.717
9.62046	0.75
9.65479	0.758
9.68912	0.757
9.72344	0.757
9.75777	0.762
9.7921	0.766
9.82642	0.769
9.86075	0.769
9.89508	0.771
9.9294	0.777
9.96373	0.779
9.99805	0.78
10.0324	0.782
10.0667	0.782
10.101	0.782
10.1354	0.782
10.1697	0.782
10.204	0.785
10.2383	0.787
10.2727	0.789
10.307	0.795
10.3413	0.798
10.3756	0.8
10.41	0.8
10.4443	0.798
10.4786	0.796
10.513	0.798
10.5473	0.798
10.5816	0.799
10.6159	0.8
10.6503	0.801
10.6846	0.806
10.7189	0.809
10.7532	0.809
10.7876	0.81
10.8219	0.81
10.8562	0.811
10.8905	0.811
10.9249	0.81
10.9592	0.811
10.9935	0.815
11.0278	0.82
11.0622	0.823
11.0965	0.824
11.1308	0.829
11.1652	0.831
11.1995	0.831
11.2338	0.829
11.2681	0.824
11.3025	0.823
11.3368	0.824
11.3711	0.827
11.4054	0.824
11.4398	0.82
11.4741	0.801
11.5084	0.799
11.5427	0.798
11.5771	0.771
11.6114	0.758
11.6457	0.779
11.68	0.789
11.7144	0.789
11.7487	0.764
11.783	0.762
11.8174	0.757
11.8517	0.762
11.886	0.776
11.9203	0.789
11.9547	0.796
11.989	0.801
12.0233	0.804
12.0576	0.805
12.092	0.809
12.1263	0.81
12.1606	0.812
12.1949	0.812
12.2293	0.812
12.2636	0.812
12.2979	0.813
12.3323	0.815
12.3666	0.816
12.4009	0.813
12.4352	0.811
12.4696	0.791
12.5039	0.762
12.5382	0.7
12.5725	0.521
12.6069	0.391
12.6412	0.287
12.6755	0.252
12.7098	0.303
12.7442	0.419
12.7785	0.549
12.8128	0.629
12.8471	0.67
12.8815	0.708
12.9158	0.741
12.9501	0.749
12.9845	0.762
13.0188	0.771
13.0531	0.774
13.0874	0.777
13.1218	0.779
13.1561	0.789
13.1904	0.789
13.2247	0.793
13.2591	0.794
13.2934	0.794
13.3277	0.794
13.362	0.794
13.3964	0.793
13.4307	0.793
13.465	0.784
13.4993	0.782
13.5337	0.779
13.568	0.771
13.6023	0.718
13.6367	0.559
13.671	0.476
13.7053	0.466
13.7396	0.443
13.774	0.429
13.8083	0.483
13.8426	0.577
13.8769	0.64
13.9113	0.679
13.9456	0.701
13.9799	0.709
14.0142	0.728
14.0486	0.741
14.0829	0.745
14.1172	0.751
14.1516	0.752
14.1859	0.757
14.2202	0.762
14.2545	0.766
14.2889	0.766
14.3232	0.766
14.3575	0.766
14.3918	0.766
14.4262	0.768
14.4605	0.769
14.4948	0.767
14.5291	0.766
14.5635	0.764
14.5978	0.763
14.6321	0.761
14.6664	0.731
14.7008	0.682
14.7351	0.675
14.7694	0.671
14.8038	0.674
14.8381	0.706
14.8724	0.722
14.9067	0.733
14.9411	0.733
14.9754	0.731
