Infrared Spectrum: N-(2-OCTANOYLMERCAPTO) ETHYLOCTANAMIDE
Formula: C18 H35 N O2 S
CAS: 116401-75-3
State: SOLID (MINERAL OIL MULL)
Melting point: 64-65 C
Class: COBLENTZ
Instrument: Not specified, most likely a prism, grating, or hybrid spectrometer.
Sampling: TRANSMISSION
Resolution: 4
Origin: ARTHUR D. LITTLE, INC.
MICROMETERS	TRANSMITTANCE
2.029	0.782
2.06586	0.784
2.10272	0.784
2.13958	0.784
2.17644	0.785
2.2133	0.785
2.25016	0.785
2.28702	0.787
2.32388	0.782
2.36074	0.777
2.3976	0.774
2.43446	0.776
2.47132	0.779
2.50818	0.784
2.54504	0.787
2.5819	0.788
2.61876	0.793
2.65562	0.797
2.69248	0.803
2.72934	0.807
2.7662	0.808
2.80306	0.813
2.83992	0.814
2.87678	0.817
2.91364	0.817
2.9505	0.81
2.98736	0.676
3.02422	0.298
3.06108	0.448
3.09794	0.681
3.1348	0.696
3.17166	0.747
3.20852	0.758
3.24539	0.704
3.28225	0.676
3.31911	0.699
3.35597	0.529
3.39283	0.192
3.42969	0.108
3.46655	0.191
3.50341	0.196
3.54027	0.494
3.57713	0.681
3.61399	0.725
3.65085	0.753
3.68771	0.764
3.72457	0.782
3.76143	0.787
3.79829	0.788
3.83515	0.793
3.87201	0.805
3.90887	0.814
3.94573	0.825
3.98259	0.83
4.01945	0.834
4.05631	0.836
4.09317	0.84
4.13003	0.84
4.16689	0.84
4.20375	0.843
4.24061	0.845
4.27747	0.846
4.31433	0.848
4.35119	0.851
4.38805	0.848
4.42491	0.848
4.46177	0.849
4.49863	0.851
4.53549	0.852
4.57235	0.854
4.60921	0.859
4.64607	0.856
4.68293	0.857
4.71979	0.86
4.75665	0.86
4.79351	0.86
4.83037	0.862
4.86723	0.862
4.90409	0.862
4.94095	0.862
4.97781	0.862
5.01467	0.863
5.05153	0.863
5.08839	0.865
5.12525	0.865
5.16211	0.865
5.19897	0.865
5.23583	0.865
5.27269	0.866
5.30955	0.866
5.34641	0.869
5.38327	0.872
5.42013	0.872
5.45699	0.872
5.49385	0.871
5.53071	0.869
5.56757	0.866
5.60443	0.862
5.64129	0.852
5.67816	0.842
5.71502	0.816
5.75188	0.777
5.78874	0.712
5.8256	0.652
5.86246	0.411
5.89932	0.234
5.93618	0.572
5.97304	0.635
6.0099	0.48
6.04676	0.215
6.08362	0.179
6.12048	0.485
6.15734	0.569
6.1942	0.669
6.23106	0.73
6.26792	0.744
6.30478	0.735
6.34164	0.719
6.3785	0.598
6.41536	0.264
6.45222	0.399
6.48908	0.606
6.52594	0.712
6.5628	0.745
6.59966	0.765
6.63652	0.776
6.67338	0.77
6.71024	0.713
6.7471	0.529
6.78396	0.277
6.82082	0.427
6.85768	0.499
6.89454	0.558
6.9314	0.574
6.96826	0.638
7.00512	0.511
7.04198	0.373
7.07884	0.364
7.1157	0.477
7.15256	0.566
7.18942	0.558
7.22628	0.54
7.26314	0.548
7.3	0.597
7.33686	0.526
7.37372	0.584
7.41058	0.69
7.44744	0.716
7.4843	0.735
7.52116	0.732
7.55802	0.733
7.59488	0.742
7.63174	0.738
7.6686	0.728
7.70546	0.738
7.74232	0.722
7.77918	0.695
7.81604	0.705
7.8529	0.735
7.88976	0.762
7.92662	0.784
7.96348	0.759
8.00034	0.641
8.0372	0.615
8.07406	0.702
8.11093	0.773
8.14779	0.794
8.18465	0.794
8.22151	0.773
8.25837	0.684
8.29523	0.735
8.33209	0.727
8.36895	0.765
8.40581	0.8
8.44267	0.816
8.47953	0.826
8.51639	0.837
8.55325	0.842
8.59011	0.845
8.62697	0.842
8.66383	0.843
8.70069	0.846
8.73755	0.846
8.77441	0.848
8.81127	0.84
8.84813	0.813
8.88499	0.794
8.92185	0.822
8.95871	0.839
8.99557	0.842
9.03243	0.843
9.06929	0.843
9.10615	0.846
9.14301	0.851
9.17987	0.851
9.21673	0.849
9.25359	0.845
9.29045	0.84
9.32731	0.82
9.36417	0.811
9.40103	0.811
9.43789	0.808
9.47475	0.787
9.51161	0.79
9.54847	0.807
9.58533	0.819
9.62219	0.819
9.65905	0.768
9.69591	0.698
9.73277	0.753
9.76963	0.764
9.80649	0.765
9.84335	0.762
9.88021	0.758
9.91707	0.768
9.95393	0.797
9.99079	0.816
10.0277	0.808
10.0645	0.811
10.1014	0.817
10.1382	0.819
10.1751	0.814
10.212	0.793
10.2488	0.754
10.2857	0.715
10.3225	0.715
10.3594	0.75
10.3963	0.788
10.4331	0.799
10.47	0.807
10.5068	0.81
10.5437	0.817
10.5806	0.831
10.6174	0.845
10.6543	0.851
10.6911	0.851
10.728	0.854
10.7649	0.86
10.8017	0.863
10.8386	0.865
10.8754	0.862
10.9123	0.851
10.9492	0.825
10.986	0.819
11.0229	0.82
11.0597	0.826
11.0966	0.848
11.1335	0.852
11.1703	0.851
11.2072	0.843
11.244	0.857
11.2809	0.874
11.3178	0.88
11.3546	0.883
11.3915	0.886
11.4283	0.889
11.4652	0.891
11.5021	0.891
11.5389	0.891
11.5758	0.892
11.6126	0.894
11.6495	0.892
11.6864	0.892
11.7232	0.892
11.7601	0.892
11.7969	0.891
11.8338	0.889
11.8707	0.886
11.9075	0.882
11.9444	0.875
11.9812	0.875
12.0181	0.879
12.055	0.883
12.0918	0.883
12.1287	0.885
12.1655	0.885
12.2024	0.885
12.2393	0.886
12.2761	0.886
12.313	0.886
12.3498	0.885
12.3867	0.885
12.4236	0.886
12.4604	0.885
12.4973	0.883
12.5341	0.882
12.571	0.88
12.6079	0.879
12.6447	0.875
12.6816	0.875
12.7184	0.868
12.7553	0.857
12.7922	0.846
12.829	0.825
12.8659	0.788
12.9027	0.736
12.9396	0.716
12.9765	0.741
13.0133	0.767
13.0502	0.79
13.087	0.797
13.1239	0.803
13.1608	0.813
13.1976	0.823
13.2345	0.83
13.2713	0.831
13.3082	0.828
13.3451	0.826
13.3819	0.826
13.4188	0.823
13.4556	0.82
13.4925	0.816
13.5294	0.81
13.5662	0.794
13.6031	0.791
13.6399	0.788
13.6768	0.768
13.7137	0.751
13.7505	0.727
13.7874	0.683
13.8242	0.615
13.8611	0.557
13.898	0.557
13.9348	0.589
13.9717	0.615
14.0085	0.635
14.0454	0.647
14.0823	0.644
14.1191	0.638
14.156	0.626
14.1929	0.62
14.2297	0.614
14.2666	0.607
14.3034	0.604
14.3403	0.606
14.3772	0.607
14.414	0.612
14.4509	0.62
14.4877	0.635
14.5246	0.643
14.5615	0.649
14.5983	0.658
14.6352	0.663
14.672	0.67
14.7089	0.673
14.7458	0.676
14.7826	0.683
14.8195	0.681
14.8563	0.675
14.8932	0.656
14.9301	0.65
14.9669	0.646
