Infrared Spectrum: BENZAMIDE, o-(METHYLAMINO)-N-n-PROPYL-
Formula: C11 H16 N2 O
CAS: 116465-89-5
State: SOLUTION 7% (CS2 FOR 7.5-15 microns, AND CCl4 FOR 2.5-7.5 microns)
Class: COBLENTZ III
Instrument: PERKIN-ELMER 21 (GRATING)
Instrument parameters: FILTER AT ABOUT 10 MICRONS
Path length: 0.01 CM
Resolution: 2
Origin: ABBOTT LABORATORIES
1/CM	TRANSMITTANCE
650	0.7419
659	0.6915
668	0.7972
677	0.7981
686	0.7893
695	0.7213
704	0.6465
713	0.7862
722	0.7818
731	0.6708
740	0.1905
749	0.3617
758	0.7377
767	0.7753
776	0.7865
785	0.7693
794	0.7532
803	0.7917
812	0.8198
821	0.8009
830	0.784
839	0.713
848	0.828
857	0.8331
866	0.8509
875	0.8389
884	0.8183
893	0.8545
902	0.8343
911	0.8067
920	0.8068
929	0.8038
938	0.8445
947	0.853
956	0.8488
965	0.8451
974	0.8351
983	0.8437
992	0.8251
1001	0.8403
1010	0.8389
1019	0.8293
1028	0.8002
1037	0.7106
1046	0.7834
1055	0.7936
1064	0.7258
1073	0.7934
1082	0.7823
1091	0.7979
1100	0.7873
1109	0.7847
1118	0.7647
1127	0.7422
1136	0.64
1145	0.6103
1154	0.5922
1163	0.2082
1172	0.5413
1181	0.7422
1190	0.7437
1199	0.708
1208	0.6022
1217	0.409
1226	0.2957
1235	0.3311
1244	0.3192
1253	0.2971
1262	0.1478
1271	0.1701
1280	0.2782
1289	0.4837
1298	0.5148
1307	0.4631
1316	0.4142
1325	0.5169
1334	0.6792
1343	0.7429
1352	0.7362
1361	0.7271
1370	0.6839
1379	0.7128
1388	0.7524
1397	0.7372
1406	0.6168
1415	0.368
1424	0.5164
1433	0.5989
1442	0.5382
1451	0.4578
1460	0.46
1469	0.3302
1478	0.4568
1487	0.2803
1496	0.1174
1505	0.0743
1514	0.0926
1523	0.1607
1532	0.4252
1541	0.5922
1550	0.6216
1559	0.5443
1568	0.2916
1577	0.1865
1586	0.3667
1595	0.4064
1604	0.5481
1613	0.428
1622	0.2202
1631	0.0607
1640	0.0681
1649	0.1742
1658	0.4651
1667	0.7042
1676	0.7573
1685	0.7956
1694	0.8226
1703	0.8436
1712	0.8607
1721	0.8711
1730	0.8759
1739	0.8791
1748	0.8815
1757	0.8855
1766	0.8953
1775	0.9014
1784	0.8976
1793	0.8953
1802	0.9009
1811	0.9085
1820	0.9093
1829	0.9088
1838	0.9079
1847	0.9067
1856	0.9055
1865	0.9042
1874	0.9033
1883	0.9024
1892	0.9025
1901	0.9029
1910	0.9041
1919	0.9105
1928	0.9202
1937	0.9219
1946	0.9229
1955	0.9237
1964	0.9243
1973	0.9247
1982	0.9247
1991	0.9247
2000	0.9244
2009	0.9239
2018	0.9233
2027	0.9229
2036	0.9233
2045	0.9237
2054	0.9248
2063	0.9232
2072	0.9214
2081	0.9208
2090	0.9217
2099	0.9231
2108	0.9244
2117	0.925
2126	0.9256
2135	0.9261
2144	0.9265
2153	0.9269
2162	0.9273
2171	0.9274
2180	0.9264
2189	0.9251
2198	0.9237
2207	0.9239
2216	0.9241
2225	0.9244
2234	0.9245
2243	0.9248
2252	0.9255
2261	0.9266
2270	0.9278
2279	0.9288
2288	0.929
2297	0.9292
2306	0.9278
2315	0.9258
2324	0.9239
2333	0.9227
2342	0.9222
2351	0.9225
2360	0.9229
2369	0.9235
2378	0.9241
2387	0.9248
2396	0.9254
2405	0.9257
2414	0.9259
2423	0.9254
2432	0.9243
2441	0.9209
2450	0.9175
2459	0.9146
2468	0.9125
2477	0.9107
2486	0.9091
2495	0.9083
2504	0.9075
2513	0.9067
2522	0.9061
2531	0.9056
2540	0.9052
2549	0.9047
2558	0.9043
2567	0.9039
2576	0.9035
2585	0.9032
2594	0.9028
2603	0.9024
2612	0.9022
2621	0.9018
2630	0.9008
2639	0.899
2648	0.8966
2657	0.8939
2666	0.8911
2675	0.8877
2684	0.8844
2693	0.8805
2702	0.8765
2711	0.8727
2720	0.8693
2729	0.8654
2738	0.855
2747	0.8134
2756	0.7729
2765	0.7328
2774	0.7059
2783	0.7005
2792	0.7302
2801	0.7415
2810	0.6066
2819	0.5721
2828	0.5491
2837	0.5373
2846	0.5279
2855	0.5206
2864	0.5089
2873	0.4859
2882	0.4745
2891	0.4725
2900	0.4884
2909	0.4927
2918	0.471
2927	0.4688
2936	0.5392
2945	0.6123
2954	0.6849
2963	0.7571
2972	0.8017
2981	0.8057
2990	0.8056
2999	0.8045
3008	0.804
3017	0.8056
3026	0.813
3035	0.8165
3044	0.8261
3053	0.844
3062	0.8617
3071	0.8794
3080	0.8906
3089	0.8913
3098	0.8907
3107	0.8898
3116	0.8877
3125	0.885
3134	0.8817
3143	0.8779
3152	0.8732
3161	0.8671
3170	0.86
3179	0.8505
3188	0.84
3197	0.8285
3206	0.8149
3215	0.7825
3224	0.7503
3233	0.7182
3242	0.6864
3251	0.6547
3260	0.6231
3269	0.5918
3278	0.5606
3287	0.5296
3296	0.4988
3305	0.4865
3314	0.4952
3323	0.5313
3332	0.5689
3341	0.6063
3350	0.6435
3359	0.6805
3368	0.7173
3377	0.7424
3386	0.7433
3395	0.7355
3404	0.7264
3413	0.7196
3422	0.753
3431	0.8609
3440	0.9031
3449	0.9129
3458	0.9181
3467	0.9216
3476	0.9241
3485	0.9262
3494	0.9283
3503	0.9306
3512	0.9329
3521	0.9351
3530	0.9367
3539	0.9381
3548	0.9389
3557	0.9395
3566	0.94
3575	0.9406
3584	0.9408
3593	0.9408
3602	0.9408
3611	0.9409
3620	0.9409
3629	0.9408
3638	0.9407
3647	0.9405
3656	0.9403
3665	0.9398
3674	0.9392
3683	0.9386
3692	0.938
3701	0.9374
3710	0.9368
3719	0.9363
3728	0.9357
3737	0.9351
3746	0.9347
3755	0.9341
3764	0.934
3773	0.9338
3782	0.9337
3791	0.9338
3800	0.9345
3809	0.9355
3818	0.9365
3827	0.9375
3836	0.9393
3845	0.9414
3854	0.9433
3863	0.9448
3872	0.9458
3881	0.9465
3890	0.9469
3899	0.9469
3908	0.9469
3917	0.9469
3926	0.9467
3935	0.9464
3944	0.9461
3953	0.9458
3962	0.9456
3971	0.9454
3980	0.9451
3989	0.9448
3998	0.9447
