Infrared Spectrum: p-(PHENYLDIMETHYLSILYL)PHENYL-p-BROMOPHENYL ETHER
Formula: C20 H19 Br O Si
CAS: 116402-57-4
State: LIQUID
Class: COBLENTZ
Instrument: Not specified, most likely a prism, grating, or hybrid spectrometer.
Sampling: TRANSMISSION
Path length: 0.0015 CM
Resolution: 4
Origin: WYANDOTTE CHEMICALS CORP., WYANDOTTE, MICHIGAN, USA
MICROMETERS	TRANSMITTANCE
2.027	0.977
2.0679	0.967
2.10879	0.97
2.14969	0.972
2.19059	0.972
2.23148	0.962
2.27238	0.96
2.31328	0.963
2.35418	0.963
2.39507	0.943
2.43597	0.955
2.47687	0.967
2.51776	0.967
2.55866	0.963
2.59956	0.962
2.64045	0.962
2.68135	0.95
2.72225	0.948
2.76315	0.953
2.80404	0.955
2.84494	0.95
2.88584	0.95
2.92673	0.944
2.96763	0.936
3.00853	0.929
3.04942	0.922
3.09032	0.915
3.13122	0.903
3.17212	0.881
3.21301	0.846
3.25391	0.624
3.29481	0.564
3.3357	0.709
3.3766	0.487
3.4175	0.815
3.45839	0.786
3.49929	0.864
3.54019	0.886
3.58108	0.896
3.62198	0.92
3.66288	0.931
3.70378	0.939
3.74467	0.936
3.78557	0.95
3.82647	0.956
3.86736	0.956
3.90826	0.953
3.94916	0.936
3.99005	0.944
4.03095	0.929
4.07185	0.925
4.11275	0.913
4.15364	0.895
4.19454	0.908
4.23544	0.905
4.27633	0.922
4.31723	0.92
4.35813	0.92
4.39902	0.955
4.43992	0.963
4.48082	0.948
4.52172	0.951
4.56261	0.967
4.60351	0.962
4.64441	0.972
4.6853	0.972
4.7262	0.969
4.7671	0.97
4.80799	0.956
4.84889	0.936
4.88979	0.919
4.93069	0.941
4.97158	0.907
5.01248	0.881
5.05338	0.917
5.09427	0.932
5.13517	0.917
5.17607	0.884
5.21696	0.917
5.25786	0.915
5.29876	0.82
5.33965	0.795
5.38055	0.855
5.42145	0.927
5.46235	0.929
5.50324	0.925
5.54414	0.912
5.58504	0.929
5.62593	0.912
5.66683	0.898
5.70773	0.891
5.74862	0.903
5.78952	0.913
5.83042	0.908
5.87132	0.898
5.91221	0.882
5.95311	0.853
5.99401	0.824
6.0349	0.79
6.0758	0.777
6.1167	0.781
6.15759	0.769
6.19849	0.605
6.23939	0.234
6.28029	0.049
6.32118	0.246
6.36208	0.506
6.40298	0.755
6.44387	0.769
6.48477	0.772
6.52567	0.734
6.56656	0.664
6.60746	0.442
6.64836	0.091
6.68925	0.053
6.73015	0.03
6.77105	0.332
6.81195	0.53
6.85284	0.586
6.89374	0.635
6.93464	0.621
6.97553	0.299
7.01643	0.545
7.05733	0.581
7.09822	0.502
7.13912	0.493
7.18002	0.492
7.22092	0.702
7.26181	0.755
7.30271	0.798
7.34361	0.822
7.3845	0.812
7.4254	0.779
7.4663	0.748
7.50719	0.769
7.54809	0.721
7.58899	0.647
7.62989	0.493
7.67078	0.576
7.71168	0.507
7.75258	0.435
7.79347	0.301
7.83437	0.139
7.87527	0.067
7.91616	0.036
7.95706	0.034
7.99796	0.025
8.03885	0.022
8.07975	0.024
8.12065	0.029
8.16155	0.075
8.20244	0.237
8.24334	0.395
8.28424	0.327
8.32513	0.333
8.36603	0.552
8.40693	0.605
8.44782	0.688
8.48872	0.44
8.52962	0.091
8.57052	0.296
8.61141	0.492
8.65231	0.712
8.69321	0.8
8.7341	0.796
8.775	0.788
8.8159	0.741
8.85679	0.633
8.89769	0.383
8.93859	0.072
8.97949	0.036
9.02038	0.061
9.06128	0.13
9.10218	0.275
9.14307	0.509
9.18397	0.628
9.22487	0.657
9.26576	0.588
9.30666	0.277
9.34756	0.118
9.38846	0.445
9.42935	0.707
9.47025	0.781
9.51115	0.803
9.55204	0.822
9.59294	0.826
9.63384	0.817
9.67473	0.793
9.71563	0.762
9.75653	0.779
9.79742	0.734
9.83832	0.555
9.87922	0.266
9.92012	0.191
9.96101	0.583
10.0019	0.635
10.0428	0.8
10.0837	0.839
10.1246	0.85
10.1655	0.86
10.2064	0.877
10.2473	0.879
10.2882	0.865
10.3291	0.853
10.37	0.853
10.4109	0.855
10.4518	0.855
10.4927	0.85
10.5336	0.838
10.5745	0.824
10.6154	0.808
10.6563	0.802
10.6972	0.803
10.7381	0.812
10.779	0.817
10.8198	0.817
10.8607	0.812
10.9016	0.784
10.9425	0.767
10.9834	0.767
11.0243	0.779
11.0652	0.79
11.1061	0.798
11.147	0.803
11.1879	0.802
11.2288	0.802
11.2697	0.779
11.3106	0.762
11.3515	0.726
11.3924	0.647
11.4333	0.481
11.4742	0.225
11.5151	0.108
11.556	0.154
11.5969	0.289
11.6378	0.399
11.6787	0.387
11.7196	0.309
11.7605	0.213
11.8014	0.142
11.8423	0.103
11.8832	0.092
11.9241	0.08
11.965	0.055
12.0059	0.032
12.0468	0.032
12.0877	0.034
12.1286	0.032
12.1694	0.03
12.2103	0.029
12.2512	0.029
12.2921	0.025
12.333	0.029
12.3739	0.027
12.4148	0.039
12.4557	0.077
12.4966	0.175
12.5375	0.289
12.5784	0.378
12.6193	0.438
12.6602	0.461
12.7011	0.456
12.742	0.378
12.7829	0.235
12.8238	0.132
12.8647	0.074
12.9056	0.049
12.9465	0.055
12.9874	0.142
13.0283	0.302
13.0692	0.43
13.1101	0.531
13.151	0.573
13.1919	0.583
13.2328	0.545
13.2737	0.475
13.3146	0.426
13.3555	0.432
13.3964	0.468
13.4373	0.475
13.4782	0.426
13.519	0.327
13.5599	0.234
13.6008	0.184
13.6417	0.153
13.6826	0.139
13.7235	0.146
13.7644	0.191
13.8053	0.27
13.8462	0.352
13.8871	0.413
13.928	0.449
13.9689	0.475
14.0098	0.488
14.0507	0.493
14.0916	0.457
14.1325	0.394
14.1734	0.296
14.2143	0.213
14.2552	0.149
14.2961	0.118
14.337	0.113
14.3779	0.135
14.4188	0.192
14.4597	0.294
14.5006	0.407
14.5415	0.512
14.5824	0.588
14.6233	0.641
14.6642	0.686
14.7051	0.709
14.746	0.722
14.7869	0.724
14.8278	0.714
14.8686	0.683
14.9095	0.648
14.9504	0.617
14.9913	0.6
15.0322	0.592
15.0731	0.619
15.114	0.667
15.1549	0.71
15.1958	0.741
15.2367	0.76
15.2776	0.769
15.3185	0.769
15.3594	0.762
15.4003	0.748
15.4412	0.729
15.4821	0.719
15.523	0.712
15.5639	0.705
15.6048	0.688
15.6457	0.683
15.6866	0.669
15.7275	0.667
15.7684	0.669
15.8093	0.679
15.8502	0.685
15.8911	0.69
15.932	0.698
15.9729	0.69
