Infrared Spectrum: 1,3-CYCLOBUTANEDIOL, 2,2,4,4-TETRAMETHYL-, NONANOATE, 2-ETHYLHEXANOATE
Formula: C25 H46 O4
CAS: 116401-23-1
Class: COBLENTZ
Instrument: Not specified, most likely a prism, grating, or hybrid spectrometer.
Sampling: TRANSMISSION
Path length: SMEAR
Resolution: 4
Origin: TENNESSEE EASTMAN COMPANY, RESEARCH LABORATORIES
MICROMETERS	TRANSMITTANCE
2.027	0.979
2.0679	0.979
2.10879	0.982
2.14969	0.982
2.19059	0.986
2.23148	0.979
2.27238	0.907
2.31328	0.837
2.35418	0.852
2.39507	0.861
2.43597	0.868
2.47687	0.876
2.51776	0.909
2.55866	0.924
2.59956	0.935
2.64045	0.94
2.68135	0.947
2.72225	0.948
2.76315	0.948
2.80404	0.952
2.84494	0.955
2.88584	0.948
2.92673	0.887
2.96763	0.945
3.00853	0.948
3.04942	0.948
3.09032	0.948
3.13122	0.928
3.17212	0.892
3.21301	0.894
3.25391	0.895
3.29481	0.835
3.3357	0.555
3.3766	0.001
3.4175	0.02
3.45839	0.099
3.49929	0.15
3.54019	0.61
3.58108	0.748
3.62198	0.823
3.66288	0.829
3.70378	0.827
3.74467	0.856
3.78557	0.856
3.82647	0.878
3.86736	0.897
3.90826	0.912
3.94916	0.928
3.99005	0.931
4.03095	0.94
4.07185	0.94
4.11275	0.941
4.15364	0.941
4.19454	0.941
4.23544	0.94
4.27633	0.924
4.31723	0.912
4.35813	0.912
4.39902	0.923
4.43992	0.933
4.48082	0.94
4.52172	0.943
4.56261	0.941
4.60351	0.94
4.64441	0.935
4.6853	0.929
4.7262	0.924
4.7671	0.919
4.80799	0.919
4.84889	0.926
4.88979	0.928
4.93069	0.929
4.97158	0.938
5.01248	0.95
5.05338	0.952
5.09427	0.952
5.13517	0.952
5.17607	0.952
5.21696	0.95
5.25786	0.95
5.29876	0.947
5.33965	0.941
5.38055	0.929
5.42145	0.911
5.46235	0.895
5.50324	0.859
5.54414	0.825
5.58504	0.781
5.62593	0.7
5.66683	0.511
5.70773	0.128
5.74862	0.027
5.78952	0.078
5.83042	0.347
5.87132	0.517
5.91221	0.606
5.95311	0.709
5.99401	0.781
6.0349	0.82
6.0758	0.823
6.1167	0.846
6.15759	0.856
6.19849	0.863
6.23939	0.873
6.28029	0.88
6.32118	0.885
6.36208	0.88
6.40298	0.863
6.44387	0.863
6.48477	0.849
6.52567	0.847
6.56656	0.83
6.60746	0.815
6.64836	0.789
6.68925	0.747
6.73015	0.6
6.77105	0.188
6.81195	0.104
6.85284	0.145
6.89374	0.247
6.93464	0.367
6.97553	0.512
7.01643	0.519
7.05733	0.553
7.09822	0.591
7.13912	0.512
7.18002	0.365
7.22092	0.145
7.26181	0.138
7.30271	0.2
7.34361	0.312
7.3845	0.382
7.4254	0.386
7.4663	0.389
7.50719	0.43
7.54809	0.439
7.58899	0.425
7.62989	0.413
7.67078	0.389
7.71168	0.376
7.75258	0.369
7.79347	0.316
7.83437	0.295
7.87527	0.251
7.91616	0.198
7.95706	0.167
7.99796	0.136
8.03885	0.133
8.07975	0.164
8.12065	0.167
8.16155	0.14
8.20244	0.145
8.24334	0.155
8.28424	0.148
8.32513	0.131
8.36603	0.124
8.40693	0.109
8.44782	0.076
8.48872	0.047
8.52962	0.032
8.57052	0.029
8.61141	0.03
8.65231	0.042
8.69321	0.052
8.7341	0.052
8.775	0.111
8.8159	0.203
8.85679	0.215
8.89769	0.167
8.93859	0.136
8.97949	0.123
9.02038	0.119
9.06128	0.119
9.10218	0.121
9.14307	0.182
9.18397	0.266
9.22487	0.294
9.26576	0.294
9.30666	0.287
9.34756	0.285
9.38846	0.287
9.42935	0.273
9.47025	0.258
9.51115	0.23
9.55204	0.213
9.59294	0.21
9.63384	0.194
9.67473	0.169
9.71563	0.164
9.75653	0.184
9.79742	0.196
9.83832	0.177
9.87922	0.169
9.92012	0.169
9.96101	0.164
10.0019	0.165
10.0428	0.218
10.0837	0.256
10.1246	0.3
10.1655	0.347
10.2064	0.442
10.2473	0.536
10.2882	0.596
10.3291	0.632
10.37	0.642
10.4109	0.63
10.4518	0.577
10.4927	0.557
10.5336	0.603
10.5745	0.63
10.6154	0.644
10.6563	0.647
10.6972	0.658
10.7381	0.663
10.779	0.663
10.8198	0.661
10.8607	0.649
10.9016	0.637
10.9425	0.639
10.9834	0.656
11.0243	0.666
11.0652	0.673
11.1061	0.688
11.147	0.707
11.1879	0.726
11.2288	0.738
11.2697	0.74
11.3106	0.743
11.3515	0.741
11.3924	0.738
11.4333	0.729
11.4742	0.728
11.5151	0.74
11.556	0.76
11.5969	0.777
11.6378	0.791
11.6787	0.801
11.7196	0.805
11.7605	0.808
11.8014	0.81
11.8423	0.813
11.8832	0.813
11.9241	0.813
11.965	0.817
12.0059	0.818
12.0468	0.818
12.0877	0.82
12.1286	0.82
12.1694	0.82
12.2103	0.818
12.2512	0.81
12.2921	0.794
12.333	0.772
12.3739	0.735
12.4148	0.707
12.4557	0.687
12.4966	0.682
12.5375	0.69
12.5784	0.702
12.6193	0.716
12.6602	0.726
12.7011	0.735
12.742	0.729
12.7829	0.711
12.8238	0.692
12.8647	0.688
12.9056	0.702
12.9465	0.723
12.9874	0.743
13.0283	0.757
13.0692	0.77
13.1101	0.77
13.151	0.762
13.1919	0.743
13.2328	0.721
13.2737	0.697
13.3146	0.685
13.3555	0.682
13.3964	0.683
13.4373	0.69
13.4782	0.688
13.519	0.675
13.5599	0.651
13.6008	0.641
13.6417	0.629
13.6826	0.613
13.7235	0.603
13.7644	0.596
13.8053	0.62
13.8462	0.658
13.8871	0.69
13.928	0.714
13.9689	0.733
14.0098	0.747
14.0507	0.753
14.0916	0.762
14.1325	0.769
14.1734	0.772
14.2143	0.776
14.2552	0.779
14.2961	0.779
14.337	0.782
14.3779	0.781
14.4188	0.781
14.4597	0.781
14.5006	0.779
14.5415	0.777
14.5824	0.77
14.6233	0.765
14.6642	0.758
14.7051	0.753
14.746	0.748
14.7869	0.741
14.8278	0.735
14.8686	0.729
14.9095	0.719
14.9504	0.709
14.9913	0.7
15.0322	0.699
15.0731	0.697
15.114	0.69
15.1549	0.685
15.1958	0.678
15.2367	0.668
15.2776	0.661
15.3185	0.651
15.3594	0.644
15.4003	0.639
15.4412	0.637
15.4821	0.632
15.523	0.627
15.5639	0.622
15.6048	0.617
15.6457	0.611
15.6866	0.608
15.7275	0.603
15.7684	0.601
15.8093	0.601
15.8502	0.598
15.8911	0.593
15.932	0.591
15.9729	0.588
