Infrared Spectrum: 1-PHENYL-2-PYRAZYL-TETRAFLUOROETHANE
Formula: C12 H8 F4 N2
CAS: 116403-10-2
State: SOLID (MINERAL OIL MULL)
Melting point: 75-76 C
Class: COBLENTZ
Instrument: Not specified, most likely a prism, grating, or hybrid spectrometer.
Sampling: TRANSMISSION
Resolution: 4
Origin: WYANDOTTE CHEMICALS CORP., WYANDOTTE, MICHIGAN, USA
MICROMETERS	TRANSMITTANCE
2.034	0.592
2.07488	0.595
2.11575	0.599
2.15663	0.604
2.19751	0.604
2.23838	0.604
2.27926	0.604
2.32014	0.609
2.36101	0.614
2.40189	0.611
2.44277	0.626
2.48364	0.631
2.52452	0.63
2.5654	0.642
2.60627	0.657
2.64715	0.648
2.68803	0.654
2.7289	0.647
2.76978	0.654
2.81065	0.645
2.85153	0.638
2.89241	0.642
2.93328	0.633
2.97416	0.631
3.01504	0.631
3.05591	0.635
3.09679	0.636
3.13767	0.63
3.17854	0.618
3.21942	0.614
3.2603	0.476
3.30117	0.518
3.34205	0.327
3.38293	0.095
3.4238	0.075
3.46468	0.179
3.50556	0.198
3.54643	0.549
3.58731	0.734
3.62819	0.744
3.66906	0.753
3.70994	0.755
3.75082	0.758
3.79169	0.761
3.83257	0.77
3.87345	0.772
3.91432	0.779
3.9552	0.791
3.99608	0.796
4.03695	0.794
4.07783	0.799
4.11871	0.803
4.15958	0.808
4.20046	0.811
4.24134	0.792
4.28221	0.755
4.32309	0.782
4.36396	0.827
4.40484	0.856
4.44572	0.837
4.48659	0.84
4.52747	0.839
4.56835	0.84
4.60922	0.847
4.6501	0.849
4.69098	0.857
4.73185	0.856
4.77273	0.859
4.81361	0.868
4.85448	0.871
4.89536	0.88
4.93624	0.876
4.97711	0.876
5.01799	0.886
5.05887	0.875
5.09974	0.869
5.14062	0.863
5.1815	0.859
5.22237	0.875
5.26325	0.839
5.30413	0.885
5.345	0.885
5.38588	0.895
5.42676	0.876
5.46763	0.876
5.50851	0.881
5.54939	0.866
5.59026	0.89
5.63114	0.869
5.67202	0.893
5.71289	0.878
5.75377	0.886
5.79465	0.847
5.83552	0.854
5.8764	0.869
5.91727	0.857
5.95815	0.863
5.99903	0.847
6.0399	0.868
6.08078	0.863
6.12166	0.852
6.16253	0.866
6.20341	0.88
6.24429	0.897
6.28516	0.905
6.32604	0.909
6.36692	0.893
6.40779	0.897
6.44867	0.883
6.48955	0.885
6.53042	0.88
6.5713	0.892
6.61218	0.849
6.65305	0.772
6.69393	0.729
6.73481	0.589
6.77568	0.405
6.81656	0.356
6.85744	0.236
6.89831	0.614
6.93919	0.78
6.98007	0.845
7.02094	0.811
7.06182	0.453
7.1027	0.589
7.14357	0.77
7.18445	0.688
7.22533	0.599
7.2662	0.712
7.30708	0.768
7.34796	0.837
7.38883	0.833
7.42971	0.835
7.47058	0.864
7.51146	0.799
7.55234	0.782
7.59321	0.761
7.63409	0.731
7.67497	0.734
7.71584	0.66
7.75672	0.621
7.7976	0.417
7.83847	0.255
7.87935	0.172
7.92023	0.32
7.9611	0.474
8.00198	0.568
8.04286	0.66
8.08373	0.683
8.12461	0.722
8.16549	0.782
8.20636	0.789
8.24724	0.797
8.28812	0.784
8.32899	0.727
8.36987	0.594
8.41075	0.392
8.45162	0.59
8.4925	0.611
8.53338	0.465
8.57425	0.405
8.61513	0.465
8.65601	0.472
8.69688	0.395
8.73776	0.339
8.77864	0.263
8.81951	0.16
8.86039	0.121
8.90126	0.07
8.94214	0.039
8.98302	0.035
9.02389	0.032
9.06477	0.068
9.10565	0.145
9.14652	0.241
9.1874	0.294
9.22828	0.332
9.26915	0.246
9.31003	0.113
9.35091	0.099
9.39178	0.279
9.43266	0.47
9.47354	0.595
9.51441	0.626
9.55529	0.39
9.59617	0.491
9.63704	0.625
9.67792	0.566
9.7188	0.455
9.75967	0.315
9.80055	0.082
9.84143	0.304
9.8823	0.506
9.92318	0.535
9.96406	0.613
10.0049	0.686
10.0458	0.698
10.0867	0.7
10.1276	0.707
10.1684	0.748
10.2093	0.768
10.2502	0.775
10.2911	0.785
10.3319	0.796
10.3728	0.785
10.4137	0.782
10.4546	0.808
10.4955	0.82
10.5363	0.832
10.5772	0.823
10.6181	0.804
10.659	0.76
10.6998	0.63
10.7407	0.376
10.7816	0.64
10.8225	0.758
10.8633	0.785
10.9042	0.777
10.9451	0.748
10.986	0.7
11.0268	0.695
11.0677	0.664
11.1086	0.537
11.1495	0.318
11.1904	0.135
11.2312	0.169
11.2721	0.402
11.313	0.571
11.3539	0.66
11.3947	0.715
11.4356	0.736
11.4765	0.705
11.5174	0.688
11.5582	0.719
11.5991	0.703
11.64	0.647
11.6809	0.508
11.7217	0.332
11.7626	0.196
11.8035	0.407
11.8444	0.602
11.8853	0.751
11.9261	0.808
11.967	0.839
12.0079	0.856
12.0488	0.864
12.0896	0.876
12.1305	0.881
12.1714	0.892
12.2123	0.895
12.2531	0.898
12.294	0.898
12.3349	0.897
12.3758	0.892
12.4167	0.89
12.4575	0.888
12.4984	0.886
12.5393	0.883
12.5802	0.876
12.621	0.876
12.6619	0.878
12.7028	0.871
12.7437	0.863
12.7845	0.839
12.8254	0.804
12.8663	0.76
12.9072	0.669
12.948	0.527
12.9889	0.332
13.0298	0.239
13.0707	0.243
13.1116	0.308
13.1524	0.568
13.1933	0.787
13.2342	0.871
13.2751	0.9
13.3159	0.912
13.3568	0.909
13.3977	0.878
13.4386	0.813
13.4794	0.666
13.5203	0.53
13.5612	0.587
13.6021	0.763
13.6429	0.83
13.6838	0.839
13.7247	0.828
13.7656	0.842
13.8065	0.84
13.8473	0.833
13.8882	0.83
13.9291	0.837
13.97	0.837
14.0108	0.818
14.0517	0.792
14.0926	0.756
14.1335	0.683
14.1743	0.618
14.2152	0.488
14.2561	0.332
14.297	0.208
14.3378	0.157
14.3787	0.184
14.4196	0.291
14.4605	0.486
14.5014	0.63
14.5422	0.744
14.5831	0.796
14.624	0.818
14.6649	0.818
14.7057	0.796
14.7466	0.719
14.7875	0.628
14.8284	0.517
14.8692	0.441
14.9101	0.464
14.951	0.559
14.9919	0.63
15.0328	0.683
15.0736	0.758
15.1145	0.801
15.1554	0.809
15.1963	0.784
15.2371	0.731
15.278	0.678
15.3189	0.654
15.3598	0.683
15.4006	0.708
15.4415	0.731
15.4824	0.744
15.5233	0.746
15.5641	0.743
15.605	0.741
15.6459	0.734
15.6868	0.731
15.7277	0.72
15.7685	0.72
15.8094	0.7
15.8503	0.69
15.8912	0.679
15.932	0.676
