Infrared Spectrum: Imidazole-4(5)-carboxylic acid, 5(4)-amino-, methyl ester, hydrochloride
Formula: C5 H8 Cl N3 O2
CAS: 116401-54-8
State: SOLID (1 mg / 650 mg KBr DISC)
Class: COBLENTZ III
Instrument: PERKIN-ELMER 21 (GRATING)
Instrument parameters: FILTER CHANGE ABOUT 1020 CM^-^1
Resolution: 2
Origin: SOUTHERN RESEARCH INSTITUTE
1/CM	TRANSMITTANCE
605	0.5573
614.022	0.5582
623.044	0.561
632.065	0.5669
641.087	0.5776
650.109	0.5928
659.131	0.6066
668.153	0.6244
677.175	0.6267
686.196	0.6247
695.218	0.6245
704.24	0.6136
713.262	0.5513
722.284	0.5583
731.305	0.6591
740.327	0.6491
749.349	0.6004
758.371	0.4233
767.393	0.3926
776.415	0.4614
785.436	0.3761
794.458	0.2637
803.48	0.3656
812.502	0.5897
821.524	0.734
830.545	0.7515
839.567	0.7562
848.589	0.7563
857.611	0.75
866.633	0.7125
875.655	0.6643
884.676	0.5726
893.698	0.5173
902.72	0.5787
911.742	0.5764
920.764	0.5964
929.785	0.6766
938.807	0.7083
947.829	0.693
956.851	0.5768
965.873	0.4571
974.895	0.6684
983.916	0.7252
992.938	0.7238
1001.96	0.7187
1010.98	0.7011
1020	0.6542
1029.03	0.6641
1038.05	0.6643
1047.07	0.666
1056.09	0.6635
1065.11	0.6535
1074.13	0.6366
1083.16	0.6111
1092.18	0.5796
1101.2	0.5303
1110.22	0.487
1119.24	0.5215
1128.27	0.5469
1137.29	0.4984
1146.31	0.3288
1155.33	0.2509
1164.35	0.2885
1173.37	0.2084
1182.4	0.2952
1191.42	0.4198
1200.44	0.3274
1209.46	0.2869
1218.48	0.4983
1227.51	0.6822
1236.53	0.7291
1245.55	0.7214
1254.57	0.648
1263.59	0.7781
1272.61	0.7866
1281.64	0.7791
1290.66	0.7616
1299.68	0.6971
1308.7	0.6254
1317.72	0.5517
1326.75	0.2939
1335.77	0.1295
1344.79	0.3375
1353.81	0.5049
1362.83	0.6009
1371.85	0.6504
1380.88	0.6606
1389.9	0.6532
1398.92	0.6609
1407.94	0.6595
1416.96	0.6118
1425.99	0.3461
1435.01	0.4022
1444.03	0.1167
1453.05	0.21
1462.07	0.4451
1471.09	0.5713
1480.12	0.6557
1489.14	0.6584
1498.16	0.6447
1507.18	0.6252
1516.2	0.5875
1525.23	0.4337
1534.25	0.3451
1543.27	0.4688
1552.29	0.4967
1561.31	0.503
1570.33	0.4768
1579.36	0.3665
1588.38	0.3229
1597.4	0.4132
1606.42	0.4205
1615.44	0.333
1624.47	0.2415
1633.49	0.1591
1642.51	0.0206
1651.53	0.017
1660.55	0.0268
1669.57	0.2021
1678.6	0.1528
1687.62	0.0129
1696.64	0.0076
1705.66	0.0286
1714.68	0.123
1723.71	0.214
1732.73	0.3295
1741.75	0.4824
1750.77	0.6391
1759.79	0.6962
1768.81	0.7187
1777.84	0.7207
1786.86	0.7126
1795.88	0.7128
1804.9	0.726
1813.92	0.7367
1822.95	0.7482
1831.97	0.7713
1840.99	0.7984
1850.01	0.8227
1859.03	0.8386
1868.05	0.8474
1877.08	0.8537
1886.1	0.8589
1895.12	0.8629
1904.14	0.8634
1913.16	0.8633
1922.19	0.863
1931.21	0.8634
1940.23	0.8723
1949.25	0.8727
1958.27	0.8719
1967.29	0.8728
1976.32	0.874
1985.34	0.8769
1994.36	0.8763
2003.38	0.876
2012.4	0.8758
2021.43	0.8761
2030.45	0.8776
2039.47	0.8772
2048.49	0.8757
2057.51	0.874
2066.53	0.8724
2075.56	0.8706
2084.58	0.8688
2093.6	0.8667
2102.62	0.8645
2111.64	0.8624
2120.67	0.8603
2129.69	0.8582
2138.71	0.8568
2147.73	0.8579
2156.75	0.8591
2165.77	0.8596
2174.8	0.8599
2183.82	0.8591
2192.84	0.8574
2201.86	0.8547
2210.88	0.85
2219.91	0.8452
2228.93	0.8402
2237.95	0.8328
2246.97	0.8223
2255.99	0.811
2265.01	0.8035
2274.04	0.7971
2283.06	0.7883
2292.08	0.776
2301.1	0.7626
2310.12	0.7466
2319.15	0.7246
2328.17	0.6925
2337.19	0.6668
2346.21	0.6556
2355.23	0.6477
2364.25	0.6448
2373.28	0.6446
2382.3	0.6438
2391.32	0.6284
2400.34	0.6024
2409.36	0.5784
2418.39	0.5626
2427.41	0.551
2436.43	0.5386
2445.45	0.5238
2454.47	0.5015
2463.49	0.4647
2472.52	0.423
2481.54	0.3945
2490.56	0.3802
2499.58	0.3716
2508.6	0.3665
2517.63	0.3602
2526.65	0.3461
2535.67	0.3285
2544.69	0.3044
2553.71	0.2796
2562.73	0.2603
2571.76	0.2417
2580.78	0.2232
2589.8	0.2079
2598.82	0.1951
2607.84	0.1754
2616.87	0.1605
2625.89	0.151
2634.91	0.1449
2643.93	0.1422
2652.95	0.1395
2661.97	0.1403
2671	0.1477
2680.02	0.1577
2689.04	0.1575
2698.06	0.1529
2707.08	0.1474
2716.11	0.1441
2725.13	0.1429
2734.15	0.1435
2743.17	0.1456
2752.19	0.1481
2761.21	0.1512
2770.24	0.1544
2779.26	0.1578
2788.28	0.1616
2797.3	0.1648
2806.32	0.171
2815.35	0.1879
2824.37	0.2068
2833.39	0.2236
2842.41	0.242
2851.43	0.2506
2860.45	0.2505
2869.48	0.2442
2878.5	0.2301
2887.52	0.2312
2896.54	0.2346
2905.56	0.2396
2914.59	0.2457
2923.61	0.2572
2932.63	0.2604
2941.65	0.2605
2950.67	0.2603
2959.69	0.2607
2968.72	0.2633
2977.74	0.2674
2986.76	0.2725
2995.78	0.277
3004.8	0.2811
3013.83	0.2827
3022.85	0.287
3031.87	0.2873
3040.89	0.286
3049.91	0.2825
3058.93	0.2776
3067.96	0.2731
3076.98	0.2663
3086	0.2585
3095.02	0.2487
3104.04	0.2332
3113.07	0.2066
3122.09	0.1833
3131.11	0.1674
3140.13	0.1559
3149.15	0.1472
3158.17	0.1434
3167.2	0.1411
3176.22	0.1398
3185.24	0.1392
3194.26	0.1395
3203.28	0.1389
3212.31	0.1321
3221.33	0.1151
3230.35	0.1019
3239.37	0.0894
3248.39	0.0865
3257.41	0.0861
3266.44	0.0858
3275.46	0.0894
3284.48	0.1013
3293.5	0.1145
3302.52	0.1229
3311.55	0.1364
3320.57	0.1533
3329.59	0.1817
3338.61	0.2406
3347.63	0.2608
3356.65	0.2743
3365.68	0.2778
3374.7	0.2759
3383.72	0.263
3392.74	0.2385
3401.76	0.2171
3410.79	0.2202
3419.81	0.2326
3428.83	0.2676
3437.85	0.3225
3446.87	0.3687
3455.89	0.4197
3464.92	0.4731
3473.94	0.5117
3482.96	0.5442
3491.98	0.5811
3501	0.6119
3510.03	0.641
3519.05	0.6683
3528.07	0.6886
3537.09	0.7049
3546.11	0.7181
3555.13	0.7293
3564.16	0.7399
3573.18	0.7475
3582.2	0.7507
3591.22	0.7532
3600.24	0.7567
3609.27	0.7698
3618.29	0.7881
3627.31	0.8004
3636.33	0.807
3645.35	0.8163
3654.37	0.8244
3663.4	0.826
3672.42	0.8289
3681.44	0.8304
3690.46	0.8309
3699.48	0.8309
3708.51	0.8309
3717.53	0.8314
3726.55	0.8319
3735.57	0.8326
3744.59	0.8333
3753.61	0.834
3762.64	0.8347
3771.66	0.8353
3780.68	0.8356
3789.7	0.8358
3798.72	0.8361
3807.75	0.8363
3816.77	0.8361
3825.79	0.8359
3834.81	0.8353
3843.83	0.8284
3852.85	0.8264
3861.88	0.8251
3870.9	0.8247
3879.92	0.8245
3888.94	0.8243
3897.96	0.8242
3906.99	0.824
