Infrared Spectrum: 2-NORBORNANOL, 3-(PIPERIDINOMETHYL)-, MIXTURE OF ENDO- AND EXO- ISOMERS
Formula: C13 H23 N O
CAS: 116404-29-6
State: SOLUTION (10% CCl4 FOR 3800-1330, 10% CS2 FOR 1330-460 CM^-^1)
Boiling point: 146 C AT 0.5 mmHg
Class: COBLENTZ III
Instrument: DOW KBr FOREPRISM-GRATING
Instrument parameters: BLAZED AT 3.5, 12.0, 20.0 MICRON AND CHANGED AT 5.0, 7.5, 14.9 MICRON
Sampling: TRANSMISSION
Path length: 0.011 CM, 0.011 CM
Resolution: 2
Origin: DOW CHEMICAL COMPANY
1/CM	TRANSMITTANCE
458	0.6851
467	0.6941
476	0.6951
485	0.6914
494	0.6836
503	0.6817
512	0.6903
521	0.7008
530	0.7051
539	0.6705
548	0.6725
557	0.6956
566	0.6226
575	0.6847
584	0.6951
593	0.711
602	0.7137
611	0.7158
620	0.7158
629	0.7075
638	0.6915
647	0.6761
656	0.6765
665	0.7025
674	0.7441
683	0.7414
692	0.7384
701	0.7548
710	0.7615
719	0.7632
728	0.7554
737	0.7465
746	0.7181
755	0.7275
764	0.7144
773	0.6277
782	0.3376
791	0.7361
800	0.7669
809	0.6949
818	0.7611
827	0.7224
836	0.7647
845	0.7015
854	0.4805
863	0.4897
872	0.6608
881	0.7249
890	0.7514
899	0.7721
908	0.7753
917	0.7461
926	0.7868
935	0.761
944	0.7141
953	0.7568
962	0.6705
971	0.746
980	0.5538
989	0.511
998	0.7051
1007	0.7256
1016	0.6357
1025	0.5443
1034	0.2498
1043	0.1676
1052	0.1996
1061	0.2858
1070	0.4018
1079	0.6357
1088	0.6197
1097	0.5433
1106	0.4701
1115	0.1892
1124	0.3794
1133	0.3337
1142	0.5446
1151	0.3318
1160	0.2884
1169	0.544
1178	0.6565
1187	0.6371
1196	0.5641
1205	0.591
1214	0.6437
1223	0.6489
1232	0.5968
1241	0.5309
1250	0.5025
1259	0.373
1268	0.469
1277	0.4119
1286	0.4691
1295	0.2787
1304	0.35
1313	0.4474
1322	0.4235
1331	0.4723
1340	0.5098
1349	0.3994
1358	0.4495
1367	0.6703
1376	0.5944
1385	0.5684
1394	0.69
1403	0.731
1412	0.7315
1421	0.7196
1430	0.6857
1439	0.5087
1448	0.4137
1457	0.3389
1466	0.5568
1475	0.5321
1484	0.7707
1493	0.7628
1502	0.7281
1511	0.6808
1520	0.6434
1529	0.6023
1538	0.5192
1547	0.4482
1556	0.468
1565	0.5515
1574	0.6117
1583	0.6272
1592	0.6868
1601	0.7641
1610	0.822
1619	0.8497
1628	0.8651
1637	0.8696
1646	0.8795
1655	0.8809
1664	0.8808
1673	0.8803
1682	0.8806
1691	0.8884
1700	0.8916
1709	0.8915
1718	0.8909
1727	0.8878
1736	0.8841
1745	0.882
1754	0.8963
1763	0.8998
1772	0.9011
1781	0.9011
1790	0.9015
1799	0.9
1808	0.8977
1817	0.8966
1826	0.8947
1835	0.8934
1844	0.8924
1853	0.8915
1862	0.8921
1871	0.892
1880	0.8913
1889	0.89
1898	0.8914
1907	0.8952
1916	0.895
1925	0.8959
1934	0.8975
1943	0.8991
1952	0.9008
1961	0.8963
1970	0.8943
1979	0.8931
1988	0.8921
1997	0.8927
2006	0.8943
2015	0.8951
2024	0.8953
2033	0.8954
2042	0.8955
2051	0.895
2060	0.8936
2069	0.892
2078	0.8893
2087	0.8877
2096	0.8881
2105	0.8899
2114	0.8914
2123	0.8927
2132	0.8937
2141	0.8946
2150	0.8959
2159	0.8958
2168	0.8952
2177	0.8946
2186	0.8941
2195	0.8944
2204	0.8947
2213	0.8924
2222	0.8894
2231	0.8868
2240	0.8844
2249	0.8824
2258	0.8805
2267	0.878
2276	0.8756
2285	0.8731
2294	0.8716
2303	0.8744
2312	0.889
2321	0.8951
2330	0.8977
2339	0.8975
2348	0.8968
2357	0.8951
2366	0.8934
2375	0.8912
2384	0.889
2393	0.8852
2402	0.8813
2411	0.8798
2420	0.8801
2429	0.8806
2438	0.8801
2447	0.8778
2456	0.8746
2465	0.8699
2474	0.8658
2483	0.8624
2492	0.8596
2501	0.8571
2510	0.8565
2519	0.8574
2528	0.8548
2537	0.8503
2546	0.8437
2555	0.8352
2564	0.8251
2573	0.8146
2582	0.8011
2591	0.7861
2600	0.7736
2609	0.7648
2618	0.7567
2627	0.745
2636	0.7265
2645	0.6962
2654	0.6872
2663	0.6051
2672	0.586
2681	0.5727
2690	0.5347
2699	0.5438
2708	0.549
2717	0.5118
2726	0.4392
2735	0.3441
2744	0.2858
2753	0.274
2762	0.2365
2771	0.2171
2780	0.2395
2789	0.2282
2798	0.1809
2807	0.1757
2816	0.2127
2825	0.3376
2834	0.4183
2843	0.3893
2852	0.2351
2861	0.1668
2870	0.1182
2879	0.109
2888	0.2204
2897	0.185
2906	0.1046
2915	0.064
2924	0.011
2933	0.0039
2942	0.0024
2951	0.0052
2960	0.0157
2969	0.0568
2978	0.1942
2987	0.371
2996	0.484
3005	0.5988
3014	0.6508
3023	0.6692
3032	0.6747
3041	0.6741
3050	0.6717
3059	0.665
3068	0.6568
3077	0.6507
3086	0.6454
3095	0.6401
3104	0.635
3113	0.6302
3122	0.6253
3131	0.6202
3140	0.6155
3149	0.611
3158	0.6066
3167	0.6038
3176	0.601
3185	0.5984
3194	0.596
3203	0.5933
3212	0.5904
3221	0.5874
3230	0.5845
3239	0.5815
3248	0.5786
3257	0.5757
3266	0.5728
3275	0.5695
3284	0.566
3293	0.5626
3302	0.5589
3311	0.5541
3320	0.5479
3329	0.5392
3338	0.5293
3347	0.5201
3356	0.5112
3365	0.5026
3374	0.4956
3383	0.4889
3392	0.4789
3401	0.4857
3410	0.4937
3419	0.505
3428	0.5179
3437	0.5324
3446	0.5455
3455	0.5617
3464	0.5803
3473	0.6103
3482	0.6362
3491	0.6601
3500	0.6851
3509	0.7128
3518	0.7408
3527	0.759
3536	0.7815
3545	0.803
3554	0.82
3563	0.8256
3572	0.8221
3581	0.8252
3590	0.8184
3599	0.7828
3608	0.7289
3617	0.7306
3626	0.7955
3635	0.8588
3644	0.8646
3653	0.8651
3662	0.866
3671	0.869
3680	0.8715
3689	0.8735
3698	0.8753
3707	0.8768
3716	0.8781
3725	0.8792
3734	0.8803
3743	0.8815
3752	0.8825
3761	0.883
3770	0.8835
3779	0.8837
3788	0.8839
3797	0.884
