Infrared Spectrum: TRICHLOROACETIC ACID 2-(P-NITROPHENYL)-HYDRAZIDE
Formula: C8 H6 Cl3 N3 O3
CAS: 116436-39-6
State: SOLID (MINERAL OIL MULL)
Class: COBLENTZ
Instrument: Not specified, most likely a prism, grating, or hybrid spectrometer.
Sampling: TRANSMISSION
Resolution: 4
Origin: DOW CHEMICAL COMPANY
MICROMETERS	TRANSMITTANCE
2.041	0.604
2.0822	0.623
2.1234	0.635
2.16459	0.647
2.20579	0.652
2.24699	0.647
2.28819	0.641
2.32939	0.654
2.37058	0.669
2.41178	0.685
2.45298	0.702
2.49418	0.719
2.53538	0.738
2.57658	0.741
2.61777	0.75
2.65897	0.769
2.70017	0.769
2.74137	0.767
2.78257	0.728
2.82376	0.645
2.86496	0.444
2.90616	0.351
2.94736	0.416
2.98856	0.502
3.02975	0.462
3.07095	0.364
3.11215	0.311
3.15335	0.345
3.19455	0.407
3.23575	0.423
3.27694	0.44
3.31814	0.347
3.35934	0.144
3.40054	0.012
3.44174	0.024
3.48293	0.053
3.52413	0.242
3.56533	0.605
3.60653	0.688
3.64773	0.693
3.68892	0.7
3.73012	0.697
3.77132	0.71
3.81252	0.733
3.85372	0.75
3.89492	0.777
3.93611	0.795
3.97731	0.802
4.01851	0.805
4.05971	0.8
4.10091	0.8
4.1421	0.824
4.1833	0.855
4.2245	0.848
4.2657	0.833
4.3069	0.815
4.34809	0.841
4.38929	0.846
4.43049	0.846
4.47169	0.845
4.51289	0.845
4.55409	0.85
4.59528	0.845
4.63648	0.845
4.67768	0.846
4.71888	0.848
4.76008	0.855
4.80127	0.865
4.84247	0.87
4.88367	0.874
4.92487	0.874
4.96607	0.877
5.00726	0.882
5.04846	0.881
5.08966	0.881
5.13086	0.882
5.17206	0.881
5.21326	0.867
5.25445	0.876
5.29565	0.886
5.33685	0.886
5.37805	0.886
5.41925	0.889
5.46044	0.895
5.50164	0.888
5.54284	0.872
5.58404	0.862
5.62524	0.848
5.66643	0.826
5.70763	0.788
5.74883	0.679
5.79003	0.413
5.83123	0.206
5.87243	0.38
5.91362	0.583
5.95482	0.64
5.99602	0.672
6.03722	0.693
6.07842	0.671
6.11961	0.638
6.16081	0.54
6.20201	0.246
6.24321	0.153
6.28441	0.34
6.3256	0.518
6.3668	0.612
6.408	0.654
6.4492	0.672
6.4904	0.624
6.5316	0.547
6.57279	0.442
6.61399	0.261
6.65519	0.218
6.69639	0.223
6.73759	0.349
6.77878	0.289
6.81998	0.153
6.86118	0.177
6.90238	0.287
6.94358	0.475
6.98477	0.592
7.02597	0.631
7.06717	0.636
7.10837	0.66
7.14957	0.65
7.19076	0.557
7.23196	0.368
7.27316	0.333
7.31436	0.432
7.35556	0.442
7.39676	0.177
7.43795	0.043
7.47915	0.063
7.52035	0.168
7.56155	0.259
7.60275	0.266
7.64394	0.294
7.68514	0.397
7.72634	0.421
7.76754	0.475
7.80874	0.502
7.84993	0.504
7.89113	0.493
7.93233	0.416
7.97353	0.301
8.01473	0.292
8.05593	0.387
8.09712	0.468
8.13832	0.521
8.17952	0.573
8.22072	0.614
8.26192	0.641
8.30311	0.652
8.34431	0.648
8.38551	0.566
8.42671	0.512
8.46791	0.528
8.5091	0.574
8.5503	0.592
8.5915	0.602
8.6327	0.612
8.6739	0.624
8.7151	0.628
8.75629	0.617
8.79749	0.58
8.83869	0.602
8.87989	0.64
8.92109	0.604
8.96228	0.382
9.00348	0.213
9.04468	0.342
9.08588	0.506
9.12708	0.583
9.16827	0.621
9.20947	0.64
9.25067	0.664
9.29187	0.674
9.33307	0.686
9.37427	0.695
9.41546	0.702
9.45666	0.707
9.49786	0.71
9.53906	0.716
9.58026	0.722
9.62145	0.726
9.66265	0.729
9.70385	0.733
9.74505	0.733
9.78625	0.733
9.82744	0.736
9.86864	0.738
9.90984	0.741
9.95104	0.738
9.99224	0.733
10.0334	0.738
10.0746	0.74
10.1158	0.698
10.157	0.626
10.1982	0.593
10.2394	0.647
10.2806	0.698
10.3218	0.709
10.363	0.729
10.4042	0.734
10.4454	0.738
10.4866	0.74
10.5278	0.743
10.569	0.752
10.6102	0.757
10.6514	0.759
10.6926	0.762
10.7338	0.764
10.775	0.764
10.8162	0.764
10.8574	0.759
10.8986	0.753
10.9398	0.753
10.981	0.753
11.0222	0.753
11.0634	0.752
11.1046	0.743
11.1458	0.74
11.187	0.733
11.2282	0.726
11.2694	0.712
11.3106	0.703
11.3518	0.697
11.393	0.688
11.4342	0.683
11.4754	0.691
11.5166	0.698
11.5578	0.681
11.599	0.647
11.6402	0.598
11.6814	0.543
11.7226	0.485
11.7638	0.418
11.805	0.323
11.8462	0.216
11.8874	0.201
11.9285	0.199
11.9697	0.213
12.0109	0.275
12.0521	0.327
12.0933	0.323
12.1345	0.249
12.1757	0.228
12.2169	0.277
12.2581	0.37
12.2993	0.43
12.3405	0.478
12.3817	0.493
12.4229	0.478
12.4641	0.419
12.5053	0.378
12.5465	0.359
12.5877	0.363
12.6289	0.399
12.6701	0.456
12.7113	0.504
12.7525	0.554
12.7937	0.583
12.8349	0.612
12.8761	0.631
12.9173	0.647
12.9585	0.66
12.9997	0.676
13.0409	0.685
13.0821	0.691
13.1233	0.693
13.1645	0.69
13.2057	0.674
13.2469	0.597
13.2881	0.459
13.3293	0.349
13.3705	0.402
13.4117	0.506
13.4529	0.597
13.4941	0.614
13.5353	0.617
13.5765	0.612
13.6177	0.604
13.6589	0.588
13.7001	0.571
13.7413	0.555
13.7825	0.537
13.8237	0.518
13.8649	0.504
13.9061	0.497
13.9473	0.492
13.9885	0.49
14.0297	0.49
14.0709	0.493
14.112	0.499
14.1532	0.502
14.1944	0.506
14.2356	0.506
14.2768	0.497
14.318	0.48
14.3592	0.457
14.4004	0.438
14.4416	0.425
14.4828	0.419
14.524	0.425
14.5652	0.438
14.6064	0.447
14.6476	0.45
14.6888	0.449
14.73	0.447
14.7712	0.437
14.8124	0.426
14.8536	0.416
14.8948	0.407
14.936	0.399
14.9772	0.39
15.0184	0.371
15.0596	0.356
15.1008	0.352
15.142	0.347
15.1832	0.345
15.2244	0.344
15.2656	0.345
15.3068	0.345
15.348	0.345
15.3892	0.349
15.4304	0.352
15.4716	0.358
15.5128	0.361
15.554	0.363
15.5952	0.363
15.6364	0.361
15.6776	0.356
15.7188	0.351
15.76	0.344
15.8012	0.339
15.8424	0.332
15.8836	0.33
