Infrared Spectrum: TERT-OCTYL AMINE HYDROCHLORIDE
Formula: C8 H19 N  * H Cl
CAS: 116401-46-8
State: SOLID (ARNEEL C MULL) ; COMPENSATED
Class: COBLENTZ
Instrument: PERKIN-ELMER
Sampling: TRANSMISSION
Resolution: 4
MICROMETERS	TRANSMITTANCE
2.018	0.851
2.05474	0.864
2.09148	0.868
2.12822	0.87
2.16496	0.87
2.2017	0.867
2.23844	0.858
2.27518	0.845
2.31192	0.827
2.34866	0.827
2.3854	0.829
2.42215	0.832
2.45889	0.841
2.49563	0.851
2.53237	0.859
2.56911	0.871
2.60585	0.887
2.64259	0.893
2.67933	0.897
2.71607	0.897
2.75281	0.902
2.78955	0.903
2.82629	0.899
2.86303	0.891
2.89977	0.891
2.93651	0.888
2.97325	0.883
3.00999	0.877
3.04673	0.861
3.08347	0.752
3.12021	0.67
3.15695	0.563
3.19369	0.345
3.23044	0.245
3.26718	0.138
3.30392	0.097
3.34066	0.079
3.3774	0.07
3.41414	0.074
3.45088	0.079
3.48762	0.082
3.52436	0.082
3.5611	0.083
3.59784	0.108
3.63458	0.166
3.67132	0.262
3.70806	0.287
3.7448	0.271
3.78154	0.322
3.81828	0.447
3.85502	0.395
3.89176	0.351
3.9285	0.439
3.96524	0.444
4.00199	0.487
4.03873	0.624
4.07547	0.708
4.11221	0.755
4.14895	0.783
4.18569	0.804
4.22243	0.81
4.25917	0.813
4.29591	0.821
4.33265	0.836
4.36939	0.85
4.40613	0.856
4.44287	0.836
4.47961	0.851
4.51635	0.865
4.55309	0.87
4.58983	0.861
4.62657	0.796
4.66331	0.767
4.70005	0.725
4.73679	0.648
4.77353	0.558
4.81028	0.557
4.84702	0.541
4.88376	0.587
4.9205	0.667
4.95724	0.696
4.99398	0.746
5.03072	0.774
5.06746	0.769
5.1042	0.803
5.14094	0.83
5.17768	0.842
5.21442	0.856
5.25116	0.873
5.2879	0.883
5.32464	0.893
5.36138	0.89
5.39812	0.885
5.43486	0.885
5.4716	0.887
5.50834	0.883
5.54508	0.883
5.58183	0.876
5.61857	0.861
5.65531	0.867
5.69205	0.868
5.72879	0.874
5.76553	0.877
5.80227	0.876
5.83901	0.871
5.87575	0.873
5.91249	0.854
5.94923	0.847
5.98597	0.832
6.02271	0.812
6.05945	0.806
6.09619	0.693
6.13293	0.465
6.16967	0.415
6.20641	0.1
6.24315	0.128
6.27989	0.468
6.31663	0.567
6.35338	0.6
6.39012	0.613
6.42686	0.616
6.4636	0.613
6.50034	0.48
6.53708	0.235
6.57382	0.218
6.61056	0.158
6.6473	0.389
6.68404	0.416
6.72078	0.233
6.75752	0.236
6.79426	0.235
6.831	0.236
6.86774	0.294
6.90448	0.451
6.94122	0.511
6.97796	0.534
7.0147	0.554
7.05144	0.642
7.08818	0.63
7.12492	0.325
7.16167	0.187
7.19841	0.386
7.23515	0.363
7.27189	0.167
7.30863	0.175
7.34537	0.345
7.38211	0.61
7.41885	0.696
7.45559	0.723
7.49233	0.708
7.52907	0.769
7.56581	0.784
7.60255	0.796
7.63929	0.792
7.67603	0.758
7.71277	0.589
7.74951	0.38
7.78625	0.43
7.82299	0.564
7.85973	0.534
7.89647	0.441
7.93322	0.436
7.96996	0.468
8.0067	0.464
8.04344	0.497
8.08018	0.612
8.11692	0.647
8.15366	0.557
8.1904	0.366
8.22714	0.458
8.26388	0.531
8.30062	0.619
8.33736	0.729
8.3741	0.764
8.41084	0.717
8.44758	0.706
8.48432	0.731
8.52106	0.737
8.5578	0.741
8.59454	0.72
8.63128	0.596
8.66802	0.398
8.70476	0.464
8.74151	0.549
8.77825	0.642
8.81499	0.741
8.85173	0.795
8.88847	0.815
8.92521	0.836
8.96195	0.848
8.99869	0.85
9.03543	0.854
9.07217	0.859
9.10891	0.865
9.14565	0.871
9.18239	0.871
9.21913	0.85
9.25587	0.824
9.29261	0.812
9.32935	0.772
9.36609	0.806
9.40283	0.824
9.43957	0.841
9.47631	0.854
9.51306	0.862
9.5498	0.868
9.58654	0.871
9.62328	0.877
9.66002	0.873
9.69676	0.873
9.7335	0.87
9.77024	0.861
9.80698	0.854
9.84372	0.858
9.88046	0.862
9.9172	0.867
9.95394	0.868
9.99068	0.859
10.0274	0.839
10.0642	0.815
10.1009	0.795
10.1376	0.79
10.1744	0.79
10.2111	0.783
10.2479	0.795
10.2846	0.818
10.3213	0.85
10.3581	0.859
10.3948	0.862
10.4316	0.862
10.4683	0.862
10.505	0.859
10.5418	0.851
10.5785	0.845
10.6153	0.845
10.652	0.85
10.6888	0.854
10.7255	0.856
10.7622	0.842
10.799	0.819
10.8357	0.798
10.8725	0.786
10.9092	0.786
10.9459	0.796
10.9827	0.819
11.0194	0.844
11.0562	0.851
11.0929	0.856
11.1296	0.859
11.1664	0.864
11.2031	0.87
11.2399	0.87
11.2766	0.871
11.3133	0.874
11.3501	0.868
11.3868	0.861
11.4236	0.856
11.4603	0.856
11.497	0.848
11.5338	0.844
11.5705	0.844
11.6073	0.844
11.644	0.835
11.6807	0.827
11.7175	0.829
11.7542	0.847
11.791	0.862
11.8277	0.877
11.8644	0.88
11.9012	0.887
11.9379	0.89
11.9747	0.896
12.0114	0.897
12.0481	0.896
12.0849	0.896
12.1216	0.896
12.1584	0.896
12.1951	0.9
12.2318	0.9
12.2686	0.902
12.3053	0.903
12.3421	0.903
12.3788	0.903
12.4156	0.902
12.4523	0.9
12.489	0.896
12.5258	0.894
12.5625	0.899
12.5993	0.899
12.636	0.899
12.6727	0.894
12.7095	0.89
12.7462	0.89
12.783	0.894
12.8197	0.894
12.8564	0.9
12.8932	0.89
12.9299	0.882
12.9667	0.874
13.0034	0.874
13.0401	0.877
13.0769	0.882
13.1136	0.88
13.1504	0.879
13.1871	0.882
13.2238	0.879
13.2606	0.877
13.2973	0.877
13.3341	0.873
13.3708	0.868
13.4075	0.867
13.4443	0.868
13.481	0.868
13.5178	0.862
13.5545	0.854
13.5912	0.851
13.628	0.845
13.6647	0.835
13.7015	0.832
13.7382	0.819
13.7749	0.815
13.8117	0.81
13.8484	0.801
13.8852	0.792
13.9219	0.793
13.9587	0.803
13.9954	0.816
14.0321	0.821
14.0689	0.825
14.1056	0.833
14.1424	0.835
14.1791	0.839
14.2158	0.842
14.2526	0.844
14.2893	0.845
14.3261	0.848
14.3628	0.845
14.3995	0.845
14.4363	0.842
14.473	0.844
14.5098	0.844
14.5465	0.845
14.5832	0.847
14.62	0.848
14.6567	0.853
14.6935	0.848
14.7302	0.848
14.7669	0.85
14.8037	0.847
14.8404	0.847
14.8772	0.844
14.9139	0.842
14.9506	0.853
14.9874	0.861
15.0241	0.841
15.0609	0.833
15.0976	0.839
15.1343	0.842
15.1711	0.844
15.2078	0.848
15.2446	0.85
15.2813	0.851
15.318	0.85
15.3548	0.854
15.3915	0.851
