Infrared Spectrum: 2-(N-BUTYL-p-PENTYLANILINO)-3-(n-PENTYL) PYRAZINE
Formula: C24 H37 N3
CAS: 116403-09-9
State: LIQUID
Class: COBLENTZ
Instrument: Not specified, most likely a prism, grating, or hybrid spectrometer.
Sampling: TRANSMISSION
Path length: 0.0015 CM
Resolution: 4
Origin: WYANDOTTE CHEMICALS CORP., WYANDOTTE, MICHIGAN, USA
MICROMETERS	TRANSMITTANCE
2.041	0.986
2.08191	0.981
2.12283	0.982
2.16374	0.964
2.20466	0.916
2.24557	0.905
2.28649	0.907
2.3274	0.921
2.36832	0.924
2.40923	0.94
2.45015	0.95
2.49106	0.952
2.53198	0.945
2.57289	0.965
2.61381	0.952
2.65472	0.97
2.69563	0.96
2.73655	0.957
2.77746	0.955
2.81838	0.952
2.85929	0.952
2.90021	0.928
2.94112	0.923
2.98204	0.916
3.02295	0.916
3.06387	0.902
3.10478	0.883
3.1457	0.866
3.18661	0.854
3.22753	0.733
3.26844	0.463
3.30935	0.482
3.35027	0.123
3.39118	0.054
3.4321	0.07
3.47301	0.094
3.51393	0.198
3.55484	0.611
3.59576	0.764
3.63667	0.8
3.67759	0.779
3.7185	0.81
3.75942	0.832
3.80033	0.854
3.84125	0.871
3.88216	0.873
3.92307	0.876
3.96399	0.887
4.0049	0.895
4.04582	0.9
4.08673	0.904
4.12765	0.887
4.16856	0.878
4.20948	0.876
4.25039	0.861
4.29131	0.859
4.33222	0.863
4.37314	0.89
4.41405	0.905
4.45497	0.909
4.49588	0.919
4.53679	0.919
4.57771	0.917
4.61862	0.919
4.65954	0.923
4.70045	0.919
4.74137	0.917
4.78228	0.926
4.8232	0.923
4.86411	0.929
4.90503	0.926
4.94594	0.926
4.98686	0.923
5.02777	0.924
5.06869	0.924
5.1096	0.924
5.15051	0.924
5.19143	0.919
5.23234	0.907
5.27326	0.875
5.31417	0.82
5.35509	0.844
5.396	0.897
5.43692	0.9
5.47783	0.919
5.51875	0.919
5.55966	0.894
5.60058	0.864
5.64149	0.842
5.6824	0.854
5.72332	0.87
5.76423	0.863
5.80515	0.849
5.84606	0.835
5.88698	0.813
5.92789	0.789
5.96881	0.747
6.00972	0.7
6.05064	0.7
6.09155	0.67
6.13247	0.576
6.17338	0.297
6.2143	0.242
6.25521	0.323
6.29612	0.304
6.33704	0.326
6.37795	0.398
6.41887	0.497
6.45978	0.461
6.5007	0.123
6.54161	0.064
6.58253	0.058
6.62344	0.094
6.66436	0.176
6.70527	0.203
6.74619	0.17
6.7871	0.061
6.82802	0.061
6.86893	0.064
6.90984	0.08
6.95076	0.076
6.99167	0.058
7.03259	0.061
7.0735	0.056
7.11442	0.054
7.15533	0.061
7.19625	0.111
7.23716	0.078
7.27808	0.075
7.31899	0.073
7.35991	0.128
7.40082	0.177
7.44174	0.186
7.48265	0.242
7.52356	0.323
7.56448	0.369
7.60539	0.321
7.64631	0.285
7.68722	0.237
7.72814	0.198
7.76905	0.164
7.80997	0.211
7.85088	0.213
7.8918	0.16
7.93271	0.193
7.97363	0.133
8.01454	0.157
8.05546	0.232
8.09637	0.282
8.13728	0.3
8.1782	0.143
8.21911	0.099
8.26003	0.141
8.30094	0.16
8.34186	0.179
8.38277	0.177
8.42369	0.172
8.4646	0.135
8.50552	0.1
8.54643	0.1
8.58735	0.141
8.62826	0.138
8.66918	0.14
8.71009	0.164
8.751	0.16
8.79192	0.2
8.83283	0.297
8.87375	0.374
8.91466	0.365
8.95558	0.331
8.99649	0.362
9.03741	0.478
9.07832	0.526
9.11924	0.487
9.16015	0.444
9.20107	0.401
9.24198	0.367
9.2829	0.393
9.32381	0.452
9.36472	0.512
9.40564	0.545
9.44655	0.557
9.48747	0.603
9.52838	0.632
9.5693	0.661
9.61021	0.675
9.65113	0.652
9.69204	0.6
9.73296	0.572
9.77387	0.572
9.81479	0.577
9.8557	0.492
9.89662	0.552
9.93753	0.557
9.97844	0.656
10.0194	0.692
10.0603	0.716
10.1012	0.74
10.1421	0.729
10.183	0.67
10.2239	0.635
10.2648	0.63
10.3058	0.635
10.3467	0.63
10.3876	0.627
10.4285	0.608
10.4694	0.613
10.5103	0.641
10.5512	0.685
10.5922	0.695
10.6331	0.702
10.674	0.704
10.7149	0.694
10.7558	0.694
10.7967	0.714
10.8377	0.705
10.8786	0.682
10.9195	0.671
10.9604	0.651
11.0013	0.588
11.0422	0.504
11.0831	0.487
11.1241	0.54
11.165	0.613
11.2059	0.661
11.2468	0.723
11.2877	0.745
11.3286	0.752
11.3695	0.745
11.4105	0.752
11.4514	0.755
11.4923	0.762
11.5332	0.76
11.5741	0.74
11.615	0.702
11.6559	0.664
11.6969	0.591
11.7378	0.507
11.7787	0.403
11.8196	0.328
11.8605	0.273
11.9014	0.23
11.9423	0.17
11.9833	0.14
12.0242	0.131
12.0651	0.157
12.106	0.211
12.1469	0.297
12.1878	0.379
12.2288	0.476
12.2697	0.552
12.3106	0.622
12.3515	0.671
12.3924	0.694
12.4333	0.7
12.4742	0.709
12.5152	0.704
12.5561	0.7
12.597	0.682
12.6379	0.673
12.6788	0.649
12.7197	0.634
12.7606	0.625
12.8016	0.634
12.8425	0.654
12.8834	0.673
12.9243	0.694
12.9652	0.721
13.0061	0.738
13.047	0.741
13.088	0.74
13.1289	0.728
13.1698	0.699
13.2107	0.666
13.2516	0.635
13.2925	0.61
13.3334	0.589
13.3744	0.567
13.4153	0.562
13.4562	0.569
13.4971	0.594
13.538	0.615
13.5789	0.62
13.6198	0.618
13.6608	0.61
13.7017	0.598
13.7426	0.603
13.7835	0.632
13.8244	0.664
13.8653	0.695
13.9063	0.709
13.9472	0.738
13.9881	0.748
14.029	0.752
14.0699	0.747
14.1108	0.726
14.1517	0.678
14.1927	0.641
14.2336	0.6
14.2745	0.622
14.3154	0.688
14.3563	0.748
14.3972	0.794
14.4381	0.813
14.4791	0.829
14.52	0.835
14.5609	0.834
14.6018	0.832
14.6427	0.83
14.6836	0.83
14.7245	0.823
14.7655	0.811
14.8064	0.81
14.8473	0.801
14.8882	0.801
14.9291	0.786
14.97	0.777
15.0109	0.752
15.0519	0.731
15.0928	0.709
15.1337	0.729
15.1746	0.74
15.2155	0.757
15.2564	0.767
15.2974	0.764
15.3383	0.762
15.3792	0.758
15.4201	0.757
15.461	0.752
15.5019	0.752
15.5428	0.745
15.5838	0.736
15.6247	0.729
15.6656	0.728
15.7065	0.733
15.7474	0.733
15.7883	0.738
15.8292	0.728
15.8702	0.719
15.9111	0.707
15.952	0.694
15.9929	0.69
