Infrared Spectrum: 2-METHYL-1,4-DI(PHENYLSULFONAMIDO)NAPHTHALENE
Formula: C23 H20 N2 O4 S2
CAS: 116401-66-2
State: SOLID (1.0% KBr PELLET)
Class: COBLENTZ
Instrument: Not specified, most likely a prism, grating, or hybrid spectrometer.
Sampling: TRANSMISSION
Path length: 0.0355 CM
Resolution: 4
Origin: ANDERSON PHYSICAL LABORATORY
1/CM	TRANSMITTANCE
673.832	0.917
682.243	0.576
690.655	0.6494
699.066	0.9349
707.477	0.954
715.888	0.6292
724.3	0.3659
732.711	0.566
741.122	0.792
749.533	0.492
757.945	0.271
766.356	0.6358
774.767	0.9179
783.178	0.986
791.59	0.983
800.001	0.99
808.412	0.959
816.823	0.936
825.235	0.906
833.646	0.929
842.057	0.912
850.468	0.864
858.88	0.828
867.291	0.773
875.702	0.749
884.113	0.74
892.525	0.749
900.936	0.699
909.347	0.632
917.758	0.794
926.17	0.876
934.581	0.894
942.992	0.884
951.403	0.6782
959.815	0.8369
968.226	0.921
976.637	0.936
985.048	0.93
993.46	0.929
1001.87	0.873
1010.28	0.87
1018.69	0.9
1027.1	0.869
1035.52	0.857
1043.93	0.7971
1052.34	0.846
1060.75	0.855
1069.16	0.756
1077.57	0.585
1085.98	0.612
1094.39	0.345
1102.81	0.6348
1111.22	0.801
1119.63	0.831
1128.04	0.816
1136.45	0.768
1144.86	0.674
1153.27	0.444
1161.68	0.121
1170.1	0.07
1178.51	0.3571
1186.92	0.5239
1195.33	0.7909
1203.74	0.911
1212.15	0.933
1220.56	0.827
1228.97	0.866
1237.39	0.89
1245.8	0.896
1254.21	0.926
1262.62	0.926
1271.03	0.869
1279.44	0.828
1287.85	0.786
1296.26	0.677
1304.68	0.701
1313.09	0.474
1321.5	0.372
1329.91	0.304
1338.32	0.4081
1346.73	0.5149
1355.14	0.322
1363.56	0.463
1371.97	0.48
1380.38	0.414
1388.79	0.663
1397.2	0.699
1405.61	0.57
1414.02	0.513
1422.43	0.599
1430.85	0.699
1439.26	0.63
1447.67	0.728
1456.08	0.4651
1464.49	0.597
1472.9	0.779
1481.31	0.812
1489.72	0.833
1498.14	0.924
1506.55	0.947
1514.96	0.92
1523.37	0.887
1531.78	0.948
1540.19	0.962
1548.6	0.965
1557.01	0.968
1565.43	0.965
1573.84	0.947
1582.25	0.914
1590.66	0.846
1599.07	0.8569
1607.48	0.722
1615.89	0.852
1624.3	0.866
1632.72	0.866
1641.13	0.9
1649.54	0.917
1657.95	0.929
1666.36	0.944
1674.77	0.945
1683.18	0.945
1691.59	0.945
1700.01	0.941
1708.42	0.945
1716.83	0.947
1725.24	0.95
1733.65	0.941
1742.06	0.944
1750.47	0.944
1758.88	0.938
1767.3	0.93
1775.71	0.929
1784.12	0.932
1792.53	0.933
1800.94	0.935
1809.35	0.927
1817.76	0.921
1826.17	0.924
1834.59	0.933
1843	0.933
1851.41	0.936
1859.82	0.938
1868.23	0.938
1876.64	0.938
1885.05	0.929
1893.46	0.918
1901.88	0.908
1910.29	0.914
1918.7	0.923
1927.11	0.921
1935.52	0.917
1943.93	0.917
1952.34	0.921
1960.75	0.92
1969.17	0.92
1977.58	0.915
1985.99	0.911
1994.4	0.912
2002.81	0.914
2011.22	0.915
2019.63	0.9173
2028.04	0.919
2036.46	0.9208
2044.87	0.921
2053.28	0.923
2061.69	0.922
2070.1	0.921
2078.51	0.92
2086.92	0.918
2095.33	0.918
2103.75	0.9154
2112.16	0.9149
2120.57	0.914
2128.98	0.914
2137.39	0.914
2145.8	0.912
2154.21	0.912
2162.62	0.9098
2171.04	0.9082
2179.45	0.908
2187.86	0.908
2196.27	0.908
2204.68	0.9063
2213.09	0.9059
2221.5	0.9043
2229.91	0.903
2238.33	0.902
2246.74	0.8988
2255.15	0.896
2263.56	0.8934
2271.97	0.893
2280.38	0.896
2288.79	0.8964
2297.2	0.897
2305.62	0.897
2314.03	0.8957
2322.44	0.8936
2330.85	0.8917
2339.26	0.8901
2347.67	0.8878
2356.08	0.8862
2364.49	0.885
2372.91	0.8869
2381.32	0.888
2389.73	0.89
2398.14	0.89
2406.55	0.888
2414.96	0.8878
2423.37	0.887
2431.78	0.8856
2440.2	0.8821
2448.61	0.881
2457.02	0.881
2465.43	0.879
2473.84	0.878
2482.25	0.875
2490.66	0.871
2499.07	0.87
2507.49	0.87
2515.9	0.872
2524.31	0.872
2532.72	0.872
2541.13	0.872
2549.54	0.872
2557.95	0.872
2566.36	0.872
2574.78	0.8689
2583.19	0.867
2591.6	0.8665
2600.01	0.866
2608.42	0.866
2616.83	0.866
2625.24	0.8649
2633.65	0.8632
2642.07	0.8599
2650.48	0.858
2658.89	0.857
2667.3	0.8554
2675.71	0.854
2684.12	0.8533
2692.53	0.852
2700.94	0.851
2709.36	0.8489
2717.77	0.8469
2726.18	0.8412
2734.59	0.8361
2743	0.8339
2751.41	0.833
2759.82	0.831
2768.23	0.83
2776.65	0.825
2785.06	0.824
2793.47	0.822
2801.88	0.8192
2810.29	0.816
2818.7	0.815
2827.11	0.8137
2835.52	0.812
2843.94	0.81
2852.35	0.8096
2860.76	0.809
2869.17	0.807
2877.58	0.806
2885.99	0.8051
2894.4	0.804
2902.81	0.803
2911.23	0.8008
2919.64	0.7991
2928.05	0.7935
2936.46	0.788
2944.87	0.788
2953.28	0.788
2961.69	0.788
2970.11	0.788
2978.52	0.7858
2986.93	0.7835
2995.34	0.777
3003.75	0.7681
3012.16	0.7602
3020.57	0.754
3028.98	0.7505
3037.4	0.744
3045.81	0.7334
3054.22	0.726
3062.63	0.7204
3071.04	0.7159
3079.45	0.7137
3087.86	0.7135
3096.27	0.7168
3104.69	0.719
3113.1	0.7206
3121.51	0.722
3129.92	0.7204
3138.33	0.7157
3146.74	0.7067
3155.15	0.6981
3163.56	0.6878
3171.98	0.6763
3180.39	0.6554
3188.8	0.6333
3197.21	0.6107
3205.62	0.5763
3214.03	0.5438
3222.44	0.5018
3230.85	0.4532
3239.27	0.3967
3247.68	0.339
3256.09	0.2959
3264.5	0.2794
3272.91	0.2808
3281.32	0.3359
3289.73	0.4293
3298.14	0.502
3306.56	0.6077
3314.97	0.6435
3323.38	0.6789
3331.79	0.6977
3340.2	0.7075
3348.61	0.711
3357.02	0.711
3365.43	0.7082
3373.85	0.704
3382.26	0.702
3390.67	0.6996
3399.08	0.6961
3407.49	0.6898
3415.9	0.6865
3424.31	0.6819
3432.72	0.68
3441.14	0.6796
3449.55	0.678
3457.96	0.678
3466.37	0.678
3474.78	0.678
3483.19	0.68
3491.6	0.6825
3500.01	0.684
3508.43	0.687
3516.84	0.688
3525.25	0.6915
3533.66	0.693
3542.07	0.6958
3550.48	0.699
3558.89	0.7018
3567.3	0.708
3575.72	0.7103
3584.13	0.7135
3592.54	0.7184
3600.95	0.722
3609.36	0.7266
3617.77	0.7327
3626.18	0.7348
3634.59	0.7381
3643.01	0.7416
3651.42	0.7451
3659.83	0.7468
3668.24	0.7501
3676.65	0.7537
3685.06	0.7556
3693.47	0.758
3701.88	0.758
3710.3	0.759
3718.71	0.759
3727.12	0.759
3735.53	0.759
3743.94	0.759
3752.35	0.759
3760.76	0.759
3769.17	0.759
3777.59	0.759
3786	0.759
3794.41	0.759
3802.82	0.759
3811.23	0.759
3819.64	0.7584
3828.05	0.758
3836.46	0.758
3844.88	0.7556
3853.29	0.7537
3861.7	0.753
3870.11	0.752
3878.52	0.752
3886.93	0.752
3895.34	0.752
3903.75	0.752
3912.17	0.752
3920.58	0.752
3928.99	0.752
3937.4	0.75
3945.81	0.75
3954.22	0.7493
3962.63	0.747
3971.04	0.747
3979.46	0.747
3987.87	0.746
