Infrared Spectrum: N-2(2,4-DICHLOROPHENOXY)-ETHYL Alpha,Alpha-DICHLOROPROPIONAMIDE
Formula: C11 H11 Cl4 N O2
CAS: 116402-50-7
State: SOLID (MINERAL OIL MULL)
Class: COBLENTZ
Instrument: Not specified, most likely a prism, grating, or hybrid spectrometer.
Sampling: TRANSMISSION
Resolution: 4
Origin: DOW CHEMICAL COMPANY
MICROMETERS	TRANSMITTANCE
2.027	0.554
2.068	0.566
2.10899	0.577
2.14999	0.587
2.19098	0.592
2.23198	0.589
2.27298	0.597
2.31397	0.616
2.35497	0.623
2.39596	0.64
2.43696	0.648
2.47796	0.662
2.51895	0.667
2.55995	0.679
2.60094	0.695
2.64194	0.698
2.68294	0.712
2.72393	0.712
2.76493	0.719
2.80592	0.714
2.84692	0.714
2.88791	0.688
2.92891	0.606
2.96991	0.441
3.0109	0.195
3.0519	0.398
3.09289	0.51
3.13389	0.58
3.17489	0.587
3.21588	0.577
3.25688	0.53
3.29787	0.503
3.33887	0.361
3.37987	0.089
3.42086	0.046
3.46186	0.121
3.50285	0.352
3.54385	0.681
3.58485	0.712
3.62584	0.72
3.66684	0.729
3.70783	0.732
3.74883	0.743
3.78983	0.75
3.83082	0.758
3.87182	0.758
3.91281	0.756
3.95381	0.773
3.99481	0.791
4.0358	0.799
4.0768	0.804
4.11779	0.806
4.15879	0.813
4.19979	0.815
4.24078	0.82
4.28178	0.828
4.32277	0.833
4.36377	0.833
4.40477	0.849
4.44576	0.851
4.48676	0.849
4.52775	0.852
4.56875	0.851
4.60974	0.859
4.65074	0.863
4.69174	0.868
4.73273	0.863
4.77373	0.868
4.81472	0.875
4.85572	0.881
4.89672	0.881
4.93771	0.888
4.97871	0.888
5.0197	0.89
5.0607	0.898
5.1017	0.907
5.14269	0.91
5.18369	0.916
5.22468	0.929
5.26568	0.928
5.30668	0.926
5.34767	0.905
5.38867	0.914
5.42966	0.94
5.47066	0.948
5.51166	0.938
5.55265	0.938
5.59365	0.94
5.63464	0.938
5.67564	0.921
5.71664	0.886
5.75763	0.878
5.79863	0.839
5.83962	0.732
5.88062	0.589
5.92162	0.253
5.96261	0.107
6.00361	0.118
6.0446	0.398
6.0856	0.578
6.12659	0.681
6.16759	0.75
6.20859	0.765
6.24958	0.681
6.29058	0.667
6.33157	0.688
6.37257	0.71
6.41357	0.589
6.45456	0.45
6.49556	0.215
6.53655	0.327
6.57755	0.568
6.61855	0.568
6.65954	0.443
6.70054	0.234
6.74153	0.195
6.78253	0.248
6.82353	0.119
6.86452	0.226
6.90552	0.301
6.94651	0.309
6.98751	0.556
7.02851	0.676
7.0695	0.705
7.1105	0.652
7.15149	0.472
7.19249	0.345
7.23349	0.441
7.27448	0.393
7.31548	0.522
7.35647	0.583
7.39747	0.666
7.43847	0.698
7.47946	0.727
7.52046	0.738
7.56145	0.739
7.60245	0.703
7.64344	0.595
7.68444	0.39
7.72544	0.15
7.76643	0.191
7.80743	0.215
7.84842	0.157
7.88942	0.205
7.93042	0.34
7.97141	0.308
8.01241	0.359
8.0534	0.489
8.0944	0.405
8.1354	0.527
8.17639	0.65
8.21739	0.702
8.25838	0.731
8.29938	0.75
8.34038	0.77
8.38137	0.796
8.42237	0.803
8.46336	0.804
8.50436	0.803
8.54536	0.797
8.58635	0.777
8.62735	0.71
8.66834	0.604
8.70934	0.561
8.75034	0.693
8.79133	0.746
8.83233	0.597
8.87332	0.378
8.91432	0.297
8.95532	0.542
8.99631	0.522
9.03731	0.385
9.0783	0.354
9.1193	0.561
9.1603	0.534
9.20129	0.462
9.24229	0.5
9.28328	0.515
9.32428	0.359
9.36527	0.232
9.40627	0.255
9.44727	0.378
9.48826	0.424
9.52926	0.549
9.57025	0.52
9.61125	0.609
9.65225	0.719
9.69324	0.765
9.73424	0.791
9.77523	0.818
9.81623	0.84
9.85723	0.857
9.89822	0.871
9.93922	0.876
9.98021	0.886
10.0212	0.897
10.0622	0.9
10.1032	0.91
10.1442	0.914
10.1852	0.912
10.2262	0.917
10.2672	0.914
10.3082	0.916
10.3492	0.917
10.3902	0.926
10.4312	0.933
10.4722	0.934
10.5132	0.934
10.5542	0.94
10.5952	0.926
10.6361	0.9
10.6771	0.868
10.7181	0.815
10.7591	0.684
10.8001	0.621
10.8411	0.784
10.8821	0.861
10.9231	0.893
10.9641	0.902
11.0051	0.902
11.0461	0.902
11.0871	0.897
11.1281	0.88
11.1691	0.806
11.2101	0.763
11.2511	0.746
11.2921	0.729
11.3331	0.669
11.3741	0.539
11.4151	0.39
11.4561	0.503
11.4971	0.803
11.5381	0.871
11.5791	0.892
11.6201	0.902
11.661	0.907
11.702	0.904
11.743	0.904
11.784	0.9
11.825	0.895
11.866	0.886
11.907	0.875
11.948	0.847
11.989	0.765
12.03	0.655
12.071	0.493
12.112	0.493
12.153	0.645
12.194	0.715
12.235	0.739
12.276	0.705
12.317	0.616
12.358	0.482
12.399	0.306
12.44	0.162
12.481	0.219
12.522	0.566
12.563	0.659
12.604	0.645
12.645	0.568
12.6859	0.503
12.7269	0.481
12.7679	0.534
12.8089	0.578
12.8499	0.59
12.8909	0.63
12.9319	0.696
12.9729	0.751
13.0139	0.772
13.0549	0.787
13.0959	0.789
13.1369	0.789
13.1779	0.773
13.2189	0.753
13.2599	0.722
13.3009	0.669
13.3419	0.604
13.3829	0.515
13.4239	0.405
13.4649	0.309
13.5059	0.277
13.5469	0.332
13.5879	0.438
13.6289	0.518
13.6698	0.561
13.7108	0.578
13.7518	0.578
13.7928	0.559
13.8338	0.534
13.8748	0.51
13.9158	0.496
13.9568	0.5
13.9978	0.513
14.0388	0.518
14.0798	0.518
14.1208	0.517
14.1618	0.51
14.2028	0.505
14.2438	0.505
14.2848	0.511
14.3258	0.523
14.3668	0.527
14.4078	0.529
14.4488	0.53
14.4898	0.534
14.5308	0.532
14.5718	0.529
14.6128	0.525
14.6538	0.515
14.6947	0.501
14.7357	0.484
14.7767	0.467
14.8177	0.45
14.8587	0.426
14.8997	0.402
14.9407	0.378
14.9817	0.34
15.0227	0.291
15.0637	0.256
15.1047	0.219
15.1457	0.193
15.1867	0.169
15.2277	0.097
15.2687	0.126
15.3097	0.128
15.3507	0.135
15.3917	0.157
15.4327	0.184
15.4737	0.219
15.5147	0.25
15.5557	0.265
15.5967	0.282
15.6377	0.289
15.6787	0.291
15.7196	0.299
15.7606	0.304
15.8016	0.309
15.8426	0.313
