Infrared Spectrum: 2-(p-NONYLPHENOXY)-6-(5-NONYL) PYRAZINE
Formula: C28 H44 N2 O
CAS: 116402-93-8
State: LIQUID
Class: COBLENTZ
Instrument: Not specified, most likely a prism, grating, or hybrid spectrometer.
Sampling: TRANSMISSION
Path length: 0.0015 CM
Resolution: 4
Origin: WYANDOTTE CHEMICALS CORP., WYANDOTTE, MICHIGAN, USA
MICROMETERS	TRANSMITTANCE
2.027	0.967
2.06788	0.96
2.10875	0.965
2.14963	0.94
2.1905	0.905
2.23138	0.881
2.27226	0.892
2.31313	0.902
2.35401	0.89
2.39488	0.907
2.43576	0.921
2.47664	0.924
2.51751	0.934
2.55839	0.94
2.59927	0.931
2.64014	0.933
2.68102	0.94
2.72189	0.936
2.76277	0.924
2.80365	0.922
2.84452	0.912
2.8854	0.897
2.92627	0.88
2.96715	0.856
3.00803	0.828
3.0489	0.799
3.08978	0.772
3.13065	0.746
3.17153	0.751
3.21241	0.691
3.25328	0.488
3.29416	0.458
3.33504	0.029
3.37591	0.037
3.41679	0.054
3.45766	0.061
3.49854	0.248
3.53942	0.635
3.58029	0.731
3.62117	0.773
3.66204	0.758
3.70292	0.806
3.7438	0.806
3.78467	0.827
3.82555	0.833
3.86642	0.84
3.9073	0.847
3.94818	0.861
3.98905	0.861
4.02993	0.859
4.0708	0.854
4.11168	0.857
4.15256	0.845
4.19343	0.847
4.23431	0.84
4.27519	0.869
4.31606	0.863
4.35694	0.878
4.39781	0.878
4.43869	0.883
4.47957	0.893
4.52044	0.89
4.56132	0.885
4.60219	0.892
4.64307	0.893
4.68395	0.893
4.72482	0.893
4.7657	0.888
4.80657	0.885
4.84745	0.881
4.88833	0.869
4.9292	0.866
4.97008	0.863
5.01096	0.863
5.05183	0.869
5.09271	0.885
5.13358	0.881
5.17446	0.88
5.21534	0.869
5.25621	0.861
5.29709	0.818
5.33796	0.837
5.37884	0.868
5.41972	0.868
5.46059	0.875
5.50147	0.875
5.54234	0.863
5.58322	0.835
5.6241	0.84
5.66497	0.828
5.70585	0.842
5.74672	0.839
5.7876	0.83
5.82848	0.813
5.86935	0.813
5.91023	0.799
5.95111	0.775
5.99198	0.729
6.03286	0.674
6.07373	0.714
6.11461	0.647
6.15549	0.412
6.19636	0.356
6.23724	0.318
6.27811	0.446
6.31899	0.585
6.35987	0.63
6.40074	0.518
6.44162	0.256
6.48249	0.311
6.52337	0.342
6.56425	0.092
6.60512	0.094
6.646	0.191
6.68688	0.147
6.72775	0.136
6.76863	0.041
6.8095	0.053
6.85038	0.128
6.89126	0.174
6.93213	0.238
6.97301	0.301
7.01388	0.224
7.05476	0.097
7.09564	0.097
7.13651	0.075
7.17739	0.035
7.21826	0.029
7.25914	0.037
7.30002	0.051
7.34089	0.044
7.38177	0.039
7.42264	0.071
7.46352	0.128
7.5044	0.2
7.54527	0.22
7.58615	0.205
7.62703	0.169
7.6679	0.135
7.70878	0.118
7.74965	0.126
7.79053	0.111
7.83141	0.116
7.87228	0.123
7.91316	0.099
7.95403	0.114
7.99491	0.121
8.03579	0.166
8.07666	0.148
8.11754	0.114
8.15841	0.058
8.19929	0.03
8.24017	0.044
8.28104	0.135
8.32192	0.203
8.3628	0.215
8.40367	0.142
8.44455	0.08
8.48542	0.032
8.5263	0.037
8.56718	0.07
8.60805	0.135
8.64893	0.191
8.6898	0.251
8.73068	0.306
8.77156	0.38
8.81243	0.385
8.85331	0.349
8.89418	0.325
8.93506	0.349
8.97594	0.378
9.01681	0.458
9.05769	0.465
9.09856	0.452
9.13944	0.441
9.18032	0.467
9.22119	0.469
9.26207	0.465
9.30295	0.482
9.34382	0.537
9.3847	0.573
9.42557	0.611
9.46645	0.636
9.50733	0.65
9.5482	0.655
9.58908	0.654
9.62995	0.648
9.67083	0.633
9.71171	0.589
9.75258	0.506
9.79346	0.373
9.83433	0.229
9.87521	0.351
9.91609	0.412
9.95696	0.496
9.99784	0.563
10.0387	0.602
10.0796	0.63
10.1205	0.633
10.1613	0.578
10.2022	0.518
10.2431	0.472
10.284	0.434
10.3248	0.397
10.3657	0.39
10.4066	0.46
10.4475	0.554
10.4884	0.601
10.5292	0.618
10.5701	0.618
10.611	0.602
10.6519	0.589
10.6927	0.58
10.7336	0.563
10.7745	0.559
10.8154	0.573
10.8562	0.592
10.8971	0.597
10.938	0.587
10.9789	0.565
11.0197	0.561
11.0606	0.561
11.1015	0.549
11.1424	0.511
11.1832	0.482
11.2241	0.477
11.265	0.494
11.3059	0.547
11.3468	0.571
11.3876	0.565
11.4285	0.537
11.4694	0.496
11.5103	0.426
11.5511	0.371
11.592	0.327
11.6329	0.287
11.6738	0.26
11.7146	0.248
11.7555	0.232
11.7964	0.226
11.8373	0.188
11.8781	0.16
11.919	0.143
11.9599	0.142
12.0008	0.155
12.0416	0.181
12.0825	0.207
12.1234	0.27
12.1643	0.33
12.2051	0.376
12.246	0.404
12.2869	0.428
12.3278	0.455
12.3687	0.479
12.4095	0.505
12.4504	0.53
12.4913	0.558
12.5322	0.585
12.573	0.589
12.6139	0.578
12.6548	0.578
12.6957	0.563
12.7365	0.541
12.7774	0.53
12.8183	0.535
12.8592	0.547
12.9	0.551
12.9409	0.559
12.9818	0.556
13.0227	0.558
13.0635	0.542
13.1044	0.539
13.1453	0.532
13.1862	0.52
13.2271	0.511
13.2679	0.498
13.3088	0.494
13.3497	0.494
13.3906	0.513
13.4314	0.532
13.4723	0.537
13.5132	0.542
13.5541	0.534
13.5949	0.553
13.6358	0.565
13.6767	0.571
13.7176	0.585
13.7584	0.602
13.7993	0.602
13.8402	0.63
13.8811	0.66
13.9219	0.672
13.9628	0.686
14.0037	0.691
14.0446	0.71
14.0854	0.7
14.1263	0.7
14.1672	0.741
14.2081	0.69
14.249	0.679
14.2898	0.657
14.3307	0.64
14.3716	0.602
14.4125	0.554
14.4533	0.513
14.4942	0.506
14.5351	0.522
14.576	0.535
14.6168	0.551
14.6577	0.568
14.6986	0.578
14.7395	0.611
14.7803	0.636
14.8212	0.657
14.8621	0.669
14.903	0.676
14.9438	0.674
14.9847	0.659
15.0256	0.619
15.0665	0.613
15.1074	0.623
15.1482	0.631
15.1891	0.643
15.23	0.657
15.2709	0.652
15.3117	0.655
15.3526	0.652
15.3935	0.655
15.4344	0.645
15.4752	0.642
15.5161	0.638
15.557	0.64
15.5979	0.638
15.6387	0.633
15.6796	0.628
15.7205	0.614
15.7614	0.618
15.8022	0.602
15.8431	0.59
15.884	0.589
15.9249	0.577
15.9657	0.571
