Infrared Spectrum: BENZIMIDAZOLE, 2-(1,1,3-TRIMETHYLBUTYL)-
Formula: C14 H20 N2
CAS: 116465-69-1
State: SOLID (KBr PELLET)
Melting point: 280-283 C
Class: COBLENTZ
Instrument: Not specified, most likely a prism, grating, or hybrid spectrometer.
Sampling: TRANSMISSION
Resolution: 4
Origin: TENNESSEE EASTMAN COMPANY, RESEARCH LABORATORIES
MICROMETERS	TRANSMITTANCE
2.26	0.944
2.30097	0.934
2.34195	0.931
2.38292	0.934
2.42389	0.938
2.46487	0.938
2.50584	0.939
2.54681	0.941
2.58778	0.943
2.62876	0.943
2.66973	0.946
2.7107	0.946
2.75168	0.941
2.79265	0.922
2.83362	0.901
2.8746	0.886
2.91557	0.86
2.95654	0.853
2.99751	0.858
3.03849	0.862
3.07946	0.848
3.12043	0.81
3.16141	0.748
3.20238	0.64
3.24335	0.554
3.28433	0.363
3.3253	0.375
3.36627	0.125
3.40725	0.149
3.44822	0.117
3.48919	0.206
3.53016	0.251
3.57114	0.287
3.61211	0.337
3.65308	0.321
3.69406	0.358
3.73503	0.401
3.776	0.437
3.81698	0.444
3.85795	0.571
3.89892	0.611
3.93989	0.686
3.98087	0.729
4.02184	0.753
4.06281	0.784
4.10379	0.808
4.14476	0.833
4.18573	0.85
4.22671	0.87
4.26768	0.884
4.30865	0.886
4.34963	0.905
4.3906	0.929
4.43157	0.936
4.47254	0.939
4.51352	0.946
4.55449	0.946
4.59546	0.948
4.63644	0.95
4.67741	0.95
4.71838	0.951
4.75936	0.953
4.80033	0.956
4.8413	0.955
4.88228	0.95
4.92325	0.956
4.96422	0.953
5.00519	0.96
5.04617	0.951
5.08714	0.95
5.12811	0.943
5.16909	0.891
5.21006	0.936
5.25103	0.924
5.29201	0.888
5.33298	0.922
5.37395	0.903
5.41492	0.905
5.4559	0.898
5.49687	0.877
5.53784	0.872
5.57882	0.879
5.61979	0.841
5.66076	0.843
5.70174	0.867
5.74271	0.858
5.78368	0.858
5.82466	0.865
5.86563	0.86
5.9066	0.855
5.94757	0.85
5.98855	0.848
6.02952	0.862
6.07049	0.876
6.11147	0.876
6.15244	0.864
6.19341	0.788
6.23439	0.864
6.27536	0.865
6.31633	0.839
6.3573	0.912
6.39828	0.92
6.43925	0.91
6.48022	0.884
6.5212	0.652
6.56217	0.731
6.60314	0.8
6.64412	0.848
6.68509	0.855
6.72606	0.669
6.76704	0.728
6.80801	0.309
6.84898	0.366
6.88995	0.237
6.93093	0.478
6.9719	0.578
7.01287	0.521
7.05385	0.223
7.09482	0.046
7.13579	0.275
7.17677	0.401
7.21774	0.549
7.25871	0.695
7.29968	0.705
7.34066	0.509
7.38163	0.707
7.4226	0.765
7.46358	0.8
7.50455	0.721
7.54552	0.826
7.5865	0.841
7.62747	0.43
7.66844	0.6
7.70942	0.829
7.75039	0.721
7.79136	0.647
7.83233	0.228
7.87331	0.44
7.91428	0.788
7.95525	0.845
7.99623	0.851
8.0372	0.771
8.07817	0.643
8.11915	0.595
8.16012	0.407
8.20109	0.697
8.24207	0.79
8.28304	0.736
8.32401	0.716
8.36498	0.764
8.40596	0.779
8.44693	0.757
8.4879	0.633
8.52888	0.509
8.56985	0.598
8.61082	0.722
8.6518	0.774
8.69277	0.845
8.73374	0.85
8.77471	0.865
8.81569	0.869
8.85666	0.869
8.89763	0.869
8.93861	0.872
8.97958	0.857
9.02055	0.819
9.06153	0.841
9.1025	0.829
9.14347	0.857
9.18445	0.869
9.22542	0.858
9.26639	0.85
9.30736	0.867
9.34834	0.87
9.38931	0.872
9.43028	0.877
9.47126	0.877
9.51223	0.876
9.5532	0.872
9.59418	0.874
9.63515	0.865
9.67612	0.858
9.71709	0.843
9.75807	0.796
9.79904	0.64
9.84001	0.368
9.88099	0.543
9.92196	0.672
9.96293	0.767
10.0039	0.611
10.0449	0.339
10.0859	0.567
10.1268	0.643
10.1678	0.683
10.2088	0.786
10.2497	0.836
10.2907	0.85
10.3317	0.855
10.3727	0.86
10.4136	0.86
10.4546	0.858
10.4956	0.851
10.5366	0.834
10.5775	0.802
10.6185	0.796
10.6595	0.786
10.7004	0.705
10.7414	0.741
10.7824	0.753
10.8234	0.774
10.8643	0.777
10.9053	0.769
10.9463	0.771
10.9873	0.752
11.0282	0.738
11.0692	0.771
11.1102	0.845
11.1512	0.86
11.1921	0.845
11.2331	0.824
11.2741	0.808
11.315	0.803
11.356	0.808
11.397	0.814
11.438	0.824
11.4789	0.836
11.5199	0.85
11.5609	0.865
11.6019	0.874
11.6428	0.877
11.6838	0.888
11.7248	0.896
11.7657	0.912
11.8067	0.919
11.8477	0.912
11.8887	0.877
11.9296	0.874
11.9706	0.893
12.0116	0.908
12.0526	0.915
12.0935	0.917
12.1345	0.903
12.1755	0.901
12.2165	0.915
12.2574	0.927
12.2984	0.931
12.3394	0.936
12.3803	0.936
12.4213	0.936
12.4623	0.925
12.5033	0.869
12.5442	0.702
12.5852	0.796
12.6262	0.898
12.6672	0.932
12.7081	0.944
12.7491	0.948
12.7901	0.951
12.831	0.951
12.872	0.951
12.913	0.924
12.954	0.695
12.9949	0.573
13.0359	0.784
13.0769	0.858
13.1179	0.862
13.1588	0.746
13.1998	0.347
13.2408	0.263
13.2817	0.401
13.3227	0.309
13.3637	0.445
13.4047	0.672
13.4456	0.764
13.4866	0.781
13.5276	0.786
13.5686	0.734
13.6095	0.559
13.6505	0.495
13.6915	0.707
13.7325	0.851
13.7734	0.901
13.8144	0.917
13.8554	0.925
13.8963	0.936
13.9373	0.938
13.9783	0.939
14.0193	0.941
14.0602	0.943
14.1012	0.941
14.1422	0.941
14.1832	0.941
14.2241	0.941
14.2651	0.941
14.3061	0.941
14.347	0.941
14.388	0.936
14.429	0.936
14.47	0.931
14.5109	0.929
14.5519	0.927
14.5929	0.925
14.6339	0.925
14.6748	0.924
14.7158	0.919
14.7568	0.915
14.7978	0.913
14.8387	0.907
14.8797	0.901
14.9207	0.898
14.9616	0.889
15.0026	0.872
15.0436	0.862
15.0846	0.858
15.1255	0.855
15.1665	0.851
15.2075	0.843
15.2485	0.838
15.2894	0.827
15.3304	0.826
15.3714	0.817
15.4123	0.812
15.4533	0.803
15.4943	0.8
15.5353	0.795
15.5762	0.79
15.6172	0.784
15.6582	0.777
15.6992	0.774
15.7401	0.769
15.7811	0.762
15.8221	0.759
15.8631	0.755
15.904	0.753
15.945	0.75
15.986	0.748
