Infrared Spectrum: DIETHYLENE GLYCOL, MONO-(2,5-DICHLOROPHENYL) ETHER
Formula: C10 H12 Cl2 O3
CAS: 116435-12-2
State: SOLUTION (10% CCl4 FOR 5000-1330, 10% CS2 FOR 1330-625 CM^-^1)
Class: COBLENTZ
Instrument: Not specified, most likely a prism, grating, or hybrid spectrometer.
Sampling: TRANSMISSION
Path length: 0.0122 CM, 0.0122 CM
Resolution: 4
Origin: DOW CHEMICAL COMPANY
MICROMETERS	TRANSMITTANCE
2.041	0.9
2.08212	0.9
2.12324	0.9
2.16435	0.907
2.20547	0.895
2.24659	0.892
2.28771	0.897
2.32883	0.899
2.36994	0.899
2.41106	0.894
2.45218	0.883
2.4933	0.888
2.53442	0.895
2.57553	0.897
2.61665	0.894
2.65777	0.89
2.69889	0.864
2.74001	0.77
2.78112	0.676
2.82224	0.68
2.86336	0.639
2.90448	0.673
2.94559	0.75
2.98671	0.801
3.02783	0.844
3.06895	0.87
3.11007	0.876
3.15118	0.88
3.1923	0.866
3.23342	0.859
3.27454	0.873
3.31566	0.801
3.35677	0.558
3.39789	0.348
3.43901	0.389
3.48013	0.603
3.52125	0.762
3.56236	0.817
3.60348	0.839
3.6446	0.852
3.68572	0.878
3.72684	0.885
3.76795	0.9
3.80907	0.907
3.85019	0.904
3.89131	0.892
3.93243	0.883
3.97354	0.9
4.01466	0.909
4.05578	0.912
4.0969	0.912
4.13802	0.914
4.17913	0.907
4.22025	0.894
4.26137	0.89
4.30249	0.89
4.3436	0.899
4.38472	0.902
4.42584	0.912
4.46696	0.916
4.50808	0.912
4.54919	0.916
4.59031	0.916
4.63143	0.912
4.67255	0.911
4.71367	0.907
4.75478	0.914
4.7959	0.916
4.83702	0.919
4.87814	0.923
4.91926	0.921
4.96037	0.911
5.00149	0.902
5.04261	0.902
5.08373	0.902
5.12485	0.907
5.16596	0.911
5.20708	0.912
5.2482	0.914
5.28932	0.905
5.33044	0.888
5.37155	0.904
5.41267	0.914
5.45379	0.921
5.49491	0.914
5.53603	0.916
5.57714	0.916
5.61826	0.914
5.65938	0.912
5.7005	0.904
5.74161	0.895
5.78273	0.902
5.82385	0.911
5.86497	0.912
5.90609	0.905
5.9472	0.899
5.98832	0.904
6.02944	0.905
6.07056	0.89
6.11168	0.866
6.15279	0.822
6.19391	0.712
6.23503	0.488
6.27615	0.186
6.31727	0.266
6.35838	0.367
6.3995	0.418
6.44062	0.444
6.48174	0.536
6.52286	0.565
6.56397	0.593
6.60509	0.611
6.64621	0.56
6.68733	0.427
6.72845	0.051
6.76956	0.147
6.81068	0.317
6.8518	0.285
6.89292	0.567
6.93404	0.6
6.97515	0.589
7.01627	0.581
7.05739	0.502
7.09851	0.295
7.13963	0.326
7.18074	0.458
7.22186	0.482
7.26298	0.528
7.3041	0.547
7.34521	0.494
7.38633	0.618
7.42745	0.721
7.46857	0.724
7.50969	0.728
7.5508	0.733
7.59192	0.676
7.63304	0.567
7.67416	0.454
7.71528	0.365
7.75639	0.35
7.79751	0.338
7.83863	0.266
7.87975	0.119
7.92087	0.111
7.96198	0.215
8.0031	0.268
8.04422	0.326
8.08534	0.381
8.12646	0.485
8.16757	0.572
8.20869	0.606
8.24981	0.646
8.29093	0.7
8.33205	0.733
8.37316	0.745
8.41428	0.743
8.4554	0.729
8.49652	0.714
8.53764	0.69
8.57875	0.656
8.61987	0.582
8.66099	0.497
8.70211	0.343
8.74322	0.182
8.78434	0.088
8.82546	0.058
8.86658	0.09
8.9077	0.16
8.94881	0.278
8.98993	0.347
9.03105	0.362
9.07217	0.316
9.11329	0.232
9.1544	0.191
9.19552	0.258
9.23664	0.252
9.27776	0.186
9.31888	0.1
9.35999	0.058
9.40111	0.061
9.44223	0.109
9.48335	0.17
9.52447	0.189
9.56558	0.217
9.6067	0.278
9.64782	0.348
9.68894	0.408
9.73006	0.439
9.77117	0.488
9.81229	0.555
9.85341	0.608
9.89453	0.664
9.93565	0.716
9.97676	0.743
10.0179	0.762
10.059	0.774
10.1001	0.786
10.1412	0.789
10.1824	0.793
10.2235	0.786
10.2646	0.772
10.3057	0.747
10.3468	0.695
10.3879	0.61
10.4291	0.507
10.4702	0.391
10.5113	0.307
10.5524	0.307
10.5935	0.35
10.6347	0.447
10.6758	0.507
10.7169	0.529
10.758	0.552
10.7991	0.576
10.8402	0.596
10.8814	0.62
10.9225	0.641
10.9636	0.652
11.0047	0.649
11.0458	0.63
11.0869	0.608
11.1281	0.582
11.1692	0.552
11.2103	0.504
11.2514	0.478
11.2925	0.483
11.3337	0.521
11.3748	0.541
11.4159	0.545
11.457	0.514
11.4981	0.476
11.5392	0.459
11.5804	0.446
11.6215	0.405
11.6626	0.374
11.7037	0.379
11.7448	0.418
11.786	0.444
11.8271	0.435
11.8682	0.4
11.9093	0.35
11.9504	0.348
11.9915	0.446
12.0327	0.55
12.0738	0.591
12.1149	0.618
12.156	0.639
12.1971	0.647
12.2383	0.634
12.2794	0.6
12.3205	0.565
12.3616	0.528
12.4027	0.476
12.4438	0.357
12.485	0.229
12.5261	0.29
12.5672	0.499
12.6083	0.668
12.6494	0.765
12.6905	0.798
12.7317	0.818
12.7728	0.83
12.8139	0.844
12.855	0.854
12.8961	0.863
12.9373	0.864
12.9784	0.868
13.0195	0.866
13.0606	0.868
13.1017	0.868
13.1428	0.868
13.184	0.87
13.2251	0.87
13.2662	0.868
13.3073	0.861
13.3484	0.849
13.3896	0.827
13.4307	0.8
13.4718	0.77
13.5129	0.75
13.554	0.741
13.5951	0.752
13.6363	0.779
13.6774	0.801
13.7185	0.817
13.7596	0.82
13.8007	0.808
13.8418	0.781
13.883	0.762
13.9241	0.765
13.9652	0.782
14.0063	0.798
14.0474	0.808
14.0886	0.81
14.1297	0.801
14.1708	0.794
14.2119	0.796
14.253	0.803
14.2941	0.81
14.3353	0.815
14.3764	0.82
14.4175	0.822
14.4586	0.822
14.4997	0.822
14.5409	0.82
14.582	0.818
14.6231	0.818
14.6642	0.818
14.7053	0.813
14.7464	0.801
14.7876	0.786
14.8287	0.765
14.8698	0.752
14.9109	0.748
14.952	0.752
14.9932	0.76
15.0343	0.769
15.0754	0.76
15.1165	0.748
15.1576	0.736
15.1987	0.726
15.2399	0.716
15.281	0.705
15.3221	0.705
15.3632	0.711
15.4043	0.721
15.4454	0.728
15.4866	0.729
15.5277	0.729
15.5688	0.731
15.6099	0.735
15.651	0.736
15.6922	0.738
15.7333	0.738
15.7744	0.738
15.8155	0.738
15.8566	0.736
15.8977	0.735
