Infrared Spectrum: 3-(N-METHYLANILINO)-2-(n-PENTYL)-5-(n-HEPTYL) PYRAZINE
Formula: C23 H35 N3
CAS: 116402-85-8
State: LIQUID
Class: COBLENTZ
Instrument: Not specified, most likely a prism, grating, or hybrid spectrometer.
Sampling: TRANSMISSION
Path length: 0.003 CM
Resolution: 4
Origin: WYANDOTTE CHEMICALS CORP., WYANDOTTE, MICHIGAN, USA
MICROMETERS	TRANSMITTANCE
2.113	0.837
2.15281	0.837
2.19262	0.782
2.23243	0.771
2.27224	0.779
2.31205	0.787
2.35186	0.794
2.39167	0.779
2.43148	0.802
2.47129	0.804
2.51109	0.804
2.5509	0.807
2.59071	0.859
2.63052	0.771
2.67033	0.834
2.71014	0.817
2.74995	0.802
2.78976	0.822
2.82957	0.802
2.86938	0.794
2.90919	0.769
2.949	0.762
2.98881	0.757
3.02862	0.756
3.06843	0.754
3.10824	0.737
3.14805	0.731
3.18786	0.726
3.22766	0.63
3.26747	0.461
3.30728	0.366
3.34709	0.22
3.3869	0.026
3.42671	0.036
3.46652	0.053
3.50633	0.041
3.54614	0.336
3.58595	0.563
3.62576	0.656
3.66557	0.679
3.70538	0.701
3.74519	0.704
3.785	0.719
3.82481	0.734
3.86462	0.739
3.90443	0.742
3.94423	0.756
3.98404	0.771
4.02385	0.787
4.06366	0.789
4.10347	0.782
4.14328	0.781
4.18309	0.787
4.2229	0.781
4.26271	0.719
4.30252	0.704
4.34233	0.716
4.38214	0.797
4.42195	0.809
4.46176	0.805
4.50157	0.804
4.54138	0.807
4.58119	0.81
4.621	0.81
4.66081	0.807
4.70061	0.805
4.74042	0.804
4.78023	0.802
4.82004	0.802
4.85985	0.804
4.89966	0.804
4.93947	0.805
4.97928	0.807
5.01909	0.815
5.0589	0.805
5.09871	0.812
5.13852	0.804
5.17833	0.769
5.21814	0.756
5.25795	0.784
5.29776	0.8
5.33757	0.796
5.37738	0.761
5.41718	0.774
5.45699	0.779
5.4968	0.761
5.53661	0.764
5.57642	0.752
5.61623	0.756
5.65604	0.726
5.69585	0.749
5.73566	0.723
5.77547	0.708
5.81528	0.674
5.85509	0.655
5.8949	0.65
5.93471	0.641
5.97452	0.621
6.01433	0.598
6.05414	0.618
6.09395	0.605
6.13376	0.54
6.17356	0.318
6.21337	0.071
6.25318	0.276
6.29299	0.318
6.3328	0.404
6.37261	0.343
6.41242	0.441
6.45223	0.449
6.49204	0.225
6.53185	0.109
6.57166	0.21
6.61147	0.215
6.65128	0.056
6.69109	0.112
6.7309	0.184
6.77071	0.099
6.81052	0.046
6.85033	0.067
6.89013	0.054
6.92994	0.053
6.96975	0.053
7.00956	0.112
7.04937	0.306
7.08918	0.266
7.12899	0.179
7.1688	0.058
7.20861	0.039
7.24842	0.043
7.28823	0.049
7.32804	0.074
7.36785	0.126
7.40766	0.19
7.44747	0.242
7.48728	0.248
7.52709	0.263
7.5669	0.27
7.6067	0.25
7.64651	0.225
7.68632	0.212
7.72613	0.217
7.76594	0.243
7.80575	0.258
7.84556	0.237
7.88537	0.192
7.92518	0.165
7.96499	0.165
8.0048	0.218
8.04461	0.325
8.08442	0.379
8.12423	0.417
8.16404	0.457
8.20385	0.446
8.24366	0.421
8.28347	0.336
8.32328	0.248
8.36308	0.194
8.40289	0.159
8.4427	0.159
8.48251	0.17
8.52232	0.172
8.56213	0.147
8.60194	0.102
8.64175	0.086
8.68156	0.126
8.72137	0.23
8.76118	0.222
8.80099	0.114
8.8408	0.061
8.88061	0.096
8.92042	0.127
8.96023	0.18
9.00004	0.212
9.03985	0.243
9.07965	0.306
9.11946	0.351
9.15927	0.333
9.19908	0.308
9.23889	0.288
9.2787	0.268
9.31851	0.3
9.35832	0.338
9.39813	0.386
9.43794	0.407
9.47775	0.439
9.51756	0.522
9.55737	0.553
9.59718	0.547
9.63699	0.504
9.6768	0.426
9.71661	0.356
9.75642	0.396
9.79622	0.482
9.83603	0.542
9.87584	0.563
9.91565	0.548
9.95546	0.505
9.99527	0.474
10.0351	0.452
10.0749	0.462
10.1147	0.464
10.1545	0.472
10.1943	0.492
10.2341	0.515
10.2739	0.537
10.3137	0.557
10.3536	0.585
10.3934	0.6
10.4332	0.605
10.473	0.621
10.5128	0.638
10.5526	0.653
10.5924	0.668
10.6322	0.673
10.672	0.666
10.7118	0.651
10.7517	0.635
10.7915	0.62
10.8313	0.621
10.8711	0.616
10.9109	0.621
10.9507	0.61
10.9905	0.605
11.0303	0.588
11.0701	0.567
11.1099	0.542
11.1497	0.53
11.1896	0.529
11.2294	0.522
11.2692	0.519
11.309	0.524
11.3488	0.538
11.3886	0.558
11.4284	0.598
11.4682	0.618
11.508	0.641
11.5478	0.663
11.5877	0.683
11.6275	0.693
11.6673	0.698
11.7071	0.696
11.7469	0.689
11.7867	0.681
11.8265	0.668
11.8663	0.653
11.9061	0.66
11.9459	0.648
11.9857	0.641
12.0256	0.62
12.0654	0.61
12.1052	0.613
12.145	0.625
12.1848	0.648
12.2246	0.653
12.2644	0.665
12.3042	0.661
12.344	0.661
12.3838	0.668
12.4236	0.661
12.4635	0.655
12.5033	0.648
12.5431	0.653
12.5829	0.651
12.6227	0.643
12.6625	0.636
12.7023	0.63
12.7421	0.613
12.7819	0.6
12.8217	0.58
12.8616	0.555
12.9014	0.509
12.9412	0.462
12.981	0.394
13.0208	0.311
13.0606	0.266
13.1004	0.23
13.1402	0.195
13.18	0.174
13.2198	0.154
13.2596	0.147
13.2995	0.14
13.3393	0.139
13.3791	0.17
13.4189	0.225
13.4587	0.31
13.4985	0.368
13.5383	0.402
13.5781	0.434
13.6179	0.446
13.6577	0.452
13.6976	0.454
13.7374	0.449
13.7772	0.431
13.817	0.422
13.8568	0.421
13.8966	0.444
13.9364	0.464
13.9762	0.482
14.016	0.497
14.0558	0.492
14.0956	0.469
14.1355	0.434
14.1753	0.364
14.2151	0.293
14.2549	0.235
14.2947	0.17
14.3345	0.145
14.3743	0.127
14.4141	0.135
14.4539	0.154
14.4937	0.175
14.5336	0.213
14.5734	0.271
14.6132	0.338
14.653	0.411
14.6928	0.485
14.7326	0.533
14.7724	0.558
14.8122	0.573
14.852	0.573
14.8918	0.572
14.9316	0.57
14.9715	0.575
15.0113	0.58
15.0511	0.545
15.0909	0.494
15.1307	0.467
15.1705	0.499
15.2103	0.537
15.2501	0.552
15.2899	0.557
15.3297	0.558
15.3695	0.56
15.4094	0.562
15.4492	0.562
15.489	0.555
15.5288	0.553
15.5686	0.548
15.6084	0.548
15.6482	0.538
15.688	0.535
15.7278	0.524
15.7676	0.52
15.8075	0.515
15.8473	0.51
15.8871	0.504
15.9269	0.5
15.9667	0.499
16.0065	0.499
