Infrared Spectrum: Benzonitrile, p-(3-butyl-3-methyl-1-triazeno)-
Formula: C12 H16 N4
CAS: 116495-79-5
State: SOLID (1 mg / 650 mg KBr DISC)
Class: COBLENTZ III
Instrument: PERKIN-ELMER 521 (GRATING)
Instrument parameters: FILTERS AT 3150, 2500, 2000, 1150, 700, 410. GRATING CHANGES: 2000, 630
Sampling: TRANSMISSION
Resolution: 2
Origin: SOUTHERN RESEARCH INSTITUTE
1/CM	TRANSMITTANCE
254	0.2828
264	0.3357
274	0.4335
284	0.5311
294	0.5816
304	0.6309
314	0.6848
324	0.7136
334	0.7454
344	0.7779
354	0.8005
364	0.8246
374	0.845
384	0.8576
394	0.8634
404	0.8669
414	0.8735
424	0.8847
434	0.8821
444	0.8771
454	0.8721
464	0.8736
474	0.8729
484	0.8647
494	0.8547
504	0.8463
514	0.847
524	0.8019
534	0.7752
544	0.7991
554	0.5843
564	0.6826
574	0.8192
584	0.8136
594	0.8243
604	0.8197
614	0.8247
624	0.8446
634	0.8434
644	0.8276
654	0.825
664	0.8496
674	0.836
684	0.832
694	0.8282
704	0.8192
714	0.8046
724	0.7924
734	0.8002
744	0.7986
754	0.7987
764	0.8064
774	0.8018
784	0.792
794	0.7717
804	0.7687
814	0.766
824	0.7266
834	0.5719
844	0.3635
854	0.746
864	0.7804
874	0.7781
884	0.7725
894	0.7633
904	0.7338
914	0.6923
924	0.7727
934	0.7593
944	0.7467
954	0.7529
964	0.7509
974	0.7459
984	0.7385
994	0.7277
1004	0.7161
1014	0.7144
1024	0.7001
1034	0.6709
1044	0.6358
1054	0.5849
1064	0.5567
1074	0.6111
1084	0.6204
1094	0.4789
1104	0.4064
1114	0.4179
1124	0.5511
1134	0.6376
1144	0.6118
1154	0.3789
1164	0.4609
1174	0.6414
1184	0.5206
1194	0.4348
1204	0.385
1214	0.5567
1224	0.6302
1234	0.6214
1244	0.6063
1254	0.5903
1264	0.5607
1274	0.4499
1284	0.4875
1294	0.5003
1304	0.4283
1314	0.3706
1324	0.3918
1334	0.3071
1344	0.1569
1354	0.1061
1364	0.2591
1374	0.3271
1384	0.3269
1394	0.4997
1404	0.5863
1414	0.3785
1424	0.175
1434	0.403
1444	0.3808
1454	0.3658
1464	0.2685
1474	0.3553
1484	0.4956
1494	0.4126
1504	0.6134
1514	0.6468
1524	0.665
1534	0.6723
1544	0.6759
1554	0.676
1564	0.6731
1574	0.6635
1584	0.6338
1594	0.376
1604	0.5327
1614	0.6544
1624	0.6678
1634	0.6716
1644	0.6716
1654	0.6713
1664	0.672
1674	0.6751
1684	0.6784
1694	0.6873
1704	0.6914
1714	0.6915
1724	0.6913
1734	0.6912
1744	0.6914
1754	0.6915
1764	0.6915
1774	0.6916
1784	0.6917
1794	0.6919
1804	0.6916
1814	0.6911
1824	0.6911
1834	0.6911
1844	0.6905
1854	0.6898
1864	0.6883
1874	0.6865
1884	0.6838
1894	0.6804
1904	0.6767
1914	0.6739
1924	0.6768
1934	0.6808
1944	0.6837
1954	0.6863
1964	0.6885
1974	0.6887
1984	0.6886
1994	0.6824
2004	0.6719
2014	0.6712
2024	0.6708
2034	0.671
2044	0.6706
2054	0.6701
2064	0.669
2074	0.668
2084	0.667
2094	0.6661
2104	0.6658
2114	0.6659
2124	0.6662
2134	0.6674
2144	0.6668
2154	0.6617
2164	0.6562
2174	0.6541
2184	0.6515
2194	0.6354
2204	0.5902
2214	0.3591
2224	0.4254
2234	0.6444
2244	0.6575
2254	0.6614
2264	0.6637
2274	0.6644
2284	0.6652
2294	0.665
2304	0.6614
2314	0.6574
2324	0.6556
2334	0.6535
2344	0.6523
2354	0.6516
2364	0.652
2374	0.6525
2384	0.6527
2394	0.6527
2404	0.6528
2414	0.653
2424	0.6551
2434	0.6553
2444	0.6555
2454	0.6554
2464	0.6509
2474	0.6481
2484	0.6468
2494	0.6468
2504	0.647
2514	0.6465
2524	0.6447
2534	0.6426
2544	0.6403
2554	0.6387
2564	0.6373
2574	0.6393
2584	0.6438
2594	0.6472
2604	0.6473
2614	0.6466
2624	0.645
2634	0.6442
2644	0.6441
2654	0.644
2664	0.643
2674	0.6417
2684	0.6396
2694	0.6375
2704	0.6356
2714	0.6338
2724	0.6317
2734	0.6296
2744	0.6283
2754	0.6275
2764	0.6262
2774	0.6246
2784	0.6229
2794	0.62
2804	0.6156
2814	0.6097
2824	0.5997
2834	0.5767
2844	0.5479
2854	0.5153
2864	0.4746
2874	0.4947
2884	0.5256
2894	0.5076
2904	0.4711
2914	0.4235
2924	0.376
2934	0.4067
2944	0.4245
2954	0.3751
2964	0.4481
2974	0.5461
2984	0.5944
2994	0.6051
3004	0.6117
3014	0.6185
3024	0.6176
3034	0.6154
3044	0.6158
3054	0.6165
3064	0.619
3074	0.629
3084	0.6336
3094	0.6346
3104	0.635
3114	0.6376
3124	0.6356
3134	0.6291
3144	0.6295
3154	0.6308
3164	0.6314
3174	0.6307
3184	0.6269
3194	0.6244
3204	0.6321
3214	0.6318
3224	0.6305
3234	0.6292
3244	0.628
3254	0.627
3264	0.6264
3274	0.6256
3284	0.6243
3294	0.6234
3304	0.6225
3314	0.6216
3324	0.6207
3334	0.6195
3344	0.6175
3354	0.6155
3364	0.6135
3374	0.6116
3384	0.6094
3394	0.6071
3404	0.6051
3414	0.6042
3424	0.6056
3434	0.6061
3444	0.6076
3454	0.6086
3464	0.6099
3474	0.6111
3484	0.612
3494	0.613
3504	0.6145
3514	0.6161
3524	0.6178
3534	0.6194
3544	0.6213
3554	0.6234
3564	0.6259
3574	0.6287
3584	0.6311
3594	0.6333
3604	0.6355
3614	0.6377
3624	0.6395
3634	0.6409
3644	0.642
3654	0.6429
3664	0.6436
3674	0.6442
3684	0.6443
3694	0.6445
3704	0.6447
3714	0.645
3724	0.6453
3734	0.6479
3744	0.6458
3754	0.646
3764	0.6462
3774	0.6452
3784	0.6441
3794	0.6435
3804	0.6434
3814	0.643
3824	0.6411
3834	0.6389
3844	0.6448
3854	0.6471
3864	0.6472
3874	0.6474
3884	0.6476
3894	0.6468
3904	0.646
3914	0.6459
3924	0.6455
3934	0.6449
3944	0.6443
3954	0.6436
3964	0.6428
3974	0.6418
3984	0.6407
3994	0.6396
