Infrared Spectrum: BENZOIC ACID, 4-[3-(2-CHLOROETHYL)-3-NITROSOUREIDO]-3,5-DIMETHYL-
Formula: C12 H14 Cl N3 O4
CAS: 116465-95-3
State: SOLID (1 mg / 650 mg KBr DISC)
Class: COBLENTZ III
Instrument: PERKIN-ELMER 521 (GRATING)
Instrument parameters: FILTERS AT 3130, 2475, 2000, 620. GRATING CHANGES: 2000, 630 CM^-^1
Sampling: TRANSMISSION
Resolution: 2
Origin: SOUTHERN RESEARCH INSTITUTE
1/CM	TRANSMITTANCE
256.962	0.267
266.526	0.357
276.09	0.447
285.654	0.484
295.218	0.516
304.782	0.59
314.346	0.635
323.91	0.65
333.474	0.672
343.038	0.639
352.602	0.689
362.166	0.7179
371.73	0.765
381.294	0.792
390.858	0.802
400.422	0.811
409.986	0.808
419.551	0.777
429.115	0.779
438.679	0.763
448.243	0.703
457.807	0.7789
467.371	0.821
476.935	0.823
486.499	0.821
496.063	0.79
505.627	0.783
515.191	0.803
524.755	0.792
534.319	0.77
543.883	0.713
553.447	0.629
563.011	0.625
572.575	0.656
582.139	0.751
591.703	0.722
601.267	0.786
610.831	0.805
620.395	0.816
629.959	0.817
639.523	0.818
649.087	0.797
658.651	0.7031
668.215	0.8027
677.779	0.821
687.343	0.832
696.907	0.822
706.471	0.7481
716.035	0.808
725.6	0.825
735.164	0.772
744.728	0.595
754.292	0.774
763.856	0.708
773.42	0.415
782.984	0.543
792.548	0.317
802.112	0.817
811.676	0.822
821.24	0.815
830.804	0.798
840.368	0.777
849.932	0.731
859.496	0.632
869.06	0.755
878.624	0.751
888.188	0.702
897.752	0.642
907.316	0.638
916.88	0.631
926.444	0.597
936.008	0.5161
945.572	0.3351
955.136	0.431
964.7	0.516
974.264	0.676
983.828	0.725
993.392	0.697
1002.96	0.612
1012.52	0.758
1022.08	0.776
1031.65	0.766
1041.21	0.736
1050.78	0.694
1060.34	0.585
1069.9	0.3799
1079.47	0.45
1089.03	0.604
1098.6	0.707
1108.16	0.736
1117.72	0.754
1127.29	0.624
1136.85	0.659
1146.42	0.742
1155.98	0.761
1165.54	0.755
1175.11	0.736
1184.67	0.704
1194.24	0.674
1203.8	0.605
1213.37	0.496
1222.93	0.4341
1232.49	0.65
1242.06	0.577
1251.62	0.5079
1261.19	0.4272
1270.75	0.676
1280.31	0.667
1289.88	0.549
1299.44	0.469
1309.01	0.465
1318.57	0.351
1328.13	0.277
1337.7	0.504
1347.26	0.703
1356.83	0.719
1366.39	0.69
1375.95	0.687
1385.52	0.7
1395.08	0.6739
1404.65	0.55
1414.21	0.431
1423.77	0.405
1433.34	0.318
1442.9	0.409
1452.47	0.4631
1462.03	0.53
1471.59	0.476
1481.16	0.345
1490.72	0.234
1500.29	0.1512
1509.85	0.387
1519.41	0.315
1528.98	0.2071
1538.54	0.636
1548.11	0.712
1557.67	0.742
1567.23	0.742
1576.8	0.694
1586.36	0.617
1595.93	0.5909
1605.49	0.678
1615.05	0.74
1624.62	0.739
1634.18	0.727
1643.75	0.7
1653.31	0.646
1662.87	0.553
1672.44	0.398
1682	0.2329
1691.57	0.1931
1701.13	0.375
1710.69	0.433
1720.26	0.331
1729.82	0.2139
1739.39	0.2786
1748.95	0.7
1758.51	0.758
1768.08	0.777
1777.64	0.79
1787.21	0.793
1796.77	0.797
1806.33	0.8
1815.9	0.805
1825.46	0.808
1835.03	0.81
1844.59	0.811
1854.16	0.818
1863.72	0.824
1873.28	0.827
1882.85	0.832
1892.41	0.835
1901.98	0.836
1911.54	0.837
1921.1	0.84
1930.67	0.842
1940.23	0.842
1949.8	0.842
1959.36	0.843
1968.92	0.845
1978.49	0.845
1988.05	0.847
1997.62	0.837
2007.18	0.834
2016.74	0.831
2026.31	0.8338
2035.87	0.8349
2045.44	0.8341
2055	0.8323
2064.56	0.831
2074.13	0.835
2083.69	0.836
2093.26	0.835
2102.82	0.835
2112.38	0.835
2121.95	0.835
2131.51	0.8344
2141.08	0.831
2150.64	0.827
2160.2	0.8235
2169.77	0.8215
2179.33	0.819
2188.9	0.8174
2198.46	0.816
2208.02	0.813
2217.59	0.812
2227.15	0.81
2236.72	0.81
2246.28	0.8048
2255.84	0.7954
2265.41	0.79
2274.97	0.792
2284.54	0.795
2294.1	0.796
2303.66	0.795
2313.23	0.791
2322.79	0.786
2332.36	0.781
2341.92	0.78
2351.48	0.7761
2361.05	0.7721
2370.61	0.771
2380.18	0.768
2389.74	0.76
2399.3	0.755
2408.87	0.752
2418.43	0.7413
2428	0.736
2437.56	0.7277
2447.13	0.7238
2456.69	0.7089
2466.25	0.706
2475.82	0.695
2485.38	0.685
2494.95	0.6705
2504.51	0.665
2514.07	0.655
2523.64	0.6409
2533.2	0.635
2542.77	0.639
2552.33	0.6405
2561.89	0.6432
2571.46	0.643
2581.02	0.6415
2590.59	0.626
2600.15	0.6058
2609.71	0.6051
2619.28	0.6174
2628.84	0.636
2638.41	0.646
2647.97	0.655
2657.53	0.655
2667.1	0.655
2676.66	0.651
2686.23	0.6501
2695.79	0.652
2705.35	0.6578
2714.92	0.659
2724.48	0.661
2734.05	0.662
2743.61	0.662
2753.17	0.662
2762.74	0.6564
2772.3	0.654
2781.87	0.645
2791.43	0.63
2800.99	0.615
2810.56	0.6
2820.12	0.597
2829.69	0.597
2839.25	0.595
2848.81	0.595
2858.38	0.597
2867.94	0.599
2877.51	0.597
2887.07	0.5954
2896.63	0.5948
2906.2	0.5848
2915.76	0.5747
2925.33	0.5711
2934.89	0.586
2944.45	0.587
2954.02	0.575
2963.58	0.569
2973.15	0.574
2982.71	0.5879
2992.27	0.592
3001.84	0.5979
3011.4	0.595
3020.97	0.5982
3030.53	0.6175
3040.09	0.622
3049.66	0.624
3059.22	0.629
3068.79	0.6387
3078.35	0.6502
3087.92	0.6602
3097.48	0.6676
3107.04	0.675
3116.61	0.6865
3126.17	0.6974
3135.74	0.7084
3145.3	0.7014
3154.86	0.708
3164.43	0.712
3173.99	0.716
3183.56	0.7203
3193.12	0.722
3202.68	0.723
3212.25	0.725
3221.81	0.725
3231.38	0.725
3240.94	0.723
3250.5	0.722
3260.07	0.7129
3269.63	0.707
3279.2	0.704
3288.76	0.703
3298.32	0.703
3307.89	0.704
3317.45	0.708
3327.02	0.709
3336.58	0.7072
3346.14	0.6992
3355.71	0.6346
3365.27	0.4224
3374.84	0.5659
3384.4	0.6883
3393.96	0.7186
3403.53	0.7286
3413.09	0.7356
3422.66	0.739
3432.22	0.739
3441.78	0.74
3451.35	0.742
3460.91	0.7488
3470.48	0.7558
3480.04	0.758
3489.6	0.761
3499.17	0.765
3508.73	0.772
3518.3	0.7762
3527.86	0.783
3537.42	0.791
3546.99	0.795
3556.55	0.8021
3566.12	0.8062
3575.68	0.812
3585.24	0.8191
3594.81	0.822
3604.37	0.8269
3613.94	0.8309
3623.5	0.8398
3633.06	0.842
3642.63	0.847
3652.19	0.848
3661.76	0.8492
3671.32	0.85
3680.89	0.85
3690.45	0.8537
3700.01	0.855
3709.58	0.855
3719.14	0.855
3728.71	0.856
3738.27	0.855
3747.83	0.855
3757.4	0.856
3766.96	0.856
3776.53	0.856
3786.09	0.856
3795.65	0.856
3805.22	0.855
3814.78	0.856
