Infrared Spectrum: 1,2,4-CYCLOHEXANETRICARBOXYLIC ACID, 2,2,4-TRIMETHYLPENTYL ESTER
Formula: C33 H60 O6
CAS: 116401-25-3
Class: COBLENTZ
Instrument: Not specified, most likely a prism, grating, or hybrid spectrometer.
Sampling: TRANSMISSION
Path length: SMEAR
Resolution: 4
Origin: TENNESSEE EASTMAN COMPANY, RESEARCH LABORATORIES
MICROMETERS	TRANSMITTANCE
2.02	0.996
2.06092	0.994
2.10184	0.996
2.14275	0.996
2.18367	0.998
2.22459	0.993
2.26551	0.958
2.30642	0.945
2.34734	0.95
2.38826	0.95
2.42918	0.957
2.4701	0.96
2.51101	0.97
2.55193	0.97
2.59285	0.967
2.63377	0.965
2.67468	0.97
2.7156	0.97
2.75652	0.969
2.79744	0.962
2.83836	0.955
2.87927	0.953
2.92019	0.928
2.96111	0.947
3.00203	0.948
3.04294	0.945
3.08386	0.945
3.12478	0.936
3.1657	0.929
3.20662	0.935
3.24753	0.936
3.28845	0.907
3.32937	0.617
3.37029	0.001
3.4112	0.114
3.45212	0.184
3.49304	0.485
3.53396	0.794
3.57488	0.878
3.61579	0.904
3.65671	0.905
3.69763	0.899
3.73855	0.928
3.77946	0.94
3.82038	0.941
3.8613	0.945
3.90222	0.947
3.94314	0.95
3.98405	0.96
4.02497	0.96
4.06589	0.96
4.10681	0.96
4.14772	0.96
4.18864	0.957
4.22956	0.952
4.27048	0.931
4.3114	0.924
4.35231	0.941
4.39323	0.955
4.43415	0.957
4.47507	0.957
4.51598	0.958
4.5569	0.958
4.59782	0.958
4.63874	0.957
4.67966	0.953
4.72057	0.957
4.76149	0.958
4.80241	0.96
4.84333	0.96
4.88424	0.958
4.92516	0.958
4.96608	0.958
5.007	0.965
5.04792	0.962
5.08883	0.958
5.12975	0.957
5.17067	0.958
5.21159	0.96
5.2525	0.96
5.29342	0.958
5.33434	0.955
5.37526	0.948
5.41618	0.948
5.45709	0.94
5.49801	0.924
5.53893	0.899
5.57985	0.856
5.62076	0.8
5.66168	0.641
5.7026	0.189
5.74352	0.022
5.78444	0.037
5.82535	0.311
5.86627	0.579
5.90719	0.697
5.94811	0.774
5.98902	0.827
6.02994	0.861
6.07086	0.858
6.11178	0.88
6.1527	0.89
6.19361	0.897
6.23453	0.914
6.27545	0.919
6.31637	0.923
6.35728	0.917
6.3982	0.895
6.43912	0.909
6.48004	0.883
6.52096	0.89
6.56187	0.859
6.60279	0.842
6.64371	0.82
6.68463	0.721
6.72554	0.37
6.76646	0.22
6.80738	0.27
6.8483	0.34
6.88922	0.452
6.93013	0.639
6.97105	0.745
7.01197	0.769
7.05289	0.752
7.0938	0.67
7.13472	0.437
7.17564	0.384
7.21656	0.309
7.25747	0.288
7.29839	0.211
7.33931	0.348
7.38023	0.502
7.42115	0.601
7.46206	0.601
7.50298	0.608
7.5439	0.6
7.58482	0.545
7.62573	0.422
7.66665	0.4
7.70757	0.417
7.74849	0.434
7.78941	0.381
7.83032	0.324
7.87124	0.232
7.91216	0.133
7.95308	0.119
7.99399	0.167
8.03491	0.184
8.07583	0.206
8.11675	0.2
8.15767	0.164
8.19858	0.158
8.2395	0.152
8.28042	0.129
8.32134	0.095
8.36225	0.076
8.40317	0.063
8.44409	0.056
8.48501	0.056
8.52593	0.058
8.56684	0.071
8.60776	0.124
8.64868	0.164
8.6896	0.172
8.73051	0.278
8.77143	0.444
8.81235	0.547
8.85327	0.545
8.89419	0.432
8.9351	0.439
8.97602	0.56
9.01694	0.652
9.05786	0.671
9.09877	0.617
9.13969	0.567
9.18061	0.581
9.22153	0.651
9.26245	0.719
9.30336	0.76
9.34428	0.764
9.3852	0.719
9.42612	0.678
9.46703	0.663
9.50795	0.62
9.54887	0.452
9.58979	0.285
9.63071	0.261
9.67162	0.4
9.71254	0.499
9.75346	0.456
9.79438	0.364
9.83529	0.287
9.87621	0.273
9.91713	0.324
9.95805	0.37
9.99897	0.405
10.0399	0.429
10.0808	0.441
10.1217	0.473
10.1626	0.523
10.2036	0.576
10.2445	0.603
10.2854	0.625
10.3263	0.654
10.3672	0.702
10.4081	0.74
10.4491	0.741
10.49	0.702
10.5309	0.675
10.5718	0.658
10.6127	0.652
10.6537	0.658
10.6946	0.673
10.7355	0.661
10.7764	0.642
10.8173	0.641
10.8582	0.67
10.8992	0.716
10.9401	0.762
10.981	0.788
11.0219	0.801
11.0628	0.808
11.1037	0.818
11.1447	0.839
11.1856	0.852
11.2265	0.861
11.2674	0.866
11.3083	0.871
11.3493	0.876
11.3902	0.878
11.4311	0.878
11.472	0.866
11.5129	0.856
11.5538	0.849
11.5948	0.846
11.6357	0.859
11.6766	0.871
11.7175	0.88
11.7584	0.887
11.7993	0.892
11.8403	0.895
11.8812	0.897
11.9221	0.897
11.963	0.89
12.0039	0.868
12.0449	0.852
12.0858	0.844
12.1267	0.837
12.1676	0.839
12.2085	0.849
12.2494	0.863
12.2904	0.88
12.3313	0.89
12.3722	0.899
12.4131	0.904
12.454	0.902
12.4949	0.897
12.5359	0.882
12.5768	0.87
12.6177	0.856
12.6586	0.847
12.6995	0.841
12.7405	0.841
12.7814	0.839
12.8223	0.834
12.8632	0.83
12.9041	0.827
12.945	0.822
12.986	0.823
13.0269	0.825
13.0678	0.827
13.1087	0.825
13.1496	0.817
13.1906	0.811
13.2315	0.806
13.2724	0.8
13.3133	0.796
13.3542	0.803
13.3951	0.815
13.4361	0.829
13.477	0.839
13.5179	0.842
13.5588	0.847
13.5997	0.846
13.6406	0.842
13.6816	0.839
13.7225	0.834
13.7634	0.829
13.8043	0.823
13.8452	0.82
13.8862	0.817
13.9271	0.81
13.968	0.806
14.0089	0.8
14.0498	0.796
14.0907	0.793
14.1317	0.791
14.1726	0.786
14.2135	0.781
14.2544	0.779
14.2953	0.774
14.3362	0.769
14.3772	0.764
14.4181	0.757
14.459	0.752
14.4999	0.748
14.5408	0.736
14.5818	0.733
14.6227	0.728
14.6636	0.721
14.7045	0.717
14.7454	0.709
14.7863	0.702
14.8273	0.697
14.8682	0.687
14.9091	0.676
14.95	0.668
14.9909	0.659
15.0319	0.652
15.0728	0.651
15.1137	0.646
15.1546	0.641
15.1955	0.635
15.2364	0.63
15.2774	0.622
15.3183	0.615
15.3592	0.611
15.4001	0.606
15.441	0.603
15.4819	0.598
15.5229	0.596
15.5638	0.594
15.6047	0.593
15.6456	0.589
15.6865	0.588
15.7275	0.582
15.7684	0.581
15.8093	0.577
15.8502	0.576
15.8911	0.574
15.932	0.57
15.973	0.574
