Infrared Spectrum: 1-n-PENTYLSULFONYL-3-BROMO-2-PROPANONE
Formula: C8 H15 Br O3 S
CAS: 116402-68-7
State: SOLID (KBr PRESSING)
Melting point: 116-117 C
Class: COBLENTZ
Instrument: Not specified, most likely a prism, grating, or hybrid spectrometer.
Sampling: TRANSMISSION
Resolution: 4
Origin: EASTMAN KODAK COMPANY, RESEARCH LABORATORIES, ROCHESTER, N.Y.
MICROMETERS	TRANSMITTANCE
2.013	0.499
2.05296	0.497
2.09293	0.494
2.13289	0.495
2.17285	0.5
2.21281	0.495
2.25278	0.481
2.29274	0.482
2.3327	0.49
2.37267	0.5
2.41263	0.505
2.45259	0.51
2.49256	0.514
2.53252	0.523
2.57248	0.532
2.61244	0.538
2.65241	0.545
2.69237	0.551
2.73233	0.558
2.7723	0.551
2.81226	0.53
2.85222	0.507
2.89219	0.482
2.93215	0.476
2.97211	0.497
3.01207	0.525
3.05204	0.54
3.092	0.543
3.13196	0.548
3.17193	0.551
3.21189	0.538
3.25185	0.522
3.29182	0.485
3.33178	0.271
3.37174	0.151
3.4117	0.158
3.45167	0.38
3.49163	0.309
3.53159	0.537
3.57156	0.602
3.61152	0.63
3.65148	0.644
3.69144	0.652
3.73141	0.665
3.77137	0.665
3.81133	0.673
3.8513	0.678
3.89126	0.685
3.93122	0.693
3.97119	0.696
4.01115	0.706
4.05111	0.71
4.09107	0.711
4.13104	0.698
4.171	0.723
4.21096	0.731
4.25093	0.734
4.29089	0.734
4.33085	0.738
4.37082	0.739
4.41078	0.747
4.45074	0.754
4.4907	0.759
4.53067	0.766
4.57063	0.757
4.61059	0.759
4.65056	0.751
4.69052	0.751
4.73048	0.757
4.77044	0.761
4.81041	0.759
4.85037	0.759
4.89033	0.761
4.9303	0.769
4.97026	0.771
5.01022	0.772
5.05019	0.784
5.09015	0.784
5.13011	0.789
5.17007	0.79
5.21004	0.797
5.25	0.8
5.28996	0.795
5.32993	0.803
5.36989	0.805
5.40985	0.817
5.44982	0.803
5.48978	0.802
5.52974	0.795
5.5697	0.784
5.60967	0.771
5.64963	0.677
5.68959	0.355
5.72956	0.072
5.76952	0.474
5.80948	0.555
5.84945	0.731
5.88941	0.761
5.92937	0.802
5.96933	0.818
6.0093	0.83
6.04926	0.808
6.08922	0.8
6.12919	0.815
6.16915	0.818
6.20911	0.838
6.24907	0.841
6.28904	0.853
6.329	0.864
6.36896	0.856
6.40893	0.859
6.44889	0.859
6.48885	0.845
6.52882	0.855
6.56878	0.851
6.60874	0.84
6.6487	0.831
6.68867	0.822
6.72863	0.8
6.76859	0.756
6.80856	0.487
6.84852	0.532
6.88848	0.634
6.92845	0.733
6.96841	0.749
7.00837	0.752
7.04833	0.662
7.0883	0.678
7.12826	0.657
7.16822	0.331
7.20819	0.352
7.24815	0.514
7.28811	0.273
7.32808	0.454
7.36804	0.579
7.408	0.662
7.44796	0.68
7.48793	0.621
7.52789	0.446
7.56785	0.149
7.60782	0.098
7.64778	0.057
7.68774	0.133
7.7277	0.069
7.76767	0.042
7.80763	0.14
7.84759	0.27
7.88756	0.294
7.92752	0.219
7.96748	0.261
8.00745	0.566
8.04741	0.68
8.08737	0.67
8.12733	0.677
8.1673	0.744
8.20726	0.739
8.24722	0.617
8.28719	0.341
8.32715	0.522
8.36711	0.741
8.40708	0.789
8.44704	0.799
8.487	0.802
8.52696	0.802
8.56693	0.79
8.60689	0.766
8.64685	0.683
8.68682	0.537
8.72678	0.176
8.76674	0.021
8.8067	0.031
8.84667	0.171
8.88663	0.397
8.92659	0.555
8.96656	0.573
9.00652	0.502
9.04648	0.532
9.08645	0.701
9.12641	0.784
9.16637	0.812
9.20633	0.808
9.2463	0.83
9.28626	0.85
9.32622	0.85
9.36619	0.85
9.40615	0.845
9.44611	0.831
9.48608	0.82
9.52604	0.79
9.566	0.723
9.60596	0.56
9.64593	0.413
9.68589	0.514
9.72585	0.663
9.76582	0.754
9.80578	0.818
9.84574	0.853
9.88571	0.878
9.92567	0.873
9.96563	0.851
10.0056	0.848
10.0456	0.881
10.0855	0.901
10.1255	0.914
10.1654	0.92
10.2054	0.92
10.2454	0.914
10.2853	0.894
10.3253	0.883
10.3653	0.874
10.4052	0.869
10.4452	0.891
10.4851	0.909
10.5251	0.922
10.5651	0.937
10.605	0.95
10.645	0.953
10.685	0.96
10.7249	0.955
10.7649	0.945
10.8049	0.932
10.8448	0.833
10.8848	0.667
10.9247	0.703
10.9647	0.851
11.0047	0.901
11.0446	0.909
11.0846	0.896
11.1246	0.883
11.1645	0.879
11.2045	0.897
11.2444	0.93
11.2844	0.953
11.3244	0.958
11.3643	0.958
11.4043	0.948
11.4443	0.93
11.4842	0.871
11.5242	0.795
11.5641	0.746
11.6041	0.782
11.6441	0.84
11.684	0.863
11.724	0.884
11.764	0.909
11.8039	0.934
11.8439	0.942
11.8839	0.943
11.9238	0.939
11.9638	0.942
12.0037	0.95
12.0437	0.948
12.0837	0.953
12.1236	0.955
12.1636	0.957
12.2036	0.957
12.2435	0.953
12.2835	0.955
12.3234	0.952
12.3634	0.95
12.4034	0.937
12.4433	0.925
12.4833	0.909
12.5233	0.873
12.5632	0.818
12.6032	0.731
12.6432	0.634
12.6831	0.612
12.7231	0.66
12.763	0.714
12.803	0.759
12.843	0.782
12.8829	0.787
12.9229	0.782
12.9629	0.772
13.0028	0.764
13.0428	0.742
13.0827	0.719
13.1227	0.713
13.1627	0.718
13.2026	0.733
13.2426	0.752
13.2826	0.766
13.3225	0.78
13.3625	0.8
13.4024	0.822
13.4424	0.84
13.4824	0.855
13.5223	0.859
13.5623	0.85
13.6023	0.836
13.6422	0.812
13.6822	0.779
13.7222	0.762
13.7621	0.78
13.8021	0.823
13.842	0.861
13.882	0.889
13.922	0.904
13.9619	0.92
14.0019	0.932
14.0419	0.939
14.0818	0.94
14.1218	0.943
14.1617	0.945
14.2017	0.943
14.2417	0.943
14.2816	0.934
14.3216	0.924
14.3616	0.914
14.4015	0.909
14.4415	0.892
14.4814	0.883
14.5214	0.887
14.5614	0.896
14.6013	0.907
14.6413	0.919
14.6813	0.922
14.7212	0.922
14.7612	0.914
14.8012	0.909
14.8411	0.899
14.8811	0.871
14.921	0.802
14.961	0.78
15.001	0.822
15.0409	0.835
15.0809	0.81
15.1209	0.79
15.1608	0.761
15.2008	0.729
15.2407	0.701
15.2807	0.686
15.3207	0.683
15.3606	0.691
15.4006	0.7
15.4406	0.705
15.4805	0.713
15.5205	0.716
15.5604	0.719
15.6004	0.723
15.6404	0.726
15.6803	0.728
15.7203	0.728
15.7603	0.728
15.8002	0.729
15.8402	0.728
15.8802	0.728
15.9201	0.728
15.9601	0.726
16	0.726
