Infrared Spectrum: 2-TRIMETHYLSILYL-3-METHYL PYRAZINE
Formula: C8 H14 N2 Si
CAS: 116402-92-7
State: LIQUID
Class: COBLENTZ
Instrument: Not specified, most likely a prism, grating, or hybrid spectrometer.
Sampling: TRANSMISSION
Path length: 0.0015 CM
Resolution: 4
Origin: WYANDOTTE CHEMICALS CORP., WYANDOTTE, MICHIGAN, USA
MICROMETERS	TRANSMITTANCE
2.041	0.962
2.082	0.952
2.12299	0.94
2.16399	0.941
2.20499	0.917
2.24599	0.924
2.28698	0.929
2.32798	0.935
2.36898	0.938
2.40997	0.936
2.45097	0.941
2.49197	0.94
2.53296	0.933
2.57396	0.928
2.61496	0.917
2.65596	0.921
2.69695	0.914
2.73795	0.919
2.77895	0.914
2.81994	0.905
2.86094	0.89
2.90194	0.883
2.94294	0.88
2.98393	0.878
3.02493	0.894
3.06593	0.894
3.10692	0.883
3.14792	0.87
3.18892	0.854
3.22991	0.76
3.27091	0.617
3.31191	0.588
3.35291	0.305
3.3939	0.362
3.4349	0.521
3.4759	0.675
3.51689	0.762
3.55789	0.818
3.59889	0.847
3.63989	0.888
3.68088	0.899
3.72188	0.902
3.76288	0.914
3.80387	0.919
3.84487	0.921
3.88587	0.933
3.92686	0.929
3.96786	0.928
4.00886	0.929
4.04986	0.917
4.09085	0.917
4.13185	0.926
4.17285	0.929
4.21384	0.929
4.25484	0.919
4.29584	0.931
4.33684	0.928
4.37783	0.938
4.41883	0.931
4.45983	0.928
4.50082	0.921
4.54182	0.924
4.58282	0.926
4.62381	0.929
4.66481	0.935
4.70581	0.928
4.74681	0.924
4.7878	0.914
4.8288	0.9
4.8698	0.912
4.91079	0.923
4.95179	0.911
4.99279	0.914
5.03379	0.899
5.07478	0.89
5.11578	0.902
5.15678	0.888
5.19777	0.849
5.23877	0.851
5.27977	0.885
5.32077	0.899
5.36176	0.888
5.40276	0.885
5.44376	0.905
5.48475	0.9
5.52575	0.883
5.56675	0.875
5.60774	0.892
5.64874	0.899
5.68974	0.894
5.73074	0.882
5.77173	0.864
5.81273	0.835
5.85373	0.82
5.89472	0.829
5.93572	0.842
5.97672	0.842
6.01772	0.832
6.05871	0.837
6.09971	0.83
6.14071	0.839
6.1817	0.837
6.2227	0.837
6.2637	0.844
6.30469	0.837
6.34569	0.815
6.38669	0.757
6.42769	0.646
6.46868	0.688
6.50968	0.683
6.55068	0.565
6.59167	0.634
6.63267	0.717
6.67367	0.721
6.71467	0.692
6.75566	0.637
6.79666	0.57
6.83766	0.475
6.87865	0.376
6.91965	0.338
6.96065	0.302
7.00164	0.276
7.04264	0.304
7.08364	0.299
7.12464	0.34
7.16563	0.358
7.20663	0.104
7.24763	0.111
7.28862	0.278
7.32962	0.143
7.37062	0.403
7.41162	0.627
7.45261	0.707
7.49361	0.723
7.53461	0.69
7.5756	0.675
7.6166	0.707
7.6576	0.728
7.69859	0.747
7.73959	0.753
7.78059	0.726
7.82159	0.685
7.86258	0.6
7.90358	0.242
7.94458	0.097
7.98557	0.027
8.02657	0.126
8.06757	0.454
8.10857	0.639
8.14956	0.707
8.19056	0.731
8.23156	0.719
8.27255	0.719
8.31355	0.651
8.35455	0.449
8.39554	0.547
8.43654	0.7
8.47754	0.743
8.51854	0.758
8.55953	0.736
8.60053	0.717
8.64153	0.678
8.68252	0.603
8.72352	0.552
8.76452	0.487
8.80552	0.398
8.84651	0.418
8.88751	0.555
8.92851	0.678
8.9695	0.733
9.0105	0.719
9.0515	0.598
9.09249	0.432
9.13349	0.442
9.17449	0.386
9.21549	0.567
9.25648	0.63
9.29748	0.591
9.33848	0.393
9.37947	0.201
9.42047	0.451
9.46147	0.591
9.50247	0.649
9.54346	0.652
9.58446	0.625
9.62546	0.572
9.66645	0.545
9.70745	0.596
9.74845	0.654
9.78944	0.699
9.83044	0.7
9.87144	0.702
9.91244	0.748
9.95343	0.764
9.99443	0.767
10.0354	0.76
10.0764	0.74
10.1174	0.712
10.1584	0.652
10.1994	0.56
10.2404	0.429
10.2814	0.388
10.3224	0.473
10.3634	0.577
10.4044	0.651
10.4454	0.699
10.4864	0.738
10.5274	0.758
10.5684	0.765
10.6094	0.767
10.6504	0.769
10.6914	0.76
10.7324	0.762
10.7734	0.76
10.8144	0.75
10.8554	0.735
10.8964	0.729
10.9374	0.702
10.9784	0.682
11.0194	0.651
11.0604	0.608
11.1014	0.538
11.1423	0.531
11.1833	0.516
11.2243	0.476
11.2653	0.422
11.3063	0.35
11.3473	0.266
11.3883	0.172
11.4293	0.082
11.4703	0.041
11.5113	0.03
11.5523	0.029
11.5933	0.03
11.6343	0.037
11.6753	0.052
11.7163	0.061
11.7573	0.051
11.7983	0.039
11.8393	0.03
11.8803	0.03
11.9213	0.029
11.9623	0.029
12.0033	0.03
12.0443	0.029
12.0853	0.035
12.1263	0.044
12.1673	0.08
12.2083	0.138
12.2493	0.201
12.2903	0.27
12.3313	0.34
12.3723	0.401
12.4133	0.452
12.4543	0.488
12.4953	0.524
12.5362	0.55
12.5772	0.565
12.6182	0.582
12.6592	0.588
12.7002	0.582
12.7412	0.55
12.7822	0.468
12.8232	0.299
12.8642	0.321
12.9052	0.478
12.9462	0.56
12.9872	0.565
13.0282	0.516
13.0692	0.459
13.1102	0.362
13.1512	0.27
13.1922	0.205
13.2332	0.196
13.2742	0.215
13.3152	0.215
13.3562	0.181
13.3972	0.177
13.4382	0.205
13.4792	0.311
13.5202	0.415
13.5612	0.511
13.6022	0.569
13.6432	0.618
13.6842	0.641
13.7252	0.658
13.7662	0.678
13.8072	0.676
13.8482	0.685
13.8892	0.692
13.9301	0.687
13.9711	0.69
14.0121	0.688
14.0531	0.682
14.0941	0.67
14.1351	0.647
14.1761	0.632
14.2171	0.603
14.2581	0.56
14.2991	0.516
14.3401	0.468
14.3811	0.429
14.4221	0.413
14.4631	0.403
14.5041	0.429
14.5451	0.471
14.5861	0.531
14.6271	0.598
14.6681	0.654
14.7091	0.699
14.7501	0.726
14.7911	0.75
14.8321	0.758
14.8731	0.767
14.9141	0.772
14.9551	0.776
14.9961	0.769
15.0371	0.743
15.0781	0.68
15.1191	0.6
15.1601	0.545
15.2011	0.504
15.2421	0.533
15.2831	0.615
15.324	0.69
15.365	0.741
15.406	0.779
15.447	0.811
15.488	0.806
15.529	0.811
15.57	0.817
15.611	0.825
15.652	0.827
15.693	0.818
15.734	0.815
15.775	0.81
15.816	0.801
15.857	0.786
15.898	0.772
15.939	0.747
15.98	0.711
