Infrared Spectrum: P-DIISOPROPYL DIPHENYL THIOUREA
Formula: C19 H24 N2 S
CAS: 116496-66-3
State: SOLUTION (10% CCl4 FOR 2.5-7.5, 10% CS2 FOR 7.5-16 MICRON)
Class: COBLENTZ
Instrument: Not specified, most likely a prism, grating, or hybrid spectrometer.
Sampling: TRANSMISSION
Path length: 0.01 CM, 0.01 CM
Resolution: 4
MICROMETERS	TRANSMITTANCE
2.093	0.891
2.12893	0.884
2.16487	0.884
2.2008	0.888
2.23673	0.89
2.27267	0.882
2.3086	0.875
2.34454	0.877
2.38047	0.882
2.4164	0.884
2.45234	0.884
2.48827	0.884
2.5242	0.882
2.56014	0.882
2.59607	0.881
2.632	0.888
2.66794	0.891
2.70387	0.898
2.7398	0.9
2.77574	0.897
2.81167	0.89
2.84761	0.874
2.88354	0.852
2.91947	0.742
2.95541	0.464
2.99134	0.604
3.02727	0.734
3.06321	0.702
3.09914	0.618
3.13507	0.533
3.17101	0.494
3.20694	0.508
3.24287	0.562
3.27881	0.585
3.31474	0.572
3.35068	0.51
3.38661	0.198
3.42254	0.384
3.45848	0.434
3.49441	0.586
3.53034	0.737
3.56628	0.801
3.60221	0.824
3.63814	0.833
3.67408	0.836
3.71001	0.842
3.74594	0.852
3.78188	0.868
3.81781	0.877
3.85375	0.875
3.88968	0.872
3.92561	0.877
3.96155	0.879
3.99748	0.877
4.03341	0.881
4.06935	0.884
4.10528	0.89
4.14121	0.897
4.17715	0.9
4.21308	0.9
4.24901	0.904
4.28495	0.9
4.32088	0.9
4.35682	0.9
4.39275	0.9
4.42868	0.9
4.46462	0.898
4.50055	0.9
4.53648	0.9
4.57242	0.902
4.60835	0.902
4.64428	0.902
4.68022	0.902
4.71615	0.902
4.75209	0.898
4.78802	0.898
4.82395	0.9
4.85989	0.9
4.89582	0.898
4.93175	0.898
4.96769	0.9
5.00362	0.9
5.03955	0.902
5.07549	0.902
5.11142	0.902
5.14735	0.9
5.18329	0.898
5.21922	0.89
5.25516	0.879
5.29109	0.87
5.32702	0.865
5.36296	0.872
5.39889	0.882
5.43482	0.893
5.47076	0.897
5.50669	0.9
5.54262	0.898
5.57856	0.891
5.61449	0.886
5.65042	0.888
5.68636	0.888
5.72229	0.89
5.75823	0.891
5.79416	0.89
5.83009	0.884
5.86603	0.882
5.90196	0.881
5.93789	0.875
5.97383	0.868
6.00976	0.856
6.04569	0.831
6.08163	0.813
6.11756	0.808
6.15349	0.806
6.18943	0.787
6.22536	0.735
6.2613	0.664
6.29723	0.631
6.33316	0.641
6.3691	0.65
6.40503	0.666
6.44096	0.679
6.4769	0.693
6.51283	0.702
6.54876	0.71
6.5847	0.707
6.62063	0.67
6.65656	0.611
6.6925	0.445
6.72843	0.308
6.76437	0.264
6.8003	0.228
6.83623	0.175
6.87217	0.289
6.9081	0.448
6.94403	0.585
6.97997	0.648
7.0159	0.602
7.05183	0.455
7.08777	0.381
7.1237	0.562
7.15963	0.648
7.19557	0.608
7.2315	0.505
7.26744	0.533
7.30337	0.524
7.3393	0.406
7.37524	0.246
7.41117	0.14
7.4471	0.143
7.48304	0.147
7.51897	0.15
7.5549	0.205
7.59084	0.235
7.62677	0.241
7.66271	0.207
7.69864	0.235
7.73457	0.274
7.77051	0.248
7.80644	0.219
7.84237	0.255
7.87831	0.303
7.91424	0.26
7.95017	0.124
7.98611	0.187
8.02204	0.285
8.05797	0.386
8.09391	0.402
8.12984	0.37
8.16578	0.34
8.20171	0.358
8.23764	0.443
8.27358	0.478
8.30951	0.404
8.34544	0.328
8.38138	0.285
8.41731	0.306
8.45324	0.342
8.48918	0.393
8.52511	0.407
8.56104	0.445
8.59698	0.501
8.63291	0.567
8.66885	0.622
8.70478	0.652
8.74071	0.661
8.77665	0.631
8.81258	0.629
8.84851	0.659
8.88445	0.671
8.92038	0.673
8.95631	0.673
8.99225	0.67
9.02818	0.664
9.06411	0.656
9.10005	0.648
9.13598	0.648
9.17192	0.686
9.20785	0.732
9.24378	0.774
9.27972	0.806
9.31565	0.826
9.35158	0.84
9.38752	0.838
9.42345	0.831
9.45938	0.773
9.49532	0.446
9.53125	0.503
9.56718	0.629
9.60312	0.737
9.63905	0.806
9.67499	0.842
9.71092	0.87
9.74685	0.874
9.78279	0.856
9.81872	0.716
9.85465	0.526
9.89059	0.673
9.92652	0.79
9.96245	0.859
9.99839	0.891
10.0343	0.898
10.0703	0.868
10.1062	0.859
10.1421	0.886
10.1781	0.897
10.214	0.897
10.2499	0.895
10.2859	0.893
10.3218	0.891
10.3577	0.886
10.3937	0.881
10.4296	0.877
10.4655	0.865
10.5015	0.856
10.5374	0.849
10.5733	0.843
10.6093	0.845
10.6452	0.849
10.6811	0.849
10.7171	0.845
10.753	0.82
10.7889	0.79
10.8249	0.753
10.8608	0.723
10.8967	0.737
10.9327	0.79
10.9686	0.824
11.0045	0.849
11.0405	0.87
11.0764	0.882
11.1123	0.886
11.1483	0.888
11.1842	0.884
11.2201	0.877
11.2561	0.867
11.292	0.868
11.3279	0.886
11.3639	0.898
11.3998	0.902
11.4357	0.902
11.4717	0.897
11.5076	0.89
11.5435	0.884
11.5795	0.872
11.6154	0.852
11.6513	0.817
11.6873	0.774
11.7232	0.737
11.7591	0.737
11.7951	0.75
11.831	0.758
11.8669	0.753
11.9029	0.707
11.9388	0.609
11.9747	0.466
12.0107	0.246
12.0466	0.141
12.0825	0.187
12.1185	0.292
12.1544	0.436
12.1903	0.503
12.2263	0.562
12.2622	0.609
12.2981	0.65
12.3341	0.7
12.37	0.753
12.4059	0.801
12.4419	0.838
12.4778	0.852
12.5137	0.865
12.5497	0.868
12.5856	0.87
12.6215	0.872
12.6575	0.875
12.6934	0.874
12.7293	0.865
12.7653	0.833
12.8012	0.792
12.8371	0.734
12.8731	0.734
12.909	0.778
12.9449	0.819
12.9809	0.851
13.0168	0.863
13.0527	0.882
13.0887	0.888
13.1246	0.89
13.1605	0.888
13.1965	0.875
13.2324	0.858
13.2683	0.838
13.3043	0.833
13.3402	0.828
13.3761	0.82
13.4121	0.806
13.448	0.787
13.4839	0.776
13.5199	0.764
13.5558	0.757
13.5917	0.73
13.6277	0.71
13.6636	0.718
13.6995	0.75
13.7355	0.773
13.7714	0.783
13.8073	0.783
13.8433	0.773
13.8792	0.757
13.9151	0.741
13.9511	0.719
13.987	0.702
14.0229	0.693
14.0589	0.679
14.0948	0.664
14.1307	0.643
14.1667	0.629
14.2026	0.613
14.2386	0.604
14.2745	0.595
14.3104	0.59
14.3464	0.592
14.3823	0.595
14.4182	0.604
14.4542	0.624
14.4901	0.638
14.526	0.65
14.562	0.668
14.5979	0.68
14.6338	0.691
14.6698	0.698
14.7057	0.702
14.7416	0.709
14.7776	0.709
14.8135	0.714
14.8494	0.718
14.8854	0.721
14.9213	0.725
14.9572	0.728
14.9932	0.734
15.0291	0.737
15.065	0.739
15.101	0.741
15.1369	0.741
15.1728	0.737
15.2088	0.734
15.2447	0.726
15.2806	0.721
15.3166	0.718
15.3525	0.716
15.3884	0.716
15.4244	0.718
15.4603	0.719
15.4962	0.723
15.5322	0.73
15.5681	0.734
15.604	0.739
