Infrared Spectrum: P-CHLOROBENZENE SULFONIC ACID, ACETYLENE HYDRAZIDE
Formula: C14 H12 Cl2 N4 O4 S2
CAS: 116465-37-3
State: SOLID (MINERAL OIL MULL)
Class: COBLENTZ
Instrument: Not specified, most likely a prism, grating, or hybrid spectrometer.
Sampling: TRANSMISSION
Resolution: 4
Origin: DOW CHEMICAL COMPANY
MICROMETERS	TRANSMITTANCE
2.04	0.232
2.0801	0.24
2.12019	0.25
2.16029	0.258
2.20038	0.265
2.24048	0.265
2.28057	0.262
2.32067	0.268
2.36077	0.277
2.40086	0.287
2.44096	0.297
2.48105	0.317
2.52115	0.322
2.56124	0.332
2.60134	0.34
2.64144	0.348
2.68153	0.355
2.72163	0.365
2.76172	0.372
2.80182	0.375
2.84191	0.378
2.88201	0.383
2.92211	0.392
2.9622	0.4
3.0023	0.412
3.04239	0.417
3.08249	0.285
3.12258	0.111
3.16268	0.227
3.20278	0.275
3.24287	0.267
3.28297	0.273
3.32306	0.198
3.36316	0.023
3.40325	0.025
3.44335	0.031
3.48345	0.083
3.52354	0.345
3.56364	0.452
3.60373	0.469
3.64383	0.482
3.68392	0.492
3.72402	0.502
3.76412	0.505
3.80421	0.52
3.84431	0.535
3.8844	0.545
3.9245	0.564
3.96459	0.572
4.00469	0.584
4.04479	0.595
4.08488	0.604
4.12498	0.611
4.16507	0.611
4.20517	0.612
4.24526	0.621
4.28536	0.639
4.32546	0.649
4.36555	0.651
4.40565	0.652
4.44574	0.656
4.48584	0.671
4.52593	0.674
4.56603	0.677
4.60613	0.682
4.64622	0.686
4.68632	0.689
4.72641	0.699
4.76651	0.707
4.8066	0.717
4.8467	0.726
4.8868	0.731
4.92689	0.732
4.96699	0.741
5.00708	0.751
5.04718	0.754
5.08727	0.759
5.12737	0.759
5.16747	0.749
5.20756	0.742
5.24766	0.752
5.28775	0.776
5.32785	0.781
5.36794	0.772
5.40804	0.779
5.44814	0.782
5.48823	0.796
5.52833	0.791
5.56842	0.791
5.60852	0.801
5.64861	0.797
5.68871	0.809
5.72881	0.818
5.7689	0.819
5.809	0.819
5.84909	0.814
5.88919	0.816
5.92928	0.818
5.96938	0.808
6.00948	0.801
6.04957	0.797
6.08967	0.816
6.12976	0.833
6.16986	0.843
6.20995	0.849
6.25005	0.751
6.29015	0.48
6.33024	0.37
6.37034	0.52
6.41043	0.624
6.45053	0.752
6.49062	0.782
6.53072	0.811
6.57082	0.814
6.61091	0.818
6.65101	0.808
6.6911	0.766
6.7312	0.629
6.77129	0.297
6.81139	0.13
6.85149	0.133
6.89158	0.14
6.93168	0.223
6.97177	0.484
7.01187	0.671
7.05196	0.734
7.09206	0.736
7.13216	0.534
7.17225	0.444
7.21235	0.447
7.25244	0.278
7.29254	0.288
7.33263	0.16
7.37273	0.045
7.41283	0.146
7.45292	0.308
7.49302	0.44
7.53311	0.475
7.57321	0.57
7.6133	0.57
7.6534	0.472
7.6935	0.53
7.73359	0.589
7.77369	0.502
7.81378	0.425
7.85388	0.599
7.89397	0.681
7.93407	0.709
7.97417	0.736
8.01426	0.742
8.05436	0.747
8.09445	0.762
8.13455	0.779
8.17464	0.787
8.21474	0.787
8.25484	0.776
8.29493	0.721
8.33503	0.731
8.37512	0.677
8.41522	0.57
8.45531	0.48
8.49541	0.307
8.53551	0.212
8.5756	0.161
8.6157	0.056
8.65579	0.038
8.69589	0.101
8.73598	0.26
8.77608	0.38
8.81618	0.467
8.85627	0.539
8.89637	0.579
8.93646	0.604
8.97656	0.585
9.01665	0.559
9.05675	0.512
9.09685	0.452
9.13694	0.378
9.17704	0.163
9.21713	0.096
9.25723	0.121
9.29732	0.153
9.33742	0.151
9.37752	0.115
9.41761	0.1
9.45771	0.106
9.4978	0.153
9.5379	0.217
9.57799	0.287
9.61809	0.355
9.65819	0.424
9.69828	0.474
9.73838	0.522
9.77847	0.56
9.81857	0.579
9.85866	0.53
9.89876	0.352
9.93886	0.415
9.97895	0.554
10.019	0.631
10.0591	0.662
10.0992	0.681
10.1393	0.687
10.1794	0.691
10.2195	0.692
10.2596	0.682
10.2997	0.651
10.3398	0.667
10.3799	0.697
10.42	0.701
10.4601	0.676
10.5002	0.639
10.5403	0.631
10.5804	0.595
10.6205	0.5
10.6606	0.412
10.7007	0.225
10.7408	0.116
10.7809	0.083
10.821	0.085
10.8611	0.155
10.9012	0.27
10.9412	0.388
10.9813	0.474
11.0214	0.555
11.0615	0.619
11.1016	0.661
11.1417	0.691
11.1818	0.714
11.2219	0.731
11.262	0.746
11.3021	0.757
11.3422	0.766
11.3823	0.779
11.4224	0.791
11.4625	0.803
11.5026	0.818
11.5427	0.824
11.5828	0.831
11.6229	0.841
11.663	0.846
11.7031	0.851
11.7432	0.851
11.7833	0.851
11.8234	0.843
11.8635	0.813
11.9035	0.697
11.9436	0.567
11.9837	0.569
12.0238	0.622
12.0639	0.597
12.104	0.39
12.1441	0.173
12.1842	0.308
12.2243	0.549
12.2644	0.661
12.3045	0.714
12.3446	0.756
12.3847	0.769
12.4248	0.787
12.4649	0.803
12.505	0.814
12.5451	0.823
12.5852	0.828
12.6253	0.831
12.6654	0.833
12.7055	0.834
12.7456	0.834
12.7857	0.829
12.8257	0.823
12.8658	0.806
12.9059	0.774
12.946	0.709
12.9861	0.657
13.0262	0.611
13.0663	0.515
13.1064	0.357
13.1465	0.108
13.1866	0.056
13.2267	0.148
13.2668	0.285
13.3069	0.409
13.347	0.514
13.3871	0.562
13.4272	0.587
13.4673	0.626
13.5074	0.656
13.5475	0.681
13.5876	0.691
13.6277	0.694
13.6678	0.694
13.7079	0.691
13.7479	0.679
13.788	0.669
13.8281	0.661
13.8682	0.657
13.9083	0.662
13.9484	0.679
13.9885	0.689
14.0286	0.694
14.0687	0.669
14.1088	0.575
14.1489	0.492
14.189	0.447
14.2291	0.485
14.2692	0.562
14.3093	0.601
14.3494	0.614
14.3895	0.621
14.4296	0.622
14.4697	0.622
14.5098	0.611
14.5499	0.609
14.59	0.601
14.6301	0.595
14.6702	0.587
14.7102	0.575
14.7503	0.565
14.7904	0.557
14.8305	0.549
14.8706	0.542
14.9107	0.532
14.9508	0.524
14.9909	0.51
15.031	0.495
15.0711	0.47
15.1112	0.452
15.1513	0.435
15.1914	0.417
15.2315	0.387
15.2716	0.358
15.3117	0.317
15.3518	0.27
15.3919	0.23
15.432	0.17
15.4721	0.14
15.5122	0.11
15.5523	0.1
15.5924	0.096
15.6324	0.093
15.6725	0.091
15.7126	0.095
15.7527	0.101
15.7928	0.11
15.8329	0.12
15.873	0.133
15.9131	0.136
