Infrared Spectrum: Alpha-Resorcylamide, N-(2-aminoethyl)-
Formula: C9 H12 N2 O3
CAS: 116465-83-9
State: SOLID (SPLIT MULL), FLUOROLUBE FOR 3800-1330 CM^-^1, NUJOL FOR 1330-400 CM^-^1
Class: COBLENTZ III
Instrument: DOW KBr FOREPRISM-GRATING
Instrument parameters: BLAZED AT 3.5, 12.0, 20.0 MICRON AND CHANGED AT 5.0, 7.5, 14.9 MICRON
Sampling: TRANSMISSION
Resolution: 2
Origin: DOW CHEMICAL COMPANY
1/CM	TRANSMITTANCE
3784	0.7893
3775	0.7907
3766	0.7922
3757	0.7938
3748	0.7953
3739	0.7967
3730	0.7981
3721	0.7997
3712	0.8012
3703	0.8028
3694	0.8044
3685	0.806
3676	0.8075
3667	0.8085
3658	0.8095
3649	0.8105
3640	0.8114
3631	0.8124
3622	0.8132
3613	0.8141
3604	0.8158
3595	0.8144
3586	0.8075
3577	0.8147
3568	0.8178
3559	0.8198
3550	0.8202
3541	0.8203
3532	0.8203
3523	0.8186
3514	0.8165
3505	0.8146
3496	0.8122
3487	0.8092
3478	0.8061
3469	0.8026
3460	0.7989
3451	0.795
3442	0.7886
3433	0.7808
3424	0.7728
3415	0.7624
3406	0.749
3397	0.7299
3388	0.7137
3379	0.6967
3370	0.6758
3361	0.3286
3352	0.3454
3343	0.5057
3334	0.5514
3325	0.5476
3316	0.5352
3307	0.4972
3298	0.3897
3289	0.4281
3280	0.4299
3271	0.4335
3262	0.4432
3253	0.4595
3244	0.4812
3235	0.5043
3226	0.518
3217	0.5198
3208	0.5051
3199	0.4299
3190	0.3997
3181	0.4382
3172	0.4772
3163	0.4998
3154	0.5223
3145	0.5438
3136	0.5574
3127	0.5667
3118	0.5714
3109	0.5717
3100	0.565
3091	0.5574
3082	0.556
3073	0.5555
3064	0.5553
3055	0.5558
3046	0.5566
3037	0.5575
3028	0.5589
3019	0.5592
3010	0.5535
3001	0.5501
2992	0.5628
2983	0.5641
2974	0.5609
2965	0.5087
2956	0.4469
2947	0.4835
2938	0.531
2929	0.5368
2920	0.5386
2911	0.5443
2902	0.547
2893	0.5478
2884	0.5485
2875	0.5492
2866	0.5502
2857	0.5506
2848	0.5388
2839	0.532
2830	0.5377
2821	0.5416
2812	0.5412
2803	0.5405
2794	0.5414
2785	0.5425
2776	0.5438
2767	0.5452
2758	0.5466
2749	0.5476
2740	0.5486
2731	0.5495
2722	0.5495
2713	0.5478
2704	0.545
2695	0.5401
2686	0.5349
2677	0.5284
2668	0.521
2659	0.5121
2650	0.5047
2641	0.4978
2632	0.4923
2623	0.4893
2614	0.4884
2605	0.4904
2596	0.4925
2587	0.4917
2578	0.4883
2569	0.4848
2560	0.4812
2551	0.477
2542	0.4728
2533	0.4685
2524	0.4647
2515	0.4615
2506	0.4621
2497	0.4637
2488	0.467
2479	0.4703
2470	0.4753
2461	0.4812
2452	0.4872
2443	0.4946
2434	0.5023
2425	0.51
2416	0.5176
2407	0.5252
2398	0.5329
2389	0.5403
2380	0.5477
2371	0.5551
2362	0.5625
2353	0.5707
2344	0.5791
2335	0.5874
2326	0.596
2317	0.6048
2308	0.6136
2299	0.6217
2290	0.6298
2281	0.6365
2272	0.6432
2263	0.6492
2254	0.6551
2245	0.6605
2236	0.6661
2227	0.6717
2218	0.6748
2209	0.6753
2200	0.6725
2191	0.6686
2182	0.6646
2173	0.6611
2164	0.6589
2155	0.6594
2146	0.6665
2137	0.6737
2128	0.6806
2119	0.6874
2110	0.6938
2101	0.6995
2092	0.7057
2083	0.7122
2074	0.7191
2065	0.7261
2056	0.7326
2047	0.7386
2038	0.7433
2029	0.746
2020	0.7471
2011	0.7493
2002	0.7524
1993	0.7574
1984	0.7618
1975	0.7624
1966	0.7711
1957	0.774
1948	0.769
1939	0.7664
1930	0.7651
1921	0.7651
1912	0.7653
1903	0.766
1894	0.7671
1885	0.7683
1876	0.7696
1867	0.7695
1858	0.7686
1849	0.7661
1840	0.7639
1831	0.7615
1822	0.7603
1813	0.7604
1804	0.7621
1795	0.764
1786	0.7651
1777	0.7657
1768	0.7665
1759	0.7685
1750	0.7704
1741	0.771
1732	0.7407
1723	0.6501
1714	0.3323
1705	0.1495
1696	0.1765
1687	0.358
1678	0.5394
1669	0.6001
1660	0.6467
1651	0.6599
1642	0.685
1633	0.6754
1624	0.5168
1615	0.3762
1606	0.216
1597	0.2319
1588	0.3025
1579	0.4525
1570	0.5665
1561	0.6138
1552	0.6093
1543	0.5562
1534	0.4665
1525	0.388
1516	0.3584
1507	0.3602
1498	0.324
1489	0.1864
1480	0.2341
1471	0.3674
1462	0.4254
1453	0.3148
1444	0.398
1435	0.0787
1426	0.3552
1417	0.4987
1408	0.5628
1399	0.5634
1390	0.539
1381	0.3556
1372	0.37
1363	0.1974
1354	0.1324
1345	0.1004
1336	0.1505
1327	0.2678
1318	0.4375
1309	0.2625
1300	0.3552
1291	0.4734
1282	0.5356
1273	0.51
1264	0.4186
1255	0.1845
1246	0.1779
1237	0.4985
1228	0.5484
1219	0.5975
1210	0.6496
1201	0.6884
1192	0.6807
1183	0.5925
1174	0.3125
1165	0.1423
1156	0.22
1147	0.4256
1138	0.5952
1129	0.649
1120	0.6768
1111	0.6359
1102	0.5233
1093	0.6415
1084	0.6746
1075	0.6096
1066	0.6253
1057	0.6653
1048	0.7137
1039	0.7145
1030	0.6955
1021	0.6294
1012	0.4034
1003	0.4102
994	0.3606
985	0.6538
976	0.6751
967	0.6364
958	0.6578
949	0.7128
940	0.7339
931	0.73
922	0.744
913	0.7358
904	0.7261
895	0.7397
886	0.7399
877	0.7399
868	0.7096
859	0.6812
850	0.7312
841	0.6954
832	0.7761
823	0.7985
814	0.7725
805	0.8216
796	0.8271
787	0.8198
778	0.6535
769	0.362
760	0.7289
751	0.8145
742	0.8172
733	0.8051
724	0.7631
715	0.8031
706	0.8097
697	0.8233
688	0.7626
679	0.7983
670	0.7895
661	0.8454
652	0.8675
643	0.8734
634	0.8771
625	0.8775
616	0.871
607	0.8502
598	0.8267
589	0.8307
580	0.8187
571	0.7628
562	0.7947
553	0.8217
544	0.8356
535	0.8296
526	0.8118
517	0.78
508	0.7644
499	0.7985
490	0.8318
481	0.8463
472	0.849
463	0.8467
454	0.8394
445	0.8103
436	0.6908
427	0.616
418	0.6468
409	0.7191
400	0.7682
391	0.7784
382	0.7821
