Infrared Spectrum: PHOSPHORIC TRIAMIDE, N,N',N''-TRI-p-ETHOXYPHENYL-,
Formula: C24 H30 N3 O4 P
CAS: 116402-15-4
State: SOLID (0.5% IN KBr PELLET)
Class: COBLENTZ
Instrument: PERKIN-ELMER
Sampling: TRANSMISSION
Resolution: 4
Origin: STANDARD OIL OF OHIO
MICROMETERS	TRANSMITTANCE
1.993	0.969
2.02675	0.967
2.0605	0.971
2.09425	0.972
2.128	0.972
2.16175	0.971
2.1955	0.972
2.22925	0.977
2.263	0.976
2.29675	0.972
2.3305	0.972
2.36425	0.979
2.398	0.982
2.43175	0.982
2.4655	0.977
2.49925	0.981
2.533	0.984
2.56675	0.984
2.6005	0.986
2.63425	0.991
2.668	0.989
2.70175	0.994
2.7355	0.988
2.76925	0.974
2.803	0.937
2.83675	0.892
2.8705	0.836
2.90425	0.814
2.938	0.768
2.97175	0.719
3.0055	0.683
3.03925	0.617
3.073	0.494
3.10675	0.459
3.1405	0.488
3.17425	0.579
3.208	0.698
3.24175	0.736
3.2755	0.763
3.30925	0.809
3.343	0.641
3.37675	0.658
3.4105	0.702
3.44425	0.702
3.478	0.724
3.51175	0.843
3.5455	0.899
3.57925	0.937
3.613	0.948
3.64675	0.959
3.6805	0.974
3.71425	0.991
3.748	1.003
3.78175	1.011
3.8155	1.018
3.84925	1.018
3.883	1.018
3.91675	1.02
3.9505	1.015
3.98425	1.017
4.018	1.018
4.05175	1.018
4.0855	1.018
4.11925	1.022
4.153	1.025
4.18675	1.025
4.2205	1.027
4.25425	1.027
4.288	1.027
4.32175	1.027
4.3555	1.027
4.38925	1.027
4.423	1.027
4.45675	1.027
4.4905	1.027
4.52425	1.027
4.558	1.027
4.59175	1.027
4.6255	1.027
4.65925	1.027
4.693	1.027
4.72675	1.027
4.7605	1.025
4.79425	1.018
4.828	1.013
4.86175	1.008
4.8955	1.006
4.92925	1.008
4.963	1.008
4.99675	1.013
5.0305	1.013
5.06425	1.01
5.098	1.01
5.13175	1.011
5.1655	1.015
5.19925	1.017
5.233	1.018
5.26675	1.011
5.3005	1.001
5.33425	0.991
5.368	0.991
5.40175	0.998
5.4355	1.011
5.46925	1.02
5.503	1.022
5.53675	1.023
5.5705	1.023
5.60425	1.022
5.638	1.02
5.67175	1.015
5.7055	1.011
5.73925	1.013
5.773	1.017
5.80675	1.017
5.8405	1.018
5.87425	1.017
5.908	1.017
5.94175	1.018
5.9755	1.008
6.00925	0.965
6.043	0.911
6.07675	0.852
6.1105	0.821
6.14425	0.802
6.178	0.799
6.21175	0.821
6.2455	0.85
6.27925	0.852
6.313	0.899
6.34675	0.94
6.3805	0.947
6.41425	0.94
6.448	0.916
6.48175	0.872
6.5155	0.668
6.54925	0.357
6.583	0.119
6.61675	0.017
6.6505	0.112
6.68425	0.488
6.718	0.455
6.75175	0.278
6.7855	0.324
6.81925	0.401
6.853	0.408
6.88675	0.452
6.9205	0.557
6.95425	0.69
6.988	0.801
7.02175	0.85
7.0555	0.855
7.08925	0.789
7.123	0.608
7.15675	0.358
7.1905	0.299
7.22425	0.397
7.258	0.493
7.29175	0.585
7.3255	0.687
7.35925	0.773
7.393	0.835
7.42675	0.865
7.4605	0.882
7.49425	0.889
7.528	0.879
7.56175	0.852
7.5955	0.712
7.62925	0.561
7.663	0.445
7.69675	0.45
7.7305	0.467
7.76425	0.42
7.798	0.306
7.83175	0.261
7.8655	0.295
7.89925	0.338
7.933	0.321
7.96675	0.251
8.0005	0.158
8.03425	0.102
8.068	0.068
8.10175	0.071
8.1355	0.076
8.16925	0.068
8.203	0.054
8.23675	0.045
8.2705	0.081
8.30425	0.18
8.338	0.285
8.37175	0.379
8.4055	0.403
8.43925	0.384
8.473	0.309
8.50675	0.256
8.5405	0.253
8.57425	0.365
8.608	0.469
8.64175	0.556
8.6755	0.639
8.70925	0.722
8.743	0.782
8.77675	0.821
8.8105	0.831
8.84425	0.806
8.878	0.715
8.91175	0.573
8.9455	0.452
8.97925	0.392
9.013	0.491
9.04675	0.607
9.0805	0.732
9.11425	0.777
9.148	0.765
9.18175	0.727
9.2155	0.739
9.24925	0.79
9.283	0.816
9.31675	0.821
9.3505	0.802
9.38425	0.767
9.418	0.656
9.45175	0.513
9.4855	0.36
9.51925	0.261
9.553	0.232
9.58675	0.251
9.6205	0.314
9.65425	0.414
9.688	0.503
9.72175	0.551
9.7555	0.564
9.78925	0.547
9.823	0.477
9.85675	0.403
9.8905	0.369
9.92425	0.392
9.958	0.367
9.99175	0.329
10.0255	0.29
10.0593	0.26
10.093	0.234
10.1267	0.219
10.1605	0.212
10.1943	0.212
10.228	0.215
10.2618	0.232
10.2955	0.251
10.3293	0.268
10.363	0.289
10.3968	0.301
10.4305	0.307
10.4642	0.309
10.498	0.302
10.5318	0.285
10.5655	0.268
10.5992	0.251
10.633	0.248
10.6668	0.248
10.7005	0.244
10.7342	0.246
10.768	0.25
10.8018	0.241
10.8355	0.238
10.8693	0.246
10.903	0.27
10.9367	0.318
10.9705	0.382
11.0043	0.455
11.038	0.517
11.0717	0.583
11.1055	0.622
11.1393	0.664
11.173	0.721
11.2067	0.761
11.2405	0.795
11.2743	0.819
11.308	0.836
11.3418	0.853
11.3755	0.863
11.4093	0.87
11.443	0.877
11.4768	0.88
11.5105	0.879
11.5442	0.869
11.578	0.85
11.6118	0.812
11.6455	0.761
11.6792	0.715
11.713	0.668
11.7468	0.622
11.7805	0.571
11.8142	0.53
11.848	0.493
11.8818	0.469
11.9155	0.445
11.9493	0.423
11.983	0.404
12.0168	0.396
12.0505	0.391
12.0843	0.382
12.118	0.37
12.1517	0.358
12.1855	0.36
12.2193	0.394
12.253	0.448
12.2867	0.517
12.3205	0.566
12.3543	0.61
12.388	0.639
12.4217	0.658
12.4555	0.673
12.4893	0.697
12.523	0.721
12.5568	0.751
12.5905	0.785
12.6242	0.816
12.658	0.843
12.6918	0.858
12.7255	0.869
12.7592	0.874
12.793	0.875
12.8268	0.869
12.8605	0.857
12.8942	0.848
12.928	0.833
12.9618	0.823
12.9955	0.814
13.0292	0.804
13.063	0.799
13.0968	0.795
13.1305	0.789
13.1643	0.785
13.198	0.782
13.2317	0.782
13.2655	0.78
13.2993	0.782
13.333	0.782
13.3667	0.782
13.4005	0.784
13.4343	0.787
13.468	0.792
13.5017	0.799
13.5355	0.806
13.5693	0.811
13.603	0.818
13.6368	0.826
13.6705	0.833
13.7043	0.841
13.738	0.85
13.7718	0.857
13.8055	0.86
13.8392	0.862
13.873	0.867
13.9068	0.867
13.9405	0.867
13.9742	0.863
14.008	0.853
14.0418	0.848
14.0755	0.838
14.1092	0.833
14.143	0.829
14.1768	0.829
14.2105	0.833
14.2443	0.841
14.278	0.846
14.3117	0.848
14.3455	0.852
14.3793	0.855
14.413	0.857
14.4467	0.857
14.4805	0.857
14.5143	0.857
14.548	0.857
14.5817	0.858
14.6155	0.858
14.6493	0.855
14.683	0.852
14.7167	0.85
14.7505	0.848
14.7843	0.845
14.818	0.843
14.8518	0.84
14.8855	0.84
14.9192	0.84
14.953	0.84
14.9868	0.845
15.0205	0.843
15.0542	0.836
15.088	0.833
15.1218	0.828
15.1555	0.824
15.1892	0.823
15.223	0.816
15.2568	0.812
15.2905	0.809
15.3243	0.804
15.358	0.795
15.3918	0.792
