Infrared Spectrum: THIO-O,O'-BENZOIC ACID, DIPHENACYL ESTER
Formula: C30 H22 O6 S
CAS: 116435-10-0
State: SOLID (MINERAL OIL MULL)
Class: COBLENTZ
Instrument: Not specified, most likely a prism, grating, or hybrid spectrometer.
Sampling: TRANSMISSION
Resolution: 4
Origin: TENNESSEE EASTMAN COMPANY, RESEARCH LABORATORIES
MICROMETERS	TRANSMITTANCE
2.027	0.5
2.06681	0.509
2.10662	0.515
2.14643	0.529
2.18623	0.539
2.22604	0.542
2.26585	0.54
2.30566	0.539
2.34547	0.54
2.38528	0.545
2.42509	0.549
2.46489	0.559
2.5047	0.58
2.54451	0.592
2.58432	0.597
2.62413	0.602
2.66394	0.61
2.70375	0.618
2.74355	0.627
2.78336	0.628
2.82317	0.635
2.86298	0.642
2.90279	0.645
2.9426	0.645
2.98241	0.648
3.02221	0.658
3.06202	0.662
3.10183	0.663
3.14164	0.658
3.18145	0.658
3.22126	0.655
3.26106	0.625
3.30087	0.575
3.34068	0.349
3.38049	0.044
3.4203	0.011
3.46011	0.036
3.49992	0.051
3.53972	0.623
3.57953	0.73
3.61934	0.76
3.65915	0.75
3.69896	0.748
3.73877	0.758
3.77858	0.755
3.81838	0.76
3.85819	0.77
3.898	0.785
3.93781	0.798
3.97762	0.808
4.01743	0.815
4.05724	0.818
4.09704	0.823
4.13685	0.823
4.17666	0.831
4.21647	0.836
4.25628	0.836
4.29609	0.836
4.3359	0.838
4.3757	0.848
4.41551	0.855
4.45532	0.861
4.49513	0.87
4.53494	0.873
4.57475	0.875
4.61456	0.878
4.65436	0.88
4.69417	0.883
4.73398	0.89
4.77379	0.89
4.8136	0.895
4.85341	0.898
4.89322	0.903
4.93302	0.91
4.97283	0.913
5.01264	0.915
5.05245	0.916
5.09226	0.916
5.13207	0.916
5.17188	0.92
5.21168	0.923
5.25149	0.928
5.2913	0.93
5.33111	0.94
5.37092	0.943
5.41073	0.941
5.45054	0.941
5.49034	0.941
5.53015	0.946
5.56996	0.958
5.60977	0.963
5.64958	0.965
5.68939	0.95
5.72919	0.752
5.769	0.545
5.80881	0.559
5.84862	0.381
5.88843	0.359
5.92824	0.42
5.96805	0.692
6.00785	0.753
6.04766	0.801
6.08747	0.826
6.12728	0.86
6.16709	0.876
6.2069	0.881
6.24671	0.782
6.28651	0.713
6.32632	0.772
6.36613	0.826
6.40594	0.826
6.44575	0.871
6.48556	0.876
6.52537	0.888
6.56517	0.888
6.60498	0.89
6.64479	0.888
6.6846	0.866
6.72441	0.755
6.76422	0.599
6.80403	0.316
6.84383	0.227
6.88364	0.287
6.92345	0.487
6.96326	0.554
7.00307	0.64
7.04288	0.768
7.08269	0.833
7.12249	0.853
7.1623	0.835
7.20211	0.658
7.24192	0.455
7.28173	0.361
7.32154	0.515
7.36135	0.727
7.40115	0.785
7.44096	0.806
7.48077	0.813
7.52058	0.835
7.56039	0.846
7.6002	0.806
7.64001	0.742
7.67981	0.71
7.71962	0.645
7.75943	0.599
7.79924	0.6
7.83905	0.575
7.87886	0.472
7.91866	0.64
7.95847	0.469
7.99828	0.437
8.03809	0.437
8.0779	0.554
8.11771	0.374
8.15752	0.309
8.19732	0.504
8.23713	0.647
8.27694	0.727
8.31675	0.767
8.35656	0.797
8.39637	0.806
8.43618	0.808
8.47598	0.808
8.51579	0.801
8.5556	0.793
8.59541	0.78
8.63522	0.793
8.67503	0.695
8.71484	0.53
8.75464	0.55
8.79445	0.584
8.83426	0.653
8.87407	0.605
8.91388	0.582
8.95369	0.599
8.9935	0.62
9.0333	0.728
9.07311	0.772
9.11292	0.803
9.15273	0.828
9.19254	0.84
9.23235	0.848
9.27216	0.805
9.31196	0.772
9.35177	0.777
9.39158	0.798
9.43139	0.843
9.4712	0.87
9.51101	0.873
9.55082	0.8
9.59062	0.748
9.63043	0.758
9.67024	0.745
9.71005	0.73
9.74986	0.64
9.78967	0.707
9.82948	0.8
9.86928	0.823
9.90909	0.777
9.9489	0.745
9.98871	0.775
10.0285	0.828
10.0683	0.85
10.1081	0.855
10.1479	0.855
10.1878	0.855
10.2276	0.84
10.2674	0.821
10.3072	0.795
10.347	0.71
10.3868	0.65
10.4266	0.597
10.4664	0.622
10.5062	0.72
10.546	0.783
10.5858	0.818
10.6256	0.84
10.6655	0.853
10.7053	0.866
10.7451	0.875
10.7849	0.875
10.8247	0.875
10.8645	0.878
10.9043	0.89
10.9441	0.903
10.9839	0.92
11.0237	0.926
11.0635	0.93
11.1033	0.931
11.1432	0.931
11.183	0.931
11.2228	0.931
11.2626	0.931
11.3024	0.935
11.3422	0.938
11.382	0.941
11.4218	0.943
11.4616	0.943
11.5014	0.943
11.5412	0.946
11.5811	0.948
11.6209	0.948
11.6607	0.95
11.7005	0.95
11.7403	0.95
11.7801	0.938
11.8199	0.921
11.8597	0.916
11.8995	0.91
11.9393	0.883
11.9791	0.878
12.0189	0.891
12.0588	0.913
12.0986	0.925
12.1384	0.931
12.1782	0.94
12.218	0.94
12.2578	0.94
12.2976	0.938
12.3374	0.926
12.3772	0.925
12.417	0.926
12.4568	0.928
12.4966	0.928
12.5365	0.923
12.5763	0.905
12.6161	0.901
12.6559	0.895
12.6957	0.9
12.7355	0.915
12.7753	0.921
12.8151	0.925
12.8549	0.926
12.8947	0.926
12.9345	0.926
12.9744	0.925
13.0142	0.913
13.054	0.876
13.0938	0.763
13.1336	0.605
13.1734	0.522
13.2132	0.495
13.253	0.459
13.2928	0.442
13.3326	0.442
13.3724	0.475
13.4122	0.643
13.4521	0.74
13.4919	0.777
13.5317	0.79
13.5715	0.801
13.6113	0.808
13.6511	0.811
13.6909	0.813
13.7307	0.8
13.7705	0.765
13.8103	0.763
13.8501	0.778
13.8899	0.792
13.9298	0.788
13.9696	0.768
14.0094	0.768
14.0492	0.785
14.089	0.811
14.1288	0.821
14.1686	0.823
14.2084	0.821
14.2482	0.808
14.288	0.783
14.3278	0.773
14.3676	0.765
14.4075	0.747
14.4473	0.7
14.4871	0.652
14.5269	0.607
14.5667	0.57
14.6065	0.545
14.6463	0.547
14.6861	0.56
14.7259	0.617
14.7657	0.665
14.8055	0.698
14.8454	0.708
14.8852	0.713
14.925	0.715
14.9648	0.717
15.0046	0.715
15.0444	0.712
15.0842	0.71
15.124	0.71
15.1638	0.71
15.2036	0.71
15.2434	0.71
15.2832	0.71
15.3231	0.71
15.3629	0.71
15.4027	0.71
15.4425	0.71
15.4823	0.71
15.5221	0.708
15.5619	0.708
15.6017	0.708
15.6415	0.708
15.6813	0.708
15.7211	0.708
15.7609	0.708
15.8008	0.708
15.8406	0.708
15.8804	0.708
15.9202	0.708
15.96	0.708
15.9998	0.708
