Infrared Spectrum: 5-HEXEN-2-ONE-p-NITRO-PHENYL HYDRAZONE
Formula: C12 H15 N3 O2
CAS: 116435-43-9
State: SOLID (MINERAL OIL MULL)
Class: COBLENTZ
Instrument: Not specified, most likely a prism, grating, or hybrid spectrometer.
Sampling: TRANSMISSION
Resolution: 4
Origin: DOW CHEMICAL COMPANY
MICROMETERS	TRANSMITTANCE
2.027	0.52
2.06816	0.534
2.10931	0.544
2.15047	0.55
2.19163	0.558
2.23278	0.56
2.27394	0.563
2.3151	0.57
2.35625	0.579
2.39741	0.591
2.43857	0.598
2.47972	0.617
2.52088	0.625
2.56204	0.637
2.60319	0.644
2.64435	0.651
2.68551	0.658
2.72666	0.663
2.76782	0.662
2.80897	0.667
2.85013	0.667
2.89129	0.674
2.93244	0.672
2.9736	0.405
3.01476	0.553
3.05591	0.62
3.09707	0.639
3.13823	0.653
3.17938	0.658
3.22054	0.641
3.2617	0.631
3.30285	0.584
3.34401	0.298
3.38517	0.055
3.42632	0.132
3.46748	0.191
3.50864	0.574
3.54979	0.718
3.59095	0.751
3.63211	0.753
3.67326	0.751
3.71442	0.76
3.75558	0.758
3.79673	0.772
3.83789	0.779
3.87905	0.786
3.9202	0.803
3.96136	0.808
4.00252	0.818
4.04367	0.825
4.08483	0.818
4.12598	0.803
4.16714	0.834
4.2083	0.837
4.24945	0.841
4.29061	0.841
4.33177	0.843
4.37292	0.851
4.41408	0.863
4.45524	0.851
4.49639	0.856
4.53755	0.862
4.57871	0.86
4.61986	0.868
4.66102	0.872
4.70218	0.874
4.74333	0.874
4.78449	0.884
4.82565	0.889
4.8668	0.889
4.90796	0.893
4.94912	0.9
4.99027	0.898
5.03143	0.9
5.07259	0.9
5.11374	0.908
5.1549	0.91
5.19606	0.903
5.23721	0.903
5.27837	0.915
5.31953	0.912
5.36068	0.92
5.40184	0.934
5.44299	0.927
5.48415	0.931
5.52531	0.932
5.56646	0.913
5.60762	0.934
5.64878	0.925
5.68993	0.941
5.73109	0.937
5.77225	0.937
5.8134	0.943
5.85456	0.941
5.89572	0.941
5.93687	0.931
5.97803	0.931
6.01919	0.905
6.06034	0.829
6.1015	0.841
6.14266	0.793
6.18381	0.482
6.22497	0.179
6.26613	0.368
6.30728	0.639
6.34844	0.781
6.3896	0.808
6.43075	0.789
6.47191	0.677
6.51307	0.644
6.55422	0.748
6.59538	0.806
6.63654	0.718
6.67769	0.641
6.71885	0.641
6.76	0.381
6.80116	0.193
6.84232	0.291
6.88347	0.418
6.92463	0.537
6.96579	0.653
7.00694	0.731
7.0481	0.75
7.08926	0.817
7.13041	0.851
7.17157	0.815
7.21273	0.691
7.25388	0.601
7.29504	0.667
7.3362	0.715
7.37735	0.713
7.41851	0.568
7.45967	0.353
7.50082	0.267
7.54198	0.312
7.58314	0.3
7.62429	0.196
7.66545	0.082
7.70661	0.153
7.74776	0.31
7.78892	0.334
7.83008	0.148
7.87123	0.098
7.91239	0.167
7.95355	0.343
7.9947	0.5
8.03586	0.6
8.07702	0.665
8.11817	0.712
8.15933	0.741
8.20048	0.729
8.24164	0.687
8.2828	0.75
8.32395	0.791
8.36511	0.793
8.40627	0.739
8.44742	0.639
8.48858	0.634
8.52974	0.751
8.57089	0.784
8.61205	0.806
8.65321	0.808
8.69436	0.803
8.73552	0.762
8.77668	0.662
8.81783	0.574
8.85899	0.658
8.90015	0.658
8.9413	0.458
8.98246	0.35
9.02362	0.282
9.06477	0.329
9.10593	0.444
9.14709	0.465
9.18824	0.47
9.2294	0.553
9.27056	0.65
9.31171	0.708
9.35287	0.744
9.39403	0.756
9.43518	0.758
9.47634	0.755
9.51749	0.743
9.55865	0.744
9.59981	0.751
9.64096	0.75
9.68212	0.751
9.72328	0.741
9.76443	0.675
9.80559	0.637
9.84675	0.7
9.8879	0.753
9.92906	0.756
9.97022	0.698
10.0114	0.653
10.0525	0.703
10.0937	0.751
10.1348	0.781
10.176	0.805
10.2172	0.812
10.2583	0.815
10.2995	0.817
10.3406	0.815
10.3818	0.815
10.4229	0.796
10.4641	0.805
10.5053	0.82
10.5464	0.825
10.5876	0.824
10.6287	0.825
10.6699	0.832
10.711	0.827
10.7522	0.825
10.7933	0.831
10.8345	0.822
10.8757	0.808
10.9168	0.789
10.958	0.748
10.9991	0.674
11.0403	0.56
11.0814	0.562
11.1226	0.71
11.1638	0.796
11.2049	0.831
11.2461	0.844
11.2872	0.862
11.3284	0.874
11.3695	0.889
11.4107	0.898
11.4519	0.9
11.493	0.9
11.5342	0.893
11.5753	0.891
11.6165	0.886
11.6576	0.874
11.6988	0.867
11.7399	0.875
11.7811	0.868
11.8223	0.841
11.8634	0.739
11.9046	0.52
11.9457	0.331
11.9869	0.51
12.028	0.748
12.0692	0.822
12.1104	0.862
12.1515	0.879
12.1927	0.891
12.2338	0.893
12.275	0.901
12.3161	0.9
12.3573	0.881
12.3985	0.862
12.4396	0.891
12.4808	0.905
12.5219	0.91
12.5631	0.913
12.6042	0.903
12.6454	0.903
12.6866	0.905
12.7277	0.903
12.7689	0.9
12.81	0.9
12.8512	0.9
12.8923	0.9
12.9335	0.894
12.9746	0.893
13.0158	0.891
13.057	0.893
13.0981	0.886
13.1393	0.882
13.1804	0.868
13.2216	0.85
13.2627	0.817
13.3039	0.684
13.3451	0.544
13.3862	0.603
13.4274	0.763
13.4685	0.815
13.5097	0.822
13.5508	0.824
13.592	0.825
13.6332	0.822
13.6743	0.817
13.7155	0.81
13.7566	0.806
13.7978	0.8
13.8389	0.793
13.8801	0.793
13.9212	0.793
13.9624	0.798
14.0036	0.803
14.0447	0.805
14.0859	0.805
14.127	0.8
14.1682	0.793
14.2093	0.789
14.2505	0.779
14.2917	0.762
14.3328	0.727
14.374	0.684
14.4151	0.631
14.4563	0.617
14.4974	0.625
14.5386	0.67
14.5798	0.694
14.6209	0.705
14.6621	0.71
14.7032	0.71
14.7444	0.708
14.7855	0.705
14.8267	0.7
14.8678	0.693
14.909	0.682
14.9502	0.674
14.9913	0.672
15.0325	0.665
15.0736	0.658
15.1148	0.65
15.1559	0.644
15.1971	0.632
15.2383	0.627
15.2794	0.62
15.3206	0.615
15.3617	0.606
15.4029	0.6
15.444	0.593
15.4852	0.587
15.5264	0.579
15.5675	0.572
15.6087	0.56
15.6498	0.551
15.691	0.546
15.7321	0.539
15.7733	0.537
15.8144	0.537
15.8556	0.537
15.8968	0.537
