Infrared Spectrum: N-NITROSO-N-(t-OCTYL)GLYCINE
Formula: C10 H20 N2 O3
CAS: 116435-37-1
State: SOLID (KBr PELLET)
Class: COBLENTZ
Instrument: PERKIN-ELMER
Sampling: TRANSMISSION
Resolution: 4
Origin: STANDARD OIL OF OHIO
MICROMETERS	TRANSMITTANCE
2.027	0.901
2.06087	0.898
2.09475	0.893
2.12862	0.891
2.16249	0.888
2.19636	0.886
2.23024	0.879
2.26411	0.867
2.29798	0.857
2.33186	0.854
2.36573	0.85
2.3996	0.85
2.43348	0.85
2.46735	0.85
2.50122	0.85
2.53509	0.85
2.56897	0.852
2.60284	0.852
2.63671	0.854
2.67059	0.854
2.70446	0.854
2.73833	0.854
2.77221	0.849
2.80608	0.842
2.83995	0.838
2.87382	0.838
2.9077	0.828
2.94157	0.805
2.97544	0.774
3.00932	0.742
3.04319	0.696
3.07706	0.62
3.11094	0.561
3.14481	0.491
3.17868	0.432
3.21255	0.393
3.24643	0.33
3.2803	0.31
3.31417	0.147
3.34805	0.123
3.38192	0.132
3.41579	0.15
3.44966	0.172
3.48354	0.259
3.51741	0.394
3.55128	0.416
3.58516	0.428
3.61903	0.433
3.6529	0.469
3.68678	0.488
3.72065	0.474
3.75452	0.459
3.78839	0.471
3.82227	0.506
3.85614	0.51
3.89001	0.508
3.92389	0.527
3.95776	0.584
3.99163	0.615
4.02551	0.625
4.05938	0.638
4.09325	0.667
4.12712	0.683
4.161	0.693
4.19487	0.7
4.22874	0.701
4.26262	0.703
4.29649	0.711
4.33036	0.727
4.36424	0.733
4.39811	0.738
4.43198	0.738
4.46585	0.744
4.49973	0.749
4.5336	0.752
4.56747	0.755
4.60135	0.757
4.63522	0.757
4.66909	0.757
4.70296	0.759
4.73684	0.761
4.77071	0.762
4.80458	0.762
4.83846	0.762
4.87233	0.766
4.9062	0.766
4.94008	0.762
4.97395	0.764
5.00782	0.762
5.04169	0.762
5.07557	0.759
5.10944	0.75
5.14331	0.742
5.17719	0.742
5.21106	0.749
5.24493	0.747
5.27881	0.749
5.31268	0.747
5.34655	0.74
5.38042	0.733
5.4143	0.727
5.44817	0.715
5.48204	0.698
5.51592	0.672
5.54979	0.657
5.58366	0.638
5.61753	0.611
5.65141	0.559
5.68528	0.411
5.71915	0.184
5.75303	0.027
5.7869	0.059
5.82077	0.254
5.85465	0.372
5.88852	0.5
5.92239	0.581
5.95626	0.64
5.99014	0.669
6.02401	0.689
6.05788	0.7
6.09176	0.703
6.12563	0.706
6.1595	0.71
6.19338	0.716
6.22725	0.733
6.26112	0.762
6.29499	0.788
6.32887	0.81
6.36274	0.818
6.39661	0.813
6.43049	0.8
6.46436	0.781
6.49823	0.772
6.53211	0.762
6.56598	0.749
6.59985	0.727
6.63372	0.698
6.6676	0.649
6.70147	0.544
6.73534	0.315
6.76922	0.269
6.80309	0.249
6.83696	0.249
6.87083	0.25
6.90471	0.167
6.93858	0.144
6.97245	0.128
7.00633	0.086
7.0402	0.157
7.07407	0.411
7.10795	0.332
7.14182	0.269
7.17569	0.323
7.20956	0.377
7.24344	0.432
7.27731	0.266
7.31118	0.362
7.34506	0.479
7.37893	0.406
7.4128	0.332
7.44668	0.428
7.48055	0.474
7.51442	0.405
7.54829	0.288
7.58217	0.093
7.61604	0.052
7.64991	0.203
7.68379	0.305
7.71766	0.364
7.75153	0.401
7.78541	0.4
7.81928	0.161
7.85315	0.164
7.88702	0.252
7.9209	0.264
7.95477	0.123
7.98864	0.033
8.02252	0.113
8.05639	0.257
8.09026	0.396
8.12413	0.44
8.15801	0.416
8.19188	0.325
8.22575	0.291
8.25963	0.325
8.2935	0.255
8.32737	0.103
8.36125	0.096
8.39512	0.215
8.42899	0.379
8.46286	0.498
8.49674	0.579
8.53061	0.606
8.56448	0.628
8.59836	0.627
8.63223	0.559
8.6661	0.506
8.69998	0.601
8.73385	0.625
8.76772	0.627
8.80159	0.528
8.83547	0.325
8.86934	0.269
8.90321	0.45
8.93709	0.601
8.97096	0.654
9.00483	0.603
9.03871	0.588
9.07258	0.671
9.10645	0.732
9.14032	0.761
9.1742	0.772
9.20807	0.777
9.24194	0.781
9.27582	0.783
9.30969	0.784
9.34356	0.784
9.37743	0.786
9.41131	0.788
9.44518	0.788
9.47905	0.786
9.51293	0.784
9.5468	0.784
9.58067	0.777
9.61455	0.769
9.64842	0.752
9.68229	0.742
9.71616	0.744
9.75004	0.757
9.78391	0.764
9.81778	0.761
9.85166	0.705
9.88553	0.657
9.9194	0.698
9.95328	0.735
9.98715	0.749
10.021	0.749
10.0549	0.744
10.0888	0.737
10.1226	0.694
10.1565	0.628
10.1904	0.566
10.2243	0.338
10.2581	0.33
10.292	0.447
10.3259	0.532
10.3598	0.6
10.3936	0.64
10.4275	0.666
10.4614	0.672
10.4952	0.679
10.5291	0.664
10.563	0.638
10.5969	0.622
10.6307	0.615
10.6646	0.605
10.6985	0.603
10.7324	0.596
10.7662	0.542
10.8001	0.496
10.834	0.481
10.8678	0.461
10.9017	0.44
10.9356	0.425
10.9695	0.427
11.0033	0.437
11.0372	0.45
11.0711	0.493
11.105	0.532
11.1388	0.562
11.1727	0.589
11.2066	0.606
11.2404	0.608
11.2743	0.593
11.3082	0.501
11.3421	0.493
11.3759	0.542
11.4098	0.611
11.4437	0.65
11.4776	0.666
11.5114	0.659
11.5453	0.63
11.5792	0.652
11.6131	0.698
11.6469	0.715
11.6808	0.732
11.7147	0.744
11.7485	0.75
11.7824	0.761
11.8163	0.764
11.8502	0.769
11.884	0.771
11.9179	0.776
11.9518	0.779
11.9857	0.783
12.0195	0.788
12.0534	0.789
12.0873	0.791
12.1211	0.798
12.155	0.8
12.1889	0.8
12.2228	0.8
12.2566	0.798
12.2905	0.794
12.3244	0.8
12.3583	0.801
12.3921	0.805
12.426	0.808
12.4599	0.811
12.4937	0.811
12.5276	0.811
12.5615	0.813
12.5954	0.815
12.6292	0.815
12.6631	0.815
12.697	0.815
12.7309	0.815
12.7647	0.818
12.7986	0.818
12.8325	0.816
12.8664	0.816
12.9002	0.816
12.9341	0.818
12.968	0.816
13.0018	0.816
13.0357	0.815
13.0696	0.813
13.1035	0.813
13.1373	0.813
13.1712	0.813
13.2051	0.813
13.239	0.815
13.2728	0.813
13.3067	0.811
13.3406	0.808
13.3744	0.808
13.4083	0.808
13.4422	0.81
13.4761	0.81
13.5099	0.81
13.5438	0.811
13.5777	0.811
13.6116	0.811
13.6454	0.81
13.6793	0.811
13.7132	0.811
13.747	0.811
13.7809	0.811
13.8148	0.811
13.8487	0.811
13.8825	0.811
13.9164	0.811
13.9503	0.805
13.9842	0.8
14.018	0.793
14.0519	0.779
14.0858	0.759
14.1197	0.733
14.1535	0.693
14.1874	0.644
14.2213	0.545
14.2551	0.45
14.289	0.386
14.3229	0.306
14.3568	0.279
14.3906	0.298
14.4245	0.408
14.4584	0.501
14.4923	0.571
14.5261	0.644
14.56	0.674
14.5939	0.696
14.6277	0.722
14.6616	0.738
14.6955	0.752
14.7294	0.759
14.7632	0.767
14.7971	0.772
14.831	0.777
14.8649	0.781
14.8987	0.783
14.9326	0.786
14.9665	0.786
15.0003	0.788
15.0342	0.793
15.0681	0.798
15.102	0.803
15.1358	0.805
15.1697	0.806
15.2036	0.806
15.2375	0.806
15.2713	0.808
15.3052	0.81
15.3391	0.811
15.373	0.815
