Infrared Spectrum: ALLYL-2,3,6-TRICHLOROPHENYL ETHER
Formula: C9 H7 Cl3 O
CAS: 116435-14-4
State: SOLUTION (10% CCl4 FOR 5000-1300, 10% CS2 FOR 1300-625 CM^-^1)
Class: COBLENTZ
Instrument: Not specified, most likely a prism, grating, or hybrid spectrometer.
Sampling: TRANSMISSION
Path length: 0.011 CM, 0.011 CM
Resolution: 4
Origin: DOW CHEMICAL COMPANY
MICROMETERS	TRANSMITTANCE
2.041	0.869
2.08168	0.871
2.12235	0.868
2.16303	0.871
2.20371	0.873
2.24438	0.871
2.28506	0.869
2.32573	0.878
2.36641	0.873
2.40709	0.878
2.44776	0.884
2.48844	0.879
2.52912	0.884
2.56979	0.883
2.61047	0.879
2.65115	0.891
2.69182	0.884
2.7325	0.881
2.77318	0.871
2.81385	0.856
2.85453	0.851
2.8952	0.862
2.93588	0.856
2.97656	0.849
3.01723	0.84
3.05791	0.832
3.09859	0.83
3.13926	0.829
3.17994	0.82
3.22062	0.786
3.26129	0.761
3.30197	0.795
3.34265	0.768
3.38332	0.732
3.424	0.747
3.46467	0.751
3.50535	0.825
3.54603	0.849
3.5867	0.866
3.62738	0.879
3.66806	0.881
3.70873	0.881
3.74941	0.888
3.79009	0.891
3.83076	0.896
3.87144	0.9
3.91212	0.9
3.95279	0.9
3.99347	0.891
4.03414	0.901
4.07482	0.906
4.1155	0.91
4.15617	0.908
4.19685	0.91
4.23753	0.893
4.2782	0.89
4.31888	0.888
4.35956	0.888
4.40023	0.898
4.44091	0.906
4.48159	0.925
4.52226	0.93
4.56294	0.922
4.60361	0.932
4.64429	0.922
4.68497	0.922
4.72564	0.923
4.76632	0.923
4.807	0.922
4.84767	0.92
4.88835	0.928
4.92903	0.922
4.9697	0.918
5.01038	0.898
5.05105	0.903
5.09173	0.91
5.13241	0.928
5.17308	0.922
5.21376	0.918
5.25444	0.903
5.29511	0.871
5.33579	0.832
5.37647	0.879
5.41714	0.89
5.45782	0.905
5.4985	0.912
5.53917	0.912
5.57985	0.91
5.62052	0.912
5.6612	0.908
5.70188	0.9
5.74255	0.883
5.78323	0.891
5.82391	0.901
5.86458	0.896
5.90526	0.89
5.94594	0.876
5.98661	0.866
6.02729	0.825
6.06797	0.8
6.10864	0.844
6.14932	0.825
6.18999	0.766
6.23067	0.693
6.27135	0.604
6.31202	0.568
6.3527	0.482
6.39338	0.394
6.43405	0.423
6.47473	0.483
6.51541	0.578
6.55608	0.607
6.59676	0.646
6.63744	0.73
6.67811	0.756
6.71879	0.702
6.75946	0.627
6.80014	0.48
6.84082	0.291
6.88149	0.115
6.92217	0.147
6.96285	0.382
7.00352	0.36
7.0442	0.478
7.08488	0.363
7.12555	0.17
7.16623	0.375
7.20691	0.648
7.24758	0.605
7.28826	0.414
7.32893	0.499
7.36961	0.313
7.41029	0.487
7.45096	0.774
7.49164	0.818
7.53232	0.832
7.57299	0.829
7.61367	0.834
7.65435	0.818
7.69502	0.773
7.7357	0.741
7.77638	0.708
7.81705	0.627
7.85773	0.593
7.8984	0.576
7.93908	0.543
7.97976	0.563
8.02043	0.461
8.06111	0.409
8.10179	0.414
8.14246	0.505
8.18314	0.71
8.22382	0.773
8.26449	0.785
8.30517	0.773
8.34584	0.749
8.38652	0.651
8.4272	0.451
8.46787	0.302
8.50855	0.548
8.54923	0.697
8.5899	0.741
8.63058	0.749
8.67126	0.751
8.71193	0.747
8.75261	0.72
8.79329	0.688
8.83396	0.663
8.87464	0.69
8.91531	0.707
8.95599	0.681
8.99667	0.593
9.03734	0.524
9.07802	0.58
9.1187	0.605
9.15937	0.639
9.20005	0.681
9.24073	0.688
9.2814	0.719
9.32208	0.754
9.36276	0.754
9.40343	0.749
9.44411	0.741
9.48478	0.737
9.52546	0.749
9.56614	0.742
9.60681	0.724
9.64749	0.712
9.68817	0.703
9.72884	0.692
9.76952	0.67
9.8102	0.626
9.85087	0.573
9.89155	0.497
9.93223	0.385
9.9729	0.245
10.0136	0.152
10.0543	0.109
10.0949	0.055
10.1356	0.033
10.1763	0.054
10.217	0.159
10.2576	0.316
10.2983	0.453
10.339	0.546
10.3797	0.602
10.4203	0.656
10.461	0.695
10.5017	0.7
10.5424	0.681
10.583	0.626
10.6237	0.516
10.6644	0.37
10.7051	0.243
10.7458	0.233
10.7864	0.269
10.8271	0.313
10.8678	0.429
10.9085	0.532
10.9491	0.605
10.9898	0.641
11.0305	0.659
11.0712	0.646
11.1118	0.612
11.1525	0.585
11.1932	0.598
11.2339	0.629
11.2745	0.658
11.3152	0.673
11.3559	0.67
11.3966	0.646
11.4373	0.62
11.4779	0.61
11.5186	0.598
11.5593	0.6
11.6	0.61
11.6406	0.617
11.6813	0.624
11.722	0.639
11.7627	0.67
11.8033	0.705
11.844	0.725
11.8847	0.739
11.9254	0.746
11.966	0.747
12.0067	0.741
12.0474	0.732
12.0881	0.722
12.1288	0.715
12.1694	0.7
12.2101	0.666
12.2508	0.614
12.2915	0.526
12.3321	0.368
12.3728	0.182
12.4135	0.057
12.4542	0.033
12.4948	0.13
12.5355	0.345
12.5762	0.505
12.6169	0.62
12.6575	0.671
12.6982	0.712
12.7389	0.724
12.7796	0.742
12.8203	0.761
12.8609	0.771
12.9016	0.78
12.9423	0.783
12.983	0.788
13.0236	0.783
13.0643	0.781
13.105	0.783
13.1457	0.786
13.1863	0.79
13.227	0.788
13.2677	0.78
13.3084	0.768
13.349	0.752
13.3897	0.732
13.4304	0.712
13.4711	0.717
13.5118	0.749
13.5524	0.761
13.5931	0.768
13.6338	0.761
13.6745	0.759
13.7151	0.754
13.7558	0.758
13.7965	0.752
13.8372	0.751
13.8778	0.747
13.9185	0.741
13.9592	0.732
13.9999	0.729
14.0405	0.717
14.0812	0.705
14.1219	0.7
14.1626	0.697
14.2032	0.693
14.2439	0.69
14.2846	0.683
14.3253	0.678
14.366	0.668
14.4066	0.658
14.4473	0.648
14.488	0.637
14.5287	0.627
14.5693	0.614
14.61	0.602
14.6507	0.59
14.6914	0.583
14.732	0.576
14.7727	0.568
14.8134	0.554
14.8541	0.544
14.8947	0.527
14.9354	0.514
14.9761	0.51
15.0168	0.49
15.0575	0.467
15.0981	0.448
15.1388	0.429
15.1795	0.424
15.2202	0.417
15.2608	0.414
15.3015	0.414
15.3422	0.411
15.3829	0.411
15.4235	0.407
15.4642	0.402
15.5049	0.399
15.5456	0.389
15.5862	0.382
15.6269	0.372
15.6676	0.368
15.7083	0.36
15.749	0.35
15.7896	0.341
15.8303	0.335
15.871	0.341
