Infrared Spectrum: 2-(p-NONYLPHENOXY)-3-(2-PHENYLETHYL) PYRAZINE
Formula: C27 H34 N2 O
CAS: 116402-94-9
State: LIQUID
Class: COBLENTZ
Instrument: Not specified, most likely a prism, grating, or hybrid spectrometer.
Sampling: TRANSMISSION
Path length: 0.0015 CM
Resolution: 4
Origin: WYANDOTTE CHEMICALS CORP., WYANDOTTE, MICHIGAN, USA
MICROMETERS	TRANSMITTANCE
2.014	0.97
2.05484	0.969
2.09567	0.962
2.13651	0.964
2.17734	0.933
2.21818	0.916
2.25901	0.924
2.29985	0.933
2.34068	0.931
2.38152	0.916
2.42235	0.931
2.46319	0.948
2.50402	0.941
2.54486	0.94
2.58569	0.957
2.62653	0.953
2.66736	0.948
2.7082	0.95
2.74903	0.953
2.78987	0.959
2.8307	0.945
2.87154	0.941
2.91237	0.938
2.95321	0.938
2.99404	0.918
3.03488	0.909
3.07571	0.901
3.11655	0.88
3.15738	0.856
3.19822	0.851
3.23905	0.646
3.27989	0.476
3.32072	0.452
3.36156	0.029
3.40239	0.052
3.44323	0.174
3.48406	0.182
3.5249	0.551
3.56573	0.778
3.60657	0.841
3.6474	0.839
3.68824	0.843
3.72907	0.877
3.76991	0.875
3.81074	0.883
3.85158	0.882
3.89241	0.895
3.93325	0.901
3.97408	0.901
4.01492	0.902
4.05575	0.901
4.09659	0.895
4.13742	0.89
4.17826	0.89
4.21909	0.885
4.25993	0.872
4.30076	0.873
4.3416	0.868
4.38243	0.892
4.42327	0.902
4.4641	0.921
4.50494	0.916
4.54577	0.919
4.58661	0.918
4.62744	0.923
4.66828	0.918
4.70911	0.916
4.74995	0.923
4.79078	0.926
4.83162	0.912
4.87245	0.894
4.91329	0.894
4.95413	0.894
4.99496	0.899
5.0358	0.907
5.07663	0.902
5.11747	0.902
5.1583	0.889
5.19914	0.87
5.23997	0.901
5.28081	0.88
5.32164	0.829
5.36248	0.854
5.40331	0.883
5.44415	0.904
5.48498	0.897
5.52582	0.883
5.56665	0.858
5.60749	0.87
5.64832	0.858
5.68916	0.86
5.72999	0.861
5.77083	0.872
5.81166	0.87
5.8525	0.858
5.89333	0.849
5.93417	0.836
5.975	0.812
6.01584	0.783
6.05667	0.8
6.09751	0.79
6.13834	0.745
6.17918	0.44
6.22001	0.612
6.26085	0.546
6.30168	0.638
6.34252	0.704
6.38335	0.662
6.42419	0.476
6.46502	0.363
6.50586	0.522
6.54669	0.418
6.58753	0.117
6.62836	0.063
6.6692	0.232
6.71003	0.399
6.75087	0.249
6.7917	0.08
6.83254	0.037
6.87337	0.097
6.91421	0.134
6.95504	0.18
6.99588	0.308
7.03671	0.392
7.07755	0.319
7.11838	0.339
7.15922	0.221
7.20005	0.069
7.24089	0.03
7.28172	0.029
7.32256	0.039
7.36339	0.056
7.40423	0.102
7.44506	0.184
7.4859	0.329
7.52673	0.426
7.56757	0.44
7.6084	0.39
7.64924	0.284
7.69007	0.237
7.73091	0.244
7.77174	0.273
7.81258	0.315
7.85342	0.349
7.89425	0.363
7.93509	0.385
7.97592	0.351
8.01676	0.329
8.05759	0.25
8.09843	0.18
8.13926	0.139
8.1801	0.058
8.22093	0.032
8.26177	0.056
8.3026	0.196
8.34344	0.315
8.38427	0.305
8.42511	0.172
8.46594	0.04
8.50678	0.032
8.54761	0.088
8.58845	0.177
8.62928	0.163
8.67012	0.163
8.71095	0.278
8.75179	0.394
8.79262	0.457
8.83346	0.511
8.87429	0.5
8.91513	0.498
8.95596	0.511
8.9968	0.585
9.03763	0.663
9.07847	0.672
9.1193	0.665
9.16014	0.674
9.20097	0.691
9.24181	0.634
9.28264	0.573
9.32348	0.656
9.36431	0.728
9.40515	0.754
9.44598	0.762
9.48682	0.752
9.52765	0.737
9.56849	0.684
9.60932	0.648
9.65016	0.564
9.69099	0.452
9.73183	0.452
9.77266	0.402
9.8135	0.228
9.85433	0.192
9.89517	0.414
9.936	0.503
9.97684	0.554
10.0177	0.629
10.0585	0.682
10.0993	0.718
10.1402	0.721
10.181	0.704
10.2218	0.696
10.2627	0.697
10.3035	0.692
10.3444	0.684
10.3852	0.684
10.426	0.708
10.4669	0.737
10.5077	0.74
10.5485	0.752
10.5894	0.728
10.6302	0.723
10.671	0.715
10.7119	0.713
10.7527	0.713
10.7935	0.716
10.8344	0.73
10.8752	0.752
10.916	0.759
10.9569	0.754
10.9977	0.733
11.0386	0.701
11.0794	0.687
11.1202	0.686
11.1611	0.679
11.2019	0.655
11.2427	0.641
11.2836	0.626
11.3244	0.629
11.3652	0.646
11.4061	0.668
11.4469	0.689
11.4877	0.709
11.5286	0.706
11.5694	0.696
11.6102	0.65
11.6511	0.587
11.6919	0.505
11.7327	0.431
11.7736	0.383
11.8144	0.344
11.8553	0.302
11.8961	0.278
11.9369	0.257
11.9778	0.269
12.0186	0.312
12.0594	0.368
12.1003	0.436
12.1411	0.51
12.1819	0.561
12.2228	0.602
12.2636	0.638
12.3044	0.67
12.3453	0.696
12.3861	0.711
12.4269	0.728
12.4678	0.737
12.5086	0.737
12.5494	0.709
12.5903	0.674
12.6311	0.633
12.672	0.612
12.7128	0.636
12.7536	0.653
12.7945	0.653
12.8353	0.658
12.8761	0.66
12.917	0.658
12.9578	0.648
12.9986	0.634
13.0395	0.627
13.0803	0.626
13.1211	0.604
13.162	0.573
13.2028	0.53
13.2436	0.489
13.2845	0.43
13.3253	0.372
13.3661	0.339
13.407	0.344
13.4478	0.363
13.4887	0.39
13.5295	0.409
13.5703	0.412
13.6112	0.412
13.652	0.416
13.6928	0.441
13.7337	0.457
13.7745	0.488
13.8153	0.511
13.8562	0.525
13.897	0.537
13.9378	0.552
13.9787	0.566
14.0195	0.588
14.0603	0.588
14.1012	0.581
14.142	0.549
14.1829	0.508
14.2237	0.447
14.2645	0.356
14.3054	0.245
14.3462	0.182
14.387	0.156
14.4279	0.199
14.4687	0.313
14.5095	0.469
14.5504	0.587
14.5912	0.651
14.632	0.697
14.6729	0.715
14.7137	0.728
14.7545	0.728
14.7954	0.735
14.8362	0.744
14.877	0.745
14.9179	0.747
14.9587	0.747
14.9996	0.733
15.0404	0.711
15.0812	0.711
15.1221	0.749
15.1629	0.761
15.2037	0.749
15.2446	0.749
15.2854	0.735
15.3262	0.737
15.3671	0.723
15.4079	0.713
15.4487	0.706
15.4896	0.709
15.5304	0.701
15.5712	0.703
15.6121	0.701
15.6529	0.696
15.6937	0.701
15.7346	0.701
15.7754	0.692
15.8163	0.68
15.8571	0.677
15.8979	0.67
15.9388	0.668
15.9796	0.667
