Infrared Spectrum: TRANS-1,2-CYCLOPENTANEDIOL BIS-P-TOLUENE SULFONATE
Formula: C19 H22 O6 S2
CAS: 116401-17-3
State: SOLID (NUJOL MULL)
Class: COBLENTZ
Instrument: Not specified, most likely a prism, grating, or hybrid spectrometer.
Sampling: TRANSMISSION
Resolution: 4
Origin: TENNESSEE EASTMAN COMPANY, RESEARCH LABORATORIES
MICROMETERS	TRANSMITTANCE
2.003	0.842
2.04289	0.842
2.08278	0.842
2.12267	0.843
2.16255	0.845
2.20244	0.85
2.24233	0.85
2.28222	0.84
2.32211	0.837
2.362	0.837
2.40188	0.84
2.44177	0.842
2.48166	0.84
2.52155	0.857
2.56144	0.87
2.60133	0.878
2.64122	0.882
2.6811	0.888
2.72099	0.89
2.76088	0.897
2.80077	0.897
2.84066	0.897
2.88055	0.895
2.92043	0.893
2.96032	0.89
3.00021	0.887
3.0401	0.878
3.07999	0.875
3.11988	0.868
3.15976	0.855
3.19965	0.847
3.23954	0.838
3.27943	0.817
3.31932	0.769
3.35921	0.3
3.3991	0.156
3.43898	0.046
3.47887	0.112
3.51876	0.127
3.55865	0.755
3.59854	0.837
3.63843	0.868
3.67831	0.868
3.7182	0.867
3.75809	0.87
3.79798	0.87
3.83787	0.877
3.87776	0.882
3.91765	0.895
3.95753	0.913
3.99742	0.925
4.03731	0.931
4.0772	0.941
4.11709	0.945
4.15698	0.95
4.19686	0.951
4.23675	0.97
4.27664	0.981
4.31653	0.985
4.35642	0.98
4.39631	0.971
4.4362	0.971
4.47608	0.971
4.51597	0.973
4.55586	0.973
4.59575	0.971
4.63564	0.975
4.67553	0.978
4.71541	0.981
4.7553	0.981
4.79519	0.983
4.83508	0.983
4.87497	0.983
4.91486	0.981
4.95474	0.983
4.99463	0.988
5.03452	0.99
5.07441	0.988
5.1143	0.988
5.15419	0.988
5.19408	0.983
5.23396	0.98
5.27385	0.985
5.31374	0.986
5.35363	0.988
5.39352	0.988
5.43341	0.988
5.47329	0.988
5.51318	0.988
5.55307	0.985
5.59296	0.986
5.63285	0.986
5.67274	0.981
5.71263	0.983
5.75251	0.978
5.7924	0.958
5.83229	0.951
5.87218	0.911
5.91207	0.9
5.95196	0.898
5.99184	0.926
6.03173	0.948
6.07162	0.955
6.11151	0.966
6.1514	0.973
6.19129	0.971
6.23118	0.943
6.27106	0.759
6.31095	0.928
6.35084	0.968
6.39073	0.976
6.43062	0.981
6.47051	0.983
6.51039	0.981
6.55028	0.981
6.59017	0.973
6.63006	0.951
6.66995	0.865
6.70984	0.843
6.74972	0.76
6.78961	0.511
6.8295	0.355
6.86939	0.373
6.90928	0.498
6.94917	0.669
6.98906	0.785
7.02894	0.823
7.06883	0.83
7.10872	0.802
7.14861	0.762
7.1885	0.739
7.22839	0.568
7.26827	0.471
7.30816	0.451
7.34805	0.3
7.38794	0.257
7.42783	0.395
7.46772	0.556
7.50761	0.705
7.54749	0.79
7.58738	0.823
7.62727	0.78
7.66716	0.808
7.70705	0.789
7.74694	0.77
7.78682	0.835
7.82671	0.868
7.8666	0.88
7.90649	0.887
7.94638	0.887
7.98627	0.867
8.02616	0.868
8.06604	0.882
8.10593	0.893
8.14582	0.898
8.18571	0.9
8.2256	0.882
8.26549	0.847
8.30537	0.835
8.34526	0.669
8.38515	0.485
8.42504	0.533
8.46493	0.219
8.50482	0.205
8.5447	0.468
8.58459	0.692
8.62448	0.76
8.66437	0.807
8.70426	0.833
8.74415	0.84
8.78404	0.857
8.82392	0.865
8.86381	0.868
8.9037	0.867
8.94359	0.867
8.98348	0.872
9.02337	0.868
9.06325	0.805
9.10314	0.7
9.14303	0.707
9.18292	0.803
9.22281	0.858
9.2627	0.873
9.30259	0.882
9.34247	0.882
9.38236	0.882
9.42225	0.868
9.46214	0.838
9.50203	0.807
9.54192	0.757
9.5818	0.674
9.62169	0.571
9.66158	0.503
9.70147	0.518
9.74136	0.624
9.78125	0.654
9.82114	0.712
9.86102	0.762
9.90091	0.8
9.9408	0.832
9.98069	0.838
10.0206	0.84
10.0605	0.84
10.1004	0.833
10.1402	0.807
10.1801	0.74
10.22	0.657
10.2599	0.614
10.2998	0.602
10.3397	0.666
10.3796	0.687
10.4195	0.644
10.4594	0.594
10.4992	0.568
10.5391	0.591
10.579	0.609
10.6189	0.584
10.6588	0.591
10.6987	0.676
10.7386	0.739
10.7785	0.775
10.8183	0.808
10.8582	0.825
10.8981	0.823
10.938	0.802
10.9779	0.803
11.0178	0.842
11.0577	0.857
11.0976	0.873
11.1375	0.88
11.1773	0.883
11.2172	0.882
11.2571	0.873
11.297	0.863
11.3369	0.85
11.3768	0.835
11.4167	0.77
11.4566	0.631
11.4964	0.45
11.5363	0.413
11.5762	0.526
11.6161	0.626
11.656	0.631
11.6959	0.556
11.7358	0.436
11.7757	0.397
11.8156	0.446
11.8554	0.519
11.8953	0.528
11.9352	0.509
11.9751	0.589
12.015	0.694
12.0549	0.747
12.0948	0.755
12.1347	0.687
12.1746	0.524
12.2144	0.395
12.2543	0.45
12.2942	0.569
12.3341	0.661
12.374	0.717
12.4139	0.76
12.4538	0.782
12.4937	0.787
12.5335	0.774
12.5734	0.752
12.6133	0.754
12.6532	0.785
12.6931	0.807
12.733	0.828
12.7729	0.837
12.8128	0.84
12.8527	0.842
12.8925	0.845
12.9324	0.848
12.9723	0.848
13.0122	0.85
13.0521	0.853
13.092	0.857
13.1319	0.858
13.1718	0.863
13.2117	0.868
13.2515	0.868
13.2914	0.87
13.3313	0.87
13.3712	0.87
13.4111	0.868
13.451	0.868
13.4909	0.858
13.5308	0.852
13.5706	0.848
13.6105	0.843
13.6504	0.843
13.6903	0.842
13.7302	0.842
13.7701	0.838
13.81	0.838
13.8499	0.837
13.8898	0.838
13.9296	0.84
13.9695	0.84
14.0094	0.84
14.0493	0.842
14.0892	0.838
14.1291	0.822
14.169	0.799
14.2089	0.79
14.2488	0.79
14.2886	0.8
14.3285	0.815
14.3684	0.822
14.4083	0.822
14.4482	0.82
14.4881	0.82
14.528	0.808
14.5679	0.802
14.6077	0.799
14.6476	0.792
14.6875	0.785
14.7274	0.775
14.7673	0.76
14.8072	0.735
14.8471	0.7
14.887	0.641
14.9269	0.571
14.9667	0.508
15.0066	0.465
15.0465	0.446
15.0864	0.448
15.1263	0.493
15.1662	0.531
15.2061	0.598
15.246	0.631
15.2859	0.652
15.3257	0.666
15.3656	0.686
15.4055	0.687
15.4454	0.689
15.4853	0.692
15.5252	0.697
15.5651	0.699
15.605	0.699
15.6448	0.699
15.6847	0.7
15.7246	0.7
15.7645	0.7
15.8044	0.704
15.8443	0.704
15.8842	0.704
15.9241	0.704
15.964	0.705
