Infrared Spectrum: (1-PENTEN-2-YL) HYDANTOIN
Formula: C8 H12 N2 O2
CAS: 116435-48-4
State: SOLID (KBr PELLET)
Class: COBLENTZ
Instrument: PERKIN-ELMER
Sampling: TRANSMISSION
Resolution: 4
Origin: ABBOTT LABORATORIES - WASHBURN
MICROMETERS	TRANSMITTANCE
2.033	0.658
2.073	0.663
2.113	0.672
2.15301	0.675
2.19301	0.673
2.23301	0.68
2.27301	0.687
2.31301	0.6851
2.35302	0.6869
2.39302	0.688
2.43302	0.705
2.47302	0.704
2.51303	0.7089
2.55303	0.714
2.59303	0.7199
2.63303	0.715
2.67303	0.725
2.71304	0.73
2.75304	0.7291
2.79304	0.727
2.83304	0.709
2.87304	0.678
2.91305	0.6532
2.95305	0.6075
2.99305	0.5719
3.03305	0.5229
3.07305	0.3761
3.11306	0.2094
3.15306	0.1173
3.19306	0.0982
3.23306	0.157
3.27306	0.187
3.31307	0.21
3.35307	0.2857
3.39307	0.336
3.43307	0.3141
3.47308	0.342
3.51308	0.408
3.55308	0.4077
3.59308	0.4807
3.63308	0.5131
3.67309	0.541
3.71309	0.5212
3.75309	0.5886
3.79309	0.6269
3.83309	0.65
3.8731	0.66
3.9131	0.6648
3.9531	0.6749
3.9931	0.6779
4.0331	0.68
4.07311	0.683
4.11311	0.6869
4.15311	0.688
4.19311	0.6879
4.23311	0.677
4.27312	0.683
4.31312	0.687
4.35312	0.7047
4.39312	0.7052
4.43313	0.712
4.47313	0.707
4.51313	0.709
4.55313	0.7071
4.59313	0.704
4.63314	0.705
4.67314	0.707
4.71314	0.705
4.75314	0.705
4.79314	0.707
4.83315	0.705
4.87315	0.697
4.91315	0.6781
4.95315	0.683
4.99315	0.6947
5.03316	0.7
5.07316	0.6997
5.11316	0.692
5.15316	0.6945
5.19316	0.693
5.23317	0.6924
5.27317	0.683
5.31317	0.6754
5.35317	0.663
5.39318	0.6364
5.43318	0.6213
5.47318	0.5916
5.51318	0.547
5.55318	0.4897
5.59319	0.3952
5.63319	0.1803
5.67319	0.0622
5.71319	0.021
5.75319	0.0283
5.7932	0.0213
5.8332	0.016
5.8732	0.0164
5.9132	0.1493
5.9532	0.1838
5.99321	0.0486
6.03321	0.0336
6.07321	0.1887
6.11321	0.2926
6.15321	0.3617
6.19322	0.416
6.23322	0.4572
6.27322	0.4871
6.31322	0.51
6.35323	0.5108
6.39323	0.5321
6.43323	0.5371
6.47323	0.546
6.51323	0.555
6.55324	0.5593
6.59324	0.5643
6.63324	0.577
6.67324	0.586
6.71324	0.5899
6.75325	0.586
6.79325	0.5682
6.83325	0.5035
6.87325	0.4187
6.91325	0.424
6.95326	0.4582
6.99326	0.4653
7.03326	0.4223
7.07326	0.3235
7.11326	0.1955
7.15327	0.1526
7.19327	0.145
7.23327	0.1799
7.27327	0.2214
7.31328	0.2581
7.35328	0.3336
7.39328	0.3987
7.43328	0.4356
7.47328	0.4297
7.51329	0.408
7.55329	0.3964
7.59329	0.3264
7.63329	0.2131
7.67329	0.2032
7.7133	0.2441
7.7533	0.3065
7.7933	0.4068
7.8333	0.444
7.8733	0.4393
7.91331	0.525
7.95331	0.5431
7.99331	0.556
8.03331	0.5161
8.07332	0.4235
8.11332	0.4678
8.15332	0.5373
8.19332	0.5802
8.23332	0.595
8.27333	0.5691
8.31333	0.4823
8.35333	0.295
8.39333	0.2412
8.43333	0.3834
8.47334	0.467
8.51334	0.5234
8.55334	0.54
8.59334	0.5178
8.63334	0.4611
8.67335	0.4977
8.71335	0.5365
8.75335	0.5824
8.79335	0.6037
8.83335	0.6185
8.87336	0.628
8.91336	0.633
8.95336	0.63
8.99336	0.6153
9.03337	0.549
9.07337	0.3784
9.11337	0.3176
9.15337	0.3819
9.19337	0.4529
9.23338	0.446
9.27338	0.5367
9.31338	0.594
9.35338	0.6127
9.39338	0.6225
9.43339	0.632
9.47339	0.64
9.51339	0.6342
9.55339	0.6118
9.59339	0.5878
9.6334	0.5475
9.6734	0.5225
9.7134	0.4707
9.7534	0.3852
9.7934	0.3617
9.83341	0.3511
9.87341	0.352
9.91341	0.3836
9.95341	0.4591
9.99342	0.5232
10.0334	0.5929
10.0734	0.6147
10.1134	0.6319
10.1534	0.6444
10.1934	0.6528
10.2334	0.657
10.2734	0.6621
10.3134	0.665
10.3534	0.6681
10.3934	0.673
10.4334	0.6767
10.4734	0.673
10.5134	0.675
10.5534	0.6724
10.5934	0.6632
10.6334	0.6475
10.6735	0.6312
10.7135	0.6257
10.7535	0.637
10.7935	0.6523
10.8335	0.6585
10.8735	0.667
10.9135	0.677
10.9535	0.68
10.9935	0.6849
11.0335	0.687
11.0735	0.687
11.1135	0.6873
11.1535	0.6838
11.1935	0.6825
11.2335	0.677
11.2735	0.668
11.3135	0.6502
11.3535	0.6094
11.3935	0.5961
11.4335	0.6188
11.4735	0.6267
11.5135	0.633
11.5535	0.652
11.5935	0.6579
11.6335	0.662
11.6735	0.655
11.7135	0.6523
11.7535	0.6444
11.7935	0.6419
11.8335	0.64
11.8735	0.6341
11.9135	0.6326
11.9535	0.625
11.9935	0.6196
12.0335	0.6116
12.0735	0.6018
12.1135	0.5898
12.1535	0.5731
12.1935	0.5582
12.2335	0.5453
12.2735	0.5264
12.3135	0.5026
12.3535	0.4773
12.3935	0.446
12.4335	0.4029
12.4735	0.3609
12.5135	0.3141
12.5535	0.252
12.5936	0.2076
12.6336	0.1878
12.6736	0.2195
12.7136	0.2776
12.7536	0.3136
12.7936	0.3127
12.8336	0.2651
12.8736	0.1941
12.9136	0.2195
12.9536	0.2851
12.9936	0.331
13.0336	0.3557
13.0736	0.379
13.1136	0.392
13.1536	0.3811
13.1936	0.3038
13.2336	0.2638
13.2736	0.2439
13.3136	0.2471
13.3536	0.2599
13.3936	0.2833
13.4336	0.3007
13.4736	0.306
13.5136	0.3113
13.5536	0.3381
13.5936	0.356
13.6336	0.3731
13.6736	0.3799
13.7136	0.3926
13.7536	0.3984
13.7936	0.4045
13.8336	0.416
13.8736	0.423
13.9136	0.431
13.9536	0.4358
13.9936	0.4439
14.0336	0.4494
14.0736	0.458
14.1136	0.4624
14.1536	0.4654
14.1936	0.4695
14.2336	0.4749
14.2736	0.4771
14.3136	0.4819
14.3536	0.484
14.3936	0.4884
14.4336	0.483
14.4736	0.494
14.5137	0.481
14.5537	0.4812
14.5937	0.4731
14.6337	0.4593
14.6737	0.4419
14.7137	0.4062
14.7537	0.396
14.7937	0.4103
14.8337	0.4326
14.8737	0.4472
14.9137	0.4568
14.9537	0.4578
14.9937	0.4665
15.0337	0.4726
15.0737	0.458
15.1137	0.4362
15.1537	0.392
15.1937	0.3182
15.2337	0.2443
15.2737	0.1856
15.3137	0.18
15.3537	0.1937
15.3937	0.2462
15.4337	0.3076
