Infrared Spectrum: 3,4-DI-P-NITRO-BENZOYL-HEPTANE
Formula: C21 H22 N2 O6
CAS: 116435-50-8
State: SOLID (1.0% IN KBr PELLET)
Class: COBLENTZ
Instrument: Not specified, most likely a prism, grating, or hybrid spectrometer.
Sampling: TRANSMISSION
Path length: 0.0355 CM THICK
Resolution: 4
Origin: ANDERSON PHYSICAL LABORATORY
1/CM	TRANSMITTANCE
675.592	0.719
683.998	0.714
692.404	0.696
700.81	0.6271
709.216	0.3931
717.622	0.0911
726.028	0.4899
734.434	0.698
742.84	0.78
751.246	0.824
759.652	0.87
768.058	0.869
776.464	0.8251
784.87	0.462
793.276	0.849
801.682	0.855
810.088	0.84
818.494	0.798
826.9	0.711
835.306	0.545
843.712	0.256
852.118	0.6657
860.524	0.843
868.93	0.6631
877.336	0.298
885.742	0.647
894.148	0.663
902.554	0.806
910.96	0.785
919.366	0.683
927.772	0.708
936.178	0.5582
944.584	0.379
952.991	0.7219
961.397	0.827
969.803	0.843
978.209	0.813
986.615	0.753
995.021	0.738
1003.43	0.684
1011.83	0.4809
1020.24	0.4166
1028.64	0.791
1037.05	0.7041
1045.46	0.605
1053.86	0.591
1062.27	0.442
1070.67	0.454
1079.08	0.388
1087.49	0.393
1095.89	0.2649
1104.3	0.0721
1112.7	0.0999
1121.11	0.169
1129.52	0.253
1137.92	0.615
1146.33	0.806
1154.73	0.849
1163.14	0.824
1171.55	0.693
1179.95	0.708
1188.36	0.765
1196.76	0.72
1205.17	0.672
1213.58	0.611
1221.98	0.534
1230.39	0.429
1238.8	0.303
1247.2	0.196
1255.61	0.195
1264.01	0.085
1272.42	0.018
1280.83	0.033
1289.23	0.15
1297.64	0.237
1306.04	0.291
1314.45	0.373
1322.86	0.301
1331.26	0.246
1339.67	0.1721
1348.07	0.271
1356.48	0.183
1364.89	0.2399
1373.29	0.453
1381.7	0.525
1390.1	0.54
1398.51	0.588
1406.92	0.657
1415.32	0.647
1423.73	0.74
1432.13	0.864
1440.54	0.867
1448.95	0.786
1457.35	0.791
1465.76	0.618
1474.16	0.669
1482.57	0.771
1490.98	0.834
1499.38	0.806
1507.79	0.776
1516.19	0.705
1524.6	0.4841
1533.01	0.1861
1541.41	0.051
1549.82	0.375
1558.22	0.588
1566.63	0.684
1575.04	0.75
1583.44	0.801
1591.85	0.788
1600.25	0.6169
1608.66	0.4
1617.07	0.4589
1625.47	0.737
1633.88	0.831
1642.28	0.849
1650.69	0.855
1659.1	0.866
1667.5	0.858
1675.91	0.831
1684.31	0.726
1692.72	0.692
1701.13	0.584
1709.53	0.345
1717.94	0.138
1726.34	0.043
1734.75	0.223
1743.16	0.436
1751.56	0.57
1759.97	0.707
1768.37	0.78
1776.78	0.804
1785.19	0.851
1793.59	0.867
1802	0.884
1810.4	0.855
1818.81	0.893
1827.22	0.929
1835.62	0.938
1844.03	0.933
1852.43	0.953
1860.84	0.96
1869.25	0.963
1877.65	0.953
1886.06	0.945
1894.46	0.947
1902.87	0.95
1911.28	0.951
1919.68	0.951
1928.09	0.953
1936.49	0.947
1944.9	0.92
1953.31	0.864
1961.71	0.867
1970.12	0.909
1978.52	0.923
1986.93	0.929
1995.34	0.933
2003.74	0.932
2012.15	0.932
2020.55	0.93
2028.96	0.93
2037.37	0.93
2045.77	0.9297
2054.18	0.929
2062.58	0.927
2070.99	0.926
2079.4	0.9254
2087.8	0.924
2096.21	0.9215
2104.61	0.92
2113.02	0.9177
2121.43	0.9159
2129.83	0.914
2138.24	0.9109
2146.64	0.9074
2155.05	0.9055
2163.46	0.905
2171.86	0.905
2180.27	0.905
2188.67	0.905
2197.08	0.905
2205.49	0.9049
2213.89	0.9027
2222.3	0.8973
2230.7	0.89
2239.11	0.888
2247.52	0.888
2255.92	0.8927
2264.33	0.8968
2272.73	0.897
2281.14	0.8967
2289.55	0.8948
2297.95	0.8902
2306.36	0.8868
2314.76	0.884
2323.17	0.882
2331.58	0.881
2339.98	0.882
2348.39	0.882
2356.8	0.881
2365.2	0.881
2373.61	0.881
2382.01	0.881
2390.42	0.878
2398.83	0.8734
2407.23	0.8688
2415.64	0.866
2424.04	0.8647
2432.45	0.864
2440.86	0.864
2449.26	0.864
2457.67	0.8634
2466.07	0.863
2474.48	0.858
2482.89	0.857
2491.29	0.8577
2499.7	0.8598
2508.1	0.863
2516.51	0.863
2524.92	0.8616
2533.32	0.8582
2541.73	0.8567
2550.13	0.854
2558.54	0.8513
2566.95	0.8452
2575.35	0.842
2583.76	0.842
2592.16	0.842
2600.57	0.839
2608.98	0.8368
2617.38	0.836
2625.79	0.8346
2634.19	0.834
2642.6	0.833
2651.01	0.833
2659.41	0.8303
2667.82	0.8281
2676.22	0.828
2684.63	0.8275
2693.04	0.8228
2701.44	0.821
2709.85	0.8188
2718.25	0.8155
2726.66	0.8135
2735.07	0.812
2743.47	0.8055
2751.88	0.8035
2760.28	0.8015
2768.69	0.8
2777.1	0.7965
2785.5	0.794
2793.91	0.7912
2802.31	0.789
2810.72	0.7857
2819.13	0.7814
2827.53	0.7716
2835.94	0.7607
2844.34	0.7291
2852.75	0.6851
2861.16	0.639
2869.56	0.5995
2877.97	0.5779
2886.37	0.573
2894.78	0.573
2903.19	0.5761
2911.59	0.5813
2920	0.582
2928.4	0.5617
2936.81	0.4918
2945.22	0.489
2953.62	0.4879
2962.03	0.4862
2970.43	0.4558
2978.84	0.4396
2987.25	0.4652
2995.65	0.5144
3004.06	0.593
3012.46	0.6708
3020.87	0.7084
3029.28	0.7215
3037.68	0.7285
3046.09	0.7417
3054.49	0.743
3062.9	0.7334
3071.31	0.7133
3079.71	0.7009
3088.12	0.6962
3096.52	0.6848
3104.93	0.6713
3113.34	0.6586
3121.74	0.6491
3130.15	0.6294
3138.55	0.6272
3146.96	0.6772
3155.37	0.7078
3163.77	0.7252
3172.18	0.728
3180.58	0.728
3188.99	0.728
3197.4	0.728
3205.8	0.7259
3214.21	0.725
3222.61	0.725
3231.02	0.725
3239.43	0.7228
3247.83	0.7196
3256.24	0.7163
3264.64	0.714
3273.05	0.713
3281.46	0.711
3289.86	0.71
3298.27	0.7082
3306.67	0.7078
3315.08	0.7048
3323.49	0.6996
3331.89	0.698
3340.3	0.6944
3348.7	0.6887
3357.11	0.6839
3365.52	0.6772
3373.92	0.67
3382.33	0.6616
3390.73	0.6539
3399.14	0.6442
3407.55	0.6352
3415.95	0.6251
3424.36	0.6134
3432.76	0.6022
3441.17	0.5903
3449.58	0.588
3457.98	0.5907
3466.39	0.596
3474.8	0.5992
3483.2	0.6025
3491.61	0.6057
3500.01	0.608
3508.42	0.6112
3516.83	0.6145
3525.23	0.6165
3533.64	0.62
3542.04	0.6233
3550.45	0.6265
3558.86	0.6313
3567.26	0.635
3575.67	0.6398
3584.07	0.6456
3592.48	0.6523
3600.89	0.656
3609.29	0.6593
3617.7	0.6655
3626.1	0.6714
3634.51	0.6811
3642.92	0.6849
3651.32	0.6906
3659.73	0.6958
3668.13	0.699
3676.54	0.701
3684.95	0.701
3693.35	0.702
3701.76	0.7051
3710.16	0.708
3718.57	0.708
3726.98	0.708
3735.38	0.7081
3743.79	0.71
3752.19	0.71
3760.6	0.7072
3769.01	0.705
3777.41	0.705
3785.82	0.705
3794.22	0.705
3802.63	0.707
3811.04	0.707
3819.44	0.708
3827.85	0.708
3836.25	0.708
3844.66	0.708
3853.07	0.708
3861.47	0.708
3869.88	0.708
3878.28	0.708
3886.69	0.708
3895.1	0.708
3903.5	0.7079
3911.91	0.707
3920.31	0.7044
3928.72	0.704
3937.13	0.702
3945.53	0.7016
3953.94	0.701
3962.34	0.701
3970.75	0.699
3979.16	0.6986
