Infrared Spectrum: 2-Benzothiazolinethione, 3-(o-chloroanilinomethyl)-
Formula: C14 H11 Cl N2 S2
CAS: 116400-95-4
State: SOLID (SPLIT MULL), FLUOROLUBE FOR 3800-1330 CM^-^1, NUJOL FOR 1330-400 CM^-^1
Melting point: 165 C
Class: COBLENTZ III
Instrument: BECKMAN IR-9 (GRATING)
Instrument parameters: ORDER CHANGES: 670, 1200, 2000 CM^-^1
Sampling: TRANSMISSION
Resolution: 2
Origin: DOW CHEMICAL COMPANY
1/CM	TRANSMITTANCE
399	0.5251
408	0.5093
417	0.5281
426	0.5337
435	0.6658
444	0.6134
453	0.6626
462	0.6535
471	0.615
480	0.628
489	0.7032
498	0.5484
507	0.5133
516	0.4851
525	0.5628
534	0.6818
543	0.5565
552	0.457
561	0.7197
570	0.7808
579	0.8037
588	0.6937
597	0.795
606	0.5794
615	0.8186
624	0.8425
633	0.8528
642	0.858
651	0.8588
660	0.8586
669	0.8533
678	0.7804
687	0.8366
696	0.4199
705	0.8147
714	0.6611
723	0.5992
732	0.5147
741	0.1681
750	0.1858
759	0.5237
768	0.7804
777	0.8194
786	0.8283
795	0.8191
804	0.7662
813	0.7284
822	0.8033
831	0.8142
840	0.8071
849	0.5398
858	0.7647
867	0.7868
876	0.7695
885	0.7494
894	0.7386
903	0.7332
912	0.7141
921	0.6503
930	0.4774
939	0.4624
948	0.1833
957	0.4826
966	0.6904
975	0.7053
984	0.6984
993	0.6815
1002	0.6535
1011	0.5204
1020	0.0924
1029	0.3259
1038	0.1305
1047	0.3292
1056	0.1692
1065	0.5839
1074	0.6487
1083	0.6012
1092	0.5412
1101	0.4105
1110	0.2129
1119	0.0837
1128	0.1524
1137	0.3518
1146	0.0941
1155	0.5506
1164	0.4159
1173	0.5674
1182	0.6021
1191	0.586
1200	0.5709
1209	0.5148
1218	0.4455
1227	0.2722
1236	0.0423
1245	0.0105
1254	0.256
1263	0.4642
1272	0.0837
1281	0.398
1290	0.5377
1299	0.4804
1308	0.4452
1317	0.1073
1326	0.083
1335	0.5129
1344	0.5122
1353	0.3666
1362	0.0252
1371	0.1941
1380	0.7458
1389	0.404
1398	0.5197
1407	0.7885
1416	0.8011
1425	0.7747
1434	0.6535
1443	0.477
1452	0.4535
1461	0.0855
1470	0.541
1479	0.7661
1488	0.6904
1497	0.5771
1506	0.3088
1515	0.0312
1524	0.2221
1533	0.6382
1542	0.7962
1551	0.848
1560	0.8421
1569	0.7758
1578	0.5167
1587	0.4301
1596	0.1983
1605	0.2901
1614	0.7203
1623	0.8089
1632	0.843
1641	0.8546
1650	0.8607
1659	0.8539
1668	0.844
1677	0.8441
1686	0.8478
1695	0.8313
1704	0.8452
1713	0.8528
1722	0.8495
1731	0.8413
1740	0.8364
1749	0.8336
1758	0.8191
1767	0.7942
1776	0.7812
1785	0.7649
1794	0.8117
1803	0.8111
1812	0.8153
1821	0.8194
1830	0.8058
1839	0.8112
1848	0.8038
1857	0.7911
1866	0.7776
1875	0.783
1884	0.7681
1893	0.7791
1902	0.7695
1911	0.7151
1920	0.7548
1929	0.778
1938	0.7745
1947	0.7575
1956	0.7408
1965	0.7743
1974	0.7661
1983	0.7657
1992	0.7614
2001	0.7604
2010	0.7606
2019	0.7593
2028	0.7558
2037	0.7505
2046	0.7445
2055	0.7386
2064	0.7335
2073	0.7272
2082	0.7226
2091	0.7178
2100	0.7128
2109	0.7071
2118	0.7015
2127	0.6958
2136	0.6925
2145	0.6898
2154	0.6869
2163	0.6801
2172	0.6703
2181	0.6604
2190	0.6564
2199	0.6561
2208	0.6564
2217	0.6534
2226	0.6478
2235	0.6411
2244	0.6337
2253	0.6246
2262	0.6141
2271	0.6073
2280	0.602
2289	0.5981
2298	0.5947
2307	0.5918
2316	0.5893
2325	0.5902
2334	0.5917
2343	0.5939
2352	0.5955
2361	0.5981
2370	0.6007
2379	0.5935
2388	0.5762
2397	0.571
2406	0.5693
2415	0.569
2424	0.5691
2433	0.5691
2442	0.5691
2451	0.5677
2460	0.561
2469	0.5548
2478	0.549
2487	0.5441
2496	0.5432
2505	0.5433
2514	0.5435
2523	0.5432
2532	0.5387
2541	0.5339
2550	0.5318
2559	0.5307
2568	0.5268
2577	0.5208
2586	0.5149
2595	0.5112
2604	0.5095
2613	0.5085
2622	0.5074
2631	0.5066
2640	0.5051
2649	0.5026
2658	0.5017
2667	0.4988
2676	0.4959
2685	0.4908
2694	0.487
2703	0.4842
2712	0.4821
2721	0.4783
2730	0.4743
2739	0.4712
2748	0.4684
2757	0.4652
2766	0.462
2775	0.4591
2784	0.4569
2793	0.4567
2802	0.4566
2811	0.4562
2820	0.4533
2829	0.4451
2838	0.4362
2847	0.429
2856	0.4244
2865	0.423
2874	0.4215
2883	0.4189
2892	0.4084
2901	0.4004
2910	0.3996
2919	0.3976
2928	0.3941
2937	0.3899
2946	0.3808
2955	0.3484
2964	0.3574
2973	0.3724
2982	0.3732
2991	0.3714
3000	0.369
3009	0.3621
3018	0.3496
3027	0.3303
3036	0.325
3045	0.3442
3054	0.3392
3063	0.3192
3072	0.3162
3081	0.3225
3090	0.3148
3099	0.3368
3108	0.343
3117	0.3437
3126	0.3434
3135	0.3432
3144	0.3426
3153	0.3412
3162	0.34
3171	0.3382
3180	0.3352
3189	0.3312
3198	0.3272
3207	0.3225
3216	0.3179
3225	0.3121
3234	0.3059
3243	0.2984
3252	0.2909
3261	0.2832
3270	0.2766
3279	0.2702
3288	0.2638
3297	0.2557
3306	0.2461
3315	0.2331
3324	0.2152
3333	0.1941
3342	0.1646
3351	0.0915
3360	0.0376
3369	0.022
3378	0.1152
3387	0.2676
3396	0.2902
3405	0.2897
3414	0.2894
3423	0.2892
3432	0.2891
3441	0.2893
3450	0.2896
3459	0.2893
3468	0.2889
3477	0.288
3486	0.2866
3495	0.2846
3504	0.2819
3513	0.2783
3522	0.2749
3531	0.2729
3540	0.271
3549	0.2697
3558	0.2687
3567	0.2677
3576	0.2659
3585	0.2641
3594	0.2624
3603	0.2607
3612	0.259
3621	0.2574
3630	0.256
3639	0.2546
3648	0.2533
3657	0.2519
3666	0.2507
3675	0.2498
3684	0.2489
3693	0.248
3702	0.2465
3711	0.2448
3720	0.2448
3729	0.2439
3738	0.2421
3747	0.2402
3756	0.2377
3765	0.2352
3774	0.2329
3783	0.2308
3792	0.2287
