Infrared Spectrum: GLUTARIC ANHYDRIDE, 3-STYRYL-
Formula: C13 H12 O3
CAS: 116595-07-4
State: SOLID (0.6 mg / 650 mg, KBr DISC)
Class: COBLENTZ III
Instrument: PERKIN-ELMER 21 (GRATING)
Instrument parameters: FILTER CHANGE AT ABOUT 1090 CM^-^1
Sampling: TRANSMISSION
Resolution: 2
Origin: SOUTHERN RESEARCH INSTITUTE
1/CM	TRANSMITTANCE
613.471	0.974
622.136	0.974
630.801	0.974
639.466	0.9591
648.131	0.9444
656.795	0.9202
665.46	0.8685
674.125	0.8301
682.79	0.6885
691.455	0.638
700.12	0.3134
708.785	0.869
717.45	0.8632
726.115	0.8534
734.78	0.8309
743.444	0.7679
752.109	0.5888
760.774	0.209
769.439	0.7244
778.104	0.805
786.769	0.8046
795.434	0.7914
804.099	0.7499
812.764	0.6045
821.428	0.795
830.093	0.7932
838.758	0.7347
847.423	0.733
856.088	0.7699
864.753	0.7606
873.418	0.743
882.083	0.735
890.748	0.7171
899.412	0.6993
908.077	0.6733
916.742	0.619
925.407	0.4982
934.072	0.5882
942.737	0.4794
951.402	0.1607
960.067	0.1324
968.732	0.5061
977.397	0.2754
986.061	0.706
994.726	0.6697
1003.39	0.6263
1012.06	0.5862
1020.72	0.4986
1029.39	0.3724
1038.05	0.2296
1046.72	0.2782
1055.38	0.1451
1064.05	0.09
1072.71	0.1323
1081.38	0.3037
1090.04	0.438
1098.71	0.2335
1107.37	0.1618
1116.03	0.2703
1124.7	0.4958
1133.36	0.6169
1142.03	0.6661
1150.69	0.6579
1159.36	0.5774
1168.02	0.3981
1176.69	0.1848
1185.35	0.4278
1194.02	0.545
1202.68	0.5615
1211.35	0.57
1220.01	0.6183
1228.68	0.6007
1237.34	0.5183
1246.01	0.4241
1254.67	0.3646
1263.34	0.539
1272	0.5929
1280.67	0.5122
1289.33	0.3475
1298	0.5035
1306.66	0.679
1315.33	0.6023
1323.99	0.74
1332.66	0.736
1341.32	0.7176
1349.99	0.7509
1358.65	0.7655
1367.32	0.758
1375.98	0.7526
1384.65	0.7097
1393.31	0.629
1401.98	0.7159
1410.64	0.6602
1419.31	0.6789
1427.97	0.5284
1436.64	0.6818
1445.3	0.7321
1453.97	0.6576
1462.63	0.7363
1471.3	0.7428
1479.96	0.7302
1488.63	0.6717
1497.29	0.6455
1505.95	0.7549
1514.62	0.75
1523.28	0.746
1531.95	0.745
1540.61	0.7233
1549.28	0.722
1557.94	0.72
1566.61	0.715
1575.27	0.708
1583.94	0.708
1592.6	0.6965
1601.27	0.6759
1609.93	0.6624
1618.6	0.6492
1627.26	0.6297
1635.93	0.6158
1644.59	0.612
1653.26	0.609
1661.92	0.6039
1670.59	0.5888
1679.25	0.5769
1687.92	0.5589
1696.58	0.501
1705.25	0.4703
1713.91	0.3711
1722.58	0.302
1731.24	0.1963
1739.91	0.1081
1748.57	0.0838
1757.24	0.1264
1765.9	0.145
1774.57	0.2041
1783.23	0.3302
1791.9	0.3467
1800.56	0.2605
1809.23	0.172
1817.89	0.2445
1826.56	0.4848
1835.22	0.6239
1843.89	0.6972
1852.55	0.7465
1861.22	0.7774
1869.88	0.7854
1878.55	0.7877
1887.21	0.7673
1895.88	0.7833
1904.54	0.789
1913.2	0.7914
1921.87	0.8
1930.53	0.7999
1939.2	0.796
1947.86	0.7913
1956.53	0.791
1965.19	0.775
1973.86	0.779
1982.52	0.7839
1991.19	0.7802
1999.85	0.7799
2008.52	0.791
2017.18	0.7855
2025.85	0.7781
2034.51	0.777
2043.18	0.778
2051.84	0.778
2060.51	0.777
2069.17	0.775
2077.84	0.774
2086.5	0.772
2095.17	0.769
2103.83	0.766
2112.5	0.764
2121.16	0.761
2129.83	0.7608
2138.49	0.762
2147.16	0.7581
2155.82	0.758
2164.49	0.758
2173.15	0.7531
2181.82	0.7482
2190.48	0.7421
2199.15	0.7468
2207.81	0.75
2216.48	0.748
2225.14	0.741
2233.81	0.738
2242.47	0.7419
2251.14	0.742
2259.8	0.742
2268.47	0.736
2277.13	0.732
2285.8	0.732
2294.46	0.732
2303.13	0.7291
2311.79	0.7241
2320.45	0.72
2329.12	0.72
2337.78	0.721
2346.45	0.721
2355.11	0.722
2363.78	0.724
2372.44	0.722
2381.11	0.7211
2389.77	0.717
2398.44	0.717
2407.1	0.717
2415.77	0.717
2424.43	0.714
2433.1	0.71
2441.76	0.709
2450.43	0.7062
2459.09	0.704
2467.76	0.7012
2476.42	0.699
2485.09	0.7
2493.75	0.703
2502.42	0.7001
2511.08	0.699
2519.75	0.697
2528.41	0.6931
2537.08	0.69
2545.74	0.6881
2554.41	0.6871
2563.07	0.687
2571.74	0.689
2580.4	0.6852
2589.07	0.6811
2597.73	0.677
2606.4	0.676
2615.06	0.674
2623.73	0.676
2632.39	0.6779
2641.06	0.679
2649.72	0.679
2658.39	0.679
2667.05	0.6761
2675.72	0.673
2684.38	0.666
2693.05	0.663
2701.71	0.666
2710.38	0.665
2719.04	0.6678
2727.7	0.6661
2736.37	0.662
2745.03	0.661
2753.7	0.6532
2762.36	0.6529
2771.03	0.6521
2779.69	0.6491
2788.36	0.644
2797.02	0.6411
2805.69	0.6351
2814.35	0.6312
2823.02	0.629
2831.68	0.63
2840.35	0.6234
2849.01	0.615
2857.68	0.603
2866.34	0.598
2875.01	0.596
2883.67	0.596
2892.34	0.5999
2901	0.6
2909.67	0.599
2918.33	0.598
2927	0.597
2935.66	0.597
2944.33	0.5944
2952.99	0.586
2961.66	0.58
2970.32	0.5798
2978.99	0.582
2987.65	0.587
2996.32	0.5879
3004.98	0.583
3013.65	0.5958
3022.31	0.6018
3030.98	0.603
3039.64	0.6002
3048.31	0.5981
3056.97	0.596
3065.64	0.593
3074.3	0.5988
3082.97	0.6139
3091.63	0.618
3100.3	0.616
3108.96	0.6151
3117.63	0.615
3126.29	0.615
3134.95	0.615
3143.62	0.607
3152.28	0.6052
3160.95	0.603
3169.61	0.6021
3178.28	0.599
3186.94	0.599
3195.61	0.5961
3204.27	0.593
3212.94	0.591
3221.6	0.5836
3230.27	0.5829
3238.93	0.5811
3247.6	0.58
3256.26	0.5782
3264.93	0.578
3273.59	0.5751
3282.26	0.572
3290.92	0.568
3299.59	0.565
3308.25	0.5601
3316.92	0.5551
3325.58	0.5491
3334.25	0.5431
3342.91	0.5341
3351.58	0.5271
3360.24	0.5176
3368.91	0.509
3377.57	0.504
3386.24	0.4982
3394.9	0.5
3403.57	0.4961
3412.23	0.492
3420.9	0.4901
3429.56	0.49
3438.23	0.493
3446.89	0.495
3455.56	0.4969
3464.22	0.5
3472.89	0.5
3481.55	0.5011
3490.22	0.501
3498.88	0.5009
3507.55	0.502
3516.21	0.5078
3524.88	0.5158
3533.54	0.5239
3542.2	0.5359
3550.87	0.54
3559.53	0.545
3568.2	0.549
3576.86	0.5599
3585.53	0.568
3594.19	0.5748
3602.86	0.576
3611.52	0.5829
3620.19	0.5879
3628.85	0.593
3637.52	0.597
3646.18	0.597
3654.85	0.5989
3663.51	0.602
3672.18	0.603
3680.84	0.602
3689.51	0.607
3698.17	0.609
3706.84	0.609
3715.5	0.608
3724.17	0.607
3732.83	0.608
3741.5	0.608
3750.16	0.608
3758.83	0.608
3767.49	0.6071
3776.16	0.604
3784.82	0.6079
3793.49	0.6071
3802.15	0.603
3810.82	0.603
