Infrared Spectrum: BENZAMIDINE, 4-(3-BUTYL-3-METHYL-1-TRIAZENOL)-
Formula: C12 H19 N5
CAS: 116557-74-5
State: SOLID (1 mg / 500 mg KBr DISC)
Class: COBLENTZ III
Instrument: PERKIN-ELMER 221 (GRATING)
Instrument parameters: FILTER AT 980 CM^-^1. GRATING 4000-1428 CM^-^1, NaCl PRISM 1428-650 CM^-^1
Sampling: TRANSMISSION
Resolution: 2
Origin: SOUTHERN RESEARCH INSTITUTE
1/CM	TRANSMITTANCE
645.21	0.845
654.08	0.872
662.95	0.892
671.819	0.893
680.689	0.9
689.559	0.916
698.429	0.926
707.298	0.925
716.168	0.915
725.038	0.888
733.908	0.92
742.777	0.919
751.647	0.881
760.517	0.935
769.387	0.948
778.256	0.944
787.126	0.934
795.996	0.919
804.866	0.893
813.735	0.902
822.605	0.872
831.475	0.805
840.345	0.662
849.214	0.345
858.084	0.479
866.954	0.89
875.824	0.962
884.693	0.965
893.563	0.965
902.433	0.959
911.303	0.911
920.172	0.962
929.042	0.962
937.912	0.946
946.782	0.945
955.651	0.943
964.521	0.939
973.391	0.926
982.261	0.912
991.13	0.903
1000	0.892
1008.87	0.883
1017.74	0.881
1026.61	0.865
1035.48	0.834
1044.35	0.798
1053.22	0.756
1062.09	0.723
1070.96	0.749
1079.83	0.744
1088.7	0.711
1097.57	0.632
1106.44	0.57
1115.31	0.59
1124.18	0.744
1133.05	0.758
1141.92	0.742
1150.79	0.605
1159.66	0.402
1168.53	0.579
1177.4	0.743
1186.27	0.64
1195.13	0.534
1204	0.561
1212.87	0.718
1221.74	0.83
1230.61	0.828
1239.48	0.806
1248.35	0.798
1257.22	0.787
1266.09	0.768
1274.96	0.73
1283.83	0.68
1292.7	0.707
1301.57	0.724
1310.44	0.692
1319.31	0.646
1328.18	0.594
1337.05	0.503
1345.92	0.374
1354.79	0.342
1363.66	0.428
1372.53	0.57
1381.4	0.618
1390.27	0.642
1399.14	0.711
1408.01	0.56
1416.88	0.331
1425.75	0.336
1434.62	0.326
1443.49	0.403
1452.36	0.542
1461.23	0.505
1470.1	0.485
1478.97	0.639
1487.84	0.758
1496.71	0.721
1505.58	0.563
1514.45	0.843
1523.32	0.844
1532.19	0.804
1541.06	0.739
1549.93	0.544
1558.79	0.519
1567.66	0.706
1576.53	0.713
1585.4	0.328
1594.27	0.448
1603.14	0.422
1612.01	0.73
1620.88	0.752
1629.75	0.69
1638.62	0.541
1647.49	0.496
1656.36	0.625
1665.23	0.819
1674.1	0.887
1682.97	0.915
1691.84	0.935
1700.71	0.955
1709.58	0.97
1718.45	0.979
1727.32	0.983
1736.19	0.984
1745.06	0.984
1753.93	0.986
1762.8	0.984
1771.67	0.984
1780.54	0.984
1789.41	0.984
1798.28	0.986
1807.15	0.986
1816.02	0.986
1824.89	0.986
1833.76	0.986
1842.63	0.986
1851.5	0.983
1860.37	0.982
1869.24	0.982
1878.11	0.978
1886.98	0.975
1895.85	0.972
1904.72	0.969
1913.58	0.967
1922.45	0.967
1931.32	0.968
1940.19	0.968
1949.06	0.968
1957.93	0.967
1966.8	0.965
1975.67	0.963
1984.54	0.962
1993.41	0.962
2002.28	0.962
2011.15	0.96
2020.02	0.959
2028.89	0.959
2037.76	0.958
2046.63	0.955
2055.5	0.954
2064.37	0.951
2073.24	0.949
2082.11	0.948
2090.98	0.946
2099.85	0.945
2108.72	0.944
2117.59	0.943
2126.46	0.941
2135.33	0.94
2144.2	0.94
2153.07	0.939
2161.94	0.939
2170.81	0.939
2179.68	0.939
2188.55	0.939
2197.42	0.938
2206.29	0.938
2215.16	0.935
2224.03	0.934
2232.9	0.932
2241.77	0.932
2250.64	0.931
2259.51	0.927
2268.38	0.926
2277.24	0.924
2286.11	0.922
2294.98	0.92
2303.85	0.916
2312.72	0.914
2321.59	0.911
2330.46	0.91
2339.33	0.91
2348.2	0.91
2357.07	0.91
2365.94	0.91
2374.81	0.91
2383.68	0.908
2392.55	0.908
2401.42	0.907
2410.29	0.906
2419.16	0.906
2428.03	0.906
2436.9	0.902
2445.77	0.901
2454.64	0.901
2463.51	0.898
2472.38	0.898
2481.25	0.895
2490.12	0.892
2498.99	0.89
2507.86	0.888
2516.73	0.886
2525.6	0.884
2534.47	0.882
2543.34	0.882
2552.21	0.879
2561.08	0.878
2569.95	0.874
2578.82	0.872
2587.69	0.869
2596.56	0.868
2605.43	0.868
2614.3	0.867
2623.17	0.865
2632.04	0.862
2640.9	0.859
2649.77	0.858
2658.64	0.854
2667.51	0.852
2676.38	0.844
2685.25	0.839
2694.12	0.833
2702.99	0.829
2711.86	0.826
2720.73	0.826
2729.6	0.828
2738.47	0.826
2747.34	0.826
2756.21	0.824
2765.08	0.82
2773.95	0.816
2782.82	0.814
2791.69	0.81
2800.56	0.805
2809.43	0.801
2818.3	0.792
2827.17	0.778
2836.04	0.772
2844.91	0.756
2853.78	0.713
2862.65	0.681
2871.52	0.676
2880.39	0.72
2889.26	0.718
2898.13	0.694
2907	0.664
2915.87	0.629
2924.74	0.575
2933.61	0.573
2942.48	0.643
2951.35	0.623
2960.22	0.58
2969.09	0.652
2977.96	0.79
2986.83	0.805
2995.7	0.804
3004.56	0.797
3013.43	0.792
3022.3	0.785
3031.17	0.774
3040.04	0.762
3048.91	0.753
3057.78	0.752
3066.65	0.743
3075.52	0.728
3084.39	0.725
3093.26	0.716
3102.13	0.707
3111	0.686
3119.87	0.675
3128.74	0.651
3137.61	0.628
3146.48	0.592
3155.35	0.552
3164.22	0.514
3173.09	0.471
3181.96	0.45
3190.83	0.451
3199.7	0.465
3208.57	0.501
3217.44	0.543
3226.31	0.582
3235.18	0.589
3244.05	0.573
3252.92	0.581
3261.79	0.585
3270.66	0.613
3279.53	0.611
3288.4	0.596
3297.27	0.573
3306.14	0.548
3315.01	0.527
3323.88	0.5
3332.75	0.467
3341.62	0.445
3350.49	0.436
3359.36	0.434
3368.22	0.443
3377.09	0.457
3385.96	0.504
3394.83	0.579
3403.7	0.633
3412.57	0.668
3421.44	0.686
3430.31	0.707
3439.18	0.718
3448.05	0.721
3456.92	0.728
3465.79	0.73
3474.66	0.735
3483.53	0.739
3492.4	0.743
3501.27	0.748
3510.14	0.75
3519.01	0.754
3527.88	0.762
3536.75	0.767
3545.62	0.771
3554.49	0.781
3563.36	0.787
3572.23	0.793
3581.1	0.797
3589.97	0.804
3598.84	0.809
3607.71	0.816
3616.58	0.82
3625.45	0.823
3634.32	0.825
3643.19	0.826
3652.06	0.828
3660.93	0.826
3669.8	0.826
3678.67	0.826
3687.54	0.825
3696.41	0.825
3705.28	0.825
3714.15	0.826
3723.01	0.825
3731.88	0.825
3740.75	0.823
3749.62	0.823
3758.49	0.821
3767.36	0.821
3776.23	0.82
3785.1	0.82
3793.97	0.82
3802.84	0.817
3811.71	0.815
3820.58	0.812
3829.45	0.811
3838.32	0.81
3847.19	0.81
3856.06	0.809
3864.93	0.807
3873.8	0.807
3882.67	0.807
3891.54	0.807
3900.41	0.806
3909.28	0.805
3918.15	0.805
3927.02	0.805
3935.89	0.805
3944.76	0.804
3953.63	0.804
3962.5	0.802
3971.37	0.802
3980.24	0.8
3989.11	0.798
3997.98	0.798
