Infrared Spectrum: OCTADECA-9,11-DIENOIC ACID, 8-HYDROXY-, METHYL ESTER, TRANS, TRANS-
Formula: C19 H34 O3
CAS: 116595-30-3
State: SOLUTION (10% IN CCl4 FOR 4000-1150 CM^-^1, 10% IN CS2 FOR 1150-450 CM^-^1) VS. SOLVENT
Class: COBLENTZ III
Instrument: CARY 90 (GRATING)
Instrument parameters: GRATING CHANGES AT 3000, 2000, 1200 CM^-^1
Sampling: TRANSMISSION
Path length: 0.010 CM, 0.010 CM
Resolution: 4
Origin: WESTERN REGIONAL RES. USDA
1/CM	TRANSMITTANCE
447.026	0.624
456.32	0.695
465.613	0.721
474.907	0.748
484.201	0.771
493.494	0.793
502.788	0.806
512.082	0.821
521.376	0.832
530.669	0.851
539.963	0.872
549.257	0.89
558.55	0.903
567.844	0.915
577.138	0.919
586.431	0.938
595.725	0.958
605.019	0.971
614.312	0.986
623.606	0.998
632.9	1.01
642.193	1.007
651.487	1
660.781	1.024
670.075	1.065
679.368	1.063
688.662	1.054
697.956	1.046
707.249	1.04
716.543	0.986
725.837	0.878
735.13	1
744.424	1.049
753.718	1.079
763.011	1.086
772.305	1.101
781.599	1.101
790.893	1.099
800.186	1.112
809.48	1.114
818.774	1.088
828.067	1.035
837.361	1.006
846.655	1.006
855.948	0.99
865.242	0.984
874.536	0.977
883.829	0.969
893.123	1.013
902.417	1.049
911.711	1.041
921.004	1.035
930.298	1.016
939.592	0.98
948.885	0.947
958.179	0.866
967.473	0.784
976.766	0.467
986.06	0.03
995.354	0.496
1004.65	0.663
1013.94	0.661
1023.23	0.676
1032.53	0.715
1041.82	0.757
1051.12	0.784
1060.41	0.78
1069.7	0.789
1079	0.818
1088.29	0.812
1097.58	0.801
1106.88	0.732
1116.17	0.741
1125.47	0.805
1134.76	0.758
1144.05	0.687
1153.35	0.493
1162.64	0.334
1171.93	0.265
1181.23	0.404
1190.52	0.381
1199.81	0.328
1209.11	0.392
1218.4	0.434
1227.7	0.443
1236.99	0.432
1246.28	0.4
1255.58	0.437
1264.87	0.497
1274.16	0.546
1283.46	0.588
1292.75	0.593
1302.05	0.593
1311.34	0.603
1320.63	0.612
1329.93	0.625
1339.22	0.58
1348.51	0.473
1357.81	0.319
1367.1	0.313
1376.4	0.374
1385.69	0.535
1394.98	0.661
1404.28	0.737
1413.57	0.712
1422.86	0.699
1432.16	0.389
1441.45	0.488
1450.74	0.483
1460.04	0.417
1469.33	0.698
1478.63	0.903
1487.92	0.938
1497.21	0.95
1506.51	0.96
1515.8	0.968
1525.09	0.967
1534.39	0.967
1543.68	0.959
1552.98	0.979
1562.27	0.984
1571.56	0.985
1580.86	0.973
1590.15	0.967
1599.44	0.968
1608.74	0.984
1618.03	0.977
1627.32	0.966
1636.62	0.963
1645.91	0.971
1655.21	0.895
1664.5	0.926
1673.79	0.943
1683.09	0.911
1692.38	0.778
1701.67	0.745
1710.97	0.65
1720.26	0.39
1729.56	0.16
1738.85	0.019
1748.14	0.1821
1757.44	0.62
1766.73	0.821
1776.02	0.917
1785.32	0.951
1794.61	0.977
1803.9	0.997
1813.2	1.009
1822.49	1.015
1831.79	1.02
1841.08	1.031
1850.37	1.014
1859.67	1.015
1868.96	1.031
1878.25	1.032
1887.55	1.036
1896.84	1.035
1906.14	1.036
1915.43	1.04
1924.72	1.035
1934.02	1.031
1943.31	1.028
1952.6	1.027
1961.9	1.027
1971.19	1.03
1980.48	1.03
1989.78	1.031
1999.07	1.018
2008.37	1.006
2017.66	1.007
2026.95	1.009
2036.25	1.011
2045.54	1.013
2054.83	1.015
2064.13	1.018
2073.42	1.02
2082.72	1.023
2092.01	1.024
2101.3	1.027
2110.6	1.03
2119.89	1.032
2129.18	1.0342
2138.48	1.037
2147.77	1.037
2157.07	1.039
2166.36	1.04
2175.65	1.04
2184.95	1.041
2194.24	1.041
2203.53	1.043
2212.83	1.0437
2222.12	1.044
2231.41	1.044
2240.71	1.044
2250	1.0433
2259.3	1.041
2268.59	1.0393
2277.88	1.0363
2287.18	1.035
2296.47	1.0323
2305.76	1.0313
2315.06	1.03
2324.35	1.028
2333.65	1.027
2342.94	1.0245
2352.23	1.024
2361.53	1.024
2370.82	1.024
2380.11	1.0256
2389.41	1.026
2398.7	1.026
2407.99	1.026
2417.29	1.027
2426.58	1.027
2435.88	1.028
2445.17	1.028
2454.46	1.03
2463.76	1.031
2473.05	1.031
2482.34	1.0301
2491.64	1.03
2500.93	1.028
2510.23	1.028
2519.52	1.026
2528.81	1.0231
2538.11	1.023
2547.4	1.022
2556.69	1.0202
2565.99	1.02
2575.28	1.019
2584.57	1.0161
2593.87	1.014
2603.16	1.0111
2612.46	1.009
2621.75	1.007
2631.04	1.006
2640.34	1.005
2649.63	1.002
2658.92	1
2668.22	0.997
2677.51	0.996
2686.81	0.994
2696.1	0.994
2705.39	0.993
2714.69	0.993
2723.98	0.993
2733.27	0.994
2742.57	0.996
2751.86	0.996
2761.15	0.992
2770.45	0.9878
2779.74	0.9787
2789.04	0.9667
2798.33	0.9496
2807.62	0.9214
2816.92	0.8785
2826.21	0.8035
2835.5	0.6915
2844.8	0.3581
2854.09	0.2035
2863.39	0.1798
2872.68	0.2952
2881.97	0.4435
2891.27	0.4138
2900.56	0.287
2909.85	0.156
2919.15	0.0602
2928.44	0.0114
2937.73	0.0468
2947.03	0.1054
2956.32	0.1181
2965.62	0.2359
2974.91	0.4416
2984.2	0.6401
2993.5	0.6392
3002.79	0.6865
3012.08	0.6725
3021.38	0.6612
3030.67	0.7857
3039.97	0.8832
3049.26	0.9413
3058.55	0.9732
3067.85	0.9872
3077.14	1.0003
3086.43	1.006
3095.73	1.011
3105.02	1.0143
3114.32	1.0167
3123.61	1.0193
3132.9	1.0196
3142.2	1.016
3151.49	1.0136
3160.78	1.0096
3170.08	1.0066
3179.37	1.003
3188.66	1.001
3197.96	0.9992
3207.25	0.997
3216.55	0.996
3225.84	0.994
3235.13	0.99
3244.43	0.986
3253.72	0.981
3263.01	0.9741
3272.31	0.9676
3281.6	0.964
3290.9	0.96
3300.19	0.957
3309.48	0.952
3318.78	0.9455
3328.07	0.94
3337.36	0.9335
3346.66	0.927
3355.95	0.9215
3365.24	0.9155
3374.54	0.9085
3383.83	0.9035
3393.13	0.8969
3402.42	0.8905
3411.71	0.8854
3421.01	0.8784
3430.3	0.8724
3439.59	0.8648
3448.89	0.8542
3458.18	0.8458
3467.48	0.8384
3476.77	0.836
3486.06	0.8386
3495.36	0.842
3504.65	0.8446
3513.94	0.8486
3523.24	0.855
3532.53	0.8653
3541.82	0.8783
3551.12	0.884
3560.41	0.9064
3569.71	0.924
3579	0.9374
3588.29	0.9467
3597.59	0.9393
3606.88	0.8806
3616.17	0.8035
3625.47	0.8727
3634.76	0.9624
3644.06	0.9919
3653.35	1.0042
3662.64	1.013
3671.94	1.016
3681.23	1.0215
3690.52	1.0255
3699.82	1.028
3709.11	1.031
3718.4	1.0346
3727.7	1.036
3736.99	1.037
3746.29	1.039
3755.58	1.039
3764.87	1.039
3774.17	1.04
3783.46	1.04
3792.75	1.041
3802.05	1.041
3811.34	1.041
3820.64	1.041
3829.93	1.041
3839.22	1.041
3848.52	1.041
3857.81	1.0401
3867.1	1.04
3876.4	1.039
3885.69	1.037
3894.99	1.0361
3904.28	1.036
3913.57	1.035
3922.87	1.033
3932.16	1.0311
3941.45	1.03
3950.75	1.028
3960.04	1.026
3969.33	1.024
3978.63	1.023
3987.92	1.022
3997.22	1.019
