Infrared Spectrum: 1,3-DI-(10-CARBETHOXYDECYL) UREA
Formula: C27 H52 N2 O5
CAS: 116529-38-5
State: SOLID (KBr PRESSING)
Melting point: 100 C
Class: COBLENTZ
Instrument: Not specified, most likely a prism, grating, or hybrid spectrometer.
Sampling: TRANSMISSION
Resolution: 4
Origin: EASTMAN KODAK COMPANY, RESEARCH LABORATORIES, ROCHESTER, N.Y.
MICROMETERS	TRANSMITTANCE
2.203	0.718
2.23807	0.713
2.27314	0.706
2.30821	0.723
2.34329	0.721
2.37836	0.723
2.41343	0.728
2.4485	0.733
2.48357	0.74
2.51864	0.746
2.55371	0.749
2.58879	0.749
2.62386	0.751
2.65893	0.754
2.694	0.706
2.72907	0.726
2.76414	0.721
2.79921	0.685
2.83429	0.652
2.86936	0.619
2.90443	0.634
2.9395	0.586
2.97457	0.351
3.00964	0.398
3.04472	0.596
3.07979	0.674
3.11486	0.707
3.14993	0.721
3.185	0.732
3.22007	0.73
3.25514	0.74
3.29022	0.739
3.32529	0.681
3.36036	0.49
3.39543	0.44
3.4305	0.206
3.46557	0.464
3.50064	0.224
3.53572	0.709
3.57079	0.751
3.60586	0.768
3.64093	0.777
3.676	0.791
3.71107	0.787
3.74614	0.798
3.78122	0.794
3.81629	0.8
3.85136	0.808
3.88643	0.808
3.9215	0.815
3.95657	0.815
3.99164	0.819
4.02672	0.819
4.06179	0.824
4.09686	0.826
4.13193	0.822
4.167	0.824
4.20207	0.826
4.23714	0.827
4.27222	0.829
4.30729	0.829
4.34236	0.829
4.37743	0.833
4.4125	0.833
4.44757	0.827
4.48265	0.829
4.51772	0.829
4.55279	0.831
4.58786	0.834
4.62293	0.833
4.658	0.838
4.69307	0.836
4.72815	0.836
4.76322	0.848
4.79829	0.829
4.83336	0.831
4.86843	0.833
4.9035	0.827
4.93857	0.827
4.97365	0.827
5.00872	0.845
5.04379	0.84
5.07886	0.834
5.11393	0.827
5.149	0.834
5.18407	0.834
5.21915	0.834
5.25422	0.836
5.28929	0.834
5.32436	0.834
5.35943	0.834
5.3945	0.829
5.42957	0.829
5.46465	0.827
5.49972	0.827
5.53479	0.822
5.56986	0.819
5.60493	0.8
5.64	0.78
5.67508	0.739
5.71015	0.648
5.74522	0.427
5.78029	0.113
5.81536	0.229
5.85043	0.492
5.8855	0.678
5.92058	0.73
5.95565	0.753
5.99072	0.732
6.02579	0.728
6.06086	0.709
6.09593	0.631
6.131	0.504
6.16608	0.259
6.20115	0.066
6.23622	0.356
6.27129	0.314
6.30636	0.158
6.34143	0.189
6.3765	0.344
6.41158	0.513
6.44665	0.676
6.48172	0.699
6.51679	0.73
6.55186	0.73
6.58693	0.718
6.622	0.709
6.65708	0.72
6.69215	0.733
6.72722	0.693
6.76229	0.495
6.79736	0.504
6.83243	0.426
6.8675	0.56
6.90258	0.676
6.93765	0.68
6.97272	0.713
7.00779	0.695
7.04286	0.662
7.07793	0.7
7.11301	0.732
7.14808	0.711
7.18315	0.681
7.21822	0.624
7.25329	0.516
7.28836	0.558
7.32343	0.619
7.35851	0.73
7.39358	0.714
7.42865	0.725
7.46372	0.695
7.49879	0.513
7.53386	0.634
7.56893	0.73
7.60401	0.718
7.63908	0.648
7.67415	0.617
7.70922	0.638
7.74429	0.653
7.77936	0.619
7.81443	0.521
7.84951	0.328
7.88458	0.422
7.91965	0.629
7.95472	0.681
7.98979	0.692
8.02486	0.659
8.05993	0.594
8.09501	0.506
8.13008	0.394
8.16515	0.36
8.20022	0.481
8.23529	0.532
8.27036	0.474
8.30543	0.391
8.34051	0.474
8.37558	0.556
8.41065	0.434
8.44572	0.25
8.48079	0.206
8.51586	0.293
8.55094	0.408
8.58601	0.44
8.62108	0.506
8.65615	0.575
8.69122	0.646
8.72629	0.699
8.76136	0.723
8.79644	0.747
8.83151	0.749
8.86658	0.732
8.90165	0.697
8.93672	0.652
8.97179	0.641
9.00686	0.655
9.04194	0.657
9.07701	0.657
9.11208	0.69
9.14715	0.73
9.18222	0.749
9.21729	0.758
9.25236	0.739
9.28744	0.707
9.32251	0.709
9.35758	0.728
9.39265	0.73
9.42772	0.746
9.46279	0.76
9.49786	0.758
9.53294	0.711
9.56801	0.652
9.60308	0.664
9.63815	0.685
9.67322	0.683
9.70829	0.662
9.74336	0.681
9.77844	0.73
9.81351	0.754
9.84858	0.773
9.88365	0.796
9.91872	0.812
9.95379	0.826
9.98887	0.824
10.0239	0.82
10.059	0.829
10.0941	0.831
10.1292	0.829
10.1642	0.826
10.1993	0.826
10.2344	0.84
10.2694	0.845
10.3045	0.843
10.3396	0.846
10.3747	0.836
10.4097	0.84
10.4448	0.848
10.4799	0.845
10.5149	0.843
10.55	0.841
10.5851	0.84
10.6202	0.834
10.6552	0.838
10.6903	0.826
10.7254	0.822
10.7604	0.822
10.7955	0.826
10.8306	0.831
10.8657	0.829
10.9007	0.824
10.9358	0.827
10.9709	0.834
11.0059	0.852
11.041	0.852
11.0761	0.852
11.1112	0.855
11.1462	0.86
11.1813	0.862
11.2164	0.867
11.2514	0.867
11.2865	0.869
11.3216	0.864
11.3567	0.86
11.3917	0.86
11.4268	0.86
11.4619	0.848
11.4969	0.824
11.532	0.81
11.5671	0.803
11.6022	0.8
11.6372	0.805
11.6723	0.834
11.7074	0.841
11.7424	0.852
11.7775	0.86
11.8126	0.846
11.8477	0.848
11.8827	0.855
11.9178	0.859
11.9529	0.869
11.9879	0.871
12.023	0.874
12.0581	0.871
12.0932	0.871
12.1282	0.866
12.1633	0.871
12.1984	0.867
12.2334	0.864
12.2685	0.866
12.3036	0.866
12.3387	0.862
12.3737	0.859
12.4088	0.852
12.4439	0.848
12.4789	0.84
12.514	0.836
12.5491	0.84
12.5842	0.853
12.6192	0.862
12.6543	0.862
12.6894	0.862
12.7244	0.86
12.7595	0.86
12.7946	0.853
12.8297	0.82
12.8647	0.806
12.8998	0.838
12.9349	0.852
12.9699	0.852
13.005	0.852
13.0401	0.852
13.0752	0.852
13.1102	0.852
13.1453	0.855
13.1804	0.855
13.2154	0.853
13.2505	0.853
13.2856	0.852
13.3207	0.85
13.3557	0.84
13.3908	0.827
13.4259	0.793
13.4609	0.77
13.496	0.763
13.5311	0.782
13.5662	0.798
13.6012	0.801
13.6363	0.789
13.6714	0.772
13.7064	0.742
13.7415	0.706
13.7766	0.686
13.8117	0.695
13.8467	0.749
13.8818	0.784
13.9169	0.8
13.9519	0.805
13.987	0.806
14.0221	0.81
14.0572	0.812
14.0922	0.812
14.1273	0.806
14.1624	0.806
14.1974	0.8
14.2325	0.791
14.2676	0.791
14.3027	0.786
14.3377	0.78
14.3728	0.78
14.4079	0.782
14.4429	0.784
14.478	0.798
14.5131	0.786
14.5482	0.786
14.5832	0.786
14.6183	0.784
14.6534	0.784
14.6884	0.782
14.7235	0.784
14.7586	0.779
14.7937	0.777
14.8287	0.775
14.8638	0.779
14.8989	0.773
14.9339	0.765
14.969	0.749
15.0041	0.779
15.0392	0.775
15.0742	0.772
15.1093	0.761
15.1444	0.756
15.1794	0.753
15.2145	0.753
15.2496	0.747
15.2847	0.742
15.3197	0.737
15.3548	0.732
15.3899	0.732
15.4249	0.725
15.46	0.723
15.4951	0.716
15.5302	0.713
15.5652	0.713
15.6003	0.713
15.6354	0.709
15.6704	0.7
15.7055	0.697
15.7406	0.695
15.7757	0.693
15.8107	0.693
15.8458	0.693
15.8809	0.693
15.9159	0.688
15.951	0.681
15.9861	0.68
