Infrared Spectrum: 4-NITRO-3-CHLOROMERCURI-O-CRESOL
Formula: C7 H6 Cl N O3 Hg
CAS: 116529-34-1
State: SOLID (NUJOL MULL)
Class: COBLENTZ
Instrument: Not specified, most likely a prism, grating, or hybrid spectrometer.
Sampling: TRANSMISSION
Resolution: 4
MICROMETERS	TRANSMITTANCE
1.979	0.508
2.01464	0.513
2.05027	0.522
2.08591	0.531
2.12154	0.541
2.15718	0.548
2.19281	0.56
2.22845	0.576
2.26408	0.578
2.29972	0.574
2.33535	0.578
2.37099	0.59
2.40662	0.599
2.44226	0.608
2.47789	0.618
2.51353	0.627
2.54916	0.635
2.5848	0.644
2.62043	0.649
2.65607	0.653
2.6917	0.658
2.72734	0.668
2.76297	0.675
2.79861	0.686
2.83424	0.524
2.86988	0.482
2.90551	0.594
2.94115	0.621
2.97678	0.646
3.01242	0.656
3.04805	0.67
3.08369	0.672
3.11932	0.672
3.15496	0.668
3.19059	0.644
3.22623	0.644
3.26186	0.646
3.2975	0.602
3.33313	0.404
3.36877	0.163
3.4044	0.038
3.44004	0.027
3.47567	0.043
3.51131	0.156
3.54694	0.59
3.58258	0.696
3.61821	0.726
3.65385	0.724
3.68948	0.731
3.72512	0.74
3.76075	0.743
3.79639	0.752
3.83202	0.764
3.86766	0.771
3.90329	0.778
3.93893	0.785
3.97457	0.792
4.0102	0.797
4.04584	0.799
4.08147	0.801
4.11711	0.801
4.15274	0.804
4.18838	0.806
4.22401	0.808
4.25965	0.81
4.29528	0.811
4.33092	0.815
4.36655	0.82
4.40219	0.822
4.43782	0.825
4.47346	0.831
4.50909	0.834
4.54473	0.837
4.58036	0.841
4.616	0.841
4.65163	0.843
4.68727	0.848
4.7229	0.851
4.75854	0.851
4.79417	0.846
4.82981	0.853
4.86544	0.857
4.90108	0.858
4.93671	0.853
4.97235	0.857
5.00798	0.86
5.04362	0.86
5.07925	0.865
5.11489	0.864
5.15052	0.864
5.18616	0.86
5.22179	0.862
5.25743	0.865
5.29306	0.865
5.3287	0.867
5.36433	0.871
5.39997	0.874
5.4356	0.872
5.47124	0.871
5.50687	0.874
5.54251	0.872
5.57814	0.874
5.61378	0.879
5.64941	0.876
5.68505	0.879
5.72068	0.881
5.75632	0.885
5.79195	0.885
5.82759	0.876
5.86323	0.867
5.89886	0.862
5.9345	0.855
5.97013	0.848
6.00577	0.858
6.0414	0.864
6.07704	0.865
6.11267	0.869
6.14831	0.869
6.18394	0.865
6.21958	0.86
6.25521	0.839
6.29085	0.785
6.32648	0.81
6.36212	0.832
6.39775	0.844
6.43339	0.853
6.46902	0.848
6.50466	0.817
6.54029	0.733
6.57593	0.536
6.61156	0.292
6.6472	0.238
6.68283	0.398
6.71847	0.595
6.7541	0.644
6.78974	0.56
6.82537	0.331
6.86101	0.27
6.89664	0.303
6.93228	0.324
6.96791	0.51
7.00355	0.679
7.03918	0.754
7.07482	0.757
7.11045	0.78
7.14609	0.808
7.18172	0.804
7.21736	0.707
7.25299	0.519
7.28863	0.391
7.32426	0.587
7.3599	0.655
7.39553	0.696
7.43117	0.644
7.4668	0.449
7.50244	0.334
7.53807	0.39
7.57371	0.4
7.60934	0.442
7.64498	0.534
7.68061	0.559
7.71625	0.527
7.75188	0.642
7.78752	0.707
7.82316	0.733
7.85879	0.733
7.89443	0.714
7.93006	0.613
7.9657	0.719
8.00133	0.759
8.03697	0.764
8.0726	0.761
8.10824	0.733
8.14387	0.595
8.17951	0.447
8.21514	0.44
8.25078	0.466
8.28641	0.606
8.32205	0.702
8.35768	0.665
8.39332	0.702
8.42895	0.759
8.46459	0.778
8.50022	0.771
8.53586	0.777
8.57149	0.777
8.60713	0.787
8.64276	0.78
8.6784	0.759
8.71403	0.672
8.74967	0.637
8.7853	0.71
8.82094	0.754
8.85657	0.754
8.89221	0.712
8.92784	0.702
8.96348	0.754
8.99911	0.785
9.03475	0.794
9.07038	0.808
9.10602	0.813
9.14165	0.818
9.17729	0.822
9.21292	0.827
9.24856	0.822
9.28419	0.829
9.31983	0.836
9.35546	0.834
9.3911	0.843
9.42673	0.843
9.46237	0.843
9.498	0.836
9.53364	0.836
9.56927	0.836
9.60491	0.836
9.64054	0.832
9.67618	0.818
9.71182	0.799
9.74745	0.815
9.78309	0.827
9.81872	0.834
9.85436	0.834
9.88999	0.834
9.92563	0.831
9.96126	0.815
9.9969	0.834
10.0325	0.832
10.0682	0.834
10.1038	0.831
10.1394	0.831
10.1751	0.834
10.2107	0.832
10.2463	0.834
10.282	0.834
10.3176	0.834
10.3532	0.832
10.3889	0.824
10.4245	0.82
10.4602	0.818
10.4958	0.794
10.5314	0.747
10.5671	0.695
10.6027	0.717
10.6383	0.747
10.674	0.775
10.7096	0.792
10.7452	0.818
10.7809	0.825
10.8165	0.831
10.8521	0.832
10.8878	0.832
10.9234	0.837
10.959	0.841
10.9947	0.844
11.0303	0.85
11.0659	0.844
11.1016	0.843
11.1372	0.843
11.1729	0.832
11.2085	0.836
11.2441	0.836
11.2798	0.834
11.3154	0.837
11.351	0.85
11.3867	0.851
11.4223	0.85
11.4579	0.848
11.4936	0.85
11.5292	0.843
11.5648	0.846
11.6005	0.851
11.6361	0.853
11.6717	0.85
11.7074	0.848
11.743	0.841
11.7787	0.832
11.8143	0.824
11.8499	0.785
11.8856	0.644
11.9212	0.513
11.9568	0.628
11.9925	0.77
12.0281	0.801
12.0637	0.811
12.0994	0.815
12.135	0.787
12.1706	0.724
12.2063	0.698
12.2419	0.667
12.2775	0.614
12.3132	0.635
12.3488	0.709
12.3844	0.764
12.4201	0.797
12.4557	0.806
12.4914	0.822
12.527	0.829
12.5626	0.832
12.5983	0.834
12.6339	0.836
12.6695	0.839
12.7052	0.843
12.7408	0.841
12.7764	0.841
12.8121	0.839
12.8477	0.832
12.8833	0.832
12.919	0.832
12.9546	0.829
12.9902	0.825
13.0259	0.818
13.0615	0.82
13.0971	0.82
13.1328	0.82
13.1684	0.824
13.2041	0.815
13.2397	0.803
13.2753	0.7
13.311	0.601
13.3466	0.702
13.3822	0.761
13.4179	0.778
13.4535	0.785
13.4891	0.785
13.5248	0.782
13.5604	0.775
13.596	0.777
13.6317	0.78
13.6673	0.777
13.7029	0.771
13.7386	0.763
13.7742	0.761
13.8099	0.752
13.8455	0.724
13.8811	0.682
13.9168	0.677
13.9524	0.707
13.988	0.747
14.0237	0.766
14.0593	0.773
14.0949	0.785
14.1306	0.789
14.1662	0.794
14.2018	0.797
14.2375	0.801
14.2731	0.801
14.3087	0.801
14.3444	0.799
14.38	0.799
14.4156	0.797
14.4513	0.797
14.4869	0.797
14.5226	0.796
14.5582	0.794
14.5938	0.79
14.6295	0.787
14.6651	0.789
14.7007	0.787
14.7364	0.785
14.772	0.785
14.8076	0.783
14.8433	0.78
14.8789	0.773
14.9145	0.771
14.9502	0.77
14.9858	0.766
15.0214	0.757
15.0571	0.74
15.0927	0.736
15.1283	0.74
15.164	0.742
15.1996	0.742
15.2353	0.738
15.2709	0.742
15.3065	0.742
15.3422	0.736
15.3778	0.738
15.4134	0.728
15.4491	0.721
15.4847	0.696
