Infrared Spectrum: Cyclopentanecarboxylic acid, 3-carbamoyl-, methyl ester, cis-
Formula: C8 H13 N O3
CAS: 116595-43-8
State: SOLID (0.8 mg / 650 mg KBr DISC)
Class: COBLENTZ III
Instrument: PERKIN-ELMER 221 (GRATING)
Instrument parameters: FILTER AT 980 CM^-^1. GRATING 4000-1428 CM^-^1, NaCl PRISM 1428-650 CM^-^1
Sampling: TRANSMISSION
Resolution: 2
Origin: SOUTHERN RESEARCH INSTITUTE
1/CM	TRANSMITTANCE
611	0.7957
620	0.7863
629	0.7743
638	0.7615
647	0.7569
656	0.7587
665	0.7637
674	0.7722
683	0.7698
692	0.7626
701	0.7623
710	0.776
719	0.7809
728	0.7796
737	0.7774
746	0.7775
755	0.7779
764	0.7902
773	0.8179
782	0.8204
791	0.8203
800	0.8191
809	0.8166
818	0.8099
827	0.8013
836	0.8006
845	0.8153
854	0.8308
863	0.8334
872	0.8352
881	0.8465
890	0.8463
899	0.8466
908	0.8242
917	0.7794
926	0.782
935	0.8392
944	0.834
953	0.8273
962	0.8239
971	0.8255
980	0.8192
989	0.8028
998	0.7957
1007	0.7967
1016	0.7943
1025	0.7796
1034	0.7569
1043	0.7683
1052	0.7763
1061	0.7694
1070	0.762
1079	0.7627
1088	0.7788
1097	0.7823
1106	0.7798
1115	0.755
1124	0.7218
1133	0.6853
1142	0.6322
1151	0.5279
1160	0.4481
1169	0.4536
1178	0.5274
1187	0.5194
1196	0.4522
1205	0.431
1214	0.5591
1223	0.6472
1232	0.6949
1241	0.6793
1250	0.6442
1259	0.6727
1268	0.6704
1277	0.6658
1286	0.6675
1295	0.6773
1304	0.6807
1313	0.5976
1322	0.5171
1331	0.6902
1340	0.7129
1349	0.6634
1358	0.6119
1367	0.5942
1376	0.6813
1385	0.7001
1394	0.695
1403	0.6761
1412	0.5858
1421	0.4448
1430	0.4113
1439	0.5504
1448	0.5552
1457	0.6411
1466	0.6631
1475	0.7418
1484	0.7579
1493	0.7616
1502	0.7637
1511	0.7655
1520	0.7659
1529	0.7629
1538	0.7578
1547	0.7515
1556	0.7447
1565	0.732
1574	0.7086
1583	0.6785
1592	0.6302
1601	0.5675
1610	0.455
1619	0.3498
1628	0.2931
1637	0.303
1646	0.3204
1655	0.3271
1664	0.3978
1673	0.5185
1682	0.6105
1691	0.6485
1700	0.6497
1709	0.6301
1718	0.3916
1727	0.1827
1736	0.3827
1745	0.5941
1754	0.6516
1763	0.6939
1772	0.7231
1781	0.7434
1790	0.7582
1799	0.7691
1808	0.7785
1817	0.7871
1826	0.7942
1835	0.8007
1844	0.8053
1853	0.8094
1862	0.8124
1871	0.8153
1880	0.8179
1889	0.8192
1898	0.8194
1907	0.8197
1916	0.8199
1925	0.8202
1934	0.8203
1943	0.8208
1952	0.8237
1961	0.8267
1970	0.8291
1979	0.8304
1988	0.8305
1997	0.823
2006	0.8228
2015	0.8236
2024	0.8247
2033	0.8254
2042	0.8259
2051	0.8264
2060	0.8268
2069	0.8271
2078	0.827
2087	0.8269
2096	0.8271
2105	0.8278
2114	0.8284
2123	0.8292
2132	0.8299
2141	0.8308
2150	0.8319
2159	0.8327
2168	0.8332
2177	0.8337
2186	0.8342
2195	0.8346
2204	0.8343
2213	0.8341
2222	0.8338
2231	0.8328
2240	0.8323
2249	0.8322
2258	0.8321
2267	0.831
2276	0.83
2285	0.829
2294	0.8282
2303	0.828
2312	0.8284
2321	0.8294
2330	0.8292
2339	0.8288
2348	0.8285
2357	0.8282
2366	0.8281
2375	0.828
2384	0.8279
2393	0.8286
2402	0.8294
2411	0.8303
2420	0.8306
2429	0.831
2438	0.8314
2447	0.8317
2456	0.8319
2465	0.8322
2474	0.8325
2483	0.8319
2492	0.8313
2501	0.8306
2510	0.8302
2519	0.83
2528	0.8299
2537	0.8297
2546	0.8297
2555	0.8298
2564	0.8299
2573	0.8301
2582	0.8303
2591	0.8307
2600	0.8311
2609	0.8313
2618	0.8303
2627	0.8293
2636	0.8283
2645	0.8274
2654	0.8266
2663	0.8254
2672	0.8239
2681	0.8222
2690	0.8206
2699	0.8202
2708	0.8201
2717	0.8197
2726	0.8146
2735	0.8061
2744	0.8014
2753	0.7985
2762	0.7958
2771	0.7931
2780	0.7907
2789	0.7888
2798	0.788
2807	0.7876
2816	0.7884
2825	0.7884
2834	0.7815
2843	0.7753
2852	0.7591
2861	0.7375
2870	0.7452
2879	0.7539
2888	0.7477
2897	0.7389
2906	0.7261
2915	0.7084
2924	0.6887
2933	0.6644
2942	0.6341
2951	0.6197
2960	0.6131
2969	0.6426
2978	0.7451
2987	0.7577
2996	0.759
3005	0.7608
3014	0.7653
3023	0.7685
3032	0.7697
3041	0.7677
3050	0.7605
3059	0.7512
3068	0.7404
3077	0.727
3086	0.71
3095	0.6907
3104	0.6695
3113	0.6461
3122	0.6237
3131	0.5879
3140	0.5512
3149	0.5135
3158	0.4932
3167	0.4958
3176	0.5031
3185	0.5108
3194	0.5239
3203	0.5288
3212	0.5515
3221	0.5657
3230	0.5658
3239	0.5639
3248	0.5594
3257	0.5524
3266	0.5446
3275	0.5385
3284	0.5143
3293	0.4873
3302	0.4724
3311	0.4422
3320	0.4099
3329	0.3817
3338	0.3725
3347	0.3789
3356	0.3971
3365	0.4337
3374	0.4679
3383	0.5004
3392	0.5274
3401	0.5609
3410	0.5859
3419	0.5978
3428	0.607
3437	0.622
3446	0.6413
3455	0.6658
3464	0.6795
3473	0.6887
3482	0.6998
3491	0.7225
3500	0.7278
3509	0.7322
3518	0.7359
3527	0.7457
3536	0.7479
3545	0.7498
3554	0.7527
3563	0.764
3572	0.7754
3581	0.7773
3590	0.7792
3599	0.7904
3608	0.7985
3617	0.8032
3626	0.8055
3635	0.8095
3644	0.8128
3653	0.8151
3662	0.8172
3671	0.8188
3680	0.8204
3689	0.8215
3698	0.8218
3707	0.8221
3716	0.8225
3725	0.823
3734	0.8235
3743	0.8239
3752	0.8246
3761	0.8252
3770	0.8258
3779	0.8265
3788	0.8271
3797	0.8278
3806	0.8278
3815	0.8271
3824	0.8251
3833	0.8248
3842	0.8253
3851	0.8259
3860	0.8264
3869	0.8269
3878	0.8273
3887	0.8278
3896	0.828
3905	0.8281
3914	0.8281
3923	0.8281
3932	0.8277
3941	0.8273
3950	0.8271
3959	0.8273
3968	0.8276
3977	0.8281
3986	0.8286
3995	0.8293
