Infrared Spectrum: 3-DIETHYLAMINO-5,7-DIMETHYLOCTYNE-1
Formula: C14 H27 N
CAS: 116595-26-7
State: LIQUID
Class: COBLENTZ
Instrument: Not specified, most likely a prism, grating, or hybrid spectrometer.
Sampling: TRANSMISSION
Path length: 0.00125 CM
Resolution: 4
MICROMETERS	TRANSMITTANCE
2.022	0.894
2.05825	0.892
2.0945	0.892
2.13075	0.892
2.16701	0.892
2.20326	0.892
2.23951	0.887
2.27576	0.869
2.31201	0.853
2.34826	0.853
2.38451	0.858
2.42076	0.864
2.45702	0.867
2.49327	0.866
2.52952	0.867
2.56577	0.869
2.60202	0.875
2.63827	0.878
2.67452	0.88
2.71078	0.876
2.74703	0.873
2.78328	0.864
2.81953	0.85
2.85578	0.841
2.89203	0.825
2.92828	0.808
2.96453	0.785
3.00079	0.423
3.03704	0.557
3.07329	0.655
3.10954	0.71
3.14579	0.75
3.18204	0.775
3.21829	0.783
3.25455	0.78
3.2908	0.737
3.32705	0.357
3.3633	0.137
3.39955	0.057
3.4358	0.091
3.47205	0.141
3.50831	0.253
3.54456	0.442
3.58081	0.401
3.61706	0.562
3.65331	0.714
3.68956	0.757
3.72581	0.789
3.76206	0.805
3.79832	0.817
3.83457	0.819
3.87082	0.819
3.90707	0.817
3.94332	0.817
3.97957	0.819
4.01582	0.819
4.05208	0.825
4.08833	0.828
4.12458	0.835
4.16083	0.841
4.19708	0.848
4.23333	0.853
4.26958	0.866
4.30583	0.875
4.34209	0.871
4.37834	0.864
4.41459	0.86
4.45084	0.86
4.48709	0.858
4.52334	0.86
4.55959	0.86
4.59585	0.86
4.6321	0.862
4.66835	0.862
4.7046	0.862
4.74085	0.853
4.7771	0.841
4.81335	0.85
4.8496	0.851
4.88586	0.855
4.92211	0.855
4.95836	0.858
4.99461	0.857
5.03086	0.857
5.06711	0.857
5.10336	0.86
5.13962	0.857
5.17587	0.858
5.21212	0.857
5.24837	0.86
5.28462	0.86
5.32087	0.858
5.35712	0.848
5.39338	0.848
5.42963	0.855
5.46588	0.857
5.50213	0.857
5.53838	0.857
5.57463	0.853
5.61088	0.85
5.64713	0.846
5.68339	0.837
5.71964	0.81
5.75589	0.778
5.79214	0.708
5.82839	0.651
5.86464	0.65
5.90089	0.639
5.93715	0.603
5.9734	0.616
6.00965	0.637
6.0459	0.641
6.08215	0.646
6.1184	0.678
6.15465	0.705
6.1909	0.723
6.22716	0.739
6.26341	0.746
6.29966	0.751
6.33591	0.76
6.37216	0.764
6.40841	0.767
6.44466	0.769
6.48092	0.769
6.51717	0.769
6.55342	0.773
6.58967	0.776
6.62592	0.775
6.66217	0.764
6.69842	0.746
6.73467	0.716
6.77093	0.617
6.80718	0.435
6.84343	0.226
6.87968	0.196
6.91593	0.273
6.95218	0.394
6.98843	0.473
7.02469	0.642
7.06094	0.692
7.09719	0.691
7.13344	0.671
7.16969	0.682
7.20594	0.685
7.24219	0.619
7.27845	0.473
7.3147	0.558
7.35095	0.657
7.3872	0.66
7.42345	0.657
7.4597	0.642
7.49595	0.61
7.5322	0.632
7.56846	0.65
7.60471	0.653
7.64096	0.655
7.67721	0.66
7.71346	0.662
7.74971	0.655
7.78596	0.639
7.82222	0.619
7.85847	0.598
7.89472	0.571
7.93097	0.525
7.96722	0.457
8.00347	0.478
8.03972	0.521
8.07597	0.542
8.11223	0.551
8.14848	0.566
8.18473	0.637
8.22098	0.664
8.25723	0.666
8.29348	0.657
8.32973	0.653
8.36599	0.65
8.40224	0.61
8.43849	0.587
8.47474	0.548
8.51099	0.535
8.54724	0.626
8.58349	0.678
8.61974	0.675
8.656	0.587
8.69225	0.598
8.7285	0.651
8.76475	0.7
8.801	0.716
8.83725	0.719
8.8735	0.719
8.90976	0.714
8.94601	0.716
8.98226	0.726
9.01851	0.716
9.05476	0.705
9.09101	0.696
9.12726	0.701
9.16352	0.648
9.19977	0.68
9.23602	0.694
9.27227	0.698
9.30852	0.7
9.34477	0.692
9.38102	0.675
9.41727	0.646
9.45353	0.596
9.48978	0.507
9.52603	0.435
9.56228	0.389
9.59853	0.392
9.63478	0.341
9.67103	0.273
9.70729	0.28
9.74354	0.382
9.77979	0.491
9.81604	0.542
9.85229	0.583
9.88854	0.621
9.92479	0.653
9.96104	0.678
9.9973	0.687
10.0335	0.687
10.0698	0.685
10.1061	0.691
10.1423	0.705
10.1786	0.735
10.2148	0.751
10.2511	0.753
10.2873	0.753
10.3236	0.751
10.3598	0.751
10.3961	0.753
10.4323	0.751
10.4686	0.746
10.5048	0.737
10.5411	0.732
10.5773	0.733
10.6136	0.735
10.6498	0.733
10.6861	0.725
10.7223	0.717
10.7586	0.726
10.7948	0.746
10.8311	0.753
10.8673	0.748
10.9036	0.71
10.9398	0.651
10.9761	0.637
11.0123	0.646
11.0486	0.682
11.0848	0.71
11.1211	0.73
11.1573	0.742
11.1936	0.744
11.2298	0.75
11.2661	0.766
11.3023	0.782
11.3386	0.794
11.3748	0.8
11.4111	0.803
11.4473	0.803
11.4836	0.803
11.5199	0.807
11.5561	0.81
11.5924	0.814
11.6286	0.814
11.6649	0.814
11.7011	0.81
11.7374	0.803
11.7736	0.798
11.8099	0.783
11.8461	0.778
11.8824	0.773
11.9186	0.767
11.9549	0.748
11.9911	0.737
12.0274	0.733
12.0636	0.741
12.0999	0.766
12.1361	0.78
12.1724	0.792
12.2086	0.801
12.2449	0.812
12.2811	0.817
12.3174	0.816
12.3536	0.817
12.3899	0.817
12.4261	0.816
12.4624	0.812
12.4986	0.814
12.5349	0.812
12.5711	0.801
12.6074	0.787
12.6436	0.771
12.6799	0.751
12.7161	0.735
12.7524	0.725
12.7886	0.721
12.8249	0.723
12.8612	0.728
12.8974	0.73
12.9337	0.728
12.9699	0.719
13.0062	0.71
13.0424	0.703
13.0787	0.698
13.1149	0.696
13.1512	0.705
13.1874	0.726
13.2237	0.746
13.2599	0.757
13.2962	0.762
13.3324	0.76
13.3687	0.762
13.4049	0.76
13.4412	0.76
13.4774	0.757
13.5137	0.737
13.5499	0.71
13.5862	0.696
13.6224	0.682
13.6587	0.673
13.6949	0.658
13.7312	0.651
13.7674	0.644
13.8037	0.65
13.8399	0.667
13.8762	0.685
13.9124	0.705
13.9487	0.714
13.9849	0.717
14.0212	0.716
14.0574	0.714
14.0937	0.712
14.1299	0.71
14.1662	0.708
14.2025	0.705
14.2387	0.698
14.275	0.692
14.3112	0.687
14.3475	0.683
14.3837	0.673
14.42	0.657
14.4562	0.646
14.4925	0.641
14.5287	0.633
14.565	0.623
14.6012	0.621
14.6375	0.607
14.6737	0.598
14.71	0.594
14.7462	0.587
14.7825	0.567
14.8187	0.562
14.855	0.546
14.8912	0.537
14.9275	0.532
14.9637	0.528
15	0.514
15.0362	0.491
15.0725	0.473
15.1087	0.462
15.145	0.442
15.1812	0.428
15.2175	0.403
15.2537	0.394
15.29	0.373
15.3262	0.355
15.3625	0.326
15.3987	0.298
15.435	0.287
15.4712	0.267
