Infrared Spectrum: Urea, 1-benzyl-1-cyclopropyl-3-methyl-,
Formula: C12 H16 N2 O
CAS: 116502-58-0
State: SOLUTION 7% (CS2 FOR 7.5-15 microns, AND CCl4 FOR 2.5-7.5 microns)
Class: COBLENTZ III
Instrument: PERKIN-ELMER 21 (GRATING)
Instrument parameters: FILTER AT ABOUT 10 MICRONS
Path length: 0.01 CM
Resolution: 2
Origin: ABBOTT LABORATORIES
1/CM	TRANSMITTANCE
664	0.8534
673	0.841
682	0.8221
691	0.4514
700	0.4578
709	0.7508
718	0.6357
727	0.6422
736	0.673
745	0.6815
754	0.6444
763	0.5671
772	0.7685
781	0.847
790	0.816
799	0.7835
808	0.7842
817	0.7757
826	0.6712
835	0.8082
844	0.858
853	0.8742
862	0.8661
871	0.836
880	0.8114
889	0.8376
898	0.8426
907	0.8512
916	0.8418
925	0.8042
934	0.7658
943	0.7545
952	0.8654
961	0.885
970	0.8878
979	0.8893
988	0.8922
997	0.865
1006	0.8262
1015	0.7214
1024	0.4977
1033	0.8181
1042	0.7928
1051	0.7585
1060	0.8169
1069	0.7567
1078	0.8518
1087	0.8392
1096	0.7783
1105	0.8477
1114	0.8454
1123	0.8135
1132	0.7712
1141	0.7174
1150	0.7241
1159	0.7228
1168	0.7303
1177	0.7266
1186	0.7398
1195	0.7263
1204	0.6811
1213	0.4717
1222	0.498
1231	0.5994
1240	0.5802
1249	0.3753
1258	0.265
1267	0.3094
1276	0.3181
1285	0.4333
1294	0.5122
1303	0.5594
1312	0.6681
1321	0.6538
1330	0.6055
1339	0.4059
1348	0.3874
1357	0.5297
1366	0.489
1375	0.7504
1384	0.7617
1393	0.7005
1402	0.4923
1411	0.6308
1420	0.6438
1429	0.6085
1438	0.4746
1447	0.5449
1456	0.6123
1465	0.5768
1474	0.4774
1483	0.2795
1492	0.1848
1501	0.1074
1510	0.1284
1519	0.2099
1528	0.3845
1537	0.5569
1546	0.693
1555	0.715
1564	0.7506
1573	0.7572
1582	0.7676
1591	0.7323
1600	0.7398
1609	0.7106
1618	0.6228
1627	0.417
1636	0.2489
1645	0.0982
1654	0.0439
1663	0.1613
1672	0.5026
1681	0.6335
1690	0.7533
1699	0.7924
1708	0.8321
1717	0.8638
1726	0.8835
1735	0.8939
1744	0.8968
1753	0.8993
1762	0.9012
1771	0.9019
1780	0.9019
1789	0.9035
1798	0.9133
1807	0.9223
1816	0.9256
1825	0.9269
1834	0.925
1843	0.9215
1852	0.919
1861	0.9268
1870	0.9281
1879	0.9277
1888	0.9254
1897	0.9205
1906	0.9157
1915	0.9097
1924	0.9124
1933	0.9216
1942	0.9349
1951	0.9409
1960	0.9413
1969	0.9415
1978	0.9415
1987	0.9409
1996	0.9403
2005	0.939
2014	0.9379
2023	0.9364
2032	0.9347
2041	0.9338
2050	0.9329
2059	0.9331
2068	0.9337
2077	0.9351
2086	0.9398
2095	0.9428
2104	0.9428
2113	0.9426
2122	0.9424
2131	0.9423
2140	0.9423
2149	0.9421
2158	0.9418
2167	0.9416
2176	0.9414
2185	0.9412
2194	0.9409
2203	0.9413
2212	0.9417
2221	0.9428
2230	0.9443
2239	0.946
2248	0.9477
2257	0.9495
2266	0.9511
2275	0.9522
2284	0.9527
2293	0.9523
2302	0.9519
2311	0.9515
2320	0.9511
2329	0.9509
2338	0.9506
2347	0.9504
2356	0.9498
2365	0.949
2374	0.9481
2383	0.9472
2392	0.9463
2401	0.9457
2410	0.9453
2419	0.9461
2428	0.9466
2437	0.9456
2446	0.9445
2455	0.9435
2464	0.9428
2473	0.9421
2482	0.9414
2491	0.9407
2500	0.94
2509	0.9393
2518	0.9386
2527	0.938
2536	0.9379
2545	0.9382
2554	0.9387
2563	0.9396
2572	0.9407
2581	0.9421
2590	0.943
2599	0.943
2608	0.9428
2617	0.9425
2626	0.9422
2635	0.9418
2644	0.9414
2653	0.9409
2662	0.9396
2671	0.9382
2680	0.9367
2689	0.9331
2698	0.9283
2707	0.9229
2716	0.9155
2725	0.9024
2734	0.8894
2743	0.8749
2752	0.8652
2761	0.863
2770	0.8619
2779	0.8608
2788	0.8574
2797	0.8375
2806	0.812
2815	0.7865
2824	0.7613
2833	0.7363
2842	0.7113
2851	0.6908
2860	0.6744
2869	0.6606
2878	0.6537
2887	0.6538
2896	0.6564
2905	0.6715
2914	0.69
2923	0.7083
2932	0.7264
2941	0.7323
2950	0.7315
2959	0.7313
2968	0.7338
2977	0.7511
2986	0.7663
2995	0.7813
3004	0.7963
3013	0.8064
3022	0.815
3031	0.8262
3040	0.8455
3049	0.8743
3058	0.8986
3067	0.916
3076	0.9226
3085	0.9245
3094	0.9251
3103	0.9252
3112	0.9251
3121	0.9248
3130	0.9245
3139	0.9239
3148	0.9233
3157	0.9221
3166	0.9206
3175	0.918
3184	0.9137
3193	0.9089
3202	0.903
3211	0.8955
3220	0.8873
3229	0.8782
3238	0.8697
3247	0.8612
3256	0.8529
3265	0.8441
3274	0.8352
3283	0.8273
3292	0.8197
3301	0.8127
3310	0.8072
3319	0.8045
3328	0.804
3337	0.8041
3346	0.805
3355	0.8064
3364	0.8086
3373	0.7838
3382	0.7567
3391	0.7297
3400	0.7058
3409	0.702
3418	0.7121
3427	0.793
3436	0.8836
3445	0.9173
3454	0.9251
3463	0.9295
3472	0.9321
3481	0.9335
3490	0.934
3499	0.9344
3508	0.9347
3517	0.935
3526	0.9353
3535	0.9356
3544	0.936
3553	0.9363
3562	0.9365
3571	0.9365
3580	0.9365
3589	0.9368
3598	0.9372
3607	0.9375
3616	0.9379
3625	0.9384
3634	0.9389
3643	0.9393
3652	0.9397
3661	0.9402
3670	0.9405
3679	0.9407
3688	0.9409
3697	0.941
3706	0.9412
3715	0.9414
3724	0.9415
3733	0.9413
3742	0.9411
3751	0.9405
3760	0.94
3769	0.9395
3778	0.9388
3787	0.9382
3796	0.9376
3805	0.937
3814	0.9363
3823	0.9357
3832	0.9351
3841	0.9344
3850	0.9338
3859	0.9332
3868	0.9324
3877	0.9317
3886	0.9312
3895	0.9307
3904	0.9303
3913	0.9299
3922	0.9295
3931	0.9291
3940	0.9287
3949	0.9284
3958	0.9279
3967	0.9275
3976	0.9272
3985	0.9268
3994	0.9265
