Infrared Spectrum: 2,2'-AZO-1,3,4-THIADIAZOL-5-ONE
Formula: C4 H2 N6 O2 S2
CAS: 116529-21-6
State: SOLID (KBr PELLET)
Class: COBLENTZ
Instrument: Not specified, most likely a prism, grating, or hybrid spectrometer.
Sampling: TRANSMISSION
Resolution: 4
Origin: NORBERT PETRI
MICROMETERS	TRANSMITTANCE
2.018	0.407
2.05406	0.416
2.09012	0.429
2.12619	0.44
2.16225	0.452
2.19831	0.467
2.23437	0.476
2.27043	0.487
2.3065	0.498
2.34256	0.504
2.37862	0.521
2.41468	0.538
2.45074	0.553
2.48681	0.565
2.52287	0.577
2.55893	0.588
2.59499	0.593
2.63106	0.6
2.66712	0.619
2.70318	0.632
2.73924	0.645
2.7753	0.648
2.81137	0.627
2.84743	0.609
2.88349	0.6
2.91955	0.593
2.95561	0.599
2.99168	0.604
3.02774	0.568
3.0638	0.465
3.09986	0.302
3.13592	0.109
3.17199	0.035
3.20805	0.03
3.24411	0.062
3.28017	0.081
3.31623	0.15
3.3523	0.256
3.38836	0.347
3.42442	0.36
3.46048	0.384
3.49655	0.403
3.53261	0.4
3.56867	0.395
3.60473	0.457
3.64079	0.515
3.67686	0.569
3.71292	0.61
3.74898	0.636
3.78504	0.652
3.8211	0.661
3.85717	0.665
3.89323	0.678
3.92929	0.688
3.96535	0.693
4.00141	0.688
4.03748	0.692
4.07354	0.694
4.1096	0.689
4.14566	0.726
4.18172	0.74
4.21779	0.755
4.25385	0.753
4.28991	0.745
4.32597	0.745
4.36204	0.751
4.3981	0.753
4.43416	0.767
4.47022	0.801
4.50628	0.815
4.54235	0.818
4.57841	0.819
4.61447	0.828
4.65053	0.839
4.68659	0.846
4.72266	0.85
4.75872	0.856
4.79478	0.862
4.83084	0.869
4.8669	0.884
4.90297	0.886
4.93903	0.886
4.97509	0.889
5.01115	0.894
5.04721	0.894
5.08328	0.902
5.11934	0.908
5.1554	0.912
5.19146	0.917
5.22752	0.916
5.26359	0.917
5.29965	0.92
5.33571	0.927
5.37177	0.914
5.40784	0.899
5.4439	0.897
5.47996	0.902
5.51602	0.889
5.55208	0.907
5.58815	0.912
5.62421	0.902
5.66027	0.881
5.69633	0.838
5.73239	0.772
5.76846	0.711
5.80452	0.602
5.84058	0.392
5.87664	0.208
5.9127	0.048
5.94877	0.036
5.98483	0.03
6.02089	0.025
6.05695	0.025
6.09301	0.043
6.12908	0.1
6.16514	0.22
6.2012	0.352
6.23726	0.42
6.27333	0.478
6.30939	0.524
6.34545	0.546
6.38151	0.579
6.41757	0.597
6.45364	0.614
6.4897	0.625
6.52576	0.632
6.56182	0.549
6.59788	0.268
6.63395	0.143
6.67001	0.375
6.70607	0.501
6.74213	0.581
6.77819	0.615
6.81426	0.632
6.85032	0.643
6.88638	0.643
6.92244	0.625
6.9585	0.491
6.99457	0.332
7.03063	0.121
7.06669	0.086
7.10275	0.043
7.13882	0.047
7.17488	0.113
7.21094	0.208
7.247	0.306
7.28306	0.407
7.31913	0.474
7.35519	0.524
7.39125	0.57
7.42731	0.604
7.46337	0.62
7.49944	0.635
7.5355	0.642
7.57156	0.654
7.60762	0.67
7.64368	0.689
7.67975	0.698
7.71581	0.622
7.75187	0.412
7.78793	0.232
7.82399	0.198
7.86006	0.476
7.89612	0.635
7.93218	0.676
7.96824	0.682
8.0043	0.715
8.04037	0.748
8.07643	0.772
8.11249	0.784
8.14855	0.794
8.18462	0.8
8.22068	0.793
8.25674	0.771
8.2928	0.731
8.32886	0.611
8.36493	0.476
8.40099	0.339
8.43705	0.3
8.47311	0.29
8.50917	0.323
8.54524	0.346
8.5813	0.418
8.61736	0.532
8.65342	0.621
8.68948	0.699
8.72555	0.726
8.76161	0.751
8.79767	0.759
8.83373	0.732
8.86979	0.67
8.90586	0.57
8.94192	0.475
8.97798	0.388
9.01404	0.312
9.05011	0.221
9.08617	0.229
9.12223	0.371
9.15829	0.475
9.19435	0.554
9.23042	0.602
9.26648	0.656
9.30254	0.686
9.3386	0.703
9.37466	0.717
9.41073	0.738
9.44679	0.759
9.48285	0.777
9.51891	0.79
9.55497	0.801
9.59104	0.81
9.6271	0.818
9.66316	0.819
9.69922	0.823
9.73528	0.833
9.77135	0.835
9.80741	0.84
9.84347	0.849
9.87953	0.855
9.9156	0.856
9.95166	0.86
9.98772	0.867
10.0238	0.877
10.0598	0.883
10.0959	0.888
10.132	0.89
10.168	0.895
10.2041	0.897
10.2402	0.901
10.2762	0.905
10.3123	0.908
10.3483	0.913
10.3844	0.917
10.4205	0.919
10.4565	0.919
10.4926	0.922
10.5287	0.925
10.5647	0.928
10.6008	0.929
10.6368	0.93
10.6729	0.933
10.709	0.935
10.745	0.94
10.7811	0.94
10.8171	0.94
10.8532	0.942
10.8893	0.944
10.9253	0.944
10.9614	0.944
10.9975	0.944
11.0335	0.944
11.0696	0.945
11.1056	0.945
11.1417	0.945
11.1778	0.944
11.2138	0.944
11.2499	0.944
11.286	0.944
11.322	0.944
11.3581	0.941
11.3941	0.939
11.4302	0.935
11.4663	0.929
11.5023	0.927
11.5384	0.922
11.5745	0.919
11.6105	0.916
11.6466	0.913
11.6826	0.909
11.7187	0.909
11.7548	0.912
11.7908	0.914
11.8269	0.917
11.8629	0.919
11.899	0.92
11.9351	0.925
11.9711	0.924
12.0072	0.92
12.0433	0.919
12.0793	0.917
12.1154	0.914
12.1514	0.913
12.1875	0.908
12.2236	0.905
12.2596	0.899
12.2957	0.881
12.3318	0.861
12.3678	0.818
12.4039	0.737
12.4399	0.614
12.476	0.383
12.5121	0.244
12.5481	0.238
12.5842	0.332
12.6203	0.407
12.6563	0.457
12.6924	0.453
12.7284	0.391
12.7645	0.378
12.8006	0.43
12.8366	0.48
12.8727	0.504
12.9087	0.52
12.9448	0.529
12.9809	0.538
13.0169	0.541
13.053	0.545
13.0891	0.547
13.1251	0.546
13.1612	0.543
13.1972	0.545
13.2333	0.532
13.2694	0.527
13.3054	0.517
13.3415	0.512
13.3776	0.504
13.4136	0.498
13.4497	0.493
13.4857	0.489
13.5218	0.48
13.5579	0.473
13.5939	0.48
13.63	0.492
13.6661	0.518
13.7021	0.538
13.7382	0.564
13.7742	0.581
13.8103	0.602
13.8464	0.621
13.8824	0.637
13.9185	0.66
13.9545	0.684
13.9906	0.7
14.0267	0.715
14.0627	0.732
14.0988	0.746
14.1349	0.762
14.1709	0.768
14.207	0.772
14.243	0.778
14.2791	0.783
14.3152	0.788
14.3512	0.787
14.3873	0.784
14.4234	0.781
14.4594	0.783
14.4955	0.783
14.5315	0.784
14.5676	0.784
14.6037	0.783
14.6397	0.778
14.6758	0.766
14.7119	0.746
14.7479	0.727
14.784	0.695
14.82	0.665
14.8561	0.626
14.8922	0.593
14.9282	0.553
14.9643	0.484
15.0003	0.324
15.0364	0.265
15.0725	0.27
15.1085	0.368
15.1446	0.5
15.1807	0.588
15.2167	0.65
15.2528	0.697
15.2888	0.731
15.3249	0.749
15.361	0.757
