Infrared Spectrum: 1,4-Piperazinedicarboxamide, 2-methyl-,
Formula: C7 H14 N4 O2
CAS: 116594-99-1
State: SOLID (OIL MULL)
Class: COBLENTZ III
Instrument: BAIRD (GRATING)
Instrument parameters: NaCl PRISM
Resolution: 2
Origin: WYANDOTTE CHEMICALS CORP.
1/CM	TRANSMITTANCE
626	0.6335
635	0.6565
644	0.6818
653	0.7058
662	0.7172
671	0.7089
680	0.6539
689	0.6524
698	0.6801
707	0.6273
716	0.5548
725	0.4985
734	0.536
743	0.6094
752	0.6731
761	0.7248
770	0.6143
779	0.3951
788	0.4524
797	0.6844
806	0.7512
815	0.7771
824	0.7955
833	0.8067
842	0.819
851	0.8271
860	0.8291
869	0.8276
878	0.7714
887	0.8273
896	0.7867
905	0.6614
914	0.82
923	0.8242
932	0.8039
941	0.7191
950	0.6922
959	0.781
968	0.781
977	0.7618
986	0.7567
995	0.7557
1004	0.7116
1013	0.6496
1022	0.5078
1031	0.0939
1040	0.2907
1049	0.5383
1058	0.5893
1067	0.6405
1076	0.6081
1085	0.5147
1094	0.3994
1103	0.2824
1112	0.3007
1121	0.1829
1130	0.3657
1139	0.4771
1148	0.2397
1157	0.1843
1166	0.3232
1175	0.4253
1184	0.4644
1193	0.4304
1202	0.3873
1211	0.4386
1220	0.4448
1229	0.4236
1238	0.3788
1247	0.2809
1256	0.2778
1265	0.4587
1274	0.4591
1283	0.3258
1292	0.2026
1301	0.2842
1310	0.1912
1319	0.1318
1328	0.3615
1337	0.3575
1346	0.448
1355	0.2401
1364	0.3808
1373	0.4312
1382	0.2454
1391	0.2015
1400	0.2908
1409	0.25
1418	0.2442
1427	0.164
1436	0.077
1445	0.0394
1454	0.034
1463	0.0342
1472	0.0359
1481	0.0403
1490	0.0466
1499	0.0397
1508	0.0403
1517	0.0661
1526	0.1509
1535	0.2473
1544	0.288
1553	0.2922
1562	0.2664
1571	0.2398
1580	0.2014
1589	0.1521
1598	0.0946
1607	0.0381
1616	0.0341
1625	0.036
1634	0.0798
1643	0.1185
1652	0.1116
1661	0.0784
1670	0.0483
1679	0.05
1688	0.0785
1697	0.2107
1706	0.3658
1715	0.481
1724	0.5408
1733	0.6164
1742	0.6621
1751	0.7438
1760	0.8108
1769	0.8609
1778	0.8721
1787	0.8902
1796	0.9041
1805	0.9154
1814	0.9271
1823	0.9385
1832	0.9489
1841	0.956
1850	0.9593
1859	0.9627
1868	0.9637
1877	0.9582
1886	0.9569
1895	0.9614
1904	0.9728
1913	0.9741
1922	0.9691
1931	0.9682
1940	0.973
1949	0.9787
1958	0.98
1967	0.9794
1976	0.9773
1985	0.9743
1994	0.9724
2003	0.9759
2012	0.98
2021	0.9793
2030	0.976
2039	0.9704
2048	0.9633
2057	0.9545
2066	0.9468
2075	0.9389
2084	0.9304
2093	0.9266
2102	0.929
2111	0.9373
2120	0.9491
2129	0.9492
2138	0.9461
2147	0.9406
2156	0.9342
2165	0.9274
2174	0.9202
2183	0.9148
2192	0.9098
2201	0.9075
2210	0.9053
2219	0.9042
2228	0.9041
2237	0.9052
2246	0.9066
2255	0.9094
2264	0.9137
2273	0.9166
2282	0.9162
2291	0.9135
2300	0.9102
2309	0.9057
2318	0.9012
2327	0.8964
2336	0.8912
2345	0.8863
2354	0.8829
2363	0.886
2372	0.8933
2381	0.8947
2390	0.8913
2399	0.8855
2408	0.8841
2417	0.884
2426	0.8843
2435	0.8847
2444	0.8852
2453	0.8853
2462	0.885
2471	0.8845
2480	0.8835
2489	0.8825
2498	0.8815
2507	0.8803
2516	0.8787
2525	0.8771
2534	0.8755
2543	0.8738
2552	0.8721
2561	0.8703
2570	0.8656
2579	0.8604
2588	0.8555
2597	0.8507
2606	0.846
2615	0.842
2624	0.8379
2633	0.8337
2642	0.8294
2651	0.8251
2660	0.8208
2669	0.8135
2678	0.8051
2687	0.795
2696	0.7846
2705	0.7729
2714	0.7585
2723	0.7432
2732	0.7239
2741	0.7049
2750	0.6902
2759	0.6907
2768	0.6939
2777	0.7001
2786	0.7002
2795	0.6957
2804	0.6779
2813	0.6544
2822	0.6182
2831	0.4942
2840	0.2724
2849	0.13
2858	0.1308
2867	0.1343
2876	0.131
2885	0.1227
2894	0.1105
2903	0.0919
2912	0.0646
2921	0.0633
2930	0.0644
2939	0.067
2948	0.0738
2957	0.0843
2966	0.0986
2975	0.1468
2984	0.2045
2993	0.2618
3002	0.3188
3011	0.3754
3020	0.4317
3029	0.4809
3038	0.4892
3047	0.4873
3056	0.4618
3065	0.4232
3074	0.3848
3083	0.3467
3092	0.3088
3101	0.2711
3110	0.2337
3119	0.1964
3128	0.1594
3137	0.1226
3146	0.0905
3155	0.075
3164	0.0598
3173	0.0483
3182	0.0436
3191	0.043
3200	0.0572
3209	0.0802
3218	0.1031
3227	0.1259
3236	0.1485
3245	0.171
3254	0.1934
3263	0.2157
3272	0.2226
3281	0.2221
3290	0.1916
3299	0.1606
3308	0.1298
3317	0.0992
3326	0.0775
3335	0.0789
3344	0.0926
3353	0.144
3362	0.1951
3371	0.246
3380	0.2965
3389	0.3469
3398	0.3969
3407	0.4468
3416	0.4963
3425	0.5455
3434	0.5946
3443	0.6433
3452	0.6865
3461	0.7196
3470	0.7457
3479	0.7771
3488	0.8064
3497	0.8304
3506	0.8463
3515	0.8533
3524	0.8563
3533	0.8593
3542	0.8621
3551	0.8632
3560	0.8639
3569	0.8646
3578	0.865
3587	0.8651
3596	0.8651
3605	0.8651
3614	0.8648
3623	0.8646
3632	0.8643
3641	0.864
3650	0.8636
3659	0.8631
3668	0.8625
3677	0.862
3686	0.8615
3695	0.861
3704	0.8605
3713	0.86
3722	0.8596
3731	0.8591
3740	0.8586
3749	0.8581
3758	0.8571
3767	0.8561
3776	0.8551
3785	0.8541
3794	0.853
3803	0.8516
3812	0.8496
3821	0.8478
3830	0.8458
3839	0.8439
3848	0.8419
3857	0.84
3866	0.8379
3875	0.836
3884	0.8339
3893	0.832
3902	0.83
3911	0.828
3920	0.8259
3929	0.824
3938	0.8219
3947	0.8199
3956	0.8179
3965	0.816
3974	0.814
3983	0.812
3992	0.8101
