Infrared Spectrum: N-METHYL-o-FLUOROBENZYLIDENIMINE
Formula: C8 H8 F N
CAS: 116529-36-3
Class: COBLENTZ
Instrument: PERKIN-ELMER
Sampling: TRANSMISSION
Path length: CAPILLARY
Resolution: 4
Origin: ABBOTT LABORATORIES - WASHBURN
MICROMETERS	TRANSMITTANCE
2.513	0.87
2.54607	0.868
2.57914	0.868
2.61221	0.873
2.64528	0.8803
2.67835	0.882
2.71142	0.882
2.74449	0.8829
2.77756	0.8781
2.81063	0.878
2.8437	0.872
2.87677	0.8681
2.90984	0.8651
2.94291	0.8651
2.97598	0.863
3.00905	0.86
3.04212	0.838
3.07519	0.855
3.10826	0.857
3.14133	0.8519
3.1744	0.8332
3.20747	0.809
3.24054	0.7205
3.27361	0.714
3.30668	0.7335
3.33975	0.7448
3.37282	0.5621
3.40589	0.5165
3.43896	0.3503
3.47203	0.4419
3.5051	0.5595
3.53817	0.749
3.57124	0.7936
3.60431	0.6871
3.63738	0.7983
3.67045	0.8397
3.70352	0.8617
3.73659	0.877
3.76966	0.88
3.80273	0.8749
3.8358	0.8751
3.86887	0.8651
3.90193	0.865
3.935	0.873
3.96807	0.868
4.00114	0.873
4.03421	0.873
4.06728	0.8679
4.10035	0.8627
4.13342	0.868
4.16649	0.8618
4.19956	0.8671
4.23263	0.865
4.2657	0.8717
4.29877	0.8699
4.33184	0.873
4.36491	0.87
4.39798	0.8729
4.43105	0.873
4.46412	0.878
4.49719	0.878
4.53026	0.877
4.56333	0.8821
4.5964	0.8851
4.62947	0.89
4.66254	0.8832
4.69561	0.8751
4.72868	0.877
4.76175	0.873
4.79482	0.8751
4.82789	0.883
4.86096	0.883
4.89403	0.872
4.9271	0.87
4.96017	0.8799
4.99324	0.8619
5.02631	0.8618
5.05938	0.8634
5.09245	0.8522
5.12552	0.845
5.15859	0.849
5.19166	0.84
5.22473	0.8308
5.2578	0.855
5.29087	0.8722
5.32394	0.8553
5.35701	0.8735
5.39008	0.8749
5.42315	0.8625
5.45622	0.8535
5.48929	0.8473
5.52236	0.847
5.55543	0.8568
5.5885	0.8725
5.62157	0.872
5.65464	0.875
5.68771	0.8696
5.72078	0.858
5.75385	0.8548
5.78692	0.8321
5.81999	0.8221
5.85306	0.82
5.88613	0.8178
5.9192	0.8186
5.95227	0.7969
5.98534	0.6188
6.01841	0.3846
6.05148	0.144
6.08455	0.3535
6.11762	0.5684
6.15069	0.5019
6.18376	0.3136
6.21683	0.54
6.2499	0.7237
6.28297	0.6737
6.31604	0.3427
6.34911	0.5851
6.38218	0.7213
6.41525	0.7604
6.44832	0.797
6.48139	0.795
6.51446	0.7972
6.54753	0.7934
6.5806	0.759
6.61366	0.7521
6.64673	0.744
6.6798	0.6074
6.71287	0.3388
6.74594	0.2423
6.77901	0.4772
6.81208	0.3673
6.84515	0.138
6.87822	0.127
6.91129	0.2808
6.94436	0.4134
6.97743	0.4695
7.0105	0.5525
7.04357	0.6582
7.07664	0.6826
7.10971	0.6506
7.14278	0.458
7.17585	0.6349
7.20892	0.694
7.24199	0.665
7.27506	0.4695
7.30813	0.322
7.3412	0.5175
7.37427	0.7421
7.40734	0.7766
7.44041	0.797
7.47348	0.802
7.50655	0.808
7.53962	0.812
7.57269	0.8066
7.60576	0.7982
7.63883	0.7729
7.6719	0.6415
7.70497	0.3622
7.73804	0.5488
7.77111	0.6322
7.80418	0.3428
7.83725	0.345
7.87032	0.5727
7.90339	0.6439
7.93646	0.6965
7.96953	0.7128
8.0026	0.702
8.03567	0.6126
8.06874	0.3437
8.10181	0.1507
8.13488	0.1662
8.16795	0.3113
8.20102	0.4783
8.23409	0.5839
8.26716	0.6717
8.30023	0.6758
8.3333	0.5624
8.36637	0.5015
8.39944	0.5505
8.43251	0.6339
8.46558	0.5824
8.49865	0.5688
8.53172	0.6942
8.56479	0.7634
8.59786	0.7834
8.63093	0.792
8.664	0.7055
8.69707	0.5494
8.73014	0.6097
8.76321	0.7502
8.79628	0.7751
8.82935	0.7784
8.86242	0.7381
8.89549	0.7067
8.92856	0.7259
8.96163	0.757
8.9947	0.7563
9.02777	0.7091
9.06084	0.6337
9.09391	0.3038
9.12698	0.4115
9.16005	0.5696
9.19312	0.7297
9.22619	0.775
9.25926	0.7956
9.29233	0.8102
9.32539	0.822
9.35846	0.8279
9.39153	0.832
9.4246	0.8328
9.45767	0.8328
9.49074	0.83
9.52381	0.83
9.55688	0.8276
9.58995	0.825
9.62302	0.8166
9.65609	0.8008
9.68916	0.7262
9.72223	0.6961
9.7553	0.7161
9.78837	0.7679
9.82144	0.7798
9.85451	0.785
9.88758	0.7539
9.92065	0.6984
9.95372	0.493
9.98679	0.2543
10.0199	0.4184
10.0529	0.5647
10.086	0.6952
10.1191	0.7373
10.1521	0.76
10.1852	0.7749
10.2183	0.7867
10.2514	0.799
10.2844	0.803
10.3175	0.798
10.3506	0.753
10.3836	0.6621
10.4167	0.4968
10.4498	0.4407
10.4828	0.5133
10.5159	0.6437
10.549	0.7081
10.5821	0.7567
10.6151	0.7642
10.6482	0.7556
10.6813	0.7772
10.7143	0.8059
10.7474	0.8246
10.7805	0.8358
10.8135	0.8455
10.8466	0.8503
10.8797	0.858
10.9127	0.86
10.9458	0.862
10.9789	0.862
11.012	0.863
11.045	0.863
11.0781	0.865
11.1112	0.865
11.1442	0.8641
11.1773	0.8576
11.2104	0.847
11.2434	0.8295
11.2765	0.83
11.3096	0.833
11.3427	0.8321
11.3757	0.8236
11.4088	0.802
11.4419	0.7384
11.4749	0.6623
11.508	0.5982
11.5411	0.5822
11.5741	0.581
11.6072	0.5732
11.6403	0.5321
11.6734	0.501
11.7064	0.525
11.7395	0.5742
11.7726	0.6588
11.8056	0.7123
11.8387	0.7522
11.8718	0.7746
11.9048	0.791
11.9379	0.806
11.971	0.812
12.0041	0.812
12.0371	0.8118
12.0702	0.8049
12.1033	0.8
12.1363	0.799
12.1694	0.7948
12.2025	0.7904
12.2355	0.7778
12.2686	0.7273
12.3017	0.684
12.3348	0.5296
12.3678	0.2561
12.4009	0.1763
12.434	0.326
12.467	0.4721
12.5001	0.553
12.5332	0.6961
12.5662	0.74
12.5993	0.757
12.6324	0.77
12.6655	0.774
12.6985	0.772
12.7316	0.7636
12.7647	0.7396
12.7977	0.7213
12.8308	0.6787
12.8639	0.6262
12.8969	0.566
12.93	0.4594
12.9631	0.3624
12.9962	0.2511
13.0292	0.1592
13.0623	0.1147
13.0954	0.0766
13.1284	0.0572
13.1615	0.051
13.1946	0.0495
13.2276	0.0641
13.2607	0.1039
13.2938	0.2024
13.3269	0.3264
13.3599	0.431
13.393	0.5175
13.4261	0.5863
13.4591	0.6346
13.4922	0.6796
13.5253	0.7133
13.5583	0.7361
13.5914	0.758
13.6245	0.7706
13.6575	0.779
13.6906	0.789
13.7237	0.7939
13.7568	0.802
13.7898	0.807
13.8229	0.808
13.856	0.81
13.889	0.8125
13.9221	0.815
13.9552	0.8187
13.9882	0.822
14.0213	0.8195
14.0544	0.822
14.0875	0.822
14.1205	0.8186
14.1536	0.825
14.1867	0.825
14.2197	0.825
14.2528	0.825
14.2859	0.8209
14.3189	0.8257
14.352	0.8209
14.3851	0.8223
14.4182	0.817
14.4512	0.81
14.4843	0.81
14.5174	0.81
14.5504	0.812
14.5835	0.8123
14.6166	0.807
14.6496	0.8013
14.6827	0.794
14.7158	0.7911
14.7489	0.7863
14.7819	0.779
14.815	0.7716
14.8481	0.769
14.8811	0.769
14.9142	0.767
14.9473	0.765
14.9803	0.7729
