Infrared Spectrum: 1-(1-PYRROLIDINYL)-2,2-DIPHENYL-3-(ACETAMIDO)PROPANE
Formula: C21 H26 N2 O
CAS: 116595-09-6
State: SOLUTION (7% CHCl3)
Class: COBLENTZ
Instrument: Not specified, most likely a prism, grating, or hybrid spectrometer.
Sampling: TRANSMISSION
Path length: 0.010 CM
Resolution: 4
MICROMETERS	TRANSMITTANCE
2.039	0.978
2.07459	0.977
2.11018	0.973
2.14576	0.971
2.18135	0.97
2.21694	0.966
2.25253	0.955
2.28811	0.961
2.3237	0.961
2.35929	0.955
2.39488	0.954
2.43047	0.945
2.46605	0.945
2.50164	0.936
2.53723	0.943
2.57282	0.945
2.6084	0.95
2.64399	0.948
2.67958	0.95
2.71517	0.955
2.75076	0.941
2.78634	0.929
2.82193	0.945
2.85752	0.936
2.89311	0.913
2.92869	0.83
2.96428	0.839
2.99987	0.855
3.03546	0.841
3.07105	0.806
3.10663	0.779
3.14222	0.755
3.17781	0.75
3.2134	0.757
3.24899	0.75
3.28457	0.702
3.32016	0.691
3.35575	0.385
3.39134	0.397
3.42692	0.508
3.46251	0.6
3.4981	0.628
3.53369	0.677
3.56928	0.595
3.60486	0.628
3.64045	0.748
3.67604	0.809
3.71163	0.864
3.74721	0.878
3.7828	0.887
3.81839	0.896
3.85398	0.897
3.88957	0.903
3.92515	0.91
3.96074	0.911
3.99633	0.91
4.03192	0.906
4.0675	0.901
4.10309	0.896
4.13868	0.899
4.17427	0.908
4.20986	0.92
4.24544	0.922
4.28103	0.929
4.31662	0.929
4.35221	0.911
4.38779	0.901
4.42338	0.91
4.45897	0.917
4.49456	0.917
4.53015	0.913
4.56573	0.91
4.60132	0.919
4.63691	0.915
4.6725	0.913
4.70808	0.915
4.74367	0.919
4.77926	0.919
4.81485	0.917
4.85044	0.917
4.88602	0.917
4.92161	0.915
4.9572	0.911
4.99279	0.911
5.02838	0.908
5.06396	0.908
5.09955	0.899
5.13514	0.892
5.17073	0.883
5.20631	0.897
5.2419	0.904
5.27749	0.901
5.31308	0.896
5.34867	0.894
5.38425	0.894
5.41984	0.899
5.45543	0.906
5.49102	0.899
5.5266	0.892
5.56219	0.883
5.59778	0.89
5.63337	0.896
5.66896	0.896
5.70454	0.89
5.74013	0.89
5.77572	0.89
5.81131	0.887
5.84689	0.88
5.88248	0.866
5.91807	0.85
5.95366	0.67
5.98925	0.373
6.02483	0.251
6.06042	0.154
6.09601	0.188
6.1316	0.357
6.16718	0.526
6.20277	0.653
6.23836	0.704
6.27395	0.684
6.30954	0.744
6.34512	0.748
6.38071	0.744
6.4163	0.711
6.45189	0.646
6.48747	0.547
6.52306	0.438
6.55865	0.302
6.59424	0.26
6.62983	0.227
6.66541	0.246
6.701	0.271
6.73659	0.274
6.77218	0.461
6.80776	0.491
6.84335	0.475
6.87894	0.48
6.91453	0.514
6.95012	0.396
6.9857	0.535
7.02129	0.603
7.05688	0.644
7.09247	0.676
7.12806	0.709
7.16364	0.73
7.19923	0.734
7.23482	0.713
7.27041	0.677
7.30599	0.57
7.34158	0.561
7.37717	0.695
7.41276	0.72
7.44835	0.725
7.48393	0.748
7.51952	0.742
7.55511	0.705
7.5907	0.674
7.62628	0.654
7.66187	0.651
7.69746	0.684
7.73305	0.697
7.76864	0.665
7.80422	0.644
7.83981	0.626
7.8754	0.6
7.91099	0.58
7.94657	0.586
7.98216	0.609
8.01775	0.625
8.05334	0.625
8.08893	0.625
8.12451	0.623
8.1601	0.632
8.19569	0.642
8.23128	0.642
8.26686	0.642
8.30245	0.642
8.33804	0.646
8.37363	0.674
8.40922	0.713
8.4448	0.728
8.48039	0.744
8.51598	0.758
8.55157	0.769
8.58715	0.783
8.62274	0.792
8.65833	0.778
8.69392	0.76
8.72951	0.739
8.76509	0.704
8.80068	0.658
8.83627	0.642
8.87186	0.628
8.90745	0.6
8.94303	0.595
8.97862	0.607
9.01421	0.649
9.0498	0.674
9.08538	0.7
9.12097	0.753
9.15656	0.785
9.19215	0.801
9.22774	0.809
9.26332	0.818
9.29891	0.82
9.3345	0.799
9.37009	0.76
9.40567	0.765
9.44126	0.757
9.47685	0.737
9.51244	0.737
9.54803	0.778
9.58361	0.801
9.6192	0.816
9.65479	0.794
9.69038	0.723
9.72596	0.705
9.76155	0.683
9.79714	0.75
9.83273	0.795
9.86832	0.815
9.9039	0.823
9.93949	0.822
9.97508	0.82
10.0107	0.818
10.0463	0.825
10.0818	0.832
10.1174	0.822
10.153	0.806
10.1886	0.781
10.2242	0.776
10.2598	0.783
10.2954	0.794
10.331	0.811
10.3665	0.82
10.4021	0.832
10.4377	0.839
10.4733	0.85
10.5089	0.86
10.5445	0.866
10.5801	0.871
10.6157	0.873
10.6512	0.873
10.6868	0.875
10.7224	0.883
10.758	0.889
10.7936	0.887
10.8292	0.885
10.8648	0.867
10.9004	0.839
10.9359	0.818
10.9715	0.797
11.0071	0.786
11.0427	0.772
11.0783	0.788
11.1139	0.806
11.1495	0.811
11.1851	0.804
11.2207	0.799
11.2562	0.797
11.2918	0.786
11.3274	0.781
11.363	0.774
11.3986	0.779
11.4342	0.786
11.4698	0.794
11.5054	0.802
11.5409	0.806
11.5765	0.808
11.6121	0.806
11.6477	0.802
11.6833	0.806
11.7189	0.808
11.7545	0.822
11.7901	0.83
11.8256	0.832
11.8612	0.836
11.8968	0.841
11.9324	0.843
11.968	0.845
12.0036	0.85
12.0392	0.857
12.0748	0.86
12.1103	0.857
12.1459	0.857
12.1815	0.86
12.2171	0.869
12.2527	0.873
12.2883	0.871
12.3239	0.875
12.3595	0.889
12.395	0.899
12.4306	0.906
12.4662	0.911
12.5018	0.922
12.5374	0.929
12.573	0.933
12.6086	0.934
12.6442	0.931
12.6798	0.933
12.7153	0.929
12.7509	0.931
12.7865	0.933
12.8221	0.933
12.8577	0.927
12.8933	0.924
12.9289	0.926
12.9645	0.927
13	0.926
13.0356	0.927
13.0712	0.926
13.1068	0.927
13.1424	0.929
13.178	0.929
13.2136	0.927
13.2492	0.929
13.2847	0.931
13.3203	0.931
13.3559	0.929
13.3915	0.933
13.4271	0.938
13.4627	0.94
13.4983	0.938
13.5339	0.938
13.5694	0.94
13.605	0.941
13.6406	0.94
13.6762	0.94
13.7118	0.94
13.7474	0.94
13.783	0.94
13.8186	0.94
13.8541	0.934
13.8897	0.927
13.9253	0.917
13.9609	0.906
13.9965	0.897
14.0321	0.883
14.0677	0.853
14.1033	0.795
14.1389	0.661
14.1744	0.551
14.21	0.419
14.2456	0.297
14.2812	0.246
14.3168	0.237
14.3524	0.313
14.388	0.419
14.4236	0.542
14.4591	0.647
14.4947	0.705
14.5303	0.75
14.5659	0.783
14.6015	0.801
14.6371	0.811
14.6727	0.82
14.7083	0.829
14.7438	0.846
14.7794	0.86
14.815	0.869
14.8506	0.88
14.8862	0.885
14.9218	0.885
14.9574	0.887
14.993	0.887
15.0285	0.88
15.0641	0.839
15.0997	0.757
15.1353	0.73
15.1709	0.735
15.2065	0.755
15.2421	0.786
15.2777	0.806
15.3132	0.827
15.3488	0.846
15.3844	0.857
15.42	0.892
15.4556	0.857
