Infrared Spectrum: ISOBUTYRIC ACID, 1-(DIETHOXYPHOSPHINYL)-2-METHYLPROPENYL ESTER
Formula: C12 H23 O5 P
CAS: 116595-11-0
State: LIQUID
Boiling point: 95-98 C AT 0.6 mmHg
Class: COBLENTZ
Instrument: Not specified, most likely a prism, grating, or hybrid spectrometer.
Sampling: TRANSMISSION
Path length: SMEAR
Resolution: 4
Origin: TENNESSEE EASTMAN COMPANY, RESEARCH LABORATORIES
MICROMETERS	TRANSMITTANCE
2.197	0.923
2.23774	0.921
2.27848	0.914
2.31921	0.914
2.35995	0.914
2.40069	0.918
2.44143	0.919
2.48217	0.919
2.5229	0.923
2.56364	0.924
2.60438	0.926
2.64512	0.926
2.68586	0.933
2.72659	0.928
2.76733	0.912
2.80807	0.902
2.84881	0.889
2.88955	0.868
2.93028	0.872
2.97102	0.877
3.01176	0.885
3.0525	0.889
3.09324	0.897
3.13397	0.899
3.17471	0.902
3.21545	0.911
3.25619	0.906
3.29693	0.878
3.33766	0.638
3.3784	0.564
3.41914	0.532
3.45988	0.694
3.50062	0.827
3.54135	0.889
3.58209	0.916
3.62283	0.919
3.66357	0.919
3.70431	0.93
3.74504	0.943
3.78578	0.945
3.82652	0.948
3.86726	0.945
3.908	0.947
3.94873	0.948
3.98947	0.948
4.03021	0.95
4.07095	0.948
4.11169	0.948
4.15242	0.948
4.19316	0.952
4.2339	0.96
4.27464	0.95
4.31538	0.94
4.35611	0.94
4.39685	0.952
4.43759	0.95
4.47833	0.95
4.51907	0.952
4.5598	0.953
4.60054	0.953
4.64128	0.953
4.68202	0.955
4.72276	0.955
4.76349	0.957
4.80423	0.957
4.84497	0.957
4.88571	0.953
4.92645	0.953
4.96718	0.955
5.00792	0.962
5.04866	0.952
5.0894	0.952
5.13014	0.953
5.17087	0.953
5.21161	0.953
5.25235	0.953
5.29309	0.953
5.33383	0.948
5.37456	0.933
5.4153	0.924
5.45604	0.916
5.49678	0.902
5.53752	0.892
5.57825	0.858
5.61899	0.745
5.65973	0.416
5.70047	0.162
5.74121	0.484
5.78194	0.807
5.82268	0.827
5.86342	0.854
5.90416	0.863
5.9449	0.883
5.98563	0.88
6.02637	0.831
6.06711	0.747
6.10785	0.832
6.14859	0.875
6.18932	0.889
6.23006	0.904
6.2708	0.919
6.31154	0.919
6.35228	0.912
6.39301	0.911
6.43375	0.907
6.47449	0.892
6.51523	0.901
6.55597	0.882
6.5967	0.878
6.63744	0.866
6.67818	0.836
6.71892	0.718
6.75966	0.563
6.80039	0.576
6.84113	0.609
6.88187	0.593
6.92261	0.65
6.96335	0.755
7.00408	0.803
7.04482	0.822
7.08556	0.8
7.1263	0.709
7.16704	0.515
7.20777	0.592
7.24851	0.67
7.28925	0.592
7.32999	0.675
7.37073	0.752
7.41146	0.732
7.4522	0.745
7.49294	0.802
7.53368	0.82
7.57441	0.825
7.61515	0.822
7.65589	0.778
7.69663	0.703
7.73737	0.655
7.7781	0.612
7.81884	0.494
7.85958	0.249
7.90032	0.158
7.94106	0.238
7.98179	0.407
8.02253	0.484
8.06327	0.39
8.10401	0.433
8.14475	0.52
8.18548	0.614
8.22622	0.639
8.26696	0.639
8.3077	0.636
8.34844	0.631
8.38917	0.568
8.42991	0.513
8.47065	0.568
8.51139	0.505
8.55213	0.435
8.59286	0.433
8.6336	0.411
8.67434	0.29
8.71508	0.18
8.75582	0.124
8.79655	0.114
8.83729	0.114
8.87803	0.121
8.91877	0.151
8.95951	0.196
9.00024	0.233
9.04098	0.221
9.08172	0.209
9.12246	0.278
9.1632	0.348
9.20393	0.343
9.24467	0.302
9.28541	0.302
9.32615	0.322
9.36689	0.302
9.40762	0.238
9.44836	0.182
9.4891	0.151
9.52984	0.151
9.57058	0.151
9.61131	0.121
9.65205	0.09
9.69279	0.073
9.73353	0.069
9.77427	0.083
9.815	0.146
9.85574	0.259
9.89648	0.385
9.93722	0.493
9.97796	0.575
10.0187	0.6
10.0594	0.588
10.1002	0.511
10.1409	0.406
10.1816	0.278
10.2224	0.211
10.2631	0.18
10.3039	0.179
10.3446	0.199
10.3853	0.221
10.4261	0.252
10.4668	0.281
10.5076	0.313
10.5483	0.343
10.589	0.377
10.6298	0.424
10.6705	0.481
10.7112	0.568
10.752	0.643
10.7927	0.696
10.8335	0.749
10.8742	0.759
10.9149	0.759
10.9557	0.764
10.9964	0.793
11.0371	0.819
11.0779	0.824
11.1186	0.829
11.1594	0.834
11.2001	0.844
11.2408	0.86
11.2816	0.873
11.3223	0.883
11.363	0.885
11.4038	0.889
11.4445	0.89
11.4853	0.892
11.526	0.894
11.5667	0.895
11.6075	0.892
11.6482	0.87
11.689	0.851
11.7297	0.841
11.7704	0.851
11.8112	0.865
11.8519	0.882
11.8926	0.885
11.9334	0.889
11.9741	0.885
12.0149	0.878
12.0556	0.865
12.0963	0.848
12.1371	0.82
12.1778	0.781
12.2185	0.732
12.2593	0.703
12.3	0.689
12.3408	0.672
12.3815	0.643
12.4222	0.604
12.463	0.563
12.5037	0.537
12.5445	0.534
12.5852	0.547
12.6259	0.569
12.6667	0.59
12.7074	0.602
12.7481	0.605
12.7889	0.6
12.8296	0.592
12.8704	0.587
12.9111	0.581
12.9518	0.578
12.9926	0.58
13.0333	0.583
13.074	0.59
13.1148	0.598
13.1555	0.61
13.1963	0.629
13.237	0.65
13.2777	0.668
13.3185	0.696
13.3592	0.721
13.3999	0.749
13.4407	0.766
13.4814	0.786
13.5222	0.8
13.5629	0.812
13.6036	0.82
13.6444	0.827
13.6851	0.831
13.7259	0.832
13.7666	0.834
13.8073	0.836
13.8481	0.837
13.8888	0.837
13.9295	0.837
13.9703	0.837
14.011	0.837
14.0518	0.834
14.0925	0.831
14.1332	0.825
14.174	0.82
14.2147	0.813
14.2554	0.807
14.2962	0.8
14.3369	0.791
14.3777	0.784
14.4184	0.778
14.4591	0.774
14.4999	0.773
14.5406	0.771
14.5813	0.771
14.6221	0.776
14.6628	0.778
14.7036	0.778
14.7443	0.778
14.785	0.778
14.8258	0.778
14.8665	0.776
14.9073	0.771
14.948	0.767
14.9887	0.764
15.0295	0.761
15.0702	0.757
15.1109	0.752
15.1517	0.747
15.1924	0.742
15.2332	0.737
15.2739	0.726
15.3146	0.72
15.3554	0.716
15.3961	0.713
15.4368	0.708
15.4776	0.704
15.5183	0.703
15.5591	0.701
15.5998	0.699
15.6405	0.699
15.6813	0.696
15.722	0.694
15.7628	0.692
15.8035	0.692
15.8442	0.691
15.885	0.691
15.9257	0.689
15.9664	0.689
