Infrared Spectrum: Phenol, 2,6-dimethoxy-4-(5,5-dimethyl-2-oxazolin-2-yl)-
Formula: C13 H17 N O4
CAS: 116595-28-9
State: SOLID (SPLIT MULL)
Melting point: 201 C DECOMP.
Class: COBLENTZ III
Instrument: DOW KBr FOREPRISM-GRATING
Instrument parameters: BLAZED AT 3.5, 12.0, 20.0 MICRON AND CHANGED AT 5.0, 7.5, 14.9 MICRON
Sampling: TRANSMISSION
Resolution: 2
Origin: DOW CHEMICAL COMPANY
1/CM	TRANSMITTANCE
450	0.7708
459	0.7768
468	0.7861
477	0.8022
486	0.8215
495	0.8283
504	0.8258
513	0.808
522	0.6964
531	0.7688
540	0.7658
549	0.8504
558	0.863
567	0.8685
576	0.8675
585	0.8554
594	0.865
603	0.8744
612	0.8615
621	0.8231
630	0.8366
639	0.8823
648	0.8895
657	0.8824
666	0.7411
675	0.8634
684	0.8745
693	0.8637
702	0.8327
711	0.7415
720	0.2952
729	0.6883
738	0.6187
747	0.8192
756	0.7487
765	0.7872
774	0.7918
783	0.7825
792	0.7297
801	0.4856
810	0.6162
819	0.6928
828	0.6462
837	0.5849
846	0.4758
855	0.2448
864	0.6639
873	0.6491
882	0.5176
891	0.4347
900	0.4368
909	0.3414
918	0.6457
927	0.6482
936	0.6373
945	0.6085
954	0.597
963	0.5604
972	0.3503
981	0.5214
990	0.6223
999	0.6182
1008	0.5001
1017	0.2625
1026	0.3612
1035	0.4643
1044	0.5859
1053	0.6442
1062	0.634
1071	0.5977
1080	0.5247
1089	0.4064
1098	0.1502
1107	0.0709
1116	0.0164
1125	0.0521
1134	0.3396
1143	0.3214
1152	0.1013
1161	0.3606
1170	0.3832
1179	0.2935
1188	0.1091
1197	0.2119
1206	0.1162
1215	0.1511
1224	0.2115
1233	0.2019
1242	0.1144
1251	0.1067
1260	0.4003
1269	0.3768
1278	0.2409
1287	0.4319
1296	0.5176
1305	0.5189
1314	0.3629
1323	0.528
1332	0.4946
1341	0.3316
1350	0.1709
1359	0.0989
1368	0.0432
1377	0.0505
1386	0.3559
1395	0.6386
1404	0.6035
1413	0.4233
1422	0.0672
1431	0.4527
1440	0.5851
1449	0.4275
1458	0.197
1467	0.1633
1476	0.5059
1485	0.6978
1494	0.6467
1503	0.4352
1512	0.166
1521	0.1567
1530	0.7053
1539	0.7315
1548	0.6658
1557	0.585
1566	0.4481
1575	0.293
1584	0.1679
1593	0.2584
1602	0.2519
1611	0.6184
1620	0.5564
1629	0.2585
1638	0.144
1647	0.3616
1656	0.7348
1665	0.8292
1674	0.8624
1683	0.8607
1692	0.8483
1701	0.831
1710	0.823
1719	0.8317
1728	0.8288
1737	0.8178
1746	0.8103
1755	0.8044
1764	0.7986
1773	0.793
1782	0.7872
1791	0.7811
1800	0.7757
1809	0.7703
1818	0.7649
1827	0.7594
1836	0.7539
1845	0.7481
1854	0.7426
1863	0.7389
1872	0.7385
1881	0.7401
1890	0.7411
1899	0.7375
1908	0.7349
1917	0.7268
1926	0.718
1935	0.7081
1944	0.7103
1953	0.7195
1962	0.7251
1971	0.7225
1980	0.7196
1989	0.7176
1998	0.7185
2007	0.7155
2016	0.7046
2025	0.7019
2034	0.6971
2043	0.6915
2052	0.6878
2061	0.6843
2070	0.6807
2079	0.6761
2088	0.671
2097	0.666
2106	0.6611
2115	0.656
2124	0.6511
2133	0.6436
2142	0.64
2151	0.64
2160	0.6397
2169	0.636
2178	0.6301
2187	0.6238
2196	0.6168
2205	0.6102
2214	0.6039
2223	0.5977
2232	0.5915
2241	0.5848
2250	0.5782
2259	0.5712
2268	0.5599
2277	0.5481
2286	0.5365
2295	0.5281
2304	0.5203
2313	0.5131
2322	0.5075
2331	0.5017
2340	0.4965
2349	0.4915
2358	0.4866
2367	0.4805
2376	0.4692
2385	0.4638
2394	0.4592
2403	0.4542
2412	0.4493
2421	0.4443
2430	0.4388
2439	0.4327
2448	0.426
2457	0.4162
2466	0.4115
2475	0.4136
2484	0.4185
2493	0.4228
2502	0.4271
2511	0.4264
2520	0.4204
2529	0.4149
2538	0.4123
2547	0.4101
2556	0.4118
2565	0.4147
2574	0.411
2583	0.4073
2592	0.4038
2601	0.4
2610	0.396
2619	0.3929
2628	0.39
2637	0.3868
2646	0.3834
2655	0.379
2664	0.3743
2673	0.3688
2682	0.3634
2691	0.358
2700	0.3594
2709	0.3634
2718	0.3632
2727	0.3618
2736	0.3612
2745	0.3604
2754	0.3587
2763	0.3559
2772	0.3537
2781	0.3509
2790	0.3477
2799	0.3444
2808	0.3376
2817	0.3259
2826	0.3079
2835	0.2782
2844	0.2533
2853	0.2954
2862	0.2832
2871	0.2577
2880	0.2534
2889	0.2964
2898	0.2902
2907	0.2702
2916	0.2466
2925	0.2304
2934	0.2252
2943	0.255
2952	0.2875
2961	0.2231
2970	0.165
2979	0.2749
2988	0.3809
2997	0.2852
3006	0.4097
3015	0.4255
3024	0.4108
3033	0.4185
3042	0.4403
3051	0.446
3060	0.453
3069	0.4584
3078	0.4504
3087	0.413
3096	0.4118
3105	0.4654
3114	0.4798
3123	0.4912
3132	0.5084
3141	0.5155
3150	0.5195
3159	0.523
3168	0.5268
3177	0.5309
3186	0.5351
3195	0.5391
3204	0.5433
3213	0.5476
3222	0.5516
3231	0.5551
3240	0.5587
3249	0.5615
3258	0.5631
3267	0.5656
3276	0.57
3285	0.5728
3294	0.5743
3303	0.5745
3312	0.5745
3321	0.5737
3330	0.5725
3339	0.5712
3348	0.57
3357	0.5689
3366	0.5679
3375	0.5666
3384	0.565
3393	0.5632
3402	0.5616
3411	0.5599
3420	0.5582
3429	0.5565
3438	0.5544
3447	0.552
3456	0.5498
3465	0.5483
3474	0.5469
3483	0.5455
3492	0.5429
3501	0.5385
3510	0.5343
3519	0.5345
3528	0.5359
3537	0.5371
3546	0.5375
3555	0.5373
3564	0.5356
3573	0.5332
3582	0.5377
3591	0.5368
3600	0.5339
3609	0.5328
3618	0.5331
3627	0.5332
3636	0.5322
3645	0.5321
3654	0.532
3663	0.5318
3672	0.5317
3681	0.5266
3690	0.5246
3699	0.5247
3708	0.5244
3717	0.5237
3726	0.5228
3735	0.5217
3744	0.5201
3753	0.5182
3762	0.5157
3771	0.5134
3780	0.5121
3789	0.5106
3798	0.5088
