Infrared Spectrum: THIAZOLE, 5-ACETAMIDO-2-(METHYLSULFONYL)-
Formula: C6 H8 N2 O3 S2
CAS: 116529-24-9
State: SOLID (KBr PELLET)
Melting point: 186 C
Class: COBLENTZ
Instrument: Not specified, most likely a prism, grating, or hybrid spectrometer.
Sampling: TRANSMISSION
Resolution: 4
Origin: TENNESSEE EASTMAN COMPANY, RESEARCH LABORATORIES
MICROMETERS	TRANSMITTANCE
2.02	0.843
2.05987	0.848
2.09973	0.856
2.1396	0.861
2.17946	0.864
2.21933	0.864
2.25919	0.864
2.29906	0.871
2.33893	0.874
2.37879	0.879
2.41866	0.884
2.45852	0.888
2.49839	0.891
2.53826	0.893
2.57812	0.896
2.61799	0.899
2.65785	0.906
2.69772	0.908
2.73758	0.906
2.77745	0.893
2.81732	0.873
2.85718	0.859
2.89705	0.849
2.93691	0.838
2.97678	0.781
3.01665	0.572
3.05651	0.128
3.09638	0.131
3.13624	0.263
3.17611	0.535
3.21597	0.659
3.25584	0.393
3.29571	0.544
3.33557	0.565
3.37544	0.711
3.4153	0.674
3.45517	0.819
3.49504	0.816
3.5349	0.791
3.57477	0.834
3.61463	0.814
3.6545	0.873
3.69436	0.874
3.73423	0.881
3.7741	0.888
3.81396	0.909
3.85383	0.919
3.89369	0.923
3.93356	0.923
3.97342	0.921
4.01329	0.906
4.05316	0.913
4.09302	0.894
4.13289	0.891
4.17275	0.916
4.21262	0.921
4.25249	0.921
4.29235	0.921
4.33222	0.921
4.37208	0.923
4.41195	0.938
4.45181	0.924
4.49168	0.944
4.53155	0.948
4.57141	0.949
4.61128	0.956
4.65114	0.953
4.69101	0.948
4.73088	0.948
4.77074	0.949
4.81061	0.949
4.85047	0.953
4.89034	0.953
4.9302	0.956
4.97007	0.956
5.00994	0.959
5.0498	0.951
5.08967	0.951
5.12953	0.953
5.1694	0.953
5.20926	0.948
5.24913	0.958
5.289	0.958
5.32886	0.953
5.36873	0.951
5.40859	0.953
5.44846	0.953
5.48833	0.951
5.52819	0.939
5.56806	0.934
5.60792	0.936
5.64779	0.938
5.68765	0.924
5.72752	0.884
5.76739	0.866
5.80725	0.859
5.84712	0.808
5.88698	0.627
5.92685	0.048
5.96672	0.255
6.00658	0.507
6.04645	0.681
6.08631	0.734
6.12618	0.731
6.16604	0.777
6.20591	0.801
6.24578	0.782
6.28564	0.727
6.32551	0.669
6.36537	0.455
6.40524	0.126
6.44511	0.025
6.48497	0.095
6.52484	0.395
6.5647	0.627
6.60457	0.709
6.64443	0.751
6.6843	0.706
6.72417	0.465
6.76403	0.637
6.8039	0.687
6.84376	0.671
6.88363	0.612
6.92349	0.564
6.96336	0.472
7.00323	0.348
7.04309	0.335
7.08296	0.395
7.12282	0.38
7.16269	0.126
7.20256	0.031
7.24242	0.098
7.28229	0.098
7.32215	0.088
7.36202	0.317
7.40188	0.509
7.44175	0.559
7.48162	0.38
7.52148	0.387
7.56135	0.31
7.60121	0.267
7.64108	0.026
7.68095	0.018
7.72081	0.061
7.76068	0.055
7.80054	0.033
7.84041	0.143
7.88027	0.378
7.92014	0.594
7.96001	0.691
7.99987	0.721
8.03974	0.579
8.0796	0.697
8.11947	0.752
8.15934	0.43
8.1992	0.467
8.23907	0.707
8.27893	0.772
8.3188	0.764
8.35866	0.769
8.39853	0.622
8.4384	0.093
8.47826	0.096
8.51813	0.467
8.55799	0.674
8.59786	0.764
8.63772	0.749
8.67759	0.724
8.71746	0.602
8.75732	0.2
8.79719	0.038
8.83705	0.021
8.87692	0.046
8.91679	0.205
8.95665	0.363
8.99652	0.525
9.03638	0.696
9.07625	0.799
9.11611	0.838
9.15598	0.851
9.19585	0.861
9.23571	0.864
9.27558	0.839
9.31544	0.736
9.35531	0.412
9.39518	0.435
9.43504	0.686
9.47491	0.762
9.51477	0.801
9.55464	0.811
9.5945	0.808
9.63437	0.769
9.67424	0.711
9.7141	0.666
9.75397	0.697
9.79383	0.724
9.8337	0.674
9.87356	0.562
9.91343	0.557
9.9533	0.639
9.99316	0.682
10.033	0.616
10.0729	0.342
10.1128	0.193
10.1526	0.398
10.1925	0.602
10.2324	0.659
10.2722	0.41
10.3121	0.106
10.352	0.287
10.3918	0.454
10.4317	0.612
10.4716	0.747
10.5114	0.809
10.5513	0.841
10.5911	0.859
10.631	0.876
10.6709	0.886
10.7107	0.894
10.7506	0.901
10.7905	0.906
10.8303	0.906
10.8702	0.906
10.9101	0.908
10.9499	0.909
10.9898	0.911
11.0297	0.914
11.0695	0.916
11.1094	0.918
11.1493	0.923
11.1891	0.926
11.229	0.929
11.2689	0.929
11.3087	0.929
11.3486	0.929
11.3885	0.929
11.4283	0.929
11.4682	0.929
11.5081	0.924
11.5479	0.911
11.5878	0.888
11.6277	0.824
11.6675	0.601
11.7074	0.193
11.7473	0.315
11.7871	0.614
11.827	0.746
11.8669	0.826
11.9067	0.859
11.9466	0.873
11.9865	0.879
12.0263	0.883
12.0662	0.884
12.1061	0.886
12.1459	0.889
12.1858	0.896
12.2256	0.901
12.2655	0.904
12.3054	0.904
12.3452	0.904
12.3851	0.904
12.425	0.901
12.4648	0.896
12.5047	0.896
12.5446	0.893
12.5844	0.886
12.6243	0.864
12.6642	0.834
12.704	0.772
12.7439	0.611
12.7838	0.242
12.8236	0.198
12.8635	0.335
12.9034	0.445
12.9432	0.469
12.9831	0.355
13.023	0.161
13.0628	0.071
13.1027	0.108
13.1426	0.25
13.1824	0.392
13.2223	0.54
13.2622	0.664
13.302	0.739
13.3419	0.766
13.3818	0.776
13.4216	0.777
13.4615	0.767
13.5014	0.746
13.5412	0.712
13.5811	0.674
13.621	0.624
13.6608	0.56
13.7007	0.485
13.7405	0.424
13.7804	0.375
13.8203	0.35
13.8601	0.337
13.9	0.345
13.9399	0.36
13.9797	0.365
14.0196	0.348
14.0595	0.308
14.0993	0.297
14.1392	0.338
14.1791	0.415
14.2189	0.489
14.2588	0.557
14.2987	0.607
14.3385	0.642
14.3784	0.674
14.4183	0.699
14.4581	0.722
14.498	0.736
14.5379	0.746
14.5777	0.752
14.6176	0.761
14.6575	0.769
14.6973	0.772
14.7372	0.776
14.7771	0.779
14.8169	0.781
14.8568	0.781
14.8967	0.764
14.9365	0.729
14.9764	0.689
15.0163	0.656
15.0561	0.649
15.096	0.684
15.1359	0.711
15.1757	0.727
15.2156	0.731
15.2554	0.732
15.2953	0.732
15.3352	0.731
15.375	0.726
15.4149	0.721
15.4548	0.714
15.4946	0.711
15.5345	0.702
15.5744	0.692
15.6142	0.687
15.6541	0.682
15.694	0.677
15.7338	0.669
15.7737	0.664
15.8136	0.657
15.8534	0.647
15.8933	0.642
15.9332	0.637
15.973	0.632
16.0129	0.621
