Infrared Spectrum: PROPIONIC ACID, 3,3-DIETHOXY-2,2-DIMETHYL-, ETHYL ESTER
Formula: C11 H22 O4
CAS: 116594-66-2
Boiling point: 85 C AT 7 mmHg
Class: COBLENTZ
Instrument: Not specified, most likely a prism, grating, or hybrid spectrometer.
Sampling: TRANSMISSION
Path length: SMEAR
Resolution: 4
Origin: TENNESSEE EASTMAN COMPANY, RESEARCH LABORATORIES
MICROMETERS	TRANSMITTANCE
2.048	0.981
2.08887	0.984
2.12975	0.984
2.17062	0.984
2.21149	0.982
2.25237	0.94
2.29324	0.923
2.33411	0.931
2.37499	0.941
2.41586	0.943
2.45673	0.94
2.49761	0.941
2.53848	0.948
2.57936	0.955
2.62023	0.96
2.6611	0.965
2.70198	0.972
2.74285	0.972
2.78372	0.957
2.8246	0.931
2.86547	0.93
2.90634	0.928
2.94722	0.943
2.98809	0.952
3.02896	0.957
3.06984	0.955
3.11071	0.941
3.15158	0.933
3.19246	0.936
3.23333	0.933
3.2742	0.887
3.31508	0.639
3.35595	0.121
3.39683	0.237
3.4377	0.228
3.47857	0.392
3.51945	0.682
3.56032	0.716
3.60119	0.781
3.64207	0.831
3.68294	0.861
3.72381	0.899
3.76469	0.918
3.80556	0.918
3.84643	0.921
3.88731	0.933
3.92818	0.953
3.96905	0.959
4.00993	0.96
4.0508	0.96
4.09167	0.96
4.13255	0.959
4.17342	0.955
4.2143	0.953
4.25517	0.955
4.29604	0.953
4.33692	0.952
4.37779	0.952
4.41866	0.952
4.45954	0.952
4.50041	0.952
4.54128	0.952
4.58216	0.948
4.62303	0.941
4.6639	0.935
4.70478	0.945
4.74565	0.945
4.78652	0.943
4.8274	0.947
4.86827	0.945
4.90914	0.94
4.95002	0.93
4.99089	0.919
5.03177	0.924
5.07264	0.924
5.11351	0.916
5.15439	0.923
5.19526	0.936
5.23613	0.943
5.27701	0.941
5.31788	0.945
5.35875	0.952
5.39963	0.953
5.4405	0.941
5.48137	0.918
5.52225	0.889
5.56312	0.848
5.60399	0.798
5.64487	0.713
5.68574	0.462
5.72661	0.098
5.76749	0.102
5.80836	0.15
5.84924	0.404
5.89011	0.576
5.93098	0.699
5.97186	0.766
6.01273	0.822
6.0536	0.832
6.09448	0.839
6.13535	0.856
6.17622	0.872
6.2171	0.892
6.25797	0.902
6.29884	0.906
6.33972	0.907
6.38059	0.901
6.42146	0.873
6.46234	0.851
6.50321	0.82
6.54408	0.832
6.58496	0.836
6.62583	0.803
6.66671	0.73
6.70758	0.513
6.74845	0.317
6.78933	0.276
6.8302	0.334
6.87107	0.361
6.91195	0.382
6.95282	0.563
6.99369	0.643
7.03457	0.636
7.07544	0.522
7.11631	0.448
7.15719	0.428
7.19806	0.313
7.23893	0.267
7.27981	0.288
7.32068	0.348
7.36155	0.416
7.40243	0.525
7.4433	0.402
7.48418	0.382
7.52505	0.474
7.56592	0.595
7.6068	0.616
7.64767	0.518
7.68854	0.373
7.72942	0.325
7.77029	0.245
7.81116	0.141
7.85204	0.112
7.89291	0.196
7.93378	0.317
7.97466	0.397
8.01553	0.418
8.0564	0.36
8.09728	0.325
8.13815	0.395
8.17902	0.464
8.2199	0.496
8.26077	0.506
8.30165	0.505
8.34252	0.467
8.38339	0.36
8.42427	0.244
8.46514	0.187
8.50601	0.163
8.54689	0.165
8.58776	0.163
8.62863	0.151
8.66951	0.124
8.71038	0.102
8.75125	0.093
8.79213	0.093
8.833	0.093
8.87387	0.08
8.91475	0.056
8.95562	0.049
8.99649	0.051
9.03737	0.078
9.07824	0.112
9.11912	0.134
9.15999	0.162
9.20086	0.165
9.24174	0.15
9.28261	0.107
9.32348	0.076
9.36436	0.063
9.40523	0.064
9.4461	0.09
9.48698	0.139
9.52785	0.179
9.56872	0.179
9.6096	0.16
9.65047	0.134
9.69134	0.122
9.73222	0.129
9.77309	0.151
9.81396	0.187
9.85484	0.232
9.89571	0.295
9.93659	0.363
9.97746	0.435
10.0183	0.505
10.0592	0.563
10.1001	0.595
10.141	0.598
10.1818	0.561
10.2227	0.493
10.2636	0.477
10.3044	0.535
10.3453	0.605
10.3862	0.656
10.4271	0.675
10.4679	0.667
10.5088	0.65
10.5497	0.691
10.5906	0.733
10.6314	0.761
10.6723	0.781
10.7132	0.791
10.7541	0.793
10.7949	0.79
10.8358	0.774
10.8767	0.718
10.9175	0.636
10.9584	0.576
10.9993	0.558
11.0402	0.573
11.081	0.624
11.1219	0.687
11.1628	0.73
11.2037	0.747
11.2445	0.754
11.2854	0.759
11.3263	0.773
11.3672	0.781
11.408	0.781
11.4489	0.742
11.4898	0.667
11.5307	0.583
11.5715	0.552
11.6124	0.61
11.6533	0.706
11.6941	0.767
11.735	0.803
11.7759	0.817
11.8168	0.827
11.8576	0.834
11.8985	0.834
11.9394	0.829
11.9803	0.817
12.0211	0.815
12.062	0.819
12.1029	0.82
12.1438	0.82
12.1846	0.817
12.2255	0.81
12.2664	0.805
12.3072	0.803
12.3481	0.805
12.389	0.81
12.4299	0.813
12.4707	0.815
12.5116	0.819
12.5525	0.82
12.5934	0.82
12.6342	0.807
12.6751	0.784
12.716	0.759
12.7569	0.752
12.7977	0.764
12.8386	0.786
12.8795	0.784
12.9204	0.74
12.9612	0.67
13.0021	0.65
13.043	0.686
13.0838	0.749
13.1247	0.795
13.1656	0.815
13.2065	0.837
13.2473	0.846
13.2882	0.851
13.3291	0.856
13.37	0.86
13.4108	0.865
13.4517	0.866
13.4926	0.87
13.5335	0.872
13.5743	0.872
13.6152	0.872
13.6561	0.868
13.6969	0.866
13.7378	0.865
13.7787	0.863
13.8196	0.86
13.8604	0.856
13.9013	0.854
13.9422	0.853
13.9831	0.849
14.0239	0.846
14.0648	0.843
14.1057	0.839
14.1466	0.834
14.1874	0.827
14.2283	0.817
14.2692	0.808
14.31	0.802
14.3509	0.79
14.3918	0.773
14.4327	0.747
14.4735	0.723
14.5144	0.689
14.5553	0.668
14.5962	0.651
14.637	0.645
14.6779	0.643
14.7188	0.648
14.7597	0.658
14.8005	0.67
14.8414	0.68
14.8823	0.691
14.9232	0.689
14.964	0.687
15.0049	0.691
15.0458	0.699
15.0866	0.704
15.1275	0.703
15.1684	0.697
15.2093	0.691
15.2501	0.686
15.291	0.677
15.3319	0.672
15.3728	0.663
15.4136	0.656
15.4545	0.65
15.4954	0.643
15.5363	0.638
15.5771	0.633
15.618	0.627
15.6589	0.622
15.6997	0.617
15.7406	0.605
15.7815	0.6
15.8224	0.595
15.8632	0.592
15.9041	0.581
15.945	0.575
15.9859	0.571
