Infrared Spectrum: 3-AMINO-2-METHYLHEPTANE
Formula: C8 H19 N
CAS: 116557-25-6
State: SOLUTION (7% CHCl3)
Class: COBLENTZ
Instrument: Not specified, most likely a prism, grating, or hybrid spectrometer.
Sampling: TRANSMISSION
Path length: 0.009 CM
Resolution: 4
MICROMETERS	TRANSMITTANCE
1.851	0.953
1.89154	0.952
1.93208	0.952
1.97262	0.95
2.01316	0.953
2.0537	0.952
2.09424	0.952
2.13478	0.952
2.17532	0.948
2.21586	0.95
2.2564	0.948
2.29694	0.942
2.33748	0.922
2.37802	0.919
2.41856	0.922
2.4591	0.92
2.49964	0.924
2.54019	0.93
2.58073	0.935
2.62127	0.935
2.66181	0.93
2.70235	0.929
2.74289	0.914
2.78343	0.935
2.82397	0.925
2.86451	0.917
2.90505	0.902
2.94559	0.869
2.98613	0.828
3.02667	0.813
3.06721	0.801
3.10775	0.798
3.14829	0.788
3.18883	0.783
3.22937	0.805
3.26991	0.83
3.31045	0.859
3.35099	0.65
3.39153	0.264
3.43207	0.12
3.47261	0.189
3.51315	0.283
3.55369	0.518
3.59423	0.752
3.63477	0.813
3.67531	0.831
3.71585	0.846
3.75639	0.864
3.79693	0.876
3.83748	0.879
3.87802	0.874
3.91856	0.882
3.9591	0.876
3.99964	0.866
4.04018	0.856
4.08072	0.861
4.12126	0.889
4.1618	0.897
4.20234	0.912
4.24288	0.922
4.28342	0.935
4.32396	0.914
4.3645	0.907
4.40504	0.907
4.44558	0.912
4.48612	0.912
4.52666	0.912
4.5672	0.912
4.60774	0.91
4.64828	0.91
4.68882	0.91
4.72936	0.91
4.7699	0.91
4.81044	0.909
4.85098	0.909
4.89152	0.909
4.93206	0.909
4.9726	0.909
5.01314	0.909
5.05368	0.909
5.09422	0.909
5.13476	0.907
5.17531	0.907
5.21585	0.907
5.25639	0.907
5.29693	0.905
5.33747	0.905
5.37801	0.904
5.41855	0.904
5.45909	0.904
5.49963	0.904
5.54017	0.904
5.58071	0.905
5.62125	0.907
5.66179	0.907
5.70233	0.904
5.74287	0.902
5.78341	0.899
5.82395	0.894
5.86449	0.886
5.90503	0.887
5.94557	0.877
5.98611	0.871
6.02665	0.854
6.06719	0.846
6.10773	0.828
6.14827	0.816
6.18881	0.808
6.22935	0.8
6.26989	0.765
6.31043	0.684
6.35097	0.658
6.39151	0.706
6.43205	0.755
6.4726	0.821
6.51314	0.846
6.55368	0.849
6.59422	0.859
6.63476	0.864
6.6753	0.859
6.71584	0.848
6.75638	0.833
6.79692	0.788
6.83746	0.595
6.878	0.425
6.91854	0.542
6.95908	0.702
6.99962	0.755
7.04016	0.815
7.0807	0.846
7.12124	0.849
7.16178	0.841
7.20232	0.801
7.24286	0.712
7.2834	0.633
7.32394	0.665
7.36448	0.628
7.40502	0.747
7.44556	0.775
7.4861	0.797
7.52664	0.815
7.56718	0.823
7.60772	0.825
7.64826	0.82
7.6888	0.816
7.72934	0.821
7.76988	0.82
7.81043	0.813
7.85097	0.797
7.89151	0.788
7.93205	0.77
7.97259	0.75
8.01313	0.752
8.05367	0.75
8.09421	0.76
8.13475	0.773
8.17529	0.815
8.21583	0.871
8.25637	0.889
8.29691	0.897
8.33745	0.909
8.37799	0.937
8.41853	0.912
8.45907	0.889
8.49961	0.879
8.54015	0.864
8.58069	0.853
8.62123	0.849
8.66177	0.853
8.70231	0.846
8.74285	0.823
8.78339	0.826
8.82393	0.828
8.86447	0.823
8.90501	0.811
8.94555	0.805
8.98609	0.797
9.02663	0.793
9.06717	0.798
9.10772	0.828
9.14826	0.82
9.1888	0.797
9.22934	0.782
9.26988	0.808
9.31042	0.828
9.35096	0.843
9.3915	0.846
9.43204	0.863
9.47258	0.858
9.51312	0.843
9.55366	0.797
9.5942	0.772
9.63474	0.834
9.67528	0.853
9.71582	0.864
9.75636	0.867
9.7969	0.869
9.83744	0.856
9.87798	0.846
9.91852	0.831
9.95906	0.818
9.9996	0.82
10.0401	0.818
10.0807	0.808
10.1212	0.805
10.1618	0.803
10.2023	0.793
10.2428	0.778
10.2834	0.762
10.3239	0.755
10.3645	0.747
10.405	0.742
10.4455	0.734
10.4861	0.722
10.5266	0.717
10.5672	0.727
10.6077	0.721
10.6482	0.724
10.6888	0.731
10.7293	0.742
10.7699	0.75
10.8104	0.754
10.8509	0.74
10.8915	0.696
10.932	0.671
10.9726	0.656
11.0131	0.643
11.0536	0.64
11.0942	0.641
11.1347	0.643
11.1753	0.636
11.2158	0.627
11.2564	0.597
11.2969	0.575
11.3374	0.562
11.378	0.549
11.4185	0.539
11.4591	0.533
11.4996	0.523
11.5401	0.514
11.5807	0.509
11.6212	0.509
11.6618	0.528
11.7023	0.564
11.7428	0.592
11.7834	0.62
11.8239	0.651
11.8645	0.668
11.905	0.684
11.9455	0.698
11.9861	0.716
12.0266	0.739
12.0672	0.749
12.1077	0.755
12.1482	0.76
12.1888	0.77
12.2293	0.787
12.2699	0.787
12.3104	0.783
12.3509	0.792
12.3915	0.795
12.432	0.801
12.4726	0.816
12.5131	0.843
12.5536	0.849
12.5942	0.864
12.6347	0.877
12.6753	0.891
12.7158	0.904
12.7563	0.91
12.7969	0.92
12.8374	0.935
12.878	0.95
12.9185	0.94
12.959	0.947
12.9996	0.955
13.0401	0.968
13.0807	0.983
13.1212	0.988
13.1617	0.996
13.2023	1.006
13.2428	1.008
13.2834	1.001
13.3239	0.998
13.3644	1.003
13.405	1.006
13.4455	1.006
13.4861	1.004
13.5266	1.004
13.5671	1.006
13.6077	1.006
13.6482	1.006
13.6888	1.006
13.7293	1.004
13.7699	1.004
13.8104	1.003
13.8509	0.998
13.8915	0.996
13.932	0.995
13.9726	0.981
14.0131	0.958
14.0536	0.938
14.0942	0.919
14.1347	0.917
14.1753	0.915
14.2158	0.909
14.2563	0.904
14.2969	0.9
14.3374	0.897
14.378	0.896
14.4185	0.896
14.459	0.896
14.4996	0.899
14.5401	0.9
14.5807	0.9
14.6212	0.9
14.6617	0.902
14.7023	0.905
14.7428	0.909
14.7834	0.915
14.8239	0.93
14.8644	0.932
14.905	0.938
14.9455	0.947
14.9861	0.95
15.0266	0.955
15.0671	0.912
15.1077	0.752
15.1482	0.623
15.1888	0.651
15.2293	0.696
15.2698	0.811
15.3104	0.846
15.3509	0.866
15.3915	0.874
15.432	0.882
15.4725	0.884
