Infrared Spectrum: 4-THIAZOLECARBONITRILE, 5-AMINO-2-METHYL SULFONYL-
Formula: C5 H5 N3 O2 S2
CAS: 116529-27-2
State: SOLID (KBr PELLET)
Class: COBLENTZ
Instrument: Not specified, most likely a prism, grating, or hybrid spectrometer.
Sampling: TRANSMISSION
Resolution: 4
Origin: TENNESSEE EASTMAN COMPANY, RESEARCH LABORATORIES
MICROMETERS	TRANSMITTANCE
2.184	0.88
2.225	0.885
2.26599	0.885
2.30699	0.894
2.34798	0.902
2.38898	0.912
2.42998	0.919
2.47097	0.921
2.51197	0.917
2.55297	0.914
2.59396	0.916
2.63496	0.928
2.67595	0.923
2.71695	0.9
2.75795	0.779
2.79894	0.74
2.83994	0.699
2.88093	0.605
2.92193	0.083
2.96293	0.379
3.00392	0.218
3.04492	0.092
3.08592	0.381
3.12691	0.049
3.16791	0.321
3.2089	0.555
3.2499	0.682
3.2909	0.569
3.33189	0.736
3.37289	0.818
3.41388	0.758
3.45488	0.811
3.49588	0.866
3.53687	0.852
3.57787	0.851
3.61886	0.861
3.65986	0.916
3.70086	0.924
3.74185	0.919
3.78285	0.936
3.82385	0.935
3.86484	0.941
3.90584	0.943
3.94683	0.952
3.98783	0.955
4.02883	0.887
4.06982	0.907
4.11082	0.933
4.15181	0.947
4.19281	0.953
4.23381	0.94
4.2748	0.938
4.3158	0.953
4.3568	0.947
4.39779	0.912
4.43879	0.588
4.47978	0.21
4.52078	0.711
4.56178	0.933
4.60277	0.955
4.64377	0.977
4.68476	0.977
4.72576	0.972
4.76676	0.967
4.80775	0.969
4.84875	0.976
4.88975	0.967
4.93074	0.97
4.97174	0.979
5.01273	0.979
5.05373	0.977
5.09473	0.993
5.13572	0.991
5.17672	0.979
5.21771	0.974
5.25871	0.991
5.29971	1
5.3407	1
5.3817	0.998
5.4227	0.996
5.46369	0.994
5.50469	0.991
5.54568	0.991
5.58668	0.989
5.62768	0.991
5.66867	0.991
5.70967	0.974
5.75066	0.945
5.79166	0.907
5.83266	0.929
5.87365	0.938
5.91465	0.935
5.95565	0.917
5.99664	0.87
6.03764	0.82
6.07863	0.664
6.11963	0.394
6.16063	0.044
6.20162	0.35
6.24262	0.694
6.28361	0.8
6.32461	0.849
6.36561	0.861
6.4066	0.859
6.4476	0.847
6.48859	0.818
6.52959	0.714
6.57059	0.417
6.61158	0.078
6.65258	0.056
6.69358	0.396
6.73457	0.757
6.77557	0.781
6.81656	0.635
6.85756	0.405
6.89856	0.042
6.93955	0.162
6.98055	0.562
7.02154	0.69
7.06254	0.69
7.10354	0.723
7.14453	0.782
7.18553	0.817
7.22653	0.76
7.26752	0.803
7.30852	0.839
7.34951	0.844
7.39051	0.837
7.43151	0.805
7.4725	0.678
7.5135	0.411
7.55449	0.061
7.59549	0.02
7.63649	0.027
7.67748	0.241
7.71848	0.394
7.75948	0.678
7.80047	0.789
7.84147	0.823
7.88246	0.837
7.92346	0.839
7.96446	0.803
8.00545	0.76
8.04645	0.825
8.08744	0.844
8.12844	0.846
8.16944	0.849
8.21043	0.854
8.25143	0.847
8.29243	0.835
8.33342	0.825
8.37442	0.794
8.41541	0.671
8.45641	0.586
8.49741	0.54
8.5384	0.444
8.5794	0.285
8.62039	0.07
8.66139	0.02
8.70239	0.017
8.74338	0.018
8.78438	0.052
8.82538	0.252
8.86637	0.471
8.90737	0.562
8.94836	0.598
8.98936	0.613
9.03036	0.625
9.07135	0.637
9.11235	0.652
9.15334	0.663
9.19434	0.656
9.23534	0.634
9.27633	0.617
9.31733	0.589
9.35832	0.528
9.39932	0.442
9.44032	0.278
9.48131	0.136
9.52231	0.222
9.56331	0.384
9.6043	0.49
9.6453	0.588
9.68629	0.646
9.72729	0.676
9.76829	0.692
9.80928	0.705
9.85028	0.721
9.89127	0.731
9.93227	0.735
9.97327	0.743
10.0143	0.748
10.0553	0.75
10.0963	0.75
10.1373	0.731
10.1782	0.676
10.2192	0.478
10.2602	0.129
10.3012	0.263
10.3422	0.229
10.3832	0.044
10.4242	0.088
10.4652	0.271
10.5062	0.439
10.5472	0.591
10.5882	0.682
10.6292	0.736
10.6702	0.76
10.7112	0.781
10.7522	0.786
10.7932	0.789
10.8342	0.793
10.8752	0.801
10.9162	0.81
10.9572	0.818
10.9982	0.829
11.0392	0.835
11.0802	0.847
11.1212	0.858
11.1622	0.863
11.2032	0.863
11.2441	0.861
11.2851	0.863
11.3261	0.868
11.3671	0.875
11.4081	0.878
11.4491	0.875
11.4901	0.863
11.5311	0.852
11.5721	0.851
11.6131	0.888
11.6541	0.935
11.6951	0.941
11.7361	0.941
11.7771	0.935
11.8181	0.933
11.8591	0.94
11.9001	0.947
11.9411	0.952
11.9821	0.952
12.0231	0.952
12.0641	0.945
12.1051	0.938
12.1461	0.94
12.1871	0.945
12.2281	0.95
12.2691	0.955
12.31	0.957
12.351	0.953
12.392	0.948
12.433	0.947
12.474	0.95
12.515	0.952
12.556	0.952
12.597	0.95
12.638	0.941
12.679	0.933
12.72	0.923
12.761	0.895
12.802	0.849
12.843	0.784
12.884	0.685
12.925	0.57
12.966	0.398
13.007	0.164
13.048	0.064
13.089	0.061
13.13	0.111
13.171	0.241
13.212	0.405
13.253	0.564
13.294	0.664
13.335	0.752
13.3759	0.805
13.4169	0.829
13.4579	0.839
13.4989	0.822
13.5399	0.769
13.5809	0.692
13.6219	0.683
13.6629	0.765
13.7039	0.834
13.7449	0.861
13.7859	0.878
13.8269	0.887
13.8679	0.885
13.9089	0.88
13.9499	0.87
13.9909	0.858
14.0319	0.849
14.0729	0.829
14.1139	0.815
14.1549	0.776
14.1959	0.711
14.2369	0.637
14.2779	0.584
14.3189	0.576
14.3599	0.617
14.4009	0.68
14.4418	0.729
14.4828	0.765
14.5238	0.798
14.5648	0.817
14.6058	0.832
14.6468	0.837
14.6878	0.841
14.7288	0.842
14.7698	0.842
14.8108	0.844
14.8518	0.844
14.8928	0.842
14.9338	0.832
14.9748	0.827
15.0158	0.805
15.0568	0.793
15.0978	0.794
15.1388	0.803
15.1798	0.796
15.2208	0.794
15.2618	0.788
15.3028	0.776
15.3438	0.774
15.3848	0.767
15.4258	0.762
15.4668	0.753
15.5077	0.748
15.5487	0.741
15.5897	0.735
15.6307	0.729
15.6717	0.728
15.7127	0.724
15.7537	0.723
15.7947	0.719
15.8357	0.709
15.8767	0.711
15.9177	0.709
15.9587	0.705
15.9997	0.702
