Infrared Spectrum: PROPIONIC ACID, 3-(DIETHYLPHOSPHONO)-2,2-DIMETHYLETHYL ESTER
Formula: C11 H23 O5 P
CAS: 116594-67-3
Boiling point: 90-95 C AT 0.5 mmHg
Class: COBLENTZ
Instrument: Not specified, most likely a prism, grating, or hybrid spectrometer.
Sampling: TRANSMISSION
Path length: SMEAR
Resolution: 4
Origin: TENNESSEE EASTMAN COMPANY, RESEARCH LABORATORIES
MICROMETERS	TRANSMITTANCE
2.032	0.899
2.07204	0.899
2.11209	0.899
2.15213	0.899
2.19218	0.901
2.23222	0.899
2.27227	0.892
2.31231	0.889
2.35236	0.889
2.3924	0.889
2.43245	0.889
2.47249	0.889
2.51254	0.891
2.55258	0.897
2.59263	0.894
2.63267	0.894
2.67272	0.896
2.71276	0.894
2.75281	0.891
2.79285	0.881
2.8329	0.872
2.87294	0.871
2.91299	0.869
2.95303	0.877
2.99308	0.891
3.03312	0.899
3.07317	0.902
3.11321	0.904
3.15326	0.906
3.1933	0.906
3.23335	0.904
3.27339	0.889
3.31344	0.797
3.35348	0.412
3.39353	0.517
3.43357	0.532
3.47362	0.69
3.51366	0.839
3.55371	0.865
3.59375	0.881
3.6338	0.887
3.67384	0.891
3.71389	0.904
3.75393	0.914
3.79398	0.917
3.83402	0.921
3.87407	0.921
3.91411	0.922
3.95416	0.922
3.9942	0.924
4.03425	0.922
4.07429	0.919
4.11434	0.919
4.15438	0.919
4.19443	0.919
4.23447	0.932
4.27452	0.911
4.31456	0.862
4.35461	0.869
4.39465	0.911
4.4347	0.914
4.47474	0.916
4.51479	0.922
4.55483	0.922
4.59488	0.922
4.63492	0.921
4.67497	0.922
4.71501	0.919
4.75506	0.917
4.7951	0.921
4.83515	0.917
4.87519	0.916
4.91524	0.916
4.95528	0.919
4.99533	0.917
5.03537	0.917
5.07542	0.917
5.11546	0.919
5.15551	0.919
5.19555	0.922
5.2356	0.914
5.27564	0.907
5.31569	0.901
5.35573	0.902
5.39578	0.902
5.43582	0.887
5.47587	0.879
5.51591	0.876
5.55596	0.867
5.596	0.844
5.63605	0.815
5.67609	0.73
5.71614	0.484
5.75618	0.252
5.79623	0.296
5.83627	0.462
5.87632	0.71
5.91636	0.763
5.95641	0.785
5.99645	0.814
6.0365	0.832
6.07654	0.819
6.11659	0.849
6.15663	0.859
6.19668	0.867
6.23672	0.882
6.27677	0.887
6.31681	0.891
6.35686	0.879
6.3969	0.871
6.43695	0.867
6.47699	0.83
6.51704	0.849
6.55708	0.829
6.59713	0.832
6.63717	0.815
6.67722	0.773
6.71726	0.643
6.75731	0.517
6.79735	0.581
6.8374	0.591
6.87744	0.586
6.91749	0.606
6.95753	0.703
6.99758	0.753
7.03762	0.747
7.07767	0.673
7.11771	0.608
7.15776	0.544
7.1978	0.519
7.23785	0.621
7.27789	0.646
7.31794	0.579
7.35798	0.678
7.39803	0.762
7.43807	0.787
7.47812	0.795
7.51816	0.792
7.55821	0.755
7.59825	0.658
7.6383	0.489
7.67834	0.393
7.71839	0.412
7.75843	0.467
7.79848	0.507
7.83852	0.519
7.87857	0.502
7.91861	0.442
7.95866	0.39
7.9987	0.311
8.03875	0.284
8.07879	0.286
8.11884	0.319
8.15888	0.378
8.19893	0.418
8.23897	0.452
8.27902	0.474
8.31906	0.432
8.35911	0.37
8.39915	0.298
8.4392	0.283
8.47924	0.299
8.51929	0.358
8.55933	0.361
8.59938	0.386
8.63942	0.428
8.67947	0.44
8.71951	0.422
8.75956	0.403
8.7996	0.445
8.83965	0.505
8.87969	0.537
8.91974	0.52
8.95978	0.442
8.99983	0.386
9.03987	0.378
9.07992	0.391
9.11996	0.422
9.16001	0.474
9.20005	0.504
9.2401	0.499
9.28014	0.455
9.32019	0.375
9.36023	0.301
9.40028	0.236
9.44032	0.211
9.48037	0.207
9.52041	0.226
9.56046	0.242
9.6005	0.234
9.64055	0.199
9.68059	0.177
9.72064	0.175
9.76068	0.201
9.80073	0.271
9.84077	0.355
9.88082	0.44
9.92086	0.522
9.96091	0.567
10.001	0.592
10.041	0.599
10.081	0.601
10.1211	0.577
10.1611	0.522
10.2012	0.48
10.2412	0.403
10.2813	0.355
10.3213	0.321
10.3614	0.289
10.4014	0.274
10.4414	0.271
10.4815	0.279
10.5215	0.296
10.5616	0.318
10.6016	0.343
10.6417	0.37
10.6817	0.396
10.7218	0.448
10.7618	0.529
10.8019	0.581
10.8419	0.621
10.8819	0.666
10.922	0.7
10.962	0.716
11.0021	0.748
11.0421	0.765
11.0822	0.775
11.1222	0.783
11.1623	0.79
11.2023	0.795
11.2423	0.798
11.2824	0.8
11.3224	0.802
11.3625	0.802
11.4025	0.792
11.4426	0.78
11.4826	0.767
11.5227	0.752
11.5627	0.738
11.6028	0.728
11.6428	0.698
11.6828	0.628
11.7229	0.571
11.7629	0.552
11.803	0.577
11.843	0.589
11.8831	0.592
11.9231	0.589
11.9632	0.587
12.0032	0.572
12.0432	0.554
12.0833	0.551
12.1233	0.556
12.1634	0.581
12.2034	0.597
12.2435	0.611
12.2835	0.613
12.3236	0.613
12.3636	0.616
12.4037	0.616
12.4437	0.604
12.4837	0.592
12.5238	0.581
12.5638	0.577
12.6039	0.576
12.6439	0.576
12.684	0.576
12.724	0.576
12.7641	0.574
12.8041	0.571
12.8441	0.554
12.8842	0.551
12.9242	0.547
12.9643	0.549
13.0043	0.579
13.0444	0.601
13.0844	0.626
13.1245	0.653
13.1645	0.678
13.2046	0.701
13.2446	0.713
13.2846	0.73
13.3247	0.738
13.3647	0.748
13.4048	0.753
13.4448	0.758
13.4849	0.76
13.5249	0.76
13.565	0.758
13.605	0.755
13.645	0.753
13.6851	0.75
13.7251	0.745
13.7652	0.742
13.8052	0.737
13.8453	0.731
13.8853	0.731
13.9254	0.733
13.9654	0.735
14.0055	0.74
14.0455	0.747
14.0855	0.752
14.1256	0.758
14.1656	0.767
14.2057	0.772
14.2457	0.78
14.2858	0.783
14.3258	0.787
14.3659	0.788
14.4059	0.792
14.4459	0.792
14.486	0.793
14.526	0.793
14.5661	0.793
14.6061	0.792
14.6462	0.79
14.6862	0.792
14.7263	0.783
14.7663	0.782
14.8064	0.783
14.8464	0.78
14.8864	0.768
14.9265	0.755
14.9665	0.74
15.0066	0.737
15.0466	0.74
15.0867	0.742
15.1267	0.738
15.1668	0.733
15.2068	0.725
15.2468	0.713
15.2869	0.703
15.3269	0.701
15.367	0.695
15.407	0.681
15.4471	0.675
15.4871	0.664
15.5272	0.663
15.5672	0.656
15.6073	0.651
15.6473	0.648
15.6873	0.646
15.7274	0.643
15.7674	0.633
15.8075	0.619
15.8475	0.614
15.8876	0.613
15.9276	0.596
15.9677	0.589
16.0077	0.589
