Infrared Spectrum: Benzylamine, N-(2-methylcyclopropyl)-,
Formula: C11 H15 N
CAS: 116557-71-2
State: LIQUID (NEAT)
Class: COBLENTZ III
Instrument: PERKIN-ELMER 21 (GRATING)
Instrument parameters: FILTER AT ABOUT 10 MICRONS
Path length: CAPILLARY
Resolution: 2
Origin: ABBOTT LABORATORIES
1/CM	TRANSMITTANCE
665	0.5909
674	0.5469
683	0.4789
692	0.2082
701	0.1543
710	0.3118
719	0.2586
728	0.1509
737	0.1294
746	0.1889
755	0.3847
764	0.537
773	0.5759
782	0.5566
791	0.5895
800	0.5765
809	0.614
818	0.6318
827	0.595
836	0.6573
845	0.7172
854	0.765
863	0.7924
872	0.7609
881	0.7322
890	0.6707
899	0.673
908	0.6216
917	0.6974
926	0.7799
935	0.8056
944	0.8077
953	0.7722
962	0.6684
971	0.683
980	0.6909
989	0.7376
998	0.7094
1007	0.6756
1016	0.5757
1025	0.5447
1034	0.7177
1043	0.7219
1052	0.7442
1061	0.7087
1070	0.5746
1079	0.5844
1088	0.6232
1097	0.5795
1106	0.6345
1115	0.7342
1124	0.7934
1133	0.7916
1142	0.7348
1151	0.6054
1160	0.5501
1169	0.6315
1178	0.7472
1187	0.7431
1196	0.6552
1205	0.5612
1214	0.6
1223	0.7074
1232	0.7338
1241	0.7421
1250	0.7769
1259	0.791
1268	0.7915
1277	0.7775
1286	0.7349
1295	0.6291
1304	0.3829
1313	0.5064
1322	0.7307
1331	0.7311
1340	0.683
1349	0.6053
1358	0.6761
1367	0.7235
1376	0.5418
1385	0.6764
1394	0.6359
1403	0.7246
1412	0.7222
1421	0.5514
1430	0.4067
1439	0.3945
1448	0.2642
1457	0.3892
1466	0.5476
1475	0.6774
1484	0.6894
1493	0.4697
1502	0.7786
1511	0.8243
1520	0.833
1529	0.8333
1538	0.8327
1547	0.8323
1556	0.8324
1565	0.8321
1574	0.815
1583	0.7847
1592	0.7851
1601	0.7315
1610	0.7598
1619	0.8283
1628	0.8316
1637	0.8323
1646	0.8305
1655	0.8291
1664	0.8292
1673	0.8361
1682	0.8445
1691	0.8536
1700	0.8621
1709	0.8686
1718	0.8718
1727	0.8708
1736	0.8679
1745	0.8643
1754	0.8644
1763	0.8676
1772	0.8701
1781	0.8673
1790	0.8604
1799	0.8439
1808	0.8327
1817	0.8442
1826	0.8584
1835	0.8654
1844	0.8641
1853	0.8581
1862	0.8493
1871	0.8412
1880	0.8403
1889	0.8509
1898	0.8621
1907	0.8701
1916	0.8729
1925	0.8691
1934	0.8496
1943	0.8278
1952	0.8266
1961	0.8419
1970	0.8587
1979	0.8633
1988	0.8651
1997	0.8661
2006	0.8664
2015	0.8675
2024	0.8686
2033	0.871
2042	0.8749
2051	0.8784
2060	0.8813
2069	0.8838
2078	0.8842
2087	0.8845
2096	0.8846
2105	0.8844
2114	0.8841
2123	0.8826
2132	0.8811
2141	0.8796
2150	0.8779
2159	0.8761
2168	0.8746
2177	0.874
2186	0.8755
2195	0.877
2204	0.8785
2213	0.8799
2222	0.8814
2231	0.8822
2240	0.8826
2249	0.883
2258	0.8833
2267	0.8834
2276	0.8833
2285	0.8831
2294	0.8811
2303	0.8792
2312	0.8773
2321	0.876
2330	0.8746
2339	0.8742
2348	0.8742
2357	0.8743
2366	0.8744
2375	0.8746
2384	0.8751
2393	0.8755
2402	0.8759
2411	0.8763
2420	0.877
2429	0.8787
2438	0.8804
2447	0.882
2456	0.8831
2465	0.8831
2474	0.8831
2483	0.8825
2492	0.8817
2501	0.8809
2510	0.8797
2519	0.878
2528	0.8763
2537	0.8747
2546	0.873
2555	0.8714
2564	0.8699
2573	0.8683
2582	0.8667
2591	0.8652
2600	0.8617
2609	0.858
2618	0.8544
2627	0.8505
2636	0.8448
2645	0.839
2654	0.8332
2663	0.8317
2672	0.831
2681	0.8303
2690	0.8268
2699	0.8199
2708	0.8102
2717	0.7973
2726	0.7835
2735	0.7767
2744	0.7523
2753	0.7214
2762	0.6908
2771	0.6604
2780	0.6302
2789	0.6002
2798	0.5703
2807	0.5406
2816	0.512
2825	0.505
2834	0.5029
2843	0.4764
2852	0.4459
2861	0.4194
2870	0.4156
2879	0.3972
2888	0.3687
2897	0.3404
2906	0.3123
2915	0.2844
2924	0.2566
2933	0.2551
2942	0.258
2951	0.2792
2960	0.4272
2969	0.5419
2978	0.5389
2987	0.5123
2996	0.4849
3005	0.4579
3014	0.4538
3023	0.5413
3032	0.5578
3041	0.5481
3050	0.5385
3059	0.5336
3068	0.5454
3077	0.6239
3086	0.7018
3095	0.7756
3104	0.8002
3113	0.8125
3122	0.8198
3131	0.8223
3140	0.8239
3149	0.8242
3158	0.824
3167	0.8232
3176	0.8222
3185	0.8199
3194	0.8166
3203	0.8099
3212	0.7988
3221	0.7878
3230	0.778
3239	0.7687
3248	0.764
3257	0.7604
3266	0.7579
3275	0.7556
3284	0.7541
3293	0.7537
3302	0.7545
3311	0.7611
3320	0.7756
3329	0.7991
3338	0.8187
3347	0.8308
3356	0.8345
3365	0.8369
3374	0.8385
3383	0.8401
3392	0.8431
3401	0.8461
3410	0.8492
3419	0.8523
3428	0.855
3437	0.8576
3446	0.8601
3455	0.8627
3464	0.8653
3473	0.8682
3482	0.871
3491	0.8739
3500	0.8762
3509	0.8775
3518	0.8788
3527	0.8794
3536	0.8796
3545	0.88
3554	0.8803
3563	0.8805
3572	0.8808
3581	0.8809
3590	0.8812
3599	0.8814
3608	0.8815
3617	0.8816
3626	0.8817
3635	0.8819
3644	0.882
3653	0.8819
3662	0.8817
3671	0.8817
3680	0.8816
3689	0.8814
3698	0.8814
3707	0.8812
3716	0.8811
3725	0.8811
3734	0.881
3743	0.8809
3752	0.8824
3761	0.884
3770	0.8853
3779	0.8859
3788	0.8865
3797	0.8868
3806	0.886
3815	0.8837
3824	0.8821
3833	0.8808
3842	0.8794
3851	0.8782
3860	0.8773
3869	0.8764
3878	0.8756
3887	0.8748
3896	0.8743
3905	0.8741
3914	0.8738
3923	0.8736
3932	0.8734
3941	0.8732
3950	0.8729
3959	0.8727
3968	0.8726
3977	0.8723
3986	0.8721
3995	0.8719
