Infrared Spectrum: PROPIONIC ACID, 2,3-DICHLORO-2-CHLOROMETHYL-, METHYL ESTER
Formula: C5 H7 Cl3 O2
CAS: 116594-64-0
Class: COBLENTZ
Instrument: Not specified, most likely a prism, grating, or hybrid spectrometer.
Sampling: TRANSMISSION
Path length: SMEAR
Resolution: 4
Origin: TENNESSEE EASTMAN COMPANY, RESEARCH LABORATORIES
MICROMETERS	TRANSMITTANCE
2.068	0.907
2.10902	0.91
2.15003	0.914
2.19105	0.905
2.23206	0.862
2.27308	0.893
2.31409	0.898
2.35511	0.886
2.39613	0.903
2.43714	0.912
2.47816	0.912
2.51917	0.914
2.56019	0.917
2.60121	0.922
2.64222	0.927
2.68324	0.927
2.72425	0.927
2.76527	0.927
2.80628	0.924
2.8473	0.907
2.88832	0.867
2.92933	0.912
2.97035	0.914
3.01136	0.912
3.05238	0.914
3.09339	0.912
3.13441	0.902
3.17543	0.897
3.21644	0.874
3.25746	0.821
3.29847	0.62
3.33949	0.646
3.38051	0.614
3.42152	0.797
3.46254	0.818
3.50355	0.778
3.54457	0.905
3.58558	0.927
3.6266	0.929
3.66762	0.927
3.70863	0.927
3.74965	0.933
3.79066	0.936
3.83168	0.933
3.8727	0.929
3.91371	0.919
3.95473	0.927
3.99574	0.927
4.03676	0.931
4.07777	0.931
4.11879	0.933
4.15981	0.939
4.20082	0.939
4.24184	0.945
4.28285	0.946
4.32387	0.945
4.36488	0.945
4.4059	0.946
4.44692	0.948
4.48793	0.95
4.52895	0.948
4.56996	0.95
4.61098	0.948
4.652	0.939
4.69301	0.939
4.73403	0.922
4.77504	0.936
4.81606	0.95
4.85707	0.938
4.89809	0.926
4.93911	0.938
4.98012	0.945
5.02114	0.946
5.06215	0.95
5.10317	0.95
5.14418	0.948
5.1852	0.943
5.22622	0.934
5.26723	0.931
5.30825	0.912
5.34926	0.927
5.39028	0.934
5.4313	0.924
5.47231	0.895
5.51333	0.84
5.55434	0.802
5.59536	0.722
5.63637	0.397
5.67739	0.061
5.71841	0.048
5.75942	0.188
5.80044	0.396
5.84145	0.571
5.88247	0.662
5.92349	0.777
5.9645	0.797
6.00552	0.821
6.04653	0.833
6.08755	0.84
6.12856	0.838
6.16958	0.828
6.2106	0.813
6.25161	0.799
6.29263	0.795
6.33364	0.826
6.37466	0.854
6.41567	0.854
6.45669	0.845
6.49771	0.835
6.53872	0.835
6.57974	0.838
6.62075	0.833
6.66177	0.816
6.70279	0.794
6.7438	0.761
6.78482	0.689
6.82583	0.514
6.86685	0.365
6.90786	0.202
6.94888	0.157
6.9899	0.19
7.03091	0.411
7.07193	0.675
7.11294	0.739
7.15396	0.749
7.19497	0.747
7.23599	0.722
7.27701	0.734
7.31802	0.751
7.35904	0.737
7.40005	0.708
7.44107	0.646
7.48209	0.56
7.5231	0.457
7.56412	0.307
7.60513	0.171
7.64615	0.101
7.68716	0.18
7.72818	0.2
7.7692	0.106
7.81021	0.156
7.85123	0.259
7.89224	0.186
7.93326	0.078
7.97428	0.078
8.01529	0.212
8.05631	0.343
8.09732	0.401
8.13834	0.365
8.17935	0.334
8.22037	0.269
8.26139	0.168
8.3024	0.097
8.34342	0.135
8.38443	0.209
8.42545	0.252
8.46646	0.339
8.50748	0.452
8.5485	0.572
8.58951	0.653
8.63053	0.67
8.67154	0.65
8.71256	0.545
8.75358	0.341
8.79459	0.277
8.83561	0.427
8.87662	0.603
8.91764	0.694
8.95865	0.74
8.99967	0.768
9.04069	0.792
9.0817	0.794
9.12272	0.801
9.16373	0.818
9.20475	0.819
9.24576	0.811
9.28678	0.792
9.3278	0.746
9.36881	0.703
9.40983	0.584
9.45084	0.368
9.49186	0.233
9.53288	0.252
9.57389	0.379
9.61491	0.531
9.65592	0.607
9.69694	0.643
9.73795	0.682
9.77897	0.715
9.81999	0.759
9.861	0.78
9.90202	0.795
9.94303	0.802
9.98405	0.799
10.0251	0.753
10.0661	0.696
10.1071	0.615
10.1481	0.536
10.1891	0.416
10.2301	0.301
10.2712	0.271
10.3122	0.382
10.3532	0.518
10.3942	0.6
10.4352	0.648
10.4762	0.629
10.5173	0.545
10.5583	0.444
10.5993	0.389
10.6403	0.427
10.6813	0.535
10.7223	0.651
10.7633	0.746
10.8044	0.787
10.8454	0.807
10.8864	0.804
10.9274	0.746
10.9684	0.689
11.0094	0.694
11.0505	0.74
11.0915	0.747
11.1325	0.67
11.1735	0.485
11.2145	0.358
11.2555	0.367
11.2966	0.447
11.3376	0.578
11.3786	0.699
11.4196	0.777
11.4606	0.825
11.5016	0.84
11.5426	0.854
11.5837	0.867
11.6247	0.873
11.6657	0.873
11.7067	0.866
11.7477	0.842
11.7887	0.818
11.8298	0.758
11.8708	0.665
11.9118	0.545
11.9528	0.471
11.9938	0.5
12.0348	0.608
12.0759	0.725
12.1169	0.785
12.1579	0.814
12.1989	0.825
12.2399	0.819
12.2809	0.794
12.3219	0.758
12.363	0.713
12.404	0.658
12.445	0.629
12.486	0.583
12.527	0.478
12.568	0.373
12.6091	0.312
12.6501	0.336
12.6911	0.432
12.7321	0.55
12.7731	0.634
12.8141	0.677
12.8552	0.687
12.8962	0.698
12.9372	0.716
12.9782	0.728
13.0192	0.718
13.0602	0.698
13.1013	0.682
13.1423	0.648
13.1833	0.6
13.2243	0.528
13.2653	0.457
13.3063	0.399
13.3473	0.341
13.3884	0.301
13.4294	0.272
13.4704	0.262
13.5114	0.259
13.5524	0.277
13.5934	0.31
13.6345	0.351
13.6755	0.415
13.7165	0.466
13.7575	0.518
13.7985	0.547
13.8395	0.572
13.8806	0.576
13.9216	0.581
13.9626	0.584
14.0036	0.59
14.0446	0.59
14.0856	0.578
14.1266	0.557
14.1677	0.514
14.2087	0.452
14.2497	0.379
14.2907	0.307
14.3317	0.243
14.3727	0.204
14.4138	0.186
14.4548	0.195
14.4958	0.226
14.5368	0.279
14.5778	0.344
14.6188	0.43
14.6599	0.499
14.7009	0.569
14.7419	0.617
14.7829	0.655
14.8239	0.677
14.8649	0.704
14.9059	0.718
14.947	0.727
14.988	0.737
15.029	0.756
15.07	0.759
15.111	0.759
15.152	0.754
15.1931	0.754
15.2341	0.758
15.2751	0.761
15.3161	0.766
15.3571	0.766
15.3981	0.77
15.4392	0.771
15.4802	0.773
15.5212	0.775
15.5622	0.777
15.6032	0.777
15.6442	0.778
15.6852	0.778
15.7263	0.78
15.7673	0.782
15.8083	0.782
15.8493	0.783
15.8903	0.787
15.9313	0.789
15.9724	0.792
