Infrared Spectrum: Aflatoxin G1
Formula: C17 H12 O7
CAS: 1165-39-5
State: SOLID (0.9 mg / 300 mg KBr DISC)
Class: COBLENTZ III
Instrument: PERKIN-ELMER 180 (GRATING)
Instrument parameters: GRATINGS: 2000, 1000, 500, 250 CM^-^1; FILTER CHANGE: 2970, 2000, 1485, 1000, 743, 500, 372, 250, 186 CM^-^1.
Sampling: TRANSMISSION
Resolution: 2
Origin: K. K. DEB-NCI FREDERICK CANCER RESEARCH CENTER
1/CM	TRANSMITTANCE
403	0.8133
412	0.8124
421	0.8047
430	0.7831
439	0.7494
448	0.7581
457	0.7871
466	0.7683
475	0.7883
484	0.8093
493	0.7792
502	0.686
511	0.7909
520	0.759
529	0.7482
538	0.757
547	0.7744
556	0.7375
565	0.5775
574	0.6407
583	0.7622
592	0.7917
601	0.7604
610	0.7796
619	0.7396
628	0.7048
637	0.7142
646	0.7773
655	0.7589
664	0.7313
673	0.7621
682	0.7347
691	0.7012
700	0.6197
709	0.5601
718	0.5724
727	0.5957
736	0.657
745	0.6627
754	0.6469
763	0.6772
772	0.5545
781	0.658
790	0.5445
799	0.5709
808	0.6068
817	0.5346
826	0.5147
835	0.5057
844	0.6951
853	0.7158
862	0.6717
871	0.6796
880	0.6351
889	0.5679
898	0.4692
907	0.4335
916	0.441
925	0.3787
934	0.3915
943	0.4319
952	0.4681
961	0.4864
970	0.341
979	0.2672
988	0.4131
997	0.5781
1006	0.5699
1015	0.5856
1024	0.4446
1033	0.5166
1042	0.3949
1051	0.4033
1060	0.3898
1069	0.3793
1078	0.6561
1087	0.5035
1096	0.4621
1105	0.3197
1114	0.1763
1123	0.4536
1132	0.4792
1141	0.5144
1150	0.4806
1159	0.364
1168	0.6678
1177	0.7346
1186	0.6027
1195	0.4881
1204	0.2768
1213	0.4454
1222	0.4395
1231	0.478
1240	0.6292
1249	0.5858
1258	0.5862
1267	0.4362
1276	0.6326
1285	0.6233
1294	0.5741
1303	0.2581
1312	0.2907
1321	0.5918
1330	0.7547
1339	0.5788
1348	0.6004
1357	0.4306
1366	0.4559
1375	0.3329
1384	0.463
1393	0.3939
1402	0.5097
1411	0.627
1420	0.5999
1429	0.4054
1438	0.2028
1447	0.4561
1456	0.4957
1465	0.4171
1474	0.2553
1483	0.243
1492	0.5494
1501	0.6957
1510	0.7199
1519	0.6733
1528	0.5253
1537	0.309
1546	0.2287
1555	0.5136
1564	0.6882
1573	0.5431
1582	0.3393
1591	0.199
1600	0.3266
1609	0.3929
1618	0.2214
1627	0.1716
1636	0.1828
1645	0.4086
1654	0.6202
1663	0.7395
1672	0.7721
1681	0.7448
1690	0.5987
1699	0.4782
1708	0.4374
1717	0.5386
1726	0.613
1735	0.4527
1744	0.2925
1753	0.1446
1762	0.073
1771	0.0729
1780	0.186
1789	0.3055
1798	0.3984
1807	0.5058
1816	0.6236
1825	0.7019
1834	0.7503
1843	0.7982
1852	0.8353
1861	0.8529
1870	0.8646
1879	0.8739
1888	0.8781
1897	0.8808
1906	0.884
1915	0.8883
1924	0.892
1933	0.8951
1942	0.8975
1951	0.9002
1960	0.9007
1969	0.8984
1978	0.8957
1987	0.8929
1996	0.8881
2005	0.8851
2014	0.884
2023	0.885
2032	0.8861
2041	0.8864
2050	0.8849
2059	0.8833
2068	0.8817
2077	0.8801
2086	0.8787
2095	0.8772
2104	0.8758
2113	0.8743
2122	0.873
2131	0.8723
2140	0.872
2149	0.8719
2158	0.8729
2167	0.8705
2176	0.8685
2185	0.8695
2194	0.8699
2203	0.8691
2212	0.8672
2221	0.8647
2230	0.8611
2239	0.8572
2248	0.8526
2257	0.848
2266	0.8456
2275	0.8476
2284	0.8499
2293	0.8514
2302	0.8508
2311	0.8493
2320	0.848
2329	0.8465
2338	0.8451
2347	0.8436
2356	0.8422
2365	0.8405
2374	0.8386
2383	0.8366
2392	0.8346
2401	0.8326
2410	0.8309
2419	0.8291
2428	0.8273
2437	0.8259
2446	0.8248
2455	0.8236
2464	0.8223
2473	0.821
2482	0.8186
2491	0.8156
2500	0.8125
2509	0.8106
2518	0.8107
2527	0.8126
2536	0.8136
2545	0.8125
2554	0.8102
2563	0.8076
2572	0.8047
2581	0.8018
2590	0.7997
2599	0.7977
2608	0.797
2617	0.7966
2626	0.7965
2635	0.7963
2644	0.7962
2653	0.7951
2662	0.7941
2671	0.7912
2680	0.7879
2689	0.7872
2698	0.7877
2707	0.7881
2716	0.7891
2725	0.7884
2734	0.7867
2743	0.7845
2752	0.7835
2761	0.7829
2770	0.7819
2779	0.7806
2788	0.7792
2797	0.7768
2806	0.7737
2815	0.7686
2824	0.7587
2833	0.7455
2842	0.7226
2851	0.7221
2860	0.7378
2869	0.746
2878	0.7355
2887	0.709
2896	0.6875
2905	0.6922
2914	0.6865
2923	0.6909
2932	0.6764
2941	0.6593
2950	0.6674
2959	0.6964
2968	0.6981
2977	0.6797
2986	0.6582
2995	0.6546
3004	0.6989
3013	0.7165
3022	0.7292
3031	0.7446
3040	0.7467
3049	0.7464
3058	0.7418
3067	0.7309
3076	0.7145
3085	0.7031
3094	0.6727
3103	0.6794
3112	0.703
3121	0.7104
3130	0.7242
3139	0.7419
3148	0.7519
3157	0.755
3166	0.756
3175	0.7557
3184	0.7551
3193	0.7534
3202	0.7513
3211	0.7483
3220	0.7462
3229	0.7451
3238	0.7452
3247	0.7454
3256	0.7451
3265	0.7441
3274	0.7432
3283	0.7415
3292	0.7392
3301	0.7369
3310	0.7346
3319	0.7313
3328	0.728
3337	0.7247
3346	0.7198
3355	0.7142
3364	0.7087
3373	0.7027
3382	0.6964
3391	0.6901
3400	0.6853
3409	0.6814
3418	0.6859
3427	0.6871
3436	0.6875
3445	0.6875
3454	0.6874
3463	0.6868
3472	0.6864
3481	0.6853
3490	0.6842
3499	0.6826
3508	0.6816
3517	0.6851
3526	0.6892
3535	0.6939
3544	0.6988
3553	0.7037
3562	0.7083
3571	0.7109
3580	0.7135
3589	0.7154
3598	0.7172
3607	0.719
3616	0.7207
3625	0.7219
3634	0.7232
3643	0.7242
3652	0.7235
3661	0.7227
3670	0.7209
3679	0.7202
3688	0.7249
3697	0.7251
3706	0.7254
3715	0.7252
3724	0.7243
3733	0.7234
3742	0.7227
3751	0.7222
3760	0.7218
3769	0.7212
3778	0.7203
3787	0.7195
3796	0.7188
