Infrared Spectrum: 3-(1'-HYDROXY-2'-PENTYL) MERCAPTOTHIOPHENE
Formula: C9 H14 O S2
CAS: 116529-12-5
State: LIQUID
Class: COBLENTZ
Instrument: Not specified, most likely a prism, grating, or hybrid spectrometer.
Sampling: TRANSMISSION
Path length: 0.0025 CM
Resolution: 4
MICROMETERS	TRANSMITTANCE
1.99	0.796
2.02367	0.793
2.05734	0.788
2.09101	0.788
2.12468	0.783
2.15835	0.786
2.19203	0.788
2.2257	0.789
2.25937	0.774
2.29304	0.754
2.32671	0.751
2.36038	0.756
2.39405	0.759
2.42772	0.763
2.46139	0.753
2.49506	0.73
2.52873	0.743
2.5624	0.753
2.59608	0.759
2.62975	0.764
2.66342	0.759
2.69709	0.751
2.73076	0.721
2.76443	0.528
2.7981	0.372
2.83177	0.228
2.86544	0.155
2.89911	0.1
2.93278	0.074
2.96645	0.081
3.00013	0.091
3.0338	0.14
3.06747	0.195
3.10114	0.283
3.13481	0.349
3.16848	0.447
3.20215	0.379
3.23582	0.344
3.26949	0.546
3.30316	0.592
3.33683	0.354
3.3705	0.064
3.40418	0.043
3.43785	0.084
3.47152	0.107
3.50519	0.248
3.53886	0.493
3.57253	0.569
3.6062	0.609
3.63987	0.63
3.67354	0.635
3.70721	0.66
3.74088	0.683
3.77455	0.701
3.80823	0.713
3.8419	0.721
3.87557	0.726
3.90924	0.731
3.94291	0.735
3.97658	0.745
4.01025	0.748
4.04392	0.759
4.07759	0.759
4.11126	0.759
4.14493	0.741
4.1786	0.759
4.21228	0.761
4.24595	0.753
4.27962	0.759
4.31329	0.769
4.34696	0.771
4.38063	0.778
4.4143	0.768
4.44797	0.771
4.48164	0.778
4.51531	0.783
4.54898	0.781
4.58265	0.781
4.61633	0.776
4.65	0.784
4.68367	0.786
4.71734	0.789
4.75101	0.791
4.78468	0.788
4.81835	0.786
4.85202	0.784
4.88569	0.783
4.91936	0.779
4.95303	0.788
4.9867	0.788
5.02038	0.784
5.05405	0.784
5.08772	0.789
5.12139	0.793
5.15506	0.798
5.18873	0.799
5.2224	0.798
5.25607	0.799
5.28974	0.798
5.32341	0.798
5.35708	0.799
5.39075	0.802
5.42443	0.806
5.4581	0.801
5.49177	0.798
5.52544	0.799
5.55911	0.798
5.59278	0.793
5.62645	0.784
5.66012	0.769
5.69379	0.756
5.72746	0.733
5.76113	0.74
5.7948	0.751
5.82848	0.756
5.86215	0.763
5.89582	0.764
5.92949	0.766
5.96316	0.763
5.99683	0.75
6.0305	0.748
6.06417	0.726
6.09784	0.721
6.13151	0.72
6.16518	0.715
6.19885	0.715
6.23253	0.726
6.2662	0.725
6.29987	0.706
6.33354	0.688
6.36721	0.662
6.40088	0.665
6.43455	0.673
6.46822	0.688
6.50189	0.698
6.53556	0.708
6.56923	0.697
6.6029	0.68
6.63658	0.62
6.67025	0.47
6.70392	0.382
6.73759	0.389
6.77126	0.438
6.80493	0.273
6.8386	0.119
6.87227	0.13
6.90594	0.216
6.93961	0.274
6.97328	0.288
7.00695	0.35
7.04063	0.382
7.0743	0.38
7.10797	0.349
7.14164	0.286
7.17531	0.24
7.20898	0.195
7.24265	0.183
7.27632	0.172
7.30999	0.312
7.34366	0.35
7.37733	0.347
7.411	0.221
7.44468	0.175
7.47835	0.327
7.51202	0.387
7.54569	0.42
7.57936	0.432
7.61303	0.433
7.6467	0.415
7.68037	0.384
7.71404	0.379
7.74771	0.407
7.78138	0.43
7.81505	0.417
7.84873	0.4
7.8824	0.395
7.91607	0.408
7.94974	0.437
7.98341	0.428
8.01708	0.42
8.05075	0.417
8.08442	0.418
8.11809	0.458
8.15176	0.49
8.18543	0.481
8.2191	0.447
8.25278	0.402
8.28645	0.367
8.32012	0.319
8.35379	0.223
8.38746	0.197
8.42113	0.274
8.4548	0.342
8.48847	0.37
8.52214	0.407
8.55581	0.465
8.58948	0.529
8.62315	0.584
8.65683	0.622
8.6905	0.647
8.72417	0.66
8.75784	0.665
8.79151	0.667
8.82518	0.64
8.85885	0.607
8.89252	0.549
8.92619	0.486
8.95986	0.403
8.99353	0.357
9.0272	0.339
9.06088	0.336
9.09455	0.299
9.12822	0.274
9.16189	0.301
9.19556	0.38
9.22923	0.302
9.2629	0.225
9.29657	0.14
9.33024	0.139
9.36391	0.11
9.39758	0.092
9.43125	0.082
9.46493	0.077
9.4986	0.074
9.53227	0.069
9.56594	0.069
9.59961	0.081
9.63328	0.096
9.66695	0.096
9.70062	0.104
9.73429	0.105
9.76796	0.112
9.80163	0.13
9.8353	0.144
9.86898	0.153
9.90265	0.175
9.93632	0.173
9.96999	0.178
10.0037	0.19
10.0373	0.221
10.071	0.276
10.1047	0.327
10.1383	0.395
10.172	0.435
10.2057	0.463
10.2394	0.486
10.273	0.495
10.3067	0.483
10.3404	0.453
10.374	0.425
10.4077	0.4
10.4414	0.387
10.4751	0.392
10.5087	0.438
10.5424	0.503
10.5761	0.589
10.6097	0.63
10.6434	0.653
10.6771	0.673
10.7107	0.683
10.7444	0.687
10.7781	0.683
10.8118	0.673
10.8454	0.662
10.8791	0.647
10.9128	0.62
10.9464	0.592
10.9801	0.576
11.0138	0.574
11.0475	0.574
11.0811	0.546
11.1148	0.453
11.1485	0.264
11.1821	0.16
11.2158	0.221
11.2495	0.291
11.2832	0.329
11.3168	0.377
11.3505	0.433
11.3842	0.485
11.4178	0.524
11.4515	0.539
11.4852	0.551
11.5188	0.548
11.5525	0.514
11.5862	0.461
11.6199	0.294
11.6535	0.137
11.6872	0.071
11.7209	0.041
11.7545	0.072
11.7882	0.193
11.8219	0.349
11.8556	0.458
11.8892	0.506
11.9229	0.541
11.9566	0.557
11.9902	0.566
12.0239	0.587
12.0576	0.594
12.0913	0.599
12.1249	0.599
12.1586	0.582
12.1923	0.564
12.2259	0.539
12.2596	0.488
12.2933	0.448
12.3269	0.43
12.3606	0.43
12.3943	0.415
12.428	0.397
12.4616	0.355
12.4953	0.312
12.529	0.268
12.5626	0.22
12.5963	0.167
12.63	0.119
12.6637	0.082
12.6973	0.046
12.731	0.033
12.7647	0.026
12.7983	0.023
12.832	0.023
12.8657	0.026
12.8994	0.033
12.933	0.044
12.9667	0.062
13.0004	0.081
13.034	0.097
13.0677	0.105
13.1014	0.107
13.135	0.117
13.1687	0.124
13.2024	0.13
13.2361	0.134
13.2697	0.15
13.3034	0.17
13.3371	0.216
13.3707	0.248
13.4044	0.286
13.4381	0.312
13.4718	0.352
13.5054	0.389
13.5391	0.42
13.5728	0.456
13.6064	0.466
13.6401	0.491
13.6738	0.5
13.7075	0.504
13.7411	0.506
13.7748	0.506
13.8085	0.503
13.8421	0.498
13.8758	0.498
13.9095	0.491
13.9431	0.483
13.9768	0.476
14.0105	0.466
14.0442	0.45
14.0778	0.438
14.1115	0.417
14.1452	0.408
14.1788	0.389
14.2125	0.372
14.2462	0.355
14.2799	0.346
14.3135	0.326
14.3472	0.316
14.3809	0.301
14.4145	0.293
14.4482	0.289
14.4819	0.279
14.5156	0.289
14.5492	0.298
14.5829	0.304
14.6166	0.321
14.6502	0.336
14.6839	0.35
14.7176	0.364
14.7512	0.372
14.7849	0.389
14.8186	0.397
14.8523	0.402
14.8859	0.41
14.9196	0.413
14.9533	0.415
14.9869	0.422
15.0206	0.42
15.0543	0.42
15.088	0.418
15.1216	0.422
15.1553	0.427
15.189	0.425
15.2226	0.422
15.2563	0.42
15.29	0.418
15.3237	0.418
15.3573	0.415
15.391	0.408
15.4247	0.402
