Infrared Spectrum: Allylamine, N,N-bis(2-ethoxyethyl)-,
Formula: C11 H23 N O2
CAS: 116557-93-8
State: LIQUID (NEAT)
Boiling point: 114-114.5 C AT 20 mmHg
Class: COBLENTZ III
Instrument: BAIRD (GRATING)
Instrument parameters: NaCl PRISM
Path length: 0.003 CM
Resolution: 2
Origin: WYANDOTTE CHEMICALS CORP.
1/CM	TRANSMITTANCE
625	0.7496
634	0.7626
643	0.7726
652	0.7669
661	0.6318
670	0.8127
679	0.857
688	0.8841
697	0.8976
706	0.9057
715	0.9051
724	0.9024
733	0.904
742	0.8992
751	0.8832
760	0.8648
769	0.8235
778	0.7815
787	0.7559
796	0.7159
805	0.7331
814	0.6909
823	0.6801
832	0.652
841	0.6193
850	0.6388
859	0.6989
868	0.7431
877	0.706
886	0.6491
895	0.6457
904	0.5203
913	0.1844
922	0.1315
931	0.3044
940	0.4651
949	0.6111
958	0.6319
967	0.6023
976	0.6018
985	0.4993
994	0.2733
1003	0.2125
1012	0.4002
1021	0.3068
1030	0.2003
1039	0.2288
1048	0.2235
1057	0.2136
1066	0.149
1075	0.1223
1084	0.1033
1093	0.0809
1102	0.0327
1111	0.0237
1120	0.0225
1129	0.0232
1138	0.0232
1147	0.0457
1156	0.1214
1165	0.1665
1174	0.2384
1183	0.3215
1192	0.494
1201	0.6364
1210	0.7074
1219	0.729
1228	0.6771
1237	0.5914
1246	0.5318
1255	0.5121
1264	0.4613
1273	0.4225
1282	0.3865
1291	0.3755
1300	0.3497
1309	0.381
1318	0.4287
1327	0.4214
1336	0.3605
1345	0.3681
1354	0.3453
1363	0.2031
1372	0.3659
1381	0.2392
1390	0.1756
1399	0.3279
1408	0.4717
1417	0.4975
1426	0.4126
1435	0.4009
1444	0.459
1453	0.336
1462	0.2438
1471	0.339
1480	0.3985
1489	0.4929
1498	0.5272
1507	0.5749
1516	0.785
1525	0.8332
1534	0.8458
1543	0.8523
1552	0.8612
1561	0.8809
1570	0.8851
1579	0.9
1588	0.9056
1597	0.9123
1606	0.9119
1615	0.9072
1624	0.9014
1633	0.8935
1642	0.8835
1651	0.7855
1660	0.589
1669	0.8167
1678	0.8895
1687	0.9043
1696	0.9145
1705	0.9218
1714	0.9275
1723	0.9326
1732	0.9367
1741	0.9391
1750	0.941
1759	0.9425
1768	0.9438
1777	0.9451
1786	0.9462
1795	0.9506
1804	0.9505
1813	0.9396
1822	0.924
1831	0.9078
1840	0.8994
1849	0.8998
1858	0.9053
1867	0.9134
1876	0.9247
1885	0.9285
1894	0.9276
1903	0.9252
1912	0.9184
1921	0.9064
1930	0.8964
1939	0.8879
1948	0.8871
1957	0.8869
1966	0.8883
1975	0.8942
1984	0.9043
1993	0.9164
2002	0.9289
2011	0.9405
2020	0.9468
2029	0.948
2038	0.9489
2047	0.9499
2056	0.9505
2065	0.9508
2074	0.9512
2083	0.9489
2092	0.9438
2101	0.9381
2110	0.9358
2119	0.9379
2128	0.9399
2137	0.9418
2146	0.9432
2155	0.9442
2164	0.9439
2173	0.9425
2182	0.94
2191	0.938
2200	0.9367
2209	0.9365
2218	0.9374
2227	0.9383
2236	0.9401
2245	0.942
2254	0.9442
2263	0.9469
2272	0.9493
2281	0.9511
2290	0.9529
2299	0.953
2308	0.9529
2317	0.9517
2326	0.9506
2335	0.9496
2344	0.9488
2353	0.9479
2362	0.9474
2371	0.9476
2380	0.9477
2389	0.948
2398	0.9489
2407	0.9498
2416	0.9507
2425	0.9514
2434	0.952
2443	0.9514
2452	0.9494
2461	0.9479
2470	0.948
2479	0.9481
2488	0.9473
2497	0.9452
2506	0.9426
2515	0.9394
2524	0.9357
2533	0.932
2542	0.9284
2551	0.925
2560	0.9225
2569	0.9167
2578	0.9062
2587	0.8952
2596	0.8832
2605	0.8705
2614	0.8579
2623	0.8495
2632	0.8477
2641	0.847
2650	0.8471
2659	0.8355
2668	0.819
2677	0.7977
2686	0.7678
2695	0.7405
2704	0.708
2713	0.6261
2722	0.6003
2731	0.5762
2740	0.5494
2749	0.5222
2758	0.488
2767	0.3937
2776	0.2991
2785	0.2311
2794	0.1599
2803	0.1089
2812	0.0887
2821	0.0713
2830	0.0571
2839	0.0469
2848	0.0393
2857	0.0334
2866	0.0291
2875	0.026
2884	0.0245
2893	0.0248
2902	0.0287
2911	0.0364
2920	0.0445
2929	0.0568
2938	0.0665
2947	0.0664
2956	0.0631
2965	0.0624
2974	0.0661
2983	0.0714
2992	0.0741
3001	0.1172
3010	0.2031
3019	0.2885
3028	0.3733
3037	0.4576
3046	0.5414
3055	0.6247
3064	0.7076
3073	0.7581
3082	0.7326
3091	0.6923
3100	0.6523
3109	0.6423
3118	0.6429
3127	0.8719
3136	0.8983
3145	0.906
3154	0.9105
3163	0.9133
3172	0.9147
3181	0.9159
3190	0.917
3199	0.9182
3208	0.9195
3217	0.9209
3226	0.9224
3235	0.9251
3244	0.9288
3253	0.9342
3262	0.9394
3271	0.9412
3280	0.9424
3289	0.9433
3298	0.9442
3307	0.9452
3316	0.9467
3325	0.9483
3334	0.95
3343	0.9518
3352	0.9536
3361	0.9553
3370	0.9548
3379	0.9543
3388	0.9539
3397	0.9535
3406	0.9531
3415	0.9531
3424	0.9531
3433	0.953
3442	0.9533
3451	0.9541
3460	0.9551
3469	0.956
3478	0.9575
3487	0.959
3496	0.96
3505	0.9605
3514	0.961
3523	0.9613
3532	0.9611
3541	0.9611
3550	0.9609
3559	0.9609
3568	0.9609
3577	0.961
3586	0.961
3595	0.9612
3604	0.9614
3613	0.9616
3622	0.9618
3631	0.962
3640	0.9623
3649	0.9627
3658	0.9635
3667	0.9644
3676	0.9653
3685	0.9664
3694	0.9675
3703	0.9686
3712	0.9696
3721	0.9701
3730	0.9706
3739	0.9711
3748	0.9715
3757	0.9715
3766	0.9714
3775	0.9713
3784	0.9712
3793	0.9711
3802	0.9707
3811	0.9702
3820	0.9698
3829	0.9693
3838	0.969
3847	0.9685
3856	0.9681
3865	0.9673
3874	0.9665
3883	0.9658
3892	0.965
3901	0.9643
3910	0.9631
3919	0.9618
3928	0.9605
3937	0.9592
3946	0.9578
3955	0.9566
3964	0.9551
3973	0.9535
3982	0.9521
3991	0.9505
4000	0.949
