Infrared Spectrum: S-TRIAZOLO(2,3-A)PYRIMIDIN-7-OL, 2-TRIFLUOROMETHYL-5-METHYL-
Formula: C7 H5 F3 N4 O
CAS: 116529-17-0
State: SOLID (NUJOL)
Class: COBLENTZ
Instrument: Not specified, most likely a prism, grating, or hybrid spectrometer.
Sampling: TRANSMISSION
Resolution: 4
Origin: TENNESSEE EASTMAN COMPANY, RESEARCH LABORATORIES
MICROMETERS	TRANSMITTANCE
2.015	0.513
2.05492	0.515
2.09484	0.52
2.13476	0.523
2.17467	0.526
2.21459	0.533
2.25451	0.54
2.29443	0.528
2.33435	0.531
2.37427	0.54
2.41419	0.546
2.45411	0.56
2.49402	0.583
2.53394	0.596
2.57386	0.601
2.61378	0.608
2.6537	0.633
2.69362	0.643
2.73354	0.648
2.77346	0.655
2.81337	0.66
2.85329	0.655
2.89321	0.398
2.93313	0.358
2.97305	0.568
3.01297	0.35
3.05289	0.2
3.09281	0.331
3.13272	0.37
3.17264	0.363
3.21256	0.433
3.25248	0.441
3.2924	0.396
3.33232	0.27
3.37224	0.083
3.41216	0.053
3.45207	0.048
3.49199	0.05
3.53191	0.148
3.57183	0.201
3.61175	0.233
3.65167	0.251
3.69159	0.255
3.73151	0.268
3.77142	0.268
3.81134	0.283
3.85126	0.318
3.89118	0.345
3.9311	0.373
3.97102	0.398
4.01094	0.431
4.05085	0.463
4.09077	0.498
4.13069	0.518
4.17061	0.526
4.21053	0.55
4.25045	0.553
4.29037	0.553
4.33029	0.571
4.3702	0.626
4.41012	0.646
4.45004	0.656
4.48996	0.681
4.52988	0.696
4.5698	0.698
4.60972	0.715
4.64964	0.728
4.68955	0.736
4.72947	0.745
4.76939	0.755
4.80931	0.761
4.84923	0.763
4.88915	0.765
4.92907	0.775
4.96899	0.776
5.0089	0.786
5.04882	0.79
5.08874	0.791
5.12866	0.796
5.16858	0.796
5.2085	0.796
5.24842	0.793
5.28834	0.795
5.32825	0.796
5.36817	0.793
5.40809	0.785
5.44801	0.775
5.48793	0.77
5.52785	0.763
5.56777	0.745
5.60769	0.701
5.6476	0.685
5.68752	0.641
5.72744	0.541
5.76736	0.391
5.80728	0.271
5.8472	0.075
5.88712	0.11
5.92703	0.205
5.96695	0.263
6.00687	0.261
6.04679	0.2
6.08671	0.205
6.12663	0.161
6.16655	0.186
6.20647	0.191
6.24638	0.276
6.2863	0.293
6.32622	0.173
6.36614	0.083
6.40606	0.096
6.44598	0.143
6.4859	0.203
6.52582	0.325
6.56573	0.326
6.60565	0.308
6.64557	0.306
6.68549	0.323
6.72541	0.143
6.76533	0.125
6.80525	0.095
6.84517	0.1
6.88508	0.118
6.925	0.221
6.96492	0.258
7.00484	0.325
7.04476	0.38
7.08468	0.3
7.1246	0.161
7.16452	0.258
7.20443	0.213
7.24435	0.101
7.28427	0.141
7.32419	0.225
7.36411	0.35
7.40403	0.358
7.44395	0.365
7.48387	0.403
7.52378	0.455
7.5637	0.468
7.60362	0.46
7.64354	0.461
7.68346	0.478
7.72338	0.483
7.7633	0.47
7.80321	0.51
7.84313	0.525
7.88305	0.53
7.92297	0.531
7.96289	0.533
8.00281	0.523
8.04273	0.501
8.08265	0.433
8.12256	0.346
8.16248	0.195
8.2024	0.14
8.24232	0.091
8.28224	0.071
8.32216	0.063
8.36208	0.06
8.402	0.058
8.44191	0.058
8.48183	0.06
8.52175	0.075
8.56167	0.08
8.60159	0.08
8.64151	0.078
8.68143	0.07
8.72135	0.068
8.76126	0.071
8.80118	0.071
8.8411	0.081
8.88102	0.133
8.92094	0.148
8.96086	0.188
9.00078	0.241
9.0407	0.298
9.08061	0.346
9.12053	0.356
9.16045	0.383
9.20037	0.436
9.24029	0.481
9.28021	0.49
9.32013	0.52
9.36005	0.526
9.39996	0.533
9.43988	0.506
9.4798	0.375
9.51972	0.383
9.55964	0.373
9.59956	0.398
9.63948	0.463
9.67939	0.5
9.71931	0.52
9.75923	0.518
9.79915	0.513
9.83907	0.521
9.87899	0.526
9.91891	0.531
9.95883	0.541
9.99874	0.483
10.0387	0.376
10.0786	0.453
10.1185	0.505
10.1584	0.465
10.1983	0.531
10.2383	0.541
10.2782	0.553
10.3181	0.563
10.358	0.571
10.3979	0.576
10.4379	0.585
10.4778	0.588
10.5177	0.595
10.5576	0.6
10.5975	0.601
10.6374	0.603
10.6774	0.605
10.7173	0.606
10.7572	0.611
10.7971	0.616
10.837	0.62
10.877	0.62
10.9169	0.623
10.9568	0.628
10.9967	0.628
11.0366	0.628
11.0766	0.626
11.1165	0.621
11.1564	0.615
11.1963	0.605
11.2362	0.593
11.2761	0.578
11.3161	0.568
11.356	0.55
11.3959	0.525
11.4358	0.515
11.4757	0.506
11.5157	0.485
11.5556	0.461
11.5955	0.441
11.6354	0.435
11.6753	0.478
11.7152	0.52
11.7552	0.526
11.7951	0.523
11.835	0.483
11.8749	0.476
11.9148	0.486
11.9548	0.408
11.9947	0.343
12.0346	0.561
12.0745	0.625
12.1144	0.648
12.1544	0.658
12.1943	0.67
12.2342	0.678
12.2741	0.685
12.314	0.69
12.3539	0.7
12.3939	0.703
12.4338	0.705
12.4737	0.705
12.5136	0.708
12.5535	0.708
12.5935	0.71
12.6334	0.71
12.6733	0.703
12.7132	0.68
12.7531	0.66
12.7931	0.621
12.833	0.598
12.8729	0.593
12.9128	0.528
12.9527	0.36
12.9926	0.418
13.0326	0.535
13.0725	0.523
13.1124	0.425
13.1523	0.318
13.1922	0.286
13.2322	0.318
13.2721	0.438
13.312	0.475
13.3519	0.475
13.3918	0.513
13.4318	0.561
13.4717	0.588
13.5116	0.596
13.5515	0.593
13.5914	0.563
13.6313	0.513
13.6713	0.511
13.7112	0.531
13.7511	0.57
13.791	0.595
13.8309	0.608
13.8709	0.625
13.9108	0.636
13.9507	0.648
13.9906	0.655
14.0305	0.66
14.0705	0.663
14.1104	0.666
14.1503	0.665
14.1902	0.661
14.2301	0.655
14.27	0.646
14.31	0.636
14.3499	0.64
14.3898	0.65
14.4297	0.648
14.4696	0.643
14.5096	0.638
14.5495	0.618
14.5894	0.596
14.6293	0.55
14.6692	0.506
14.7092	0.465
14.7491	0.465
14.789	0.476
14.8289	0.485
14.8688	0.511
14.9087	0.535
14.9487	0.57
14.9886	0.586
15.0285	0.583
15.0684	0.583
15.1083	0.583
15.1483	0.583
15.1882	0.585
15.2281	0.585
15.268	0.586
15.3079	0.59
15.3479	0.593
15.3878	0.591
15.4277	0.595
15.4676	0.593
15.5075	0.593
15.5474	0.593
15.5874	0.593
15.6273	0.593
15.6672	0.593
15.7071	0.595
15.747	0.596
15.787	0.595
15.8269	0.595
15.8668	0.595
15.9067	0.596
15.9466	0.598
