Infrared Spectrum: 1-DIMETHYLAMINO-2,2-DIPHENYL-3-ACETAMIDOPROPANE
Formula: C19 H24 N2 O
CAS: 116595-08-5
State: SOLUTION (7% CHCl3)
Class: COBLENTZ
Instrument: Not specified, most likely a prism, grating, or hybrid spectrometer.
Sampling: TRANSMISSION
Path length: 0.010 CM
Resolution: 4
MICROMETERS	TRANSMITTANCE
2.01	0.978
2.04586	0.976
2.08173	0.975
2.11759	0.975
2.15346	0.971
2.18932	0.971
2.22519	0.964
2.26105	0.959
2.29691	0.957
2.33278	0.957
2.36864	0.955
2.40451	0.957
2.44037	0.957
2.47624	0.962
2.5121	0.962
2.54797	0.948
2.58383	0.957
2.61969	0.957
2.65556	0.957
2.69142	0.955
2.72729	0.939
2.76315	0.939
2.79902	0.952
2.83488	0.934
2.87074	0.909
2.90661	0.8
2.94247	0.778
2.97834	0.833
3.0142	0.831
3.05007	0.821
3.08593	0.81
3.12179	0.801
3.15766	0.8
3.19352	0.803
3.22939	0.801
3.26525	0.768
3.30112	0.732
3.33698	0.515
3.37284	0.454
3.40871	0.548
3.44457	0.6
3.48044	0.67
3.5163	0.631
3.55217	0.614
3.58803	0.709
3.6239	0.589
3.65976	0.686
3.69562	0.847
3.73149	0.87
3.76735	0.899
3.80322	0.909
3.83908	0.913
3.87495	0.913
3.91081	0.916
3.94667	0.913
3.98254	0.913
4.0184	0.909
4.05427	0.895
4.09013	0.893
4.126	0.899
4.16186	0.904
4.19772	0.913
4.23359	0.927
4.26945	0.93
4.30532	0.929
4.34118	0.927
4.37705	0.899
4.41291	0.913
4.44877	0.915
4.48464	0.918
4.5205	0.916
4.55637	0.915
4.59223	0.915
4.6281	0.915
4.66396	0.913
4.69983	0.915
4.73569	0.916
4.77155	0.916
4.80742	0.915
4.84328	0.915
4.87915	0.913
4.91501	0.913
4.95088	0.916
4.98674	0.915
5.0226	0.913
5.05847	0.906
5.09433	0.899
5.1302	0.89
5.16606	0.884
5.20193	0.897
5.23779	0.902
5.27365	0.902
5.30952	0.897
5.34538	0.886
5.38125	0.888
5.41711	0.897
5.45298	0.902
5.48884	0.9
5.5247	0.893
5.56057	0.883
5.59643	0.89
5.6323	0.897
5.66816	0.893
5.70403	0.886
5.73989	0.886
5.77576	0.881
5.81162	0.874
5.84748	0.872
5.88335	0.853
5.91921	0.821
5.95508	0.607
5.99094	0.336
6.02681	0.155
6.06267	0.141
6.09853	0.182
6.1344	0.398
6.17026	0.55
6.20613	0.674
6.24199	0.72
6.27786	0.69
6.31372	0.738
6.34958	0.748
6.38545	0.752
6.42131	0.736
6.45718	0.683
6.49304	0.566
6.52891	0.502
6.56477	0.336
6.60063	0.23
6.6365	0.191
6.67236	0.191
6.70823	0.217
6.74409	0.224
6.77996	0.424
6.81582	0.474
6.85169	0.401
6.88755	0.417
6.92341	0.453
6.95928	0.378
6.99514	0.552
7.03101	0.591
7.06687	0.628
7.10274	0.686
7.1386	0.711
7.17446	0.723
7.21033	0.738
7.24619	0.722
7.28206	0.669
7.31792	0.584
7.35379	0.564
7.38965	0.697
7.42551	0.75
7.46138	0.764
7.49724	0.775
7.53311	0.746
7.56897	0.722
7.60484	0.695
7.6407	0.7
7.67656	0.729
7.71243	0.75
7.74829	0.741
7.78416	0.679
7.82002	0.637
7.85589	0.603
7.89175	0.546
7.92762	0.516
7.96348	0.523
7.99934	0.548
8.03521	0.546
8.07107	0.555
8.10694	0.589
8.1428	0.624
8.17867	0.647
8.21453	0.665
8.25039	0.679
8.28626	0.695
8.32212	0.704
8.35799	0.711
8.39385	0.759
8.42972	0.775
8.46558	0.771
8.50144	0.761
8.53731	0.769
8.57317	0.778
8.60904	0.773
8.6449	0.753
8.68077	0.745
8.71663	0.746
8.75249	0.785
8.78836	0.815
8.82422	0.821
8.86009	0.819
8.89595	0.807
8.93182	0.796
8.96768	0.771
9.00355	0.762
9.03941	0.764
9.07527	0.776
9.11114	0.782
9.147	0.743
9.18287	0.736
9.21873	0.798
9.2546	0.805
9.29046	0.812
9.32632	0.814
9.36219	0.791
9.39805	0.784
9.43392	0.798
9.46978	0.8
9.50565	0.796
9.54151	0.761
9.57737	0.716
9.61324	0.623
9.6491	0.546
9.68497	0.53
9.72083	0.562
9.7567	0.569
9.79256	0.511
9.82843	0.476
9.86429	0.55
9.90015	0.686
9.93602	0.738
9.97188	0.748
10.0077	0.757
10.0436	0.78
10.0795	0.798
10.1153	0.812
10.1512	0.81
10.1871	0.81
10.2229	0.798
10.2588	0.8
10.2947	0.812
10.3305	0.828
10.3664	0.835
10.4023	0.847
10.4381	0.861
10.474	0.874
10.5098	0.879
10.5457	0.884
10.5816	0.884
10.6174	0.888
10.6533	0.886
10.6892	0.886
10.725	0.879
10.7609	0.879
10.7968	0.876
10.8326	0.872
10.8685	0.863
10.9044	0.844
10.9402	0.84
10.9761	0.846
11.0119	0.847
11.0478	0.846
11.0837	0.846
11.1195	0.842
11.1554	0.833
11.1913	0.831
11.2271	0.84
11.263	0.854
11.2989	0.858
11.3347	0.854
11.3706	0.853
11.4065	0.853
11.4423	0.86
11.4782	0.863
11.514	0.861
11.5499	0.853
11.5858	0.846
11.6216	0.826
11.6575	0.824
11.6934	0.828
11.7292	0.835
11.7651	0.849
11.801	0.858
11.8368	0.867
11.8727	0.867
11.9086	0.86
11.9444	0.851
11.9803	0.851
12.0161	0.819
12.052	0.8
12.0879	0.768
12.1237	0.782
12.1596	0.814
12.1955	0.835
12.2313	0.846
12.2672	0.849
12.3031	0.854
12.3389	0.858
12.3748	0.858
12.4107	0.87
12.4465	0.883
12.4824	0.886
12.5183	0.893
12.5541	0.904
12.59	0.913
12.6258	0.922
12.6617	0.93
12.6976	0.938
12.7334	0.945
12.7693	0.948
12.8052	0.953
12.841	0.957
12.8769	0.957
12.9128	0.964
12.9486	0.966
12.9845	0.969
13.0204	0.969
13.0562	0.973
13.0921	0.985
13.1279	0.984
13.1638	0.982
13.1997	0.987
13.2355	0.992
13.2714	1.001
13.3073	1.003
13.3431	1.008
13.379	1.01
13.4149	1.01
13.4507	1.008
13.4866	1.012
13.5225	1.01
13.5583	1.01
13.5942	1.01
13.63	1.01
13.6659	1.01
13.7018	1.008
13.7376	1.01
13.7735	1.008
13.8094	1.008
13.8452	1.003
13.8811	0.994
13.917	0.985
13.9528	0.966
13.9887	0.943
14.0246	0.907
14.0604	0.876
14.0963	0.83
14.1321	0.752
14.168	0.633
14.2039	0.506
14.2397	0.361
14.2756	0.247
14.3115	0.217
14.3473	0.219
14.3832	0.3
14.4191	0.447
14.4549	0.552
14.4908	0.644
14.5267	0.715
14.5625	0.746
14.5984	0.778
14.6342	0.798
14.6701	0.812
14.706	0.826
14.7418	0.838
14.7777	0.846
14.8136	0.854
14.8494	0.874
14.8853	0.883
14.9212	0.884
14.957	0.886
14.9929	0.883
15.0288	0.876
15.0646	0.854
15.1005	0.8
15.1363	0.738
15.1722	0.727
15.2081	0.752
15.2439	0.787
15.2798	0.803
15.3157	0.814
15.3515	0.808
15.3874	0.771
15.4233	0.752
15.4591	0.761
15.495	0.904
15.5309	0.854
