Infrared Spectrum: THIAZOLE, 5-ACETAMIDO-2-(METHYLSULFONYL)-4-NITRO-
Formula: C6 H7 N3 O5 S2
CAS: 116529-25-0
State: SOLID (KBr PELLET)
Melting point: 218 C
Class: COBLENTZ
Instrument: Not specified, most likely a prism, grating, or hybrid spectrometer.
Sampling: TRANSMISSION
Resolution: 4
Origin: TENNESSEE EASTMAN COMPANY, RESEARCH LABORATORIES
MICROMETERS	TRANSMITTANCE
2.02	0.869
2.05987	0.877
2.09973	0.886
2.1396	0.887
2.17946	0.887
2.21933	0.889
2.25919	0.894
2.29906	0.901
2.33893	0.906
2.37879	0.911
2.41866	0.914
2.45852	0.916
2.49839	0.916
2.53826	0.916
2.57812	0.918
2.61799	0.921
2.65785	0.929
2.69772	0.923
2.73758	0.826
2.77745	0.697
2.81732	0.638
2.85718	0.593
2.89705	0.546
2.93691	0.548
2.97678	0.545
3.01665	0.356
3.05651	0.404
3.09638	0.653
3.13624	0.745
3.17611	0.807
3.21597	0.832
3.25584	0.836
3.29571	0.642
3.33557	0.73
3.37544	0.785
3.4153	0.71
3.45517	0.816
3.49504	0.864
3.5349	0.886
3.57477	0.892
3.61463	0.887
3.6545	0.909
3.69436	0.918
3.73423	0.929
3.7741	0.933
3.81396	0.938
3.85383	0.944
3.89369	0.948
3.93356	0.944
3.97342	0.938
4.01329	0.948
4.05316	0.949
4.09302	0.946
4.13289	0.943
4.17275	0.956
4.21262	0.956
4.25249	0.953
4.29235	0.953
4.33222	0.953
4.37208	0.956
4.41195	0.959
4.45181	0.974
4.49168	0.978
4.53155	0.978
4.57141	0.978
4.61128	0.979
4.65114	0.979
4.69101	0.979
4.73088	0.976
4.77074	0.974
4.81061	0.976
4.85047	0.974
4.89034	0.968
4.9302	0.969
4.97007	0.976
5.00994	0.981
5.0498	0.984
5.08967	0.983
5.12953	0.979
5.1694	0.981
5.20926	0.984
5.24913	0.988
5.289	0.988
5.32886	0.983
5.36873	0.981
5.40859	0.983
5.44846	0.984
5.48833	0.988
5.52819	0.986
5.56806	0.979
5.60792	0.971
5.64779	0.959
5.68765	0.949
5.72752	0.916
5.76739	0.872
5.80725	0.712
5.84712	0.282
5.88698	0.142
5.92685	0.525
5.96672	0.775
6.00658	0.792
6.04645	0.777
6.08631	0.742
6.12618	0.729
6.16604	0.73
6.20591	0.757
6.24578	0.787
6.28564	0.806
6.32551	0.795
6.36537	0.724
6.40524	0.419
6.44511	0.076
6.48497	0.053
6.52484	0.083
6.5647	0.04
6.60457	0.095
6.64443	0.469
6.6843	0.628
6.72417	0.469
6.76403	0.068
6.8039	0.162
6.84376	0.431
6.88363	0.541
6.92349	0.439
6.96336	0.351
7.00323	0.272
7.04309	0.188
7.08296	0.157
7.12282	0.16
7.16269	0.173
7.20256	0.178
7.24242	0.137
7.28229	0.115
7.32215	0.133
7.36202	0.098
7.40188	0.048
7.44175	0.165
7.48162	0.232
7.52148	0.088
7.56135	0.025
7.60121	0.061
7.64108	0.247
7.68095	0.182
7.72081	0.168
7.76068	0.399
7.80054	0.531
7.84041	0.521
7.88027	0.481
7.92014	0.406
7.96001	0.267
7.99987	0.279
8.03974	0.6
8.0796	0.727
8.11947	0.712
8.15934	0.63
8.1992	0.474
8.23907	0.244
8.27893	0.118
8.3188	0.123
8.35866	0.242
8.39853	0.413
8.4384	0.55
8.47826	0.648
8.51813	0.697
8.55799	0.697
8.59786	0.518
8.63772	0.11
8.67759	0.026
8.71746	0.036
8.75732	0.2
8.79719	0.429
8.83705	0.704
8.87692	0.794
8.91679	0.846
8.95665	0.879
8.99652	0.892
9.03638	0.911
9.07625	0.918
9.11611	0.926
9.15598	0.924
9.19585	0.913
9.23571	0.857
9.27558	0.698
9.31544	0.53
9.35531	0.585
9.39518	0.712
9.43504	0.812
9.47491	0.842
9.51477	0.844
9.55464	0.819
9.5945	0.789
9.63437	0.784
9.67424	0.792
9.7141	0.801
9.75397	0.78
9.79383	0.697
9.8337	0.573
9.87356	0.548
9.91343	0.657
9.9533	0.767
9.99316	0.829
10.033	0.859
10.0729	0.862
10.1128	0.837
10.1526	0.74
10.1925	0.67
10.2324	0.647
10.2722	0.58
10.3121	0.399
10.352	0.28
10.3918	0.436
10.4317	0.536
10.4716	0.602
10.5114	0.667
10.5513	0.75
10.5911	0.819
10.631	0.879
10.6709	0.913
10.7107	0.933
10.7506	0.941
10.7905	0.944
10.8303	0.948
10.8702	0.949
10.9101	0.936
10.9499	0.872
10.9898	0.727
11.0297	0.59
11.0695	0.744
11.1094	0.864
11.1493	0.918
11.1891	0.936
11.229	0.946
11.2689	0.951
11.3087	0.954
11.3486	0.954
11.3885	0.954
11.4283	0.954
11.4682	0.956
11.5081	0.959
11.5479	0.963
11.5878	0.964
11.6277	0.964
11.6675	0.964
11.7074	0.966
11.7473	0.966
11.7871	0.968
11.827	0.968
11.8669	0.968
11.9067	0.968
11.9466	0.966
11.9865	0.966
12.0263	0.966
12.0662	0.966
12.1061	0.966
12.1459	0.966
12.1858	0.964
12.2256	0.961
12.2655	0.958
12.3054	0.958
12.3452	0.958
12.3851	0.956
12.425	0.949
12.4648	0.939
12.5047	0.924
12.5446	0.884
12.5844	0.826
12.6243	0.685
12.6642	0.409
12.704	0.377
12.7439	0.596
12.7838	0.745
12.8236	0.774
12.8635	0.759
12.9034	0.697
12.9432	0.581
12.9831	0.416
13.023	0.254
13.0628	0.204
13.1027	0.237
13.1426	0.252
13.1824	0.307
13.2223	0.486
13.2622	0.625
13.302	0.712
13.3419	0.767
13.3818	0.801
13.4216	0.817
13.4615	0.826
13.5014	0.831
13.5412	0.839
13.5811	0.844
13.621	0.849
13.6608	0.852
13.7007	0.852
13.7405	0.852
13.7804	0.849
13.8203	0.841
13.8601	0.832
13.9	0.822
13.9399	0.811
13.9797	0.797
14.0196	0.78
14.0595	0.757
14.0993	0.725
14.1392	0.69
14.1791	0.652
14.2189	0.612
14.2588	0.58
14.2987	0.558
14.3385	0.553
14.3784	0.553
14.4183	0.553
14.4581	0.55
14.498	0.526
14.5379	0.471
14.5777	0.419
14.6176	0.394
14.6575	0.401
14.6973	0.434
14.7372	0.483
14.7771	0.528
14.8169	0.568
14.8568	0.602
14.8967	0.625
14.9365	0.643
14.9764	0.65
15.0163	0.65
15.0561	0.648
15.096	0.645
15.1359	0.633
15.1757	0.618
15.2156	0.595
15.2554	0.568
15.2953	0.528
15.3352	0.488
15.375	0.463
15.4149	0.456
15.4548	0.459
15.4946	0.484
15.5345	0.513
15.5744	0.53
15.6142	0.553
15.6541	0.56
15.694	0.57
15.7338	0.575
15.7737	0.576
15.8136	0.576
15.8534	0.578
15.8933	0.58
15.9332	0.58
15.973	0.58
16.0129	0.58
