Infrared Spectrum: 2,2,2'-TRICHLOROPROPIONANILIDE
Formula: C9 H8 Cl3 N O
CAS: 116557-99-4
State: SOLUTION (10% IN CCl4 FOR 5000-1350 CM^-^1, 10% IN CS2 FOR 1350-625 CM^-^1)
Class: COBLENTZ
Instrument: Not specified, most likely a prism, grating, or hybrid spectrometer.
Sampling: TRANSMISSION
Path length: 0.01 CM, 0.01 CM
Resolution: 4
Origin: DOW CHEMICAL COMPANY
MICROMETERS	TRANSMITTANCE
2.029	0.813
2.06812	0.82
2.10723	0.82
2.14635	0.816
2.18546	0.833
2.22458	0.833
2.2637	0.837
2.30281	0.842
2.34193	0.842
2.38104	0.855
2.42016	0.85
2.45928	0.86
2.49839	0.862
2.53751	0.862
2.57663	0.865
2.61574	0.868
2.65486	0.87
2.69397	0.867
2.73309	0.865
2.77221	0.86
2.81132	0.849
2.85044	0.839
2.88955	0.811
2.92867	0.607
2.96779	0.664
3.0069	0.816
3.04602	0.834
3.08513	0.836
3.12425	0.841
3.16337	0.837
3.20248	0.828
3.2416	0.815
3.28072	0.82
3.31983	0.831
3.35895	0.858
3.39806	0.846
3.43718	0.881
3.4763	0.888
3.51541	0.881
3.55453	0.889
3.59364	0.896
3.63276	0.888
3.67188	0.901
3.71099	0.905
3.75011	0.918
3.78922	0.917
3.82834	0.918
3.86746	0.917
3.90657	0.927
3.94569	0.92
3.98481	0.925
4.02392	0.925
4.06304	0.922
4.10215	0.928
4.14127	0.938
4.18039	0.925
4.2195	0.909
4.25862	0.899
4.29773	0.901
4.33685	0.91
4.37597	0.923
4.41508	0.936
4.4542	0.941
4.49331	0.941
4.53243	0.938
4.57155	0.946
4.61066	0.936
4.64978	0.928
4.6889	0.938
4.72801	0.941
4.76713	0.946
4.80624	0.941
4.84536	0.94
4.88448	0.941
4.92359	0.941
4.96271	0.943
5.00182	0.943
5.04094	0.944
5.08006	0.935
5.11917	0.92
5.15829	0.94
5.1974	0.918
5.23652	0.93
5.27564	0.938
5.31475	0.927
5.35387	0.935
5.39299	0.935
5.4321	0.922
5.47122	0.918
5.51033	0.904
5.54945	0.852
5.58857	0.858
5.62768	0.833
5.6668	0.808
5.70591	0.774
5.74503	0.649
5.78415	0.35
5.82326	0.09
5.86238	0.103
5.90149	0.468
5.94061	0.666
5.97973	0.771
6.01884	0.81
6.05796	0.813
6.09708	0.779
6.13619	0.732
6.17531	0.62
6.21442	0.408
6.25354	0.098
6.29266	0.314
6.33177	0.495
6.37089	0.495
6.41	0.38
6.44912	0.22
6.48824	0.115
6.52735	0.04
6.56647	0.059
6.60558	0.144
6.6447	0.359
6.68382	0.596
6.72293	0.727
6.76205	0.606
6.80117	0.617
6.84028	0.63
6.8794	0.309
6.91851	0.076
6.95763	0.591
6.99675	0.709
7.03586	0.683
7.07498	0.779
7.11409	0.821
7.15321	0.813
7.19233	0.714
7.23144	0.551
7.27056	0.85
7.30967	0.857
7.34879	0.871
7.38791	0.873
7.42702	0.849
7.46614	0.8
7.50526	0.742
7.54437	0.622
7.58349	0.431
7.6226	0.207
7.66172	0.259
7.70084	0.622
7.73995	0.768
7.77907	0.782
7.81818	0.862
7.8573	0.873
7.89642	0.865
7.93553	0.842
7.97465	0.771
8.01376	0.62
8.05288	0.596
8.092	0.724
8.13111	0.683
8.17023	0.701
8.20935	0.758
8.24846	0.8
8.28758	0.837
8.32669	0.857
8.36581	0.867
8.40493	0.87
8.44404	0.868
8.48316	0.865
8.52227	0.862
8.56139	0.834
8.60051	0.82
8.63962	0.834
8.67874	0.821
8.71785	0.8
8.75697	0.7
8.79609	0.596
8.8352	0.685
8.87432	0.706
8.91344	0.515
8.95255	0.46
8.99167	0.656
9.03078	0.752
9.0699	0.764
9.10902	0.755
9.14813	0.711
9.18725	0.606
9.22636	0.416
9.26548	0.186
9.3046	0.149
9.34371	0.316
9.38283	0.541
9.42194	0.615
9.46106	0.572
9.50018	0.615
9.53929	0.752
9.57841	0.685
9.61753	0.473
9.65664	0.392
9.69576	0.786
9.73487	0.841
9.77399	0.883
9.81311	0.901
9.85222	0.918
9.89134	0.923
9.93045	0.931
9.96957	0.94
10.0087	0.941
10.0478	0.951
10.0869	0.954
10.126	0.957
10.1652	0.951
10.2043	0.943
10.2434	0.938
10.2825	0.949
10.3216	0.956
10.3607	0.959
10.3998	0.961
10.439	0.956
10.4781	0.946
10.5172	0.931
10.5563	0.897
10.5954	0.81
10.6345	0.737
10.6737	0.813
10.7128	0.816
10.7519	0.752
10.791	0.722
10.8301	0.79
10.8692	0.846
10.9084	0.883
10.9475	0.891
10.9866	0.901
11.0257	0.897
11.0648	0.894
11.1039	0.888
11.1431	0.884
11.1822	0.873
11.2213	0.863
11.2604	0.839
11.2995	0.82
11.3386	0.802
11.3778	0.786
11.4169	0.769
11.456	0.753
11.4951	0.74
11.5342	0.719
11.5733	0.688
11.6124	0.648
11.6516	0.633
11.6907	0.643
11.7298	0.654
11.7689	0.664
11.808	0.695
11.8471	0.748
11.8863	0.769
11.9254	0.79
11.9645	0.803
12.0036	0.81
12.0427	0.808
12.0818	0.807
12.121	0.802
12.1601	0.799
12.1992	0.795
12.2383	0.787
12.2774	0.779
12.3165	0.769
12.3557	0.76
12.3948	0.75
12.4339	0.734
12.473	0.724
12.5121	0.73
12.5512	0.739
12.5903	0.732
12.6295	0.719
12.6686	0.7
12.7077	0.658
12.7468	0.604
12.7859	0.544
12.825	0.495
12.8642	0.474
12.9033	0.476
12.9424	0.51
12.9815	0.539
13.0206	0.555
13.0597	0.541
13.0989	0.502
13.138	0.442
13.1771	0.333
13.2162	0.186
13.2553	0.064
13.2944	0.004
13.3336	0.004
13.3727	0.053
13.4118	0.113
13.4509	0.17
13.49	0.277
13.5291	0.401
13.5683	0.515
13.6074	0.591
13.6465	0.62
13.6856	0.648
13.7247	0.666
13.7638	0.679
13.8029	0.692
13.8421	0.696
13.8812	0.701
13.9203	0.701
13.9594	0.698
13.9985	0.692
14.0376	0.68
14.0768	0.669
14.1159	0.669
14.155	0.662
14.1941	0.659
14.2332	0.654
14.2723	0.649
14.3115	0.641
14.3506	0.635
14.3897	0.625
14.4288	0.612
14.4679	0.589
14.507	0.572
14.5462	0.554
14.5853	0.539
14.6244	0.525
14.6635	0.512
14.7026	0.5
14.7417	0.479
14.7809	0.468
14.82	0.452
14.8591	0.437
14.8982	0.419
14.9373	0.405
14.9764	0.39
15.0155	0.372
15.0547	0.358
15.0938	0.338
15.1329	0.317
15.172	0.299
15.2111	0.283
15.2502	0.264
15.2894	0.249
15.3285	0.236
15.3676	0.222
15.4067	0.213
15.4458	0.21
15.4849	0.213
15.5241	0.218
15.5632	0.225
15.6023	0.243
15.6414	0.252
15.6805	0.26
15.7196	0.269
15.7588	0.273
15.7979	0.282
15.837	0.282
15.8761	0.278
