Infrared Spectrum: 3,4-BIS-(p-CHLORO-PHENYL)-THIOPHENE
Formula: C16 H10 Cl2 S
CAS: 116529-32-9
State: SOLID (1.5% IN KBr PELLET)
Class: COBLENTZ
Instrument: Not specified, most likely a prism, grating, or hybrid spectrometer.
Sampling: TRANSMISSION
Path length: 0.0355 CM THICK
Resolution: 4
Origin: ANDERSON PHYSICAL LABORATORY
1/CM	TRANSMITTANCE
663.551	0.891
671.962	0.893
680.373	0.893
688.785	0.89
697.196	0.875
705.607	0.822
714.018	0.755
722.429	0.752
730.841	0.867
739.252	0.812
747.663	0.72
756.074	0.701
764.485	0.815
772.897	0.7371
781.308	0.4952
789.719	0.364
798.13	0.1841
806.542	0.6119
814.953	0.603
823.364	0.285
831.775	0.169
840.186	0.6946
848.598	0.8479
857.009	0.8301
865.42	0.548
873.831	0.953
882.242	0.954
890.654	0.944
899.065	0.932
907.476	0.896
915.887	0.771
924.298	0.767
932.71	0.8327
941.121	0.875
949.532	0.855
957.943	0.87
966.354	0.897
974.766	0.9
983.177	0.876
991.588	0.848
999.999	0.8
1008.41	0.6452
1016.82	0.352
1025.23	0.8329
1033.64	0.854
1042.06	0.854
1050.47	0.815
1058.88	0.725
1067.29	0.563
1075.7	0.602
1084.11	0.445
1092.52	0.1959
1100.93	0.5248
1109.34	0.8399
1117.76	0.867
1126.17	0.887
1134.58	0.893
1142.99	0.882
1151.4	0.851
1159.81	0.816
1168.22	0.795
1176.63	0.759
1185.05	0.741
1193.46	0.696
1201.87	0.5461
1210.28	0.472
1218.69	0.4511
1227.1	0.5059
1235.51	0.653
1243.92	0.711
1252.34	0.75
1260.75	0.6511
1269.16	0.5131
1277.57	0.4141
1285.98	0.5149
1294.39	0.638
1302.8	0.65
1311.21	0.749
1319.63	0.78
1328.04	0.738
1336.45	0.617
1344.86	0.552
1353.27	0.7259
1361.68	0.735
1370.09	0.683
1378.5	0.714
1386.91	0.675
1395.33	0.582
1403.74	0.639
1412.15	0.693
1420.56	0.666
1428.97	0.573
1437.38	0.469
1445.79	0.48
1454.2	0.588
1462.62	0.587
1471.03	0.557
1479.44	0.376
1487.85	0.396
1496.26	0.468
1504.67	0.433
1513.08	0.659
1521.49	0.6051
1529.91	0.5819
1538.32	0.786
1546.73	0.797
1555.14	0.782
1563.55	0.75
1571.96	0.761
1580.37	0.792
1588.78	0.767
1597.2	0.687
1605.61	0.774
1614.02	0.756
1622.43	0.731
1630.84	0.702
1639.25	0.651
1647.66	0.548
1656.07	0.484
1664.48	0.537
1672.9	0.528
1681.31	0.442
1689.72	0.403
1698.13	0.3251
1706.54	0.3389
1714.95	0.6239
1723.36	0.692
1731.77	0.78
1740.19	0.788
1748.6	0.788
1757.01	0.785
1765.42	0.777
1773.83	0.768
1782.24	0.771
1790.65	0.786
1799.06	0.791
1807.48	0.791
1815.89	0.789
1824.3	0.78
1832.71	0.777
1841.12	0.77
1849.53	0.771
1857.94	0.768
1866.35	0.759
1874.76	0.752
1883.18	0.749
1891.59	0.723
1900	0.681
1908.41	0.674
1916.82	0.749
1925.23	0.756
1933.64	0.755
1942.05	0.75
1950.47	0.749
1958.88	0.749
1967.29	0.749
1975.7	0.747
1984.11	0.749
1992.52	0.755
2000.93	0.7423
2009.34	0.7375
2017.76	0.7325
2026.17	0.731
2034.58	0.731
2042.99	0.729
2051.4	0.7265
2059.81	0.723
2068.22	0.7215
2076.63	0.7195
2085.05	0.7163
2093.46	0.711
2101.87	0.71
2110.28	0.708
2118.69	0.707
2127.1	0.705
2135.51	0.702
2143.92	0.702
2152.33	0.701
2160.75	0.699
2169.16	0.698
2177.57	0.698
2185.98	0.6965
2194.39	0.693
2202.8	0.6885
2211.21	0.6865
2219.62	0.6793
2228.04	0.675
2236.45	0.6733
2244.86	0.667
2253.27	0.6635
2261.68	0.663
2270.09	0.663
2278.5	0.6625
2286.91	0.662
2295.33	0.662
2303.74	0.6583
2312.15	0.652
2320.56	0.6403
2328.97	0.636
2337.38	0.635
2345.79	0.634
2354.2	0.6323
2362.61	0.63
2371.03	0.624
2379.44	0.6175
2387.85	0.615
2396.26	0.612
2404.67	0.6083
2413.08	0.604
2421.49	0.6023
2429.9	0.6
2438.32	0.5985
2446.73	0.597
2455.14	0.59
2463.55	0.587
2471.96	0.5848
2480.37	0.582
2488.78	0.5795
2497.19	0.575
2505.61	0.569
2514.02	0.5665
2522.43	0.566
2530.84	0.564
2539.25	0.5638
2547.66	0.562
2556.07	0.5625
2564.48	0.564
2572.9	0.563
2581.31	0.563
2589.72	0.561
2598.13	0.56
2606.54	0.5595
2614.95	0.558
2623.36	0.557
2631.77	0.555
2640.18	0.5548
2648.6	0.5515
2657.01	0.5483
2665.42	0.542
2673.83	0.536
2682.24	0.5325
2690.65	0.531
2699.06	0.53
2707.47	0.5278
2715.89	0.527
2724.3	0.525
2732.71	0.522
2741.12	0.5151
2749.53	0.512
2757.94	0.507
2766.35	0.501
2774.76	0.4975
2783.18	0.492
2791.59	0.4898
2800	0.481
2808.41	0.4778
2816.82	0.476
2825.23	0.4743
2833.64	0.474
2842.05	0.474
2850.46	0.472
2858.88	0.4683
2867.29	0.463
2875.7	0.456
2884.11	0.4481
2892.52	0.4425
2900.93	0.442
2909.34	0.444
2917.75	0.447
2926.17	0.447
2934.58	0.445
2942.99	0.4435
2951.4	0.4415
2959.81	0.439
2968.22	0.442
2976.63	0.4485
2985.04	0.4505
2993.46	0.451
3001.87	0.451
3010.28	0.45
3018.69	0.448
3027.1	0.4455
3035.51	0.444
3043.92	0.442
3052.33	0.441
3060.75	0.4383
3069.16	0.433
3077.57	0.43
3085.98	0.4325
3094.39	0.4455
3102.8	0.4619
3111.21	0.466
3119.62	0.467
3128.03	0.466
3136.45	0.465
3144.86	0.465
3153.27	0.4625
3161.68	0.4593
3170.09	0.457
3178.5	0.456
3186.91	0.456
3195.32	0.457
3203.74	0.457
3212.15	0.457
3220.56	0.456
3228.97	0.4545
3237.38	0.451
3245.79	0.45
3254.2	0.448
3262.61	0.4507
3271.03	0.451
3279.44	0.4495
3287.85	0.4475
3296.26	0.4418
3304.67	0.438
3313.08	0.4345
3321.49	0.427
3329.9	0.4193
3338.31	0.414
3346.73	0.4118
3355.14	0.411
3363.55	0.411
3371.96	0.409
3380.37	0.4088
3388.78	0.406
3397.19	0.4035
3405.6	0.4
3414.02	0.397
3422.43	0.397
3430.84	0.397
3439.25	0.399
3447.66	0.403
3456.07	0.405
3464.48	0.405
3472.89	0.405
3481.31	0.405
3489.72	0.405
3498.13	0.405
3506.54	0.406
3514.95	0.4087
3523.36	0.412
3531.77	0.412
3540.18	0.412
3548.6	0.4135
3557.01	0.4255
3565.42	0.4315
3573.83	0.435
3582.24	0.4382
3590.65	0.439
3599.06	0.441
3607.47	0.439
3615.88	0.438
3624.3	0.437
3632.71	0.435
3641.12	0.433
3649.53	0.433
3657.94	0.433
3666.35	0.433
3674.76	0.435
3683.17	0.4383
3691.59	0.4415
3700	0.4472
3708.41	0.45
3716.82	0.4433
3725.23	0.4295
3733.64	0.4215
3742.05	0.423
3750.46	0.426
3758.88	0.4295
3767.29	0.4315
3775.7	0.433
3784.11	0.4352
3792.52	0.438
3800.93	0.438
3809.34	0.436
3817.75	0.429
3826.17	0.4181
3834.58	0.4095
3842.99	0.408
3851.4	0.408
3859.81	0.4065
3868.22	0.4005
3876.63	0.4
3885.04	0.4065
3893.45	0.416
3901.87	0.421
3910.28	0.42
3918.69	0.402
3927.1	0.3995
3935.51	0.399
3943.92	0.397
3952.33	0.394
3960.74	0.393
3969.16	0.393
3977.57	0.3989
3985.98	0.4
