Infrared Spectrum: DIETHYL-2,5-DIETHYL SUBERATE
Formula: C16 H30 O4
CAS: 116595-23-4
Class: COBLENTZ
Instrument: Not specified, most likely a prism, grating, or hybrid spectrometer.
Sampling: TRANSMISSION
Path length: 0.0026 CM
Resolution: 4
MICROMETERS	TRANSMITTANCE
2.031	0.904
2.06976	0.912
2.10852	0.904
2.14728	0.886
2.18604	0.863
2.2248	0.855
2.26356	0.873
2.30232	0.883
2.34108	0.881
2.37984	0.883
2.4186	0.894
2.45736	0.905
2.49612	0.915
2.53488	0.918
2.57364	0.915
2.6124	0.925
2.65116	0.914
2.68992	0.917
2.72868	0.912
2.76744	0.886
2.8062	0.888
2.84496	0.86
2.88372	0.868
2.92248	0.901
2.96124	0.884
3	0.88
3.03876	0.88
3.07752	0.883
3.11628	0.875
3.15504	0.873
3.19381	0.87
3.23257	0.844
3.27133	0.734
3.31009	0.32
3.34885	0.069
3.38761	0.035
3.42637	0.1
3.46513	0.247
3.50389	0.358
3.54265	0.748
3.58141	0.829
3.62017	0.862
3.65893	0.87
3.69769	0.891
3.73645	0.897
3.77521	0.905
3.81397	0.918
3.85273	0.92
3.89149	0.923
3.93025	0.928
3.96901	0.931
4.00777	0.935
4.04653	0.936
4.08529	0.936
4.12405	0.936
4.16281	0.935
4.20157	0.927
4.24033	0.901
4.27909	0.904
4.31785	0.909
4.35661	0.931
4.39537	0.943
4.43413	0.948
4.47289	0.951
4.51165	0.952
4.55041	0.954
4.58917	0.951
4.62793	0.951
4.66669	0.949
4.70545	0.944
4.74421	0.94
4.78297	0.935
4.82173	0.928
4.86049	0.925
4.89925	0.925
4.93801	0.92
4.97677	0.925
5.01553	0.925
5.05429	0.93
5.09305	0.93
5.13181	0.918
5.17057	0.933
5.20933	0.931
5.24809	0.917
5.28685	0.912
5.32561	0.917
5.36437	0.914
5.40313	0.917
5.44189	0.899
5.48065	0.888
5.51942	0.863
5.55818	0.803
5.59694	0.706
5.6357	0.586
5.67446	0.369
5.71322	0.097
5.75198	0.011
5.79074	0.009
5.8295	0.058
5.86826	0.283
5.90702	0.439
5.94578	0.611
5.98454	0.739
6.0233	0.799
6.06206	0.834
6.10082	0.862
6.13958	0.871
6.17834	0.881
6.2171	0.893
6.25586	0.897
6.29462	0.897
6.33338	0.891
6.37214	0.888
6.4109	0.878
6.44966	0.886
6.48842	0.868
6.52718	0.87
6.56594	0.854
6.6047	0.836
6.64346	0.803
6.68222	0.756
6.72098	0.559
6.75974	0.448
6.7985	0.205
6.83726	0.15
6.87602	0.223
6.91478	0.27
6.95354	0.452
6.9923	0.499
7.03106	0.492
7.06982	0.565
7.10858	0.507
7.14734	0.369
7.1861	0.267
7.22486	0.149
7.26362	0.108
7.30238	0.178
7.34114	0.416
7.3799	0.359
7.41866	0.332
7.45742	0.376
7.49618	0.397
7.53494	0.382
7.5737	0.354
7.61246	0.298
7.65122	0.236
7.68998	0.21
7.72874	0.252
7.7675	0.272
7.80626	0.231
7.84503	0.158
7.88379	0.106
7.92255	0.081
7.96131	0.077
8.00007	0.077
8.03883	0.087
8.07759	0.09
8.11635	0.095
8.15511	0.09
8.19387	0.095
8.23263	0.09
8.27139	0.077
8.31015	0.059
8.34891	0.04
8.38767	0.024
8.42643	0.025
8.46519	0.019
8.50395	0.012
8.54271	0.014
8.58147	0.017
8.62023	0.022
8.65899	0.022
8.69775	0.032
8.73651	0.05
8.77527	0.124
8.81403	0.215
8.85279	0.239
8.89155	0.22
8.93031	0.199
8.96907	0.2
9.00783	0.209
9.04659	0.196
9.08535	0.147
9.12411	0.147
9.16287	0.188
9.20163	0.277
9.24039	0.351
9.27915	0.411
9.31791	0.45
9.35667	0.45
9.39543	0.41
9.43419	0.397
9.47295	0.387
9.51171	0.353
9.55047	0.298
9.58923	0.21
9.62799	0.149
9.66675	0.118
9.70551	0.121
9.74427	0.157
9.78303	0.251
9.82179	0.392
9.86055	0.542
9.89931	0.615
9.93807	0.685
9.97683	0.734
10.0156	0.769
10.0544	0.79
10.0931	0.811
10.1319	0.821
10.1706	0.831
10.2094	0.841
10.2482	0.841
10.2869	0.837
10.3257	0.823
10.3644	0.813
10.4032	0.808
10.442	0.799
10.4807	0.792
10.5195	0.792
10.5582	0.781
10.597	0.781
10.6358	0.781
10.6745	0.794
10.7133	0.789
10.752	0.782
10.7908	0.781
10.8296	0.777
10.8683	0.777
10.9071	0.792
10.9458	0.813
10.9846	0.836
11.0234	0.85
11.0621	0.86
11.1009	0.873
11.1396	0.873
11.1784	0.873
11.2172	0.876
11.2559	0.876
11.2947	0.87
11.3334	0.858
11.3722	0.847
11.411	0.842
11.4497	0.828
11.4885	0.789
11.5272	0.748
11.566	0.706
11.6048	0.658
11.6435	0.646
11.6823	0.651
11.721	0.67
11.7598	0.701
11.7986	0.742
11.8373	0.768
11.8761	0.787
11.9148	0.803
11.9536	0.821
11.9924	0.849
12.0311	0.863
12.0699	0.871
12.1086	0.878
12.1474	0.875
12.1862	0.854
12.2249	0.837
12.2637	0.818
12.3024	0.792
12.3412	0.771
12.38	0.75
12.4187	0.708
12.4575	0.687
12.4962	0.633
12.535	0.596
12.5738	0.555
12.6125	0.528
12.6513	0.51
12.69	0.504
12.7288	0.508
12.7676	0.518
12.8063	0.542
12.8451	0.56
12.8838	0.583
12.9226	0.598
12.9614	0.612
13.0001	0.615
13.0389	0.619
13.0776	0.622
13.1164	0.63
13.1552	0.64
13.1939	0.653
13.2327	0.661
13.2714	0.675
13.3102	0.693
13.349	0.719
13.3877	0.735
13.4265	0.758
13.4652	0.769
13.504	0.779
13.5428	0.773
13.5815	0.769
13.6203	0.763
13.6591	0.756
13.6978	0.764
13.7366	0.784
13.7753	0.803
13.8141	0.839
13.8529	0.86
13.8916	0.884
13.9304	0.901
13.9691	0.91
14.0079	0.915
14.0467	0.922
14.0854	0.922
14.1242	0.925
14.1629	0.933
14.2017	0.931
14.2405	0.935
14.2792	0.927
14.318	0.931
14.3567	0.923
14.3955	0.925
14.4343	0.93
14.473	0.927
14.5118	0.925
14.5505	0.914
14.5893	0.915
14.6281	0.917
14.6668	0.907
14.7056	0.907
14.7443	0.909
14.7831	0.904
14.8219	0.899
14.8606	0.899
14.8994	0.894
14.9381	0.884
14.9769	0.878
15.0157	0.871
15.0544	0.858
15.0932	0.858
15.1319	0.85
15.1707	0.846
15.2095	0.834
15.2482	0.826
15.287	0.815
15.3257	0.807
15.3645	0.8
15.4033	0.795
15.442	0.787
15.4808	0.774
15.5195	0.768
15.5583	0.763
15.5971	0.756
15.6358	0.755
15.6746	0.752
15.7133	0.745
15.7521	0.739
15.7909	0.726
15.8296	0.722
15.8684	0.713
15.9071	0.705
15.9459	0.701
