Infrared Spectrum: BENZYL 2,2-DIPHENYL-3-DIMETHYLAMINO PROPIONATE
Formula: C24 H25 N O2
CAS: 116594-69-5
State: LIQUID
Class: COBLENTZ
Instrument: Not specified, most likely a prism, grating, or hybrid spectrometer.
Sampling: TRANSMISSION
Path length: CAPILLARY
Resolution: 4
MICROMETERS	TRANSMITTANCE
2.034	0.877
2.06768	0.877
2.10136	0.879
2.13504	0.877
2.16871	0.861
2.20239	0.851
2.23607	0.861
2.26975	0.861
2.30343	0.829
2.33711	0.836
2.37078	0.838
2.40446	0.831
2.43814	0.829
2.47182	0.771
2.5055	0.808
2.53918	0.838
2.57286	0.846
2.60653	0.851
2.64021	0.852
2.67389	0.859
2.70757	0.849
2.74125	0.847
2.77493	0.846
2.8086	0.851
2.84228	0.852
2.87596	0.847
2.90964	0.808
2.94332	0.823
2.977	0.844
3.01067	0.846
3.04435	0.846
3.07803	0.841
3.11171	0.829
3.14539	0.814
3.17907	0.791
3.21275	0.71
3.24642	0.519
3.2801	0.274
3.31378	0.249
3.34746	0.357
3.38114	0.234
3.41482	0.152
3.44849	0.277
3.48217	0.294
3.51585	0.214
3.54953	0.244
3.58321	0.348
3.61689	0.228
3.65057	0.125
3.68424	0.515
3.71792	0.644
3.7516	0.76
3.78528	0.804
3.81896	0.821
3.85264	0.819
3.88631	0.819
3.91999	0.838
3.95367	0.844
3.98735	0.839
4.02103	0.821
4.05471	0.821
4.08839	0.834
4.12206	0.841
4.15574	0.836
4.18942	0.829
4.2231	0.842
4.25678	0.849
4.29046	0.844
4.32413	0.839
4.35781	0.833
4.39149	0.834
4.42517	0.838
4.45885	0.841
4.49253	0.847
4.52621	0.847
4.55988	0.839
4.59356	0.831
4.62724	0.842
4.66092	0.844
4.6946	0.844
4.72828	0.844
4.76195	0.828
4.79563	0.818
4.82931	0.823
4.86299	0.834
4.89667	0.838
4.93035	0.838
4.96402	0.833
4.9977	0.826
5.03138	0.808
5.06506	0.775
5.09874	0.74
5.13242	0.679
5.1661	0.647
5.19977	0.727
5.23345	0.79
5.26713	0.781
5.30081	0.747
5.33449	0.682
5.36817	0.654
5.40184	0.719
5.43552	0.775
5.4692	0.771
5.50288	0.742
5.53656	0.674
5.57024	0.629
5.60392	0.669
5.63759	0.674
5.67127	0.633
5.70495	0.519
5.73863	0.261
5.77231	0.014
5.80599	0.004
5.83966	0.003
5.87334	0.18
5.90702	0.355
5.9407	0.434
5.97438	0.489
6.00806	0.56
6.04174	0.624
6.07541	0.667
6.10909	0.694
6.14277	0.712
6.17645	0.71
6.21013	0.661
6.24381	0.507
6.27748	0.348
6.31116	0.438
6.34484	0.51
6.37852	0.618
6.4122	0.705
6.44588	0.738
6.47955	0.735
6.51323	0.714
6.54691	0.695
6.58059	0.719
6.61427	0.702
6.64795	0.626
6.68163	0.36
6.7153	0.061
6.74898	0.115
6.78266	0.31
6.81634	0.408
6.85002	0.266
6.8837	0.109
6.91737	0.019
6.95105	0.021
6.98473	0.143
7.01841	0.37
7.05209	0.482
7.08577	0.547
7.11945	0.628
7.15312	0.595
7.1868	0.613
7.22048	0.604
7.25416	0.537
7.28784	0.489
7.32152	0.323
7.35519	0.323
7.38887	0.37
7.42255	0.419
7.45623	0.48
7.48991	0.514
7.52359	0.441
7.55727	0.376
7.59094	0.345
7.62462	0.335
7.6583	0.381
7.69198	0.439
7.72566	0.49
7.75934	0.497
7.79301	0.454
7.82669	0.386
7.86037	0.294
7.89405	0.256
7.92773	0.196
7.96141	0.099
7.99508	0.041
8.02876	0.018
8.06244	0.016
8.09612	0.016
8.1298	0.021
8.16348	0.057
8.19716	0.123
8.23083	0.115
8.26451	0.033
8.29819	0.006
8.33187	0.003
8.36555	0.003
8.39923	0.001
8.4329	0.001
8.46658	0.001
8.50026	0.001
8.53394	0.001
8.56762	0.003
8.6013	0.006
8.63498	0.021
8.66865	0.021
8.70233	0.006
8.73601	0.011
8.76969	0.024
8.80337	0.152
8.83705	0.284
8.87072	0.386
8.9044	0.447
8.93808	0.474
8.97176	0.416
9.00544	0.289
9.03912	0.277
9.0728	0.323
9.10647	0.325
9.14015	0.252
9.17383	0.128
9.20751	0.2
9.24119	0.282
9.27487	0.305
9.30854	0.368
9.34222	0.485
9.3759	0.452
9.40958	0.307
9.44326	0.204
9.47694	0.125
9.51062	0.11
9.54429	0.12
9.57797	0.097
9.61165	0.062
9.64533	0.021
9.67901	0.004
9.71269	0.003
9.74636	0.011
9.78004	0.023
9.81372	0.019
9.8474	0.004
9.88108	0.003
9.91476	0.034
9.94843	0.123
9.98211	0.153
10.0158	0.155
10.0495	0.211
10.0831	0.277
10.1168	0.319
10.1505	0.342
10.1842	0.355
10.2179	0.35
10.2515	0.358
10.2852	0.366
10.3189	0.365
10.3526	0.363
10.3863	0.366
10.4199	0.368
10.4536	0.37
10.4873	0.361
10.521	0.366
10.5546	0.37
10.5883	0.373
10.622	0.37
10.6557	0.368
10.6894	0.38
10.723	0.434
10.7567	0.49
10.7904	0.533
10.8241	0.552
10.8578	0.543
10.8914	0.5
10.9251	0.418
10.9588	0.34
10.9925	0.289
11.0261	0.294
11.0598	0.31
11.0935	0.366
11.1272	0.436
11.1609	0.482
11.1945	0.528
11.2282	0.576
11.2619	0.611
11.2956	0.642
11.3293	0.664
11.3629	0.679
11.3966	0.695
11.4303	0.7
11.464	0.702
11.4976	0.702
11.5313	0.702
11.565	0.7
11.5987	0.69
11.6324	0.672
11.666	0.631
11.6997	0.576
11.7334	0.525
11.7671	0.505
11.8007	0.494
11.8344	0.457
11.8681	0.388
11.9018	0.317
11.9355	0.256
11.9691	0.241
12.0028	0.238
12.0365	0.295
12.0702	0.353
12.1039	0.431
12.1375	0.49
12.1712	0.545
12.2049	0.585
12.2386	0.624
12.2722	0.647
12.3059	0.666
12.3396	0.679
12.3733	0.682
12.407	0.687
12.4406	0.689
12.4743	0.69
12.508	0.69
12.5417	0.68
12.5754	0.652
12.609	0.613
12.6427	0.576
12.6764	0.527
12.7101	0.499
12.7437	0.499
12.7774	0.519
12.8111	0.532
12.8448	0.552
12.8785	0.558
12.9121	0.54
12.9458	0.504
12.9795	0.446
13.0132	0.33
13.0469	0.262
13.0805	0.183
13.1142	0.128
13.1479	0.12
13.1816	0.125
13.2152	0.123
13.2489	0.102
13.2826	0.066
13.3163	0.046
13.35	0.033
13.3836	0.028
13.4173	0.044
13.451	0.072
13.4847	0.089
13.5184	0.094
13.552	0.11
13.5857	0.1
13.6194	0.085
13.6531	0.077
13.6867	0.074
13.7204	0.066
13.7541	0.038
13.7878	0.018
13.8215	0.023
13.8551	0.056
13.8888	0.12
13.9225	0.201
13.9562	0.28
13.9898	0.297
14.0235	0.3
14.0572	0.259
14.0909	0.203
14.1246	0.15
14.1582	0.099
14.1919	0.038
14.2256	0.011
14.2593	0.004
14.293	0.003
14.3266	0.001
14.3603	0
14.394	0.001
14.4277	0.004
14.4613	0.008
14.495	0.039
14.5287	0.12
14.5624	0.168
14.5961	0.244
14.6297	0.284
14.6634	0.32
14.6971	0.342
14.7308	0.355
14.7645	0.368
14.7981	0.388
14.8318	0.403
14.8655	0.424
14.8992	0.444
14.9328	0.454
14.9665	0.459
15.0002	0.454
15.0339	0.429
15.0676	0.371
15.1012	0.31
15.1349	0.252
15.1686	0.226
15.2023	0.242
15.236	0.323
15.2696	0.395
15.3033	0.444
15.337	0.477
15.3707	0.48
15.4043	0.477
15.438	0.454
15.4717	0.444
