Infrared Spectrum: DL-4-(2-HYDROXYETHYL)-2-PHENYL-Delta^2-THIAZOLINE HYDROCHLORIDE
Formula: C11 H13 N O S  * H Cl
CAS: 116529-28-3
State: SOLID(MINERAL OIL MULL)
Melting point: 112-123 C
Class: COBLENTZ
Instrument: Not specified, most likely a prism, grating, or hybrid spectrometer.
Sampling: TRANSMISSION
Resolution: 4
Origin: ARTHUR D. LITTLE, INC.
1/CM	TRANSMITTANCE
645.631	0.717
654.216	0.72
662.8	0.716
671.385	0.69
679.969	0.528
688.554	0.744
697.138	0.75
705.723	0.73
714.308	0.656
722.892	0.474
731.477	0.712
740.061	0.783
748.646	0.772
757.23	0.677
765.815	0.618
774.399	0.573
782.984	0.767
791.569	0.769
800.153	0.714
808.738	0.67
817.322	0.75
825.907	0.773
834.491	0.779
843.076	0.783
851.661	0.78
860.245	0.77
868.83	0.785
877.414	0.789
885.999	0.776
894.583	0.763
903.168	0.736
911.753	0.666
920.337	0.74
928.922	0.76
937.506	0.746
946.091	0.734
954.675	0.694
963.26	0.669
971.844	0.71
980.429	0.687
989.014	0.724
997.598	0.73
1006.18	0.732
1014.77	0.726
1023.35	0.716
1031.94	0.749
1040.52	0.749
1049.11	0.746
1057.69	0.737
1066.27	0.727
1074.86	0.723
1083.44	0.742
1092.03	0.743
1100.61	0.739
1109.2	0.736
1117.78	0.73
1126.37	0.722
1134.95	0.716
1143.54	0.703
1152.12	0.663
1160.7	0.684
1169.29	0.723
1177.87	0.726
1186.46	0.709
1195.04	0.704
1203.63	0.703
1212.21	0.691
1220.8	0.676
1229.38	0.626
1237.97	0.616
1246.55	0.693
1255.14	0.699
1263.72	0.689
1272.3	0.686
1280.89	0.68
1289.47	0.671
1298.06	0.669
1306.64	0.657
1315.23	0.657
1323.81	0.64
1332.4	0.628
1340.98	0.606
1349.57	0.6
1358.15	0.59
1366.73	0.525
1375.32	0.452
1383.9	0.472
1392.49	0.534
1401.07	0.654
1409.66	0.676
1418.24	0.648
1426.83	0.606
1435.41	0.571
1444	0.507
1452.58	0.366
1461.16	0.3
1469.75	0.369
1478.33	0.687
1486.92	0.739
1495.5	0.736
1504.09	0.724
1512.67	0.743
1521.26	0.74
1529.84	0.742
1538.43	0.729
1547.01	0.719
1555.59	0.683
1564.18	0.67
1572.76	0.627
1581.35	0.577
1589.93	0.446
1598.52	0.521
1607.1	0.742
1615.69	0.765
1624.27	0.783
1632.86	0.786
1641.44	0.785
1650.03	0.782
1658.61	0.777
1667.19	0.769
1675.78	0.759
1684.36	0.755
1692.95	0.753
1701.53	0.742
1710.12	0.739
1718.7	0.737
1727.29	0.733
1735.87	0.727
1744.46	0.723
1753.04	0.722
1761.62	0.716
1770.21	0.71
1778.79	0.703
1787.38	0.691
1795.96	0.669
1804.55	0.656
1813.13	0.637
1821.72	0.62
1830.3	0.606
1838.89	0.584
1847.47	0.551
1856.05	0.534
1864.64	0.528
1873.22	0.531
1881.81	0.553
1890.39	0.583
1898.98	0.644
1907.56	0.7
1916.15	0.723
1924.73	0.76
1933.32	0.802
1941.9	0.843
1950.48	0.886
1959.07	0.936
1967.65	0.962
1976.24	0.941
1984.82	0.921
1993.41	0.905
2001.99	0.893
2010.58	0.883
2019.16	0.883
2027.75	0.886
2036.33	0.891
2044.92	0.892
2053.5	0.893
2062.08	0.893
2070.67	0.891
2079.25	0.876
2087.84	0.863
2096.42	0.855
2105.01	0.84
2113.59	0.819
2122.18	0.802
2130.76	0.793
2139.35	0.789
2147.93	0.787
2156.51	0.787
2165.1	0.79
2173.68	0.799
2182.27	0.803
2190.85	0.805
2199.44	0.808
2208.02	0.82
2216.61	0.826
2225.19	0.828
2233.78	0.84
2242.36	0.843
2250.94	0.855
2259.53	0.862
2268.11	0.873
2276.7	0.878
2285.28	0.888
2293.87	0.898
2302.45	0.906
2311.04	0.906
2319.62	0.905
2328.21	0.905
2336.79	0.905
2345.37	0.906
2353.96	0.906
2362.54	0.906
2371.13	0.906
2379.71	0.906
2388.3	0.902
2396.88	0.896
2405.47	0.893
2414.05	0.891
2422.64	0.892
2431.22	0.886
2439.81	0.883
2448.39	0.883
2456.97	0.883
2465.56	0.882
2474.14	0.881
2482.73	0.881
2491.31	0.878
2499.9	0.878
2508.48	0.879
2517.07	0.882
2525.65	0.885
2534.24	0.885
2542.82	0.888
2551.4	0.888
2559.99	0.885
2568.57	0.882
2577.16	0.879
2585.74	0.878
2594.33	0.875
2602.91	0.883
2611.5	0.888
2620.08	0.893
2628.67	0.895
2637.25	0.899
2645.83	0.899
2654.42	0.898
2663	0.896
2671.59	0.895
2680.17	0.896
2688.76	0.895
2697.34	0.895
2705.93	0.895
2714.51	0.895
2723.1	0.895
2731.68	0.895
2740.26	0.898
2748.85	0.895
2757.43	0.895
2766.02	0.893
2774.6	0.891
2783.19	0.881
2791.77	0.865
2800.36	0.845
2808.94	0.81
2817.53	0.77
2826.11	0.687
2834.7	0.524
2843.28	0.272
2851.86	0.156
2860.45	0.166
2869.03	0.19
2877.62	0.207
2886.2	0.194
2894.79	0.141
2903.37	0.093
2911.96	0.064
2920.54	0.055
2929.13	0.06
2937.71	0.077
2946.29	0.098
2954.88	0.106
2963.46	0.128
2972.05	0.233
2980.63	0.369
2989.22	0.501
2997.8	0.588
3006.39	0.608
3014.97	0.614
3023.56	0.614
3032.14	0.617
3040.72	0.62
3049.31	0.617
3057.89	0.624
3066.48	0.726
3075.06	0.782
3083.65	0.793
3092.23	0.793
3100.82	0.792
3109.4	0.787
3117.99	0.782
3126.57	0.775
3135.15	0.77
3143.74	0.765
3152.32	0.757
3160.91	0.75
3169.49	0.742
3178.08	0.734
3186.66	0.73
3195.25	0.724
3203.83	0.72
3212.42	0.722
3221	0.726
3229.59	0.734
3238.17	0.739
3246.75	0.743
3255.34	0.749
3263.92	0.759
3272.51	0.762
3281.09	0.762
3289.68	0.762
3298.26	0.76
3306.85	0.757
3315.43	0.755
3324.02	0.75
3332.6	0.746
3341.18	0.739
3349.77	0.733
3358.35	0.732
3366.94	0.73
3375.52	0.729
3384.11	0.727
3392.69	0.727
3401.28	0.73
3409.86	0.739
3418.45	0.749
3427.03	0.763
3435.61	0.776
3444.2	0.787
3452.78	0.797
3461.37	0.803
3469.95	0.808
3478.54	0.812
3487.12	0.815
3495.71	0.816
3504.29	0.813
3512.88	0.815
3521.46	0.816
3530.04	0.818
3538.63	0.815
3547.21	0.816
3555.8	0.815
3564.38	0.813
3572.97	0.815
3581.55	0.813
3590.14	0.813
