Infrared Spectrum: 4,4'-DIACETYL-[2,2'-AZO-1,3,4-THIADIAZOL-5-ONE]
Formula: C8 H6 N6 O4 S2
CAS: 116529-22-7
State: SOLID (KBr PELLET)
Class: COBLENTZ
Instrument: Not specified, most likely a prism, grating, or hybrid spectrometer.
Sampling: TRANSMISSION
Resolution: 4
Origin: NORBERT PETRI
MICROMETERS	TRANSMITTANCE
2.024	0.5
2.06011	0.507
2.09622	0.514
2.13233	0.519
2.16845	0.53
2.20456	0.54
2.24067	0.541
2.27678	0.549
2.31289	0.558
2.349	0.56
2.38511	0.57
2.42123	0.575
2.45734	0.583
2.49345	0.586
2.52956	0.591
2.56567	0.599
2.60178	0.599
2.63789	0.603
2.67401	0.609
2.71012	0.611
2.74623	0.608
2.78234	0.57
2.81845	0.508
2.85456	0.467
2.89067	0.448
2.92679	0.436
2.9629	0.437
2.99901	0.474
3.03512	0.507
3.07123	0.54
3.10734	0.554
3.14345	0.574
3.17956	0.59
3.21568	0.603
3.25179	0.619
3.2879	0.633
3.32401	0.645
3.36012	0.652
3.39623	0.653
3.43234	0.639
3.46846	0.654
3.50457	0.67
3.54068	0.684
3.57679	0.699
3.6129	0.705
3.64901	0.71
3.68512	0.71
3.72124	0.716
3.75735	0.728
3.79346	0.732
3.82957	0.734
3.86568	0.736
3.90179	0.74
3.9379	0.745
3.97402	0.757
4.01013	0.755
4.04624	0.751
4.08235	0.755
4.11846	0.761
4.15457	0.761
4.19068	0.755
4.2268	0.756
4.26291	0.763
4.29902	0.77
4.33513	0.772
4.37124	0.77
4.40735	0.776
4.44346	0.785
4.47958	0.793
4.51569	0.801
4.5518	0.799
4.58791	0.799
4.62402	0.798
4.66013	0.809
4.69624	0.811
4.73236	0.822
4.76847	0.828
4.80458	0.828
4.84069	0.813
4.8768	0.829
4.91291	0.839
4.94902	0.846
4.98513	0.849
5.02125	0.85
5.05736	0.851
5.09347	0.855
5.12958	0.854
5.16569	0.844
5.2018	0.867
5.23791	0.868
5.27403	0.872
5.31014	0.858
5.34625	0.858
5.38236	0.851
5.41847	0.756
5.45458	0.676
5.49069	0.607
5.52681	0.531
5.56292	0.318
5.59903	0.136
5.63514	0.074
5.67125	0.099
5.70736	0.349
5.74347	0.451
5.77959	0.564
5.8157	0.552
5.85181	0.388
5.88792	0.19
5.92403	0.309
5.96014	0.52
5.99625	0.547
6.03237	0.586
6.06848	0.594
6.10459	0.602
6.1407	0.624
6.17681	0.659
6.21292	0.686
6.24903	0.714
6.28515	0.732
6.32126	0.744
6.35737	0.75
6.39348	0.754
6.42959	0.736
6.4657	0.749
6.50181	0.682
6.53793	0.322
6.57404	0.284
6.61015	0.61
6.64626	0.675
6.68237	0.718
6.71848	0.74
6.75459	0.75
6.79071	0.743
6.82682	0.742
6.86293	0.753
6.89904	0.759
6.93515	0.761
6.97126	0.729
7.00737	0.608
7.04348	0.653
7.0796	0.718
7.11571	0.725
7.15182	0.728
7.18793	0.727
7.22404	0.72
7.26015	0.672
7.29626	0.497
7.33238	0.273
7.36849	0.648
7.4046	0.77
7.44071	0.802
7.47682	0.816
7.51293	0.826
7.54904	0.806
7.58516	0.781
7.62127	0.732
7.65738	0.565
7.69349	0.288
7.7296	0.111
7.76571	0.267
7.80182	0.53
7.83794	0.591
7.87405	0.615
7.91016	0.643
7.94627	0.661
7.98238	0.665
8.01849	0.665
8.0546	0.658
8.09072	0.622
8.12683	0.565
8.16294	0.541
8.19905	0.501
8.23516	0.39
8.27127	0.233
8.30738	0.201
8.3435	0.127
8.37961	0.072
8.41572	0.068
8.45183	0.114
8.48794	0.149
8.52405	0.169
8.56016	0.234
8.59628	0.345
8.63239	0.419
8.6685	0.456
8.70461	0.473
8.74072	0.493
8.77683	0.514
8.81294	0.507
8.84905	0.5
8.88517	0.481
8.92128	0.456
8.95739	0.509
8.9935	0.543
9.02961	0.526
9.06572	0.45
9.10183	0.412
9.13795	0.472
9.17406	0.548
9.21017	0.598
9.24628	0.619
9.28239	0.642
9.3185	0.661
9.35461	0.672
9.39073	0.687
9.42684	0.692
9.46295	0.699
9.49906	0.703
9.53517	0.703
9.57128	0.7
9.60739	0.692
9.64351	0.628
9.67962	0.592
9.71573	0.676
9.75184	0.708
9.78795	0.725
9.82406	0.738
9.86017	0.748
9.89629	0.75
9.9324	0.742
9.96851	0.683
10.0046	0.648
10.0407	0.665
10.0768	0.705
10.113	0.727
10.1491	0.754
10.1852	0.759
10.2213	0.721
10.2574	0.501
10.2935	0.34
10.3296	0.265
10.3657	0.416
10.4018	0.591
10.438	0.649
10.4741	0.689
10.5102	0.722
10.5463	0.733
10.5824	0.739
10.6185	0.748
10.6546	0.751
10.6907	0.756
10.7268	0.766
10.763	0.772
10.7991	0.782
10.8352	0.782
10.8713	0.783
10.9074	0.793
10.9435	0.799
10.9796	0.802
11.0157	0.806
11.0519	0.802
11.088	0.789
11.1241	0.762
11.1602	0.759
11.1963	0.778
11.2324	0.794
11.2685	0.804
11.3046	0.809
11.3407	0.812
11.3769	0.817
11.413	0.816
11.4491	0.816
11.4852	0.81
11.5213	0.781
11.5574	0.753
11.5935	0.72
11.6296	0.729
11.6657	0.76
11.7019	0.794
11.738	0.804
11.7741	0.809
11.8102	0.811
11.8463	0.819
11.8824	0.824
11.9185	0.839
11.9546	0.839
11.9907	0.84
12.0269	0.84
12.063	0.841
12.0991	0.841
12.1352	0.846
12.1713	0.849
12.2074	0.85
12.2435	0.845
12.2796	0.84
12.3157	0.839
12.3519	0.839
12.388	0.838
12.4241	0.839
12.4602	0.84
12.4963	0.844
12.5324	0.843
12.5685	0.846
12.6046	0.849
12.6408	0.85
12.6769	0.851
12.713	0.851
12.7491	0.85
12.7852	0.843
12.8213	0.822
12.8574	0.782
12.8935	0.737
12.9296	0.744
12.9658	0.771
13.0019	0.802
13.038	0.816
13.0741	0.826
13.1102	0.839
13.1463	0.841
13.1824	0.843
13.2185	0.845
13.2546	0.85
13.2908	0.856
13.3269	0.856
13.363	0.858
13.3991	0.858
13.4352	0.857
13.4713	0.843
13.5074	0.821
13.5435	0.738
13.5796	0.59
13.6158	0.439
13.6519	0.375
13.688	0.448
13.7241	0.597
13.7602	0.678
13.7963	0.728
13.8324	0.75
13.8685	0.768
13.9047	0.778
13.9408	0.785
13.9769	0.79
14.013	0.794
14.0491	0.799
14.0852	0.8
14.1213	0.804
14.1574	0.809
14.1935	0.809
14.2297	0.812
14.2658	0.818
14.3019	0.823
14.338	0.823
14.3741	0.824
14.4102	0.824
14.4463	0.821
14.4824	0.826
14.5185	0.824
14.5547	0.826
14.5908	0.827
14.6269	0.828
14.663	0.829
14.6991	0.829
14.7352	0.829
14.7713	0.829
14.8074	0.829
14.8435	0.829
14.8797	0.835
14.9158	0.829
14.9519	0.821
14.988	0.817
15.0241	0.828
15.0602	0.835
15.0963	0.835
15.1324	0.838
15.1686	0.83
15.2047	0.828
15.2408	0.826
15.2769	0.815
15.313	0.796
15.3491	0.732
