Infrared Spectrum: UREA, 1-CYCLOHEXYL-3-[3-[2-MERCAPTOETHYL)AMINO]PROPYL]-, HYDROCHLORIDE
Formula: C12 H26 Cl N3 O S
CAS: 116529-37-4
State: SOLID (1 mg / 650 mg KBr DISC)
Class: COBLENTZ III
Instrument: PERKIN-ELMER 521 (GRATING)
Instrument parameters: FILTERS AT 3150, 2500, 2000, 1150, 700, 410 CM ^-^1, GRATING CHANGES AT 2000, 630 CM ^-^1
Sampling: TRANSMISSION
Resolution: 4
Origin: SOUTHERN RES. INSTITUTE
1/CM	TRANSMITTANCE
251.243	0.292
260.421	0.319
269.599	0.347
278.776	0.396
287.954	0.456
297.132	0.503
306.31	0.541
315.488	0.555
324.666	0.57
333.843	0.612
343.021	0.616
352.199	0.632
361.377	0.651
370.555	0.674
379.732	0.696
388.91	0.7
398.088	0.731
407.266	0.739
416.444	0.74
425.622	0.739
434.799	0.733
443.977	0.728
453.155	0.728
462.333	0.73
471.511	0.729
480.688	0.728
489.866	0.726
499.044	0.724
508.222	0.724
517.4	0.723
526.578	0.716
535.755	0.709
544.933	0.706
554.111	0.702
563.289	0.69
572.467	0.68
581.644	0.667
590.822	0.651
600	0.631
609.178	0.602
618.356	0.577
627.534	0.602
636.711	0.614
645.889	0.631
655.067	0.647
664.245	0.67
673.423	0.709
682.6	0.728
691.778	0.742
700.956	0.751
710.134	0.756
719.312	0.757
728.49	0.76
737.667	0.757
746.845	0.732
756.023	0.708
765.201	0.676
774.379	0.707
783.556	0.744
792.734	0.775
801.912	0.78
811.09	0.782
820.268	0.773
829.446	0.759
838.623	0.744
847.801	0.749
856.979	0.761
866.157	0.776
875.335	0.778
884.512	0.742
893.69	0.741
902.868	0.781
912.046	0.789
921.224	0.785
930.402	0.784
939.579	0.785
948.757	0.779
957.935	0.77
967.113	0.757
976.291	0.743
985.468	0.717
994.646	0.702
1003.82	0.707
1013	0.708
1022.18	0.676
1031.36	0.673
1040.54	0.671
1049.71	0.655
1058.89	0.681
1068.07	0.664
1077.25	0.6
1086.42	0.628
1095.6	0.685
1104.78	0.708
1113.96	0.717
1123.14	0.722
1132.31	0.717
1141.49	0.697
1150.67	0.698
1159.85	0.708
1169.02	0.699
1178.2	0.684
1187.38	0.678
1196.56	0.678
1205.74	0.645
1214.91	0.599
1224.09	0.495
1233.27	0.476
1242.45	0.478
1251.63	0.415
1260.8	0.531
1269.98	0.504
1279.16	0.515
1288.34	0.609
1297.51	0.52
1306.69	0.496
1315.87	0.519
1325.05	0.594
1334.23	0.594
1343.4	0.59
1352.58	0.61
1361.76	0.617
1370.94	0.625
1380.11	0.632
1389.29	0.619
1398.47	0.6
1407.65	0.571
1416.83	0.547
1426	0.482
1435.18	0.427
1444.36	0.332
1453.54	0.398
1462.71	0.446
1471.89	0.513
1481.07	0.521
1490.25	0.522
1499.43	0.509
1508.6	0.477
1517.78	0.453
1526.96	0.372
1536.14	0.307
1545.32	0.217
1554.49	0.156
1563.67	0.151
1572.85	0.169
1582.03	0.217
1591.2	0.33
1600.38	0.394
1609.56	0.37
1618.74	0.225
1627.92	0.15
1637.09	0.161
1646.27	0.199
1655.45	0.271
1664.63	0.362
1673.8	0.447
1682.98	0.575
1692.16	0.676
1701.34	0.718
1710.52	0.755
1719.69	0.772
1728.87	0.788
1738.05	0.796
1747.23	0.805
1756.41	0.813
1765.58	0.819
1774.76	0.823
1783.94	0.827
1793.12	0.83
1802.29	0.833
1811.47	0.835
1820.65	0.837
1829.83	0.837
1839.01	0.838
1848.18	0.838
1857.36	0.844
1866.54	0.846
1875.72	0.847
1884.89	0.849
1894.07	0.85
1903.25	0.852
1912.43	0.853
1921.61	0.854
1930.78	0.854
1939.96	0.855
1949.14	0.855
1958.32	0.855
1967.49	0.857
1976.67	0.857
1985.85	0.856
1995.03	0.85
2004.21	0.848
2013.38	0.848
2022.56	0.847
2031.74	0.847
2040.92	0.846
2050.1	0.845
2059.27	0.845
2068.45	0.844
2077.63	0.843
2086.81	0.843
2095.98	0.841
2105.16	0.839
2114.34	0.837
2123.52	0.836
2132.7	0.835
2141.87	0.833
2151.05	0.831
2160.23	0.83
2169.41	0.827
2178.58	0.824
2187.76	0.823
2196.94	0.821
2206.12	0.816
2215.3	0.812
2224.47	0.808
2233.65	0.808
2242.83	0.802
2252.01	0.798
2261.19	0.795
2270.36	0.79
2279.54	0.784
2288.72	0.777
2297.9	0.773
2307.07	0.757
2316.25	0.747
2325.43	0.736
2334.61	0.722
2343.79	0.707
2352.96	0.691
2362.14	0.677
2371.32	0.669
2380.5	0.653
2389.67	0.629
2398.85	0.597
2408.03	0.586
2417.21	0.594
2426.39	0.602
2435.56	0.602
2444.74	0.595
2453.92	0.591
2463.1	0.579
2472.27	0.577
2481.45	0.565
2490.63	0.566
2499.81	0.58
2508.99	0.602
2518.16	0.616
2527.34	0.619
2536.52	0.619
2545.7	0.615
2554.88	0.604
2564.05	0.592
2573.23	0.586
2582.41	0.578
2591.59	0.566
2600.76	0.549
2609.94	0.536
2619.12	0.523
2628.3	0.509
2637.48	0.504
2646.65	0.488
2655.83	0.472
2665.01	0.455
2674.19	0.445
2683.36	0.431
2692.54	0.417
2701.72	0.405
2710.9	0.388
2720.08	0.363
2729.25	0.352
2738.43	0.334
2747.61	0.321
2756.79	0.316
2765.97	0.317
2775.14	0.32
2784.32	0.328
2793.5	0.337
2802.68	0.359
2811.85	0.38
2821.03	0.399
2830.21	0.399
2839.39	0.351
2848.57	0.258
2857.74	0.268
2866.92	0.376
2876.1	0.396
2885.28	0.375
2894.45	0.337
2903.63	0.278
2912.81	0.225
2921.99	0.15
2931.17	0.139
2940.34	0.165
2949.52	0.235
2958.7	0.287
2967.88	0.332
2977.05	0.361
2986.23	0.393
2995.41	0.412
3004.59	0.434
3013.77	0.454
3022.94	0.478
3032.12	0.499
3041.3	0.515
3050.48	0.537
3059.66	0.552
3068.83	0.571
3078.01	0.585
3087.19	0.596
3096.37	0.603
3105.54	0.607
3114.72	0.613
3123.9	0.631
3133.08	0.637
3142.26	0.648
3151.43	0.658
3160.61	0.663
3169.79	0.663
3178.97	0.661
3188.14	0.654
3197.32	0.648
3206.5	0.63
3215.68	0.619
3224.86	0.585
3234.03	0.565
3243.21	0.53
3252.39	0.501
3261.57	0.466
3270.75	0.435
3279.92	0.409
3289.1	0.39
3298.28	0.376
3307.46	0.361
3316.63	0.347
3325.81	0.346
3334.99	0.354
3344.17	0.38
3353.35	0.402
3362.52	0.444
3371.7	0.492
3380.88	0.54
3390.06	0.576
3399.23	0.609
3408.41	0.641
3417.59	0.66
3426.77	0.677
3435.95	0.69
3445.12	0.7
3454.3	0.706
3463.48	0.711
3472.66	0.72
3481.83	0.726
3491.01	0.731
3500.19	0.735
3509.37	0.743
3518.55	0.75
3527.72	0.759
3536.9	0.765
3546.08	0.773
3555.26	0.78
3564.44	0.788
3573.61	0.798
3582.79	0.803
3591.97	0.814
3601.15	0.822
3610.32	0.827
3619.5	0.834
3628.68	0.84
3637.86	0.844
3647.04	0.843
3656.21	0.849
3665.39	0.849
3674.57	0.847
3683.75	0.852
3692.92	0.859
3702.1	0.859
3711.28	0.858
3720.46	0.861
3729.64	0.859
3738.81	0.854
3747.99	0.855
3757.17	0.862
3766.35	0.863
3775.53	0.864
3784.7	0.864
3793.88	0.862
