Infrared Spectrum: Thiopyran, 4-aminotetrahydro-, 1,1-dioxide, hydrochloride
Formula: C5 H12 Cl N O2 S
CAS: 116529-31-8
State: SOLID (1 mg / 650 mg KBr DISC)
Class: COBLENTZ III
Instrument: PERKIN-ELMER 521 (GRATING)
Instrument parameters: FILTERS AT 3150, 2500, 2000, 1150, 700, 410. GRATING CHANGES: 2000, 630
Resolution: 2
Origin: SOUTHERN RESEARCH INSTITUTE
1/CM	TRANSMITTANCE
253	0.3186
262.02	0.3871
271.041	0.4703
280.061	0.4915
289.081	0.5017
298.101	0.4729
307.122	0.3959
316.142	0.4602
325.162	0.5697
334.182	0.6467
343.203	0.7213
352.223	0.7468
361.243	0.75
370.263	0.7094
379.284	0.7714
388.304	0.7798
397.324	0.7753
406.344	0.7717
415.365	0.7429
424.385	0.5699
433.405	0.5567
442.425	0.7293
451.446	0.6294
460.466	0.6459
469.486	0.7789
478.506	0.803
487.527	0.7965
496.547	0.7531
505.567	0.5381
514.588	0.8154
523.608	0.8346
532.628	0.8402
541.648	0.8408
550.669	0.839
559.689	0.838
568.709	0.8314
577.729	0.8148
586.75	0.6626
595.77	0.7835
604.79	0.8501
613.81	0.8485
622.831	0.8488
631.851	0.8504
640.871	0.8522
649.891	0.8488
658.912	0.8447
667.932	0.7783
676.952	0.8398
685.972	0.8609
694.993	0.8533
704.013	0.8233
713.033	0.6222
722.053	0.8658
731.074	0.872
740.094	0.8725
749.114	0.8704
758.134	0.8685
767.155	0.8672
776.175	0.8649
785.195	0.8621
794.216	0.8587
803.236	0.8547
812.256	0.8495
821.276	0.8443
830.297	0.8316
839.317	0.7994
848.337	0.6106
857.357	0.6848
866.378	0.8481
875.398	0.8494
884.418	0.8461
893.438	0.8147
902.459	0.8393
911.479	0.8354
920.499	0.8098
929.519	0.7486
938.54	0.8185
947.56	0.8016
956.58	0.6431
965.6	0.4965
974.621	0.7726
983.641	0.7388
992.661	0.8185
1001.68	0.8101
1010.7	0.7936
1019.72	0.7527
1028.74	0.7204
1037.76	0.5039
1046.78	0.7633
1055.8	0.7753
1064.82	0.7582
1073.84	0.706
1082.86	0.6345
1091.88	0.2463
1100.9	0.6514
1109.92	0.6645
1118.94	0.483
1127.97	0.2624
1136.99	0.6908
1146.01	0.7052
1155.03	0.7923
1164.05	0.8099
1173.07	0.8119
1182.09	0.8042
1191.11	0.7879
1200.13	0.7284
1209.15	0.4169
1218.17	0.6139
1227.19	0.749
1236.21	0.7088
1245.23	0.6203
1254.25	0.3712
1263.27	0.5385
1272.29	0.7401
1281.31	0.5098
1290.33	0.277
1299.35	0.5252
1308.37	0.6711
1317.39	0.6185
1326.41	0.7495
1335.43	0.7414
1344.45	0.7896
1353.47	0.8308
1362.49	0.8295
1371.51	0.8205
1380.53	0.6993
1389.55	0.6836
1398.57	0.7929
1407.59	0.6913
1416.61	0.8338
1425.63	0.8243
1434.65	0.7294
1443.67	0.8379
1452.69	0.8002
1461.71	0.7124
1470.73	0.8258
1479.76	0.8226
1488.78	0.7827
1497.8	0.6375
1506.82	0.3136
1515.84	0.7415
1524.86	0.8394
1533.88	0.8506
1542.9	0.8469
1551.92	0.8422
1560.94	0.8254
1569.96	0.7141
1578.98	0.5624
1588	0.6401
1597.02	0.7184
1606.04	0.8195
1615.06	0.8237
1624.08	0.8252
1633.1	0.8403
1642.12	0.8505
1651.14	0.8596
1660.16	0.8684
1669.18	0.8757
1678.2	0.8808
1687.22	0.8833
1696.24	0.8846
1705.26	0.8847
1714.28	0.8848
1723.3	0.8848
1732.32	0.8849
1741.34	0.8846
1750.36	0.8839
1759.38	0.8821
1768.4	0.8803
1777.42	0.8784
1786.44	0.8768
1795.46	0.8754
1804.48	0.874
1813.5	0.8736
1822.53	0.8743
1831.55	0.8742
1840.57	0.8738
1849.59	0.8733
1858.61	0.872
1867.63	0.87
1876.65	0.8678
1885.67	0.8644
1894.69	0.8611
1903.71	0.857
1912.73	0.8529
1921.75	0.8466
1930.77	0.8396
1939.79	0.829
1948.81	0.8194
1957.83	0.8122
1966.85	0.8059
1975.87	0.7921
1984.89	0.7844
1993.91	0.785
2002.93	0.7918
2011.95	0.7994
2020.97	0.809
2029.99	0.8203
2039.01	0.8311
2048.03	0.8378
2057.05	0.8412
2066.07	0.8421
2075.09	0.8429
2084.11	0.8468
2093.13	0.8495
2102.15	0.8513
2111.17	0.851
2120.19	0.8504
2129.21	0.8495
2138.23	0.8479
2147.25	0.8461
2156.27	0.8446
2165.29	0.8436
2174.32	0.8425
2183.34	0.8411
2192.36	0.8399
2201.38	0.8387
2210.4	0.8369
2219.42	0.835
2228.44	0.8327
2237.46	0.831
2246.48	0.8298
2255.5	0.8287
2264.52	0.8272
2273.54	0.8258
2282.56	0.8236
2291.58	0.8192
2300.6	0.809
2309.62	0.8075
2318.64	0.8136
2327.66	0.814
2336.68	0.8113
2345.7	0.8074
2354.72	0.8029
2363.74	0.7979
2372.76	0.7932
2381.78	0.7891
2390.8	0.7884
2399.82	0.7862
2408.84	0.782
2417.86	0.7779
2426.88	0.7731
2435.9	0.7672
2444.92	0.7603
2453.94	0.7523
2462.96	0.7333
2471.98	0.6923
2481	0.667
2490.02	0.6599
2499.04	0.7359
2508.06	0.7371
2517.08	0.7142
2526.11	0.6737
2535.13	0.6631
2544.15	0.6481
2553.17	0.6538
2562.19	0.6521
2571.21	0.6572
2580.23	0.6468
2589.25	0.6155
2598.27	0.6119
2607.29	0.6726
2616.31	0.6693
2625.33	0.6482
2634.35	0.6448
2643.37	0.6391
2652.39	0.6138
2661.41	0.5963
2670.43	0.5941
2679.45	0.5975
2688.47	0.5916
2697.49	0.5687
2706.51	0.5494
2715.53	0.546
2724.55	0.54
2733.57	0.5254
2742.59	0.52
2751.61	0.4923
2760.63	0.4732
2769.65	0.4546
2778.67	0.4379
2787.69	0.4346
2796.71	0.4352
2805.73	0.4368
2814.75	0.4398
2823.77	0.4445
2832.79	0.4504
2841.81	0.4549
2850.83	0.4537
2859.85	0.4512
2868.88	0.4661
2877.9	0.4824
2886.92	0.4964
2895.94	0.4888
2904.96	0.4851
2913.98	0.4839
2923	0.4876
2932.02	0.504
2941.04	0.5093
2950.06	0.5058
2959.08	0.4922
2968.1	0.4646
2977.12	0.4448
2986.14	0.4998
2995.16	0.4982
3004.18	0.5002
3013.2	0.5153
3022.22	0.5399
3031.24	0.5472
3040.26	0.5487
3049.28	0.5499
3058.3	0.551
3067.32	0.5521
3076.34	0.5532
3085.36	0.5545
3094.38	0.5567
3103.4	0.5601
3112.42	0.5655
3121.44	0.5687
3130.46	0.5713
3139.48	0.5796
3148.5	0.5792
3157.52	0.5776
3166.54	0.5757
3175.56	0.5729
3184.58	0.5698
3193.6	0.5677
3202.62	0.567
3211.64	0.5689
3220.67	0.5761
3229.69	0.5953
3238.71	0.6263
3247.73	0.6627
3256.75	0.6969
3265.77	0.73
3274.79	0.7528
3283.81	0.7703
3292.83	0.7878
3301.85	0.7972
3310.87	0.8011
3319.89	0.8009
3328.91	0.7988
3337.93	0.7944
3346.95	0.7885
3355.97	0.7811
3364.99	0.7712
3374.01	0.7604
3383.03	0.7513
3392.05	0.7434
3401.07	0.7361
3410.09	0.731
3419.11	0.7279
3428.13	0.7255
3437.15	0.7248
3446.17	0.7262
3455.19	0.729
3464.21	0.7319
3473.23	0.7362
3482.25	0.7407
3491.27	0.7432
3500.29	0.7456
3509.31	0.7488
3518.33	0.7521
3527.35	0.7564
3536.37	0.7611
3545.39	0.7662
3554.41	0.7725
3563.44	0.7815
3572.46	0.7915
3581.48	0.8006
3590.5	0.8093
3599.52	0.8184
3608.54	0.8271
3617.56	0.8353
3626.58	0.8435
3635.6	0.851
3644.62	0.857
3653.64	0.8581
3662.66	0.8575
3671.68	0.8629
3680.7	0.8612
3689.72	0.8613
3698.74	0.866
3707.76	0.8696
3716.78	0.8711
3725.8	0.8711
3734.82	0.8708
3743.84	0.8703
3752.86	0.8693
3761.88	0.8686
3770.9	0.8708
3779.92	0.874
3788.94	0.8746
3797.96	0.8732
3806.98	0.8704
