Infrared Spectrum: 2,4-DICHLORO-Alpha-IODO TOLUENE
Formula: C7 H5 Cl2 I
CAS: 116529-35-2
State: SOLUTION (10% CCl4 FOR 5000-1330, 10% CS2 FOR 1330-625 CM^-^1)
Class: COBLENTZ
Instrument: Not specified, most likely a prism, grating, or hybrid spectrometer.
Sampling: TRANSMISSION
Path length: 0.011 CM, 0.011 CM
Resolution: 4
Origin: DOW CHEMICAL COMPANY
MICROMETERS	TRANSMITTANCE
2.027	0.907
2.06702	0.907
2.10703	0.907
2.14705	0.902
2.18707	0.9
2.22709	0.9
2.2671	0.908
2.30712	0.907
2.34714	0.9
2.38716	0.897
2.42717	0.897
2.46719	0.898
2.50721	0.898
2.54723	0.898
2.58724	0.898
2.62726	0.898
2.66728	0.9
2.70729	0.905
2.74731	0.907
2.78733	0.907
2.82735	0.905
2.86736	0.912
2.90738	0.913
2.9474	0.91
2.98742	0.913
3.02743	0.913
3.06745	0.912
3.10747	0.91
3.14749	0.9
3.1875	0.895
3.22752	0.877
3.26754	0.87
3.30755	0.887
3.34757	0.885
3.38759	0.885
3.42761	0.902
3.46762	0.9
3.50764	0.893
3.54766	0.898
3.58768	0.9
3.62769	0.895
3.66771	0.898
3.70773	0.897
3.74775	0.895
3.78776	0.895
3.82778	0.898
3.8678	0.9
3.90782	0.897
3.94783	0.895
3.98785	0.9
4.02787	0.895
4.06788	0.897
4.1079	0.893
4.14792	0.897
4.18794	0.9
4.22795	0.895
4.26797	0.89
4.30799	0.877
4.34801	0.887
4.38802	0.897
4.42804	0.895
4.46806	0.89
4.50808	0.893
4.54809	0.897
4.58811	0.897
4.62813	0.898
4.66814	0.897
4.70816	0.895
4.74818	0.893
4.7882	0.893
4.82821	0.895
4.86823	0.898
4.90825	0.893
4.94827	0.89
4.98828	0.892
5.0283	0.895
5.06832	0.89
5.10834	0.887
5.14835	0.892
5.18837	0.892
5.22839	0.887
5.2684	0.862
5.30842	0.875
5.34844	0.888
5.38846	0.887
5.42847	0.89
5.46849	0.887
5.50851	0.883
5.54853	0.89
5.58854	0.885
5.62856	0.882
5.66858	0.873
5.7086	0.877
5.74861	0.865
5.78863	0.872
5.82865	0.888
5.86866	0.882
5.90868	0.88
5.9487	0.88
5.98872	0.882
6.02873	0.88
6.06875	0.878
6.10877	0.865
6.14879	0.865
6.1888	0.84
6.22882	0.724
6.26884	0.495
6.30886	0.449
6.34887	0.645
6.38889	0.64
6.42891	0.661
6.46892	0.714
6.50894	0.766
6.54896	0.779
6.58898	0.787
6.62899	0.786
6.66901	0.782
6.70903	0.709
6.74905	0.464
6.78906	0.396
6.82908	0.684
6.8691	0.696
6.90912	0.789
6.94913	0.703
6.98915	0.807
7.02917	0.865
7.06918	0.867
7.1092	0.842
7.14922	0.733
7.18924	0.635
7.22925	0.572
7.26927	0.751
7.30929	0.86
7.34931	0.875
7.38932	0.877
7.42934	0.88
7.46936	0.877
7.50938	0.882
7.54939	0.882
7.58941	0.88
7.62943	0.878
7.66945	0.877
7.70946	0.872
7.74948	0.868
7.7895	0.87
7.82951	0.878
7.86953	0.875
7.90955	0.87
7.94957	0.868
7.98958	0.868
8.0296	0.868
8.06962	0.873
8.10964	0.87
8.14965	0.867
8.18967	0.842
8.22969	0.762
8.26971	0.752
8.30972	0.847
8.34974	0.86
8.38976	0.862
8.42977	0.859
8.46979	0.835
8.50981	0.792
8.54983	0.683
8.58984	0.464
8.62986	0.386
8.66988	0.656
8.7099	0.636
8.74991	0.698
8.78993	0.786
8.82995	0.751
8.86997	0.691
8.90998	0.597
8.95	0.504
8.99002	0.484
9.03003	0.529
9.07005	0.678
9.11007	0.751
9.15009	0.777
9.1901	0.769
9.23012	0.653
9.27014	0.578
9.31016	0.759
9.35017	0.837
9.39019	0.84
9.43021	0.802
9.47023	0.665
9.51024	0.477
9.55026	0.684
9.59028	0.827
9.63029	0.86
9.67031	0.875
9.71033	0.882
9.75035	0.885
9.79036	0.887
9.83038	0.892
9.8704	0.897
9.91042	0.9
9.95043	0.905
9.99045	0.903
10.0305	0.905
10.0705	0.897
10.1105	0.903
10.1505	0.903
10.1905	0.908
10.2306	0.902
10.2706	0.905
10.3106	0.903
10.3506	0.902
10.3906	0.902
10.4306	0.898
10.4707	0.893
10.5107	0.89
10.5507	0.882
10.5907	0.882
10.6307	0.895
10.6707	0.895
10.7108	0.893
10.7508	0.895
10.7908	0.902
10.8308	0.895
10.8708	0.895
10.9108	0.9
10.9509	0.898
10.9909	0.895
11.0309	0.893
11.0709	0.893
11.1109	0.892
11.151	0.89
11.191	0.883
11.231	0.882
11.271	0.875
11.311	0.85
11.351	0.829
11.3911	0.787
11.4311	0.716
11.4711	0.545
11.5111	0.356
11.5511	0.414
11.5911	0.618
11.6312	0.665
11.6712	0.605
11.7112	0.444
11.7512	0.203
11.7912	0.157
11.8312	0.457
11.8713	0.661
11.9113	0.734
11.9513	0.762
11.9913	0.761
12.0313	0.716
12.0714	0.63
12.1114	0.504
12.1514	0.446
12.1914	0.517
12.2314	0.53
12.2714	0.447
12.3115	0.441
12.3515	0.625
12.3915	0.737
12.4315	0.809
12.4715	0.844
12.5115	0.857
12.5516	0.867
12.5916	0.87
12.6316	0.873
12.6716	0.878
12.7116	0.88
12.7516	0.885
12.7917	0.885
12.8317	0.887
12.8717	0.887
12.9117	0.887
12.9517	0.887
12.9918	0.888
13.0318	0.888
13.0718	0.888
13.1118	0.888
13.1518	0.888
13.1918	0.885
13.2319	0.885
13.2719	0.883
13.3119	0.885
13.3519	0.88
13.3919	0.878
13.4319	0.875
13.472	0.875
13.512	0.878
13.552	0.872
13.592	0.862
13.632	0.839
13.672	0.784
13.7121	0.708
13.7521	0.633
13.7921	0.656
13.8321	0.756
13.8721	0.809
13.9122	0.842
13.9522	0.844
13.9922	0.814
14.0322	0.769
14.0722	0.739
14.1122	0.757
14.1523	0.8
14.1923	0.842
14.2323	0.86
14.2723	0.873
14.3123	0.878
14.3523	0.882
14.3924	0.887
14.4324	0.885
14.4724	0.887
14.5124	0.887
14.5524	0.887
14.5924	0.885
14.6325	0.883
14.6725	0.887
14.7125	0.882
14.7525	0.88
14.7925	0.875
14.8325	0.875
14.8726	0.872
14.9126	0.87
14.9526	0.868
14.9926	0.865
15.0326	0.865
15.0727	0.864
15.1127	0.86
15.1527	0.857
15.1927	0.854
15.2327	0.849
15.2727	0.844
15.3128	0.84
15.3528	0.837
15.3928	0.835
15.4328	0.835
15.4728	0.84
15.5128	0.84
15.5529	0.84
15.5929	0.839
15.6329	0.837
15.6729	0.839
15.7129	0.84
15.7529	0.844
15.793	0.845
15.833	0.847
15.873	0.847
