Infrared Spectrum: 1-(1-PYRROLIDINYL)-2,2-DIPHENYL-3-(PHENYLACETAMIDO)PROPANE
Formula: C27 H30 N2 O
CAS: 116595-10-9
State: SOLUTION (7% CHCl3)
Class: COBLENTZ
Instrument: Not specified, most likely a prism, grating, or hybrid spectrometer.
Sampling: TRANSMISSION
Path length: 0.010 CM
Resolution: 4
MICROMETERS	TRANSMITTANCE
2.046	0.98
2.08159	0.973
2.11718	0.968
2.15277	0.97
2.18835	0.968
2.22394	0.956
2.25953	0.957
2.29512	0.963
2.33071	0.959
2.3663	0.952
2.40188	0.961
2.43747	0.949
2.47306	0.949
2.50865	0.956
2.54424	0.942
2.57983	0.947
2.61541	0.95
2.651	0.949
2.68659	0.945
2.72218	0.943
2.75777	0.942
2.79336	0.942
2.82894	0.94
2.86453	0.938
2.90012	0.924
2.93571	0.885
2.9713	0.81
3.00689	0.856
3.04247	0.861
3.07806	0.852
3.11365	0.842
3.14924	0.829
3.18483	0.826
3.22042	0.829
3.25601	0.822
3.29159	0.756
3.32718	0.743
3.36277	0.498
3.39836	0.492
3.43395	0.566
3.46954	0.631
3.50512	0.661
3.54071	0.705
3.5763	0.666
3.61189	0.661
3.64748	0.763
3.68307	0.826
3.71865	0.868
3.75424	0.884
3.78983	0.898
3.82542	0.9
3.86101	0.898
3.8966	0.901
3.93218	0.907
3.96777	0.915
4.00336	0.914
4.03895	0.91
4.07454	0.907
4.11013	0.9
4.14572	0.9
4.1813	0.912
4.21689	0.921
4.25248	0.928
4.28807	0.928
4.32366	0.926
4.35925	0.921
4.39483	0.915
4.43042	0.908
4.46601	0.91
4.5016	0.912
4.53719	0.91
4.57278	0.91
4.60836	0.91
4.64395	0.91
4.67954	0.91
4.71513	0.91
4.75072	0.91
4.78631	0.91
4.82189	0.91
4.85748	0.91
4.89307	0.91
4.92866	0.91
4.96425	0.912
4.99984	0.91
5.03542	0.91
5.07101	0.907
5.1066	0.898
5.14219	0.885
5.17778	0.871
5.21337	0.901
5.24896	0.903
5.28454	0.901
5.32013	0.892
5.35572	0.889
5.39131	0.892
5.4269	0.898
5.46249	0.901
5.49807	0.898
5.53366	0.887
5.56925	0.878
5.60484	0.882
5.64043	0.892
5.67602	0.892
5.7116	0.887
5.74719	0.878
5.78278	0.88
5.81837	0.88
5.85396	0.875
5.88955	0.857
5.92513	0.814
5.96072	0.671
5.99631	0.471
6.0319	0.252
6.06749	0.178
6.10308	0.198
6.13867	0.391
6.17425	0.578
6.20984	0.701
6.24543	0.707
6.28102	0.656
6.31661	0.747
6.3522	0.759
6.38778	0.782
6.42337	0.794
6.45896	0.759
6.49455	0.666
6.53014	0.564
6.56573	0.392
6.60131	0.298
6.6369	0.263
6.67249	0.294
6.70808	0.312
6.74367	0.371
6.77926	0.542
6.81484	0.577
6.85043	0.566
6.88602	0.578
6.92161	0.552
6.9572	0.491
6.99279	0.65
7.02837	0.745
7.06396	0.763
7.09955	0.729
7.13514	0.771
7.17073	0.814
7.20632	0.812
7.24191	0.814
7.27749	0.784
7.31308	0.785
7.34867	0.78
7.38426	0.766
7.41985	0.749
7.45544	0.75
7.49102	0.766
7.52661	0.757
7.5622	0.721
7.59779	0.712
7.63338	0.707
7.66897	0.703
7.70455	0.7
7.74014	0.692
7.77573	0.678
7.81132	0.684
7.84691	0.682
7.8825	0.677
7.91808	0.659
7.95367	0.647
7.98926	0.656
8.02485	0.668
8.06044	0.668
8.09603	0.664
8.13162	0.663
8.1672	0.67
8.20279	0.677
8.23838	0.68
8.27397	0.682
8.30956	0.694
8.34515	0.7
8.38073	0.717
8.41632	0.728
8.45191	0.735
8.4875	0.736
8.52309	0.742
8.55868	0.747
8.59426	0.749
8.62985	0.747
8.66544	0.742
8.70103	0.731
8.73662	0.7
8.77221	0.68
8.80779	0.664
8.84338	0.671
8.87897	0.684
8.91456	0.678
8.95015	0.666
8.98574	0.677
9.02132	0.714
9.05691	0.747
9.0925	0.764
9.12809	0.777
9.16368	0.792
9.19927	0.796
9.23486	0.808
9.27044	0.817
9.30603	0.794
9.34162	0.742
9.37721	0.747
9.4128	0.766
9.44839	0.796
9.48397	0.803
9.51956	0.791
9.55515	0.801
9.59074	0.826
9.62633	0.847
9.66192	0.835
9.6975	0.787
9.73309	0.736
9.76868	0.714
9.80427	0.777
9.83986	0.815
9.87545	0.84
9.91103	0.838
9.94662	0.833
9.98221	0.826
10.0178	0.829
10.0534	0.845
10.089	0.849
10.1246	0.847
10.1602	0.843
10.1957	0.838
10.2313	0.829
10.2669	0.831
10.3025	0.843
10.3381	0.845
10.3737	0.847
10.4093	0.847
10.4449	0.854
10.4804	0.861
10.516	0.861
10.5516	0.87
10.5872	0.871
10.6228	0.871
10.6584	0.868
10.694	0.87
10.7296	0.873
10.7652	0.882
10.8007	0.88
10.8363	0.87
10.8719	0.852
10.9075	0.835
10.9431	0.817
10.9787	0.805
11.0143	0.792
11.0499	0.789
11.0855	0.807
11.121	0.821
11.1566	0.828
11.1922	0.829
11.2278	0.828
11.2634	0.821
11.299	0.81
11.3346	0.803
11.3702	0.803
11.4057	0.803
11.4413	0.808
11.4769	0.817
11.5125	0.822
11.5481	0.828
11.5837	0.829
11.6193	0.829
11.6549	0.828
11.6905	0.835
11.726	0.836
11.7616	0.842
11.7972	0.847
11.8328	0.849
11.8684	0.847
11.904	0.845
11.9396	0.842
11.9752	0.84
12.0107	0.842
12.0463	0.847
12.0819	0.857
12.1175	0.868
12.1531	0.871
12.1887	0.873
12.2243	0.88
12.2599	0.887
12.2955	0.887
12.331	0.892
12.3666	0.901
12.4022	0.903
12.4378	0.91
12.4734	0.921
12.509	0.929
12.5446	0.94
12.5802	0.942
12.6158	0.938
12.6513	0.943
12.6869	0.949
12.7225	0.954
12.7581	0.959
12.7937	0.961
12.8293	0.961
12.8649	0.961
12.9005	0.964
12.936	0.966
12.9716	0.97
13.0072	0.97
13.0428	0.97
13.0784	0.971
13.114	0.97
13.1496	0.978
13.1852	0.982
13.2208	0.984
13.2563	0.984
13.2919	0.984
13.3275	0.984
13.3631	0.984
13.3987	0.984
13.4343	0.984
13.4699	0.984
13.5055	0.984
13.5411	0.984
13.5766	0.984
13.6122	0.984
13.6478	0.984
13.6834	0.982
13.719	0.978
13.7546	0.98
13.7902	0.98
13.8258	0.982
13.8613	0.978
13.8969	0.971
13.9325	0.95
13.9681	0.914
14.0037	0.864
14.0393	0.81
14.0749	0.735
14.1105	0.666
14.1461	0.557
14.1816	0.438
14.2172	0.328
14.2528	0.236
14.2884	0.2
14.324	0.208
14.3596	0.273
14.3952	0.375
14.4308	0.494
14.4663	0.598
14.5019	0.654
14.5375	0.721
14.5731	0.756
14.6087	0.787
14.6443	0.805
14.6799	0.821
14.7155	0.829
14.7511	0.845
14.7866	0.856
14.8222	0.857
14.8578	0.857
14.8934	0.857
14.929	0.857
14.9646	0.856
15.0002	0.849
15.0358	0.831
15.0714	0.775
15.1069	0.736
15.1425	0.738
15.1781	0.756
15.2137	0.782
15.2493	0.808
15.2849	0.819
15.3205	0.829
15.3561	0.838
15.3916	0.838
