Infrared Spectrum: Cyclohexanepropionamide, 4,4-dimethyl-2,6-dioxo-
Formula: C11 H17 N O3
CAS: 116594-63-9
State: SOLID (0.8 mg / 650 mg KBr DISC)
Class: COBLENTZ III
Instrument: PERKIN-ELMER 21 (GRATING)
Instrument parameters: FILTER CHANGE ABOUT 1070 CM^-^1
Sampling: TRANSMISSION
Resolution: 2
Origin: SOUTHERN RESEARCH INSTITUTE
1/CM	TRANSMITTANCE
621.815	0.7473
630.852	0.7518
639.889	0.8048
648.927	0.8336
657.964	0.8266
667.001	0.8015
676.038	0.7615
685.076	0.7345
694.113	0.753
703.15	0.7484
712.187	0.6981
721.225	0.7091
730.262	0.7538
739.299	0.7432
748.336	0.7078
757.373	0.6667
766.411	0.6356
775.448	0.6413
784.485	0.6792
793.522	0.707
802.56	0.7327
811.597	0.7758
820.634	0.797
829.671	0.8139
838.709	0.8161
847.746	0.8152
856.783	0.8135
865.82	0.8102
874.857	0.8035
883.895	0.7799
892.932	0.7782
901.969	0.7415
911.006	0.7627
920.044	0.7683
929.081	0.7806
938.118	0.8089
947.155	0.8059
956.193	0.798
965.23	0.7817
974.267	0.7767
983.304	0.7788
992.341	0.7715
1001.38	0.7694
1010.42	0.7575
1019.45	0.7378
1028.49	0.723
1037.53	0.6988
1046.56	0.6433
1055.6	0.5678
1064.64	0.6065
1073.68	0.5634
1082.71	0.4064
1091.75	0.5026
1100.79	0.584
1109.83	0.4998
1118.86	0.3175
1127.9	0.5272
1136.94	0.6067
1145.97	0.5346
1155.01	0.4443
1164.05	0.3574
1173.09	0.5384
1182.12	0.4511
1191.16	0.5186
1200.2	0.4355
1209.24	0.4435
1218.27	0.4198
1227.31	0.2609
1236.35	0.13
1245.38	0.4194
1254.42	0.4221
1263.46	0.3726
1272.5	0.3357
1281.53	0.3279
1290.57	0.4908
1299.61	0.4898
1308.64	0.4316
1317.68	0.3555
1326.72	0.4095
1335.76	0.5076
1344.79	0.5429
1353.83	0.5222
1362.87	0.3968
1371.91	0.4081
1380.94	0.3453
1389.98	0.3669
1399.02	0.4153
1408.05	0.4386
1417.09	0.4569
1426.13	0.5181
1435.17	0.6352
1444.2	0.6059
1453.24	0.4881
1462.28	0.3868
1471.31	0.6253
1480.35	0.6935
1489.39	0.6777
1498.43	0.6552
1507.46	0.6138
1516.5	0.5743
1525.54	0.5544
1534.58	0.4675
1543.61	0.4495
1552.65	0.3154
1561.69	0.253
1570.72	0.1467
1579.76	0.0462
1588.8	0.0478
1597.84	0.0966
1606.87	0.1918
1615.91	0.3225
1624.95	0.3543
1633.98	0.3691
1643.02	0.3102
1652.06	0.2093
1661.1	0.1203
1670.13	0.3153
1679.17	0.5225
1688.21	0.5737
1697.25	0.6031
1706.28	0.6454
1715.32	0.6919
1724.36	0.7509
1733.39	0.7982
1742.43	0.8318
1751.47	0.8516
1760.51	0.8766
1769.54	0.8956
1778.58	0.9101
1787.62	0.9246
1796.66	0.941
1805.69	0.9492
1814.73	0.9562
1823.77	0.9604
1832.8	0.9638
1841.84	0.9666
1850.88	0.9675
1859.92	0.9754
1868.95	0.976
1877.99	0.976
1887.03	0.976
1896.06	0.9762
1905.1	0.976
1914.14	0.9761
1923.18	0.9739
1932.21	0.9713
1941.25	0.9686
1950.29	0.9667
1959.33	0.966
1968.36	0.9659
1977.4	0.9657
1986.44	0.9648
1995.47	0.9633
2004.51	0.9614
2013.55	0.9599
2022.59	0.9586
2031.62	0.9571
2040.66	0.9549
2049.7	0.9526
2058.73	0.9507
2067.77	0.949
2076.81	0.9476
2085.85	0.9472
2094.88	0.9448
2103.92	0.9413
2112.96	0.939
2122	0.9378
2131.03	0.9377
2140.07	0.9331
2149.11	0.9291
2158.14	0.9285
2167.18	0.9288
2176.22	0.93
2185.26	0.927
2194.29	0.9217
2203.33	0.9187
2212.37	0.9157
2221.4	0.9131
2230.44	0.9111
2239.48	0.9045
2248.52	0.9007
2257.55	0.8978
2266.59	0.8941
2275.63	0.8838
2284.67	0.87
2293.7	0.8626
2302.74	0.86
2311.78	0.8568
2320.81	0.8531
2329.85	0.8503
2338.89	0.85
2347.93	0.8497
2356.96	0.8491
2366	0.8473
2375.04	0.8451
2384.08	0.8423
2393.11	0.8389
2402.15	0.8327
2411.19	0.8251
2420.22	0.8177
2429.26	0.8104
2438.3	0.8026
2447.34	0.7947
2456.37	0.788
2465.41	0.7813
2474.45	0.7758
2483.48	0.7707
2492.52	0.7671
2501.56	0.7634
2510.6	0.7587
2519.63	0.7543
2528.67	0.7506
2537.71	0.7455
2546.75	0.7364
2555.78	0.7288
2564.82	0.7208
2573.86	0.7133
2582.89	0.7074
2591.93	0.7018
2600.97	0.6968
2610.01	0.6922
2619.04	0.686
2628.08	0.6807
2637.12	0.6769
2646.15	0.6748
2655.19	0.6719
2664.23	0.6655
2673.27	0.6608
2682.3	0.6561
2691.34	0.6514
2700.38	0.6489
2709.42	0.638
2718.45	0.6306
2727.49	0.6245
2736.53	0.6183
2745.56	0.6123
2754.6	0.6065
2763.64	0.6037
2772.68	0.6018
2781.71	0.5958
2790.75	0.5981
2799.79	0.5751
2808.82	0.5596
2817.86	0.5353
2826.9	0.5011
2835.94	0.4884
2844.97	0.4819
2854.01	0.4789
2863.05	0.4785
2872.09	0.4773
2881.12	0.4614
2890.16	0.4457
2899.2	0.4224
2908.23	0.3644
2917.27	0.3598
2926.31	0.3729
2935.35	0.4023
2944.38	0.4392
2953.42	0.4845
2962.46	0.4971
2971.5	0.5001
2980.53	0.4989
2989.57	0.4981
2998.61	0.4967
3007.64	0.4941
3016.68	0.489
3025.72	0.4813
3034.76	0.4791
3043.79	0.4778
3052.83	0.4751
3061.87	0.4697
3070.9	0.4626
3079.94	0.456
3088.98	0.4527
3098.02	0.4493
3107.05	0.4332
3116.09	0.4085
3125.13	0.3747
3134.17	0.3368
3143.2	0.3295
3152.24	0.3311
3161.28	0.3476
3170.31	0.3762
3179.35	0.4094
3188.39	0.4457
3197.43	0.4706
3206.46	0.491
3215.5	0.5073
3224.54	0.5106
3233.57	0.5108
3242.61	0.5095
3251.65	0.5032
3260.69	0.5009
3269.72	0.4926
3278.76	0.4874
3287.8	0.4819
3296.84	0.4735
3305.87	0.4561
3314.91	0.4644
3323.95	0.4871
3332.98	0.5071
3342.02	0.5044
3351.06	0.4954
3360.1	0.4739
3369.13	0.4242
3378.17	0.3193
3387.21	0.2827
3396.24	0.3452
3405.28	0.4627
3414.32	0.5842
3423.36	0.6651
3432.39	0.6954
3441.43	0.723
3450.47	0.7438
3459.51	0.7617
3468.54	0.7748
3477.58	0.7885
3486.62	0.8036
3495.65	0.8152
3504.69	0.8246
3513.73	0.8331
3522.77	0.842
3531.8	0.8523
3540.84	0.8579
3549.88	0.8648
3558.92	0.8723
3567.95	0.8746
3576.99	0.8843
3586.03	0.8948
3595.06	0.8995
3604.1	0.9017
3613.14	0.9034
3622.18	0.9036
3631.21	0.9055
3640.25	0.9068
3649.29	0.908
3658.32	0.9081
3667.36	0.9074
3676.4	0.9058
3685.44	0.9046
3694.47	0.9036
3703.51	0.903
3712.55	0.9032
3721.59	0.9044
3730.62	0.9067
3739.66	0.9093
3748.7	0.9095
3757.73	0.9069
3766.77	0.9032
3775.81	0.9001
3784.85	0.8987
3793.88	0.8985
3802.92	0.8993
3811.96	0.9
3820.99	0.9
3830.03	0.8999
3839.07	0.8998
3848.11	0.8994
3857.14	0.8987
3866.18	0.8983
3875.22	0.8974
3884.26	0.9012
3893.29	0.9025
3902.33	0.9023
3911.37	0.9025
3920.4	0.9024
3929.44	0.902
3938.48	0.9004
3947.52	0.8969
3956.55	0.8971
3965.59	0.8986
3974.63	0.8993
3983.66	0.8957
3992.7	0.8949
4001.74	0.901
4010.78	0.9025
4019.81	0.9024
4028.85	0.9019
4037.89	0.9008
4046.93	0.9
4055.96	0.9055
4065	0.9125
