Infrared Spectrum: N-(2-BUTYNYL)-N'-(o-METHOXYPHENYL)PIPERAZINE
Formula: C15 H20 N2 O
CAS: 116594-88-8
State: SOLUTION (7% IN CHCl3)
Class: COBLENTZ
Instrument: PERKIN-ELMER
Sampling: TRANSMISSION
Path length: 0.010 CM CELL
Resolution: 4
Origin: ABBOTT LABORATORIES - WASHBURN
MICROMETERS	TRANSMITTANCE
2.025	0.917
2.05798	0.919
2.09096	0.922
2.12394	0.925
2.15692	0.93
2.1899	0.93
2.22288	0.93
2.25586	0.935
2.28884	0.924
2.32182	0.922
2.3548	0.9319
2.38778	0.932
2.42076	0.9251
2.45374	0.9319
2.48672	0.932
2.5197	0.93
2.55268	0.9319
2.58566	0.934
2.61864	0.937
2.65162	0.942
2.6846	0.9479
2.71758	0.9498
2.75056	0.9581
2.78354	0.9452
2.81652	0.939
2.8495	0.942
2.88248	0.937
2.91546	0.9341
2.94844	0.9141
2.98142	0.919
3.0144	0.9141
3.04738	0.9092
3.08036	0.906
3.11334	0.904
3.14632	0.9092
3.1793	0.912
3.21228	0.8738
3.24526	0.856
3.27824	0.8314
3.31122	0.5852
3.3442	0.4564
3.37717	0.388
3.41015	0.4257
3.44313	0.5335
3.47611	0.5927
3.50909	0.3848
3.54207	0.4875
3.57505	0.698
3.60803	0.7291
3.64101	0.8219
3.67399	0.861
3.70697	0.8689
3.73995	0.884
3.77293	0.9189
3.80591	0.922
3.83889	0.924
3.87187	0.924
3.90485	0.9141
3.93783	0.909
3.97081	0.8971
4.00379	0.8941
4.03677	0.894
4.06975	0.9039
4.10273	0.925
4.13571	0.93
4.16869	0.9568
4.20167	0.9532
4.23465	0.9619
4.26763	0.955
4.30061	0.9521
4.33359	0.9431
4.36657	0.939
4.39955	0.9368
4.43253	0.9352
4.46551	0.932
4.49849	0.9468
4.53147	0.9498
4.56445	0.952
4.59743	0.9568
4.63041	0.958
4.66339	0.955
4.69637	0.953
4.72935	0.9532
4.76233	0.952
4.79531	0.95
4.82829	0.9421
4.86127	0.9321
4.89425	0.9371
4.92723	0.947
4.96021	0.953
4.99319	0.9479
5.02617	0.943
5.05915	0.947
5.09213	0.947
5.12511	0.952
5.15809	0.9408
5.19107	0.9329
5.22405	0.9382
5.25703	0.945
5.29001	0.9381
5.32299	0.9344
5.35597	0.9434
5.38895	0.948
5.42193	0.947
5.45491	0.9433
5.48789	0.945
5.52087	0.945
5.55385	0.945
5.58683	0.949
5.61981	0.9404
5.65279	0.9343
5.68577	0.929
5.71875	0.9346
5.75173	0.9445
5.78471	0.9435
5.81769	0.942
5.85067	0.934
5.88365	0.937
5.91663	0.939
5.94961	0.9333
5.98259	0.929
6.01557	0.924
6.04855	0.932
6.08152	0.9302
6.1145	0.9292
6.14748	0.9157
6.18046	0.8981
6.21344	0.75
6.24642	0.5879
6.2794	0.6545
6.31238	0.8008
6.34536	0.8726
6.37834	0.891
6.41132	0.911
6.4443	0.9106
6.47728	0.9019
6.51026	0.8777
6.54324	0.8452
6.57622	0.7948
6.6092	0.5377
6.64218	0.1273
6.67516	0.3124
6.70814	0.6796
6.74112	0.754
6.7741	0.7093
6.80708	0.39
6.84006	0.3787
6.87304	0.2292
6.90602	0.5129
6.939	0.5743
6.97198	0.6377
7.00496	0.7477
7.03794	0.8102
7.07092	0.82
7.1039	0.8134
7.13688	0.7856
7.16986	0.7613
7.20284	0.7644
7.23582	0.6581
7.2688	0.7073
7.30178	0.6987
7.33476	0.7778
7.36774	0.7817
7.40072	0.5876
7.4337	0.5441
7.46668	0.5476
7.49966	0.493
7.53264	0.6176
7.56562	0.6582
7.5986	0.5641
7.63158	0.6326
7.66456	0.5789
7.69754	0.4425
7.73052	0.5377
7.7635	0.6783
7.79648	0.7336
7.82946	0.7133
7.86244	0.6611
7.89542	0.6513
7.9284	0.6314
7.96138	0.5036
7.99436	0.3344
8.02734	0.1432
8.06032	0.1
8.0933	0.1315
8.12628	0.1808
8.15926	0.2391
8.19224	0.2749
8.22522	0.3138
8.2582	0.3586
8.29118	0.3927
8.32416	0.4972
8.35714	0.6983
8.39012	0.7961
8.4231	0.7888
8.45608	0.5368
8.48906	0.538
8.52204	0.6514
8.55502	0.699
8.588	0.714
8.62098	0.716
8.65396	0.7039
8.68694	0.6465
8.71992	0.5882
8.7529	0.3675
8.78587	0.245
8.81885	0.3186
8.85183	0.4766
8.88481	0.5743
8.91779	0.4904
8.95077	0.4576
8.98375	0.511
9.01673	0.5488
9.04971	0.585
9.08269	0.706
9.11567	0.7944
9.14865	0.8225
9.18163	0.8508
9.21461	0.8724
9.24759	0.889
9.28057	0.8984
9.31355	0.9102
9.34653	0.912
9.37951	0.8763
9.41249	0.7495
9.44547	0.6297
9.47845	0.6785
9.51143	0.7083
9.54441	0.7132
9.57739	0.7631
9.61037	0.7998
9.64335	0.7442
9.67633	0.5256
9.70931	0.3381
9.74229	0.3258
9.77527	0.5042
9.80825	0.6432
9.84123	0.6841
9.87421	0.6403
9.90719	0.3591
9.94017	0.2157
9.97315	0.3991
10.0061	0.6144
10.0391	0.7393
10.0721	0.7711
10.1051	0.8027
10.138	0.8559
10.171	0.8864
10.204	0.8957
10.237	0.911
10.27	0.9164
10.3029	0.9197
10.3359	0.9213
10.3689	0.922
10.4019	0.92
10.4349	0.912
10.4678	0.9003
10.5008	0.8874
10.5338	0.8336
10.5668	0.7964
10.5998	0.7941
10.6327	0.8306
10.6657	0.8581
10.6987	0.866
10.7317	0.8633
10.7647	0.7941
10.7976	0.6938
10.8306	0.5937
10.8636	0.5889
10.8966	0.6228
10.9296	0.7167
10.9625	0.7983
10.9955	0.8321
11.0285	0.8699
11.0615	0.8975
11.0945	0.9093
11.1274	0.919
11.1604	0.925
11.1934	0.929
11.2264	0.932
11.2594	0.9324
11.2923	0.935
11.3253	0.945
11.3583	0.948
11.3913	0.9539
11.4243	0.965
11.4572	0.9689
11.4902	0.9593
11.5232	0.962
11.5562	0.9578
11.5892	0.945
11.6221	0.943
11.6551	0.94
11.6881	0.9421
11.7211	0.9497
11.7541	0.9579
11.787	0.963
11.82	0.9591
11.853	0.948
11.886	0.94
11.919	0.94
11.9519	0.94
11.9849	0.942
12.0179	0.943
12.0509	0.947
12.0839	0.953
12.1168	0.9446
12.1498	0.94
12.1828	0.943
12.2158	0.942
12.2488	0.942
12.2817	0.9354
12.3147	0.9
12.3477	0.864
12.3807	0.8412
12.4137	0.831
12.4466	0.8342
12.4796	0.8405
12.5126	0.8554
12.5456	0.8615
12.5786	0.8744
12.6115	0.8884
12.6445	0.896
12.6775	0.9041
12.7105	0.9041
12.7435	0.904
12.7764	0.906
12.8094	0.9085
12.8424	0.907
12.8754	0.8985
12.9084	0.9003
12.9413	0.9032
12.9743	0.904
13.0073	0.902
13.0403	0.899
13.0733	0.8901
13.1062	0.9044
13.1392	0.909
13.1722	0.9056
13.2052	0.896
13.2382	0.8991
13.2711	0.9041
13.3041	0.9019
13.3371	0.9018
13.3701	0.915
13.4031	0.9121
13.436	0.906
13.469	0.907
13.502	0.907
13.535	0.9083
13.568	0.9052
13.6009	0.897
13.6339	0.897
13.6669	0.894
13.6999	0.8973
13.7329	0.897
13.7658	0.894
13.7988	0.901
13.8318	0.8962
13.8648	0.891
13.8978	0.887
13.9307	0.8967
13.9637	0.894
13.9967	0.9047
14.0297	0.9065
14.0627	0.907
14.0956	0.911
14.1286	0.9192
14.1616	0.928
14.1946	0.9404
14.2276	0.95
14.2605	0.9531
14.2935	0.9619
14.3265	0.965
14.3595	0.9675
14.3925	0.9655
14.4254	0.96
14.4584	0.9642
14.4914	0.965
14.5244	0.967
14.5574	0.9737
14.5903	0.978
14.6233	0.978
14.6563	0.9809
14.6893	0.9914
14.7223	0.9983
14.7552	1.0012
14.7882	1.009
14.8212	1.014
14.8542	1.0206
14.8872	1.0165
14.9201	1.001
14.9531	0.9646
