Infrared Spectrum: PIPERIDINE, 1-[(2,6-DIOXO-4-PIPERIDYL)CARBONYL]-
Formula: C11 H16 N2 O3
CAS: 116557-98-3
State: SOLID (0.7 mg / 650 mg KBr DISC)
Class: COBLENTZ III
Instrument: PERKIN-ELMER 21 (GRATING)
Instrument parameters: FILTER CHANGE ABOUT 1020 CM^-^1
Sampling: TRANSMISSION
Resolution: 2
Origin: SOUTHERN RESEARCH INSTITUTE
1/CM	TRANSMITTANCE
598.274	0.757
607.308	0.7586
616.341	0.7599
625.375	0.761
634.409	0.7621
643.442	0.7635
652.476	0.7649
661.51	0.7667
670.543	0.7687
679.577	0.7694
688.611	0.7666
697.644	0.7593
706.678	0.7448
715.712	0.747
724.745	0.7685
733.779	0.7721
742.813	0.7544
751.847	0.7331
760.88	0.7501
769.914	0.7669
778.948	0.7616
787.981	0.7488
797.015	0.7357
806.049	0.7269
815.082	0.7098
824.116	0.6779
833.15	0.638
842.183	0.5879
851.217	0.5408
860.251	0.5511
869.284	0.5887
878.318	0.6139
887.352	0.6948
896.385	0.7814
905.419	0.7841
914.453	0.7609
923.486	0.7218
932.52	0.7852
941.554	0.8121
950.587	0.8209
959.621	0.8354
968.655	0.8388
977.688	0.8394
986.722	0.8344
995.756	0.8016
1004.79	0.7579
1013.82	0.6999
1022.86	0.6281
1031.89	0.6197
1040.92	0.6587
1049.96	0.5846
1058.99	0.7333
1068.03	0.7936
1077.06	0.777
1086.09	0.6987
1095.13	0.6448
1104.16	0.7142
1113.19	0.6908
1122.23	0.6617
1131.26	0.6514
1140.29	0.5012
1149.33	0.4536
1158.36	0.4825
1167.4	0.4275
1176.43	0.3559
1185.46	0.2389
1194.5	0.3802
1203.53	0.5426
1212.56	0.5784
1221.6	0.5844
1230.63	0.5664
1239.67	0.4469
1248.7	0.2415
1257.73	0.2457
1266.77	0.239
1275.8	0.1759
1284.83	0.1386
1293.87	0.2246
1302.9	0.33
1311.93	0.5118
1320.97	0.5914
1330	0.5828
1339.04	0.6059
1348.07	0.5527
1357.1	0.5012
1366.14	0.4718
1375.17	0.3757
1384.2	0.4691
1393.24	0.4881
1402.27	0.6003
1411.3	0.6357
1420.34	0.6632
1429.37	0.6477
1438.41	0.6351
1447.44	0.6351
1456.47	0.6502
1465.51	0.7038
1474.54	0.7731
1483.57	0.8259
1492.61	0.8472
1501.64	0.8518
1510.68	0.8519
1519.71	0.8504
1528.74	0.8492
1537.78	0.8463
1546.81	0.8382
1555.84	0.8259
1564.88	0.8122
1573.91	0.7993
1582.94	0.7847
1591.98	0.7684
1601.01	0.7495
1610.05	0.706
1619.08	0.6393
1628.11	0.5877
1637.15	0.4986
1646.18	0.3839
1655.21	0.2842
1664.25	0.2002
1673.28	0.1386
1682.32	0.1257
1691.35	0.1474
1700.38	0.2021
1709.42	0.1993
1718.45	0.1517
1727.48	0.1261
1736.52	0.1598
1745.55	0.2692
1754.58	0.3778
1763.62	0.518
1772.65	0.5724
1781.69	0.6031
1790.72	0.6333
1799.75	0.6632
1808.79	0.6844
1817.82	0.704
1826.85	0.7194
1835.89	0.7317
1844.92	0.7414
1853.96	0.7503
1862.99	0.7589
1872.02	0.7689
1881.06	0.7783
1890.09	0.7852
1899.12	0.792
1908.16	0.7984
1917.19	0.8044
1926.22	0.8085
1935.26	0.8126
1944.29	0.8148
1953.33	0.8166
1962.36	0.8193
1971.39	0.8222
1980.43	0.8253
1989.46	0.8282
1998.49	0.8284
2007.53	0.8287
2016.56	0.8292
2025.59	0.8311
2034.63	0.8344
2043.66	0.839
2052.7	0.8427
2061.73	0.8457
2070.76	0.8478
2079.8	0.8486
2088.83	0.8489
2097.86	0.8495
2106.9	0.8511
2115.93	0.8522
2124.97	0.8527
2134	0.8526
2143.03	0.8523
2152.07	0.8519
2161.1	0.8517
2170.13	0.8514
2179.17	0.8513
2188.2	0.8515
2197.23	0.8521
2206.27	0.8527
2215.3	0.8533
2224.34	0.8533
2233.37	0.853
2242.4	0.8527
2251.44	0.8525
2260.47	0.8526
2269.5	0.853
2278.54	0.8535
2287.57	0.8552
2296.61	0.8581
2305.64	0.8611
2314.67	0.8653
2323.71	0.8685
2332.74	0.8695
2341.77	0.868
2350.81	0.8647
2359.84	0.8611
2368.87	0.8589
2377.91	0.8574
2386.94	0.8573
2395.98	0.8571
2405.01	0.858
2414.04	0.8589
2423.08	0.8595
2432.11	0.86
2441.14	0.8602
2450.18	0.8604
2459.21	0.8606
2468.25	0.8606
2477.28	0.8607
2486.31	0.8607
2495.35	0.8607
2504.38	0.8608
2513.41	0.8608
2522.45	0.8608
2531.48	0.8608
2540.51	0.8608
2549.55	0.8608
2558.58	0.8607
2567.62	0.8606
2576.65	0.8605
2585.68	0.8601
2594.72	0.8596
2603.75	0.859
2612.78	0.8579
2621.82	0.8563
2630.85	0.8546
2639.88	0.8539
2648.92	0.8533
2657.95	0.8526
2666.99	0.8523
2676.02	0.8519
2685.05	0.8507
2694.09	0.8491
2703.12	0.8475
2712.15	0.8464
2721.19	0.8453
2730.22	0.8472
2739.26	0.8438
2748.29	0.8373
2757.32	0.8237
2766.36	0.8119
2775.39	0.8014
2784.42	0.791
2793.46	0.7839
2802.49	0.7776
2811.52	0.7689
2820.56	0.759
2829.59	0.7417
2838.63	0.7184
2847.66	0.6926
2856.69	0.6833
2865.73	0.6746
2874.76	0.6668
2883.79	0.6618
2892.83	0.6587
2901.86	0.6569
2910.9	0.6533
2919.93	0.6473
2928.96	0.6467
2938	0.644
2947.03	0.6412
2956.06	0.6382
2965.1	0.636
2974.13	0.6361
2983.16	0.6379
2992.2	0.6418
3001.23	0.6522
3010.27	0.6671
3019.3	0.6671
3028.33	0.6597
3037.37	0.6475
3046.4	0.6322
3055.43	0.6116
3064.47	0.5806
3073.5	0.5422
3082.54	0.5191
3091.57	0.5123
3100.6	0.5185
3109.64	0.5317
3118.67	0.5412
3127.7	0.5431
3136.74	0.5405
3145.77	0.5332
3154.8	0.5234
3163.84	0.5106
3172.87	0.4944
3181.91	0.477
3190.94	0.4695
3199.97	0.4683
3209.01	0.47
3218.04	0.4893
3227.07	0.5039
3236.11	0.5175
3245.14	0.5307
3254.17	0.5487
3263.21	0.5736
3272.24	0.601
3281.28	0.6187
3290.31	0.6279
3299.34	0.637
3308.38	0.6468
3317.41	0.6564
3326.44	0.6639
3335.48	0.6636
3344.51	0.6563
3353.55	0.6487
3362.58	0.6468
3371.61	0.6472
3380.65	0.6473
3389.68	0.6459
3398.71	0.6437
3407.75	0.6412
3416.78	0.6393
3425.81	0.6387
3434.85	0.6387
3443.88	0.6392
3452.92	0.6413
3461.95	0.6457
3470.98	0.6513
3480.02	0.657
3489.05	0.6652
3498.08	0.673
3507.12	0.6806
3516.15	0.6882
3525.19	0.6958
3534.22	0.7034
3543.25	0.711
3552.29	0.7182
3561.32	0.7252
3570.35	0.7312
3579.39	0.7367
3588.42	0.7413
3597.45	0.7459
3606.49	0.7489
3615.52	0.7543
3624.56	0.7581
3633.59	0.7631
3642.62	0.7669
3651.66	0.7702
3660.69	0.7727
3669.72	0.7736
3678.76	0.771
3687.79	0.7703
3696.83	0.7704
3705.86	0.7715
3714.89	0.7728
3723.93	0.7742
3732.96	0.7756
3741.99	0.7767
3751.03	0.7778
3760.06	0.7786
3769.09	0.7798
3778.13	0.7807
3787.16	0.7811
3796.2	0.7801
3805.23	0.7769
3814.26	0.7753
3823.3	0.7764
3832.33	0.7771
3841.36	0.7777
3850.4	0.7783
3859.43	0.7793
3868.46	0.7801
3877.5	0.7802
3886.53	0.7806
3895.57	0.7808
3904.6	0.7803
3913.63	0.7791
3922.67	0.7775
3931.7	0.776
3940.73	0.775
3949.77	0.7745
3958.8	0.7743
3967.84	0.7741
3976.87	0.7734
3985.9	0.7729
3994.94	0.7737
4003.97	0.7728
