Infrared Spectrum: TRANS-3-BENZOYL-4-PHENYL-1-METHYLPIPERDINE
Formula: C19 H21 N O
CAS: 116595-02-9
State: SOLUTION (7% IN CHCl3)
Class: COBLENTZ
Instrument: PERKIN-ELMER
Sampling: TRANSMISSION
Path length: 0.010 CM
Resolution: 4
Origin: ABBOTT LABORATORIES - WASHBURN
MICROMETERS	TRANSMITTANCE
2.051	0.996
2.08661	0.989
2.12223	0.985
2.15784	0.985
2.19346	0.9868
2.22907	0.9888
2.26469	0.992
2.3003	0.994
2.33592	0.994
2.37153	0.992
2.40715	0.987
2.44276	0.982
2.47838	0.98
2.51399	0.989
2.54961	0.996
2.58522	0.998
2.62084	1.005
2.65645	1.0031
2.69207	0.994
2.72768	0.998
2.7633	1.0053
2.79891	0.9962
2.83453	0.983
2.87014	0.987
2.90576	0.9762
2.94137	0.9711
2.97699	0.965
3.0126	0.956
3.04822	0.949
3.08383	0.947
3.11945	0.9441
3.15506	0.944
3.19068	0.9226
3.22629	0.8483
3.26191	0.8321
3.29752	0.7962
3.33314	0.6987
3.36875	0.526
3.40437	0.5642
3.43998	0.6411
3.4756	0.6776
3.51121	0.7075
3.54683	0.577
3.58244	0.7334
3.61806	0.8321
3.65367	0.893
3.68929	0.9021
3.7249	0.9261
3.76051	0.9399
3.79613	0.9508
3.83174	0.955
3.86736	0.955
3.90297	0.949
3.93859	0.937
3.9742	0.926
4.00982	0.929
4.04543	0.9379
4.08105	0.9546
4.11666	0.9729
4.15228	0.9848
4.18789	0.9909
4.22351	0.989
4.25912	0.9871
4.29474	0.989
4.33035	0.987
4.36597	0.991
4.40158	0.9831
4.4372	0.983
4.47281	0.9781
4.50843	0.982
4.54404	0.983
4.57966	0.989
4.61527	0.9889
4.65089	0.985
4.6865	0.9851
4.72212	0.9888
4.75773	0.9871
4.79335	0.9871
4.82896	0.98
4.86458	0.98
4.90019	0.9781
4.93581	0.98
4.97142	0.976
5.00704	0.967
5.04265	0.9514
5.07827	0.949
5.11388	0.953
5.1495	0.9665
5.18511	0.9612
5.22073	0.957
5.25634	0.956
5.29196	0.962
5.32757	0.96
5.36319	0.9647
5.3988	0.9665
5.43441	0.9546
5.47003	0.9398
5.50564	0.9468
5.54126	0.9556
5.57687	0.9552
5.61249	0.953
5.6481	0.951
5.68372	0.955
5.71933	0.9542
5.75495	0.9453
5.79056	0.9308
5.82618	0.8774
5.86179	0.676
5.89741	0.4271
5.93302	0.2775
5.96864	0.5094
6.00425	0.799
6.03987	0.87
6.07548	0.8827
6.1111	0.8928
6.14671	0.892
6.18233	0.7942
6.21794	0.6207
6.25356	0.7957
6.28917	0.73
6.32479	0.8727
6.3604	0.9201
6.39602	0.9334
6.43163	0.935
6.46725	0.942
6.50286	0.946
6.53848	0.94
6.57409	0.9371
6.60971	0.9243
6.64532	0.8708
6.68094	0.676
6.71655	0.8727
6.75217	0.8553
6.78778	0.6902
6.8234	0.6793
6.85901	0.6042
6.89463	0.48
6.93024	0.6676
6.96586	0.8511
7.00147	0.8879
7.03709	0.8988
7.0727	0.913
7.10831	0.9083
7.14393	0.9025
7.17954	0.8534
7.21516	0.7032
7.25077	0.4823
7.28639	0.6891
7.322	0.7629
7.35762	0.7445
7.39323	0.7808
7.42885	0.8066
7.46446	0.7888
7.50008	0.7426
7.53569	0.7193
7.57131	0.678
7.60692	0.6715
7.64254	0.6208
7.67815	0.5561
7.71377	0.5776
7.74938	0.677
7.785	0.6654
7.82061	0.6785
7.85623	0.6743
7.89184	0.6961
7.92746	0.7584
7.96307	0.7253
7.99869	0.6713
8.0343	0.643
8.06992	0.6579
8.10553	0.6669
8.14115	0.6604
8.17676	0.6769
8.21238	0.6943
8.24799	0.7111
8.28361	0.727
8.31922	0.7129
8.35484	0.6441
8.39045	0.6492
8.42607	0.7342
8.46168	0.6893
8.4973	0.722
8.53291	0.766
8.56853	0.8044
8.60414	0.8424
8.63976	0.829
8.67537	0.8478
8.71099	0.8478
8.7466	0.8091
8.78221	0.6956
8.81783	0.6227
8.85344	0.561
8.88906	0.6581
8.92467	0.7648
8.96029	0.7914
8.9959	0.793
9.03152	0.787
9.06713	0.7873
9.10275	0.7846
9.13836	0.7824
9.17398	0.7648
9.20959	0.7132
9.24521	0.6862
9.28082	0.7264
9.31644	0.7043
9.35205	0.6587
9.38767	0.6441
9.42328	0.6006
9.4589	0.7182
9.49451	0.7847
9.53013	0.8294
9.56574	0.8776
9.60136	0.9309
9.63697	0.9298
9.67259	0.9125
9.7082	0.8892
9.74382	0.8782
9.77943	0.899
9.81505	0.826
9.85066	0.7551
9.88628	0.7516
9.92189	0.8065
9.95751	0.839
9.99312	0.8084
10.0287	0.8483
10.0644	0.8717
10.1	0.8292
10.1356	0.822
10.1712	0.8565
10.2068	0.8537
10.2424	0.7497
10.278	0.5939
10.3137	0.4949
10.3493	0.6046
10.3849	0.7704
10.4205	0.8371
10.4561	0.8621
10.4917	0.8907
10.5273	0.9153
10.563	0.922
10.5986	0.9258
10.6342	0.9222
10.6698	0.9154
10.7054	0.9236
10.741	0.9234
10.7766	0.918
10.8123	0.91
10.8479	0.913
10.8835	0.9177
10.9191	0.9191
10.9547	0.9012
10.9903	0.8732
11.026	0.8493
11.0616	0.8527
11.0972	0.8772
11.1328	0.8989
11.1684	0.884
11.204	0.8546
11.2396	0.7766
11.2753	0.764
11.3109	0.8015
11.3465	0.8582
11.3821	0.9079
11.4177	0.9326
11.4533	0.944
11.4889	0.9457
11.5246	0.942
11.5602	0.94
11.5958	0.947
11.6314	0.946
11.667	0.949
11.7026	0.9487
11.7383	0.9467
11.7739	0.947
11.8095	0.9429
11.8451	0.937
11.8807	0.937
11.9163	0.938
11.9519	0.937
11.9876	0.9345
12.0232	0.931
12.0588	0.9239
12.0944	0.91
12.13	0.886
12.1656	0.8983
12.2012	0.9076
12.2369	0.904
12.2725	0.8628
12.3081	0.8304
12.3437	0.791
12.3793	0.8
12.4149	0.8341
12.4505	0.8596
12.4862	0.8885
12.5218	0.9197
12.5574	0.9354
12.593	0.9469
12.6286	0.965
12.6642	0.9739
12.6999	0.98
12.7355	0.983
12.7711	0.9904
12.8067	0.996
12.8423	1.0092
12.8779	1.014
12.9135	1.014
12.9492	1.014
12.9848	1.014
13.0204	1.014
13.056	1.014
13.0916	1.014
13.1272	1.014
13.1628	1.014
13.1985	1.014
13.2341	1.014
13.2697	1.014
13.3053	1.014
13.3409	1.014
13.3765	1.014
13.4122	1.014
13.4478	1.014
13.4834	1.014
13.519	1.0125
13.5546	1.014
13.5902	1.0121
13.6258	1.014
13.6615	1.0138
13.6971	1.014
13.7327	1.012
13.7683	1.01
13.8039	1.012
13.8395	1.012
13.8751	1.0075
13.9108	0.9991
13.9464	0.9876
13.982	0.9514
14.0176	0.8728
14.0532	0.7507
14.0888	0.6731
14.1244	0.5626
14.1601	0.4433
14.1957	0.3681
14.2313	0.2679
14.2669	0.216
14.3025	0.1984
14.3381	0.2637
14.3738	0.3616
14.4094	0.5385
14.445	0.6143
14.4806	0.6552
14.5162	0.665
14.5518	0.6596
14.5874	0.6562
14.6231	0.6724
14.6587	0.7191
14.6943	0.7486
14.7299	0.7736
14.7655	0.8186
14.8011	0.854
14.8367	0.8873
14.8724	0.8941
14.908	0.906
14.9436	0.9015
14.9792	0.8984
15.0148	0.8924
15.0504	0.824
15.0861	0.7057
15.1217	0.6829
15.1573	0.7099
15.1929	0.7903
15.2285	0.8505
15.2641	0.895
15.2997	0.9356
15.3354	0.9502
15.371	0.9721
15.4066	0.98
15.4422	0.9869
