Infrared Spectrum: 4-ETHYL-4-(p-TOLUENESULFONOXYMETHYL)-2-METHYL-Delta^2-OXAZOLINE
Formula: C14 H19 N O4 S
CAS: 116595-29-0
State: SOLID (MINERAL OIL MULL)
Melting point: 87-87.5 C
Class: COBLENTZ
Instrument: Not specified, most likely a prism, grating, or hybrid spectrometer.
Sampling: TRANSMISSION
Resolution: 4
Origin: ARTHUR D. LITTLE, INC.
1/CM	TRANSMITTANCE
695.791	0.776
703.3	0.787
710.808	0.79
718.317	0.795
725.825	0.809
733.334	0.815
740.842	0.817
748.351	0.798
755.859	0.795
763.368	0.798
770.876	0.556
778.385	0.286
785.893	0.257
793.402	0.224
800.911	0.104
808.419	0.204
815.928	0.361
823.436	0.246
830.945	0.076
838.453	0.057
845.962	0.115
853.47	0.317
860.979	0.511
868.487	0.565
875.996	0.399
883.505	0.375
891.013	0.569
898.522	0.476
906.03	0.476
913.539	0.555
921.047	0.25
928.556	0.409
936.064	0.542
943.573	0.356
951.081	0.178
958.59	0.047
966.098	0.061
973.607	0.097
981.116	0.277
988.624	0.673
996.133	0.736
1003.64	0.698
1011.15	0.606
1018.66	0.472
1026.17	0.365
1033.68	0.38
1041.18	0.463
1048.69	0.718
1056.2	0.846
1063.71	0.758
1071.22	0.484
1078.73	0.275
1086.24	0.385
1093.74	0.535
1101.25	0.574
1108.76	0.538
1116.27	0.678
1123.78	0.61
1131.29	0.407
1138.79	0.242
1146.3	0.092
1153.81	0.055
1161.32	0.069
1168.83	0.106
1176.34	0.084
1183.85	0.116
1191.35	0.258
1198.86	0.457
1206.37	0.557
1213.88	0.649
1221.39	0.718
1228.9	0.66
1236.41	0.459
1243.91	0.295
1251.42	0.261
1258.93	0.468
1266.44	0.606
1273.95	0.592
1281.46	0.581
1288.97	0.497
1296.47	0.385
1303.98	0.369
1311.49	0.379
1319	0.258
1326.51	0.144
1334.02	0.105
1341.53	0.106
1349.03	0.159
1356.54	0.239
1364.05	0.26
1371.56	0.293
1379.07	0.437
1386.58	0.528
1394.09	0.569
1401.59	0.541
1409.1	0.452
1416.61	0.359
1424.12	0.275
1431.63	0.262
1439.14	0.193
1446.65	0.163
1454.15	0.162
1461.66	0.183
1469.17	0.276
1476.68	0.291
1484.19	0.268
1491.7	0.456
1499.2	0.604
1506.71	0.682
1514.22	0.695
1521.73	0.699
1529.24	0.702
1536.75	0.698
1544.26	0.69
1551.76	0.68
1559.27	0.653
1566.78	0.638
1574.29	0.562
1581.8	0.463
1589.31	0.312
1596.82	0.297
1604.32	0.526
1611.83	0.615
1619.34	0.56
1626.85	0.483
1634.36	0.39
1641.87	0.31
1649.38	0.183
1656.88	0.145
1664.39	0.11
1671.9	0.141
1679.41	0.203
1686.92	0.345
1694.43	0.459
1701.94	0.606
1709.44	0.66
1716.95	0.761
1724.46	0.834
1731.97	0.847
1739.48	0.85
1746.99	0.851
1754.5	0.856
1762	0.869
1769.51	0.871
1777.02	0.871
1784.53	0.871
1792.04	0.881
1799.55	0.881
1807.06	0.871
1814.56	0.85
1822.07	0.855
1829.58	0.895
1837.09	0.908
1844.6	0.908
1852.11	0.908
1859.61	0.903
1867.12	0.891
1874.63	0.881
1882.14	0.869
1889.65	0.859
1897.16	0.856
1904.67	0.855
1912.17	0.853
1919.68	0.842
1927.19	0.825
1934.7	0.85
1942.21	0.858
1949.72	0.845
1957.23	0.853
1964.73	0.884
1972.24	0.89
1979.75	0.9
1987.26	0.904
1994.77	0.903
2002.28	0.904
2009.79	0.902
2017.29	0.898
2024.8	0.894
2032.31	0.894
2039.82	0.893
2047.33	0.89
2054.84	0.891
2062.35	0.893
2069.85	0.893
2077.36	0.889
2084.87	0.886
2092.38	0.88
2099.89	0.876
2107.4	0.873
2114.91	0.868
2122.41	0.868
2129.92	0.869
2137.43	0.868
2144.94	0.864
2152.45	0.855
2159.96	0.847
2167.47	0.846
2174.97	0.845
2182.48	0.842
2189.99	0.842
2197.5	0.846
2205.01	0.847
2212.52	0.847
2220.02	0.847
2227.53	0.846
2235.04	0.841
2242.55	0.836
2250.06	0.83
2257.57	0.812
2265.08	0.802
2272.58	0.797
2280.09	0.798
2287.6	0.801
2295.11	0.802
2302.62	0.8
2310.13	0.796
2317.64	0.793
2325.14	0.791
2332.65	0.788
2340.16	0.791
2347.67	0.792
2355.18	0.788
2362.69	0.788
2370.2	0.791
2377.7	0.795
2385.21	0.796
2392.72	0.796
2400.23	0.793
2407.74	0.792
2415.25	0.791
2422.76	0.792
2430.26	0.796
2437.77	0.8
2445.28	0.796
2452.79	0.796
2460.3	0.797
2467.81	0.796
2475.32	0.793
2482.82	0.79
2490.33	0.786
2497.84	0.782
2505.35	0.777
2512.86	0.771
2520.37	0.766
2527.87	0.765
2535.38	0.763
2542.89	0.763
2550.4	0.762
2557.91	0.757
2565.42	0.748
2572.93	0.729
2580.43	0.721
2587.94	0.714
2595.45	0.713
2602.96	0.719
2610.47	0.722
2617.98	0.723
2625.49	0.723
2632.99	0.721
2640.5	0.719
2648.01	0.714
2655.52	0.707
2663.03	0.701
2670.54	0.698
2678.05	0.697
2685.55	0.697
2693.06	0.695
2700.57	0.695
2708.08	0.695
2715.59	0.694
2723.1	0.693
2730.61	0.693
2738.11	0.694
2745.62	0.698
2753.13	0.702
2760.64	0.707
2768.15	0.714
2775.66	0.717
2783.17	0.718
2790.67	0.717
2798.18	0.713
2805.69	0.704
2813.2	0.67
2820.71	0.57
2828.22	0.429
2835.73	0.29
2843.23	0.15
2850.74	0.05
2858.25	0.038
2865.76	0.04
2873.27	0.041
2880.78	0.041
2888.28	0.041
2895.79	0.041
2903.3	0.041
2910.81	0.045
2918.32	0.052
2925.83	0.067
2933.34	0.077
2940.84	0.097
2948.35	0.115
2955.86	0.138
2963.37	0.173
2970.88	0.214
2978.39	0.285
2985.9	0.375
2993.4	0.482
3000.91	0.57
3008.42	0.639
3015.93	0.67
3023.44	0.68
3030.95	0.684
3038.46	0.685
3045.96	0.684
3053.47	0.682
3060.98	0.679
3068.49	0.678
3076	0.674
3083.51	0.747
3091.02	0.82
3098.52	0.829
3106.03	0.839
3113.54	0.853
3121.05	0.864
3128.56	0.873
3136.07	0.878
3143.58	0.881
3151.08	0.885
3158.59	0.889
3166.1	0.891
3173.61	0.894
3181.12	0.894
3188.63	0.894
3196.14	0.894
3203.64	0.899
3211.15	0.903
3218.66	0.9
3226.17	0.902
3233.68	0.903
3241.19	0.903
3248.69	0.903
3256.2	0.903
3263.71	0.902
3271.22	0.899
3278.73	0.895
3286.24	0.889
3293.75	0.883
3301.25	0.881
3308.76	0.876
3316.27	0.874
3323.78	0.871
3331.29	0.871
3338.8	0.87
3346.31	0.873
3353.81	0.876
3361.32	0.879
3368.83	0.879
3376.34	0.878
3383.85	0.88
3391.36	0.879
