Infrared Spectrum: 1-(p-CHLOROPHENYL)-3-(o-HYDROXYPHENYL)-2-PROPEN-1-OXIME
Formula: C15 H12 Cl N O2
CAS: 116557-94-9
State: SOLID (NUJOL MULL)
Class: COBLENTZ III
Instrument: BAIRD (PRISM)
Instrument parameters: NaCl PRISM
Sampling: TRANSMISSION
Resolution: 2
Origin: DOW CHEMICAL COMPANY
MICROMETERS	TRANSMITTANCE
2.016	0.64
2.05515	0.651
2.0943	0.658
2.13346	0.668
2.17261	0.673
2.21176	0.678
2.25091	0.678
2.29006	0.676
2.32922	0.68
2.36837	0.69
2.40752	0.7
2.44667	0.72
2.48582	0.734
2.52498	0.743
2.56413	0.753
2.60328	0.755
2.64243	0.768
2.68158	0.77
2.72074	0.775
2.75989	0.777
2.79904	0.777
2.83819	0.772
2.87734	0.749
2.9165	0.711
2.95565	0.658
2.9948	0.599
3.03395	0.568
3.07311	0.562
3.11226	0.568
3.15141	0.6
3.19056	0.607
3.22971	0.6
3.26887	0.583
3.30802	0.569
3.34717	0.331
3.38632	0.068
3.42547	0.061
3.46463	0.149
3.50378	0.465
3.54293	0.738
3.58208	0.779
3.62123	0.786
3.66039	0.79
3.69954	0.805
3.73869	0.82
3.77784	0.821
3.81699	0.827
3.85615	0.843
3.8953	0.85
3.93445	0.863
3.9736	0.87
4.01275	0.877
4.05191	0.881
4.09106	0.885
4.13021	0.887
4.16936	0.891
4.20851	0.888
4.24767	0.888
4.28682	0.892
4.32597	0.898
4.36512	0.899
4.40427	0.907
4.44343	0.907
4.48258	0.91
4.52173	0.911
4.56088	0.911
4.60003	0.914
4.63919	0.914
4.67834	0.916
4.71749	0.92
4.75664	0.927
4.7958	0.926
4.83495	0.927
4.8741	0.929
4.91325	0.93
4.9524	0.93
4.99156	0.93
5.03071	0.93
5.06986	0.93
5.10901	0.92
5.14816	0.925
5.18732	0.92
5.22647	0.899
5.26562	0.916
5.30477	0.93
5.34392	0.926
5.38308	0.933
5.42223	0.933
5.46138	0.936
5.50053	0.935
5.53968	0.929
5.57884	0.927
5.61799	0.933
5.65714	0.938
5.69629	0.951
5.73544	0.948
5.7746	0.943
5.81375	0.948
5.8529	0.948
5.89205	0.925
5.9312	0.916
5.97036	0.898
6.00951	0.88
6.04866	0.856
6.08781	0.86
6.12696	0.794
6.16612	0.762
6.20527	0.727
6.24442	0.65
6.28357	0.611
6.32272	0.816
6.36188	0.831
6.40103	0.887
6.44018	0.894
6.47933	0.9
6.51849	0.898
6.55764	0.883
6.59679	0.811
6.63594	0.652
6.67509	0.438
6.71425	0.398
6.7534	0.504
6.79255	0.37
6.8317	0.27
6.87085	0.419
6.91001	0.564
6.94916	0.722
6.98831	0.76
7.02746	0.768
7.06661	0.727
7.10577	0.636
7.14492	0.628
7.18407	0.606
7.22322	0.522
7.26237	0.575
7.30153	0.682
7.34068	0.715
7.37983	0.69
7.41898	0.663
7.45813	0.585
7.49729	0.577
7.53644	0.684
7.57559	0.704
7.61474	0.712
7.65389	0.731
7.69305	0.739
7.7322	0.771
7.77135	0.787
7.8105	0.745
7.84965	0.738
7.88881	0.764
7.92796	0.699
7.96711	0.573
8.00626	0.427
8.04541	0.349
8.08457	0.497
8.12372	0.698
8.16287	0.738
8.20202	0.767
8.24118	0.811
8.28033	0.837
8.31948	0.841
8.35863	0.831
8.39778	0.811
8.43694	0.781
8.47609	0.793
8.51524	0.821
8.55439	0.816
8.59354	0.7
8.6327	0.614
8.67185	0.652
8.711	0.82
8.75015	0.839
8.7893	0.838
8.82846	0.819
8.86761	0.766
8.90676	0.696
8.94591	0.616
8.98506	0.575
9.02422	0.614
9.06337	0.564
9.10252	0.501
9.14167	0.529
9.18082	0.616
9.21998	0.781
9.25913	0.806
9.29828	0.822
9.33743	0.821
9.37658	0.801
9.41574	0.775
9.45489	0.717
9.49404	0.69
9.53319	0.656
9.57234	0.54
9.6115	0.411
9.65065	0.491
9.6898	0.662
9.72895	0.684
9.7681	0.68
9.80726	0.677
9.84641	0.663
9.88556	0.712
9.92471	0.667
9.96387	0.632
10.003	0.751
10.0422	0.812
10.0813	0.826
10.1205	0.811
10.1596	0.757
10.1988	0.731
10.2379	0.706
10.2771	0.601
10.3162	0.558
10.3554	0.74
10.3945	0.786
10.4337	0.803
10.4728	0.82
10.512	0.814
10.5511	0.761
10.5903	0.676
10.6294	0.63
10.6686	0.677
10.7078	0.754
10.7469	0.799
10.7861	0.799
10.8252	0.757
10.8644	0.69
10.9035	0.661
10.9427	0.662
10.9818	0.633
11.021	0.498
11.0601	0.443
11.0993	0.579
11.1384	0.712
11.1776	0.757
11.2167	0.788
11.2559	0.795
11.295	0.786
11.3342	0.76
11.3733	0.797
11.4125	0.832
11.4516	0.832
11.4908	0.805
11.5299	0.809
11.5691	0.834
11.6083	0.836
11.6474	0.808
11.6866	0.768
11.7257	0.75
11.7649	0.754
11.804	0.761
11.8432	0.746
11.8823	0.742
11.9215	0.738
11.9606	0.687
11.9998	0.588
12.0389	0.436
12.0781	0.333
12.1172	0.356
12.1564	0.473
12.1955	0.57
12.2347	0.685
12.2738	0.75
12.313	0.755
12.3521	0.722
12.3913	0.655
12.4304	0.63
12.4696	0.715
12.5087	0.76
12.5479	0.783
12.5871	0.784
12.6262	0.779
12.6654	0.777
12.7045	0.787
12.7437	0.792
12.7828	0.792
12.822	0.79
12.8611	0.787
12.9003	0.781
12.9394	0.773
12.9786	0.762
13.0177	0.751
13.0569	0.715
13.096	0.651
13.1352	0.54
13.1743	0.397
13.2135	0.277
13.2526	0.202
13.2918	0.195
13.3309	0.279
13.3701	0.414
13.4092	0.497
13.4484	0.557
13.4875	0.594
13.5267	0.613
13.5659	0.627
13.605	0.63
13.6442	0.629
13.6833	0.611
13.7225	0.58
13.7616	0.578
13.8008	0.6
13.8399	0.61
13.8791	0.607
13.9182	0.603
13.9574	0.597
13.9965	0.594
14.0357	0.599
14.0748	0.606
14.114	0.61
14.1531	0.61
14.1923	0.61
14.2314	0.611
14.2706	0.616
14.3097	0.617
14.3489	0.616
14.388	0.619
14.4272	0.618
14.4664	0.616
14.5055	0.612
14.5447	0.608
14.5838	0.605
14.623	0.602
14.6621	0.599
14.7013	0.595
14.7404	0.589
14.7796	0.583
14.8187	0.579
14.8579	0.568
14.897	0.563
14.9362	0.559
14.9753	0.558
15.0145	0.555
15.0536	0.55
15.0928	0.537
15.1319	0.528
15.1711	0.525
15.2102	0.52
15.2494	0.512
15.2885	0.506
15.3277	0.496
15.3668	0.491
15.406	0.48
15.4452	0.471
15.4843	0.463
15.5235	0.451
15.5626	0.441
15.6018	0.429
15.6409	0.416
15.6801	0.41
15.7192	0.407
15.7584	0.404
15.7975	0.4
15.8367	0.392
15.8758	0.385
