Infrared Spectrum: BENZOIC ACID, 2-(3-CYCLOHEXYL-3-METHYLTRIAZENO)-, METHYL ESTER
Formula: C15 H21 N3 O2
CAS: 116557-75-6
State: LIQUID (NEAT)
Class: COBLENTZ III
Instrument: PERKIN-ELMER 521 (GRATING)
Instrument parameters: FILTERS AT 3150, 2500, 2000, 1150, 700, 410 CM ^-^1, GRATING CHANGES AT 2000, 630 CM^-^1
Sampling: TRANSMISSION
Path length: CAPILLARY
Resolution: 4
Origin: SOUTHERN RES. INSTITUTE
1/CM	TRANSMITTANCE
254.977	0.735
264.282	0.768
273.586	0.792
282.891	0.802
292.196	0.807
301.5	0.8
310.805	0.792
320.11	0.803
329.414	0.813
338.719	0.8
348.024	0.802
357.328	0.818
366.633	0.816
375.937	0.809
385.242	0.815
394.547	0.825
403.851	0.855
413.156	0.886
422.461	0.894
431.765	0.892
441.07	0.844
450.375	0.858
459.679	0.9
468.984	0.914
478.289	0.91
487.593	0.898
496.898	0.879
506.203	0.874
515.507	0.875
524.812	0.877
534.117	0.893
543.421	0.909
552.726	0.9
562.031	0.904
571.335	0.854
580.64	0.726
589.945	0.71
599.249	0.81
608.554	0.822
617.858	0.844
627.163	0.84
636.468	0.811
645.772	0.624
655.077	0.837
664.382	0.855
673.686	0.851
682.991	0.826
692.296	0.762
701.6	0.689
710.905	0.675
720.21	0.683
729.514	0.801
738.819	0.806
748.124	0.438
757.428	0.357
766.733	0.662
776.038	0.717
785.342	0.814
794.647	0.867
803.952	0.819
813.256	0.744
822.561	0.814
831.866	0.768
841.17	0.875
850.475	0.866
859.779	0.819
869.084	0.833
878.389	0.837
887.693	0.73
896.998	0.825
906.303	0.847
915.607	0.833
924.912	0.855
934.217	0.829
943.521	0.773
952.826	0.772
962.131	0.76
971.435	0.83
980.74	0.806
990.045	0.741
999.349	0.777
1008.65	0.777
1017.96	0.716
1027.26	0.542
1036.57	0.473
1045.87	0.293
1055.18	0.279
1064.48	0.472
1073.79	0.309
1083.09	0.365
1092.4	0.528
1101.7	0.595
1111.01	0.4
1120.31	0.379
1129.61	0.454
1138.92	0.634
1148.22	0.496
1157.53	0.627
1166.83	0.467
1176.14	0.434
1185.44	0.462
1194.75	0.304
1204.05	0.475
1213.36	0.382
1222.66	0.407
1231.97	0.264
1241.27	0.193
1250.57	0.268
1259.88	0.342
1269.18	0.251
1278.49	0.223
1287.79	0.241
1297.1	0.31
1306.4	0.433
1315.71	0.497
1325.01	0.383
1334.32	0.241
1343.62	0.428
1352.93	0.454
1362.23	0.182
1371.54	0.279
1380.84	0.461
1390.14	0.436
1399.45	0.446
1408.75	0.472
1418.06	0.274
1427.36	0.144
1436.67	0.192
1445.97	0.282
1455.28	0.318
1464.58	0.311
1473.89	0.444
1483.19	0.664
1492.5	0.728
1501.8	0.759
1511.11	0.782
1520.41	0.803
1529.71	0.812
1539.02	0.819
1548.32	0.814
1557.63	0.786
1566.93	0.696
1576.24	0.757
1585.54	0.547
1594.85	0.648
1604.15	0.784
1613.46	0.814
1622.76	0.811
1632.07	0.806
1641.37	0.803
1650.68	0.799
1659.98	0.782
1669.28	0.737
1678.59	0.675
1687.89	0.606
1697.2	0.478
1706.5	0.312
1715.81	0.193
1725.11	0.151
1734.42	0.21
1743.72	0.555
1753.03	0.735
1762.33	0.802
1771.64	0.83
1780.94	0.85
1790.24	0.859
1799.55	0.862
1808.85	0.864
1818.16	0.869
1827.46	0.877
1836.77	0.879
1846.07	0.879
1855.38	0.883
1864.68	0.889
1873.99	0.887
1883.29	0.879
1892.6	0.875
1901.9	0.868
1911.21	0.866
1920.51	0.868
1929.81	0.868
1939.12	0.872
1948.42	0.879
1957.73	0.887
1967.03	0.894
1976.34	0.898
1985.64	0.9
1994.95	0.901
2004.25	0.902
2013.56	0.902
2022.86	0.902
2032.17	0.901
2041.47	0.9
2050.78	0.9
2060.08	0.899
2069.38	0.9
2078.69	0.9
2087.99	0.901
2097.3	0.903
2106.6	0.903
2115.91	0.903
2125.21	0.903
2134.52	0.905
2143.82	0.905
2153.13	0.906
2162.43	0.906
2171.74	0.905
2181.04	0.904
2190.34	0.903
2199.65	0.903
2208.95	0.903
2218.26	0.903
2227.56	0.903
2236.87	0.903
2246.17	0.903
2255.48	0.903
2264.78	0.903
2274.09	0.903
2283.39	0.903
2292.7	0.903
2302	0.903
2311.31	0.903
2320.61	0.9
2329.91	0.897
2339.22	0.895
2348.52	0.894
2357.83	0.894
2367.13	0.894
2376.44	0.893
2385.74	0.891
2395.05	0.889
2404.35	0.893
2413.66	0.895
2422.96	0.894
2432.27	0.893
2441.57	0.893
2450.88	0.893
2460.18	0.886
2469.48	0.883
2478.79	0.88
2488.09	0.879
2497.4	0.878
2506.7	0.877
2516.01	0.877
2525.31	0.879
2534.62	0.879
2543.92	0.878
2553.23	0.873
2562.53	0.869
2571.84	0.866
2581.14	0.867
2590.45	0.868
2599.75	0.87
2609.05	0.87
2618.36	0.868
2627.66	0.861
2636.97	0.858
2646.27	0.853
2655.58	0.848
2664.88	0.851
2674.19	0.857
2683.49	0.859
2692.8	0.86
2702.1	0.858
2711.41	0.857
2720.71	0.856
2730.01	0.854
2739.32	0.851
2748.62	0.848
2757.93	0.845
2767.23	0.838
2776.54	0.83
2785.84	0.811
2795.15	0.809
2804.45	0.804
2813.76	0.788
2823.06	0.753
2832.37	0.685
2841.67	0.578
2850.98	0.374
2860.28	0.43
2869.58	0.624
2878.89	0.624
2888.19	0.572
2897.5	0.476
2906.8	0.401
2916.11	0.33
2925.41	0.253
2934.72	0.217
2944.02	0.295
2953.33	0.392
2962.63	0.623
2971.94	0.694
2981.24	0.696
2990.55	0.702
2999.85	0.719
3009.15	0.731
3018.46	0.735
3027.76	0.767
3037.07	0.788
3046.37	0.78
3055.68	0.758
3064.98	0.758
3074.29	0.803
3083.59	0.834
3092.9	0.843
3102.2	0.855
3111.51	0.863
3120.81	0.865
3130.11	0.86
3139.42	0.858
3148.72	0.86
3158.03	0.862
3167.33	0.863
3176.64	0.865
3185.94	0.865
3195.25	0.866
3204.55	0.868
3213.86	0.868
3223.16	0.868
3232.47	0.867
3241.77	0.867
3251.08	0.865
3260.38	0.864
3269.68	0.863
3278.99	0.864
3288.29	0.862
3297.6	0.862
3306.9	0.861
3316.21	0.86
3325.51	0.859
3334.82	0.858
3344.12	0.857
3353.43	0.855
3362.73	0.855
3372.04	0.853
3381.34	0.85
3390.65	0.848
3399.95	0.844
3409.25	0.838
3418.56	0.834
3427.86	0.836
3437.17	0.84
3446.47	0.843
3455.78	0.849
3465.08	0.855
3474.39	0.857
3483.69	0.86
3493	0.861
3502.3	0.862
3511.61	0.862
3520.91	0.862
3530.22	0.862
3539.52	0.862
3548.82	0.862
3558.13	0.861
3567.43	0.862
3576.74	0.863
3586.04	0.862
3595.35	0.861
3604.65	0.859
3613.96	0.858
3623.26	0.857
3632.57	0.856
3641.87	0.856
3651.18	0.858
3660.48	0.858
3669.78	0.857
3679.09	0.858
3688.39	0.862
3697.7	0.864
3707	0.864
3716.31	0.862
3725.61	0.858
3734.92	0.856
3744.22	0.854
3753.53	0.855
3762.83	0.859
3772.14	0.86
3781.44	0.859
3790.75	0.858
3800.05	0.856
