Infrared Spectrum: ISOBUTYRIC ACID, 3-DIISOBUTOXY-PHOSPHINYL-, METHYL ESTER
Formula: C13 H27 O5 P
CAS: 116595-32-5
Class: COBLENTZ
Instrument: Not specified, most likely a prism, grating, or hybrid spectrometer.
Sampling: TRANSMISSION
Path length: SMEAR
Resolution: 4
Origin: TENNESSEE EASTMAN COMPANY, RESEARCH LABORATORIES
MICROMETERS	TRANSMITTANCE
2.033	0.944
2.07194	0.946
2.11087	0.943
2.14981	0.941
2.18874	0.941
2.22768	0.94
2.26661	0.933
2.30555	0.931
2.34448	0.93
2.38342	0.931
2.42236	0.931
2.46129	0.933
2.50023	0.936
2.53916	0.94
2.5781	0.941
2.61703	0.94
2.65597	0.936
2.6949	0.938
2.73384	0.938
2.77278	0.928
2.81171	0.92
2.85065	0.915
2.88958	0.901
2.92852	0.899
2.96745	0.909
3.00639	0.922
3.04532	0.925
3.08426	0.927
3.1232	0.927
3.16213	0.927
3.20107	0.927
3.24	0.923
3.27894	0.918
3.31787	0.852
3.35681	0.565
3.39575	0.463
3.43468	0.627
3.47362	0.656
3.51255	0.847
3.55149	0.876
3.59042	0.907
3.62936	0.915
3.66829	0.917
3.70723	0.92
3.74617	0.93
3.7851	0.931
3.82404	0.933
3.86297	0.936
3.90191	0.94
3.94084	0.938
3.97978	0.941
4.01871	0.941
4.05765	0.94
4.09659	0.941
4.13552	0.943
4.17446	0.941
4.21339	0.941
4.25233	0.957
4.29126	0.954
4.3302	0.951
4.36913	0.938
4.40807	0.94
4.44701	0.944
4.48594	0.944
4.52488	0.946
4.56381	0.946
4.60275	0.946
4.64168	0.946
4.68062	0.948
4.71955	0.949
4.75849	0.948
4.79743	0.948
4.83636	0.948
4.8753	0.948
4.91423	0.949
4.95317	0.949
4.9921	0.949
5.03104	0.949
5.06997	0.949
5.10891	0.948
5.14785	0.948
5.18678	0.948
5.22572	0.943
5.26465	0.94
5.30359	0.94
5.34252	0.94
5.38146	0.938
5.42039	0.94
5.45933	0.938
5.49827	0.935
5.5372	0.935
5.57614	0.927
5.61507	0.905
5.65401	0.857
5.69294	0.683
5.73188	0.353
5.77082	0.431
5.80975	0.706
5.84869	0.829
5.88762	0.862
5.92656	0.87
5.96549	0.891
6.00443	0.897
6.04336	0.918
6.0823	0.917
6.12124	0.914
6.16017	0.923
6.19911	0.925
6.23804	0.927
6.27698	0.93
6.31591	0.938
6.35485	0.931
6.39378	0.928
6.43272	0.918
6.47166	0.922
6.51059	0.917
6.54953	0.912
6.58846	0.899
6.6274	0.897
6.66633	0.891
6.70527	0.847
6.7442	0.755
6.78314	0.58
6.82208	0.601
6.86101	0.677
6.89995	0.745
6.93888	0.75
6.97782	0.792
7.01675	0.85
7.05569	0.841
7.09462	0.799
7.13356	0.773
7.1725	0.763
7.21143	0.799
7.25037	0.753
7.2893	0.721
7.32824	0.722
7.36717	0.776
7.40611	0.813
7.44504	0.82
7.48398	0.828
7.52292	0.844
7.56185	0.82
7.60079	0.797
7.63972	0.794
7.67866	0.799
7.71759	0.799
7.75653	0.764
7.79546	0.628
7.8344	0.531
7.87334	0.491
7.91227	0.448
7.95121	0.434
7.99014	0.413
8.02908	0.411
8.06801	0.439
8.10695	0.47
8.14589	0.525
8.18482	0.533
8.22376	0.52
8.26269	0.515
8.30163	0.549
8.34056	0.611
8.3795	0.633
8.41843	0.635
8.45737	0.615
8.49631	0.598
8.53524	0.583
8.57418	0.568
8.61311	0.572
8.65205	0.623
8.69098	0.711
8.72992	0.768
8.76885	0.777
8.80779	0.766
8.84673	0.739
8.88566	0.726
8.9246	0.722
8.96353	0.747
9.00247	0.75
9.0414	0.737
9.08034	0.732
9.11927	0.75
9.15821	0.763
9.19715	0.756
9.23608	0.737
9.27502	0.693
9.31395	0.623
9.35289	0.538
9.39182	0.474
9.43076	0.398
9.46969	0.34
9.50863	0.309
9.54757	0.299
9.5865	0.299
9.62544	0.32
9.66437	0.337
9.70331	0.338
9.74224	0.319
9.78118	0.26
9.82011	0.23
9.85905	0.199
9.89799	0.197
9.93692	0.225
9.97586	0.314
10.0148	0.414
10.0537	0.497
10.0927	0.568
10.1316	0.627
10.1705	0.651
10.2095	0.685
10.2484	0.708
10.2873	0.708
10.3263	0.667
10.3652	0.628
10.4041	0.641
10.4431	0.67
10.482	0.683
10.521	0.714
10.5599	0.747
10.5988	0.773
10.6378	0.802
10.6767	0.821
10.7156	0.839
10.7546	0.839
10.7935	0.82
10.8324	0.803
10.8714	0.8
10.9103	0.782
10.9492	0.781
10.9882	0.8
11.0271	0.831
11.0661	0.86
11.105	0.862
11.1439	0.865
11.1829	0.862
11.2218	0.847
11.2607	0.805
11.2997	0.745
11.3386	0.698
11.3775	0.654
11.4165	0.63
11.4554	0.623
11.4943	0.625
11.5333	0.628
11.5722	0.64
11.6112	0.646
11.6501	0.641
11.689	0.632
11.728	0.619
11.7669	0.607
11.8058	0.599
11.8448	0.596
11.8837	0.599
11.9226	0.617
11.9616	0.638
12.0005	0.654
12.0394	0.666
12.0784	0.675
12.1173	0.692
12.1562	0.711
12.1952	0.745
12.2341	0.763
12.2731	0.779
12.312	0.789
12.3509	0.795
12.3899	0.797
12.4288	0.8
12.4677	0.808
12.5067	0.81
12.5456	0.815
12.5845	0.821
12.6235	0.821
12.6624	0.831
12.7013	0.844
12.7403	0.847
12.7792	0.847
12.8182	0.849
12.8571	0.849
12.896	0.85
12.935	0.849
12.9739	0.849
13.0128	0.849
13.0518	0.844
13.0907	0.839
13.1296	0.823
13.1686	0.821
13.2075	0.818
13.2464	0.82
13.2854	0.82
13.3243	0.821
13.3633	0.823
13.4022	0.828
13.4411	0.833
13.4801	0.833
13.519	0.834
13.5579	0.834
13.5969	0.836
13.6358	0.837
13.6747	0.834
13.7137	0.834
13.7526	0.829
13.7915	0.824
13.8305	0.821
13.8694	0.816
13.9084	0.811
13.9473	0.81
13.9862	0.808
14.0252	0.808
14.0641	0.808
14.103	0.808
14.142	0.808
14.1809	0.807
14.2198	0.805
14.2588	0.803
14.2977	0.802
14.3366	0.8
14.3756	0.799
14.4145	0.795
14.4534	0.792
14.4924	0.79
14.5313	0.786
14.5703	0.781
14.6092	0.774
14.6481	0.773
14.6871	0.769
14.726	0.763
14.7649	0.758
14.8039	0.752
14.8428	0.745
14.8817	0.742
14.9207	0.74
14.9596	0.739
14.9985	0.729
15.0375	0.714
15.0764	0.706
15.1154	0.706
15.1543	0.705
15.1932	0.698
15.2322	0.693
15.2711	0.692
15.31	0.69
15.349	0.688
15.3879	0.683
15.4268	0.677
15.4658	0.677
15.5047	0.677
15.5436	0.675
15.5826	0.674
15.6215	0.67
15.6605	0.667
15.6994	0.667
15.7383	0.666
15.7773	0.662
15.8162	0.659
15.8551	0.659
15.8941	0.659
15.933	0.658
