Infrared Spectrum: ISOBUTYRIC ACID, 3-DIBUTOXYPHOSPHINYL, METHYL ESTER
Formula: C13 H27 O5 P
CAS: 116595-33-6
Class: COBLENTZ
Instrument: Not specified, most likely a prism, grating, or hybrid spectrometer.
Sampling: TRANSMISSION
Path length: SMEAR
Resolution: 4
Origin: TENNESSEE EASTMAN COMPANY, RESEARCH LABORATORIES
MICROMETERS	TRANSMITTANCE
2.026	0.951
2.06496	0.951
2.10392	0.951
2.14288	0.952
2.18184	0.952
2.22081	0.946
2.25977	0.925
2.29873	0.917
2.33769	0.918
2.37665	0.922
2.41561	0.923
2.45457	0.928
2.49353	0.93
2.53249	0.935
2.57145	0.943
2.61042	0.943
2.64938	0.943
2.68834	0.943
2.7273	0.94
2.76626	0.938
2.80522	0.938
2.84418	0.938
2.88314	0.92
2.9221	0.897
2.96106	0.909
3.00003	0.917
3.03899	0.915
3.07795	0.907
3.11691	0.88
3.15587	0.855
3.19483	0.831
3.23379	0.8
3.27275	0.75
3.31171	0.617
3.35068	0.338
3.38964	0.072
3.4286	0.205
3.46756	0.267
3.50652	0.541
3.54548	0.693
3.58444	0.739
3.6234	0.758
3.66236	0.758
3.70132	0.774
3.74029	0.786
3.77925	0.797
3.81821	0.803
3.85717	0.81
3.89613	0.815
3.93509	0.823
3.97405	0.837
4.01301	0.85
4.05197	0.86
4.09094	0.867
4.1299	0.876
4.16886	0.878
4.20782	0.88
4.24678	0.897
4.28574	0.899
4.3247	0.893
4.36366	0.883
4.40262	0.884
4.44158	0.894
4.48055	0.901
4.51951	0.91
4.55847	0.912
4.59743	0.914
4.63639	0.914
4.67535	0.912
4.71431	0.915
4.75327	0.914
4.79223	0.914
4.83119	0.917
4.87016	0.917
4.90912	0.917
4.94808	0.917
4.98704	0.92
5.026	0.927
5.06496	0.92
5.10392	0.92
5.14288	0.92
5.18184	0.918
5.22081	0.915
5.25977	0.915
5.29873	0.909
5.33769	0.907
5.37665	0.899
5.41561	0.899
5.45457	0.888
5.49353	0.871
5.53249	0.86
5.57145	0.85
5.61042	0.81
5.64938	0.743
5.68834	0.508
5.7273	0.136
5.76626	0.068
5.80522	0.333
5.84418	0.612
5.88314	0.687
5.9221	0.763
5.96106	0.797
6.00003	0.829
6.03899	0.857
6.07795	0.862
6.11691	0.862
6.15587	0.867
6.19483	0.873
6.23379	0.883
6.27275	0.893
6.31171	0.893
6.35068	0.893
6.38964	0.893
6.4286	0.883
6.46756	0.88
6.50652	0.863
6.54548	0.862
6.58444	0.857
6.6234	0.847
6.66236	0.833
6.70132	0.755
6.74029	0.632
6.77925	0.452
6.81821	0.307
6.85717	0.346
6.89613	0.497
6.93509	0.508
6.97405	0.555
7.01301	0.696
7.05197	0.683
7.09094	0.615
7.1299	0.614
7.16886	0.602
7.20782	0.546
7.24678	0.517
7.28574	0.625
7.3247	0.656
7.36366	0.622
7.40262	0.656
7.44158	0.683
7.48055	0.688
7.51951	0.692
7.55847	0.645
7.59743	0.596
7.63639	0.585
7.67535	0.589
7.71431	0.604
7.75327	0.594
7.79223	0.471
7.83119	0.293
7.87016	0.17
7.90912	0.118
7.94808	0.094
7.98704	0.082
8.026	0.079
8.06496	0.081
8.10392	0.092
8.14288	0.116
8.18184	0.141
8.22081	0.139
8.25977	0.132
8.29873	0.141
8.33769	0.197
8.37665	0.235
8.41561	0.26
8.45457	0.264
8.49353	0.247
8.53249	0.22
8.57145	0.2
8.61042	0.197
8.64938	0.21
8.68834	0.317
8.7273	0.447
8.76626	0.534
8.80522	0.531
8.84418	0.502
8.88314	0.423
8.9221	0.372
8.96106	0.424
9.00003	0.487
9.03899	0.508
9.07795	0.499
9.11691	0.497
9.15587	0.471
9.19483	0.41
9.23379	0.262
9.27275	0.17
9.31171	0.105
9.35068	0.079
9.38964	0.074
9.4286	0.074
9.46756	0.077
9.50652	0.081
9.54548	0.079
9.58444	0.072
9.6234	0.059
9.66236	0.05
9.70132	0.043
9.74029	0.04
9.77925	0.038
9.81821	0.04
9.85717	0.051
9.89613	0.068
9.93509	0.076
9.97405	0.076
10.013	0.077
10.052	0.081
10.0909	0.079
10.1299	0.071
10.1689	0.063
10.2078	0.058
10.2468	0.059
10.2857	0.082
10.3247	0.149
10.3637	0.212
10.4026	0.256
10.4416	0.27
10.4805	0.311
10.5195	0.372
10.5585	0.439
10.5974	0.521
10.6364	0.57
10.6754	0.623
10.7143	0.646
10.7533	0.653
10.7922	0.654
10.8312	0.648
10.8702	0.632
10.9091	0.606
10.9481	0.562
10.987	0.513
11.026	0.463
11.065	0.444
11.1039	0.444
11.1429	0.447
11.1818	0.465
11.2208	0.484
11.2598	0.521
11.2987	0.538
11.3377	0.576
11.3766	0.607
11.4156	0.625
11.4546	0.63
11.4935	0.627
11.5325	0.612
11.5715	0.594
11.6104	0.583
11.6494	0.57
11.6883	0.536
11.7273	0.52
11.7663	0.495
11.8052	0.46
11.8442	0.434
11.8831	0.429
11.9221	0.423
11.9611	0.418
12	0.408
12.039	0.395
12.0779	0.377
12.1169	0.377
12.1559	0.392
12.1948	0.427
12.2338	0.47
12.2728	0.497
12.3117	0.529
12.3507	0.534
12.3896	0.538
12.4286	0.538
12.4676	0.538
12.5065	0.542
12.5455	0.564
12.5844	0.588
12.6234	0.604
12.6624	0.623
12.7013	0.645
12.7403	0.667
12.7792	0.687
12.8182	0.7
12.8572	0.708
12.8961	0.711
12.9351	0.713
12.9741	0.711
13.013	0.696
13.052	0.675
13.0909	0.656
13.1299	0.64
13.1689	0.632
13.2078	0.63
13.2468	0.63
13.2857	0.63
13.3247	0.635
13.3637	0.64
13.4026	0.64
13.4416	0.636
13.4805	0.623
13.5195	0.619
13.5585	0.617
13.5974	0.617
13.6364	0.62
13.6754	0.628
13.7143	0.643
13.7533	0.659
13.7922	0.675
13.8312	0.685
13.8702	0.69
13.9091	0.695
13.9481	0.696
13.987	0.696
14.026	0.698
14.065	0.698
14.1039	0.698
14.1429	0.698
14.1818	0.701
14.2208	0.705
14.2598	0.713
14.2987	0.714
14.3377	0.717
14.3766	0.722
14.4156	0.727
14.4546	0.729
14.4935	0.73
14.5325	0.73
14.5715	0.73
14.6104	0.732
14.6494	0.73
14.6883	0.73
14.7273	0.73
14.7663	0.73
14.8052	0.729
14.8442	0.726
14.8831	0.722
14.9221	0.719
14.9611	0.717
15	0.711
15.039	0.696
15.0779	0.69
15.1169	0.687
15.1559	0.687
15.1948	0.68
15.2338	0.677
15.2728	0.672
15.3117	0.666
15.3507	0.659
15.3896	0.658
15.4286	0.651
15.4676	0.645
15.5065	0.643
15.5455	0.64
15.5844	0.636
15.6234	0.633
15.6624	0.632
15.7013	0.63
15.7403	0.625
15.7792	0.623
15.8182	0.62
15.8572	0.617
15.8961	0.617
15.9351	0.619
15.9741	0.615
16.013	0.615
