Infrared Spectrum: METHYL(N-CYANOMETHYL-N-BENZYL)-Beta-AMINOPROPIONATE
Formula: C13 H16 N2 O2
CAS: 116558-09-9
State: LIQUID
Class: COBLENTZ
Instrument: PERKIN-ELMER
Sampling: TRANSMISSION
Path length: CAPILLARY
Resolution: 4
Origin: ABBOTT LABORATORIES - WASHBURN
MICROMETERS	TRANSMITTANCE
2.061	0.936
2.10089	0.939
2.14079	0.943
2.18068	0.946
2.22058	0.951
2.26047	0.9558
2.30036	0.9562
2.34026	0.943
2.38015	0.949
2.42005	0.9462
2.45994	0.954
2.49983	0.9531
2.53973	0.9428
2.57962	0.954
2.61952	0.963
2.65941	0.974
2.6993	0.9662
2.7392	0.966
2.77909	0.9541
2.81899	0.9442
2.85888	0.938
2.89877	0.933
2.93867	0.9231
2.97856	0.924
3.01846	0.9192
3.05835	0.9158
3.09824	0.9422
3.13814	0.954
3.17803	0.956
3.21793	0.9489
3.25782	0.8977
3.29771	0.8074
3.33761	0.7167
3.3775	0.7169
3.4174	0.618
3.45729	0.6653
3.49718	0.7304
3.53708	0.6862
3.57697	0.5807
3.61687	0.7486
3.65676	0.8855
3.69665	0.9109
3.73655	0.9212
3.77644	0.949
3.81634	0.959
3.85623	0.964
3.89612	0.956
3.93602	0.954
3.97591	0.958
4.01581	0.958
4.0557	0.9511
4.09559	0.9391
4.13549	0.931
4.17538	0.926
4.21528	0.9139
4.25517	0.914
4.29507	0.918
4.33496	0.9141
4.37485	0.899
4.41475	0.887
4.45464	0.8741
4.49454	0.8429
4.53443	0.8621
4.57432	0.872
4.61422	0.869
4.65411	0.862
4.69401	0.862
4.7339	0.8593
4.77379	0.852
4.81369	0.846
4.85358	0.841
4.89348	0.834
4.93337	0.837
4.97326	0.837
5.01316	0.8311
5.05305	0.8173
5.09295	0.804
5.13284	0.8033
5.17273	0.8231
5.21263	0.831
5.25252	0.824
5.29242	0.8107
5.33231	0.8091
5.3722	0.8171
5.4121	0.819
5.45199	0.8074
5.49189	0.7801
5.53178	0.772
5.57167	0.765
5.61157	0.7327
5.65146	0.6434
5.69136	0.4867
5.73125	0.1097
5.77114	0.041
5.81104	0.2299
5.85093	0.5212
5.89083	0.6236
5.93072	0.6549
5.97061	0.6815
6.01051	0.7301
6.0504	0.7575
6.0903	0.7692
6.13019	0.779
6.17008	0.78
6.20998	0.7454
6.24987	0.6855
6.28977	0.705
6.32966	0.7445
6.36955	0.7783
6.40945	0.794
6.44934	0.7866
6.48924	0.7901
6.52913	0.787
6.56902	0.78
6.60892	0.7774
6.64881	0.744
6.68871	0.5086
6.7286	0.6381
6.76849	0.6584
6.80839	0.5227
6.84828	0.3533
6.88818	0.2752
6.92807	0.2674
6.96796	0.2232
7.00786	0.2555
7.04775	0.3521
7.08765	0.4695
7.12754	0.5667
7.16743	0.5519
7.20733	0.5325
7.24722	0.509
7.28712	0.4211
7.32701	0.3551
7.3669	0.3274
7.4068	0.3749
7.44669	0.4318
7.48659	0.3978
7.52648	0.3434
7.56637	0.3429
7.60627	0.3835
7.64616	0.4094
7.68606	0.4288
7.72595	0.4476
7.76584	0.4446
7.80574	0.4171
7.84563	0.3394
7.88553	0.2873
7.92542	0.2529
7.96531	0.234
8.00521	0.2425
8.0451	0.2541
8.085	0.2747
8.12489	0.29
8.16478	0.2944
8.20468	0.287
8.24457	0.2819
8.28447	0.2377
8.32436	0.1781
8.36425	0.1241
8.40415	0.1188
8.44404	0.1651
8.48394	0.187
8.52383	0.1727
8.56372	0.2169
8.60362	0.3261
8.64351	0.4119
8.68341	0.4364
8.7233	0.4456
8.7632	0.4002
8.80309	0.3334
8.84298	0.2971
8.88288	0.2754
8.92277	0.2784
8.96267	0.3116
9.00256	0.3921
9.04245	0.4644
9.08235	0.5883
9.12224	0.6621
9.16214	0.6972
9.20203	0.697
9.24192	0.6612
9.28182	0.5543
9.32171	0.5224
9.36161	0.6173
9.4015	0.64
9.44139	0.5865
9.48129	0.5151
9.52118	0.4242
9.56108	0.401
9.60097	0.4459
9.64086	0.5089
9.68076	0.5515
9.72065	0.4728
9.76055	0.4411
9.80044	0.5265
9.84033	0.5841
9.88023	0.598
9.92012	0.59
9.96002	0.5509
9.99991	0.521
10.0398	0.4822
10.0797	0.4212
10.1196	0.4031
10.1595	0.436
10.1994	0.4764
10.2393	0.5216
10.2792	0.5583
10.3191	0.573
10.359	0.5803
10.3988	0.598
10.4387	0.6146
10.4786	0.624
10.5185	0.632
10.5584	0.6289
10.5983	0.627
10.6382	0.6328
10.6781	0.6472
10.718	0.66
10.7579	0.66
10.7978	0.66
10.8377	0.6695
10.8776	0.6723
10.9175	0.661
10.9574	0.647
10.9973	0.6458
11.0372	0.6667
11.077	0.6885
11.1169	0.7
11.1568	0.7099
11.1967	0.727
11.2366	0.739
11.2765	0.74
11.3164	0.7356
11.3563	0.718
11.3962	0.6809
11.4361	0.6402
11.476	0.5856
11.5159	0.5357
11.5558	0.4905
11.5957	0.4851
11.6356	0.4993
11.6755	0.525
11.7154	0.535
11.7552	0.525
11.7951	0.5007
11.835	0.4885
11.8749	0.5012
11.9148	0.5546
11.9547	0.5889
11.9946	0.6111
12.0345	0.62
12.0744	0.622
12.1143	0.6389
12.1542	0.6578
12.1941	0.668
12.234	0.6697
12.2739	0.67
12.3138	0.6533
12.3537	0.653
12.3936	0.6527
12.4334	0.657
12.4733	0.659
12.5132	0.665
12.5531	0.672
12.593	0.6784
12.6329	0.6782
12.6728	0.688
12.7127	0.7166
12.7526	0.7247
12.7925	0.7297
12.8324	0.7346
12.8723	0.737
12.9122	0.735
12.9521	0.7295
12.992	0.7267
13.0319	0.7145
13.0717	0.697
13.1116	0.669
13.1515	0.6274
13.1914	0.5595
13.2313	0.4937
13.2712	0.4113
13.3111	0.3246
13.351	0.2613
13.3909	0.2139
13.4308	0.1779
13.4707	0.1604
13.5106	0.1688
13.5505	0.1893
13.5904	0.2515
13.6303	0.3331
13.6702	0.4095
13.7101	0.4801
13.7499	0.5365
13.7898	0.5849
13.8297	0.603
13.8696	0.6178
13.9095	0.6236
13.9494	0.625
13.9893	0.6091
14.0292	0.5877
14.0691	0.5508
14.109	0.5016
14.1489	0.4085
14.1888	0.3226
14.2287	0.2443
14.2686	0.1788
14.3085	0.1707
14.3484	0.2324
14.3883	0.3437
14.4281	0.4994
14.468	0.584
14.5079	0.6294
14.5478	0.652
14.5877	0.663
14.6276	0.6679
14.6675	0.673
14.7074	0.675
14.7473	0.6725
14.7872	0.6676
14.8271	0.6593
14.867	0.6565
14.9069	0.652
14.9468	0.652
14.9867	0.6579
15.0266	0.6553
15.0664	0.6505
15.1063	0.645
15.1462	0.643
15.1861	0.6443
15.226	0.633
15.2659	0.6354
15.3058	0.6328
15.3457	0.627
15.3856	0.617
