Infrared Spectrum: THIAZOLE, 5,5'-THIO BIS(2-AMINO)
Formula: C6 H6 N4 S3
CAS: 116529-26-1
State: SOLID (KBr PELLET)
Melting point: 188 C
Class: COBLENTZ
Instrument: Not specified, most likely a prism, grating, or hybrid spectrometer.
Sampling: TRANSMISSION
Resolution: 4
Origin: TENNESSEE EASTMAN COMPANY, RESEARCH LABORATORIES
MICROMETERS	TRANSMITTANCE
2.048	0.972
2.08896	0.972
2.12991	0.976
2.17087	0.979
2.21182	0.979
2.25278	0.981
2.29373	0.982
2.33469	0.984
2.37565	0.984
2.4166	0.988
2.45756	0.988
2.49851	0.989
2.53947	0.991
2.58043	0.989
2.62138	0.989
2.66234	0.989
2.70329	0.988
2.74425	0.957
2.7852	0.911
2.82616	0.885
2.86712	0.81
2.90807	0.359
2.94903	0.749
2.98998	0.771
3.03094	0.64
3.07189	0.643
3.11285	0.749
3.15381	0.572
3.19476	0.398
3.23572	0.31
3.27667	0.446
3.31763	0.577
3.35859	0.626
3.39954	0.632
3.4405	0.752
3.48145	0.793
3.52241	0.833
3.56336	0.873
3.60432	0.901
3.64528	0.916
3.68623	0.913
3.72719	0.862
3.76814	0.909
3.8091	0.935
3.85005	0.95
3.89101	0.95
3.93197	0.948
3.97292	0.948
4.01388	0.954
4.05483	0.952
4.09579	0.95
4.13675	0.954
4.1777	0.95
4.21866	0.948
4.25961	0.938
4.30057	0.928
4.34152	0.926
4.38248	0.938
4.42344	0.94
4.46439	0.947
4.50535	0.948
4.5463	0.95
4.58726	0.952
4.62822	0.952
4.66917	0.952
4.71013	0.954
4.75108	0.954
4.79204	0.955
4.83299	0.95
4.87395	0.948
4.91491	0.948
4.95586	0.948
4.99682	0.955
5.03777	0.957
5.07873	0.957
5.11968	0.957
5.16064	0.959
5.2016	0.955
5.24255	0.952
5.28351	0.95
5.32446	0.954
5.36542	0.955
5.40638	0.954
5.44733	0.957
5.48829	0.955
5.52924	0.95
5.5702	0.948
5.61115	0.942
5.65211	0.928
5.69307	0.908
5.73402	0.877
5.77498	0.848
5.81593	0.834
5.85689	0.877
5.89784	0.87
5.9388	0.87
5.97976	0.862
6.02071	0.836
6.06167	0.78
6.10262	0.676
6.14358	0.289
6.18454	0.318
6.22549	0.698
6.26645	0.797
6.3074	0.846
6.34836	0.853
6.38931	0.855
6.43027	0.855
6.47123	0.8
6.51218	0.652
6.55314	0.156
6.59409	0.378
6.63505	0.601
6.676	0.308
6.71696	0.059
6.75792	0.315
6.79887	0.654
6.83983	0.758
6.88078	0.812
6.92174	0.827
6.9627	0.848
7.00365	0.858
7.04461	0.86
7.08556	0.87
7.12652	0.875
7.16747	0.875
7.20843	0.867
7.24939	0.856
7.29034	0.846
7.3313	0.846
7.37225	0.85
7.41321	0.848
7.45416	0.846
7.49512	0.822
7.53608	0.744
7.57703	0.586
7.61799	0.577
7.65894	0.657
7.6999	0.737
7.74086	0.776
7.78181	0.798
7.82277	0.814
7.86372	0.816
7.90468	0.785
7.94563	0.751
7.98659	0.814
8.02755	0.827
8.0685	0.836
8.10946	0.836
8.15041	0.816
8.19137	0.667
8.23232	0.526
8.27328	0.243
8.31424	0.448
8.35519	0.643
8.39615	0.729
8.4371	0.766
8.47806	0.781
8.51902	0.785
8.55997	0.788
8.60093	0.792
8.64188	0.795
8.68284	0.804
8.72379	0.805
8.76475	0.805
8.80571	0.798
8.84666	0.795
8.88762	0.795
8.92857	0.795
8.96953	0.795
9.01049	0.79
9.05144	0.787
9.0924	0.783
9.13335	0.783
9.17431	0.778
9.21526	0.763
9.25622	0.739
9.29718	0.701
9.33813	0.647
9.37909	0.551
9.42004	0.465
9.461	0.473
9.50195	0.575
9.54291	0.683
9.58387	0.734
9.62482	0.775
9.66578	0.793
9.70673	0.804
9.74769	0.809
9.78865	0.807
9.8296	0.78
9.87056	0.771
9.91151	0.8
9.95247	0.821
9.99342	0.826
10.0344	0.827
10.0753	0.838
10.1163	0.848
10.1572	0.851
10.1982	0.853
10.2392	0.855
10.2801	0.856
10.3211	0.858
10.362	0.86
10.403	0.862
10.4439	0.863
10.4849	0.863
10.5258	0.865
10.5668	0.865
10.6078	0.865
10.6487	0.865
10.6897	0.865
10.7306	0.867
10.7716	0.868
10.8125	0.872
10.8535	0.872
10.8945	0.873
10.9354	0.872
10.9764	0.875
11.0173	0.877
11.0583	0.879
11.0992	0.877
11.1402	0.879
11.1811	0.877
11.2221	0.877
11.2631	0.877
11.304	0.875
11.345	0.877
11.3859	0.873
11.4269	0.838
11.4678	0.809
11.5088	0.827
11.5497	0.705
11.5907	0.764
11.6317	0.708
11.6726	0.633
11.7136	0.785
11.7545	0.831
11.7955	0.844
11.8364	0.853
11.8774	0.856
11.9183	0.858
11.9593	0.858
12.0003	0.858
12.0412	0.855
12.0822	0.853
12.1231	0.85
12.1641	0.85
12.205	0.85
12.246	0.848
12.2869	0.846
12.3279	0.844
12.3689	0.839
12.4098	0.833
12.4508	0.827
12.4917	0.821
12.5327	0.817
12.5736	0.816
12.6146	0.812
12.6556	0.807
12.6965	0.805
12.7375	0.798
12.7784	0.795
12.8194	0.787
12.8603	0.776
12.9013	0.758
12.9422	0.727
12.9832	0.695
13.0242	0.664
13.0651	0.645
13.1061	0.679
13.147	0.751
13.188	0.783
13.2289	0.793
13.2699	0.797
13.3108	0.797
13.3518	0.797
13.3928	0.797
13.4337	0.793
13.4747	0.79
13.5156	0.785
13.5566	0.78
13.5975	0.778
13.6385	0.775
13.6794	0.771
13.7204	0.764
13.7614	0.761
13.8023	0.756
13.8433	0.747
13.8842	0.739
13.9252	0.727
13.9661	0.722
14.0071	0.715
14.048	0.708
14.089	0.701
14.13	0.698
14.1709	0.686
14.2119	0.684
14.2528	0.674
14.2938	0.672
14.3347	0.672
14.3757	0.672
14.4166	0.679
14.4576	0.693
14.4986	0.703
14.5395	0.722
14.5805	0.729
14.6214	0.734
14.6624	0.725
14.7033	0.717
14.7443	0.696
14.7853	0.683
14.8262	0.671
14.8672	0.659
14.9081	0.647
14.9491	0.632
14.99	0.623
15.031	0.613
15.0719	0.608
15.1129	0.604
15.1539	0.597
15.1948	0.592
15.2358	0.587
15.2767	0.584
15.3177	0.582
15.3586	0.579
15.3996	0.577
15.4405	0.572
15.4815	0.572
15.5225	0.568
15.5634	0.568
15.6044	0.567
15.6453	0.567
15.6863	0.567
15.7272	0.565
15.7682	0.563
15.8091	0.562
15.8501	0.562
15.8911	0.558
15.932	0.551
15.973	0.543
