Infrared Spectrum: as-Triazine, 3-amino-5,6-di-2-pyridyl-,
Formula: C13 H10 N6
CAS: 116557-76-7
State: SOLUTION (2% CHCl3 FOR 2.5-12 MICRON)
Class: COBLENTZ
Instrument: PERKIN-ELMER 21 (GRATING)
Instrument parameters: FILTER AT ABOUT 10 MICRONS
Path length: 0.03 CM
Resolution: 2
Origin: ABBOTT LABORATORIES
1/CM	TRANSMITTANCE
798	0.6689
807	0.6767
816	0.6671
825	0.6963
834	0.775
843	0.7894
852	0.792
861	0.7917
870	0.7865
879	0.7812
888	0.7781
897	0.8036
906	0.8037
915	0.7631
924	0.7105
933	0.794
942	0.8169
951	0.8112
960	0.8068
969	0.8186
978	0.7939
987	0.6054
996	0.6854
1005	0.7296
1014	0.6748
1023	0.3974
1032	0.3898
1041	0.5896
1050	0.5802
1059	0.7043
1068	0.6917
1077	0.4508
1086	0.4365
1095	0.3982
1104	0.5135
1113	0.6935
1122	0.784
1131	0.7866
1140	0.6127
1149	0.7648
1158	0.8131
1167	0.7961
1176	0.7509
1185	0.6887
1194	0.6726
1203	0.6684
1212	0.6517
1221	0.6384
1230	0.6372
1239	0.6535
1248	0.6995
1257	0.7461
1266	0.7515
1275	0.675
1284	0.626
1293	0.781
1302	0.8057
1311	0.8251
1320	0.845
1329	0.8495
1338	0.8496
1347	0.8447
1356	0.807
1365	0.7359
1374	0.4351
1383	0.3161
1392	0.6516
1401	0.7451
1410	0.5834
1419	0.396
1428	0.3736
1437	0.2613
1446	0.3059
1455	0.4334
1464	0.3315
1473	0.2882
1482	0.3912
1491	0.3756
1500	0.3053
1509	0.2924
1518	0.2829
1527	0.3195
1536	0.4916
1545	0.5622
1554	0.5299
1563	0.4051
1572	0.4362
1581	0.1362
1590	0.0826
1599	0.0382
1608	0.1745
1617	0.31
1626	0.4261
1635	0.7208
1644	0.786
1653	0.8157
1662	0.8386
1671	0.8615
1680	0.8712
1689	0.8849
1698	0.8865
1707	0.8891
1716	0.8949
1725	0.9004
1734	0.9021
1743	0.9003
1752	0.8956
1761	0.8914
1770	0.8931
1779	0.8983
1788	0.9039
1797	0.9079
1806	0.9079
1815	0.906
1824	0.9009
1833	0.8895
1842	0.8855
1851	0.8915
1860	0.8918
1869	0.893
1878	0.9011
1887	0.9041
1896	0.8975
1905	0.8936
1914	0.8999
1923	0.8993
1932	0.8855
1941	0.8841
1950	0.8912
1959	0.8907
1968	0.8844
1977	0.8929
1986	0.9095
1995	0.9091
2004	0.9074
2013	0.9046
2022	0.9015
2031	0.8982
2040	0.8956
2049	0.8953
2058	0.8961
2067	0.8991
2076	0.9056
2085	0.91
2094	0.9133
2103	0.9152
2112	0.9169
2121	0.9187
2130	0.9193
2139	0.9171
2148	0.9153
2157	0.9148
2166	0.9149
2175	0.9154
2184	0.9159
2193	0.9163
2202	0.9168
2211	0.9176
2220	0.9186
2229	0.9201
2238	0.9216
2247	0.9223
2256	0.9218
2265	0.9199
2274	0.9172
2283	0.9143
2292	0.9111
2301	0.908
2310	0.9048
2319	0.9015
2328	0.8988
2337	0.8965
2346	0.8942
2355	0.8919
2364	0.8894
2373	0.8854
2382	0.8775
2391	0.8712
2400	0.8693
2409	0.8689
2418	0.869
2427	0.869
2436	0.8691
2445	0.8704
2454	0.872
2463	0.8735
2472	0.8761
2481	0.8789
2490	0.8825
2499	0.8861
2508	0.89
2517	0.8946
2526	0.8991
2535	0.9028
2544	0.9061
2553	0.9096
2562	0.914
2571	0.9157
2580	0.9161
2589	0.9171
2598	0.9181
2607	0.9185
2616	0.9189
2625	0.9192
2634	0.9193
2643	0.9195
2652	0.9196
2661	0.9198
2670	0.9204
2679	0.9209
2688	0.9215
2697	0.9221
2706	0.9224
2715	0.9224
2724	0.9225
2733	0.9223
2742	0.922
2751	0.9217
2760	0.9213
2769	0.9201
2778	0.9189
2787	0.9177
2796	0.916
2805	0.9126
2814	0.9089
2823	0.902
2832	0.8923
2841	0.879
2850	0.8638
2859	0.8445
2868	0.7983
2877	0.768
2886	0.7399
2895	0.6803
2904	0.6203
2913	0.5606
2922	0.5275
2931	0.5071
2940	0.4883
2949	0.4829
2958	0.482
2967	0.4859
2976	0.5345
2985	0.5917
2994	0.6486
3003	0.6829
3012	0.7016
3021	0.7058
3030	0.7077
3039	0.7091
3048	0.7109
3057	0.7135
3066	0.7177
3075	0.7218
3084	0.7254
3093	0.7263
3102	0.7257
3111	0.724
3120	0.7218
3129	0.7192
3138	0.7155
3147	0.7129
3156	0.7135
3165	0.7169
3174	0.7264
3183	0.7447
3192	0.765
3201	0.7854
3210	0.7993
3219	0.7978
3228	0.7873
3237	0.7701
3246	0.753
3255	0.7358
3264	0.7189
3273	0.6997
3282	0.6997
3291	0.7027
3300	0.7157
3309	0.7286
3318	0.7415
3327	0.7543
3336	0.763
3345	0.7448
3354	0.679
3363	0.612
3372	0.5454
3381	0.4791
3390	0.4205
3399	0.4114
3408	0.5947
3417	0.7536
3426	0.7537
3435	0.7419
3444	0.7105
3453	0.6793
3462	0.6482
3471	0.6173
3480	0.5866
3489	0.5701
3498	0.5746
3507	0.6451
3516	0.7431
3525	0.8719
3534	0.8851
3543	0.8938
3552	0.9003
3561	0.9034
3570	0.9059
3579	0.9073
3588	0.9082
3597	0.9088
3606	0.9093
3615	0.9096
3624	0.9111
3633	0.9132
3642	0.9152
3651	0.9167
3660	0.918
3669	0.9193
3678	0.92
3687	0.9206
3696	0.9212
3705	0.922
3714	0.9228
3723	0.9236
3732	0.9245
3741	0.9252
3750	0.9257
3759	0.9263
3768	0.9268
3777	0.9273
3786	0.9275
3795	0.9277
3804	0.9279
3813	0.9281
3822	0.9282
3831	0.9282
3840	0.9281
3849	0.928
3858	0.9278
3867	0.927
3876	0.9262
3885	0.9255
3894	0.9246
3903	0.9237
3912	0.9232
3921	0.9227
3930	0.9225
3939	0.9223
3948	0.9221
3957	0.9217
3966	0.9214
3975	0.921
3984	0.9207
3993	0.9203
