Infrared Spectrum: Gallic acid, n-dodecyl ester
Formula: C19 H30 O5
CAS: 1166-52-5
State: SOLID (SPLIT MULL), FLUOROLUBE FOR 3800-1330 CM^-^1, NUJOL FOR 1330-460 CM^-^1
Class: COBLENTZ III
Instrument: DOW KBr FOREPRISM-GRATING
Instrument parameters: BLAZED AT 3.5, 12.0, 20.0 MICRON AND CHANGED AT 5.0, 7.5, 14.9 MICRON
Sampling: TRANSMISSION
Resolution: 2
Origin: DOW CHEMICAL COMPANY
1/CM	TRANSMITTANCE
3800	0.6748
3791	0.6765
3782	0.6788
3773	0.6808
3764	0.6833
3755	0.6856
3746	0.688
3737	0.6908
3728	0.6936
3719	0.6964
3710	0.6995
3701	0.7028
3692	0.7061
3683	0.7093
3674	0.7124
3665	0.7153
3656	0.7182
3647	0.7211
3638	0.7242
3629	0.7274
3620	0.7305
3611	0.7333
3602	0.7358
3593	0.7384
3584	0.7405
3575	0.7395
3566	0.7342
3557	0.7228
3548	0.7001
3539	0.6662
3530	0.5993
3521	0.5421
3512	0.448
3503	0.3966
3494	0.2889
3485	0.1931
3476	0.1583
3467	0.1528
3458	0.1206
3449	0.0351
3440	0.0221
3431	0.1305
3422	0.1994
3413	0.2369
3404	0.251
3395	0.2524
3386	0.2247
3377	0.2167
3368	0.196
3359	0.149
3350	0.0911
3341	0.0767
3332	0.1469
3323	0.2429
3314	0.2864
3305	0.3334
3296	0.3725
3287	0.4005
3278	0.425
3269	0.4495
3260	0.481
3251	0.5059
3242	0.529
3233	0.5473
3224	0.5634
3215	0.5787
3206	0.5951
3197	0.6079
3188	0.6195
3179	0.6297
3170	0.6394
3161	0.6494
3152	0.6587
3143	0.6678
3134	0.6768
3125	0.6858
3116	0.6939
3107	0.7003
3098	0.7037
3089	0.7051
3080	0.7056
3071	0.7058
3062	0.7055
3053	0.691
3044	0.7147
3035	0.7217
3026	0.7267
3017	0.7307
3008	0.7336
2999	0.7315
2990	0.6922
2981	0.676
2972	0.6878
2963	0.5312
2954	0.5737
2945	0.4836
2936	0.1651
2927	0.199
2918	0.0421
2909	0.0866
2900	0.2929
2891	0.3555
2882	0.4205
2873	0.4584
2864	0.4537
2855	0.2982
2846	0.0708
2837	0.3718
2828	0.5144
2819	0.6126
2810	0.6307
2801	0.6501
2792	0.6656
2783	0.6757
2774	0.6832
2765	0.6881
2756	0.6919
2747	0.6969
2738	0.6992
2729	0.7017
2720	0.7054
2711	0.7115
2702	0.7158
2693	0.7181
2684	0.7186
2675	0.7175
2666	0.7131
2657	0.7104
2648	0.7189
2639	0.7301
2630	0.7387
2621	0.7464
2612	0.7535
2603	0.7597
2594	0.7655
2585	0.7688
2576	0.7695
2567	0.7675
2558	0.7695
2549	0.7731
2540	0.7764
2531	0.7782
2522	0.7792
2513	0.7801
2504	0.7814
2495	0.7825
2486	0.7836
2477	0.7846
2468	0.7861
2459	0.7882
2450	0.7894
2441	0.7892
2432	0.7878
2423	0.7878
2414	0.7882
2405	0.7886
2396	0.7892
2387	0.7901
2378	0.7911
2369	0.7921
2360	0.7934
2351	0.7944
2342	0.7953
2333	0.7957
2324	0.7958
2315	0.7972
2306	0.8025
2297	0.8031
2288	0.8005
2279	0.7997
2270	0.8028
2261	0.8099
2252	0.8162
2243	0.8228
2234	0.8294
2225	0.8361
2216	0.8411
2207	0.8433
2198	0.8439
2189	0.8468
2180	0.85
2171	0.8528
2162	0.856
2153	0.8589
2144	0.862
2135	0.8642
2126	0.8666
2117	0.8695
2108	0.8724
2099	0.8751
2090	0.8777
2081	0.8801
2072	0.8817
2063	0.8815
2054	0.8854
2045	0.8885
2036	0.8913
2027	0.8936
2018	0.8952
2009	0.8963
2000	0.896
1991	0.8632
1982	0.8584
1973	0.8593
1964	0.8611
1955	0.8656
1946	0.8658
1937	0.8643
1928	0.8642
1919	0.865
1910	0.8658
1901	0.8663
1892	0.8664
1883	0.8667
1874	0.868
1865	0.8688
1856	0.8696
1847	0.8736
1838	0.8767
1829	0.8771
1820	0.8791
1811	0.8804
1802	0.878
1793	0.8737
1784	0.8717
1775	0.8734
1766	0.8746
1757	0.8711
1748	0.8611
1739	0.8506
1730	0.8368
1721	0.8321
1712	0.8197
1703	0.8383
1694	0.7784
1685	0.6424
1676	0.3928
1667	0.0166
1658	0.3477
1649	0.5412
1640	0.6664
1631	0.6864
1622	0.5854
1613	0.1439
1604	0.0615
1595	0.4353
1586	0.6426
1577	0.7285
1568	0.7825
1559	0.799
1550	0.7933
1541	0.6794
1532	0.0404
1523	0.4862
1514	0.7057
1505	0.7611
1496	0.7917
1487	0.7967
1478	0.6761
1469	0.1229
1460	0.3047
1451	0.6054
1442	0.6634
1433	0.5889
1424	0.5794
1415	0.2775
1406	0.1069
1397	0.5346
1388	0.3185
1379	0.0683
1370	0.208
1361	0.4814
1352	0.5267
1343	0.4775
1334	0.3069
1325	0.367
1316	0.1976
1307	0.0436
1298	0.0497
1289	0.2865
1280	0.4278
1271	0.3332
1262	0.0221
1253	0.0446
1244	0.2222
1235	0.2223
1226	0.2809
1217	0.4342
1208	0.5103
1199	0.2447
1190	0.308
1181	0.6039
1172	0.6561
1163	0.6847
1154	0.6964
1145	0.6221
1136	0.7137
1127	0.7045
1118	0.7337
1109	0.7186
1100	0.4762
1091	0.6501
1082	0.7051
1073	0.7081
1064	0.6325
1055	0.5258
1046	0.5899
1037	0.292
1028	0.0519
1019	0.5596
1010	0.6847
1001	0.7375
992	0.7342
983	0.4016
974	0.6835
965	0.7478
956	0.7964
947	0.805
938	0.6867
929	0.8074
920	0.8218
911	0.8225
902	0.8205
893	0.7806
884	0.7995
875	0.636
866	0.8175
857	0.8364
848	0.8133
839	0.8446
830	0.8494
821	0.7587
812	0.8533
803	0.8518
794	0.8549
785	0.8467
776	0.7496
767	0.4329
758	0.7732
749	0.2607
740	0.7219
731	0.7114
722	0.5031
713	0.775
704	0.8335
695	0.8532
686	0.8643
677	0.8627
668	0.8721
659	0.786
650	0.6907
641	0.5354
632	0.7675
623	0.7896
614	0.7736
605	0.7315
596	0.6678
587	0.6228
578	0.6351
569	0.65
560	0.6558
551	0.6103
542	0.6705
533	0.6347
524	0.6518
515	0.6521
506	0.6625
497	0.6668
488	0.6684
479	0.6697
470	0.6683
461	0.6668
