Infrared Spectrum: 2-(N-METHYLANILINO)-3-(5-NONYL) PYRAZINE
Formula: C20 H29 N3
CAS: 116660-10-7
State: LIQUID
Class: COBLENTZ
Instrument: Not specified, most likely a prism, grating, or hybrid spectrometer.
Sampling: TRANSMISSION
Path length: 0.0015 CM
Resolution: 4
Origin: WYANDOTTE CHEMICALS CORP., WYANDOTTE, MICHIGAN, USA
MICROMETERS	TRANSMITTANCE
2.013	0.94
2.05277	0.936
2.09255	0.935
2.13232	0.938
2.1721	0.917
2.21187	0.905
2.25165	0.905
2.29142	0.91
2.33119	0.908
2.37097	0.905
2.41074	0.925
2.45052	0.928
2.49029	0.93
2.53006	0.935
2.56984	0.938
2.60961	0.94
2.64939	0.94
2.68916	0.936
2.72894	0.936
2.76871	0.932
2.80848	0.918
2.84826	0.908
2.88803	0.9
2.92781	0.895
2.96758	0.882
3.00735	0.882
3.04713	0.887
3.0869	0.882
3.12668	0.868
3.16645	0.864
3.20623	0.792
3.246	0.555
3.28577	0.615
3.32555	0.379
3.36532	0.049
3.4051	0.066
3.44487	0.192
3.48465	0.15
3.52442	0.61
3.56419	0.759
3.60397	0.835
3.64374	0.84
3.68352	0.854
3.72329	0.872
3.76306	0.87
3.80284	0.882
3.84261	0.888
3.88239	0.893
3.92216	0.905
3.96194	0.915
4.00171	0.927
4.04148	0.925
4.08126	0.922
4.12103	0.912
4.16081	0.907
4.20058	0.905
4.24035	0.892
4.28013	0.892
4.3199	0.9
4.35968	0.928
4.39945	0.943
4.43923	0.935
4.479	0.941
4.51877	0.941
4.55855	0.943
4.59832	0.943
4.6381	0.95
4.67787	0.946
4.71765	0.943
4.75742	0.945
4.79719	0.946
4.83697	0.951
4.87674	0.951
4.91652	0.953
4.95629	0.95
4.99606	0.951
5.03584	0.946
5.07561	0.943
5.11539	0.938
5.15516	0.913
5.19494	0.913
5.23471	0.935
5.27448	0.938
5.31426	0.928
5.35403	0.92
5.39381	0.936
5.43358	0.933
5.47335	0.932
5.51313	0.923
5.5529	0.912
5.59268	0.905
5.63245	0.91
5.67223	0.898
5.712	0.872
5.75177	0.875
5.79155	0.873
5.83132	0.852
5.8711	0.852
5.91087	0.839
5.95065	0.834
5.99042	0.825
6.03019	0.817
6.06997	0.8
6.10974	0.766
6.14952	0.658
6.18929	0.27
6.22906	0.404
6.26884	0.315
6.30861	0.185
6.34839	0.293
6.38816	0.519
6.42794	0.48
6.46771	0.208
6.50748	0.044
6.54726	0.175
6.58703	0.273
6.62681	0.049
6.66658	0.145
6.70635	0.212
6.74613	0.142
6.7859	0.077
6.82568	0.081
6.86545	0.099
6.90523	0.147
6.945	0.145
6.98477	0.096
7.02455	0.271
7.06432	0.094
7.1041	0.101
7.14387	0.154
7.18365	0.19
7.22342	0.126
7.26319	0.164
7.30297	0.199
7.34274	0.257
7.38252	0.301
7.42229	0.276
7.46206	0.353
7.50184	0.419
7.54161	0.484
7.58139	0.52
7.62116	0.499
7.66094	0.457
7.70071	0.361
7.74048	0.366
7.78026	0.393
7.82003	0.436
7.85981	0.565
7.89958	0.52
7.93935	0.482
7.97913	0.451
8.0189	0.436
8.05868	0.504
8.09845	0.5
8.13823	0.399
8.178	0.268
8.21777	0.326
8.25755	0.505
8.29732	0.53
8.3371	0.436
8.37687	0.311
8.41665	0.218
8.45642	0.242
8.49619	0.323
8.53597	0.363
8.57574	0.336
8.61552	0.271
8.65529	0.225
8.69506	0.174
8.73484	0.164
8.77461	0.252
8.81439	0.353
8.85416	0.414
8.89394	0.399
8.93371	0.376
8.97348	0.378
9.01326	0.499
9.05303	0.507
9.09281	0.563
9.13258	0.608
9.17235	0.62
9.21213	0.55
9.2519	0.502
9.29168	0.517
9.33145	0.538
9.37123	0.605
9.411	0.684
9.45077	0.723
9.49055	0.749
9.53032	0.772
9.5701	0.797
9.60987	0.802
9.64965	0.771
9.68942	0.673
9.72919	0.603
9.76897	0.686
9.80874	0.754
9.84852	0.752
9.88829	0.669
9.92806	0.519
9.96784	0.351
10.0076	0.258
10.0474	0.525
10.0872	0.674
10.1269	0.741
10.1667	0.776
10.2065	0.781
10.2463	0.781
10.286	0.771
10.3258	0.769
10.3656	0.766
10.4054	0.779
10.4451	0.789
10.4849	0.807
10.5247	0.82
10.5645	0.83
10.6042	0.837
10.644	0.84
10.6838	0.829
10.7235	0.799
10.7633	0.742
10.8031	0.696
10.8429	0.698
10.8826	0.701
10.9224	0.731
10.9622	0.761
11.002	0.792
11.0417	0.784
11.0815	0.764
11.1213	0.759
11.1611	0.767
11.2008	0.776
11.2406	0.8
11.2804	0.819
11.3202	0.834
11.3599	0.849
11.3997	0.859
11.4395	0.852
11.4793	0.85
11.519	0.829
11.5588	0.787
11.5986	0.731
11.6384	0.646
11.6781	0.562
11.7179	0.507
11.7577	0.522
11.7975	0.565
11.8372	0.62
11.877	0.671
11.9168	0.731
11.9565	0.771
11.9963	0.805
12.0361	0.812
12.0759	0.829
12.1156	0.83
12.1554	0.835
12.1952	0.834
12.235	0.819
12.2747	0.802
12.3145	0.8
12.3543	0.805
12.3941	0.815
12.4338	0.809
12.4736	0.805
12.5134	0.789
12.5532	0.767
12.5929	0.747
12.6327	0.734
12.6725	0.731
12.7123	0.739
12.752	0.762
12.7918	0.747
12.8316	0.726
12.8714	0.65
12.9111	0.565
12.9509	0.472
12.9907	0.404
13.0305	0.348
13.0702	0.351
13.11	0.354
13.1498	0.399
13.1895	0.454
13.2293	0.5
13.2691	0.532
13.3089	0.558
13.3486	0.587
13.3884	0.631
13.4282	0.684
13.468	0.723
13.5077	0.739
13.5475	0.746
13.5873	0.739
13.6271	0.723
13.6668	0.719
13.7066	0.721
13.7464	0.751
13.7862	0.782
13.8259	0.825
13.8657	0.852
13.9055	0.868
13.9453	0.87
13.985	0.87
14.0248	0.845
14.0646	0.807
14.1044	0.739
14.1441	0.653
14.1839	0.532
14.2237	0.396
14.2635	0.295
14.3032	0.227
14.343	0.192
14.3828	0.199
14.4225	0.253
14.4623	0.328
14.5021	0.452
14.5419	0.567
14.5816	0.671
14.6214	0.751
14.6612	0.8
14.701	0.825
14.7407	0.842
14.7805	0.847
14.8203	0.845
14.8601	0.839
14.8998	0.84
14.9396	0.852
14.9794	0.854
15.0192	0.855
15.0589	0.854
15.0987	0.855
15.1385	0.877
15.1783	0.89
15.218	0.897
15.2578	0.902
15.2976	0.902
15.3374	0.9
15.3771	0.9
15.4169	0.903
15.4567	0.902
15.4965	0.89
15.5362	0.885
15.576	0.878
15.6158	0.867
15.6555	0.873
15.6953	0.852
15.7351	0.849
15.7749	0.842
15.8146	0.839
15.8544	0.83
15.8942	0.825
15.934	0.817
15.9737	0.807
