Infrared Spectrum: 2-PHENOXY-6-BENZOYL PYRAZINE
Formula: C17 H12 N2 O2
CAS: 116659-99-5
State: LIQUID
Class: COBLENTZ
Instrument: Not specified, most likely a prism, grating, or hybrid spectrometer.
Sampling: TRANSMISSION
Path length: CAPILLARY
Resolution: 4
Origin: WYANDOTTE CHEMICALS CORP., WYANDOTTE, MICHIGAN, USA
MICROMETERS	TRANSMITTANCE
2.06	0.946
2.09971	0.951
2.13943	0.948
2.17914	0.948
2.21886	0.953
2.25857	0.933
2.29829	0.938
2.338	0.93
2.37772	0.93
2.41743	0.938
2.45714	0.93
2.49686	0.94
2.53657	0.943
2.57629	0.938
2.616	0.938
2.65572	0.935
2.69543	0.923
2.73515	0.917
2.77486	0.9
2.81458	0.892
2.85429	0.872
2.894	0.868
2.93372	0.854
2.97343	0.849
3.01315	0.844
3.05286	0.842
3.09258	0.845
3.13229	0.844
3.17201	0.839
3.21172	0.759
3.25143	0.736
3.29115	0.842
3.33086	0.84
3.37058	0.84
3.41029	0.85
3.45001	0.864
3.48972	0.873
3.52944	0.895
3.56915	0.897
3.60886	0.89
3.64858	0.89
3.68829	0.902
3.72801	0.897
3.76772	0.907
3.80744	0.902
3.84715	0.905
3.88687	0.9
3.92658	0.903
3.96629	0.908
4.00601	0.898
4.04572	0.897
4.08544	0.902
4.12515	0.895
4.16487	0.893
4.20458	0.888
4.2443	0.898
4.28401	0.908
4.32373	0.922
4.36344	0.917
4.40315	0.912
4.44287	0.91
4.48258	0.917
4.5223	0.912
4.56201	0.91
4.60173	0.908
4.64144	0.913
4.68116	0.918
4.72087	0.917
4.76058	0.917
4.8003	0.913
4.84001	0.908
4.87973	0.92
4.91944	0.907
4.95916	0.905
4.99887	0.9
5.03859	0.892
5.0783	0.887
5.11801	0.878
5.15773	0.883
5.19744	0.887
5.23716	0.892
5.27687	0.89
5.31659	0.887
5.3563	0.885
5.39602	0.888
5.43573	0.892
5.47544	0.882
5.51516	0.872
5.55487	0.875
5.59459	0.865
5.6343	0.862
5.67402	0.859
5.71373	0.84
5.75345	0.804
5.79316	0.796
5.83288	0.784
5.87259	0.694
5.9123	0.441
5.95202	0.23
5.99173	0.393
6.03145	0.648
6.07116	0.726
6.11088	0.728
6.15059	0.666
6.19031	0.388
6.23002	0.585
6.26973	0.464
6.30945	0.389
6.34916	0.65
6.38888	0.681
6.42859	0.484
6.46831	0.396
6.50802	0.597
6.54774	0.709
6.58745	0.679
6.62716	0.376
6.66688	0.318
6.70659	0.62
6.74631	0.651
6.78602	0.603
6.82574	0.464
6.86545	0.553
6.90517	0.603
6.94488	0.603
6.98459	0.532
7.02431	0.23
7.06402	0.117
7.10374	0.339
7.14345	0.492
7.18317	0.547
7.22288	0.517
7.2626	0.482
7.30231	0.388
7.34203	0.479
7.38174	0.543
7.42145	0.499
7.46117	0.401
7.50088	0.265
7.5406	0.278
7.58031	0.26
7.62003	0.27
7.65974	0.346
7.69946	0.394
7.73917	0.356
7.77888	0.192
7.8186	0.067
7.85831	0.185
7.89803	0.421
7.93774	0.553
7.97746	0.57
8.01717	0.59
8.05689	0.582
8.0966	0.585
8.13631	0.573
8.17603	0.542
8.21574	0.461
8.25546	0.394
8.29517	0.308
8.33489	0.199
8.3746	0.278
8.41432	0.402
8.45403	0.374
8.49375	0.316
8.53346	0.305
8.57317	0.349
8.61289	0.477
8.6526	0.597
8.69232	0.646
8.73203	0.631
8.77175	0.633
8.81146	0.674
8.85118	0.736
8.89089	0.767
8.9306	0.786
8.97032	0.794
9.01003	0.796
9.04975	0.794
9.08946	0.797
9.12918	0.797
9.16889	0.786
9.20861	0.751
9.24832	0.688
9.28803	0.679
9.32775	0.731
9.36746	0.776
9.40718	0.799
9.44689	0.8
9.48661	0.804
9.52632	0.807
9.56604	0.791
9.60575	0.771
9.64546	0.746
9.68518	0.693
9.72489	0.628
9.76461	0.651
9.80432	0.698
9.84404	0.65
9.88375	0.464
9.92347	0.318
9.96318	0.429
10.0029	0.665
10.0426	0.736
10.0823	0.771
10.122	0.779
10.1618	0.789
10.2015	0.8
10.2412	0.807
10.2809	0.814
10.3206	0.819
10.3603	0.815
10.4	0.819
10.4398	0.817
10.4795	0.827
10.5192	0.82
10.5589	0.807
10.5986	0.786
10.6383	0.749
10.678	0.714
10.7178	0.716
10.7575	0.721
10.7972	0.736
10.8369	0.716
10.8766	0.679
10.9163	0.625
10.956	0.577
10.9958	0.548
11.0355	0.553
11.0752	0.565
11.1149	0.56
11.1546	0.525
11.1943	0.505
11.234	0.494
11.2738	0.479
11.3135	0.47
11.3532	0.497
11.3929	0.568
11.4326	0.638
11.4723	0.708
11.512	0.757
11.5518	0.776
11.5915	0.794
11.6312	0.797
11.6709	0.804
11.7106	0.8
11.7503	0.802
11.79	0.791
11.8298	0.779
11.8695	0.774
11.9092	0.751
11.9489	0.736
11.9886	0.723
12.0283	0.703
12.068	0.696
12.1078	0.699
12.1475	0.688
12.1872	0.676
12.2269	0.686
12.2666	0.706
12.3063	0.734
12.346	0.746
12.3858	0.757
12.4255	0.749
12.4652	0.729
12.5049	0.731
12.5446	0.756
12.5843	0.766
12.6241	0.757
12.6638	0.747
12.7035	0.721
12.7432	0.698
12.7829	0.661
12.8226	0.601
12.8623	0.542
12.9021	0.477
12.9418	0.451
12.9815	0.457
13.0212	0.489
13.0609	0.52
13.1006	0.555
13.1403	0.568
13.1801	0.58
13.2198	0.6
13.2595	0.593
13.2992	0.57
13.3389	0.537
13.3786	0.497
13.4183	0.485
13.4581	0.497
13.4978	0.577
13.5375	0.626
13.5772	0.658
13.6169	0.676
13.6566	0.683
13.6963	0.673
13.7361	0.643
13.7758	0.592
13.8155	0.522
13.8552	0.461
13.8949	0.388
13.9346	0.359
13.9743	0.371
14.0141	0.421
14.0538	0.467
14.0935	0.502
14.1332	0.525
14.1729	0.52
14.2126	0.502
14.2523	0.461
14.2921	0.421
14.3318	0.407
14.3715	0.417
14.4112	0.432
14.4509	0.407
14.4906	0.353
14.5303	0.313
14.5701	0.318
14.6098	0.368
14.6495	0.432
14.6892	0.52
14.7289	0.6
14.7686	0.655
14.8083	0.701
14.8481	0.723
14.8878	0.733
14.9275	0.737
14.9672	0.737
15.0069	0.728
15.0466	0.726
15.0863	0.741
15.1261	0.756
15.1658	0.751
15.2055	0.741
15.2452	0.733
15.2849	0.726
15.3246	0.723
15.3643	0.723
15.4041	0.718
15.4438	0.718
15.4835	0.719
15.5232	0.714
15.5629	0.708
15.6026	0.696
15.6424	0.688
15.6821	0.691
15.7218	0.703
15.7615	0.718
15.8012	0.718
15.8409	0.718
15.8806	0.724
15.9204	0.716
15.9601	0.711
15.9998	0.711
