Infrared Spectrum: 2-(N,N-DI-n-PENTYLAMINO)-3-METHYL PYRAZINE
Formula: C15 H27 N3
CAS: 116660-29-8
State: LIQUID
Class: COBLENTZ
Instrument: Not specified, most likely a prism, grating, or hybrid spectrometer.
Sampling: TRANSMISSION
Path length: 0.0015 CM
Resolution: 4
Origin: WYANDOTTE CHEMICALS CORP., WYANDOTTE, MICHIGAN, USA
MICROMETERS	TRANSMITTANCE
2.027	0.98
2.06677	0.978
2.10654	0.973
2.14631	0.968
2.18608	0.951
2.22585	0.923
2.26562	0.92
2.30539	0.916
2.34516	0.92
2.38494	0.923
2.42471	0.935
2.46448	0.941
2.50425	0.946
2.54402	0.95
2.58379	0.953
2.62356	0.956
2.66333	0.96
2.7031	0.96
2.74287	0.958
2.78264	0.938
2.82241	0.93
2.86218	0.92
2.90195	0.908
2.94172	0.905
2.98149	0.898
3.02127	0.895
3.06104	0.883
3.10081	0.868
3.14058	0.85
3.18035	0.838
3.22012	0.799
3.25989	0.506
3.29966	0.573
3.33943	0.104
3.3792	0.061
3.41897	0.089
3.45874	0.096
3.49851	0.174
3.53828	0.461
3.57805	0.707
3.61782	0.769
3.6576	0.767
3.69737	0.782
3.73714	0.81
3.77691	0.83
3.81668	0.843
3.85645	0.853
3.89622	0.867
3.93599	0.875
3.97576	0.88
4.01553	0.885
4.0553	0.88
4.09507	0.87
4.13484	0.867
4.17461	0.862
4.21438	0.852
4.25415	0.855
4.29393	0.87
4.3337	0.885
4.37347	0.898
4.41324	0.895
4.45301	0.883
4.49278	0.895
4.53255	0.898
4.57232	0.908
4.61209	0.905
4.65186	0.903
4.69163	0.901
4.7314	0.903
4.77117	0.906
4.81094	0.915
4.85071	0.916
4.89048	0.918
4.93025	0.918
4.97003	0.916
5.0098	0.916
5.04957	0.916
5.08934	0.918
5.12911	0.918
5.16888	0.915
5.20865	0.91
5.24842	0.908
5.28819	0.892
5.32796	0.885
5.36773	0.903
5.4075	0.916
5.44727	0.915
5.48704	0.911
5.52681	0.9
5.56658	0.897
5.60636	0.88
5.64613	0.87
5.6859	0.877
5.72567	0.875
5.76544	0.858
5.80521	0.832
5.84498	0.82
5.88475	0.805
5.92452	0.799
5.96429	0.795
6.00406	0.794
6.04383	0.79
6.0836	0.789
6.12337	0.78
6.16314	0.752
6.20291	0.72
6.24269	0.641
6.28246	0.398
6.32223	0.289
6.362	0.32
6.40177	0.5
6.44154	0.476
6.48131	0.126
6.52108	0.093
6.56085	0.312
6.60062	0.401
6.64039	0.362
6.68016	0.244
6.71993	0.214
6.7597	0.071
6.79947	0.068
6.83924	0.106
6.87902	0.101
6.91879	0.081
6.95856	0.069
6.99833	0.061
7.0381	0.066
7.07787	0.161
7.11764	0.332
7.15741	0.352
7.19718	0.184
7.23695	0.063
7.27672	0.066
7.31649	0.156
7.35626	0.255
7.39603	0.345
7.4358	0.4
7.47557	0.45
7.51535	0.463
7.55512	0.491
7.59489	0.455
7.63466	0.388
7.67443	0.362
7.7142	0.367
7.75397	0.378
7.79374	0.363
7.83351	0.332
7.87328	0.333
7.91305	0.378
7.95282	0.353
7.99259	0.312
8.03236	0.282
8.07213	0.34
8.1119	0.392
8.15167	0.406
8.19145	0.392
8.23122	0.327
8.27099	0.294
8.31076	0.247
8.35053	0.141
8.3903	0.093
8.43007	0.147
8.46984	0.267
8.50961	0.373
8.54938	0.44
8.58915	0.47
8.62892	0.48
8.66869	0.47
8.70846	0.37
8.74823	0.308
8.788	0.242
8.82778	0.131
8.86755	0.136
8.90732	0.202
8.94709	0.29
8.98686	0.363
9.02663	0.36
9.0664	0.318
9.10617	0.373
9.14594	0.481
9.18571	0.564
9.22548	0.538
9.26525	0.576
9.30502	0.629
9.34479	0.647
9.38456	0.659
9.42433	0.669
9.46411	0.682
9.50388	0.679
9.54365	0.684
9.58342	0.661
9.62319	0.622
9.66296	0.541
9.70273	0.491
9.7425	0.579
9.78227	0.641
9.82204	0.661
9.86181	0.662
9.90158	0.624
9.94135	0.596
9.98112	0.609
10.0209	0.624
10.0607	0.626
10.1004	0.604
10.1402	0.549
10.18	0.461
10.2197	0.357
10.2595	0.373
10.2993	0.45
10.3391	0.485
10.3788	0.521
10.4186	0.541
10.4584	0.573
10.4981	0.621
10.5379	0.651
10.5777	0.681
10.6175	0.697
10.6572	0.71
10.697	0.72
10.7368	0.73
10.7765	0.737
10.8163	0.754
10.8561	0.749
10.8958	0.75
10.9356	0.75
10.9754	0.762
11.0152	0.757
11.0549	0.752
11.0947	0.752
11.1345	0.754
11.1742	0.745
11.214	0.74
11.2538	0.744
11.2936	0.74
11.3333	0.749
11.3731	0.755
11.4129	0.765
11.4526	0.759
11.4924	0.749
11.5322	0.724
11.5719	0.699
11.6117	0.671
11.6515	0.652
11.6913	0.641
11.731	0.612
11.7708	0.579
11.8106	0.504
11.8503	0.461
11.8901	0.401
11.9299	0.358
11.9697	0.33
12.0094	0.33
12.0492	0.363
12.089	0.441
12.1287	0.573
12.1685	0.681
12.2083	0.744
12.248	0.782
12.2878	0.803
12.3276	0.827
12.3674	0.838
12.4071	0.845
12.4469	0.847
12.4867	0.848
12.5264	0.848
12.5662	0.85
12.606	0.848
12.6458	0.845
12.6855	0.835
12.7253	0.825
12.7651	0.813
12.8048	0.805
12.8446	0.794
12.8844	0.775
12.9241	0.762
12.9639	0.752
13.0037	0.744
13.0435	0.747
13.0832	0.752
13.123	0.769
13.1628	0.777
13.2025	0.784
13.2423	0.787
13.2821	0.78
13.3219	0.772
13.3616	0.77
13.4014	0.782
13.4412	0.782
13.4809	0.78
13.5207	0.77
13.5605	0.757
13.6002	0.732
13.64	0.709
13.6798	0.692
13.7196	0.677
13.7593	0.677
13.7991	0.687
13.8389	0.71
13.8786	0.749
13.9184	0.774
13.9582	0.79
13.998	0.808
14.0377	0.815
14.0775	0.818
14.1173	0.818
14.157	0.818
14.1968	0.818
14.2366	0.813
14.2763	0.81
14.3161	0.812
14.3559	0.813
14.3957	0.817
14.4354	0.822
14.4752	0.828
14.515	0.837
14.5547	0.84
14.5945	0.852
14.6343	0.855
14.6741	0.86
14.7138	0.863
14.7536	0.868
14.7934	0.868
14.8331	0.867
14.8729	0.862
14.9127	0.867
14.9525	0.873
14.9922	0.865
15.032	0.828
15.0718	0.808
15.1115	0.789
15.1513	0.805
15.1911	0.822
15.2308	0.832
15.2706	0.843
15.3104	0.842
15.3502	0.842
15.3899	0.832
15.4297	0.84
15.4695	0.832
15.5092	0.837
15.549	0.822
15.5888	0.82
15.6286	0.828
15.6683	0.813
15.7081	0.812
15.7479	0.808
15.7876	0.792
15.8274	0.785
15.8672	0.78
15.9069	0.775
15.9467	0.767
15.9865	0.764
