Infrared Spectrum: 2-(2,2-DIMETHYLPENTOXY)-3,6-DIMETHYL PYRAZINE
Formula: C13 H22 N2 O
CAS: 116660-21-0
State: LIQUID
Class: COBLENTZ
Instrument: Not specified, most likely a prism, grating, or hybrid spectrometer.
Sampling: TRANSMISSION
Path length: 0.0015 CM
Resolution: 4
Origin: WYANDOTTE CHEMICALS CORP., WYANDOTTE, MICHIGAN, USA
MICROMETERS	TRANSMITTANCE
2.041	0.955
2.08188	0.95
2.12275	0.955
2.16363	0.936
2.20451	0.895
2.24538	0.875
2.28626	0.892
2.32714	0.893
2.36801	0.907
2.40889	0.91
2.44977	0.924
2.49064	0.916
2.53152	0.909
2.57239	0.921
2.61327	0.931
2.65415	0.936
2.69502	0.936
2.7359	0.924
2.77678	0.922
2.81765	0.904
2.85853	0.89
2.89941	0.866
2.94028	0.859
2.98116	0.839
3.02204	0.852
3.06291	0.854
3.10379	0.857
3.14467	0.832
3.18554	0.833
3.22642	0.821
3.2673	0.64
3.30817	0.578
3.34905	0.191
3.38992	0.047
3.4308	0.061
3.47168	0.095
3.51255	0.164
3.55343	0.489
3.59431	0.719
3.63518	0.791
3.67606	0.77
3.71694	0.815
3.75781	0.851
3.79869	0.852
3.83957	0.859
3.88044	0.868
3.92132	0.852
3.9622	0.863
4.00307	0.871
4.04395	0.883
4.08483	0.873
4.1257	0.851
4.16658	0.845
4.20745	0.868
4.24833	0.861
4.28921	0.851
4.33008	0.863
4.37096	0.871
4.41184	0.892
4.45271	0.907
4.49359	0.907
4.53447	0.919
4.57534	0.919
4.61622	0.921
4.6571	0.914
4.69797	0.9
4.73885	0.912
4.77973	0.907
4.8206	0.916
4.86148	0.919
4.90236	0.902
4.94323	0.912
4.98411	0.912
5.02498	0.904
5.06586	0.902
5.10674	0.905
5.14761	0.907
5.18849	0.909
5.22937	0.91
5.27024	0.921
5.31112	0.902
5.352	0.914
5.39287	0.924
5.43375	0.931
5.47463	0.934
5.5155	0.934
5.55638	0.917
5.59726	0.898
5.63813	0.904
5.67901	0.895
5.71989	0.852
5.76076	0.799
5.80164	0.765
5.84251	0.849
5.88339	0.866
5.92427	0.852
5.96514	0.844
6.00602	0.803
6.0469	0.758
6.08777	0.717
6.12865	0.768
6.16953	0.779
6.2104	0.739
6.25128	0.52
6.29216	0.364
6.33303	0.553
6.37391	0.45
6.41479	0.099
6.45566	0.126
6.49654	0.371
6.53742	0.476
6.57829	0.587
6.61917	0.583
6.66004	0.506
6.70092	0.441
6.7418	0.226
6.78267	0.073
6.82355	0.056
6.86443	0.046
6.9053	0.046
6.94618	0.053
6.98706	0.083
7.02793	0.09
7.06881	0.047
7.10969	0.051
7.15056	0.14
7.19144	0.077
7.23232	0.046
7.27319	0.061
7.31407	0.078
7.35495	0.094
7.39582	0.047
7.4367	0.049
7.47757	0.114
7.51845	0.306
7.55933	0.349
7.6002	0.301
7.64108	0.376
7.68196	0.166
7.72283	0.051
7.76371	0.145
7.80459	0.321
7.84546	0.414
7.88634	0.535
7.92722	0.613
7.96809	0.684
8.00897	0.681
8.04985	0.604
8.09072	0.489
8.1316	0.544
8.17248	0.599
8.21335	0.58
8.25423	0.558
8.2951	0.549
8.33598	0.505
8.37686	0.375
8.41773	0.109
8.45861	0.051
8.49949	0.049
8.54036	0.047
8.58124	0.053
8.62212	0.114
8.66299	0.289
8.70387	0.476
8.74475	0.618
8.78562	0.684
8.8265	0.736
8.86738	0.748
8.90825	0.758
8.94913	0.743
8.99001	0.734
9.03088	0.722
9.07176	0.667
9.11263	0.643
9.15351	0.626
9.19439	0.606
9.23526	0.635
9.27614	0.684
9.31702	0.691
9.35789	0.688
9.39877	0.698
9.43965	0.684
9.48052	0.648
9.5214	0.578
9.56228	0.419
9.60315	0.208
9.64403	0.061
9.68491	0.058
9.72578	0.099
9.76666	0.148
9.80754	0.125
9.84841	0.148
9.88929	0.205
9.93016	0.248
9.97104	0.195
10.0119	0.155
10.0528	0.188
10.0937	0.261
10.1345	0.339
10.1754	0.351
10.2163	0.327
10.2572	0.393
10.2981	0.53
10.3389	0.602
10.3798	0.63
10.4207	0.635
10.4616	0.583
10.5024	0.496
10.5433	0.44
10.5842	0.467
10.6251	0.489
10.6659	0.522
10.7068	0.529
10.7477	0.501
10.7886	0.525
10.8294	0.553
10.8703	0.551
10.9112	0.625
10.9521	0.693
10.993	0.736
11.0338	0.765
11.0747	0.765
11.1156	0.765
11.1565	0.765
11.1973	0.748
11.2382	0.729
11.2791	0.684
11.32	0.611
11.3608	0.534
11.4017	0.47
11.4426	0.371
11.4835	0.373
11.5243	0.563
11.5652	0.681
11.6061	0.729
11.647	0.779
11.6879	0.809
11.7287	0.837
11.7696	0.847
11.8105	0.861
11.8514	0.866
11.8922	0.866
11.9331	0.866
11.974	0.873
12.0149	0.871
12.0557	0.873
12.0966	0.878
12.1375	0.878
12.1784	0.878
12.2192	0.873
12.2601	0.873
12.301	0.864
12.3419	0.849
12.3828	0.833
12.4236	0.818
12.4645	0.818
12.5054	0.809
12.5463	0.811
12.5871	0.815
12.628	0.837
12.6689	0.852
12.7098	0.873
12.7506	0.873
12.7915	0.873
12.8324	0.873
12.8733	0.876
12.9141	0.871
12.955	0.856
12.9959	0.806
13.0368	0.693
13.0777	0.647
13.1185	0.712
13.1594	0.748
13.2003	0.729
13.2412	0.722
13.282	0.743
13.3229	0.763
13.3638	0.78
13.4047	0.753
13.4455	0.708
13.4864	0.65
13.5273	0.63
13.5682	0.662
13.6091	0.724
13.6499	0.784
13.6908	0.818
13.7317	0.828
13.7726	0.821
13.8134	0.797
13.8543	0.751
13.8952	0.736
13.9361	0.777
13.9769	0.815
14.0178	0.851
14.0587	0.863
14.0996	0.864
14.1404	0.873
14.1813	0.88
14.2222	0.886
14.2631	0.892
14.304	0.893
14.3448	0.897
14.3857	0.895
14.4266	0.9
14.4675	0.895
14.5083	0.886
14.5492	0.885
14.5901	0.878
14.631	0.883
14.6718	0.886
14.7127	0.888
14.7536	0.892
14.7945	0.888
14.8353	0.885
14.8762	0.883
14.9171	0.883
14.958	0.88
14.9989	0.859
15.0397	0.813
15.0806	0.794
15.1215	0.803
15.1624	0.832
15.2032	0.847
15.2441	0.847
15.285	0.847
15.3259	0.835
15.3667	0.832
15.4076	0.832
15.4485	0.83
15.4894	0.818
15.5302	0.808
15.5711	0.808
15.612	0.809
15.6529	0.799
15.6938	0.787
15.7346	0.78
15.7755	0.77
15.8164	0.751
15.8573	0.741
15.8981	0.724
15.939	0.703
15.9799	0.683
