Infrared Spectrum: m-PHENYLENE BIS-(2-3-METHYLPYRAZYL) ETHER
Formula: C16 H14 N4 O2
CAS: 116659-49-5
State: SOLID (MINERAL OIL MULL)
Melting point: 138-139 C
Class: COBLENTZ
Instrument: Not specified, most likely a prism, grating, or hybrid spectrometer.
Sampling: TRANSMISSION
Resolution: 4
Origin: WYANDOTTE CHEMICALS CORP., WYANDOTTE, MICHIGAN, USA
MICROMETERS	TRANSMITTANCE
2.027	0.737
2.06794	0.74
2.10887	0.749
2.14981	0.757
2.19074	0.757
2.23168	0.749
2.27261	0.766
2.31355	0.767
2.35448	0.769
2.39542	0.769
2.43635	0.776
2.47729	0.773
2.51822	0.771
2.55916	0.8
2.60009	0.81
2.64103	0.81
2.68197	0.817
2.7229	0.813
2.76384	0.817
2.80477	0.786
2.84571	0.762
2.88664	0.742
2.92758	0.726
2.96851	0.711
3.00945	0.706
3.05038	0.709
3.09132	0.72
3.13225	0.732
3.17319	0.742
3.21412	0.752
3.25506	0.716
3.296	0.716
3.33693	0.58
3.37787	0.208
3.4188	0.179
3.45974	0.363
3.50067	0.346
3.54161	0.663
3.58254	0.812
3.62348	0.848
3.66441	0.846
3.70535	0.848
3.74628	0.858
3.78722	0.868
3.82815	0.878
3.86909	0.887
3.91002	0.885
3.95096	0.885
3.9919	0.892
4.03283	0.897
4.07377	0.885
4.1147	0.885
4.15564	0.887
4.19657	0.897
4.23751	0.894
4.27844	0.868
4.31938	0.892
4.36031	0.916
4.40125	0.943
4.44218	0.926
4.48312	0.916
4.52405	0.926
4.56499	0.926
4.60593	0.928
4.64686	0.912
4.6878	0.914
4.72873	0.919
4.76967	0.936
4.8106	0.947
4.85154	0.945
4.89247	0.94
4.93341	0.94
4.97434	0.94
5.01528	0.945
5.05621	0.945
5.09715	0.95
5.13808	0.95
5.17902	0.938
5.21996	0.945
5.26089	0.933
5.30183	0.919
5.34276	0.926
5.3837	0.936
5.42463	0.953
5.46557	0.957
5.5065	0.953
5.54744	0.938
5.58837	0.911
5.62931	0.931
5.67024	0.938
5.71118	0.936
5.75211	0.919
5.79305	0.909
5.83399	0.897
5.87492	0.885
5.91586	0.885
5.95679	0.882
5.99773	0.878
6.03866	0.86
6.0796	0.87
6.12053	0.868
6.16147	0.8
6.2024	0.474
6.24334	0.54
6.28427	0.648
6.32521	0.803
6.36614	0.819
6.40708	0.805
6.44801	0.691
6.48895	0.459
6.52989	0.667
6.57082	0.791
6.61176	0.798
6.65269	0.723
6.69363	0.494
6.73456	0.209
6.7755	0.334
6.81643	0.377
6.85737	0.361
6.8983	0.363
6.93924	0.385
6.98017	0.358
7.02111	0.295
7.06204	0.203
7.10298	0.133
7.14392	0.092
7.18485	0.061
7.22579	0.168
7.26672	0.24
7.30766	0.494
7.34859	0.634
7.38953	0.68
7.43046	0.667
7.4714	0.709
7.51233	0.633
7.55327	0.598
7.5942	0.658
7.63514	0.639
7.67607	0.626
7.71701	0.622
7.75795	0.457
7.79888	0.191
7.83982	0.209
7.88075	0.459
7.92169	0.36
7.96262	0.267
8.00356	0.349
8.04449	0.595
8.08543	0.694
8.12636	0.72
8.1673	0.655
8.20823	0.651
8.24917	0.668
8.2901	0.709
8.33104	0.663
8.37198	0.416
8.41291	0.203
8.45385	0.329
8.49478	0.3
8.53572	0.102
8.57665	0.049
8.61759	0.136
8.65852	0.264
8.69946	0.382
8.74039	0.518
8.78133	0.59
8.82226	0.633
8.8632	0.65
8.90413	0.607
8.94507	0.3
8.986	0.469
9.02694	0.569
9.06788	0.627
9.10881	0.651
9.14975	0.67
9.19068	0.674
9.23162	0.631
9.27255	0.636
9.31349	0.67
9.35442	0.732
9.39536	0.755
9.43629	0.762
9.47723	0.766
9.51816	0.766
9.5591	0.75
9.60003	0.738
9.64097	0.723
9.68191	0.711
9.72284	0.738
9.76378	0.771
9.80471	0.793
9.84565	0.81
9.88658	0.813
9.92752	0.817
9.96845	0.805
10.0094	0.825
10.0503	0.825
10.0913	0.813
10.1322	0.8
10.1731	0.761
10.2141	0.691
10.255	0.627
10.2959	0.629
10.3369	0.638
10.3778	0.593
10.4187	0.464
10.4597	0.383
10.5006	0.329
10.5415	0.431
10.5825	0.607
10.6234	0.708
10.6644	0.75
10.7053	0.764
10.7462	0.783
10.7872	0.8
10.8281	0.817
10.869	0.82
10.91	0.82
10.9509	0.815
10.9918	0.81
11.0328	0.805
11.0737	0.798
11.1146	0.786
11.1556	0.752
11.1965	0.648
11.2374	0.37
11.2784	0.447
11.3193	0.708
11.3603	0.796
11.4012	0.824
11.4421	0.82
11.4831	0.759
11.524	0.817
11.5649	0.839
11.6059	0.837
11.6468	0.815
11.6877	0.778
11.7287	0.662
11.7696	0.459
11.8105	0.407
11.8515	0.542
11.8924	0.738
11.9333	0.817
11.9743	0.854
12.0152	0.868
12.0562	0.878
12.0971	0.883
12.138	0.883
12.179	0.885
12.2199	0.88
12.2608	0.878
12.3018	0.865
12.3427	0.812
12.3836	0.687
12.4246	0.501
12.4655	0.568
12.5064	0.716
12.5474	0.791
12.5883	0.822
12.6292	0.844
12.6702	0.849
12.7111	0.861
12.7521	0.875
12.793	0.878
12.8339	0.865
12.8749	0.851
12.9158	0.86
12.9567	0.875
12.9977	0.877
13.0386	0.865
13.0795	0.82
13.1205	0.771
13.1614	0.784
13.2023	0.769
13.2433	0.658
13.2842	0.564
13.3251	0.633
13.3661	0.742
13.407	0.802
13.448	0.834
13.4889	0.849
13.5298	0.856
13.5708	0.865
13.6117	0.866
13.6526	0.868
13.6936	0.868
13.7345	0.873
13.7754	0.875
13.8164	0.875
13.8573	0.875
13.8982	0.872
13.9392	0.875
13.9801	0.88
14.021	0.882
14.062	0.883
14.1029	0.889
14.1439	0.89
14.1848	0.887
14.2257	0.887
14.2667	0.887
14.3076	0.885
14.3485	0.883
14.3895	0.875
14.4304	0.868
14.4713	0.837
14.5123	0.762
14.5532	0.677
14.5941	0.646
14.6351	0.711
14.676	0.786
14.717	0.82
14.7579	0.834
14.7988	0.837
14.8398	0.839
14.8807	0.837
14.9216	0.832
14.9626	0.825
15.0035	0.795
15.0444	0.769
15.0854	0.767
15.1263	0.796
15.1672	0.807
15.2082	0.803
15.2491	0.793
15.29	0.783
15.331	0.779
15.3719	0.778
15.4129	0.773
15.4538	0.767
15.4947	0.762
15.5357	0.755
15.5766	0.755
15.6175	0.747
15.6585	0.742
15.6994	0.733
15.7403	0.725
15.7813	0.715
15.8222	0.708
15.8631	0.701
15.9041	0.691
15.945	0.684
