Infrared Spectrum: 2-(p-t-BUTYLPHENOXY)-3-METHYL PYRAZINE
Formula: C15 H18 N2 O
CAS: 116660-14-1
State: SOLID (MINERAL OIL MULL)
Melting point: 61.0-63.5 C
Class: COBLENTZ
Instrument: Not specified, most likely a prism, grating, or hybrid spectrometer.
Sampling: TRANSMISSION
Resolution: 4
Origin: WYANDOTTE CHEMICALS CORP., WYANDOTTE, MICHIGAN, USA
MICROMETERS	TRANSMITTANCE
2.034	0.658
2.07494	0.662
2.11587	0.668
2.15681	0.668
2.19774	0.656
2.23868	0.651
2.27961	0.662
2.32055	0.663
2.36148	0.667
2.40242	0.672
2.44335	0.682
2.48429	0.687
2.52523	0.689
2.56616	0.699
2.6071	0.704
2.64803	0.713
2.68897	0.713
2.7299	0.706
2.77084	0.72
2.81177	0.709
2.85271	0.703
2.89365	0.697
2.93458	0.687
2.97552	0.684
3.01645	0.682
3.05739	0.668
3.09832	0.651
3.13926	0.638
3.18019	0.621
3.22113	0.622
3.26206	0.52
3.303	0.539
3.34394	0.226
3.38487	0.052
3.42581	0.095
3.46674	0.179
3.50768	0.216
3.54861	0.653
3.58955	0.747
3.63048	0.771
3.67142	0.774
3.71235	0.771
3.75329	0.788
3.79423	0.795
3.83516	0.8
3.8761	0.808
3.91703	0.815
3.95797	0.815
3.9989	0.825
4.03984	0.825
4.08077	0.812
4.12171	0.815
4.16265	0.815
4.20358	0.819
4.24452	0.825
4.28545	0.812
4.32639	0.825
4.36732	0.858
4.40826	0.87
4.44919	0.851
4.49013	0.865
4.53106	0.872
4.572	0.87
4.61294	0.878
4.65387	0.872
4.69481	0.87
4.73574	0.872
4.77668	0.88
4.81761	0.892
4.85855	0.89
4.89948	0.882
4.94042	0.889
4.98135	0.882
5.02229	0.894
5.06323	0.89
5.10416	0.883
5.1451	0.899
5.18603	0.895
5.22697	0.899
5.2679	0.887
5.30884	0.848
5.34977	0.882
5.39071	0.899
5.43165	0.907
5.47258	0.912
5.51352	0.911
5.55445	0.897
5.59539	0.877
5.63632	0.902
5.67726	0.882
5.71819	0.873
5.75913	0.88
5.80006	0.841
5.841	0.839
5.88194	0.851
5.92287	0.858
5.96381	0.843
6.00474	0.832
6.04568	0.837
6.08661	0.848
6.12755	0.853
6.16848	0.849
6.20942	0.817
6.25035	0.815
6.29129	0.802
6.33223	0.86
6.37316	0.846
6.4141	0.788
6.45503	0.621
6.49597	0.614
6.5369	0.674
6.57784	0.481
6.61877	0.366
6.65971	0.58
6.70065	0.622
6.74158	0.529
6.78252	0.382
6.82345	0.3
6.86439	0.331
6.90532	0.344
6.94626	0.349
6.98719	0.383
7.02813	0.329
7.06906	0.11
7.11	0.046
7.15094	0.097
7.19187	0.179
7.23281	0.278
7.27374	0.296
7.31468	0.332
7.35561	0.607
7.39655	0.703
7.43748	0.696
7.47842	0.692
7.51935	0.651
7.56029	0.646
7.60123	0.67
7.64216	0.508
7.6831	0.556
7.72403	0.622
7.76497	0.433
7.8059	0.279
7.84684	0.399
7.88777	0.508
7.92871	0.411
7.96965	0.421
8.01058	0.621
8.05152	0.711
8.09245	0.641
8.13339	0.506
8.17432	0.416
8.21526	0.29
8.25619	0.278
8.29713	0.407
8.33806	0.529
8.379	0.517
8.41994	0.288
8.46087	0.409
8.50181	0.162
8.54274	0.182
8.58368	0.435
8.62461	0.522
8.66555	0.411
8.70648	0.494
8.74742	0.575
8.78835	0.639
8.82929	0.665
8.87023	0.677
8.91116	0.662
8.9521	0.491
8.99303	0.438
9.03397	0.626
9.0749	0.697
9.11584	0.718
9.15677	0.733
9.19771	0.747
9.23865	0.726
9.27958	0.752
9.32052	0.769
9.36145	0.774
9.40239	0.779
9.44332	0.788
9.48426	0.788
9.52519	0.791
9.56613	0.791
9.60706	0.773
9.648	0.74
9.68894	0.704
9.72987	0.709
9.77081	0.74
9.81174	0.728
9.85268	0.556
9.89361	0.605
9.93455	0.742
9.97548	0.79
10.0164	0.813
10.0574	0.819
10.0983	0.813
10.1392	0.793
10.1802	0.745
10.2211	0.67
10.262	0.66
10.303	0.708
10.3439	0.764
10.3848	0.788
10.4258	0.786
10.4667	0.813
10.5076	0.832
10.5486	0.849
10.5895	0.865
10.6305	0.856
10.6714	0.846
10.7123	0.844
10.7533	0.858
10.7942	0.866
10.8351	0.839
10.8761	0.834
10.917	0.865
10.9579	0.875
10.9989	0.851
11.0398	0.755
11.0807	0.508
11.1217	0.674
11.1626	0.796
11.2035	0.834
11.2445	0.858
11.2854	0.87
11.3264	0.875
11.3673	0.88
11.4082	0.883
11.4492	0.882
11.4901	0.872
11.531	0.861
11.572	0.834
11.6129	0.786
11.6538	0.679
11.6948	0.51
11.7357	0.361
11.7766	0.356
11.8176	0.443
11.8585	0.341
11.8995	0.351
11.9404	0.465
11.9813	0.653
12.0223	0.767
12.0632	0.788
12.1041	0.783
12.1451	0.766
12.186	0.757
12.2269	0.764
12.2679	0.783
12.3088	0.803
12.3497	0.844
12.3907	0.868
12.4316	0.882
12.4725	0.892
12.5135	0.897
12.5544	0.906
12.5954	0.907
12.6363	0.906
12.6772	0.904
12.7182	0.906
12.7591	0.901
12.8	0.897
12.841	0.872
12.8819	0.817
12.9228	0.817
12.9638	0.861
13.0047	0.88
13.0456	0.878
13.0866	0.865
13.1275	0.877
13.1685	0.885
13.2094	0.889
13.2503	0.89
13.2913	0.892
13.3322	0.889
13.3731	0.892
13.4141	0.885
13.455	0.877
13.4959	0.875
13.5369	0.882
13.5778	0.885
13.6187	0.887
13.6597	0.889
13.7006	0.875
13.7415	0.834
13.7825	0.769
13.8234	0.798
13.8644	0.853
13.9053	0.872
13.9462	0.89
13.9872	0.904
14.0281	0.918
14.069	0.919
14.11	0.93
14.1509	0.931
14.1918	0.94
14.2328	0.933
14.2737	0.93
14.3146	0.931
14.3556	0.928
14.3965	0.923
14.4375	0.918
14.4784	0.914
14.5193	0.909
14.5603	0.906
14.6012	0.899
14.6421	0.892
14.6831	0.887
14.724	0.883
14.7649	0.875
14.8059	0.868
14.8468	0.866
14.8877	0.863
14.9287	0.86
14.9696	0.851
15.0105	0.808
15.0515	0.779
15.0924	0.805
15.1334	0.837
15.1743	0.841
15.2152	0.831
15.2562	0.817
15.2971	0.807
15.338	0.8
15.379	0.79
15.4199	0.773
15.4608	0.762
15.5018	0.754
15.5427	0.749
15.5836	0.749
15.6246	0.74
15.6655	0.733
15.7065	0.725
15.7474	0.709
15.7883	0.704
15.8293	0.692
15.8702	0.684
15.9111	0.677
15.9521	0.665
15.993	0.663
