Infrared Spectrum: 2-(N,N-DIISOBUTYLAMINO)-3,6-DIMETHYL PYRAZINE
Formula: C14 H25 N3
CAS: 116660-19-6
State: LIQUID
Class: COBLENTZ
Instrument: Not specified, most likely a prism, grating, or hybrid spectrometer.
Sampling: TRANSMISSION
Path length: 0.0015 CM
Resolution: 4
Origin: WYANDOTTE CHEMICALS CORP., WYANDOTTE, MICHIGAN, USA
MICROMETERS	TRANSMITTANCE
2.068	0.962
2.10886	0.96
2.14971	0.925
2.19057	0.855
2.23142	0.836
2.27228	0.899
2.31314	0.889
2.35399	0.889
2.39485	0.908
2.4357	0.928
2.47656	0.926
2.51742	0.931
2.55827	0.947
2.59913	0.928
2.63998	0.974
2.68084	0.957
2.7217	0.95
2.76255	0.93
2.80341	0.902
2.84426	0.868
2.88512	0.741
2.92598	0.718
2.96683	0.635
3.00769	0.584
3.04854	0.73
3.0894	0.793
3.13026	0.778
3.17111	0.773
3.21197	0.758
3.25283	0.64
3.29368	0.42
3.33454	0.027
3.37539	0.028
3.41625	0.032
3.45711	0.039
3.49796	0.146
3.53882	0.296
3.57967	0.533
3.62053	0.666
3.66139	0.66
3.70224	0.741
3.7431	0.807
3.78395	0.79
3.82481	0.805
3.86567	0.821
3.90652	0.853
3.94738	0.858
3.98823	0.875
4.02909	0.882
4.06995	0.858
4.1108	0.855
4.15166	0.855
4.19251	0.851
4.23337	0.814
4.27423	0.804
4.31508	0.812
4.35594	0.827
4.39679	0.86
4.43765	0.887
4.47851	0.897
4.51936	0.902
4.56022	0.897
4.60107	0.899
4.64193	0.906
4.68279	0.901
4.72364	0.899
4.7645	0.894
4.80535	0.908
4.84621	0.906
4.88707	0.894
4.92792	0.904
4.96878	0.919
5.00963	0.908
5.05049	0.901
5.09135	0.923
5.1322	0.906
5.17306	0.901
5.21392	0.911
5.25477	0.911
5.29563	0.897
5.33648	0.902
5.37734	0.901
5.4182	0.913
5.45905	0.899
5.49991	0.892
5.54076	0.879
5.58162	0.88
5.62248	0.877
5.66333	0.868
5.70419	0.843
5.74504	0.817
5.7859	0.795
5.82676	0.797
5.86761	0.795
5.90847	0.798
5.94932	0.775
5.99018	0.751
6.03104	0.727
6.07189	0.703
6.11275	0.705
6.1536	0.684
6.19446	0.616
6.23532	0.345
6.27617	0.267
6.31703	0.258
6.35788	0.192
6.39874	0.115
6.4396	0.1
6.48045	0.035
6.52131	0.045
6.56216	0.057
6.60302	0.059
6.64388	0.081
6.68473	0.115
6.72559	0.083
6.76644	0.04
6.8073	0.039
6.84816	0.035
6.88901	0.035
6.92987	0.037
6.97072	0.044
7.01158	0.037
7.05244	0.04
7.09329	0.063
7.13415	0.117
7.175	0.054
7.21586	0.034
7.25672	0.04
7.29757	0.039
7.33843	0.042
7.37929	0.04
7.42014	0.059
7.461	0.063
7.50185	0.248
7.54271	0.304
7.58357	0.177
7.62442	0.061
7.66528	0.073
7.70613	0.112
7.74699	0.219
7.78785	0.267
7.8287	0.24
7.86956	0.216
7.91041	0.202
7.95127	0.105
7.99213	0.12
8.03298	0.359
8.07384	0.487
8.11469	0.541
8.15555	0.551
8.19641	0.502
8.23726	0.349
8.27812	0.19
8.31897	0.139
8.35983	0.107
8.40069	0.064
8.44154	0.04
8.4824	0.059
8.52325	0.1
8.56411	0.166
8.60497	0.323
8.64582	0.381
8.68668	0.313
8.72753	0.148
8.76839	0.045
8.80925	0.039
8.8501	0.042
8.89096	0.064
8.93181	0.151
8.97267	0.207
9.01353	0.148
9.05438	0.103
9.09524	0.095
9.13609	0.093
9.17695	0.172
9.21781	0.298
9.25866	0.367
9.29952	0.419
9.34037	0.483
9.38123	0.57
9.42209	0.591
9.46294	0.586
9.5038	0.538
9.54466	0.4
9.58551	0.265
9.62637	0.158
9.66722	0.16
9.70808	0.177
9.74894	0.332
9.78979	0.466
9.83065	0.538
9.8715	0.512
9.91236	0.468
9.95322	0.504
9.99407	0.601
10.0349	0.643
10.0758	0.65
10.1166	0.649
10.1575	0.584
10.1984	0.509
10.2392	0.448
10.2801	0.49
10.3209	0.555
10.3618	0.584
10.4026	0.514
10.4435	0.424
10.4843	0.41
10.5252	0.369
10.5661	0.342
10.6069	0.383
10.6478	0.429
10.6886	0.448
10.7295	0.465
10.7703	0.466
10.8112	0.451
10.852	0.458
10.8929	0.471
10.9338	0.568
10.9746	0.643
11.0155	0.662
11.0563	0.669
11.0972	0.633
11.138	0.597
11.1789	0.563
11.2198	0.54
11.2606	0.536
11.3015	0.536
11.3423	0.497
11.3832	0.458
11.424	0.425
11.4649	0.405
11.5057	0.376
11.5466	0.41
11.5875	0.477
11.6283	0.528
11.6692	0.572
11.71	0.58
11.7509	0.609
11.7917	0.642
11.8326	0.696
11.8734	0.734
11.9143	0.776
11.9552	0.787
11.996	0.795
12.0369	0.787
12.0777	0.749
12.1186	0.72
12.1594	0.654
12.2003	0.611
12.2412	0.577
12.282	0.568
12.3229	0.521
12.3637	0.499
12.4046	0.597
12.4454	0.71
12.4863	0.768
12.5271	0.793
12.568	0.812
12.6089	0.81
12.6497	0.816
12.6906	0.802
12.7314	0.776
12.7723	0.734
12.8131	0.674
12.854	0.642
12.8949	0.645
12.9357	0.7
12.9766	0.729
13.0174	0.717
13.0583	0.678
13.0991	0.621
13.14	0.495
13.1808	0.364
13.2217	0.367
13.2626	0.509
13.3034	0.637
13.3443	0.727
13.3851	0.77
13.426	0.802
13.4668	0.817
13.5077	0.834
13.5485	0.848
13.5894	0.841
13.6303	0.85
13.6711	0.85
13.712	0.851
13.7528	0.851
13.7937	0.838
13.8345	0.841
13.8754	0.836
13.9163	0.829
13.9571	0.812
13.998	0.798
14.0388	0.781
14.0797	0.771
14.1205	0.761
14.1614	0.747
14.2022	0.752
14.2431	0.758
14.284	0.77
14.3248	0.771
14.3657	0.754
14.4065	0.742
14.4474	0.732
14.4882	0.737
14.5291	0.763
14.5699	0.788
14.6108	0.805
14.6517	0.826
14.6925	0.829
14.7334	0.831
14.7742	0.834
14.8151	0.834
14.8559	0.831
14.8968	0.834
14.9377	0.833
14.9785	0.824
15.0194	0.81
15.0602	0.79
15.1011	0.798
15.1419	0.798
15.1828	0.809
15.2236	0.81
15.2645	0.798
15.3054	0.788
15.3462	0.778
15.3871	0.763
15.4279	0.751
15.4688	0.746
15.5096	0.718
15.5505	0.71
15.5913	0.698
15.6322	0.701
15.6731	0.698
15.7139	0.701
15.7548	0.698
15.7956	0.698
15.8365	0.701
15.8773	0.7
15.9182	0.712
15.9591	0.717
