Infrared Spectrum: 2-PHENOXY-3-BENZOYL PYRAZINE
Formula: C17 H12 N2 O2
CAS: 116659-98-4
State: LIQUID
Class: COBLENTZ
Instrument: Not specified, most likely a prism, grating, or hybrid spectrometer.
Sampling: TRANSMISSION
Path length: CAPILLARY
Resolution: 4
Origin: WYANDOTTE CHEMICALS CORP., WYANDOTTE, MICHIGAN, USA
MICROMETERS	TRANSMITTANCE
2.082	0.726
2.12296	0.726
2.16391	0.728
2.20487	0.731
2.24582	0.733
2.28678	0.733
2.32774	0.731
2.36869	0.721
2.40965	0.719
2.4506	0.726
2.49156	0.728
2.53251	0.729
2.57347	0.74
2.61443	0.728
2.65538	0.741
2.69634	0.731
2.73729	0.719
2.77825	0.712
2.81921	0.695
2.86016	0.68
2.90112	0.676
2.94207	0.671
2.98303	0.666
3.02399	0.664
3.06494	0.68
3.1059	0.683
3.14685	0.69
3.18781	0.692
3.22876	0.618
3.26972	0.482
3.31068	0.656
3.35163	0.702
3.39259	0.707
3.43354	0.723
3.4745	0.74
3.51546	0.75
3.55641	0.767
3.59737	0.772
3.63832	0.767
3.67928	0.769
3.72024	0.776
3.76119	0.781
3.80215	0.779
3.8431	0.772
3.88406	0.776
3.92501	0.781
3.96597	0.789
4.00693	0.791
4.04788	0.793
4.08884	0.789
4.12979	0.791
4.17075	0.791
4.21171	0.789
4.25266	0.76
4.29362	0.752
4.33457	0.758
4.37553	0.774
4.41649	0.803
4.45744	0.801
4.4984	0.8
4.53935	0.801
4.58031	0.803
4.62126	0.808
4.66222	0.813
4.70318	0.815
4.74413	0.815
4.78509	0.81
4.82604	0.813
4.867	0.818
4.90796	0.817
4.94891	0.81
4.98987	0.801
5.03082	0.789
5.07178	0.789
5.11274	0.788
5.15369	0.767
5.19465	0.762
5.2356	0.77
5.27656	0.793
5.31751	0.789
5.35847	0.789
5.39943	0.793
5.44038	0.796
5.48134	0.8
5.52229	0.788
5.56325	0.762
5.60421	0.767
5.64516	0.764
5.68612	0.765
5.72707	0.753
5.76803	0.724
5.80899	0.699
5.84994	0.682
5.8909	0.61
5.93185	0.34
5.97281	0.189
6.01376	0.381
6.05472	0.558
6.09568	0.611
6.13663	0.634
6.17759	0.574
6.21854	0.22
6.2595	0.343
6.30046	0.319
6.34141	0.326
6.38237	0.446
6.42332	0.492
6.46428	0.285
6.50524	0.147
6.54619	0.362
6.58715	0.548
6.6281	0.485
6.66906	0.095
6.71001	0.266
6.75097	0.417
6.79193	0.471
6.83288	0.381
6.87384	0.249
6.91479	0.389
6.95575	0.323
6.99671	0.256
7.03766	0.188
7.07862	0.044
7.11957	0.046
7.16053	0.061
7.20149	0.126
7.24244	0.241
7.2834	0.333
7.32435	0.321
7.36531	0.41
7.40626	0.458
7.44722	0.389
7.48818	0.312
7.52913	0.222
7.57009	0.117
7.61104	0.148
7.652	0.143
7.69296	0.097
7.73391	0.094
7.77487	0.08
7.81582	0.068
7.85678	0.082
7.89774	0.165
7.93869	0.244
7.97965	0.232
8.0206	0.264
8.06156	0.388
8.10251	0.393
8.14347	0.338
8.18443	0.275
8.22538	0.191
8.26634	0.172
8.30729	0.129
8.34825	0.076
8.38921	0.107
8.43016	0.141
8.47112	0.147
8.51207	0.201
8.55303	0.177
8.59399	0.123
8.63494	0.184
8.6759	0.295
8.71685	0.403
8.75781	0.495
8.79876	0.517
8.83972	0.381
8.88068	0.466
8.92163	0.576
8.96259	0.63
9.00354	0.658
9.0445	0.664
9.08546	0.668
9.12641	0.694
9.16737	0.707
9.20832	0.68
9.24928	0.57
9.29024	0.429
9.33119	0.464
9.37215	0.594
9.4131	0.668
9.45406	0.695
9.49501	0.702
9.53597	0.704
9.57693	0.695
9.61788	0.692
9.65884	0.664
9.69979	0.576
9.74075	0.495
9.78171	0.447
9.82266	0.519
9.86362	0.505
9.90457	0.382
9.94553	0.405
9.98649	0.461
10.0274	0.605
10.0684	0.678
10.1094	0.699
10.1503	0.721
10.1913	0.728
10.2322	0.733
10.2732	0.719
10.3141	0.723
10.3551	0.719
10.396	0.702
10.437	0.7
10.478	0.699
10.5189	0.656
10.5599	0.49
10.6008	0.287
10.6418	0.203
10.6827	0.305
10.7237	0.422
10.7646	0.449
10.8056	0.427
10.8466	0.535
10.8875	0.611
10.9285	0.629
10.9694	0.613
11.0104	0.552
11.0513	0.494
11.0923	0.553
11.1333	0.601
11.1742	0.618
11.2152	0.611
11.2561	0.555
11.2971	0.446
11.338	0.417
11.379	0.415
11.4199	0.396
11.4609	0.403
11.5019	0.422
11.5428	0.43
11.5838	0.4
11.6247	0.382
11.6657	0.454
11.7066	0.523
11.7476	0.577
11.7885	0.601
11.8295	0.623
11.8705	0.611
11.9114	0.569
11.9524	0.577
11.9933	0.586
12.0343	0.603
12.0752	0.608
12.1162	0.603
12.1571	0.613
12.1981	0.618
12.2391	0.611
12.28	0.618
12.321	0.637
12.3619	0.647
12.4029	0.634
12.4438	0.635
12.4848	0.642
12.5258	0.642
12.5667	0.639
12.6077	0.615
12.6486	0.524
12.6896	0.482
12.7305	0.488
12.7715	0.476
12.8124	0.444
12.8534	0.365
12.8944	0.292
12.9353	0.232
12.9763	0.218
13.0172	0.205
13.0582	0.218
13.0991	0.249
13.1401	0.292
13.181	0.331
13.222	0.379
13.263	0.41
13.3039	0.425
13.3449	0.43
13.3858	0.425
13.4268	0.449
13.4677	0.487
13.5087	0.535
13.5496	0.576
13.5906	0.589
13.6316	0.591
13.6725	0.576
13.7135	0.538
13.7544	0.523
13.7954	0.519
13.8363	0.507
13.8773	0.461
13.9183	0.386
13.9592	0.302
14.0002	0.247
14.0411	0.239
14.0821	0.254
14.123	0.258
14.164	0.239
14.2049	0.218
14.2459	0.211
14.2869	0.223
14.3278	0.232
14.3688	0.23
14.4097	0.234
14.4507	0.223
14.4916	0.198
14.5326	0.177
14.5735	0.189
14.6145	0.223
14.6555	0.283
14.6964	0.341
14.7374	0.405
14.7783	0.485
14.8193	0.548
14.8602	0.596
14.9012	0.62
14.9421	0.63
14.9831	0.63
15.0241	0.622
15.065	0.617
15.106	0.623
15.1469	0.647
15.1879	0.644
15.2288	0.629
15.2698	0.617
15.3108	0.582
15.3517	0.55
15.3927	0.529
15.4336	0.529
15.4746	0.55
15.5155	0.57
15.5565	0.594
15.5974	0.61
15.6384	0.615
15.6794	0.617
15.7203	0.613
15.7613	0.606
15.8022	0.6
15.8432	0.589
15.8841	0.582
15.9251	0.588
15.966	0.589
16.007	0.593
