Infrared Spectrum: 2-PYRIDINECARBAMIC ACID, 4-(ALLYLAMINO)-6-AMINO-5-NITRO-, ETHYL ESTER
Formula: C11 H15 N5 O4
CAS: 116659-54-2
State: SOLID (1 mg / 650 mg KBr DISC)
Class: COBLENTZ III
Instrument: PERKIN-ELMER 521 (GRATING)
Instrument parameters: FILTERS AT 3150, 2500, 2000, 1150, 700, 410 CM ^-^1, GRATING CHANGES AT 2000, 630 CM ^-^1
Sampling: TRANSMISSION
Resolution: 4
Origin: SOUTHERN RES. INSTITUTE
1/CM	TRANSMITTANCE
255.287	0.317
264.427	0.407
273.567	0.462
282.706	0.515
291.846	0.597
300.986	0.644
310.126	0.686
319.265	0.691
328.405	0.709
337.545	0.756
346.685	0.787
355.825	0.804
364.964	0.814
374.104	0.812
383.244	0.789
392.384	0.811
401.524	0.852
410.663	0.861
419.803	0.854
428.943	0.817
438.083	0.772
447.222	0.839
456.362	0.843
465.502	0.84
474.642	0.836
483.782	0.818
492.921	0.795
502.061	0.761
511.201	0.72
520.341	0.671
529.481	0.66
538.62	0.704
547.76	0.746
556.9	0.767
566.04	0.791
575.179	0.788
584.319	0.77
593.459	0.737
602.599	0.705
611.739	0.717
620.878	0.728
630.018	0.715
639.158	0.753
648.298	0.78
657.438	0.781
666.577	0.748
675.717	0.797
684.857	0.776
693.997	0.798
703.136	0.861
712.276	0.831
721.416	0.87
730.556	0.846
739.696	0.801
748.835	0.765
757.975	0.761
767.115	0.709
776.255	0.652
785.395	0.809
794.534	0.734
803.674	0.861
812.814	0.902
821.954	0.901
831.093	0.895
840.233	0.886
849.373	0.89
858.513	0.88
867.653	0.875
876.792	0.849
885.932	0.817
895.072	0.816
904.212	0.733
913.352	0.744
922.491	0.827
931.631	0.792
940.771	0.816
949.911	0.801
959.05	0.732
968.19	0.795
977.33	0.788
986.47	0.74
995.61	0.718
1004.75	0.713
1013.89	0.682
1023.03	0.654
1032.17	0.66
1041.31	0.686
1050.45	0.694
1059.59	0.711
1068.73	0.714
1077.87	0.7
1087.01	0.675
1096.15	0.661
1105.29	0.627
1114.43	0.61
1123.57	0.591
1132.71	0.552
1141.85	0.471
1150.99	0.389
1160.13	0.378
1169.27	0.46
1178.41	0.497
1187.55	0.433
1196.68	0.339
1205.82	0.238
1214.96	0.179
1224.1	0.141
1233.24	0.165
1242.38	0.317
1251.52	0.48
1260.66	0.489
1269.8	0.374
1278.94	0.386
1288.08	0.516
1297.22	0.575
1306.36	0.58
1315.5	0.598
1324.64	0.649
1333.78	0.715
1342.92	0.765
1352.06	0.747
1361.2	0.754
1370.34	0.762
1379.48	0.693
1388.62	0.706
1397.76	0.679
1406.9	0.588
1416.04	0.451
1425.18	0.397
1434.32	0.662
1443.46	0.651
1452.6	0.594
1461.74	0.65
1470.88	0.587
1480.02	0.49
1489.16	0.381
1498.3	0.252
1507.44	0.293
1516.58	0.573
1525.72	0.459
1534.86	0.325
1544	0.402
1553.14	0.295
1562.28	0.298
1571.42	0.308
1580.56	0.168
1589.7	0.137
1598.84	0.292
1607.98	0.448
1617.11	0.468
1626.25	0.608
1635.39	0.716
1644.53	0.788
1653.67	0.835
1662.81	0.806
1671.95	0.811
1681.09	0.732
1690.23	0.43
1699.37	0.24
1708.51	0.496
1717.65	0.663
1726.79	0.701
1735.93	0.742
1745.07	0.828
1754.21	0.896
1763.35	0.915
1772.49	0.93
1781.63	0.935
1790.77	0.94
1799.91	0.946
1809.05	0.949
1818.19	0.95
1827.33	0.955
1836.47	0.96
1845.61	0.965
1854.75	0.968
1863.89	0.969
1873.03	0.97
1882.17	0.971
1891.31	0.971
1900.45	0.971
1909.59	0.97
1918.73	0.969
1927.87	0.97
1937.01	0.97
1946.15	0.97
1955.29	0.97
1964.43	0.969
1973.57	0.967
1982.71	0.965
1991.85	0.963
2000.99	0.965
2010.13	0.966
2019.27	0.967
2028.41	0.965
2037.55	0.962
2046.68	0.961
2055.82	0.964
2064.96	0.965
2074.1	0.965
2083.24	0.962
2092.38	0.961
2101.52	0.96
2110.66	0.959
2119.8	0.958
2128.94	0.956
2138.08	0.954
2147.22	0.952
2156.36	0.949
2165.5	0.948
2174.64	0.946
2183.78	0.945
2192.92	0.94
2202.06	0.936
2211.2	0.933
2220.34	0.933
2229.48	0.932
2238.62	0.931
2247.76	0.931
2256.9	0.931
2266.04	0.931
2275.18	0.931
2284.32	0.93
2293.46	0.928
2302.6	0.924
2311.74	0.921
2320.88	0.919
2330.02	0.918
2339.16	0.916
2348.3	0.916
2357.44	0.916
2366.58	0.916
2375.72	0.916
2384.86	0.916
2394	0.916
2403.14	0.916
2412.28	0.915
2421.42	0.915
2430.56	0.915
2439.7	0.915
2448.84	0.913
2457.98	0.911
2467.11	0.909
2476.25	0.906
2485.39	0.904
2494.53	0.901
2503.67	0.898
2512.81	0.896
2521.95	0.894
2531.09	0.893
2540.23	0.893
2549.37	0.892
2558.51	0.891
2567.65	0.89
2576.79	0.889
2585.93	0.889
2595.07	0.888
2604.21	0.887
2613.35	0.885
2622.49	0.883
2631.63	0.88
2640.77	0.88
2649.91	0.879
2659.05	0.879
2668.19	0.877
2677.33	0.876
2686.47	0.874
2695.61	0.871
2704.75	0.87
2713.89	0.866
2723.03	0.861
2732.17	0.859
2741.31	0.858
2750.45	0.855
2759.59	0.855
2768.73	0.854
2777.87	0.851
2787.01	0.85
2796.15	0.847
2805.29	0.842
2814.43	0.832
2823.57	0.825
2832.71	0.814
2841.85	0.808
2850.99	0.804
2860.13	0.799
2869.27	0.798
2878.41	0.793
2887.55	0.783
2896.68	0.767
2905.82	0.751
2914.96	0.744
2924.1	0.726
2933.24	0.731
2942.38	0.746
2951.52	0.74
2960.66	0.723
2969.8	0.685
2978.94	0.648
2988.08	0.701
2997.22	0.71
3006.36	0.69
3015.5	0.691
3024.64	0.697
3033.78	0.705
3042.92	0.711
3052.06	0.707
3061.2	0.688
3070.34	0.665
3079.48	0.647
3088.62	0.628
3097.76	0.61
3106.9	0.594
3116.04	0.588
3125.18	0.594
3134.32	0.616
3143.46	0.639
3152.6	0.658
3161.74	0.666
3170.88	0.678
3180.02	0.689
3189.16	0.702
3198.3	0.715
3207.44	0.726
3216.58	0.726
3225.72	0.714
3234.86	0.681
3244	0.639
3253.14	0.603
3262.28	0.59
3271.42	0.612
3280.56	0.621
3289.7	0.617
3298.84	0.595
3307.98	0.55
3317.11	0.503
3326.25	0.443
3335.39	0.404
3344.53	0.416
3353.67	0.574
3362.81	0.668
3371.95	0.716
3381.09	0.737
3390.23	0.732
3399.37	0.701
3408.51	0.615
3417.65	0.572
3426.79	0.661
3435.93	0.758
3445.07	0.792
3454.21	0.798
3463.35	0.8
3472.49	0.801
3481.63	0.816
3490.77	0.822
3499.91	0.831
3509.05	0.839
3518.19	0.849
3527.33	0.853
3536.47	0.855
3545.61	0.856
3554.75	0.858
3563.89	0.853
3573.03	0.861
3582.17	0.859
3591.31	0.864
3600.45	0.867
3609.59	0.869
3618.73	0.871
3627.87	0.865
3637.01	0.877
3646.15	0.866
3655.29	0.874
3664.43	0.87
3673.57	0.857
3682.71	0.878
3691.85	0.865
3700.99	0.877
3710.13	0.866
3719.27	0.871
3728.41	0.867
3737.55	0.856
3746.68	0.845
3755.82	0.855
3764.96	0.866
3774.1	0.87
3783.24	0.871
3792.38	0.867
3801.52	0.855
