Infrared Spectrum: 2-(P-n-PENTYLANILINO)-3-METHYL PYRAZINE
Formula: C16 H21 N3
CAS: 116660-50-5
State: VISC. PASTE
Class: COBLENTZ
Instrument: Not specified, most likely a prism, grating, or hybrid spectrometer.
Sampling: TRANSMISSION
Path length: CAPILLARY
Resolution: 4
Origin: WYANDOTTE CHEMICALS CORP., WYANDOTTE, MICHIGAN, USA
MICROMETERS	TRANSMITTANCE
2.014	1.003
2.05491	0.991
2.09583	1
2.13674	0.993
2.17766	0.982
2.21857	0.967
2.25949	0.972
2.3004	0.979
2.34132	0.977
2.38223	0.981
2.42315	0.977
2.46406	0.97
2.50498	0.972
2.54589	0.989
2.58681	0.982
2.62772	1.001
2.66864	0.991
2.70955	0.981
2.75047	0.972
2.79138	0.953
2.8323	0.914
2.87321	0.856
2.91413	0.697
2.95504	0.646
2.99596	0.553
3.03687	0.488
3.07779	0.591
3.1187	0.629
3.15962	0.688
3.20053	0.661
3.24145	0.596
3.28236	0.572
3.32327	0.476
3.36419	0.147
3.4051	0.358
3.44602	0.451
3.48693	0.49
3.52785	0.806
3.56876	0.849
3.60968	0.876
3.65059	0.88
3.69151	0.897
3.73242	0.924
3.77334	0.923
3.81425	0.935
3.85517	0.935
3.89608	0.931
3.937	0.931
3.97791	0.924
4.01883	0.923
4.05974	0.926
4.10066	0.912
4.14157	0.917
4.18249	0.909
4.2234	0.885
4.26432	0.883
4.30523	0.924
4.34615	0.933
4.38706	0.95
4.42798	0.935
4.46889	0.933
4.50981	0.948
4.55072	0.953
4.59164	0.952
4.63255	0.947
4.67346	0.952
4.71438	0.957
4.75529	0.969
4.79621	0.97
4.83712	0.976
4.87804	0.969
4.91895	0.97
4.95987	0.97
5.00078	0.972
5.0417	0.974
5.08261	0.974
5.12353	0.979
5.16444	0.964
5.20536	0.953
5.24627	0.943
5.28719	0.921
5.3281	0.909
5.36902	0.947
5.40993	0.943
5.45085	0.95
5.49176	0.958
5.53268	0.943
5.57359	0.923
5.61451	0.902
5.65542	0.9
5.69634	0.895
5.73725	0.902
5.77817	0.871
5.81908	0.876
5.86	0.871
5.90091	0.837
5.94182	0.803
5.98274	0.776
6.02365	0.743
6.06457	0.673
6.10548	0.505
6.1464	0.244
6.18731	0.133
6.22823	0.21
6.26914	0.324
6.31006	0.372
6.35097	0.519
6.39189	0.41
6.4328	0.239
6.47372	0.143
6.51463	0.052
6.55555	0.049
6.59646	0.059
6.63738	0.075
6.67829	0.116
6.71921	0.206
6.76012	0.28
6.80104	0.162
6.84195	0.299
6.88287	0.254
6.92378	0.194
6.9647	0.217
7.00561	0.189
7.04653	0.061
7.08744	0.112
7.12836	0.227
7.16927	0.143
7.21019	0.112
7.2511	0.162
7.29201	0.266
7.33293	0.305
7.37384	0.514
7.41476	0.483
7.45567	0.432
7.49659	0.42
7.5375	0.417
7.57842	0.411
7.61933	0.376
7.66025	0.536
7.70116	0.54
7.74208	0.523
7.78299	0.6
7.82391	0.541
7.86482	0.372
7.90574	0.352
7.94665	0.454
7.98757	0.517
8.02848	0.502
8.0694	0.458
8.11031	0.552
8.15123	0.635
8.19214	0.663
8.23306	0.654
8.27397	0.497
8.31489	0.241
8.3558	0.143
8.39672	0.181
8.43763	0.456
8.47855	0.664
8.51946	0.726
8.56038	0.75
8.60129	0.748
8.6422	0.723
8.68312	0.649
8.72403	0.446
8.76495	0.304
8.80586	0.497
8.84678	0.644
8.88769	0.61
8.92861	0.6
8.96952	0.509
9.01044	0.699
9.05135	0.748
9.09227	0.758
9.13318	0.77
9.1741	0.765
9.21501	0.762
9.25593	0.784
9.29684	0.788
9.33776	0.798
9.37867	0.791
9.41959	0.779
9.4605	0.769
9.50142	0.788
9.54233	0.794
9.58325	0.796
9.62416	0.779
9.66508	0.735
9.70599	0.678
9.74691	0.676
9.78782	0.692
9.82874	0.647
9.86965	0.714
9.91056	0.764
9.95148	0.788
9.99239	0.786
10.0333	0.774
10.0742	0.731
10.1151	0.644
10.1561	0.54
10.197	0.49
10.2379	0.536
10.2788	0.634
10.3197	0.695
10.3606	0.723
10.4015	0.733
10.4425	0.743
10.4834	0.752
10.5243	0.774
10.5652	0.774
10.6061	0.76
10.647	0.765
10.6879	0.782
10.7289	0.801
10.7698	0.817
10.8107	0.83
10.8516	0.825
10.8925	0.817
10.9334	0.815
10.9744	0.817
11.0153	0.834
11.0562	0.842
11.0971	0.839
11.138	0.842
11.1789	0.839
11.2198	0.837
11.2608	0.837
11.3017	0.837
11.3426	0.834
11.3835	0.834
11.4244	0.832
11.4653	0.837
11.5062	0.837
11.5472	0.832
11.5881	0.827
11.629	0.811
11.6699	0.786
11.7108	0.764
11.7517	0.716
11.7926	0.664
11.8336	0.594
11.8745	0.502
11.9154	0.396
11.9563	0.294
11.9972	0.225
12.0381	0.186
12.0791	0.205
12.12	0.266
12.1609	0.362
12.2018	0.459
12.2427	0.529
12.2836	0.579
12.3245	0.61
12.3655	0.63
12.4064	0.622
12.4473	0.582
12.4882	0.519
12.5291	0.488
12.57	0.499
12.6109	0.577
12.6519	0.63
12.6928	0.651
12.7337	0.647
12.7746	0.642
12.8155	0.671
12.8564	0.714
12.8973	0.758
12.9383	0.777
12.9792	0.779
13.0201	0.743
13.061	0.711
13.1019	0.721
13.1428	0.74
13.1838	0.752
13.2247	0.748
13.2656	0.75
13.3065	0.752
13.3474	0.75
13.3883	0.76
13.4292	0.765
13.4702	0.777
13.5111	0.796
13.552	0.806
13.5929	0.803
13.6338	0.794
13.6747	0.748
13.7156	0.69
13.7566	0.7
13.7975	0.752
13.8384	0.784
13.8793	0.793
13.9202	0.798
13.9611	0.801
14.002	0.798
14.043	0.791
14.0839	0.781
14.1248	0.765
14.1657	0.743
14.2066	0.702
14.2475	0.659
14.2885	0.627
14.3294	0.611
14.3703	0.629
14.4112	0.649
14.4521	0.682
14.493	0.711
14.5339	0.736
14.5749	0.748
14.6158	0.764
14.6567	0.774
14.6976	0.779
14.7385	0.781
14.7794	0.779
14.8203	0.774
14.8613	0.776
14.9022	0.782
14.9431	0.777
14.984	0.77
15.0249	0.762
15.0658	0.755
15.1067	0.76
15.1477	0.774
15.1886	0.769
15.2295	0.762
15.2704	0.755
15.3113	0.76
15.3522	0.755
15.3932	0.748
15.4341	0.74
15.475	0.736
15.5159	0.729
15.5568	0.733
15.5977	0.741
15.6386	0.747
15.6796	0.745
15.7205	0.748
15.7614	0.74
15.8023	0.741
15.8432	0.735
15.8841	0.74
15.925	0.738
15.966	0.733
