Infrared Spectrum: 2-PHENOXY-3,6-DIMETHYL PYRAZINE
Formula: C12 H12 N2 O
CAS: 116660-24-3
State: LIQUID
Class: COBLENTZ
Instrument: Not specified, most likely a prism, grating, or hybrid spectrometer.
Sampling: TRANSMISSION
Path length: 0.0015 CM
Resolution: 4
Origin: WYANDOTTE CHEMICALS CORP., WYANDOTTE, MICHIGAN, USA
MICROMETERS	TRANSMITTANCE
2.007	0.965
2.04786	0.955
2.08871	0.948
2.12957	0.948
2.17042	0.936
2.21128	0.914
2.25213	0.919
2.29299	0.928
2.33384	0.926
2.3747	0.901
2.41556	0.904
2.45641	0.919
2.49727	0.918
2.53812	0.921
2.57898	0.936
2.61983	0.928
2.66069	0.947
2.70154	0.916
2.7424	0.906
2.78325	0.897
2.82411	0.868
2.86497	0.848
2.90582	0.827
2.94668	0.819
2.98753	0.821
3.02839	0.829
3.06924	0.822
3.1101	0.814
3.15095	0.805
3.19181	0.785
3.23267	0.645
3.27352	0.412
3.31438	0.514
3.35523	0.543
3.39609	0.546
3.43694	0.62
3.4778	0.749
3.51865	0.717
3.55951	0.829
3.60036	0.858
3.64122	0.841
3.68208	0.848
3.72293	0.89
3.76379	0.889
3.80464	0.879
3.8455	0.882
3.88635	0.889
3.92721	0.885
3.96806	0.872
4.00892	0.86
4.04978	0.875
4.09063	0.87
4.13149	0.855
4.17234	0.839
4.2132	0.809
4.25405	0.81
4.29491	0.831
4.33576	0.846
4.37662	0.867
4.41747	0.879
4.45833	0.892
4.49919	0.908
4.54004	0.899
4.5809	0.902
4.62175	0.899
4.66261	0.879
4.70346	0.879
4.74432	0.889
4.78517	0.892
4.82603	0.877
4.86689	0.846
4.90774	0.844
4.9486	0.809
4.98945	0.826
5.03031	0.858
5.07116	0.831
5.11202	0.843
5.15287	0.819
5.19373	0.804
5.23458	0.81
5.27544	0.839
5.3163	0.858
5.35715	0.809
5.39801	0.81
5.43886	0.836
5.47972	0.858
5.52057	0.833
5.56143	0.804
5.60228	0.795
5.64314	0.787
5.684	0.797
5.72485	0.807
5.76571	0.788
5.80656	0.788
5.84742	0.798
5.88827	0.819
5.92913	0.798
5.96998	0.754
6.01084	0.717
6.05169	0.708
6.09255	0.689
6.13341	0.625
6.17426	0.499
6.21512	0.095
6.25597	0.146
6.29683	0.403
6.33768	0.55
6.37854	0.519
6.41939	0.294
6.46025	0.185
6.50111	0.235
6.54196	0.385
6.58282	0.448
6.62367	0.289
6.66453	0.02
6.70538	0.074
6.74624	0.119
6.78709	0.022
6.82795	0.028
6.8688	0.027
6.90966	0.027
6.95052	0.047
6.99137	0.124
7.03223	0.189
7.07308	0.212
7.11394	0.189
7.15479	0.11
7.19565	0.022
7.2365	0.023
7.27736	0.023
7.31822	0.022
7.35907	0.025
7.39993	0.054
7.44078	0.183
7.48164	0.35
7.52249	0.473
7.56335	0.519
7.6042	0.495
7.64506	0.385
7.68591	0.226
7.72677	0.035
7.76763	0.022
7.80848	0.131
7.84934	0.223
7.89019	0.267
7.93105	0.422
7.9719	0.439
8.01276	0.364
8.05361	0.286
8.09447	0.211
8.13533	0.137
8.17618	0.042
8.21704	0.023
8.25789	0.02
8.29875	0.022
8.3396	0.035
8.38046	0.083
8.42131	0.066
8.46217	0.022
8.50302	0.03
8.54388	0.022
8.58474	0.028
8.62559	0.028
8.66645	0.032
8.7073	0.161
8.74816	0.371
8.78901	0.495
8.82987	0.591
8.87072	0.63
8.91158	0.649
8.95244	0.66
8.99329	0.669
9.03415	0.686
9.075	0.698
9.11586	0.693
9.15671	0.679
9.19757	0.652
9.23842	0.574
9.27928	0.374
9.32013	0.299
9.36099	0.536
9.40185	0.64
9.4427	0.662
9.48356	0.649
9.52441	0.62
9.56527	0.553
9.60612	0.444
9.64698	0.333
9.68783	0.223
9.72869	0.102
9.76955	0.124
9.8104	0.274
9.85126	0.32
9.89211	0.277
9.93297	0.214
9.97382	0.204
10.0147	0.471
10.0555	0.594
10.0964	0.64
10.1372	0.671
10.1781	0.683
10.219	0.693
10.2598	0.7
10.3007	0.706
10.3415	0.695
10.3824	0.65
10.4232	0.601
10.4641	0.541
10.5049	0.5
10.5458	0.536
10.5867	0.609
10.6275	0.669
10.6684	0.708
10.7092	0.727
10.7501	0.734
10.7909	0.741
10.8318	0.739
10.8726	0.732
10.9135	0.705
10.9544	0.662
10.9952	0.597
11.0361	0.509
11.0769	0.461
11.1178	0.473
11.1586	0.512
11.1995	0.528
11.2403	0.5
11.2812	0.465
11.3221	0.434
11.3629	0.432
11.4038	0.48
11.4446	0.582
11.4855	0.679
11.5263	0.739
11.5672	0.763
11.608	0.775
11.6489	0.783
11.6898	0.783
11.7306	0.771
11.7715	0.761
11.8123	0.722
11.8532	0.643
11.894	0.485
11.9349	0.275
11.9757	0.221
12.0166	0.328
12.0575	0.412
12.0983	0.442
12.1392	0.448
12.18	0.461
12.2209	0.505
12.2617	0.55
12.3026	0.568
12.3434	0.538
12.3843	0.5
12.4252	0.461
12.466	0.449
12.5069	0.448
12.5477	0.49
12.5886	0.551
12.6294	0.609
12.6703	0.654
12.7111	0.683
12.752	0.691
12.7929	0.698
12.8337	0.688
12.8746	0.678
12.9154	0.652
12.9563	0.628
12.9971	0.587
13.038	0.511
13.0788	0.407
13.1197	0.253
13.1606	0.124
13.2014	0.054
13.2423	0.025
13.2831	0.032
13.324	0.039
13.3648	0.085
13.4057	0.224
13.4465	0.378
13.4874	0.497
13.5283	0.577
13.5691	0.621
13.61	0.65
13.6508	0.678
13.6917	0.698
13.7325	0.712
13.7734	0.715
13.8142	0.718
13.8551	0.717
13.896	0.698
13.9368	0.671
13.9777	0.64
14.0185	0.589
14.0594	0.497
14.1002	0.367
14.1411	0.247
14.1819	0.226
14.2228	0.333
14.2637	0.459
14.3045	0.536
14.3454	0.55
14.3862	0.517
14.4271	0.419
14.4679	0.303
14.5088	0.201
14.5496	0.151
14.5905	0.153
14.6313	0.223
14.6722	0.344
14.7131	0.466
14.7539	0.577
14.7948	0.626
14.8356	0.669
14.8765	0.684
14.9173	0.701
14.9582	0.706
14.999	0.696
15.0399	0.683
15.0808	0.683
15.1216	0.708
15.1625	0.71
15.2033	0.706
15.2442	0.7
15.285	0.696
15.3259	0.688
15.3667	0.689
15.4076	0.691
15.4485	0.689
15.4893	0.686
15.5302	0.679
15.571	0.672
15.6119	0.671
15.6527	0.669
15.6936	0.654
15.7344	0.65
15.7753	0.64
15.8162	0.635
15.857	0.628
15.8979	0.626
15.9387	0.623
15.9796	0.623
