Infrared Spectrum: 2-(P-CHLOROPHENYL MERCAPTO)-3-METHYL PYRAZINE
Formula: C11 H9 Cl N2 S
CAS: 116660-15-2
State: SOLID (MINERAL OIL MULL)
Melting point: 70.5-71.0 C
Class: COBLENTZ
Instrument: Not specified, most likely a prism, grating, or hybrid spectrometer.
Sampling: TRANSMISSION
Resolution: 4
Origin: WYANDOTTE CHEMICALS CORP., WYANDOTTE, MICHIGAN, USA
MICROMETERS	TRANSMITTANCE
2.013	0.232
2.05275	0.235
2.09251	0.23
2.13226	0.232
2.17202	0.242
2.21177	0.227
2.25153	0.23
2.29128	0.234
2.33103	0.232
2.37079	0.24
2.41054	0.24
2.4503	0.244
2.49005	0.247
2.5298	0.25
2.56956	0.259
2.60931	0.272
2.64907	0.267
2.68882	0.269
2.72858	0.26
2.76833	0.265
2.80808	0.255
2.84784	0.249
2.88759	0.229
2.92735	0.222
2.9671	0.222
3.00685	0.23
3.04661	0.232
3.08636	0.237
3.12612	0.237
3.16587	0.237
3.20563	0.234
3.24538	0.229
3.28513	0.204
3.32489	0.154
3.36464	0.048
3.4044	0.019
3.44415	0.026
3.48391	0.043
3.52366	0.059
3.56341	0.308
3.60317	0.392
3.64292	0.401
3.68268	0.397
3.72243	0.405
3.76218	0.408
3.80194	0.41
3.84169	0.42
3.88145	0.428
3.9212	0.436
3.96096	0.443
4.00071	0.451
4.04046	0.455
4.08022	0.455
4.11997	0.46
4.15973	0.463
4.19948	0.461
4.23923	0.455
4.27899	0.441
4.31874	0.441
4.3585	0.458
4.39825	0.493
4.43801	0.491
4.47776	0.495
4.51751	0.503
4.55727	0.506
4.59702	0.509
4.63678	0.519
4.67653	0.524
4.71629	0.531
4.75604	0.536
4.79579	0.548
4.83555	0.556
4.8753	0.558
4.91506	0.559
4.95481	0.561
4.99456	0.564
5.03432	0.569
5.07407	0.579
5.11383	0.586
5.15358	0.591
5.19334	0.591
5.23309	0.586
5.27284	0.534
5.3126	0.566
5.35235	0.589
5.39211	0.611
5.43186	0.614
5.47162	0.621
5.51137	0.627
5.55112	0.621
5.59088	0.614
5.63063	0.602
5.67039	0.607
5.71014	0.599
5.74989	0.591
5.78965	0.581
5.8294	0.564
5.86916	0.559
5.90891	0.531
5.94867	0.576
5.98842	0.591
6.02817	0.558
6.06793	0.588
6.10768	0.591
6.14744	0.646
6.18719	0.647
6.22694	0.654
6.2667	0.699
6.30645	0.511
6.34621	0.584
6.38596	0.654
6.42572	0.671
6.46547	0.71
6.50522	0.657
6.54498	0.45
6.58473	0.352
6.62449	0.518
6.66424	0.586
6.704	0.564
6.74375	0.174
6.7835	0.091
6.82326	0.093
6.86301	0.116
6.90277	0.172
6.94252	0.21
6.98227	0.247
7.02203	0.403
7.06178	0.475
7.10154	0.441
7.14129	0.373
7.18105	0.222
7.2208	0.106
7.26055	0.076
7.30031	0.197
7.34006	0.131
7.37982	0.204
7.41957	0.186
7.45932	0.357
7.49908	0.468
7.53883	0.533
7.57859	0.573
7.61834	0.594
7.6581	0.612
7.69785	0.624
7.7376	0.632
7.77736	0.656
7.81711	0.649
7.85687	0.634
7.89662	0.637
7.93638	0.617
7.97613	0.647
8.01588	0.666
8.05564	0.669
8.09539	0.657
8.13515	0.671
8.1749	0.669
8.21465	0.563
8.25441	0.377
8.29416	0.591
8.33392	0.524
8.37367	0.543
8.41343	0.631
8.45318	0.661
8.49293	0.509
8.53269	0.229
8.57244	0.37
8.6122	0.538
8.65195	0.642
8.6917	0.692
8.73146	0.727
8.77121	0.764
8.81097	0.769
8.85072	0.755
8.89048	0.734
8.93023	0.666
8.96998	0.573
9.00974	0.485
9.04949	0.473
9.08925	0.204
9.129	0.064
9.16876	0.041
9.20851	0.078
9.24826	0.141
9.28802	0.34
9.32777	0.468
9.36753	0.35
9.40728	0.166
9.44703	0.28
9.48679	0.378
9.52654	0.443
9.5663	0.458
9.60605	0.433
9.64581	0.46
9.68556	0.503
9.72531	0.519
9.76507	0.606
9.80482	0.647
9.84458	0.239
9.88433	0.303
9.92409	0.448
9.96384	0.521
10.0036	0.561
10.0433	0.586
10.0831	0.594
10.1229	0.599
10.1626	0.591
10.2024	0.563
10.2421	0.513
10.2819	0.4
10.3216	0.305
10.3614	0.335
10.4011	0.436
10.4409	0.496
10.4806	0.569
10.5204	0.642
10.5602	0.672
10.5999	0.681
10.6397	0.616
10.6794	0.674
10.7192	0.704
10.7589	0.727
10.7987	0.747
10.8384	0.759
10.8782	0.77
10.9179	0.777
10.9577	0.775
10.9974	0.799
11.0372	0.799
11.077	0.797
11.1167	0.8
11.1565	0.81
11.1962	0.813
11.236	0.805
11.2757	0.813
11.3155	0.813
11.3552	0.828
11.395	0.838
11.4347	0.845
11.4745	0.848
11.5143	0.853
11.554	0.855
11.5938	0.85
11.6335	0.845
11.6733	0.827
11.713	0.782
11.7528	0.636
11.7925	0.348
11.8323	0.225
11.872	0.247
11.9118	0.495
11.9515	0.684
11.9913	0.702
12.0311	0.591
12.0708	0.352
12.1106	0.22
12.1503	0.425
12.1901	0.453
12.2298	0.207
12.2696	0.071
12.3093	0.142
12.3491	0.31
12.3888	0.458
12.4286	0.563
12.4684	0.627
12.5081	0.627
12.5479	0.629
12.5876	0.601
12.6274	0.611
12.6671	0.686
12.7069	0.754
12.7466	0.785
12.7864	0.79
12.8261	0.802
12.8659	0.803
12.9056	0.812
12.9454	0.81
12.9852	0.822
13.0249	0.827
13.0647	0.842
13.1044	0.85
13.1442	0.855
13.1839	0.86
13.2237	0.833
13.2634	0.737
13.3032	0.719
13.3429	0.612
13.3827	0.45
13.4225	0.534
13.4622	0.667
13.502	0.745
13.5417	0.78
13.5815	0.807
13.6212	0.822
13.661	0.825
13.7007	0.828
13.7405	0.833
13.7802	0.838
13.82	0.833
13.8598	0.843
13.8995	0.848
13.9393	0.865
13.979	0.885
14.0188	0.901
14.0585	0.906
14.0983	0.918
14.138	0.925
14.1778	0.916
14.2175	0.867
14.2573	0.845
14.297	0.865
14.3368	0.901
14.3766	0.913
14.4163	0.918
14.4561	0.92
14.4958	0.918
14.5356	0.916
14.5753	0.915
14.6151	0.906
14.6548	0.901
14.6946	0.906
14.7343	0.892
14.7741	0.845
14.8139	0.745
14.8536	0.651
14.8934	0.636
14.9331	0.679
14.9729	0.732
15.0126	0.737
15.0524	0.737
15.0921	0.752
15.1319	0.799
15.1716	0.822
15.2114	0.822
15.2511	0.813
15.2909	0.812
15.3307	0.8
15.3704	0.79
15.4102	0.782
15.4499	0.765
15.4897	0.752
15.5294	0.75
15.5692	0.739
15.6089	0.722
15.6487	0.712
15.6884	0.707
15.7282	0.692
15.768	0.679
15.8077	0.661
15.8475	0.654
15.8872	0.637
15.927	0.622
15.9667	0.607
