Infrared Spectrum: 2-(2-ETHYLHEXYLAMINO)-3-METHYL PYRAZINE
Formula: C13 H23 N3
CAS: 116660-33-4
State: LIQUID
Class: COBLENTZ
Instrument: Not specified, most likely a prism, grating, or hybrid spectrometer.
Sampling: TRANSMISSION
Path length: 0.003 CM
Resolution: 4
Origin: WYANDOTTE CHEMICALS CORP., WYANDOTTE, MICHIGAN, USA
MICROMETERS	TRANSMITTANCE
2.027	0.914
2.06796	0.914
2.10891	0.9
2.14987	0.905
2.19082	0.849
2.23178	0.82
2.27274	0.852
2.31369	0.868
2.35465	0.868
2.3956	0.873
2.43656	0.878
2.47752	0.869
2.51847	0.876
2.55943	0.909
2.60038	0.89
2.64134	0.921
2.6823	0.902
2.72325	0.893
2.76421	0.883
2.80516	0.83
2.84612	0.693
2.88707	0.386
2.92803	0.39
2.96899	0.255
3.00994	0.162
3.0509	0.289
3.09185	0.539
3.13281	0.636
3.17377	0.659
3.21472	0.566
3.25568	0.452
3.29663	0.419
3.33759	0.104
3.37855	0.044
3.4195	0.044
3.46046	0.053
3.50141	0.09
3.54237	0.445
3.58333	0.601
3.62428	0.681
3.66524	0.674
3.70619	0.726
3.74715	0.739
3.78811	0.755
3.82906	0.772
3.87002	0.775
3.91097	0.784
3.95193	0.799
3.99289	0.801
4.03384	0.82
4.0748	0.811
4.11575	0.796
4.15671	0.816
4.19767	0.787
4.23862	0.784
4.27958	0.797
4.32053	0.792
4.36149	0.803
4.40244	0.84
4.4434	0.832
4.48436	0.842
4.52531	0.866
4.56627	0.871
4.60722	0.878
4.64818	0.873
4.68914	0.871
4.73009	0.869
4.77105	0.868
4.812	0.88
4.85296	0.897
4.89392	0.898
4.93487	0.893
4.97583	0.893
5.01678	0.898
5.05774	0.895
5.0987	0.898
5.13965	0.892
5.18061	0.893
5.22156	0.892
5.26252	0.893
5.30348	0.863
5.34443	0.813
5.38539	0.851
5.42634	0.878
5.4673	0.892
5.50826	0.89
5.54921	0.873
5.59017	0.857
5.63112	0.854
5.67208	0.809
5.71304	0.806
5.75399	0.818
5.79495	0.809
5.8359	0.808
5.87686	0.789
5.91781	0.767
5.95877	0.714
5.99973	0.662
6.04068	0.654
6.08164	0.626
6.12259	0.577
6.16355	0.457
6.20451	0.232
6.24546	0.061
6.28642	0.051
6.32737	0.191
6.36833	0.279
6.40929	0.087
6.45024	0.073
6.4912	0.077
6.53215	0.071
6.57311	0.068
6.61407	0.073
6.65502	0.053
6.69598	0.07
6.73693	0.089
6.77789	0.063
6.81885	0.056
6.8598	0.071
6.90076	0.075
6.94171	0.075
6.98267	0.148
7.02363	0.255
7.06458	0.227
7.10554	0.119
7.14649	0.089
7.18745	0.113
7.22841	0.063
7.26936	0.059
7.31032	0.059
7.35127	0.07
7.39223	0.118
7.43319	0.15
7.47414	0.157
7.5151	0.16
7.55605	0.179
7.59701	0.268
7.63796	0.316
7.67892	0.369
7.71988	0.397
7.76083	0.412
7.80179	0.422
7.84274	0.385
7.8837	0.325
7.92466	0.178
7.96561	0.241
8.00657	0.273
8.04752	0.294
8.08848	0.267
8.12944	0.306
8.17039	0.41
8.21135	0.385
8.2523	0.282
8.29326	0.097
8.33422	0.046
8.37517	0.083
8.41613	0.291
8.45708	0.378
8.49804	0.304
8.539	0.157
8.57995	0.101
8.62091	0.191
8.66186	0.301
8.70282	0.347
8.74378	0.375
8.78473	0.392
8.82569	0.397
8.86664	0.4
8.9076	0.422
8.94856	0.491
8.98951	0.563
9.03047	0.613
9.07142	0.623
9.11238	0.614
9.15333	0.577
9.19429	0.51
9.23525	0.472
9.2762	0.491
9.31716	0.501
9.35811	0.496
9.39907	0.51
9.44003	0.532
9.48098	0.549
9.52194	0.58
9.56289	0.587
9.60385	0.592
9.64481	0.589
9.68576	0.541
9.72672	0.484
9.76767	0.511
9.80863	0.578
9.84959	0.609
9.89054	0.604
9.9315	0.599
9.97245	0.602
10.0134	0.585
10.0544	0.558
10.0953	0.501
10.1363	0.407
10.1772	0.263
10.2182	0.171
10.2591	0.164
10.3001	0.243
10.3411	0.337
10.382	0.395
10.423	0.443
10.4639	0.479
10.5049	0.523
10.5458	0.559
10.5868	0.583
10.6277	0.592
10.6687	0.594
10.7097	0.613
10.7506	0.633
10.7916	0.645
10.8325	0.666
10.8735	0.683
10.9144	0.691
10.9554	0.698
10.9964	0.688
11.0373	0.671
11.0783	0.674
11.1192	0.672
11.1602	0.666
11.2011	0.654
11.2421	0.652
11.283	0.654
11.324	0.642
11.365	0.621
11.4059	0.613
11.4469	0.626
11.4878	0.643
11.5288	0.652
11.5697	0.664
11.6107	0.671
11.6516	0.669
11.6926	0.66
11.7336	0.647
11.7745	0.619
11.8155	0.595
11.8564	0.546
11.8974	0.489
11.9383	0.409
11.9793	0.339
12.0203	0.258
12.0612	0.191
12.1022	0.145
12.1431	0.119
12.1841	0.133
12.225	0.196
12.266	0.297
12.3069	0.407
12.3479	0.488
12.3889	0.534
12.4298	0.559
12.4708	0.57
12.5117	0.578
12.5527	0.589
12.5936	0.58
12.6346	0.563
12.6755	0.549
12.7165	0.532
12.7575	0.518
12.7984	0.501
12.8394	0.491
12.8803	0.484
12.9213	0.47
12.9622	0.443
13.0032	0.422
13.0441	0.417
13.0851	0.417
13.1261	0.419
13.167	0.438
13.208	0.46
13.2489	0.467
13.2899	0.477
13.3308	0.477
13.3718	0.489
13.4128	0.508
13.4537	0.515
13.4947	0.527
13.5356	0.518
13.5766	0.508
13.6175	0.5
13.6585	0.481
13.6994	0.453
13.7404	0.431
13.7814	0.412
13.8223	0.428
13.8633	0.455
13.9042	0.496
13.9452	0.517
13.9861	0.542
14.0271	0.554
14.068	0.568
14.109	0.575
14.15	0.587
14.1909	0.597
14.2319	0.597
14.2728	0.594
14.3138	0.595
14.3547	0.597
14.3957	0.59
14.4367	0.585
14.4776	0.58
14.5186	0.577
14.5595	0.568
14.6005	0.559
14.6414	0.561
14.6824	0.554
14.7233	0.553
14.7643	0.547
14.8053	0.539
14.8462	0.534
14.8872	0.525
14.9281	0.525
14.9691	0.532
15.01	0.53
15.051	0.493
15.0919	0.44
15.1329	0.44
15.1739	0.458
15.2148	0.481
15.2558	0.486
15.2967	0.493
15.3377	0.488
15.3786	0.486
15.4196	0.488
15.4606	0.486
15.5015	0.476
15.5425	0.474
15.5834	0.469
15.6244	0.467
15.6653	0.46
15.7063	0.453
15.7472	0.452
15.7882	0.45
15.8292	0.445
15.8701	0.44
15.9111	0.438
15.952	0.436
