Infrared Spectrum: 2-(2,2-DIMETHYLPENTOXY)-3-METHYL PYRAZINE
Formula: C12 H20 N2 O
CAS: 116660-28-7
State: LIQUID
Class: COBLENTZ
Instrument: Not specified, most likely a prism, grating, or hybrid spectrometer.
Sampling: TRANSMISSION
Path length: 0.003 CM
Resolution: 4
Origin: WYANDOTTE CHEMICALS CORP., WYANDOTTE, MICHIGAN, USA
MICROMETERS	TRANSMITTANCE
2.095	0.982
2.13584	0.976
2.17668	0.95
2.21752	0.905
2.25835	0.919
2.29919	0.921
2.34003	0.938
2.38087	0.945
2.42171	0.958
2.46255	0.938
2.50339	0.947
2.54422	0.958
2.58506	0.972
2.6259	0.972
2.66674	0.979
2.70758	0.969
2.74842	0.953
2.78926	0.929
2.83009	0.912
2.87093	0.88
2.91177	0.856
2.95261	0.846
2.99345	0.841
3.03429	0.859
3.07513	0.875
3.11596	0.863
3.1568	0.849
3.19764	0.846
3.23848	0.782
3.27932	0.437
3.32016	0.495
3.361	0.041
3.40183	0.056
3.44267	0.078
3.48351	0.095
3.52435	0.364
3.56519	0.704
3.60603	0.798
3.64687	0.808
3.6877	0.789
3.72854	0.871
3.76938	0.88
3.81022	0.876
3.85106	0.902
3.8919	0.895
3.93274	0.9
3.97357	0.924
4.01441	0.897
4.05525	0.89
4.09609	0.888
4.13693	0.905
4.17777	0.911
4.21861	0.909
4.25944	0.907
4.30028	0.914
4.34112	0.909
4.38196	0.909
4.4228	0.919
4.46364	0.916
4.50448	0.928
4.54531	0.928
4.58615	0.928
4.62699	0.921
4.66783	0.921
4.70867	0.916
4.74951	0.938
4.79035	0.947
4.83118	0.95
4.87202	0.952
4.91286	0.943
4.9537	0.936
4.99454	0.94
5.03538	0.938
5.07622	0.923
5.11705	0.936
5.15789	0.94
5.19873	0.94
5.23957	0.929
5.28041	0.914
5.32125	0.904
5.36209	0.928
5.40292	0.95
5.44376	0.953
5.4846	0.947
5.52544	0.929
5.56628	0.916
5.60712	0.899
5.64796	0.873
5.68879	0.89
5.72963	0.882
5.77047	0.765
5.81131	0.711
5.85215	0.835
5.89299	0.842
5.93383	0.827
5.97466	0.782
6.0155	0.806
6.05634	0.786
6.09718	0.789
6.13802	0.8
6.17886	0.764
6.2197	0.74
6.26053	0.565
6.30137	0.454
6.34221	0.6
6.38305	0.475
6.42389	0.112
6.46473	0.08
6.50557	0.164
6.5464	0.442
6.58724	0.574
6.62808	0.594
6.66892	0.555
6.70976	0.435
6.7506	0.165
6.79144	0.092
6.83227	0.092
6.87311	0.1
6.91395	0.066
6.95479	0.051
6.99563	0.051
7.03647	0.051
7.07731	0.058
7.11814	0.188
7.15898	0.229
7.19982	0.051
7.24066	0.063
7.2815	0.105
7.32234	0.09
7.36318	0.08
7.40401	0.059
7.44485	0.1
7.48569	0.112
7.52653	0.131
7.56737	0.099
7.60821	0.059
7.64905	0.059
7.68988	0.102
7.73072	0.092
7.77156	0.155
7.8124	0.263
7.85324	0.347
7.89408	0.3
7.93492	0.213
7.97575	0.123
8.01659	0.268
8.05743	0.517
8.09827	0.56
8.13911	0.466
8.17995	0.452
8.22079	0.447
8.26162	0.482
8.30246	0.425
8.3433	0.201
8.38414	0.058
8.42498	0.099
8.46582	0.213
8.50666	0.143
8.54749	0.061
8.58833	0.058
8.62917	0.076
8.67001	0.162
8.71085	0.241
8.75169	0.162
8.79253	0.305
8.83336	0.464
8.8742	0.514
8.91504	0.519
8.95588	0.504
8.99672	0.482
9.03756	0.478
9.07839	0.478
9.11923	0.488
9.16007	0.497
9.20091	0.473
9.24175	0.386
9.28259	0.429
9.32343	0.509
9.36426	0.517
9.4051	0.552
9.44594	0.569
9.48678	0.514
9.52762	0.352
9.56846	0.227
9.6093	0.258
9.65013	0.341
9.69097	0.36
9.73181	0.341
9.77265	0.235
9.81349	0.1
9.85433	0.064
9.89517	0.064
9.936	0.064
9.97684	0.064
10.0177	0.111
10.0585	0.217
10.0994	0.312
10.1402	0.297
10.181	0.237
10.2219	0.188
10.2627	0.198
10.3036	0.343
10.3444	0.526
10.3852	0.606
10.4261	0.659
10.4669	0.659
10.5077	0.647
10.5486	0.62
10.5894	0.591
10.6303	0.552
10.6711	0.548
10.7119	0.547
10.7528	0.517
10.7936	0.557
10.8345	0.57
10.8753	0.55
10.9161	0.622
10.957	0.678
10.9978	0.724
11.0386	0.76
11.0795	0.77
11.1203	0.747
11.1612	0.617
11.202	0.54
11.2428	0.627
11.2837	0.676
11.3245	0.67
11.3654	0.658
11.4062	0.675
11.447	0.687
11.4879	0.69
11.5287	0.666
11.5695	0.61
11.6104	0.531
11.6512	0.449
11.6921	0.379
11.7329	0.396
11.7737	0.449
11.8146	0.43
11.8554	0.35
11.8963	0.273
11.9371	0.201
11.9779	0.17
12.0188	0.276
12.0596	0.514
12.1004	0.697
12.1413	0.781
12.1821	0.818
12.223	0.832
12.2638	0.844
12.3046	0.839
12.3455	0.818
12.3863	0.782
12.4272	0.74
12.468	0.738
12.5088	0.731
12.5497	0.735
12.5905	0.733
12.6314	0.738
12.6722	0.753
12.713	0.784
12.7539	0.808
12.7947	0.823
12.8355	0.827
12.8764	0.822
12.9172	0.811
12.9581	0.789
12.9989	0.757
13.0397	0.747
13.0806	0.779
13.1214	0.801
13.1623	0.793
13.2031	0.781
13.2439	0.762
13.2848	0.728
13.3256	0.687
13.3664	0.658
13.4073	0.664
13.4481	0.647
13.489	0.603
13.5298	0.562
13.5706	0.57
13.6115	0.625
13.6523	0.671
13.6932	0.712
13.734	0.728
13.7748	0.738
13.8157	0.752
13.8565	0.772
13.8973	0.782
13.9382	0.788
13.979	0.796
14.0199	0.798
14.0607	0.8
14.1015	0.808
14.1424	0.808
14.1832	0.798
14.2241	0.8
14.2649	0.791
14.3057	0.794
14.3466	0.784
14.3874	0.779
14.4282	0.774
14.4691	0.769
14.5099	0.767
14.5508	0.762
14.5916	0.752
14.6324	0.748
14.6733	0.745
14.7141	0.74
14.755	0.731
14.7958	0.724
14.8366	0.714
14.8775	0.7
14.9183	0.695
14.9591	0.692
15	0.69
15.0408	0.656
15.0817	0.596
15.1225	0.576
15.1633	0.6
15.2042	0.634
15.245	0.642
15.2859	0.651
15.3267	0.644
15.3675	0.639
15.4084	0.627
15.4492	0.622
15.4901	0.606
15.5309	0.605
15.5717	0.596
15.6126	0.579
15.6534	0.56
15.6942	0.55
15.7351	0.543
15.7759	0.536
15.8168	0.526
15.8576	0.517
15.8984	0.511
15.9393	0.505
