Infrared Spectrum: 2-(2,2-DIMETHYLPENTOXY)-3-METHYL-6-(n-HEPTYL) PYRAZINE
Formula: C19 H34 N2 O
CAS: 116660-34-5
State: LIQUID
Class: COBLENTZ
Instrument: Not specified, most likely a prism, grating, or hybrid spectrometer.
Sampling: TRANSMISSION
Path length: 0.0015 CM
Resolution: 4
Origin: WYANDOTTE CHEMICALS CORP., WYANDOTTE, MICHIGAN, USA
MICROMETERS	TRANSMITTANCE
2.02	0.996
2.06092	1
2.10184	1
2.14275	0.993
2.18367	0.95
2.22459	0.868
2.26551	0.88
2.30642	0.909
2.34734	0.925
2.38826	0.926
2.42918	0.95
2.4701	0.95
2.51101	0.945
2.55193	0.954
2.59285	0.976
2.63377	0.976
2.67468	0.984
2.7156	0.977
2.75652	0.972
2.79744	0.979
2.83836	0.965
2.87927	0.95
2.92019	0.935
2.96111	0.923
3.00203	0.918
3.04294	0.921
3.08386	0.914
3.12478	0.894
3.1657	0.867
3.20662	0.87
3.24753	0.826
3.28845	0.591
3.32937	0.4
3.37029	0.049
3.4112	0.051
3.45212	0.052
3.49304	0.051
3.53396	0.151
3.57488	0.58
3.61579	0.744
3.65671	0.764
3.69763	0.756
3.73855	0.817
3.77946	0.826
3.82038	0.853
3.8613	0.868
3.90222	0.87
3.94314	0.879
3.98405	0.899
4.02497	0.906
4.06589	0.909
4.10681	0.894
4.14772	0.896
4.18864	0.894
4.22956	0.899
4.27048	0.889
4.3114	0.885
4.35231	0.882
4.39323	0.916
4.43415	0.935
4.47507	0.936
4.51598	0.943
4.5569	0.95
4.59782	0.95
4.63874	0.947
4.67966	0.942
4.72057	0.945
4.76149	0.942
4.80241	0.948
4.84333	0.95
4.88424	0.945
4.92516	0.942
4.96608	0.94
5.007	0.942
5.04792	0.942
5.08883	0.926
5.12975	0.938
5.17067	0.943
5.21159	0.948
5.2525	0.933
5.29342	0.947
5.33434	0.948
5.37526	0.948
5.41618	0.965
5.45709	0.952
5.49801	0.955
5.53893	0.962
5.57985	0.943
5.62076	0.942
5.66168	0.923
5.7026	0.913
5.74352	0.885
5.78444	0.918
5.82535	0.901
5.86627	0.892
5.90719	0.901
5.94811	0.899
5.98902	0.875
6.02994	0.846
6.07086	0.839
6.11178	0.834
6.1527	0.817
6.19361	0.805
6.23453	0.727
6.27545	0.5
6.31637	0.441
6.35728	0.603
6.3982	0.429
6.43912	0.12
6.48004	0.156
6.52096	0.407
6.56187	0.567
6.60279	0.621
6.64371	0.604
6.68463	0.488
6.72554	0.359
6.76646	0.182
6.80738	0.049
6.8483	0.066
6.88922	0.049
6.93013	0.049
6.97105	0.061
7.01197	0.115
7.05289	0.076
7.0938	0.047
7.13472	0.057
7.17564	0.136
7.21656	0.049
7.25747	0.051
7.29839	0.1
7.33931	0.081
7.38023	0.061
7.42115	0.047
7.46206	0.051
7.50298	0.103
7.5439	0.185
7.58482	0.139
7.62573	0.109
7.66665	0.144
7.70757	0.149
7.74849	0.216
7.78941	0.258
7.83032	0.269
7.87124	0.335
7.91216	0.439
7.95308	0.478
7.99399	0.546
8.03491	0.586
8.07583	0.587
8.11675	0.592
8.15767	0.606
8.19858	0.567
8.2395	0.497
8.28042	0.415
8.32134	0.374
8.36225	0.315
8.40317	0.197
8.44409	0.112
8.48501	0.051
8.52593	0.052
8.56684	0.047
8.60776	0.056
8.64868	0.098
8.6896	0.134
8.73051	0.189
8.77143	0.393
8.81235	0.62
8.85327	0.7
8.89419	0.713
8.9351	0.667
8.97602	0.64
9.01694	0.64
9.05786	0.575
9.09877	0.497
9.13969	0.488
9.18061	0.531
9.22153	0.553
9.26245	0.586
9.30336	0.643
9.34428	0.667
9.3852	0.674
9.42612	0.659
9.46703	0.626
9.50795	0.597
9.54887	0.502
9.58979	0.335
9.63071	0.165
9.67162	0.066
9.71254	0.059
9.75346	0.098
9.79438	0.143
9.83529	0.139
9.87621	0.143
9.91713	0.177
9.95805	0.173
9.99897	0.199
10.0399	0.304
10.0808	0.4
10.1217	0.463
10.1626	0.465
10.2036	0.451
10.2445	0.461
10.2854	0.439
10.3263	0.398
10.3672	0.412
10.4081	0.512
10.4491	0.614
10.49	0.662
10.5309	0.696
10.5718	0.672
10.6127	0.625
10.6537	0.603
10.6946	0.599
10.7355	0.568
10.7764	0.553
10.8173	0.599
10.8582	0.582
10.8992	0.613
10.9401	0.667
10.981	0.703
11.0219	0.725
11.0628	0.749
11.1037	0.749
11.1447	0.735
11.1856	0.718
11.2265	0.7
11.2674	0.65
11.3083	0.603
11.3493	0.509
11.3902	0.434
11.4311	0.417
11.472	0.49
11.5129	0.64
11.5538	0.718
11.5948	0.749
11.6357	0.771
11.6766	0.817
11.7175	0.841
11.7584	0.853
11.7993	0.856
11.8403	0.848
11.8812	0.848
11.9221	0.839
11.963	0.827
12.0039	0.831
12.0449	0.836
12.0858	0.841
12.1267	0.843
12.1676	0.833
12.2085	0.829
12.2494	0.817
12.2904	0.812
12.3313	0.814
12.3722	0.816
12.4131	0.826
12.454	0.838
12.4949	0.838
12.5359	0.831
12.5768	0.827
12.6177	0.821
12.6586	0.817
12.6995	0.826
12.7405	0.819
12.7814	0.817
12.8223	0.812
12.8632	0.804
12.9041	0.8
12.945	0.785
12.986	0.773
13.0269	0.759
13.0678	0.742
13.1087	0.734
13.1496	0.727
13.1906	0.715
13.2315	0.73
13.2724	0.741
13.3133	0.751
13.3542	0.751
13.3951	0.742
13.4361	0.701
13.477	0.649
13.5179	0.606
13.5588	0.601
13.5997	0.637
13.6406	0.676
13.6816	0.713
13.7225	0.708
13.7634	0.683
13.8043	0.64
13.8452	0.606
13.8862	0.618
13.9271	0.664
13.968	0.722
14.0089	0.77
14.0498	0.8
14.0907	0.833
14.1317	0.851
14.1726	0.868
14.2135	0.879
14.2544	0.89
14.2953	0.897
14.3362	0.908
14.3772	0.908
14.4181	0.916
14.459	0.909
14.4999	0.906
14.5408	0.892
14.5818	0.885
14.6227	0.879
14.6636	0.889
14.7045	0.906
14.7454	0.914
14.7863	0.914
14.8273	0.916
14.8682	0.913
14.9091	0.911
14.95	0.904
14.9909	0.89
15.0319	0.851
15.0728	0.822
15.1137	0.807
15.1546	0.819
15.1955	0.831
15.2364	0.848
15.2774	0.846
15.3183	0.844
15.3592	0.844
15.4001	0.848
15.441	0.841
15.4819	0.839
15.5229	0.831
15.5638	0.827
15.6047	0.812
15.6456	0.819
15.6865	0.8
15.7275	0.785
15.7684	0.778
15.8093	0.756
15.8502	0.744
15.8911	0.727
15.932	0.705
15.973	0.695
