Infrared Spectrum: 2,3,6-TRICHLORO-4-PROPYLPHENOL
Formula: C9 H9 Cl3 O
CAS: 116632-99-6
State: SOLUTION (10% CCl4 FOR 5000-1300, 10% CS2 FOR 1300-625 CM^-^1)
Class: COBLENTZ
Instrument: Not specified, most likely a prism, grating, or hybrid spectrometer.
Sampling: TRANSMISSION
Path length: 0.01 CM, 0.01 CM
Resolution: 4
Origin: DOW CHEMICAL COMPANY
MICROMETERS	TRANSMITTANCE
2.012	0.869
2.04902	0.863
2.08604	0.865
2.12306	0.874
2.16009	0.879
2.19711	0.877
2.23413	0.871
2.27115	0.866
2.30817	0.871
2.34519	0.872
2.38221	0.872
2.41924	0.875
2.45626	0.877
2.49328	0.875
2.5303	0.871
2.56732	0.874
2.60434	0.875
2.64136	0.879
2.67838	0.874
2.71541	0.872
2.75243	0.848
2.78945	0.693
2.82647	0.433
2.86349	0.833
2.90051	0.83
2.93753	0.86
2.97456	0.863
3.01158	0.868
3.0486	0.869
3.08562	0.865
3.12264	0.866
3.15966	0.866
3.19668	0.869
3.23371	0.866
3.27073	0.856
3.30775	0.816
3.34477	0.607
3.38179	0.373
3.41881	0.572
3.45583	0.621
3.49286	0.751
3.52988	0.849
3.5669	0.863
3.60392	0.868
3.64094	0.868
3.67796	0.874
3.71498	0.872
3.75201	0.879
3.78903	0.882
3.82605	0.882
3.86307	0.883
3.90009	0.883
3.93711	0.882
3.97413	0.885
4.01115	0.888
4.04818	0.888
4.0852	0.883
4.12222	0.889
4.15924	0.895
4.19626	0.885
4.23328	0.872
4.2703	0.871
4.30733	0.872
4.34435	0.874
4.38137	0.883
4.41839	0.895
4.45541	0.898
4.49243	0.9
4.52945	0.911
4.56648	0.908
4.6035	0.912
4.64052	0.911
4.67754	0.917
4.71456	0.911
4.75158	0.914
4.7886	0.915
4.82563	0.915
4.86265	0.911
4.89967	0.911
4.93669	0.914
4.97371	0.895
5.01073	0.889
5.04775	0.903
5.08477	0.901
5.1218	0.905
5.15882	0.914
5.19584	0.911
5.23286	0.911
5.26988	0.912
5.3069	0.903
5.34392	0.895
5.38095	0.897
5.41797	0.898
5.45499	0.898
5.49201	0.901
5.52903	0.9
5.56605	0.898
5.60307	0.901
5.6401	0.894
5.67712	0.889
5.71414	0.882
5.75116	0.882
5.78818	0.892
5.8252	0.888
5.86222	0.888
5.89925	0.882
5.93627	0.883
5.97329	0.874
6.01031	0.879
6.04733	0.869
6.08435	0.862
6.12137	0.846
6.1584	0.811
6.19542	0.751
6.23244	0.633
6.26946	0.535
6.30648	0.509
6.3435	0.499
6.38052	0.439
6.41754	0.416
6.45457	0.439
6.49159	0.513
6.52861	0.563
6.56563	0.589
6.60265	0.621
6.63967	0.672
6.67669	0.676
6.71372	0.589
6.75074	0.434
6.78776	0.154
6.82478	0.07
6.8618	0.274
6.89882	0.482
6.93584	0.584
6.97287	0.669
7.00989	0.683
7.04691	0.583
7.08393	0.456
7.12095	0.297
7.15797	0.258
7.19499	0.418
7.23202	0.588
7.26904	0.774
7.30606	0.793
7.34308	0.8
7.3801	0.788
7.41712	0.747
7.45414	0.744
7.49116	0.761
7.52819	0.676
7.56521	0.566
7.60223	0.591
7.63925	0.58
7.67627	0.494
7.71329	0.396
7.75031	0.318
7.78734	0.316
7.82436	0.382
7.86138	0.477
7.8984	0.542
7.93542	0.558
7.97244	0.542
8.00946	0.39
8.04649	0.222
8.08351	0.315
8.12053	0.5
8.15755	0.558
8.19457	0.554
8.23159	0.546
8.26861	0.54
8.30564	0.437
8.34266	0.264
8.37968	0.124
8.4167	0.085
8.45372	0.179
8.49074	0.376
8.52776	0.529
8.56479	0.58
8.60181	0.607
8.63883	0.627
8.67585	0.632
8.71287	0.604
8.74989	0.591
8.78691	0.581
8.82393	0.509
8.86096	0.318
8.89798	0.177
8.935	0.332
8.97202	0.554
9.00904	0.611
9.04606	0.615
9.08308	0.589
9.12011	0.575
9.15713	0.572
9.19415	0.572
9.23117	0.569
9.26819	0.584
9.30521	0.63
9.34223	0.641
9.37926	0.65
9.41628	0.71
9.4533	0.732
9.49032	0.741
9.52734	0.736
9.56436	0.733
9.60138	0.733
9.63841	0.736
9.67543	0.748
9.71245	0.764
9.74947	0.779
9.78649	0.79
9.82351	0.793
9.86053	0.793
9.89755	0.799
9.93458	0.805
9.9716	0.814
10.0086	0.82
10.0456	0.822
10.0827	0.825
10.1197	0.819
10.1567	0.791
10.1937	0.747
10.2307	0.692
10.2678	0.712
10.3048	0.69
10.3418	0.683
10.3788	0.762
10.4159	0.805
10.4529	0.837
10.4899	0.843
10.5269	0.842
10.5639	0.833
10.601	0.816
10.638	0.774
10.675	0.753
10.712	0.756
10.749	0.768
10.7861	0.756
10.8231	0.742
10.8601	0.733
10.8971	0.728
10.9342	0.722
10.9712	0.732
11.0082	0.747
11.0452	0.733
11.0822	0.707
11.1193	0.672
11.1563	0.65
11.1933	0.652
11.2303	0.658
11.2673	0.64
11.3044	0.595
11.3414	0.551
11.3784	0.519
11.4154	0.497
11.4525	0.479
11.4895	0.464
11.5265	0.474
11.5635	0.519
11.6005	0.54
11.6376	0.558
11.6746	0.551
11.7116	0.549
11.7486	0.548
11.7856	0.542
11.8227	0.514
11.8597	0.476
11.8967	0.448
11.9337	0.467
11.9708	0.505
12.0078	0.531
12.0448	0.551
12.0818	0.581
12.1188	0.612
12.1559	0.627
12.1929	0.626
12.2299	0.589
12.2669	0.514
12.3039	0.401
12.341	0.321
12.378	0.274
12.415	0.263
12.452	0.26
12.4891	0.321
12.5261	0.433
12.5631	0.529
12.6001	0.572
12.6371	0.601
12.6742	0.63
12.7112	0.667
12.7482	0.681
12.7852	0.686
12.8222	0.689
12.8593	0.692
12.8963	0.69
12.9333	0.689
12.9703	0.681
13.0074	0.661
13.0444	0.62
13.0814	0.578
13.1184	0.549
13.1554	0.548
13.1925	0.58
13.2295	0.614
13.2665	0.65
13.3035	0.672
13.3405	0.673
13.3776	0.672
13.4146	0.666
13.4516	0.655
13.4886	0.647
13.5257	0.658
13.5627	0.679
13.5997	0.692
13.6367	0.695
13.6737	0.693
13.7108	0.681
13.7478	0.661
13.7848	0.626
13.8218	0.584
13.8588	0.578
13.8959	0.6
13.9329	0.623
13.9699	0.637
14.0069	0.641
14.0439	0.647
14.081	0.655
14.118	0.656
14.155	0.655
14.192	0.65
14.2291	0.646
14.2661	0.64
14.3031	0.632
14.3401	0.624
14.3771	0.618
14.4142	0.614
14.4512	0.606
14.4882	0.601
14.5252	0.598
14.5622	0.594
14.5993	0.586
14.6363	0.58
14.6733	0.575
14.7103	0.568
14.7474	0.56
14.7844	0.554
14.8214	0.545
14.8584	0.534
14.8954	0.523
14.9325	0.516
14.9695	0.516
15.0065	0.517
15.0435	0.502
15.0805	0.49
15.1176	0.48
15.1546	0.471
15.1916	0.456
15.2286	0.448
15.2657	0.437
15.3027	0.425
15.3397	0.413
15.3767	0.405
15.4137	0.399
15.4508	0.395
15.4878	0.388
15.5248	0.384
15.5618	0.375
15.5988	0.367
15.6359	0.359
15.6729	0.349
15.7099	0.338
15.7469	0.327
15.784	0.315
15.821	0.304
15.858	0.3
15.895	0.32
