Infrared Spectrum: 2-(P-PHENYLPHENOXY) PYRAZINE
Formula: C16 H12 N2 O
CAS: 116659-50-8
State: SOLID (MINERAL OIL MULL)
Melting point: 119-120.5 C
Class: COBLENTZ
Instrument: Not specified, most likely a prism, grating, or hybrid spectrometer.
Sampling: TRANSMISSION
Resolution: 4
Origin: WYANDOTTE CHEMICALS CORP., WYANDOTTE, MICHIGAN, USA
MICROMETERS	TRANSMITTANCE
2.013	0.562
2.05289	0.569
2.09277	0.575
2.13266	0.595
2.17254	0.589
2.21243	0.58
2.25231	0.595
2.2922	0.603
2.33209	0.603
2.37197	0.599
2.41186	0.618
2.45174	0.63
2.49163	0.633
2.53151	0.645
2.5714	0.65
2.61129	0.657
2.65117	0.665
2.69106	0.667
2.73094	0.678
2.77083	0.678
2.81071	0.668
2.8506	0.673
2.89049	0.675
2.93037	0.685
2.97026	0.68
3.01014	0.685
3.05003	0.682
3.08991	0.68
3.1298	0.678
3.16969	0.67
3.20957	0.647
3.24946	0.552
3.28934	0.55
3.32923	0.299
3.36911	0.064
3.409	0.086
3.44889	0.186
3.48877	0.173
3.52866	0.647
3.56854	0.743
3.60843	0.765
3.64831	0.76
3.6882	0.765
3.72809	0.778
3.76797	0.792
3.80786	0.795
3.84774	0.8
3.88763	0.805
3.92751	0.805
3.9674	0.821
4.00729	0.83
4.04717	0.818
4.08706	0.818
4.12694	0.826
4.16683	0.83
4.20672	0.836
4.2466	0.823
4.28649	0.831
4.32637	0.853
4.36626	0.873
4.40614	0.865
4.44603	0.851
4.48592	0.873
4.5258	0.878
4.56569	0.876
4.60557	0.88
4.64546	0.888
4.68534	0.878
4.72523	0.89
4.76512	0.896
4.805	0.89
4.84489	0.893
4.88477	0.898
4.92466	0.906
4.96454	0.906
5.00443	0.901
5.04432	0.901
5.0842	0.905
5.12409	0.88
5.16397	0.888
5.20386	0.853
5.24374	0.875
5.28363	0.891
5.32352	0.891
5.3634	0.925
5.40329	0.923
5.44317	0.91
5.48306	0.913
5.52294	0.898
5.56283	0.921
5.60272	0.92
5.6426	0.886
5.68249	0.91
5.72237	0.928
5.76226	0.923
5.80214	0.925
5.84203	0.908
5.88192	0.881
5.9218	0.87
5.96169	0.891
6.00157	0.888
6.04146	0.9
6.08134	0.89
6.12123	0.88
6.16112	0.82
6.201	0.777
6.24089	0.592
6.28077	0.805
6.32066	0.893
6.36054	0.895
6.40043	0.813
6.44032	0.737
6.4802	0.332
6.52009	0.502
6.55997	0.434
6.59986	0.718
6.63974	0.574
6.67963	0.276
6.71952	0.45
6.7594	0.246
6.79929	0.347
6.83917	0.329
6.87906	0.535
6.91894	0.673
6.95883	0.75
6.99872	0.698
7.0386	0.382
7.07849	0.059
7.11837	0.217
7.15826	0.42
7.19814	0.452
7.23803	0.422
7.27792	0.612
7.3178	0.728
7.35769	0.688
7.39757	0.678
7.43746	0.75
7.47734	0.775
7.51723	0.798
7.55712	0.675
7.597	0.54
7.63689	0.522
7.67677	0.254
7.71666	0.119
7.75654	0.143
7.79643	0.103
7.83632	0.201
7.8762	0.356
7.91609	0.547
7.95597	0.66
7.99586	0.7
8.03574	0.717
8.07563	0.755
8.11552	0.78
8.1554	0.757
8.19529	0.53
8.23517	0.497
8.27506	0.638
8.31495	0.655
8.35483	0.567
8.39472	0.603
8.4346	0.316
8.47449	0.45
8.51437	0.534
8.55426	0.397
8.59415	0.307
8.63403	0.391
8.67392	0.587
8.7138	0.738
8.75369	0.8
8.79357	0.81
8.83346	0.808
8.87335	0.811
8.91323	0.811
8.95312	0.688
8.993	0.78
9.03289	0.876
9.07277	0.888
9.11266	0.883
9.15255	0.878
9.19243	0.85
9.23232	0.745
9.2722	0.798
9.31209	0.846
9.35197	0.816
9.39186	0.767
9.43175	0.8
9.47163	0.86
9.51152	0.881
9.5514	0.88
9.59129	0.863
9.63117	0.866
9.67106	0.888
9.71095	0.9
9.75083	0.9
9.79072	0.79
9.8306	0.798
9.87049	0.427
9.91037	0.322
9.95026	0.762
9.99015	0.816
10.03	0.84
10.0699	0.861
10.1098	0.883
10.1497	0.89
10.1896	0.89
10.2295	0.883
10.2693	0.883
10.3092	0.865
10.3491	0.871
10.389	0.885
10.4289	0.891
10.4688	0.888
10.5087	0.886
10.5485	0.871
10.5884	0.81
10.6283	0.89
10.6682	0.903
10.7081	0.9
10.748	0.9
10.7879	0.896
10.8277	0.873
10.8676	0.76
10.9075	0.718
10.9474	0.787
10.9873	0.88
11.0272	0.913
11.0671	0.921
11.1069	0.918
11.1468	0.903
11.1867	0.875
11.2266	0.778
11.2665	0.499
11.3064	0.302
11.3463	0.652
11.3861	0.792
11.426	0.835
11.4659	0.851
11.5058	0.853
11.5457	0.846
11.5856	0.835
11.6255	0.768
11.6653	0.627
11.7052	0.352
11.7451	0.191
11.785	0.206
11.8249	0.204
11.8648	0.242
11.9047	0.542
11.9445	0.708
11.9844	0.77
12.0243	0.7
12.0642	0.564
12.1041	0.765
12.144	0.84
12.1839	0.858
12.2237	0.87
12.2636	0.891
12.3035	0.895
12.3434	0.881
12.3833	0.861
12.4232	0.856
12.4631	0.89
12.5029	0.905
12.5428	0.906
12.5827	0.911
12.6226	0.918
12.6625	0.92
12.7024	0.92
12.7423	0.92
12.7821	0.915
12.822	0.903
12.8619	0.87
12.9018	0.783
12.9417	0.747
12.9816	0.592
13.0215	0.252
13.0613	0.151
13.1012	0.321
13.1411	0.643
13.181	0.762
13.2209	0.803
13.2608	0.813
13.3007	0.801
13.3405	0.788
13.3804	0.821
13.4203	0.85
13.4602	0.848
13.5001	0.848
13.54	0.826
13.5799	0.773
13.6197	0.63
13.6596	0.414
13.6995	0.379
13.7394	0.642
13.7793	0.768
13.8192	0.808
13.8591	0.82
13.8989	0.836
13.9388	0.855
13.9787	0.86
14.0186	0.818
14.0585	0.748
14.0984	0.76
14.1383	0.811
14.1781	0.825
14.218	0.808
14.2579	0.758
14.2978	0.678
14.3377	0.522
14.3776	0.361
14.4175	0.301
14.4573	0.4
14.4972	0.59
14.5371	0.728
14.577	0.8
14.6169	0.833
14.6568	0.855
14.6967	0.865
14.7365	0.876
14.7764	0.88
14.8163	0.875
14.8562	0.87
14.8961	0.868
14.936	0.865
14.9759	0.855
15.0157	0.823
15.0556	0.818
15.0955	0.85
15.1354	0.87
15.1753	0.875
15.2152	0.865
15.2551	0.853
15.2949	0.851
15.3348	0.848
15.3747	0.835
15.4146	0.828
15.4545	0.823
15.4944	0.811
15.5343	0.811
15.5741	0.806
15.614	0.798
15.6539	0.787
15.6938	0.78
15.7337	0.775
15.7736	0.753
15.8135	0.753
15.8533	0.745
15.8932	0.738
15.9331	0.725
15.973	0.712
