Infrared Spectrum: 2-(2,2-DIMETHYLPENTOXY)-3-METHYL-6-(n-PENTYL) PYRAZINE
Formula: C17 H30 N2 O
CAS: 116668-94-1
State: LIQUID
Class: COBLENTZ
Instrument: Not specified, most likely a prism, grating, or hybrid spectrometer.
Sampling: TRANSMISSION
Path length: 0.003 CM
Resolution: 4
Origin: WYANDOTTE CHEMICALS CORP., WYANDOTTE, MICHIGAN, USA
MICROMETERS	TRANSMITTANCE
2.02	0.988
2.06092	0.977
2.10184	0.977
2.14275	0.964
2.18367	0.897
2.22459	0.876
2.26551	0.909
2.30642	0.917
2.34734	0.938
2.38826	0.941
2.42918	0.943
2.4701	0.952
2.51101	0.95
2.55193	0.974
2.59285	0.964
2.63377	0.989
2.67468	0.982
2.7156	0.982
2.75652	0.969
2.79744	0.962
2.83836	0.945
2.87927	0.935
2.92019	0.926
2.96111	0.921
3.00203	0.933
3.04294	0.924
3.08386	0.919
3.12478	0.888
3.1657	0.892
3.20662	0.887
3.24753	0.781
3.28845	0.625
3.32937	0.258
3.37029	0.034
3.4112	0.051
3.45212	0.058
3.49304	0.08
3.53396	0.461
3.57488	0.723
3.61579	0.822
3.65671	0.798
3.69763	0.854
3.73855	0.87
3.77946	0.882
3.82038	0.905
3.8613	0.928
3.90222	0.914
3.94314	0.919
3.98405	0.941
4.02497	0.948
4.06589	0.94
4.10681	0.936
4.14772	0.935
4.18864	0.936
4.22956	0.943
4.27048	0.931
4.3114	0.919
4.35231	0.931
4.39323	0.964
4.43415	0.974
4.47507	0.982
4.51598	0.984
4.5569	0.989
4.59782	0.988
4.63874	0.989
4.67966	0.977
4.72057	0.986
4.76149	0.982
4.80241	0.994
4.84333	0.984
4.88424	0.979
4.92516	0.981
4.96608	0.984
5.007	0.986
5.04792	0.986
5.08883	0.979
5.12975	0.989
5.17067	0.991
5.21159	0.993
5.2525	0.991
5.29342	0.998
5.33434	0.996
5.37526	1.001
5.41618	1.003
5.45709	1.005
5.49801	1.006
5.53893	1.003
5.57985	0.996
5.62076	0.989
5.66168	0.976
5.7026	0.958
5.74352	0.936
5.78444	0.948
5.82535	0.947
5.86627	0.938
5.90719	0.933
5.94811	0.919
5.98902	0.895
6.02994	0.87
6.07086	0.861
6.11178	0.861
6.1527	0.851
6.19361	0.849
6.23453	0.793
6.27545	0.451
6.31637	0.519
6.35728	0.668
6.3982	0.485
6.43912	0.162
6.48004	0.218
6.52096	0.452
6.56187	0.605
6.60279	0.67
6.64371	0.644
6.68463	0.589
6.72554	0.345
6.76646	0.172
6.80738	0.051
6.8483	0.068
6.88922	0.056
6.93013	0.051
6.97105	0.082
7.01197	0.14
7.05289	0.088
7.0938	0.046
7.13472	0.066
7.17564	0.152
7.21656	0.046
7.25747	0.054
7.29839	0.148
7.33931	0.123
7.38023	0.064
7.42115	0.047
7.46206	0.058
7.50298	0.133
7.5439	0.222
7.58482	0.123
7.62573	0.135
7.66665	0.164
7.70757	0.165
7.74849	0.273
7.78941	0.331
7.83032	0.352
7.87124	0.389
7.91216	0.48
7.95308	0.572
7.99399	0.644
8.03491	0.688
8.07583	0.654
8.11675	0.635
8.15767	0.656
8.19858	0.627
8.2395	0.6
8.28042	0.567
8.32134	0.367
8.36225	0.288
8.40317	0.297
8.44409	0.177
8.48501	0.058
8.52593	0.049
8.56684	0.049
8.60776	0.061
8.64868	0.092
8.6896	0.131
8.73051	0.217
8.77143	0.41
8.81235	0.567
8.85327	0.634
8.89419	0.649
8.9351	0.658
8.97602	0.652
9.01694	0.606
9.05786	0.596
9.09877	0.553
9.13969	0.529
9.18061	0.509
9.22153	0.458
9.26245	0.478
9.30336	0.572
9.34428	0.605
9.3852	0.63
9.42612	0.663
9.46703	0.658
9.50795	0.651
9.54887	0.557
9.58979	0.365
9.63071	0.17
9.67162	0.066
9.71254	0.071
9.75346	0.129
9.79438	0.167
9.83529	0.165
9.87621	0.177
9.91713	0.205
9.95805	0.218
9.99897	0.29
10.0399	0.417
10.0808	0.48
10.1217	0.497
10.1626	0.482
10.2036	0.437
10.2445	0.381
10.2854	0.382
10.3263	0.429
10.3672	0.487
10.4081	0.55
10.4491	0.603
10.49	0.649
10.5309	0.67
10.5718	0.678
10.6127	0.637
10.6537	0.61
10.6946	0.606
10.7355	0.582
10.7764	0.557
10.8173	0.601
10.8582	0.6
10.8992	0.637
10.9401	0.699
10.981	0.747
11.0219	0.765
11.0628	0.782
11.1037	0.786
11.1447	0.777
11.1856	0.757
11.2265	0.748
11.2674	0.726
11.3083	0.647
11.3493	0.548
11.3902	0.459
11.4311	0.415
11.472	0.476
11.5129	0.634
11.5538	0.743
11.5948	0.779
11.6357	0.798
11.6766	0.83
11.7175	0.849
11.7584	0.854
11.7993	0.849
11.8403	0.849
11.8812	0.839
11.9221	0.849
11.963	0.864
12.0039	0.868
12.0449	0.882
12.0858	0.882
12.1267	0.88
12.1676	0.871
12.2085	0.851
12.2494	0.839
12.2904	0.832
12.3313	0.832
12.3722	0.837
12.4131	0.839
12.454	0.839
12.4949	0.839
12.5359	0.832
12.5768	0.822
12.6177	0.806
12.6586	0.798
12.6995	0.8
12.7405	0.794
12.7814	0.781
12.8223	0.776
12.8632	0.767
12.9041	0.757
12.945	0.738
12.986	0.714
13.0269	0.675
13.0678	0.664
13.1087	0.658
13.1496	0.644
13.1906	0.639
13.2315	0.641
13.2724	0.651
13.3133	0.661
13.3542	0.663
13.3951	0.652
13.4361	0.622
13.477	0.593
13.5179	0.548
13.5588	0.524
13.5997	0.535
13.6406	0.558
13.6816	0.576
13.7225	0.572
13.7634	0.567
13.8043	0.564
13.8452	0.576
13.8862	0.591
13.9271	0.613
13.968	0.639
14.0089	0.664
14.0498	0.685
14.0907	0.704
14.1317	0.721
14.1726	0.736
14.2135	0.735
14.2544	0.745
14.2953	0.745
14.3362	0.747
14.3772	0.747
14.4181	0.747
14.459	0.736
14.4999	0.735
14.5408	0.731
14.5818	0.729
14.6227	0.709
14.6636	0.705
14.7045	0.704
14.7454	0.7
14.7863	0.697
14.8273	0.68
14.8682	0.673
14.9091	0.67
14.95	0.656
14.9909	0.654
15.0319	0.637
15.0728	0.577
15.1137	0.533
15.1546	0.55
15.1955	0.572
15.2364	0.591
15.2774	0.6
15.3183	0.598
15.3592	0.589
15.4001	0.586
15.441	0.572
15.4819	0.569
15.5229	0.567
15.5638	0.555
15.6047	0.55
15.6456	0.535
15.6865	0.519
15.7275	0.507
15.7684	0.499
15.8093	0.487
15.8502	0.466
15.8911	0.458
15.932	0.442
15.973	0.435
