Infrared Spectrum: 2-PHENOXY-3-(P-PHENYLBENZYL) PYRAZINE
Formula: C23 H18 N2 O
CAS: 116668-92-9
State: LIQUID
Boiling point: 216-219 C AT 0.04 mmHg
Class: COBLENTZ
Instrument: Not specified, most likely a prism, grating, or hybrid spectrometer.
Sampling: TRANSMISSION
Path length: CAPILLARY
Resolution: 4
Origin: WYANDOTTE CHEMICALS CORP., WYANDOTTE, MICHIGAN, USA
MICROMETERS	TRANSMITTANCE
2.027	0.968
2.06681	0.956
2.10662	0.963
2.14643	0.968
2.18623	0.966
2.22604	0.958
2.26585	0.96
2.30566	0.953
2.34547	0.945
2.38528	0.92
2.42508	0.936
2.46489	0.948
2.5047	0.95
2.54451	0.97
2.58432	0.958
2.62413	0.963
2.66394	0.958
2.70374	0.95
2.74355	0.956
2.78336	0.96
2.82317	0.943
2.86298	0.928
2.90279	0.918
2.94259	0.91
2.9824	0.906
3.02221	0.901
3.06202	0.9
3.10183	0.901
3.14164	0.891
3.18145	0.885
3.22125	0.755
3.26106	0.536
3.30087	0.77
3.34068	0.84
3.38049	0.83
3.4203	0.838
3.4601	0.881
3.49991	0.893
3.53972	0.908
3.57953	0.92
3.61934	0.916
3.65915	0.908
3.69896	0.918
3.73876	0.925
3.77857	0.923
3.81838	0.921
3.85819	0.925
3.898	0.928
3.93781	0.921
3.97761	0.923
4.01742	0.918
4.05723	0.913
4.09704	0.913
4.13685	0.91
4.17666	0.915
4.21647	0.906
4.25627	0.911
4.29608	0.94
4.33589	0.953
4.3757	0.943
4.41551	0.928
4.45532	0.928
4.49512	0.93
4.53493	0.93
4.57474	0.931
4.61455	0.931
4.65436	0.928
4.69417	0.93
4.73398	0.928
4.77378	0.93
4.81359	0.928
4.8534	0.928
4.89321	0.926
4.93302	0.918
4.97283	0.916
5.01263	0.916
5.05244	0.903
5.09225	0.9
5.13206	0.881
5.17187	0.863
5.21168	0.88
5.25149	0.883
5.29129	0.88
5.3311	0.876
5.37091	0.885
5.41072	0.895
5.45053	0.906
5.49034	0.898
5.53014	0.871
5.56995	0.865
5.60976	0.871
5.64957	0.89
5.68938	0.883
5.72919	0.88
5.769	0.868
5.8088	0.873
5.84861	0.861
5.88842	0.848
5.92823	0.85
5.96804	0.833
6.00785	0.816
6.04765	0.806
6.08746	0.801
6.12727	0.761
6.16708	0.59
6.20689	0.37
6.2467	0.48
6.28651	0.556
6.32631	0.671
6.36612	0.71
6.40593	0.66
6.44574	0.54
6.48555	0.396
6.52536	0.605
6.56516	0.705
6.60497	0.635
6.64478	0.328
6.68459	0.165
6.7244	0.37
6.76421	0.563
6.80402	0.485
6.84382	0.375
6.88363	0.395
6.92344	0.523
6.96325	0.51
7.00306	0.46
7.04287	0.25
7.08267	0.065
7.12248	0.043
7.16229	0.14
7.2021	0.34
7.24191	0.31
7.28172	0.231
7.32153	0.325
7.36133	0.493
7.40114	0.606
7.44095	0.576
7.48076	0.508
7.52057	0.488
7.56038	0.461
7.60018	0.445
7.63999	0.448
7.6798	0.39
7.71961	0.298
7.75942	0.28
7.79923	0.28
7.83904	0.395
7.87884	0.475
7.91865	0.553
7.95846	0.526
7.99827	0.49
8.03808	0.568
8.07789	0.59
8.11769	0.543
8.1575	0.39
8.19731	0.166
8.23712	0.098
8.27693	0.148
8.31674	0.138
8.35655	0.141
8.39635	0.21
8.43616	0.33
8.47597	0.365
8.51578	0.215
8.55559	0.201
8.5954	0.305
8.6352	0.43
8.67501	0.62
8.71482	0.696
8.75463	0.746
8.79444	0.758
8.83425	0.726
8.87406	0.663
8.91386	0.621
8.95367	0.646
8.99348	0.748
9.03329	0.778
9.0731	0.771
9.11291	0.783
9.15271	0.798
9.19252	0.793
9.23233	0.713
9.27214	0.658
9.31195	0.683
9.35176	0.786
9.39157	0.831
9.43137	0.85
9.47118	0.828
9.51099	0.828
9.5508	0.84
9.59061	0.825
9.63042	0.816
9.67022	0.798
9.71003	0.69
9.74984	0.626
9.78965	0.738
9.82946	0.765
9.86927	0.668
9.90908	0.665
9.94888	0.76
9.98869	0.795
10.0285	0.8
10.0683	0.801
10.1081	0.771
10.1479	0.75
10.1877	0.778
10.2275	0.805
10.2674	0.82
10.3072	0.823
10.347	0.828
10.3868	0.838
10.4266	0.841
10.4664	0.843
10.5062	0.836
10.546	0.831
10.5858	0.841
10.6256	0.838
10.6654	0.811
10.7052	0.801
10.7451	0.801
10.7849	0.776
10.8247	0.74
10.8645	0.711
10.9043	0.701
10.9441	0.681
10.9839	0.683
11.0237	0.688
11.0635	0.69
11.1033	0.685
11.1431	0.698
11.1829	0.726
11.2228	0.748
11.2626	0.766
11.3024	0.79
11.3422	0.801
11.382	0.806
11.4218	0.798
11.4616	0.79
11.5014	0.778
11.5412	0.758
11.581	0.746
11.6208	0.726
11.6606	0.713
11.7005	0.681
11.7403	0.638
11.7801	0.598
11.8199	0.581
11.8597	0.598
11.8995	0.62
11.9393	0.621
11.9791	0.613
12.0189	0.646
12.0587	0.673
12.0985	0.688
12.1383	0.681
12.1782	0.676
12.218	0.65
12.2578	0.631
12.2976	0.635
12.3374	0.648
12.3772	0.658
12.417	0.656
12.4568	0.656
12.4966	0.676
12.5364	0.695
12.5762	0.7
12.6161	0.708
12.6559	0.7
12.6957	0.66
12.7355	0.633
12.7753	0.643
12.8151	0.671
12.8549	0.685
12.8947	0.675
12.9345	0.623
12.9743	0.538
13.0141	0.476
13.0539	0.383
13.0938	0.306
13.1336	0.256
13.1734	0.22
13.2132	0.216
13.253	0.278
13.2928	0.37
13.3326	0.441
13.3724	0.448
13.4122	0.383
13.452	0.328
13.4918	0.296
13.5316	0.271
13.5715	0.316
13.6113	0.423
13.6511	0.538
13.6909	0.595
13.7307	0.633
13.7705	0.68
13.8103	0.7
13.8501	0.681
13.8899	0.666
13.9297	0.688
13.9695	0.733
14.0093	0.751
14.0492	0.748
14.089	0.72
14.1288	0.661
14.1686	0.581
14.2084	0.496
14.2482	0.395
14.288	0.335
14.3278	0.306
14.3676	0.316
14.4074	0.331
14.4472	0.34
14.487	0.338
14.5269	0.333
14.5667	0.378
14.6065	0.47
14.6463	0.603
14.6861	0.686
14.7259	0.746
14.7657	0.781
14.8055	0.795
14.8453	0.801
14.8851	0.808
14.9249	0.808
14.9647	0.798
15.0046	0.786
15.0444	0.788
15.0842	0.81
15.124	0.823
15.1638	0.825
15.2036	0.821
15.2434	0.816
15.2832	0.803
15.323	0.801
15.3628	0.801
15.4026	0.798
15.4425	0.8
15.4823	0.798
15.5221	0.801
15.5619	0.81
15.6017	0.8
15.6415	0.798
15.6813	0.796
15.7211	0.786
15.7609	0.783
15.8007	0.775
15.8405	0.775
15.8803	0.773
15.9202	0.765
15.96	0.761
