Infrared Spectrum: 2-(m-METHOXY PHENOXY) PYRAZINE
Formula: C11 H10 N2 O2
CAS: 116660-42-5
State: LIQUID
Class: COBLENTZ
Instrument: Not specified, most likely a prism, grating, or hybrid spectrometer.
Sampling: TRANSMISSION
Path length: 0.0015 CM
Resolution: 4
Origin: WYANDOTTE CHEMICALS CORP., WYANDOTTE, MICHIGAN, USA
MICROMETERS	TRANSMITTANCE
2.041	0.967
2.082	0.96
2.12299	0.96
2.16399	0.94
2.20499	0.929
2.24599	0.941
2.28698	0.943
2.32798	0.948
2.36898	0.922
2.40997	0.931
2.45097	0.934
2.49197	0.936
2.53297	0.95
2.57396	0.965
2.61496	0.957
2.65596	0.967
2.69695	0.941
2.73795	0.929
2.77895	0.922
2.81995	0.9
2.86094	0.883
2.90194	0.878
2.94294	0.875
2.98393	0.878
3.02493	0.885
3.06593	0.878
3.10693	0.857
3.14792	0.839
3.18892	0.809
3.22992	0.645
3.27091	0.518
3.31191	0.47
3.35291	0.356
3.39391	0.419
3.4349	0.565
3.4759	0.691
3.5169	0.559
3.55789	0.854
3.59889	0.866
3.63989	0.849
3.68089	0.861
3.72188	0.897
3.76288	0.902
3.80388	0.89
3.84488	0.876
3.88587	0.863
3.92687	0.859
3.96787	0.851
4.00886	0.88
4.04986	0.88
4.09086	0.868
4.13186	0.861
4.17285	0.856
4.21385	0.847
4.25485	0.847
4.29584	0.866
4.33684	0.886
4.37784	0.897
4.41884	0.9
4.45983	0.897
4.50083	0.9
4.54183	0.892
4.58282	0.881
4.62382	0.88
4.66482	0.875
4.70582	0.876
4.74681	0.878
4.78781	0.881
4.82881	0.876
4.8698	0.864
4.9108	0.876
4.9518	0.868
4.9928	0.852
5.03379	0.863
5.07479	0.871
5.11579	0.868
5.15678	0.869
5.19778	0.852
5.23878	0.823
5.27978	0.828
5.32077	0.84
5.36177	0.835
5.40277	0.847
5.44376	0.835
5.48476	0.827
5.52576	0.828
5.56676	0.839
5.60775	0.839
5.64875	0.827
5.68975	0.799
5.73074	0.782
5.77174	0.734
5.81274	0.671
5.85374	0.722
5.89473	0.741
5.93573	0.736
5.97673	0.726
6.01772	0.695
6.05872	0.631
6.09972	0.421
6.14072	0.03
6.18171	0.027
6.22271	0.025
6.26371	0.032
6.3047	0.15
6.3457	0.347
6.3867	0.388
6.4277	0.294
6.46869	0.03
6.50969	0.051
6.55069	0.2
6.59168	0.25
6.63268	0.133
6.67368	0.029
6.71468	0.037
6.75567	0.029
6.79667	0.035
6.83767	0.039
6.87866	0.053
6.91966	0.041
6.96066	0.047
7.00166	0.073
7.04265	0.029
7.08365	0.025
7.12465	0.027
7.16564	0.037
7.20664	0.099
7.24764	0.102
7.28864	0.291
7.32963	0.457
7.37063	0.462
7.41163	0.375
7.45263	0.297
7.49362	0.184
7.53462	0.099
7.57562	0.049
7.61661	0.03
7.65761	0.023
7.69861	0.025
7.73961	0.025
7.7806	0.023
7.8216	0.027
7.8626	0.025
7.90359	0.025
7.94459	0.023
7.98559	0.029
8.02659	0.092
8.06758	0.195
8.10858	0.277
8.14958	0.422
8.19057	0.446
8.23157	0.441
8.27257	0.38
8.31357	0.263
8.35456	0.061
8.39556	0.032
8.43656	0.039
8.47755	0.051
8.51855	0.068
8.55955	0.034
8.60055	0.03
8.64154	0.03
8.68254	0.027
8.72354	0.025
8.76453	0.027
8.80553	0.03
8.84653	0.075
8.88753	0.234
8.92852	0.28
8.96952	0.184
9.01052	0.061
9.05151	0.037
9.09251	0.101
9.13351	0.275
9.17451	0.337
9.2155	0.282
9.2565	0.222
9.2975	0.325
9.33849	0.469
9.37949	0.41
9.42049	0.323
9.46149	0.282
9.50248	0.13
9.54348	0.044
9.58448	0.042
9.62547	0.042
9.66647	0.082
9.70747	0.203
9.74847	0.361
9.78946	0.428
9.83046	0.342
9.87146	0.148
9.91245	0.099
9.95345	0.421
9.99445	0.416
10.0354	0.465
10.0764	0.65
10.1174	0.671
10.1584	0.657
10.1994	0.621
10.2404	0.568
10.2814	0.517
10.3224	0.47
10.3634	0.443
10.4044	0.44
10.4454	0.398
10.4864	0.333
10.5274	0.267
10.5684	0.243
10.6094	0.366
10.6504	0.426
10.6914	0.398
10.7324	0.363
10.7734	0.381
10.8144	0.44
10.8554	0.474
10.8964	0.51
10.9374	0.529
10.9784	0.575
11.0194	0.625
11.0604	0.678
11.1014	0.698
11.1424	0.686
11.1834	0.65
11.2244	0.599
11.2654	0.549
11.3064	0.503
11.3474	0.474
11.3884	0.438
11.4293	0.4
11.4703	0.342
11.5113	0.289
11.5523	0.224
11.5933	0.179
11.6343	0.159
11.6753	0.16
11.7163	0.178
11.7573	0.181
11.7983	0.171
11.8393	0.15
11.8803	0.14
11.9213	0.14
11.9623	0.195
12.0033	0.282
12.0443	0.446
12.0853	0.577
12.1263	0.659
12.1673	0.712
12.2083	0.736
12.2493	0.734
12.2903	0.729
12.3313	0.71
12.3723	0.69
12.4133	0.672
12.4543	0.659
12.4953	0.647
12.5363	0.616
12.5773	0.549
12.6183	0.45
12.6593	0.361
12.7003	0.287
12.7413	0.227
12.7823	0.203
12.8233	0.186
12.8643	0.183
12.9052	0.196
12.9462	0.212
12.9872	0.261
13.0282	0.304
13.0692	0.352
13.1102	0.388
13.1512	0.404
13.1922	0.421
13.2332	0.452
13.2742	0.5
13.3152	0.522
13.3562	0.532
13.3972	0.542
13.4382	0.547
13.4792	0.541
13.5202	0.546
13.5612	0.583
13.6022	0.614
13.6432	0.647
13.6842	0.666
13.7252	0.662
13.7662	0.638
13.8072	0.602
13.8482	0.568
13.8892	0.559
13.9302	0.578
13.9712	0.616
14.0122	0.664
14.0532	0.708
14.0942	0.726
14.1352	0.726
14.1762	0.708
14.2172	0.686
14.2582	0.66
14.2992	0.625
14.3401	0.582
14.3811	0.535
14.4221	0.486
14.4631	0.452
14.5041	0.422
14.5451	0.392
14.5861	0.354
14.6271	0.339
14.6681	0.359
14.7091	0.421
14.7501	0.498
14.7911	0.559
14.8321	0.597
14.8731	0.616
14.9141	0.636
14.9551	0.65
14.9961	0.662
15.0371	0.667
15.0781	0.696
15.1191	0.717
15.1601	0.736
15.2011	0.743
15.2421	0.746
15.2831	0.748
15.3241	0.751
15.3651	0.744
15.4061	0.741
15.4471	0.741
15.4881	0.738
15.5291	0.738
15.5701	0.741
15.6111	0.739
15.6521	0.738
15.6931	0.732
15.7341	0.726
15.775	0.722
15.816	0.715
15.857	0.708
15.898	0.702
15.939	0.696
15.98	0.698
