Infrared Spectrum: 2-ANILINO-3-(n-PENTYL) PYRAZINE
Formula: C15 H19 N3
CAS: 116659-97-3
State: LIQUID
Class: COBLENTZ
Instrument: Not specified, most likely a prism, grating, or hybrid spectrometer.
Sampling: TRANSMISSION
Path length: 0.0015 CM
Resolution: 4
Origin: WYANDOTTE CHEMICALS CORP., WYANDOTTE, MICHIGAN, USA
MICROMETERS	TRANSMITTANCE
2.02	0.976
2.05983	0.975
2.09966	0.958
2.13949	0.966
2.17931	0.96
2.21914	0.933
2.25897	0.926
2.2988	0.926
2.33863	0.93
2.37846	0.926
2.41828	0.921
2.45811	0.923
2.49794	0.931
2.53777	0.931
2.5776	0.95
2.61743	0.956
2.65726	0.963
2.69708	0.945
2.73691	0.933
2.77674	0.928
2.81657	0.908
2.8564	0.876
2.89623	0.701
2.93606	0.448
2.97588	0.473
3.01571	0.391
3.05554	0.376
3.09537	0.51
3.1352	0.6
3.17503	0.653
3.21485	0.59
3.25468	0.485
3.29451	0.291
3.33434	0.5
3.37417	0.136
3.414	0.083
3.45383	0.2
3.49365	0.203
3.53348	0.37
3.57331	0.681
3.61314	0.753
3.65297	0.761
3.6928	0.78
3.73263	0.793
3.77245	0.788
3.81228	0.796
3.85211	0.8
3.89194	0.798
3.93177	0.793
3.9716	0.783
4.01142	0.753
4.05125	0.763
4.09108	0.76
4.13091	0.746
4.17074	0.745
4.21057	0.753
4.2504	0.76
4.29022	0.77
4.33005	0.773
4.36988	0.79
4.40971	0.8
4.44954	0.826
4.48937	0.831
4.52919	0.851
4.56902	0.865
4.60885	0.878
4.64868	0.871
4.68851	0.875
4.72834	0.881
4.76817	0.89
4.80799	0.895
4.84782	0.896
4.88765	0.888
4.92748	0.873
4.96731	0.851
5.00714	0.855
5.04697	0.863
5.08679	0.871
5.12662	0.881
5.16645	0.871
5.20628	0.836
5.24611	0.813
5.28594	0.853
5.32576	0.831
5.36559	0.815
5.40542	0.831
5.44525	0.828
5.48508	0.848
5.52491	0.863
5.56474	0.853
5.60456	0.81
5.64439	0.783
5.68422	0.801
5.72405	0.823
5.76388	0.811
5.80371	0.778
5.84354	0.77
5.88336	0.765
5.92319	0.751
5.96302	0.73
6.00285	0.696
6.04268	0.663
6.08251	0.616
6.12233	0.54
6.16216	0.35
6.20199	0.093
6.24182	0.086
6.28165	0.16
6.32148	0.133
6.36131	0.336
6.40113	0.36
6.44096	0.181
6.48079	0.14
6.52062	0.086
6.56045	0.075
6.60028	0.066
6.6401	0.07
6.67993	0.076
6.71976	0.113
6.75959	0.165
6.79942	0.138
6.83925	0.131
6.87908	0.116
6.9189	0.068
6.95873	0.075
6.99856	0.158
7.03839	0.258
7.07822	0.308
7.11805	0.295
7.15788	0.23
7.1977	0.115
7.23753	0.076
7.27736	0.073
7.31719	0.103
7.35702	0.191
7.39685	0.263
7.43667	0.301
7.4765	0.305
7.51633	0.288
7.55616	0.266
7.59599	0.293
7.63582	0.33
7.67565	0.283
7.71547	0.303
7.7553	0.323
7.79513	0.4
7.83496	0.513
7.87479	0.531
7.91462	0.471
7.95445	0.455
7.99427	0.443
8.0341	0.426
8.07393	0.315
8.11376	0.246
8.15359	0.226
8.19342	0.336
8.23324	0.458
8.27307	0.37
8.3129	0.311
8.35273	0.373
8.39256	0.39
8.43239	0.373
8.47222	0.226
8.51204	0.136
8.55187	0.126
8.5917	0.183
8.63153	0.305
8.67136	0.375
8.71119	0.466
8.75101	0.375
8.79084	0.263
8.83067	0.248
8.8705	0.326
8.91033	0.516
8.95016	0.601
8.98999	0.59
9.02981	0.55
9.06964	0.561
9.10947	0.52
9.1493	0.43
9.18913	0.456
9.22896	0.516
9.26879	0.478
9.30861	0.396
9.34844	0.47
9.38827	0.513
9.4281	0.496
9.46793	0.525
9.50776	0.616
9.54758	0.673
9.58741	0.69
9.62724	0.688
9.66707	0.638
9.7069	0.506
9.74673	0.563
9.78656	0.66
9.82638	0.708
9.86621	0.721
9.90604	0.723
9.94587	0.711
9.9857	0.675
10.0255	0.65
10.0654	0.666
10.1052	0.7
10.145	0.698
10.1848	0.673
10.2247	0.645
10.2645	0.623
10.3043	0.625
10.3442	0.646
10.384	0.658
10.4238	0.655
10.4636	0.656
10.5035	0.668
10.5433	0.7
10.5831	0.703
10.623	0.706
10.6628	0.708
10.7026	0.701
10.7424	0.711
10.7823	0.735
10.8221	0.745
10.8619	0.74
10.9018	0.695
10.9416	0.653
10.9814	0.63
11.0212	0.645
11.0611	0.656
11.1009	0.643
11.1407	0.6
11.1806	0.548
11.2204	0.525
11.2602	0.558
11.3	0.64
11.3399	0.695
11.3797	0.723
11.4195	0.75
11.4594	0.758
11.4992	0.768
11.539	0.761
11.5788	0.75
11.6187	0.736
11.6585	0.715
11.6983	0.67
11.7382	0.618
11.778	0.571
11.8178	0.52
11.8576	0.486
11.8975	0.435
11.9373	0.373
11.9771	0.33
12.017	0.295
12.0568	0.283
12.0966	0.281
12.1364	0.326
12.1763	0.398
12.2161	0.493
12.2559	0.566
12.2958	0.615
12.3356	0.635
12.3754	0.651
12.4152	0.67
12.4551	0.693
12.4949	0.706
12.5347	0.713
12.5745	0.726
12.6144	0.723
12.6542	0.718
12.694	0.716
12.7339	0.715
12.7737	0.705
12.8135	0.696
12.8533	0.678
12.8932	0.678
12.933	0.666
12.9728	0.648
13.0127	0.623
13.0525	0.585
13.0923	0.526
13.1321	0.466
13.172	0.373
13.2118	0.293
13.2516	0.208
13.2915	0.166
13.3313	0.145
13.3711	0.138
13.4109	0.141
13.4508	0.14
13.4906	0.155
13.5304	0.188
13.5703	0.246
13.6101	0.316
13.6499	0.385
13.6897	0.431
13.7296	0.46
13.7694	0.473
13.8092	0.488
13.8491	0.505
13.8889	0.546
13.9287	0.588
13.9685	0.623
14.0084	0.651
14.0482	0.671
14.088	0.678
14.1279	0.675
14.1677	0.666
14.2075	0.661
14.2473	0.64
14.2872	0.603
14.327	0.55
14.3668	0.485
14.4067	0.396
14.4465	0.315
14.4863	0.255
14.5261	0.225
14.566	0.211
14.6058	0.223
14.6456	0.273
14.6855	0.353
14.7253	0.445
14.7651	0.535
14.8049	0.596
14.8448	0.618
14.8846	0.631
14.9244	0.64
14.9643	0.643
15.0041	0.643
15.0439	0.623
15.0837	0.601
15.1236	0.586
15.1634	0.596
15.2032	0.62
15.2431	0.633
15.2829	0.638
15.3227	0.636
15.3625	0.633
15.4024	0.63
15.4422	0.621
15.482	0.623
15.5219	0.62
15.5617	0.613
15.6015	0.603
15.6413	0.608
15.6812	0.605
15.721	0.601
15.7608	0.595
15.8007	0.59
15.8405	0.596
15.8803	0.595
15.9201	0.588
15.96	0.588
15.9998	0.58
