Infrared Spectrum: 3-(P-t-BUTYLPHENOXY)-2,5-DIMETHYL PYRAZINE
Formula: C16 H20 N2 O
CAS: 116660-13-0
State: LIQUID
Boiling point: 159-160 C AT 6 mmHg
Class: COBLENTZ
Instrument: Not specified, most likely a prism, grating, or hybrid spectrometer.
Sampling: TRANSMISSION
Path length: 0.0015 CM
Resolution: 4
Origin: WYANDOTTE CHEMICALS CORP., WYANDOTTE, MICHIGAN, USA
MICROMETERS	TRANSMITTANCE
2.04	0.991
2.07975	0.991
2.11951	0.99
2.15926	0.985
2.19902	0.965
2.23877	0.956
2.27853	0.96
2.31828	0.97
2.35803	0.96
2.39779	0.963
2.43754	0.973
2.4773	0.97
2.51705	0.968
2.55681	0.975
2.59656	0.98
2.63631	0.985
2.67607	0.985
2.71582	0.985
2.75558	0.983
2.79533	0.973
2.83509	0.958
2.87484	0.946
2.91459	0.94
2.95435	0.928
2.9941	0.923
3.03386	0.905
3.07361	0.882
3.11337	0.872
3.15312	0.862
3.19287	0.852
3.23263	0.789
3.27238	0.599
3.31214	0.631
3.35189	0.141
3.39165	0.172
3.4314	0.323
3.47115	0.393
3.51091	0.641
3.55066	0.823
3.59042	0.87
3.63017	0.883
3.66993	0.87
3.70968	0.898
3.74943	0.921
3.78919	0.916
3.82894	0.93
3.8687	0.926
3.90845	0.921
3.9482	0.925
3.98796	0.915
4.02771	0.925
4.06747	0.93
4.10722	0.915
4.14698	0.91
4.18673	0.903
4.22648	0.89
4.26624	0.878
4.30599	0.885
4.34575	0.901
4.3855	0.915
4.42526	0.92
4.46501	0.94
4.50476	0.945
4.54452	0.95
4.58427	0.95
4.62403	0.946
4.66378	0.943
4.70354	0.941
4.74329	0.936
4.78304	0.943
4.8228	0.938
4.86255	0.92
4.90231	0.908
4.94206	0.911
4.98182	0.908
5.02157	0.918
5.06132	0.926
5.10108	0.935
5.14083	0.931
5.18059	0.931
5.22034	0.931
5.2601	0.923
5.29985	0.89
5.3396	0.85
5.37936	0.89
5.41911	0.92
5.45887	0.931
5.49862	0.933
5.53838	0.931
5.57813	0.923
5.61788	0.906
5.65764	0.892
5.69739	0.87
5.73715	0.882
5.7769	0.897
5.81666	0.898
5.85641	0.9
5.89616	0.895
5.93592	0.878
5.97567	0.828
6.01543	0.808
6.05518	0.812
6.09494	0.803
6.13469	0.777
6.17444	0.652
6.2142	0.631
6.25395	0.568
6.29371	0.546
6.33346	0.657
6.37322	0.669
6.41297	0.551
6.45272	0.36
6.49248	0.435
6.53223	0.526
6.57199	0.28
6.61174	0.078
6.6515	0.162
6.69125	0.31
6.731	0.295
6.77076	0.252
6.81051	0.068
6.85027	0.063
6.89002	0.058
6.92978	0.074
6.96953	0.144
7.00928	0.247
7.04904	0.295
7.08879	0.252
7.12855	0.27
7.1683	0.212
7.20806	0.112
7.24781	0.046
7.28756	0.046
7.32732	0.043
7.36707	0.049
7.40683	0.126
7.44658	0.29
7.48633	0.491
7.52609	0.578
7.56584	0.634
7.6056	0.659
7.64535	0.599
7.68511	0.498
7.72486	0.2
7.76461	0.049
7.80437	0.104
7.84412	0.313
7.88388	0.209
7.92363	0.294
7.96339	0.544
8.00314	0.574
8.04289	0.524
8.08265	0.357
8.1224	0.167
8.16216	0.056
8.20191	0.048
8.24167	0.046
8.28142	0.069
8.32117	0.197
8.36093	0.37
8.40068	0.392
8.44044	0.177
8.48019	0.051
8.51995	0.046
8.5597	0.081
8.59945	0.2
8.63921	0.166
8.67896	0.081
8.71872	0.267
8.75847	0.514
8.79823	0.634
8.83798	0.704
8.87773	0.724
8.91749	0.689
8.95724	0.495
8.997	0.254
9.03675	0.425
9.07651	0.7
9.11626	0.762
9.15601	0.779
9.19577	0.784
9.23552	0.794
9.27528	0.79
9.31503	0.797
9.35479	0.797
9.39454	0.797
9.43429	0.799
9.47405	0.799
9.5138	0.785
9.55356	0.767
9.59331	0.717
9.63307	0.639
9.67282	0.539
9.71257	0.436
9.75233	0.33
9.79208	0.3
9.83184	0.274
9.87159	0.181
9.91135	0.303
9.9511	0.332
9.99085	0.451
10.0306	0.666
10.0704	0.767
10.1101	0.807
10.1499	0.83
10.1896	0.838
10.2294	0.845
10.2691	0.848
10.3089	0.847
10.3486	0.835
10.3884	0.823
10.4282	0.784
10.4679	0.735
10.5077	0.676
10.5474	0.656
10.5872	0.709
10.6269	0.75
10.6667	0.774
10.7064	0.785
10.7462	0.789
10.7859	0.799
10.8257	0.818
10.8654	0.808
10.9052	0.808
10.945	0.828
10.9847	0.847
11.0245	0.848
11.0642	0.848
11.104	0.84
11.1437	0.828
11.1835	0.812
11.2232	0.78
11.263	0.747
11.3027	0.705
11.3425	0.669
11.3823	0.632
11.422	0.621
11.4618	0.661
11.5015	0.744
11.5413	0.782
11.581	0.782
11.6208	0.735
11.6605	0.651
11.7003	0.509
11.74	0.463
11.7798	0.461
11.8196	0.35
11.8593	0.22
11.8991	0.159
11.9388	0.181
11.9786	0.244
12.0183	0.35
12.0581	0.41
12.0978	0.421
12.1376	0.353
12.1773	0.36
12.2171	0.445
12.2568	0.564
12.2966	0.637
12.3364	0.696
12.3761	0.742
12.4159	0.774
12.4556	0.794
12.4954	0.803
12.5351	0.805
12.5749	0.797
12.6146	0.767
12.6544	0.714
12.6941	0.641
12.7339	0.549
12.7737	0.568
12.8134	0.7
12.8532	0.782
12.8929	0.828
12.9327	0.855
12.9724	0.865
13.0122	0.873
13.0519	0.872
13.0917	0.865
13.1314	0.848
13.1712	0.805
13.2109	0.792
13.2507	0.827
13.2905	0.853
13.3302	0.872
13.37	0.882
13.4097	0.887
13.4495	0.888
13.4892	0.888
13.529	0.882
13.5687	0.855
13.6085	0.785
13.6482	0.712
13.688	0.725
13.7278	0.775
13.7675	0.817
13.8073	0.848
13.847	0.863
13.8868	0.87
13.9265	0.87
13.9663	0.865
14.006	0.85
14.0458	0.842
14.0855	0.865
14.1253	0.885
14.1651	0.892
14.2048	0.895
14.2446	0.897
14.2843	0.898
14.3241	0.897
14.3638	0.893
14.4036	0.883
14.4433	0.887
14.4831	0.88
14.5228	0.88
14.5626	0.878
14.6023	0.875
14.6421	0.868
14.6819	0.865
14.7216	0.852
14.7614	0.832
14.8011	0.807
14.8409	0.79
14.8806	0.787
14.9204	0.787
14.9601	0.802
14.9999	0.813
15.0396	0.803
15.0794	0.802
15.1192	0.825
15.1589	0.848
15.1987	0.852
15.2384	0.843
15.2782	0.835
15.3179	0.83
15.3577	0.83
15.3974	0.822
15.4372	0.818
15.4769	0.812
15.5167	0.807
15.5565	0.797
15.5962	0.795
15.636	0.789
15.6757	0.787
15.7155	0.785
15.7552	0.784
15.795	0.782
15.8347	0.774
15.8745	0.77
15.9142	0.764
15.954	0.759
15.9937	0.752
