Infrared Spectrum: Triazole-4-carboxylic acid, 3H-1,2,3-, 5-amino-3-phenyl-, ethyl ester
Formula: C11 H12 N4 O2
CAS: 116632-73-6
State: SOLID (0.5 mg / 650 mg KBr DISC)
Class: COBLENTZ III
Instrument: PERKIN-ELMER 21 (GRATING)
Instrument parameters: FILTER CHANGE ABOUT 1070 CM^-^1
Resolution: 2
Origin: SOUTHERN RESEARCH INSTITUTE
1/CM	TRANSMITTANCE
648	1.0235
657	1.0201
666	1.0089
675	0.9792
684	0.7907
693	0.7289
702	0.9786
711	0.9775
720	0.9625
729	0.9292
738	0.8673
747	0.7464
756	0.634
765	0.7465
774	0.618
783	0.8278
792	0.8273
801	0.8243
810	0.8441
819	0.8498
828	0.8427
837	0.8169
846	0.8515
855	0.8626
864	0.8651
873	0.8682
882	0.8612
891	0.8545
900	0.8458
909	0.8183
918	0.8025
927	0.8412
936	0.8293
945	0.8158
954	0.7887
963	0.7446
972	0.7182
981	0.6992
990	0.7205
999	0.729
1008	0.7036
1017	0.6327
1026	0.5849
1035	0.6925
1044	0.7542
1053	0.7565
1062	0.741
1071	0.7685
1080	0.6886
1089	0.5899
1098	0.5748
1107	0.5469
1116	0.521
1125	0.3229
1134	0.3332
1143	0.6148
1152	0.6783
1161	0.6501
1170	0.4956
1179	0.7424
1188	0.7631
1197	0.7437
1206	0.6904
1215	0.4392
1224	0.5146
1233	0.7199
1242	0.751
1251	0.7399
1260	0.6721
1269	0.6633
1278	0.7795
1287	0.7758
1296	0.8331
1305	0.8229
1314	0.8194
1323	0.795
1332	0.7065
1341	0.7666
1350	0.8139
1359	0.8404
1368	0.8282
1377	0.7967
1386	0.6624
1395	0.7526
1404	0.749
1413	0.7724
1422	0.7929
1431	0.7776
1440	0.7215
1449	0.6235
1458	0.7315
1467	0.6943
1476	0.6703
1485	0.5738
1494	0.4869
1503	0.3232
1512	0.4634
1521	0.677
1530	0.7409
1539	0.7225
1548	0.6326
1557	0.5895
1566	0.637
1575	0.6169
1584	0.4981
1593	0.4241
1602	0.2935
1611	0.1371
1620	0.2136
1629	0.4171
1638	0.6327
1647	0.7283
1656	0.7283
1665	0.6894
1674	0.6275
1683	0.591
1692	0.4866
1701	0.2195
1710	0.2883
1719	0.5456
1728	0.7264
1737	0.8071
1746	0.8502
1755	0.8661
1764	0.8939
1773	0.9033
1782	0.9069
1791	0.9098
1800	0.9153
1809	0.9161
1818	0.9171
1827	0.9185
1836	0.9202
1845	0.9219
1854	0.9209
1863	0.9173
1872	0.9161
1881	0.9154
1890	0.9151
1899	0.9147
1908	0.9142
1917	0.9135
1926	0.9117
1935	0.9078
1944	0.9065
1953	0.9064
1962	0.9082
1971	0.909
1980	0.9092
1989	0.9088
1998	0.9082
2007	0.9087
2016	0.9114
2025	0.9121
2034	0.9114
2043	0.9113
2052	0.9114
2061	0.9114
2070	0.9113
2079	0.9115
2088	0.9117
2097	0.9118
2106	0.9118
2115	0.9104
2124	0.9092
2133	0.9083
2142	0.9069
2151	0.9034
2160	0.9037
2169	0.9046
2178	0.9043
2187	0.9035
2196	0.9032
2205	0.9031
2214	0.9023
2223	0.9012
2232	0.905
2241	0.9062
2250	0.9046
2259	0.9053
2268	0.9142
2277	0.9135
2286	0.9163
2295	0.9199
2304	0.9211
2313	0.9209
2322	0.9189
2331	0.9167
2340	0.9117
2349	0.9055
2358	0.899
2367	0.8948
2376	0.8942
2385	0.893
2394	0.8923
2403	0.8918
2412	0.8918
2421	0.8913
2430	0.8903
2439	0.8857
2448	0.881
2457	0.8808
2466	0.8814
2475	0.8825
2484	0.8835
2493	0.8846
2502	0.8859
2511	0.8832
2520	0.8784
2529	0.8768
2538	0.8763
2547	0.8774
2556	0.8774
2565	0.8753
2574	0.8735
2583	0.8735
2592	0.8731
2601	0.8715
2610	0.8697
2619	0.8679
2628	0.8661
2637	0.8641
2646	0.8634
2655	0.8635
2664	0.8633
2673	0.8631
2682	0.8626
2691	0.8621
2700	0.8629
2709	0.8605
2718	0.8547
2727	0.8548
2736	0.8537
2745	0.8523
2754	0.8514
2763	0.8495
2772	0.8457
2781	0.8363
2790	0.832
2799	0.8306
2808	0.8285
2817	0.8257
2826	0.824
2835	0.8173
2844	0.8046
2853	0.7946
2862	0.7889
2871	0.781
2880	0.7696
2889	0.7639
2898	0.7624
2907	0.762
2916	0.7615
2925	0.7609
2934	0.7601
2943	0.7592
2952	0.7586
2961	0.7677
2970	0.7783
2979	0.7805
2988	0.7793
2997	0.7767
3006	0.773
3015	0.7663
3024	0.7581
3033	0.7486
3042	0.7435
3051	0.7351
3060	0.7253
3069	0.7205
3078	0.7095
3087	0.7019
3096	0.6799
3105	0.6631
3114	0.6488
3123	0.6291
3132	0.6104
3141	0.603
3150	0.5992
3159	0.5962
3168	0.588
3177	0.5728
3186	0.5563
3195	0.5418
3204	0.5356
3213	0.5318
3222	0.5076
3231	0.4856
3240	0.475
3249	0.4703
3258	0.469
3267	0.4761
3276	0.4922
3285	0.5168
3294	0.5526
3303	0.5871
3312	0.6145
3321	0.6273
3330	0.635
3339	0.6383
3348	0.6384
3357	0.6365
3366	0.6319
3375	0.6274
3384	0.6117
3393	0.5951
3402	0.5821
3411	0.5657
3420	0.5482
3429	0.5361
3438	0.5416
3447	0.612
3456	0.6591
3465	0.6825
3474	0.6956
3483	0.7051
3492	0.7124
3501	0.7316
3510	0.7429
3519	0.7521
3528	0.7592
3537	0.7686
3546	0.7754
3555	0.7794
3564	0.7835
3573	0.8006
3582	0.8132
3591	0.821
3600	0.8271
3609	0.8316
3618	0.8349
3627	0.8382
3636	0.8366
3645	0.8383
3654	0.8436
3663	0.8455
3672	0.8504
3681	0.8538
3690	0.8545
3699	0.8545
3708	0.8544
3717	0.8537
3726	0.8518
3735	0.8488
3744	0.8459
3753	0.8446
3762	0.8443
3771	0.8438
3780	0.8444
3789	0.8457
3798	0.8466
3807	0.8444
3816	0.8484
3825	0.8495
3834	0.8495
3843	0.849
3852	0.8479
3861	0.8464
3870	0.843
3879	0.8378
3888	0.8346
3897	0.8323
