Infrared Spectrum: 2-PHENOXY-3-(2-PHENYL ETHYL) PYRAZINE
Formula: C18 H16 N2 O
CAS: 116659-83-7
State: SOLID (MINERAL OIL MULL)
Melting point: 64-65 C
Class: COBLENTZ
Instrument: Not specified, most likely a prism, grating, or hybrid spectrometer.
Sampling: TRANSMISSION
Resolution: 4
Origin: WYANDOTTE CHEMICALS CORP., WYANDOTTE, MICHIGAN, USA
MICROMETERS	TRANSMITTANCE
2.02	0.363
2.06096	0.365
2.10191	0.372
2.14287	0.375
2.18382	0.377
2.22478	0.375
2.26574	0.375
2.30669	0.394
2.34765	0.401
2.3886	0.401
2.42956	0.404
2.47052	0.419
2.51147	0.418
2.55243	0.426
2.59338	0.433
2.63434	0.438
2.67529	0.448
2.71625	0.453
2.75721	0.465
2.79816	0.47
2.83912	0.472
2.88007	0.465
2.92103	0.469
2.96199	0.472
3.00294	0.474
3.0439	0.479
3.08485	0.476
3.12581	0.482
3.16677	0.47
3.20772	0.464
3.24868	0.37
3.28963	0.315
3.33059	0.165
3.37155	0.037
3.4125	0.034
3.45346	0.087
3.49441	0.088
3.53537	0.464
3.57633	0.629
3.61728	0.656
3.65824	0.634
3.69919	0.634
3.74015	0.643
3.78111	0.65
3.82206	0.658
3.86302	0.667
3.90397	0.684
3.94493	0.692
3.98588	0.696
4.02684	0.699
4.0678	0.697
4.10875	0.696
4.14971	0.701
4.19066	0.706
4.23162	0.699
4.27258	0.687
4.31353	0.704
4.35449	0.718
4.39544	0.747
4.4364	0.759
4.47736	0.75
4.51831	0.766
4.55927	0.764
4.60022	0.762
4.64118	0.776
4.68214	0.773
4.72309	0.791
4.76405	0.802
4.805	0.798
4.84596	0.808
4.88692	0.808
4.92787	0.81
4.96883	0.81
5.00978	0.813
5.05074	0.815
5.0917	0.824
5.13265	0.808
5.17361	0.767
5.21456	0.819
5.25552	0.824
5.29647	0.827
5.33743	0.824
5.37839	0.837
5.41934	0.866
5.4603	0.873
5.50125	0.861
5.54221	0.829
5.58317	0.858
5.62412	0.873
5.66508	0.877
5.70603	0.866
5.74699	0.858
5.78795	0.889
5.8289	0.88
5.86986	0.873
5.91081	0.88
5.95177	0.883
5.99273	0.885
6.03368	0.863
6.07464	0.887
6.11559	0.892
6.15655	0.919
6.19751	0.668
6.23846	0.544
6.27942	0.759
6.32037	0.873
6.36133	0.878
6.40229	0.911
6.44324	0.805
6.4842	0.564
6.52515	0.655
6.56611	0.865
6.60706	0.75
6.64802	0.383
6.68898	0.295
6.72993	0.5
6.77089	0.325
6.81184	0.242
6.8528	0.186
6.89376	0.44
6.93471	0.575
6.97567	0.583
7.01662	0.387
7.05758	0.105
7.09854	0.035
7.13949	0.097
7.18045	0.223
7.2214	0.259
7.26236	0.332
7.30332	0.489
7.34427	0.61
7.38523	0.573
7.42618	0.602
7.46714	0.6
7.5081	0.645
7.54905	0.689
7.59001	0.704
7.63096	0.631
7.67192	0.426
7.71288	0.313
7.75383	0.361
7.79479	0.452
7.83574	0.351
7.8767	0.523
7.91765	0.491
7.95861	0.638
7.99957	0.581
8.04052	0.612
8.08148	0.74
8.12243	0.749
8.16339	0.551
8.20435	0.131
8.2453	0.175
8.28626	0.351
8.32721	0.486
8.36817	0.339
8.40913	0.484
8.45008	0.605
8.49104	0.624
8.53199	0.525
8.57295	0.16
8.61391	0.189
8.65486	0.284
8.69582	0.489
8.73677	0.622
8.77773	0.67
8.81869	0.686
8.85964	0.691
8.9006	0.622
8.94155	0.568
8.98251	0.556
9.02346	0.697
9.06442	0.779
9.10538	0.8
9.14633	0.813
9.18729	0.82
9.22824	0.798
9.2692	0.784
9.31016	0.588
9.35111	0.373
9.39207	0.641
9.43302	0.766
9.47398	0.791
9.51494	0.839
9.55589	0.858
9.59685	0.863
9.6378	0.824
9.67876	0.822
9.71972	0.858
9.76067	0.815
9.80163	0.61
9.84258	0.754
9.88354	0.822
9.9245	0.841
9.96545	0.836
10.0064	0.875
10.0474	0.872
10.0883	0.848
10.1293	0.841
10.1702	0.723
10.2112	0.766
10.2521	0.812
10.2931	0.805
10.3341	0.8
10.375	0.843
10.416	0.877
10.4569	0.885
10.4979	0.883
10.5388	0.899
10.5798	0.906
10.6207	0.911
10.6617	0.916
10.7027	0.916
10.7436	0.919
10.7846	0.918
10.8255	0.904
10.8665	0.793
10.9074	0.6
10.9484	0.735
10.9893	0.627
11.0303	0.54
11.0713	0.684
11.1122	0.784
11.1532	0.841
11.1941	0.865
11.2351	0.892
11.276	0.914
11.317	0.924
11.358	0.93
11.3989	0.933
11.4399	0.926
11.4808	0.928
11.5218	0.924
11.5627	0.918
11.6037	0.901
11.6446	0.836
11.6856	0.576
11.7266	0.498
11.7675	0.641
11.8085	0.61
11.8494	0.679
11.8904	0.73
11.9313	0.841
11.9723	0.899
12.0132	0.877
12.0542	0.807
12.0952	0.834
12.1361	0.868
12.1771	0.805
12.218	0.682
12.259	0.675
12.2999	0.759
12.3409	0.803
12.3819	0.82
12.4228	0.783
12.4638	0.713
12.5047	0.605
12.5457	0.527
12.5866	0.631
12.6276	0.755
12.6685	0.839
12.7095	0.88
12.7505	0.88
12.7914	0.878
12.8324	0.892
12.8733	0.889
12.9143	0.88
12.9552	0.878
12.9962	0.87
13.0371	0.861
13.0781	0.848
13.1191	0.819
13.16	0.747
13.201	0.573
13.2419	0.39
13.2829	0.339
13.3238	0.5
13.3648	0.66
13.4058	0.732
13.4467	0.74
13.4877	0.703
13.5286	0.616
13.5696	0.5
13.6105	0.337
13.6515	0.226
13.6924	0.232
13.7334	0.395
13.7744	0.558
13.8153	0.67
13.8563	0.732
13.8972	0.759
13.9382	0.783
13.9791	0.812
14.0201	0.817
14.061	0.8
14.102	0.767
14.143	0.711
14.1839	0.617
14.2249	0.5
14.2658	0.351
14.3068	0.283
14.3477	0.3
14.3887	0.407
14.4296	0.5
14.4706	0.51
14.5116	0.412
14.5525	0.349
14.5935	0.406
14.6344	0.556
14.6754	0.684
14.7163	0.762
14.7573	0.808
14.7983	0.832
14.8392	0.839
14.8802	0.856
14.9211	0.86
14.9621	0.856
15.003	0.831
15.044	0.773
15.0849	0.769
15.1259	0.812
15.1669	0.848
15.2078	0.837
15.2488	0.829
15.2897	0.805
15.3307	0.795
15.3716	0.781
15.4126	0.778
15.4535	0.761
15.4945	0.749
15.5355	0.738
15.5764	0.732
15.6174	0.715
15.6583	0.699
15.6993	0.68
15.7402	0.668
15.7812	0.653
15.8222	0.65
15.8631	0.639
15.9041	0.626
15.945	0.616
15.986	0.602
