Infrared Spectrum: 1,3-DI-(2-CARBETHOXYETHYL) UREA
Formula: C11 H20 N2 O5
CAS: 116668-28-1
State: SOLID (KBr PRESSING)
Melting point: 116 C
Class: COBLENTZ
Instrument: Not specified, most likely a prism, grating, or hybrid spectrometer.
Sampling: TRANSMISSION
Resolution: 4
Origin: EASTMAN KODAK COMPANY, RESEARCH LABORATORIES, ROCHESTER, N.Y.
MICROMETERS	TRANSMITTANCE
2.204	0.694
2.23908	0.697
2.27415	0.702
2.30923	0.704
2.34431	0.704
2.37938	0.701
2.41446	0.699
2.44954	0.704
2.48461	0.708
2.51969	0.708
2.55476	0.708
2.58984	0.709
2.62492	0.709
2.65999	0.708
2.69507	0.697
2.73015	0.646
2.76522	0.578
2.8003	0.543
2.83538	0.512
2.87045	0.491
2.90553	0.465
2.94061	0.305
2.97568	0.15
3.01076	0.403
3.04584	0.55
3.08091	0.601
3.11599	0.648
3.15106	0.643
3.18614	0.65
3.22122	0.702
3.25629	0.708
3.29137	0.66
3.32645	0.52
3.36152	0.589
3.3966	0.652
3.43168	0.694
3.46675	0.711
3.50183	0.725
3.53691	0.736
3.57198	0.756
3.60706	0.756
3.64214	0.755
3.67721	0.762
3.71229	0.765
3.74736	0.765
3.78244	0.772
3.81752	0.765
3.85259	0.774
3.88767	0.776
3.92275	0.776
3.95782	0.777
3.9929	0.777
4.02798	0.779
4.06305	0.783
4.09813	0.784
4.13321	0.784
4.16828	0.781
4.20336	0.783
4.23844	0.784
4.27351	0.788
4.30859	0.795
4.34366	0.797
4.37874	0.795
4.41382	0.793
4.44889	0.791
4.48397	0.795
4.51905	0.798
4.55412	0.798
4.5892	0.798
4.62428	0.798
4.65935	0.802
4.69443	0.804
4.72951	0.807
4.76458	0.8
4.79966	0.798
4.83474	0.798
4.86981	0.8
4.90489	0.797
4.93996	0.8
4.97504	0.8
5.01012	0.802
5.04519	0.8
5.08027	0.802
5.11535	0.802
5.15042	0.802
5.1855	0.804
5.22058	0.805
5.25565	0.804
5.29073	0.804
5.32581	0.802
5.36088	0.802
5.39596	0.804
5.43104	0.804
5.46611	0.804
5.50119	0.798
5.53626	0.79
5.57134	0.777
5.60642	0.767
5.64149	0.753
5.67657	0.718
5.71165	0.646
5.74672	0.344
5.7818	0.092
5.81688	0.206
5.85195	0.634
5.88703	0.697
5.92211	0.713
5.95718	0.704
5.99226	0.706
6.02734	0.68
6.06241	0.636
6.09749	0.482
6.13257	0.223
6.16764	0.045
6.20272	0.274
6.23779	0.342
6.27287	0.188
6.30795	0.092
6.34302	0.181
6.3781	0.396
6.41318	0.491
6.44825	0.632
6.48333	0.662
6.51841	0.715
6.55348	0.716
6.58856	0.73
6.62364	0.756
6.65871	0.774
6.69379	0.774
6.72887	0.756
6.76394	0.69
6.79902	0.685
6.83409	0.657
6.86917	0.681
6.90425	0.599
6.93932	0.508
6.9744	0.667
7.00948	0.431
7.04455	0.445
7.07963	0.671
7.11471	0.713
7.14978	0.687
7.18486	0.639
7.21994	0.571
7.25501	0.33
7.29009	0.312
7.32517	0.641
7.36024	0.573
7.39532	0.426
7.43039	0.683
7.46547	0.709
7.50055	0.732
7.53562	0.732
7.5707	0.725
7.60578	0.697
7.64085	0.624
7.67593	0.484
7.71101	0.461
7.74608	0.5
7.78116	0.571
7.81624	0.578
7.85131	0.538
7.88639	0.5
7.92147	0.479
7.95654	0.513
7.99162	0.555
8.02669	0.604
8.06177	0.631
8.09685	0.639
8.13192	0.618
8.167	0.538
8.20208	0.379
8.23715	0.225
8.27223	0.199
8.30731	0.267
8.34238	0.281
8.37746	0.185
8.41254	0.113
8.44761	0.131
8.48269	0.269
8.51777	0.395
8.55284	0.391
8.58792	0.503
8.62299	0.604
8.65807	0.667
8.69315	0.701
8.72822	0.725
8.7633	0.739
8.79838	0.75
8.83345	0.753
8.86853	0.753
8.90361	0.744
8.93868	0.722
8.97376	0.723
9.00884	0.72
9.04391	0.676
9.07899	0.624
9.11407	0.631
9.14914	0.662
9.18422	0.73
9.21929	0.774
9.25437	0.791
9.28945	0.798
9.32452	0.8
9.3596	0.804
9.39468	0.802
9.42975	0.798
9.46483	0.777
9.49991	0.741
9.53498	0.613
9.57006	0.416
9.60514	0.479
9.64021	0.524
9.67529	0.519
9.71037	0.552
9.74544	0.625
9.78052	0.699
9.81559	0.76
9.85067	0.79
9.88575	0.802
9.92082	0.816
9.9559	0.818
9.99098	0.833
10.0261	0.832
10.0611	0.83
10.0962	0.826
10.1313	0.826
10.1664	0.837
10.2014	0.846
10.2365	0.851
10.2716	0.849
10.3067	0.851
10.3417	0.851
10.3768	0.854
10.4119	0.854
10.447	0.853
10.482	0.853
10.5171	0.847
10.5522	0.851
10.5873	0.853
10.6224	0.851
10.6574	0.851
10.6925	0.849
10.7276	0.849
10.7627	0.851
10.7977	0.849
10.8328	0.851
10.8679	0.851
10.903	0.851
10.938	0.842
10.9731	0.823
11.0082	0.781
11.0433	0.711
11.0783	0.702
11.1134	0.732
11.1485	0.755
11.1836	0.784
11.2187	0.812
11.2537	0.83
11.2888	0.837
11.3239	0.839
11.359	0.839
11.394	0.823
11.4291	0.826
11.4642	0.837
11.4993	0.84
11.5343	0.842
11.5694	0.826
11.6045	0.8
11.6396	0.784
11.6746	0.783
11.7097	0.788
11.7448	0.767
11.7799	0.772
11.815	0.823
11.85	0.842
11.8851	0.842
11.9202	0.851
11.9553	0.856
11.9903	0.865
12.0254	0.863
12.0605	0.863
12.0956	0.863
12.1306	0.865
12.1657	0.865
12.2008	0.865
12.2359	0.865
12.2709	0.861
12.306	0.854
12.3411	0.853
12.3762	0.853
12.4113	0.854
12.4463	0.854
12.4814	0.849
12.5165	0.833
12.5516	0.823
12.5866	0.807
12.6217	0.795
12.6568	0.804
12.6919	0.825
12.7269	0.828
12.762	0.83
12.7971	0.832
12.8322	0.84
12.8672	0.844
12.9023	0.853
12.9374	0.86
12.9725	0.86
13.0076	0.861
13.0426	0.861
13.0777	0.861
13.1128	0.861
13.1479	0.861
13.1829	0.861
13.218	0.861
13.2531	0.861
13.2882	0.861
13.3232	0.86
13.3583	0.853
13.3934	0.851
13.4285	0.854
13.4635	0.854
13.4986	0.853
13.5337	0.851
13.5688	0.851
13.6039	0.847
13.6389	0.846
13.674	0.84
13.7091	0.833
13.7442	0.833
13.7792	0.832
13.8143	0.823
13.8494	0.821
13.8845	0.816
13.9195	0.812
13.9546	0.811
13.9897	0.809
14.0248	0.805
14.0598	0.807
14.0949	0.802
14.13	0.802
14.1651	0.8
14.2002	0.8
14.2352	0.797
14.2703	0.79
14.3054	0.786
14.3405	0.774
14.3755	0.772
14.4106	0.76
14.4457	0.753
14.4808	0.743
14.5158	0.732
14.5509	0.725
14.586	0.713
14.6211	0.704
14.6561	0.69
14.6912	0.673
14.7263	0.664
14.7614	0.652
14.7965	0.636
14.8315	0.631
14.8666	0.611
14.9017	0.604
14.9368	0.592
14.9718	0.59
15.0069	0.597
15.042	0.592
15.0771	0.589
15.1121	0.592
15.1472	0.597
15.1823	0.603
15.2174	0.604
15.2524	0.606
15.2875	0.606
15.3226	0.611
15.3577	0.617
15.3928	0.62
15.4278	0.627
15.4629	0.631
15.498	0.632
15.5331	0.634
15.5681	0.634
15.6032	0.636
15.6383	0.636
15.6734	0.632
15.7084	0.629
15.7435	0.624
15.7786	0.618
15.8137	0.61
15.8487	0.603
15.8838	0.599
15.9189	0.601
15.954	0.599
15.9891	0.599
