Infrared Spectrum: 3-PHENYL-6-BENZOYL-Alpha-PYRONE
Formula: C18 H12 O3
CAS: 116659-67-7
State: SOLID (1.0% IN KBr PELLET)
Class: COBLENTZ
Instrument: Not specified, most likely a prism, grating, or hybrid spectrometer.
Sampling: TRANSMISSION
Path length: 0.0355 CM THICK
Resolution: 4
Origin: ANDERSON PHYSICAL LABORATORY
1/CM	TRANSMITTANCE
673.113	0.75
681.535	0.746
689.956	0.5541
698.378	0.2852
706.8	0.3059
715.222	0.8036
723.643	0.7731
732.065	0.1981
740.487	0.666
748.909	0.932
757.33	0.84
765.752	0.6956
774.174	0.92
782.596	0.8661
791.017	0.33
799.439	0.4501
807.861	0.7129
816.283	0.884
824.704	0.893
833.126	0.884
841.548	0.6629
849.97	0.605
858.391	0.792
866.813	0.794
875.235	0.741
883.657	0.854
892.078	0.878
900.5	0.875
908.922	0.866
917.344	0.852
925.765	0.812
934.187	0.6981
942.609	0.707
951.031	0.63
959.452	0.599
967.874	0.418
976.296	0.542
984.718	0.818
993.139	0.798
1001.56	0.749
1009.98	0.597
1018.4	0.3821
1026.83	0.4887
1035.25	0.7741
1043.67	0.668
1052.09	0.83
1060.51	0.839
1068.93	0.819
1077.36	0.765
1085.78	0.606
1094.2	0.578
1102.62	0.659
1111.04	0.723
1119.47	0.486
1127.89	0.4619
1136.31	0.696
1144.73	0.756
1153.15	0.744
1161.57	0.692
1170	0.492
1178.42	0.645
1186.84	0.6541
1195.26	0.698
1203.68	0.735
1212.1	0.755
1220.53	0.741
1228.95	0.714
1237.37	0.677
1245.79	0.602
1254.21	0.498
1262.64	0.3569
1271.06	0.159
1279.48	0.13
1287.9	0.189
1296.32	0.3939
1304.74	0.657
1313.17	0.669
1321.59	0.626
1330.01	0.4951
1338.43	0.75
1346.85	0.765
1355.27	0.758
1363.7	0.7191
1372.12	0.504
1380.54	0.486
1388.96	0.764
1397.38	0.801
1405.8	0.803
1414.23	0.765
1422.65	0.753
1431.07	0.765
1439.49	0.758
1447.91	0.71
1456.34	0.4091
1464.76	0.696
1473.18	0.768
1481.6	0.771
1490.02	0.737
1498.44	0.6809
1506.87	0.624
1515.29	0.708
1523.71	0.725
1532.13	0.729
1540.55	0.711
1548.97	0.698
1557.4	0.597
1565.82	0.534
1574.24	0.617
1582.66	0.543
1591.08	0.56
1599.5	0.4749
1607.93	0.4209
1616.35	0.545
1624.77	0.46
1633.19	0.363
1641.61	0.355
1650.04	0.21
1658.46	0.112
1666.88	0.3581
1675.3	0.539
1683.72	0.515
1692.14	0.438
1700.57	0.295
1708.99	0.09
1717.41	0.031
1725.83	0.054
1734.25	0.142
1742.67	0.3691
1751.1	0.5761
1759.52	0.6861
1767.94	0.776
1776.36	0.809
1784.78	0.801
1793.2	0.806
1801.63	0.798
1810.05	0.792
1818.47	0.792
1826.89	0.788
1835.31	0.779
1843.74	0.786
1852.16	0.788
1860.58	0.788
1869	0.789
1877.42	0.777
1885.84	0.777
1894.27	0.77
1902.69	0.765
1911.11	0.758
1919.53	0.752
1927.95	0.744
1936.37	0.746
1944.8	0.752
1953.22	0.749
1961.64	0.749
1970.06	0.746
1978.48	0.732
1986.91	0.719
1995.33	0.719
2003.75	0.728
2012.17	0.729
2020.59	0.73
2029.01	0.7317
2037.44	0.735
2045.86	0.738
2054.28	0.74
2062.7	0.74
2071.12	0.737
2079.54	0.7334
2087.97	0.732
2096.39	0.7312
2104.81	0.728
2113.23	0.7244
2121.65	0.7209
2130.07	0.7166
2138.5	0.711
2146.92	0.7094
2155.34	0.7059
2163.76	0.7016
2172.18	0.698
2180.61	0.6957
2189.03	0.692
2197.45	0.69
2205.87	0.687
2214.29	0.689
2222.71	0.69
2231.14	0.6892
2239.56	0.6868
2247.98	0.683
2256.4	0.6819
2264.82	0.6802
2273.24	0.6779
2281.67	0.675
2290.09	0.6728
2298.51	0.6693
2306.93	0.6648
2315.35	0.661
2323.77	0.6578
2332.2	0.657
2340.62	0.6539
2349.04	0.6506
2357.46	0.6458
2365.88	0.6411
2374.31	0.6356
2382.73	0.6296
2391.15	0.6278
2399.57	0.6261
2407.99	0.6239
2416.41	0.621
2424.84	0.62
2433.26	0.618
2441.68	0.615
2450.1	0.6146
2458.52	0.6127
2466.94	0.612
2475.37	0.614
2483.79	0.6132
2492.21	0.6113
2500.63	0.6081
2509.05	0.6047
2517.47	0.6026
2525.9	0.5993
2534.32	0.597
2542.74	0.5957
2551.16	0.593
2559.58	0.593
2568.01	0.591
2576.43	0.5908
2584.85	0.5887
2593.27	0.5856
2601.69	0.584
2610.11	0.5788
2618.54	0.5756
2626.96	0.5729
2635.38	0.5701
2643.8	0.5668
2652.22	0.5635
2660.64	0.5603
2669.07	0.5581
2677.49	0.557
2685.91	0.555
2694.33	0.5577
2702.75	0.558
2711.18	0.5573
2719.6	0.554
2728.02	0.5525
2736.44	0.549
2744.86	0.5475
2753.28	0.544
2761.71	0.5405
2770.13	0.539
2778.55	0.536
2786.97	0.534
2795.39	0.5332
2803.81	0.531
2812.24	0.53
2820.66	0.529
2829.08	0.5242
2837.5	0.521
2845.92	0.5187
2854.34	0.517
2862.77	0.5152
2871.19	0.513
2879.61	0.512
2888.03	0.51
2896.45	0.5074
2904.88	0.506
2913.3	0.504
2921.72	0.4978
2930.14	0.4952
2938.56	0.4929
2946.98	0.492
2955.41	0.492
2963.83	0.4904
2972.25	0.4886
2980.67	0.4824
2989.09	0.4774
2997.51	0.4715
3005.94	0.4658
3014.36	0.459
3022.78	0.4517
3031.2	0.4428
3039.62	0.4359
3048.04	0.4302
3056.47	0.4216
3064.89	0.4145
3073.31	0.4089
3081.73	0.408
3090.15	0.4086
3098.58	0.4119
3107	0.4153
3115.42	0.42
3123.84	0.4236
3132.26	0.424
3140.68	0.4261
3149.11	0.4294
3157.53	0.4343
3165.95	0.4387
3174.37	0.441
3182.79	0.441
3191.21	0.441
3199.64	0.4392
3208.06	0.439
3216.48	0.439
3224.9	0.438
3233.32	0.438
3241.75	0.4377
3250.17	0.436
3258.59	0.436
3267.01	0.433
3275.43	0.432
3283.85	0.4296
3292.28	0.4277
3300.7	0.427
3309.12	0.429
3317.54	0.4294
3325.96	0.4293
3334.38	0.429
3342.81	0.4286
3351.23	0.4256
3359.65	0.423
3368.07	0.4201
3376.49	0.4134
3384.91	0.4046
3393.34	0.402
3401.76	0.4
3410.18	0.399
3418.6	0.3981
3427.02	0.397
3435.45	0.397
3443.87	0.396
3452.29	0.396
3460.71	0.394
3469.13	0.394
3477.55	0.396
3485.98	0.396
3494.4	0.397
3502.82	0.397
3511.24	0.397
3519.66	0.396
3528.08	0.394
3536.51	0.394
3544.93	0.393
3553.35	0.391
3561.77	0.3885
3570.19	0.388
3578.61	0.388
3587.04	0.389
3595.46	0.393
3603.88	0.394
3612.3	0.394
3620.72	0.393
3629.15	0.3886
3637.57	0.385
3645.99	0.384
3654.41	0.382
3662.83	0.382
3671.25	0.382
3679.68	0.382
3688.1	0.384
3696.52	0.384
3704.94	0.385
3713.36	0.3847
3721.78	0.384
3730.21	0.384
3738.63	0.3839
3747.05	0.3804
3755.47	0.3784
3763.89	0.3755
3772.31	0.3718
3780.74	0.369
3789.16	0.3664
3797.58	0.366
3806	0.367
3814.42	0.369
3822.85	0.3678
3831.27	0.366
3839.69	0.364
3848.11	0.364
3856.53	0.363
3864.95	0.361
3873.38	0.3597
3881.8	0.3546
3890.22	0.3528
3898.64	0.3511
3907.06	0.3489
3915.48	0.3456
3923.91	0.343
3932.33	0.343
3940.75	0.3451
3949.17	0.3484
3957.59	0.349
3966.02	0.349
3974.44	0.348
3982.86	0.3456
