Infrared Spectrum: 2-(o-PHENYLPHENOXY)-3,6-DIMETHYL PYRAZINE
Formula: C18 H16 N2 O
CAS: 116660-25-4
State: LIQUID
Class: COBLENTZ
Instrument: Not specified, most likely a prism, grating, or hybrid spectrometer.
Sampling: TRANSMISSION
Path length: 0.0015 CM
Resolution: 4
Origin: WYANDOTTE CHEMICALS CORP., WYANDOTTE, MICHIGAN, USA
MICROMETERS	TRANSMITTANCE
2.027	0.953
2.06798	0.939
2.10895	0.938
2.14993	0.938
2.19091	0.927
2.23188	0.91
2.27286	0.919
2.31384	0.919
2.35481	0.915
2.39579	0.886
2.43677	0.914
2.47774	0.914
2.51872	0.914
2.55969	0.929
2.60067	0.933
2.64165	0.931
2.68262	0.931
2.7236	0.905
2.76458	0.91
2.80555	0.902
2.84653	0.885
2.88751	0.869
2.92848	0.852
2.96946	0.861
3.01044	0.85
3.05141	0.854
3.09239	0.866
3.13337	0.852
3.17434	0.845
3.21532	0.801
3.2563	0.54
3.29727	0.464
3.33825	0.608
3.37922	0.627
3.4202	0.59
3.46118	0.773
3.50215	0.782
3.54313	0.83
3.58411	0.862
3.62508	0.878
3.66606	0.857
3.70704	0.876
3.74801	0.897
3.78899	0.886
3.82997	0.89
3.87094	0.891
3.91192	0.888
3.9529	0.878
3.99387	0.867
4.03485	0.876
4.07583	0.881
4.1168	0.867
4.15778	0.861
4.19875	0.859
4.23973	0.842
4.28071	0.85
4.32168	0.866
4.36266	0.876
4.40364	0.881
4.44461	0.873
4.48559	0.89
4.52657	0.895
4.56754	0.9
4.60852	0.893
4.6495	0.897
4.69047	0.881
4.73145	0.893
4.77243	0.891
4.8134	0.888
4.85438	0.879
4.89536	0.864
4.93633	0.85
4.97731	0.85
5.01828	0.876
5.05926	0.873
5.10024	0.859
5.14121	0.833
5.18219	0.785
5.22317	0.833
5.26414	0.811
5.30512	0.802
5.3461	0.799
5.38707	0.845
5.42805	0.859
5.46903	0.849
5.51	0.833
5.55098	0.782
5.59196	0.806
5.63293	0.83
5.67391	0.819
5.71489	0.79
5.75586	0.821
5.79684	0.838
5.83781	0.833
5.87879	0.819
5.91977	0.787
5.96074	0.794
6.00172	0.794
6.0427	0.778
6.08367	0.744
6.12465	0.704
6.16563	0.641
6.2066	0.567
6.24758	0.531
6.28856	0.372
6.32953	0.6
6.37051	0.632
6.41149	0.535
6.45246	0.384
6.49344	0.3
6.53442	0.49
6.57539	0.566
6.61637	0.341
6.65735	0.425
6.69832	0.32
6.7393	0.042
6.78027	0.101
6.82125	0.042
6.86223	0.049
6.9032	0.042
6.94418	0.049
6.98516	0.09
7.02613	0.255
7.06711	0.372
7.10809	0.373
7.14906	0.336
7.19004	0.221
7.23102	0.032
7.27199	0.03
7.31297	0.03
7.35395	0.034
7.39492	0.068
7.4359	0.272
7.47688	0.416
7.51785	0.536
7.55883	0.62
7.5998	0.627
7.64078	0.584
7.68176	0.456
7.72273	0.186
7.76371	0.032
7.80469	0.106
7.84566	0.31
7.88664	0.31
7.92762	0.329
7.96859	0.205
8.00957	0.243
8.05055	0.478
8.09152	0.509
8.1325	0.432
8.17348	0.315
8.21445	0.21
8.25543	0.075
8.29641	0.03
8.33738	0.029
8.37836	0.077
8.41933	0.169
8.46031	0.063
8.50129	0.061
8.54226	0.185
8.58324	0.065
8.62422	0.032
8.66519	0.042
8.70617	0.171
8.74715	0.38
8.78812	0.528
8.8291	0.617
8.87008	0.658
8.91105	0.634
8.95203	0.481
8.99301	0.377
9.03398	0.495
9.07496	0.662
9.11594	0.706
9.15691	0.728
9.19789	0.72
9.23886	0.675
9.27984	0.53
9.32082	0.566
9.36179	0.67
9.40277	0.704
9.44375	0.699
9.48472	0.614
9.5257	0.415
9.56668	0.444
9.60765	0.511
9.64863	0.447
9.68961	0.397
9.73058	0.355
9.77156	0.336
9.81254	0.42
9.85351	0.454
9.89449	0.245
9.93547	0.195
9.97644	0.37
10.0174	0.514
10.0584	0.644
10.0994	0.691
10.1403	0.698
10.1813	0.71
10.2223	0.728
10.2633	0.725
10.3043	0.715
10.3452	0.71
10.3862	0.706
10.4272	0.692
10.4682	0.644
10.5091	0.612
10.5501	0.602
10.5911	0.615
10.6321	0.612
10.673	0.648
10.714	0.708
10.755	0.749
10.796	0.753
10.8369	0.735
10.8779	0.694
10.9189	0.639
10.9599	0.626
11.0009	0.679
11.0418	0.746
11.0828	0.763
11.1238	0.758
11.1648	0.732
11.2057	0.701
11.2467	0.655
11.2877	0.603
11.3287	0.56
11.3696	0.547
11.4106	0.566
11.4516	0.624
11.4926	0.68
11.5335	0.71
11.5745	0.728
11.6155	0.751
11.6565	0.77
11.6975	0.773
11.7384	0.768
11.7794	0.727
11.8204	0.593
11.8614	0.406
11.9023	0.348
11.9433	0.471
11.9843	0.614
12.0253	0.701
12.0662	0.759
12.1072	0.782
12.1482	0.79
12.1892	0.799
12.2301	0.789
12.2711	0.777
12.3121	0.754
12.3531	0.708
12.3941	0.644
12.435	0.567
12.476	0.538
12.517	0.578
12.558	0.651
12.5989	0.706
12.6399	0.747
12.6809	0.763
12.7219	0.763
12.7628	0.74
12.8038	0.698
12.8448	0.571
12.8858	0.406
12.9268	0.283
12.9677	0.246
13.0087	0.3
13.0497	0.349
13.0907	0.32
13.1316	0.195
13.1726	0.096
13.2136	0.06
13.2546	0.049
13.2955	0.051
13.3365	0.085
13.3775	0.2
13.4185	0.334
13.4594	0.382
13.5004	0.339
13.5414	0.253
13.5824	0.185
13.6234	0.161
13.6643	0.169
13.7053	0.192
13.7463	0.26
13.7873	0.427
13.8282	0.59
13.8692	0.665
13.9102	0.704
13.9512	0.722
13.9921	0.723
14.0331	0.701
14.0741	0.665
14.1151	0.595
14.156	0.459
14.197	0.334
14.238	0.205
14.279	0.138
14.32	0.12
14.3609	0.121
14.4019	0.166
14.4429	0.289
14.4839	0.449
14.5248	0.576
14.5658	0.658
14.6068	0.711
14.6478	0.737
14.6887	0.749
14.7297	0.759
14.7707	0.765
14.8117	0.771
14.8526	0.771
14.8936	0.77
14.9346	0.763
14.9756	0.751
15.0166	0.727
15.0575	0.722
15.0985	0.742
15.1395	0.758
15.1805	0.766
15.2214	0.761
15.2624	0.758
15.3034	0.756
15.3444	0.751
15.3853	0.749
15.4263	0.746
15.4673	0.74
15.5083	0.734
15.5492	0.718
15.5902	0.713
15.6312	0.701
15.6722	0.698
15.7132	0.682
15.7541	0.668
15.7951	0.663
15.8361	0.658
15.8771	0.667
15.918	0.668
15.959	0.667
