Infrared Spectrum: 2-(P-DODECYLPHENOXY)-3-METHYL PYRAZINE
Formula: C23 H34 N2 O
CAS: 116660-32-3
State: LIQUID
Class: COBLENTZ
Instrument: Not specified, most likely a prism, grating, or hybrid spectrometer.
Sampling: TRANSMISSION
Path length: CAPILLARY
Resolution: 4
Origin: WYANDOTTE CHEMICALS CORP., WYANDOTTE, MICHIGAN, USA
MICROMETERS	TRANSMITTANCE
2.007	0.979
2.04789	0.981
2.08879	0.976
2.12968	0.977
2.17058	0.976
2.21147	0.948
2.25237	0.948
2.29326	0.958
2.33415	0.958
2.37505	0.947
2.41594	0.953
2.45684	0.958
2.49773	0.964
2.53863	0.976
2.57952	0.982
2.62041	0.979
2.66131	0.989
2.7022	0.979
2.7431	0.972
2.78399	0.969
2.82489	0.953
2.86578	0.933
2.90667	0.905
2.94757	0.885
2.98846	0.868
3.02936	0.849
3.07025	0.841
3.11115	0.829
3.15204	0.829
3.19293	0.832
3.23383	0.806
3.27472	0.652
3.31562	0.666
3.35651	0.17
3.39741	0.116
3.4383	0.215
3.47919	0.276
3.52009	0.48
3.56098	0.81
3.60188	0.878
3.64277	0.892
3.68367	0.888
3.72456	0.912
3.76545	0.923
3.80635	0.928
3.84724	0.929
3.88814	0.931
3.92903	0.941
3.96993	0.948
4.01082	0.953
4.05171	0.948
4.09261	0.941
4.1335	0.933
4.1744	0.935
4.21529	0.945
4.25619	0.929
4.29708	0.947
4.33797	0.974
4.37887	0.982
4.41976	0.969
4.46066	0.967
4.50155	0.97
4.54245	0.972
4.58334	0.972
4.62423	0.972
4.66513	0.969
4.70602	0.969
4.74692	0.969
4.78781	0.97
4.82871	0.97
4.8696	0.965
4.91049	0.965
4.95139	0.962
4.99228	0.965
5.03318	0.964
5.07407	0.96
5.11497	0.964
5.15586	0.97
5.19675	0.967
5.23765	0.962
5.27854	0.947
5.31944	0.916
5.36033	0.941
5.40123	0.965
5.44212	0.962
5.48301	0.96
5.52391	0.958
5.5648	0.947
5.6057	0.943
5.64659	0.926
5.68749	0.919
5.72838	0.909
5.76927	0.89
5.81017	0.81
5.85106	0.822
5.89196	0.868
5.93285	0.875
5.97375	0.854
6.01464	0.832
6.05553	0.847
6.09643	0.839
6.13732	0.805
6.17822	0.707
6.21911	0.748
6.26001	0.729
6.3009	0.755
6.34179	0.8
6.38269	0.786
6.42358	0.647
6.46448	0.569
6.50537	0.565
6.54627	0.574
6.58716	0.352
6.62805	0.239
6.66895	0.511
6.70984	0.603
6.75074	0.471
6.79163	0.316
6.83253	0.326
6.87342	0.382
6.91431	0.369
6.95521	0.348
6.9961	0.381
7.037	0.299
7.07789	0.1
7.11879	0.051
7.15968	0.094
7.20057	0.191
7.24147	0.217
7.28236	0.358
7.32326	0.487
7.36415	0.62
7.40505	0.661
7.44594	0.661
7.48683	0.617
7.52773	0.535
7.56862	0.529
7.60952	0.442
7.65041	0.329
7.69131	0.297
7.7322	0.261
7.77309	0.201
7.81399	0.292
7.85488	0.413
7.89578	0.393
7.93667	0.394
7.97757	0.319
8.01846	0.494
8.05935	0.521
8.10025	0.425
8.14114	0.302
8.18204	0.135
8.22293	0.116
8.26383	0.302
8.30472	0.505
8.34561	0.577
8.38651	0.42
8.4274	0.259
8.4683	0.186
8.50919	0.116
8.55009	0.357
8.59098	0.572
8.63187	0.451
8.67277	0.435
8.71366	0.586
8.75456	0.714
8.79545	0.76
8.83635	0.782
8.87724	0.758
8.91813	0.719
8.95903	0.694
8.99992	0.723
9.04082	0.745
9.08171	0.76
9.12261	0.764
9.1635	0.772
9.2044	0.772
9.24529	0.779
9.28618	0.81
9.32708	0.82
9.36797	0.822
9.40887	0.827
9.44976	0.829
9.49066	0.832
9.53155	0.822
9.57244	0.805
9.61334	0.767
9.65423	0.733
9.69513	0.741
9.73602	0.77
9.77692	0.729
9.81781	0.475
9.8587	0.514
9.8996	0.654
9.94049	0.779
9.98139	0.811
10.0223	0.825
10.0632	0.834
10.1041	0.822
10.145	0.796
10.1859	0.743
10.2268	0.687
10.2676	0.711
10.3085	0.762
10.3494	0.8
10.3903	0.81
10.4312	0.82
10.4721	0.832
10.513	0.851
10.5539	0.859
10.5948	0.868
10.6357	0.873
10.6766	0.87
10.7175	0.866
10.7584	0.87
10.7993	0.873
10.8402	0.87
10.8811	0.861
10.922	0.844
10.9628	0.811
11.0037	0.724
11.0446	0.608
11.0855	0.618
11.1264	0.77
11.1673	0.841
11.2082	0.861
11.2491	0.864
11.29	0.866
11.3309	0.868
11.3718	0.861
11.4127	0.847
11.4536	0.832
11.4945	0.803
11.5354	0.772
11.5763	0.736
11.6172	0.688
11.6581	0.647
11.6989	0.594
11.7398	0.519
11.7807	0.454
11.8216	0.403
11.8625	0.374
11.9034	0.364
11.9443	0.396
11.9852	0.447
12.0261	0.497
12.067	0.535
12.1079	0.601
12.1488	0.651
12.1897	0.682
12.2306	0.707
12.2715	0.747
12.3124	0.77
12.3533	0.801
12.3941	0.827
12.435	0.852
12.4759	0.866
12.5168	0.878
12.5577	0.883
12.5986	0.88
12.6395	0.878
12.6804	0.868
12.7213	0.851
12.7622	0.839
12.8031	0.825
12.844	0.818
12.8849	0.815
12.9258	0.822
12.9667	0.834
13.0076	0.847
13.0485	0.854
13.0894	0.852
13.1302	0.852
13.1711	0.858
13.212	0.856
13.2529	0.858
13.2938	0.863
13.3347	0.859
13.3756	0.858
13.4165	0.861
13.4574	0.859
13.4983	0.861
13.5392	0.864
13.5801	0.868
13.621	0.873
13.6619	0.863
13.7028	0.849
13.7437	0.834
13.7846	0.825
13.8254	0.847
13.8663	0.87
13.9072	0.888
13.9481	0.899
13.989	0.909
14.0299	0.912
14.0708	0.917
14.1117	0.928
14.1526	0.928
14.1935	0.928
14.2344	0.923
14.2753	0.917
14.3162	0.919
14.3571	0.917
14.398	0.914
14.4389	0.907
14.4798	0.9
14.5207	0.904
14.5615	0.899
14.6024	0.894
14.6433	0.894
14.6842	0.892
14.7251	0.89
14.766	0.888
14.8069	0.885
14.8478	0.887
14.8887	0.89
14.9296	0.89
14.9705	0.885
15.0114	0.861
15.0523	0.851
15.0932	0.856
15.1341	0.885
15.175	0.888
15.2159	0.883
15.2567	0.871
15.2976	0.866
15.3385	0.863
15.3794	0.863
15.4203	0.854
15.4612	0.849
15.5021	0.842
15.543	0.837
15.5839	0.834
15.6248	0.83
15.6657	0.827
15.7066	0.823
15.7475	0.817
15.7884	0.808
15.8293	0.803
15.8702	0.8
15.9111	0.788
15.952	0.777
