Infrared Spectrum: AMYLOXY ISO-EUGENOL
Formula: C15 H22 O3
CAS: 116632-98-5
State: SOLUTION (10% CCl4 FOR 2.5-7.5, 10% CS2 FOR 7.5-16 MICRON)
Class: COBLENTZ
Instrument: Not specified, most likely a prism, grating, or hybrid spectrometer.
Sampling: TRANSMISSION
Path length: 0.01 CM, 0.01 CM
Resolution: 4
Origin: DOW CHEMICAL COMPANY
MICROMETERS	TRANSMITTANCE
2.034	0.87
2.07508	0.87
2.11615	0.873
2.15723	0.875
2.1983	0.873
2.23938	0.858
2.28046	0.854
2.32153	0.864
2.36261	0.87
2.40369	0.868
2.44476	0.864
2.48584	0.871
2.52691	0.876
2.56799	0.876
2.60907	0.878
2.65014	0.882
2.69122	0.878
2.73229	0.859
2.77337	0.695
2.81445	0.494
2.85552	0.694
2.8966	0.671
2.93768	0.666
2.97875	0.661
3.01983	0.695
3.0609	0.757
3.10198	0.794
3.14306	0.823
3.18413	0.827
3.22521	0.801
3.26629	0.717
3.30736	0.611
3.34844	0.348
3.38951	0.112
3.43059	0.234
3.47167	0.364
3.51274	0.723
3.55382	0.776
3.59489	0.817
3.63597	0.827
3.67705	0.851
3.71812	0.876
3.7592	0.876
3.80028	0.875
3.84135	0.875
3.88243	0.88
3.9235	0.883
3.96458	0.888
4.00566	0.895
4.04673	0.895
4.08781	0.899
4.12888	0.9
4.16996	0.907
4.21104	0.909
4.25211	0.909
4.29319	0.899
4.33427	0.883
4.37534	0.888
4.41642	0.902
4.45749	0.907
4.49857	0.907
4.53965	0.909
4.58072	0.909
4.6218	0.911
4.66287	0.911
4.70395	0.911
4.74503	0.907
4.7861	0.904
4.82718	0.897
4.86826	0.897
4.90933	0.897
4.95041	0.897
4.99148	0.894
5.03256	0.888
5.07364	0.897
5.11471	0.899
5.15579	0.902
5.19687	0.902
5.23794	0.899
5.27902	0.897
5.32009	0.888
5.36117	0.87
5.40225	0.88
5.44332	0.89
5.4844	0.89
5.52547	0.895
5.56655	0.897
5.60763	0.895
5.6487	0.878
5.68978	0.849
5.73086	0.83
5.77193	0.839
5.81301	0.854
5.85408	0.849
5.89516	0.81
5.93624	0.837
5.97731	0.844
6.01839	0.815
6.05946	0.815
6.10054	0.806
6.14162	0.741
6.18269	0.591
6.22377	0.466
6.26485	0.348
6.30592	0.341
6.347	0.492
6.38807	0.463
6.42915	0.42
6.47023	0.423
6.5113	0.435
6.55238	0.317
6.59346	0.078
6.63453	0.09
6.67561	0.333
6.71668	0.449
6.75776	0.456
6.79884	0.374
6.83991	0.372
6.88099	0.464
6.92206	0.475
6.96314	0.528
7.00422	0.611
7.04529	0.572
7.08637	0.588
7.12745	0.656
7.16852	0.572
7.2096	0.521
7.25067	0.528
7.29175	0.507
7.33283	0.512
7.3739	0.576
7.41498	0.569
7.45605	0.593
7.49713	0.635
7.53821	0.603
7.57928	0.492
7.62036	0.36
7.66144	0.254
7.70251	0.203
7.74359	0.177
7.78466	0.14
7.82574	0.097
7.86682	0.046
7.90789	0.046
7.94897	0.131
7.99004	0.263
8.03112	0.295
8.0722	0.201
8.11327	0.169
8.15435	0.203
8.19543	0.283
8.2365	0.357
8.27758	0.273
8.31865	0.133
8.35973	0.078
8.40081	0.148
8.44188	0.259
8.48296	0.268
8.52404	0.239
8.56511	0.213
8.60619	0.179
8.64726	0.143
8.68834	0.135
8.72942	0.184
8.77049	0.232
8.81157	0.249
8.85264	0.235
8.89372	0.23
8.9348	0.223
8.97587	0.23
9.01695	0.266
9.05803	0.259
9.0991	0.136
9.14018	0.054
9.18125	0.03
9.22233	0.047
9.26341	0.119
9.30448	0.222
9.34556	0.288
9.38663	0.335
9.42771	0.357
9.46879	0.401
9.50986	0.461
9.55094	0.494
9.59202	0.502
9.63309	0.507
9.67417	0.511
9.71524	0.502
9.75632	0.473
9.7974	0.408
9.83847	0.312
9.87955	0.179
9.92062	0.085
9.9617	0.039
10.0028	0.03
10.0439	0.029
10.0849	0.03
10.126	0.047
10.1671	0.066
10.2082	0.082
10.2492	0.105
10.2903	0.147
10.3314	0.17
10.3725	0.147
10.4135	0.061
10.4546	0.061
10.4957	0.174
10.5368	0.27
10.5778	0.338
10.6189	0.374
10.66	0.389
10.7011	0.429
10.7421	0.449
10.7832	0.446
10.8243	0.451
10.8654	0.463
10.9065	0.473
10.9475	0.507
10.9886	0.548
11.0297	0.579
11.0708	0.591
11.1118	0.608
11.1529	0.629
11.194	0.642
11.2351	0.646
11.2761	0.632
11.3172	0.593
11.3583	0.545
11.3994	0.499
11.4404	0.442
11.4815	0.394
11.5226	0.391
11.5637	0.452
11.6047	0.502
11.6458	0.519
11.6869	0.54
11.728	0.567
11.7691	0.589
11.8101	0.625
11.8512	0.661
11.8923	0.682
11.9334	0.688
11.9744	0.687
12.0155	0.642
12.0566	0.57
12.0977	0.494
12.1387	0.449
12.1798	0.435
12.2209	0.446
12.262	0.478
12.303	0.512
12.3441	0.541
12.3852	0.555
12.4263	0.555
12.4673	0.557
12.5084	0.57
12.5495	0.567
12.5906	0.533
12.6317	0.499
12.6727	0.464
12.7138	0.386
12.7549	0.335
12.796	0.319
12.837	0.376
12.8781	0.459
12.9192	0.509
12.9603	0.531
13.0013	0.548
13.0424	0.564
13.0835	0.576
13.1246	0.557
13.1656	0.533
13.2067	0.528
13.2478	0.545
13.2889	0.565
13.3299	0.576
13.371	0.589
13.4121	0.601
13.4532	0.618
13.4943	0.629
13.5353	0.632
13.5764	0.63
13.6175	0.623
13.6586	0.617
13.6996	0.613
13.7407	0.613
13.7818	0.611
13.8229	0.611
13.8639	0.61
13.905	0.61
13.9461	0.61
13.9872	0.61
14.0282	0.608
14.0693	0.606
14.1104	0.603
14.1515	0.598
14.1925	0.598
14.2336	0.598
14.2747	0.594
14.3158	0.591
14.3569	0.588
14.3979	0.582
14.439	0.579
14.4801	0.576
14.5212	0.574
14.5622	0.564
14.6033	0.557
14.6444	0.548
14.6855	0.541
14.7265	0.533
14.7676	0.523
14.8087	0.514
14.8498	0.505
14.8908	0.5
14.9319	0.497
14.973	0.492
15.0141	0.478
15.0551	0.458
15.0962	0.449
15.1373	0.441
15.1784	0.43
15.2195	0.422
15.2605	0.413
15.3016	0.408
15.3427	0.403
15.3838	0.401
15.4248	0.4
15.4659	0.4
15.507	0.4
15.5481	0.398
15.5891	0.398
15.6302	0.396
15.6713	0.396
15.7124	0.396
15.7534	0.396
15.7945	0.396
15.8356	0.398
15.8767	0.4
