Infrared Spectrum: 2-(2-METHYL-6-ETHYLPHENOXY)-3-(5-NONYL) PYRAZINE
Formula: C22 H32 N2 O
CAS: 116668-93-0
State: LIQUID
Class: COBLENTZ
Instrument: Not specified, most likely a prism, grating, or hybrid spectrometer.
Sampling: TRANSMISSION
Path length: 0.0015 CM
Resolution: 4
Origin: WYANDOTTE CHEMICALS CORP., WYANDOTTE, MICHIGAN, USA
MICROMETERS	TRANSMITTANCE
2.034	0.95
2.0749	0.953
2.11579	0.945
2.15669	0.917
2.19759	0.873
2.23848	0.881
2.27938	0.886
2.32028	0.9
2.36118	0.909
2.40207	0.905
2.44297	0.905
2.48387	0.912
2.52476	0.915
2.56566	0.926
2.60656	0.936
2.64745	0.931
2.68835	0.933
2.72925	0.938
2.77015	0.922
2.81104	0.919
2.85194	0.907
2.89284	0.902
2.93373	0.897
2.97463	0.883
3.01553	0.866
3.05642	0.866
3.09732	0.855
3.13822	0.821
3.17912	0.814
3.22001	0.687
3.26091	0.363
3.30181	0.425
3.3427	0.049
3.3836	0.049
3.4245	0.078
3.46539	0.102
3.50629	0.222
3.54719	0.662
3.58808	0.763
3.62898	0.787
3.66988	0.778
3.71078	0.811
3.75167	0.823
3.79257	0.838
3.83347	0.84
3.87436	0.85
3.91526	0.849
3.95616	0.857
3.99705	0.873
4.03795	0.866
4.07885	0.854
4.11975	0.835
4.16064	0.849
4.20154	0.862
4.24244	0.869
4.28333	0.885
4.32423	0.891
4.36513	0.89
4.40602	0.881
4.44692	0.873
4.48782	0.879
4.52872	0.888
4.56961	0.893
4.61051	0.895
4.65141	0.89
4.6923	0.893
4.7332	0.9
4.7741	0.9
4.81499	0.893
4.85589	0.9
4.89679	0.897
4.93769	0.9
4.97858	0.883
5.01948	0.867
5.06038	0.871
5.10127	0.883
5.14217	0.885
5.18307	0.862
5.22396	0.826
5.26486	0.869
5.30576	0.879
5.34665	0.876
5.38755	0.852
5.42845	0.84
5.46935	0.874
5.51024	0.867
5.55114	0.85
5.59204	0.801
5.63293	0.835
5.67383	0.862
5.71473	0.852
5.75562	0.814
5.79652	0.806
5.83742	0.789
5.87832	0.77
5.91921	0.763
5.96011	0.746
6.00101	0.754
6.0419	0.763
6.0828	0.763
6.1237	0.739
6.16459	0.691
6.20549	0.662
6.24639	0.56
6.28729	0.433
6.32818	0.583
6.36908	0.602
6.40998	0.427
6.45087	0.159
6.49177	0.157
6.53267	0.473
6.57356	0.548
6.61446	0.548
6.65536	0.487
6.69625	0.298
6.73715	0.125
6.77805	0.053
6.81895	0.085
6.85984	0.13
6.90074	0.164
6.94164	0.222
6.98253	0.241
7.02343	0.078
7.06433	0.046
7.10522	0.044
7.14612	0.072
7.18702	0.133
7.22792	0.092
7.26881	0.085
7.30971	0.08
7.35061	0.068
7.3915	0.113
7.4324	0.188
7.4733	0.234
7.51419	0.281
7.55509	0.334
7.59599	0.283
7.63689	0.176
7.67778	0.08
7.71868	0.06
7.75958	0.049
7.80047	0.044
7.84137	0.061
7.88227	0.108
7.92316	0.149
7.96406	0.24
8.00496	0.327
8.04585	0.377
8.08675	0.334
8.12765	0.331
8.16855	0.377
8.20944	0.379
8.25034	0.404
8.29124	0.404
8.33213	0.341
8.37303	0.246
8.41393	0.113
8.45482	0.046
8.49572	0.042
8.53662	0.044
8.57752	0.046
8.61841	0.094
8.65931	0.18
8.70021	0.269
8.7411	0.399
8.782	0.49
8.8229	0.502
8.86379	0.406
8.90469	0.36
8.94559	0.387
8.98649	0.421
9.02738	0.312
9.06828	0.156
9.10918	0.274
9.15007	0.463
9.19097	0.514
9.23187	0.524
9.27276	0.533
9.31366	0.512
9.35456	0.554
9.39546	0.55
9.43635	0.533
9.47725	0.614
9.51815	0.655
9.55904	0.679
9.59994	0.658
9.64084	0.634
9.68173	0.655
9.72263	0.68
9.76353	0.679
9.80442	0.668
9.84532	0.595
9.88622	0.334
9.92712	0.303
9.96801	0.627
10.0089	0.698
10.0498	0.722
10.0907	0.723
10.1316	0.708
10.1725	0.684
10.2134	0.682
10.2543	0.694
10.2952	0.691
10.3361	0.668
10.377	0.644
10.4179	0.641
10.4588	0.66
10.4997	0.662
10.5406	0.672
10.5815	0.689
10.6224	0.689
10.6633	0.67
10.7042	0.626
10.7451	0.598
10.786	0.622
10.8268	0.675
10.8677	0.71
10.9086	0.728
10.9495	0.734
10.9904	0.711
11.0313	0.65
11.0722	0.54
11.1131	0.397
11.154	0.365
11.1949	0.396
11.2358	0.488
11.2767	0.602
11.3176	0.68
11.3585	0.686
11.3994	0.65
11.4403	0.571
11.4812	0.454
11.5221	0.391
11.563	0.466
11.6039	0.591
11.6448	0.62
11.6857	0.578
11.7266	0.511
11.7675	0.428
11.8084	0.353
11.8493	0.327
11.8902	0.351
11.9311	0.476
11.972	0.574
12.0129	0.6
12.0538	0.608
12.0947	0.655
12.1356	0.694
12.1764	0.711
12.2173	0.72
12.2582	0.728
12.2991	0.735
12.34	0.723
12.3809	0.704
12.4218	0.667
12.4627	0.632
12.5036	0.595
12.5445	0.578
12.5854	0.576
12.6263	0.545
12.6672	0.451
12.7081	0.349
12.749	0.289
12.7899	0.245
12.8308	0.183
12.8717	0.149
12.9126	0.123
12.9535	0.114
12.9944	0.138
13.0353	0.228
13.0762	0.332
13.1171	0.403
13.158	0.452
13.1989	0.5
13.2398	0.524
13.2807	0.538
13.3216	0.554
13.3625	0.572
13.4034	0.59
13.4443	0.598
13.4852	0.598
13.526	0.586
13.5669	0.574
13.6078	0.581
13.6487	0.595
13.6896	0.619
13.7305	0.639
13.7714	0.698
13.8123	0.739
13.8532	0.773
13.8941	0.783
13.935	0.795
13.9759	0.802
14.0168	0.804
14.0577	0.807
14.0986	0.816
14.1395	0.816
14.1804	0.826
14.2213	0.831
14.2622	0.833
14.3031	0.84
14.344	0.837
14.3849	0.833
14.4258	0.825
14.4667	0.809
14.5076	0.807
14.5485	0.807
14.5894	0.811
14.6303	0.807
14.6712	0.802
14.7121	0.794
14.753	0.795
14.7939	0.801
14.8348	0.809
14.8756	0.806
14.9165	0.816
14.9574	0.804
14.9983	0.789
15.0392	0.749
15.0801	0.735
15.121	0.754
15.1619	0.771
15.2028	0.789
15.2437	0.799
15.2846	0.794
15.3255	0.787
15.3664	0.789
15.4073	0.794
15.4482	0.787
15.4891	0.789
15.53	0.782
15.5709	0.778
15.6118	0.768
15.6527	0.768
15.6936	0.766
15.7345	0.761
15.7754	0.751
15.8163	0.751
15.8572	0.746
15.8981	0.737
15.939	0.722
15.9799	0.727
