Infrared Spectrum: 2-PHENYL MERCAPTO-3-PHENACYL PYRAZINE
Formula: C18 H14 N2 O S
CAS: 116659-82-6
State: SOLID (MINERAL OIL MULL)
Melting point: 111-112 C
Class: COBLENTZ
Instrument: Not specified, most likely a prism, grating, or hybrid spectrometer.
Sampling: TRANSMISSION
Resolution: 4
Origin: WYANDOTTE CHEMICALS CORP., WYANDOTTE, MICHIGAN, USA
MICROMETERS	TRANSMITTANCE
2.013	0.252
2.05291	0.262
2.09281	0.267
2.13272	0.271
2.17262	0.276
2.21253	0.281
2.25244	0.286
2.29234	0.291
2.33225	0.296
2.37215	0.299
2.41206	0.302
2.45196	0.312
2.49187	0.321
2.53178	0.322
2.57168	0.331
2.61159	0.337
2.65149	0.337
2.6914	0.339
2.73131	0.339
2.77121	0.341
2.81112	0.342
2.85102	0.342
2.89093	0.344
2.93083	0.342
2.97074	0.344
3.01065	0.347
3.05055	0.356
3.09046	0.371
3.13036	0.376
3.17027	0.381
3.21018	0.384
3.25008	0.389
3.28999	0.334
3.32989	0.317
3.3698	0.168
3.4097	0.038
3.44961	0.046
3.48952	0.093
3.52942	0.101
3.56933	0.381
3.60923	0.489
3.64914	0.512
3.68905	0.505
3.72895	0.507
3.76886	0.514
3.80876	0.517
3.84867	0.532
3.88857	0.532
3.92848	0.544
3.96839	0.552
4.00829	0.554
4.0482	0.559
4.0881	0.562
4.12801	0.567
4.16792	0.565
4.20782	0.569
4.24773	0.579
4.28763	0.562
4.32754	0.56
4.36744	0.569
4.40735	0.595
4.44726	0.615
4.48716	0.623
4.52707	0.632
4.56697	0.637
4.60688	0.64
4.64679	0.643
4.68669	0.658
4.7266	0.658
4.7665	0.662
4.80641	0.675
4.84631	0.685
4.88622	0.692
4.92613	0.695
4.96603	0.702
5.00594	0.707
5.04584	0.712
5.08575	0.718
5.12566	0.722
5.16556	0.72
5.20547	0.712
5.24537	0.713
5.28528	0.742
5.32518	0.75
5.36509	0.723
5.405	0.72
5.4449	0.752
5.48481	0.77
5.52471	0.777
5.56462	0.778
5.60453	0.778
5.64443	0.777
5.68434	0.777
5.72424	0.788
5.76415	0.792
5.80406	0.797
5.84396	0.81
5.88387	0.816
5.92377	0.831
5.96368	0.82
6.00358	0.803
6.04349	0.75
6.0834	0.589
6.1233	0.362
6.16321	0.251
6.20311	0.422
6.24302	0.574
6.28293	0.647
6.32283	0.442
6.36274	0.569
6.40264	0.61
6.44255	0.667
6.48245	0.69
6.52236	0.695
6.56227	0.703
6.60217	0.737
6.64208	0.62
6.68198	0.309
6.72189	0.241
6.7618	0.382
6.8017	0.256
6.84161	0.176
6.88151	0.073
6.92142	0.121
6.96132	0.214
7.00123	0.297
7.04114	0.289
7.08104	0.389
7.12095	0.472
7.16085	0.51
7.20076	0.509
7.24067	0.454
7.28057	0.352
7.32048	0.371
7.36038	0.46
7.40029	0.582
7.44019	0.605
7.4801	0.647
7.52001	0.65
7.55991	0.63
7.59982	0.617
7.63972	0.63
7.67963	0.65
7.71954	0.615
7.75944	0.58
7.79935	0.64
7.83925	0.652
7.87916	0.625
7.91906	0.643
7.95897	0.65
7.99888	0.51
8.03878	0.376
8.07869	0.467
8.11859	0.612
8.1585	0.667
8.19841	0.718
8.23831	0.743
8.27822	0.735
8.31812	0.747
8.35803	0.772
8.39793	0.782
8.43784	0.703
8.47775	0.574
8.51765	0.71
8.55756	0.678
8.59746	0.61
8.63737	0.367
8.67728	0.327
8.71718	0.317
8.75709	0.317
8.79699	0.485
8.8369	0.632
8.87681	0.702
8.91671	0.737
8.95662	0.76
8.99652	0.77
9.03643	0.788
9.07633	0.793
9.11624	0.763
9.15615	0.775
9.19605	0.723
9.23596	0.547
9.27586	0.321
9.31577	0.141
9.35568	0.311
9.39558	0.417
9.43549	0.532
9.47539	0.602
9.5153	0.642
9.5552	0.682
9.59511	0.72
9.63502	0.758
9.67492	0.775
9.71483	0.772
9.75473	0.713
9.79464	0.653
9.83455	0.602
9.87445	0.743
9.91436	0.782
9.95426	0.805
9.99417	0.792
10.0341	0.71
10.074	0.773
10.1139	0.783
10.1538	0.778
10.1937	0.785
10.2336	0.793
10.2735	0.805
10.3134	0.805
10.3533	0.801
10.3932	0.773
10.4331	0.772
10.473	0.801
10.5129	0.811
10.5529	0.816
10.5928	0.816
10.6327	0.801
10.6726	0.78
10.7125	0.795
10.7524	0.801
10.7923	0.798
10.8322	0.792
10.8721	0.778
10.912	0.757
10.9519	0.717
10.9918	0.667
11.0317	0.552
11.0716	0.529
11.1115	0.5
11.1514	0.474
11.1913	0.479
11.2312	0.534
11.2712	0.572
11.3111	0.628
11.351	0.695
11.3909	0.752
11.4308	0.798
11.4707	0.826
11.5106	0.843
11.5505	0.86
11.5904	0.865
11.6303	0.866
11.6702	0.866
11.7101	0.871
11.75	0.87
11.7899	0.853
11.8298	0.82
11.8697	0.76
11.9096	0.657
11.9496	0.532
11.9895	0.415
12.0294	0.362
12.0693	0.427
12.1092	0.485
12.1491	0.608
12.189	0.728
12.2289	0.805
12.2688	0.856
12.3087	0.885
12.3486	0.898
12.3885	0.905
12.4284	0.911
12.4683	0.916
12.5082	0.92
12.5481	0.926
12.588	0.928
12.628	0.925
12.6679	0.91
12.7078	0.906
12.7477	0.931
12.7876	0.931
12.8275	0.911
12.8674	0.875
12.9073	0.795
12.9472	0.625
12.9871	0.524
13.027	0.722
13.0669	0.845
13.1068	0.89
13.1467	0.916
13.1866	0.92
13.2265	0.915
13.2664	0.9
13.3064	0.88
13.3463	0.85
13.3862	0.792
13.4261	0.698
13.466	0.537
13.5059	0.307
13.5458	0.159
13.5857	0.154
13.6256	0.161
13.6655	0.151
13.7054	0.178
13.7453	0.252
13.7852	0.379
13.8251	0.522
13.865	0.633
13.9049	0.692
13.9448	0.743
13.9848	0.788
14.0247	0.826
14.0646	0.853
14.1045	0.871
14.1444	0.888
14.1843	0.88
14.2242	0.81
14.2641	0.745
14.304	0.738
14.3439	0.81
14.3838	0.848
14.4237	0.863
14.4636	0.855
14.5035	0.821
14.5434	0.767
14.5833	0.692
14.6232	0.557
14.6632	0.396
14.7031	0.271
14.743	0.201
14.7829	0.226
14.8228	0.382
14.8627	0.539
14.9026	0.647
14.9425	0.715
14.9824	0.742
15.0223	0.758
15.0622	0.745
15.1021	0.702
15.142	0.652
15.1819	0.63
15.2218	0.613
15.2617	0.607
15.3016	0.597
15.3416	0.595
15.3815	0.62
15.4214	0.665
15.4613	0.71
15.5012	0.727
15.5411	0.728
15.581	0.728
15.6209	0.735
15.6608	0.733
15.7007	0.727
15.7406	0.713
15.7805	0.7
15.8204	0.697
15.8603	0.687
15.9002	0.662
15.9401	0.652
15.98	0.638
