Infrared Spectrum: 2-(P-PHENYLPHENOXY)-3-(5-NONYL) PYRAZINE
Formula: C25 H30 N2 O
CAS: 116660-12-9
State: SOLID (MINERAL OIL MULL)
Melting point: 69-70.5 C
Class: COBLENTZ
Instrument: Not specified, most likely a prism, grating, or hybrid spectrometer.
Sampling: TRANSMISSION
Resolution: 4
Origin: WYANDOTTE CHEMICALS CORP., WYANDOTTE, MICHIGAN, USA
MICROMETERS	TRANSMITTANCE
2.04	0.503
2.07975	0.508
2.11951	0.523
2.15926	0.518
2.19902	0.521
2.23877	0.531
2.27853	0.541
2.31828	0.55
2.35804	0.553
2.39779	0.561
2.43754	0.571
2.4773	0.585
2.51705	0.59
2.55681	0.596
2.59656	0.605
2.63632	0.616
2.67607	0.611
2.71583	0.62
2.75558	0.63
2.79533	0.633
2.83509	0.633
2.87484	0.631
2.9146	0.631
2.95435	0.631
2.99411	0.631
3.03386	0.635
3.07361	0.636
3.11337	0.633
3.15312	0.631
3.19288	0.628
3.23263	0.57
3.27239	0.45
3.31214	0.39
3.3519	0.025
3.39165	0.031
3.4314	0.096
3.47116	0.08
3.51091	0.235
3.55067	0.633
3.59042	0.688
3.63018	0.703
3.66993	0.693
3.70969	0.72
3.74944	0.726
3.78919	0.74
3.82895	0.75
3.8687	0.756
3.90846	0.773
3.94821	0.778
3.98797	0.778
4.02772	0.785
4.06748	0.778
4.10723	0.781
4.14698	0.783
4.18674	0.803
4.22649	0.776
4.26625	0.77
4.306	0.796
4.34576	0.826
4.38551	0.841
4.42526	0.836
4.46502	0.838
4.50477	0.843
4.54453	0.851
4.58428	0.855
4.62404	0.855
4.66379	0.861
4.70355	0.866
4.7433	0.873
4.78305	0.875
4.82281	0.881
4.86256	0.876
4.90232	0.883
4.94207	0.876
4.98183	0.876
5.02158	0.883
5.06134	0.883
5.10109	0.88
5.14084	0.881
5.1806	0.9
5.22035	0.88
5.26011	0.843
5.29986	0.891
5.33962	0.893
5.37937	0.906
5.41913	0.908
5.45888	0.921
5.49863	0.915
5.53839	0.905
5.57814	0.893
5.6179	0.908
5.65765	0.92
5.69741	0.908
5.73716	0.908
5.77692	0.908
5.81667	0.906
5.85642	0.888
5.89618	0.843
5.93593	0.88
5.97569	0.875
6.01544	0.856
6.0552	0.858
6.09495	0.871
6.1347	0.851
6.17446	0.668
6.21421	0.781
6.25397	0.85
6.29372	0.813
6.33348	0.891
6.37323	0.896
6.41299	0.831
6.45274	0.615
6.49249	0.716
6.53225	0.46
6.572	0.43
6.61176	0.691
6.65151	0.361
6.69127	0.17
6.73102	0.43
6.77078	0.208
6.81053	0.231
6.85028	0.268
6.89004	0.405
6.92979	0.456
6.96955	0.61
7.0093	0.558
7.04906	0.305
7.08881	0.106
7.12857	0.151
7.16832	0.421
7.20807	0.428
7.24783	0.275
7.28758	0.198
7.32734	0.086
7.36709	0.196
7.40685	0.388
7.4466	0.506
7.48635	0.646
7.52611	0.715
7.56586	0.705
7.60562	0.605
7.64537	0.516
7.68513	0.51
7.72488	0.335
7.76464	0.46
7.80439	0.575
7.84414	0.39
7.8839	0.325
7.92365	0.595
7.96341	0.66
8.00316	0.641
8.04292	0.71
8.08267	0.728
8.12243	0.655
8.16218	0.358
8.20193	0.07
8.24169	0.15
8.28144	0.373
8.3212	0.523
8.36095	0.55
8.40071	0.538
8.44046	0.485
8.48022	0.295
8.51997	0.171
8.55972	0.17
8.59948	0.33
8.63923	0.518
8.67899	0.355
8.71874	0.451
8.7585	0.631
8.79825	0.7
8.83801	0.695
8.87776	0.63
8.91751	0.721
8.95727	0.75
8.99702	0.696
9.03678	0.563
9.07653	0.588
9.11629	0.655
9.15604	0.758
9.19579	0.75
9.23555	0.68
9.2753	0.64
9.31506	0.761
9.35481	0.803
9.39457	0.813
9.43432	0.83
9.47408	0.85
9.51383	0.856
9.55358	0.823
9.59334	0.82
9.63309	0.858
9.67285	0.866
9.7126	0.863
9.75236	0.848
9.79211	0.786
9.83187	0.853
9.87162	0.648
9.91137	0.515
9.95113	0.765
9.99088	0.816
10.0306	0.851
10.0704	0.875
10.1101	0.886
10.1499	0.883
10.1897	0.875
10.2294	0.883
10.2692	0.885
10.3089	0.878
10.3487	0.866
10.3884	0.856
10.4282	0.855
10.4679	0.831
10.5077	0.791
10.5474	0.78
10.5872	0.84
10.627	0.888
10.6667	0.901
10.7065	0.906
10.7462	0.908
10.786	0.918
10.8257	0.92
10.8655	0.918
10.9052	0.9
10.945	0.901
10.9847	0.865
11.0245	0.841
11.0643	0.818
11.104	0.615
11.1438	0.321
11.1835	0.531
11.2233	0.725
11.263	0.738
11.3028	0.8
11.3425	0.861
11.3823	0.88
11.422	0.865
11.4618	0.835
11.5016	0.775
11.5413	0.658
11.5811	0.426
11.6208	0.298
11.6606	0.471
11.7003	0.591
11.7401	0.536
11.7798	0.4
11.8196	0.526
11.8593	0.62
11.8991	0.655
11.9388	0.788
11.9786	0.846
12.0184	0.853
12.0581	0.803
12.0979	0.773
12.1376	0.83
12.1774	0.883
12.2171	0.896
12.2569	0.895
12.2966	0.886
12.3364	0.886
12.3761	0.885
12.4159	0.888
12.4557	0.9
12.4954	0.915
12.5352	0.925
12.5749	0.928
12.6147	0.931
12.6544	0.928
12.6942	0.92
12.7339	0.901
12.7737	0.865
12.8134	0.738
12.8532	0.583
12.893	0.381
12.9327	0.456
12.9725	0.738
13.0122	0.83
13.052	0.84
13.0917	0.833
13.1315	0.803
13.1712	0.8
13.211	0.766
13.2507	0.735
13.2905	0.65
13.3303	0.483
13.37	0.286
13.4098	0.305
13.4495	0.503
13.4893	0.651
13.529	0.718
13.5688	0.751
13.6085	0.785
13.6483	0.826
13.688	0.833
13.7278	0.783
13.7676	0.738
13.8073	0.756
13.8471	0.786
13.8868	0.831
13.9266	0.871
13.9663	0.893
14.0061	0.906
14.0458	0.91
14.0856	0.911
14.1253	0.888
14.1651	0.856
14.2049	0.785
14.2446	0.698
14.2844	0.613
14.3241	0.461
14.3639	0.331
14.4036	0.37
14.4434	0.545
14.4831	0.743
14.5229	0.826
14.5626	0.873
14.6024	0.9
14.6421	0.913
14.6819	0.913
14.7217	0.915
14.7614	0.913
14.8012	0.918
14.8409	0.913
14.8807	0.908
14.9204	0.911
14.9602	0.895
14.9999	0.86
15.0397	0.83
15.0794	0.823
15.1192	0.861
15.159	0.881
15.1987	0.881
15.2385	0.861
15.2782	0.86
15.318	0.843
15.3577	0.833
15.3975	0.83
15.4372	0.82
15.477	0.803
15.5167	0.79
15.5565	0.781
15.5963	0.773
15.636	0.761
15.6758	0.753
15.7155	0.745
15.7553	0.743
15.795	0.733
15.8348	0.718
15.8745	0.715
15.9143	0.703
15.954	0.688
15.9938	0.681
