Infrared Spectrum: 2-[(3-HYDROXY-2,2,4,4-TETRAMETHYL)CYCLOBUTOXY]-3-METHYLPYRAZINE
Formula: C13 H20 N2 O2
CAS: 116660-39-0
State: LIQUID
Class: COBLENTZ
Instrument: Not specified, most likely a prism, grating, or hybrid spectrometer.
Sampling: TRANSMISSION
Path length: CAPILLARY
Resolution: 4
Origin: WYANDOTTE CHEMICALS CORP., WYANDOTTE, MICHIGAN, USA
MICROMETERS	TRANSMITTANCE
2.041	0.979
2.08186	0.982
2.12271	0.977
2.16357	0.979
2.20442	0.967
2.24528	0.965
2.28614	0.972
2.32699	0.97
2.36785	0.969
2.4087	0.972
2.44956	0.972
2.49042	0.972
2.53127	0.972
2.57213	0.991
2.61298	0.967
2.65384	1
2.6947	0.984
2.73555	0.962
2.77641	0.916
2.81726	0.813
2.85812	0.671
2.89898	0.561
2.93983	0.511
2.98069	0.503
3.02154	0.511
3.0624	0.575
3.10325	0.638
3.14411	0.691
3.18497	0.746
3.22582	0.801
3.26668	0.772
3.30753	0.813
3.34839	0.479
3.38925	0.272
3.4301	0.426
3.47096	0.558
3.51181	0.592
3.55267	0.825
3.59353	0.864
3.63438	0.873
3.67524	0.869
3.71609	0.883
3.75695	0.912
3.79781	0.921
3.83866	0.933
3.87952	0.938
3.92037	0.94
3.96123	0.945
4.00209	0.945
4.04294	0.94
4.0838	0.934
4.12465	0.938
4.16551	0.941
4.20637	0.946
4.24722	0.94
4.28808	0.943
4.32893	0.962
4.36979	0.982
4.41065	0.984
4.4515	0.97
4.49236	0.969
4.53321	0.974
4.57407	0.972
4.61493	0.972
4.65578	0.972
4.69664	0.972
4.73749	0.976
4.77835	0.982
4.81921	0.989
4.86006	0.989
4.90092	0.984
4.94177	0.984
4.98263	0.989
5.02348	0.991
5.06434	0.988
5.1052	0.989
5.14605	0.986
5.18691	0.982
5.22776	0.984
5.26862	0.984
5.30948	0.982
5.35033	0.986
5.39119	0.986
5.43204	0.982
5.4729	0.991
5.51376	0.989
5.55461	0.974
5.59547	0.974
5.63632	0.964
5.67718	0.958
5.71804	0.964
5.75889	0.96
5.79975	0.938
5.8406	0.941
5.88146	0.933
5.92232	0.926
5.96317	0.907
6.00403	0.881
6.04488	0.861
6.08574	0.892
6.1266	0.892
6.16745	0.885
6.20831	0.869
6.24916	0.837
6.29002	0.809
6.33088	0.857
6.37173	0.857
6.41259	0.667
6.45344	0.453
6.4943	0.496
6.53516	0.655
6.57601	0.791
6.61687	0.851
6.65772	0.851
6.69858	0.851
6.73944	0.791
6.78029	0.523
6.82115	0.496
6.862	0.467
6.90286	0.404
6.94371	0.306
6.98457	0.241
7.02543	0.148
7.06628	0.109
7.10714	0.238
7.14799	0.4
7.18885	0.522
7.22971	0.424
7.27056	0.431
7.31142	0.46
7.35227	0.655
7.39313	0.541
7.43399	0.438
7.47484	0.446
7.5157	0.462
7.55655	0.414
7.59741	0.323
7.63827	0.28
7.67912	0.417
7.71998	0.441
7.76083	0.551
7.80169	0.688
7.84255	0.724
7.8834	0.638
7.92426	0.568
7.96511	0.542
8.00597	0.662
8.04683	0.777
8.08768	0.801
8.12854	0.784
8.16939	0.767
8.21025	0.765
8.25111	0.765
8.29196	0.707
8.33282	0.518
8.37367	0.33
8.41453	0.419
8.45539	0.604
8.49624	0.53
8.5371	0.304
8.57795	0.215
8.61881	0.397
8.65967	0.578
8.70052	0.66
8.74138	0.659
8.78223	0.732
8.82309	0.761
8.86394	0.691
8.9048	0.577
8.94566	0.498
8.98651	0.47
9.02737	0.482
9.06822	0.553
9.10908	0.601
9.14994	0.606
9.19079	0.631
9.23165	0.66
9.2725	0.696
9.31336	0.739
9.35422	0.734
9.39507	0.693
9.43593	0.57
9.47678	0.409
9.51764	0.261
9.5585	0.263
9.59935	0.32
9.64021	0.354
9.68106	0.369
9.72192	0.446
9.76278	0.566
9.80363	0.659
9.84449	0.672
9.88534	0.601
9.9262	0.599
9.96706	0.476
10.0079	0.299
10.0488	0.277
10.0896	0.392
10.1305	0.527
10.1713	0.57
10.2122	0.575
10.253	0.601
10.2939	0.684
10.3348	0.763
10.3756	0.794
10.4165	0.813
10.4573	0.811
10.4982	0.808
10.539	0.808
10.5799	0.821
10.6208	0.84
10.6616	0.864
10.7025	0.873
10.7433	0.88
10.7842	0.885
10.825	0.883
10.8659	0.883
10.9067	0.883
10.9476	0.875
10.9885	0.873
11.0293	0.871
11.0702	0.863
11.111	0.837
11.1519	0.815
11.1927	0.82
11.2336	0.832
11.2744	0.84
11.3153	0.851
11.3562	0.859
11.397	0.866
11.4379	0.859
11.4787	0.849
11.5196	0.835
11.5604	0.809
11.6013	0.782
11.6421	0.746
11.683	0.729
11.7239	0.727
11.7647	0.732
11.8056	0.719
11.8464	0.684
11.8873	0.647
11.9281	0.609
11.969	0.597
12.0099	0.645
12.0507	0.717
12.0916	0.796
12.1324	0.825
12.1733	0.84
12.2141	0.84
12.255	0.844
12.2958	0.847
12.3367	0.849
12.3776	0.854
12.4184	0.859
12.4593	0.861
12.5001	0.868
12.541	0.864
12.5818	0.866
12.6227	0.851
12.6635	0.84
12.7044	0.828
12.7453	0.828
12.7861	0.842
12.827	0.851
12.8678	0.852
12.9087	0.849
12.9495	0.851
12.9904	0.835
13.0313	0.83
13.0721	0.839
13.113	0.823
13.1538	0.827
13.1947	0.84
13.2355	0.851
13.2764	0.854
13.3172	0.851
13.3581	0.844
13.399	0.849
13.4398	0.852
13.4807	0.852
13.5215	0.859
13.5624	0.864
13.6032	0.863
13.6441	0.866
13.6849	0.869
13.7258	0.869
13.7667	0.866
13.8075	0.869
13.8484	0.869
13.8892	0.863
13.9301	0.861
13.9709	0.864
14.0118	0.854
14.0527	0.863
14.0935	0.854
14.1344	0.852
14.1752	0.852
14.2161	0.852
14.2569	0.849
14.2978	0.845
14.3386	0.844
14.3795	0.842
14.4204	0.837
14.4612	0.832
14.5021	0.832
14.5429	0.83
14.5838	0.821
14.6246	0.823
14.6655	0.82
14.7063	0.82
14.7472	0.815
14.7881	0.811
14.8289	0.811
14.8698	0.808
14.9106	0.808
14.9515	0.801
14.9923	0.794
15.0332	0.772
15.0741	0.763
15.1149	0.789
15.1558	0.791
15.1966	0.791
15.2375	0.782
15.2783	0.782
15.3192	0.772
15.36	0.775
15.4009	0.772
15.4418	0.763
15.4826	0.753
15.5235	0.755
15.5643	0.751
15.6052	0.746
15.646	0.741
15.6869	0.739
15.7277	0.734
15.7686	0.736
15.8095	0.734
15.8503	0.729
15.8912	0.724
15.932	0.72
15.9729	0.72
