Infrared Spectrum: 2-(N-n-HEXYLAMINO)-3-METHYL PYRAZINE
Formula: C11 H19 N3
CAS: 116660-37-8
State: LIQUID
Class: COBLENTZ
Instrument: Not specified, most likely a prism, grating, or hybrid spectrometer.
Sampling: TRANSMISSION
Path length: 0.0015 CM
Resolution: 4
Origin: WYANDOTTE CHEMICALS CORP., WYANDOTTE, MICHIGAN, USA
MICROMETERS	TRANSMITTANCE
2.047	0.977
2.08766	0.974
2.12832	0.962
2.16898	0.943
2.20964	0.904
2.2503	0.914
2.29096	0.925
2.33162	0.926
2.37228	0.93
2.41294	0.935
2.4536	0.926
2.49426	0.933
2.53492	0.947
2.57558	0.955
2.61624	0.955
2.6569	0.95
2.69756	0.938
2.73821	0.935
2.77887	0.897
2.81953	0.844
2.86019	0.664
2.90085	0.436
2.94151	0.349
2.98217	0.226
3.02283	0.146
3.06349	0.245
3.10415	0.521
3.14481	0.616
3.18547	0.618
3.22613	0.534
3.26679	0.357
3.30745	0.449
3.34811	0.143
3.38877	0.051
3.42943	0.074
3.47009	0.115
3.51075	0.195
3.55141	0.643
3.59207	0.754
3.63273	0.78
3.67339	0.795
3.71405	0.819
3.75471	0.829
3.79537	0.856
3.83603	0.863
3.87669	0.862
3.91735	0.879
3.95801	0.868
3.99867	0.879
4.03933	0.875
4.07998	0.851
4.12064	0.875
4.1613	0.86
4.20196	0.822
4.24262	0.843
4.28328	0.64
4.32394	0.805
4.3646	0.879
4.40526	0.884
4.44592	0.875
4.48658	0.892
4.52724	0.911
4.5679	0.918
4.60856	0.909
4.64922	0.914
4.68988	0.908
4.73054	0.913
4.7712	0.926
4.81186	0.926
4.85252	0.923
4.89318	0.919
4.93384	0.923
4.9745	0.919
5.01516	0.926
5.05582	0.93
5.09648	0.93
5.13714	0.925
5.1778	0.921
5.21846	0.916
5.25912	0.913
5.29978	0.897
5.34044	0.865
5.3811	0.906
5.42175	0.919
5.46241	0.926
5.50307	0.918
5.54373	0.901
5.58439	0.896
5.62505	0.87
5.66571	0.839
5.70637	0.844
5.74703	0.856
5.78769	0.836
5.82835	0.834
5.86901	0.819
5.90967	0.79
5.95033	0.751
5.99099	0.712
6.03165	0.688
6.07231	0.66
6.11297	0.591
6.15363	0.431
6.19429	0.199
6.23495	0.056
6.27561	0.045
6.31627	0.214
6.35693	0.287
6.39759	0.085
6.43825	0.056
6.47891	0.052
6.51957	0.051
6.56023	0.051
6.60089	0.059
6.64155	0.052
6.68221	0.086
6.72287	0.122
6.76353	0.097
6.80418	0.073
6.84484	0.097
6.8855	0.09
6.92616	0.078
6.96682	0.119
7.00748	0.264
7.04814	0.262
7.0888	0.16
7.12946	0.12
7.17012	0.178
7.21078	0.131
7.25144	0.054
7.2921	0.056
7.33276	0.083
7.37342	0.129
7.41408	0.144
7.45474	0.144
7.4954	0.148
7.53606	0.214
7.57672	0.311
7.61738	0.359
7.65804	0.376
7.6987	0.453
7.73936	0.516
7.78002	0.507
7.82068	0.475
7.86134	0.402
7.902	0.24
7.94266	0.25
7.98332	0.327
8.02398	0.482
8.06464	0.471
8.1053	0.39
8.14595	0.412
8.18661	0.403
8.22727	0.321
8.26793	0.103
8.30859	0.049
8.34925	0.051
8.38991	0.195
8.43057	0.383
8.47123	0.374
8.51189	0.277
8.55255	0.156
8.59321	0.165
8.63387	0.287
8.67453	0.429
8.71519	0.488
8.75585	0.524
8.79651	0.5
8.83717	0.497
8.87783	0.509
8.91849	0.528
8.95915	0.633
8.99981	0.689
9.04047	0.696
9.08113	0.672
9.12179	0.638
9.16245	0.58
9.20311	0.553
9.24377	0.584
9.28443	0.584
9.32509	0.582
9.36575	0.599
9.40641	0.628
9.44707	0.662
9.48772	0.674
9.52838	0.679
9.56904	0.672
9.6097	0.662
9.65036	0.63
9.69102	0.567
9.73168	0.533
9.77234	0.597
9.813	0.655
9.85366	0.659
9.89432	0.611
9.93498	0.618
9.97564	0.635
10.0163	0.63
10.057	0.601
10.0976	0.516
10.1383	0.361
10.1789	0.248
10.2196	0.183
10.2603	0.229
10.3009	0.364
10.3416	0.48
10.3822	0.558
10.4229	0.591
10.4636	0.611
10.5042	0.626
10.5449	0.64
10.5855	0.655
10.6262	0.655
10.6669	0.672
10.7075	0.705
10.7482	0.722
10.7888	0.744
10.8295	0.756
10.8702	0.763
10.9108	0.77
10.9515	0.773
10.9921	0.768
11.0328	0.761
11.0735	0.756
11.1141	0.737
11.1548	0.718
11.1954	0.712
11.2361	0.7
11.2768	0.715
11.3174	0.712
11.3581	0.696
11.3987	0.7
11.4394	0.708
11.4801	0.724
11.5207	0.729
11.5614	0.727
11.602	0.722
11.6427	0.718
11.6833	0.701
11.724	0.674
11.7647	0.654
11.8053	0.614
11.846	0.567
11.8866	0.495
11.9273	0.419
11.968	0.333
12.0086	0.27
12.0493	0.207
12.0899	0.177
12.1306	0.16
12.1713	0.168
12.2119	0.235
12.2526	0.325
12.2932	0.451
12.3339	0.546
12.3746	0.597
12.4152	0.613
12.4559	0.62
12.4965	0.637
12.5372	0.638
12.5779	0.64
12.6185	0.638
12.6592	0.647
12.6998	0.654
12.7405	0.667
12.7812	0.671
12.8218	0.679
12.8625	0.662
12.9031	0.64
12.9438	0.616
12.9845	0.608
13.0251	0.62
13.0658	0.626
13.1064	0.628
13.1471	0.625
13.1878	0.63
13.2284	0.633
13.2691	0.633
13.3097	0.632
13.3504	0.637
13.3911	0.643
13.4317	0.647
13.4724	0.645
13.513	0.637
13.5537	0.635
13.5944	0.625
13.635	0.601
13.6757	0.587
13.7163	0.557
13.757	0.529
13.7977	0.519
13.8383	0.526
13.879	0.565
13.9196	0.599
13.9603	0.637
14.001	0.655
14.0416	0.672
14.0823	0.683
14.1229	0.696
14.1636	0.701
14.2042	0.705
14.2449	0.712
14.2856	0.708
14.3262	0.712
14.3669	0.706
14.4075	0.705
14.4482	0.705
14.4889	0.701
14.5295	0.698
14.5702	0.703
14.6108	0.701
14.6515	0.696
14.6922	0.696
14.7328	0.691
14.7735	0.688
14.8141	0.686
14.8548	0.681
14.8955	0.676
14.9361	0.674
14.9768	0.671
15.0174	0.652
15.0581	0.618
15.0988	0.604
15.1394	0.616
15.1801	0.633
15.2207	0.643
15.2614	0.647
15.3021	0.645
15.3427	0.64
15.3834	0.635
15.424	0.633
15.4647	0.63
15.5054	0.628
15.546	0.618
15.5867	0.62
15.6273	0.613
15.668	0.608
15.7087	0.604
15.7493	0.597
15.79	0.594
15.8306	0.589
15.8713	0.589
15.912	0.586
15.9526	0.582
