Infrared Spectrum: 2-(O-ISOPROPYLPHENOXY)-3-METHYL PYRAZINE
Formula: C14 H16 N2 O
CAS: 116660-40-3
State: LIQUID
Class: COBLENTZ
Instrument: Not specified, most likely a prism, grating, or hybrid spectrometer.
Sampling: TRANSMISSION
Path length: 0.0015 CM
Resolution: 4
Origin: WYANDOTTE CHEMICALS CORP., WYANDOTTE, MICHIGAN, USA
MICROMETERS	TRANSMITTANCE
2.04	0.973
2.07987	0.971
2.11973	0.97
2.1596	0.963
2.19946	0.95
2.23933	0.955
2.27919	0.955
2.31906	0.948
2.35893	0.958
2.39879	0.958
2.43866	0.958
2.47852	0.958
2.51839	0.96
2.55825	0.973
2.59812	0.971
2.63799	0.97
2.67785	0.963
2.71772	0.958
2.75758	0.955
2.79745	0.94
2.83731	0.928
2.87718	0.923
2.91705	0.917
2.95691	0.917
2.99678	0.908
3.03664	0.905
3.07651	0.895
3.11637	0.89
3.15624	0.882
3.19611	0.842
3.23597	0.535
3.27584	0.706
3.3157	0.376
3.35557	0.321
3.39543	0.444
3.4353	0.547
3.47517	0.698
3.51503	0.862
3.5549	0.882
3.59476	0.898
3.63463	0.898
3.67449	0.902
3.71436	0.913
3.75423	0.927
3.79409	0.922
3.83396	0.92
3.87382	0.912
3.91369	0.91
3.95355	0.92
3.99342	0.928
4.03329	0.908
4.07315	0.903
4.11302	0.897
4.15288	0.918
4.19275	0.912
4.23261	0.895
4.27248	0.9
4.31235	0.902
4.35221	0.925
4.39208	0.928
4.43194	0.92
4.47181	0.93
4.51167	0.936
4.55154	0.933
4.59141	0.923
4.63127	0.932
4.67114	0.93
4.711	0.93
4.75087	0.93
4.79073	0.93
4.8306	0.925
4.87047	0.923
4.91033	0.913
4.9502	0.923
4.99006	0.918
5.02993	0.905
5.06979	0.92
5.10966	0.915
5.14953	0.897
5.18939	0.898
5.22926	0.88
5.26912	0.87
5.30899	0.905
5.34885	0.915
5.38872	0.925
5.42859	0.922
5.46845	0.9
5.50832	0.89
5.54818	0.859
5.58805	0.875
5.62791	0.888
5.66778	0.902
5.70765	0.895
5.74751	0.88
5.78738	0.872
5.82724	0.855
5.86711	0.855
5.90697	0.844
5.94684	0.825
5.98671	0.83
6.02657	0.824
6.06644	0.814
6.1063	0.792
6.14617	0.746
6.18603	0.728
6.2259	0.601
6.26577	0.529
6.30563	0.678
6.3455	0.678
6.38536	0.522
6.42523	0.286
6.46509	0.19
6.50496	0.381
6.54483	0.588
6.58469	0.555
6.62456	0.384
6.66442	0.064
6.70429	0.326
6.74415	0.432
6.78402	0.305
6.82389	0.112
6.86375	0.129
6.90362	0.124
6.94348	0.134
6.98335	0.182
7.02321	0.096
7.06308	0.033
7.10295	0.033
7.14281	0.048
7.18268	0.107
7.22254	0.142
7.26241	0.222
7.30227	0.32
7.34214	0.532
7.38201	0.447
7.42187	0.422
7.46174	0.461
7.5016	0.399
7.54147	0.406
7.58133	0.359
7.6212	0.157
7.66107	0.059
7.70093	0.081
7.7408	0.054
7.78066	0.058
7.82053	0.172
7.86039	0.295
7.90026	0.147
7.94013	0.058
7.97999	0.127
8.01986	0.391
8.05972	0.462
8.09959	0.27
8.13945	0.036
8.17932	0.081
8.21919	0.257
8.25905	0.349
8.29892	0.306
8.33878	0.17
8.37865	0.048
8.41851	0.067
8.45838	0.034
8.49825	0.099
8.53811	0.31
8.57798	0.145
8.61784	0.082
8.65771	0.189
8.69757	0.291
8.73744	0.484
8.77731	0.656
8.81717	0.711
8.85704	0.719
8.8969	0.693
8.93677	0.64
8.97663	0.656
9.0165	0.709
9.05637	0.711
9.09623	0.615
9.1361	0.396
9.17596	0.127
9.21583	0.268
9.25569	0.57
9.29556	0.676
9.33543	0.706
9.37529	0.739
9.41516	0.751
9.45502	0.721
9.49489	0.65
9.53475	0.666
9.57462	0.558
9.61449	0.431
9.65435	0.348
9.69422	0.459
9.73408	0.646
9.77395	0.721
9.81381	0.728
9.85368	0.514
9.89355	0.495
9.93341	0.774
9.97328	0.81
10.0131	0.817
10.053	0.809
10.0929	0.781
10.1327	0.719
10.1726	0.608
10.2125	0.519
10.2523	0.535
10.2922	0.63
10.3321	0.689
10.3719	0.711
10.4118	0.731
10.4517	0.752
10.4915	0.774
10.5314	0.779
10.5713	0.769
10.6111	0.736
10.651	0.714
10.6909	0.746
10.7307	0.791
10.7706	0.812
10.8105	0.809
10.8503	0.787
10.8902	0.794
10.9301	0.776
10.9699	0.671
11.0098	0.502
11.0497	0.49
11.0895	0.711
11.1294	0.772
11.1692	0.761
11.2091	0.731
11.249	0.766
11.2888	0.802
11.3287	0.809
11.3686	0.802
11.4084	0.772
11.4483	0.723
11.4882	0.66
11.528	0.585
11.5679	0.522
11.6078	0.497
11.6476	0.497
11.6875	0.504
11.7274	0.499
11.7672	0.457
11.8071	0.431
11.847	0.426
11.8868	0.459
11.9267	0.499
11.9666	0.573
12.0064	0.61
12.0463	0.533
12.0862	0.454
12.126	0.606
12.1659	0.736
12.2058	0.779
12.2456	0.796
12.2855	0.8
12.3254	0.787
12.3652	0.756
12.4051	0.683
12.445	0.575
12.4848	0.497
12.5247	0.517
12.5645	0.61
12.6044	0.676
12.6443	0.719
12.6841	0.719
12.724	0.676
12.7639	0.578
12.8037	0.487
12.8436	0.427
12.8835	0.441
12.9233	0.53
12.9632	0.588
13.0031	0.592
13.0429	0.538
13.0828	0.479
13.1227	0.398
13.1625	0.283
13.2024	0.175
13.2423	0.109
13.2821	0.092
13.322	0.119
13.3619	0.194
13.4017	0.325
13.4416	0.441
13.4815	0.504
13.5213	0.522
13.5612	0.583
13.6011	0.66
13.6409	0.711
13.6808	0.746
13.7207	0.772
13.7605	0.781
13.8004	0.781
13.8403	0.752
13.8801	0.721
13.92	0.691
13.9598	0.699
13.9997	0.729
14.0396	0.762
14.0794	0.787
14.1193	0.807
14.1592	0.82
14.199	0.824
14.2389	0.817
14.2788	0.804
14.3186	0.794
14.3585	0.8
14.3984	0.82
14.4382	0.835
14.4781	0.844
14.518	0.85
14.5578	0.85
14.5977	0.85
14.6376	0.852
14.6774	0.857
14.7173	0.857
14.7572	0.85
14.797	0.85
14.8369	0.852
14.8768	0.85
14.9166	0.849
14.9565	0.835
14.9964	0.812
15.0362	0.791
15.0761	0.802
15.116	0.832
15.1558	0.837
15.1957	0.832
15.2356	0.824
15.2754	0.812
15.3153	0.8
15.3551	0.794
15.395	0.784
15.4349	0.787
15.4747	0.776
15.5146	0.776
15.5545	0.777
15.5943	0.776
15.6342	0.766
15.6741	0.751
15.7139	0.737
15.7538	0.724
15.7937	0.714
15.8335	0.714
15.8734	0.714
15.9133	0.718
15.9531	0.716
15.993	0.716
