Infrared Spectrum: 2-PHENOXY-3-BENZHYDRYL PYRAZINE
Formula: C23 H18 N2 O
CAS: 116660-30-1
State: SOLID (MINERAL OIL MULL)
Melting point: 103-105 C
Class: COBLENTZ
Instrument: Not specified, most likely a prism, grating, or hybrid spectrometer.
Sampling: TRANSMISSION
Resolution: 4
Origin: WYANDOTTE CHEMICALS CORP., WYANDOTTE, MICHIGAN, USA
MICROMETERS	TRANSMITTANCE
2.033	0.466
2.07279	0.471
2.11258	0.48
2.15237	0.49
2.19217	0.5
2.23196	0.506
2.27175	0.513
2.31154	0.519
2.35133	0.526
2.39112	0.534
2.43091	0.548
2.47071	0.568
2.5105	0.578
2.55029	0.584
2.59008	0.601
2.62987	0.607
2.66966	0.621
2.70945	0.622
2.74925	0.624
2.78904	0.641
2.82883	0.641
2.86862	0.639
2.90841	0.637
2.9482	0.637
2.98799	0.641
3.02779	0.642
3.06758	0.649
3.10737	0.651
3.14716	0.647
3.18695	0.644
3.22674	0.636
3.26654	0.5
3.30633	0.401
3.34612	0.284
3.38591	0.043
3.4257	0.039
3.46549	0.054
3.50528	0.069
3.54508	0.284
3.58487	0.699
3.62466	0.797
3.66445	0.805
3.70424	0.79
3.74403	0.803
3.78382	0.81
3.82362	0.822
3.86341	0.828
3.9032	0.837
3.94299	0.853
3.98278	0.867
4.02257	0.87
4.06236	0.87
4.10216	0.87
4.14195	0.868
4.18174	0.875
4.22153	0.88
4.26132	0.868
4.30111	0.853
4.3409	0.86
4.3807	0.878
4.42049	0.918
4.46028	0.921
4.50007	0.926
4.53986	0.926
4.57965	0.926
4.61944	0.936
4.65924	0.936
4.69903	0.941
4.73882	0.945
4.77861	0.953
4.8184	0.963
4.85819	0.966
4.89798	0.963
4.93778	0.968
4.97757	0.971
5.01736	0.96
5.05715	0.951
5.09694	0.946
5.13673	0.94
5.17652	0.895
5.21632	0.877
5.25611	0.948
5.2959	0.968
5.33569	0.946
5.37548	0.923
5.41527	0.96
5.45506	0.981
5.49486	0.98
5.53465	0.953
5.57444	0.933
5.61423	0.955
5.65402	0.983
5.69381	0.976
5.73361	0.961
5.7734	0.96
5.81319	0.966
5.85298	0.981
5.89277	0.973
5.93256	0.971
5.97235	0.966
6.01215	0.938
6.05194	0.94
6.09173	0.945
6.13152	0.95
6.17131	0.908
6.2111	0.71
6.25089	0.367
6.29069	0.656
6.33048	0.73
6.37027	0.855
6.41006	0.87
6.44985	0.825
6.48964	0.441
6.52943	0.636
6.56923	0.847
6.60902	0.87
6.64881	0.493
6.6886	0.093
6.72839	0.312
6.76818	0.357
6.80797	0.205
6.84777	0.132
6.88756	0.225
6.92735	0.45
6.96714	0.636
7.00693	0.686
7.04672	0.594
7.08651	0.4
7.12631	0.041
7.1661	0.041
7.20589	0.046
7.24568	0.121
7.28547	0.279
7.32526	0.43
7.36505	0.539
7.40485	0.418
7.44464	0.179
7.48443	0.265
7.52422	0.383
7.56401	0.521
7.6038	0.514
7.64359	0.318
7.68339	0.377
7.72318	0.45
7.76297	0.322
7.80276	0.37
7.84255	0.614
7.88234	0.631
7.92214	0.569
7.96193	0.644
8.00172	0.651
8.04151	0.679
8.0813	0.717
8.12109	0.767
8.16088	0.754
8.20068	0.569
8.24047	0.179
8.28026	0.054
8.32005	0.074
8.35984	0.194
8.39963	0.347
8.43942	0.406
8.47922	0.348
8.51901	0.119
8.5588	0.099
8.59859	0.191
8.63838	0.338
8.67817	0.45
8.71796	0.684
8.75776	0.754
8.79755	0.802
8.83734	0.818
8.87713	0.797
8.91692	0.546
8.95671	0.202
8.9965	0.554
9.0363	0.717
9.07609	0.789
9.11588	0.828
9.15567	0.85
9.19546	0.787
9.23525	0.642
9.27504	0.632
9.31484	0.697
9.35463	0.553
9.39442	0.691
9.43421	0.807
9.474	0.865
9.51379	0.87
9.55358	0.883
9.59338	0.887
9.63317	0.885
9.67296	0.76
9.71275	0.646
9.75254	0.719
9.79233	0.568
9.83212	0.717
9.87192	0.823
9.91171	0.863
9.9515	0.808
9.99129	0.772
10.0311	0.9
10.0709	0.9
10.1107	0.897
10.1505	0.903
10.1902	0.898
10.23	0.888
10.2698	0.892
10.3096	0.86
10.3494	0.822
10.3892	0.837
10.429	0.86
10.4688	0.897
10.5086	0.91
10.5484	0.918
10.5882	0.926
10.628	0.931
10.6677	0.93
10.7075	0.926
10.7473	0.92
10.7871	0.903
10.8269	0.817
10.8667	0.8
10.9065	0.858
10.9463	0.795
10.9861	0.533
11.0259	0.443
11.0657	0.724
11.1055	0.817
11.1452	0.84
11.185	0.885
11.2248	0.911
11.2646	0.926
11.3044	0.931
11.3442	0.935
11.384	0.931
11.4238	0.905
11.4636	0.823
11.5034	0.646
11.5432	0.586
11.5829	0.614
11.6227	0.486
11.6625	0.267
11.7023	0.343
11.7421	0.601
11.7819	0.73
11.8217	0.812
11.8615	0.848
11.9013	0.862
11.9411	0.867
11.9809	0.875
12.0207	0.86
12.0604	0.827
12.1002	0.818
12.14	0.867
12.1798	0.898
12.2196	0.91
12.2594	0.908
12.2992	0.878
12.339	0.807
12.3788	0.651
12.4186	0.566
12.4584	0.612
12.4982	0.714
12.5379	0.797
12.5777	0.852
12.6175	0.887
12.6573	0.9
12.6971	0.882
12.7369	0.754
12.7767	0.646
12.8165	0.742
12.8563	0.835
12.8961	0.872
12.9359	0.882
12.9756	0.86
13.0154	0.817
13.0552	0.787
13.095	0.803
13.1348	0.818
13.1746	0.789
13.2144	0.715
13.2542	0.521
13.294	0.2
13.3338	0.096
13.3736	0.127
13.4134	0.2
13.4531	0.21
13.4929	0.137
13.5327	0.152
13.5725	0.274
13.6123	0.456
13.6521	0.601
13.6919	0.669
13.7317	0.709
13.7715	0.74
13.8113	0.764
13.8511	0.789
13.8909	0.8
13.9306	0.82
13.9704	0.837
14.0102	0.85
14.05	0.852
14.0898	0.83
14.1296	0.769
14.1694	0.644
14.2092	0.483
14.249	0.274
14.2888	0.2
14.3286	0.187
14.3684	0.154
14.4081	0.127
14.4479	0.129
14.4877	0.142
14.5275	0.196
14.5673	0.318
14.6071	0.471
14.6469	0.646
14.6867	0.72
14.7265	0.759
14.7663	0.762
14.8061	0.759
14.8458	0.76
14.8856	0.787
14.9254	0.81
14.9652	0.83
15.005	0.827
15.0448	0.808
15.0846	0.789
15.1244	0.813
15.1642	0.848
15.204	0.86
15.2438	0.862
15.2836	0.853
15.3233	0.85
15.3631	0.842
15.4029	0.832
15.4427	0.828
15.4825	0.81
15.5223	0.807
15.5621	0.797
15.6019	0.784
15.6417	0.777
15.6815	0.747
15.7213	0.71
15.7611	0.692
15.8008	0.676
15.8406	0.681
15.8804	0.692
15.9202	0.692
15.96	0.689
15.9998	0.679
