Infrared Spectrum: 2-(N-METHYLANILINO)-3-(2-PHENYLETHYL) PYRAZINE
Formula: C19 H19 N3
CAS: 116659-75-7
State: LIQUID
Class: COBLENTZ
Instrument: Not specified, most likely a prism, grating, or hybrid spectrometer.
Sampling: TRANSMISSION
Path length: 0.0015 CM
Resolution: 4
Origin: WYANDOTTE CHEMICALS CORP., WYANDOTTE, MICHIGAN, USA
MICROMETERS	TRANSMITTANCE
2.033	0.966
2.07275	0.953
2.11251	0.966
2.15226	0.953
2.19202	0.948
2.23177	0.946
2.27153	0.948
2.31128	0.95
2.35103	0.93
2.39079	0.918
2.43054	0.943
2.4703	0.943
2.51005	0.946
2.54981	0.953
2.58956	0.955
2.62932	0.953
2.66907	0.943
2.70882	0.936
2.74858	0.93
2.78833	0.92
2.82809	0.906
2.86784	0.892
2.9076	0.882
2.94735	0.877
2.9871	0.878
3.02686	0.88
3.06661	0.893
3.10637	0.895
3.14612	0.893
3.18588	0.872
3.22563	0.641
3.26538	0.33
3.30514	0.566
3.34489	0.521
3.38465	0.398
3.4244	0.46
3.46416	0.586
3.50391	0.649
3.54367	0.797
3.58342	0.863
3.62317	0.905
3.66293	0.915
3.70268	0.916
3.74244	0.915
3.78219	0.916
3.82195	0.913
3.8617	0.916
3.90145	0.921
3.94121	0.933
3.98096	0.938
4.02072	0.938
4.06047	0.936
4.10023	0.933
4.13998	0.931
4.17973	0.933
4.21949	0.931
4.25924	0.911
4.299	0.908
4.33875	0.908
4.37851	0.933
4.41826	0.945
4.45801	0.946
4.49777	0.948
4.53752	0.946
4.57728	0.95
4.61703	0.95
4.65679	0.946
4.69654	0.943
4.7363	0.946
4.77605	0.95
4.8158	0.943
4.85556	0.953
4.89531	0.953
4.93507	0.955
4.97482	0.948
5.01458	0.95
5.05433	0.94
5.09408	0.923
5.13384	0.887
5.17359	0.85
5.21335	0.882
5.2531	0.901
5.29286	0.89
5.33261	0.873
5.37236	0.877
5.41212	0.903
5.45187	0.92
5.49163	0.906
5.53138	0.873
5.57114	0.86
5.61089	0.875
5.65065	0.883
5.6904	0.887
5.73015	0.875
5.76991	0.87
5.80966	0.87
5.84942	0.868
5.88917	0.855
5.92893	0.83
5.96868	0.818
6.00843	0.8
6.04819	0.792
6.08794	0.759
6.1277	0.672
6.16745	0.365
6.20721	0.132
6.24696	0.328
6.28671	0.468
6.32647	0.536
6.36622	0.602
6.40598	0.646
6.44573	0.569
6.48549	0.187
6.52524	0.141
6.565	0.32
6.60475	0.129
6.6445	0.046
6.68426	0.194
6.72401	0.245
6.76377	0.144
6.80352	0.146
6.84328	0.078
6.88303	0.146
6.92278	0.124
6.96254	0.061
7.00229	0.227
7.04205	0.25
7.0818	0.081
7.12156	0.046
7.16131	0.048
7.20106	0.129
7.24082	0.247
7.28057	0.264
7.32033	0.215
7.36008	0.197
7.39984	0.284
7.43959	0.33
7.47934	0.282
7.5191	0.264
7.55885	0.373
7.59861	0.433
7.63836	0.451
7.67812	0.471
7.71787	0.466
7.75763	0.46
7.79738	0.47
7.83713	0.463
7.87689	0.421
7.91664	0.372
7.9564	0.343
7.99615	0.375
8.03591	0.45
8.07566	0.558
8.11541	0.632
8.15517	0.654
8.19492	0.632
8.23468	0.566
8.27443	0.478
8.31419	0.382
8.35394	0.338
8.39369	0.252
8.43345	0.2
8.4732	0.192
8.51296	0.23
8.55271	0.302
8.59247	0.31
8.63222	0.232
8.67198	0.205
8.71173	0.144
8.75148	0.104
8.79124	0.132
8.83099	0.234
8.87075	0.209
8.9105	0.177
8.95026	0.26
8.99001	0.378
9.02976	0.523
9.06952	0.622
9.10927	0.659
9.14903	0.629
9.18878	0.529
9.22854	0.43
9.26829	0.421
9.30804	0.455
9.3478	0.594
9.38755	0.657
9.42731	0.642
9.46706	0.599
9.50682	0.569
9.54657	0.661
9.58633	0.732
9.62608	0.722
9.66583	0.596
9.70559	0.538
9.74534	0.596
9.7851	0.676
9.82485	0.734
9.86461	0.737
9.90436	0.717
9.94411	0.672
9.98387	0.651
10.0236	0.681
10.0634	0.682
10.1031	0.677
10.1429	0.661
10.1826	0.699
10.2224	0.749
10.2621	0.76
10.3019	0.754
10.3417	0.74
10.3814	0.745
10.4212	0.752
10.4609	0.762
10.5007	0.765
10.5404	0.767
10.5802	0.774
10.6199	0.789
10.6597	0.802
10.6994	0.79
10.7392	0.764
10.779	0.752
10.8187	0.76
10.8585	0.734
10.8982	0.682
10.938	0.619
10.9777	0.591
11.0175	0.563
11.0572	0.519
11.097	0.518
11.1367	0.563
11.1765	0.647
11.2163	0.682
11.256	0.709
11.2958	0.732
11.3355	0.762
11.3753	0.787
11.415	0.81
11.4548	0.807
11.4945	0.808
11.5343	0.792
11.574	0.759
11.6138	0.715
11.6536	0.652
11.6933	0.594
11.7331	0.543
11.7728	0.508
11.8126	0.468
11.8523	0.453
11.8921	0.451
11.9318	0.488
11.9716	0.546
12.0113	0.639
12.0511	0.709
12.0908	0.749
12.1306	0.765
12.1704	0.769
12.2101	0.764
12.2499	0.75
12.2896	0.754
12.3294	0.752
12.3691	0.755
12.4089	0.752
12.4486	0.742
12.4884	0.729
12.5281	0.712
12.5679	0.691
12.6077	0.661
12.6474	0.654
12.6872	0.697
12.7269	0.739
12.7667	0.75
12.8064	0.742
12.8462	0.699
12.8859	0.609
12.9257	0.504
12.9654	0.395
13.0052	0.302
13.045	0.252
13.0847	0.232
13.1245	0.212
13.1642	0.199
13.204	0.174
13.2437	0.147
13.2835	0.131
13.3232	0.139
13.363	0.161
13.4027	0.229
13.4425	0.292
13.4823	0.365
13.522	0.431
13.5618	0.473
13.6015	0.504
13.6413	0.538
13.681	0.548
13.7208	0.581
13.7605	0.601
13.8003	0.624
13.84	0.634
13.8798	0.622
13.9195	0.602
13.9593	0.539
13.9991	0.48
14.0388	0.44
14.0786	0.408
14.1183	0.372
14.1581	0.322
14.1978	0.259
14.2376	0.204
14.2773	0.162
14.3171	0.144
14.3568	0.144
14.3966	0.147
14.4364	0.159
14.4761	0.197
14.5159	0.26
14.5556	0.353
14.5954	0.485
14.6351	0.601
14.6749	0.686
14.7146	0.74
14.7544	0.78
14.7941	0.8
14.8339	0.822
14.8737	0.83
14.9134	0.83
14.9532	0.835
14.9929	0.832
15.0327	0.813
15.0724	0.79
15.1122	0.789
15.1519	0.802
15.1917	0.823
15.2314	0.843
15.2712	0.852
15.311	0.857
15.3507	0.865
15.3905	0.867
15.4302	0.862
15.47	0.867
15.5097	0.86
15.5495	0.865
15.5892	0.85
15.629	0.85
15.6687	0.847
15.7085	0.837
15.7482	0.827
15.788	0.815
15.8278	0.807
15.8675	0.799
15.9073	0.792
15.947	0.785
15.9868	0.784
