Infrared Spectrum: 2-PHENOXY-3-PHENACYL PYRAZINE
Formula: C18 H14 N2 O2
CAS: 116659-81-5
State: SOLID (MINERAL OIL MULL)
Melting point: 94-97 C
Class: COBLENTZ
Instrument: Not specified, most likely a prism, grating, or hybrid spectrometer.
Sampling: TRANSMISSION
Resolution: 4
Origin: WYANDOTTE CHEMICALS CORP., WYANDOTTE, MICHIGAN, USA
MICROMETERS	TRANSMITTANCE
2.04	0.529
2.07985	0.536
2.1197	0.551
2.15955	0.552
2.19939	0.554
2.23924	0.561
2.27909	0.571
2.31894	0.579
2.35879	0.587
2.39864	0.592
2.43849	0.599
2.47834	0.607
2.51818	0.615
2.55803	0.619
2.59788	0.625
2.63773	0.629
2.67758	0.63
2.71743	0.629
2.75728	0.629
2.79712	0.624
2.83697	0.622
2.87682	0.619
2.91667	0.617
2.95652	0.614
2.99637	0.61
3.03622	0.619
3.07607	0.634
3.11591	0.637
3.15576	0.634
3.19561	0.637
3.23546	0.634
3.27531	0.569
3.31516	0.518
3.35501	0.215
3.39485	0.064
3.4347	0.114
3.47455	0.193
3.5144	0.188
3.55425	0.645
3.5941	0.766
3.63395	0.802
3.6738	0.799
3.71364	0.798
3.75349	0.799
3.79334	0.807
3.83319	0.814
3.87304	0.821
3.91289	0.827
3.95274	0.836
3.99258	0.842
4.03243	0.847
4.07228	0.85
4.11213	0.849
4.15198	0.846
4.19183	0.85
4.23168	0.852
4.27153	0.834
4.31137	0.842
4.35122	0.855
4.39107	0.867
4.43092	0.882
4.47077	0.88
4.51062	0.884
4.55047	0.892
4.59031	0.892
4.63016	0.89
4.67001	0.9
4.70986	0.903
4.74971	0.902
4.78956	0.907
4.82941	0.912
4.86926	0.913
4.9091	0.917
4.94895	0.918
4.9888	0.917
5.02865	0.913
5.0685	0.908
5.10835	0.903
5.1482	0.899
5.18804	0.905
5.22789	0.908
5.26774	0.912
5.30759	0.922
5.34744	0.925
5.38729	0.922
5.42714	0.933
5.46699	0.942
5.50683	0.933
5.54668	0.918
5.58653	0.925
5.62638	0.933
5.66623	0.93
5.70608	0.951
5.74593	0.942
5.78577	0.927
5.82562	0.892
5.86547	0.774
5.90532	0.187
5.94517	0.47
5.98502	0.716
6.02487	0.773
6.06472	0.806
6.10456	0.841
6.14441	0.847
6.18426	0.854
6.22411	0.509
6.26396	0.64
6.30381	0.581
6.34366	0.816
6.3835	0.849
6.42335	0.841
6.4632	0.72
6.50305	0.71
6.5429	0.844
6.58275	0.869
6.6226	0.846
6.66245	0.538
6.70229	0.256
6.74214	0.5
6.78199	0.471
6.82184	0.369
6.86169	0.327
6.90154	0.374
6.94139	0.544
6.98123	0.592
7.02108	0.465
7.06093	0.18
7.10078	0.092
7.14063	0.175
7.18048	0.274
7.22033	0.375
7.26018	0.382
7.30002	0.559
7.33987	0.668
7.37972	0.733
7.41957	0.735
7.45942	0.642
7.49927	0.456
7.53912	0.397
7.57897	0.561
7.61881	0.645
7.65866	0.635
7.69851	0.673
7.73836	0.564
7.77821	0.397
7.81806	0.25
7.85791	0.485
7.89775	0.463
7.9376	0.397
7.97745	0.632
8.0173	0.711
8.05715	0.701
8.097	0.662
8.13685	0.614
8.1767	0.394
8.21654	0.37
8.25639	0.501
8.29624	0.392
8.33609	0.152
8.37594	0.125
8.41579	0.216
8.45564	0.296
8.49548	0.442
8.53533	0.561
8.57518	0.372
8.61503	0.299
8.65488	0.42
8.69473	0.561
8.73458	0.652
8.77443	0.701
8.81427	0.721
8.85412	0.486
8.89397	0.443
8.93382	0.693
8.97367	0.753
9.01352	0.793
9.05337	0.809
9.09321	0.799
9.13306	0.821
9.17291	0.829
9.21276	0.827
9.25261	0.821
9.29246	0.733
9.33231	0.637
9.37216	0.759
9.412	0.826
9.45185	0.844
9.4917	0.85
9.53155	0.86
9.5714	0.865
9.61125	0.867
9.6511	0.872
9.69094	0.87
9.73079	0.827
9.77064	0.619
9.81049	0.771
9.85034	0.837
9.89019	0.855
9.93004	0.841
9.96989	0.69
10.0097	0.596
10.0496	0.523
10.0894	0.45
10.1293	0.554
10.1691	0.655
10.209	0.728
10.2488	0.769
10.2887	0.786
10.3285	0.817
10.3684	0.832
10.4082	0.846
10.4481	0.862
10.4879	0.865
10.5278	0.882
10.5676	0.882
10.6075	0.885
10.6473	0.87
10.6872	0.862
10.727	0.882
10.7669	0.889
10.8067	0.89
10.8466	0.884
10.8864	0.837
10.9263	0.662
10.9661	0.428
11.006	0.536
11.0458	0.629
11.0856	0.711
11.1255	0.721
11.1653	0.798
11.2052	0.839
11.245	0.855
11.2849	0.869
11.3247	0.875
11.3646	0.887
11.4044	0.89
11.4443	0.889
11.4841	0.889
11.524	0.889
11.5638	0.869
11.6037	0.839
11.6435	0.693
11.6834	0.637
11.7232	0.791
11.7631	0.831
11.8029	0.796
11.8428	0.62
11.8826	0.604
11.9225	0.706
11.9623	0.781
12.0022	0.839
12.042	0.852
12.0819	0.855
12.1217	0.846
12.1616	0.809
12.2014	0.799
12.2413	0.768
12.2811	0.698
12.321	0.675
12.3608	0.698
12.4007	0.738
12.4405	0.748
12.4804	0.718
12.5202	0.746
12.56	0.811
12.5999	0.846
12.6397	0.87
12.6796	0.887
12.7194	0.892
12.7593	0.897
12.7991	0.899
12.839	0.897
12.8788	0.894
12.9187	0.889
12.9585	0.889
12.9984	0.88
13.0382	0.867
13.0781	0.846
13.1179	0.809
13.1578	0.718
13.1976	0.632
13.2375	0.468
13.2773	0.296
13.3172	0.399
13.357	0.528
13.3969	0.498
13.4367	0.316
13.4766	0.223
13.5164	0.342
13.5563	0.534
13.5961	0.66
13.636	0.735
13.6758	0.781
13.7157	0.802
13.7555	0.827
13.7954	0.837
13.8352	0.847
13.8751	0.849
13.9149	0.85
13.9548	0.867
13.9946	0.879
14.0344	0.889
14.0743	0.897
14.1141	0.908
14.154	0.91
14.1938	0.913
14.2337	0.91
14.2735	0.9
14.3134	0.884
14.3532	0.855
14.3931	0.796
14.4329	0.629
14.4728	0.485
14.5126	0.437
14.5525	0.496
14.5923	0.511
14.6322	0.471
14.672	0.45
14.7119	0.561
14.7517	0.687
14.7916	0.758
14.8314	0.794
14.8713	0.807
14.9111	0.794
14.951	0.763
14.9908	0.736
15.0307	0.728
15.0705	0.741
15.1104	0.783
15.1502	0.841
15.1901	0.86
15.2299	0.872
15.2698	0.864
15.3096	0.857
15.3495	0.854
15.3893	0.852
15.4292	0.844
15.469	0.841
15.5089	0.831
15.5487	0.817
15.5885	0.817
15.6284	0.811
15.6682	0.798
15.7081	0.789
15.7479	0.768
15.7878	0.746
15.8276	0.718
15.8675	0.713
15.9073	0.708
15.9472	0.708
15.987	0.713
