Infrared Spectrum: 2-PHENOXY-3-TRIDECYL PYRAZINE
Formula: C23 H34 N2 O
CAS: 116659-46-2
State: SOLID (MINERAL OIL MULL)
Class: COBLENTZ
Instrument: Not specified, most likely a prism, grating, or hybrid spectrometer.
Sampling: TRANSMISSION
Resolution: 4
Origin: WYANDOTTE CHEMICALS CORP., WYANDOTTE, MICHIGAN, USA
MICROMETERS	TRANSMITTANCE
2.02	0.686
2.06086	0.684
2.10172	0.687
2.14258	0.686
2.18343	0.687
2.22429	0.653
2.26515	0.645
2.30601	0.646
2.34687	0.648
2.38773	0.648
2.42859	0.662
2.46944	0.682
2.5103	0.682
2.55116	0.68
2.59202	0.701
2.63288	0.703
2.67374	0.715
2.7146	0.716
2.75545	0.715
2.79631	0.721
2.83717	0.72
2.87803	0.711
2.91889	0.704
2.95975	0.684
3.0006	0.68
3.04146	0.686
3.08232	0.68
3.12318	0.668
3.16404	0.653
3.2049	0.638
3.24576	0.571
3.28661	0.38
3.32747	0.44
3.36833	0.163
3.40919	0.025
3.45005	0.034
3.49091	0.069
3.53177	0.095
3.57262	0.438
3.61348	0.612
3.65434	0.674
3.6952	0.687
3.73606	0.72
3.77692	0.723
3.81778	0.733
3.85863	0.754
3.89949	0.773
3.94035	0.791
3.98121	0.808
4.02207	0.813
4.06293	0.807
4.10379	0.791
4.14464	0.795
4.1855	0.81
4.22636	0.822
4.26722	0.779
4.30808	0.784
4.34894	0.8
4.3898	0.824
4.43065	0.86
4.47151	0.858
4.51237	0.863
4.55323	0.861
4.59409	0.861
4.63495	0.868
4.6758	0.872
4.71666	0.866
4.75752	0.878
4.79838	0.89
4.83924	0.89
4.8801	0.889
4.92096	0.892
4.96181	0.883
5.00267	0.861
5.04353	0.848
5.08439	0.861
5.12525	0.856
5.16611	0.875
5.20697	0.834
5.24782	0.875
5.28868	0.877
5.32954	0.851
5.3704	0.878
5.41126	0.894
5.45212	0.892
5.49298	0.912
5.53383	0.921
5.57469	0.889
5.61555	0.853
5.65641	0.861
5.69727	0.895
5.73813	0.887
5.77899	0.863
5.81984	0.834
5.8607	0.837
5.90156	0.834
5.94242	0.81
5.98328	0.824
6.02414	0.812
6.065	0.813
6.10585	0.812
6.14671	0.793
6.18757	0.737
6.22843	0.288
6.26929	0.325
6.31015	0.476
6.351	0.656
6.39186	0.675
6.43272	0.568
6.47358	0.373
6.51444	0.302
6.5553	0.477
6.59616	0.588
6.63701	0.505
6.67787	0.11
6.71873	0.08
6.75959	0.102
6.80045	0.121
6.84131	0.15
6.88217	0.218
6.92302	0.279
6.96388	0.269
7.00474	0.22
7.0456	0.121
7.08646	0.04
7.12732	0.034
7.16818	0.075
7.20903	0.201
7.24989	0.259
7.29075	0.22
7.33161	0.182
7.37247	0.174
7.41333	0.189
7.45419	0.151
7.49504	0.245
7.5359	0.208
7.57676	0.266
7.61762	0.197
7.65848	0.162
7.69934	0.163
7.7402	0.126
7.78105	0.11
7.82191	0.175
7.86277	0.247
7.90363	0.201
7.94449	0.24
7.98535	0.298
8.0262	0.296
8.06706	0.356
8.10792	0.447
8.14878	0.411
8.18964	0.276
8.2305	0.182
8.27136	0.071
8.31221	0.025
8.35307	0.025
8.39393	0.068
8.43479	0.175
8.47565	0.192
8.51651	0.107
8.55737	0.075
8.59822	0.1
8.63908	0.141
8.67994	0.194
8.7208	0.358
8.76166	0.394
8.80252	0.232
8.84338	0.228
8.88423	0.353
8.92509	0.269
8.96595	0.395
9.00681	0.523
9.04767	0.605
9.08853	0.65
9.12939	0.667
9.17024	0.588
9.2111	0.336
9.25196	0.331
9.29282	0.414
9.33368	0.482
9.37454	0.52
9.4154	0.605
9.45625	0.697
9.49711	0.732
9.53797	0.713
9.57883	0.747
9.61969	0.747
9.66055	0.614
9.7014	0.662
9.74226	0.566
9.78312	0.344
9.82398	0.593
9.86484	0.626
9.9057	0.598
9.94656	0.58
9.98741	0.639
10.0283	0.744
10.0691	0.796
10.11	0.795
10.1508	0.8
10.1917	0.82
10.2326	0.827
10.2734	0.817
10.3143	0.844
10.3551	0.846
10.396	0.844
10.4369	0.822
10.4777	0.843
10.5186	0.854
10.5594	0.87
10.6003	0.889
10.6412	0.889
10.682	0.895
10.7229	0.902
10.7637	0.901
10.8046	0.89
10.8454	0.866
10.8863	0.791
10.9272	0.605
10.968	0.46
11.0089	0.511
11.0497	0.643
11.0906	0.668
11.1315	0.51
11.1723	0.348
11.2132	0.547
11.254	0.651
11.2949	0.737
11.3357	0.783
11.3766	0.791
11.4175	0.783
11.4583	0.761
11.4992	0.735
11.54	0.73
11.5809	0.74
11.6218	0.745
11.6626	0.718
11.7035	0.616
11.7443	0.587
11.7852	0.527
11.826	0.344
11.8669	0.322
11.9078	0.527
11.9486	0.643
11.9895	0.638
12.0303	0.558
12.0712	0.558
12.1121	0.58
12.1529	0.539
12.1938	0.501
12.2346	0.568
12.2755	0.604
12.3164	0.537
12.3572	0.46
12.3981	0.336
12.4389	0.322
12.4798	0.392
12.5206	0.435
12.5615	0.525
12.6024	0.614
12.6432	0.675
12.6841	0.696
12.7249	0.691
12.7658	0.67
12.8067	0.679
12.8475	0.67
12.8884	0.672
12.9292	0.679
12.9701	0.687
13.0109	0.696
13.0518	0.701
13.0927	0.675
13.1335	0.626
13.1744	0.621
13.2152	0.573
13.2561	0.418
13.297	0.191
13.3378	0.129
13.3787	0.165
13.4195	0.235
13.4604	0.279
13.5012	0.358
13.5421	0.447
13.583	0.511
13.6238	0.569
13.6647	0.6
13.7055	0.629
13.7464	0.634
13.7873	0.633
13.8281	0.607
13.869	0.58
13.9098	0.517
13.9507	0.431
13.9916	0.36
14.0324	0.407
14.0733	0.571
14.1141	0.697
14.155	0.764
14.1958	0.779
14.2367	0.755
14.2776	0.679
14.3184	0.547
14.3593	0.354
14.4001	0.206
14.441	0.167
14.4819	0.204
14.5227	0.269
14.5636	0.329
14.6044	0.401
14.6453	0.522
14.6861	0.65
14.727	0.747
14.7679	0.803
14.8087	0.839
14.8496	0.854
14.8904	0.866
14.9313	0.872
14.9722	0.87
15.013	0.837
15.0539	0.803
15.0947	0.807
15.1356	0.844
15.1764	0.854
15.2173	0.841
15.2582	0.82
15.299	0.807
15.3399	0.774
15.3807	0.757
15.4216	0.754
15.4625	0.754
15.5033	0.762
15.5442	0.769
15.585	0.776
15.6259	0.771
15.6668	0.761
15.7076	0.754
15.7485	0.74
15.7893	0.737
15.8302	0.725
15.871	0.715
15.9119	0.711
15.9528	0.699
