Infrared Spectrum: 2-ALLYL-3,6-DICHLOROPHENOL
Formula: C9 H8 Cl2 O
CAS: 116632-92-9
State: SOLUTION (10% CCl4 FOR 5000-1300, 10% CS2 FOR 1300-625 CM^-^1)
Class: COBLENTZ
Instrument: Not specified, most likely a prism, grating, or hybrid spectrometer.
Sampling: TRANSMISSION
Path length: 0.01 CM, 0.01 CM
Resolution: 4
Origin: DOW CHEMICAL COMPANY
MICROMETERS	TRANSMITTANCE
2.043	0.86
2.08002	0.86
2.11704	0.868
2.15406	0.871
2.19108	0.866
2.2281	0.87
2.26512	0.866
2.30214	0.871
2.33916	0.873
2.37619	0.871
2.41321	0.876
2.45023	0.879
2.48725	0.874
2.52427	0.871
2.56129	0.871
2.59831	0.874
2.63533	0.877
2.67235	0.877
2.70937	0.873
2.74639	0.863
2.78341	0.773
2.82043	0.449
2.85745	0.759
2.89447	0.842
2.93149	0.871
2.96851	0.866
3.00553	0.873
3.04256	0.87
3.07958	0.874
3.1166	0.87
3.15362	0.866
3.19064	0.857
3.22766	0.788
3.26468	0.769
3.3017	0.819
3.33872	0.767
3.37574	0.81
3.41276	0.779
3.44978	0.859
3.4868	0.86
3.52382	0.877
3.56084	0.889
3.59786	0.888
3.63488	0.883
3.6719	0.889
3.70893	0.894
3.74595	0.896
3.78297	0.896
3.81999	0.894
3.85701	0.886
3.89403	0.888
3.93105	0.892
3.96807	0.891
4.00509	0.892
4.04211	0.896
4.07913	0.899
4.11615	0.9
4.15317	0.896
4.19019	0.896
4.22721	0.891
4.26423	0.883
4.30125	0.879
4.33827	0.886
4.3753	0.891
4.41232	0.899
4.44934	0.911
4.48636	0.915
4.52338	0.928
4.5604	0.922
4.59742	0.926
4.63444	0.928
4.67146	0.929
4.70848	0.926
4.7455	0.92
4.78252	0.92
4.81954	0.918
4.85656	0.923
4.89358	0.922
4.9306	0.918
4.96762	0.92
5.00464	0.897
5.04167	0.9
5.07869	0.909
5.11571	0.912
5.15273	0.928
5.18975	0.92
5.22677	0.92
5.26379	0.922
5.30081	0.905
5.33783	0.883
5.37485	0.839
5.41187	0.845
5.44889	0.87
5.48591	0.891
5.52293	0.902
5.55995	0.905
5.59697	0.909
5.63399	0.908
5.67101	0.909
5.70804	0.902
5.74506	0.894
5.78208	0.888
5.8191	0.88
5.85612	0.889
5.89314	0.891
5.93016	0.883
5.96718	0.876
6.0042	0.868
6.04122	0.802
6.07824	0.596
6.11526	0.779
6.15228	0.804
6.1893	0.749
6.22632	0.599
6.26334	0.392
6.30036	0.396
6.33739	0.362
6.37441	0.394
6.41143	0.44
6.44845	0.44
6.48547	0.492
6.52249	0.565
6.55951	0.59
6.59653	0.614
6.63355	0.678
6.67057	0.703
6.70759	0.654
6.74461	0.628
6.78163	0.55
6.81865	0.389
6.85567	0.18
6.89269	0.103
6.92971	0.123
6.96673	0.246
7.00376	0.389
7.04078	0.492
7.0778	0.584
7.11482	0.75
7.15184	0.818
7.18886	0.825
7.22588	0.83
7.2629	0.84
7.29992	0.85
7.33694	0.84
7.37396	0.825
7.41098	0.808
7.448	0.767
7.48502	0.729
7.52204	0.648
7.55906	0.487
7.59608	0.235
7.6331	0.204
7.67013	0.399
7.70715	0.574
7.74417	0.61
7.78119	0.611
7.81821	0.544
7.85523	0.411
7.89225	0.31
7.92927	0.466
7.96629	0.365
8.00331	0.172
8.04033	0.409
8.07735	0.519
8.11437	0.577
8.15139	0.599
8.18841	0.61
8.22543	0.611
8.26245	0.533
8.29947	0.356
8.3365	0.232
8.37352	0.33
8.41054	0.37
8.44756	0.415
8.48458	0.519
8.5216	0.567
8.55862	0.579
8.59564	0.574
8.63266	0.548
8.66968	0.466
8.7067	0.292
8.74372	0.154
8.78074	0.142
8.81776	0.31
8.85478	0.406
8.8918	0.484
8.92882	0.574
8.96584	0.6
9.00287	0.619
9.03989	0.605
9.07691	0.577
9.11393	0.544
9.15095	0.48
9.18797	0.448
9.22499	0.509
9.26201	0.59
9.29903	0.597
9.33605	0.603
9.37307	0.671
9.41009	0.697
9.44711	0.714
9.48413	0.73
9.52115	0.735
9.55817	0.741
9.59519	0.737
9.63221	0.726
9.66924	0.73
9.70626	0.746
9.74328	0.752
9.7803	0.755
9.81732	0.758
9.85434	0.753
9.89136	0.747
9.92838	0.738
9.9654	0.714
10.0024	0.651
10.0394	0.568
10.0765	0.49
10.1135	0.46
10.1505	0.576
10.1875	0.671
10.2245	0.724
10.2616	0.738
10.2986	0.73
10.3356	0.709
10.3726	0.66
10.4096	0.594
10.4467	0.503
10.4837	0.426
10.5207	0.426
10.5577	0.432
10.5947	0.356
10.6318	0.266
10.6688	0.227
10.7058	0.284
10.7428	0.33
10.7799	0.318
10.8169	0.264
10.8539	0.253
10.8909	0.24
10.9279	0.197
10.965	0.201
11.002	0.302
11.039	0.474
11.076	0.553
11.113	0.597
11.1501	0.613
11.1871	0.617
11.2241	0.617
11.2611	0.602
11.2981	0.571
11.3352	0.545
11.3722	0.539
11.4092	0.553
11.4462	0.547
11.4832	0.489
11.5203	0.415
11.5573	0.331
11.5943	0.31
11.6313	0.353
11.6683	0.379
11.7054	0.36
11.7424	0.324
11.7794	0.333
11.8164	0.446
11.8534	0.548
11.8905	0.611
11.9275	0.651
11.9645	0.685
12.0015	0.701
12.0386	0.711
12.0756	0.717
12.1126	0.718
12.1496	0.717
12.1866	0.714
12.2237	0.703
12.2607	0.694
12.2977	0.68
12.3347	0.663
12.3717	0.645
12.4088	0.614
12.4458	0.573
12.4828	0.509
12.5198	0.42
12.5568	0.276
12.5939	0.157
12.6309	0.099
12.6679	0.235
12.7049	0.415
12.7419	0.533
12.779	0.6
12.816	0.639
12.853	0.671
12.89	0.691
12.927	0.7
12.9641	0.707
13.0011	0.712
13.0381	0.714
13.0751	0.709
13.1121	0.695
13.1492	0.674
13.1862	0.651
13.2232	0.611
13.2602	0.597
13.2973	0.599
13.3343	0.617
13.3713	0.64
13.4083	0.672
13.4453	0.695
13.4824	0.7
13.5194	0.703
13.5564	0.704
13.5934	0.706
13.6304	0.701
13.6675	0.7
13.7045	0.697
13.7415	0.694
13.7785	0.689
13.8155	0.683
13.8526	0.677
13.8896	0.669
13.9266	0.663
13.9636	0.659
14.0006	0.659
14.0377	0.652
14.0747	0.648
14.1117	0.642
14.1487	0.636
14.1857	0.628
14.2228	0.62
14.2598	0.61
14.2968	0.603
14.3338	0.593
14.3708	0.579
14.4079	0.565
14.4449	0.542
14.4819	0.522
14.5189	0.506
14.5559	0.5
14.593	0.496
14.63	0.5
14.667	0.506
14.704	0.509
14.7411	0.512
14.7781	0.512
14.8151	0.509
14.8521	0.504
14.8891	0.495
14.9262	0.489
14.9632	0.492
15.0002	0.498
15.0372	0.489
15.0742	0.478
15.1113	0.467
15.1483	0.46
15.1853	0.454
15.2223	0.443
15.2593	0.437
15.2964	0.429
15.3334	0.423
15.3704	0.42
15.4074	0.414
15.4444	0.411
15.4815	0.403
15.5185	0.397
15.5555	0.388
15.5925	0.38
15.6295	0.377
15.6666	0.373
15.7036	0.365
15.7406	0.36
15.7776	0.36
15.8146	0.357
15.8517	0.353
15.8887	0.36
