Infrared Spectrum: 2-n-HEPTYL-3,5,6-TRIMETHYL PYRAZINE
Formula: C14 H24 N2
CAS: 116660-36-7
State: LIQUID
Class: COBLENTZ
Instrument: Not specified, most likely a prism, grating, or hybrid spectrometer.
Sampling: TRANSMISSION
Path length: 0.0015 CM
Resolution: 4
Origin: WYANDOTTE CHEMICALS CORP., WYANDOTTE, MICHIGAN, USA
MICROMETERS	TRANSMITTANCE
2.066	0.94
2.10585	0.96
2.1457	0.961
2.18555	0.96
2.2254	0.95
2.26525	0.926
2.3051	0.921
2.34495	0.916
2.3848	0.92
2.42465	0.935
2.4645	0.928
2.50435	0.936
2.5442	0.941
2.58405	0.943
2.6239	0.951
2.66374	0.95
2.70359	0.951
2.74344	0.958
2.78329	0.96
2.82314	0.94
2.86299	0.938
2.90284	0.923
2.94269	0.918
2.98254	0.908
3.02239	0.901
3.06224	0.898
3.10209	0.898
3.14194	0.888
3.18179	0.88
3.22164	0.87
3.26149	0.83
3.30134	0.632
3.34119	0.669
3.38104	0.367
3.42089	0.071
3.46074	0.069
3.50059	0.151
3.54044	0.111
3.58029	0.465
3.62014	0.717
3.65999	0.802
3.69984	0.808
3.73969	0.83
3.77954	0.838
3.81939	0.86
3.85923	0.882
3.89908	0.888
3.93893	0.903
3.97878	0.905
4.01863	0.915
4.05848	0.92
4.09833	0.918
4.13818	0.918
4.17803	0.915
4.21788	0.913
4.25773	0.911
4.29758	0.916
4.33743	0.925
4.37728	0.938
4.41713	0.951
4.45698	0.938
4.49683	0.933
4.53668	0.93
4.57653	0.945
4.61638	0.941
4.65623	0.945
4.69608	0.951
4.73593	0.948
4.77578	0.951
4.81563	0.951
4.85548	0.956
4.89533	0.961
4.93518	0.965
4.97503	0.963
5.01488	0.96
5.05472	0.96
5.09457	0.96
5.13442	0.965
5.17427	0.975
5.21412	0.975
5.25397	0.971
5.29382	0.961
5.33367	0.951
5.37352	0.95
5.41337	0.963
5.45322	0.961
5.49307	0.97
5.53292	0.971
5.57277	0.965
5.61262	0.956
5.65247	0.948
5.69232	0.945
5.73217	0.95
5.77202	0.945
5.81187	0.933
5.85172	0.933
5.89157	0.918
5.93142	0.918
5.97127	0.903
6.01112	0.897
6.05097	0.885
6.09082	0.873
6.13067	0.872
6.17052	0.878
6.21037	0.875
6.25021	0.858
6.29006	0.818
6.32991	0.666
6.36976	0.641
6.40961	0.641
6.44946	0.72
6.48931	0.72
6.52916	0.375
6.56901	0.294
6.60886	0.598
6.64871	0.687
6.68856	0.616
6.72841	0.534
6.76826	0.488
6.80811	0.136
6.84796	0.161
6.88781	0.245
6.92766	0.312
6.96751	0.333
7.00736	0.287
7.04721	0.182
7.08706	0.119
7.12691	0.3
7.16676	0.495
7.20661	0.539
7.24646	0.295
7.28631	0.176
7.32616	0.285
7.36601	0.375
7.40586	0.423
7.4457	0.461
7.48555	0.524
7.5254	0.614
7.56525	0.651
7.6051	0.636
7.64495	0.599
7.6848	0.548
7.72465	0.521
7.7645	0.533
7.80435	0.586
7.8442	0.593
7.88405	0.599
7.9239	0.583
7.96375	0.539
8.0036	0.513
8.04345	0.584
8.0833	0.629
8.12315	0.601
8.163	0.594
8.20285	0.606
8.2427	0.584
8.28255	0.548
8.3224	0.519
8.36225	0.533
8.4021	0.599
8.44195	0.617
8.4818	0.566
8.52165	0.47
8.5615	0.421
8.60135	0.383
8.64119	0.348
8.68104	0.375
8.72089	0.461
8.76074	0.48
8.80059	0.461
8.84044	0.411
8.88029	0.342
8.92014	0.401
8.95999	0.47
8.99984	0.516
9.03969	0.498
9.07954	0.495
9.11939	0.569
9.15924	0.614
9.19909	0.624
9.23894	0.631
9.27879	0.641
9.31864	0.662
9.35849	0.702
9.39834	0.72
9.43819	0.729
9.47804	0.744
9.51789	0.759
9.55774	0.78
9.59759	0.8
9.63744	0.8
9.67729	0.799
9.71714	0.799
9.75699	0.799
9.79684	0.79
9.83668	0.79
9.87653	0.799
9.91638	0.792
9.95623	0.789
9.99608	0.772
10.0359	0.757
10.0758	0.76
10.1156	0.779
10.1555	0.79
10.1953	0.789
10.2352	0.789
10.275	0.782
10.3149	0.782
10.3547	0.79
10.3946	0.797
10.4344	0.802
10.4743	0.803
10.5141	0.81
10.554	0.818
10.5938	0.822
10.6337	0.822
10.6735	0.827
10.7134	0.832
10.7532	0.84
10.7931	0.845
10.8329	0.852
10.8728	0.872
10.9126	0.877
10.9525	0.883
10.9923	0.887
11.0322	0.89
11.072	0.89
11.1119	0.887
11.1517	0.87
11.1916	0.855
11.2314	0.835
11.2713	0.818
11.3111	0.812
11.351	0.825
11.3908	0.843
11.4307	0.852
11.4705	0.865
11.5104	0.863
11.5502	0.85
11.5901	0.842
11.6299	0.832
11.6698	0.817
11.7096	0.807
11.7495	0.777
11.7893	0.747
11.8292	0.696
11.869	0.647
11.9089	0.629
11.9487	0.622
11.9886	0.632
12.0284	0.694
12.0683	0.734
12.1081	0.787
12.148	0.832
12.1878	0.873
12.2277	0.892
12.2675	0.903
12.3074	0.906
12.3472	0.91
12.3871	0.913
12.4269	0.92
12.4668	0.92
12.5066	0.926
12.5465	0.926
12.5863	0.92
12.6262	0.918
12.666	0.916
12.7059	0.915
12.7457	0.921
12.7856	0.923
12.8254	0.928
12.8653	0.93
12.9051	0.923
12.945	0.916
12.9848	0.913
13.0247	0.908
13.0645	0.895
13.1044	0.888
13.1442	0.873
13.1841	0.868
13.2239	0.862
13.2638	0.86
13.3036	0.858
13.3435	0.858
13.3833	0.863
13.4232	0.863
13.463	0.86
13.5029	0.855
13.5427	0.847
13.5826	0.84
13.6224	0.818
13.6623	0.799
13.7021	0.762
13.742	0.74
13.7818	0.72
13.8217	0.687
13.8615	0.697
13.9014	0.717
13.9412	0.757
13.9811	0.799
14.0209	0.833
14.0607	0.853
14.1006	0.867
14.1404	0.88
14.1803	0.882
14.2201	0.89
14.26	0.895
14.2998	0.9
14.3397	0.901
14.3795	0.898
14.4194	0.906
14.4592	0.898
14.4991	0.906
14.5389	0.903
14.5788	0.906
14.6186	0.903
14.6585	0.901
14.6983	0.908
14.7382	0.905
14.778	0.9
14.8179	0.895
14.8577	0.895
14.8976	0.887
14.9374	0.88
14.9773	0.877
15.0171	0.865
15.057	0.828
15.0968	0.767
15.1367	0.72
15.1765	0.727
15.2164	0.769
15.2562	0.808
15.2961	0.827
15.3359	0.825
15.3758	0.827
15.4156	0.823
15.4555	0.825
15.4953	0.828
15.5352	0.83
15.575	0.825
15.6149	0.823
15.6547	0.82
15.6946	0.817
15.7344	0.815
15.7743	0.807
15.8141	0.8
15.854	0.794
15.8938	0.785
15.9337	0.779
15.9735	0.775
