Infrared Spectrum: 2-(M-PHENOXYANILINO)-3-METHYL PYRAZINE
Formula: C17 H15 N3 O
CAS: 116659-74-6
State: LIQUID
Class: COBLENTZ
Instrument: Not specified, most likely a prism, grating, or hybrid spectrometer.
Sampling: TRANSMISSION
Path length: CAPILLARY
Resolution: 4
Origin: WYANDOTTE CHEMICALS CORP., WYANDOTTE, MICHIGAN, USA
MICROMETERS	TRANSMITTANCE
2.053	0.991
2.09279	0.993
2.13258	0.998
2.17237	0.993
2.21217	0.99
2.25196	0.981
2.29175	0.985
2.33154	0.983
2.37133	0.971
2.41112	0.983
2.45092	0.978
2.49071	0.973
2.5305	0.99
2.57029	0.99
2.61008	0.993
2.64987	0.993
2.68966	0.966
2.72946	0.951
2.76925	0.95
2.80904	0.931
2.84883	0.888
2.88862	0.775
2.92841	0.722
2.96821	0.709
3.008	0.664
3.04779	0.681
3.08758	0.732
3.12737	0.749
3.16716	0.765
3.20695	0.717
3.24675	0.666
3.28654	0.75
3.32633	0.802
3.36612	0.817
3.40591	0.82
3.4457	0.867
3.4855	0.887
3.52529	0.918
3.56508	0.93
3.60487	0.931
3.64466	0.935
3.68445	0.95
3.72424	0.953
3.76404	0.963
3.80383	0.96
3.84362	0.953
3.88341	0.95
3.9232	0.953
3.96299	0.953
4.00279	0.95
4.04258	0.943
4.08237	0.926
4.12216	0.92
4.16195	0.913
4.20174	0.908
4.24153	0.911
4.28133	0.946
4.32112	0.963
4.36091	0.98
4.4007	0.97
4.44049	0.955
4.48028	0.966
4.52008	0.965
4.55987	0.965
4.59966	0.973
4.63945	0.97
4.67924	0.971
4.71903	0.968
4.75882	0.97
4.79862	0.968
4.83841	0.97
4.8782	0.968
4.91799	0.958
4.95778	0.956
4.99757	0.96
5.03737	0.95
5.07716	0.951
5.11695	0.946
5.15674	0.936
5.19653	0.92
5.23632	0.925
5.27612	0.931
5.31591	0.928
5.3557	0.926
5.39549	0.935
5.43528	0.926
5.47507	0.928
5.51486	0.936
5.55466	0.921
5.59445	0.915
5.63424	0.908
5.67403	0.91
5.71382	0.9
5.75361	0.893
5.79341	0.882
5.8332	0.872
5.87299	0.873
5.91278	0.858
5.95257	0.837
5.99236	0.807
6.03215	0.772
6.07195	0.672
6.11174	0.511
6.15153	0.106
6.19132	0.094
6.23111	0.086
6.2709	0.194
6.3107	0.458
6.35049	0.518
6.39028	0.421
6.43007	0.365
6.46986	0.29
6.50965	0.099
6.54944	0.098
6.58924	0.179
6.62903	0.177
6.66882	0.038
6.70861	0.074
6.7484	0.25
6.78819	0.31
6.82799	0.272
6.86778	0.141
6.90757	0.098
6.94736	0.142
6.98715	0.151
7.02694	0.27
7.06673	0.501
7.10653	0.578
7.14632	0.485
7.18611	0.317
7.2259	0.25
7.26569	0.433
7.30548	0.609
7.34528	0.707
7.38507	0.702
7.42486	0.626
7.46465	0.546
7.50444	0.534
7.54423	0.523
7.58402	0.538
7.62382	0.566
7.66361	0.602
7.7034	0.573
7.74319	0.546
7.78298	0.491
7.82277	0.397
7.86257	0.392
7.90236	0.31
7.94215	0.244
7.98194	0.25
8.02173	0.352
8.06152	0.39
8.10131	0.31
8.14111	0.126
8.1809	0.068
8.22069	0.106
8.26048	0.27
8.30027	0.388
8.34006	0.287
8.37986	0.38
8.41965	0.589
8.45944	0.626
8.49923	0.463
8.53902	0.388
8.57881	0.387
8.6186	0.347
8.6584	0.182
8.69819	0.255
8.73798	0.523
8.77777	0.602
8.81756	0.636
8.85735	0.749
8.89715	0.808
8.93694	0.832
8.97673	0.845
9.01652	0.852
9.05631	0.852
9.0961	0.833
9.13589	0.81
9.17569	0.799
9.21548	0.775
9.25527	0.72
9.29506	0.691
9.33485	0.752
9.37464	0.8
9.41444	0.815
9.45423	0.813
9.49402	0.818
9.53381	0.812
9.5736	0.81
9.61339	0.8
9.65318	0.782
9.69298	0.734
9.73277	0.669
9.77256	0.691
9.81235	0.765
9.85214	0.775
9.89193	0.79
9.93173	0.769
9.97152	0.676
10.0113	0.715
10.0511	0.729
10.0909	0.649
10.1307	0.543
10.1705	0.493
10.2103	0.476
10.2501	0.47
10.2898	0.5
10.3296	0.584
10.3694	0.682
10.4092	0.737
10.449	0.769
10.4888	0.797
10.5286	0.808
10.5684	0.81
10.6082	0.818
10.648	0.838
10.6878	0.852
10.7276	0.855
10.7673	0.863
10.8071	0.867
10.8469	0.865
10.8867	0.852
10.9265	0.835
10.9663	0.805
11.0061	0.777
11.0459	0.764
11.0857	0.76
11.1255	0.749
11.1653	0.739
11.2051	0.732
11.2448	0.732
11.2846	0.729
11.3244	0.735
11.3642	0.725
11.404	0.709
11.4438	0.694
11.4836	0.676
11.5234	0.667
11.5632	0.666
11.603	0.666
11.6428	0.672
11.6826	0.682
11.7223	0.689
11.7621	0.687
11.8019	0.669
11.8417	0.636
11.8815	0.599
11.9213	0.566
11.9611	0.536
12.0009	0.533
12.0407	0.548
12.0805	0.584
12.1203	0.621
12.1601	0.649
12.1998	0.657
12.2396	0.677
12.2794	0.719
12.3192	0.747
12.359	0.757
12.3988	0.754
12.4386	0.737
12.4784	0.729
12.5182	0.724
12.558	0.697
12.5978	0.657
12.6376	0.593
12.6773	0.529
12.7171	0.504
12.7569	0.511
12.7967	0.528
12.8365	0.536
12.8763	0.508
12.9161	0.476
12.9559	0.441
12.9957	0.423
13.0355	0.42
13.0753	0.42
13.115	0.425
13.1548	0.45
13.1946	0.48
13.2344	0.5
13.2742	0.526
13.314	0.533
13.3538	0.538
13.3936	0.546
13.4334	0.548
13.4732	0.579
13.513	0.621
13.5528	0.666
13.5925	0.715
13.6323	0.747
13.6721	0.772
13.7119	0.785
13.7517	0.797
13.7915	0.803
13.8313	0.807
13.8711	0.812
13.9109	0.813
13.9507	0.815
13.9905	0.818
14.0303	0.82
14.07	0.817
14.1098	0.812
14.1496	0.805
14.1894	0.795
14.2292	0.772
14.269	0.727
14.3088	0.662
14.3486	0.591
14.3884	0.495
14.4282	0.426
14.468	0.401
14.5078	0.4
14.5475	0.401
14.5873	0.411
14.6271	0.44
14.6669	0.485
14.7067	0.556
14.7465	0.626
14.7863	0.694
14.8261	0.734
14.8659	0.759
14.9057	0.769
14.9455	0.775
14.9853	0.772
15.025	0.755
15.0648	0.742
15.1046	0.759
15.1444	0.774
15.1842	0.774
15.224	0.772
15.2638	0.769
15.3036	0.757
15.3434	0.755
15.3832	0.752
15.423	0.749
15.4628	0.745
15.5025	0.742
15.5423	0.744
15.5821	0.739
15.6219	0.737
15.6617	0.737
15.7015	0.734
15.7413	0.727
15.7811	0.727
15.8209	0.725
15.8607	0.72
15.9005	0.72
15.9402	0.717
15.98	0.714
