Infrared Spectrum: 2-PHENOXY-3-TRIPHENYLMETHYL PYRAZINE
Formula: C29 H22 N2 O
CAS: 116659-47-3
State: SOLID (MINERAL OIL MULL)
Melting point: 135-136.5 C
Class: COBLENTZ
Instrument: Not specified, most likely a prism, grating, or hybrid spectrometer.
Sampling: TRANSMISSION
Resolution: 4
Origin: WYANDOTTE CHEMICALS CORP., WYANDOTTE, MICHIGAN, USA
MICROMETERS	TRANSMITTANCE
2.027	0.442
2.06687	0.445
2.10673	0.456
2.1466	0.463
2.18646	0.471
2.22633	0.478
2.26619	0.49
2.30606	0.498
2.34592	0.503
2.38579	0.509
2.42566	0.518
2.46552	0.533
2.50539	0.538
2.54525	0.551
2.58512	0.557
2.62498	0.564
2.66485	0.571
2.70472	0.574
2.74458	0.586
2.78445	0.594
2.82431	0.594
2.86418	0.596
2.90404	0.6
2.94391	0.6
2.98377	0.602
3.02364	0.605
3.06351	0.607
3.10337	0.609
3.14324	0.607
3.1831	0.604
3.22297	0.549
3.26283	0.422
3.3027	0.395
3.34257	0.099
3.38243	0.049
3.4223	0.125
3.46216	0.178
3.50203	0.225
3.54189	0.642
3.58176	0.735
3.62162	0.753
3.66149	0.743
3.70136	0.746
3.74122	0.751
3.78109	0.758
3.82095	0.754
3.86082	0.769
3.90068	0.783
3.94055	0.786
3.98042	0.793
4.02028	0.798
4.06015	0.799
4.10001	0.801
4.13988	0.809
4.17974	0.809
4.21961	0.804
4.25947	0.776
4.29934	0.779
4.33921	0.798
4.37907	0.831
4.41894	0.846
4.4588	0.842
4.49867	0.852
4.53853	0.852
4.5784	0.854
4.61827	0.862
4.65813	0.862
4.698	0.865
4.73786	0.869
4.77773	0.875
4.81759	0.877
4.85746	0.877
4.89732	0.877
4.93719	0.877
4.97706	0.874
5.01692	0.88
5.05679	0.887
5.09665	0.855
5.13652	0.821
5.17638	0.829
5.21625	0.867
5.25612	0.889
5.29598	0.867
5.33585	0.839
5.37571	0.882
5.41558	0.887
5.45544	0.897
5.49531	0.87
5.53517	0.864
5.57504	0.887
5.61491	0.892
5.65477	0.854
5.69464	0.859
5.7345	0.91
5.77437	0.899
5.81423	0.907
5.8541	0.897
5.89397	0.903
5.93383	0.894
5.9737	0.89
6.01356	0.88
6.05343	0.89
6.09329	0.889
6.13316	0.882
6.17302	0.839
6.21289	0.46
6.25276	0.634
6.29262	0.779
6.33249	0.725
6.37235	0.731
6.41222	0.693
6.45208	0.326
6.49195	0.501
6.53182	0.71
6.57168	0.809
6.61155	0.672
6.65141	0.19
6.69128	0.188
6.73114	0.407
6.77101	0.385
6.81087	0.226
6.85074	0.226
6.89061	0.319
6.93047	0.14
6.97034	0.284
7.0102	0.455
7.05007	0.687
7.08993	0.713
7.1298	0.675
7.16967	0.514
7.20953	0.349
7.2494	0.036
7.28926	0.074
7.32913	0.309
7.36899	0.478
7.40886	0.35
7.44872	0.147
7.48859	0.322
7.52846	0.493
7.56832	0.466
7.60819	0.541
7.64805	0.579
7.68792	0.614
7.72778	0.658
7.76765	0.599
7.80751	0.399
7.84738	0.534
7.88725	0.46
7.92711	0.658
7.96698	0.713
8.00684	0.66
8.04671	0.65
8.08657	0.731
8.12644	0.745
8.16631	0.682
8.20617	0.498
8.24604	0.167
8.2859	0.049
8.32577	0.157
8.36563	0.23
8.4055	0.064
8.44536	0.11
8.48523	0.221
8.5251	0.407
8.56496	0.5
8.60483	0.347
8.64469	0.337
8.68456	0.653
8.72442	0.735
8.76429	0.768
8.80416	0.756
8.84402	0.48
8.88389	0.5
8.92375	0.705
8.96362	0.773
9.00348	0.799
9.04335	0.748
9.08321	0.781
9.12308	0.809
9.16295	0.652
9.20281	0.581
9.24268	0.614
9.28254	0.649
9.32241	0.597
9.36227	0.7
9.40214	0.804
9.44201	0.846
9.48187	0.859
9.52174	0.869
9.5616	0.867
9.60147	0.862
9.64133	0.826
9.6812	0.554
9.72106	0.619
9.76093	0.64
9.8008	0.695
9.84066	0.781
9.88053	0.822
9.92039	0.837
9.96026	0.73
10.0001	0.806
10.04	0.859
10.0799	0.761
10.1197	0.817
10.1596	0.877
10.1995	0.884
10.2393	0.889
10.2792	0.827
10.319	0.832
10.3589	0.865
10.3988	0.877
10.4386	0.87
10.4785	0.877
10.5184	0.872
10.5582	0.844
10.5981	0.745
10.638	0.428
10.6778	0.418
10.7177	0.706
10.7576	0.812
10.7974	0.832
10.8373	0.754
10.8772	0.615
10.917	0.604
10.9569	0.804
10.9968	0.855
11.0366	0.839
11.0765	0.836
11.1164	0.875
11.1562	0.862
11.1961	0.688
11.236	0.557
11.2758	0.806
11.3157	0.885
11.3556	0.907
11.3954	0.913
11.4353	0.902
11.4752	0.875
11.515	0.781
11.5549	0.682
11.5947	0.596
11.6346	0.728
11.6745	0.836
11.7143	0.872
11.7542	0.892
11.7941	0.899
11.8339	0.895
11.8738	0.867
11.9137	0.849
11.9535	0.801
11.9934	0.789
12.0333	0.832
12.0731	0.816
12.113	0.758
12.1529	0.736
12.1927	0.784
12.2326	0.832
12.2725	0.869
12.3123	0.897
12.3522	0.912
12.3921	0.927
12.4319	0.932
12.4718	0.93
12.5117	0.928
12.5515	0.927
12.5914	0.925
12.6313	0.913
12.6711	0.865
12.711	0.72
12.7509	0.43
12.7907	0.276
12.8306	0.433
12.8704	0.634
12.9103	0.688
12.9502	0.579
12.99	0.384
13.0299	0.269
13.0698	0.495
13.1096	0.665
13.1495	0.692
13.1894	0.534
13.2292	0.226
13.2691	0.104
13.309	0.216
13.3488	0.443
13.3887	0.566
13.4286	0.579
13.4684	0.495
13.5083	0.291
13.5482	0.119
13.588	0.142
13.6279	0.339
13.6678	0.543
13.7076	0.678
13.7475	0.751
13.7874	0.796
13.8272	0.819
13.8671	0.837
13.907	0.837
13.9468	0.859
13.9867	0.864
14.0266	0.849
14.0664	0.802
14.1063	0.731
14.1461	0.65
14.186	0.491
14.2259	0.334
14.2657	0.175
14.3056	0.152
14.3455	0.17
14.3853	0.2
14.4252	0.231
14.4651	0.223
14.5049	0.153
14.5448	0.132
14.5847	0.175
14.6245	0.309
14.6644	0.46
14.7043	0.569
14.7441	0.6
14.784	0.632
14.8239	0.688
14.8637	0.741
14.9036	0.779
14.9435	0.791
14.9833	0.786
15.0232	0.761
15.0631	0.74
15.1029	0.748
15.1428	0.771
15.1827	0.781
15.2225	0.774
15.2624	0.776
15.3023	0.788
15.3421	0.798
15.382	0.798
15.4218	0.798
15.4617	0.794
15.5016	0.788
15.5414	0.783
15.5813	0.771
15.6212	0.766
15.661	0.753
15.7009	0.741
15.7408	0.705
15.7806	0.672
15.8205	0.637
15.8604	0.629
15.9002	0.632
15.9401	0.64
15.98	0.65
