Infrared Spectrum: 2-(m-PHENOXYPHENOXY)-3-METHYL PYRAZINE
Formula: C17 H14 N2 O2
CAS: 116659-73-5
State: LIQUID
Class: COBLENTZ
Instrument: Not specified, most likely a prism, grating, or hybrid spectrometer.
Sampling: TRANSMISSION
Path length: 0.0015 CM
Resolution: 4
Origin: WYANDOTTE CHEMICALS CORP., WYANDOTTE, MICHIGAN, USA
MICROMETERS	TRANSMITTANCE
2.034	0.977
2.07494	0.982
2.11587	0.976
2.15681	0.982
2.19774	0.982
2.23868	0.967
2.27961	0.964
2.32055	0.972
2.36148	0.97
2.40242	0.943
2.44335	0.964
2.48429	0.974
2.52522	0.969
2.56616	0.976
2.60709	0.984
2.64803	0.976
2.68896	0.976
2.7299	0.965
2.77084	0.957
2.81177	0.955
2.85271	0.946
2.89364	0.931
2.93458	0.914
2.97551	0.909
3.01645	0.902
3.05738	0.9
3.09832	0.897
3.13925	0.868
3.18019	0.851
3.22112	0.792
3.26206	0.47
3.30299	0.616
3.34393	0.751
3.38486	0.773
3.4258	0.775
3.46673	0.847
3.50767	0.869
3.54861	0.902
3.58954	0.929
3.63048	0.929
3.67141	0.91
3.71235	0.929
3.75328	0.953
3.79422	0.96
3.83515	0.957
3.87609	0.952
3.91702	0.936
3.95796	0.933
3.99889	0.94
4.03983	0.934
4.08076	0.922
4.1217	0.914
4.16263	0.888
4.20357	0.861
4.24451	0.888
4.28544	0.866
4.32638	0.868
4.36731	0.888
4.40825	0.929
4.44918	0.953
4.49012	0.948
4.53105	0.95
4.57199	0.945
4.61292	0.931
4.65386	0.941
4.69479	0.943
4.73573	0.95
4.77666	0.962
4.8176	0.946
4.85853	0.933
4.89947	0.924
4.94041	0.914
4.98134	0.907
5.02228	0.905
5.06321	0.907
5.10415	0.904
5.14508	0.893
5.18602	0.857
5.22695	0.844
5.26789	0.868
5.30882	0.886
5.34976	0.893
5.39069	0.88
5.43163	0.861
5.47256	0.892
5.5135	0.9
5.55443	0.9
5.59537	0.866
5.63631	0.845
5.67724	0.871
5.71818	0.863
5.75911	0.842
5.80005	0.828
5.84098	0.839
5.88192	0.832
5.92285	0.818
5.96379	0.809
6.00472	0.801
6.04566	0.779
6.08659	0.715
6.12753	0.558
6.16846	0.142
6.2094	0.054
6.25033	0.041
6.29127	0.119
6.3322	0.294
6.37314	0.405
6.41408	0.434
6.45501	0.333
6.49595	0.176
6.53688	0.285
6.57782	0.422
6.61875	0.361
6.65969	0.094
6.70062	0.049
6.74156	0.056
6.78249	0.128
6.82343	0.164
6.86436	0.138
6.9053	0.095
6.94623	0.097
6.98717	0.126
7.0281	0.131
7.06904	0.058
7.10998	0.042
7.15091	0.047
7.19185	0.07
7.23278	0.102
7.27372	0.191
7.31465	0.481
7.35559	0.59
7.39652	0.587
7.43746	0.535
7.47839	0.38
7.51933	0.277
7.56026	0.229
7.6012	0.148
7.64213	0.09
7.68307	0.066
7.724	0.066
7.76494	0.056
7.80588	0.059
7.84681	0.051
7.88775	0.047
7.92868	0.042
7.96962	0.041
8.01055	0.053
8.05149	0.113
8.09242	0.188
8.13336	0.184
8.17429	0.094
8.21523	0.037
8.25616	0.039
8.2971	0.065
8.33803	0.174
8.37897	0.133
8.4199	0.077
8.46084	0.123
8.50178	0.13
8.54271	0.049
8.58365	0.041
8.62458	0.046
8.66552	0.071
8.70645	0.145
8.74739	0.285
8.78832	0.32
8.82926	0.155
8.87019	0.073
8.91113	0.087
8.95206	0.261
8.993	0.46
9.03393	0.58
9.07487	0.664
9.1158	0.695
9.15674	0.686
9.19767	0.597
9.23861	0.474
9.27955	0.375
9.32048	0.376
9.36142	0.527
9.40235	0.623
9.44329	0.671
9.48422	0.7
9.52516	0.696
9.56609	0.642
9.60703	0.542
9.64796	0.446
9.6889	0.431
9.72983	0.44
9.77077	0.376
9.8117	0.513
9.85264	0.508
9.89357	0.44
9.93451	0.541
9.97545	0.4
10.0164	0.59
10.0573	0.63
10.0983	0.595
10.1392	0.515
10.1801	0.376
10.2211	0.215
10.262	0.13
10.3029	0.089
10.3439	0.07
10.3848	0.07
10.4257	0.131
10.4667	0.26
10.5076	0.385
10.5485	0.446
10.5895	0.47
10.6304	0.51
10.6713	0.582
10.7123	0.655
10.7532	0.71
10.7942	0.743
10.8351	0.75
10.876	0.743
10.917	0.722
10.9579	0.684
10.9988	0.652
11.0398	0.618
11.0807	0.577
11.1216	0.511
11.1626	0.416
11.2035	0.361
11.2444	0.404
11.2854	0.462
11.3263	0.508
11.3672	0.486
11.4082	0.445
11.4491	0.398
11.4901	0.352
11.531	0.315
11.5719	0.284
11.6129	0.265
11.6538	0.263
11.6947	0.284
11.7357	0.303
11.7766	0.308
11.8175	0.299
11.8585	0.303
11.8994	0.321
11.9403	0.361
11.9813	0.421
12.0222	0.489
12.0631	0.522
12.1041	0.553
12.145	0.559
12.186	0.566
12.2269	0.544
12.2678	0.554
12.3088	0.63
12.3497	0.688
12.3906	0.7
12.4316	0.676
12.4725	0.616
12.5134	0.532
12.5544	0.438
12.5953	0.354
12.6362	0.296
12.6772	0.256
12.7181	0.243
12.759	0.248
12.8	0.26
12.8409	0.275
12.8819	0.284
12.9228	0.284
12.9637	0.279
13.0047	0.255
13.0456	0.224
13.0865	0.212
13.1275	0.202
13.1684	0.178
13.2093	0.172
13.2503	0.181
13.2912	0.208
13.3321	0.231
13.3731	0.261
13.414	0.301
13.4549	0.347
13.4959	0.392
13.5368	0.424
13.5778	0.46
13.6187	0.513
13.6596	0.573
13.7006	0.64
13.7415	0.683
13.7824	0.719
13.8234	0.734
13.8643	0.739
13.9052	0.736
13.9462	0.736
13.9871	0.744
14.028	0.756
14.069	0.768
14.1099	0.777
14.1508	0.78
14.1918	0.768
14.2327	0.729
14.2737	0.647
14.3146	0.535
14.3555	0.392
14.3965	0.27
14.4374	0.198
14.4783	0.178
14.5193	0.184
14.5602	0.208
14.6011	0.222
14.6421	0.238
14.683	0.268
14.7239	0.335
14.7649	0.438
14.8058	0.559
14.8467	0.664
14.8877	0.731
14.9286	0.777
14.9696	0.801
15.0105	0.808
15.0514	0.804
15.0924	0.818
15.1333	0.839
15.1742	0.847
15.2152	0.849
15.2561	0.842
15.297	0.844
15.338	0.842
15.3789	0.839
15.4198	0.84
15.4608	0.835
15.5017	0.839
15.5426	0.851
15.5836	0.851
15.6245	0.861
15.6655	0.857
15.7064	0.854
15.7473	0.852
15.7883	0.849
15.8292	0.844
15.8701	0.835
15.9111	0.828
15.952	0.823
15.9929	0.809
