Infrared Spectrum: 2-(m-METHOXYPHENOXY)-3-METHYL PYRAZINE
Formula: C12 H12 N2 O2
CAS: 116660-43-6
State: LIQUID
Class: COBLENTZ
Instrument: Not specified, most likely a prism, grating, or hybrid spectrometer.
Sampling: TRANSMISSION
Path length: CAPILLARY
Resolution: 4
Origin: WYANDOTTE CHEMICALS CORP., WYANDOTTE, MICHIGAN, USA
MICROMETERS	TRANSMITTANCE
2.068	0.979
2.10898	0.977
2.14995	0.969
2.19093	0.967
2.23191	0.96
2.27288	0.967
2.31386	0.979
2.35483	0.96
2.39581	0.957
2.43679	0.96
2.47776	0.955
2.51874	0.965
2.55972	0.976
2.60069	0.976
2.64167	0.97
2.68265	0.967
2.72362	0.96
2.7646	0.957
2.80557	0.952
2.84655	0.943
2.88753	0.934
2.9285	0.921
2.96948	0.917
3.01046	0.91
3.05143	0.912
3.09241	0.909
3.13339	0.888
3.17436	0.883
3.21534	0.844
3.25632	0.686
3.29729	0.691
3.33827	0.638
3.37924	0.53
3.42022	0.59
3.4612	0.726
3.50217	0.789
3.54315	0.719
3.58413	0.904
3.6251	0.914
3.66608	0.914
3.70706	0.934
3.74803	0.948
3.78901	0.948
3.82998	0.941
3.87096	0.936
3.91194	0.921
3.95291	0.921
3.99389	0.931
4.03487	0.929
4.07584	0.922
4.11682	0.917
4.1578	0.912
4.19877	0.912
4.23975	0.914
4.28072	0.91
4.3217	0.917
4.36268	0.919
4.40365	0.933
4.44463	0.941
4.48561	0.936
4.52658	0.94
4.56756	0.943
4.60854	0.924
4.64951	0.914
4.69049	0.905
4.73146	0.916
4.77244	0.924
4.81342	0.931
4.85439	0.926
4.89537	0.902
4.93635	0.909
4.97732	0.902
5.0183	0.902
5.05928	0.909
5.10025	0.919
5.14123	0.914
5.18221	0.909
5.22318	0.892
5.26416	0.881
5.30513	0.88
5.34611	0.888
5.38709	0.898
5.42806	0.892
5.46904	0.89
5.51002	0.881
5.55099	0.88
5.59197	0.888
5.63295	0.885
5.67392	0.881
5.7149	0.875
5.75587	0.859
5.79685	0.833
5.83783	0.837
5.8788	0.833
5.91978	0.811
5.96076	0.772
6.00173	0.761
6.04271	0.753
6.08369	0.702
6.12466	0.452
6.16564	0.044
6.20661	0.082
6.24759	0.116
6.28857	0.251
6.32954	0.52
6.37052	0.559
6.4115	0.458
6.45247	0.303
6.49345	0.143
6.53443	0.323
6.5754	0.467
6.61638	0.38
6.65736	0.128
6.69833	0.051
6.73931	0.178
6.78028	0.123
6.82126	0.16
6.86224	0.128
6.90321	0.135
6.94419	0.08
6.98517	0.125
7.02614	0.138
7.06712	0.065
7.1081	0.022
7.14907	0.027
7.19005	0.056
7.23102	0.143
7.272	0.212
7.31298	0.506
7.35395	0.589
7.39493	0.602
7.43591	0.551
7.47688	0.407
7.51786	0.304
7.55884	0.232
7.59981	0.155
7.64079	0.101
7.68176	0.066
7.72274	0.056
7.76372	0.035
7.80469	0.041
7.84567	0.075
7.88665	0.032
7.92762	0.037
7.9686	0.044
8.00958	0.125
8.05055	0.332
8.09153	0.342
8.1325	0.488
8.17348	0.522
8.21446	0.541
8.25543	0.551
8.29641	0.436
8.33739	0.171
8.37836	0.053
8.41934	0.073
8.46032	0.106
8.50129	0.159
8.54227	0.049
8.58325	0.025
8.62422	0.032
8.6652	0.061
8.70617	0.073
8.74715	0.075
8.78813	0.049
8.8291	0.073
8.87008	0.292
8.91106	0.457
8.95203	0.448
8.99301	0.32
9.03399	0.155
9.07496	0.136
9.11594	0.342
9.15691	0.489
9.19789	0.484
9.23887	0.402
9.27984	0.395
9.32082	0.544
9.3618	0.64
9.40277	0.636
9.44375	0.575
9.48473	0.395
9.5257	0.208
9.56668	0.14
9.60765	0.135
9.64863	0.166
9.68961	0.277
9.73058	0.446
9.77156	0.547
9.81254	0.609
9.85351	0.544
9.89449	0.443
9.93547	0.638
9.97644	0.679
10.0174	0.539
10.0584	0.659
10.0994	0.708
10.1403	0.686
10.1813	0.616
10.2223	0.518
10.2633	0.493
10.3043	0.523
10.3452	0.556
10.3862	0.57
10.4272	0.58
10.4682	0.547
10.5091	0.457
10.5501	0.361
10.5911	0.398
10.6321	0.527
10.673	0.578
10.714	0.535
10.755	0.518
10.796	0.577
10.8369	0.63
10.8779	0.64
10.9189	0.645
10.9599	0.676
11.0009	0.705
11.0418	0.731
11.0828	0.751
11.1238	0.748
11.1648	0.715
11.2057	0.657
11.2467	0.583
11.2877	0.542
11.3287	0.561
11.3696	0.578
11.4106	0.578
11.4516	0.551
11.4926	0.51
11.5335	0.443
11.5745	0.4
11.6155	0.351
11.6565	0.318
11.6975	0.292
11.7384	0.284
11.7794	0.273
11.8204	0.251
11.8614	0.261
11.9023	0.299
11.9433	0.376
11.9843	0.493
12.0253	0.602
12.0662	0.669
12.1072	0.714
12.1482	0.753
12.1892	0.767
12.2301	0.768
12.2711	0.77
12.3121	0.75
12.3531	0.72
12.394	0.688
12.435	0.654
12.476	0.648
12.517	0.645
12.558	0.621
12.5989	0.578
12.6399	0.522
12.6809	0.486
12.7219	0.486
12.7628	0.493
12.8038	0.489
12.8448	0.474
12.8858	0.45
12.9267	0.421
12.9677	0.38
13.0087	0.352
13.0497	0.328
13.0906	0.33
13.1316	0.351
13.1726	0.397
13.2136	0.458
13.2546	0.542
13.2955	0.623
13.3365	0.654
13.3775	0.647
13.4185	0.628
13.4594	0.614
13.5004	0.628
13.5414	0.652
13.5824	0.684
13.6233	0.7
13.6643	0.727
13.7053	0.736
13.7463	0.738
13.7872	0.727
13.8282	0.696
13.8692	0.678
13.9102	0.666
13.9512	0.683
13.9921	0.715
14.0331	0.75
14.0741	0.767
14.1151	0.782
14.156	0.785
14.197	0.779
14.238	0.772
14.279	0.76
14.3199	0.758
14.3609	0.756
14.4019	0.753
14.4429	0.732
14.4838	0.698
14.5248	0.621
14.5658	0.537
14.6068	0.452
14.6477	0.392
14.6887	0.392
14.7297	0.47
14.7707	0.566
14.8117	0.666
14.8526	0.72
14.8936	0.763
14.9346	0.787
14.9756	0.787
15.0165	0.777
15.0575	0.761
15.0985	0.767
15.1395	0.787
15.1804	0.791
15.2214	0.801
15.2624	0.801
15.3034	0.791
15.3443	0.784
15.3853	0.773
15.4263	0.768
15.4673	0.765
15.5083	0.761
15.5492	0.772
15.5902	0.777
15.6312	0.775
15.6722	0.78
15.7131	0.784
15.7541	0.782
15.7951	0.779
15.8361	0.779
15.877	0.772
15.918	0.758
15.959	0.756
16	0.751
