Infrared Spectrum: Octanoic acid, 2,3-epoxy-, methyl ester
Formula: C9 H16 O3
CAS: 116663-03-7
State: SOLUTION (10% CCl4 FOR 4000-1310, 10% CS2 FOR 1310-450 CM^-^1) VS SOLVENT
Class: COBLENTZ III
Instrument: CARY 90 (GRATING)
Instrument parameters: GRATING CHANGES: 3000, 2000, 1200 CM^-^1
Sampling: TRANSMISSION
Path length: 0.010 CM, AND 0.010 CM
Resolution: 2
Origin: WESTERN REGIONAL RES. USDA
1/CM	TRANSMITTANCE
451	0.4415
460	0.4606
469	0.486
478	0.505
487	0.519
496	0.5294
505	0.5385
514	0.5499
523	0.5675
532	0.5813
541	0.5919
550	0.6016
559	0.6104
568	0.6176
577	0.6253
586	0.6334
595	0.6412
604	0.6487
613	0.6553
622	0.6619
631	0.6686
640	0.6736
649	0.6788
658	0.6968
667	0.7101
676	0.7114
685	0.7033
694	0.6704
703	0.6612
712	0.61
721	0.5918
730	0.6155
739	0.6361
748	0.6635
757	0.7271
766	0.7253
775	0.7588
784	0.7351
793	0.7146
802	0.7776
811	0.8132
820	0.7922
829	0.7768
838	0.7536
847	0.7529
856	0.7405
865	0.684
874	0.6641
883	0.5647
892	0.5443
901	0.5897
910	0.6366
919	0.7017
928	0.7295
937	0.8168
946	0.8095
955	0.8021
964	0.7817
973	0.7765
982	0.7844
991	0.738
1000	0.6265
1009	0.6106
1018	0.5878
1027	0.4385
1036	0.5626
1045	0.5494
1054	0.6313
1063	0.6702
1072	0.7196
1081	0.7468
1090	0.7415
1099	0.7079
1108	0.7757
1117	0.7933
1126	0.759
1135	0.7059
1144	0.7067
1153	0.7078
1162	0.6916
1171	0.5874
1180	0.2509
1189	0.2375
1198	0.0989
1207	0.1661
1216	0.4485
1225	0.515
1234	0.4798
1243	0.4568
1252	0.406
1261	0.5721
1270	0.5671
1279	0.3104
1288	0.1201
1297	0.2201
1306	0.5059
1315	0.613
1324	0.6062
1333	0.5984
1342	0.5174
1351	0.5955
1360	0.6341
1369	0.7306
1378	0.6805
1387	0.8465
1396	0.8544
1405	0.838
1414	0.7945
1423	0.588
1432	0.4772
1441	0.1811
1450	0.2496
1459	0.3694
1468	0.4064
1477	0.7663
1486	0.8435
1495	0.8666
1504	0.885
1513	0.8995
1522	0.911
1531	0.9216
1540	0.9341
1549	0.9481
1558	0.943
1567	0.9332
1576	0.9321
1585	0.9319
1594	0.9276
1603	0.9164
1612	0.9075
1621	0.9054
1630	0.9052
1639	0.9065
1648	0.9076
1657	0.9075
1666	0.9037
1675	0.8936
1684	0.8804
1693	0.839
1702	0.7309
1711	0.6439
1720	0.5915
1729	0.3371
1738	0.0423
1747	0.0582
1756	0.0162
1765	0.0567
1774	0.5154
1783	0.7316
1792	0.8261
1801	0.8624
1810	0.883
1819	0.9033
1828	0.9229
1837	0.9335
1846	0.9452
1855	0.9436
1864	0.9538
1873	0.9472
1882	0.946
1891	0.9469
1900	0.9441
1909	0.9409
1918	0.9382
1927	0.9404
1936	0.945
1945	0.9444
1954	0.9386
1963	0.9375
1972	0.9369
1981	0.9373
1990	0.9393
1999	0.9464
2008	0.9974
2017	0.9948
2026	0.9916
2035	0.988
2044	0.985
2053	0.9822
2062	0.9811
2071	0.9806
2080	0.977
2089	0.9729
2098	0.9679
2107	0.9625
2116	0.9635
2125	0.9643
2134	0.9645
2143	0.9638
2152	0.9631
2161	0.9625
2170	0.9637
2179	0.9643
2188	0.9642
2197	0.964
2206	0.9619
2215	0.9595
2224	0.9572
2233	0.9552
2242	0.9537
2251	0.9522
2260	0.9507
2269	0.9491
2278	0.9476
2287	0.9461
2296	0.9445
2305	0.9428
2314	0.9409
2323	0.939
2332	0.9372
2341	0.9354
2350	0.9342
2359	0.9329
2368	0.9317
2377	0.9306
2386	0.9297
2395	0.9288
2404	0.9278
2413	0.9269
2422	0.9259
2431	0.9249
2440	0.9239
2449	0.9229
2458	0.9218
2467	0.9206
2476	0.9195
2485	0.9181
2494	0.9164
2503	0.9147
2512	0.9131
2521	0.9113
2530	0.9092
2539	0.907
2548	0.905
2557	0.9028
2566	0.9009
2575	0.899
2584	0.8972
2593	0.8953
2602	0.8935
2611	0.8916
2620	0.8912
2629	0.8908
2638	0.8904
2647	0.8901
2656	0.8897
2665	0.8908
2674	0.8919
2683	0.8922
2692	0.8916
2701	0.891
2710	0.8873
2719	0.8807
2728	0.8758
2737	0.8753
2746	0.881
2755	0.8812
2764	0.8801
2773	0.876
2782	0.8709
2791	0.8638
2800	0.8527
2809	0.8366
2818	0.8092
2827	0.7746
2836	0.6931
2845	0.6268
2854	0.3774
2863	0.2757
2872	0.32
2881	0.5039
2890	0.5155
2899	0.4217
2908	0.328
2917	0.2342
2926	0.1405
2935	0.0787
2944	0.1646
2953	0.1085
2962	0.114
2971	0.2925
2980	0.4711
2989	0.5419
2998	0.5485
3007	0.5789
3016	0.6306
3025	0.6657
3034	0.6993
3043	0.7789
3052	0.8072
3061	0.8279
3070	0.84
3079	0.8459
3088	0.8514
3097	0.8563
3106	0.8601
3115	0.8631
3124	0.8657
3133	0.8683
3142	0.8699
3151	0.8713
3160	0.8716
3169	0.872
3178	0.8736
3187	0.8751
3196	0.8767
3205	0.8788
3214	0.8812
3223	0.8837
3232	0.8862
3241	0.8873
3250	0.8882
3259	0.8887
3268	0.8889
3277	0.889
3286	0.889
3295	0.8888
3304	0.8886
3313	0.8884
3322	0.8879
3331	0.8874
3340	0.8881
3349	0.889
3358	0.8899
3367	0.8903
3376	0.8909
3385	0.8912
3394	0.891
3403	0.8908
3412	0.8908
3421	0.8916
3430	0.8923
3439	0.8915
3448	0.89
3457	0.8869
3466	0.8849
3475	0.8828
3484	0.8815
3493	0.8756
3502	0.8716
3511	0.8696
3520	0.8741
3529	0.8785
3538	0.8789
3547	0.8788
3556	0.8798
3565	0.8817
3574	0.8844
3583	0.8871
3592	0.8894
3601	0.8913
3610	0.8929
3619	0.8924
3628	0.8921
3637	0.8915
3646	0.8889
3655	0.8861
3664	0.8832
3673	0.88
3682	0.8776
3691	0.877
3700	0.8808
3709	0.8844
3718	0.8869
3727	0.8867
3736	0.8834
3745	0.8809
3754	0.8801
3763	0.883
3772	0.8852
3781	0.8848
3790	0.8839
3799	0.8819
3808	0.88
3817	0.8788
3826	0.879
3835	0.8792
3844	0.8796
3853	0.8807
3862	0.8819
3871	0.883
3880	0.8842
3889	0.8859
3898	0.8879
3907	0.8899
3916	0.8921
3925	0.8948
3934	0.8976
3943	0.9004
3952	0.9031
3961	0.9057
3970	0.9082
3979	0.9111
3988	0.9144
3997	0.9177
