Infrared Spectrum: 2-(p-NONYLPHENOXY)-3,6-DIMETHYL PYRAZINE
Formula: C21 H30 N2 O
CAS: 116660-22-1
State: LIQUID
Class: COBLENTZ
Instrument: Not specified, most likely a prism, grating, or hybrid spectrometer.
Sampling: TRANSMISSION
Path length: CAPILLARY
Resolution: 4
Origin: WYANDOTTE CHEMICALS CORP., WYANDOTTE, MICHIGAN, USA
MICROMETERS	TRANSMITTANCE
2.007	0.981
2.04788	0.989
2.08875	0.977
2.12963	0.977
2.1705	0.957
2.21138	0.945
2.25226	0.95
2.29313	0.962
2.33401	0.962
2.37488	0.955
2.41576	0.962
2.45664	0.959
2.49751	0.962
2.53839	0.965
2.57927	0.976
2.62014	0.965
2.66102	0.979
2.70189	0.974
2.74277	0.974
2.78365	0.972
2.82452	0.95
2.8654	0.94
2.90627	0.923
2.94715	0.911
2.98803	0.904
3.0289	0.904
3.06978	0.899
3.11065	0.895
3.15153	0.892
3.19241	0.894
3.23328	0.848
3.27416	0.728
3.31504	0.633
3.35591	0.191
3.39679	0.15
3.43766	0.266
3.47854	0.36
3.51942	0.592
3.56029	0.856
3.60117	0.897
3.64204	0.902
3.68292	0.897
3.7238	0.931
3.76467	0.928
3.80555	0.93
3.84642	0.935
3.8873	0.938
3.92818	0.947
3.96905	0.943
4.00993	0.943
4.0508	0.948
4.09168	0.943
4.13256	0.94
4.17343	0.933
4.21431	0.924
4.25519	0.909
4.29606	0.914
4.33694	0.928
4.37781	0.957
4.41869	0.959
4.45957	0.953
4.50044	0.97
4.54132	0.965
4.58219	0.962
4.62307	0.967
4.66395	0.96
4.70482	0.959
4.7457	0.962
4.78657	0.965
4.82745	0.957
4.86833	0.941
4.9092	0.943
4.95008	0.95
4.99096	0.952
5.03183	0.953
5.07271	0.953
5.11358	0.955
5.15446	0.95
5.19534	0.955
5.23621	0.953
5.27709	0.943
5.31796	0.911
5.35884	0.926
5.39972	0.952
5.44059	0.96
5.48147	0.948
5.52234	0.947
5.56322	0.941
5.6041	0.94
5.64497	0.921
5.68585	0.911
5.72672	0.912
5.7676	0.926
5.80848	0.919
5.84935	0.909
5.89023	0.902
5.93111	0.887
5.97198	0.865
6.01286	0.849
6.05373	0.844
6.09461	0.839
6.13549	0.829
6.17636	0.709
6.21724	0.754
6.25811	0.694
6.29899	0.761
6.33987	0.79
6.38074	0.752
6.42162	0.612
6.46249	0.581
6.50337	0.65
6.54425	0.609
6.58512	0.327
6.626	0.184
6.66688	0.491
6.70775	0.569
6.74863	0.44
6.7895	0.172
6.83038	0.139
6.87126	0.158
6.91213	0.216
6.95301	0.356
6.99388	0.484
7.03476	0.511
7.07564	0.453
7.11651	0.484
7.15739	0.395
7.19826	0.197
7.23914	0.052
7.28002	0.047
7.32089	0.034
7.36177	0.141
7.40264	0.397
7.44352	0.544
7.4844	0.651
7.52527	0.706
7.56615	0.721
7.60703	0.699
7.6479	0.663
7.68878	0.522
7.72965	0.242
7.77053	0.131
7.81141	0.496
7.85228	0.622
7.89316	0.658
7.93403	0.723
7.97491	0.721
8.01579	0.67
8.05666	0.581
8.09754	0.38
8.13841	0.209
8.17929	0.083
8.22017	0.044
8.26104	0.196
8.30192	0.467
8.3428	0.573
8.38367	0.529
8.42455	0.254
8.46542	0.095
8.5063	0.054
8.54718	0.242
8.58805	0.447
8.62893	0.273
8.6698	0.295
8.71068	0.598
8.75156	0.723
8.79243	0.771
8.83331	0.783
8.87418	0.769
8.91506	0.699
8.95594	0.689
8.99681	0.749
9.03769	0.79
9.07856	0.779
9.11944	0.773
9.16032	0.779
9.20119	0.795
9.24207	0.798
9.28295	0.807
9.32382	0.819
9.3647	0.832
9.40557	0.836
9.44645	0.832
9.48733	0.82
9.5282	0.798
9.56908	0.776
9.60995	0.723
9.65083	0.677
9.69171	0.619
9.73258	0.563
9.77346	0.547
9.81433	0.392
9.85521	0.416
9.89609	0.522
9.93696	0.554
9.97784	0.682
10.0187	0.784
10.0596	0.829
10.1005	0.851
10.1413	0.868
10.1822	0.882
10.2231	0.882
10.264	0.88
10.3048	0.868
10.3457	0.854
10.3866	0.843
10.4275	0.824
10.4684	0.8
10.5092	0.781
10.5501	0.803
10.591	0.837
10.6319	0.851
10.6727	0.853
10.7136	0.858
10.7545	0.863
10.7954	0.863
10.8362	0.866
10.8771	0.875
10.918	0.882
10.9589	0.877
10.9997	0.875
11.0406	0.872
11.0815	0.872
11.1224	0.853
11.1632	0.843
11.2041	0.824
11.245	0.796
11.2859	0.767
11.3268	0.73
11.3676	0.713
11.4085	0.744
11.4494	0.8
11.4903	0.834
11.5311	0.836
11.572	0.817
11.6129	0.786
11.6538	0.732
11.6946	0.668
11.7355	0.617
11.7764	0.576
11.8173	0.525
11.8581	0.488
11.899	0.467
11.9399	0.459
11.9808	0.476
12.0216	0.539
12.0625	0.612
12.1034	0.677
12.1443	0.72
12.1851	0.747
12.226	0.774
12.2669	0.791
12.3078	0.813
12.3487	0.832
12.3895	0.846
12.4304	0.851
12.4713	0.858
12.5122	0.858
12.553	0.851
12.5939	0.829
12.6348	0.783
12.6757	0.733
12.7165	0.706
12.7574	0.73
12.7983	0.766
12.8392	0.802
12.88	0.827
12.9209	0.851
12.9618	0.863
13.0027	0.872
13.0435	0.875
13.0844	0.868
13.1253	0.846
13.1662	0.837
13.2071	0.851
13.2479	0.87
13.2888	0.877
13.3297	0.878
13.3706	0.872
13.4114	0.868
13.4523	0.865
13.4932	0.861
13.5341	0.841
13.5749	0.822
13.6158	0.815
13.6567	0.831
13.6976	0.851
13.7384	0.872
13.7793	0.889
13.8202	0.894
13.8611	0.899
13.9019	0.892
13.9428	0.89
13.9837	0.899
14.0246	0.89
14.0654	0.902
14.1063	0.906
14.1472	0.911
14.1881	0.907
14.229	0.909
14.2698	0.914
14.3107	0.909
14.3516	0.907
14.3925	0.907
14.4333	0.899
14.4742	0.899
14.5151	0.894
14.556	0.883
14.5968	0.877
14.6377	0.87
14.6786	0.866
14.7195	0.856
14.7603	0.851
14.8012	0.854
14.8421	0.848
14.883	0.853
14.9238	0.86
14.9647	0.856
15.0056	0.841
15.0465	0.822
15.0874	0.839
15.1282	0.854
15.1691	0.866
15.21	0.856
15.2509	0.846
15.2917	0.837
15.3326	0.831
15.3735	0.831
15.4144	0.822
15.4552	0.81
15.4961	0.808
15.537	0.803
15.5779	0.802
15.6187	0.8
15.6596	0.798
15.7005	0.791
15.7414	0.783
15.7822	0.776
15.8231	0.773
15.864	0.771
15.9049	0.766
15.9457	0.752
