Infrared Spectrum: 2-(P-ISOPROPYLPHENOXY)-3-METHYL PYRAZINE
Formula: C14 H16 N2 O
CAS: 116660-41-4
State: SOLID (MELT)
Class: COBLENTZ
Instrument: Not specified, most likely a prism, grating, or hybrid spectrometer.
Sampling: TRANSMISSION
Resolution: 4
Origin: WYANDOTTE CHEMICALS CORP., WYANDOTTE, MICHIGAN, USA
MICROMETERS	TRANSMITTANCE
2.033	0.998
2.07287	0.986
2.11274	0.991
2.15261	0.985
2.19247	0.975
2.23234	0.958
2.27221	0.966
2.31208	0.976
2.35195	0.976
2.39182	0.963
2.43169	0.97
2.47155	0.97
2.51142	0.971
2.55129	0.973
2.59116	0.978
2.63103	0.98
2.6709	0.99
2.71077	0.985
2.75063	0.981
2.7905	0.978
2.83037	0.973
2.87024	0.97
2.91011	0.963
2.94998	0.96
2.98985	0.95
3.02972	0.945
3.06958	0.928
3.10945	0.92
3.14932	0.91
3.18919	0.906
3.22906	0.868
3.26893	0.594
3.3088	0.742
3.34866	0.442
3.38853	0.282
3.4284	0.347
3.46827	0.442
3.50814	0.482
3.54801	0.828
3.58788	0.875
3.62774	0.9
3.66761	0.89
3.70748	0.903
3.74735	0.921
3.78722	0.93
3.82709	0.93
3.86696	0.926
3.90682	0.925
3.94669	0.925
3.98656	0.93
4.02643	0.921
4.0663	0.908
4.10617	0.881
4.14604	0.901
4.1859	0.906
4.22577	0.92
4.26564	0.905
4.30551	0.916
4.34538	0.918
4.38525	0.94
4.42512	0.926
4.46498	0.916
4.50485	0.923
4.54472	0.935
4.58459	0.94
4.62446	0.948
4.66433	0.926
4.7042	0.918
4.74406	0.93
4.78393	0.936
4.8238	0.94
4.86367	0.938
4.90354	0.93
4.94341	0.92
4.98328	0.92
5.02315	0.931
5.06301	0.921
5.10288	0.923
5.14275	0.931
5.18262	0.921
5.22249	0.915
5.26236	0.85
5.30223	0.748
5.34209	0.898
5.38196	0.925
5.42183	0.926
5.4617	0.933
5.50157	0.93
5.54144	0.92
5.58131	0.913
5.62117	0.906
5.66104	0.9
5.70091	0.895
5.74078	0.89
5.78065	0.89
5.82052	0.876
5.86039	0.838
5.90025	0.843
5.94012	0.792
5.97999	0.798
6.01986	0.816
6.05973	0.83
6.0996	0.838
6.13947	0.816
6.17933	0.74
6.2192	0.687
6.25907	0.668
6.29894	0.728
6.33881	0.742
6.37868	0.72
6.41855	0.569
6.45841	0.239
6.49828	0.447
6.53815	0.519
6.57802	0.239
6.61789	0.251
6.65776	0.55
6.69763	0.623
6.73749	0.539
6.77736	0.317
6.81723	0.279
6.8571	0.297
6.89697	0.193
6.93684	0.064
6.97671	0.098
7.01658	0.059
7.05644	0.028
7.09631	0.028
7.13618	0.033
7.17605	0.039
7.21592	0.138
7.25579	0.217
7.29566	0.382
7.33552	0.49
7.37539	0.554
7.41526	0.589
7.45513	0.555
7.495	0.46
7.53487	0.447
7.57474	0.504
7.6146	0.362
7.65447	0.232
7.69434	0.249
7.73421	0.274
7.77408	0.134
7.81395	0.201
7.85382	0.374
7.89368	0.376
7.93355	0.126
7.97342	0.189
8.01329	0.425
8.05316	0.557
8.09303	0.549
8.1329	0.479
8.17276	0.297
8.21263	0.196
8.2525	0.173
8.29237	0.284
8.33224	0.48
8.37211	0.462
8.41198	0.123
8.45184	0.058
8.49171	0.164
8.53158	0.054
8.57145	0.251
8.61132	0.457
8.65119	0.296
8.69106	0.392
8.73093	0.43
8.77079	0.574
8.81066	0.672
8.85053	0.697
8.8904	0.688
8.93027	0.658
8.97014	0.549
9.01001	0.537
9.04987	0.432
9.08974	0.469
9.12961	0.66
9.16948	0.733
9.20935	0.747
9.24922	0.663
9.28909	0.748
9.32895	0.765
9.36882	0.747
9.40869	0.642
9.44856	0.55
9.48843	0.623
9.5283	0.713
9.56817	0.742
9.60803	0.69
9.6479	0.612
9.68777	0.58
9.72764	0.642
9.76751	0.703
9.80738	0.61
9.84725	0.43
9.88711	0.532
9.92698	0.677
9.96685	0.792
10.0067	0.81
10.0466	0.813
10.0865	0.803
10.1263	0.78
10.1662	0.735
10.2061	0.643
10.2459	0.494
10.2858	0.352
10.3257	0.4
10.3655	0.535
10.4054	0.61
10.4453	0.66
10.4851	0.72
10.525	0.773
10.5649	0.801
10.6047	0.811
10.6446	0.8
10.6845	0.767
10.7244	0.808
10.7642	0.815
10.8041	0.803
10.844	0.755
10.8838	0.717
10.9237	0.772
10.9636	0.792
11.0034	0.765
11.0433	0.643
11.0832	0.247
11.123	0.41
11.1629	0.66
11.2028	0.722
11.2426	0.765
11.2825	0.792
11.3224	0.795
11.3623	0.797
11.4021	0.787
11.442	0.777
11.4819	0.752
11.5217	0.715
11.5616	0.662
11.6015	0.597
11.6413	0.489
11.6812	0.326
11.7211	0.159
11.7609	0.051
11.8008	0.043
11.8407	0.086
11.8805	0.181
11.9204	0.259
11.9603	0.297
12.0002	0.332
12.04	0.357
12.0799	0.477
12.1198	0.587
12.1596	0.64
12.1995	0.678
12.2394	0.718
12.2792	0.752
12.3191	0.783
12.359	0.806
12.3988	0.82
12.4387	0.825
12.4786	0.835
12.5184	0.841
12.5583	0.848
12.5982	0.851
12.638	0.85
12.6779	0.856
12.7178	0.85
12.7577	0.846
12.7975	0.82
12.8374	0.753
12.8773	0.655
12.9171	0.58
12.957	0.672
12.9969	0.768
13.0367	0.793
13.0766	0.748
13.1165	0.75
13.1563	0.797
13.1962	0.825
13.2361	0.828
13.2759	0.83
13.3158	0.828
13.3557	0.826
13.3956	0.821
13.4354	0.82
13.4753	0.823
13.5152	0.821
13.555	0.813
13.5949	0.772
13.6348	0.72
13.6746	0.732
13.7145	0.778
13.7544	0.816
13.7942	0.833
13.8341	0.846
13.874	0.853
13.9138	0.86
13.9537	0.86
13.9936	0.866
14.0334	0.866
14.0733	0.856
14.1132	0.828
14.1531	0.803
14.1929	0.785
14.2328	0.795
14.2727	0.82
14.3125	0.836
14.3524	0.843
14.3923	0.848
14.4321	0.851
14.472	0.85
14.5119	0.846
14.5517	0.846
14.5916	0.846
14.6315	0.851
14.6713	0.858
14.7112	0.86
14.7511	0.863
14.791	0.861
14.8308	0.865
14.8707	0.865
14.9106	0.868
14.9504	0.871
14.9903	0.865
15.0302	0.846
15.07	0.828
15.1099	0.84
15.1498	0.856
15.1896	0.868
15.2295	0.861
15.2694	0.856
15.3092	0.85
15.3491	0.841
15.389	0.84
15.4289	0.836
15.4687	0.831
15.5086	0.825
15.5485	0.823
15.5883	0.818
15.6282	0.813
15.6681	0.811
15.7079	0.806
15.7478	0.798
15.7877	0.798
15.8275	0.787
15.8674	0.787
15.9073	0.782
15.9471	0.775
15.987	0.765
