Infrared Spectrum: 2-n-NONYL-6-METHYL PYRAZINE
Formula: C14 H24 N2
CAS: 116660-48-1
State: LIQUID
Class: COBLENTZ
Instrument: Not specified, most likely a prism, grating, or hybrid spectrometer.
Sampling: TRANSMISSION
Path length: 0.003 CM
Resolution: 4
Origin: WYANDOTTE CHEMICALS CORP., WYANDOTTE, MICHIGAN, USA
MICROMETERS	TRANSMITTANCE
2.055	0.97
2.09594	0.957
2.13687	0.969
2.17781	0.936
2.21874	0.871
2.25968	0.892
2.30061	0.912
2.34155	0.917
2.38248	0.917
2.42342	0.948
2.46435	0.957
2.50529	0.95
2.54622	0.97
2.58716	0.969
2.62809	0.97
2.66903	0.95
2.70996	0.931
2.7509	0.9
2.79183	0.849
2.83277	0.82
2.8737	0.804
2.91464	0.796
2.95558	0.801
2.99651	0.837
3.03745	0.869
3.07838	0.878
3.11932	0.876
3.16025	0.878
3.20119	0.871
3.24212	0.809
3.28306	0.501
3.32399	0.539
3.36493	0.061
3.40586	0.059
3.4468	0.073
3.48773	0.063
3.52867	0.299
3.5696	0.662
3.61054	0.801
3.65147	0.82
3.69241	0.83
3.73334	0.851
3.77428	0.861
3.81521	0.883
3.85615	0.91
3.89709	0.917
3.93802	0.934
3.97896	0.934
4.01989	0.95
4.06083	0.946
4.10176	0.95
4.1427	0.952
4.18363	0.948
4.22457	0.952
4.2655	0.95
4.30644	0.943
4.34737	0.934
4.38831	0.955
4.42924	0.97
4.47018	0.97
4.51111	0.979
4.55205	0.979
4.59298	0.981
4.63392	0.979
4.67485	0.981
4.71579	0.979
4.75673	0.981
4.79766	0.979
4.8386	0.979
4.87953	0.982
4.92047	0.981
4.9614	0.988
5.00234	0.984
5.04327	0.984
5.08421	0.981
5.12514	0.977
5.16608	0.979
5.20701	0.984
5.24795	0.988
5.28888	0.981
5.32982	0.982
5.37075	0.97
5.41169	0.962
5.45262	0.979
5.49356	0.979
5.53449	0.967
5.57543	0.946
5.61636	0.948
5.6573	0.962
5.69824	0.958
5.73917	0.943
5.78011	0.941
5.82104	0.946
5.86198	0.934
5.90291	0.926
5.94385	0.928
5.98478	0.91
6.02572	0.892
6.06665	0.861
6.10759	0.861
6.14852	0.866
6.18946	0.869
6.23039	0.849
6.27133	0.746
6.31226	0.7
6.3532	0.758
6.39413	0.756
6.43507	0.686
6.476	0.364
6.51694	0.202
6.55788	0.489
6.59881	0.636
6.63975	0.652
6.68068	0.63
6.72162	0.558
6.76255	0.376
6.80349	0.102
6.84442	0.159
6.88536	0.193
6.92629	0.193
6.96723	0.179
7.00816	0.136
7.0491	0.113
7.09003	0.162
7.13097	0.441
7.1719	0.529
7.21284	0.44
7.25377	0.248
7.29471	0.511
7.33564	0.601
7.37658	0.631
7.41751	0.657
7.45845	0.659
7.49939	0.71
7.54032	0.748
7.58126	0.731
7.62219	0.71
7.66313	0.688
7.70406	0.679
7.745	0.679
7.78593	0.645
7.82687	0.595
7.8678	0.388
7.90874	0.339
7.94967	0.33
7.99061	0.289
8.03154	0.369
8.07248	0.44
8.11341	0.47
8.15435	0.511
8.19528	0.607
8.23622	0.683
8.27715	0.717
8.31809	0.717
8.35903	0.7
8.39996	0.659
8.4409	0.616
8.48183	0.537
8.52277	0.405
8.5637	0.292
8.60464	0.203
8.64557	0.282
8.68651	0.369
8.72744	0.417
8.76838	0.535
8.80931	0.66
8.85025	0.688
8.89118	0.681
8.93212	0.662
8.97305	0.674
9.01399	0.672
9.05492	0.626
9.09586	0.611
9.13679	0.616
9.17773	0.64
9.21866	0.664
9.2596	0.686
9.30054	0.69
9.34147	0.698
9.38241	0.676
9.42334	0.678
9.46428	0.65
9.50521	0.638
9.54615	0.609
9.58708	0.578
9.62802	0.537
9.66895	0.508
9.70989	0.508
9.75082	0.38
9.79176	0.231
9.83269	0.205
9.87363	0.38
9.91456	0.5
9.9555	0.559
9.99643	0.618
10.0374	0.662
10.0783	0.717
10.1192	0.741
10.1602	0.755
10.2011	0.763
10.242	0.761
10.283	0.761
10.3239	0.75
10.3649	0.746
10.4058	0.748
10.4467	0.72
10.4877	0.71
10.5286	0.69
10.5695	0.657
10.6105	0.633
10.6514	0.638
10.6923	0.667
10.7333	0.691
10.7742	0.712
10.8151	0.738
10.8561	0.758
10.897	0.775
10.9379	0.784
10.9789	0.785
11.0198	0.789
11.0608	0.799
11.1017	0.797
11.1426	0.797
11.1836	0.785
11.2245	0.758
11.2654	0.719
11.3064	0.678
11.3473	0.626
11.3882	0.57
11.4292	0.52
11.4701	0.482
11.511	0.458
11.552	0.46
11.5929	0.515
11.6338	0.614
11.6748	0.703
11.7157	0.75
11.7566	0.777
11.7976	0.801
11.8385	0.801
11.8795	0.811
11.9204	0.813
11.9613	0.811
12.0023	0.811
12.0432	0.816
12.0841	0.809
12.1251	0.811
12.166	0.813
12.2069	0.811
12.2479	0.809
12.2888	0.811
12.3297	0.811
12.3707	0.806
12.4116	0.801
12.4525	0.803
12.4935	0.797
12.5344	0.797
12.5754	0.792
12.6163	0.78
12.6572	0.765
12.6982	0.755
12.7391	0.748
12.78	0.739
12.821	0.732
12.8619	0.708
12.9028	0.69
12.9438	0.655
12.9847	0.636
13.0256	0.607
13.0666	0.575
13.1075	0.565
13.1484	0.57
13.1894	0.578
13.2303	0.585
13.2713	0.585
13.3122	0.589
13.3531	0.585
13.3941	0.583
13.435	0.58
13.4759	0.57
13.5169	0.566
13.5578	0.559
13.5987	0.551
13.6397	0.544
13.6806	0.53
13.7215	0.517
13.7625	0.498
13.8034	0.455
13.8443	0.414
13.8853	0.4
13.9262	0.419
13.9672	0.472
14.0081	0.523
14.049	0.561
14.09	0.607
14.1309	0.628
14.1718	0.654
14.2128	0.669
14.2537	0.679
14.2946	0.688
14.3356	0.681
14.3765	0.671
14.4174	0.664
14.4584	0.674
14.4993	0.688
14.5402	0.695
14.5812	0.695
14.6221	0.695
14.6631	0.684
14.704	0.683
14.7449	0.684
14.7859	0.672
14.8268	0.674
14.8677	0.657
14.9087	0.652
14.9496	0.652
14.9905	0.65
15.0315	0.628
15.0724	0.571
15.1133	0.534
15.1543	0.556
15.1952	0.582
15.2361	0.602
15.2771	0.604
15.318	0.606
15.3589	0.599
15.3999	0.601
15.4408	0.595
15.4818	0.585
15.5227	0.57
15.5636	0.571
15.6046	0.563
15.6455	0.561
15.6864	0.546
15.7274	0.537
15.7683	0.535
15.8092	0.518
15.8502	0.515
15.8911	0.51
15.932	0.501
15.973	0.498
