Infrared Spectrum: 2-(2-METHYL-6-ETHYLPHENOXY)-3-METHYL PYRAZINE
Formula: C14 H16 N2 O
CAS: 116660-46-9
State: LIQUID
Class: COBLENTZ
Instrument: Not specified, most likely a prism, grating, or hybrid spectrometer.
Sampling: TRANSMISSION
Path length: 0.0015 CM
Resolution: 4
Origin: WYANDOTTE CHEMICALS CORP., WYANDOTTE, MICHIGAN, USA
MICROMETERS	TRANSMITTANCE
2.027	0.996
2.06792	0.994
2.10884	0.986
2.14975	0.979
2.19067	0.959
2.23159	0.941
2.27251	0.931
2.31342	0.948
2.35434	0.952
2.39526	0.96
2.43618	0.959
2.4771	0.953
2.51801	0.941
2.55893	0.943
2.59985	0.969
2.64077	0.964
2.68168	0.986
2.7226	0.981
2.76352	0.964
2.80444	0.948
2.84536	0.931
2.88627	0.923
2.92719	0.914
2.96811	0.902
3.00903	0.904
3.04994	0.901
3.09086	0.897
3.13178	0.89
3.1727	0.872
3.21362	0.854
3.25453	0.803
3.29545	0.372
3.33637	0.45
3.37729	0.151
3.4182	0.182
3.45912	0.286
3.50004	0.37
3.54096	0.51
3.58188	0.793
3.62279	0.858
3.66371	0.87
3.70463	0.848
3.74555	0.904
3.78646	0.928
3.82738	0.919
3.8683	0.918
3.90922	0.916
3.95014	0.923
3.99105	0.909
4.03197	0.926
4.07289	0.916
4.11381	0.902
4.15472	0.887
4.19564	0.877
4.23656	0.912
4.27748	0.899
4.3184	0.911
4.35931	0.923
4.40023	0.938
4.44115	0.936
4.48207	0.921
4.52298	0.928
4.5639	0.945
4.60482	0.959
4.64574	0.952
4.68666	0.947
4.72757	0.941
4.76849	0.947
4.80941	0.95
4.85033	0.947
4.89124	0.95
4.93216	0.945
4.97308	0.953
5.014	0.945
5.05492	0.923
5.09583	0.914
5.13675	0.928
5.17767	0.924
5.21859	0.926
5.2595	0.861
5.30042	0.909
5.34134	0.914
5.38226	0.94
5.42318	0.907
5.46409	0.883
5.50501	0.919
5.54593	0.923
5.58685	0.894
5.62776	0.866
5.66868	0.849
5.7096	0.897
5.75052	0.916
5.79144	0.904
5.83235	0.892
5.87327	0.861
5.91419	0.849
5.95511	0.798
5.99602	0.74
6.03694	0.766
6.07786	0.822
6.11878	0.82
6.1597	0.81
6.20061	0.679
6.24153	0.619
6.28245	0.426
6.32337	0.409
6.36428	0.549
6.4052	0.525
6.44612	0.331
6.48704	0.114
6.52796	0.076
6.56887	0.247
6.60979	0.411
6.65071	0.467
6.69163	0.416
6.73254	0.244
6.77346	0.087
6.81438	0.049
6.8553	0.064
6.89622	0.08
6.93713	0.066
6.97805	0.046
7.01897	0.054
7.05989	0.059
7.1008	0.046
7.14172	0.049
7.18264	0.047
7.22356	0.052
7.26448	0.058
7.30539	0.09
7.34631	0.329
7.38723	0.448
7.42815	0.438
7.46906	0.36
7.50998	0.238
7.5509	0.197
7.59182	0.189
7.63273	0.163
7.67365	0.051
7.71457	0.042
7.75549	0.047
7.79641	0.047
7.83732	0.059
7.87824	0.15
7.91916	0.139
7.96008	0.052
8.00099	0.047
8.04191	0.083
8.08283	0.264
8.12375	0.349
8.16467	0.498
8.20558	0.416
8.2465	0.462
8.28742	0.47
8.32834	0.385
8.36925	0.15
8.41017	0.042
8.45109	0.049
8.49201	0.051
8.53293	0.042
8.57384	0.042
8.61476	0.046
8.65568	0.061
8.6966	0.119
8.73751	0.177
8.77843	0.325
8.81935	0.549
8.86027	0.624
8.90119	0.663
8.9421	0.68
8.98302	0.68
9.02394	0.646
9.06486	0.474
9.10577	0.148
9.14669	0.266
9.18761	0.488
9.22853	0.59
9.26945	0.585
9.31036	0.58
9.35128	0.511
9.3922	0.529
9.43312	0.494
9.47403	0.448
9.51495	0.513
9.55587	0.576
9.59679	0.554
9.63771	0.409
9.67862	0.3
9.71954	0.3
9.76046	0.436
9.80138	0.568
9.84229	0.639
9.88321	0.569
9.92413	0.199
9.96505	0.416
10.006	0.682
10.0469	0.742
10.0878	0.764
10.1287	0.725
10.1696	0.651
10.2106	0.537
10.2515	0.392
10.2924	0.346
10.3333	0.431
10.3742	0.523
10.4151	0.539
10.4561	0.556
10.497	0.634
10.5379	0.711
10.5788	0.759
10.6197	0.791
10.6607	0.817
10.7016	0.831
10.7425	0.843
10.7834	0.844
10.8243	0.839
10.8652	0.831
10.9062	0.813
10.9471	0.807
10.988	0.776
11.0289	0.715
11.0698	0.598
11.1107	0.414
11.1517	0.385
11.1926	0.438
11.2335	0.401
11.2744	0.51
11.3153	0.672
11.3563	0.755
11.3972	0.788
11.4381	0.776
11.479	0.728
11.5199	0.639
11.5608	0.525
11.6018	0.411
11.6427	0.305
11.6836	0.262
11.7245	0.3
11.7654	0.339
11.8063	0.331
11.8473	0.3
11.8882	0.264
11.9291	0.237
11.97	0.349
12.0109	0.44
12.0519	0.424
12.0928	0.397
12.1337	0.583
12.1746	0.716
12.2155	0.779
12.2564	0.805
12.2974	0.807
12.3383	0.788
12.3792	0.745
12.4201	0.68
12.461	0.609
12.502	0.566
12.5429	0.529
12.5838	0.486
12.6247	0.395
12.6656	0.302
12.7065	0.23
12.7475	0.191
12.7884	0.179
12.8293	0.151
12.8702	0.119
12.9111	0.097
12.952	0.083
12.993	0.087
13.0339	0.139
13.0748	0.259
13.1157	0.395
13.1566	0.503
13.1976	0.554
13.2385	0.583
13.2794	0.588
13.3203	0.595
13.3612	0.607
13.4021	0.597
13.4431	0.6
13.484	0.653
13.5249	0.709
13.5658	0.711
13.6067	0.645
13.6476	0.585
13.6886	0.61
13.7295	0.648
13.7704	0.667
13.8113	0.709
13.8522	0.747
13.8932	0.778
13.9341	0.807
13.975	0.837
14.0159	0.87
14.0568	0.885
14.0977	0.911
14.1387	0.918
14.1796	0.918
14.2205	0.926
14.2614	0.926
14.3023	0.924
14.3432	0.926
14.3842	0.921
14.4251	0.907
14.466	0.906
14.5069	0.897
14.5478	0.889
14.5888	0.88
14.6297	0.875
14.6706	0.877
14.7115	0.866
14.7524	0.86
14.7933	0.849
14.8343	0.851
14.8752	0.856
14.9161	0.86
14.957	0.861
14.9979	0.858
15.0389	0.836
15.0798	0.802
15.1207	0.779
15.1616	0.795
15.2025	0.822
15.2434	0.851
15.2844	0.86
15.3253	0.865
15.3662	0.858
15.4071	0.853
15.448	0.858
15.4889	0.844
15.5299	0.836
15.5708	0.834
15.6117	0.825
15.6526	0.82
15.6935	0.808
15.7345	0.795
15.7754	0.79
15.8163	0.798
15.8572	0.79
15.8981	0.786
15.939	0.788
15.98	0.781
