Infrared Spectrum: 2-n-NONYL-5-METHYL PYRAZINE
Formula: C14 H24 N2
CAS: 116660-47-0
State: LIQUID
Class: COBLENTZ
Instrument: Not specified, most likely a prism, grating, or hybrid spectrometer.
Sampling: TRANSMISSION
Path length: 0.003 CM
Resolution: 4
Origin: WYANDOTTE CHEMICALS CORP., WYANDOTTE, MICHIGAN, USA
MICROMETERS	TRANSMITTANCE
2.007	0.948
2.04788	0.95
2.08875	0.943
2.12963	0.948
2.1705	0.904
2.21138	0.851
2.25226	0.877
2.29313	0.885
2.33401	0.909
2.37488	0.901
2.41576	0.921
2.45664	0.919
2.49751	0.923
2.53839	0.924
2.57926	0.941
2.62014	0.945
2.66102	0.941
2.70189	0.93
2.74277	0.912
2.78365	0.907
2.82452	0.892
2.8654	0.872
2.90627	0.866
2.94715	0.868
2.98803	0.875
3.0289	0.883
3.06978	0.89
3.11065	0.882
3.15153	0.88
3.19241	0.86
3.23328	0.672
3.27416	0.672
3.31503	0.237
3.35591	0.059
3.39679	0.052
3.43766	0.092
3.47854	0.068
3.51941	0.435
3.56029	0.682
3.60117	0.793
3.64204	0.793
3.68292	0.829
3.72379	0.812
3.76467	0.839
3.80555	0.868
3.84642	0.887
3.8873	0.909
3.92817	0.918
3.96905	0.921
4.00993	0.931
4.0508	0.93
4.09168	0.93
4.13256	0.931
4.17343	0.93
4.21431	0.93
4.25518	0.941
4.29606	0.938
4.33694	0.93
4.37781	0.93
4.41869	0.95
4.45956	0.953
4.50044	0.952
4.54132	0.955
4.58219	0.959
4.62307	0.955
4.66394	0.959
4.70482	0.955
4.7457	0.962
4.78657	0.964
4.82745	0.957
4.86832	0.962
4.9092	0.967
4.95008	0.976
4.99095	0.962
5.03183	0.97
5.0727	0.959
5.11358	0.959
5.15446	0.962
5.19533	0.974
5.23621	0.964
5.27708	0.977
5.31796	0.967
5.35884	0.976
5.39971	0.97
5.44059	0.957
5.48147	0.93
5.52234	0.902
5.56322	0.948
5.60409	0.952
5.64497	0.957
5.68585	0.957
5.72672	0.953
5.7676	0.945
5.80847	0.943
5.84935	0.928
5.89023	0.919
5.9311	0.914
5.97198	0.906
6.01285	0.894
6.05373	0.868
6.09461	0.875
6.13548	0.872
6.17636	0.877
6.21723	0.878
6.25811	0.865
6.29899	0.853
6.33986	0.872
6.38074	0.849
6.42161	0.819
6.46249	0.769
6.50337	0.709
6.54424	0.72
6.58512	0.704
6.62599	0.542
6.66687	0.168
6.70775	0.141
6.74862	0.209
6.7895	0.121
6.83038	0.172
6.87125	0.201
6.91213	0.249
6.953	0.373
6.99388	0.488
7.03476	0.556
7.07563	0.605
7.11651	0.653
7.15738	0.631
7.19826	0.387
7.23914	0.247
7.28001	0.45
7.32089	0.383
7.36176	0.317
7.40264	0.286
7.44352	0.259
7.48439	0.288
7.52527	0.354
7.56614	0.344
7.60702	0.402
7.6479	0.501
7.68877	0.6
7.72965	0.677
7.77052	0.713
7.8114	0.732
7.85228	0.742
7.89315	0.732
7.93403	0.663
7.9749	0.551
8.01578	0.684
8.05666	0.759
8.09753	0.786
8.13841	0.769
8.17929	0.742
8.22016	0.771
8.26104	0.8
8.30191	0.808
8.34279	0.795
8.38367	0.761
8.42454	0.728
8.46542	0.651
8.50629	0.569
8.54717	0.474
8.58805	0.445
8.62892	0.392
8.6698	0.387
8.71067	0.464
8.75155	0.604
8.79243	0.682
8.8333	0.713
8.87418	0.692
8.91505	0.674
8.95593	0.697
8.99681	0.708
9.03768	0.684
9.07856	0.68
9.11943	0.692
9.16031	0.708
9.20119	0.713
9.24206	0.72
9.28294	0.716
9.32381	0.72
9.36469	0.701
9.40557	0.677
9.44644	0.648
9.48732	0.605
9.5282	0.53
9.56907	0.317
9.60995	0.092
9.65082	0.071
9.6917	0.267
9.73258	0.477
9.77345	0.585
9.81433	0.646
9.8552	0.697
9.89608	0.744
9.93696	0.764
9.97783	0.773
10.0187	0.774
10.0596	0.755
10.1005	0.728
10.1413	0.692
10.1822	0.677
10.2231	0.677
10.264	0.701
10.3048	0.704
10.3457	0.715
10.3866	0.721
10.4275	0.726
10.4683	0.737
10.5092	0.749
10.5501	0.762
10.591	0.769
10.6318	0.774
10.6727	0.776
10.7136	0.778
10.7545	0.774
10.7954	0.774
10.8362	0.779
10.8771	0.776
10.918	0.769
10.9589	0.761
10.9997	0.752
11.0406	0.728
11.0815	0.684
11.1224	0.607
11.1632	0.539
11.2041	0.535
11.245	0.576
11.2859	0.627
11.3267	0.68
11.3676	0.708
11.4085	0.742
11.4494	0.757
11.4902	0.773
11.5311	0.781
11.572	0.791
11.6129	0.798
11.6538	0.812
11.6946	0.831
11.7355	0.839
11.7764	0.837
11.8173	0.839
11.8581	0.841
11.899	0.846
11.9399	0.844
11.9808	0.846
12.0216	0.846
12.0625	0.843
12.1034	0.848
12.1443	0.846
12.1851	0.848
12.226	0.843
12.2669	0.843
12.3078	0.841
12.3486	0.841
12.3895	0.836
12.4304	0.836
12.4713	0.836
12.5121	0.832
12.553	0.824
12.5939	0.817
12.6348	0.805
12.6757	0.793
12.7165	0.781
12.7574	0.766
12.7983	0.747
12.8392	0.738
12.88	0.726
12.9209	0.72
12.9618	0.713
13.0027	0.708
13.0435	0.696
13.0844	0.691
13.1253	0.677
13.1662	0.67
13.207	0.656
13.2479	0.651
13.2888	0.636
13.3297	0.626
13.3705	0.622
13.4114	0.624
13.4523	0.629
13.4932	0.626
13.534	0.621
13.5749	0.612
13.6158	0.604
13.6567	0.595
13.6976	0.583
13.7384	0.552
13.7793	0.52
13.8202	0.477
13.8611	0.457
13.9019	0.467
13.9428	0.503
13.9837	0.551
14.0246	0.587
14.0654	0.619
14.1063	0.651
14.1472	0.665
14.1881	0.68
14.2289	0.692
14.2698	0.703
14.3107	0.713
14.3516	0.715
14.3924	0.713
14.4333	0.711
14.4742	0.709
14.5151	0.703
14.556	0.703
14.5968	0.699
14.6377	0.696
14.6786	0.691
14.7195	0.687
14.7603	0.68
14.8012	0.674
14.8421	0.663
14.883	0.66
14.9238	0.648
14.9647	0.65
15.0056	0.631
15.0465	0.587
15.0873	0.547
15.1282	0.554
15.1691	0.581
15.21	0.597
15.2508	0.602
15.2917	0.605
15.3326	0.6
15.3735	0.593
15.4143	0.583
15.4552	0.576
15.4961	0.566
15.537	0.566
15.5779	0.559
15.6187	0.551
15.6596	0.54
15.7005	0.534
15.7414	0.529
15.7822	0.511
15.8231	0.51
15.864	0.503
15.9049	0.489
15.9457	0.488
