Infrared Spectrum: 3-(N,N-DI-n-BUTYLAMINO)-2,5-DIMETHYL PYRAZINE
Formula: C14 H25 N3
CAS: 116660-16-3
State: LIQUID
Class: COBLENTZ
Instrument: Not specified, most likely a prism, grating, or hybrid spectrometer.
Sampling: TRANSMISSION
Path length: 0.003 CM
Resolution: 4
Origin: WYANDOTTE CHEMICALS CORP., WYANDOTTE, MICHIGAN, USA
MICROMETERS	TRANSMITTANCE
2.04	0.995
2.07979	0.996
2.11958	0.985
2.15937	0.981
2.19917	0.92
2.23896	0.903
2.27875	0.916
2.31854	0.936
2.35833	0.946
2.39812	0.953
2.43791	0.958
2.47771	0.963
2.5175	0.973
2.55729	0.983
2.59708	0.993
2.63687	0.998
2.67666	0.995
2.71645	0.988
2.75625	0.981
2.79604	0.966
2.83583	0.961
2.87562	0.95
2.91541	0.926
2.9552	0.918
2.99499	0.911
3.03479	0.905
3.07458	0.901
3.11437	0.897
3.15416	0.878
3.19395	0.863
3.23374	0.833
3.27354	0.7
3.31333	0.496
3.35312	0.179
3.39291	0.049
3.4327	0.059
3.47249	0.076
3.51228	0.096
3.55208	0.29
3.59187	0.594
3.63166	0.774
3.67145	0.759
3.71124	0.795
3.75103	0.825
3.79082	0.858
3.83062	0.87
3.87041	0.887
3.9102	0.91
3.94999	0.898
3.98978	0.911
4.02957	0.92
4.06936	0.92
4.10916	0.916
4.14895	0.913
4.18874	0.901
4.22853	0.897
4.26832	0.877
4.30811	0.882
4.3479	0.893
4.3877	0.906
4.42749	0.921
4.46728	0.94
4.50707	0.95
4.54686	0.951
4.58665	0.953
4.62644	0.953
4.66624	0.955
4.70603	0.953
4.74582	0.94
4.78561	0.941
4.8254	0.953
4.86519	0.958
4.90498	0.951
4.94478	0.953
4.98457	0.946
5.02436	0.956
5.06415	0.955
5.10394	0.96
5.14373	0.981
5.18352	0.976
5.22332	0.961
5.26311	0.96
5.3029	0.96
5.34269	0.966
5.38248	0.971
5.42227	0.971
5.46206	0.975
5.50186	0.971
5.54165	0.953
5.58144	0.945
5.62123	0.94
5.66102	0.935
5.70081	0.921
5.74061	0.906
5.7804	0.88
5.82019	0.858
5.85998	0.87
5.89977	0.87
5.93956	0.867
5.97935	0.857
6.01915	0.833
6.05894	0.823
6.09873	0.822
6.13852	0.82
6.17831	0.815
6.2181	0.808
6.25789	0.772
6.29769	0.7
6.33748	0.433
6.37727	0.307
6.41706	0.43
6.45685	0.335
6.49664	0.146
6.53643	0.089
6.57623	0.192
6.61602	0.312
6.65581	0.368
6.6956	0.335
6.73539	0.235
6.77518	0.171
6.81497	0.058
6.85477	0.068
6.89456	0.053
6.93435	0.053
6.97414	0.058
7.01393	0.078
7.05372	0.069
7.09351	0.059
7.13331	0.104
7.1731	0.212
7.21289	0.274
7.25268	0.106
7.29247	0.059
7.33226	0.054
7.37205	0.058
7.41185	0.073
7.45164	0.126
7.49143	0.224
7.53122	0.249
7.57101	0.154
7.6108	0.116
7.65059	0.152
7.69039	0.134
7.73018	0.237
7.76997	0.237
7.80976	0.182
7.84955	0.441
7.88934	0.5
7.92914	0.367
7.96893	0.255
8.00872	0.267
8.04851	0.355
8.0883	0.322
8.12809	0.367
8.16788	0.49
8.20768	0.611
8.24747	0.644
8.28726	0.616
8.32705	0.503
8.36684	0.289
8.40663	0.089
8.44642	0.079
8.48622	0.096
8.52601	0.119
8.5658	0.126
8.60559	0.171
8.64538	0.257
8.68517	0.357
8.72496	0.395
8.76476	0.325
8.80455	0.142
8.84434	0.056
8.88413	0.056
8.92392	0.083
8.96371	0.114
9.0035	0.157
9.0433	0.219
9.08309	0.217
9.12288	0.212
9.16267	0.277
9.20246	0.387
9.24225	0.486
9.28204	0.551
9.32184	0.578
9.36163	0.589
9.40142	0.576
9.44121	0.549
9.481	0.548
9.52079	0.573
9.56058	0.588
9.60038	0.521
9.64017	0.416
9.67996	0.333
9.71975	0.287
9.75954	0.385
9.79933	0.544
9.83912	0.626
9.87892	0.649
9.91871	0.612
9.9585	0.579
9.99829	0.561
10.0381	0.536
10.0779	0.571
10.1177	0.629
10.1575	0.644
10.1972	0.651
10.237	0.644
10.2768	0.622
10.3166	0.593
10.3564	0.548
10.3962	0.5
10.436	0.478
10.4758	0.513
10.5156	0.581
10.5554	0.612
10.5952	0.611
10.635	0.604
10.6747	0.596
10.7145	0.607
10.7543	0.626
10.7941	0.657
10.8339	0.73
10.8737	0.767
10.9135	0.734
10.9533	0.682
10.9931	0.639
11.0329	0.634
11.0727	0.634
11.1125	0.624
11.1522	0.616
11.192	0.619
11.2318	0.624
11.2716	0.611
11.3114	0.619
11.3512	0.629
11.391	0.602
11.4308	0.571
11.4706	0.559
11.5104	0.559
11.5502	0.596
11.5899	0.636
11.6297	0.682
11.6695	0.732
11.7093	0.764
11.7491	0.784
11.7889	0.812
11.8287	0.83
11.8685	0.833
11.9083	0.843
11.9481	0.868
11.9879	0.882
12.0277	0.895
12.0674	0.9
12.1072	0.9
12.147	0.895
12.1868	0.882
12.2266	0.87
12.2664	0.865
12.3062	0.858
12.346	0.85
12.3858	0.838
12.4256	0.832
12.4654	0.818
12.5052	0.817
12.5449	0.802
12.5847	0.779
12.6245	0.762
12.6643	0.759
12.7041	0.755
12.7439	0.762
12.7837	0.744
12.8235	0.727
12.8633	0.715
12.9031	0.712
12.9429	0.719
12.9826	0.719
13.0224	0.719
13.0622	0.692
13.102	0.637
13.1418	0.536
13.1816	0.455
13.2214	0.428
13.2612	0.471
13.301	0.534
13.3408	0.591
13.3806	0.607
13.4204	0.598
13.4601	0.591
13.4999	0.589
13.5397	0.601
13.5795	0.609
13.6193	0.619
13.6591	0.614
13.6989	0.601
13.7387	0.591
13.7785	0.612
13.8183	0.666
13.8581	0.727
13.8979	0.76
13.9376	0.784
13.9774	0.789
14.0172	0.802
14.057	0.808
14.0968	0.812
14.1366	0.82
14.1764	0.82
14.2162	0.818
14.256	0.81
14.2958	0.8
14.3356	0.79
14.3754	0.774
14.4151	0.755
14.4549	0.744
14.4947	0.732
14.5345	0.73
14.5743	0.725
14.6141	0.72
14.6539	0.72
14.6937	0.732
14.7335	0.729
14.7733	0.727
14.8131	0.73
14.8528	0.729
14.8926	0.73
14.9324	0.725
14.9722	0.72
15.012	0.722
15.0518	0.709
15.0916	0.662
15.1314	0.609
15.1712	0.607
15.211	0.632
15.2508	0.652
15.2906	0.676
15.3303	0.676
15.3701	0.667
15.4099	0.659
15.4497	0.644
15.4895	0.632
15.5293	0.622
15.5691	0.609
15.6089	0.596
15.6487	0.581
15.6885	0.571
15.7283	0.561
15.7681	0.544
15.8078	0.534
15.8476	0.519
15.8874	0.508
15.9272	0.504
15.967	0.5
16.0068	0.503
