Infrared Spectrum: 2-(2,2-DIMETHYLPENTOXY)-3-(n-PENTYL) PYRAZINE
Formula: C16 H28 N2 O
CAS: 116660-27-6
State: LIQUID
Class: COBLENTZ
Instrument: Not specified, most likely a prism, grating, or hybrid spectrometer.
Sampling: TRANSMISSION
Path length: 0.0015 CM
Resolution: 4
Origin: WYANDOTTE CHEMICALS CORP., WYANDOTTE, MICHIGAN, USA
MICROMETERS	TRANSMITTANCE
2.02	0.96
2.0609	0.97
2.10179	0.965
2.14269	0.96
2.18359	0.914
2.22448	0.88
2.26538	0.882
2.30628	0.892
2.34718	0.905
2.38807	0.909
2.42897	0.921
2.46987	0.919
2.51076	0.917
2.55166	0.933
2.59256	0.943
2.63345	0.95
2.67435	0.947
2.71525	0.945
2.75615	0.941
2.79704	0.943
2.83794	0.929
2.87884	0.924
2.91973	0.917
2.96063	0.911
3.00153	0.904
3.04242	0.9
3.08332	0.885
3.12422	0.875
3.16512	0.851
3.20601	0.842
3.24691	0.767
3.28781	0.482
3.3287	0.48
3.3696	0.044
3.4105	0.059
3.45139	0.068
3.49229	0.071
3.53319	0.37
3.57408	0.7
3.61498	0.776
3.65588	0.77
3.69678	0.805
3.73767	0.822
3.77857	0.835
3.81947	0.859
3.86036	0.875
3.90126	0.878
3.94216	0.89
3.98305	0.897
4.02395	0.9
4.06485	0.871
4.10575	0.89
4.14664	0.892
4.18754	0.899
4.22844	0.902
4.26933	0.89
4.31023	0.9
4.35113	0.887
4.39202	0.905
4.43292	0.919
4.47382	0.917
4.51472	0.923
4.55561	0.916
4.59651	0.917
4.63741	0.919
4.6783	0.917
4.7192	0.924
4.7601	0.935
4.80099	0.943
4.84189	0.945
4.88279	0.95
4.92369	0.945
4.96458	0.938
5.00548	0.921
5.04638	0.931
5.08727	0.926
5.12817	0.935
5.16907	0.941
5.20996	0.941
5.25086	0.935
5.29176	0.924
5.33265	0.9
5.37355	0.931
5.41445	0.953
5.45535	0.95
5.49624	0.945
5.53714	0.938
5.57804	0.926
5.61893	0.902
5.65983	0.882
5.70073	0.929
5.74162	0.917
5.78252	0.858
5.82342	0.894
5.86432	0.887
5.90521	0.866
5.94611	0.854
5.98701	0.834
6.0279	0.839
6.0688	0.839
6.1097	0.834
6.15059	0.829
6.19149	0.825
6.23239	0.777
6.27329	0.615
6.31418	0.552
6.35508	0.69
6.39598	0.555
6.43687	0.198
6.47777	0.104
6.51867	0.328
6.55956	0.627
6.60046	0.683
6.64136	0.683
6.68225	0.635
6.72315	0.41
6.76405	0.174
6.80495	0.092
6.84584	0.105
6.88674	0.135
6.92764	0.135
6.96853	0.059
7.00943	0.051
7.05033	0.056
7.09122	0.087
7.13212	0.261
7.17302	0.176
7.21392	0.052
7.25481	0.111
7.29571	0.2
7.33661	0.111
7.3775	0.09
7.4184	0.058
7.4593	0.059
7.50019	0.105
7.54109	0.107
7.58199	0.073
7.62289	0.071
7.66378	0.088
7.70468	0.1
7.74558	0.176
7.78647	0.227
7.82737	0.271
7.86827	0.288
7.90916	0.34
7.95006	0.42
7.99096	0.403
8.03185	0.386
8.07275	0.485
8.11365	0.536
8.15455	0.581
8.19544	0.523
8.23634	0.41
8.27724	0.276
8.31813	0.287
8.35903	0.379
8.39993	0.338
8.44082	0.172
8.48172	0.066
8.52262	0.063
8.56352	0.071
8.60441	0.073
8.64531	0.1
8.68621	0.128
8.7271	0.129
8.768	0.247
8.8089	0.464
8.84979	0.617
8.89069	0.627
8.93159	0.661
8.97249	0.658
9.01338	0.611
9.05428	0.555
9.09518	0.463
9.13607	0.447
9.17697	0.432
9.21787	0.417
9.25876	0.429
9.29966	0.425
9.34056	0.454
9.38146	0.423
9.42235	0.476
9.46325	0.601
9.50415	0.647
9.54504	0.63
9.58594	0.526
9.62684	0.418
9.66773	0.393
9.70863	0.406
9.74953	0.326
9.79042	0.206
9.83132	0.1
9.87222	0.094
9.91312	0.083
9.95401	0.07
9.99491	0.102
10.0358	0.239
10.0767	0.377
10.1176	0.434
10.1585	0.401
10.1994	0.398
10.2403	0.432
10.2812	0.511
10.3221	0.596
10.363	0.649
10.4039	0.683
10.4448	0.7
10.4857	0.719
10.5266	0.714
10.5675	0.687
10.6084	0.637
10.6493	0.61
10.6902	0.601
10.7311	0.564
10.772	0.567
10.8128	0.625
10.8537	0.615
10.8946	0.637
10.9355	0.711
10.9764	0.741
11.0173	0.758
11.0582	0.738
11.0991	0.697
11.14	0.671
11.1809	0.687
11.2218	0.712
11.2627	0.697
11.3036	0.699
11.3445	0.683
11.3854	0.7
11.4263	0.723
11.4672	0.721
11.5081	0.676
11.549	0.605
11.5899	0.577
11.6308	0.62
11.6717	0.668
11.7126	0.661
11.7535	0.613
11.7944	0.535
11.8353	0.42
11.8762	0.34
11.9171	0.246
11.958	0.2
11.9989	0.241
12.0398	0.437
12.0807	0.652
12.1216	0.764
12.1624	0.811
12.2033	0.823
12.2442	0.83
12.2851	0.827
12.326	0.827
12.3669	0.83
12.4078	0.835
12.4487	0.849
12.4896	0.851
12.5305	0.854
12.5714	0.849
12.6123	0.834
12.6532	0.827
12.6941	0.829
12.735	0.832
12.7759	0.841
12.8168	0.841
12.8577	0.846
12.8986	0.847
12.9395	0.847
12.9804	0.842
13.0213	0.832
13.0622	0.829
13.1031	0.822
13.144	0.805
13.1849	0.796
13.2258	0.784
13.2667	0.776
13.3076	0.776
13.3485	0.776
13.3894	0.764
13.4303	0.729
13.4712	0.685
13.512	0.639
13.5529	0.611
13.5938	0.627
13.6347	0.671
13.6756	0.699
13.7165	0.716
13.7574	0.717
13.7983	0.712
13.8392	0.721
13.8801	0.755
13.921	0.789
13.9619	0.822
14.0028	0.852
14.0437	0.871
14.0846	0.887
14.1255	0.9
14.1664	0.9
14.2073	0.909
14.2482	0.912
14.2891	0.912
14.33	0.912
14.3709	0.914
14.4118	0.914
14.4527	0.917
14.4936	0.917
14.5345	0.914
14.5754	0.912
14.6163	0.907
14.6572	0.909
14.6981	0.905
14.739	0.9
14.7799	0.897
14.8208	0.897
14.8616	0.888
14.9025	0.888
14.9434	0.887
14.9843	0.878
15.0252	0.847
15.0661	0.818
15.107	0.803
15.1479	0.817
15.1888	0.835
15.2297	0.847
15.2706	0.844
15.3115	0.847
15.3524	0.842
15.3933	0.842
15.4342	0.827
15.4751	0.813
15.516	0.808
15.5569	0.8
15.5978	0.793
15.6387	0.793
15.6796	0.781
15.7205	0.765
15.7614	0.758
15.8023	0.748
15.8432	0.743
15.8841	0.728
15.925	0.728
15.9659	0.724
