Infrared Spectrum: 2,6-DICYCLOHEXYL-4-ISOPROPYLPHENYL ACETATE
Formula: C23 H34 O2
CAS: 116659-39-3
State: SOLUTION (10% IN CCl4 FOR 5000-1350 CM^-^1, 10% IN CS2 FOR 1350-625 CM^-^1)
Class: COBLENTZ
Instrument: Not specified, most likely a prism, grating, or hybrid spectrometer.
Sampling: TRANSMISSION
Path length: 0.01 CM, 0.01 CM
Resolution: 4
Origin: DOW CHEMICAL COMPANY
MICROMETERS	TRANSMITTANCE
2.034	0.849
2.07318	0.85
2.11235	0.857
2.15153	0.862
2.1907	0.86
2.22988	0.855
2.26905	0.846
2.30823	0.844
2.3474	0.85
2.38658	0.86
2.42576	0.863
2.46493	0.868
2.50411	0.87
2.54328	0.871
2.58246	0.875
2.62163	0.897
2.66081	0.87
2.69999	0.875
2.73916	0.873
2.77834	0.862
2.81751	0.852
2.85669	0.837
2.89586	0.841
2.93504	0.837
2.97421	0.841
3.01339	0.85
3.05257	0.854
3.09174	0.855
3.13092	0.86
3.17009	0.865
3.20927	0.865
3.24844	0.833
3.28762	0.784
3.3268	0.68
3.36597	0.32
3.40515	0.072
3.44432	0.218
3.4835	0.332
3.52267	0.722
3.56185	0.818
3.60102	0.875
3.6402	0.881
3.67938	0.883
3.71855	0.867
3.75773	0.873
3.7969	0.889
3.83608	0.894
3.87525	0.91
3.91443	0.922
3.95361	0.927
3.99278	0.93
4.03196	0.931
4.07113	0.931
4.11031	0.928
4.14948	0.927
4.18866	0.917
4.22783	0.904
4.26701	0.902
4.30619	0.917
4.34536	0.927
4.38454	0.928
4.42371	0.933
4.46289	0.936
4.50206	0.941
4.54124	0.944
4.58042	0.946
4.61959	0.944
4.65877	0.941
4.69794	0.936
4.73712	0.933
4.77629	0.94
4.81547	0.944
4.85464	0.94
4.89382	0.943
4.933	0.94
4.97217	0.938
5.01135	0.94
5.05052	0.936
5.0897	0.931
5.12887	0.941
5.16805	0.94
5.20723	0.935
5.2464	0.94
5.28558	0.94
5.32475	0.93
5.36393	0.925
5.4031	0.897
5.44228	0.86
5.48145	0.844
5.52063	0.86
5.55981	0.824
5.59898	0.683
5.63816	0.34
5.67733	0.072
5.71651	0.379
5.75568	0.771
5.79486	0.802
5.83404	0.836
5.87321	0.87
5.91239	0.889
5.95156	0.889
5.99074	0.897
6.02991	0.889
6.06909	0.886
6.10826	0.87
6.14744	0.824
6.18662	0.7
6.22579	0.591
6.26497	0.627
6.30414	0.632
6.34332	0.606
6.38249	0.57
6.42167	0.505
6.46085	0.513
6.50002	0.589
6.5392	0.622
6.57837	0.653
6.61755	0.732
6.65672	0.773
6.6959	0.773
6.73507	0.677
6.77425	0.426
6.81343	0.397
6.8526	0.311
6.89178	0.329
6.93095	0.591
6.97013	0.648
7.0093	0.766
7.04848	0.81
7.08766	0.821
7.12683	0.813
7.16601	0.75
7.20518	0.658
7.24436	0.534
7.28353	0.332
7.32271	0.531
7.36188	0.74
7.40106	0.786
7.44024	0.807
7.47941	0.829
7.51859	0.841
7.55776	0.807
7.59694	0.703
7.63611	0.683
7.67529	0.75
7.71447	0.779
7.75364	0.768
7.79282	0.727
7.83199	0.667
7.87117	0.612
7.91034	0.581
7.94952	0.698
7.98869	0.729
8.02787	0.677
8.06705	0.596
8.10622	0.492
8.1454	0.296
8.18457	0.09
8.22375	0.014
8.26292	0.077
8.3021	0.16
8.34128	0.074
8.38045	0.1
8.41963	0.307
8.4588	0.427
8.49798	0.502
8.53715	0.434
8.57633	0.23
8.6155	0.128
8.65468	0.414
8.69386	0.589
8.73303	0.541
8.77221	0.421
8.81138	0.596
8.85056	0.688
8.88973	0.617
8.92891	0.45
8.96809	0.434
9.00726	0.594
9.04644	0.747
9.08561	0.811
9.12479	0.839
9.16396	0.841
9.20314	0.829
9.24231	0.81
9.28149	0.797
9.32067	0.8
9.35984	0.821
9.39902	0.833
9.43819	0.824
9.47737	0.805
9.51654	0.771
9.55572	0.732
9.5949	0.74
9.63407	0.753
9.67325	0.74
9.71242	0.76
9.7516	0.768
9.79077	0.732
9.82995	0.656
9.86912	0.494
9.9083	0.397
9.94748	0.536
9.98665	0.719
10.0258	0.841
10.065	0.883
10.1042	0.91
10.1434	0.928
10.1825	0.943
10.2217	0.946
10.2609	0.946
10.3001	0.94
10.3392	0.928
10.3784	0.901
10.4176	0.811
10.4568	0.729
10.4959	0.73
10.5351	0.821
10.5743	0.891
10.6135	0.92
10.6526	0.923
10.6918	0.918
10.731	0.888
10.7702	0.849
10.8093	0.756
10.8485	0.661
10.8877	0.568
10.9269	0.418
10.966	0.364
11.0052	0.531
11.0444	0.706
11.0836	0.764
11.1227	0.761
11.1619	0.734
11.2011	0.711
11.2403	0.706
11.2794	0.696
11.3186	0.688
11.3578	0.661
11.397	0.572
11.4361	0.39
11.4753	0.299
11.5145	0.46
11.5537	0.576
11.5929	0.622
11.632	0.659
11.6712	0.683
11.7104	0.688
11.7496	0.68
11.7887	0.68
11.8279	0.692
11.8671	0.745
11.9063	0.795
11.9454	0.821
11.9846	0.831
12.0238	0.834
12.063	0.834
12.1021	0.834
12.1413	0.829
12.1805	0.82
12.2197	0.795
12.2588	0.735
12.298	0.695
12.3372	0.747
12.3764	0.792
12.4155	0.803
12.4547	0.799
12.4939	0.773
12.5331	0.748
12.5722	0.769
12.6114	0.792
12.6506	0.805
12.6898	0.811
12.7289	0.82
12.7681	0.829
12.8073	0.839
12.8465	0.846
12.8856	0.85
12.9248	0.854
12.964	0.857
13.0032	0.858
13.0424	0.858
13.0815	0.858
13.1207	0.857
13.1599	0.854
13.1991	0.85
13.2382	0.849
13.2774	0.846
13.3166	0.837
13.3558	0.829
13.3949	0.823
13.4341	0.815
13.4733	0.811
13.5125	0.816
13.5516	0.818
13.5908	0.82
13.63	0.818
13.6692	0.813
13.7083	0.81
13.7475	0.807
13.7867	0.802
13.8259	0.797
13.865	0.792
13.9042	0.787
13.9434	0.782
13.9826	0.776
14.0217	0.769
14.0609	0.761
14.1001	0.752
14.1393	0.74
14.1784	0.729
14.2176	0.711
14.2568	0.69
14.296	0.679
14.3351	0.667
14.3743	0.664
14.4135	0.669
14.4527	0.672
14.4918	0.677
14.531	0.679
14.5702	0.67
14.6094	0.661
14.6486	0.653
14.6877	0.648
14.7269	0.638
14.7661	0.625
14.8053	0.619
14.8444	0.607
14.8836	0.599
14.9228	0.588
14.962	0.588
15.0011	0.581
15.0403	0.568
15.0795	0.551
15.1187	0.531
15.1578	0.508
15.197	0.482
15.2362	0.452
15.2754	0.423
15.3145	0.405
15.3537	0.393
15.3929	0.384
15.4321	0.38
15.4712	0.379
15.5104	0.38
15.5496	0.384
15.5888	0.385
15.6279	0.388
15.6671	0.388
15.7063	0.387
15.7455	0.384
15.7846	0.38
15.8238	0.379
15.863	0.379
15.9022	0.379
