Infrared Spectrum: 2,3-DIETHYLPENTANOIC ACID
Formula: C9 H18 O2
CAS: 116659-88-2
State: LIQUID
Class: COBLENTZ
Instrument: PERKIN-ELMER
Sampling: TRANSMISSION
Path length: CAPILLARY
Resolution: 4
Origin: ABBOTT LABORATORIES - WASHBURN
MICROMETERS	TRANSMITTANCE
2.035	0.853
2.07489	0.851
2.11479	0.8532
2.15468	0.8559
2.19458	0.851
2.23447	0.853
2.27436	0.8479
2.31426	0.8181
2.35415	0.801
2.39405	0.8151
2.43394	0.823
2.47383	0.8151
2.51373	0.8201
2.55362	0.83
2.59351	0.8315
2.63341	0.836
2.6733	0.84
2.7132	0.8363
2.75309	0.8309
2.79298	0.821
2.83288	0.8053
2.87277	0.7754
2.91267	0.7244
2.95256	0.6452
2.99245	0.5488
3.03235	0.4622
3.07224	0.3754
3.11214	0.2682
3.15203	0.2001
3.19192	0.1477
3.23182	0.1076
3.27171	0.076
3.3116	0.071
3.3515	0.0176
3.39139	0.0062
3.43129	0.011
3.47118	0.013
3.51107	0.0589
3.55097	0.1458
3.59086	0.1882
3.63076	0.213
3.67065	0.2183
3.71054	0.228
3.75044	0.216
3.79033	0.2183
3.83023	0.2281
3.87012	0.2511
3.91001	0.2817
3.94991	0.3218
3.9898	0.3764
4.02969	0.437
4.06959	0.4887
4.10948	0.5311
4.14938	0.5651
4.18927	0.5964
4.22916	0.618
4.26906	0.631
4.30895	0.6535
4.34885	0.6732
4.38874	0.688
4.42863	0.6962
4.46853	0.7032
4.50842	0.706
4.54832	0.713
4.58821	0.7182
4.6281	0.721
4.668	0.725
4.70789	0.728
4.74778	0.73
4.78768	0.73
4.82757	0.728
4.86747	0.7259
4.90736	0.725
4.94725	0.72
4.98715	0.7109
5.02704	0.708
5.06694	0.71
5.10683	0.7053
5.14672	0.6958
5.18662	0.6888
5.22651	0.6791
5.26641	0.6707
5.3063	0.66
5.34619	0.6506
5.38609	0.6381
5.42598	0.6231
5.46588	0.6152
5.50577	0.5989
5.54566	0.5889
5.58556	0.5797
5.62545	0.5633
5.66534	0.5114
5.70524	0.4038
5.74513	0.2548
5.78503	0.1994
5.82492	0.0475
5.86481	0.008
5.90471	0.0106
5.9446	0.0545
5.9845	0.2731
6.02439	0.3888
6.06428	0.451
6.10418	0.5254
6.14407	0.5911
6.18397	0.6297
6.22386	0.6586
6.26375	0.6768
6.30365	0.691
6.34354	0.6987
6.38343	0.7047
6.42333	0.7054
6.46322	0.706
6.50312	0.7061
6.54301	0.705
6.5829	0.7084
6.6228	0.696
6.66269	0.6782
6.70259	0.6468
6.74248	0.5804
6.78237	0.4584
6.82227	0.1746
6.86216	0.0924
6.90206	0.1625
6.94195	0.2328
6.98184	0.2719
7.02174	0.2292
7.06163	0.1729
7.10152	0.1425
7.14142	0.2516
7.18131	0.3651
7.22121	0.331
7.2611	0.225
7.30099	0.4145
7.34089	0.4987
7.38078	0.5042
7.42068	0.4891
7.46057	0.4347
7.50046	0.3778
7.54036	0.3397
7.58025	0.3099
7.62015	0.3011
7.66004	0.2836
7.69993	0.2417
7.73983	0.1825
7.77972	0.1266
7.81961	0.101
7.85951	0.098
7.8994	0.1011
7.9393	0.1482
7.97919	0.1911
8.01908	0.1782
8.05898	0.1725
8.09887	0.1767
8.13877	0.1584
8.17866	0.1269
8.21855	0.098
8.25845	0.1145
8.29834	0.1467
8.33824	0.1879
8.37813	0.2748
8.41802	0.3376
8.45792	0.4044
8.49781	0.4481
8.53771	0.4679
8.5776	0.5004
8.61749	0.5076
8.65739	0.5058
8.69728	0.4904
8.73717	0.4613
8.77707	0.4477
8.81696	0.4741
8.85686	0.5021
8.89675	0.5177
8.93664	0.5326
8.97654	0.54
9.01643	0.51
9.05633	0.4827
9.09622	0.4633
9.13611	0.4659
9.17601	0.4804
9.2159	0.5136
9.2558	0.5927
9.29569	0.6188
9.33558	0.6158
9.37548	0.6239
9.41537	0.6554
9.45526	0.685
9.49516	0.6851
9.53505	0.683
9.57495	0.683
9.61484	0.6712
9.65473	0.674
9.69463	0.675
9.73452	0.6726
9.77442	0.6701
9.81431	0.6681
9.8542	0.6502
9.8941	0.6385
9.93399	0.6357
9.97389	0.6482
10.0138	0.66
10.0537	0.66
10.0936	0.6492
10.1335	0.6296
10.1734	0.5998
10.2132	0.5653
10.2531	0.5298
10.293	0.5011
10.3329	0.4628
10.3728	0.4218
10.4127	0.3753
10.4526	0.3409
10.4925	0.2949
10.5324	0.265
10.5723	0.245
10.6122	0.2351
10.6521	0.228
10.692	0.2306
10.7319	0.236
10.7718	0.2476
10.8117	0.2634
10.8516	0.2769
10.8914	0.2963
10.9313	0.3179
10.9712	0.3424
11.0111	0.3657
11.051	0.373
11.0909	0.3833
11.1308	0.3977
11.1707	0.4239
11.2106	0.4464
11.2505	0.4601
11.2904	0.4709
11.3303	0.475
11.3702	0.471
11.4101	0.466
11.45	0.4705
11.4899	0.4868
11.5297	0.5076
11.5696	0.5342
11.6095	0.5533
11.6494	0.5699
11.6893	0.5845
11.7292	0.585
11.7691	0.59
11.809	0.5922
11.8489	0.5969
11.8888	0.6037
11.9287	0.611
11.9686	0.6112
12.0085	0.6132
12.0484	0.615
12.0883	0.6197
12.1282	0.626
12.168	0.628
12.2079	0.636
12.2478	0.64
12.2877	0.64
12.3276	0.64
12.3675	0.643
12.4074	0.638
12.4473	0.64
12.4872	0.641
12.5271	0.635
12.567	0.6164
12.6069	0.5835
12.6468	0.5486
12.6867	0.5037
12.7266	0.4659
12.7665	0.446
12.8064	0.417
12.8462	0.3913
12.8861	0.3834
12.926	0.3992
12.9659	0.4255
13.0058	0.4607
13.0457	0.4923
13.0856	0.5258
13.1255	0.5714
13.1654	0.5999
13.2053	0.6246
13.2452	0.6385
13.2851	0.6567
13.325	0.673
13.3649	0.6822
13.4048	0.693
13.4447	0.6904
13.4845	0.6849
13.5244	0.6732
13.5643	0.658
13.6042	0.655
13.6441	0.6453
13.684	0.647
13.7239	0.6456
13.7638	0.6465
13.8037	0.655
13.8436	0.656
13.8835	0.656
13.9234	0.6676
13.9633	0.676
14.0032	0.671
14.0431	0.6805
14.083	0.683
14.1229	0.6773
14.1627	0.673
14.2026	0.6751
14.2425	0.6761
14.2824	0.675
14.3223	0.668
14.3622	0.6653
14.4021	0.6604
14.442	0.6539
14.4819	0.6494
14.5218	0.6377
14.5617	0.6277
14.6016	0.6208
14.6415	0.6053
14.6814	0.5915
14.7213	0.5767
14.7612	0.563
14.801	0.5542
14.8409	0.5418
14.8808	0.5307
14.9207	0.5109
14.9606	0.506
15.0005	0.5
15.0404	0.5056
15.0803	0.503
15.1202	0.5056
15.1601	0.51
15.2	0.5187
15.2399	0.5214
15.2798	0.5262
15.3197	0.526
15.3596	0.523
15.3995	0.5227
