Infrared Spectrum: m-Tetraphenyl
Formula: C 24 H 18
CAS: 1166-18-3
State: gas
Instrument: HP-GC/MS/IRD
Origin: NIST Mass Spectrometry Data Center
1/CM	ABSORBANCE
550	0.00013
562	5.8e-05
574	7.25e-05
586	0.000214
598	0.0002915
610	0.001262
622	0.0011545
634	0.000457
646	0.0003295
658	0.000449
670	0.000702
682	0.0010385
694	0.003628
706	0.0040395
718	0.00133
730	0.0010815
742	0.0021465
754	0.005
766	0.001842
778	0.000988
790	0.001511
802	0.0007335
814	0.0002895
826	0.00029
838	0.0003515
850	0.000319
862	0.000303
874	0.0003835
886	0.000761
898	0.000595
910	0.000431
922	0.0002955
934	0.000266
946	0.0002215
958	0.000266
970	0.0003165
982	0.000273
994	0.0002905
1006	0.00045
1018	0.000563
1030	0.0004765
1042	0.0004225
1054	0.000318
1066	0.0006035
1078	0.000507
1090	0.0005835
1102	0.000445
1114	0.0002385
1126	0.0001965
1138	0.00013
1150	7.15e-05
1162	6.4e-05
1174	0.0001675
1186	0.0001065
1198	3.95e-05
1210	5.3e-05
1222	0.000115
1234	0.00019
1246	0.0003145
1258	0.000371
1270	0.000328
1282	0.0003015
1294	0.000266
1306	0.000289
1318	0.000291
1330	0.000263
1342	0.0002165
1354	0.000245
1366	0.000283
1378	0.000416
1390	0.0005945
1402	0.000603
1414	0.0005995
1426	0.000496
1438	0.000557
1450	0.0008555
1462	0.0014115
1474	0.002921
1486	0.001306
1498	0.000965
1510	0.0004995
1522	0.000375
1534	0.000406
1546	0.0004155
1558	0.0007385
1570	0.001382
1582	0.0019955
1594	0.004017
1606	0.001755
1618	0.0006045
1630	0.00035
1642	0.0002365
1654	0.000235
1666	0.000235
1678	0.000286
1690	0.000219
1702	0.0002825
1714	0.0002215
1726	0.000161
1738	0.000152
1750	0.000244
1762	0.000188
1774	0.000219
1786	0.0003265
1798	0.000397
1810	0.000273
1822	0.0002025
1834	0.0001315
1846	0.0001575
1858	0.0002655
1870	0.000404
1882	0.000313
1894	0.0002295
1906	0.000137
1918	0.000182
1930	0.000329
1942	0.0004005
1954	0.000267
1966	0.0001345
1978	9.3e-05
1990	8.55e-05
2002	8.95e-05
2014	6.7e-05
2026	7.3e-05
2038	6.55e-05
2050	6.1e-05
2062	7.25e-05
2074	4.15e-05
2086	4.95e-05
2098	3e-05
2110	4.55e-05
2122	4.05e-05
2134	3e-05
2146	4.25e-05
2158	4.65e-05
2170	4.15e-05
2182	4.2e-05
2194	4.3e-05
2206	4.95e-05
2218	5.65e-05
2230	2.7e-05
2242	3.85e-05
2254	2.75e-05
2266	6e-06
2278	3e-05
2290	6e-06
2302	1.3e-05
2314	6.35e-05
2326	3.1e-05
2338	5.1e-05
2350	8.05e-05
2362	7.95e-05
2374	5.8e-05
2386	3.6e-05
2398	4.15e-05
2410	2.1e-05
2422	5.35e-05
2434	1.3e-05
2446	3.1e-05
2458	2.3e-05
2470	3.4e-05
2482	2.45e-05
2494	1.15e-05
2506	2.85e-05
2518	3.65e-05
2530	2.15e-05
2542	2e-05
2554	2.95e-05
2566	3.4e-05
2578	3.55e-05
2590	4.95e-05
2602	3.65e-05
2614	4.95e-05
2626	5e-05
2638	3.7e-05
2650	3e-05
2662	4e-05
2674	4.7e-05
2686	4.25e-05
2698	2.55e-05
2710	3.6e-05
2722	2.8e-05
2734	4.65e-05
2746	3.95e-05
2758	4.55e-05
2770	3.2e-05
2782	5.05e-05
2794	5.15e-05
2806	4.65e-05
2818	2.7e-05
2830	4.6e-05
2842	8.65e-05
2854	9.4e-05
2866	9.65e-05
2878	0.000108
2890	7.8e-05
2902	0.0001045
2914	0.0001055
2926	0.0001035
2938	0.0001545
2950	0.0001945
2962	0.0001645
2974	0.0001945
2986	0.000229
2998	0.0002965
3010	0.0004585
3022	0.001136
3034	0.0024145
3046	0.002157
3058	0.0028945
3070	0.0044245
3082	0.002274
3094	0.0014895
3106	0.0008565
3118	0.000439
3130	0.000212
3142	0.00015
3154	0.0001335
3166	0.0001135
3178	8.7e-05
3190	8.05e-05
3202	6.35e-05
3214	4.55e-05
3226	3.7e-05
3238	6.3e-05
3250	6.7e-05
3262	6.1e-05
3274	3.45e-05
3286	3.8e-05
3298	3.85e-05
3310	7.05e-05
3322	4.4e-05
3334	5e-05
3346	1.4e-05
3358	3.3e-05
3370	5.6e-05
3382	5.3e-05
3394	4.2e-05
3406	6.05e-05
3418	3.6e-05
3430	3.75e-05
3442	4.45e-05
3454	8.55e-05
3466	6.8e-05
3478	8.9e-05
3490	6.2e-05
3502	6.6e-05
3514	7.15e-05
3526	6.9e-05
3538	4.45e-05
3550	9.5e-05
3562	7.9e-05
3574	4.75e-05
3586	6.6e-05
3598	5.95e-05
3610	0.0001335
3622	0.0001125
3634	0.0001375
3646	0.0001245
3658	8.9e-05
3670	0.000137
3682	0.000185
3694	0.000134
3706	0.000137
3718	5.35e-05
3730	0.00014
3742	0.0001855
3754	0.000147
3766	0.0001605
3778	0.000208
3790	9.6e-05
3802	0.000177
3814	0.000224
3826	0.0001595
3838	0.0001255
