Infrared Spectrum: 2-(N-METHYLANILINO)-6-(5-NONYL) PYRAZINE
Formula: C20 H29 N3
CAS: 116660-11-8
State: LIQUID
Class: COBLENTZ
Instrument: Not specified, most likely a prism, grating, or hybrid spectrometer.
Sampling: TRANSMISSION
Path length: 0.0015 CM
Resolution: 4
Origin: WYANDOTTE CHEMICALS CORP., WYANDOTTE, MICHIGAN, USA
MICROMETERS	TRANSMITTANCE
2.02	0.97
2.06086	0.969
2.10172	0.967
2.14258	0.97
2.18343	0.943
2.22429	0.916
2.26515	0.914
2.30601	0.921
2.34687	0.919
2.38773	0.911
2.42859	0.929
2.46944	0.943
2.5103	0.948
2.55116	0.947
2.59202	0.948
2.63288	0.96
2.67374	0.958
2.71459	0.95
2.75545	0.95
2.79631	0.929
2.83717	0.914
2.87803	0.882
2.91889	0.849
2.95975	0.823
3.0006	0.844
3.04146	0.854
3.08232	0.861
3.12318	0.851
3.16404	0.842
3.2049	0.801
3.24576	0.646
3.28661	0.422
3.32747	0.364
3.36833	0.058
3.40919	0.059
3.45005	0.097
3.49091	0.082
3.53176	0.36
3.57262	0.666
3.61348	0.781
3.65434	0.8
3.6952	0.817
3.73606	0.844
3.77692	0.839
3.81777	0.851
3.85863	0.864
3.89949	0.863
3.94035	0.878
3.98121	0.894
4.02207	0.905
4.06293	0.902
4.10378	0.902
4.14464	0.894
4.1855	0.89
4.22636	0.885
4.26722	0.894
4.30808	0.904
4.34893	0.919
4.38979	0.919
4.43065	0.919
4.47151	0.923
4.51237	0.929
4.55323	0.926
4.59409	0.936
4.63494	0.94
4.6758	0.936
4.71666	0.938
4.75752	0.931
4.79838	0.924
4.83924	0.933
4.8801	0.924
4.92095	0.94
4.96181	0.931
5.00267	0.935
5.04353	0.933
5.08439	0.929
5.12525	0.924
5.16611	0.899
5.20696	0.875
5.24782	0.892
5.28868	0.924
5.32954	0.917
5.3704	0.902
5.41126	0.888
5.45211	0.894
5.49297	0.894
5.53383	0.878
5.57469	0.875
5.61555	0.861
5.65641	0.861
5.69727	0.854
5.73812	0.83
5.77898	0.767
5.81984	0.753
5.8607	0.767
5.90156	0.774
5.94242	0.781
5.98328	0.777
6.02413	0.755
6.06499	0.724
6.10585	0.7
6.14671	0.589
6.18757	0.249
6.22843	0.2
6.26928	0.348
6.31014	0.476
6.351	0.374
6.39186	0.482
6.43272	0.494
6.47358	0.23
6.51444	0.097
6.55529	0.276
6.59615	0.268
6.63701	0.059
6.67787	0.111
6.71873	0.211
6.75959	0.126
6.80045	0.068
6.8413	0.078
6.88216	0.078
6.92302	0.075
6.96388	0.063
7.00474	0.184
7.0456	0.335
7.08645	0.252
7.12731	0.138
7.16817	0.052
7.20903	0.052
7.24989	0.052
7.29075	0.064
7.33161	0.107
7.37246	0.196
7.41332	0.268
7.45418	0.288
7.49504	0.307
7.5359	0.311
7.57676	0.312
7.61762	0.276
7.65847	0.249
7.69933	0.242
7.74019	0.252
7.78105	0.28
7.82191	0.264
7.86277	0.235
7.90363	0.229
7.94448	0.213
7.98534	0.254
8.0262	0.364
8.06706	0.446
8.10792	0.464
8.14878	0.5
8.18963	0.512
8.23049	0.483
8.27135	0.429
8.31221	0.328
8.35307	0.254
8.39393	0.229
8.43479	0.23
8.47564	0.234
8.5165	0.211
8.55736	0.138
8.59822	0.117
8.63908	0.14
8.67994	0.239
8.7208	0.297
8.76165	0.249
8.80251	0.15
8.84337	0.123
8.88423	0.174
8.92509	0.188
8.96595	0.201
9.0068	0.239
9.04766	0.305
9.08852	0.379
9.12938	0.415
9.17024	0.401
9.2111	0.35
9.25196	0.302
9.29281	0.29
9.33367	0.329
9.37453	0.358
9.41539	0.388
9.45625	0.427
9.49711	0.514
9.53797	0.591
9.57882	0.625
9.61968	0.623
9.66054	0.581
9.7014	0.507
9.74226	0.492
9.78312	0.606
9.82398	0.663
9.86483	0.685
9.90569	0.676
9.94655	0.637
9.98741	0.57
10.0283	0.533
10.0691	0.533
10.11	0.54
10.1508	0.56
10.1917	0.586
10.2326	0.593
10.2734	0.598
10.3143	0.611
10.3551	0.632
10.396	0.663
10.4369	0.688
10.4777	0.711
10.5186	0.741
10.5594	0.755
10.6003	0.762
10.6411	0.752
10.682	0.723
10.7229	0.704
10.7637	0.692
10.8046	0.695
10.8454	0.699
10.8863	0.721
10.9272	0.735
10.968	0.724
11.0089	0.7
11.0497	0.675
11.0906	0.651
11.1314	0.629
11.1723	0.62
11.2132	0.615
11.254	0.613
11.2949	0.618
11.3357	0.632
11.3766	0.658
11.4175	0.69
11.4583	0.714
11.4992	0.752
11.54	0.782
11.5809	0.805
11.6217	0.822
11.6626	0.82
11.7035	0.82
11.7443	0.813
11.7852	0.8
11.826	0.788
11.8669	0.781
11.9078	0.774
11.9486	0.776
11.9895	0.769
12.0303	0.757
12.0712	0.747
12.1121	0.747
12.1529	0.76
12.1938	0.776
12.2346	0.784
12.2755	0.791
12.3163	0.793
12.3572	0.791
12.3981	0.793
12.4389	0.791
12.4798	0.782
12.5206	0.784
12.5615	0.791
12.6024	0.794
12.6432	0.791
12.6841	0.789
12.7249	0.781
12.7658	0.764
12.8066	0.752
12.8475	0.716
12.8884	0.663
12.9292	0.606
12.9701	0.528
13.0109	0.422
13.0518	0.341
13.0927	0.3
13.1335	0.261
13.1744	0.234
13.2152	0.218
13.2561	0.201
13.2969	0.189
13.3378	0.193
13.3787	0.242
13.4195	0.336
13.4604	0.434
13.5012	0.517
13.5421	0.57
13.583	0.596
13.6238	0.601
13.6647	0.593
13.7055	0.588
13.7464	0.584
13.7873	0.598
13.8281	0.62
13.869	0.635
13.9098	0.664
13.9507	0.683
13.9915	0.69
14.0324	0.673
14.0733	0.642
14.1141	0.601
14.155	0.524
14.1958	0.418
14.2367	0.309
14.2776	0.241
14.3184	0.184
14.3593	0.165
14.4001	0.17
14.441	0.196
14.4818	0.227
14.5227	0.285
14.5636	0.367
14.6044	0.476
14.6453	0.586
14.6861	0.664
14.727	0.729
14.7679	0.752
14.8087	0.772
14.8496	0.776
14.8904	0.774
14.9313	0.776
14.9721	0.774
15.013	0.76
15.0539	0.743
15.0947	0.704
15.1356	0.717
15.1764	0.741
15.2173	0.767
15.2582	0.791
15.299	0.8
15.3399	0.801
15.3807	0.805
15.4216	0.808
15.4624	0.805
15.5033	0.803
15.5442	0.794
15.585	0.801
15.6259	0.803
15.6667	0.793
15.7076	0.801
15.7485	0.791
15.7893	0.791
15.8302	0.786
15.871	0.776
15.9119	0.764
15.9528	0.762
