Infrared Spectrum: 2-(N-METHYLANILINO)-3-(P-PHENOXYBENZYL) PYRAZINE
Formula: C24 H21 N3 O
CAS: 116659-76-8
State: LIQUID
Class: COBLENTZ
Instrument: Not specified, most likely a prism, grating, or hybrid spectrometer.
Sampling: TRANSMISSION
Path length: CAPILLARY
Resolution: 4
Origin: WYANDOTTE CHEMICALS CORP., WYANDOTTE, MICHIGAN, USA
MICROMETERS	TRANSMITTANCE
2.073	0.961
2.11279	0.97
2.15258	0.961
2.19237	0.955
2.23217	0.958
2.27196	0.96
2.31175	0.958
2.35154	0.93
2.39133	0.94
2.43112	0.951
2.47091	0.953
2.51071	0.96
2.5505	0.96
2.59029	0.958
2.63008	0.971
2.66987	0.958
2.70966	0.948
2.74945	0.951
2.78925	0.947
2.82904	0.928
2.86883	0.918
2.90862	0.899
2.94841	0.89
2.9882	0.884
3.02799	0.879
3.06779	0.882
3.10758	0.882
3.14737	0.874
3.18716	0.839
3.22695	0.653
3.26674	0.531
3.30653	0.726
3.34633	0.683
3.38612	0.673
3.42591	0.68
3.4657	0.761
3.50549	0.793
3.54528	0.852
3.58507	0.884
3.62487	0.895
3.66466	0.9
3.70445	0.91
3.74424	0.913
3.78403	0.908
3.82382	0.908
3.86361	0.905
3.90341	0.907
3.9432	0.912
3.98299	0.917
4.02278	0.902
4.06257	0.894
4.10236	0.889
4.14215	0.877
4.18195	0.879
4.22174	0.87
4.26153	0.895
4.30132	0.913
4.34111	0.938
4.3809	0.932
4.42069	0.922
4.46049	0.925
4.50028	0.927
4.54007	0.927
4.57986	0.933
4.61965	0.933
4.65944	0.932
4.69923	0.932
4.73903	0.932
4.77882	0.927
4.81861	0.925
4.8584	0.908
4.89819	0.908
4.93798	0.903
4.97777	0.895
5.01757	0.905
5.05736	0.897
5.09715	0.882
5.13694	0.87
5.17673	0.847
5.21652	0.855
5.25631	0.877
5.29611	0.874
5.3359	0.87
5.37569	0.865
5.41548	0.879
5.45527	0.882
5.49506	0.89
5.53485	0.874
5.57465	0.855
5.61444	0.85
5.65423	0.857
5.69402	0.852
5.73381	0.837
5.7736	0.822
5.81339	0.819
5.85319	0.814
5.89298	0.801
5.93277	0.794
5.97256	0.776
6.01235	0.758
6.05214	0.74
6.09193	0.67
6.13173	0.485
6.17152	0.206
6.21131	0.077
6.2511	0.117
6.29089	0.296
6.33068	0.435
6.37047	0.524
6.41027	0.548
6.45006	0.382
6.48985	0.107
6.52964	0.172
6.56943	0.203
6.60922	0.038
6.64901	0.031
6.68881	0.056
6.7286	0.124
6.76839	0.193
6.80818	0.163
6.84797	0.139
6.88776	0.114
6.92755	0.109
6.96735	0.16
7.00714	0.337
7.04693	0.264
7.08672	0.124
7.12651	0.076
7.1663	0.086
7.20609	0.147
7.24589	0.246
7.28568	0.312
7.32547	0.46
7.36526	0.49
7.40505	0.456
7.44484	0.456
7.48463	0.407
7.52443	0.413
7.56422	0.392
7.60401	0.374
7.6438	0.344
7.68359	0.329
7.72338	0.312
7.76317	0.331
7.80297	0.347
7.84276	0.327
7.88255	0.283
7.92234	0.18
7.96213	0.054
8.00192	0.034
8.04171	0.034
8.08151	0.039
8.1213	0.067
8.16109	0.105
8.20088	0.125
8.24067	0.155
8.28046	0.233
8.32025	0.243
8.36005	0.284
8.39984	0.332
8.43963	0.344
8.47942	0.341
8.51921	0.276
8.559	0.231
8.59879	0.316
8.63859	0.352
8.67838	0.346
8.71817	0.283
8.75796	0.241
8.79775	0.273
8.83754	0.36
8.87733	0.4
8.91713	0.379
8.95692	0.456
8.99671	0.541
9.0365	0.622
9.07629	0.675
9.11608	0.695
9.15587	0.682
9.19567	0.632
9.23546	0.584
9.27525	0.548
9.31504	0.589
9.35483	0.693
9.39462	0.716
9.43441	0.715
9.47421	0.7
9.514	0.736
9.55379	0.764
9.59358	0.771
9.63337	0.746
9.67316	0.665
9.71295	0.582
9.75275	0.557
9.79254	0.644
9.83233	0.673
9.87212	0.687
9.91191	0.667
9.9517	0.652
9.99149	0.625
10.0313	0.668
10.0711	0.652
10.1109	0.657
10.1507	0.687
10.1905	0.715
10.2302	0.74
10.27	0.741
10.3098	0.728
10.3496	0.703
10.3894	0.67
10.4292	0.64
10.469	0.645
10.5088	0.693
10.5486	0.735
10.5884	0.758
10.6282	0.778
10.6679	0.778
10.7077	0.763
10.7475	0.753
10.7873	0.761
10.8271	0.746
10.8669	0.693
10.9067	0.662
10.9465	0.645
10.9863	0.629
11.0261	0.614
11.0659	0.609
11.1057	0.61
11.1454	0.615
11.1852	0.619
11.225	0.599
11.2648	0.577
11.3046	0.556
11.3444	0.551
11.3842	0.541
11.424	0.468
11.4638	0.385
11.5036	0.377
11.5434	0.473
11.5832	0.529
11.6229	0.551
11.6627	0.551
11.7025	0.546
11.7423	0.529
11.7821	0.521
11.8219	0.509
11.8617	0.504
11.9015	0.501
11.9413	0.516
11.9811	0.529
12.0209	0.549
12.0606	0.557
12.1004	0.576
12.1402	0.584
12.18	0.586
12.2198	0.587
12.2596	0.589
12.2994	0.592
12.3392	0.599
12.379	0.612
12.4188	0.615
12.4586	0.617
12.4984	0.624
12.5381	0.625
12.5779	0.622
12.6177	0.599
12.6575	0.581
12.6973	0.559
12.7371	0.544
12.7769	0.536
12.8167	0.516
12.8565	0.491
12.8963	0.46
12.9361	0.437
12.9759	0.397
13.0156	0.347
13.0554	0.294
13.0952	0.251
13.135	0.22
13.1748	0.198
13.2146	0.195
13.2544	0.21
13.2942	0.245
13.334	0.304
13.3738	0.384
13.4136	0.465
13.4533	0.524
13.4931	0.561
13.5329	0.599
13.5727	0.629
13.6125	0.655
13.6523	0.677
13.6921	0.695
13.7319	0.706
13.7717	0.713
13.8115	0.705
13.8513	0.695
13.8911	0.685
13.9308	0.69
13.9706	0.695
14.0104	0.69
14.0502	0.685
14.09	0.66
14.1298	0.602
14.1696	0.544
14.2094	0.438
14.2492	0.357
14.289	0.279
14.3288	0.235
14.3686	0.208
14.4083	0.195
14.4481	0.197
14.4879	0.211
14.5277	0.253
14.5675	0.319
14.6073	0.447
14.6471	0.551
14.6869	0.634
14.7267	0.685
14.7665	0.711
14.8063	0.731
14.846	0.741
14.8858	0.748
14.9256	0.758
14.9654	0.75
15.0052	0.736
15.045	0.733
15.0848	0.758
15.1246	0.778
15.1644	0.778
15.2042	0.778
15.244	0.764
15.2838	0.766
15.3235	0.761
15.3633	0.761
15.4031	0.756
15.4429	0.758
15.4827	0.753
15.5225	0.758
15.5623	0.753
15.6021	0.748
15.6419	0.745
15.6817	0.745
15.7215	0.745
15.7613	0.733
15.801	0.728
15.8408	0.728
15.8806	0.721
15.9204	0.72
15.9602	0.706
16	0.705
