Infrared Spectrum: 3,6-DICHLORO-2-PROPYL PHENOL
Formula: C9 H10 Cl2 O
CAS: 116632-96-3
State: SOLUTION (10% CCl4 FOR 5000-1300, 10% CS2 FOR 1300-625 CM^-^1)
Class: COBLENTZ
Instrument: Not specified, most likely a prism, grating, or hybrid spectrometer.
Sampling: TRANSMISSION
Path length: 0.01 CM, 0.01 CM
Resolution: 4
Origin: DOW CHEMICAL COMPANY
MICROMETERS	TRANSMITTANCE
2	0.861
2.03701	0.869
2.07401	0.872
2.11102	0.869
2.14802	0.88
2.18503	0.88
2.22203	0.872
2.25904	0.867
2.29604	0.875
2.33305	0.874
2.37005	0.877
2.40706	0.881
2.44406	0.88
2.48107	0.877
2.51807	0.87
2.55508	0.881
2.59208	0.877
2.62909	0.884
2.66609	0.88
2.7031	0.878
2.7401	0.847
2.77711	0.737
2.81412	0.488
2.85112	0.892
2.88813	0.844
2.92513	0.874
2.96214	0.878
2.99914	0.878
3.03615	0.877
3.07315	0.881
3.11016	0.877
3.14716	0.869
3.18417	0.872
3.22117	0.864
3.25818	0.86
3.29518	0.826
3.33219	0.688
3.36919	0.368
3.4062	0.522
3.4432	0.609
3.48021	0.675
3.51721	0.844
3.55422	0.861
3.59123	0.875
3.62823	0.867
3.66524	0.874
3.70224	0.881
3.73925	0.881
3.77625	0.88
3.81326	0.884
3.85026	0.886
3.88727	0.88
3.92427	0.886
3.96128	0.883
3.99828	0.886
4.03529	0.889
4.07229	0.898
4.1093	0.895
4.1463	0.895
4.18331	0.897
4.22031	0.878
4.25732	0.878
4.29432	0.878
4.33133	0.881
4.36834	0.886
4.40534	0.897
4.44235	0.909
4.47935	0.915
4.51636	0.918
4.55336	0.917
4.59037	0.917
4.62737	0.917
4.66438	0.917
4.70138	0.918
4.73839	0.917
4.77539	0.918
4.8124	0.918
4.8494	0.917
4.88641	0.915
4.92341	0.92
4.96042	0.917
4.99742	0.909
5.03443	0.917
5.07143	0.918
5.10844	0.92
5.14545	0.92
5.18245	0.918
5.21946	0.913
5.25646	0.917
5.29347	0.913
5.33047	0.901
5.36748	0.861
5.40448	0.88
5.44149	0.909
5.47849	0.909
5.5155	0.92
5.5525	0.918
5.58951	0.926
5.62651	0.921
5.66352	0.923
5.70052	0.92
5.73753	0.913
5.77453	0.9
5.81154	0.89
5.84854	0.89
5.88555	0.9
5.92256	0.897
5.95956	0.892
5.99657	0.89
6.03357	0.89
6.07058	0.887
6.10758	0.866
6.14459	0.838
6.18159	0.772
6.2186	0.605
6.2556	0.408
6.29261	0.407
6.32961	0.373
6.36662	0.39
6.40362	0.45
6.44063	0.451
6.47763	0.508
6.51464	0.577
6.55164	0.594
6.58865	0.619
6.62565	0.68
6.66266	0.718
6.69967	0.683
6.73667	0.591
6.77368	0.5
6.81068	0.279
6.84769	0.136
6.88469	0.096
6.9217	0.136
6.9587	0.328
6.99571	0.568
7.03271	0.626
7.06972	0.717
7.10672	0.789
7.14373	0.812
7.18073	0.781
7.21774	0.734
7.25474	0.823
7.29175	0.858
7.32875	0.849
7.36576	0.82
7.40277	0.783
7.43977	0.738
7.47678	0.715
7.51378	0.626
7.55079	0.468
7.58779	0.248
7.6248	0.244
7.6618	0.321
7.69881	0.514
7.73581	0.622
7.77282	0.625
7.80982	0.545
7.84683	0.442
7.88383	0.374
7.92084	0.417
7.95784	0.399
7.99485	0.17
8.03185	0.365
8.06886	0.516
8.10586	0.548
8.14287	0.559
8.17988	0.48
8.21688	0.245
8.25389	0.287
8.29089	0.362
8.3279	0.447
8.3649	0.551
8.40191	0.582
8.43891	0.637
8.47592	0.672
8.51292	0.672
8.54993	0.649
8.58693	0.609
8.62394	0.539
8.66094	0.417
8.69795	0.198
8.73495	0.101
8.77196	0.213
8.80896	0.327
8.84597	0.373
8.88297	0.463
8.91998	0.577
8.95699	0.611
8.99399	0.628
9.031	0.642
9.068	0.632
9.10501	0.605
9.14201	0.548
9.17902	0.49
9.21602	0.419
9.25303	0.344
9.29003	0.244
9.32704	0.293
9.36404	0.394
9.40105	0.522
9.43805	0.663
9.47506	0.709
9.51206	0.723
9.54907	0.728
9.58607	0.708
9.62308	0.682
9.66008	0.7
9.69709	0.745
9.7341	0.768
9.7711	0.781
9.80811	0.791
9.84511	0.794
9.88212	0.798
9.91912	0.804
9.95613	0.815
9.99313	0.82
10.0301	0.823
10.0671	0.826
10.1041	0.831
10.1412	0.837
10.1782	0.84
10.2152	0.847
10.2522	0.85
10.2892	0.85
10.3262	0.849
10.3632	0.847
10.4002	0.843
10.4372	0.834
10.4742	0.831
10.5112	0.826
10.5482	0.82
10.5852	0.809
10.6222	0.798
10.6592	0.781
10.6962	0.751
10.7332	0.706
10.7702	0.64
10.8072	0.574
10.8443	0.509
10.8813	0.423
10.9183	0.293
10.9553	0.265
10.9923	0.359
11.0293	0.42
11.0663	0.36
11.1033	0.251
11.1403	0.334
11.1773	0.486
11.2143	0.577
11.2513	0.566
11.2883	0.517
11.3253	0.506
11.3623	0.562
11.3993	0.563
11.4363	0.526
11.4733	0.49
11.5103	0.536
11.5474	0.566
11.5844	0.56
11.6214	0.537
11.6584	0.496
11.6954	0.422
11.7324	0.298
11.7694	0.238
11.8064	0.337
11.8434	0.493
11.8804	0.589
11.9174	0.622
11.9544	0.642
11.9914	0.666
12.0284	0.695
12.0654	0.706
12.1024	0.714
12.1394	0.717
12.1764	0.718
12.2134	0.72
12.2505	0.711
12.2875	0.705
12.3245	0.695
12.3615	0.678
12.3985	0.652
12.4355	0.606
12.4725	0.556
12.5095	0.491
12.5465	0.387
12.5835	0.201
12.6205	0.084
12.6575	0.119
12.6945	0.305
12.7315	0.427
12.7685	0.502
12.8055	0.543
12.8425	0.569
12.8795	0.597
12.9165	0.614
12.9536	0.62
12.9906	0.637
13.0276	0.675
13.0646	0.694
13.1016	0.701
13.1386	0.705
13.1756	0.708
13.2126	0.706
13.2496	0.694
13.2866	0.675
13.3236	0.637
13.3606	0.602
13.3976	0.594
13.4346	0.6
13.4716	0.6
13.5086	0.605
13.5456	0.617
13.5826	0.634
13.6196	0.658
13.6567	0.671
13.6937	0.675
13.7307	0.678
13.7677	0.672
13.8047	0.663
13.8417	0.66
13.8787	0.663
13.9157	0.668
13.9527	0.668
13.9897	0.671
14.0267	0.671
14.0637	0.668
14.1007	0.665
14.1377	0.66
14.1747	0.654
14.2117	0.646
14.2487	0.64
14.2857	0.632
14.3227	0.628
14.3598	0.622
14.3968	0.615
14.4338	0.609
14.4708	0.605
14.5078	0.602
14.5448	0.594
14.5818	0.589
14.6188	0.585
14.6558	0.579
14.6928	0.571
14.7298	0.563
14.7668	0.559
14.8038	0.552
14.8408	0.543
14.8778	0.533
14.9148	0.52
14.9518	0.517
14.9888	0.516
15.0258	0.506
15.0628	0.493
15.0999	0.482
15.1369	0.471
15.1739	0.463
15.2109	0.456
15.2479	0.451
15.2849	0.445
15.3219	0.44
15.3589	0.436
15.3959	0.428
15.4329	0.422
15.4699	0.416
15.5069	0.407
15.5439	0.4
15.5809	0.394
15.6179	0.387
15.6549	0.384
15.6919	0.379
15.7289	0.373
15.7659	0.37
15.803	0.364
15.84	0.362
15.877	0.362
