Infrared Spectrum: 2-n-HEPTYL-5-METHYL PYRAZINE
Formula: C12 H20 N2
CAS: 116660-35-6
State: LIQUID
Class: COBLENTZ
Instrument: Not specified, most likely a prism, grating, or hybrid spectrometer.
Sampling: TRANSMISSION
Path length: 0.003 CM
Resolution: 4
Origin: WYANDOTTE CHEMICALS CORP., WYANDOTTE, MICHIGAN, USA
MICROMETERS	TRANSMITTANCE
2.014	0.972
2.05487	0.964
2.09575	0.953
2.13662	0.952
2.17749	0.919
2.21837	0.888
2.25924	0.905
2.30011	0.909
2.34099	0.919
2.38186	0.931
2.42274	0.938
2.46361	0.933
2.50448	0.943
2.54536	0.95
2.58623	0.95
2.6271	0.958
2.66798	0.952
2.70885	0.946
2.74972	0.917
2.7906	0.914
2.83147	0.89
2.87234	0.878
2.91322	0.866
2.95409	0.869
2.99496	0.869
3.03584	0.876
3.07671	0.873
3.11759	0.869
3.15846	0.864
3.19933	0.845
3.24021	0.621
3.28108	0.571
3.32195	0.238
3.36283	0.051
3.4037	0.061
3.44457	0.116
3.48545	0.077
3.52632	0.5
3.56719	0.707
3.60807	0.799
3.64894	0.799
3.68981	0.837
3.73069	0.839
3.77156	0.863
3.81244	0.866
3.85331	0.885
3.89418	0.904
3.93506	0.912
3.97593	0.919
4.0168	0.924
4.05768	0.921
4.09855	0.921
4.13942	0.924
4.1803	0.919
4.22117	0.921
4.26204	0.934
4.30292	0.924
4.34379	0.924
4.38467	0.929
4.42554	0.933
4.46641	0.94
4.50729	0.938
4.54816	0.936
4.58903	0.941
4.62991	0.943
4.67078	0.94
4.71165	0.931
4.75253	0.94
4.7934	0.938
4.83427	0.936
4.87515	0.948
4.91602	0.948
4.95689	0.938
4.99777	0.946
5.03864	0.945
5.07952	0.936
5.12039	0.943
5.16126	0.945
5.20214	0.946
5.24301	0.946
5.28388	0.943
5.32476	0.941
5.36563	0.952
5.4065	0.938
5.44738	0.933
5.48825	0.9
5.52912	0.888
5.57	0.921
5.61087	0.931
5.65174	0.941
5.69262	0.941
5.73349	0.929
5.77437	0.898
5.81524	0.9
5.85611	0.902
5.89699	0.886
5.93786	0.869
5.97873	0.869
6.01961	0.868
6.06048	0.851
6.10135	0.854
6.14223	0.861
6.1831	0.857
6.22397	0.851
6.26485	0.821
6.30572	0.851
6.34659	0.84
6.38747	0.825
6.42834	0.787
6.46922	0.712
6.51009	0.7
6.55096	0.698
6.59184	0.628
6.63271	0.407
6.67358	0.102
6.71446	0.147
6.75533	0.19
6.7962	0.13
6.83708	0.152
6.87795	0.193
6.91882	0.241
6.9597	0.363
7.00057	0.474
7.04144	0.554
7.08232	0.597
7.12319	0.628
7.16407	0.59
7.20494	0.33
7.24581	0.231
7.28669	0.431
7.32756	0.347
7.36843	0.292
7.40931	0.265
7.45018	0.224
7.49105	0.253
7.53193	0.323
7.5728	0.315
7.61367	0.38
7.65455	0.496
7.69542	0.578
7.73629	0.654
7.77717	0.686
7.81804	0.695
7.85892	0.707
7.89979	0.7
7.94066	0.643
7.98154	0.501
8.02241	0.643
8.06328	0.726
8.10416	0.743
8.14503	0.719
8.1859	0.698
8.22678	0.722
8.26765	0.727
8.30852	0.712
8.3494	0.683
8.39027	0.669
8.43115	0.595
8.47202	0.529
8.51289	0.489
8.55377	0.457
8.59464	0.332
8.63551	0.251
8.67639	0.273
8.71726	0.381
8.75813	0.477
8.79901	0.527
8.83988	0.577
8.88075	0.578
8.92163	0.546
8.9625	0.523
9.00337	0.523
9.04425	0.532
9.08512	0.551
9.126	0.573
9.16687	0.607
9.20774	0.63
9.24862	0.635
9.28949	0.657
9.33036	0.664
9.37124	0.666
9.41211	0.652
9.45298	0.626
9.49386	0.592
9.53473	0.47
9.5756	0.261
9.61648	0.073
9.65735	0.07
9.69822	0.256
9.7391	0.469
9.77997	0.551
9.82085	0.623
9.86172	0.667
9.90259	0.7
9.94347	0.724
9.98434	0.727
10.0252	0.71
10.0661	0.719
10.107	0.702
10.1478	0.667
10.1887	0.635
10.2296	0.63
10.2705	0.645
10.3113	0.683
10.3522	0.715
10.3931	0.731
10.4339	0.748
10.4748	0.76
10.5157	0.768
10.5566	0.777
10.5974	0.777
10.6383	0.773
10.6792	0.767
10.7201	0.756
10.7609	0.753
10.8018	0.761
10.8427	0.77
10.8836	0.751
10.9244	0.732
10.9653	0.708
11.0062	0.693
11.0471	0.667
11.0879	0.638
11.1288	0.607
11.1697	0.59
11.2105	0.58
11.2514	0.594
11.2923	0.619
11.3332	0.662
11.374	0.727
11.4149	0.765
11.4558	0.791
11.4967	0.803
11.5375	0.811
11.5784	0.818
11.6193	0.823
11.6602	0.847
11.701	0.863
11.7419	0.869
11.7828	0.871
11.8236	0.873
11.8645	0.869
11.9054	0.868
11.9463	0.869
11.9871	0.868
12.028	0.863
12.0689	0.864
12.1098	0.864
12.1506	0.868
12.1915	0.866
12.2324	0.866
12.2733	0.873
12.3141	0.866
12.355	0.866
12.3959	0.861
12.4368	0.856
12.4776	0.849
12.5185	0.844
12.5594	0.833
12.6002	0.832
12.6411	0.83
12.682	0.823
12.7229	0.815
12.7637	0.803
12.8046	0.799
12.8455	0.796
12.8864	0.785
12.9272	0.775
12.9681	0.765
13.009	0.756
13.0499	0.76
13.0907	0.758
13.1316	0.761
13.1725	0.753
13.2133	0.738
13.2542	0.727
13.2951	0.703
13.336	0.691
13.3768	0.688
13.4177	0.69
13.4586	0.698
13.4995	0.693
13.5403	0.693
13.5812	0.678
13.6221	0.667
13.663	0.647
13.7038	0.618
13.7447	0.595
13.7856	0.558
13.8265	0.535
13.8673	0.544
13.9082	0.592
13.9491	0.642
13.9899	0.678
14.0308	0.702
14.0717	0.722
14.1126	0.743
14.1534	0.753
14.1943	0.76
14.2352	0.768
14.2761	0.775
14.3169	0.768
14.3578	0.779
14.3987	0.772
14.4396	0.768
14.4804	0.763
14.5213	0.76
14.5622	0.756
14.603	0.751
14.6439	0.743
14.6848	0.748
14.7257	0.731
14.7665	0.731
14.8074	0.726
14.8483	0.719
14.8892	0.7
14.93	0.71
14.9709	0.705
15.0118	0.69
15.0527	0.626
15.0935	0.587
15.1344	0.595
15.1753	0.628
15.2162	0.65
15.257	0.664
15.2979	0.65
15.3388	0.654
15.3796	0.642
15.4205	0.64
15.4614	0.633
15.5023	0.625
15.5431	0.611
15.584	0.613
15.6249	0.601
15.6658	0.597
15.7066	0.587
15.7475	0.573
15.7884	0.563
15.8293	0.566
15.8701	0.554
15.911	0.554
15.9519	0.544
