Infrared Spectrum: 2-(N,N-DI-n-BUTYLAMINO)-3-METHYL PYRAZINE
Formula: C13 H23 N3
CAS: 116660-17-4
State: LIQUID
Class: COBLENTZ
Instrument: Not specified, most likely a prism, grating, or hybrid spectrometer.
Sampling: TRANSMISSION
Path length: 0.003 CM
Resolution: 4
Origin: WYANDOTTE CHEMICALS CORP., WYANDOTTE, MICHIGAN, USA
MICROMETERS	TRANSMITTANCE
2.034	0.984
2.07472	0.984
2.11544	0.976
2.15615	0.955
2.19687	0.901
2.23759	0.886
2.27831	0.911
2.31903	0.906
2.35974	0.93
2.40046	0.921
2.44118	0.928
2.4819	0.947
2.52262	0.957
2.56333	0.95
2.60405	0.96
2.64477	0.952
2.68549	0.959
2.72621	0.954
2.76692	0.937
2.80764	0.943
2.84836	0.923
2.88908	0.92
2.9298	0.909
2.97051	0.911
3.01123	0.879
3.05195	0.879
3.09267	0.874
3.13339	0.857
3.17411	0.836
3.21482	0.765
3.25554	0.525
3.29626	0.481
3.33698	0.127
3.3777	0.052
3.41841	0.068
3.45913	0.083
3.49985	0.108
3.54057	0.389
3.58129	0.661
3.622	0.76
3.66272	0.738
3.70344	0.775
3.74416	0.804
3.78488	0.826
3.82559	0.85
3.86631	0.872
3.90703	0.879
3.94775	0.879
3.98847	0.891
4.02918	0.903
4.0699	0.882
4.11062	0.88
4.15134	0.862
4.19206	0.872
4.23277	0.857
4.27349	0.867
4.31421	0.875
4.35493	0.88
4.39565	0.887
4.43636	0.899
4.47708	0.908
4.5178	0.908
4.55852	0.916
4.59924	0.913
4.63995	0.92
4.68067	0.903
4.72139	0.906
4.76211	0.909
4.80283	0.918
4.84354	0.923
4.88426	0.925
4.92498	0.921
4.9657	0.913
5.00642	0.928
5.04713	0.935
5.08785	0.926
5.12857	0.937
5.16929	0.93
5.21001	0.918
5.25072	0.913
5.29144	0.901
5.33216	0.882
5.37288	0.914
5.4136	0.93
5.45432	0.931
5.49503	0.925
5.53575	0.903
5.57647	0.899
5.61719	0.879
5.65791	0.877
5.69862	0.882
5.73934	0.894
5.78006	0.855
5.82078	0.84
5.8615	0.838
5.90221	0.818
5.94293	0.784
5.98365	0.792
6.02437	0.795
6.06509	0.777
6.1058	0.777
6.14652	0.763
6.18724	0.736
6.22796	0.646
6.26868	0.467
6.30939	0.215
6.35011	0.193
6.39083	0.37
6.43155	0.43
6.47227	0.197
6.51298	0.062
6.5537	0.181
6.59442	0.307
6.63514	0.297
6.67586	0.187
6.71657	0.137
6.75729	0.083
6.79801	0.052
6.83873	0.071
6.87945	0.061
6.92016	0.061
6.96088	0.057
7.0016	0.062
7.04232	0.057
7.08304	0.102
7.12375	0.227
7.16447	0.238
7.20519	0.085
7.24591	0.052
7.28663	0.057
7.32734	0.122
7.36806	0.207
7.40878	0.285
7.4495	0.324
7.49022	0.323
7.53093	0.377
7.57165	0.386
7.61237	0.302
7.65309	0.261
7.69381	0.255
7.73453	0.198
7.77524	0.188
7.81596	0.355
7.85668	0.406
7.8974	0.307
7.93812	0.25
7.97883	0.222
8.01955	0.272
8.06027	0.25
8.10099	0.215
8.14171	0.163
8.18242	0.207
8.22314	0.331
8.26386	0.28
8.30458	0.176
8.3453	0.079
8.38601	0.057
8.42673	0.064
8.46745	0.154
8.50817	0.282
8.54889	0.329
8.5896	0.307
8.63032	0.34
8.67104	0.338
8.71176	0.222
8.75248	0.176
8.79319	0.124
8.83391	0.059
8.87463	0.074
8.91535	0.1
8.95607	0.12
8.99678	0.171
9.0375	0.204
9.07822	0.214
9.11894	0.295
9.15966	0.375
9.20037	0.411
9.24109	0.416
9.28181	0.535
9.32253	0.579
9.36325	0.557
9.40396	0.566
9.44468	0.562
9.4854	0.576
9.52612	0.602
9.56684	0.641
9.60755	0.61
9.64827	0.51
9.68899	0.382
9.72971	0.46
9.77043	0.585
9.81114	0.63
9.85186	0.646
9.89258	0.641
9.9333	0.617
9.97402	0.632
10.0147	0.637
10.0555	0.641
10.0962	0.608
10.1369	0.501
10.1776	0.362
10.2183	0.261
10.259	0.329
10.2998	0.455
10.3405	0.562
10.3812	0.607
10.4219	0.632
10.4626	0.656
10.5034	0.653
10.5441	0.651
10.5848	0.602
10.6255	0.537
10.6662	0.51
10.7069	0.498
10.7477	0.467
10.7884	0.392
10.8291	0.382
10.8698	0.537
10.9105	0.661
10.9512	0.712
10.992	0.724
11.0327	0.685
11.0734	0.607
11.1141	0.59
11.1548	0.647
11.1956	0.705
11.2363	0.729
11.277	0.719
11.3177	0.698
11.3584	0.693
11.3991	0.712
11.4399	0.751
11.4806	0.76
11.5213	0.732
11.562	0.647
11.6027	0.632
11.6435	0.673
11.6842	0.654
11.7249	0.59
11.7656	0.518
11.8063	0.443
11.847	0.36
11.8878	0.301
11.9285	0.272
11.9692	0.261
12.0099	0.253
12.0506	0.277
12.0914	0.375
12.1321	0.498
12.1728	0.644
12.2135	0.7
12.2542	0.741
12.2949	0.76
12.3357	0.775
12.3764	0.777
12.4171	0.778
12.4578	0.772
12.4985	0.761
12.5393	0.743
12.58	0.732
12.6207	0.727
12.6614	0.732
12.7021	0.738
12.7428	0.729
12.7836	0.721
12.8243	0.7
12.865	0.714
12.9057	0.726
12.9464	0.739
12.9872	0.751
13.0279	0.755
13.0686	0.753
13.1093	0.732
13.15	0.712
13.1907	0.68
13.2315	0.646
13.2722	0.605
13.3129	0.574
13.3536	0.544
13.3943	0.539
13.4351	0.534
13.4758	0.542
13.5165	0.561
13.5572	0.574
13.5979	0.573
13.6386	0.554
13.6794	0.537
13.7201	0.552
13.7608	0.596
13.8015	0.653
13.8422	0.693
13.8829	0.714
13.9237	0.732
13.9644	0.744
14.0051	0.748
14.0458	0.75
14.0865	0.748
14.1273	0.758
14.168	0.739
14.2087	0.743
14.2494	0.75
14.2901	0.743
14.3308	0.739
14.3716	0.732
14.4123	0.743
14.453	0.738
14.4937	0.739
14.5344	0.738
14.5752	0.743
14.6159	0.738
14.6566	0.744
14.6973	0.744
14.738	0.75
14.7787	0.734
14.8195	0.726
14.8602	0.732
14.9009	0.722
14.9416	0.721
14.9823	0.721
15.0231	0.688
15.0638	0.632
15.1045	0.617
15.1452	0.62
15.1859	0.647
15.2266	0.676
15.2674	0.683
15.3081	0.671
15.3488	0.668
15.3895	0.658
15.4302	0.659
15.471	0.658
15.5117	0.639
15.5524	0.63
15.5931	0.62
15.6338	0.619
15.6745	0.603
15.7153	0.596
15.756	0.581
15.7967	0.583
15.8374	0.562
15.8781	0.562
15.9189	0.544
15.9596	0.549
