Infrared Spectrum: 2,4-DI-TERT-BUTYL-6-CHLOROPHENYL BENZOATE
Formula: C21 H25 Cl O2
CAS: 116632-94-1
State: SOLUTION (10% CCl4 FOR 5000-1300, 10% CS2 FOR 1300-625 CM^-^1)
Class: COBLENTZ
Instrument: Not specified, most likely a prism, grating, or hybrid spectrometer.
Sampling: TRANSMISSION
Path length: 0.011 CM, 0.011 CM
Resolution: 4
Origin: DOW CHEMICAL COMPANY
MICROMETERS	TRANSMITTANCE
2.034	0.862
2.07474	0.862
2.11548	0.866
2.15621	0.866
2.19695	0.869
2.23769	0.864
2.27843	0.859
2.31917	0.869
2.35991	0.871
2.40064	0.869
2.44138	0.873
2.48212	0.881
2.52286	0.888
2.5636	0.886
2.60434	0.886
2.64507	0.896
2.68581	0.895
2.72655	0.896
2.76729	0.893
2.80803	0.879
2.84876	0.861
2.8895	0.847
2.93024	0.83
2.97098	0.842
3.01172	0.857
3.05246	0.857
3.09319	0.842
3.13393	0.832
3.17467	0.832
3.21541	0.802
3.25615	0.756
3.29689	0.756
3.33762	0.544
3.37836	0.191
3.4191	0.424
3.45984	0.519
3.50058	0.754
3.54131	0.849
3.58205	0.871
3.62279	0.879
3.66353	0.883
3.70427	0.893
3.74501	0.9
3.78574	0.901
3.82648	0.905
3.86722	0.908
3.90796	0.915
3.9487	0.915
3.98944	0.917
4.03017	0.92
4.07091	0.923
4.11165	0.918
4.15239	0.922
4.19313	0.918
4.23386	0.91
4.2746	0.906
4.31534	0.898
4.35608	0.901
4.39682	0.917
4.43756	0.937
4.47829	0.942
4.51903	0.944
4.55977	0.947
4.60051	0.945
4.64125	0.947
4.68199	0.945
4.72272	0.94
4.76346	0.94
4.8042	0.942
4.84494	0.945
4.88568	0.947
4.92641	0.944
4.96715	0.945
5.00789	0.942
5.04863	0.939
5.08937	0.912
5.13011	0.92
5.17084	0.92
5.21158	0.891
5.25232	0.9
5.29306	0.923
5.3338	0.934
5.37454	0.94
5.41527	0.935
5.45601	0.932
5.49675	0.888
5.53749	0.898
5.57823	0.879
5.61896	0.774
5.6597	0.561
5.70044	0.172
5.74118	0.201
5.78192	0.656
5.82266	0.754
5.86339	0.827
5.90413	0.859
5.94487	0.873
5.98561	0.871
6.02635	0.873
6.06709	0.859
6.10782	0.84
6.14856	0.832
6.1893	0.754
6.23004	0.517
6.27078	0.541
6.31151	0.536
6.35225	0.47
6.39299	0.417
6.43373	0.46
6.47447	0.478
6.51521	0.571
6.55594	0.6
6.59668	0.656
6.63742	0.7
6.67816	0.681
6.7189	0.519
6.75964	0.382
6.80037	0.404
6.84111	0.431
6.88185	0.311
6.92259	0.382
6.96333	0.714
7.00406	0.778
7.0448	0.769
7.08554	0.654
7.12628	0.455
7.16702	0.57
7.20776	0.771
7.24849	0.798
7.28923	0.614
7.32997	0.499
7.37071	0.817
7.41145	0.818
7.45219	0.813
7.49292	0.822
7.53366	0.796
7.5744	0.715
7.61514	0.67
7.65588	0.712
7.69661	0.653
7.73735	0.526
7.77809	0.434
7.81883	0.292
7.85957	0.201
7.90031	0.111
7.94104	0.025
7.98178	0.103
8.02252	0.17
8.06326	0.24
8.104	0.301
8.14474	0.155
8.18547	0.047
8.22621	0.052
8.26695	0.241
8.30769	0.321
8.34843	0.57
8.38916	0.685
8.4299	0.648
8.47064	0.436
8.51138	0.401
8.55212	0.7
8.59286	0.746
8.63359	0.759
8.67433	0.771
8.71507	0.744
8.75581	0.708
8.79655	0.734
8.83729	0.78
8.87802	0.785
8.91876	0.773
8.9595	0.749
9.00024	0.702
9.04098	0.575
9.08171	0.416
9.12245	0.203
9.16319	0.172
9.20393	0.385
9.24467	0.56
9.28541	0.499
9.32614	0.392
9.36688	0.527
9.40762	0.495
9.44836	0.157
9.4891	0.027
9.52984	0.209
9.57057	0.539
9.61131	0.698
9.65205	0.749
9.69279	0.719
9.73353	0.494
9.77426	0.148
9.815	0.456
9.85574	0.712
9.89648	0.79
9.93722	0.817
9.97796	0.8
10.0187	0.854
10.0594	0.869
10.1002	0.871
10.1409	0.874
10.1816	0.878
10.2224	0.879
10.2631	0.874
10.3039	0.873
10.3446	0.878
10.3853	0.879
10.4261	0.886
10.4668	0.888
10.5076	0.884
10.5483	0.879
10.589	0.871
10.6298	0.852
10.6705	0.796
10.7112	0.729
10.752	0.744
10.7927	0.776
10.8335	0.808
10.8742	0.827
10.9149	0.827
10.9557	0.802
10.9964	0.812
11.0372	0.83
11.0779	0.834
11.1186	0.829
11.1594	0.813
11.2001	0.781
11.2408	0.739
11.2816	0.724
11.3223	0.695
11.3631	0.604
11.4038	0.456
11.4445	0.213
11.4853	0.226
11.526	0.323
11.5667	0.455
11.6075	0.551
11.6482	0.538
11.689	0.463
11.7297	0.411
11.7704	0.554
11.8112	0.658
11.8519	0.708
11.8927	0.752
11.9334	0.766
11.9741	0.778
12.0149	0.788
12.0556	0.788
12.0963	0.768
12.1371	0.73
12.1778	0.715
12.2186	0.766
12.2593	0.781
12.3	0.786
12.3408	0.788
12.3815	0.788
12.4222	0.78
12.463	0.776
12.5037	0.752
12.5445	0.698
12.5852	0.663
12.6259	0.717
12.6667	0.749
12.7074	0.756
12.7482	0.756
12.7889	0.754
12.8296	0.736
12.8704	0.654
12.9111	0.509
12.9518	0.443
12.9926	0.541
13.0333	0.683
13.0741	0.744
13.1148	0.763
13.1555	0.766
13.1963	0.771
13.237	0.763
13.2778	0.749
13.3185	0.72
13.3592	0.702
13.4	0.727
13.4407	0.751
13.4814	0.759
13.5222	0.759
13.5629	0.756
13.6037	0.747
13.6444	0.737
13.6851	0.703
13.7259	0.653
13.7666	0.614
13.8073	0.612
13.8481	0.637
13.8888	0.644
13.9296	0.631
13.9703	0.602
14.011	0.536
14.0518	0.451
14.0925	0.309
14.1333	0.15
14.174	0.038
14.2147	0.021
14.2555	0.101
14.2962	0.236
14.3369	0.363
14.3777	0.463
14.4184	0.524
14.4592	0.553
14.4999	0.558
14.5406	0.553
14.5814	0.543
14.6221	0.538
14.6629	0.551
14.7036	0.56
14.7443	0.561
14.7851	0.536
14.8258	0.497
14.8665	0.445
14.9073	0.404
14.948	0.407
14.9888	0.47
15.0295	0.51
15.0702	0.517
15.111	0.519
15.1517	0.516
15.1924	0.505
15.2332	0.494
15.2739	0.48
15.3147	0.46
15.3554	0.438
15.3961	0.412
15.4369	0.397
15.4776	0.395
15.5184	0.406
15.5591	0.417
15.5998	0.423
15.6406	0.426
15.6813	0.426
15.722	0.417
15.7628	0.414
15.8035	0.411
15.8443	0.406
15.885	0.409
