Infrared Spectrum: Semicarbazide, 4-methyl-1-(2-pyrimidinyl)-
Formula: C6 H9 N5 O
CAS: 116659-63-3
State: SOLID (0.8 mg / 650 mg KBr DISC)
Class: COBLENTZ III
Instrument: PERKIN-ELMER 221 (GRATING)
Instrument parameters: FILTER AT 980 CM^-^1. GRATING 4000-1428 CM^-^1, NaCl PRISM 1428-650 CM^-^1
Sampling: TRANSMISSION
Resolution: 2
Origin: SOUTHERN RESEARCH INSTITUTE
1/CM	TRANSMITTANCE
626	0.4607
635.027	0.6963
644.053	0.6836
653.08	0.6642
662.107	0.627
671.133	0.6118
680.16	0.4944
689.187	0.4242
698.213	0.4415
707.24	0.4807
716.267	0.5329
725.293	0.5853
734.32	0.6357
743.347	0.6448
752.373	0.6314
761.4	0.5215
770.427	0.5939
779.453	0.5728
788.48	0.4319
797.507	0.7041
806.533	0.7386
815.56	0.8151
824.587	0.8314
833.614	0.831
842.64	0.8253
851.667	0.8053
860.694	0.7612
869.72	0.6188
878.747	0.81
887.774	0.8385
896.8	0.8386
905.827	0.8359
914.854	0.8313
923.88	0.8252
932.907	0.8154
941.934	0.8016
950.96	0.7855
959.987	0.7694
969.014	0.7478
978.04	0.5057
987.067	0.6916
996.094	0.726
1005.12	0.7714
1014.15	0.7699
1023.17	0.7584
1032.2	0.7515
1041.23	0.739
1050.25	0.7285
1059.28	0.7034
1068.31	0.6839
1077.33	0.659
1086.36	0.6973
1095.39	0.6367
1104.41	0.6859
1113.44	0.6195
1122.47	0.5155
1131.49	0.6231
1140.52	0.6377
1149.55	0.5698
1158.57	0.4884
1167.6	0.5659
1176.63	0.5668
1185.65	0.6186
1194.68	0.6056
1203.71	0.5977
1212.73	0.5638
1221.76	0.5804
1230.79	0.6002
1239.81	0.5924
1248.84	0.5684
1257.87	0.5517
1266.89	0.5185
1275.92	0.4419
1284.95	0.5275
1293.97	0.482
1303	0.4214
1312.03	0.3345
1321.05	0.3292
1330.08	0.3522
1339.11	0.4972
1348.13	0.5266
1357.16	0.4905
1366.19	0.4283
1375.21	0.409
1384.24	0.3399
1393.27	0.2054
1402.29	0.1168
1411.32	0.1211
1420.35	0.2247
1429.37	0.3594
1438.4	0.2397
1447.43	0.3383
1456.45	0.4169
1465.48	0.5247
1474.51	0.5861
1483.53	0.5781
1492.56	0.5459
1501.59	0.4296
1510.61	0.3273
1519.64	0.2357
1528.67	0.1756
1537.69	0.1899
1546.72	0.1962
1555.75	0.2621
1564.77	0.2805
1573.8	0.1738
1582.83	0.1053
1591.85	0.1175
1600.88	0.1742
1609.91	0.3209
1618.93	0.3509
1627.96	0.3099
1636.99	0.2069
1646.01	0.0806
1655.04	0.0833
1664.07	0.1796
1673.09	0.2778
1682.12	0.3309
1691.15	0.4203
1700.17	0.5058
1709.2	0.5963
1718.23	0.6844
1727.25	0.7314
1736.28	0.7623
1745.31	0.7863
1754.33	0.8084
1763.36	0.8297
1772.39	0.8478
1781.41	0.8618
1790.44	0.8716
1799.47	0.8784
1808.49	0.8887
1817.52	0.8932
1826.55	0.8962
1835.57	0.8985
1844.6	0.8993
1853.63	0.8999
1862.65	0.9023
1871.68	0.9095
1880.71	0.9117
1889.73	0.9119
1898.76	0.9121
1907.79	0.9119
1916.81	0.9116
1925.84	0.911
1934.87	0.9091
1943.89	0.9059
1952.92	0.8999
1961.95	0.8998
1970.97	0.8988
1980	0.8977
1989.03	0.8982
1998.05	0.8986
2007.08	0.899
2016.11	0.8992
2025.13	0.8985
2034.16	0.8976
2043.19	0.8971
2052.21	0.8964
2061.24	0.8952
2070.27	0.8937
2079.29	0.8921
2088.32	0.8905
2097.35	0.8888
2106.37	0.8881
2115.4	0.8859
2124.43	0.8817
2133.45	0.8815
2142.48	0.882
2151.51	0.8815
2160.53	0.881
2169.56	0.8799
2178.59	0.8786
2187.61	0.8773
2196.64	0.8753
2205.67	0.8732
2214.69	0.8708
2223.72	0.8684
2232.75	0.8663
2241.77	0.8642
2250.8	0.8636
2259.83	0.8614
2268.85	0.859
2277.88	0.8566
2286.91	0.8545
2295.93	0.8525
2304.96	0.8507
2313.99	0.8488
2323.01	0.8467
2332.04	0.8445
2341.07	0.8432
2350.09	0.8419
2359.12	0.8414
2368.15	0.8414
2377.17	0.8423
2386.2	0.8436
2395.23	0.8432
2404.25	0.8407
2413.28	0.8384
2422.31	0.8363
2431.33	0.8341
2440.36	0.8317
2449.39	0.8294
2458.41	0.8286
2467.44	0.8342
2476.47	0.8521
2485.49	0.8271
2494.52	0.8227
2503.55	0.8207
2512.57	0.8192
2521.6	0.8179
2530.63	0.8168
2539.66	0.8152
2548.68	0.8117
2557.71	0.8065
2566.74	0.8012
2575.76	0.7979
2584.79	0.7966
2593.82	0.7957
2602.84	0.7917
2611.87	0.7864
2620.9	0.7824
2629.92	0.7793
2638.95	0.7767
2647.98	0.7733
2657	0.77
2666.03	0.7668
2675.06	0.7647
2684.08	0.7625
2693.11	0.7599
2702.14	0.7561
2711.16	0.7479
2720.19	0.7394
2729.22	0.731
2738.24	0.7224
2747.27	0.7139
2756.3	0.7086
2765.32	0.7037
2774.35	0.6926
2783.38	0.6755
2792.4	0.6563
2801.43	0.6359
2810.46	0.6305
2819.48	0.6332
2828.51	0.631
2837.54	0.6066
2846.56	0.5735
2855.59	0.5512
2864.62	0.5432
2873.64	0.5403
2882.67	0.5263
2891.7	0.4968
2900.72	0.4854
2909.75	0.4881
2918.78	0.4881
2927.8	0.4761
2936.83	0.4509
2945.86	0.4233
2954.88	0.4262
2963.91	0.4354
2972.94	0.4507
2981.96	0.4343
2990.99	0.4044
3000.02	0.4026
3009.04	0.3991
3018.07	0.3805
3027.1	0.3654
3036.12	0.3699
3045.15	0.4059
3054.18	0.4089
3063.2	0.4177
3072.23	0.4398
3081.26	0.4462
3090.28	0.4232
3099.31	0.383
3108.34	0.3769
3117.36	0.4396
3126.39	0.4396
3135.42	0.4207
3144.44	0.3984
3153.47	0.3862
3162.5	0.3822
3171.52	0.3756
3180.55	0.3396
3189.58	0.3079
3198.6	0.2747
3207.63	0.2366
3216.66	0.2153
3225.68	0.2081
3234.71	0.212
3243.74	0.2163
3252.76	0.2151
3261.79	0.2129
3270.82	0.2198
3279.84	0.2274
3288.87	0.2485
3297.9	0.2658
3306.92	0.2809
3315.95	0.3072
3324.98	0.3372
3334	0.3822
3343.03	0.4369
3352.06	0.4825
3361.08	0.5136
3370.11	0.5378
3379.14	0.5591
3388.16	0.5788
3397.19	0.5943
3406.22	0.601
3415.24	0.6083
3424.27	0.6262
3433.3	0.64
3442.32	0.6473
3451.35	0.6529
3460.38	0.6613
3469.4	0.6689
3478.43	0.6731
3487.46	0.6909
3496.48	0.6977
3505.51	0.7051
3514.54	0.7182
3523.56	0.7268
3532.59	0.7329
3541.62	0.7384
3550.64	0.745
3559.67	0.7525
3568.7	0.7606
3577.72	0.77
3586.75	0.7802
3595.78	0.7901
3604.8	0.8004
3613.83	0.8102
3622.86	0.8297
3631.88	0.8341
3640.91	0.8366
3649.94	0.8387
3658.96	0.8403
3667.99	0.8418
3677.02	0.8432
3686.04	0.8448
3695.07	0.8471
3704.1	0.8498
3713.12	0.8498
3722.15	0.8494
3731.18	0.849
3740.2	0.8484
3749.23	0.8479
3758.26	0.8476
3767.28	0.8471
3776.31	0.8466
3785.34	0.8464
3794.36	0.8446
3803.39	0.8385
3812.42	0.8367
3821.44	0.8356
3830.47	0.8349
3839.5	0.8345
3848.52	0.834
3857.55	0.8336
3866.58	0.8331
3875.6	0.8313
3884.63	0.8294
3893.66	0.8276
3902.68	0.8259
3911.71	0.8248
3920.74	0.8238
3929.76	0.8231
3938.79	0.8225
3947.82	0.8213
3956.84	0.8201
3965.87	0.8184
3974.9	0.8163
3983.92	0.8134
3992.95	0.8107
4001.98	0.8081
