Infrared Spectrum: 1-(Beta-CARBETHOXYETHYL)-4-PHENYL-4-PIPERIDINOL
Formula: C16 H23 N O3
CAS: 116660-52-7
State: SOLUTION (7% CHCl3)
Class: COBLENTZ
Instrument: Not specified, most likely a prism, grating, or hybrid spectrometer.
Sampling: TRANSMISSION
Path length: 0.010 CM
Resolution: 4
MICROMETERS	TRANSMITTANCE
2.033	0.981
2.07275	0.983
2.11251	0.981
2.15226	0.977
2.19202	0.968
2.23177	0.97
2.27153	0.959
2.31128	0.954
2.35103	0.954
2.39079	0.95
2.43054	0.947
2.4703	0.947
2.51005	0.95
2.54981	0.952
2.58956	0.954
2.62932	0.955
2.66907	0.955
2.70882	0.949
2.74858	0.934
2.78833	0.821
2.82809	0.854
2.86784	0.847
2.9076	0.849
2.94735	0.854
2.9871	0.865
3.02686	0.872
3.06661	0.862
3.10637	0.867
3.14612	0.863
3.18588	0.857
3.22563	0.836
3.26539	0.801
3.30514	0.737
3.34489	0.586
3.38465	0.478
3.4244	0.524
3.46416	0.665
3.50391	0.624
3.54367	0.588
3.58342	0.677
3.62317	0.767
3.66293	0.831
3.70268	0.85
3.74244	0.857
3.78219	0.877
3.82195	0.89
3.8617	0.9
3.90146	0.898
3.94121	0.896
3.98096	0.89
4.02072	0.88
4.06047	0.872
4.10023	0.886
4.13998	0.895
4.17974	0.914
4.21949	0.916
4.25924	0.926
4.299	0.931
4.33875	0.924
4.37851	0.916
4.41826	0.913
4.45802	0.913
4.49777	0.909
4.53752	0.911
4.57728	0.914
4.61703	0.918
4.65679	0.918
4.69654	0.913
4.7363	0.911
4.77605	0.909
4.81581	0.909
4.85556	0.913
4.89531	0.914
4.93507	0.918
4.97482	0.916
5.01458	0.913
5.05433	0.906
5.09409	0.898
5.13384	0.896
5.17359	0.901
5.21335	0.901
5.2531	0.898
5.29286	0.888
5.33261	0.886
5.37237	0.901
5.41212	0.903
5.45188	0.895
5.49163	0.886
5.53138	0.873
5.57114	0.875
5.61089	0.872
5.65065	0.84
5.6904	0.601
5.73016	0.278
5.76991	0.113
5.80966	0.214
5.84942	0.457
5.88917	0.693
5.92893	0.772
5.96868	0.822
6.00844	0.839
6.04819	0.85
6.08794	0.86
6.1277	0.865
6.16745	0.863
6.20721	0.842
6.24696	0.821
6.28672	0.85
6.32647	0.863
6.36623	0.873
6.40598	0.881
6.44573	0.881
6.48549	0.881
6.52524	0.878
6.565	0.873
6.60475	0.865
6.64451	0.847
6.68426	0.754
6.72401	0.691
6.76377	0.744
6.80352	0.616
6.84328	0.642
6.88303	0.659
6.92279	0.521
6.96254	0.64
7.0023	0.677
7.04205	0.65
7.0818	0.681
7.12156	0.673
7.16131	0.657
7.20107	0.593
7.24082	0.462
7.28058	0.38
7.32033	0.421
7.36008	0.609
7.39984	0.572
7.43959	0.495
7.47935	0.609
7.5191	0.591
7.55886	0.493
7.59861	0.452
7.63837	0.444
7.67812	0.422
7.71787	0.424
7.75763	0.459
7.79738	0.488
7.83714	0.509
7.87689	0.504
7.91665	0.483
7.9564	0.459
7.99615	0.411
8.03591	0.391
8.07566	0.385
8.11542	0.381
8.15517	0.39
8.19493	0.413
8.23468	0.437
8.27443	0.468
8.31419	0.486
8.35394	0.473
8.3937	0.331
8.43345	0.254
8.47321	0.267
8.51296	0.329
8.55272	0.406
8.59247	0.485
8.63222	0.542
8.67198	0.575
8.71173	0.575
8.75149	0.537
8.79124	0.491
8.831	0.431
8.87075	0.373
8.9105	0.386
8.95026	0.355
8.99001	0.34
9.02977	0.404
9.06952	0.491
9.10928	0.529
9.14903	0.55
9.18879	0.624
9.22854	0.686
9.26829	0.718
9.30805	0.714
9.3478	0.696
9.38756	0.681
9.42731	0.65
9.46707	0.562
9.50682	0.522
9.54657	0.483
9.58633	0.39
9.62608	0.442
9.66584	0.537
9.70559	0.536
9.74535	0.514
9.7851	0.491
9.82485	0.532
9.86461	0.598
9.90436	0.614
9.94412	0.611
9.98387	0.619
10.0236	0.654
10.0634	0.593
10.1031	0.596
10.1429	0.693
10.1826	0.757
10.2224	0.778
10.2622	0.793
10.3019	0.778
10.3417	0.772
10.3814	0.747
10.4212	0.706
10.4609	0.688
10.5007	0.691
10.5404	0.691
10.5802	0.683
10.6199	0.709
10.6597	0.744
10.6995	0.783
10.7392	0.803
10.779	0.811
10.8187	0.8
10.8585	0.765
10.8982	0.727
10.938	0.704
10.9777	0.718
11.0175	0.74
11.0572	0.767
11.097	0.791
11.1367	0.806
11.1765	0.822
11.2163	0.827
11.256	0.832
11.2958	0.834
11.3355	0.834
11.3753	0.842
11.415	0.849
11.4548	0.855
11.4945	0.852
11.5343	0.839
11.574	0.822
11.6138	0.793
11.6536	0.783
11.6933	0.778
11.7331	0.79
11.7728	0.806
11.8126	0.827
11.8523	0.832
11.8921	0.836
11.9318	0.836
11.9716	0.836
12.0113	0.834
12.0511	0.836
12.0909	0.837
12.1306	0.836
12.1704	0.822
12.2101	0.818
12.2499	0.808
12.2896	0.808
12.3294	0.808
12.3691	0.806
12.4089	0.809
12.4486	0.806
12.4884	0.811
12.5282	0.819
12.5679	0.822
12.6077	0.831
12.6474	0.839
12.6872	0.842
12.7269	0.849
12.7667	0.859
12.8064	0.872
12.8462	0.877
12.8859	0.886
12.9257	0.893
12.9654	0.898
13.0052	0.904
13.045	0.909
13.0847	0.913
13.1245	0.921
13.1642	0.929
13.204	0.932
13.2437	0.945
13.2835	0.95
13.3232	0.959
13.363	0.97
13.4027	0.978
13.4425	0.981
13.4823	0.981
13.522	0.99
13.5618	0.998
13.6015	1.004
13.6413	1.008
13.681	1.016
13.7208	1.019
13.7605	1.021
13.8003	1.022
13.84	1.021
13.8798	1.021
13.9196	1.019
13.9593	1.014
13.9991	1
14.0388	0.977
14.0786	0.954
14.1183	0.924
14.1581	0.88
14.1978	0.791
14.2376	0.693
14.2773	0.504
14.3171	0.398
14.3569	0.347
14.3966	0.4
14.4364	0.491
14.4761	0.606
14.5159	0.681
14.5556	0.736
14.5954	0.777
14.6351	0.8
14.6749	0.819
14.7146	0.834
14.7544	0.84
14.7942	0.847
14.8339	0.855
14.8737	0.863
14.9134	0.873
14.9532	0.868
14.9929	0.87
15.0327	0.859
15.0724	0.85
15.1122	0.816
15.1519	0.754
15.1917	0.667
15.2314	0.645
15.2712	0.663
15.311	0.701
15.3507	0.745
15.3905	0.772
15.4302	0.781
15.47	0.785
