Infrared Spectrum: m-XYLENE-Alpha,Alpha'-DIOL, 2-HYDROXY-5-(3-METHYL-2-BUTEN-1-YL)-
Formula: C13 H18 O3
CAS: 116632-93-0
State: SOLID (SPLIT MULL), FLUOROLUBE FOR 3800-1330 CM^-^1, NUJOL FOR 1330-400 CM^-^1
Class: COBLENTZ III
Instrument: DOW KBr FOREPRISM-GRATING
Instrument parameters: BLAZED AT 3.5, 12.0, 20.0 MICRON AND CHANGED AT 5.0, 7.5, 14.9 MICRON
Sampling: TRANSMISSION
Resolution: 2
Origin: DOW CHEMICAL COMPANY
1/CM	TRANSMITTANCE
380	0.9009
389	0.903
398	0.9028
407	0.9007
416	0.8973
425	0.8936
434	0.8844
443	0.8557
452	0.8996
461	0.8956
470	0.8891
479	0.882
488	0.8658
497	0.8597
506	0.851
515	0.8336
524	0.8147
533	0.8032
542	0.7949
551	0.7806
560	0.7408
569	0.7149
578	0.7285
587	0.7131
596	0.6797
605	0.676
614	0.6447
623	0.6174
632	0.601
641	0.5794
650	0.569
659	0.5665
668	0.5653
677	0.5651
686	0.5697
695	0.6068
704	0.6415
713	0.6186
722	0.5585
731	0.5918
740	0.5804
749	0.5168
758	0.5524
767	0.6625
776	0.6845
785	0.7089
794	0.7153
803	0.7544
812	0.7608
821	0.7639
830	0.7633
839	0.7371
848	0.6628
857	0.7054
866	0.6251
875	0.6015
884	0.7114
893	0.7055
902	0.6965
911	0.6298
920	0.5567
929	0.7132
938	0.6732
947	0.4946
956	0.528
965	0.6483
974	0.5972
983	0.4587
992	0.5837
1001	0.5817
1010	0.2617
1019	0.3043
1028	0.5785
1037	0.6576
1046	0.6356
1055	0.5036
1064	0.091
1073	0.5036
1082	0.6758
1091	0.6962
1100	0.6715
1109	0.6273
1118	0.6926
1127	0.6811
1136	0.6656
1145	0.6002
1154	0.6284
1163	0.6199
1172	0.5896
1181	0.5523
1190	0.4628
1199	0.3268
1208	0.223
1217	0.2026
1226	0.4344
1235	0.542
1244	0.5393
1253	0.5243
1262	0.6103
1271	0.6285
1280	0.5528
1289	0.373
1298	0.4217
1307	0.5779
1316	0.5751
1325	0.5087
1334	0.4588
1343	0.4927
1352	0.542
1361	0.6183
1370	0.5442
1379	0.3668
1388	0.6104
1397	0.6149
1406	0.5209
1415	0.4224
1424	0.3838
1433	0.4276
1442	0.3149
1451	0.3236
1460	0.3474
1469	0.2151
1478	0.5892
1487	0.3291
1496	0.7705
1505	0.8583
1514	0.8665
1523	0.8771
1532	0.8832
1541	0.8793
1550	0.8854
1559	0.8791
1568	0.8856
1577	0.8801
1586	0.867
1595	0.8365
1604	0.7089
1613	0.8277
1622	0.8853
1631	0.8957
1640	0.8893
1649	0.8724
1658	0.873
1667	0.8646
1676	0.8498
1685	0.8721
1694	0.874
1703	0.8725
1712	0.8711
1721	0.8685
1730	0.8693
1739	0.8681
1748	0.8671
1757	0.8625
1766	0.8568
1775	0.8697
1784	0.8686
1793	0.8686
1802	0.8737
1811	0.8743
1820	0.8741
1829	0.874
1838	0.8734
1847	0.8728
1856	0.8724
1865	0.8708
1874	0.8689
1883	0.867
1892	0.8649
1901	0.8621
1910	0.8588
1919	0.8557
1928	0.8528
1937	0.8503
1946	0.8484
1955	0.85
1964	0.8363
1973	0.8337
1982	0.832
1991	0.8234
2000	0.8373
2009	0.8534
2018	0.851
2027	0.8478
2036	0.8452
2045	0.8415
2054	0.8375
2063	0.8335
2072	0.8291
2081	0.8242
2090	0.8184
2099	0.8118
2108	0.8048
2117	0.7972
2126	0.7934
2135	0.7905
2144	0.7878
2153	0.7841
2162	0.7803
2171	0.7758
2180	0.7715
2189	0.7671
2198	0.7626
2207	0.7582
2216	0.7519
2225	0.7449
2234	0.7371
2243	0.7296
2252	0.7231
2261	0.7165
2270	0.7108
2279	0.705
2288	0.6993
2297	0.6934
2306	0.6876
2315	0.6817
2324	0.6761
2333	0.671
2342	0.6661
2351	0.6618
2360	0.6584
2369	0.6549
2378	0.6515
2387	0.6486
2396	0.6457
2405	0.6444
2414	0.6447
2423	0.6455
2432	0.6465
2441	0.6462
2450	0.6451
2459	0.6421
2468	0.6377
2477	0.6331
2486	0.6285
2495	0.6266
2504	0.6252
2513	0.6234
2522	0.6212
2531	0.6194
2540	0.6181
2549	0.6168
2558	0.6166
2567	0.6127
2576	0.6052
2585	0.594
2594	0.5831
2603	0.5742
2612	0.5696
2621	0.5651
2630	0.5609
2639	0.556
2648	0.5469
2657	0.5421
2666	0.5381
2675	0.5359
2684	0.5368
2693	0.5367
2702	0.5309
2711	0.5222
2720	0.5124
2729	0.5027
2738	0.4953
2747	0.4869
2756	0.4753
2765	0.4629
2774	0.4502
2783	0.4369
2792	0.4229
2801	0.4059
2810	0.3857
2819	0.3637
2828	0.3423
2837	0.3234
2846	0.3038
2855	0.2831
2864	0.2779
2873	0.2339
2882	0.2388
2891	0.2582
2900	0.2521
2909	0.2298
2918	0.2311
2927	0.2467
2936	0.2808
2945	0.2726
2954	0.2271
2963	0.1909
2972	0.2188
2981	0.2762
2990	0.2908
2999	0.2844
3008	0.2715
3017	0.2583
3026	0.244
3035	0.2338
3044	0.2257
3053	0.2181
3062	0.2104
3071	0.2025
3080	0.195
3089	0.1879
3098	0.1822
3107	0.1774
3116	0.1736
3125	0.1723
3134	0.1723
3143	0.1728
3152	0.175
3161	0.1773
3170	0.1796
3179	0.1821
3188	0.1845
3197	0.1865
3206	0.1883
3215	0.189
3224	0.1885
3233	0.1871
3242	0.1833
3251	0.175
3260	0.1635
3269	0.1509
3278	0.1384
3287	0.1315
3296	0.1306
3305	0.1352
3314	0.1491
3323	0.1679
3332	0.1851
3341	0.1942
3350	0.1921
3359	0.1804
3368	0.1402
3377	0.098
3386	0.091
3395	0.0931
3404	0.1591
3413	0.2278
3422	0.3022
3431	0.364
3440	0.401
3449	0.4334
3458	0.4821
3467	0.5252
3476	0.5546
3485	0.5727
3494	0.5876
3503	0.6007
3512	0.6105
3521	0.6186
3530	0.6243
3539	0.626
3548	0.6271
3557	0.6268
3566	0.6256
3575	0.6243
3584	0.6226
3593	0.6206
3602	0.6184
3611	0.6155
3620	0.6126
3629	0.6097
3638	0.6064
3647	0.6031
3656	0.5998
3665	0.5964
3674	0.593
3683	0.5896
3692	0.5864
3701	0.5833
3710	0.5803
3719	0.5772
3728	0.574
3737	0.5705
3746	0.567
3755	0.5636
3764	0.5606
3773	0.5576
3782	0.555
3791	0.5517
