Infrared Spectrum: 2,6(OR 5)-PYRAZINEDIOL, 3-AMINO-5(OR 6)-METHYL-
Formula: C5 H7 N3 O2
CAS: 116659-94-0
State: SOLID (1.7 mg / 650 mg KBr DISC)
Class: COBLENTZ III
Instrument: PERKIN-ELMER 21 (GRATING)
Instrument parameters: FILTER CHANGE ABOUT 1085 CM^-^1
Sampling: TRANSMISSION
Resolution: 4
Origin: SOUTHERN RESEARCH INSTITUTE
1/CM	TRANSMITTANCE
607.18	0.678
615.453	0.684
623.726	0.6785
631.999	0.6703
640.273	0.6558
648.546	0.6283
656.819	0.596
665.092	0.5329
673.365	0.5388
681.638	0.5274
689.912	0.6047
698.185	0.632
706.458	0.622
714.731	0.6295
723.004	0.6366
731.277	0.6253
739.551	0.6113
747.824	0.5627
756.097	0.4849
764.37	0.2856
772.643	0.5778
780.916	0.321
789.189	0.6643
797.463	0.68
805.736	0.6601
814.009	0.651
822.282	0.6377
830.555	0.624
838.828	0.6072
847.102	0.5825
855.375	0.4633
863.648	0.5669
871.921	0.6463
880.194	0.6255
888.467	0.6063
896.74	0.5611
905.014	0.476
913.287	0.3885
921.56	0.4427
929.833	0.533
938.106	0.6039
946.379	0.6319
954.653	0.638
962.926	0.643
971.199	0.6356
979.472	0.6156
987.745	0.5949
996.018	0.5532
1004.29	0.4648
1012.56	0.4727
1020.84	0.595
1029.11	0.6244
1037.38	0.596
1045.66	0.5637
1053.93	0.5222
1062.2	0.4117
1070.48	0.4581
1078.75	0.575
1087.02	0.561
1095.3	0.5314
1103.57	0.5003
1111.84	0.508
1120.12	0.557
1128.39	0.5478
1136.66	0.4825
1144.94	0.5065
1153.21	0.5564
1161.48	0.543
1169.75	0.5354
1178.03	0.5189
1186.3	0.517
1194.57	0.511
1202.85	0.512
1211.12	0.5083
1219.39	0.507
1227.67	0.5347
1235.94	0.5337
1244.21	0.517
1252.49	0.4967
1260.76	0.4824
1269.03	0.4751
1277.31	0.4799
1285.58	0.4603
1293.85	0.4314
1302.13	0.3697
1310.4	0.4335
1318.67	0.4988
1326.94	0.4855
1335.22	0.4653
1343.49	0.4413
1351.76	0.4182
1360.04	0.4028
1368.31	0.3647
1376.58	0.369
1384.86	0.4261
1393.13	0.3526
1401.4	0.2649
1409.68	0.2745
1417.95	0.3926
1426.22	0.382
1434.5	0.433
1442.77	0.4284
1451.04	0.4123
1459.32	0.3546
1467.59	0.2409
1475.86	0.2467
1484.13	0.4533
1492.41	0.4772
1500.68	0.4774
1508.95	0.4725
1517.23	0.4484
1525.5	0.4161
1533.77	0.3815
1542.05	0.3509
1550.32	0.314
1558.59	0.2847
1566.87	0.217
1575.14	0.1807
1583.41	0.1453
1591.69	0.1463
1599.96	0.1967
1608.23	0.2018
1616.51	0.2135
1624.78	0.1692
1633.05	0.1267
1641.32	0.1083
1649.6	0.1102
1657.87	0.1251
1666.14	0.1379
1674.42	0.1894
1682.69	0.23
1690.96	0.3103
1699.24	0.3757
1707.51	0.4506
1715.78	0.4797
1724.06	0.5304
1732.33	0.5836
1740.6	0.6236
1748.88	0.6569
1757.15	0.7012
1765.42	0.7307
1773.7	0.741
1781.97	0.7402
1790.24	0.7477
1798.51	0.764
1806.79	0.7915
1815.06	0.8054
1823.33	0.8288
1831.61	0.8337
1839.88	0.84
1848.15	0.841
1856.43	0.84
1864.7	0.8359
1872.97	0.8367
1881.25	0.8365
1889.52	0.835
1897.79	0.835
1906.07	0.834
1914.34	0.833
1922.61	0.8294
1930.89	0.826
1939.16	0.826
1947.43	0.822
1955.7	0.814
1963.98	0.8081
1972.25	0.797
1980.52	0.7863
1988.8	0.7674
1997.07	0.7413
2005.34	0.7441
2013.62	0.7761
2021.89	0.7845
2030.16	0.776
2038.44	0.767
2046.71	0.7434
2054.98	0.7099
2063.26	0.704
2071.53	0.7481
2079.8	0.766
2088.07	0.769
2096.35	0.7665
2104.62	0.7655
2112.89	0.7544
2121.17	0.739
2129.44	0.7501
2137.71	0.76
2145.99	0.7545
2154.26	0.756
2162.53	0.7515
2170.81	0.7505
2179.08	0.745
2187.35	0.745
2195.63	0.739
2203.9	0.735
2212.17	0.733
2220.45	0.7245
2228.72	0.7195
2236.99	0.7145
2245.26	0.71
2253.54	0.7135
2261.81	0.723
2270.08	0.7175
2278.36	0.714
2286.63	0.714
2294.9	0.7075
2303.18	0.7005
2311.45	0.6905
2319.72	0.68
2328	0.6735
2336.27	0.669
2344.54	0.667
2352.82	0.666
2361.09	0.667
2369.36	0.669
2377.64	0.67
2385.91	0.667
2394.18	0.673
2402.45	0.6665
2410.73	0.66
2419	0.6489
2427.27	0.645
2435.55	0.648
2443.82	0.647
2452.09	0.6445
2460.37	0.64
2468.64	0.6425
2476.91	0.647
2485.19	0.6344
2493.46	0.631
2501.73	0.6245
2510.01	0.6225
2518.28	0.6175
2526.55	0.608
2534.83	0.611
2543.1	0.5995
2551.37	0.589
2559.64	0.583
2567.92	0.569
2576.19	0.566
2584.46	0.563
2592.74	0.5585
2601.01	0.556
2609.28	0.5555
2617.56	0.5505
2625.83	0.5404
2634.1	0.5295
2642.38	0.5175
2650.65	0.5045
2658.92	0.4955
2667.2	0.486
2675.47	0.4705
2683.74	0.469
2692.02	0.467
2700.29	0.4594
2708.56	0.445
2716.83	0.435
2725.11	0.43
2733.38	0.4145
2741.65	0.4025
2749.93	0.3925
2758.2	0.385
2766.47	0.385
2774.75	0.393
2783.02	0.3935
2791.29	0.39
2799.57	0.3865
2807.84	0.3825
2816.11	0.376
2824.39	0.3695
2832.66	0.3644
2840.93	0.3455
2849.21	0.339
2857.48	0.3345
2865.75	0.3215
2874.02	0.3165
2882.3	0.3075
2890.57	0.299
2898.84	0.2864
2907.12	0.2765
2915.39	0.274
2923.66	0.2985
2931.94	0.315
2940.21	0.3355
2948.48	0.345
2956.76	0.349
2965.03	0.3585
2973.3	0.3695
2981.58	0.3826
2989.85	0.3955
2998.12	0.414
3006.4	0.422
3014.67	0.418
3022.94	0.432
3031.21	0.441
3039.49	0.4425
3047.76	0.444
3056.03	0.454
3064.31	0.46
3072.58	0.46
3080.85	0.4615
3089.13	0.462
3097.4	0.461
3105.67	0.472
3113.95	0.4815
3122.22	0.4881
3130.49	0.5
3138.77	0.501
3147.04	0.502
3155.31	0.4975
3163.59	0.491
3171.86	0.49
3180.13	0.486
3188.4	0.478
3196.68	0.4765
3204.95	0.4735
3213.22	0.4675
3221.5	0.4615
3229.77	0.4475
3238.04	0.439
3246.32	0.434
3254.59	0.4335
3262.86	0.437
3271.14	0.447
3279.41	0.4495
3287.68	0.451
3295.96	0.45
3304.23	0.4444
3312.5	0.4394
3320.78	0.43
3329.05	0.422
3337.32	0.412
3345.59	0.3929
3353.87	0.375
3362.14	0.3474
3370.41	0.3159
3378.69	0.246
3386.96	0.2486
3395.23	0.2666
3403.51	0.2901
3411.78	0.3376
3420.05	0.361
3428.33	0.3701
3436.6	0.3875
3444.87	0.395
3453.15	0.401
3461.42	0.4095
3469.69	0.42
3477.97	0.4275
3486.24	0.4345
3494.51	0.4476
3502.78	0.455
3511.06	0.463
3519.33	0.473
3527.6	0.4836
3535.88	0.501
3544.15	0.5045
3552.42	0.5075
3560.7	0.53
3568.97	0.5471
3577.24	0.5625
3585.52	0.583
3593.79	0.604
3602.06	0.6265
3610.34	0.639
3618.61	0.6476
3626.88	0.6575
3635.16	0.668
3643.43	0.671
3651.7	0.6766
3659.97	0.681
3668.25	0.682
3676.52	0.689
3684.79	0.694
3693.07	0.6915
3701.34	0.691
3709.61	0.691
3717.89	0.691
3726.16	0.694
3734.43	0.694
3742.71	0.693
3750.98	0.693
3759.25	0.693
3767.53	0.694
3775.8	0.699
3784.07	0.697
3792.35	0.695
3800.62	0.6935
3808.89	0.6935
3817.16	0.6915
3825.44	0.69
3833.71	0.689
3841.98	0.691
3850.26	0.695
3858.53	0.6975
3866.8	0.6915
3875.08	0.685
3883.35	0.6875
3891.62	0.688
3899.9	0.6875
