Infrared Spectrum: BENZYLIDENIMINE,N-(2,2-DIETHOXYETHYL)-o-HYDROXY-
Formula: C13 H19 N O3
CAS: 116632-97-4
State: LIQUID (NEAT)
Class: COBLENTZ III
Instrument: PERKIN-ELMER 21 (GRATING)
Instrument parameters: FILTER AT ABOUT 10 MICRONS
Path length: CAPILLARY
Resolution: 2
Origin: ABBOTT LABORATORIES
1/CM	TRANSMITTANCE
649	0.6163
658	0.6125
667	0.6807
676	0.7062
685	0.7306
694	0.7402
703	0.7507
712	0.7531
721	0.7351
730	0.6527
739	0.6381
748	0.4534
757	0.2254
766	0.5204
775	0.6095
784	0.6813
793	0.686
802	0.6677
811	0.6219
820	0.5903
829	0.5637
838	0.5278
847	0.5578
856	0.6585
865	0.6971
874	0.6647
883	0.6194
892	0.5963
901	0.7176
910	0.7275
919	0.724
928	0.7217
937	0.6911
946	0.7586
955	0.767
964	0.7322
973	0.6822
982	0.6891
991	0.6559
1000	0.5839
1009	0.4681
1018	0.3906
1027	0.4203
1036	0.3848
1045	0.2125
1054	0.1315
1063	0.1215
1072	0.1765
1081	0.2788
1090	0.3732
1099	0.4044
1108	0.2651
1117	0.189
1126	0.1744
1135	0.2343
1144	0.2783
1153	0.4514
1162	0.5515
1171	0.5873
1180	0.6901
1189	0.6731
1198	0.6523
1207	0.6254
1216	0.6549
1225	0.658
1234	0.7037
1243	0.6798
1252	0.7263
1261	0.6889
1270	0.4115
1279	0.208
1288	0.4234
1297	0.5735
1306	0.6887
1315	0.7262
1324	0.7721
1333	0.7395
1342	0.6033
1351	0.6267
1360	0.6421
1369	0.5088
1378	0.5443
1387	0.5834
1396	0.5772
1405	0.5411
1414	0.5541
1423	0.6193
1432	0.5898
1441	0.5088
1450	0.5182
1459	0.4451
1468	0.5524
1477	0.6146
1486	0.5517
1495	0.4165
1504	0.5326
1513	0.7376
1522	0.7708
1531	0.7764
1540	0.7785
1549	0.7718
1558	0.7404
1567	0.6935
1576	0.5992
1585	0.4361
1594	0.5451
1603	0.5957
1612	0.4856
1621	0.426
1630	0.3007
1639	0.1053
1648	0.5236
1657	0.6694
1666	0.7128
1675	0.7374
1684	0.757
1693	0.806
1702	0.8226
1711	0.8312
1720	0.8409
1729	0.8485
1738	0.852
1747	0.8536
1756	0.8539
1765	0.8537
1774	0.8538
1783	0.854
1792	0.8543
1801	0.8552
1810	0.8568
1819	0.859
1828	0.8599
1837	0.8604
1846	0.8605
1855	0.8577
1864	0.8552
1873	0.8529
1882	0.8519
1891	0.85
1900	0.8477
1909	0.8448
1918	0.8424
1927	0.8409
1936	0.8393
1945	0.8382
1954	0.841
1963	0.8445
1972	0.8489
1981	0.8532
1990	0.8539
1999	0.8543
2008	0.8545
2017	0.8546
2026	0.8544
2035	0.8542
2044	0.8539
2053	0.8532
2062	0.8527
2071	0.8522
2080	0.8514
2089	0.8507
2098	0.85
2107	0.8493
2116	0.8485
2125	0.8477
2134	0.847
2143	0.8462
2152	0.8454
2161	0.8441
2170	0.843
2179	0.8418
2188	0.8407
2197	0.8395
2206	0.8384
2215	0.8377
2224	0.837
2233	0.8364
2242	0.8357
2251	0.8351
2260	0.8344
2269	0.8338
2278	0.8327
2287	0.8308
2296	0.828
2305	0.8221
2314	0.8162
2323	0.8108
2332	0.809
2341	0.8082
2350	0.8083
2359	0.8083
2368	0.8081
2377	0.8079
2386	0.8051
2395	0.7961
2404	0.7934
2413	0.7933
2422	0.7933
2431	0.7935
2440	0.793
2449	0.7921
2458	0.7896
2467	0.7847
2476	0.7775
2485	0.7708
2494	0.7669
2503	0.7653
2512	0.7617
2521	0.758
2530	0.7541
2539	0.7491
2548	0.7441
2557	0.7382
2566	0.7322
2575	0.7267
2584	0.7219
2593	0.7172
2602	0.714
2611	0.7114
2620	0.7103
2629	0.7094
2638	0.7085
2647	0.7081
2656	0.7085
2665	0.7089
2674	0.7088
2683	0.7086
2692	0.7076
2701	0.7051
2710	0.7006
2719	0.6936
2728	0.6843
2737	0.6745
2746	0.6725
2755	0.671
2764	0.6694
2773	0.6671
2782	0.6648
2791	0.6611
2800	0.6544
2809	0.6448
2818	0.6356
2827	0.6263
2836	0.6097
2845	0.5765
2854	0.5405
2863	0.5047
2872	0.469
2881	0.4337
2890	0.3984
2899	0.3947
2908	0.3971
2917	0.4071
2926	0.4265
2935	0.4424
2944	0.4512
2953	0.4589
2962	0.4644
2971	0.4633
2980	0.4463
2989	0.4288
2998	0.4176
3007	0.4849
3016	0.5787
3025	0.6708
3034	0.6997
3043	0.7112
3052	0.7191
3061	0.7231
3070	0.7256
3079	0.728
3088	0.7344
3097	0.7476
3106	0.7709
3115	0.78
3124	0.7878
3133	0.7944
3142	0.7995
3151	0.802
3160	0.8044
3169	0.8068
3178	0.809
3187	0.8112
3196	0.8134
3205	0.8152
3214	0.8172
3223	0.8188
3232	0.82
3241	0.8213
3250	0.8225
3259	0.8244
3268	0.827
3277	0.8291
3286	0.8305
3295	0.8319
3304	0.8333
3313	0.8344
3322	0.8356
3331	0.8367
3340	0.8379
3349	0.8391
3358	0.8404
3367	0.8418
3376	0.8432
3385	0.8447
3394	0.8478
3403	0.8513
3412	0.8546
3421	0.8578
3430	0.8588
3439	0.8597
3448	0.8604
3457	0.8609
3466	0.861
3475	0.8611
3484	0.8611
3493	0.8612
3502	0.8613
3511	0.8613
3520	0.862
3529	0.8627
3538	0.8634
3547	0.8641
3556	0.8647
3565	0.8663
3574	0.8696
3583	0.8728
3592	0.874
3601	0.8742
3610	0.8745
3619	0.8748
3628	0.8748
3637	0.8747
3646	0.8747
3655	0.8747
3664	0.8746
3673	0.8746
3682	0.8739
3691	0.8743
3700	0.8741
3709	0.874
3718	0.8739
3727	0.8737
3736	0.8736
3745	0.8734
3754	0.8733
3763	0.8732
3772	0.8731
3781	0.8731
3790	0.873
3799	0.8729
3808	0.8728
3817	0.8727
3826	0.8725
3835	0.8722
3844	0.872
3853	0.8717
3862	0.8715
3871	0.8712
3880	0.871
3889	0.8707
3898	0.87
3907	0.8692
3916	0.8684
3925	0.8676
3934	0.8668
3943	0.8661
3952	0.8655
3961	0.8649
3970	0.8644
3979	0.8639
3988	0.8633
3997	0.8627
