Infrared Spectrum: 2-(2,2,4-TRIMETHYLPENTOXY)-3,6-DIMETHYL PYRAZINE
Formula: C14 H24 N2 O
CAS: 116660-26-5
State: LIQUID
Class: COBLENTZ
Instrument: Not specified, most likely a prism, grating, or hybrid spectrometer.
Sampling: TRANSMISSION
Path length: 0.0015 CM
Resolution: 4
Origin: WYANDOTTE CHEMICALS CORP., WYANDOTTE, MICHIGAN, USA
MICROMETERS	TRANSMITTANCE
2.02	0.991
2.06094	0.991
2.10188	0.987
2.14281	0.979
2.18375	0.933
2.22469	0.907
2.26563	0.919
2.30657	0.936
2.34751	0.934
2.38844	0.943
2.42938	0.951
2.47032	0.95
2.51126	0.958
2.5522	0.969
2.59314	0.984
2.63407	0.994
2.67501	0.998
2.71595	0.982
2.75689	0.982
2.79783	0.955
2.83877	0.924
2.8797	0.903
2.92064	0.9
2.96158	0.89
3.00252	0.885
3.04346	0.886
3.08439	0.876
3.12533	0.862
3.16627	0.85
3.20721	0.845
3.24815	0.785
3.28909	0.629
3.33002	0.296
3.37096	0.049
3.4119	0.065
3.45284	0.09
3.49378	0.147
3.53472	0.468
3.57565	0.699
3.61659	0.813
3.65753	0.811
3.69847	0.799
3.73941	0.867
3.78035	0.879
3.82128	0.881
3.86222	0.902
3.90316	0.885
3.9441	0.881
3.98504	0.905
4.02597	0.91
4.06691	0.91
4.10785	0.874
4.14879	0.873
4.18973	0.89
4.23067	0.895
4.2716	0.883
4.31254	0.9
4.35348	0.919
4.39442	0.95
4.43536	0.933
4.4763	0.936
4.51723	0.943
4.55817	0.951
4.59911	0.95
4.64005	0.941
4.68099	0.939
4.72193	0.945
4.76286	0.939
4.8038	0.946
4.84474	0.95
4.88568	0.936
4.92662	0.939
4.96755	0.943
5.00849	0.941
5.04943	0.933
5.09037	0.933
5.13131	0.939
5.17225	0.936
5.21318	0.95
5.25412	0.943
5.29506	0.934
5.336	0.938
5.37694	0.939
5.41788	0.95
5.45881	0.95
5.49975	0.95
5.54069	0.945
5.58163	0.927
5.62257	0.922
5.6635	0.926
5.70444	0.89
5.74538	0.847
5.78632	0.85
5.82726	0.871
5.8682	0.867
5.90913	0.873
5.95007	0.854
5.99101	0.825
6.03195	0.801
6.07289	0.783
6.11383	0.806
6.15476	0.799
6.1957	0.782
6.23664	0.644
6.27758	0.363
6.31852	0.554
6.35946	0.524
6.40039	0.259
6.44133	0.089
6.48227	0.269
6.52321	0.49
6.56415	0.581
6.60508	0.61
6.64602	0.572
6.68696	0.391
6.7279	0.245
6.76884	0.145
6.80978	0.06
6.85071	0.063
6.89165	0.049
6.93259	0.054
6.97353	0.078
7.01447	0.113
7.05541	0.051
7.09634	0.048
7.13728	0.09
7.17822	0.092
7.21916	0.049
7.2601	0.053
7.30104	0.063
7.34197	0.082
7.38291	0.053
7.42385	0.051
7.46479	0.061
7.50573	0.144
7.54666	0.404
7.5876	0.543
7.62854	0.499
7.66948	0.295
7.71042	0.094
7.75136	0.073
7.79229	0.243
7.83323	0.385
7.87417	0.487
7.91511	0.614
7.95605	0.667
7.99699	0.701
8.03792	0.674
8.07886	0.567
8.1198	0.5
8.16074	0.598
8.20168	0.584
8.24262	0.471
8.28355	0.384
8.32449	0.473
8.36543	0.427
8.40637	0.231
8.44731	0.054
8.48824	0.053
8.52918	0.049
8.57012	0.049
8.61106	0.068
8.652	0.198
8.69294	0.397
8.73387	0.566
8.77481	0.662
8.81575	0.727
8.85669	0.754
8.89763	0.749
8.93857	0.734
8.9795	0.716
9.02044	0.708
9.06138	0.713
9.10232	0.694
9.14326	0.668
9.1842	0.675
9.22513	0.674
9.26607	0.689
9.30701	0.699
9.34795	0.708
9.38889	0.723
9.42982	0.713
9.47076	0.699
9.5117	0.648
9.55264	0.555
9.59358	0.351
9.63452	0.106
9.67545	0.053
9.71639	0.085
9.75733	0.14
9.79827	0.142
9.83921	0.145
9.88015	0.169
9.92108	0.229
9.96202	0.226
10.003	0.274
10.0439	0.325
10.0848	0.31
10.1258	0.283
10.1667	0.339
10.2077	0.44
10.2486	0.463
10.2895	0.433
10.3305	0.435
10.3714	0.451
10.4123	0.528
10.4533	0.566
10.4942	0.519
10.5352	0.444
10.5761	0.473
10.617	0.56
10.658	0.612
10.6989	0.656
10.7398	0.679
10.7808	0.67
10.8217	0.607
10.8627	0.6
10.9036	0.626
10.9445	0.68
10.9855	0.728
11.0264	0.747
11.0674	0.732
11.1083	0.701
11.1492	0.704
11.1902	0.722
11.2311	0.723
11.272	0.711
11.313	0.668
11.3539	0.605
11.3949	0.526
11.4358	0.411
11.4767	0.358
11.5177	0.475
11.5586	0.586
11.5996	0.65
11.6405	0.691
11.6814	0.73
11.7224	0.766
11.7633	0.792
11.8042	0.813
11.8452	0.825
11.8861	0.825
11.9271	0.819
11.968	0.799
12.0089	0.797
12.0499	0.802
12.0908	0.801
12.1317	0.804
12.1727	0.814
12.2136	0.823
12.2546	0.83
12.2955	0.838
12.3364	0.843
12.3774	0.849
12.4183	0.842
12.4593	0.835
12.5002	0.809
12.5411	0.794
12.5821	0.797
12.623	0.809
12.6639	0.821
12.7049	0.833
12.7458	0.859
12.7868	0.867
12.8277	0.871
12.8686	0.876
12.9096	0.873
12.9505	0.864
12.9915	0.852
13.0324	0.773
13.0733	0.708
13.1143	0.711
13.1552	0.73
13.1961	0.751
13.2371	0.692
13.278	0.643
13.319	0.658
13.3599	0.747
13.4008	0.821
13.4418	0.85
13.4827	0.874
13.5237	0.878
13.5646	0.89
13.6055	0.891
13.6465	0.891
13.6874	0.898
13.7283	0.883
13.7693	0.869
13.8102	0.835
13.8512	0.787
13.8921	0.749
13.933	0.775
13.974	0.823
14.0149	0.854
14.0558	0.864
14.0968	0.867
14.1377	0.864
14.1787	0.864
14.2196	0.871
14.2605	0.883
14.3015	0.888
14.3424	0.898
14.3834	0.895
14.4243	0.888
14.4652	0.873
14.5062	0.862
14.5471	0.826
14.588	0.819
14.629	0.828
14.6699	0.849
14.7109	0.867
14.7518	0.874
14.7927	0.876
14.8337	0.878
14.8746	0.878
14.9156	0.878
14.9565	0.873
14.9974	0.847
15.0384	0.802
15.0793	0.789
15.1202	0.797
15.1612	0.821
15.2021	0.835
15.2431	0.84
15.284	0.83
15.3249	0.831
15.3659	0.823
15.4068	0.819
15.4477	0.811
15.4887	0.807
15.5296	0.804
15.5706	0.797
15.6115	0.789
15.6524	0.783
15.6934	0.78
15.7343	0.761
15.7753	0.753
15.8162	0.746
15.8571	0.728
15.8981	0.711
15.939	0.692
