Infrared Spectrum: 2-(P-PHENYLPHENOXY)-3-METHYL PYRAZINE
Formula: C17 H14 N2 O
CAS: 116660-44-7
State: SOLID (MINERAL OIL MULL)
Melting point: 75-76 C
Class: COBLENTZ
Instrument: Not specified, most likely a prism, grating, or hybrid spectrometer.
Sampling: TRANSMISSION
Resolution: 4
Origin: WYANDOTTE CHEMICALS CORP., WYANDOTTE, MICHIGAN, USA
MICROMETERS	TRANSMITTANCE
2.02	0.266
2.05983	0.262
2.09966	0.262
2.13949	0.275
2.17931	0.278
2.21914	0.273
2.25897	0.275
2.2988	0.278
2.33863	0.288
2.37846	0.288
2.41828	0.286
2.45811	0.295
2.49794	0.301
2.53777	0.308
2.5776	0.32
2.61743	0.316
2.65726	0.328
2.69708	0.331
2.73691	0.33
2.77674	0.336
2.81657	0.331
2.8564	0.334
2.89623	0.334
2.93606	0.331
2.97588	0.331
3.01571	0.334
3.05554	0.341
3.09537	0.341
3.1352	0.343
3.17503	0.341
3.21485	0.339
3.25468	0.298
3.29451	0.255
3.33434	0.195
3.37417	0.036
3.414	0.028
3.45383	0.049
3.49365	0.056
3.53348	0.197
3.57331	0.426
3.61314	0.489
3.65297	0.497
3.6928	0.497
3.73263	0.499
3.77245	0.507
3.81228	0.519
3.85211	0.52
3.89194	0.527
3.93177	0.54
3.9716	0.55
4.01142	0.558
4.05125	0.563
4.09108	0.567
4.13091	0.57
4.17074	0.577
4.21057	0.582
4.2504	0.57
4.29022	0.567
4.33005	0.582
4.36988	0.613
4.40971	0.633
4.44954	0.621
4.48937	0.63
4.52919	0.633
4.56902	0.648
4.60885	0.66
4.64868	0.668
4.68851	0.674
4.72834	0.679
4.76817	0.689
4.80799	0.693
4.84782	0.703
4.88765	0.713
4.92748	0.718
4.96731	0.714
5.00714	0.726
5.04697	0.731
5.08679	0.728
5.12662	0.734
5.16645	0.721
5.20628	0.736
5.24611	0.749
5.28594	0.741
5.32576	0.752
5.36559	0.776
5.40542	0.802
5.44525	0.804
5.48508	0.794
5.52491	0.809
5.56474	0.814
5.60456	0.799
5.64439	0.786
5.68422	0.82
5.72405	0.825
5.76388	0.834
5.80371	0.835
5.84354	0.845
5.88336	0.849
5.92319	0.825
5.96302	0.844
6.00285	0.864
6.04268	0.865
6.08251	0.885
6.12233	0.892
6.16216	0.877
6.20199	0.623
6.24182	0.669
6.28165	0.628
6.32148	0.742
6.36131	0.802
6.40113	0.864
6.44096	0.686
6.48079	0.33
6.52062	0.509
6.56045	0.341
6.60028	0.333
6.6401	0.573
6.67993	0.391
6.71976	0.129
6.75959	0.202
6.79942	0.145
6.83925	0.17
6.87908	0.257
6.9189	0.291
6.95873	0.293
6.99856	0.328
7.03839	0.215
7.07822	0.092
7.11805	0.114
7.15788	0.331
7.1977	0.354
7.23753	0.21
7.27736	0.359
7.31719	0.593
7.35702	0.736
7.39685	0.772
7.43667	0.771
7.4765	0.699
7.51633	0.671
7.55616	0.747
7.59599	0.693
7.63582	0.507
7.67565	0.24
7.71547	0.079
7.7553	0.112
7.79513	0.223
7.83496	0.497
7.87479	0.66
7.91462	0.462
7.95445	0.059
7.99427	0.099
8.0341	0.291
8.07393	0.441
8.11376	0.58
8.15359	0.446
8.19342	0.165
8.23324	0.091
8.27307	0.199
8.3129	0.296
8.35273	0.369
8.39256	0.422
8.43239	0.225
8.47222	0.207
8.51204	0.281
8.55187	0.235
8.5917	0.305
8.63153	0.396
8.67136	0.52
8.71119	0.505
8.75101	0.47
8.79084	0.587
8.83067	0.63
8.8705	0.64
8.91033	0.63
8.95016	0.611
8.98999	0.648
9.02981	0.63
9.06964	0.716
9.10947	0.737
9.1493	0.741
9.18913	0.741
9.22896	0.661
9.26879	0.678
9.30861	0.744
9.34844	0.761
9.38827	0.767
9.4281	0.767
9.46793	0.761
9.50776	0.741
9.54758	0.699
9.58741	0.615
9.62724	0.577
9.66707	0.598
9.7069	0.648
9.74673	0.728
9.78656	0.733
9.82638	0.739
9.86621	0.538
9.90604	0.359
9.94587	0.404
9.9857	0.645
10.0255	0.674
10.0654	0.721
10.1052	0.766
10.145	0.787
10.1848	0.799
10.2247	0.799
10.2645	0.792
10.3043	0.751
10.3442	0.723
10.384	0.713
10.4238	0.736
10.4636	0.749
10.5035	0.764
10.5433	0.744
10.5831	0.776
10.623	0.809
10.6628	0.83
10.7026	0.83
10.7424	0.839
10.7823	0.847
10.8221	0.844
10.8619	0.777
10.9018	0.771
10.9416	0.81
10.9814	0.835
11.0212	0.847
11.0611	0.882
11.1009	0.898
11.1407	0.898
11.1806	0.902
11.2204	0.902
11.2602	0.902
11.3	0.897
11.3399	0.893
11.3797	0.89
11.4195	0.87
11.4594	0.8
11.4992	0.618
11.539	0.567
11.5788	0.514
11.6187	0.484
11.6585	0.343
11.6983	0.263
11.7382	0.308
11.778	0.608
11.8178	0.701
11.8576	0.666
11.8975	0.61
11.9373	0.716
11.9771	0.737
12.017	0.711
12.0568	0.719
12.0966	0.683
12.1364	0.638
12.1763	0.711
12.2161	0.796
12.2559	0.859
12.2958	0.882
12.3356	0.897
12.3754	0.91
12.4152	0.925
12.4551	0.93
12.4949	0.932
12.5347	0.933
12.5745	0.938
12.6144	0.935
12.6542	0.932
12.694	0.923
12.7339	0.918
12.7737	0.898
12.8135	0.877
12.8533	0.807
12.8932	0.691
12.933	0.452
12.9728	0.278
13.0127	0.33
13.0525	0.273
13.0923	0.29
13.1321	0.618
13.172	0.784
13.2118	0.849
13.2516	0.852
13.2915	0.809
13.3313	0.679
13.3711	0.668
13.4109	0.774
13.4508	0.756
13.4906	0.61
13.5304	0.484
13.5703	0.462
13.6101	0.568
13.6499	0.59
13.6897	0.494
13.7296	0.482
13.7694	0.723
13.8092	0.839
13.8491	0.877
13.8889	0.885
13.9287	0.9
13.9685	0.925
14.0084	0.928
14.0482	0.927
14.088	0.907
14.1279	0.878
14.1677	0.825
14.2075	0.714
14.2473	0.59
14.2872	0.5
14.327	0.482
14.3668	0.529
14.4067	0.512
14.4465	0.477
14.4863	0.441
14.5261	0.484
14.566	0.636
14.6058	0.762
14.6456	0.83
14.6855	0.868
14.7253	0.88
14.7651	0.887
14.8049	0.888
14.8448	0.883
14.8846	0.88
14.9244	0.885
14.9643	0.882
15.0041	0.844
15.0439	0.8
15.0837	0.802
15.1236	0.847
15.1634	0.878
15.2032	0.877
15.2431	0.864
15.2829	0.852
15.3227	0.827
15.3625	0.809
15.4024	0.797
15.4422	0.782
15.482	0.767
15.5219	0.759
15.5617	0.751
15.6015	0.739
15.6413	0.729
15.6812	0.714
15.721	0.699
15.7608	0.681
15.8007	0.663
15.8405	0.651
15.8803	0.63
15.9201	0.623
15.96	0.61
15.9998	0.593
