Infrared Spectrum: 2-(p-DODECYLPHENOXY) PYRAZINE
Formula: C22 H32 N2 O
CAS: 116660-31-2
State: LIQUID
Class: COBLENTZ
Instrument: Not specified, most likely a prism, grating, or hybrid spectrometer.
Sampling: TRANSMISSION
Path length: CAPILLARY
Resolution: 4
Origin: WYANDOTTE CHEMICALS CORP., WYANDOTTE, MICHIGAN, USA
MICROMETERS	TRANSMITTANCE
2.02	0.972
2.06094	0.957
2.10188	0.962
2.14282	0.933
2.18375	0.881
2.22469	0.883
2.26563	0.898
2.30657	0.909
2.34751	0.881
2.38845	0.924
2.42938	0.917
2.47032	0.929
2.51126	0.934
2.5522	0.96
2.59314	0.952
2.63408	0.958
2.67501	0.945
2.71595	0.953
2.75689	0.948
2.79783	0.919
2.83877	0.902
2.87971	0.89
2.92064	0.883
2.96158	0.88
3.00252	0.869
3.04346	0.851
3.0844	0.833
3.12534	0.809
3.16627	0.799
3.20721	0.715
3.24815	0.445
3.28909	0.59
3.33003	0.131
3.37097	0.065
3.4119	0.106
3.45284	0.166
3.49378	0.251
3.53472	0.655
3.57566	0.78
3.6166	0.797
3.65753	0.785
3.69847	0.82
3.73941	0.851
3.78035	0.851
3.82129	0.847
3.86223	0.851
3.90316	0.859
3.9441	0.876
3.98504	0.886
4.02598	0.875
4.06692	0.868
4.10786	0.866
4.14879	0.866
4.18973	0.866
4.23067	0.857
4.27161	0.875
4.31255	0.88
4.35349	0.9
4.39442	0.888
4.43536	0.895
4.4763	0.909
4.51724	0.912
4.55818	0.916
4.59912	0.91
4.64005	0.905
4.68099	0.897
4.72193	0.902
4.76287	0.898
4.80381	0.893
4.84475	0.886
4.88568	0.869
4.92662	0.885
4.96756	0.883
5.0085	0.883
5.04944	0.888
5.09038	0.885
5.13131	0.881
5.17225	0.883
5.21319	0.873
5.25413	0.839
5.29507	0.792
5.33601	0.842
5.37694	0.878
5.41788	0.892
5.45882	0.886
5.49976	0.876
5.5407	0.852
5.58164	0.849
5.62257	0.825
5.66351	0.801
5.70445	0.811
5.74539	0.804
5.78633	0.726
5.82727	0.756
5.8682	0.792
5.90914	0.784
5.95008	0.772
5.99102	0.741
6.03196	0.75
6.0729	0.755
6.11383	0.731
6.15477	0.628
6.19571	0.563
6.23665	0.501
6.27759	0.397
6.31853	0.563
6.35946	0.607
6.4004	0.523
6.44134	0.354
6.48228	0.169
6.52322	0.28
6.56416	0.183
6.6051	0.08
6.64603	0.229
6.68697	0.352
6.72791	0.291
6.76885	0.109
6.80979	0.136
6.85073	0.196
6.89166	0.267
6.9326	0.272
6.97354	0.267
7.01448	0.268
7.05542	0.125
7.09636	0.034
7.13729	0.041
7.17823	0.118
7.21917	0.148
7.26011	0.15
7.30105	0.25
7.34199	0.388
7.38292	0.452
7.42386	0.429
7.4648	0.385
7.50574	0.354
7.54668	0.32
7.58762	0.275
7.62855	0.167
7.66949	0.089
7.71043	0.085
7.75137	0.07
7.79231	0.046
7.83325	0.089
7.87418	0.135
7.91512	0.15
7.95606	0.159
7.997	0.171
8.03794	0.344
8.07888	0.339
8.11981	0.273
8.16075	0.178
8.20169	0.111
8.24263	0.099
8.28357	0.2
8.32451	0.345
8.36544	0.332
8.40638	0.181
8.44732	0.167
8.48826	0.104
8.5292	0.085
8.57014	0.226
8.61107	0.344
8.65201	0.256
8.69295	0.253
8.73389	0.38
8.77483	0.51
8.81577	0.57
8.8567	0.589
8.89764	0.541
8.93858	0.496
8.97952	0.491
9.02046	0.544
9.0614	0.566
9.10233	0.587
9.14327	0.592
9.18421	0.618
9.22515	0.628
9.26609	0.645
9.30703	0.659
9.34796	0.631
9.3889	0.565
9.42984	0.501
9.47078	0.595
9.51172	0.626
9.55266	0.616
9.59359	0.585
9.63453	0.518
9.67547	0.506
9.71641	0.542
9.75735	0.539
9.79829	0.345
9.83922	0.202
9.88016	0.272
9.9211	0.217
9.96204	0.467
10.003	0.607
10.0439	0.66
10.0849	0.688
10.1258	0.679
10.1667	0.654
10.2077	0.611
10.2486	0.626
10.2895	0.63
10.3305	0.648
10.3714	0.643
10.4124	0.636
10.4533	0.648
10.4942	0.684
10.5352	0.7
10.5761	0.719
10.6171	0.717
10.658	0.702
10.6989	0.707
10.7399	0.707
10.7808	0.712
10.8217	0.708
10.8627	0.698
10.9036	0.667
10.9446	0.647
10.9855	0.64
11.0264	0.57
11.0674	0.501
11.1083	0.546
11.1493	0.563
11.1902	0.474
11.2311	0.398
11.2721	0.364
11.313	0.474
11.3539	0.594
11.3949	0.64
11.4358	0.636
11.4768	0.618
11.5177	0.578
11.5586	0.527
11.5996	0.476
11.6405	0.419
11.6815	0.386
11.7224	0.332
11.7633	0.289
11.8043	0.238
11.8452	0.207
11.8861	0.188
11.9271	0.169
11.968	0.162
12.009	0.195
12.0499	0.246
12.0908	0.315
12.1318	0.4
12.1727	0.458
12.2136	0.501
12.2546	0.544
12.2955	0.58
12.3365	0.611
12.3774	0.647
12.4183	0.666
12.4593	0.655
12.5002	0.655
12.5412	0.681
12.5821	0.696
12.623	0.71
12.664	0.717
12.7049	0.708
12.7458	0.683
12.7868	0.681
12.8277	0.669
12.8687	0.679
12.9096	0.683
12.9505	0.696
12.9915	0.707
13.0324	0.72
13.0734	0.727
13.1143	0.727
13.1552	0.726
13.1962	0.714
13.2371	0.695
13.278	0.66
13.319	0.63
13.3599	0.64
13.4009	0.662
13.4418	0.683
13.4827	0.696
13.5237	0.703
13.5646	0.71
13.6056	0.722
13.6465	0.731
13.6874	0.719
13.7284	0.714
13.7693	0.71
13.8102	0.732
13.8512	0.751
13.8921	0.767
13.9331	0.784
13.974	0.797
14.0149	0.808
14.0559	0.82
14.0968	0.825
14.1378	0.83
14.1787	0.83
14.2196	0.828
14.2606	0.827
14.3015	0.821
14.3424	0.82
14.3834	0.815
14.4243	0.803
14.4653	0.797
14.5062	0.787
14.5471	0.777
14.5881	0.775
14.629	0.761
14.6699	0.758
14.7109	0.75
14.7518	0.753
14.7928	0.758
14.8337	0.761
14.8746	0.763
14.9156	0.763
14.9565	0.748
14.9975	0.726
15.0384	0.696
15.0793	0.7
15.1203	0.729
15.1612	0.741
15.2021	0.739
15.2431	0.727
15.284	0.72
15.325	0.719
15.3659	0.715
15.4068	0.71
15.4478	0.71
15.4887	0.7
15.5297	0.698
15.5706	0.693
15.6115	0.686
15.6525	0.69
15.6934	0.683
15.7343	0.678
15.7753	0.667
15.8162	0.657
15.8572	0.66
15.8981	0.652
15.939	0.648
15.98	0.64
