Infrared Spectrum: LACTIC ACID, BUTYL ESTER, ACRYLATE
Formula: C10 H16 O4
CAS: 116660-51-6
State: LIQUID (NEAT)
Class: COBLENTZ III
Instrument: BAIRD NaCl PRISM
Sampling: TRANSMISSION
Path length: 0.0015 CM
Resolution: 4
Origin: WYANDOTTE CHEMICALS CORP.
MICROMETERS	TRANSMITTANCE
2.011	0.996
2.05017	0.988
2.08934	0.992
2.12851	0.992
2.16768	0.988
2.20685	0.982
2.24602	0.984
2.28518	0.98
2.32435	0.977
2.36352	0.976
2.40269	0.98
2.44186	0.985
2.48103	0.99
2.5202	0.991
2.55937	0.988
2.59854	0.988
2.63771	0.992
2.67688	0.99
2.71605	0.985
2.75521	0.972
2.79438	0.94
2.83355	0.924
2.87272	0.911
2.91189	0.905
2.95106	0.913
2.99023	0.918
3.0294	0.916
3.06857	0.913
3.10774	0.91
3.14691	0.9
3.18608	0.901
3.22524	0.873
3.26441	0.856
3.30358	0.779
3.34275	0.41
3.38192	0.279
3.42109	0.489
3.46026	0.562
3.49943	0.619
3.5386	0.82
3.57777	0.868
3.61694	0.883
3.65611	0.894
3.69528	0.901
3.73444	0.908
3.77361	0.918
3.81278	0.923
3.85195	0.926
3.89112	0.929
3.93029	0.931
3.96946	0.929
4.00863	0.927
4.0478	0.924
4.08697	0.917
4.12614	0.924
4.16531	0.924
4.20447	0.926
4.24364	0.924
4.28281	0.937
4.32198	0.95
4.36115	0.961
4.40032	0.954
4.43949	0.956
4.47866	0.96
4.51783	0.963
4.557	0.958
4.59617	0.959
4.63534	0.964
4.6745	0.963
4.71367	0.96
4.75284	0.963
4.79201	0.96
4.83118	0.955
4.87035	0.95
4.90952	0.942
4.94869	0.947
4.98786	0.965
5.02703	0.961
5.0662	0.955
5.10537	0.95
5.14454	0.929
5.1837	0.928
5.22287	0.929
5.26204	0.943
5.30121	0.942
5.34038	0.94
5.37955	0.938
5.41872	0.927
5.45789	0.916
5.49706	0.896
5.53623	0.854
5.5754	0.808
5.61457	0.704
5.65373	0.4
5.6929	0.027
5.73207	0.04
5.77124	0.029
5.81041	0.403
5.84958	0.605
5.88875	0.685
5.92792	0.752
5.96709	0.772
6.00626	0.753
6.04543	0.666
6.0846	0.627
6.12376	0.628
6.16293	0.783
6.2021	0.852
6.24127	0.869
6.28044	0.884
6.31961	0.888
6.35878	0.899
6.39795	0.897
6.43712	0.901
6.47629	0.894
6.51546	0.878
6.55463	0.84
6.59379	0.838
6.63296	0.838
6.67213	0.81
6.7113	0.731
6.75047	0.581
6.78964	0.4
6.82881	0.405
6.86798	0.503
6.90715	0.653
6.94632	0.694
6.98549	0.71
7.02466	0.544
7.06383	0.156
7.10299	0.27
7.14216	0.498
7.18133	0.538
7.2205	0.53
7.25967	0.594
7.29884	0.654
7.33801	0.546
7.37718	0.498
7.41635	0.554
7.45552	0.601
7.49469	0.597
7.53386	0.541
7.57302	0.402
7.61219	0.321
7.65136	0.357
7.69053	0.3
7.7297	0.211
7.76887	0.249
7.80804	0.159
7.84721	0.126
7.88638	0.126
7.92555	0.182
7.96472	0.281
8.00389	0.334
8.04305	0.319
8.08222	0.311
8.12139	0.279
8.16056	0.209
8.19973	0.119
8.2389	0.072
8.27807	0.057
8.31724	0.052
8.35641	0.034
8.39558	0.023
8.43475	0.023
8.47392	0.031
8.51309	0.138
8.55225	0.334
8.59142	0.471
8.63059	0.509
8.66976	0.527
8.70893	0.504
8.7481	0.329
8.78727	0.166
8.82644	0.168
8.86561	0.269
8.90478	0.275
8.94395	0.239
8.98312	0.168
9.02228	0.081
9.06145	0.056
9.10062	0.082
9.13979	0.157
9.17896	0.269
9.21813	0.372
9.2573	0.42
9.29647	0.402
9.33564	0.339
9.37481	0.289
9.41398	0.261
9.45315	0.303
9.49231	0.351
9.53148	0.356
9.57065	0.428
9.60982	0.505
9.64899	0.535
9.68816	0.526
9.72733	0.532
9.7665	0.605
9.80567	0.646
9.84484	0.681
9.88401	0.713
9.92318	0.719
9.96235	0.683
10.0015	0.619
10.0407	0.532
10.0799	0.426
10.119	0.355
10.1582	0.334
10.1974	0.384
10.2365	0.448
10.2757	0.448
10.3149	0.439
10.354	0.439
10.3932	0.474
10.4324	0.544
10.4715	0.619
10.5107	0.643
10.5499	0.617
10.5891	0.6
10.6282	0.654
10.6674	0.708
10.7066	0.733
10.7457	0.75
10.7849	0.757
10.8241	0.776
10.8632	0.798
10.9024	0.816
10.9416	0.84
10.9807	0.851
11.0199	0.849
11.0591	0.842
11.0983	0.83
11.1374	0.827
11.1766	0.814
11.2158	0.803
11.2549	0.79
11.2941	0.787
11.3333	0.771
11.3724	0.773
11.4116	0.779
11.4508	0.795
11.4899	0.805
11.5291	0.816
11.5683	0.821
11.6075	0.825
11.6466	0.817
11.6858	0.817
11.725	0.82
11.7641	0.82
11.8033	0.82
11.8425	0.811
11.8816	0.794
11.9208	0.794
11.96	0.804
11.9991	0.82
12.0383	0.825
12.0775	0.826
12.1167	0.824
12.1558	0.817
12.195	0.806
12.2342	0.763
12.2733	0.674
12.3125	0.531
12.3517	0.356
12.3908	0.281
12.43	0.372
12.4692	0.542
12.5083	0.706
12.5475	0.784
12.5867	0.817
12.6258	0.84
12.665	0.846
12.7042	0.867
12.7434	0.872
12.7825	0.873
12.8217	0.883
12.8609	0.884
12.9	0.881
12.9392	0.874
12.9784	0.872
13.0175	0.863
13.0567	0.858
13.0959	0.846
13.135	0.821
13.1742	0.806
13.2134	0.799
13.2526	0.783
13.2917	0.777
13.3309	0.782
13.3701	0.794
13.4092	0.806
13.4484	0.81
13.4876	0.806
13.5267	0.804
13.5659	0.809
13.6051	0.825
13.6442	0.852
13.6834	0.87
13.7226	0.879
13.7618	0.886
13.8009	0.891
13.8401	0.897
13.8793	0.891
13.9184	0.886
13.9576	0.884
13.9968	0.888
14.0359	0.885
14.0751	0.881
14.1143	0.88
14.1534	0.879
14.1926	0.873
14.2318	0.875
14.271	0.867
14.3101	0.869
14.3493	0.863
14.3885	0.856
14.4276	0.853
14.4668	0.849
14.506	0.846
14.5451	0.842
14.5843	0.838
14.6235	0.833
14.6626	0.826
14.7018	0.82
14.741	0.809
14.7802	0.8
14.8193	0.783
14.8585	0.776
14.8977	0.774
14.9368	0.781
14.976	0.788
15.0152	0.781
15.0543	0.782
15.0935	0.799
15.1327	0.806
15.1718	0.811
15.211	0.81
15.2502	0.805
15.2894	0.804
15.3285	0.804
15.3677	0.801
15.4069	0.795
15.446	0.797
15.4852	0.789
15.5244	0.789
15.5635	0.787
15.6027	0.785
15.6419	0.782
15.681	0.777
15.7202	0.766
15.7594	0.766
15.7986	0.766
15.8377	0.762
15.8769	0.757
15.9161	0.757
15.9552	0.753
15.9944	0.755
