Infrared Spectrum: 2-N-n-BUTYLANILINO-3-METHYL PYRAZINE
Formula: C15 H19 N3
CAS: 116660-45-8
State: LIQUID
Class: COBLENTZ
Instrument: Not specified, most likely a prism, grating, or hybrid spectrometer.
Sampling: TRANSMISSION
Path length: 0.0015 CM
Resolution: 4
Origin: WYANDOTTE CHEMICALS CORP., WYANDOTTE, MICHIGAN, USA
MICROMETERS	TRANSMITTANCE
2.007	0.993
2.04793	0.991
2.08887	0.984
2.1298	0.991
2.17074	0.97
2.21167	0.952
2.25261	0.946
2.29354	0.95
2.33448	0.962
2.37541	0.936
2.41635	0.938
2.45728	0.965
2.49821	0.95
2.53915	0.962
2.58008	0.977
2.62102	0.996
2.66195	0.982
2.70289	0.965
2.74382	0.96
2.78476	0.946
2.82569	0.917
2.86663	0.897
2.90756	0.773
2.9485	0.707
2.98943	0.643
3.03036	0.549
3.0713	0.578
3.11223	0.63
3.15317	0.66
3.1941	0.635
3.23504	0.532
3.27597	0.272
3.31691	0.46
3.35784	0.22
3.39878	0.133
3.43971	0.275
3.48064	0.287
3.52158	0.494
3.56251	0.743
3.60345	0.773
3.64438	0.801
3.68532	0.816
3.72625	0.871
3.76719	0.871
3.80812	0.88
3.84906	0.89
3.88999	0.893
3.93092	0.898
3.97186	0.898
4.01279	0.897
4.05373	0.904
4.09466	0.893
4.1356	0.892
4.17653	0.871
4.21747	0.859
4.2584	0.868
4.29934	0.888
4.34027	0.892
4.3812	0.914
4.42214	0.934
4.46307	0.917
4.50401	0.938
4.54494	0.941
4.58588	0.945
4.62681	0.952
4.66775	0.94
4.70868	0.94
4.74962	0.948
4.79055	0.948
4.83149	0.948
4.87242	0.943
4.91335	0.943
4.95429	0.95
4.99522	0.953
5.03616	0.952
5.07709	0.938
5.11803	0.933
5.15896	0.9
5.1999	0.859
5.24083	0.88
5.28177	0.909
5.3227	0.886
5.36363	0.88
5.40457	0.898
5.4455	0.9
5.48644	0.917
5.52737	0.912
5.56831	0.871
5.60924	0.83
5.65018	0.816
5.69111	0.833
5.73205	0.806
5.77298	0.761
5.81391	0.696
5.85485	0.683
5.89578	0.714
5.93672	0.712
5.97765	0.672
6.01859	0.635
6.05952	0.621
6.10046	0.565
6.14139	0.405
6.18233	0.191
6.22326	0.061
6.2642	0.167
6.30513	0.118
6.34606	0.191
6.387	0.253
6.42793	0.227
6.46887	0.16
6.5098	0.041
6.55074	0.041
6.59167	0.046
6.63261	0.046
6.67354	0.042
6.71448	0.08
6.75541	0.087
6.79634	0.051
6.83728	0.059
6.87821	0.058
6.91915	0.046
6.96008	0.051
7.00102	0.047
7.04195	0.046
7.08289	0.042
7.12382	0.068
7.16476	0.102
7.20569	0.078
7.24662	0.051
7.28756	0.061
7.32849	0.131
7.36943	0.227
7.41036	0.261
7.4513	0.253
7.49223	0.28
7.53317	0.339
7.5741	0.297
7.61504	0.203
7.65597	0.178
7.69691	0.176
7.73784	0.25
7.77877	0.26
7.81971	0.279
7.86064	0.332
7.90158	0.333
7.94251	0.176
7.98345	0.101
8.02438	0.155
8.06532	0.244
8.10625	0.282
8.14719	0.263
8.18812	0.169
8.22905	0.107
8.26999	0.123
8.31092	0.15
8.35186	0.125
8.39279	0.09
8.43373	0.172
8.47466	0.244
8.5156	0.215
8.55653	0.292
8.59747	0.364
8.6384	0.243
8.67933	0.188
8.72027	0.174
8.7612	0.147
8.80214	0.16
8.84307	0.349
8.88401	0.467
8.92494	0.551
8.96588	0.515
9.00681	0.518
9.04775	0.604
9.08868	0.643
9.12961	0.614
9.17055	0.539
9.21148	0.445
9.25242	0.424
9.29335	0.416
9.33429	0.404
9.37522	0.518
9.41616	0.592
9.45709	0.611
9.49803	0.63
9.53896	0.631
9.5799	0.638
9.62083	0.566
9.66176	0.458
9.7027	0.366
9.74363	0.397
9.78457	0.525
9.8255	0.625
9.86644	0.604
9.90737	0.458
9.94831	0.464
9.98924	0.517
10.0302	0.544
10.0711	0.604
10.112	0.607
10.153	0.539
10.1939	0.426
10.2348	0.344
10.2758	0.366
10.3167	0.455
10.3577	0.486
10.3986	0.465
10.4395	0.44
10.4805	0.457
10.5214	0.544
10.5623	0.628
10.6033	0.671
10.6442	0.708
10.6851	0.727
10.7261	0.731
10.767	0.736
10.8079	0.75
10.8489	0.767
10.8898	0.78
10.9307	0.779
10.9717	0.741
11.0126	0.707
11.0535	0.667
11.0945	0.619
11.1354	0.595
11.1763	0.59
11.2173	0.619
11.2582	0.678
11.2991	0.75
11.3401	0.784
11.381	0.797
11.422	0.794
11.4629	0.799
11.5038	0.796
11.5448	0.791
11.5857	0.779
11.6266	0.75
11.6676	0.719
11.7085	0.654
11.7494	0.582
11.7904	0.505
11.8313	0.412
11.8722	0.339
11.9132	0.299
11.9541	0.277
11.995	0.28
12.036	0.309
12.0769	0.364
12.1178	0.431
12.1588	0.523
12.1997	0.614
12.2406	0.678
12.2816	0.714
12.3225	0.734
12.3634	0.739
12.4044	0.722
12.4453	0.696
12.4862	0.7
12.5272	0.693
12.5681	0.698
12.6091	0.708
12.65	0.719
12.6909	0.724
12.7319	0.708
12.7728	0.669
12.8137	0.625
12.8547	0.573
12.8956	0.517
12.9365	0.452
12.9775	0.424
13.0184	0.395
13.0593	0.354
13.1003	0.318
13.1412	0.297
13.1821	0.287
13.2231	0.263
13.264	0.222
13.3049	0.178
13.3459	0.14
13.3868	0.126
13.4277	0.133
13.4687	0.154
13.5096	0.195
13.5505	0.26
13.5915	0.325
13.6324	0.385
13.6734	0.44
13.7143	0.467
13.7552	0.481
13.7962	0.529
13.8371	0.602
13.878	0.64
13.919	0.664
13.9599	0.671
14.0008	0.664
14.0418	0.638
14.0827	0.595
14.1236	0.498
14.1646	0.393
14.2055	0.273
14.2464	0.21
14.2874	0.16
14.3283	0.164
14.3692	0.171
14.4102	0.186
14.4511	0.208
14.492	0.208
14.533	0.219
14.5739	0.25
14.6148	0.328
14.6558	0.424
14.6967	0.546
14.7377	0.63
14.7786	0.667
14.8195	0.688
14.8605	0.7
14.9014	0.712
14.9423	0.719
14.9833	0.717
15.0242	0.707
15.0651	0.683
15.1061	0.666
15.147	0.65
15.1879	0.669
15.2289	0.678
15.2698	0.683
15.3107	0.695
15.3517	0.698
15.3926	0.695
15.4335	0.688
15.4745	0.698
15.5154	0.678
15.5563	0.678
15.5973	0.671
15.6382	0.664
15.6791	0.647
15.7201	0.648
15.761	0.636
15.8019	0.64
15.8429	0.638
15.8838	0.625
15.9248	0.628
15.9657	0.618
