Infrared Spectrum: 2-PHENOXY-3-(p-PHENOXY BENZYL) PYRAZINE
Formula: C23 H18 N2 O2
CAS: 116659-45-1
State: LIQUID
Class: COBLENTZ
Instrument: Not specified, most likely a prism, grating, or hybrid spectrometer.
Sampling: TRANSMISSION
Path length: CAPILLARY
Resolution: 4
Origin: WYANDOTTE CHEMICALS CORP., WYANDOTTE, MICHIGAN, USA
MICROMETERS	TRANSMITTANCE
2.041	0.975
2.08198	0.97
2.12295	0.981
2.16393	0.982
2.20491	0.972
2.24588	0.972
2.28686	0.974
2.32784	0.969
2.36881	0.957
2.40979	0.965
2.45077	0.967
2.49174	0.967
2.53272	0.97
2.5737	0.975
2.61467	0.972
2.65565	0.979
2.69663	0.969
2.7376	0.963
2.77858	0.965
2.81956	0.948
2.86053	0.926
2.90151	0.921
2.94249	0.907
2.98346	0.9
3.02444	0.891
3.06542	0.891
3.10639	0.89
3.14737	0.879
3.18835	0.879
3.22932	0.794
3.2703	0.677
3.31128	0.838
3.35225	0.838
3.39323	0.814
3.43421	0.854
3.47518	0.874
3.51616	0.885
3.55714	0.91
3.59811	0.917
3.63909	0.915
3.68007	0.914
3.72104	0.922
3.76202	0.924
3.80299	0.931
3.84397	0.922
3.88495	0.922
3.92592	0.926
3.9669	0.924
4.00788	0.921
4.04885	0.91
4.08983	0.907
4.13081	0.898
4.17178	0.9
4.21276	0.897
4.25374	0.898
4.29471	0.914
4.33569	0.933
4.37667	0.931
4.41764	0.931
4.45862	0.929
4.4996	0.934
4.54057	0.936
4.58155	0.931
4.62253	0.933
4.6635	0.936
4.70448	0.933
4.74546	0.933
4.78643	0.934
4.82741	0.927
4.86839	0.919
4.90936	0.914
4.95034	0.909
4.99132	0.909
5.03229	0.91
5.07327	0.902
5.11425	0.907
5.15522	0.898
5.1962	0.883
5.23718	0.893
5.27815	0.898
5.31913	0.893
5.36011	0.888
5.40108	0.891
5.44206	0.893
5.48304	0.91
5.52401	0.907
5.56499	0.893
5.60597	0.876
5.64694	0.878
5.68792	0.89
5.7289	0.881
5.76987	0.854
5.81085	0.843
5.85183	0.84
5.8928	0.837
5.93378	0.83
5.97476	0.819
6.01573	0.802
6.05671	0.802
6.09769	0.783
6.13866	0.696
6.17964	0.521
6.22062	0.24
6.26159	0.217
6.30257	0.493
6.34355	0.639
6.38452	0.71
6.4255	0.643
6.46648	0.449
6.50745	0.536
6.54843	0.615
6.58941	0.452
6.63038	0.303
6.67136	0.053
6.71234	0.188
6.75331	0.437
6.79429	0.425
6.83527	0.337
6.87624	0.356
6.91722	0.461
6.9582	0.511
6.99917	0.502
7.04015	0.341
7.08112	0.144
7.1221	0.085
7.16308	0.233
7.20405	0.416
7.24503	0.339
7.28601	0.259
7.32698	0.416
7.36796	0.538
7.40894	0.62
7.44991	0.603
7.49089	0.523
7.53187	0.492
7.57284	0.442
7.61382	0.416
7.6548	0.408
7.69577	0.365
7.73675	0.307
7.77773	0.269
7.8187	0.3
7.85968	0.356
7.90066	0.344
7.94163	0.231
7.98261	0.099
8.02359	0.061
8.06456	0.061
8.10554	0.089
8.14652	0.14
8.18749	0.135
8.22847	0.084
8.26945	0.126
8.31042	0.169
8.3514	0.152
8.39238	0.207
8.43335	0.298
8.47433	0.365
8.51531	0.257
8.55628	0.154
8.59726	0.248
8.63824	0.389
8.67921	0.518
8.72019	0.6
8.76117	0.643
8.80214	0.703
8.84312	0.722
8.8841	0.687
8.92507	0.62
8.96605	0.627
9.00703	0.718
9.048	0.735
9.08898	0.742
9.12996	0.753
9.17093	0.759
9.21191	0.74
9.25289	0.687
9.29386	0.603
9.33484	0.631
9.37582	0.761
9.41679	0.795
9.45777	0.806
9.49875	0.806
9.53972	0.802
9.5807	0.799
9.62168	0.79
9.66265	0.773
9.70363	0.704
9.74461	0.584
9.78558	0.583
9.82656	0.655
9.86754	0.668
9.90851	0.698
9.94949	0.706
9.99047	0.751
10.0314	0.766
10.0724	0.756
10.1134	0.747
10.1544	0.742
10.1953	0.747
10.2363	0.753
10.2773	0.759
10.3183	0.751
10.3593	0.73
10.4002	0.708
10.4412	0.684
10.4822	0.692
10.5232	0.732
10.5641	0.77
10.6051	0.783
10.6461	0.785
10.6871	0.766
10.728	0.787
10.769	0.795
10.81	0.785
10.851	0.742
10.892	0.696
10.9329	0.68
10.9739	0.656
11.0149	0.634
11.0559	0.632
11.0968	0.636
11.1378	0.643
11.1788	0.653
11.2198	0.667
11.2607	0.651
11.3017	0.634
11.3427	0.631
11.3837	0.629
11.4246	0.612
11.4656	0.514
11.5066	0.471
11.5476	0.542
11.5886	0.61
11.6295	0.631
11.6705	0.627
11.7115	0.619
11.7525	0.602
11.7934	0.591
11.8344	0.586
11.8754	0.588
11.9164	0.59
11.9573	0.586
11.9983	0.567
12.0393	0.566
12.0803	0.578
12.1212	0.595
12.1622	0.596
12.2032	0.591
12.2442	0.591
12.2852	0.603
12.3261	0.61
12.3671	0.612
12.4081	0.612
12.4491	0.619
12.49	0.636
12.531	0.636
12.572	0.643
12.613	0.634
12.6539	0.626
12.6949	0.603
12.7359	0.588
12.7769	0.576
12.8179	0.569
12.8588	0.571
12.8998	0.567
12.9408	0.557
12.9818	0.557
13.0227	0.536
13.0637	0.509
13.1047	0.461
13.1457	0.416
13.1866	0.38
13.2276	0.379
13.2686	0.387
13.3096	0.403
13.3505	0.403
13.3915	0.382
13.4325	0.358
13.4735	0.348
13.5145	0.379
13.5554	0.428
13.5964	0.506
13.6374	0.578
13.6784	0.624
13.7193	0.658
13.7603	0.691
13.8013	0.711
13.8423	0.737
13.8832	0.751
13.9242	0.766
13.9652	0.775
14.0062	0.782
14.0472	0.782
14.0881	0.78
14.1291	0.77
14.1701	0.749
14.2111	0.727
14.252	0.696
14.293	0.655
14.334	0.598
14.375	0.523
14.4159	0.442
14.4569	0.365
14.4979	0.325
14.5389	0.291
14.5798	0.319
14.6208	0.425
14.6618	0.528
14.7028	0.638
14.7438	0.713
14.7847	0.747
14.8257	0.77
14.8667	0.782
14.9077	0.785
14.9486	0.792
14.9896	0.785
15.0306	0.766
15.0716	0.765
15.1125	0.782
15.1535	0.804
15.1945	0.801
15.2355	0.795
15.2765	0.792
15.3174	0.79
15.3584	0.785
15.3994	0.785
15.4404	0.783
15.4813	0.782
15.5223	0.782
15.5633	0.78
15.6043	0.773
15.6452	0.77
15.6862	0.771
15.7272	0.765
15.7682	0.761
15.8091	0.751
15.8501	0.747
15.8911	0.742
15.9321	0.742
15.9731	0.739
