Infrared Spectrum: TRIBUTYLMETHYL PYRAZINE
Formula: C17 H30 N2
CAS: 116660-18-5
State: LIQUID
Class: COBLENTZ
Instrument: Not specified, most likely a prism, grating, or hybrid spectrometer.
Sampling: TRANSMISSION
Path length: 0.0015 CM
Resolution: 4
Origin: WYANDOTTE CHEMICALS CORP., WYANDOTTE, MICHIGAN, USA
MICROMETERS	TRANSMITTANCE
2.02	0.97
2.06088	0.982
2.10175	0.996
2.14263	0.982
2.18351	0.952
2.22438	0.914
2.26526	0.928
2.30614	0.929
2.34701	0.933
2.38789	0.933
2.42877	0.943
2.46964	0.948
2.51052	0.969
2.55139	0.964
2.59227	0.964
2.63315	0.969
2.67402	0.97
2.7149	0.969
2.75578	0.967
2.79665	0.96
2.83753	0.943
2.87841	0.914
2.91928	0.88
2.96016	0.811
3.00104	0.743
3.04191	0.712
3.08279	0.711
3.12367	0.711
3.16454	0.711
3.20542	0.712
3.2463	0.649
3.28717	0.558
3.32805	0.331
3.36892	0.027
3.4098	0.03
3.45068	0.049
3.49155	0.049
3.53243	0.312
3.57331	0.603
3.61418	0.712
3.65506	0.736
3.69594	0.753
3.73681	0.774
3.77769	0.803
3.81857	0.83
3.85944	0.841
3.90032	0.851
3.9412	0.859
3.98207	0.873
4.02295	0.88
4.06383	0.883
4.1047	0.882
4.14558	0.883
4.18645	0.88
4.22733	0.873
4.26821	0.878
4.30908	0.899
4.34996	0.912
4.39084	0.914
4.43171	0.904
4.47259	0.904
4.51347	0.9
4.55434	0.9
4.59522	0.899
4.6361	0.911
4.67697	0.914
4.71785	0.914
4.75873	0.919
4.7996	0.916
4.84048	0.919
4.88136	0.919
4.92223	0.919
4.96311	0.911
5.00398	0.914
5.04486	0.917
5.08574	0.912
5.12661	0.912
5.16749	0.911
5.20837	0.911
5.24924	0.902
5.29012	0.912
5.331	0.909
5.37187	0.9
5.41275	0.9
5.45363	0.899
5.4945	0.892
5.53538	0.888
5.57626	0.88
5.61713	0.858
5.65801	0.823
5.69889	0.789
5.73976	0.723
5.78064	0.608
5.82151	0.478
5.86239	0.444
5.90327	0.401
5.94414	0.288
5.98502	0.283
6.0259	0.377
6.06677	0.452
6.10765	0.504
6.14853	0.509
6.1894	0.473
6.23028	0.4
6.27116	0.283
6.31203	0.135
6.35291	0.223
6.39379	0.403
6.43466	0.434
6.47554	0.34
6.51642	0.164
6.55729	0.232
6.59817	0.251
6.63904	0.143
6.67992	0.117
6.7208	0.208
6.76167	0.128
6.80255	0.041
6.84343	0.068
6.8843	0.128
6.92518	0.164
6.96606	0.198
7.00693	0.27
7.04781	0.333
7.08869	0.297
7.12956	0.302
7.17044	0.331
7.21132	0.208
7.25219	0.123
7.29307	0.182
7.33395	0.242
7.37482	0.294
7.4157	0.323
7.45657	0.338
7.49745	0.389
7.53833	0.423
7.5792	0.406
7.62008	0.358
7.66096	0.348
7.70183	0.343
7.74271	0.389
7.78359	0.441
7.82446	0.466
7.86534	0.476
7.90622	0.423
7.94709	0.429
7.98797	0.456
8.02885	0.444
8.06972	0.403
8.1106	0.398
8.15148	0.42
8.19235	0.393
8.23323	0.429
8.2741	0.49
8.31498	0.483
8.35586	0.429
8.39673	0.391
8.43761	0.352
8.47849	0.345
8.51936	0.358
8.56024	0.364
8.60112	0.362
8.64199	0.391
8.68287	0.413
8.72375	0.434
8.76462	0.499
8.8055	0.56
8.84638	0.574
8.88725	0.531
8.92813	0.432
8.96901	0.372
9.00988	0.362
9.05076	0.382
9.09163	0.444
9.13251	0.494
9.17339	0.517
9.21426	0.528
9.25514	0.55
9.29602	0.558
9.33689	0.57
9.37777	0.574
9.41865	0.579
9.45952	0.588
9.5004	0.608
9.54128	0.634
9.58215	0.639
9.62303	0.622
9.66391	0.593
9.70478	0.622
9.74566	0.634
9.78654	0.639
9.82741	0.61
9.86829	0.644
9.90916	0.663
9.95004	0.652
9.99092	0.639
10.0318	0.623
10.0727	0.673
10.1135	0.688
10.1544	0.697
10.1953	0.692
10.2362	0.688
10.2771	0.68
10.3179	0.673
10.3588	0.659
10.3997	0.658
10.4406	0.664
10.4814	0.668
10.5223	0.664
10.5632	0.652
10.6041	0.634
10.6449	0.611
10.6858	0.596
10.7267	0.594
10.7676	0.601
10.8084	0.613
10.8493	0.652
10.8902	0.688
10.9311	0.697
10.972	0.697
11.0128	0.688
11.0537	0.668
11.0946	0.661
11.1355	0.659
11.1763	0.661
11.2172	0.67
11.2581	0.678
11.299	0.69
11.3398	0.695
11.3807	0.7
11.4216	0.707
11.4625	0.716
11.5033	0.717
11.5442	0.7
11.5851	0.697
11.626	0.697
11.6669	0.709
11.7077	0.719
11.7486	0.717
11.7895	0.719
11.8304	0.707
11.8712	0.69
11.9121	0.695
11.953	0.717
11.9939	0.729
12.0347	0.736
12.0756	0.741
12.1165	0.733
12.1574	0.721
12.1982	0.712
12.2391	0.7
12.28	0.69
12.3209	0.685
12.3618	0.673
12.4026	0.663
12.4435	0.661
12.4844	0.656
12.5253	0.652
12.5661	0.647
12.607	0.63
12.6479	0.627
12.6888	0.649
12.7296	0.659
12.7705	0.652
12.8114	0.649
12.8523	0.652
12.8931	0.658
12.934	0.652
12.9749	0.663
13.0158	0.656
13.0567	0.641
13.0975	0.629
13.1384	0.613
13.1793	0.61
13.2202	0.601
13.261	0.594
13.3019	0.581
13.3428	0.57
13.3837	0.567
13.4245	0.555
13.4654	0.552
13.5063	0.543
13.5472	0.533
13.5881	0.531
13.6289	0.512
13.6698	0.497
13.7107	0.487
13.7516	0.507
13.7924	0.552
13.8333	0.606
13.8742	0.641
13.9151	0.663
13.9559	0.682
13.9968	0.695
14.0377	0.699
14.0786	0.711
14.1194	0.709
14.1603	0.712
14.2012	0.717
14.2421	0.717
14.283	0.712
14.3238	0.716
14.3647	0.711
14.4056	0.711
14.4465	0.711
14.4873	0.702
14.5282	0.709
14.5691	0.707
14.61	0.7
14.6508	0.699
14.6917	0.699
14.7326	0.697
14.7735	0.687
14.8143	0.69
14.8552	0.687
14.8961	0.687
14.937	0.688
14.9779	0.683
15.0187	0.651
15.0596	0.634
15.1005	0.639
15.1414	0.661
15.1822	0.664
15.2231	0.661
15.264	0.659
15.3049	0.656
15.3457	0.647
15.3866	0.642
15.4275	0.639
15.4684	0.641
15.5092	0.63
15.5501	0.63
15.591	0.629
15.6319	0.623
15.6728	0.622
15.7136	0.617
15.7545	0.613
15.7954	0.606
15.8363	0.601
15.8771	0.6
15.918	0.591
15.9589	0.589
