Infrared Spectrum: 2-(p-NONYLPHENOXY)-3-n-PENTYL PYRAZINE
Formula: C24 H36 N2 O
CAS: 116659-79-1
State: LIQUID
Class: COBLENTZ
Instrument: Not specified, most likely a prism, grating, or hybrid spectrometer.
Sampling: TRANSMISSION
Path length: 0.0015 CM
Resolution: 4
Origin: WYANDOTTE CHEMICALS CORP., WYANDOTTE, MICHIGAN, USA
MICROMETERS	TRANSMITTANCE
2	0.977
2.04091	0.967
2.08183	0.972
2.12274	0.96
2.16366	0.939
2.20457	0.9
2.24549	0.907
2.2864	0.91
2.32732	0.919
2.36823	0.907
2.40915	0.922
2.45006	0.927
2.49098	0.936
2.53189	0.929
2.57281	0.945
2.61372	0.945
2.65464	0.948
2.69555	0.931
2.73647	0.924
2.77738	0.903
2.8183	0.883
2.85921	0.86
2.90013	0.852
2.94104	0.848
2.98196	0.835
3.02287	0.829
3.06379	0.835
3.1047	0.829
3.14562	0.823
3.18653	0.819
3.22745	0.759
3.26836	0.513
3.30927	0.572
3.35019	0.156
3.3911	0.049
3.43202	0.065
3.47293	0.121
3.51385	0.164
3.55476	0.694
3.59568	0.802
3.63659	0.824
3.67751	0.812
3.71842	0.85
3.75934	0.853
3.80025	0.872
3.84117	0.871
3.88208	0.872
3.923	0.893
3.96391	0.9
4.00483	0.908
4.04574	0.902
4.08666	0.895
4.12757	0.888
4.16849	0.893
4.2094	0.891
4.25032	0.886
4.29123	0.927
4.33215	0.936
4.37306	0.943
4.41398	0.919
4.45489	0.919
4.49581	0.919
4.53672	0.919
4.57764	0.92
4.61855	0.919
4.65946	0.917
4.70038	0.917
4.74129	0.92
4.78221	0.922
4.82312	0.917
4.86404	0.914
4.90495	0.908
4.94587	0.912
4.98678	0.902
5.0277	0.919
5.06861	0.917
5.10953	0.917
5.15044	0.92
5.19136	0.927
5.23227	0.919
5.27319	0.905
5.3141	0.853
5.35502	0.898
5.39593	0.926
5.43685	0.924
5.47776	0.924
5.51868	0.926
5.55959	0.917
5.60051	0.902
5.64142	0.896
5.68234	0.89
5.72325	0.908
5.76417	0.893
5.80508	0.89
5.846	0.864
5.88691	0.86
5.92783	0.847
5.96874	0.817
6.00965	0.776
6.05057	0.78
6.09148	0.764
6.1324	0.738
6.17331	0.621
6.21423	0.652
6.25514	0.625
6.29606	0.597
6.33697	0.647
6.37789	0.687
6.4188	0.613
6.45972	0.432
6.50063	0.297
6.54155	0.462
6.58246	0.221
6.62338	0.08
6.66429	0.353
6.70521	0.503
6.74612	0.388
6.78704	0.135
6.82795	0.147
6.86887	0.214
6.90978	0.333
6.9507	0.424
6.99161	0.412
7.03253	0.249
7.07344	0.067
7.11436	0.044
7.15527	0.056
7.19619	0.139
7.2371	0.132
7.27801	0.139
7.31893	0.128
7.35984	0.134
7.40076	0.132
7.44167	0.221
7.48259	0.319
7.5235	0.395
7.56442	0.362
7.60533	0.262
7.64625	0.207
7.68716	0.163
7.72808	0.106
7.76899	0.101
7.80991	0.097
7.85082	0.101
7.89174	0.163
7.93265	0.266
7.97357	0.36
8.01448	0.393
8.0554	0.39
8.09631	0.304
8.13723	0.204
8.17814	0.125
8.21906	0.053
8.25997	0.068
8.30089	0.176
8.3418	0.348
8.38272	0.41
8.42363	0.336
8.46455	0.14
8.50546	0.051
8.54638	0.06
8.58729	0.178
8.6282	0.329
8.66912	0.35
8.71003	0.408
8.75095	0.493
8.79186	0.558
8.83278	0.623
8.87369	0.596
8.91461	0.512
8.95552	0.463
8.99644	0.529
9.03735	0.597
9.07827	0.529
9.11918	0.5
9.1601	0.56
9.20101	0.601
9.24193	0.62
9.28284	0.649
9.32376	0.675
9.36467	0.711
9.40559	0.718
9.4465	0.745
9.48742	0.762
9.52833	0.783
9.56925	0.769
9.61016	0.79
9.65108	0.785
9.69199	0.776
9.73291	0.75
9.77382	0.685
9.81474	0.39
9.85565	0.285
9.89656	0.451
9.93748	0.58
9.97839	0.704
10.0193	0.754
10.0602	0.792
10.1011	0.816
10.1421	0.816
10.183	0.821
10.2239	0.81
10.2648	0.798
10.3057	0.781
10.3466	0.769
10.3875	0.752
10.4285	0.757
10.4694	0.766
10.5103	0.773
10.5512	0.774
10.5921	0.79
10.633	0.776
10.6739	0.754
10.7149	0.743
10.7558	0.74
10.7967	0.735
10.8376	0.762
10.8785	0.766
10.9194	0.745
10.9604	0.704
11.0013	0.658
11.0422	0.604
11.0831	0.556
11.124	0.534
11.1649	0.603
11.2058	0.668
11.2468	0.723
11.2877	0.745
11.3286	0.75
11.3695	0.742
11.4104	0.725
11.4513	0.69
11.4922	0.644
11.5332	0.616
11.5741	0.621
11.615	0.611
11.6559	0.567
11.6968	0.47
11.7377	0.369
11.7786	0.286
11.8196	0.259
11.8605	0.231
11.9014	0.233
11.9423	0.252
11.9832	0.297
12.0241	0.357
12.0651	0.424
12.106	0.494
12.1469	0.565
12.1878	0.604
12.2287	0.642
12.2696	0.663
12.3105	0.682
12.3515	0.694
12.3924	0.713
12.4333	0.721
12.4742	0.75
12.5151	0.766
12.556	0.778
12.5969	0.793
12.6379	0.795
12.6788	0.797
12.7197	0.776
12.7606	0.766
12.8015	0.754
12.8424	0.754
12.8833	0.761
12.9243	0.774
12.9652	0.773
13.0061	0.776
13.047	0.769
13.0879	0.761
13.1288	0.749
13.1698	0.752
13.2107	0.761
13.2516	0.774
13.2925	0.776
13.3334	0.774
13.3743	0.773
13.4152	0.766
13.4562	0.756
13.4971	0.752
13.538	0.738
13.5789	0.737
13.6198	0.718
13.6607	0.716
13.7016	0.713
13.7426	0.728
13.7835	0.747
13.8244	0.78
13.8653	0.795
13.9062	0.814
13.9471	0.826
13.988	0.841
14.029	0.85
14.0699	0.864
14.1108	0.871
14.1517	0.876
14.1926	0.884
14.2335	0.886
14.2745	0.891
14.3154	0.883
14.3563	0.89
14.3972	0.878
14.4381	0.89
14.479	0.881
14.5199	0.879
14.5609	0.867
14.6018	0.878
14.6427	0.872
14.6836	0.883
14.7245	0.878
14.7654	0.886
14.8063	0.888
14.8473	0.9
14.8882	0.895
14.9291	0.9
14.97	0.89
15.0109	0.878
15.0518	0.852
15.0928	0.826
15.1337	0.848
15.1746	0.86
15.2155	0.878
15.2564	0.881
15.2973	0.879
15.3382	0.881
15.3792	0.881
15.4201	0.879
15.461	0.872
15.5019	0.878
15.5428	0.872
15.5837	0.872
15.6246	0.876
15.6656	0.871
15.7065	0.864
15.7474	0.852
15.7883	0.857
15.8292	0.852
15.8701	0.848
15.911	0.84
15.952	0.836
