Infrared Spectrum: 2-(m-PHENOXYPHENOXY) PYRAZINE
Formula: C16 H12 N2 O2
CAS: 116659-48-4
State: LIQUID
Class: COBLENTZ
Instrument: Not specified, most likely a prism, grating, or hybrid spectrometer.
Sampling: TRANSMISSION
Path length: CAPILLARY
Resolution: 4
Origin: WYANDOTTE CHEMICALS CORP., WYANDOTTE, MICHIGAN, USA
MICROMETERS	TRANSMITTANCE
2.014	0.967
2.05493	0.965
2.09587	0.969
2.1368	0.971
2.17774	0.967
2.21867	0.96
2.25961	0.96
2.30054	0.964
2.34148	0.945
2.38241	0.94
2.42335	0.96
2.46428	0.96
2.50522	0.962
2.54615	0.969
2.58708	0.957
2.62802	0.969
2.66895	0.957
2.70989	0.95
2.75082	0.95
2.79176	0.933
2.83269	0.921
2.87363	0.904
2.91456	0.896
2.9555	0.89
2.99643	0.887
3.03737	0.882
3.0783	0.88
3.11924	0.868
3.16017	0.865
3.2011	0.807
3.24204	0.572
3.28297	0.741
3.32391	0.827
3.36484	0.819
3.40578	0.829
3.44671	0.872
3.48765	0.872
3.52858	0.902
3.56952	0.914
3.61045	0.908
3.65139	0.909
3.69232	0.919
3.73325	0.928
3.77419	0.935
3.81512	0.925
3.85606	0.919
3.89699	0.913
3.93793	0.918
3.97886	0.913
4.0198	0.918
4.06073	0.911
4.10167	0.901
4.1426	0.889
4.18354	0.87
4.22447	0.88
4.2654	0.896
4.30634	0.913
4.34727	0.925
4.38821	0.931
4.42914	0.931
4.47008	0.933
4.51101	0.93
4.55195	0.921
4.59288	0.923
4.63382	0.942
4.67475	0.938
4.71569	0.931
4.75662	0.933
4.79756	0.918
4.83849	0.921
4.87942	0.919
4.92036	0.918
4.96129	0.908
5.00223	0.906
5.04316	0.902
5.0841	0.899
5.12503	0.889
5.16597	0.872
5.2069	0.86
5.24784	0.88
5.28877	0.901
5.32971	0.89
5.37064	0.872
5.41157	0.872
5.45251	0.889
5.49344	0.897
5.53438	0.894
5.57531	0.88
5.61625	0.868
5.65718	0.868
5.69812	0.853
5.73905	0.841
5.77999	0.783
5.82092	0.814
5.86186	0.824
5.90279	0.834
5.94372	0.839
5.98466	0.819
6.02559	0.802
6.06653	0.763
6.10746	0.674
6.1484	0.373
6.18933	0.206
6.23027	0.083
6.2712	0.132
6.31214	0.373
6.35307	0.505
6.39401	0.599
6.43494	0.528
6.47588	0.173
6.51681	0.248
6.55774	0.461
6.59868	0.468
6.63961	0.252
6.68055	0.081
6.72148	0.054
6.76242	0.146
6.80335	0.236
6.84429	0.289
6.88522	0.253
6.92616	0.303
6.96709	0.33
7.00803	0.354
7.04896	0.231
7.08989	0.069
7.13083	0.081
7.17176	0.258
7.2127	0.357
7.25363	0.378
7.29457	0.599
7.3355	0.662
7.37644	0.654
7.41737	0.592
7.45831	0.507
7.49924	0.436
7.54018	0.385
7.58111	0.303
7.62204	0.199
7.66298	0.137
7.70391	0.109
7.74485	0.097
7.78578	0.083
7.82672	0.11
7.86765	0.1
7.90859	0.093
7.94952	0.073
7.99046	0.074
8.03139	0.156
8.07233	0.277
8.11326	0.356
8.1542	0.299
8.19513	0.151
8.23606	0.063
8.277	0.107
8.31793	0.299
8.35887	0.361
8.3998	0.264
8.44074	0.265
8.48167	0.293
8.52261	0.258
8.56354	0.192
8.60448	0.212
8.64541	0.238
8.68635	0.243
8.72728	0.337
8.76821	0.4
8.80915	0.243
8.85008	0.148
8.89102	0.148
8.93195	0.354
8.97289	0.57
9.01382	0.662
9.05476	0.734
9.09569	0.761
9.13663	0.758
9.17756	0.698
9.2185	0.608
9.25943	0.514
9.30036	0.47
9.3413	0.56
9.38223	0.611
9.42317	0.599
9.4641	0.678
9.50504	0.71
9.54597	0.695
9.58691	0.628
9.62784	0.548
9.66878	0.531
9.70971	0.543
9.75065	0.494
9.79158	0.553
9.83252	0.548
9.87345	0.349
9.91438	0.33
9.95532	0.458
9.99625	0.589
10.0372	0.698
10.0781	0.701
10.1191	0.678
10.16	0.606
10.2009	0.494
10.2419	0.357
10.2828	0.253
10.3237	0.207
10.3647	0.209
10.4056	0.269
10.4465	0.396
10.4875	0.504
10.5284	0.531
10.5693	0.545
10.6103	0.567
10.6512	0.608
10.6921	0.667
10.7331	0.741
10.774	0.77
10.8149	0.775
10.8559	0.766
10.8968	0.751
10.9378	0.735
10.9787	0.722
11.0196	0.706
11.0606	0.693
11.1015	0.691
11.1424	0.671
11.1834	0.633
11.2243	0.614
11.2652	0.591
11.3062	0.568
11.3471	0.543
11.388	0.521
11.429	0.492
11.4699	0.466
11.5108	0.449
11.5518	0.431
11.5927	0.424
11.6336	0.424
11.6746	0.446
11.7155	0.48
11.7564	0.507
11.7974	0.507
11.8383	0.483
11.8792	0.449
11.9202	0.436
11.9611	0.482
12.0021	0.562
12.043	0.616
12.0839	0.65
12.1249	0.669
12.1658	0.674
12.2067	0.669
12.2477	0.664
12.2886	0.674
12.3295	0.686
12.3705	0.705
12.4114	0.734
12.4523	0.735
12.4933	0.715
12.5342	0.662
12.5751	0.594
12.6161	0.516
12.657	0.446
12.6979	0.402
12.7389	0.383
12.7798	0.378
12.8207	0.378
12.8617	0.374
12.9026	0.378
12.9435	0.376
12.9845	0.385
13.0254	0.402
13.0664	0.417
13.1073	0.429
13.1482	0.431
13.1892	0.429
13.2301	0.415
13.271	0.403
13.312	0.4
13.3529	0.403
13.3938	0.427
13.4348	0.475
13.4757	0.514
13.5166	0.551
13.5576	0.58
13.5985	0.604
13.6394	0.642
13.6804	0.684
13.7213	0.725
13.7622	0.752
13.8032	0.763
13.8441	0.77
13.885	0.764
13.926	0.759
13.9669	0.761
14.0078	0.771
14.0488	0.776
14.0897	0.778
14.1307	0.783
14.1716	0.773
14.2125	0.742
14.2535	0.691
14.2944	0.62
14.3353	0.522
14.3763	0.432
14.4172	0.369
14.4581	0.33
14.4991	0.32
14.54	0.34
14.5809	0.364
14.6219	0.407
14.6628	0.444
14.7037	0.502
14.7447	0.558
14.7856	0.625
14.8265	0.674
14.8675	0.703
14.9084	0.718
14.9493	0.734
14.9903	0.741
15.0312	0.744
15.0721	0.747
15.1131	0.763
15.154	0.783
15.195	0.8
15.2359	0.804
15.2768	0.802
15.3178	0.802
15.3587	0.802
15.3996	0.802
15.4406	0.804
15.4815	0.8
15.5224	0.804
15.5634	0.804
15.6043	0.802
15.6452	0.802
15.6862	0.797
15.7271	0.792
15.768	0.781
15.809	0.776
15.8499	0.771
15.8908	0.764
15.9318	0.759
15.9727	0.756
