Infrared Spectrum: 2-ANILINO-3,6-DIMETHYL PYRAZINE
Formula: C12 H13 N3
CAS: 116659-96-2
State: SOLID (MINERAL OIL MULL)
Melting point: 88-89 C
Class: COBLENTZ
Instrument: Not specified, most likely a prism, grating, or hybrid spectrometer.
Sampling: TRANSMISSION
Resolution: 4
Origin: WYANDOTTE CHEMICALS CORP., WYANDOTTE, MICHIGAN, USA
MICROMETERS	TRANSMITTANCE
2.027	0.321
2.06792	0.321
2.10883	0.335
2.14975	0.339
2.19066	0.332
2.23158	0.332
2.27249	0.34
2.31341	0.354
2.35432	0.362
2.39524	0.362
2.43615	0.369
2.47707	0.373
2.51798	0.378
2.5589	0.386
2.59981	0.403
2.64073	0.403
2.68165	0.412
2.72256	0.415
2.76348	0.42
2.80439	0.424
2.84531	0.439
2.88622	0.442
2.92714	0.442
2.96805	0.405
3.00897	0.253
3.04988	0.231
3.0908	0.315
3.13171	0.33
3.17263	0.357
3.21355	0.313
3.25446	0.33
3.29538	0.27
3.33629	0.218
3.37721	0.068
3.41812	0.071
3.45904	0.149
3.49995	0.161
3.54087	0.35
3.58178	0.524
3.6227	0.546
3.66361	0.55
3.70453	0.548
3.74544	0.555
3.78636	0.555
3.82728	0.577
3.86819	0.579
3.90911	0.589
3.95002	0.587
3.99094	0.591
4.03185	0.613
4.07277	0.614
4.11368	0.608
4.1546	0.611
4.19551	0.626
4.23643	0.633
4.27734	0.625
4.31826	0.623
4.35917	0.625
4.40009	0.652
4.44101	0.679
4.48192	0.686
4.52284	0.705
4.56375	0.713
4.60467	0.712
4.64558	0.72
4.6865	0.725
4.72741	0.727
4.76833	0.739
4.80924	0.749
4.85016	0.752
4.89107	0.754
4.93199	0.766
4.97291	0.776
5.01382	0.778
5.05474	0.795
5.09565	0.797
5.13657	0.81
5.17748	0.81
5.2184	0.804
5.25931	0.792
5.30023	0.827
5.34114	0.833
5.38206	0.827
5.42297	0.839
5.46389	0.817
5.5048	0.841
5.54572	0.88
5.58664	0.872
5.62755	0.858
5.66847	0.856
5.70938	0.906
5.7503	0.901
5.79121	0.89
5.83213	0.826
5.87304	0.844
5.91396	0.863
5.95487	0.856
5.99579	0.853
6.0367	0.814
6.07762	0.788
6.11854	0.71
6.15945	0.434
6.20037	0.109
6.24128	0.337
6.2822	0.376
6.32311	0.425
6.36403	0.538
6.40494	0.402
6.44586	0.211
6.48677	0.148
6.52769	0.097
6.5686	0.151
6.60952	0.202
6.65043	0.114
6.69135	0.122
6.73227	0.166
6.77318	0.18
6.8141	0.122
6.85501	0.122
6.89593	0.093
6.93684	0.119
6.97776	0.151
7.01867	0.182
7.05959	0.405
7.1005	0.478
7.14142	0.337
7.18233	0.093
7.22325	0.085
7.26416	0.112
7.30508	0.163
7.346	0.33
7.38691	0.431
7.42783	0.492
7.46874	0.548
7.50966	0.592
7.55057	0.589
7.59149	0.546
7.6324	0.207
7.67332	0.19
7.71423	0.27
7.75515	0.238
7.79606	0.339
7.83698	0.499
7.8779	0.432
7.91881	0.451
7.95973	0.562
8.00064	0.614
8.04156	0.575
8.08247	0.436
8.12339	0.272
8.1643	0.405
8.20522	0.572
8.24613	0.643
8.28705	0.679
8.32796	0.674
8.36888	0.662
8.40979	0.396
8.45071	0.289
8.49163	0.33
8.53254	0.468
8.57346	0.652
8.61437	0.698
8.65529	0.541
8.6962	0.325
8.73712	0.252
8.77803	0.431
8.81895	0.57
8.85986	0.642
8.90078	0.678
8.94169	0.691
8.98261	0.7
9.02352	0.689
9.06444	0.724
9.10536	0.742
9.14627	0.742
9.18719	0.667
9.2281	0.567
9.26902	0.635
9.30993	0.689
9.35085	0.725
9.39176	0.744
9.43268	0.751
9.47359	0.756
9.51451	0.759
9.55542	0.763
9.59634	0.752
9.63726	0.693
9.67817	0.546
9.71909	0.492
9.76	0.64
9.80092	0.706
9.84183	0.724
9.88275	0.688
9.92366	0.674
9.96458	0.729
10.0055	0.71
10.0464	0.654
10.0873	0.756
10.1282	0.802
10.1692	0.807
10.2101	0.809
10.251	0.785
10.2919	0.802
10.3328	0.788
10.3737	0.788
10.4146	0.759
10.4556	0.715
10.4965	0.664
10.5374	0.654
10.5783	0.712
10.6192	0.766
10.6601	0.797
10.7011	0.809
10.742	0.817
10.7829	0.826
10.8238	0.851
10.8647	0.863
10.9056	0.868
10.9465	0.872
10.9875	0.872
11.0284	0.872
11.0693	0.879
11.1102	0.868
11.1511	0.831
11.192	0.66
11.233	0.693
11.2739	0.683
11.3148	0.744
11.3557	0.862
11.3966	0.897
11.4375	0.906
11.4784	0.908
11.5194	0.904
11.5603	0.865
11.6012	0.689
11.6421	0.591
11.683	0.718
11.7239	0.642
11.7649	0.775
11.8058	0.848
11.8467	0.816
11.8876	0.793
11.9285	0.863
11.9694	0.901
12.0103	0.902
12.0513	0.851
12.0922	0.674
12.1331	0.647
12.174	0.787
12.2149	0.846
12.2558	0.868
12.2968	0.887
12.3377	0.899
12.3786	0.894
12.4195	0.855
12.4604	0.729
12.5013	0.647
12.5422	0.71
12.5832	0.797
12.6241	0.853
12.665	0.873
12.7059	0.889
12.7468	0.897
12.7877	0.902
12.8287	0.899
12.8696	0.897
12.9105	0.896
12.9514	0.892
12.9923	0.877
13.0332	0.841
13.0741	0.78
13.1151	0.614
13.156	0.517
13.1969	0.557
13.2378	0.451
13.2787	0.282
13.3196	0.294
13.3606	0.357
13.4015	0.342
13.4424	0.258
13.4833	0.233
13.5242	0.315
13.5651	0.449
13.606	0.579
13.647	0.678
13.6879	0.739
13.7288	0.768
13.7697	0.778
13.8106	0.761
13.8515	0.717
13.8925	0.688
13.9334	0.678
13.9743	0.717
14.0152	0.764
14.0561	0.798
14.097	0.816
14.1379	0.821
14.1789	0.817
14.2198	0.807
14.2607	0.79
14.3016	0.759
14.3425	0.713
14.3834	0.652
14.4244	0.557
14.4653	0.439
14.5062	0.303
14.5471	0.257
14.588	0.323
14.6289	0.454
14.6698	0.575
14.7108	0.657
14.7517	0.703
14.7926	0.727
14.8335	0.73
14.8744	0.73
14.9153	0.727
14.9563	0.725
14.9972	0.701
15.0381	0.654
15.079	0.614
15.1199	0.645
15.1608	0.684
15.2017	0.696
15.2427	0.679
15.2836	0.667
15.3245	0.647
15.3654	0.621
15.4063	0.592
15.4472	0.565
15.4882	0.534
15.5291	0.531
15.57	0.529
15.6109	0.54
15.6518	0.536
15.6927	0.528
15.7336	0.526
15.7746	0.521
15.8155	0.511
15.8564	0.502
15.8973	0.488
