Infrared Spectrum: 2-(p-NONYLPHENOXY)-3-METHYL PYRAZINE
Formula: C20 H28 N2 O
CAS: 116660-49-2
State: LIQUID
Class: COBLENTZ
Instrument: Not specified, most likely a prism, grating, or hybrid spectrometer.
Sampling: TRANSMISSION
Path length: 0.0015 CM
Resolution: 4
Origin: WYANDOTTE CHEMICALS CORP., WYANDOTTE, MICHIGAN, USA
MICROMETERS	TRANSMITTANCE
2.034	0.964
2.07484	0.953
2.11567	0.948
2.15651	0.945
2.19734	0.94
2.23818	0.906
2.27901	0.912
2.31985	0.923
2.36068	0.924
2.40152	0.914
2.44235	0.919
2.48319	0.933
2.52402	0.935
2.56486	0.931
2.60569	0.95
2.64653	0.943
2.68736	0.953
2.7282	0.941
2.76903	0.941
2.80987	0.948
2.8507	0.943
2.89154	0.93
2.93237	0.926
2.97321	0.923
3.01404	0.909
3.05488	0.899
3.09571	0.894
3.13655	0.883
3.17738	0.868
3.21822	0.858
3.25905	0.791
3.29989	0.542
3.34072	0.588
3.38156	0.032
3.42239	0.059
3.46323	0.127
3.50406	0.182
3.5449	0.476
3.58573	0.762
3.62657	0.846
3.6674	0.86
3.70824	0.861
3.74908	0.88
3.78991	0.899
3.83075	0.892
3.87158	0.897
3.91242	0.897
3.95325	0.901
3.99409	0.907
4.03492	0.918
4.07576	0.904
4.11659	0.901
4.15743	0.892
4.19826	0.895
4.2391	0.902
4.27993	0.892
4.32077	0.885
4.3616	0.88
4.40244	0.897
4.44327	0.904
4.48411	0.914
4.52494	0.918
4.56578	0.923
4.60661	0.926
4.64745	0.921
4.68828	0.914
4.72912	0.912
4.76995	0.914
4.81079	0.921
4.85162	0.918
4.89246	0.907
4.93329	0.889
4.97413	0.89
5.01496	0.904
5.0558	0.902
5.09663	0.887
5.13747	0.904
5.1783	0.895
5.21914	0.897
5.25997	0.892
5.30081	0.866
5.34164	0.837
5.38248	0.873
5.42332	0.897
5.46415	0.901
5.50499	0.897
5.54582	0.895
5.58666	0.883
5.62749	0.873
5.66833	0.863
5.70916	0.865
5.75	0.878
5.79083	0.875
5.83167	0.872
5.8725	0.861
5.91334	0.849
5.95417	0.839
5.99501	0.82
6.03584	0.8
6.07668	0.812
6.11751	0.805
6.15835	0.776
6.19918	0.617
6.24002	0.668
6.28085	0.626
6.32169	0.65
6.36252	0.715
6.40336	0.655
6.44419	0.435
6.48503	0.271
6.52586	0.395
6.5667	0.368
6.60753	0.083
6.64837	0.112
6.6892	0.39
6.73004	0.436
6.77087	0.274
6.81171	0.158
6.85254	0.18
6.89338	0.244
6.93421	0.194
6.97505	0.163
7.01588	0.186
7.05672	0.087
7.09756	0.025
7.13839	0.023
7.17923	0.03
7.22006	0.059
7.2609	0.075
7.30173	0.204
7.34257	0.395
7.3834	0.556
7.42424	0.561
7.46507	0.537
7.50591	0.441
7.54674	0.324
7.58758	0.334
7.62841	0.208
7.66925	0.092
7.71008	0.085
7.75092	0.066
7.79175	0.046
7.83259	0.143
7.87342	0.276
7.91426	0.204
7.95509	0.192
7.99593	0.119
8.03676	0.358
8.0776	0.377
8.11843	0.262
8.15927	0.105
8.2001	0.03
8.24094	0.029
8.28177	0.122
8.32261	0.341
8.36344	0.406
8.40428	0.199
8.44511	0.071
8.48595	0.042
8.52678	0.034
8.56762	0.155
8.60845	0.402
8.64929	0.254
8.69012	0.208
8.73096	0.399
8.7718	0.575
8.81263	0.645
8.85347	0.68
8.8943	0.656
8.93514	0.576
8.97597	0.551
9.01681	0.633
9.05764	0.679
9.09848	0.667
9.13931	0.66
9.18015	0.679
9.22098	0.684
9.26182	0.672
9.30265	0.711
9.34349	0.738
9.38432	0.75
9.42516	0.761
9.46599	0.749
9.50683	0.742
9.54766	0.728
9.5885	0.696
9.62933	0.636
9.67017	0.566
9.711	0.585
9.75184	0.634
9.79267	0.593
9.83351	0.288
9.87434	0.307
9.91518	0.426
9.95601	0.629
9.99685	0.692
10.0377	0.723
10.0785	0.738
10.1194	0.735
10.1602	0.697
10.201	0.607
10.2419	0.52
10.2827	0.522
10.3235	0.604
10.3644	0.66
10.4052	0.684
10.446	0.699
10.4869	0.728
10.5277	0.759
10.5685	0.774
10.6094	0.774
10.6502	0.778
10.691	0.767
10.7319	0.767
10.7727	0.764
10.8136	0.764
10.8544	0.759
10.8952	0.762
10.9361	0.744
10.9769	0.704
11.0177	0.604
11.0586	0.46
11.0994	0.366
11.1402	0.592
11.1811	0.713
11.2219	0.75
11.2627	0.747
11.3036	0.749
11.3444	0.745
11.3852	0.744
11.4261	0.732
11.4669	0.706
11.5077	0.665
11.5486	0.614
11.5894	0.554
11.6303	0.489
11.6711	0.431
11.7119	0.358
11.7528	0.283
11.7936	0.215
11.8344	0.165
11.8753	0.15
11.9161	0.145
11.9569	0.165
11.9978	0.211
12.0386	0.283
12.0794	0.36
12.1203	0.431
12.1611	0.484
12.2019	0.522
12.2428	0.563
12.2836	0.598
12.3245	0.639
12.3653	0.684
12.4061	0.718
12.447	0.738
12.4878	0.75
12.5286	0.75
12.5695	0.732
12.6103	0.711
12.6511	0.72
12.692	0.733
12.7328	0.725
12.7736	0.708
12.8145	0.694
12.8553	0.679
12.8961	0.674
12.937	0.677
12.9778	0.703
13.0186	0.737
13.0595	0.754
13.1003	0.767
13.1412	0.771
13.182	0.769
13.2228	0.769
13.2637	0.773
13.3045	0.774
13.3453	0.771
13.3862	0.767
13.427	0.764
13.4678	0.761
13.5087	0.764
13.5495	0.773
13.5903	0.783
13.6312	0.791
13.672	0.786
13.7128	0.762
13.7537	0.744
13.7945	0.726
13.8354	0.752
13.8762	0.8
13.917	0.817
13.9579	0.837
13.9987	0.853
14.0395	0.861
14.0804	0.868
14.1212	0.88
14.162	0.878
14.2029	0.878
14.2437	0.88
14.2845	0.877
14.3254	0.878
14.3662	0.875
14.407	0.878
14.4479	0.873
14.4887	0.863
14.5295	0.866
14.5704	0.86
14.6112	0.853
14.6521	0.851
14.6929	0.846
14.7337	0.849
14.7746	0.856
14.8154	0.856
14.8562	0.858
14.8971	0.87
14.9379	0.873
14.9787	0.872
15.0196	0.858
15.0604	0.846
15.1012	0.858
15.1421	0.878
15.1829	0.887
15.2237	0.878
15.2646	0.883
15.3054	0.875
15.3462	0.868
15.3871	0.86
15.4279	0.854
15.4688	0.851
15.5096	0.839
15.5504	0.844
15.5913	0.837
15.6321	0.829
15.6729	0.817
15.7138	0.813
15.7546	0.81
15.7954	0.813
15.8363	0.812
15.8771	0.8
15.9179	0.791
15.9588	0.786
