Infrared Spectrum: 2-(P-PENTYLANILINO)-3,6-DIMETHYL PYRAZINE
Formula: C17 H23 N3
CAS: 116660-23-2
State: LIQUID (VISC.)
Class: COBLENTZ
Instrument: Not specified, most likely a prism, grating, or hybrid spectrometer.
Sampling: TRANSMISSION
Path length: CAPILLARY
Resolution: 4
Origin: WYANDOTTE CHEMICALS CORP., WYANDOTTE, MICHIGAN, USA
MICROMETERS	TRANSMITTANCE
2.027	0.955
2.06792	0.952
2.10884	0.95
2.14975	0.95
2.19067	0.923
2.23159	0.928
2.27251	0.94
2.31342	0.945
2.35434	0.941
2.39526	0.948
2.43618	0.948
2.4771	0.936
2.51801	0.941
2.55893	0.969
2.59985	0.923
2.64077	0.982
2.68169	0.955
2.7226	0.924
2.76352	0.938
2.80444	0.899
2.84536	0.858
2.88627	0.699
2.92719	0.656
2.96811	0.649
3.00903	0.608
3.04995	0.651
3.09086	0.729
3.13178	0.743
3.1727	0.791
3.21362	0.758
3.25453	0.724
3.29545	0.673
3.33637	0.287
3.37729	0.319
3.41821	0.398
3.45912	0.487
3.50004	0.652
3.54096	0.847
3.58188	0.887
3.6228	0.905
3.66371	0.905
3.70463	0.924
3.74555	0.933
3.78647	0.935
3.82738	0.945
3.8683	0.948
3.90922	0.943
3.95014	0.931
3.99106	0.941
4.03197	0.948
4.07289	0.94
4.11381	0.941
4.15473	0.941
4.19565	0.941
4.23656	0.924
4.27748	0.914
4.3184	0.938
4.35932	0.96
4.40023	0.989
4.44115	0.979
4.48207	0.984
4.52299	0.982
4.56391	0.991
4.60482	0.988
4.64574	0.988
4.68666	0.982
4.72758	0.991
4.76849	0.988
4.80941	0.986
4.85033	0.986
4.89125	0.991
4.93217	0.988
4.97308	0.993
5.014	0.998
5.05492	0.979
5.09584	0.994
5.13676	0.991
5.17767	0.989
5.21859	0.996
5.25951	0.994
5.30043	0.96
5.34134	0.969
5.38226	0.977
5.42318	0.989
5.4641	0.993
5.50502	0.996
5.54593	0.982
5.58685	0.979
5.62777	0.97
5.66869	0.965
5.7096	0.953
5.75052	0.948
5.79144	0.931
5.83236	0.921
5.87328	0.917
5.91419	0.907
5.95511	0.902
5.99603	0.876
6.03695	0.834
6.07787	0.793
6.11878	0.687
6.1597	0.321
6.20062	0.271
6.24154	0.528
6.28245	0.593
6.32337	0.699
6.36429	0.695
6.40521	0.352
6.44613	0.328
6.48704	0.235
6.52796	0.162
6.56888	0.111
6.6098	0.158
6.65071	0.266
6.69163	0.403
6.73255	0.459
6.77347	0.432
6.81439	0.348
6.8553	0.347
6.89622	0.3
6.93714	0.393
6.97806	0.495
7.01898	0.452
7.05989	0.21
7.10081	0.15
7.14173	0.292
7.18265	0.259
7.22356	0.251
7.26448	0.252
7.3054	0.411
7.34632	0.656
7.38724	0.793
7.42815	0.825
7.46907	0.835
7.50999	0.822
7.55091	0.774
7.59183	0.6
7.63274	0.466
7.67366	0.372
7.71458	0.492
7.7555	0.56
7.79641	0.67
7.83733	0.676
7.87825	0.584
7.91917	0.762
7.96009	0.805
8.001	0.76
8.04192	0.654
8.08284	0.644
8.12376	0.723
8.16467	0.789
8.20559	0.839
8.24651	0.858
8.28743	0.852
8.32835	0.777
8.36926	0.601
8.41018	0.449
8.4511	0.452
8.49202	0.709
8.53294	0.82
8.57385	0.858
8.61477	0.878
8.65569	0.789
8.69661	0.521
8.73752	0.523
8.77844	0.76
8.81936	0.859
8.86028	0.849
8.9012	0.83
8.94211	0.823
8.98303	0.817
9.02395	0.878
9.06487	0.601
9.10578	0.931
9.1467	0.902
9.18762	0.9
9.22854	0.902
9.26946	0.907
9.31037	0.907
9.35129	0.904
9.39221	0.9
9.43313	0.88
9.47405	0.882
9.51496	0.888
9.55588	0.871
9.5968	0.858
9.63772	0.842
9.67863	0.83
9.71955	0.803
9.76047	0.822
9.80139	0.832
9.84231	0.784
9.88322	0.789
9.92414	0.81
9.96506	0.859
10.006	0.885
10.0469	0.911
10.0878	0.909
10.1287	0.921
10.1696	0.923
10.2106	0.921
10.2515	0.916
10.2924	0.914
10.3333	0.899
10.3742	0.871
10.4152	0.83
10.4561	0.794
10.497	0.774
10.5379	0.803
10.5788	0.844
10.6197	0.871
10.6607	0.873
10.7016	0.882
10.7425	0.888
10.7834	0.89
10.8243	0.899
10.8653	0.899
10.9062	0.909
10.9471	0.904
10.988	0.911
11.0289	0.911
11.0698	0.919
11.1108	0.923
11.1517	0.919
11.1926	0.919
11.2335	0.914
11.2744	0.917
11.3153	0.911
11.3563	0.907
11.3972	0.902
11.4381	0.895
11.479	0.873
11.5199	0.859
11.5609	0.841
11.6018	0.818
11.6427	0.808
11.6836	0.817
11.7245	0.839
11.7654	0.856
11.8064	0.863
11.8473	0.842
11.8882	0.782
11.9291	0.683
11.97	0.581
12.011	0.531
12.0519	0.562
12.0928	0.652
12.1337	0.729
12.1746	0.774
12.2155	0.784
12.2565	0.789
12.2974	0.786
12.3383	0.781
12.3792	0.779
12.4201	0.764
12.461	0.743
12.502	0.723
12.5429	0.733
12.5838	0.782
12.6247	0.827
12.6656	0.859
12.7066	0.868
12.7475	0.851
12.7884	0.858
12.8293	0.858
12.8702	0.878
12.9111	0.899
12.9521	0.912
12.993	0.923
13.0339	0.921
13.0748	0.902
13.1157	0.876
13.1567	0.887
13.1976	0.904
13.2385	0.916
13.2794	0.917
13.3203	0.921
13.3612	0.924
13.4022	0.923
13.4431	0.914
13.484	0.917
13.5249	0.919
13.5658	0.917
13.6067	0.919
13.6477	0.9
13.6886	0.887
13.7295	0.88
13.7704	0.882
13.8113	0.885
13.8523	0.887
13.8932	0.887
13.9341	0.892
13.975	0.909
14.0159	0.914
14.0568	0.919
14.0978	0.919
14.1387	0.916
14.1796	0.907
14.2205	0.897
14.2614	0.876
14.3023	0.863
14.3433	0.859
14.3842	0.861
14.4251	0.873
14.466	0.887
14.5069	0.883
14.5479	0.89
14.5888	0.88
14.6297	0.882
14.6706	0.887
14.7115	0.887
14.7524	0.883
14.7934	0.88
14.8343	0.887
14.8752	0.878
14.9161	0.882
14.957	0.875
14.998	0.859
15.0389	0.82
15.0798	0.81
15.1207	0.829
15.1616	0.851
15.2025	0.851
15.2435	0.847
15.2844	0.839
15.3253	0.83
15.3662	0.83
15.4071	0.822
15.448	0.811
15.489	0.801
15.5299	0.805
15.5708	0.805
15.6117	0.801
15.6526	0.798
15.6936	0.788
15.7345	0.789
15.7754	0.788
15.8163	0.779
15.8572	0.776
15.8981	0.769
15.9391	0.757
15.98	0.758
