Infrared Spectrum: 2-(m-AMINOPHENOXY)-3-METHYL PYRAZINE
Formula: C11 H11 N3 O
CAS: 116659-95-1
State: SOLID (MINERAL OIL MULL)
Melting point: 95-96 C
Class: COBLENTZ
Instrument: Not specified, most likely a prism, grating, or hybrid spectrometer.
Sampling: TRANSMISSION
Resolution: 4
Origin: WYANDOTTE CHEMICALS CORP., WYANDOTTE, MICHIGAN, USA
MICROMETERS	TRANSMITTANCE
2.014	0.505
2.05491	0.513
2.09583	0.52
2.13674	0.532
2.17766	0.535
2.21857	0.532
2.25948	0.529
2.3004	0.546
2.34131	0.553
2.38223	0.551
2.42314	0.568
2.46406	0.573
2.50497	0.58
2.54588	0.601
2.5868	0.628
2.62771	0.614
2.66863	0.647
2.70954	0.642
2.75045	0.65
2.79137	0.655
2.83228	0.645
2.8732	0.647
2.91411	0.635
2.95503	0.59
2.99594	0.34
3.03685	0.375
3.07777	0.428
3.11868	0.28
3.1596	0.421
3.20051	0.501
3.24142	0.522
3.28234	0.481
3.32325	0.357
3.36417	0.049
3.40508	0.041
3.446	0.099
3.48691	0.101
3.52782	0.33
3.56874	0.679
3.60965	0.727
3.65057	0.732
3.69148	0.729
3.73239	0.744
3.77331	0.75
3.81422	0.76
3.85514	0.77
3.89605	0.779
3.93696	0.796
3.97788	0.801
4.01879	0.813
4.05971	0.811
4.10062	0.811
4.14154	0.815
4.18245	0.818
4.22336	0.82
4.26428	0.787
4.30519	0.813
4.34611	0.839
4.38702	0.881
4.42793	0.866
4.46885	0.854
4.50976	0.859
4.55068	0.869
4.59159	0.873
4.63251	0.875
4.67342	0.875
4.71433	0.876
4.75525	0.892
4.79616	0.9
4.83708	0.9
4.87799	0.9
4.9189	0.909
4.95982	0.914
5.00073	0.917
5.04165	0.924
5.08256	0.922
5.12348	0.933
5.16439	0.931
5.2053	0.94
5.24622	0.924
5.28713	0.919
5.32805	0.931
5.36896	0.941
5.40987	0.965
5.45079	0.945
5.4917	0.952
5.53262	0.965
5.57353	0.96
5.61444	0.972
5.65536	0.958
5.69627	0.969
5.73719	0.967
5.7781	0.972
5.81902	0.96
5.85993	0.94
5.90084	0.936
5.94176	0.91
5.98267	0.803
6.02359	0.625
6.0645	0.568
6.10541	0.643
6.14633	0.428
6.18724	0.241
6.22816	0.469
6.26907	0.5
6.30999	0.64
6.3509	0.767
6.39181	0.799
6.43273	0.671
6.47364	0.501
6.51456	0.602
6.55547	0.71
6.59638	0.768
6.6373	0.614
6.67821	0.289
6.71913	0.27
6.76004	0.344
6.80096	0.172
6.84187	0.239
6.88278	0.299
6.9237	0.282
6.96461	0.386
7.00553	0.453
7.04644	0.419
7.08735	0.178
7.12827	0.065
7.16918	0.095
7.2101	0.164
7.25101	0.202
7.29192	0.419
7.33284	0.566
7.37375	0.655
7.41467	0.691
7.45558	0.664
7.4965	0.498
7.53741	0.554
7.57832	0.532
7.61924	0.46
7.66015	0.41
7.70107	0.464
7.74198	0.428
7.78289	0.188
7.82381	0.253
7.86472	0.392
7.90564	0.446
7.94655	0.488
7.98747	0.71
8.02838	0.756
8.06929	0.794
8.11021	0.811
8.15112	0.801
8.19204	0.756
8.23295	0.785
8.27386	0.785
8.31478	0.736
8.35569	0.506
8.39661	0.287
8.43752	0.448
8.47844	0.405
8.51935	0.212
8.56026	0.196
8.60118	0.082
8.64209	0.224
8.68301	0.428
8.72392	0.549
8.76483	0.571
8.80575	0.369
8.84666	0.448
8.88758	0.582
8.92849	0.648
8.9694	0.69
9.01032	0.72
9.05123	0.748
9.09215	0.753
9.13306	0.765
9.17398	0.773
9.21489	0.755
9.2558	0.72
9.29672	0.738
9.33763	0.75
9.37855	0.755
9.41946	0.715
9.46037	0.763
9.50129	0.801
9.5422	0.809
9.58312	0.804
9.62403	0.784
9.66495	0.763
9.70586	0.777
9.74677	0.803
9.78769	0.815
9.8286	0.83
9.86952	0.854
9.91043	0.864
9.95134	0.851
9.99226	0.57
10.0332	0.585
10.0741	0.748
10.115	0.78
10.1559	0.792
10.1968	0.784
10.2377	0.676
10.2787	0.631
10.3196	0.672
10.3605	0.679
10.4014	0.638
10.4423	0.493
10.4832	0.493
10.5241	0.44
10.5651	0.561
10.606	0.654
10.6469	0.722
10.6878	0.758
10.7287	0.773
10.7696	0.801
10.8105	0.811
10.8515	0.825
10.8924	0.833
10.9333	0.835
10.9742	0.844
11.0151	0.845
11.056	0.844
11.0969	0.84
11.1379	0.82
11.1788	0.789
11.2197	0.717
11.2606	0.674
11.3015	0.719
11.3424	0.782
11.3833	0.816
11.4243	0.825
11.4652	0.828
11.5061	0.82
11.547	0.804
11.5879	0.792
11.6288	0.782
11.6697	0.748
11.7107	0.664
11.7516	0.51
11.7925	0.306
11.8334	0.198
11.8743	0.342
11.9152	0.566
11.9561	0.628
11.9971	0.589
12.038	0.688
12.0789	0.76
12.1198	0.78
12.1607	0.787
12.2016	0.789
12.2425	0.785
12.2835	0.773
12.3244	0.768
12.3653	0.761
12.4062	0.76
12.4471	0.744
12.488	0.736
12.5289	0.724
12.5698	0.7
12.6108	0.671
12.6517	0.65
12.6926	0.652
12.7335	0.654
12.7744	0.643
12.8153	0.625
12.8562	0.601
12.8972	0.556
12.9381	0.539
12.979	0.573
13.0199	0.565
13.0608	0.5
13.1017	0.506
13.1426	0.551
13.1836	0.57
13.2245	0.578
13.2654	0.58
13.3063	0.583
13.3472	0.59
13.3881	0.58
13.429	0.532
13.47	0.508
13.5109	0.508
13.5518	0.523
13.5927	0.535
13.6336	0.549
13.6745	0.563
13.7154	0.571
13.7564	0.578
13.7973	0.583
13.8382	0.589
13.8791	0.595
13.92	0.602
13.9609	0.618
14.0018	0.63
14.0428	0.638
14.0837	0.647
14.1246	0.657
14.1655	0.669
14.2064	0.672
14.2473	0.678
14.2882	0.686
14.3292	0.69
14.3701	0.69
14.411	0.681
14.4519	0.664
14.4928	0.642
14.5337	0.609
14.5746	0.558
14.6156	0.503
14.6565	0.489
14.6974	0.518
14.7383	0.577
14.7792	0.609
14.8201	0.64
14.861	0.657
14.902	0.662
14.9429	0.678
14.9838	0.671
15.0247	0.648
15.0656	0.631
15.1065	0.643
15.1474	0.669
15.1884	0.678
15.2293	0.678
15.2702	0.66
15.3111	0.648
15.352	0.645
15.3929	0.631
15.4338	0.63
15.4748	0.631
15.5157	0.63
15.5566	0.633
15.5975	0.635
15.6384	0.631
15.6793	0.626
15.7202	0.621
15.7612	0.614
15.8021	0.607
15.843	0.597
15.8839	0.595
15.9248	0.582
15.9657	0.578
