Infrared Spectrum: 3-(P-PHENYLPHENOXY)-2,5-DIMETHYL PYRAZINE
Formula: C18 H16 N2 O
CAS: 116660-20-9
State: SOLID (MINERAL OIL MULL)
Melting point: 89.5-90.5 C
Class: COBLENTZ
Instrument: Not specified, most likely a prism, grating, or hybrid spectrometer.
Sampling: TRANSMISSION
Resolution: 4
Origin: WYANDOTTE CHEMICALS CORP., WYANDOTTE, MICHIGAN, USA
MICROMETERS	TRANSMITTANCE
2.04	0.54
2.07979	0.552
2.11958	0.558
2.15937	0.57
2.19917	0.573
2.23896	0.578
2.27875	0.588
2.31854	0.593
2.35833	0.598
2.39812	0.601
2.43792	0.611
2.47771	0.621
2.5175	0.63
2.55729	0.638
2.59708	0.641
2.63687	0.651
2.67666	0.656
2.71646	0.658
2.75625	0.655
2.79604	0.65
2.83583	0.638
2.87562	0.633
2.91541	0.633
2.95521	0.631
2.995	0.635
3.03479	0.641
3.07458	0.648
3.11437	0.651
3.15416	0.653
3.19395	0.656
3.23375	0.635
3.27354	0.577
3.31333	0.5
3.35312	0.208
3.39291	0.059
3.4327	0.094
3.4725	0.192
3.51229	0.172
3.55208	0.701
3.59187	0.787
3.63166	0.796
3.67145	0.787
3.71124	0.799
3.75104	0.805
3.79083	0.815
3.83062	0.822
3.87041	0.83
3.9102	0.844
3.94999	0.849
3.98979	0.854
4.02958	0.857
4.06937	0.865
4.10916	0.86
4.14895	0.864
4.18874	0.864
4.22853	0.854
4.26833	0.839
4.30812	0.852
4.34791	0.877
4.3877	0.903
4.42749	0.892
4.46728	0.9
4.50708	0.905
4.54687	0.908
4.58666	0.91
4.62645	0.912
4.66624	0.918
4.70603	0.92
4.74582	0.927
4.78562	0.927
4.82541	0.93
4.8652	0.93
4.90499	0.93
4.94478	0.932
4.98457	0.93
5.02437	0.932
5.06416	0.935
5.10395	0.935
5.14374	0.933
5.18353	0.933
5.22332	0.94
5.26312	0.945
5.30291	0.91
5.3427	0.928
5.38249	0.953
5.42228	0.965
5.46207	0.965
5.50186	0.958
5.54166	0.955
5.58145	0.945
5.62124	0.951
5.66103	0.953
5.70082	0.94
5.74061	0.938
5.78041	0.943
5.8202	0.943
5.85999	0.93
5.89978	0.918
5.93957	0.908
5.97936	0.883
6.01915	0.86
6.05895	0.883
6.09874	0.883
6.13853	0.878
6.17832	0.756
6.21811	0.729
6.2579	0.779
6.2977	0.84
6.33749	0.892
6.37728	0.908
6.41707	0.865
6.45686	0.777
6.49665	0.698
6.53644	0.54
6.57624	0.703
6.61603	0.791
6.65582	0.527
6.69561	0.381
6.7354	0.53
6.77519	0.199
6.81499	0.203
6.85478	0.19
6.89457	0.182
6.93436	0.374
6.97415	0.606
7.01394	0.703
7.05373	0.729
7.09353	0.628
7.13332	0.696
7.17311	0.671
7.2129	0.452
7.25269	0.316
7.29248	0.185
7.33228	0.091
7.37207	0.179
7.41186	0.381
7.45165	0.563
7.49144	0.703
7.53123	0.764
7.57102	0.777
7.61082	0.752
7.65061	0.817
7.6904	0.799
7.73019	0.742
7.76998	0.442
7.80977	0.368
7.84957	0.636
7.88936	0.467
7.92915	0.668
7.96894	0.759
8.00873	0.767
8.04852	0.679
8.08831	0.499
8.12811	0.371
8.1679	0.353
8.20769	0.58
8.24748	0.63
8.28727	0.58
8.32706	0.295
8.36686	0.492
8.40665	0.683
8.44644	0.611
8.48623	0.368
8.52602	0.325
8.56581	0.626
8.6056	0.605
8.6454	0.276
8.68519	0.23
8.72498	0.484
8.76477	0.653
8.80456	0.721
8.84435	0.741
8.88415	0.733
8.92394	0.669
8.96373	0.741
9.00352	0.797
9.04331	0.829
9.0831	0.847
9.12289	0.859
9.16269	0.859
9.20248	0.852
9.24227	0.829
9.28206	0.809
9.32185	0.827
9.36164	0.849
9.40144	0.855
9.44123	0.86
9.48102	0.857
9.52081	0.842
9.5606	0.817
9.60039	0.754
9.64018	0.716
9.67998	0.747
9.71977	0.698
9.75956	0.703
9.79935	0.757
9.83914	0.777
9.87893	0.771
9.91873	0.587
9.95852	0.618
9.99831	0.774
10.0381	0.776
10.0779	0.85
10.1177	0.877
10.1575	0.878
10.1973	0.882
10.2371	0.877
10.2768	0.88
10.3166	0.888
10.3564	0.89
10.3962	0.883
10.436	0.878
10.4758	0.87
10.5156	0.842
10.5554	0.842
10.5952	0.864
10.635	0.878
10.6748	0.89
10.7146	0.897
10.7543	0.902
10.7941	0.907
10.8339	0.912
10.8737	0.915
10.9135	0.915
10.9533	0.913
10.9931	0.902
11.0329	0.857
11.0727	0.84
11.1125	0.805
11.1523	0.873
11.1921	0.888
11.2318	0.852
11.2716	0.767
11.3114	0.855
11.3512	0.898
11.391	0.913
11.4308	0.922
11.4706	0.927
11.5104	0.93
11.5502	0.932
11.59	0.925
11.6298	0.912
11.6696	0.895
11.7093	0.83
11.7491	0.774
11.7889	0.658
11.8287	0.527
11.8685	0.5
11.9083	0.487
11.9481	0.427
11.9879	0.472
12.0277	0.678
12.0675	0.799
12.1073	0.837
12.1471	0.859
12.1868	0.895
12.2266	0.903
12.2664	0.912
12.3062	0.923
12.346	0.93
12.3858	0.927
12.4256	0.932
12.4654	0.932
12.5052	0.932
12.545	0.917
12.5848	0.897
12.6246	0.867
12.6643	0.893
12.7041	0.92
12.7439	0.925
12.7837	0.928
12.8235	0.92
12.8633	0.908
12.9031	0.892
12.9429	0.865
12.9827	0.8
13.0225	0.683
13.0623	0.461
13.102	0.144
13.1418	0.091
13.1816	0.155
13.2214	0.366
13.2612	0.625
13.301	0.728
13.3408	0.807
13.3806	0.834
13.4204	0.849
13.4602	0.859
13.5	0.867
13.5398	0.873
13.5795	0.878
13.6193	0.878
13.6591	0.877
13.6989	0.873
13.7387	0.868
13.7785	0.87
13.8183	0.85
13.8581	0.83
13.8979	0.754
13.9377	0.686
13.9775	0.711
14.0173	0.807
14.057	0.867
14.0968	0.893
14.1366	0.902
14.1764	0.907
14.2162	0.905
14.256	0.885
14.2958	0.864
14.3356	0.817
14.3754	0.772
14.4152	0.726
14.455	0.696
14.4948	0.653
14.5345	0.562
14.5743	0.477
14.6141	0.441
14.6539	0.495
14.6937	0.61
14.7335	0.694
14.7733	0.764
14.8131	0.799
14.8529	0.819
14.8927	0.835
14.9325	0.845
14.9723	0.839
15.012	0.807
15.0518	0.791
15.0916	0.815
15.1314	0.852
15.1712	0.862
15.211	0.855
15.2508	0.844
15.2906	0.834
15.3304	0.822
15.3702	0.81
15.41	0.796
15.4498	0.761
15.4895	0.742
15.5293	0.731
15.5691	0.739
15.6089	0.742
15.6487	0.751
15.6885	0.751
15.7283	0.733
15.7681	0.716
15.8079	0.696
15.8477	0.678
15.8875	0.665
15.9272	0.656
15.967	0.65
