Infrared Spectrum: ETHYLENE GLYCOL MONO-2,2,4-TRIMETHYL-3-OXOVALERATE
Formula: C10 H18 O4
CAS: 116659-53-1
Class: COBLENTZ
Instrument: Not specified, most likely a prism, grating, or hybrid spectrometer.
Sampling: TRANSMISSION
Path length: SMEAR
Resolution: 4
Origin: TENNESSEE EASTMAN COMPANY, RESEARCH LABORATORIES
MICROMETERS	TRANSMITTANCE
2.027	0.959
2.06796	0.962
2.10891	0.962
2.14987	0.964
2.19082	0.96
2.23178	0.926
2.27274	0.919
2.31369	0.931
2.35465	0.936
2.3956	0.936
2.43656	0.936
2.47752	0.936
2.51847	0.941
2.55943	0.95
2.60038	0.952
2.64134	0.959
2.6823	0.959
2.72325	0.854
2.76421	0.529
2.80516	0.339
2.84612	0.293
2.88708	0.293
2.92803	0.353
2.96899	0.435
3.00994	0.52
3.0509	0.607
3.09186	0.694
3.13281	0.773
3.17377	0.825
3.21472	0.86
3.25568	0.863
3.29664	0.737
3.33759	0.211
3.37855	0.247
3.4195	0.387
3.46046	0.423
3.50142	0.72
3.54237	0.798
3.58333	0.841
3.62428	0.856
3.66524	0.863
3.7062	0.894
3.74715	0.911
3.78811	0.916
3.82906	0.923
3.87002	0.931
3.91098	0.931
3.95193	0.93
3.99289	0.93
4.03384	0.933
4.0748	0.933
4.11576	0.933
4.15671	0.935
4.19767	0.941
4.23862	0.953
4.27958	0.952
4.32054	0.952
4.36149	0.953
4.40245	0.96
4.4434	0.967
4.48436	0.969
4.52532	0.969
4.56627	0.965
4.60723	0.962
4.64818	0.965
4.68914	0.964
4.7301	0.959
4.77105	0.965
4.81201	0.972
4.85296	0.972
4.89392	0.97
4.93488	0.969
4.97583	0.959
5.01679	0.957
5.05774	0.952
5.0987	0.957
5.13966	0.962
5.18061	0.967
5.22157	0.967
5.26252	0.959
5.30348	0.952
5.34444	0.95
5.38539	0.947
5.42635	0.938
5.4673	0.919
5.50826	0.883
5.54922	0.844
5.59017	0.784
5.63113	0.67
5.67209	0.392
5.71304	0.1
5.754	0.092
5.79495	0.073
5.83591	0.027
5.87687	0.081
5.91782	0.291
5.95878	0.52
5.99973	0.653
6.04069	0.744
6.08165	0.802
6.1226	0.829
6.16356	0.861
6.20451	0.875
6.24547	0.892
6.28643	0.899
6.32738	0.902
6.36834	0.897
6.40929	0.868
6.45025	0.854
6.49121	0.843
6.53216	0.834
6.57312	0.807
6.61407	0.776
6.65503	0.733
6.69599	0.592
6.73694	0.32
6.7779	0.167
6.81885	0.213
6.85981	0.274
6.90077	0.354
6.94172	0.481
6.98268	0.556
7.02363	0.563
7.06459	0.535
7.10555	0.477
7.1465	0.36
7.18746	0.223
7.22841	0.271
7.26937	0.397
7.31033	0.334
7.35128	0.428
7.39224	0.47
7.43319	0.464
7.47415	0.523
7.51511	0.554
7.55606	0.558
7.59702	0.539
7.63797	0.503
7.67893	0.436
7.71989	0.353
7.76084	0.261
7.8018	0.189
7.84275	0.134
7.88371	0.112
7.92467	0.105
7.96562	0.109
8.00658	0.167
8.04753	0.276
8.08849	0.354
8.12945	0.37
8.1704	0.37
8.21136	0.366
8.25231	0.378
8.29327	0.418
8.33423	0.418
8.37518	0.401
8.41614	0.313
8.45709	0.215
8.49805	0.153
8.53901	0.134
8.57996	0.081
8.62092	0.044
8.66187	0.042
8.70283	0.078
8.74379	0.177
8.78474	0.3
8.8257	0.418
8.86665	0.481
8.90761	0.525
8.94857	0.527
8.98952	0.496
9.03048	0.424
9.07143	0.303
9.11239	0.209
9.15335	0.192
9.1943	0.192
9.23526	0.189
9.27621	0.201
9.31717	0.238
9.35813	0.278
9.39908	0.308
9.44004	0.32
9.48099	0.305
9.52195	0.249
9.56291	0.139
9.60386	0.098
9.64482	0.126
9.68577	0.199
9.72673	0.232
9.76769	0.23
9.80864	0.235
9.8496	0.273
9.89055	0.279
9.93151	0.223
9.97247	0.22
10.0134	0.341
10.0544	0.459
10.0953	0.518
10.1363	0.571
10.1772	0.622
10.2182	0.66
10.2592	0.689
10.3001	0.696
10.3411	0.689
10.382	0.67
10.423	0.643
10.4639	0.598
10.5049	0.569
10.5459	0.53
10.5868	0.496
10.6278	0.508
10.6687	0.549
10.7097	0.585
10.7506	0.622
10.7916	0.66
10.8325	0.684
10.8735	0.686
10.9145	0.65
10.9554	0.585
10.9964	0.508
11.0373	0.47
11.0783	0.476
11.1192	0.517
11.1602	0.547
11.2011	0.576
11.2421	0.588
11.2831	0.59
11.324	0.564
11.365	0.547
11.4059	0.568
11.4469	0.626
11.4878	0.68
11.5288	0.692
11.5698	0.682
11.6107	0.653
11.6517	0.633
11.6926	0.607
11.7336	0.602
11.7745	0.602
11.8155	0.61
11.8564	0.631
11.8974	0.65
11.9384	0.672
11.9793	0.684
12.0203	0.689
12.0612	0.691
12.1022	0.703
12.1431	0.735
12.1841	0.762
12.225	0.784
12.266	0.803
12.307	0.82
12.3479	0.832
12.3889	0.836
12.4298	0.841
12.4708	0.843
12.5117	0.843
12.5527	0.843
12.5937	0.843
12.6346	0.841
12.6756	0.834
12.7165	0.822
12.7575	0.8
12.7984	0.779
12.8394	0.764
12.8803	0.757
12.9213	0.757
12.9623	0.757
13.0032	0.757
13.0442	0.754
13.0851	0.759
13.1261	0.771
13.167	0.781
13.208	0.791
13.2489	0.795
13.2899	0.796
13.3309	0.796
13.3718	0.795
13.4128	0.791
13.4537	0.786
13.4947	0.783
13.5356	0.778
13.5766	0.774
13.6176	0.774
13.6585	0.771
13.6995	0.771
13.7404	0.769
13.7814	0.767
13.8223	0.767
13.8633	0.761
13.9042	0.759
13.9452	0.755
13.9862	0.752
14.0271	0.745
14.0681	0.738
14.109	0.732
14.15	0.726
14.1909	0.723
14.2319	0.716
14.2728	0.713
14.3138	0.704
14.3548	0.701
14.3957	0.694
14.4367	0.689
14.4776	0.679
14.5186	0.674
14.5595	0.667
14.6005	0.66
14.6415	0.65
14.6824	0.641
14.7234	0.629
14.7643	0.614
14.8053	0.6
14.8462	0.58
14.8872	0.564
14.9281	0.554
14.9691	0.544
15.0101	0.546
15.051	0.546
15.092	0.542
15.1329	0.539
15.1739	0.535
15.2148	0.537
15.2558	0.537
15.2967	0.537
15.3377	0.537
15.3787	0.535
15.4196	0.537
15.4606	0.535
15.5015	0.535
15.5425	0.537
15.5834	0.537
15.6244	0.537
15.6654	0.537
15.7063	0.537
15.7473	0.539
15.7882	0.54
15.8292	0.544
15.8701	0.546
15.9111	0.547
15.952	0.547
15.993	0.547
