Infrared Spectrum: 1,4-DIBROMO-1,4-DIPHENYL-BUTADIENE
Formula: C16 H12 Br2
CAS: 116862-67-0
State: SOLUTION (9.9% IN CCl4 ) VERSUS SOLVENT
Melting point: 121-122 C
Class: COBLENTZ
Instrument: Not specified, most likely a grating or hybrid spectrometer.
Sampling: TRANSMISSION
Path length: 0.011 CM NaCl CELL FOR 3800-600, 0.021 CM CsBr CELL FOR 600-200 CM^-^1
Resolution: 4
Origin: DOW CORNING CORP.
1/CM	TRANSMITTANCE
242.308	0.826
251.282	0.821
260.257	0.821
269.231	0.812
278.205	0.803
287.18	0.815
296.154	0.852
305.129	0.859
314.103	0.864
323.077	0.866
332.052	0.866
341.026	0.861
350	0.85
358.975	0.842
367.949	0.854
376.924	0.842
385.898	0.819
394.872	0.779
403.847	0.684
412.821	0.696
421.795	0.692
430.77	0.717
439.744	0.743
448.718	0.791
457.693	0.809
466.667	0.817
475.642	0.812
484.616	0.812
493.59	0.788
502.565	0.708
511.539	0.524
520.513	0.7249
529.488	0.788
538.462	0.713
547.437	0.6846
556.411	0.5736
565.385	0.814
574.36	0.829
583.334	0.831
592.308	0.824
601.283	0.781
610.257	0.769
619.232	0.7759
628.206	0.777
637.18	0.762
646.155	0.743
655.129	0.5521
664.103	0.1207
673.078	0.5599
682.052	0.3591
691.026	0.069
700.001	0.5594
708.975	0.732
717.95	0.732
726.924	0.713
735.898	0.722
744.873	0.715
753.847	0.711
762.821	0.717
771.796	0.725
780.77	0.72
789.745	0.72
798.719	0.727
807.693	0.722
816.668	0.734
825.642	0.725
834.616	0.692
843.591	0.6181
852.565	0.3092
861.539	0.116
870.514	0.322
879.488	0.6628
888.463	0.767
897.437	0.805
906.411	0.776
915.386	0.8419
924.36	0.876
933.334	0.887
942.309	0.88
951.283	0.866
960.258	0.845
969.232	0.857
978.206	0.848
987.181	0.838
996.155	0.7132
1005.13	0.796
1014.1	0.777
1023.08	0.7012
1032.05	0.7295
1041.03	0.812
1050	0.796
1058.98	0.753
1067.95	0.661
1076.92	0.729
1085.9	0.765
1094.87	0.729
1103.85	0.802
1112.82	0.824
1121.8	0.821
1130.77	0.828
1139.74	0.85
1148.72	0.836
1157.69	0.84
1166.67	0.831
1175.64	0.7431
1184.62	0.671
1193.59	0.631
1202.57	0.2584
1211.54	0.6779
1220.51	0.68
1229.49	0.564
1238.46	0.3711
1247.44	0.4939
1256.41	0.645
1265.39	0.711
1274.36	0.732
1283.33	0.67
1292.31	0.7529
1301.28	0.729
1310.26	0.76
1319.23	0.807
1328.21	0.741
1337.18	0.85
1346.16	0.857
1355.13	0.852
1364.1	0.836
1373.08	0.817
1382.05	0.8279
1391.03	0.847
1400	0.845
1408.98	0.852
1417.95	0.843
1426.92	0.812
1435.9	0.649
1444.87	0.5448
1453.85	0.819
1462.82	0.814
1471.8	0.781
1480.77	0.4117
1489.75	0.6939
1498.72	0.803
1507.69	0.807
1516.67	0.805
1525.64	0.802
1534.62	0.786
1543.59	0.756
1552.57	0.678
1561.54	0.5481
1570.51	0.6608
1579.49	0.5651
1588.46	0.729
1597.44	0.7689
1606.41	0.822
1615.39	0.828
1624.36	0.84
1633.34	0.845
1642.31	0.848
1651.28	0.838
1660.26	0.828
1669.23	0.807
1678.21	0.842
1687.18	0.854
1696.16	0.852
1705.13	0.843
1714.1	0.824
1723.08	0.819
1732.05	0.824
1741.03	0.831
1750	0.835
1758.98	0.848
1767.95	0.85
1776.93	0.843
1785.9	0.824
1794.87	0.789
1803.85	0.829
1812.82	0.833
1821.8	0.833
1830.77	0.852
1839.75	0.859
1848.72	0.859
1857.69	0.855
1866.67	0.833
1875.64	0.786
1884.62	0.822
1893.59	0.796
1902.57	0.855
1911.54	0.861
1920.52	0.857
1929.49	0.852
1938.46	0.803
1947.44	0.8
1956.41	0.8071
1965.39	0.812
1974.36	0.857
1983.34	0.855
1992.31	0.871
2001.28	0.869
2010.26	0.868
2019.23	0.8685
2028.21	0.868
2037.18	0.868
2046.16	0.866
2055.13	0.866
2064.1	0.864
2073.08	0.864
2082.05	0.862
2091.03	0.862
2100	0.861
2108.98	0.862
2117.95	0.861
2126.93	0.861
2135.9	0.862
2144.87	0.862
2153.85	0.861
2162.82	0.859
2171.8	0.861
2180.77	0.861
2189.75	0.8608
2198.72	0.859
2207.69	0.859
2216.67	0.859
2225.64	0.861
2234.62	0.861
2243.59	0.8607
2252.57	0.8577
2261.54	0.855
2270.52	0.854
2279.49	0.854
2288.46	0.857
2297.44	0.857
2306.41	0.8543
2315.39	0.85
2324.36	0.852
2333.34	0.854
2342.31	0.8547
2351.28	0.8586
2360.26	0.855
2369.23	0.855
2378.21	0.854
2387.18	0.852
2396.16	0.8535
2405.13	0.855
2414.11	0.8542
2423.08	0.852
2432.05	0.852
2441.03	0.85
2450	0.85
2458.98	0.852
2467.95	0.8466
2476.93	0.8543
2485.9	0.8472
2494.87	0.8486
2503.85	0.848
2512.82	0.848
2521.8	0.8472
2530.77	0.848
2539.75	0.847
2548.72	0.8437
2557.7	0.8478
2566.67	0.847
2575.64	0.847
2584.62	0.8443
2593.59	0.843
2602.57	0.8457
2611.54	0.848
2620.52	0.8474
2629.49	0.85
2638.46	0.85
2647.44	0.852
2656.41	0.852
2665.39	0.85
2674.36	0.8512
2683.34	0.8482
2692.31	0.8441
2701.29	0.8498
2710.26	0.8476
2719.23	0.847
2728.21	0.848
2737.18	0.85
2746.16	0.854
2755.13	0.854
2764.11	0.852
2773.08	0.85
2782.05	0.848
2791.03	0.847
2800	0.846
2808.98	0.848
2817.95	0.8475
2826.93	0.842
2835.9	0.836
2844.88	0.835
2853.85	0.833
2862.82	0.838
2871.8	0.835
2880.77	0.833
2889.75	0.835
2898.72	0.833
2907.7	0.8299
2916.67	0.8148
2925.64	0.8099
2934.62	0.8332
2943.59	0.8412
2952.57	0.8398
2961.54	0.8318
2970.52	0.831
2979.49	0.833
2988.46	0.8206
2997.44	0.8046
3006.41	0.7792
3015.39	0.7107
3024.36	0.5943
3033.34	0.465
3042.31	0.6424
3051.29	0.6179
3060.26	0.5142
3069.23	0.561
3078.21	0.6327
3087.18	0.6278
3096.16	0.738
3105.13	0.8036
3114.11	0.8368
3123.08	0.8441
3132.05	0.8496
3141.03	0.842
3150	0.8404
3158.98	0.8444
3167.95	0.8527
3176.93	0.8585
3185.9	0.8612
3194.88	0.8655
3203.85	0.868
3212.82	0.868
3221.8	0.869
3230.77	0.869
3239.75	0.871
3248.72	0.869
3257.7	0.873
3266.67	0.871
3275.64	0.871
3284.62	0.8714
3293.59	0.869
3302.57	0.8682
3311.54	0.8683
3320.52	0.869
3329.49	0.868
3338.47	0.868
3347.44	0.869
3356.41	0.869
3365.39	0.868
3374.36	0.868
3383.34	0.868
3392.31	0.868
3401.29	0.868
3410.26	0.868
3419.23	0.8702
3428.21	0.868
3437.18	0.868
3446.16	0.869
3455.13	0.8702
3464.11	0.871
3473.08	0.8722
3482.06	0.871
3491.03	0.873
3500	0.8711
3508.98	0.873
3517.95	0.8731
3526.93	0.875
3535.9	0.875
3544.88	0.876
3553.85	0.876
3562.82	0.878
3571.8	0.881
3580.77	0.8887
3589.75	0.878
3598.72	0.878
3607.7	0.876
3616.67	0.873
3625.65	0.871
3634.62	0.868
3643.59	0.873
3652.57	0.8685
3661.54	0.8761
3670.52	0.8718
3679.49	0.875
3688.47	0.869
3697.44	0.8712
3706.41	0.875
3715.39	0.8752
3724.36	0.8867
3733.34	0.8901
3742.31	0.8905
3751.29	0.883
3760.26	0.8804
3769.24	0.88
3778.21	0.88
3787.18	0.8848
