Infrared Spectrum: CYCLOPENTANECARBOXYLIC ACID, 3-(CHLOROFORMYL)-, METHYL ESTER, CIS-
Formula: C8 H11 Cl O3
CAS: 116940-83-1
State: LIQUID (NEAT)
Class: COBLENTZ III
Instrument: PERKIN-ELMER 221 (GRATING)
Instrument parameters: FILTER AT 980 CM^-^1. GRATING 4000-1428 CM^-^1, NaCl PRISM 1428-650 CM^-^1
Sampling: TRANSMISSION
Path length: CAPILLARY
Resolution: 2
Origin: SOUTHERN RESEARCH INSTITUTE
1/CM	TRANSMITTANCE
629.559	0.642
638.854	0.6507
648.148	0.6625
657.443	0.6705
666.737	0.673
676.032	0.6714
685.327	0.6625
694.621	0.6413
703.916	0.6176
713.21	0.6002
722.505	0.5843
731.8	0.5391
741.094	0.503
750.389	0.5344
759.683	0.5752
768.978	0.5953
778.272	0.6301
787.567	0.6614
796.862	0.6715
806.156	0.6389
815.451	0.5774
824.745	0.5845
834.04	0.5901
843.335	0.5225
852.629	0.5211
861.924	0.5702
871.218	0.6129
880.513	0.702
889.808	0.7942
899.102	0.7816
908.397	0.7028
917.691	0.6592
926.986	0.6829
936.281	0.7078
945.575	0.7376
954.87	0.7045
964.164	0.6609
973.459	0.6302
982.754	0.5571
992.048	0.4609
1001.34	0.4814
1010.64	0.497
1019.93	0.4869
1029.23	0.467
1038.52	0.5042
1047.82	0.5725
1057.11	0.59
1066.4	0.5904
1075.7	0.6011
1084.99	0.61
1094.29	0.6371
1103.58	0.7123
1112.88	0.734
1122.17	0.7282
1131.47	0.6688
1140.76	0.5395
1150.06	0.3849
1159.35	0.251
1168.65	0.2149
1177.94	0.2519
1187.23	0.2371
1196.53	0.1571
1205.82	0.1429
1215.12	0.2386
1224.41	0.3454
1233.71	0.405
1243	0.405
1252.3	0.405
1261.59	0.406
1270.89	0.4226
1280.18	0.4717
1289.48	0.5252
1298.77	0.5535
1308.06	0.602
1317.36	0.6838
1326.65	0.684
1335.95	0.6615
1345.24	0.6366
1354.54	0.5366
1363.83	0.512
1373.13	0.6179
1382.42	0.7519
1391.72	0.8063
1401.01	0.807
1410.3	0.7876
1419.6	0.6969
1428.89	0.5668
1438.19	0.3444
1447.48	0.4225
1456.78	0.5914
1466.07	0.638
1475.37	0.7698
1484.66	0.833
1493.96	0.8664
1503.25	0.882
1512.55	0.8882
1521.84	0.89
1531.13	0.89
1540.43	0.892
1549.72	0.89
1559.02	0.892
1568.31	0.892
1577.61	0.892
1586.9	0.892
1596.2	0.89
1605.49	0.889
1614.79	0.8857
1624.08	0.8796
1633.38	0.8769
1642.67	0.872
1651.96	0.853
1661.26	0.8471
1670.55	0.8246
1679.85	0.7604
1689.14	0.696
1698.44	0.5497
1707.73	0.4637
1717.03	0.3647
1726.32	0.0331
1735.62	0.031
1744.91	0.148
1754.2	0.3256
1763.5	0.422
1772.79	0.304
1782.09	0.1688
1791.38	0.0681
1800.68	0.0931
1809.97	0.1752
1819.27	0.3031
1828.56	0.5106
1837.86	0.6128
1847.15	0.7283
1856.45	0.7848
1865.74	0.8264
1875.03	0.8499
1884.33	0.8679
1893.62	0.8843
1902.92	0.8927
1912.21	0.8937
1921.51	0.897
1930.8	0.898
1940.1	0.901
1949.39	0.901
1958.69	0.902
1967.98	0.901
1977.28	0.9
1986.57	0.898
1995.86	0.8971
2005.16	0.901
2014.45	0.9
2023.75	0.9
2033.04	0.9
2042.34	0.9
2051.63	0.9
2060.93	0.9001
2070.22	0.9028
2079.52	0.9059
2088.81	0.905
2098.1	0.906
2107.4	0.906
2116.69	0.907
2125.99	0.909
2135.28	0.9099
2144.58	0.9109
2153.87	0.911
2163.17	0.911
2172.46	0.913
2181.76	0.913
2191.05	0.913
2200.35	0.911
2209.64	0.911
2218.93	0.9091
2228.23	0.909
2237.52	0.9088
2246.82	0.909
2256.11	0.907
2265.41	0.9061
2274.7	0.906
2284	0.905
2293.29	0.9032
2302.59	0.9001
2311.88	0.898
2321.18	0.898
2330.47	0.897
2339.76	0.897
2349.06	0.897
2358.35	0.897
2367.65	0.898
2376.94	0.898
2386.24	0.898
2395.53	0.898
2404.83	0.8998
2414.12	0.9
2423.42	0.9
2432.71	0.9
2442	0.9
2451.3	0.9
2460.59	0.898
2469.89	0.8971
2479.18	0.8961
2488.48	0.894
2497.77	0.894
2507.07	0.893
2516.36	0.893
2525.66	0.893
2534.95	0.893
2544.25	0.892
2553.54	0.892
2562.83	0.892
2572.13	0.8929
2581.42	0.893
2590.72	0.893
2600.01	0.893
2609.31	0.893
2618.6	0.8921
2627.9	0.892
2637.19	0.893
2646.49	0.894
2655.78	0.8958
2665.07	0.896
2674.37	0.897
2683.66	0.897
2692.96	0.897
2702.25	0.897
2711.55	0.897
2720.84	0.897
2730.14	0.8942
2739.43	0.894
2748.73	0.894
2758.02	0.894
2767.32	0.894
2776.61	0.894
2785.9	0.8902
2795.2	0.889
2804.49	0.8862
2813.79	0.882
2823.08	0.8733
2832.38	0.8591
2841.67	0.8232
2850.97	0.8192
2860.26	0.8057
2869.56	0.7439
2878.85	0.7002
2888.15	0.7438
2897.44	0.7367
2906.73	0.723
2916.03	0.7073
2925.32	0.6847
2934.62	0.6256
2943.91	0.5096
2953.21	0.3956
2962.5	0.5077
2971.8	0.5358
2981.09	0.5605
2990.39	0.6298
2999.68	0.709
3008.97	0.7703
3018.27	0.784
3027.56	0.8028
3036.86	0.8387
3046.15	0.8609
3055.45	0.8708
3064.74	0.8759
3074.04	0.877
3083.33	0.88
3092.63	0.881
3101.92	0.881
3111.22	0.881
3120.51	0.881
3129.8	0.881
3139.1	0.882
3148.39	0.882
3157.69	0.882
3166.98	0.882
3176.28	0.882
3185.57	0.881
3194.87	0.88
3204.16	0.878
3213.46	0.877
3222.75	0.875
3232.05	0.876
3241.34	0.875
3250.63	0.873
3259.93	0.873
3269.22	0.873
3278.52	0.873
3287.81	0.873
3297.11	0.873
3306.4	0.876
3315.7	0.878
3324.99	0.881
3334.29	0.882
3343.58	0.882
3352.87	0.8849
3362.17	0.888
3371.46	0.888
3380.76	0.888
3390.05	0.888
3399.35	0.889
3408.64	0.889
3417.94	0.8881
3427.23	0.8841
3436.53	0.88
3445.82	0.878
3455.12	0.8849
3464.41	0.889
3473.7	0.892
3483	0.893
3492.29	0.893
3501.59	0.892
3510.88	0.89
3520.18	0.889
3529.47	0.8881
3538.77	0.888
3548.06	0.889
3557.36	0.8918
3566.65	0.893
3575.95	0.896
3585.24	0.9019
3594.53	0.906
3603.83	0.913
3613.12	0.914
3622.42	0.915
3631.71	0.915
3641.01	0.915
3650.3	0.915
3659.6	0.917
3668.89	0.917
3678.19	0.918
3687.48	0.919
3696.77	0.921
3706.07	0.9219
3715.36	0.922
3724.66	0.922
3733.95	0.922
3743.25	0.921
3752.54	0.919
3761.84	0.919
3771.13	0.919
3780.43	0.919
3789.72	0.921
3799.02	0.921
3808.31	0.922
3817.6	0.922
3826.9	0.922
3836.19	0.922
3845.49	0.923
3854.78	0.923
3864.08	0.923
3873.37	0.923
3882.67	0.923
3891.96	0.923
3901.26	0.923
3910.55	0.923
3919.85	0.922
3929.14	0.922
3938.43	0.922
3947.73	0.921
3957.02	0.921
3966.32	0.921
3975.61	0.921
3984.91	0.921
3994.2	0.922
4003.5	0.923
4012.79	0.923
