Infrared Spectrum: 11Beta,17Alpha,21-TRIHYDROXY-4-PREGNENE-3,20-DIONE
Formula: C21 H30 O5
CAS: 116907-82-5
State: SOLID (NUJOL MULL)
Melting point: 217-220 C
Class: COBLENTZ III
Instrument: PERKIN-ELMER 521 (GRATING)
Instrument parameters: GRATING CHANGE AT 1996 CM^-^1
Sampling: TRANSMISSION
Resolution: 4
Origin: MERCK SHARPE & DOHME RESEARCH LABORATORIES, Nelson Trenner
1/CM	TRANSMITTANCE
609.833	0.385
618.909	0.415
627.985	0.442
637.062	0.442
646.138	0.422
655.214	0.545
664.29	0.576
673.366	0.628
682.442	0.651
691.519	0.66
700.595	0.645
709.671	0.661
718.747	0.601
727.823	0.623
736.9	0.627
745.976	0.615
755.052	0.674
764.128	0.651
773.204	0.655
782.281	0.6819
791.357	0.779
800.433	0.797
809.509	0.824
818.585	0.825
827.661	0.797
836.738	0.806
845.814	0.786
854.89	0.727
863.966	0.343
873.042	0.653
882.119	0.676
891.195	0.446
900.271	0.339
909.347	0.688
918.423	0.565
927.499	0.621
936.576	0.547
945.652	0.498
954.728	0.6689
963.804	0.615
972.88	0.672
981.957	0.608
991.033	0.667
1000.11	0.52
1009.19	0.509
1018.26	0.44
1027.34	0.374
1036.41	0.37
1045.49	0.277
1054.57	0.356
1063.64	0.485
1072.72	0.524
1081.79	0.51
1090.87	0.422
1099.95	0.367
1109.02	0.338
1118.1	0.362
1127.18	0.446
1136.25	0.425
1145.33	0.6
1154.4	0.59
1163.48	0.522
1172.56	0.577
1181.63	0.586
1190.71	0.543
1199.79	0.388
1208.86	0.522
1217.94	0.439
1227.01	0.413
1236.09	0.2801
1245.17	0.429
1254.24	0.508
1263.32	0.463
1272.39	0.321
1281.47	0.317
1290.55	0.422
1299.62	0.452
1308.7	0.491
1317.78	0.414
1326.85	0.444
1335.93	0.4419
1345	0.328
1354.08	0.349
1363.16	0.291
1372.23	0.272
1381.31	0.2481
1390.38	0.336
1399.46	0.453
1408.54	0.376
1417.61	0.372
1426.69	0.3179
1435.77	0.24
1444.84	0.194
1453.92	0.111
1462.99	0.108
1472.07	0.39
1481.15	0.605
1490.22	0.705
1499.3	0.741
1508.38	0.749
1517.45	0.745
1526.53	0.738
1535.6	0.728
1544.68	0.724
1553.76	0.706
1562.83	0.701
1571.91	0.676
1580.98	0.62
1590.06	0.582
1599.14	0.385
1608.21	0.263
1617.29	0.298
1626.37	0.162
1635.44	0.109
1644.52	0.148
1653.59	0.24
1662.67	0.376
1671.75	0.516
1680.82	0.568
1689.9	0.525
1698.98	0.27
1708.05	0.163
1717.13	0.403
1726.2	0.587
1735.28	0.696
1744.36	0.793
1753.43	0.805
1762.51	0.853
1771.58	0.875
1780.66	0.891
1789.74	0.894
1798.81	0.906
1807.89	0.908
1816.97	0.911
1826.04	0.916
1835.12	0.913
1844.19	0.918
1853.27	0.919
1862.35	0.915
1871.42	0.911
1880.5	0.908
1889.58	0.903
1898.65	0.904
1907.73	0.904
1916.8	0.903
1925.88	0.901
1934.96	0.899
1944.03	0.9
1953.11	0.899
1962.18	0.898
1971.26	0.899
1980.34	0.899
1989.41	0.898
1998.49	0.896
2007.57	0.895
2016.64	0.894
2025.72	0.893
2034.79	0.892
2043.87	0.891
2052.95	0.8892
2062.02	0.889
2071.1	0.8867
2080.18	0.884
2089.25	0.8822
2098.33	0.88
2107.4	0.8777
2116.48	0.8729
2125.56	0.8712
2134.63	0.871
2143.71	0.869
2152.78	0.867
2161.86	0.8641
2170.94	0.8613
2180.01	0.859
2189.09	0.857
2198.17	0.8579
2207.24	0.8553
2216.32	0.854
2225.39	0.853
2234.47	0.852
2243.55	0.853
2252.62	0.8495
2261.7	0.8437
2270.77	0.84
2279.85	0.8352
2288.93	0.8315
2298	0.8264
2307.08	0.8169
2316.16	0.8152
2325.23	0.815
2334.31	0.815
2343.38	0.815
2352.46	0.815
2361.54	0.8144
2370.61	0.814
2379.69	0.8141
2388.77	0.816
2397.84	0.816
2406.92	0.815
2415.99	0.813
2425.07	0.8041
2434.15	0.802
2443.22	0.8
2452.3	0.799
2461.37	0.798
2470.45	0.7925
2479.53	0.788
2488.6	0.785
2497.68	0.781
2506.76	0.7762
2515.83	0.773
2524.91	0.77
2533.98	0.7679
2543.06	0.7575
2552.14	0.7494
2561.21	0.7436
2570.29	0.7398
2579.37	0.73
2588.44	0.7165
2597.52	0.6988
2606.59	0.6937
2615.67	0.6862
2624.75	0.683
2633.82	0.679
2642.9	0.6696
2651.97	0.667
2661.05	0.6516
2670.13	0.6465
2679.2	0.6395
2688.28	0.634
2697.36	0.6267
2706.43	0.613
2715.51	0.607
2724.58	0.608
2733.66	0.6172
2742.74	0.6326
2751.81	0.6373
2760.89	0.637
2769.97	0.6265
2779.04	0.6098
2788.12	0.5824
2797.19	0.5458
2806.27	0.505
2815.35	0.4635
2824.42	0.3568
2833.5	0.3365
2842.57	0.1336
2851.65	0.0373
2860.73	0.0375
2869.8	0.0434
2878.88	0.048
2887.96	0.05
2897.03	0.0385
2906.11	0.0298
2915.18	0.027
2924.26	0.027
2933.34	0.0285
2942.41	0.03
2951.49	0.034
2960.57	0.036
2969.64	0.0411
2978.72	0.1014
2987.79	0.196
2996.87	0.3174
3005.95	0.3315
3015.02	0.3724
3024.1	0.4162
3033.17	0.4544
3042.25	0.4693
3051.33	0.4853
3060.4	0.4942
3069.48	0.496
3078.56	0.498
3087.63	0.4955
3096.71	0.4928
3105.78	0.489
3114.86	0.4873
3123.94	0.482
3133.01	0.4757
3142.09	0.47
3151.16	0.4642
3160.24	0.4524
3169.32	0.445
3178.39	0.431
3187.47	0.4263
3196.55	0.4108
3205.62	0.403
3214.7	0.3938
3223.77	0.3759
3232.85	0.3548
3241.93	0.3506
3251	0.3347
3260.08	0.3273
3269.16	0.312
3278.23	0.2997
3287.31	0.2884
3296.38	0.2761
3305.46	0.2619
3314.54	0.2471
3323.61	0.2333
3332.69	0.221
3341.76	0.2085
3350.84	0.203
3359.92	0.1995
3368.99	0.1889
3378.07	0.1782
3387.15	0.1654
3396.22	0.159
3405.3	0.1398
3414.37	0.1322
3423.45	0.1316
3432.53	0.136
3441.6	0.137
3450.68	0.1379
3459.76	0.1614
3468.83	0.1876
3477.91	0.2103
3486.98	0.2302
3496.06	0.2852
3505.14	0.3492
3514.21	0.3868
3523.29	0.4326
3532.36	0.4693
3541.44	0.4919
3550.52	0.5105
3559.59	0.533
3568.67	0.5556
3577.75	0.57
3586.82	0.5839
3595.9	0.5981
3604.97	0.6058
3614.05	0.6096
3623.13	0.6157
3632.2	0.6221
3641.28	0.6287
3650.36	0.6346
3659.43	0.6384
3668.51	0.6411
3677.58	0.6429
3686.66	0.6456
3695.74	0.646
3704.81	0.644
3713.89	0.643
3722.96	0.6366
3732.04	0.6316
3741.12	0.628
3750.19	0.626
3759.27	0.624
3768.35	0.623
3777.42	0.623
3786.5	0.622
3795.57	0.6177
3804.65	0.6039
3813.73	0.5987
3822.8	0.596
3831.88	0.595
3840.96	0.596
3850.03	0.596
3859.11	0.596
3868.18	0.596
3877.26	0.5934
3886.34	0.5926
3895.41	0.589
3904.49	0.588
3913.56	0.587
3922.64	0.5832
3931.72	0.579
3940.79	0.577
3949.87	0.576
3958.95	0.574
3968.02	0.5728
3977.1	0.571
3986.17	0.5683
3995.25	0.5655
