Infrared Spectrum: 1,2-Benzenedicarboxylic acid, bis(ethoxyethoxyethyl) ester
Formula: C20 H30 O8
CAS: 117-85-1
State: SOLUTION (10% CCl4 FOR 3800-1330, 10% CS2 FOR 1330-400 CM^-^1)
Boiling point: 248 C AT 4 mmHg
Class: COBLENTZ III
Instrument: BECKMAN IR-9 (GRATING)
Instrument parameters: ORDER CHANGES: 670, 1200, 2000 CM^-^1
Sampling: TRANSMISSION
Path length: 0.011 CM, 0.011 CM
Resolution: 2
Origin: DOW CHEMICAL COMPANY
1/CM	TRANSMITTANCE
3812	0.9223
3803	0.9226
3794	0.9215
3785	0.921
3776	0.9221
3767	0.9242
3758	0.9254
3749	0.9253
3740	0.9248
3731	0.9254
3722	0.9247
3713	0.9242
3704	0.9268
3695	0.9273
3686	0.9271
3677	0.9275
3668	0.9269
3659	0.9253
3650	0.9235
3641	0.9212
3632	0.9185
3623	0.9031
3614	0.8947
3605	0.9112
3596	0.9065
3587	0.8965
3578	0.9112
3569	0.9114
3560	0.9116
3551	0.9127
3542	0.9122
3533	0.9116
3524	0.9095
3515	0.9082
3506	0.9057
3497	0.9021
3488	0.897
3479	0.8906
3470	0.8842
3461	0.8808
3452	0.8801
3443	0.8836
3434	0.8915
3425	0.8976
3416	0.904
3407	0.9079
3398	0.9098
3389	0.911
3380	0.9121
3371	0.913
3362	0.913
3353	0.9127
3344	0.9137
3335	0.9121
3326	0.9115
3317	0.9108
3308	0.9111
3299	0.9093
3290	0.9088
3281	0.9081
3272	0.9089
3263	0.9082
3254	0.9076
3245	0.9062
3236	0.9058
3227	0.9039
3218	0.9034
3209	0.9022
3200	0.8997
3191	0.8992
3182	0.8953
3173	0.8926
3164	0.891
3155	0.8884
3146	0.8862
3137	0.8844
3128	0.8814
3119	0.8781
3110	0.8746
3101	0.8704
3092	0.8507
3083	0.8143
3074	0.8117
3065	0.8196
3056	0.8327
3047	0.8348
3038	0.8307
3029	0.8188
3020	0.7868
3011	0.7183
3002	0.6337
2993	0.4197
2984	0.2274
2975	0.2834
2966	0.3575
2957	0.3455
2948	0.351
2939	0.327
2930	0.3189
2921	0.3012
2912	0.2731
2903	0.2239
2894	0.1603
2885	0.1126
2876	0.1102
2867	0.1498
2858	0.2571
2849	0.3775
2840	0.4976
2831	0.5725
2822	0.6009
2813	0.6226
2804	0.6659
2795	0.7081
2786	0.7365
2777	0.761
2768	0.7708
2759	0.7762
2750	0.783
2741	0.7912
2732	0.802
2723	0.8152
2714	0.8228
2705	0.8274
2696	0.8385
2687	0.8604
2678	0.8721
2669	0.8752
2660	0.8768
2651	0.8781
2642	0.8787
2633	0.8781
2624	0.876
2615	0.8738
2606	0.8733
2597	0.8755
2588	0.878
2579	0.8806
2570	0.8833
2561	0.8854
2552	0.8875
2543	0.8894
2534	0.8916
2525	0.8937
2516	0.8959
2507	0.8979
2498	0.9
2489	0.9014
2480	0.9032
2471	0.9036
2462	0.9038
2453	0.9025
2444	0.9
2435	0.8957
2426	0.895
2417	0.8943
2408	0.8947
2399	0.8954
2390	0.8962
2381	0.9008
2372	0.9052
2363	0.9038
2354	0.9045
2345	0.8992
2336	0.8931
2327	0.8937
2318	0.8933
2309	0.891
2300	0.8887
2291	0.8892
2282	0.8878
2273	0.8881
2264	0.8874
2255	0.8878
2246	0.8878
2237	0.8889
2228	0.8898
2219	0.8905
2210	0.8924
2201	0.8931
2192	0.8913
2183	0.8906
2174	0.8897
2165	0.887
2156	0.8863
2147	0.8853
2138	0.8849
2129	0.8847
2120	0.8845
2111	0.8851
2102	0.8859
2093	0.8875
2084	0.8895
2075	0.8904
2066	0.8911
2057	0.8912
2048	0.8896
2039	0.8866
2030	0.8829
2021	0.8793
2012	0.874
2003	0.8667
1994	0.8517
1985	0.8513
1976	0.8359
1967	0.838
1958	0.8414
1949	0.8322
1940	0.8374
1931	0.8557
1922	0.8629
1913	0.8624
1904	0.8661
1895	0.8689
1886	0.87
1877	0.8708
1868	0.8696
1859	0.8652
1850	0.8588
1841	0.8543
1832	0.8524
1823	0.8514
1814	0.8488
1805	0.8386
1796	0.8218
1787	0.8022
1778	0.7685
1769	0.6995
1760	0.4765
1751	0.2287
1742	0.0205
1733	0.0039
1724	0.0235
1715	0.2703
1706	0.5794
1697	0.6683
1688	0.7092
1679	0.7634
1670	0.7976
1661	0.8118
1652	0.8212
1643	0.8261
1634	0.8292
1625	0.8296
1616	0.8258
1607	0.7472
1598	0.6807
1589	0.749
1580	0.5986
1571	0.7419
1562	0.7176
1553	0.7276
1544	0.7464
1535	0.7643
1526	0.7771
1517	0.7903
1508	0.7973
1499	0.7756
1490	0.6077
1481	0.6431
1472	0.6237
1463	0.5935
1454	0.4389
1445	0.4228
1436	0.5983
1427	0.736
1418	0.7337
1409	0.651
1400	0.6362
1391	0.5885
1382	0.4822
1373	0.3914
1364	0.5241
1355	0.4858
1346	0.5404
1337	0.5828
1328	0.5922
1319	0.5759
1310	0.5189
1301	0.2046
1292	0.0107
1283	0.0046
1274	0.0079
1265	0.0261
1256	0.0748
1247	0.1828
1238	0.3008
1229	0.5825
1220	0.6822
1211	0.7188
1202	0.7304
1193	0.7217
1184	0.6201
1175	0.5377
1166	0.4141
1157	0.219
1148	0.0531
1139	0.0186
1130	0.008
1121	0.0061
1112	0.0095
1103	0.044
1094	0.2332
1085	0.2506
1076	0.0703
1067	0.1677
1058	0.4098
1049	0.3322
1040	0.2665
1031	0.4331
1022	0.5333
1013	0.6449
1004	0.709
995	0.7178
986	0.7216
977	0.7228
968	0.731
959	0.5989
950	0.5872
941	0.6267
932	0.679
923	0.695
914	0.7501
905	0.7865
896	0.7755
887	0.734
878	0.6473
869	0.608
860	0.5865
851	0.6355
842	0.6683
833	0.7272
824	0.7851
815	0.7859
806	0.7906
797	0.7172
788	0.7188
779	0.737
770	0.7415
761	0.7067
752	0.4975
743	0.2654
734	0.6317
725	0.8024
716	0.7982
707	0.5826
698	0.7412
689	0.8445
680	0.8885
671	0.8985
662	0.8469
653	0.8037
644	0.8928
635	0.9111
626	0.9152
617	0.9172
608	0.9144
599	0.9077
590	0.8936
581	0.8622
572	0.827
563	0.807
554	0.8031
545	0.8044
536	0.8087
527	0.809
518	0.7924
509	0.7727
500	0.7727
491	0.7782
482	0.7808
473	0.776
464	0.7523
455	0.7141
446	0.6685
437	0.652
428	0.6686
