Infrared Spectrum: 1-AMINO-5-BENZAMIDOANTHRAQUINONE
Formula: C21 H14 N2 O3
CAS: 117-06-6
State: SOLID (KBr PELLET)
Class: COBLENTZ
Instrument: Not specified, most likely a prism, grating, or hybrid spectrometer.
Sampling: TRANSMISSION
Resolution: 4
Origin: CORN PRODUCTS COMPANY
MICROMETERS	TRANSMITTANCE
2.027	0.433
2.0608	0.438
2.09461	0.441
2.12841	0.447
2.16222	0.459
2.19602	0.464
2.22982	0.467
2.26363	0.472
2.29743	0.482
2.33124	0.493
2.36504	0.5
2.39884	0.508
2.43265	0.517
2.46645	0.522
2.50026	0.525
2.53406	0.529
2.56787	0.53
2.60167	0.532
2.63547	0.535
2.66928	0.542
2.70308	0.547
2.73689	0.552
2.77069	0.535
2.80449	0.488
2.8383	0.406
2.8721	0.344
2.90591	0.271
2.93971	0.175
2.97351	0.189
3.00732	0.245
3.04112	0.259
3.07493	0.244
3.10873	0.319
3.14253	0.344
3.17634	0.351
3.21014	0.372
3.24395	0.395
3.27775	0.423
3.31155	0.443
3.34536	0.469
3.37916	0.513
3.41297	0.539
3.44677	0.547
3.48057	0.556
3.51438	0.568
3.54818	0.578
3.58199	0.585
3.61579	0.59
3.6496	0.592
3.6834	0.592
3.7172	0.592
3.75101	0.592
3.78481	0.593
3.81862	0.593
3.85242	0.598
3.88622	0.607
3.92003	0.614
3.95383	0.616
3.98764	0.619
4.02144	0.627
4.05524	0.636
4.08905	0.641
4.12285	0.645
4.15666	0.646
4.19046	0.648
4.22426	0.65
4.25807	0.65
4.29187	0.646
4.32568	0.645
4.35948	0.65
4.39328	0.656
4.42709	0.663
4.46089	0.668
4.4947	0.67
4.5285	0.675
4.5623	0.677
4.59611	0.674
4.62991	0.672
4.66372	0.674
4.69752	0.675
4.73133	0.677
4.76513	0.679
4.79893	0.68
4.83274	0.682
4.86654	0.682
4.90035	0.684
4.93415	0.687
4.96795	0.689
5.00176	0.687
5.03556	0.687
5.06937	0.68
5.10317	0.677
5.13697	0.682
5.17078	0.689
5.20458	0.696
5.23839	0.696
5.27219	0.699
5.30599	0.703
5.3398	0.708
5.3736	0.708
5.40741	0.706
5.44121	0.704
5.47501	0.704
5.50882	0.704
5.54262	0.704
5.57643	0.704
5.61023	0.704
5.64403	0.704
5.67784	0.704
5.71164	0.701
5.74545	0.696
5.77925	0.679
5.81306	0.663
5.84686	0.648
5.88066	0.58
5.91447	0.327
5.94827	0.184
5.98208	0.165
6.01588	0.303
6.04968	0.339
6.08349	0.145
6.11729	0.068
6.1511	0.112
6.1849	0.085
6.2187	0.011
6.25251	0.003
6.28631	0.017
6.32012	0.027
6.35392	0.078
6.38772	0.136
6.42153	0.174
6.45533	0.109
6.48914	0.095
6.52294	0.051
6.55674	0.035
6.59055	0.034
6.62435	0.052
6.65816	0.126
6.69196	0.114
6.72576	0.109
6.75957	0.17
6.79337	0.186
6.82718	0.158
6.86098	0.119
6.89479	0.143
6.92859	0.233
6.96239	0.336
6.9962	0.414
7.03	0.452
7.06381	0.394
7.09761	0.187
7.13141	0.199
7.16522	0.281
7.19902	0.303
7.23283	0.249
7.26663	0.267
7.30043	0.324
7.33424	0.394
7.36804	0.438
7.40185	0.43
7.43565	0.366
7.46945	0.315
7.50326	0.266
7.53706	0.25
7.57087	0.302
7.60467	0.353
7.63847	0.361
7.67228	0.315
7.70608	0.247
7.73989	0.191
7.77369	0.085
7.80749	0.02
7.8413	0.013
7.8751	0.01
7.90891	0
7.94271	0
7.97652	0
8.01032	0.032
8.04412	0.093
8.07793	0.168
8.11173	0.264
8.14554	0.349
8.17934	0.399
8.21314	0.411
8.24695	0.39
8.28075	0.375
8.31456	0.327
8.34836	0.267
8.38216	0.281
8.41597	0.283
8.44977	0.283
8.48358	0.3
8.51738	0.32
8.55118	0.32
8.58499	0.36
8.61879	0.423
8.6526	0.479
8.6864	0.517
8.7202	0.546
8.75401	0.558
8.78781	0.561
8.82162	0.566
8.85542	0.571
8.88923	0.573
8.92303	0.575
8.95683	0.58
8.99064	0.581
9.02444	0.581
9.05825	0.578
9.09205	0.569
9.12585	0.551
9.15966	0.54
9.19346	0.525
9.22727	0.529
9.26107	0.52
9.29487	0.508
9.32868	0.522
9.36248	0.561
9.39629	0.576
9.43009	0.578
9.46389	0.563
9.4977	0.551
9.5315	0.549
9.56531	0.549
9.59911	0.539
9.63291	0.505
9.66672	0.489
9.70052	0.482
9.73433	0.448
9.76813	0.39
9.80193	0.407
9.83574	0.491
9.86954	0.571
9.90335	0.569
9.93715	0.573
9.97096	0.568
10.0048	0.566
10.0386	0.588
10.0724	0.598
10.1062	0.604
10.14	0.607
10.1738	0.612
10.2076	0.619
10.2414	0.622
10.2752	0.622
10.309	0.629
10.3428	0.636
10.3766	0.645
10.4104	0.648
10.4442	0.648
10.478	0.651
10.5118	0.655
10.5456	0.651
10.5794	0.65
10.6132	0.653
10.647	0.66
10.6808	0.658
10.7146	0.651
10.7484	0.648
10.7823	0.638
10.8161	0.626
10.8499	0.629
10.8837	0.633
10.9175	0.634
10.9513	0.622
10.9851	0.578
11.0189	0.525
11.0527	0.53
11.0865	0.554
11.1203	0.571
11.1541	0.593
11.1879	0.598
11.2217	0.598
11.2555	0.598
11.2893	0.6
11.3231	0.604
11.3569	0.604
11.3907	0.609
11.4245	0.633
11.4583	0.643
11.4921	0.648
11.5259	0.651
11.5597	0.634
11.5936	0.54
11.6274	0.443
11.6612	0.412
11.695	0.486
11.7288	0.571
11.7626	0.592
11.7964	0.609
11.8302	0.609
11.864	0.609
11.8978	0.61
11.9316	0.617
11.9654	0.626
11.9992	0.627
12.033	0.629
12.0668	0.629
12.1006	0.621
12.1344	0.6
12.1682	0.583
12.202	0.546
12.2358	0.496
12.2696	0.43
12.3034	0.373
12.3372	0.353
12.371	0.365
12.4048	0.401
12.4387	0.419
12.4725	0.426
12.5063	0.412
12.5401	0.394
12.5739	0.419
12.6077	0.493
12.6415	0.556
12.6753	0.571
12.7091	0.569
12.7429	0.554
12.7767	0.525
12.8105	0.493
12.8443	0.457
12.8781	0.394
12.9119	0.327
12.9457	0.279
12.9795	0.261
13.0133	0.354
13.0471	0.441
13.0809	0.556
13.1147	0.597
13.1485	0.614
13.1823	0.619
13.2161	0.627
13.2499	0.629
13.2838	0.627
13.3176	0.617
13.3514	0.604
13.3852	0.592
13.419	0.583
13.4528	0.588
13.4866	0.595
13.5204	0.604
13.5542	0.604
13.588	0.604
13.6218	0.607
13.6556	0.605
13.6894	0.604
13.7232	0.598
13.757	0.593
13.7908	0.583
13.8246	0.569
13.8584	0.537
13.8922	0.5
13.926	0.44
13.9598	0.36
13.9936	0.279
14.0274	0.209
14.0612	0.16
14.0951	0.121
14.1289	0.109
14.1627	0.109
14.1965	0.114
14.2303	0.116
14.2641	0.117
14.2979	0.119
14.3317	0.127
14.3655	0.17
14.3993	0.244
14.4331	0.303
14.4669	0.341
14.5007	0.382
14.5345	0.402
14.5683	0.423
14.6021	0.45
14.6359	0.476
14.6697	0.503
14.7035	0.517
14.7373	0.534
14.7711	0.539
14.8049	0.551
14.8387	0.552
14.8725	0.558
14.9063	0.568
14.9402	0.576
14.974	0.581
15.0078	0.581
15.0416	0.588
15.0754	0.593
15.1092	0.598
15.143	0.598
15.1768	0.598
15.2106	0.598
15.2444	0.602
15.2782	0.602
15.312	0.604
15.3458	0.604
15.3796	0.605
15.4134	0.605
15.4472	0.602
15.481	0.598
