Infrared Spectrum: ANTHRAQUINONE, 2-AMINO-1-BROMO-3-CHLORO-
Formula: C14 H7 Br Cl N O2
CAS: 117-01-1
State: SOLID (SPLIT MULL)
Melting point: 228 C
Class: COBLENTZ II
Instrument: DOW KBr FOREPRISM-GRATING
Instrument parameters: BLAZED AT 3.5, 12.0, 20.0 MICRON AND CHANGED AT 5.0, 7.5, 14.9 MICRON
Sampling: TRANSMISSION
Resolution: 2
Origin: DOW CHEMICAL COMPANY
1/CM	TRANSMITTANCE
458	0.744
467	0.7378
476	0.7324
485	0.7588
494	0.8215
503	0.8389
512	0.8308
521	0.8161
530	0.8378
539	0.85
548	0.8553
557	0.8378
566	0.8574
575	0.8532
584	0.869
593	0.8793
602	0.8809
611	0.8597
620	0.8354
629	0.7992
638	0.8912
647	0.8918
656	0.8818
665	0.86
674	0.7639
683	0.8203
692	0.8341
701	0.5972
710	0.0949
719	0.6273
728	0.6578
737	0.7462
746	0.7408
755	0.4567
764	0.7708
773	0.7233
782	0.7897
791	0.6318
800	0.7355
809	0.789
818	0.7596
827	0.8092
836	0.8
845	0.7944
854	0.7921
863	0.7951
872	0.7908
881	0.7764
890	0.761
899	0.7504
908	0.7382
917	0.616
926	0.7719
935	0.7801
944	0.7839
953	0.7725
962	0.755
971	0.6905
980	0.6737
989	0.7958
998	0.7575
1007	0.8012
1016	0.7628
1025	0.3956
1034	0.6669
1043	0.6712
1052	0.7561
1061	0.6044
1070	0.6036
1079	0.7407
1088	0.7846
1097	0.7134
1106	0.7691
1115	0.7774
1124	0.7891
1133	0.684
1142	0.2879
1151	0.7255
1160	0.7417
1169	0.7475
1178	0.5839
1187	0.6587
1196	0.8239
1205	0.8165
1214	0.7926
1223	0.7853
1232	0.7155
1241	0.6262
1250	0.4178
1259	0.1939
1268	0.0403
1277	0.3193
1286	0.6223
1295	0.6769
1304	0.6586
1313	0.5872
1322	0.4115
1331	0.201
1340	0.0996
1349	0.0342
1358	0.0811
1367	0.4775
1376	0.6736
1385	0.6651
1394	0.7556
1403	0.7728
1412	0.7758
1421	0.7908
1430	0.7901
1439	0.7878
1448	0.7748
1457	0.6887
1466	0.7436
1475	0.6875
1484	0.5955
1493	0.7665
1502	0.7421
1511	0.7103
1520	0.6749
1529	0.6237
1538	0.4657
1547	0.4936
1556	0.2003
1565	0.5533
1574	0.429
1583	0.1673
1592	0.1173
1601	0.1062
1610	0.0172
1619	0.175
1628	0.4147
1637	0.6385
1646	0.6981
1655	0.671
1664	0.1853
1673	0.3015
1682	0.368
1691	0.8165
1700	0.8491
1709	0.8601
1718	0.8531
1727	0.8474
1736	0.8507
1745	0.8571
1754	0.8647
1763	0.8617
1772	0.8581
1781	0.8548
1790	0.8517
1799	0.849
1808	0.8461
1817	0.8442
1826	0.8466
1835	0.8489
1844	0.8507
1853	0.8484
1862	0.8421
1871	0.8424
1880	0.8393
1889	0.838
1898	0.8408
1907	0.8398
1916	0.8385
1925	0.838
1934	0.8355
1943	0.8339
1952	0.8318
1961	0.8224
1970	0.8264
1979	0.8249
1988	0.819
1997	0.823
2006	0.8353
2015	0.8371
2024	0.8389
2033	0.8393
2042	0.838
2051	0.8354
2060	0.8336
2069	0.8313
2078	0.8284
2087	0.8256
2096	0.823
2105	0.8204
2114	0.8178
2123	0.8148
2132	0.8118
2141	0.8093
2150	0.8071
2159	0.8047
2168	0.8015
2177	0.7983
2186	0.7951
2195	0.7918
2204	0.7895
2213	0.7874
2222	0.7843
2231	0.7793
2240	0.7742
2249	0.7686
2258	0.763
2267	0.7568
2276	0.7504
2285	0.7455
2294	0.7424
2303	0.7395
2312	0.7368
2321	0.7358
2330	0.7355
2339	0.7356
2348	0.7358
2357	0.7361
2366	0.7365
2375	0.7368
2384	0.7371
2393	0.7374
2402	0.7378
2411	0.7381
2420	0.7385
2429	0.7384
2438	0.7378
2447	0.7372
2456	0.7368
2465	0.7354
2474	0.7341
2483	0.7326
2492	0.7314
2501	0.7301
2510	0.7291
2519	0.728
2528	0.7267
2537	0.725
2546	0.7234
2555	0.7218
2564	0.7201
2573	0.7187
2582	0.7172
2591	0.7158
2600	0.7138
2609	0.7108
2618	0.706
2627	0.6993
2636	0.6874
2645	0.6758
2654	0.6688
2663	0.6667
2672	0.6669
2681	0.671
2690	0.678
2699	0.6821
2708	0.6835
2717	0.6825
2726	0.6805
2735	0.6787
2744	0.6784
2753	0.6784
2762	0.6792
2771	0.6774
2780	0.6754
2789	0.6732
2798	0.6701
2807	0.6668
2816	0.6638
2825	0.6606
2834	0.6575
2843	0.6543
2852	0.6512
2861	0.6482
2870	0.6451
2879	0.6418
2888	0.6388
2897	0.6356
2906	0.6324
2915	0.629
2924	0.6252
2933	0.6212
2942	0.6192
2951	0.6186
2960	0.6201
2969	0.6214
2978	0.6229
2987	0.6191
2996	0.6135
3005	0.6068
3014	0.5971
3023	0.601
3032	0.5997
3041	0.5952
3050	0.588
3059	0.5717
3068	0.5564
3077	0.5559
3086	0.5691
3095	0.5869
3104	0.5899
3113	0.5902
3122	0.589
3131	0.5869
3140	0.5832
3149	0.5768
3158	0.5754
3167	0.576
3176	0.5749
3185	0.569
3194	0.564
3203	0.5637
3212	0.5626
3221	0.5612
3230	0.5596
3239	0.5568
3248	0.5538
3257	0.5494
3266	0.5447
3275	0.5374
3284	0.5292
3293	0.5196
3302	0.5162
3311	0.5126
3320	0.4977
3329	0.4816
3338	0.4652
3347	0.4451
3356	0.4135
3365	0.3726
3374	0.3188
3383	0.1768
3392	0.0092
3401	0.1162
3410	0.435
3419	0.5488
3428	0.5527
3437	0.5491
3446	0.5423
3455	0.5331
3464	0.5131
3473	0.4847
3482	0.4353
3491	0.2435
3500	0.4012
3509	0.5348
3518	0.5424
3527	0.5447
3536	0.5448
3545	0.5439
3554	0.5433
3563	0.5422
3572	0.5419
3581	0.5417
3590	0.5409
3599	0.5393
3608	0.5374
3617	0.5355
3626	0.5338
3635	0.532
3644	0.5302
3653	0.5284
3662	0.5265
3671	0.5247
3680	0.5229
3689	0.521
3698	0.5194
3707	0.5176
3716	0.5158
3725	0.514
3734	0.5121
3743	0.51
3752	0.507
3761	0.504
3770	0.5018
3779	0.5006
3788	0.4994
3797	0.4982
