Infrared Spectrum: 1-AMINO-5-CHLOROANTHRAQUINONE
Formula: C14 H8 Cl N O2
CAS: 117-11-3
State: SOLID (KBr PELLET)
Class: COBLENTZ
Instrument: Not specified, most likely a prism, grating, or hybrid spectrometer.
Sampling: TRANSMISSION
Resolution: 4
Origin: CORN PRODUCTS COMPANY
MICROMETERS	TRANSMITTANCE
2.027	0.596
2.0608	0.605
2.09461	0.622
2.12841	0.627
2.16222	0.632
2.19602	0.641
2.22982	0.646
2.26363	0.651
2.29743	0.654
2.33124	0.666
2.36504	0.668
2.39884	0.675
2.43265	0.681
2.46645	0.688
2.50025	0.695
2.53406	0.695
2.56786	0.697
2.60167	0.7
2.63547	0.697
2.66927	0.715
2.70308	0.714
2.73688	0.717
2.77069	0.704
2.80449	0.656
2.83829	0.583
2.8721	0.53
2.9059	0.43
2.93971	0.311
2.97351	0.386
3.00731	0.45
3.04112	0.43
3.07492	0.489
3.10873	0.586
3.14253	0.612
3.17633	0.642
3.21014	0.67
3.24394	0.68
3.27774	0.69
3.31155	0.668
3.34535	0.704
3.37916	0.726
3.41296	0.738
3.44676	0.743
3.48057	0.746
3.51437	0.758
3.54818	0.75
3.58198	0.751
3.61578	0.758
3.64959	0.761
3.68339	0.756
3.7172	0.76
3.751	0.763
3.7848	0.773
3.81861	0.77
3.85241	0.767
3.88622	0.77
3.92002	0.775
3.95382	0.782
3.98763	0.784
4.02143	0.792
4.05523	0.792
4.08904	0.794
4.12284	0.79
4.15665	0.79
4.19045	0.792
4.22425	0.787
4.25806	0.795
4.29186	0.794
4.32567	0.799
4.35947	0.801
4.39327	0.794
4.42708	0.797
4.46088	0.797
4.49469	0.802
4.52849	0.802
4.56229	0.79
4.5961	0.79
4.6299	0.799
4.66371	0.794
4.69751	0.797
4.73131	0.799
4.76512	0.795
4.79892	0.799
4.83272	0.799
4.86653	0.795
4.90033	0.797
4.93414	0.795
4.96794	0.799
5.00174	0.801
5.03555	0.797
5.06935	0.794
5.10316	0.789
5.13696	0.792
5.17076	0.797
5.20457	0.801
5.23837	0.801
5.27218	0.799
5.30598	0.802
5.33978	0.802
5.37359	0.804
5.40739	0.806
5.4412	0.807
5.475	0.804
5.5088	0.811
5.54261	0.807
5.57641	0.801
5.61021	0.801
5.64402	0.802
5.67782	0.799
5.71163	0.79
5.74543	0.792
5.77923	0.78
5.81304	0.777
5.84684	0.765
5.88065	0.741
5.91445	0.697
5.94825	0.5
5.98206	0.335
6.01586	0.301
6.04967	0.459
6.08347	0.362
6.11727	0.258
6.15108	0.326
6.18488	0.353
6.21869	0.219
6.25249	0.273
6.28629	0.45
6.3201	0.387
6.3539	0.336
6.3877	0.491
6.42151	0.525
6.45531	0.386
6.48912	0.302
6.52292	0.413
6.55672	0.535
6.59053	0.612
6.62433	0.687
6.65814	0.705
6.69194	0.721
6.72574	0.727
6.75955	0.719
6.79335	0.692
6.82716	0.574
6.86096	0.467
6.89476	0.552
6.92857	0.625
6.96237	0.642
6.99618	0.603
7.02998	0.624
7.06378	0.705
7.09759	0.727
7.13139	0.736
7.16519	0.722
7.199	0.7
7.2328	0.605
7.26661	0.583
7.30041	0.6
7.33421	0.619
7.36802	0.658
7.40182	0.685
7.43563	0.687
7.46943	0.675
7.50323	0.651
7.53704	0.586
7.57084	0.355
7.60465	0.312
7.63845	0.302
7.67225	0.287
7.70606	0.343
7.73986	0.375
7.77366	0.437
7.80747	0.465
7.84127	0.442
7.87508	0.326
7.90888	0.154
7.94268	0.102
7.97649	0.112
8.01029	0.226
8.0441	0.431
8.0779	0.534
8.1117	0.588
8.14551	0.634
8.17931	0.666
8.21312	0.661
8.24692	0.581
8.28072	0.494
8.31453	0.539
8.34833	0.619
8.38214	0.646
8.41594	0.663
8.44974	0.67
8.48355	0.653
8.51735	0.602
8.55115	0.517
8.58496	0.493
8.61876	0.537
8.65257	0.605
8.68637	0.639
8.72017	0.67
8.75398	0.673
8.78778	0.651
8.82159	0.545
8.85539	0.501
8.88919	0.602
8.923	0.649
8.9568	0.678
8.99061	0.69
9.02441	0.712
9.05821	0.714
9.09202	0.714
9.12582	0.721
9.15963	0.722
9.19343	0.724
9.22723	0.727
9.26104	0.726
9.29484	0.726
9.32864	0.741
9.36245	0.738
9.39625	0.743
9.43006	0.736
9.46386	0.719
9.49766	0.704
9.53147	0.692
9.56527	0.698
9.59908	0.709
9.63288	0.707
9.66668	0.71
9.70049	0.7
9.73429	0.69
9.7681	0.681
9.8019	0.673
9.8357	0.666
9.86951	0.661
9.90331	0.664
9.93712	0.673
9.97092	0.678
10.0047	0.683
10.0385	0.687
10.0723	0.69
10.1061	0.695
10.1399	0.7
10.1737	0.705
10.2075	0.71
10.2414	0.712
10.2752	0.721
10.309	0.731
10.3428	0.741
10.3766	0.739
10.4104	0.739
10.4442	0.75
10.478	0.748
10.5118	0.746
10.5456	0.75
10.5794	0.746
10.6132	0.743
10.647	0.748
10.6808	0.751
10.7146	0.746
10.7484	0.743
10.7822	0.741
10.816	0.741
10.8498	0.721
10.8836	0.702
10.9174	0.705
10.9512	0.722
10.985	0.734
11.0188	0.746
11.0526	0.746
11.0864	0.741
11.1203	0.736
11.1541	0.739
11.1879	0.741
11.2217	0.736
11.2555	0.727
11.2893	0.719
11.3231	0.702
11.3569	0.704
11.3907	0.71
11.4245	0.717
11.4583	0.722
11.4921	0.736
11.5259	0.751
11.5597	0.75
11.5935	0.746
11.6273	0.743
11.6611	0.746
11.6949	0.746
11.7287	0.746
11.7625	0.75
11.7963	0.75
11.8301	0.748
11.8639	0.744
11.8977	0.741
11.9315	0.734
11.9654	0.741
11.9992	0.743
12.033	0.744
12.0668	0.741
12.1006	0.736
12.1344	0.729
12.1682	0.707
12.202	0.67
12.2358	0.61
12.2696	0.542
12.3034	0.457
12.3372	0.406
12.371	0.387
12.4048	0.377
12.4386	0.399
12.4724	0.528
12.5062	0.625
12.54	0.673
12.5738	0.707
12.6076	0.721
12.6414	0.727
12.6752	0.734
12.709	0.743
12.7428	0.744
12.7766	0.743
12.8104	0.731
12.8443	0.732
12.8781	0.722
12.9119	0.727
12.9457	0.729
12.9795	0.722
13.0133	0.719
13.0471	0.704
13.0809	0.637
13.1147	0.525
13.1485	0.442
13.1823	0.481
13.2161	0.579
13.2499	0.651
13.2837	0.67
13.3175	0.676
13.3513	0.663
13.3851	0.661
13.4189	0.636
13.4527	0.605
13.4865	0.578
13.5203	0.554
13.5541	0.547
13.5879	0.562
13.6217	0.593
13.6555	0.619
13.6893	0.642
13.7232	0.663
13.757	0.68
13.7908	0.687
13.8246	0.688
13.8584	0.697
13.8922	0.697
13.926	0.688
13.9598	0.659
13.9936	0.619
14.0274	0.566
14.0612	0.508
14.095	0.433
14.1288	0.374
14.1626	0.34
14.1964	0.329
14.2302	0.386
14.264	0.488
14.2978	0.595
14.3316	0.62
14.3654	0.629
14.3992	0.639
14.433	0.661
14.4668	0.673
14.5006	0.68
14.5344	0.687
14.5683	0.693
14.6021	0.702
14.6359	0.707
14.6697	0.709
14.7035	0.71
14.7373	0.71
14.7711	0.717
14.8049	0.721
14.8387	0.719
14.8725	0.717
14.9063	0.715
14.9401	0.727
14.9739	0.729
15.0077	0.726
15.0415	0.717
15.0753	0.715
15.1091	0.714
15.1429	0.714
15.1767	0.714
15.2105	0.712
15.2443	0.715
15.2781	0.721
15.3119	0.722
15.3457	0.719
15.3795	0.717
15.4133	0.719
15.4472	0.721
15.481	0.717
