Infrared Spectrum: 2,3-DICHLORO-1,4-NAPHTHOQUINONE (DICHLONE)
Formula: C10 H4 Cl2 O2
CAS: 117-80-6
State: SOLID (PELLET)
Melting point: 195-196 C
Class: COBLENTZ
Instrument: Not specified, most likely a prism, grating, or hybrid spectrometer.
Sampling: TRANSMISSION
Resolution: 4
Origin: TENNESSEE EASTMAN COMPANY, RESEARCH LABORATORIES
MICROMETERS	TRANSMITTANCE
2.007	0.818
2.0469	0.807
2.08679	0.805
2.12669	0.805
2.16659	0.808
2.20649	0.81
2.24638	0.817
2.28628	0.818
2.32618	0.82
2.36607	0.822
2.40597	0.827
2.44587	0.828
2.48577	0.83
2.52566	0.832
2.56556	0.837
2.60546	0.842
2.64535	0.843
2.68525	0.842
2.72515	0.785
2.76505	0.644
2.80494	0.558
2.84484	0.501
2.88474	0.446
2.92463	0.441
2.96453	0.509
3.00443	0.579
3.04433	0.694
3.08422	0.732
3.12412	0.769
3.16402	0.78
3.20391	0.755
3.24381	0.702
3.28371	0.779
3.32361	0.843
3.3635	0.87
3.4034	0.877
3.4433	0.878
3.48319	0.883
3.52309	0.9
3.56299	0.906
3.60289	0.908
3.64278	0.906
3.68268	0.906
3.72258	0.905
3.76247	0.898
3.80237	0.903
3.84227	0.911
3.88217	0.913
3.92206	0.91
3.96196	0.915
4.00186	0.923
4.04175	0.926
4.08165	0.93
4.12155	0.93
4.16145	0.933
4.20134	0.936
4.24124	0.938
4.28114	0.94
4.32103	0.936
4.36093	0.938
4.40083	0.941
4.44073	0.941
4.48062	0.945
4.52052	0.945
4.56042	0.945
4.60031	0.938
4.64021	0.936
4.68011	0.94
4.72001	0.938
4.7599	0.938
4.7998	0.94
4.8397	0.94
4.87959	0.936
4.91949	0.931
4.95939	0.89
4.99929	0.901
5.03918	0.885
5.07908	0.901
5.11898	0.921
5.15887	0.933
5.19877	0.935
5.23867	0.931
5.27857	0.888
5.31846	0.901
5.35836	0.938
5.39826	0.948
5.43815	0.948
5.47805	0.945
5.51795	0.94
5.55785	0.94
5.59774	0.916
5.63764	0.895
5.67754	0.906
5.71743	0.901
5.75733	0.855
5.79723	0.777
5.83713	0.455
5.87702	0.317
5.91692	0.102
5.95682	0.026
5.99671	0.245
6.03661	0.589
6.07651	0.621
6.11641	0.614
6.1563	0.631
6.1962	0.598
6.2361	0.619
6.27599	0.089
6.31589	0.43
6.35579	0.435
6.39569	0.104
6.43558	0.674
6.47548	0.724
6.51538	0.833
6.55527	0.858
6.59517	0.86
6.63507	0.865
6.67497	0.865
6.71486	0.86
6.75476	0.868
6.79466	0.892
6.83455	0.674
6.87445	0.832
6.91435	0.887
6.95425	0.893
6.99414	0.887
7.03404	0.888
7.07394	0.916
7.11383	0.911
7.15373	0.87
7.19363	0.87
7.23353	0.887
7.27342	0.888
7.31332	0.872
7.35322	0.897
7.39312	0.9
7.43301	0.878
7.47291	0.561
7.51281	0.686
7.5527	0.481
7.5926	0.519
7.6325	0.629
7.6724	0.568
7.71229	0.471
7.75219	0.176
7.79209	0.091
7.83198	0.028
7.87188	0.054
7.91178	0.259
7.95168	0.461
7.99157	0.543
8.03147	0.541
8.07137	0.289
8.11126	0.47
8.15116	0.593
8.19106	0.588
8.23096	0.573
8.27085	0.656
8.31075	0.689
8.35065	0.769
8.39054	0.812
8.43044	0.815
8.47034	0.817
8.51024	0.81
8.55013	0.794
8.59003	0.805
8.62993	0.808
8.66982	0.759
8.70972	0.337
8.74962	0.029
8.78952	0.069
8.82941	0.259
8.86931	0.558
8.90921	0.725
8.9491	0.757
8.989	0.694
9.0289	0.626
9.0688	0.702
9.10869	0.75
9.14859	0.702
9.18849	0.609
9.22838	0.752
9.26828	0.812
9.30818	0.848
9.34808	0.86
9.38797	0.877
9.42787	0.882
9.46777	0.897
9.50766	0.9
9.54756	0.9
9.58746	0.9
9.62736	0.898
9.66725	0.89
9.70715	0.898
9.74705	0.898
9.78694	0.898
9.82684	0.898
9.86674	0.883
9.90664	0.873
9.94653	0.888
9.98643	0.901
10.0263	0.905
10.0662	0.903
10.1061	0.898
10.146	0.85
10.1859	0.822
10.2258	0.853
10.2657	0.878
10.3056	0.888
10.3455	0.897
10.3854	0.898
10.4253	0.9
10.4652	0.901
10.5051	0.901
10.545	0.901
10.5849	0.901
10.6248	0.901
10.6647	0.9
10.7046	0.897
10.7445	0.897
10.7844	0.9
10.8243	0.901
10.8642	0.903
10.9041	0.905
10.944	0.905
10.9839	0.903
11.0238	0.89
11.0637	0.86
11.1035	0.838
11.1434	0.784
11.1833	0.679
11.2232	0.506
11.2631	0.367
11.303	0.3
11.3429	0.401
11.3828	0.619
11.4227	0.79
11.4626	0.857
11.5025	0.877
11.5424	0.88
11.5823	0.88
11.6222	0.873
11.6621	0.863
11.702	0.843
11.7419	0.782
11.7818	0.649
11.8217	0.486
11.8616	0.401
11.9015	0.363
11.9414	0.358
11.9813	0.342
12.0212	0.272
12.0611	0.161
12.101	0.091
12.1409	0.074
12.1808	0.134
12.2207	0.315
12.2606	0.521
12.3005	0.697
12.3404	0.782
12.3803	0.812
12.4202	0.779
12.4601	0.619
12.5	0.529
12.5398	0.403
12.5797	0.23
12.6196	0.529
12.6595	0.745
12.6994	0.805
12.7393	0.838
12.7792	0.858
12.8191	0.863
12.859	0.87
12.8989	0.882
12.9388	0.885
12.9787	0.885
13.0186	0.885
13.0585	0.888
13.0984	0.888
13.1383	0.888
13.1782	0.888
13.2181	0.888
13.258	0.888
13.2979	0.887
13.3378	0.887
13.3777	0.887
13.4176	0.887
13.4575	0.887
13.4974	0.883
13.5373	0.885
13.5772	0.883
13.6171	0.882
13.657	0.875
13.6969	0.865
13.7368	0.857
13.7767	0.845
13.8166	0.817
13.8565	0.785
13.8964	0.719
13.9362	0.593
13.9761	0.372
14.016	0.196
14.0559	0.132
14.0958	0.119
14.1357	0.139
14.1756	0.247
14.2155	0.403
14.2554	0.518
14.2953	0.639
14.3352	0.696
14.3751	0.719
14.415	0.735
14.4549	0.749
14.4948	0.762
14.5347	0.774
14.5746	0.777
14.6145	0.775
14.6544	0.769
14.6943	0.765
14.7342	0.764
14.7741	0.764
14.814	0.76
14.8539	0.759
14.8938	0.75
14.9337	0.722
14.9736	0.689
15.0135	0.674
15.0534	0.676
15.0933	0.692
15.1332	0.691
15.1731	0.677
15.213	0.657
15.2529	0.642
15.2928	0.629
15.3326	0.612
15.3725	0.601
15.4124	0.581
15.4523	0.563
15.4922	0.534
15.5321	0.498
15.572	0.451
15.6119	0.418
15.6518	0.408
15.6917	0.41
15.7316	0.436
15.7715	0.456
15.8114	0.471
15.8513	0.476
15.8912	0.478
15.9311	0.478
15.971	0.478
