Infrared Spectrum: ANTHRAQUINONE, 1,8-DIHYDROXY-
Formula: C14 H8 O4
CAS: 117-10-2
State: SOLID (KBr DISC)
Melting point: 193-197 C
Class: COBLENTZ III
Instrument: PERKIN-ELMER 21 (GRATING)
Instrument parameters: FILTER AT ABOUT 10 MICRONS
Sampling: TRANSMISSION
Resolution: 2
1/CM	TRANSMITTANCE
4000	0.9495
3991	0.9489
3982	0.9483
3973	0.9477
3964	0.9471
3955	0.9463
3946	0.9451
3937	0.944
3928	0.9428
3919	0.9415
3910	0.9408
3901	0.9406
3892	0.9404
3883	0.9403
3874	0.9401
3865	0.9399
3856	0.9399
3847	0.9397
3838	0.9392
3829	0.9389
3820	0.9386
3811	0.9381
3802	0.9377
3793	0.9372
3784	0.937
3775	0.9365
3766	0.9362
3757	0.9356
3748	0.9354
3739	0.9349
3730	0.9345
3721	0.9342
3712	0.9337
3703	0.9333
3694	0.9332
3685	0.9329
3676	0.9328
3667	0.9327
3658	0.9326
3649	0.9325
3640	0.9329
3631	0.9332
3622	0.9339
3613	0.9345
3604	0.9353
3595	0.9362
3586	0.9371
3577	0.9357
3568	0.934
3559	0.9314
3550	0.9286
3541	0.9257
3532	0.923
3523	0.9193
3514	0.9153
3505	0.9101
3496	0.9029
3487	0.8961
3478	0.8886
3469	0.8808
3460	0.8738
3451	0.8676
3442	0.8617
3433	0.8571
3424	0.8528
3415	0.8488
3406	0.8446
3397	0.841
3388	0.8412
3379	0.8352
3370	0.8342
3361	0.8333
3352	0.8348
3343	0.8392
3334	0.8471
3325	0.8543
3316	0.8603
3307	0.8643
3298	0.8685
3289	0.8727
3280	0.8759
3271	0.8775
3262	0.879
3253	0.8805
3244	0.8812
3235	0.8816
3226	0.8819
3217	0.8814
3208	0.8808
3199	0.88
3190	0.8785
3181	0.8766
3172	0.8747
3163	0.8715
3154	0.8683
3145	0.8653
3136	0.8625
3127	0.8596
3118	0.8574
3109	0.8559
3100	0.8544
3091	0.8528
3082	0.8513
3073	0.8499
3064	0.8484
3055	0.8442
3046	0.8398
3037	0.8356
3028	0.8315
3019	0.8275
3010	0.8236
3001	0.8208
2992	0.8185
2983	0.8189
2974	0.8202
2965	0.8216
2956	0.8232
2947	0.8242
2938	0.8244
2929	0.8244
2920	0.8245
2911	0.8249
2902	0.8261
2893	0.8273
2884	0.8288
2875	0.831
2866	0.8332
2857	0.8348
2848	0.8363
2839	0.8358
2830	0.8354
2821	0.8355
2812	0.8356
2803	0.8369
2794	0.8386
2785	0.8412
2776	0.8452
2767	0.8502
2758	0.8559
2749	0.859
2740	0.8584
2731	0.8565
2722	0.8541
2713	0.8523
2704	0.851
2695	0.8517
2686	0.8527
2677	0.8551
2668	0.8602
2659	0.8632
2650	0.8638
2641	0.864
2632	0.8641
2623	0.8647
2614	0.866
2605	0.8671
2596	0.8684
2587	0.8702
2578	0.8721
2569	0.8739
2560	0.875
2551	0.8762
2542	0.8772
2533	0.8782
2524	0.879
2515	0.88
2506	0.8809
2497	0.8819
2488	0.8837
2479	0.8857
2470	0.8878
2461	0.89
2452	0.8926
2443	0.8953
2434	0.898
2425	0.8998
2416	0.9
2407	0.8984
2398	0.897
2389	0.897
2380	0.8971
2371	0.8975
2362	0.8985
2353	0.9002
2344	0.8995
2335	0.8994
2326	0.9002
2317	0.901
2308	0.9028
2299	0.9047
2290	0.9066
2281	0.9085
2272	0.91
2263	0.9113
2254	0.9125
2245	0.9139
2236	0.9151
2227	0.9152
2218	0.9153
2209	0.9154
2200	0.9155
2191	0.9158
2182	0.9163
2173	0.917
2164	0.9176
2155	0.9184
2146	0.919
2137	0.9198
2128	0.9206
2119	0.9214
2110	0.9224
2101	0.9225
2092	0.9226
2083	0.9225
2074	0.9225
2065	0.9227
2056	0.9229
2047	0.9232
2038	0.924
2029	0.9253
2020	0.9268
2011	0.9278
2002	0.9286
1993	0.9288
1984	0.9281
1975	0.923
1966	0.9092
1957	0.91
1948	0.9203
1939	0.9284
1930	0.932
1921	0.9316
1912	0.9312
1903	0.9287
1894	0.9247
1885	0.924
1876	0.9309
1867	0.9361
1858	0.9385
1849	0.9384
1840	0.938
1831	0.9347
1822	0.9303
1813	0.9291
1804	0.9314
1795	0.9362
1786	0.941
1777	0.9459
1768	0.9473
1759	0.9321
1750	0.9219
1741	0.9296
1732	0.9308
1723	0.9308
1714	0.9328
1705	0.9363
1696	0.9247
1687	0.8739
1678	0.7071
1669	0.6351
1660	0.7829
1651	0.7948
1642	0.6928
1633	0.5005
1624	0.3335
1615	0.3449
1606	0.4575
1597	0.4408
1588	0.5971
1579	0.6755
1570	0.6295
1561	0.6454
1552	0.725
1543	0.7465
1534	0.7649
1525	0.7815
1516	0.7958
1507	0.8008
1498	0.7888
1489	0.7394
1480	0.6319
1471	0.4606
1462	0.3781
1453	0.4517
1444	0.4718
1435	0.5434
1426	0.7187
1417	0.7691
1408	0.813
1399	0.8198
1390	0.7699
1381	0.5875
1372	0.5888
1363	0.6617
1354	0.5923
1345	0.6114
1336	0.658
1327	0.7719
1318	0.7791
1309	0.6832
1300	0.4804
1291	0.4589
1282	0.3522
1273	0.3068
1264	0.2978
1255	0.3674
1246	0.4716
1237	0.5464
1228	0.5852
1219	0.6045
1210	0.4964
1201	0.4401
1192	0.5079
1183	0.584
1174	0.6613
1165	0.6518
1156	0.4823
1147	0.5889
1138	0.6584
1129	0.7054
1120	0.7336
1111	0.7529
1102	0.767
1093	0.7672
1084	0.7839
1075	0.6391
1066	0.7593
1057	0.6586
1048	0.7643
1039	0.79
1030	0.6906
1021	0.7733
1012	0.8136
1003	0.8291
994	0.8486
985	0.8346
976	0.6787
967	0.7978
958	0.85
949	0.8697
940	0.8786
931	0.8867
922	0.8673
913	0.8833
904	0.8981
895	0.9094
886	0.9201
877	0.9249
868	0.9334
859	0.9346
850	0.7266
841	0.7939
832	0.7914
823	0.8471
814	0.6594
805	0.7532
796	0.8369
787	0.6054
778	0.4951
769	0.541
760	0.6206
751	0.6866
742	0.3846
733	0.6526
724	0.7338
715	0.7752
706	0.7859
697	0.7726
688	0.8194
679	0.8421
670	0.849
661	0.8417
