Infrared Spectrum: 1,3-ISOBENZOFURANDIONE, TETRACHLORO-
Formula: C8 Cl4 O3
CAS: 117-08-8
State: SOLID (SPLIT MULL: FLUOROLUBE FOR 3800-1333 CM^-^1, NUJOL FOR 1333-430 CM^-^1)
Class: COBLENTZ III
Instrument: Not specified, most likely a prism, grating, or hybrid spectrometer.
Sampling: TRANSMISSION
Resolution: 4
Origin: DOW CHEMICAL COMPANY
1/CM	TRANSMITTANCE
434.039	0.94
442.589	0.936
451.14	0.915
459.69	0.833
468.241	1.0448
476.791	1.072
485.342	1.072
493.892	1.074
502.443	1.086
510.993	1.086
519.544	1.084
528.094	1.076
536.645	1.08
545.195	1.082
553.746	1.084
562.296	1.082
570.847	1.08
579.397	1.072
587.948	0.8674
596.498	1.084
605.049	1.067
613.599	0.9751
622.15	1.055
630.7	1.049
639.251	1.0147
647.801	1.059
656.352	1.063
664.902	1.053
673.453	1.063
682.003	1.074
690.554	1.059
699.104	1.044
707.655	1.001
716.205	0.896
724.756	0.8251
733.306	0.1369
741.857	0.1993
750.407	1.019
758.958	0.3125
767.508	1.065
776.059	1.07
784.609	1.068
793.16	1.053
801.71	1.065
810.261	1.072
818.811	1.068
827.362	1.059
835.912	1.057
844.463	1.051
853.013	1.055
861.564	1.047
870.114	1.036
878.665	1.026
887.215	1.005
895.766	0.965
904.316	0.892
912.867	0.45
921.417	0.216
929.968	0.3847
938.518	0.9109
947.069	0.714
955.619	0.6261
964.17	0.7948
972.72	0.921
981.271	1.011
989.821	1.021
998.372	1.024
1006.92	1.019
1015.47	1.026
1024.02	1.026
1032.57	1.015
1041.12	0.996
1049.67	0.996
1058.23	1.005
1066.78	1.005
1075.33	0.996
1083.88	1.011
1092.43	1
1100.98	0.996
1109.53	0.977
1118.08	0.973
1126.63	0.961
1135.18	0.944
1143.73	0.936
1152.28	0.9171
1160.83	0.844
1169.38	0.72
1177.93	0.6641
1186.48	0.8829
1195.03	0.766
1203.58	0.685
1212.13	0.5221
1220.68	0.193
1229.23	0.308
1237.79	0.1928
1246.34	0.871
1254.89	0.875
1263.44	0.89
1271.99	0.8351
1280.54	0.762
1289.09	0.534
1297.64	0.2982
1306.19	0.7677
1314.74	0.932
1323.29	0.932
1331.84	0.873
1340.39	0.833
1348.94	0.814
1357.49	0.791
1366.04	0.591
1374.59	0.306
1383.14	0.7364
1391.69	0.7062
1400.24	0.94
1408.8	0.99
1417.35	1.003
1425.9	1.007
1434.45	1
1443	1.003
1451.55	1.005
1460.1	1.005
1468.65	1
1477.2	1.003
1485.75	1
1494.3	1.001
1502.85	1
1511.4	0.994
1519.95	0.988
1528.5	0.982
1537.05	0.973
1545.6	0.961
1554.15	0.98
1562.7	0.978
1571.25	0.963
1579.81	0.955
1588.36	0.961
1596.91	0.965
1605.46	0.965
1614.01	0.963
1622.56	0.969
1631.11	0.954
1639.66	0.952
1648.21	0.938
1656.76	0.94
1665.31	0.934
1673.86	0.919
1682.41	0.902
1690.96	0.883
1699.51	0.867
1708.06	0.863
1716.61	0.798
1725.16	0.777
1733.71	0.764
1742.26	0.727
1750.82	0.5531
1759.37	0.54
1767.92	0.229
1776.47	0.181
1785.02	0.4107
1793.57	0.5009
1802.12	0.745
1810.67	0.72
1819.22	0.796
1827.77	0.808
1836.32	0.611
1844.87	0.664
1853.42	0.62
1861.97	0.8557
1870.52	0.957
1879.07	0.977
1887.62	0.992
1896.17	1.007
1904.72	0.967
1913.27	0.942
1921.82	0.9799
1930.38	1.021
1938.93	1.026
1947.48	1.024
1956.03	0.9881
1964.58	1.015
1973.13	1.013
1981.68	1.005
1990.23	1.015
1998.78	0.994
2007.33	0.992
2015.88	0.9819
2024.43	0.986
2032.98	0.984
2041.53	0.984
2050.08	0.981
2058.63	0.978
2067.18	0.9788
2075.73	0.971
2084.28	0.9601
2092.83	0.9541
2101.39	0.9599
2109.94	0.9572
2118.49	0.9503
2127.04	0.944
2135.59	0.9449
2144.14	0.9568
2152.69	0.952
2161.24	0.9482
2169.79	0.944
2178.34	0.9402
2186.89	0.9392
2195.44	0.938
2203.99	0.938
2212.54	0.9342
2221.09	0.929
2229.64	0.927
2238.19	0.9207
2246.74	0.917
2255.29	0.915
2263.84	0.913
2272.4	0.9084
2280.95	0.9067
2289.5	0.9042
2298.05	0.9008
2306.6	0.894
2315.15	0.8983
2323.7	0.8796
2332.25	0.898
2340.8	0.8915
2349.35	0.8964
2357.9	0.8913
2366.45	0.9547
2375	0.8953
2383.55	0.892
2392.1	0.8907
2400.65	0.894
2409.2	0.886
2417.75	0.8852
2426.3	0.886
2434.85	0.886
2443.41	0.885
2451.96	0.885
2460.51	0.8824
2469.06	0.8774
2477.61	0.8764
2486.16	0.875
2494.71	0.8724
2503.26	0.8675
2511.81	0.867
2520.36	0.867
2528.91	0.867
2537.46	0.867
2546.01	0.865
2554.56	0.862
2563.11	0.862
2571.66	0.862
2580.21	0.862
2588.76	0.86
2597.31	0.86
2605.86	0.8586
2614.41	0.8575
2622.97	0.856
2631.52	0.854
2640.07	0.854
2648.62	0.8516
2657.17	0.8466
2665.72	0.8444
2674.27	0.844
2682.82	0.842
2691.37	0.8376
2699.92	0.837
2708.47	0.8356
2717.02	0.8326
2725.57	0.829
2734.12	0.827
2742.67	0.825
2751.22	0.8253
2759.77	0.827
2768.32	0.8264
2776.87	0.821
2785.42	0.8207
2793.98	0.818
2802.53	0.816
2811.08	0.8127
2819.63	0.8097
2828.18	0.8048
2836.73	0.7977
2845.28	0.7938
2853.83	0.791
2862.38	0.793
2870.93	0.796
2879.48	0.796
2888.03	0.7948
2896.58	0.7898
2905.13	0.7848
2913.68	0.7758
2922.23	0.772
2930.78	0.7742
2939.33	0.779
2947.88	0.777
2956.43	0.777
2964.99	0.7861
2973.54	0.789
2982.09	0.787
2990.64	0.789
2999.19	0.789
3007.74	0.789
3016.29	0.7879
3024.84	0.7829
3033.39	0.781
3041.94	0.781
3050.49	0.781
3059.04	0.7809
3067.59	0.777
3076.14	0.777
3084.69	0.778
3093.24	0.777
3101.79	0.776
3110.34	0.772
3118.89	0.769
3127.44	0.768
3135.99	0.766
3144.55	0.764
3153.1	0.762
3161.65	0.76
3170.2	0.758
3178.75	0.7561
3187.3	0.7531
3195.85	0.749
3204.4	0.747
3212.95	0.747
3221.5	0.7401
3230.05	0.737
3238.6	0.735
3247.15	0.735
3255.7	0.733
3264.25	0.7271
3272.8	0.724
3281.35	0.722
3289.9	0.7192
3298.45	0.7162
3307	0.716
3315.56	0.712
3324.11	0.71
3332.66	0.708
3341.21	0.708
3349.76	0.7062
3358.31	0.7036
3366.86	0.7012
3375.41	0.7002
3383.96	0.699
3392.51	0.697
3401.06	0.6953
3409.61	0.6943
3418.16	0.6913
3426.71	0.689
3435.26	0.689
3443.81	0.687
3452.36	0.6853
3460.91	0.685
3469.46	0.683
3478.01	0.683
3486.57	0.683
3495.12	0.6823
3503.67	0.6785
3512.22	0.6774
3520.77	0.676
3529.32	0.6714
3537.87	0.67
3546.42	0.6694
3554.97	0.668
3563.52	0.668
3572.07	0.658
3580.62	0.655
3589.17	0.6566
3597.72	0.662
3606.27	0.664
3614.82	0.666
3623.37	0.66
3631.92	0.664
3640.47	0.662
3649.02	0.664
3657.58	0.662
3666.13	0.66
3674.68	0.6592
3683.23	0.6592
3691.78	0.656
3700.33	0.653
3708.88	0.653
3717.43	0.653
3725.98	0.657
3734.53	0.655
3743.08	0.651
3751.63	0.649
3760.18	0.647
3768.73	0.645
3777.28	0.6436
3785.83	0.6426
