Infrared Spectrum: 1-AMINO-8-CHLOROANTHRAQUINONE
Formula: C14 H8 Cl O2 N
CAS: 117-09-9
State: SOLID (KBr PELLET)
Class: COBLENTZ
Instrument: Not specified, most likely a prism, grating, or hybrid spectrometer.
Sampling: TRANSMISSION
Resolution: 4
Origin: CORN PRODUCTS COMPANY
MICROMETERS	TRANSMITTANCE
2.034	0.721
2.0678	0.726
2.10161	0.731
2.13541	0.743
2.16922	0.747
2.20302	0.748
2.23682	0.752
2.27063	0.755
2.30443	0.758
2.33824	0.758
2.37204	0.764
2.40585	0.765
2.43965	0.765
2.47345	0.772
2.50726	0.77
2.54106	0.772
2.57487	0.769
2.60867	0.772
2.64247	0.772
2.67628	0.774
2.71008	0.772
2.74389	0.764
2.77769	0.755
2.81149	0.677
2.8453	0.58
2.8791	0.524
2.91291	0.431
2.94671	0.37
2.98052	0.414
3.01432	0.47
3.04812	0.475
3.08193	0.594
3.11573	0.638
3.14954	0.667
3.18334	0.697
3.21714	0.728
3.25095	0.741
3.28475	0.748
3.31856	0.753
3.35236	0.762
3.38616	0.77
3.41997	0.779
3.45377	0.78
3.48758	0.78
3.52138	0.786
3.55519	0.787
3.58899	0.791
3.62279	0.792
3.6566	0.794
3.6904	0.796
3.72421	0.797
3.75801	0.797
3.79181	0.797
3.82562	0.797
3.85942	0.797
3.89323	0.797
3.92703	0.797
3.96083	0.797
3.99464	0.797
4.02844	0.797
4.06225	0.799
4.09605	0.799
4.12986	0.803
4.16366	0.799
4.19746	0.799
4.23127	0.801
4.26507	0.799
4.29888	0.797
4.33268	0.797
4.36648	0.799
4.40029	0.799
4.43409	0.801
4.4679	0.803
4.5017	0.804
4.5355	0.803
4.56931	0.803
4.60311	0.803
4.63692	0.803
4.67072	0.803
4.70453	0.803
4.73833	0.803
4.77213	0.803
4.80594	0.801
4.83974	0.797
4.87355	0.797
4.90735	0.799
4.94115	0.799
4.97496	0.799
5.00876	0.799
5.04257	0.799
5.07637	0.799
5.11017	0.797
5.14398	0.797
5.17778	0.799
5.21159	0.801
5.24539	0.801
5.2792	0.801
5.313	0.806
5.3468	0.809
5.38061	0.808
5.41441	0.806
5.44822	0.808
5.48202	0.806
5.51582	0.804
5.54963	0.804
5.58343	0.801
5.61724	0.801
5.65104	0.799
5.68484	0.799
5.71865	0.797
5.75245	0.796
5.78626	0.792
5.82006	0.789
5.85387	0.772
5.88767	0.757
5.92147	0.735
5.95528	0.602
5.98908	0.441
6.02289	0.446
6.05669	0.488
6.09049	0.388
6.1243	0.373
6.1581	0.409
6.19191	0.373
6.22571	0.331
6.25951	0.427
6.29332	0.512
6.32712	0.465
6.36093	0.483
6.39473	0.573
6.42854	0.585
6.46234	0.516
6.49614	0.555
6.52995	0.636
6.56375	0.691
6.59756	0.731
6.63136	0.752
6.66516	0.753
6.69897	0.765
6.73277	0.769
6.76658	0.76
6.80038	0.724
6.83418	0.662
6.86799	0.65
6.90179	0.692
6.9356	0.691
6.9694	0.719
7.00321	0.713
7.03701	0.726
7.07081	0.748
7.10462	0.757
7.13842	0.76
7.17223	0.76
7.20603	0.73
7.23983	0.677
7.27364	0.67
7.30744	0.687
7.34125	0.702
7.37505	0.709
7.40885	0.658
7.44266	0.587
7.47646	0.56
7.51027	0.56
7.54407	0.55
7.57788	0.492
7.61168	0.404
7.64548	0.346
7.67929	0.461
7.71309	0.548
7.7469	0.568
7.7807	0.595
7.8145	0.604
7.84831	0.572
7.88211	0.497
7.91592	0.324
7.94972	0.224
7.98352	0.237
8.01733	0.383
8.05113	0.49
8.08494	0.585
8.11874	0.629
8.15255	0.648
8.18635	0.648
8.22015	0.64
8.25396	0.66
8.28776	0.689
8.32157	0.702
8.35537	0.719
8.38917	0.723
8.42298	0.724
8.45678	0.711
8.49059	0.687
8.52439	0.675
8.55819	0.67
8.592	0.682
8.6258	0.692
8.65961	0.697
8.69341	0.702
8.72722	0.701
8.76102	0.687
8.79482	0.663
8.82863	0.65
8.86243	0.653
8.89624	0.675
8.93004	0.701
8.96384	0.714
8.99765	0.721
9.03145	0.723
9.06526	0.726
9.09906	0.733
9.13286	0.74
9.16667	0.741
9.20047	0.741
9.23428	0.745
9.26808	0.747
9.30189	0.741
9.33569	0.743
9.36949	0.743
9.4033	0.743
9.4371	0.741
9.47091	0.731
9.50471	0.728
9.53851	0.728
9.57232	0.731
9.60612	0.731
9.63993	0.735
9.67373	0.733
9.70753	0.726
9.74134	0.718
9.77514	0.707
9.80895	0.694
9.84275	0.689
9.87656	0.696
9.91036	0.701
9.94416	0.709
9.97797	0.716
10.0118	0.721
10.0456	0.723
10.0794	0.723
10.1132	0.723
10.147	0.724
10.1808	0.728
10.2146	0.731
10.2484	0.733
10.2822	0.736
10.316	0.74
10.3498	0.741
10.3836	0.745
10.4174	0.75
10.4512	0.75
10.485	0.752
10.5188	0.752
10.5526	0.752
10.5864	0.752
10.6202	0.752
10.6541	0.757
10.6879	0.757
10.7217	0.757
10.7555	0.752
10.7893	0.75
10.8231	0.75
10.8569	0.748
10.8907	0.738
10.9245	0.728
10.9583	0.718
10.9921	0.711
11.0259	0.709
11.0597	0.716
11.0935	0.723
11.1273	0.728
11.1611	0.73
11.1949	0.733
11.2287	0.736
11.2625	0.736
11.2963	0.736
11.3301	0.738
11.3639	0.738
11.3977	0.74
11.4315	0.743
11.4653	0.75
11.4992	0.752
11.533	0.752
11.5668	0.753
11.6006	0.753
11.6344	0.752
11.6682	0.752
11.702	0.75
11.7358	0.743
11.7696	0.738
11.8034	0.731
11.8372	0.719
11.871	0.663
11.9048	0.617
11.9386	0.65
11.9724	0.714
12.0062	0.733
12.04	0.741
12.0738	0.748
12.1076	0.748
12.1414	0.748
12.1752	0.747
12.209	0.743
12.2428	0.74
12.2766	0.731
12.3105	0.714
12.3443	0.711
12.3781	0.707
12.4119	0.707
12.4457	0.706
12.4795	0.707
12.5133	0.699
12.5471	0.687
12.5809	0.672
12.6147	0.653
12.6485	0.645
12.6823	0.641
12.7161	0.665
12.7499	0.691
12.7837	0.702
12.8175	0.716
12.8513	0.721
12.8851	0.724
12.9189	0.731
12.9527	0.735
12.9865	0.736
13.0203	0.738
13.0541	0.733
13.0879	0.728
13.1218	0.713
13.1556	0.714
13.1894	0.714
13.2232	0.711
13.257	0.687
13.2908	0.657
13.3246	0.623
13.3584	0.585
13.3922	0.56
13.426	0.521
13.4598	0.466
13.4936	0.424
13.5274	0.404
13.5612	0.55
13.595	0.606
13.6288	0.64
13.6626	0.668
13.6964	0.684
13.7302	0.692
13.764	0.699
13.7978	0.702
13.8316	0.699
13.8654	0.694
13.8992	0.692
13.933	0.694
13.9669	0.694
14.0007	0.692
14.0345	0.685
14.0683	0.67
14.1021	0.662
14.1359	0.662
14.1697	0.685
14.2035	0.701
14.2373	0.713
14.2711	0.721
14.3049	0.726
14.3387	0.73
14.3725	0.73
14.4063	0.73
14.4401	0.73
14.4739	0.728
14.5077	0.726
14.5415	0.719
14.5753	0.718
14.6091	0.716
14.6429	0.716
14.6767	0.716
14.7105	0.718
14.7443	0.718
14.7782	0.718
14.812	0.718
14.8458	0.718
14.8796	0.718
14.9134	0.718
14.9472	0.716
14.981	0.713
15.0148	0.711
15.0486	0.707
15.0824	0.702
15.1162	0.699
15.15	0.687
15.1838	0.68
15.2176	0.663
15.2514	0.657
15.2852	0.663
15.319	0.674
15.3528	0.691
15.3866	0.694
15.4204	0.699
15.4542	0.702
15.488	0.701
