Infrared Spectrum: Bis(2-ethylhexyl)phthalate
Formula: C 24 H 38 O 4
CAS: 117-81-7
State: gas
Instrument: HP-GC/MS/IRD
Origin: NIST Mass Spectrometry Data Center
1/CM	ABSORBANCE
550	0.00053
562	3.18e-05
574	0.0002279
586	0.0002226
598	0.0001484
610	0.0001007
622	0.0001378
634	0.0001484
646	0.0007367
658	0.0005353
670	0.0004717
682	0.0009964
694	0.0026924
706	0.0028408
718	0.0029309
730	0.0045633
742	0.0068688
754	0.0046852
766	0.0035457
778	0.0035139
790	0.0027984
802	0.0018603
814	0.0014893
826	0.0013568
838	0.0011713
850	0.0011554
862	0.0012296
874	0.001166
886	0.0011925
898	0.0014469
910	0.0017013
922	0.0021147
934	0.0026235
946	0.0035351
958	0.0043036
970	0.0033655
982	0.0029468
994	0.0026129
1006	0.0024115
1018	0.0026818
1030	0.0045951
1042	0.0085224
1054	0.0102343
1066	0.0253711
1078	0.0140715
1090	0.0074836
1102	0.0115964
1114	0.028461
1126	0.0302895
1138	0.0196736
1150	0.0085436
1162	0.0049873
1174	0.0030051
1186	0.002809
1198	0.0032542
1210	0.0044679
1222	0.0072504
1234	0.0150255
1246	0.0299344
1258	0.0460782
1270	0.0523693
1282	0.0454475
1294	0.0279522
1306	0.0134037
1318	0.0075684
1330	0.0050986
1342	0.0042612
1354	0.0035934
1366	0.0036252
1378	0.0054696
1390	0.0057929
1402	0.0026924
1414	0.0020193
1426	0.002067
1438	0.0030316
1450	0.0055703
1462	0.0077592
1474	0.0063388
1486	0.0034662
1498	0.0019981
1510	0.0013833
1522	0.001166
1534	0.0009911
1546	0.0008851
1558	0.0009593
1570	0.0016006
1582	0.002173
1594	0.0016271
1606	0.0014575
1618	0.0009328
1630	0.0008798
1642	0.0008904
1654	0.0010017
1666	0.0011978
1678	0.0015264
1690	0.0022366
1702	0.0038372
1714	0.0065932
1726	0.0145432
1738	0.041234
1750	0.0412393
1762	0.013621
1774	0.0056657
1786	0.0030051
1798	0.0018444
1810	0.0013038
1822	0.0010547
1834	0.000901
1846	0.0006201
1858	0.0006148
1870	0.000477
1882	0.000371
1894	0.0003445
1906	0.0003869
1918	0.0003763
1930	0.0005671
1942	0.0004611
1954	0.000371
1966	0.0004187
1978	0.000212
1990	0.0001749
2002	0.000159
2014	0.0001908
2026	0.0001961
2038	0.0002014
2050	0.0001961
2062	0.0002332
2074	0.0002438
2086	0.0002438
2098	0.0002385
2110	0.0002226
2122	0.0001855
2134	0.0001749
2146	0.0001378
2158	0.0001431
2170	0.0001696
2182	0.0001484
2194	0.0001537
2206	0.0001431
2218	0.0001378
2230	0.0001272
2242	0.0001484
2254	0.0001378
2266	0.000106
2278	0.000106
2290	0.0001166
2302	0.0001643
2314	0.0001537
2326	0.0002332
2338	0.0001696
2350	0.0002173
2362	0.0001908
2374	0.0001908
2386	0.0001961
2398	0.0001855
2410	0.0001855
2422	0.0001325
2434	0.0001007
2446	7.95e-05
2458	3.18e-05
2470	5.83e-05
2482	4.24e-05
2494	5.83e-05
2506	9.01e-05
2518	0.0001219
2530	0.000106
2542	0.000159
2554	0.0001961
2566	0.0002067
2578	0.0002385
2590	0.0002597
2602	0.0002809
2614	0.0002968
2626	0.000265
2638	0.0003021
2650	0.0003657
2662	0.000424
2674	0.0004611
2686	0.0004558
2698	0.0004717
2710	0.0005777
2722	0.0006095
2734	0.000742
2746	0.0008427
2758	0.0008745
2770	0.0008798
2782	0.0009964
2794	0.0011448
2806	0.0014734
2818	0.0018974
2830	0.0026341
2842	0.003922
2854	0.0072769
2866	0.01431
2878	0.0162074
2890	0.0158735
2902	0.0149725
2914	0.019133
2926	0.0277985
2938	0.0348581
2950	0.0286624
2962	0.0317629
2974	0.0305121
2986	0.012508
2998	0.0061904
3010	0.0036464
3022	0.002703
3034	0.0024062
3046	0.0019875
3058	0.0020776
3070	0.0032277
3082	0.003445
3094	0.0014522
3106	0.0011077
3118	0.0008162
3130	0.0006625
3142	0.0006731
3154	0.0006095
3166	0.00053
3178	0.0004823
3190	0.0004505
3202	0.000318
3214	0.0002703
3226	0.0002173
3238	0.000212
3250	0.0001696
3262	0.000212
3274	0.0001378
3286	0.0001696
3298	0.0001431
3310	0.0001749
3322	0.0002014
3334	0.0001908
3346	0.0001537
3358	0.000159
3370	0.0001219
3382	0.0001537
3394	0.0001537
3406	0.0001749
3418	0.0001749
3430	0.000212
3442	0.0002756
3454	0.0003869
3466	0.000424
3478	0.0004611
3490	0.0003604
3502	0.0002332
3514	0.0002067
3526	0.0001272
3538	0.000106
3550	8.48e-05
3562	7.42e-05
3574	7.42e-05
3586	3.18e-05
3598	0.0001219
3610	0.0001007
3622	7.95e-05
3634	9.01e-05
3646	7.95e-05
3658	0.0001113
3670	6.89e-05
3682	0.0001431
3694	0.0001855
3706	0.0001166
3718	0.0001166
3730	0.0001272
3742	0.0001378
3754	0.0001219
3766	0.0001484
3778	0.0001219
3790	0.000106
3802	6.89e-05
3814	0.0001219
3826	0.0001484
3838	0.0001378
