Infrared Spectrum: Benzoic acid, p-(Alpha-ethoxy-p-phenylphenacylamino)-
Formula: C23 H21 N O4
CAS: 1174-11-4
State: SOLID (NUJOL MULL)
Class: COBLENTZ
Instrument: PERKIN-ELMER 21 (GRATING)
Instrument parameters: NaCl PRISM
Sampling: TRANSMISSION
Resolution: 2
Origin: SMITH KLINE & FRENCH LABS.
1/CM	TRANSMITTANCE
666	0.6084
675	0.7086
684	0.7109
693	0.4169
702	0.6031
711	0.5174
720	0.6764
729	0.46
738	0.7356
747	0.6456
756	0.4582
765	0.6548
774	0.4023
783	0.7545
792	0.8141
801	0.815
810	0.7765
819	0.6183
828	0.6946
837	0.7234
846	0.3514
855	0.6328
864	0.7528
873	0.747
882	0.7231
891	0.6842
900	0.527
909	0.6042
918	0.6825
927	0.6506
936	0.5756
945	0.4938
954	0.455
963	0.6023
972	0.4489
981	0.5487
990	0.5449
999	0.4144
1008	0.5273
1017	0.6043
1026	0.5808
1035	0.4861
1044	0.3293
1053	0.211
1062	0.3297
1071	0.4396
1080	0.5681
1089	0.5443
1098	0.4918
1107	0.5459
1116	0.5564
1125	0.526
1134	0.5062
1143	0.3585
1152	0.1698
1161	0.3136
1170	0.4649
1179	0.291
1188	0.5687
1197	0.6704
1206	0.6521
1215	0.5749
1224	0.3688
1233	0.5371
1242	0.564
1251	0.4879
1260	0.4392
1269	0.3907
1278	0.2893
1287	0.1602
1296	0.1323
1305	0.2787
1314	0.1486
1323	0.2495
1332	0.3693
1341	0.5555
1350	0.5704
1359	0.5053
1368	0.4198
1377	0.3032
1386	0.3732
1395	0.4171
1404	0.3439
1413	0.3327
1422	0.2665
1431	0.3608
1440	0.3346
1449	0.2635
1458	0.2179
1467	0.2294
1476	0.2429
1485	0.2776
1494	0.4464
1503	0.6037
1512	0.5658
1521	0.36
1530	0.3418
1539	0.6006
1548	0.6328
1557	0.5876
1566	0.5756
1575	0.4975
1584	0.4323
1593	0.3317
1602	0.1654
1611	0.1193
1620	0.3386
1629	0.6063
1638	0.614
1647	0.497
1656	0.3691
1665	0.2798
1674	0.1142
1683	0.1399
1692	0.2817
1701	0.555
1710	0.7231
1719	0.7932
1728	0.8125
1737	0.8166
1746	0.8168
1755	0.8157
1764	0.8088
1773	0.7986
1782	0.7886
1791	0.7774
1800	0.7699
1809	0.7674
1818	0.7662
1827	0.7655
1836	0.7645
1845	0.7631
1854	0.7597
1863	0.7488
1872	0.7386
1881	0.7357
1890	0.7364
1899	0.7382
1908	0.7356
1917	0.7306
1926	0.7311
1935	0.7327
1944	0.734
1953	0.7349
1962	0.7355
1971	0.7352
1980	0.7338
1989	0.731
1998	0.7269
2007	0.7222
2016	0.7179
2025	0.7138
2034	0.7098
2043	0.7059
2052	0.702
2061	0.6989
2070	0.6965
2079	0.6947
2088	0.6926
2097	0.6904
2106	0.6877
2115	0.6835
2124	0.6768
2133	0.6694
2142	0.6656
2151	0.6621
2160	0.6585
2169	0.6546
2178	0.6506
2187	0.6469
2196	0.6434
2205	0.6395
2214	0.6353
2223	0.6311
2232	0.6259
2241	0.6208
2250	0.6159
2259	0.6111
2268	0.6056
2277	0.5978
2286	0.5874
2295	0.5792
2304	0.5733
2313	0.5687
2322	0.5653
2331	0.5626
2340	0.5605
2349	0.5591
2358	0.556
2367	0.5513
2376	0.5443
2385	0.5362
2394	0.5266
2403	0.5184
2412	0.5121
2421	0.5067
2430	0.5015
2439	0.4946
2448	0.4865
2457	0.4759
2466	0.4676
2475	0.4592
2484	0.4484
2493	0.4372
2502	0.4254
2511	0.4133
2520	0.4033
2529	0.4
2538	0.4004
2547	0.4038
2556	0.4163
2565	0.4281
2574	0.4277
2583	0.4267
2592	0.4255
2601	0.424
2610	0.4223
2619	0.4198
2628	0.4167
2637	0.4129
2646	0.4117
2655	0.4129
2664	0.4176
2673	0.4257
2682	0.4334
2691	0.4371
2700	0.4365
2709	0.4353
2718	0.433
2727	0.4304
2736	0.4272
2745	0.4201
2754	0.4088
2763	0.3957
2772	0.3812
2781	0.3536
2790	0.3302
2799	0.3147
2808	0.3054
2817	0.2328
2826	0.1469
2835	0.1223
2844	0.1113
2853	0.1091
2862	0.1077
2871	0.1061
2880	0.1045
2889	0.1029
2898	0.1014
2907	0.1
2916	0.1003
2925	0.1015
2934	0.1033
2943	0.1062
2952	0.1177
2961	0.1678
2970	0.2229
2979	0.2811
2988	0.302
2997	0.3184
3006	0.3338
3015	0.3468
3024	0.3515
3033	0.3554
3042	0.3596
3051	0.3708
3060	0.3824
3069	0.3995
3078	0.4088
3087	0.418
3096	0.4405
3105	0.4495
3114	0.4526
3123	0.4553
3132	0.458
3141	0.4607
3150	0.4636
3159	0.4665
3168	0.4695
3177	0.473
3186	0.4767
3195	0.4804
3204	0.484
3213	0.4866
3222	0.489
3231	0.4894
3240	0.4882
3249	0.4866
3258	0.4848
3267	0.4827
3276	0.4802
3285	0.4776
3294	0.4747
3303	0.4709
3312	0.4671
3321	0.4613
3330	0.4551
3339	0.4476
3348	0.4401
3357	0.427
3366	0.4026
3375	0.3784
3384	0.3545
3393	0.3476
3402	0.3768
3411	0.4313
3420	0.4855
3429	0.4955
3438	0.4946
3447	0.4919
3456	0.4892
3465	0.4877
3474	0.4853
3483	0.4797
3492	0.4738
3501	0.4696
3510	0.468
3519	0.4664
3528	0.4649
3537	0.4633
3546	0.4617
3555	0.4601
3564	0.4585
3573	0.4566
3582	0.4548
3591	0.453
3600	0.4511
3609	0.4492
3618	0.4472
3627	0.4454
3636	0.4434
3645	0.4415
3654	0.4397
3663	0.4378
3672	0.436
3681	0.4341
3690	0.4323
3699	0.4305
3708	0.429
3717	0.4276
3726	0.4263
3735	0.4249
3744	0.4236
3753	0.4223
3762	0.4207
3771	0.4192
3780	0.4176
3789	0.4161
3798	0.4145
3807	0.413
3816	0.4115
3825	0.4099
3834	0.4083
3843	0.4068
3852	0.4052
3861	0.4037
3870	0.402
3879	0.4005
3888	0.399
3897	0.3975
3906	0.3959
3915	0.3944
3924	0.3929
3933	0.3914
3942	0.3899
3951	0.3884
3960	0.3868
3969	0.3851
3978	0.3834
3987	0.3817
3996	0.3801
