Infrared Spectrum: 3-Chloro-4-fluorobenzonitrile
Formula: C 7 H 3 Cl F N
CAS: 117482-84-5
State: gas
Origin: EPA-IR VAPOR PHASE LIBRARY
1/CM	ABSORBANCE
549.8	0.0010225
559.445	0.001263
569.09	0.002923
578.735	0.003903
588.38	0.004653
598.025	0.004793
607.67	0.002533
617.315	0.0010241
626.96	0.0004241
636.605	0.00019378
646.251	0
655.896	0.0003664
665.541	0.001643
675.186	0.002183
684.831	0.001603
694.476	0.002273
704.121	0.003973
713.766	0.005153
723.411	0.006173
733.056	0.010983
742.701	0.010753
752.346	0.009683
761.991	0.007123
771.636	0.001443
781.281	0.0007237
790.926	0.0008702
800.571	0.002083
810.216	0.007643
819.861	0.016523
829.507	0.015283
839.152	0.007373
848.797	0.001713
858.442	0.001803
868.087	0.004913
877.732	0.011083
887.377	0.017943
897.022	0.010723
906.667	0.003513
916.312	0.001353
925.957	0.0009964
935.602	0.0005943
945.247	0.0005193
954.892	0.0002587
964.537	0.00017915
974.182	0.00022616
983.827	0.0003081
993.472	0.00024308
1003.12	0.0001189
1012.76	4.5e-05
1022.41	0.00019837
1032.05	0.00023422
1041.7	0.000801
1051.34	0.003603
1060.99	0.010753
1070.63	0.011563
1080.28	0.003923
1089.92	0.0006686
1099.57	0.0003017
1109.21	0.0004271
1118.86	0.002183
1128.5	0.003013
1138.15	0.002303
1147.79	0.001563
1157.44	0.0009923
1167.08	0.0011199
1176.73	0.0010667
1186.37	0.002793
1196.02	0.005683
1205.66	0.004643
1215.31	0.0008677
1224.95	0.0009072
1234.6	0.003013
1244.24	0.012763
1253.89	0.024883
1263.53	0.044653
1273.18	0.044953
1282.82	0.016323
1292.47	0.006853
1302.11	0.002913
1311.76	0.0008188
1321.4	0.0004017
1331.05	0.0003281
1340.69	0.0004829
1350.34	0.0006539
1359.98	0.0007324
1369.63	0.001493
1379.27	0.003933
1388.92	0.006233
1398.56	0.005113
1408.21	0.002293
1417.85	0.001573
1427.5	0.0010282
1437.14	0.0007905
1446.79	0.0008682
1456.43	0.001963
1466.08	0.005543
1475.73	0.018323
1485.37	0.035223
1495.02	0.071473
1504.66	0.065293
1514.31	0.014033
1523.95	0.003783
1533.6	0.003183
1543.24	0.003113
1552.89	0.002653
1562.53	0.002373
1572.18	0.004773
1581.82	0.008673
1591.47	0.011163
1601.11	0.008513
1610.76	0.003163
1620.4	0.001953
1630.05	0.001653
1639.69	0.001743
1649.34	0.001503
1658.98	0.0008993
1668.63	0.0003907
1678.27	0.0002787
1687.92	0.0003101
1697.56	0.0002939
1707.21	0.0003061
1716.85	0.0003134
1726.5	0.00020911
1736.14	0.0004745
1745.79	0.0006229
1755.43	0.001112
1765.08	0.002063
1774.72	0.001763
1784.37	0.0009109
1794.01	0.0004193
1803.66	0.0002662
1813.3	0.00023901
1822.95	0.0003286
1832.59	0.0003876
1842.24	0.0003937
1851.88	0.0002674
1861.53	0.0003248
1871.17	0.0005446
1880.82	0.001173
1890.46	0.001553
1900.11	0.0010136
1909.75	0.0003219
1919.4	0.00021114
1929.04	0.00020059
1938.69	0.0002689
1948.33	0.0002927
1957.98	0.0002531
1967.62	0.00020966
1977.27	0.0002564
1986.91	0.0003764
1996.56	0.0004315
2006.2	0.0005973
2015.85	0.000544
2025.49	0.0005579
2035.14	0.000361
2044.78	0.00023581
2054.43	0.00022948
2064.07	0.0002723
2073.72	0.0002531
2083.36	0.0002689
2093.01	0.0002862
2102.65	0.0002702
2112.3	0.00024677
2121.94	0.0002866
2131.59	0.0002668
2141.23	0.0004519
2150.88	0.0004536
2160.52	0.0004382
2170.17	0.0003729
2179.81	0.0003401
2189.46	0.0004117
2199.1	0.0003307
2208.75	0.0003548
2218.39	0.0008331
2228.04	0.002493
2237.68	0.004203
2247.33	0.002723
2256.97	0.0008335
2266.62	0.0005531
2276.26	0.0003372
2285.91	0.000338
2295.55	0.0003085
2305.2	0.0002783
2314.84	0.0004377
2324.49	0.0004896
2334.13	0.0005156
2343.78	0.000468
2353.42	0.0004616
2363.07	0.000408
2372.72	0.000436
2382.36	0.000479
2392.01	0.0005118
2401.65	0.0004693
2411.3	0.0003969
2420.94	0.00036
2430.59	0.0003821
2440.23	0.0004975
2449.88	0.000487
2459.52	0.0005182
2469.17	0.0005067
2478.81	0.0006008
2488.46	0.0006977
2498.1	0.0006481
2507.75	0.0008264
2517.39	0.0010806
2527.04	0.001293
2536.68	0.001313
2546.33	0.001373
2555.97	0.001163
2565.62	0.0008157
2575.26	0.0005656
2584.91	0.0005324
2594.55	0.0004709
2604.2	0.0004992
2613.84	0.000461
2623.49	0.0005357
2633.13	0.0006042
2642.78	0.0005418
2652.42	0.0005523
2662.07	0.0005074
2671.71	0.0004978
2681.36	0.0004338
2691	0.0005597
2700.65	0.0005268
2710.29	0.0005415
2719.94	0.0005153
2729.58	0.0005025
2739.23	0.0006409
2748.87	0.0006285
2758.52	0.0006735
2768.16	0.0006598
2777.81	0.0006482
2787.45	0.0005834
2797.1	0.0005745
2806.74	0.0006001
2816.39	0.0005177
2826.03	0.000709
2835.68	0.000695
2845.32	0.0006451
2854.97	0.0006121
2864.61	0.0005995
2874.26	0.0005188
2883.9	0.0004613
2893.55	0.0005313
2903.19	0.0006366
2912.84	0.0005036
2922.48	0.0004108
2932.13	0.0004822
2941.77	0.0004886
2951.42	0.0004339
2961.06	0.0005132
2970.71	0.0005065
2980.35	0.000538
2990	0.0006311
2999.64	0.0003819
3009.29	0.0004526
3018.93	0.0005093
3028.58	0.0006101
3038.22	0.0005606
3047.87	0.0005962
3057.51	0.000718
3067.16	0.0006152
3076.8	0.0010438
3086.45	0.0007885
3096.09	0.0006992
3105.74	0.0005544
3115.38	0.0005869
3125.03	0.000535
3134.67	0.0004371
3144.32	0.0005919
3153.96	0.0005553
3163.61	0.0005426
3173.25	0.0005848
3182.9	0.0004549
3192.54	0.0003804
3202.19	0.0005219
3211.83	0.000615
3221.48	0.0003883
3231.12	0.0004299
3240.77	0.0003269
3250.41	0.0003338
3260.06	0.0004186
3269.7	0.0005154
3279.35	0.0003097
3289	0.0005864
3298.64	0.0004097
3308.29	0.000589
3317.93	0.0003693
3327.58	0.0004168
3337.22	0.0004712
3346.87	0.0004044
3356.51	0.0004287
3366.16	0.0006131
3375.8	0.0004829
3385.45	0.000427
3395.09	0.0005299
3404.74	0.000392
3414.38	0.0006999
3424.03	0.0007711
3433.67	0.0006387
3443.32	0.0005993
3452.96	0.0004733
3462.61	0.0005409
3472.25	0.0002907
3481.9	0.0006054
3491.54	0.0005182
3501.19	0.0005673
3510.83	0.0004522
3520.48	0.0006051
3530.12	0.0004238
3539.77	0.0003575
3549.41	0.0005257
3559.06	0.0004207
3568.7	0.0005039
3578.35	0.0004689
3587.99	0.0005815
3597.64	0.0005835
3607.28	0.0004616
3616.93	0.0005215
3626.57	0.0005151
3636.22	0.0005961
3645.86	0.0004586
3655.51	0.0006825
3665.15	0.0004864
3674.8	0.000603
3684.44	0.0005468
3694.09	0.0005097
3703.73	0.000616
3713.38	0.0005247
3723.02	0.0007146
3732.67	0.000713
3742.31	0.0005853
3751.96	0.0005133
3761.6	0.0007298
3771.25	0.0007135
3780.89	0.0006636
3790.54	0.0006618
3800.18	0.0006659
3809.83	0.000748
3819.47	0.0006971
3829.12	0.0007772
3838.76	0.0006475
3848.41	0.0006565
3858.05	0.0007676
3867.7	0.000581
3877.34	0.0007165
3886.99	0.0006108
3896.63	0.0007267
3906.28	0.0006147
3915.92	0.0006591
3925.57	0.0007793
3935.21	0.0005909
3944.86	0.0006748
3954.5	0.0007497
3964.15	0.0005896
3973.79	0.0006711
3983.44	0.0007052
3993.08	0.0005254
