Infrared Spectrum: TETRABROMOPHENOLPHTHALEIN, ETHYL ESTER
Formula: C22 H14 Br4 O4
CAS: 1176-74-5
State: SOLID (MINERAL OIL MULL)
Melting point: 206-208 C
Class: COBLENTZ
Instrument: Not specified, most likely a prism, grating, or hybrid spectrometer.
Sampling: TRANSMISSION
Resolution: 4
Origin: WYANDOTTE CHEMICALS CORP., WYANDOTTE, MICHIGAN, USA
MICROMETERS	TRANSMITTANCE
2.019	0.135
2.05618	0.133
2.09337	0.152
2.13055	0.153
2.16774	0.159
2.20492	0.163
2.2421	0.173
2.27929	0.175
2.31647	0.187
2.35366	0.203
2.39084	0.214
2.42802	0.211
2.46521	0.223
2.50239	0.229
2.53958	0.239
2.57676	0.256
2.61394	0.267
2.65113	0.281
2.68831	0.284
2.7255	0.291
2.76268	0.302
2.79986	0.315
2.83705	0.307
2.87423	0.291
2.91142	0.251
2.9486	0.177
2.98579	0.187
3.02297	0.186
3.06015	0.184
3.09734	0.192
3.13452	0.215
3.17171	0.239
3.20889	0.256
3.24607	0.211
3.28326	0.222
3.32044	0.133
3.35763	0.015
3.39481	0.013
3.43199	0.018
3.46918	0.021
3.50636	0.045
3.54355	0.315
3.58073	0.451
3.61791	0.486
3.6551	0.487
3.69228	0.489
3.72947	0.498
3.76665	0.506
3.80383	0.513
3.84102	0.521
3.8782	0.54
3.91539	0.551
3.95257	0.569
3.98975	0.579
4.02694	0.586
4.06412	0.59
4.10131	0.597
4.13849	0.604
4.17567	0.607
4.21286	0.621
4.25004	0.613
4.28723	0.618
4.32441	0.622
4.36159	0.65
4.39878	0.67
4.43596	0.683
4.47315	0.687
4.51033	0.697
4.54751	0.694
4.5847	0.698
4.62188	0.722
4.65907	0.72
4.69625	0.742
4.73344	0.734
4.77062	0.76
4.8078	0.767
4.84499	0.773
4.88217	0.781
4.91936	0.779
4.95654	0.795
4.99372	0.807
5.03091	0.807
5.06809	0.818
5.10528	0.816
5.14246	0.826
5.17964	0.812
5.21683	0.841
5.25401	0.85
5.2912	0.852
5.32838	0.861
5.36556	0.847
5.40275	0.872
5.43993	0.871
5.47712	0.868
5.5143	0.881
5.55148	0.881
5.58867	0.894
5.62585	0.829
5.66304	0.813
5.70022	0.798
5.7374	0.796
5.77459	0.411
5.81177	0.111
5.84896	0.239
5.88614	0.639
5.92332	0.74
5.96051	0.801
5.99769	0.815
6.03488	0.583
6.07206	0.184
6.10924	0.42
6.14643	0.128
6.18361	0.358
6.2208	0.229
6.25798	0.461
6.29516	0.155
6.33235	0.108
6.36953	0.434
6.40672	0.605
6.4439	0.475
6.48109	0.344
6.51827	0.405
6.55545	0.461
6.59264	0.299
6.62982	0.204
6.66701	0.204
6.70419	0.164
6.74137	0.059
6.77856	0.027
6.81574	0.046
6.85293	0.11
6.89011	0.161
6.92729	0.347
6.96448	0.546
7.00166	0.642
7.03885	0.673
7.07603	0.628
7.11321	0.504
7.1504	0.24
7.18758	0.279
7.22477	0.201
7.26195	0.27
7.29913	0.274
7.33632	0.572
7.3735	0.625
7.41069	0.628
7.44787	0.54
7.48505	0.229
7.52224	0.111
7.55942	0.125
7.59661	0.045
7.63379	0.026
7.67097	0.035
7.70816	0.023
7.74534	0.034
7.78253	0.076
7.81971	0.108
7.85689	0.086
7.89408	0.066
7.93126	0.121
7.96845	0.099
8.00563	0.111
8.04281	0.236
8.08	0.374
8.11718	0.5
8.15437	0.551
8.19155	0.576
8.22874	0.52
8.26592	0.51
8.3031	0.565
8.34029	0.613
8.37747	0.633
8.41466	0.639
8.45184	0.458
8.48902	0.414
8.52621	0.336
8.56339	0.321
8.60058	0.313
8.63776	0.211
8.67494	0.13
8.71213	0.116
8.74931	0.119
8.7865	0.124
8.82368	0.149
8.86086	0.13
8.89805	0.246
8.93523	0.352
8.97242	0.431
9.0096	0.482
9.04678	0.465
9.08397	0.358
9.12115	0.358
9.15834	0.397
9.19552	0.304
9.2327	0.215
9.26989	0.397
9.30707	0.541
9.34426	0.621
9.38144	0.659
9.41862	0.712
9.45581	0.718
9.49299	0.712
9.53018	0.673
9.56736	0.517
9.60454	0.548
9.64173	0.501
9.67891	0.332
9.7161	0.239
9.75328	0.329
9.79046	0.51
9.82765	0.621
9.86483	0.656
9.90202	0.616
9.9392	0.591
9.97639	0.659
10.0136	0.739
10.0508	0.763
10.0879	0.762
10.1251	0.76
10.1623	0.715
10.1995	0.554
10.2367	0.301
10.2739	0.263
10.311	0.358
10.3482	0.5
10.3854	0.604
10.4226	0.645
10.4598	0.681
10.497	0.703
10.5341	0.695
10.5713	0.645
10.6085	0.481
10.6457	0.181
10.6829	0.206
10.7201	0.468
10.7572	0.591
10.7944	0.604
10.8316	0.638
10.8688	0.7
10.906	0.729
10.9432	0.763
10.9804	0.791
11.0175	0.788
11.0547	0.734
11.0919	0.61
11.1291	0.574
11.1663	0.622
11.2035	0.661
11.2406	0.737
11.2778	0.759
11.315	0.704
11.3522	0.607
11.3894	0.594
11.4266	0.706
11.4637	0.788
11.5009	0.819
11.5381	0.801
11.5753	0.776
11.6125	0.768
11.6497	0.75
11.6869	0.69
11.724	0.622
11.7612	0.723
11.7984	0.75
11.8356	0.712
11.8728	0.659
11.91	0.748
11.9471	0.843
11.9843	0.881
12.0215	0.906
12.0587	0.914
12.0959	0.905
12.1331	0.897
12.1702	0.897
12.2074	0.86
12.2446	0.864
12.2818	0.914
12.319	0.936
12.3562	0.944
12.3933	0.951
12.4305	0.925
12.4677	0.891
12.5049	0.897
12.5421	0.899
12.5793	0.875
12.6165	0.874
12.6536	0.899
12.6908	0.869
12.728	0.857
12.7652	0.894
12.8024	0.923
12.8396	0.947
12.8767	0.944
12.9139	0.885
12.9511	0.701
12.9883	0.58
13.0255	0.563
13.0627	0.563
13.0998	0.562
13.137	0.711
13.1742	0.835
13.2114	0.892
13.2486	0.909
13.2858	0.908
13.3229	0.889
13.3601	0.819
13.3973	0.663
13.4345	0.484
13.4717	0.478
13.5089	0.552
13.5461	0.63
13.5832	0.68
13.6204	0.67
13.6576	0.604
13.6948	0.562
13.732	0.568
13.7692	0.586
13.8063	0.554
13.8435	0.495
13.8807	0.437
13.9179	0.335
13.9551	0.246
13.9923	0.211
14.0294	0.236
14.0666	0.377
14.1038	0.545
14.141	0.659
14.1782	0.754
14.2154	0.816
14.2525	0.855
14.2897	0.871
14.3269	0.857
14.3641	0.822
14.4013	0.785
14.4385	0.801
14.4757	0.833
14.5128	0.88
14.55	0.906
14.5872	0.914
14.6244	0.914
14.6616	0.911
14.6988	0.914
14.7359	0.897
14.7731	0.899
14.8103	0.888
14.8475	0.874
14.8847	0.85
14.9219	0.822
14.959	0.762
14.9962	0.697
15.0334	0.649
15.0706	0.677
15.1078	0.737
15.145	0.791
15.1822	0.819
15.2193	0.826
15.2565	0.819
15.2937	0.813
15.3309	0.802
15.3681	0.79
15.4053	0.77
15.4424	0.75
15.4796	0.734
15.5168	0.709
15.554	0.68
15.5912	0.616
15.6284	0.568
15.6655	0.549
15.7027	0.552
15.7399	0.571
15.7771	0.583
15.8143	0.585
15.8515	0.58
15.8886	0.568
15.9258	0.554
15.963	0.537
16.0002	0.526
