Infrared Spectrum: PREDNISOLONE, 9Alpha-FLUORO-16Alpha-METHYL-, ACETATE
Formula: C24 H31 F O6
CAS: 1177-87-3
State: SOLID (KBr DISC) VS KBr
Melting point: 215-221 C
Class: COBLENTZ III
Instrument: PERKIN-ELMER 21 (GRATING)
Instrument parameters: FILTER AT ABOUT 10 MICRONS
Sampling: TRANSMISSION
Resolution: 2
1/CM	TRANSMITTANCE
4000	0.93
3991	0.9297
3982	0.9295
3973	0.9293
3964	0.9294
3955	0.9295
3946	0.9295
3937	0.9296
3928	0.9297
3919	0.9297
3910	0.9298
3901	0.9299
3892	0.93
3883	0.93
3874	0.9303
3865	0.9305
3856	0.9308
3847	0.931
3838	0.9313
3829	0.9315
3820	0.9317
3811	0.932
3802	0.9321
3793	0.9324
3784	0.9325
3775	0.9325
3766	0.9327
3757	0.9328
3748	0.9327
3739	0.9325
3730	0.9324
3721	0.9323
3712	0.9318
3703	0.9314
3694	0.9307
3685	0.9297
3676	0.9285
3667	0.927
3658	0.9244
3649	0.9213
3640	0.916
3631	0.9091
3622	0.9008
3613	0.8907
3604	0.8777
3595	0.8611
3586	0.8418
3577	0.8185
3568	0.7968
3559	0.7751
3550	0.7535
3541	0.7318
3532	0.7099
3523	0.6878
3514	0.6658
3505	0.6439
3496	0.6319
3487	0.6247
3478	0.6167
3469	0.6085
3460	0.6021
3451	0.5935
3442	0.5889
3433	0.5871
3424	0.5864
3415	0.5875
3406	0.5922
3397	0.5984
3388	0.6056
3379	0.614
3370	0.6238
3361	0.6337
3352	0.6515
3343	0.6687
3334	0.6821
3325	0.6956
3316	0.7096
3307	0.724
3298	0.739
3289	0.7549
3280	0.7686
3271	0.7811
3262	0.7932
3253	0.8034
3244	0.8134
3235	0.8236
3226	0.8331
3217	0.8423
3208	0.8516
3199	0.8611
3190	0.8707
3181	0.8795
3172	0.887
3163	0.8944
3154	0.8999
3145	0.9041
3136	0.9062
3127	0.9081
3118	0.9092
3109	0.9103
3100	0.9112
3091	0.912
3082	0.9123
3073	0.9115
3064	0.9087
3055	0.905
3046	0.8995
3037	0.8939
3028	0.8842
3019	0.8706
3010	0.8485
3001	0.8238
2992	0.7997
2983	0.7635
2974	0.7268
2965	0.6899
2956	0.6528
2947	0.6155
2938	0.5918
2929	0.599
2920	0.6274
2911	0.656
2902	0.6849
2893	0.7138
2884	0.7395
2875	0.7415
2866	0.7435
2857	0.7806
2848	0.8263
2839	0.8659
2830	0.8771
2821	0.8866
2812	0.8952
2803	0.9035
2794	0.909
2785	0.9144
2776	0.9182
2767	0.921
2758	0.9228
2749	0.9246
2740	0.9253
2731	0.9256
2722	0.9258
2713	0.926
2704	0.9263
2695	0.9265
2686	0.9268
2677	0.9271
2668	0.9273
2659	0.9273
2650	0.9274
2641	0.9278
2632	0.9285
2623	0.9297
2614	0.9328
2605	0.937
2596	0.939
2587	0.9403
2578	0.9411
2569	0.941
2560	0.941
2551	0.9409
2542	0.9408
2533	0.9409
2524	0.9412
2515	0.9414
2506	0.9416
2497	0.9418
2488	0.9418
2479	0.9418
2470	0.942
2461	0.942
2452	0.9423
2443	0.9427
2434	0.9432
2425	0.9436
2416	0.9443
2407	0.9453
2398	0.9468
2389	0.9483
2380	0.9493
2371	0.9502
2362	0.9509
2353	0.9511
2344	0.9503
2335	0.9498
2326	0.9497
2317	0.9496
2308	0.9495
2299	0.9495
2290	0.9497
2281	0.95
2272	0.9503
2263	0.9506
2254	0.951
2245	0.9513
2236	0.9517
2227	0.952
2218	0.9524
2209	0.9527
2200	0.9531
2191	0.9535
2182	0.9538
2173	0.9542
2164	0.9548
2155	0.9554
2146	0.9558
2137	0.9558
2128	0.9557
2119	0.9557
2110	0.9557
2101	0.9555
2092	0.9549
2083	0.9544
2074	0.954
2065	0.9535
2056	0.9533
2047	0.953
2038	0.9528
2029	0.9528
2020	0.953
2011	0.9533
2002	0.9535
1993	0.954
1984	0.9546
1975	0.9552
1966	0.9559
1957	0.9566
1948	0.9573
1939	0.9577
1930	0.9577
1921	0.9577
1912	0.9573
1903	0.957
1894	0.9567
1885	0.9558
1876	0.9547
1867	0.9537
1858	0.9527
1849	0.9513
1840	0.9489
1831	0.9456
1822	0.9418
1813	0.937
1804	0.931
1795	0.9188
1786	0.9017
1777	0.8795
1768	0.8254
1759	0.5905
1750	0.4768
1741	0.4715
1732	0.3803
1723	0.3716
1714	0.5004
1705	0.6401
1696	0.7811
1687	0.7724
1678	0.4376
1669	0.1816
1660	0.361
1651	0.6055
1642	0.7078
1633	0.5952
1624	0.4892
1615	0.5037
1606	0.531
1597	0.7108
1588	0.8441
1579	0.8821
1570	0.9078
1561	0.9207
1552	0.9297
1543	0.9362
1534	0.9395
1525	0.9411
1516	0.9407
1507	0.9375
1498	0.9315
1489	0.9163
1480	0.8778
1471	0.822
1462	0.7705
1453	0.6976
1444	0.7143
1435	0.7317
1426	0.7454
1417	0.6886
1408	0.6425
1399	0.6494
1390	0.6834
1381	0.6071
1372	0.5724
1363	0.6971
1354	0.7271
1345	0.8015
1336	0.8184
1327	0.8057
1318	0.7834
1309	0.7456
1300	0.6743
1291	0.6522
1282	0.6441
1273	0.5943
1264	0.5714
1255	0.5719
1246	0.502
1237	0.408
1228	0.4242
1219	0.6141
1210	0.7122
1201	0.7447
1192	0.7501
1183	0.7733
1174	0.7925
1165	0.7911
1156	0.7792
1147	0.7581
1138	0.6469
1129	0.6267
1120	0.7169
1111	0.7853
1102	0.7643
1093	0.736
1084	0.7125
1075	0.638
1066	0.5786
1057	0.5602
1048	0.6203
1039	0.5683
1030	0.7161
1021	0.8126
1012	0.8085
1003	0.8031
994	0.7904
985	0.7484
976	0.7824
967	0.862
958	0.8172
949	0.7954
940	0.8598
931	0.784
922	0.784
913	0.7387
904	0.7719
895	0.6612
886	0.5745
877	0.8014
868	0.8428
859	0.8915
850	0.8421
841	0.8354
832	0.8452
823	0.8652
814	0.8648
805	0.8697
796	0.8792
787	0.9096
778	0.8951
769	0.9028
760	0.8741
751	0.9127
742	0.9254
733	0.9258
724	0.9011
715	0.8915
706	0.8868
697	0.8818
688	0.8581
679	0.8598
670	0.8847
