Infrared Spectrum: P-PHTHALALDEHYDE 2,4-DINITROPHENYL HYDRAZONE
Formula: C20 H14 N8 O8
CAS: 117882-22-1
State: SOLID (MINERAL OIL MULL)
Class: COBLENTZ
Instrument: PERKIN-ELMER
Sampling: TRANSMISSION
Resolution: 4
Origin: STANDARD OIL OF OHIO
MICROMETERS	TRANSMITTANCE
2.034	0.237
2.06789	0.247
2.10178	0.257
2.13567	0.269
2.16956	0.279
2.20345	0.288
2.23734	0.291
2.27123	0.289
2.30512	0.284
2.33901	0.289
2.3729	0.305
2.40679	0.318
2.44068	0.328
2.47458	0.347
2.50847	0.364
2.54236	0.372
2.57625	0.383
2.61014	0.391
2.64403	0.401
2.67792	0.411
2.71181	0.416
2.7457	0.422
2.77959	0.428
2.81348	0.44
2.84737	0.449
2.88126	0.457
2.91515	0.462
2.94904	0.467
2.98293	0.459
3.01682	0.225
3.05071	0.359
3.0846	0.437
3.11849	0.44
3.15238	0.44
3.18627	0.388
3.22016	0.374
3.25405	0.376
3.28794	0.32
3.32183	0.108
3.35573	0.013
3.38962	0.003
3.42351	0.001
3.4574	0.003
3.49129	0.074
3.52518	0.286
3.55907	0.427
3.59296	0.496
3.62685	0.505
3.66074	0.5
3.69463	0.513
3.72852	0.522
3.76241	0.532
3.7963	0.545
3.83019	0.569
3.86408	0.601
3.89797	0.616
3.93186	0.63
3.96575	0.647
3.99964	0.661
4.03353	0.662
4.06742	0.661
4.10131	0.661
4.1352	0.662
4.16909	0.671
4.20298	0.683
4.23688	0.688
4.27077	0.694
4.30466	0.701
4.33855	0.713
4.37244	0.72
4.40633	0.718
4.44022	0.728
4.47411	0.738
4.508	0.747
4.54189	0.752
4.57578	0.761
4.60967	0.762
4.64356	0.766
4.67745	0.774
4.71134	0.783
4.74523	0.798
4.77912	0.806
4.81301	0.801
4.8469	0.803
4.88079	0.813
4.91468	0.825
4.94857	0.83
4.98246	0.835
5.01635	0.838
5.05024	0.837
5.08413	0.83
5.11803	0.838
5.15192	0.847
5.18581	0.854
5.2197	0.864
5.25359	0.864
5.28748	0.872
5.32137	0.881
5.35526	0.874
5.38915	0.883
5.42304	0.896
5.45693	0.901
5.49082	0.908
5.52471	0.92
5.5586	0.927
5.59249	0.937
5.62638	0.945
5.66027	0.949
5.69416	0.95
5.72805	0.949
5.76194	0.938
5.79583	0.91
5.82972	0.659
5.86361	0.561
5.8975	0.7
5.93139	0.783
5.96528	0.83
5.99918	0.84
6.03307	0.783
6.06696	0.681
6.10085	0.333
6.13474	0.105
6.16863	0.008
6.20252	0.022
6.23641	0.089
6.2703	0.027
6.30419	0.032
6.33808	0.218
6.37197	0.44
6.40586	0.505
6.43975	0.569
6.47364	0.522
6.50753	0.457
6.54142	0.227
6.57531	0.037
6.6092	0.023
6.64309	0.032
6.67698	0.05
6.71087	0.196
6.74476	0.25
6.77865	0.079
6.81254	0.032
6.84643	0.025
6.88033	0.055
6.91422	0.116
6.94811	0.154
6.982	0.218
7.01589	0.166
7.04978	0.181
7.08367	0.457
7.11756	0.581
7.15145	0.577
7.18534	0.433
7.21923	0.244
7.25312	0.13
7.28701	0.222
7.3209	0.279
7.35479	0.242
7.38868	0.101
7.42257	0.013
7.45646	0.003
7.49035	0.001
7.52424	0.003
7.55813	0.018
7.59202	0.02
7.62591	0.016
7.6598	0.042
7.69369	0.123
7.72758	0.161
7.76148	0.177
7.79537	0.154
7.82926	0.128
7.86315	0.105
7.89704	0.103
7.93093	0.172
7.96482	0.257
7.99871	0.364
8.0326	0.44
8.06649	0.469
8.10038	0.416
8.13427	0.272
8.16816	0.162
8.20205	0.188
8.23594	0.23
8.26983	0.249
8.30372	0.276
8.33761	0.371
8.3715	0.455
8.40539	0.51
8.43928	0.569
8.47317	0.603
8.50706	0.625
8.54095	0.622
8.57484	0.627
8.60873	0.652
8.64263	0.674
8.67652	0.635
8.71041	0.503
8.7443	0.157
8.77819	0.044
8.81208	0.03
8.84597	0.103
8.87986	0.232
8.91375	0.305
8.94764	0.364
8.98153	0.403
9.01542	0.471
9.04931	0.489
9.0832	0.476
9.11709	0.376
9.15098	0.25
9.18487	0.122
9.21876	0.084
9.25265	0.12
9.28654	0.237
9.32043	0.379
9.35432	0.477
9.38821	0.513
9.4221	0.44
9.45599	0.371
9.48989	0.383
9.52378	0.516
9.55767	0.579
9.59156	0.623
9.62545	0.647
9.65934	0.666
9.69323	0.686
9.72712	0.715
9.76101	0.732
9.7949	0.733
9.82879	0.722
9.86268	0.701
9.89657	0.698
9.93046	0.728
9.96435	0.757
9.99824	0.767
10.0321	0.781
10.066	0.786
10.0999	0.784
10.1338	0.777
10.1677	0.764
10.2016	0.754
10.2355	0.749
10.2694	0.74
10.3033	0.738
10.3371	0.722
10.371	0.686
10.4049	0.615
10.4388	0.561
10.4727	0.555
10.5066	0.601
10.5405	0.627
10.5744	0.65
10.6083	0.672
10.6422	0.666
10.676	0.638
10.7099	0.627
10.7438	0.584
10.7777	0.544
10.8116	0.618
10.8455	0.661
10.8794	0.661
10.9133	0.65
10.9472	0.644
10.9811	0.7
11.015	0.744
11.0488	0.759
11.0827	0.752
11.1166	0.72
11.1505	0.7
11.1844	0.7
11.2183	0.72
11.2522	0.762
11.2861	0.81
11.32	0.833
11.3539	0.852
11.3877	0.871
11.4216	0.884
11.4555	0.891
11.4894	0.9
11.5233	0.905
11.5572	0.908
11.5911	0.91
11.625	0.901
11.6589	0.888
11.6928	0.84
11.7267	0.776
11.7605	0.686
11.7944	0.586
11.8283	0.505
11.8622	0.464
11.8961	0.444
11.93	0.425
11.9639	0.394
11.9978	0.335
12.0317	0.349
12.0656	0.418
12.0994	0.583
12.1333	0.705
12.1672	0.767
12.2011	0.806
12.235	0.835
12.2689	0.849
12.3028	0.855
12.3367	0.847
12.3706	0.794
12.4045	0.732
12.4383	0.681
12.4722	0.716
12.5061	0.747
12.54	0.771
12.5739	0.8
12.6078	0.823
12.6417	0.842
12.6756	0.859
12.7095	0.867
12.7434	0.872
12.7773	0.877
12.8111	0.877
12.845	0.874
12.8789	0.876
12.9128	0.877
12.9467	0.877
12.9806	0.877
13.0145	0.876
13.0484	0.844
13.0823	0.776
13.1162	0.771
13.15	0.82
13.1839	0.842
13.2178	0.859
13.2517	0.855
13.2856	0.842
13.3195	0.816
13.3534	0.755
13.3873	0.62
13.4212	0.506
13.4551	0.303
13.489	0.245
13.5228	0.44
13.5567	0.559
13.5906	0.65
13.6245	0.681
13.6584	0.691
13.6923	0.686
13.7262	0.652
13.7601	0.62
13.794	0.579
13.8279	0.559
13.8617	0.549
13.8956	0.538
13.9295	0.501
13.9634	0.455
13.9973	0.498
14.0312	0.625
14.0651	0.706
14.099	0.781
14.1329	0.81
14.1668	0.833
14.2006	0.849
14.2345	0.859
14.2684	0.866
14.3023	0.869
14.3362	0.869
14.3701	0.864
14.404	0.861
14.4379	0.852
14.4718	0.835
14.5057	0.818
14.5396	0.794
14.5734	0.766
14.6073	0.735
14.6412	0.737
14.6751	0.75
14.709	0.771
14.7429	0.784
14.7768	0.788
14.8107	0.783
14.8446	0.772
14.8785	0.764
14.9123	0.754
14.9462	0.744
14.9801	0.749
15.014	0.757
15.0479	0.771
15.0818	0.776
15.1157	0.774
15.1496	0.766
15.1835	0.755
15.2174	0.747
15.2513	0.737
15.2851	0.728
15.319	0.718
15.3529	0.708
