Infrared Spectrum: 2-ANILINO-1,4-DIOXO-NAPHTHYL 3-ISOQUINOLINIUM PERCHLORATE
Formula: C25 H17 Cl N2 O6
CAS: 1179-56-2
State: SOLID (KBr PRESSING)
Melting point: 389 C
Class: COBLENTZ
Instrument: Not specified, most likely a prism, grating, or hybrid spectrometer.
Sampling: TRANSMISSION
Resolution: 4
Origin: EASTMAN KODAK COMPANY, RESEARCH LABORATORIES, ROCHESTER, N.Y.
MICROMETERS	TRANSMITTANCE
2.02	0.657
2.05994	0.659
2.09988	0.659
2.13983	0.664
2.17977	0.666
2.21971	0.674
2.25965	0.671
2.29959	0.675
2.33953	0.68
2.37948	0.68
2.41942	0.68
2.45936	0.679
2.4993	0.687
2.53924	0.695
2.57918	0.7
2.61913	0.708
2.65907	0.717
2.69901	0.712
2.73895	0.69
2.77889	0.61
2.81884	0.526
2.85878	0.478
2.89872	0.44
2.93866	0.43
2.9786	0.475
3.01854	0.554
3.05849	0.577
3.09843	0.6
3.13837	0.629
3.17831	0.629
3.21825	0.56
3.25819	0.57
3.29814	0.611
3.33808	0.662
3.37802	0.69
3.41796	0.692
3.4579	0.702
3.49784	0.72
3.53779	0.718
3.57773	0.728
3.61767	0.738
3.65761	0.741
3.69755	0.748
3.7375	0.751
3.77744	0.751
3.81738	0.753
3.85732	0.759
3.89726	0.768
3.9372	0.771
3.97715	0.768
4.01709	0.776
4.05703	0.779
4.09697	0.777
4.13691	0.784
4.17685	0.789
4.2168	0.792
4.25674	0.792
4.29668	0.786
4.33662	0.791
4.37656	0.799
4.41651	0.802
4.45645	0.804
4.49639	0.807
4.53633	0.809
4.57627	0.809
4.61621	0.812
4.65616	0.814
4.6961	0.81
4.73604	0.81
4.77598	0.819
4.81592	0.819
4.85586	0.814
4.89581	0.809
4.93575	0.794
4.97569	0.784
5.01563	0.787
5.05557	0.807
5.09552	0.8
5.13546	0.81
5.1754	0.819
5.21534	0.822
5.25528	0.825
5.29522	0.822
5.33517	0.828
5.37511	0.832
5.41505	0.838
5.45499	0.837
5.49493	0.832
5.53487	0.842
5.57482	0.84
5.61476	0.838
5.6547	0.819
5.69464	0.82
5.73458	0.819
5.77452	0.809
5.81447	0.786
5.85441	0.74
5.89435	0.537
5.93429	0.151
5.97423	0.174
6.01418	0.447
6.05412	0.542
6.09406	0.519
6.134	0.605
6.17394	0.618
6.21388	0.493
6.25383	0.305
6.29377	0.187
6.33371	0.455
6.37365	0.488
6.41359	0.498
6.45353	0.58
6.49348	0.656
6.53342	0.672
6.57336	0.608
6.6133	0.452
6.65324	0.44
6.69319	0.399
6.73313	0.554
6.77307	0.504
6.81301	0.422
6.85295	0.57
6.89289	0.611
6.93284	0.605
6.97278	0.404
7.01272	0.417
7.05266	0.597
7.0926	0.621
7.13254	0.513
7.17249	0.442
7.21243	0.309
7.25237	0.342
7.29231	0.605
7.33225	0.722
7.3722	0.781
7.41214	0.792
7.45208	0.782
7.49202	0.68
7.53196	0.633
7.5719	0.68
7.61185	0.664
7.65179	0.631
7.69173	0.557
7.73167	0.631
7.77161	0.669
7.81155	0.546
7.8515	0.552
7.89144	0.467
7.93138	0.422
7.97132	0.659
8.01126	0.601
8.0512	0.347
8.09115	0.123
8.13109	0.203
8.17103	0.121
8.21097	0.299
8.25091	0.541
8.29086	0.672
8.3308	0.75
8.37074	0.774
8.41068	0.771
8.45062	0.75
8.49056	0.723
8.53051	0.652
8.57045	0.621
8.61039	0.572
8.65033	0.519
8.69027	0.578
8.73021	0.578
8.77016	0.531
8.8101	0.585
8.85004	0.59
8.88998	0.531
8.92992	0.361
8.96987	0.203
9.00981	0.118
9.04975	0.05
9.08969	0.032
9.12963	0.029
9.16957	0.029
9.20952	0.029
9.24946	0.041
9.2894	0.08
9.32934	0.139
9.36928	0.212
9.40922	0.328
9.44917	0.411
9.48911	0.531
9.52905	0.629
9.56899	0.672
9.60893	0.641
9.64888	0.649
9.68882	0.679
9.72876	0.677
9.7687	0.677
9.80864	0.692
9.84858	0.73
9.88853	0.761
9.92847	0.771
9.96841	0.769
10.0084	0.773
10.0483	0.794
10.0882	0.804
10.1282	0.81
10.1681	0.802
10.2081	0.791
10.248	0.781
10.2879	0.741
10.3279	0.659
10.3678	0.467
10.4078	0.259
10.4477	0.25
10.4877	0.379
10.5276	0.648
10.5675	0.741
10.6075	0.75
10.6474	0.582
10.6874	0.532
10.7273	0.731
10.7672	0.796
10.8072	0.787
10.8471	0.769
10.8871	0.773
10.927	0.82
10.967	0.858
11.0069	0.873
11.0468	0.883
11.0868	0.884
11.1267	0.889
11.1667	0.896
11.2066	0.894
11.2465	0.843
11.2865	0.819
11.3264	0.868
11.3664	0.868
11.4063	0.84
11.4463	0.82
11.4862	0.827
11.5261	0.861
11.5661	0.901
11.606	0.914
11.646	0.922
11.6859	0.922
11.7258	0.914
11.7658	0.883
11.8057	0.858
11.8457	0.87
11.8856	0.883
11.9256	0.891
11.9655	0.891
12.0054	0.884
12.0454	0.863
12.0853	0.86
12.1253	0.84
12.1652	0.81
12.2051	0.756
12.2451	0.672
12.285	0.601
12.325	0.567
12.3649	0.565
12.4049	0.654
12.4448	0.629
12.4847	0.59
12.5247	0.562
12.5646	0.531
12.6046	0.503
12.6445	0.439
12.6844	0.465
12.7244	0.661
12.7643	0.703
12.8043	0.666
12.8442	0.702
12.8842	0.738
12.9241	0.718
12.964	0.722
13.004	0.759
13.0439	0.779
13.0839	0.789
13.1238	0.764
13.1637	0.723
13.2037	0.692
13.2436	0.667
13.2836	0.7
13.3235	0.75
13.3635	0.799
13.4034	0.835
13.4433	0.86
13.4833	0.871
13.5232	0.881
13.5632	0.888
13.6031	0.883
13.6431	0.871
13.683	0.853
13.7229	0.802
13.7629	0.689
13.8028	0.516
13.8428	0.521
13.8827	0.595
13.9226	0.578
13.9626	0.529
14.0025	0.529
14.0425	0.57
14.0824	0.567
14.1224	0.57
14.1623	0.649
14.2022	0.694
14.2422	0.679
14.2821	0.628
14.3221	0.541
14.362	0.432
14.4019	0.282
14.4419	0.179
14.4818	0.159
14.5218	0.246
14.5617	0.404
14.6017	0.572
14.6416	0.659
14.6815	0.728
14.7215	0.771
14.7614	0.791
14.8014	0.791
14.8413	0.758
14.8812	0.722
14.9212	0.718
14.9611	0.718
15.0011	0.751
15.041	0.8
15.081	0.809
15.1209	0.809
15.1608	0.799
15.2008	0.799
15.2407	0.796
15.2807	0.787
15.3206	0.753
15.3605	0.718
15.4005	0.675
15.4404	0.672
15.4804	0.689
15.5203	0.708
15.5603	0.722
15.6002	0.728
15.6401	0.728
15.6801	0.72
15.72	0.703
15.76	0.687
15.7999	0.669
15.8398	0.661
15.8798	0.649
15.9197	0.639
15.9597	0.631
