Infrared Spectrum: Cytosine, 1-Alpha-L-rhamnopyranosyl-
Formula: C10 H15 N3 O5
CAS: 117922-39-1
State: SOLID (0.9 mg / 650 mg KBr DISC)
Class: COBLENTZ III
Instrument: PERKIN-ELMER 21 (GRATING)
Instrument parameters: FILTER CHANGE AT 1075 CM^-^1
Sampling: TRANSMISSION
Resolution: 2
Origin: SOUTHERN RESEARCH INSTITUTE, W.C. Coburn, Jr.
1/CM	TRANSMITTANCE
617.128	0.7703
626.16	0.7701
635.191	0.7715
644.223	0.7697
653.254	0.7617
662.286	0.7545
671.318	0.7618
680.349	0.7768
689.381	0.7803
698.412	0.783
707.444	0.7862
716.475	0.7941
725.507	0.8061
734.539	0.8097
743.57	0.791
752.602	0.7592
761.633	0.723
770.665	0.5936
779.697	0.5317
788.728	0.5708
797.76	0.6258
806.791	0.6871
815.823	0.7983
824.854	0.8306
833.886	0.8427
842.918	0.8373
851.949	0.8116
860.981	0.7681
870.012	0.7047
879.044	0.7887
888.076	0.8352
897.107	0.8188
906.139	0.7741
915.17	0.682
924.202	0.595
933.233	0.6427
942.265	0.7816
951.297	0.7861
960.328	0.7744
969.36	0.7259
978.391	0.656
987.423	0.6102
996.455	0.5868
1005.49	0.5841
1014.52	0.5674
1023.55	0.4763
1032.58	0.301
1041.61	0.2334
1050.64	0.2469
1059.68	0.3168
1068.71	0.3944
1077.74	0.3983
1086.77	0.3872
1095.8	0.3968
1104.83	0.3847
1113.87	0.3886
1122.9	0.4083
1131.93	0.4203
1140.96	0.4638
1149.99	0.5706
1159.02	0.6826
1168.05	0.7162
1177.09	0.6969
1186.12	0.66
1195.15	0.6169
1204.18	0.5692
1213.21	0.5706
1222.24	0.5635
1231.28	0.5632
1240.31	0.5774
1249.34	0.5659
1258.37	0.5298
1267.4	0.4944
1276.43	0.4637
1285.47	0.4453
1294.5	0.4692
1303.53	0.5517
1312.56	0.6291
1321.59	0.6354
1330.62	0.624
1339.65	0.5946
1348.69	0.558
1357.72	0.5224
1366.75	0.4812
1375.78	0.4229
1384.81	0.4523
1393.84	0.4689
1402.88	0.4762
1411.91	0.5272
1420.94	0.5838
1429.97	0.5979
1439	0.5684
1448.03	0.5266
1457.07	0.5043
1466.1	0.445
1475.13	0.2943
1484.16	0.2316
1493.19	0.2616
1502.22	0.4311
1511.25	0.4292
1520.29	0.4176
1529.32	0.4849
1538.35	0.6398
1547.38	0.6414
1556.41	0.5839
1565.44	0.517
1574.48	0.4552
1583.51	0.3516
1592.54	0.2282
1601.57	0.2183
1610.6	0.2284
1619.63	0.229
1628.67	0.1288
1637.7	0.0866
1646.73	0.0984
1655.76	0.1139
1664.79	0.1742
1673.82	0.3874
1682.85	0.4504
1691.89	0.6058
1700.92	0.6615
1709.95	0.6887
1718.98	0.7104
1728.01	0.7518
1737.04	0.7941
1746.08	0.8216
1755.11	0.8409
1764.14	0.8575
1773.17	0.8755
1782.2	0.8898
1791.23	0.9014
1800.27	0.9115
1809.3	0.9188
1818.33	0.9237
1827.36	0.9291
1836.39	0.9371
1845.42	0.938
1854.45	0.9384
1863.49	0.9392
1872.52	0.941
1881.55	0.9432
1890.58	0.9459
1899.61	0.9476
1908.64	0.9489
1917.68	0.9489
1926.71	0.9493
1935.74	0.9506
1944.77	0.9512
1953.8	0.951
1962.83	0.9519
1971.87	0.9533
1980.9	0.9549
1989.93	0.9565
1998.96	0.9576
2007.99	0.958
2017.02	0.96
2026.06	0.9626
2035.09	0.9629
2044.12	0.9624
2053.15	0.9618
2062.18	0.9627
2071.21	0.9641
2080.24	0.9653
2089.28	0.9629
2098.31	0.9616
2107.34	0.9633
2116.37	0.9651
2125.4	0.9655
2134.43	0.9643
2143.47	0.9614
2152.5	0.9593
2161.53	0.9595
2170.56	0.9598
2179.59	0.9571
2188.62	0.9547
2197.66	0.9527
2206.69	0.9514
2215.72	0.9508
2224.75	0.9503
2233.78	0.9498
2242.81	0.9491
2251.84	0.9486
2260.88	0.949
2269.91	0.9484
2278.94	0.9434
2287.97	0.9429
2297	0.9376
2306.03	0.9351
2315.07	0.9363
2324.1	0.9368
2333.13	0.9363
2342.16	0.9356
2351.19	0.9354
2360.22	0.9336
2369.26	0.9311
2378.29	0.9286
2387.32	0.9261
2396.35	0.9237
2405.38	0.9213
2414.41	0.9187
2423.44	0.9159
2432.48	0.9121
2441.51	0.9083
2450.54	0.9045
2459.57	0.9002
2468.6	0.896
2477.63	0.8906
2486.67	0.8853
2495.7	0.8811
2504.73	0.8776
2513.76	0.874
2522.79	0.8702
2531.82	0.8663
2540.86	0.8624
2549.89	0.8582
2558.92	0.8536
2567.95	0.849
2576.98	0.8435
2586.01	0.8382
2595.04	0.8329
2604.08	0.8282
2613.11	0.8238
2622.14	0.8199
2631.17	0.8159
2640.2	0.8114
2649.23	0.8065
2658.27	0.8017
2667.3	0.797
2676.33	0.7923
2685.36	0.7872
2694.39	0.7824
2703.42	0.7781
2712.46	0.7741
2721.49	0.7701
2730.52	0.7677
2739.55	0.7651
2748.58	0.762
2757.61	0.7537
2766.64	0.7441
2775.68	0.7314
2784.71	0.7274
2793.74	0.7216
2802.77	0.7061
2811.8	0.6914
2820.83	0.6744
2829.87	0.6556
2838.9	0.642
2847.93	0.6368
2856.96	0.6373
2865.99	0.6374
2875.02	0.6374
2884.06	0.6381
2893.09	0.64
2902.12	0.645
2911.15	0.6512
2920.18	0.6539
2929.21	0.6526
2938.25	0.6524
2947.28	0.6544
2956.31	0.6592
2965.34	0.6612
2974.37	0.6598
2983.4	0.6536
2992.43	0.6428
3001.47	0.6298
3010.5	0.6152
3019.53	0.5992
3028.56	0.5827
3037.59	0.5664
3046.62	0.5491
3055.66	0.5281
3064.69	0.509
3073.72	0.4905
3082.75	0.4726
3091.78	0.4553
3100.81	0.4382
3109.85	0.4207
3118.88	0.406
3127.91	0.3673
3136.94	0.3382
3145.97	0.3305
3155	0.3268
3164.03	0.3258
3173.07	0.3248
3182.1	0.3241
3191.13	0.322
3200.16	0.3192
3209.19	0.3132
3218.22	0.3073
3227.26	0.3006
3236.29	0.292
3245.32	0.2826
3254.35	0.2721
3263.38	0.26
3272.41	0.246
3281.45	0.2341
3290.48	0.2253
3299.51	0.2195
3308.54	0.2183
3317.57	0.2174
3326.6	0.2176
3335.63	0.2184
3344.67	0.2196
3353.7	0.2223
3362.73	0.2271
3371.76	0.2329
3380.79	0.2426
3389.82	0.2445
3398.86	0.2497
3407.89	0.2621
3416.92	0.28
3425.95	0.3019
3434.98	0.3321
3444.01	0.3632
3453.05	0.3958
3462.08	0.4258
3471.11	0.4495
3480.14	0.4893
3489.17	0.544
3498.2	0.5772
3507.23	0.6146
3516.27	0.6489
3525.3	0.67
3534.33	0.7162
3543.36	0.7462
3552.39	0.7789
3561.42	0.8005
3570.46	0.832
3579.49	0.8697
3588.52	0.8866
3597.55	0.9062
3606.58	0.9224
3615.61	0.9339
3624.65	0.9403
3633.68	0.9421
3642.71	0.943
3651.74	0.9472
3660.77	0.9554
3669.8	0.9619
3678.83	0.9667
3687.87	0.9684
3696.9	0.9688
3705.93	0.9698
3714.96	0.9715
3723.99	0.9733
3733.02	0.9715
3742.06	0.9704
3751.09	0.9757
3760.12	0.9802
3769.15	0.9801
3778.18	0.9794
3787.21	0.979
3796.25	0.9786
3805.28	0.9781
3814.31	0.9777
3823.34	0.9772
3832.37	0.9767
3841.4	0.9762
3850.44	0.9764
3859.47	0.9766
3868.5	0.9768
3877.53	0.9766
3886.56	0.9769
3895.59	0.9775
3904.62	0.9786
3913.66	0.9797
3922.69	0.9807
3931.72	0.9816
3940.75	0.982
3949.78	0.9825
3958.81	0.9841
3967.85	0.9862
3976.88	0.9856
3985.91	0.9857
3994.94	0.985
4003.97	0.9842
