Infrared Spectrum: Guanosine, anhydrous
Formula: C10 H13 N5 O5
CAS: 118-00-3
State: SOLID (1.0 m / 350 mg KBr DISC)
Class: COBLENTZ III
Instrument: PERKIN-ELMER 180 (GRATING)
Instrument parameters: GRATINGS: 2000, 1000, 500, 250 CM^-^1; FILTER CHANGE: 2970, 2000, 1485, 1000, 743, 500, 372, 250, 186 CM^-^1.
Sampling: TRANSMISSION
Resolution: 2
Origin: K. K. DEB-NCI FREDERICK CANCER RESEARCH CENTER
1/CM	TRANSMITTANCE
404	0.6051
413	0.6063
422	0.6101
431	0.6079
440	0.5973
449	0.5892
458	0.5834
467	0.5774
476	0.5699
485	0.5628
494	0.5463
503	0.5145
512	0.5244
521	0.5367
530	0.5237
539	0.5181
548	0.5196
557	0.5228
566	0.5265
575	0.5082
584	0.5089
593	0.5086
602	0.4781
611	0.4729
620	0.4853
629	0.4959
638	0.5137
647	0.5396
656	0.5414
665	0.5185
674	0.4699
683	0.419
692	0.4628
701	0.5084
710	0.5158
719	0.5623
728	0.5725
737	0.5866
746	0.6081
755	0.6478
764	0.6784
773	0.5269
782	0.5289
791	0.6446
800	0.6124
809	0.6351
818	0.6338
827	0.63
836	0.7022
845	0.6907
854	0.6296
863	0.611
872	0.6044
881	0.6085
890	0.6249
899	0.5962
908	0.5754
917	0.605
926	0.7232
935	0.7655
944	0.7608
953	0.7621
962	0.7513
971	0.7026
980	0.6369
989	0.6287
998	0.6084
1007	0.5773
1016	0.4654
1025	0.4671
1034	0.4525
1043	0.389
1052	0.3696
1061	0.3778
1070	0.3672
1079	0.3389
1088	0.3416
1097	0.4082
1106	0.4229
1115	0.4163
1124	0.3827
1133	0.3883
1142	0.527
1151	0.6657
1160	0.6423
1169	0.5438
1178	0.4633
1187	0.608
1196	0.6515
1205	0.6208
1214	0.6109
1223	0.5832
1232	0.5608
1241	0.5725
1250	0.5893
1259	0.6178
1268	0.6596
1277	0.6731
1286	0.6785
1295	0.6662
1304	0.6226
1313	0.54
1322	0.5052
1331	0.5112
1340	0.4795
1349	0.4879
1358	0.4587
1367	0.4519
1376	0.4579
1385	0.4262
1394	0.401
1403	0.4529
1412	0.4535
1421	0.4548
1430	0.4945
1439	0.5988
1448	0.6201
1457	0.6194
1466	0.6097
1475	0.5274
1484	0.3979
1493	0.4372
1502	0.6796
1511	0.6904
1520	0.5709
1529	0.422
1538	0.3406
1547	0.49
1556	0.5379
1565	0.4083
1574	0.3506
1583	0.36
1592	0.2733
1601	0.1937
1610	0.1787
1619	0.1388
1628	0.0895
1637	0.0917
1646	0.1415
1655	0.2479
1664	0.2707
1673	0.2251
1682	0.171
1691	0.149
1700	0.1824
1709	0.2582
1718	0.2993
1727	0.2711
1736	0.3162
1745	0.4394
1754	0.5186
1763	0.6272
1772	0.6742
1781	0.7063
1790	0.7402
1799	0.7685
1808	0.7872
1817	0.8015
1826	0.8107
1835	0.8172
1844	0.8239
1853	0.8306
1862	0.8372
1871	0.8434
1880	0.8496
1889	0.8552
1898	0.8597
1907	0.8641
1916	0.867
1925	0.87
1934	0.8728
1943	0.8752
1952	0.8774
1961	0.8776
1970	0.8779
1979	0.8767
1988	0.8748
1997	0.8939
2006	0.9011
2015	0.8991
2024	0.8968
2033	0.8941
2042	0.8918
2051	0.8894
2060	0.8872
2069	0.8849
2078	0.8825
2087	0.88
2096	0.8775
2105	0.8753
2114	0.8732
2123	0.8711
2132	0.8689
2141	0.8666
2150	0.8644
2159	0.8622
2168	0.8595
2177	0.8564
2186	0.8533
2195	0.8499
2204	0.8463
2213	0.8427
2222	0.8391
2231	0.8355
2240	0.8318
2249	0.8281
2258	0.8245
2267	0.8207
2276	0.8166
2285	0.8125
2294	0.8084
2303	0.8042
2312	0.8
2321	0.7953
2330	0.7906
2339	0.785
2348	0.7791
2357	0.773
2366	0.7668
2375	0.7595
2384	0.7517
2393	0.7438
2402	0.7361
2411	0.7282
2420	0.7186
2429	0.7088
2438	0.6995
2447	0.6915
2456	0.6838
2465	0.6782
2474	0.6726
2483	0.667
2492	0.6611
2501	0.6543
2510	0.6475
2519	0.6395
2528	0.6309
2537	0.6222
2546	0.6136
2555	0.6035
2564	0.5929
2573	0.5823
2582	0.5722
2591	0.5624
2600	0.5528
2609	0.5431
2618	0.5334
2627	0.5237
2636	0.514
2645	0.5041
2654	0.4941
2663	0.484
2672	0.475
2681	0.4667
2690	0.4584
2699	0.4516
2708	0.4463
2717	0.442
2726	0.4405
2735	0.4418
2744	0.4495
2753	0.4617
2762	0.4764
2771	0.4861
2780	0.4902
2789	0.489
2798	0.4862
2807	0.4801
2816	0.4722
2825	0.4579
2834	0.4454
2843	0.4366
2852	0.4341
2861	0.4344
2870	0.4366
2879	0.4348
2888	0.4279
2897	0.4212
2906	0.4129
2915	0.4004
2924	0.3956
2933	0.4065
2942	0.4237
2951	0.4406
2960	0.4566
2969	0.4674
2978	0.4704
2987	0.4696
2996	0.4646
3005	0.4558
3014	0.4423
3023	0.425
3032	0.4101
3041	0.3969
3050	0.3871
3059	0.3774
3068	0.3676
3077	0.3577
3086	0.3439
3095	0.3271
3104	0.3072
3113	0.2873
3122	0.2696
3131	0.2541
3140	0.2449
3149	0.2362
3158	0.2271
3167	0.2168
3176	0.2066
3185	0.1966
3194	0.1867
3203	0.1795
3212	0.1743
3221	0.1761
3230	0.183
3239	0.1925
3248	0.1982
3257	0.1997
3266	0.1947
3275	0.1862
3284	0.173
3293	0.1582
3302	0.1452
3311	0.1352
3320	0.1299
3329	0.1291
3338	0.132
3347	0.1369
3356	0.1431
3365	0.1496
3374	0.1538
3383	0.1551
3392	0.1546
3401	0.1537
3410	0.1525
3419	0.1512
3428	0.15
3437	0.149
3446	0.1494
3455	0.1579
3464	0.1703
3473	0.2053
3482	0.2436
3491	0.2675
3500	0.2923
3509	0.3204
3518	0.3565
3527	0.3889
3536	0.4107
3545	0.4277
3554	0.443
3563	0.4561
3572	0.4713
3581	0.5357
3590	0.5795
3599	0.6293
3608	0.6622
3617	0.6866
3626	0.7163
3635	0.745
3644	0.7631
3653	0.7759
3662	0.7873
3671	0.7934
3680	0.7996
3689	0.8048
3698	0.8092
3707	0.8127
3716	0.8146
3725	0.8132
3734	0.8105
3743	0.8109
3752	0.8119
3761	0.812
3770	0.8114
3779	0.8108
