Infrared Spectrum: CINCHONINE
Formula: C19 H22 N2 O
CAS: 118-10-5
State: SOLID (MINERAL OIL MULL)
Melting point: 262-264 C
Class: COBLENTZ
Instrument: Not specified, most likely a prism, grating, or hybrid spectrometer.
Sampling: TRANSMISSION
Resolution: 4
Origin: WYANDOTTE CHEMICALS CORP., WYANDOTTE, MICHIGAN, USA
MICROMETERS	TRANSMITTANCE
2.143	0.394
2.1839	0.394
2.22479	0.387
2.26569	0.396
2.30659	0.397
2.34749	0.411
2.38838	0.43
2.42928	0.431
2.47018	0.431
2.51108	0.438
2.55197	0.455
2.59287	0.457
2.63377	0.469
2.67467	0.479
2.71556	0.479
2.75646	0.477
2.79736	0.467
2.83826	0.467
2.87915	0.454
2.92005	0.452
2.96095	0.442
3.00185	0.43
3.04274	0.414
3.08364	0.365
3.12454	0.307
3.16544	0.248
3.20633	0.178
3.24723	0.09
3.28813	0.105
3.32903	0.071
3.36992	0.02
3.41082	0.022
3.45172	0.023
3.49262	0.025
3.53351	0.088
3.57441	0.137
3.61531	0.136
3.65621	0.129
3.6971	0.11
3.738	0.13
3.7789	0.147
3.8198	0.166
3.86069	0.166
3.90159	0.168
3.94249	0.217
3.98339	0.256
4.02428	0.299
4.06518	0.338
4.10608	0.365
4.14698	0.391
4.18787	0.423
4.22877	0.448
4.26967	0.447
4.31057	0.482
4.35146	0.518
4.39236	0.562
4.43326	0.571
4.47416	0.578
4.51505	0.602
4.55595	0.612
4.59685	0.619
4.63775	0.632
4.67864	0.637
4.71954	0.663
4.76044	0.678
4.80134	0.685
4.84223	0.697
4.88313	0.7
4.92403	0.704
4.96493	0.705
5.00582	0.709
5.04672	0.714
5.08762	0.719
5.12852	0.721
5.16941	0.704
5.21031	0.683
5.25121	0.71
5.29211	0.721
5.333	0.729
5.3739	0.724
5.4148	0.729
5.4557	0.717
5.49659	0.695
5.53749	0.637
5.57839	0.695
5.61929	0.705
5.66018	0.7
5.70108	0.666
5.74198	0.666
5.78288	0.654
5.82377	0.678
5.86467	0.647
5.90557	0.656
5.94647	0.67
5.98736	0.668
6.02826	0.629
6.06916	0.452
6.11006	0.585
6.15095	0.613
6.19185	0.63
6.23275	0.21
6.27365	0.574
6.31454	0.418
6.35544	0.498
6.39634	0.67
6.43724	0.649
6.47813	0.693
6.51903	0.658
6.55993	0.387
6.60083	0.26
6.64172	0.35
6.68262	0.403
6.72352	0.382
6.76442	0.192
6.80531	0.096
6.84621	0.137
6.88711	0.289
6.92801	0.513
6.9689	0.661
7.0098	0.556
7.0507	0.698
7.0916	0.644
7.13249	0.474
7.17339	0.455
7.21429	0.34
7.25519	0.382
7.29608	0.425
7.33698	0.397
7.37788	0.569
7.41878	0.482
7.45967	0.387
7.50057	0.528
7.54147	0.474
7.58237	0.615
7.62326	0.6
7.66416	0.681
7.70506	0.729
7.74596	0.731
7.78685	0.685
7.82775	0.69
7.86865	0.765
7.90955	0.746
7.95044	0.695
7.99134	0.773
8.03224	0.744
8.07314	0.469
8.11403	0.75
8.15493	0.797
8.19583	0.777
8.23673	0.607
8.27762	0.496
8.31852	0.75
8.35942	0.818
8.40032	0.85
8.44121	0.826
8.48211	0.707
8.52301	0.472
8.56391	0.5
8.6048	0.566
8.6457	0.79
8.6866	0.833
8.7275	0.816
8.76839	0.692
8.80929	0.503
8.85019	0.467
8.89109	0.319
8.93198	0.164
8.97288	0.113
9.01378	0.156
9.05468	0.316
9.09557	0.445
9.13647	0.523
9.17737	0.561
9.21827	0.598
9.25916	0.542
9.30006	0.503
9.34096	0.346
9.38186	0.408
9.42275	0.534
9.46365	0.43
9.50455	0.318
9.54545	0.515
9.58634	0.544
9.62724	0.484
9.66814	0.397
9.70904	0.311
9.74993	0.537
9.79083	0.418
9.83173	0.399
9.87263	0.517
9.91352	0.607
9.95442	0.63
9.99532	0.312
10.0362	0.153
10.0771	0.365
10.118	0.574
10.1589	0.646
10.1998	0.671
10.2407	0.712
10.2816	0.698
10.3225	0.761
10.3634	0.763
10.4043	0.741
10.4452	0.678
10.4861	0.591
10.527	0.399
10.5679	0.46
10.6088	0.532
10.6497	0.52
10.6906	0.493
10.7315	0.51
10.7724	0.562
10.8133	0.673
10.8542	0.731
10.8951	0.738
10.936	0.722
10.9769	0.661
11.0178	0.431
11.0587	0.197
11.0996	0.392
11.1404	0.522
11.1813	0.45
11.2222	0.336
11.2631	0.307
11.304	0.379
11.3449	0.459
11.3858	0.503
11.4267	0.52
11.4676	0.503
11.5085	0.406
11.5494	0.462
11.5903	0.489
11.6312	0.409
11.6721	0.54
11.713	0.571
11.7539	0.598
11.7948	0.641
11.8357	0.666
11.8766	0.617
11.9175	0.457
11.9584	0.352
11.9993	0.316
12.0402	0.263
12.0811	0.341
12.122	0.469
12.1629	0.566
12.2038	0.636
12.2447	0.692
12.2856	0.707
12.3265	0.624
12.3674	0.707
12.4083	0.637
12.4492	0.37
12.4901	0.265
12.531	0.523
12.5719	0.678
12.6128	0.681
12.6537	0.636
12.6946	0.562
12.7354	0.532
12.7763	0.641
12.8172	0.583
12.8581	0.44
12.899	0.319
12.9399	0.222
12.9808	0.222
13.0217	0.258
13.0626	0.193
13.1035	0.115
13.1444	0.115
13.1853	0.139
13.2262	0.127
13.2671	0.129
13.308	0.268
13.3489	0.469
13.3898	0.571
13.4307	0.647
13.4716	0.688
13.5125	0.729
13.5534	0.751
13.5943	0.773
13.6352	0.784
13.6761	0.797
13.717	0.804
13.7579	0.809
13.7988	0.811
13.8397	0.804
13.8806	0.802
13.9215	0.833
13.9624	0.858
14.0033	0.884
14.0442	0.901
14.0851	0.918
14.126	0.928
14.1669	0.933
14.2078	0.938
14.2487	0.943
14.2896	0.942
14.3305	0.94
14.3713	0.938
14.4122	0.923
14.4531	0.918
14.494	0.896
14.5349	0.855
14.5758	0.795
14.6167	0.717
14.6576	0.664
14.6985	0.67
14.7394	0.714
14.7803	0.755
14.8212	0.775
14.8621	0.789
14.903	0.777
14.9439	0.763
14.9848	0.705
15.0257	0.624
15.0666	0.562
15.1075	0.517
15.1484	0.518
15.1893	0.53
15.2302	0.554
15.2711	0.581
15.312	0.6
15.3529	0.617
15.3938	0.624
15.4347	0.622
15.4756	0.61
15.5165	0.59
15.5574	0.581
15.5983	0.573
15.6392	0.578
15.6801	0.568
15.721	0.513
15.7619	0.448
15.8028	0.411
15.8437	0.406
15.8846	0.435
15.9255	0.455
15.9664	0.455
