Infrared Spectrum: 2,6-Dimethylthiophenol
Formula: C 8 H 10 S
CAS: 118-72-9
State: gas
Origin: EPA-IR VAPOR PHASE LIBRARY
1/CM	ABSORBANCE
549.8	0.001284
559.445	0.0011695
569.09	0.0012205
578.734	0.002348
588.379	0.003488
598.024	0.002728
607.669	0.002268
617.313	0.000933
626.958	0.0010058
636.603	0.0012471
646.248	0.0012536
655.893	0.0014369
665.537	0.0011076
675.182	0.0016137
684.827	0.002148
694.472	0.006298
704.116	0.013848
713.761	0.008978
723.406	0.006838
733.051	0.005908
742.695	0.016168
752.34	0.047988
761.985	0.098408
771.63	0.060928
781.275	0.025638
790.919	0.006158
800.564	0.003528
810.209	0.003288
819.854	0.003248
829.498	0.001858
839.143	0.001838
848.788	0.002138
858.433	0.002748
868.078	0.003418
877.722	0.003518
887.367	0.002828
897.012	0.002518
906.657	0.002658
916.301	0.002958
925.946	0.002308
935.591	0.002588
945.236	0.002848
954.88	0.003828
964.525	0.003598
974.17	0.005118
983.815	0.007648
993.46	0.008988
1003.1	0.008908
1012.75	0.008238
1022.39	0.008468
1032.04	0.009378
1041.68	0.017618
1051.33	0.037518
1060.97	0.043878
1070.62	0.026048
1080.26	0.009048
1089.91	0.004308
1099.55	0.004118
1109.2	0.003468
1118.84	0.002798
1128.49	0.002398
1138.13	0.003158
1147.78	0.002468
1157.42	0.003208
1167.07	0.003398
1176.71	0.001978
1186.36	0.002348
1196	0.0011336
1205.64	0.0010316
1215.29	0.000387
1224.93	0.001141
1234.58	0.0010653
1244.22	0.0014549
1253.87	0.002198
1263.51	0.002028
1273.16	0.002148
1282.8	0.002088
1292.45	0.002458
1302.09	0.002308
1311.74	0.002138
1321.38	0.002268
1331.03	0.002568
1340.67	0.002728
1350.32	0.003138
1359.96	0.004098
1369.61	0.007828
1379.25	0.014088
1388.9	0.016898
1398.54	0.014328
1408.18	0.017828
1417.83	0.021348
1427.47	0.023298
1437.12	0.029358
1446.76	0.040618
1456.41	0.055668
1466.05	0.064778
1475.7	0.053118
1485.34	0.031318
1494.99	0.014788
1504.63	0.009958
1514.28	0.009078
1523.92	0.009058
1533.57	0.008808
1543.21	0.008138
1552.86	0.008518
1562.5	0.010228
1572.15	0.012948
1581.79	0.013968
1591.44	0.012168
1601.08	0.008328
1610.73	0.004848
1620.37	0.003408
1630.01	0.003578
1639.66	0.004478
1649.3	0.004778
1658.95	0.003888
1668.59	0.002768
1678.24	0.002338
1687.88	0.001998
1697.53	0.002148
1707.17	0.002308
1716.82	0.002408
1726.46	0.002268
1736.11	0.001918
1745.75	0.001778
1755.4	0.002478
1765.04	0.003538
1774.69	0.003408
1784.33	0.002428
1793.98	0.001978
1803.62	0.001968
1813.27	0.001898
1822.91	0.002218
1832.55	0.003208
1842.2	0.003898
1851.84	0.003068
1861.49	0.001818
1871.13	0.0013268
1880.78	0.0013689
1890.42	0.001898
1900.07	0.003018
1909.71	0.004888
1919.36	0.005498
1929	0.004088
1938.65	0.002018
1948.29	0.0012328
1957.94	0.0011865
1967.58	0.0011309
1977.23	0.0011385
1986.87	0.0011106
1996.52	0.0011062
2006.16	0.0010953
2015.81	0.0010639
2025.45	0.0010265
2035.1	0.0010472
2044.74	0.0009986
2054.38	0.0009882
2064.03	0.000911
2073.67	0.0009096
2083.32	0.0008437
2092.96	0.0008973
2102.61	0.0009659
2112.25	0.0010046
2121.9	0.001067
2131.54	0.0009625
2141.19	0.0010873
2150.83	0.0011109
2160.48	0.0011256
2170.12	0.0009767
2179.77	0.0008381
2189.41	0.0009344
2199.06	0.00073604
2208.7	0.00079037
2218.35	0.0008211
2227.99	0.0006726
2237.64	0.0010692
2247.28	0.0009045
2256.92	0.0009049
2266.57	0.0010113
2276.21	0.0010888
2285.86	0.0011107
2295.5	0.0011068
2305.15	0.0011904
2314.79	0.0013863
2324.44	0.0015187
2334.08	0.0016594
2343.73	0.0014413
2353.37	0.0011675
2363.02	0.0013485
2372.66	0.0011378
2382.31	0.0012016
2391.95	0.001178
2401.6	0.0014436
2411.24	0.0014462
2420.89	0.0015676
2430.53	0.0013654
2440.18	0.0012482
2449.82	0.0012674
2459.47	0.0013625
2469.11	0.001327
2478.75	0.0014288
2488.4	0.0015313
2498.04	0.0016573
2507.69	0.0016587
2517.33	0.0016694
2526.98	0.001878
2536.62	0.0016503
2546.27	0.0013906
2555.91	0.0016007
2565.56	0.0015326
2575.2	0.0016143
2584.85	0.002148
2594.49	0.002618
2604.14	0.002578
2613.78	0.002098
2623.43	0.002088
2633.07	0.002158
2642.72	0.001868
2652.36	0.0016939
2662.01	0.0014067
2671.65	0.001748
2681.29	0.0014588
2690.94	0.001698
2700.58	0.0015403
2710.23	0.0015887
2719.87	0.001858
2729.52	0.002708
2739.16	0.003638
2748.81	0.003768
2758.45	0.003108
2768.1	0.001888
2777.74	0.002258
2787.39	0.002458
2797.03	0.002818
2806.68	0.003408
2816.32	0.004448
2825.97	0.005878
2835.61	0.007848
2845.26	0.010648
2854.9	0.015108
2864.55	0.020558
2874.19	0.022308
2883.84	0.021138
2893.48	0.021798
2903.12	0.026428
2912.77	0.034558
2922.41	0.045198
2932.06	0.051848
2941.7	0.050638
2951.35	0.045238
2960.99	0.039788
2970.64	0.043518
2980.28	0.046978
2989.93	0.040558
2999.57	0.027538
3009.22	0.026038
3018.86	0.028138
3028.51	0.028418
3038.15	0.030958
3047.8	0.041738
3057.44	0.054428
3067.09	0.052768
3076.73	0.035288
3086.38	0.016998
3096.02	0.007738
3105.67	0.005828
3115.31	0.005108
3124.95	0.004478
3134.6	0.003918
3144.24	0.003628
3153.89	0.003668
3163.53	0.003068
3173.18	0.002758
3182.82	0.001948
3192.47	0.0014371
3202.11	0.001768
3211.76	0.0012732
3221.4	0.0013734
3231.05	0.0011238
3240.69	0.0011659
3250.34	0.0010011
3259.98	0.0011137
3269.63	0.0011673
3279.27	0.0011442
3288.92	0.0011309
3298.56	0.0011025
3308.21	0.0008635
3317.85	0.0008561
3327.49	0.0009743
3337.14	0.0009736
3346.78	0.0010065
3356.43	0.00074099
3366.07	0.0008225
3375.72	0.0012543
3385.36	0.0011119
3395.01	0.000911
3404.65	0.0009566
3414.3	0.0008918
3423.94	0.00070126
3433.59	0.0012796
3443.23	0.00075486
3452.88	0.0011027
3462.52	0.0012469
3472.17	0.0012676
3481.81	0.0014253
3491.46	0.0008768
3501.1	0.0009486
3510.75	0.0011523
3520.39	0.00071205
3530.04	0.0009147
3539.68	0.0013588
3549.32	0.0009466
3558.97	0.000805
3568.61	0.0012053
3578.26	0.0010615
3587.9	0.0012585
3597.55	0.0009035
3607.19	0.0008355
3616.84	0.00075244
3626.48	0.0006391
3636.13	0.000700762
3645.77	0.0009815
3655.42	0.0008414
3665.06	0.00069533
3674.71	0.00070833
3684.35	0.000597
3694	0.000432
3703.64	0.0008066
3713.29	0.0006745
3722.93	0.000702412
3732.58	0.0009779
3742.22	0.0008025
3751.86	0.0008092
3761.51	0.0010826
3771.15	0.0011034
3780.8	0.0012345
3790.44	0.0014156
3800.09	0.0010974
3809.73	0.0012374
3819.38	0.0011641
3829.02	0.0013056
3838.67	0.0012136
3848.31	0.0014853
3857.96	0.0011113
3867.6	0.0008855
3877.25	0.000842
3886.89	0.0011567
3896.54	0.0013272
3906.18	0.0014005
3915.83	0.0014993
3925.47	0.0013753
3935.12	0.0014998
3944.76	0.001718
3954.41	0.0016755
3964.05	0.001125
3973.69	0.0009748
3983.34	0.0012537
3992.98	0.00078326
