Infrared Spectrum: 2'-HYDROXYACETOPHENONE
Formula: C8 H8 O2
CAS: 118-93-4
State: SOLUTION (10% IN CCl4 FOR 4000-1330 CM^-^1, 10% IN CS2 FOR 1330-600 CM^-^1) VS. SOLVENT
Class: COBLENTZ III
Instrument: BECKMAN IR-7 (GRATING)
Instrument parameters: GRATING CHANGES AT 3000, 2200, 1150 CM^-^1
Sampling: TRANSMISSION
Path length: 0.010 CM, 0.010 CM
Resolution: 4
Origin: WESTERN REGIONAL RES. USDA
1/CM	TRANSMITTANCE
599.339	0.781
607.928	0.626
616.517	0.288
625.106	0.3439
633.695	0.7529
642.284	0.849
650.873	0.856
659.462	0.878
668.051	0.868
676.64	0.868
685.229	0.816
693.818	0.825
702.407	0.736
710.996	0.5317
719.585	0.612
728.174	0.4071
736.762	0.0919
745.351	0.255
753.94	0.004
762.529	0.3689
771.118	0.372
779.707	0.233
788.296	0.16
796.885	0.23
805.474	0.402
814.063	0.562
822.652	0.666
831.241	0.557
839.83	0.365
848.419	0.745
857.008	0.679
865.597	0.832
874.186	0.856
882.775	0.87
891.364	0.88
899.953	0.882
908.542	0.881
917.131	0.878
925.72	0.866
934.309	0.7941
942.898	0.713
951.487	0.4851
960.076	0.1999
968.665	0.6989
977.254	0.791
985.843	0.828
994.432	0.834
1003.02	0.83
1011.61	0.759
1020.2	0.5121
1028.79	0.547
1037.38	0.7639
1045.97	0.846
1054.55	0.863
1063.14	0.812
1071.73	0.833
1080.32	0.872
1088.91	0.858
1097.5	0.852
1106.09	0.856
1114.68	0.814
1123.27	0.753
1131.86	0.806
1140.44	0.744
1149.03	0.44
1157.62	0.179
1166.21	0.454
1174.8	0.635
1183.39	0.703
1191.98	0.648
1200.57	0.49
1209.16	0.159
1217.74	0.007
1226.33	0.3279
1234.92	0.2101
1243.51	0.003
1252.1	0.332
1260.69	0.423
1269.28	0.371
1277.87	0.414
1286.46	0.48
1295.05	0.0851
1303.63	0.001
1312.22	0.273
1320.81	0.183
1329.4	0.3659
1337.99	0.406
1346.58	0.169
1355.17	0.074
1363.76	0.043
1372.35	0.094
1380.94	0.274
1389.52	0.505
1398.11	0.562
1406.7	0.62
1415.29	0.5151
1423.88	0.456
1432.47	0.385
1441.06	0.1411
1449.65	0.016
1458.24	0.387
1466.82	0.446
1475.41	0.3101
1484	0.026
1492.59	0.185
1501.18	0.278
1509.77	0.486
1518.36	0.548
1526.95	0.571
1535.54	0.59
1544.13	0.596
1552.71	0.587
1561.3	0.543
1569.89	0.4111
1578.48	0.145
1587.07	0.2059
1595.66	0.3129
1604.25	0.248
1612.84	0.093
1621.43	0.102
1630.02	0.088
1638.6	0.001
1647.19	0
1655.78	0.0589
1664.37	0.278
1672.96	0.4609
1681.55	0.574
1690.14	0.633
1698.73	0.727
1707.32	0.771
1715.9	0.776
1724.49	0.815
1733.08	0.839
1741.67	0.848
1750.26	0.86
1758.85	0.862
1767.44	0.875
1776.03	0.86
1784.62	0.862
1793.21	0.814
1801.79	0.805
1810.38	0.864
1818.97	0.883
1827.56	0.866
1836.15	0.86
1844.74	0.879
1853.33	0.881
1861.92	0.862
1870.51	0.868
1879.1	0.845
1887.68	0.871
1896.27	0.887
1904.86	0.881
1913.45	0.847
1922.04	0.849
1930.63	0.881
1939.22	0.873
1947.81	0.836
1956.4	0.824
1964.98	0.872
1973.57	0.882
1982.16	0.886
1990.75	0.891
1999.34	0.895
2007.93	0.893
2016.52	0.8924
2025.11	0.8884
2033.7	0.887
2042.29	0.883
2050.87	0.8816
2059.46	0.8846
2068.05	0.8907
2076.64	0.891
2085.23	0.8906
2093.82	0.8873
2102.41	0.885
2111	0.8838
2119.59	0.883
2128.18	0.882
2136.76	0.883
2145.35	0.885
2153.94	0.8896
2162.53	0.8939
2171.12	0.896
2179.71	0.8964
2188.3	0.898
2196.89	0.8989
2205.48	0.9
2214.06	0.9
2222.65	0.9
2231.24	0.9
2239.83	0.9
2248.42	0.899
2257.01	0.898
2265.6	0.888
2274.19	0.8616
2282.78	0.8665
2291.37	0.8826
2299.95	0.8857
2308.54	0.8606
2317.13	0.8566
2325.72	0.854
2334.31	0.8518
2342.9	0.8495
2351.49	0.8434
2360.08	0.838
2368.67	0.8433
2377.26	0.8693
2385.84	0.8789
2394.43	0.877
2403.02	0.875
2411.61	0.8723
2420.2	0.8681
2428.79	0.8658
2437.38	0.8625
2445.97	0.8627
2454.56	0.864
2463.15	0.866
2471.73	0.8665
2480.32	0.868
2488.91	0.868
2497.5	0.8666
2506.09	0.8609
2514.68	0.842
2523.27	0.8272
2531.86	0.8189
2540.45	0.8327
2549.03	0.832
2557.62	0.8288
2566.21	0.826
2574.8	0.8242
2583.39	0.8189
2591.98	0.8091
2600.57	0.7918
2609.16	0.7861
2617.75	0.7931
2626.34	0.801
2634.92	0.797
2643.51	0.7919
2652.1	0.8018
2660.69	0.8169
2669.28	0.8118
2677.87	0.79
2686.46	0.7769
2695.05	0.7685
2703.64	0.767
2712.23	0.766
2720.81	0.7623
2729.4	0.753
2737.99	0.7422
2746.58	0.7324
2755.17	0.7167
2763.76	0.714
2772.35	0.7071
2780.94	0.7093
2789.53	0.7431
2798.11	0.7449
2806.7	0.7239
2815.29	0.7177
2823.88	0.7118
2832.47	0.6985
2841.06	0.6819
2849.65	0.679
2858.24	0.673
2866.83	0.6536
2875.42	0.6208
2884	0.6105
2892.59	0.61
2901.18	0.606
2909.77	0.5982
2918.36	0.5835
2926.95	0.583
2935.54	0.582
2944.13	0.5796
2952.72	0.5455
2961.31	0.5134
2969.89	0.494
2978.48	0.4977
2987.07	0.506
2995.66	0.468
3004.25	0.449
3012.84	0.447
3021.43	0.4611
3030.02	0.4557
3038.61	0.413
3047.19	0.393
3055.78	0.4054
3064.37	0.4192
3072.96	0.4487
3081.55	0.4773
3090.14	0.5183
3098.73	0.5433
3107.32	0.5628
3115.91	0.5777
3124.5	0.591
3133.08	0.591
3141.67	0.5879
3150.26	0.583
3158.85	0.5838
3167.44	0.6087
3176.03	0.6218
3184.62	0.6345
3193.21	0.6463
3201.8	0.6667
3210.39	0.6777
3218.97	0.678
3227.56	0.6738
3236.15	0.6695
3244.74	0.666
3253.33	0.6701
3261.92	0.6823
3270.51	0.6892
3279.1	0.7031
3287.69	0.7175
3296.27	0.7317
3304.86	0.7526
3313.45	0.7628
3322.04	0.7692
3330.63	0.7745
3339.22	0.7807
3347.81	0.788
3356.4	0.7993
3364.99	0.805
3373.58	0.807
3382.16	0.8121
3390.75	0.816
3399.34	0.8192
3407.93	0.8229
3416.52	0.8283
3425.11	0.8324
3433.7	0.8344
3442.29	0.839
3450.88	0.841
3459.47	0.846
3468.05	0.8498
3476.64	0.853
3485.23	0.8566
3493.82	0.8606
3502.41	0.8657
3511	0.8682
3519.59	0.872
3528.18	0.8747
3536.77	0.877
3545.36	0.8792
3553.94	0.881
3562.53	0.8827
3571.12	0.883
3579.71	0.8837
3588.3	0.883
3596.89	0.8812
3605.48	0.8768
3614.07	0.8777
3622.66	0.8868
3631.24	0.8948
3639.83	0.898
3648.42	0.9004
3657.01	0.902
3665.6	0.904
3674.19	0.9028
3682.78	0.902
3691.37	0.901
3699.96	0.902
3708.55	0.904
3717.13	0.9072
3725.72	0.91
3734.31	0.9111
3742.9	0.9134
3751.49	0.914
3760.08	0.9131
3768.67	0.912
3777.26	0.912
3785.85	0.9127
3794.44	0.914
3803.02	0.914
3811.61	0.914
3820.2	0.914
3828.79	0.913
3837.38	0.912
3845.97	0.9114
3854.56	0.9101
3863.15	0.9089
3871.74	0.908
3880.32	0.906
3888.91	0.904
3897.5	0.904
3906.09	0.9055
3914.68	0.9068
3923.27	0.907
3931.86	0.907
3940.45	0.907
3949.04	0.908
3957.63	0.908
3966.21	0.909
3974.8	0.908
3983.39	0.9071
3991.98	0.9058
4000.57	0.9065
4009.16	0.9053
