Infrared Spectrum: URAMIL
Formula: C4 H5 N3 O3
CAS: 118-78-5
State: SOLID (MINERAL OIL MULL)
Class: COBLENTZ
Instrument: Not specified, most likely a prism, grating, or hybrid spectrometer.
Sampling: TRANSMISSION
Resolution: 4
Origin: WYANDOTTE CHEMICALS CORP., WYANDOTTE, MICHIGAN, USA
MICROMETERS	TRANSMITTANCE
2.025	0.659
2.06213	0.675
2.09927	0.689
2.1364	0.706
2.17353	0.723
2.21067	0.706
2.2478	0.712
2.28493	0.723
2.32207	0.746
2.3592	0.757
2.39633	0.768
2.43347	0.77
2.4706	0.784
2.50773	0.791
2.54487	0.805
2.582	0.826
2.61913	0.838
2.65627	0.849
2.6934	0.871
2.73053	0.881
2.76767	0.881
2.8048	0.868
2.84193	0.836
2.87907	0.815
2.9162	0.796
2.95333	0.779
2.99047	0.762
3.0276	0.725
3.06473	0.67
3.10187	0.593
3.139	0.501
3.17613	0.372
3.21327	0.265
3.2504	0.206
3.28753	0.187
3.32467	0.169
3.3618	0.099
3.39893	0.029
3.43607	0.02
3.4732	0.023
3.51033	0.032
3.54747	0.043
3.5846	0.141
3.62173	0.163
3.65887	0.152
3.696	0.189
3.73313	0.228
3.77027	0.268
3.8074	0.31
3.84453	0.35
3.88167	0.392
3.9188	0.43
3.95593	0.476
3.99307	0.509
4.0302	0.559
4.06733	0.583
4.10447	0.588
4.1416	0.631
4.17873	0.661
4.21586	0.684
4.253	0.695
4.29013	0.701
4.32726	0.729
4.3644	0.762
4.40153	0.793
4.43866	0.799
4.4758	0.805
4.51293	0.822
4.55006	0.829
4.5872	0.84
4.62433	0.857
4.66146	0.857
4.6986	0.872
4.73573	0.883
4.77286	0.888
4.81	0.895
4.84713	0.908
4.88426	0.909
4.9214	0.916
4.95853	0.928
4.99566	0.933
5.0328	0.934
5.06993	0.937
5.10706	0.947
5.1442	0.956
5.18133	0.959
5.21846	0.948
5.2556	0.945
5.29273	0.95
5.32986	0.937
5.367	0.933
5.40413	0.931
5.44126	0.902
5.4784	0.903
5.51553	0.892
5.55266	0.863
5.5898	0.83
5.62693	0.804
5.66406	0.745
5.7012	0.647
5.73833	0.495
5.77546	0.336
5.8126	0.248
5.84973	0.211
5.88686	0.22
5.924	0.217
5.96113	0.22
5.99826	0.167
6.0354	0.145
6.07253	0.138
6.10966	0.102
6.1468	0.079
6.18393	0.06
6.22106	0.054
6.2582	0.048
6.29533	0.051
6.33246	0.054
6.3696	0.062
6.40673	0.068
6.44386	0.052
6.481	0.068
6.51813	0.077
6.55526	0.113
6.5924	0.147
6.62953	0.147
6.66666	0.177
6.7038	0.229
6.74093	0.232
6.77806	0.17
6.8152	0.133
6.85233	0.184
6.88946	0.251
6.9266	0.344
6.96373	0.406
7.00086	0.25
7.038	0.114
7.07513	0.043
7.11226	0.043
7.1494	0.069
7.18653	0.099
7.22366	0.104
7.2608	0.099
7.29793	0.166
7.33506	0.231
7.3722	0.307
7.40933	0.347
7.44646	0.358
7.4836	0.391
7.52073	0.416
7.55786	0.416
7.595	0.277
7.63213	0.228
7.66926	0.355
7.7064	0.43
7.74353	0.479
7.78066	0.507
7.8178	0.531
7.85493	0.535
7.89206	0.545
7.9292	0.565
7.96633	0.577
8.00346	0.576
8.0406	0.559
8.07773	0.546
8.11486	0.538
8.152	0.467
8.18913	0.352
8.22626	0.42
8.2634	0.479
8.30053	0.504
8.33766	0.531
8.37479	0.545
8.41193	0.551
8.44906	0.563
8.48619	0.555
8.52333	0.545
8.56046	0.524
8.59759	0.481
8.63473	0.458
8.67186	0.498
8.70899	0.518
8.74613	0.526
8.78326	0.518
8.82039	0.503
8.85753	0.51
8.89466	0.506
8.93179	0.496
8.96893	0.489
9.00606	0.487
9.04319	0.487
9.08033	0.489
9.11746	0.503
9.15459	0.512
9.19173	0.512
9.22886	0.523
9.26599	0.529
9.30313	0.552
9.34026	0.56
9.37739	0.572
9.41453	0.571
9.45166	0.582
9.48879	0.586
9.52593	0.591
9.56306	0.596
9.60019	0.613
9.63733	0.627
9.67446	0.636
9.71159	0.644
9.74873	0.652
9.78586	0.655
9.82299	0.664
9.86013	0.664
9.89726	0.667
9.93439	0.681
9.97153	0.692
10.0087	0.689
10.0458	0.695
10.0829	0.698
10.1201	0.711
10.1572	0.714
10.1943	0.728
10.2315	0.726
10.2686	0.722
10.3057	0.729
10.3429	0.729
10.38	0.734
10.4171	0.734
10.4543	0.739
10.4914	0.74
10.5285	0.74
10.5657	0.745
10.6028	0.746
10.6399	0.746
10.6771	0.743
10.7142	0.743
10.7513	0.743
10.7885	0.739
10.8256	0.743
10.8627	0.737
10.8999	0.737
10.937	0.732
10.9741	0.739
11.0113	0.734
11.0484	0.736
11.0855	0.728
11.1227	0.718
11.1598	0.703
11.1969	0.684
11.2341	0.664
11.2712	0.642
11.3083	0.616
11.3455	0.593
11.3826	0.554
11.4197	0.51
11.4569	0.49
11.494	0.451
11.5311	0.425
11.5683	0.397
11.6054	0.381
11.6425	0.364
11.6797	0.377
11.7168	0.375
11.7539	0.394
11.7911	0.414
11.8282	0.444
11.8653	0.472
11.9025	0.504
11.9396	0.534
11.9767	0.569
12.0139	0.593
12.051	0.613
12.0881	0.639
12.1253	0.653
12.1624	0.663
12.1995	0.686
12.2367	0.69
12.2738	0.698
12.3109	0.706
12.3481	0.704
12.3852	0.709
12.4223	0.729
12.4595	0.737
12.4966	0.74
12.5337	0.756
12.5709	0.76
12.608	0.765
12.6451	0.765
12.6823	0.768
12.7194	0.77
12.7565	0.763
12.7937	0.763
12.8308	0.753
12.8679	0.754
12.9051	0.742
12.9422	0.725
12.9793	0.67
13.0165	0.537
13.0536	0.388
13.0907	0.403
13.1279	0.554
13.165	0.588
13.2021	0.537
13.2393	0.414
13.2764	0.265
13.3135	0.17
13.3507	0.211
13.3878	0.346
13.4249	0.482
13.4621	0.554
13.4992	0.6
13.5363	0.63
13.5735	0.645
13.6106	0.653
13.6477	0.658
13.6849	0.669
13.722	0.675
13.7591	0.687
13.7963	0.692
13.8334	0.698
13.8705	0.698
13.9077	0.701
13.9448	0.714
13.9819	0.718
14.0191	0.704
14.0562	0.638
14.0933	0.6
14.1305	0.635
14.1676	0.686
14.2047	0.712
14.2419	0.736
14.279	0.753
14.3161	0.77
14.3533	0.776
14.3904	0.776
14.4275	0.777
14.4647	0.784
14.5018	0.782
14.5389	0.781
14.5761	0.779
14.6132	0.776
14.6503	0.773
14.6875	0.767
14.7246	0.762
14.7617	0.748
14.7989	0.746
14.836	0.739
14.8731	0.74
14.9103	0.734
14.9474	0.726
14.9845	0.714
15.0217	0.686
15.0588	0.65
15.0959	0.633
15.1331	0.649
15.1702	0.67
15.2073	0.672
15.2445	0.687
15.2816	0.684
15.3187	0.683
15.3559	0.677
15.393	0.669
15.4301	0.664
15.4673	0.659
15.5044	0.645
15.5415	0.642
15.5787	0.631
15.6158	0.628
15.6529	0.621
15.6901	0.608
15.7272	0.599
15.7643	0.593
15.8015	0.582
15.8386	0.576
15.8757	0.569
15.9129	0.565
15.95	0.56
15.9871	0.552
