Infrared Spectrum: TNT
Formula: C 6 H 2 ( N O 2 ) 3 C H 3 or C 7 H 5 N 3 O 6
CAS: 118-96-7
State: solid
Instrument: Bruker IR Cube FTIR
Resolution: 0.96450084
Origin: Pacific Northwest National Laboratory Under IARPA Contract
1/cm	Reflectance
7498.03	0.83701
7480.67	0.76253
7463.31	0.683819
7445.95	0.71417
7428.59	0.701875
7411.23	0.675608
7393.87	0.713073
7376.51	0.658426
7359.15	0.656336
7341.79	0.660857
7324.43	0.667798
7307.07	0.707266
7289.71	0.713573
7272.35	0.684713
7254.99	0.677643
7237.63	0.682419
7220.27	0.668205
7202.91	0.675802
7185.55	0.692128
7168.19	0.693018
7150.83	0.716612
7133.47	0.69925
7116.11	0.706209
7098.75	0.718697
7081.39	0.719799
7064.03	0.713887
7046.67	0.71677
7029.31	0.703894
7011.96	0.706223
6994.6	0.704352
6977.24	0.698168
6959.88	0.685761
6942.52	0.685404
6925.16	0.677493
6907.8	0.665742
6890.44	0.657888
6873.08	0.637537
6855.72	0.597791
6838.36	0.517094
6821	0.465791
6803.64	0.307099
6786.28	0.178944
6768.92	0.251228
6751.56	0.277959
6734.2	0.222963
6716.84	0.370822
6699.48	0.374286
6682.12	0.324025
6664.76	0.317832
6647.4	0.357611
6630.04	0.38663
6612.68	0.37631
6595.32	0.432546
6577.96	0.496666
6560.6	0.525901
6543.24	0.532897
6525.88	0.542061
6508.52	0.540761
6491.16	0.518859
6473.8	0.514682
6456.44	0.514943
6439.08	0.499096
6421.72	0.528828
6404.36	0.553821
6387	0.562323
6369.64	0.54679
6352.28	0.557105
6334.92	0.552526
6317.56	0.556609
6300.2	0.539435
6282.84	0.463881
6265.48	0.500159
6248.12	0.479067
6230.76	0.473184
6213.4	0.486775
6196.04	0.470277
6178.68	0.469189
6161.32	0.454423
6143.97	0.438904
6126.61	0.379406
6109.25	0.274257
6091.89	0.221605
6074.53	0.170324
6057.17	0.184528
6039.81	0.144422
6022.45	0.164573
6005.09	0.152018
5987.73	0.134552
5970.37	0.106873
5953.01	0.125657
5935.65	0.110108
5918.29	0.148475
5900.93	0.118407
5883.57	0.0947209
5866.21	0.119236
5848.85	0.137731
5831.49	0.11957
5814.13	0.147668
5796.77	0.147212
5779.41	0.122244
5762.05	0.109987
5744.69	0.0909493
5727.33	0.13736
5709.97	0.151363
5692.61	0.137545
5675.25	0.163302
5657.89	0.154174
5640.53	0.171993
5623.17	0.22159
5605.81	0.220415
5588.45	0.212954
5571.09	0.216225
5553.73	0.21802
5536.37	0.223537
5519.01	0.198293
5501.65	0.200816
5484.29	0.164659
5466.93	0.152152
5449.57	0.160622
5432.21	0.158284
5414.85	0.143306
5397.49	0.118369
5380.13	0.104753
5362.77	0.0815485
5345.41	0.0669811
5328.05	0.0550336
5310.69	0.0462216
5293.33	0.030862
5275.97	0.0338346
5258.62	0.0410717
5241.26	0.0494637
5223.9	0.046279
5206.54	0.0441485
5189.18	0.0382256
5171.82	0.0519523
5154.46	0.0547524
5137.1	0.0571314
5119.74	0.057474
5102.38	0.0531326
5085.02	0.0739214
5067.66	0.0686083
5050.3	0.074968
5032.94	0.0595263
5015.58	0.0675673
4998.22	0.0866242
4980.86	0.0632877
4963.5	0.0628217
4946.14	0.0677233
4928.78	0.0791532
4911.42	0.086883
4894.06	0.0575892
4876.7	0.0769591
4859.34	0.150534
4841.98	0.131104
4824.62	0.112732
4807.26	0.0759989
4789.9	0.0931373
4772.54	0.112682
4755.18	0.0971067
4737.82	0.116375
4720.46	0.104116
4703.1	0.0912754
4685.74	0.064053
4668.38	0.0418449
4651.02	0.0468248
4633.66	0.0777509
4616.3	0.0471754
4598.94	0.0399652
4581.58	0.0299547
4564.22	0.0209394
4546.86	0.0201894
4529.5	0.0250736
4512.14	0.043519
4494.78	0.0358622
4477.42	0.0320226
4460.06	0.027622
4442.7	0.0221962
4425.34	0.0611866
4407.98	0.0413892
4390.63	0.0433667
4373.27	0.0463868
4355.91	0.0351707
4338.55	0.036167
4321.19	0.0497515
4303.83	0.0481395
4286.47	0.0367956
4269.11	0.0476396
4251.75	0.0548545
4234.39	0.0530705
4217.03	0.0300344
4199.67	0.0333458
4182.31	0.0459213
4164.95	0.0433425
4147.59	0.0272506
4130.23	0.0253813
4112.87	0.0248032
4095.51	0.0394737
4078.15	0.0332738
4060.79	0.0395032
4043.43	0.843193
4026.07	0.794649
4008.71	0.743731
3991.35	0.730714
3973.99	0.697138
3956.63	0.738033
3939.27	0.704106
3921.91	0.685734
3904.55	0.702731
3887.19	0.708058
3869.83	0.701936
3852.47	0.729389
3835.11	0.72178
3817.75	0.71631
3800.39	0.725358
3783.03	0.706109
3765.67	0.696221
3748.31	0.698876
3730.95	0.70911
3713.59	0.731224
3696.23	0.721997
3678.87	0.71962
3661.51	0.732538
3644.15	0.73599
3626.79	0.740333
3609.43	0.741121
3592.07	0.732863
3574.71	0.72973
3557.35	0.723581
3539.99	0.725936
3522.64	0.713705
3505.28	0.712064
3487.92	0.702054
3470.56	0.69322
3453.2	0.687209
3435.84	0.672684
3418.48	0.650332
3401.12	0.599283
3383.76	0.521825
3366.4	0.416646
3349.04	0.27263
3331.68	0.193509
3314.32	0.279871
3296.96	0.296367
3279.6	0.293118
3262.24	0.404793
3244.88	0.387077
3227.52	0.331204
3210.16	0.332692
3192.8	0.390286
3175.44	0.412417
3158.08	0.41827
3140.72	0.471122
3123.36	0.529917
3106	0.556369
3088.64	0.562564
3071.28	0.561233
3053.92	0.559788
3036.56	0.517967
3019.2	0.531267
3001.84	0.532966
2984.48	0.538488
2967.12	0.561217
2949.76	0.579564
2932.4	0.577304
2915.04	0.573925
2897.68	0.572604
2880.32	0.575355
2862.96	0.577383
2845.6	0.536839
2828.24	0.500071
2810.88	0.525387
2793.52	0.46521
2776.16	0.499514
2758.8	0.504061
2741.44	0.475336
2724.08	0.496629
2706.72	0.466182
2689.36	0.44322
2672	0.386418
2654.64	0.227392
2637.29	0.238632
2619.93	0.183669
2602.57	0.191179
2585.21	0.139114
2567.85	0.183757
2550.49	0.147806
2533.13	0.121144
2515.77	0.128623
2498.41	0.132614
2481.05	0.141294
2463.69	0.148526
2446.33	0.121293
2428.97	0.116242
2411.61	0.123856
2394.25	0.114965
2376.89	0.146472
2359.53	0.176934
2342.17	0.163914
2324.81	0.104804
2307.45	0.13045
2290.09	0.10778
2272.73	0.178937
2255.37	0.177703
2238.01	0.162714
2220.65	0.169329
2203.29	0.173964
2185.93	0.190456
2168.57	0.236867
2151.21	0.21971
2133.85	0.209757
2116.49	0.226366
2099.13	0.228003
2081.77	0.215052
2064.41	0.209062
2047.05	0.207484
2029.69	0.148321
2012.33	0.151626
1994.97	0.173427
1977.61	0.166063
1960.25	0.140144
1942.89	0.117719
1925.53	0.104358
1908.17	0.0735269
1890.81	0.0684462
1873.45	0.0547703
1856.09	0.0400569
1838.73	0.0365172
1821.37	0.0452431
1804.01	0.0457298
1786.65	0.0504688
1769.3	0.0516555
1751.94	0.0438304
1734.58	0.0452377
1717.22	0.0546408
1699.86	0.0636055
1682.5	0.0629898
1665.14	0.059826
1647.78	0.0632701
1630.42	0.0787931
1613.06	0.0769112
1595.7	0.0704929
1578.34	0.0650944
1560.98	0.0667522
1543.62	0.0725603
1526.26	0.0640059
1508.9	0.0648225
1491.54	0.0742587
1474.18	0.0784044
1456.82	0.0800262
1439.46	0.0762338
1422.1	0.0963052
1404.74	0.149418
1387.38	0.0908215
1370.02	0.137395
1352.66	0.0866205
1335.3	0.119227
1317.94	0.136309
1300.58	0.0820139
1283.22	0.123429
1265.86	0.112194
1248.5	0.0943964
1231.14	0.0654358
1213.78	0.045552
1196.42	0.0671669
1179.06	0.0723947
1161.7	0.0472871
1144.34	0.0389546
1126.98	0.0285378
1109.62	0.0177906
1092.26	0.019494
1074.9	0.0673162
1057.54	0.0389736
1040.18	0.0361551
1022.82	0.0299157
1005.46	0.0219333
988.104	0.0182538
970.744	0.0444558
953.384	0.0404495
936.025	0.0465807
918.665	0.0454275
901.305	0.0390321
883.945	0.0350413
866.585	0.0579124
849.226	0.037077
831.866	0.0467425
814.506	0.0368133
797.146	0.0624194
779.786	0.0480934
762.427	0.0294073
745.067	0.0428207
727.707	0.0487602
710.347	0.0469261
692.987	0.0374766
675.628	0.0310277
658.268	0.0373494
640.908	0.0461077
623.548	0.0308081
606.188	0.0757326
