Infrared Spectrum: CHLORANIL
Formula: C6 Cl4 O2
CAS: 118-75-2
State: SOLID (SPLIT MULL)
Class: COBLENTZ III
Instrument: DOW KBr FOREPRISM-GRATING
Instrument parameters: BLAZED AT 3.5, 12.0, 20.0 MICRON AND CHANGED AT 5.0, 7.5, 14.9 MICRON
Sampling: TRANSMISSION
Resolution: 2
Origin: DOW CHEMICAL COMPANY
1/CM	TRANSMITTANCE
3780	0.4222
3771	0.4228
3762	0.4235
3753	0.4244
3744	0.4254
3735	0.4265
3726	0.4277
3717	0.4289
3708	0.4301
3699	0.4312
3690	0.4324
3681	0.4334
3672	0.4345
3663	0.4355
3654	0.4368
3645	0.4382
3636	0.4396
3627	0.441
3618	0.4424
3609	0.4437
3600	0.4449
3591	0.446
3582	0.4472
3573	0.4483
3564	0.4495
3555	0.4507
3546	0.4522
3537	0.4536
3528	0.455
3519	0.4564
3510	0.458
3501	0.46
3492	0.4619
3483	0.4639
3474	0.4659
3465	0.4675
3456	0.469
3447	0.4706
3438	0.4725
3429	0.475
3420	0.4776
3411	0.48
3402	0.4825
3393	0.4839
3384	0.4862
3375	0.4903
3366	0.387
3357	0.4498
3348	0.4699
3339	0.4749
3330	0.4798
3321	0.4834
3312	0.4862
3303	0.4892
3294	0.4921
3285	0.4948
3276	0.4974
3267	0.4999
3258	0.5025
3249	0.5051
3240	0.5076
3231	0.5098
3222	0.5116
3213	0.5135
3204	0.5153
3195	0.5172
3186	0.519
3177	0.5209
3168	0.5231
3159	0.5253
3150	0.5275
3141	0.5296
3132	0.5318
3123	0.5339
3114	0.536
3105	0.5379
3096	0.5398
3087	0.5416
3078	0.5435
3069	0.5455
3060	0.548
3051	0.5504
3042	0.5529
3033	0.5549
3024	0.5569
3015	0.5584
3006	0.5597
2997	0.561
2988	0.5619
2979	0.5625
2970	0.5631
2961	0.5637
2952	0.5627
2943	0.562
2934	0.5626
2925	0.5659
2916	0.5717
2907	0.574
2898	0.5762
2889	0.5798
2880	0.5819
2871	0.5837
2862	0.5855
2853	0.5872
2844	0.5882
2835	0.5887
2826	0.5897
2817	0.5919
2808	0.5946
2799	0.5982
2790	0.6018
2781	0.6048
2772	0.6071
2763	0.6092
2754	0.6112
2745	0.6121
2736	0.6129
2727	0.6137
2718	0.6147
2709	0.6159
2700	0.6171
2691	0.6183
2682	0.6195
2673	0.6207
2664	0.6221
2655	0.6236
2646	0.6251
2637	0.6266
2628	0.6282
2619	0.6297
2610	0.6312
2601	0.633
2592	0.6353
2583	0.6375
2574	0.6397
2565	0.6418
2556	0.6435
2547	0.6446
2538	0.6458
2529	0.6464
2520	0.6464
2511	0.6465
2502	0.6465
2493	0.6467
2484	0.6471
2475	0.6472
2466	0.6475
2457	0.6476
2448	0.6478
2439	0.6483
2430	0.6489
2421	0.6493
2412	0.6493
2403	0.6492
2394	0.6469
2385	0.6444
2376	0.6411
2367	0.6375
2358	0.6367
2349	0.6365
2340	0.6386
2331	0.6407
2322	0.643
2313	0.6453
2304	0.6476
2295	0.6504
2286	0.6531
2277	0.6558
2268	0.6586
2259	0.6615
2250	0.665
2241	0.6687
2232	0.6736
2223	0.6785
2214	0.6835
2205	0.6874
2196	0.6908
2187	0.6943
2178	0.6971
2169	0.6997
2160	0.7025
2151	0.7056
2142	0.7075
2133	0.7087
2124	0.709
2115	0.7099
2106	0.7126
2097	0.716
2088	0.7196
2079	0.7238
2070	0.7284
2061	0.7331
2052	0.7378
2043	0.7455
2034	0.773
2025	0.754
2016	0.7549
2007	0.761
1998	0.7646
1989	0.7671
1980	0.7695
1971	0.7747
1962	0.912
1953	0.7884
1944	0.7838
1935	0.7869
1926	0.7901
1917	0.7921
1908	0.7915
1899	0.7932
1890	0.796
1881	0.799
1872	0.8019
1863	0.8057
1854	0.8093
1845	0.8122
1836	0.8153
1827	0.8184
1818	0.8215
1809	0.825
1800	0.8286
1791	0.8336
1782	0.8389
1773	0.8459
1764	0.8543
1755	0.8637
1746	0.8727
1737	0.8816
1728	0.8892
1719	0.8914
1710	0.8653
1701	0.6154
1692	0.0308
1683	0.2177
1674	0.3204
1665	0.4884
1656	0.5734
1647	0.6231
1638	0.6675
1629	0.7
1620	0.7225
1611	0.7433
1602	0.7478
1593	0.7224
1584	0.6931
1575	0.6339
1566	0.2495
1557	0.6017
1548	0.6266
1539	0.6701
1530	0.7137
1521	0.7265
1512	0.7378
1503	0.7475
1494	0.736
1485	0.7369
1476	0.7485
1467	0.7525
1458	0.7493
1449	0.7519
1440	0.7507
1431	0.7476
1422	0.7439
1413	0.7448
1404	0.749
1395	0.7518
1386	0.7506
1377	0.7508
1368	0.7433
1359	0.7136
1350	0.6808
1341	0.6512
1332	0.7351
1323	0.7761
1314	0.7711
1305	0.7801
1296	0.7865
1287	0.7895
1278	0.7904
1269	0.775
1260	0.4805
1251	0.7221
1242	0.6895
1233	0.6598
1224	0.7751
1215	0.7601
1206	0.7769
1197	0.809
1188	0.8184
1179	0.8198
1170	0.8151
1161	0.8204
1152	0.8165
1143	0.808
1134	0.7791
1125	0.6277
1116	0.0521
1107	0.1929
1098	0.6262
1089	0.7026
1080	0.7291
1071	0.7567
1062	0.7825
1053	0.8007
1044	0.815
1035	0.8191
1026	0.826
1017	0.8308
1008	0.8311
999	0.8294
990	0.8303
981	0.8354
972	0.829
963	0.829
954	0.8366
945	0.8405
936	0.8411
927	0.8461
918	0.8345
909	0.7544
900	0.7984
891	0.8399
882	0.854
873	0.8597
864	0.8607
855	0.8602
846	0.8553
837	0.8597
828	0.86
819	0.8609
810	0.8643
801	0.8651
792	0.8567
783	0.8512
774	0.8455
765	0.8331
756	0.4284
747	0.475
738	0.7182
729	0.7814
720	0.7765
711	0.5252
702	0.793
693	0.861
684	0.8674
675	0.8678
666	0.8828
657	0.8882
648	0.8895
639	0.8902
630	0.8914
621	0.8936
612	0.8974
603	0.9013
594	0.8975
585	0.9117
576	0.9021
567	0.904
558	0.906
549	0.9071
540	0.9054
531	0.9007
522	0.9023
513	0.9037
504	0.9039
495	0.9038
486	0.8991
477	0.8914
468	0.8892
459	0.8916
450	0.8893
441	0.8844
432	0.8817
423	0.8799
414	0.8789
405	0.878
396	0.878
387	0.879
