Infrared Spectrum: 1,1,3-Trimethyl-2-methyleneindole
Formula: C 12 H 15 N
CAS: 118-12-7
State: gas
Origin: EPA-IR VAPOR PHASE LIBRARY
1/CM	ABSORBANCE
549.8	0.01262
559.445	0.01517
569.09	0.01624
578.734	0.01786
588.379	0.01963
598.024	0.02225
607.669	0.02533
617.313	0.02889
626.958	0.03174
636.603	0.03467
646.248	0.03783
655.893	0.04238
665.537	0.04807
675.182	0.05383
684.827	0.05853
694.472	0.06158
704.116	0.06189
713.761	0.06053
723.406	0.05763
733.051	0.05369
742.695	0.04734
752.34	0.03982
761.985	0.03209
771.63	0.0248
781.275	0.01908
790.919	0.01476
800.564	0.01289
810.209	0.01136
819.854	0.01061
829.498	0.01065
839.143	0.01105
848.788	0.01184
858.433	0.01379
868.078	0.0171
877.722	0.0233
887.367	0.03346
897.012	0.04987
906.657	0.07112
916.301	0.08508
925.946	0.0842
935.591	0.0717
945.236	0.05567
954.88	0.0468
964.525	0.04357
974.17	0.04456
983.815	0.04844
993.46	0.04757
1003.1	0.04372
1012.75	0.03523
1022.39	0.02661
1032.04	0.02077
1041.68	0.01868
1051.33	0.01934
1060.97	0.02065
1070.62	0.02353
1080.26	0.02723
1089.91	0.03182
1099.55	0.04023
1109.2	0.0531
1118.84	0.06656
1128.49	0.07481
1138.13	0.07464
1147.78	0.06263
1157.42	0.04967
1167.07	0.03438
1176.71	0.02347
1186.36	0.01628
1196	0.01172
1205.64	0.00875
1215.29	0.00685
1224.93	0.007
1234.58	0.0074
1244.22	0.00802
1253.87	0.00885
1263.51	0.00887
1273.16	0.00929
1282.8	0.00978
1292.45	0.01041
1302.09	0.01157
1311.74	0.0152
1321.38	0.02136
1331.03	0.02565
1340.67	0.02766
1350.32	0.02439
1359.96	0.01759
1369.61	0.01342
1379.25	0.01144
1388.9	0.01234
1398.54	0.01827
1408.18	0.02609
1417.83	0.03093
1427.47	0.03918
1437.12	0.04987
1446.76	0.05431
1456.41	0.05852
1466.05	0.05272
1475.7	0.04099
1485.34	0.03028
1494.99	0.02139
1504.63	0.01316
1514.28	0.00911
1523.92	0.00714
1533.57	0.00621
1543.21	0.00568
1552.86	0.00535
1562.5	0.00516
1572.15	0.00486
1581.79	0.0048
1591.44	0.00517
1601.08	0.00599
1610.73	0.00764
1620.37	0.01134
1630.01	0.01662
1639.66	0.01866
1649.3	0.01788
1658.95	0.01381
1668.59	0.00675
1678.24	0.00446
1687.88	0.00335
1697.53	0.00286
1707.17	0.00253
1716.82	0.00238
1726.46	0.00218
1736.11	0.00222
1745.75	0.00214
1755.4	0.00212
1765.04	0.00214
1774.69	0.00223
1784.33	0.00242
1793.98	0.00273
1803.62	0.00339
1813.27	0.00447
1822.91	0.00636
1832.55	0.00836
1842.2	0.00901
1851.84	0.00863
1861.49	0.00652
1871.13	0.00433
1880.78	0.00293
1890.42	0.00232
1900.07	0.00199
1909.71	0.00174
1919.36	0.00169
1929	0.00156
1938.65	0.00145
1948.29	0.00156
1957.94	0.00181
1967.58	0.00205
1977.23	0.00216
1986.87	0.00206
1996.52	0.00188
2006.16	0.00167
2015.81	0.00177
2025.45	0.00171
2035.1	0.00166
2044.74	0.00186
2054.38	0.00194
2064.03	0.00192
2073.67	0.00204
2083.32	0.00203
2092.96	0.00182
2102.61	0.00161
2112.25	0.00139
2121.9	0.00119
2131.54	0.00107
2141.19	0.00106
2150.83	0.0009708
2160.48	0.0009236
2170.12	0.0009636
2179.77	0.00115
2189.41	0.00107
2199.06	0.00128
2208.7	0.00121
2218.35	0.00119
2227.99	0.00138
2237.64	0.00128
2247.28	0.00127
2256.92	0.00116
2266.57	0.00118
2276.21	0.00124
2285.86	0.00121
2295.5	0.00137
2305.15	0.0013
2314.79	0.00116
2324.44	0.00135
2334.08	0.00139
2343.73	0.00134
2353.37	0.00138
2363.02	0.0016
2372.66	0.00161
2382.31	0.00166
2391.95	0.00162
2401.6	0.00157
2411.24	0.00167
2420.89	0.00165
2430.53	0.00167
2440.18	0.00152
2449.82	0.00154
2459.47	0.00154
2469.11	0.00148
2478.75	0.00155
2488.4	0.00148
2498.04	0.00178
2507.69	0.00185
2517.33	0.00207
2526.98	0.00237
2536.62	0.00261
2546.27	0.00289
2555.91	0.00333
2565.56	0.00354
2575.2	0.00374
2584.85	0.00389
2594.49	0.00414
2604.14	0.0043
2613.78	0.00444
2623.43	0.00491
2633.07	0.00531
2642.72	0.00615
2652.36	0.00667
2662.01	0.00766
2671.65	0.00871
2681.29	0.00956
2690.94	0.01055
2700.58	0.01135
2710.23	0.01226
2719.87	0.01371
2729.52	0.0162
2739.16	0.02069
2748.81	0.02809
2758.45	0.0394
2768.1	0.05658
2777.74	0.08164
2787.39	0.11157
2797.03	0.1311
2806.68	0.1387
2816.32	0.13005
2825.97	0.11574
2835.61	0.10747
2845.26	0.10592
2854.9	0.10692
2864.55	0.10698
2874.19	0.10429
2883.84	0.1063
2893.48	0.11258
2903.12	0.11457
2912.77	0.11349
2922.41	0.11004
2932.06	0.11076
2941.7	0.11628
2951.35	0.11727
2960.99	0.11587
2970.64	0.11226
2980.28	0.09792
2989.93	0.08487
2999.57	0.06777
3009.22	0.0524
3018.86	0.04179
3028.51	0.0347
3038.15	0.02826
3047.8	0.02609
3057.44	0.02861
3067.09	0.03532
3076.73	0.04529
3086.38	0.04788
3096.02	0.04232
3105.67	0.03017
3115.31	0.01729
3124.95	0.00986
3134.6	0.00681
3144.24	0.0051
3153.89	0.00422
3163.53	0.00368
3173.18	0.00317
3182.82	0.00288
3192.47	0.00261
3202.11	0.00234
3211.76	0.00226
3221.4	0.00185
3231.05	0.0015
3240.69	0.00137
3250.34	0.0017
3259.98	0.00171
3269.63	0.00154
3279.27	0.00145
3288.92	0.00127
3298.56	0.00114
3308.21	0.00122
3317.85	0.00122
3327.49	0.00123
3337.14	0.00135
3346.78	0.00133
3356.43	0.0016
3366.07	0.00153
3375.72	0.00197
3385.36	0.00175
3395.01	0.00164
3404.65	0.00124
3414.3	0.00119
3423.94	0.00126
3433.59	0.0009718
3443.23	0.00124
3452.88	0.0009341
3462.52	0.00114
3472.17	0.00117
3481.81	0.0009917
3491.46	0.00108
3501.1	0.0009763
3510.75	0.0006366
3520.39	0.0008636
3530.04	0.00117
3539.68	0.0009667
3549.32	0.0007922
3558.97	0.0009829
3568.61	0.0008434
3578.26	0.0009033
3587.9	0.0007682
3597.55	0.0009359
3607.19	0.000872
3616.84	0.00102
3626.48	0.00109
3636.13	0.0009269
3645.77	0.0009299
3655.42	0.00156
3665.06	0.00138
3674.71	0.0013
3684.35	0.00145
3694	0.00115
3703.64	0.0009384
3713.29	0.0007848
3722.93	0.00114
3732.58	0.00117
3742.22	0.00119
3751.86	0.00107
3761.51	0.0008907
3771.15	0.00122
3780.8	0.0009183
3790.44	0.00104
3800.09	0.000941
3809.73	0.0008653
3819.38	0.00103
3829.02	0.00136
3838.67	0.00154
3848.31	0.00139
3857.96	0.00111
3867.6	0.0011
3877.25	0.00164
3886.89	0.00144
3896.54	0.00174
3906.18	0.00162
3915.83	0.00172
3925.47	0.0019
3935.12	0.00182
3944.76	0.00188
3954.41	0.00181
3964.05	0.00213
3973.69	0.00223
3983.34	0.00187
3992.98	0.00198
