Infrared Spectrum: 4,4'-Methylenebis(2,6-di-t-butylphenol)
Formula: C 29 H 44 O 2
CAS: 118-82-1
State: gas
Origin: EPA-IR VAPOR PHASE LIBRARY
1/CM	ABSORBANCE
549.8	0.00265
559.445	0.00309
569.09	0.00314
578.734	0.00291
588.379	0.00298
598.024	0.00261
607.669	0.00337
617.313	0.00649
626.958	0.00406
636.603	0.00208
646.248	0.00178
655.893	0.00173
665.537	0.00277
675.182	0.00543
684.827	0.00419
694.472	0.00233
704.116	0.00164
713.761	0.00161
723.406	0.00145
733.051	0.00126
742.695	0.00231
752.34	0.00364
761.985	0.00998
771.63	0.00778
781.275	0.00803
790.919	0.01443
800.564	0.00608
810.209	0.00444
819.854	0.00221
829.498	0.00194
839.143	0.00316
848.788	0.007
858.433	0.01047
868.078	0.00905
877.722	0.01188
887.367	0.01276
897.012	0.00552
906.657	0.00331
916.301	0.00343
925.946	0.00474
935.591	0.00626
945.236	0.00887
954.88	0.00658
964.525	0.00452
974.17	0.00269
983.815	0.00231
993.46	0.00237
1003.1	0.00232
1012.75	0.00346
1022.39	0.00518
1032.04	0.00317
1041.68	0.00245
1051.33	0.00212
1060.97	0.00221
1070.62	0.00245
1080.26	0.00279
1089.91	0.00363
1099.55	0.00511
1109.2	0.01126
1118.84	0.02587
1128.49	0.01734
1138.13	0.01955
1147.78	0.03424
1157.42	0.04918
1167.07	0.04363
1176.71	0.03671
1186.36	0.03631
1196	0.03746
1205.64	0.04511
1215.29	0.04411
1224.93	0.06294
1234.58	0.05979
1244.22	0.04272
1253.87	0.03367
1263.51	0.02178
1273.16	0.01638
1282.8	0.01491
1292.45	0.01701
1302.09	0.02411
1311.74	0.02502
1321.38	0.0157
1331.03	0.00894
1340.67	0.00718
1350.32	0.0094
1359.96	0.02107
1369.61	0.03771
1379.25	0.01934
1388.9	0.02282
1398.54	0.04171
1408.18	0.02537
1417.83	0.03757
1427.47	0.08122
1437.12	0.1081
1446.76	0.05604
1456.41	0.03307
1466.05	0.0282
1475.7	0.02694
1485.34	0.02492
1494.99	0.01176
1504.63	0.00615
1514.28	0.00427
1523.92	0.00329
1533.57	0.00262
1543.21	0.0023
1552.86	0.00222
1562.5	0.0024
1572.15	0.0026
1581.79	0.00349
1591.44	0.0058
1601.08	0.00625
1610.73	0.00256
1620.37	0.00173
1630.01	0.00162
1639.66	0.00156
1649.3	0.0016
1658.95	0.00145
1668.59	0.00132
1678.24	0.00113
1687.88	0.00107
1697.53	0.0009807
1707.17	0.00111
1716.82	0.00124
1726.46	0.00158
1736.11	0.0023
1745.75	0.0027
1755.4	0.00238
1765.04	0.00263
1774.69	0.00261
1784.33	0.00199
1793.98	0.00136
1803.62	0.00106
1813.27	0.00103
1822.91	0.0009367
1832.55	0.0009896
1842.2	0.0007732
1851.84	0.0005721
1861.49	0.0005085
1871.13	0.0005087
1880.78	0.0005173
1890.42	0.0005813
1900.07	0.0006461
1909.71	0.0006262
1919.36	0.0006253
1929	0.0006129
1938.65	0.0006336
1948.29	0.0006097
1957.94	0.0005908
1967.58	0.000537
1977.23	0.0006491
1986.87	0.0007349
1996.52	0.0008175
2006.16	0.0007079
2015.81	0.0007851
2025.45	0.0005967
2035.1	0.0005507
2044.74	0.0004543
2054.38	0.0004189
2064.03	0.0003694
2073.67	0.0003113
2083.32	0.0004052
2092.96	0.0003673
2102.61	0.0004521
2112.25	0.0004742
2121.9	0.0004901
2131.54	0.0004371
2141.19	0.0004448
2150.83	0.0003658
2160.48	0.0003725
2170.12	0.0004733
2179.77	0.0005433
2189.41	0.0003999
2199.06	0.0004655
2208.7	0.0005291
2218.35	0.0004445
2227.99	0.0004348
2237.64	0.0004928
2247.28	0.000434
2256.92	0.0004972
2266.57	0.0005067
2276.21	0.0005939
2285.86	0.0007532
2295.5	0.0008467
2305.15	0.0006805
2314.79	0.000701
2324.44	0.0006011
2334.08	0.0007238
2343.73	0.0006685
2353.37	0.0007061
2363.02	0.0007885
2372.66	0.00103
2382.31	0.00123
2391.95	0.00141
2401.6	0.00116
2411.24	0.00107
2420.89	0.00106
2430.53	0.00102
2440.18	0.00104
2449.82	0.00104
2459.47	0.00103
2469.11	0.0009015
2478.75	0.0009009
2488.4	0.0007964
2498.04	0.0007489
2507.69	0.0008473
2517.33	0.0006777
2526.98	0.0008038
2536.62	0.0008752
2546.27	0.00113
2555.91	0.0012
2565.56	0.00123
2575.2	0.00115
2584.85	0.0009264
2594.49	0.0009331
2604.14	0.00106
2613.78	0.00124
2623.43	0.00132
2633.07	0.00128
2642.72	0.00143
2652.36	0.00142
2662.01	0.00151
2671.65	0.00144
2681.29	0.00143
2690.94	0.0017
2700.58	0.00191
2710.23	0.00223
2719.87	0.00307
2729.52	0.00308
2739.16	0.00283
2748.81	0.00307
2758.45	0.00301
2768.1	0.00298
2777.74	0.00331
2787.39	0.00393
2797.03	0.00436
2806.68	0.00487
2816.32	0.00605
2825.97	0.00757
2835.61	0.01032
2845.26	0.01493
2854.9	0.02006
2864.55	0.03242
2874.19	0.05578
2883.84	0.06777
2893.48	0.06285
2903.12	0.06941
2912.77	0.08772
2922.41	0.09466
2932.06	0.0878
2941.7	0.09412
2951.35	0.13256
2960.99	0.19264
2970.64	0.20943
2980.28	0.10497
2989.93	0.04507
2999.57	0.0336
3009.22	0.02766
3018.86	0.01589
3028.51	0.01096
3038.15	0.00874
3047.8	0.00785
3057.44	0.00837
3067.09	0.01105
3076.73	0.01243
3086.38	0.00803
3096.02	0.00514
3105.67	0.00396
3115.31	0.00358
3124.95	0.00324
3134.6	0.00302
3144.24	0.00305
3153.89	0.00282
3163.53	0.00275
3173.18	0.00259
3182.82	0.00252
3192.47	0.00233
3202.11	0.00218
3211.76	0.00193
3221.4	0.00188
3231.05	0.00188
3240.69	0.00158
3250.34	0.00149
3259.98	0.00145
3269.63	0.00159
3279.27	0.00156
3288.92	0.00159
3298.56	0.00159
3308.21	0.00156
3317.85	0.00154
3327.49	0.00154
3337.14	0.00133
3346.78	0.0013
3356.43	0.0013
3366.07	0.00125
3375.72	0.00127
3385.36	0.00131
3395.01	0.00148
3404.65	0.00147
3414.3	0.00143
3423.94	0.00163
3433.59	0.00147
3443.23	0.00142
3452.88	0.00129
3462.52	0.00133
3472.17	0.00116
3481.81	0.00112
3491.46	0.0009802
3501.1	0.00101
3510.75	0.00102
3520.39	0.0009905
3530.04	0.00116
3539.68	0.00102
3549.32	0.00107
3558.97	0.00105
3568.61	0.00122
3578.26	0.00142
3587.9	0.00188
3597.55	0.00232
3607.19	0.00273
3616.84	0.00389
3626.48	0.00585
3636.13	0.01023
3645.77	0.02121
3655.42	0.051
3665.06	0.08299
3674.71	0.05651
3684.35	0.02744
3694	0.01338
3703.64	0.0073
3713.29	0.00474
3722.93	0.00336
3732.58	0.00258
3742.22	0.00196
3751.86	0.00166
3761.51	0.00157
3771.15	0.00155
3780.8	0.00149
3790.44	0.00163
3800.09	0.00173
3809.73	0.00175
3819.38	0.00168
3829.02	0.0018
3838.67	0.00177
3848.31	0.00165
3857.96	0.00184
3867.6	0.00172
3877.25	0.00153
3886.89	0.00161
3896.54	0.00152
3906.18	0.00167
3915.83	0.00136
3925.47	0.00121
3935.12	0.0009564
3944.76	0.00116
3954.41	0.00106
3964.05	0.0008637
3973.69	0.00116
3983.34	0.00132
3992.98	0.00131
