Infrared Spectrum: 2-Aminobenzoic acid
Formula: C 7 H 7 N O 2
CAS: 118-92-3
State: gas
Instrument: HP-GC/MS/IRD
Origin: NIST Mass Spectrometry Data Center
1/CM	ABSORBANCE
550	0.0049152
562	0.005364
574	0.0038376
586	0.0018096
598	0.0010392
610	0.0008928
622	0.0018888
634	0.0040224
646	0.0051096
658	0.0028944
670	0.0019056
682	0.0020544
694	0.0031248
706	0.003852
718	0.0026304
730	0.0035952
742	0.0060264
754	0.0053376
766	0.0023496
778	0.0007992
790	0.000744
802	0.0007824
814	0.0008184
826	0.0007104
838	0.0009888
850	0.000972
862	0.0004656
874	0.0002616
886	0.0002184
898	0.000288
910	0.0001392
922	0.0002496
934	7.92e-05
946	0.0001056
958	1.68e-05
970	4.32e-05
982	0.0001008
994	0.0001608
1006	0.0003936
1018	0.0010488
1030	0.0016824
1042	0.0035424
1054	0.0066552
1066	0.0076152
1078	0.007224
1090	0.0077232
1102	0.0059376
1114	0.0030936
1126	0.0023808
1138	0.0037272
1150	0.0102384
1162	0.0118512
1174	0.0111
1186	0.0108288
1198	0.0041376
1210	0.0017112
1222	0.001632
1234	0.0019152
1246	0.0027984
1258	0.0031464
1270	0.002304
1282	0.0012888
1294	0.001404
1306	0.0028752
1318	0.0044856
1330	0.0051408
1342	0.0045432
1354	0.0033072
1366	0.0026688
1378	0.0028248
1390	0.0014952
1402	0.0003168
1414	0.0001536
1426	0.0001656
1438	0.0005472
1450	0.0018912
1462	0.0026304
1474	0.0023592
1486	0.0031368
1498	0.0029304
1510	0.0013992
1522	0.0006312
1534	0.0006816
1546	0.0014448
1558	0.0030864
1570	0.0039504
1582	0.0044592
1594	0.00696
1606	0.01098
1618	0.0138216
1630	0.0095688
1642	0.0030672
1654	0.0014784
1666	0.0013416
1678	0.001608
1690	0.002376
1702	0.0045408
1714	0.01428
1726	0.0238704
1738	0.0172944
1750	0.007668
1762	0.0035952
1774	0.001092
1786	0.0009168
1798	0.001032
1810	0.0006432
1822	0.0003696
1834	0.0001488
1846	0.0001176
1858	8.64e-05
1870	9.6e-05
1882	0.0001416
1894	0.0002376
1906	0.0003288
1918	0.0003648
1930	0.0003072
1942	0.000144
1954	6.48e-05
1966	3.84e-05
1978	3.6e-05
1990	0
2002	1.2e-05
2014	4.08e-05
2026	3.12e-05
2038	4.8e-06
2050	1.92e-05
2062	3.84e-05
2074	5.04e-05
2086	9.6e-05
2098	7.44e-05
2110	9.84e-05
2122	0.000108
2134	0.0001152
2146	7.44e-05
2158	9.12e-05
2170	8.16e-05
2182	9.36e-05
2194	6.72e-05
2206	7.2e-05
2218	6.72e-05
2230	4.32e-05
2242	2.4e-05
2254	4.32e-05
2266	3.36e-05
2278	7.92e-05
2290	0.0001896
2302	0.00036
2314	0.0005304
2326	0.0007152
2338	0.0007152
2350	0.0005904
2362	0.0009432
2374	0.0006696
2386	0.0002112
2398	6.72e-05
2410	4.56e-05
2422	5.28e-05
2434	6.48e-05
2446	8.88e-05
2458	0.0001128
2470	6.24e-05
2482	3.36e-05
2494	4.8e-06
2506	1.68e-05
2518	3.84e-05
2530	3.36e-05
2542	4.56e-05
2554	5.52e-05
2566	1.68e-05
2578	3.36e-05
2590	1.44e-05
2602	2.88e-05
2614	2.64e-05
2626	8.88e-05
2638	8.88e-05
2650	0.0001104
2662	7.92e-05
2674	7.44e-05
2686	2.64e-05
2698	5.28e-05
2710	1.92e-05
2722	8.4e-05
2734	6e-05
2746	4.32e-05
2758	5.04e-05
2770	5.04e-05
2782	8.4e-05
2794	7.68e-05
2806	9.36e-05
2818	9.84e-05
2830	3.12e-05
2842	3.6e-05
2854	6.24e-05
2866	6e-05
2878	0.00012
2890	0.000144
2902	5.52e-05
2914	6e-05
2926	7.44e-05
2938	8.64e-05
2950	5.52e-05
2962	7.2e-05
2974	0.0001296
2986	0.000156
2998	0.000192
3010	0.0003
3022	0.0006696
3034	0.0011448
3046	0.0013512
3058	0.0015264
3070	0.0014352
3082	0.001368
3094	0.0011256
3106	0.0004968
3118	0.0001728
3130	0.0001824
3142	0.0001824
3154	0.000144
3166	0.00012
3178	0.0001392
3190	0.0001248
3202	0.000192
3214	0.00012
3226	0.000132
3238	3.6e-05
3250	1.92e-05
3262	8.4e-05
3274	7.92e-05
3286	0.0001176
3298	0.000156
3310	0.000264
3322	0.0003168
3334	0.0003672
3346	0.0005112
3358	0.0005832
3370	0.0012672
3382	0.003384
3394	0.0041976
3406	0.0021888
3418	0.0008808
3430	0.0008064
3442	0.000684
3454	0.0004824
3466	0.0004944
3478	0.0006216
3490	0.00102
3502	0.0017496
3514	0.0026544
3526	0.0026232
3538	0.0016368
3550	0.0008064
3562	0.001248
3574	0.0051264
3586	0.0078984
3598	0.00354
3610	0.00042
3622	0.0001896
3634	0.0001992
3646	0.0001344
3658	8.4e-05
3670	9.84e-05
3682	0.0001248
3694	6.72e-05
3706	0.0001056
3718	9.84e-05
3730	9.6e-05
3742	0.0001584
3754	0.0001416
3766	0.000108
3778	4.8e-05
3790	5.52e-05
3802	8.88e-05
3814	1.68e-05
3826	6.72e-05
3838	2.4e-05
