Infrared Spectrum: SALICYLIC ACID, 2-ETHYLHEXYL ESTER
Formula: C15 H22 O3
CAS: 118-60-5
State: NEAT
Class: COBLENTZ III
Instrument: PERKIN-ELMER 21 (GRATING)
Instrument parameters: NaCl PRISM
Sampling: TRANSMISSION
Path length: FILM
Resolution: 2
Origin: SMITH KLINE & FRENCH
1/CM	TRANSMITTANCE
4000	0.6956
3991	0.6954
3982	0.6953
3973	0.6956
3964	0.6964
3955	0.6971
3946	0.698
3937	0.6989
3928	0.6999
3919	0.701
3910	0.7021
3901	0.7032
3892	0.7043
3883	0.7053
3874	0.7064
3865	0.7075
3856	0.7088
3847	0.7106
3838	0.7125
3829	0.7145
3820	0.716
3811	0.7171
3802	0.7175
3793	0.7169
3784	0.7158
3775	0.7149
3766	0.7138
3757	0.7128
3748	0.7117
3739	0.7111
3730	0.7108
3721	0.7118
3712	0.7128
3703	0.7139
3694	0.715
3685	0.7156
3676	0.7158
3667	0.7161
3658	0.7162
3649	0.7165
3640	0.7168
3631	0.7171
3622	0.7172
3613	0.7175
3604	0.7178
3595	0.718
3586	0.7182
3577	0.7183
3568	0.7184
3559	0.7185
3550	0.7186
3541	0.7187
3532	0.7187
3523	0.7188
3514	0.7188
3505	0.7186
3496	0.7184
3487	0.7176
3478	0.7146
3469	0.7128
3460	0.7115
3451	0.7111
3442	0.7106
3433	0.7101
3424	0.71
3415	0.71
3406	0.7099
3397	0.7099
3388	0.7097
3379	0.7094
3370	0.706
3361	0.7
3352	0.6924
3343	0.6851
3334	0.6819
3325	0.6803
3316	0.6785
3307	0.6768
3298	0.6751
3289	0.6737
3280	0.6721
3271	0.6704
3262	0.6684
3253	0.6661
3244	0.6635
3235	0.6603
3226	0.6561
3217	0.6508
3208	0.6435
3199	0.6348
3190	0.6264
3181	0.6169
3172	0.605
3163	0.5923
3154	0.581
3145	0.5704
3136	0.5514
3127	0.5432
3118	0.5384
3109	0.5374
3100	0.5373
3091	0.5374
3082	0.5388
3073	0.5433
3064	0.5515
3055	0.5603
3046	0.5695
3037	0.578
3028	0.5859
3019	0.593
3010	0.5985
3001	0.6004
2992	0.6037
2983	0.6082
2974	0.6139
2965	0.6203
2956	0.6233
2947	0.6226
2938	0.5952
2929	0.5541
2920	0.5128
2911	0.471
2902	0.4293
2893	0.3871
2884	0.3448
2875	0.325
2866	0.3274
2857	0.3458
2848	0.3864
2839	0.4249
2830	0.4325
2821	0.4382
2812	0.4552
2803	0.4859
2794	0.5269
2785	0.5683
2776	0.6099
2767	0.6445
2758	0.6707
2749	0.6821
2740	0.6885
2731	0.6928
2722	0.7006
2713	0.7131
2704	0.7187
2695	0.7204
2686	0.7215
2677	0.7228
2668	0.7241
2659	0.7253
2650	0.7271
2641	0.729
2632	0.731
2623	0.7328
2614	0.7349
2605	0.7368
2596	0.7389
2587	0.7408
2578	0.7428
2569	0.7449
2560	0.7468
2551	0.748
2542	0.7489
2533	0.7499
2524	0.7501
2515	0.7504
2506	0.7511
2497	0.7539
2488	0.7569
2479	0.7603
2470	0.7636
2461	0.7649
2452	0.7658
2443	0.7667
2434	0.7678
2425	0.7693
2416	0.7708
2407	0.7724
2398	0.7742
2389	0.776
2380	0.7778
2371	0.7792
2362	0.7805
2353	0.7818
2344	0.7828
2335	0.7837
2326	0.7845
2317	0.7851
2308	0.7845
2299	0.7821
2290	0.7803
2281	0.7796
2272	0.7791
2263	0.7805
2254	0.7822
2245	0.7848
2236	0.7878
2227	0.7908
2218	0.7928
2209	0.795
2200	0.7961
2191	0.7965
2182	0.7969
2173	0.7975
2164	0.798
2155	0.7984
2146	0.7988
2137	0.7992
2128	0.7992
2119	0.7993
2110	0.7994
2101	0.7998
2092	0.8001
2083	0.8
2074	0.7999
2065	0.7997
2056	0.8008
2047	0.8028
2038	0.804
2029	0.805
2020	0.8042
2011	0.8032
2002	0.8037
1993	0.8043
1984	0.805
1975	0.8057
1966	0.8064
1957	0.8065
1948	0.8062
1939	0.8045
1930	0.8031
1921	0.804
1912	0.8011
1903	0.7998
1894	0.8024
1885	0.8047
1876	0.8053
1867	0.8054
1858	0.8057
1849	0.8055
1840	0.8042
1831	0.8028
1822	0.8018
1813	0.8011
1804	0.8003
1795	0.8007
1786	0.8018
1777	0.8031
1768	0.8031
1759	0.8025
1750	0.8014
1741	0.796
1732	0.7865
1723	0.7683
1714	0.7449
1705	0.7303
1696	0.7062
1687	0.6174
1678	0.4612
1669	0.246
1660	0.118
1651	0.441
1642	0.5433
1633	0.668
1624	0.6989
1615	0.6553
1606	0.4009
1597	0.5712
1588	0.6248
1579	0.5614
1570	0.6561
1561	0.7608
1552	0.7725
1543	0.7884
1534	0.793
1525	0.7928
1516	0.7775
1507	0.7533
1498	0.7103
1489	0.6683
1480	0.4125
1471	0.4039
1462	0.4197
1453	0.3864
1444	0.5503
1435	0.6082
1426	0.6245
1417	0.612
1408	0.5686
1399	0.5389
1390	0.508
1381	0.473
1372	0.5633
1363	0.6188
1354	0.6178
1345	0.5554
1336	0.5116
1327	0.4654
1318	0.3964
1309	0.4883
1300	0.4028
1291	0.1759
1282	0.3025
1273	0.5297
1264	0.65
1255	0.5979
1246	0.3146
1237	0.3773
1228	0.4876
1219	0.4862
1210	0.2947
1201	0.2358
1192	0.4724
1183	0.5357
1174	0.5073
1165	0.6561
1156	0.5268
1147	0.2411
1138	0.6331
1129	0.4776
1120	0.6571
1111	0.7701
1102	0.7886
1093	0.7808
1084	0.3557
1075	0.5848
1066	0.7719
1057	0.8161
1048	0.8386
1039	0.8444
1030	0.7678
1021	0.8007
1012	0.8421
1003	0.8558
994	0.8468
985	0.8374
976	0.8399
967	0.8378
958	0.8382
949	0.7882
940	0.8135
931	0.8556
922	0.8727
913	0.8859
904	0.9073
895	0.9074
886	0.9292
877	0.9245
868	0.8818
859	0.8477
850	0.9057
841	0.9089
832	0.9317
823	0.9283
814	0.9263
805	0.9297
796	0.836
787	0.9331
778	0.9207
769	0.8709
760	0.5882
751	0.3676
742	0.7308
733	0.7167
724	0.6464
715	0.6546
706	0.7055
697	0.4901
688	0.7446
679	0.7894
670	0.7793
661	0.6741
