Infrared Spectrum: 4-Phenoxyphenethylamine
Formula: C 14 H 15 N O
CAS: 118468-18-1
State: gas
Origin: EPA-IR VAPOR PHASE LIBRARY
1/CM	ABSORBANCE
549.8	0.00745
559.445	0.00797
569.09	0.00645
578.734	0.00503
588.379	0.00578
598.024	0.00617
607.669	0.00609
617.313	0.00571
626.958	0.00574
636.603	0.00598
646.248	0.00705
655.893	0.00811
665.537	0.00994
675.182	0.01524
684.827	0.02654
694.472	0.02995
704.116	0.02198
713.761	0.01825
723.406	0.02116
733.051	0.02991
742.695	0.04127
752.34	0.05055
761.985	0.05361
771.63	0.0463
781.275	0.03733
790.919	0.03138
800.564	0.02654
810.209	0.02459
819.854	0.02639
829.498	0.02729
839.143	0.02452
848.788	0.02087
858.433	0.0256
868.078	0.06135
877.722	0.03196
887.367	0.01328
897.012	0.01014
906.657	0.00885
916.301	0.00649
925.946	0.00524
935.591	0.00475
945.236	0.00461
954.88	0.0042
964.525	0.00478
974.17	0.00558
983.815	0.00673
993.46	0.00661
1003.1	0.00762
1012.75	0.01686
1022.39	0.01789
1032.04	0.00824
1041.68	0.00726
1051.33	0.01034
1060.97	0.01765
1070.62	0.02081
1080.26	0.01283
1089.91	0.01052
1099.55	0.01166
1109.2	0.01006
1118.84	0.00779
1128.49	0.00658
1138.13	0.00728
1147.78	0.01033
1157.42	0.01986
1167.07	0.03928
1176.71	0.02036
1186.36	0.01934
1196	0.02803
1205.64	0.03675
1215.29	0.06003
1224.93	0.12839
1234.58	0.27629
1244.22	0.37441
1253.87	0.15418
1263.51	0.06055
1273.16	0.04223
1282.8	0.03364
1292.45	0.02602
1302.09	0.02013
1311.74	0.01666
1321.38	0.0155
1331.03	0.0155
1340.67	0.01305
1350.32	0.0108
1359.96	0.01026
1369.61	0.00989
1379.25	0.01034
1388.9	0.00901
1398.54	0.00704
1408.18	0.00691
1417.83	0.00747
1427.47	0.00853
1437.12	0.01127
1446.76	0.01499
1456.41	0.01915
1466.05	0.0258
1475.7	0.051
1485.34	0.17595
1494.99	0.19041
1504.63	0.15337
1514.28	0.08317
1523.92	0.02806
1533.57	0.0169
1543.21	0.01301
1552.86	0.01282
1562.5	0.01669
1572.15	0.0287
1581.79	0.05971
1591.44	0.09556
1601.08	0.05609
1610.73	0.02662
1620.37	0.01963
1630.01	0.01513
1639.66	0.01054
1649.3	0.00748
1658.95	0.00557
1668.59	0.00429
1678.24	0.0036
1687.88	0.00335
1697.53	0.00329
1707.17	0.00338
1716.82	0.00335
1726.46	0.00305
1736.11	0.00289
1745.75	0.00294
1755.4	0.00344
1765.04	0.00451
1774.69	0.00409
1784.33	0.00283
1793.98	0.0022
1803.62	0.00197
1813.27	0.00194
1822.91	0.00206
1832.55	0.00244
1842.2	0.00286
1851.84	0.00314
1861.49	0.00345
1871.13	0.00423
1880.78	0.00472
1890.42	0.00401
1900.07	0.00289
1909.71	0.00286
1919.36	0.00344
1929	0.00406
1938.65	0.00419
1948.29	0.00384
1957.94	0.00281
1967.58	0.00228
1977.23	0.00228
1986.87	0.00229
1996.52	0.00221
2006.16	0.00228
2015.81	0.00269
2025.45	0.0035
2035.1	0.00377
2044.74	0.00282
2054.38	0.00262
2064.03	0.00302
2073.67	0.00284
2083.32	0.00203
2092.96	0.00159
2102.61	0.00132
2112.25	0.00108
2121.9	0.0008824
2131.54	0.0008378
2141.19	0.0006896
2150.83	0.0006522
2160.48	0.0006976
2170.12	0.0006368
2179.77	0.0007068
2189.41	0.0006564
2199.06	0.0007075
2208.7	0.0007376
2218.35	0.0007679
2227.99	0.0007549
2237.64	0.000708
2247.28	0.0007008
2256.92	0.0008194
2266.57	0.00101
2276.21	0.00109
2285.86	0.00101
2295.5	0.00102
2305.15	0.0012
2314.79	0.00147
2324.44	0.00157
2334.08	0.00148
2343.73	0.00126
2353.37	0.00142
2363.02	0.00152
2372.66	0.00189
2382.31	0.00204
2391.95	0.00246
2401.6	0.00321
2411.24	0.00321
2420.89	0.00303
2430.53	0.00365
2440.18	0.00376
2449.82	0.00264
2459.47	0.00206
2469.11	0.00179
2478.75	0.00169
2488.4	0.00137
2498.04	0.00119
2507.69	0.00105
2517.33	0.00108
2526.98	0.00119
2536.62	0.00123
2546.27	0.00129
2555.91	0.0014
2565.56	0.00151
2575.2	0.00125
2584.85	0.00124
2594.49	0.00101
2604.14	0.00107
2613.78	0.00114
2623.43	0.00114
2633.07	0.00108
2642.72	0.00131
2652.36	0.00133
2662.01	0.00135
2671.65	0.00135
2681.29	0.00148
2690.94	0.00169
2700.58	0.00175
2710.23	0.00185
2719.87	0.00201
2729.52	0.00231
2739.16	0.00256
2748.81	0.00251
2758.45	0.0024
2768.1	0.00231
2777.74	0.00241
2787.39	0.00235
2797.03	0.00278
2806.68	0.00333
2816.32	0.00428
2825.97	0.00557
2835.61	0.00856
2845.26	0.01445
2854.9	0.02148
2864.55	0.02205
2874.19	0.01898
2883.84	0.01651
2893.48	0.01432
2903.12	0.01694
2912.77	0.02575
2922.41	0.03597
2932.06	0.03827
2941.7	0.03943
2951.35	0.02774
2960.99	0.01545
2970.64	0.00874
2980.28	0.00655
2989.93	0.00696
2999.57	0.00773
3009.22	0.00873
3018.86	0.01225
3028.51	0.02286
3038.15	0.03128
3047.8	0.02393
3057.44	0.01793
3067.09	0.01972
3076.73	0.02532
3086.38	0.02002
3096.02	0.01473
3105.67	0.00977
3115.31	0.00499
3124.95	0.00283
3134.6	0.00156
3144.24	0.00128
3153.89	0.0009087
3163.53	0.0008014
3173.18	0.0008811
3182.82	0.0007338
3192.47	0.0006711
3202.11	0.0007446
3211.76	0.000601
3221.4	0.0004042
3231.05	0.0006167
3240.69	0.0005453
3250.34	0.0005288
3259.98	0.0005655
3269.63	0.0004003
3279.27	0.000549
3288.92	0.0003736
3298.56	0.0006421
3308.21	0.0005789
3317.85	0.0004402
3327.49	0.0005656
3337.14	0.0008582
3346.78	0.0011
3356.43	0.0008641
3366.07	0.0006737
3375.72	0.0004936
3385.36	0.0004988
3395.01	0.0005421
3404.65	0.0009171
3414.3	0.001
3423.94	0.0007453
3433.59	0.0005261
3443.23	0.0004711
3452.88	0.0004514
3462.52	0.0003998
3472.17	0.0004266
3481.81	0.0004897
3491.46	0.0004798
3501.1	0.0003994
3510.75	0.0002564
3520.39	0.0002252
3530.04	0.000579
3539.68	0.0003749
3549.32	0.0002765
3558.97	0.0004084
3568.61	0.0006086
3578.26	0.0004971
3587.9	0.000623
3597.55	0.0005116
3607.19	0.0003914
3616.84	0.0004671
3626.48	0.0005725
3636.13	0.000646
3645.77	0.0007371
3655.42	0.0006959
3665.06	0.0005609
3674.71	0.000601
3684.35	0.0006395
3694	0.0005305
3703.64	0.0005206
3713.29	0.0005558
3722.93	0.0005348
3732.58	0.0006312
3742.22	0.0004547
3751.86	0.0005326
3761.51	0.0006235
3771.15	0.0004885
3780.8	0.0004932
3790.44	0.0004617
3800.09	0.000365
3809.73	0.0006223
3819.38	0.0004598
3829.02	0.0005135
3838.67	0.0004256
3848.31	0.0004638
3857.96	0.0005221
3867.6	0.0007537
3877.25	0.0005562
3886.89	0.0006378
3896.54	0.0006364
3906.18	0.000454
3915.83	0.0006623
3925.47	0.0006386
3935.12	0.000822
3944.76	0.0005076
3954.41	0.0005217
3964.05	0.0006193
3973.69	0.0006618
3983.34	0.0004186
3992.98	0.000364
