Infrared Spectrum: DIBUTYLTIN-BIS-(LAURYL MERCAPTIDE)
Formula: C32 H68 S2 Sn
CAS: 1185-81-5
State: LIQUID
Class: COBLENTZ
Instrument: Not specified, most likely a grating spectrometer.
Sampling: TRANSMISSION
Path length: SMEAR ON CsBr
Resolution: 4
Origin: STANDARD OIL OF OHIO
1/CM	TRANSMITTANCE
243.243	0.684
252.702	0.694
262.162	0.71
271.621	0.73
281.081	0.723
290.54	0.752
300	0.754
309.459	0.7501
318.919	0.706
328.378	0.5661
337.838	0.371
347.297	0.205
356.756	0.303
366.216	0.403
375.675	0.488
385.135	0.547
394.594	0.554
404.054	0.605
413.513	0.6419
422.973	0.75
432.432	0.788
441.891	0.798
451.351	0.788
460.81	0.738
470.27	0.83
479.729	0.838
489.189	0.811
498.648	0.7611
508.108	0.6441
517.567	0.625
527.027	0.696
536.486	0.8269
545.945	0.869
555.405	0.883
564.864	0.888
574.324	0.879
583.783	0.849
593.243	0.7152
602.702	0.611
612.162	0.7049
621.621	0.837
631.08	0.854
640.54	0.7571
649.999	0.533
659.459	0.3911
668.918	0.359
678.378	0.438
687.837	0.4152
697.297	0.3
706.756	0.4269
716.216	0.377
725.675	0.2519
735.134	0.4149
744.594	0.518
754.053	0.6009
763.513	0.645
772.972	0.637
782.432	0.7049
791.891	0.783
801.351	0.789
810.81	0.777
820.269	0.8
829.729	0.796
839.188	0.75
848.648	0.676
858.107	0.72
867.567	0.461
877.026	0.4282
886.486	0.525
895.945	0.711
905.405	0.767
914.864	0.774
924.323	0.805
933.783	0.803
943.242	0.794
952.702	0.767
962.161	0.5271
971.621	0.7049
981.08	0.749
990.54	0.698
999.999	0.628
1009.46	0.632
1018.92	0.608
1028.38	0.62
1037.84	0.693
1047.3	0.5861
1056.76	0.647
1066.22	0.6081
1075.67	0.3721
1085.13	0.5399
1094.59	0.711
1104.05	0.771
1113.51	0.779
1122.97	0.744
1132.43	0.783
1141.89	0.7161
1151.35	0.52
1160.81	0.6318
1170.27	0.6331
1179.73	0.496
1189.19	0.6
1198.65	0.6299
1208.11	0.633
1217.57	0.579
1227.03	0.5741
1236.49	0.489
1245.94	0.403
1255.4	0.377
1264.86	0.35
1274.32	0.374
1283.78	0.347
1293.24	0.2841
1302.7	0.335
1312.16	0.444
1321.62	0.5689
1331.08	0.608
1340.54	0.4371
1350	0.428
1359.46	0.4201
1368.92	0.396
1378.38	0.155
1387.84	0.4908
1397.3	0.605
1406.76	0.577
1416.21	0.3893
1425.67	0.3891
1435.13	0.189
1444.59	0.1201
1454.05	0.0591
1463.51	0.035
1472.97	0.133
1482.43	0.4928
1491.89	0.61
1501.35	0.676
1510.81	0.7219
1520.27	0.749
1529.73	0.771
1539.19	0.789
1548.65	0.801
1558.11	0.81
1567.57	0.816
1577.03	0.818
1586.48	0.811
1595.94	0.822
1605.4	0.823
1614.86	0.827
1624.32	0.833
1633.78	0.84
1643.24	0.832
1652.7	0.838
1662.16	0.823
1671.62	0.81
1681.08	0.823
1690.54	0.835
1700	0.838
1709.46	0.828
1718.92	0.822
1728.38	0.823
1737.84	0.813
1747.3	0.823
1756.76	0.84
1766.21	0.852
1775.67	0.857
1785.13	0.862
1794.59	0.866
1804.05	0.866
1813.51	0.866
1822.97	0.866
1832.43	0.864
1841.89	0.864
1851.35	0.861
1860.81	0.859
1870.27	0.857
1879.73	0.857
1889.19	0.855
1898.65	0.861
1908.11	0.861
1917.57	0.859
1927.03	0.855
1936.48	0.855
1945.94	0.857
1955.4	0.859
1964.86	0.861
1974.32	0.862
1983.78	0.859
1993.24	0.855
2002.7	0.849
2012.16	0.844
2021.62	0.8331
2031.08	0.828
2040.54	0.83
2050	0.832
2059.46	0.837
2068.92	0.84
2078.38	0.842
2087.84	0.844
2097.3	0.844
2106.75	0.842
2116.21	0.84
2125.67	0.839
2135.13	0.838
2144.59	0.835
2154.05	0.83
2163.51	0.83
2172.97	0.828
2182.43	0.827
2191.89	0.827
2201.35	0.825
2210.81	0.827
2220.27	0.8275
2229.73	0.828
2239.19	0.829
2248.65	0.827
2258.11	0.8275
2267.57	0.832
2277.02	0.831
2286.48	0.823
2295.94	0.82
2305.4	0.816
2314.86	0.815
2324.32	0.813
2333.78	0.811
2343.24	0.813
2352.7	0.815
2362.16	0.818
2371.62	0.822
2381.08	0.82
2390.54	0.8225
2400	0.825
2409.46	0.823
2418.92	0.816
2428.38	0.819
2437.84	0.823
2447.29	0.825
2456.75	0.825
2466.21	0.825
2475.67	0.825
2485.13	0.822
2494.59	0.815
2504.05	0.8115
2513.51	0.806
2522.97	0.803
2532.43	0.798
2541.89	0.793
2551.35	0.788
2560.81	0.778
2570.27	0.772
2579.73	0.7505
2589.19	0.732
2598.65	0.7215
2608.11	0.71
2617.57	0.7005
2627.02	0.688
2636.48	0.6701
2645.94	0.661
2655.4	0.6545
2664.86	0.6331
2674.32	0.6055
2683.78	0.618
2693.24	0.6395
2702.7	0.654
2712.16	0.6425
2721.62	0.6251
2731.08	0.581
2740.54	0.5939
2750	0.6105
2759.46	0.608
2768.92	0.5936
2778.38	0.5611
2787.84	0.4995
2797.29	0.4451
2806.75	0.3788
2816.21	0.2771
2825.67	0.2017
2835.13	0.1004
2844.59	0.021
2854.05	0.018
2863.51	0.019
2872.97	0.02
2882.43	0.02
2891.89	0.018
2901.35	0.016
2910.81	0.016
2920.27	0.019
2929.73	0.02
2939.19	0.02
2948.65	0.02
2958.11	0.016
2967.56	0.02
2977.02	0.041
2986.48	0.1567
2995.94	0.2896
3005.4	0.3709
3014.86	0.4409
3024.32	0.4998
3033.78	0.547
3043.24	0.5829
3052.7	0.6164
3062.16	0.644
3071.62	0.6615
3081.08	0.669
3090.54	0.6925
3100	0.706
3109.46	0.723
3118.92	0.735
3128.38	0.7435
3137.83	0.749
3147.29	0.752
3156.75	0.752
3166.21	0.7545
3175.67	0.761
3185.13	0.765
3194.59	0.769
3204.05	0.7765
3213.51	0.7879
3222.97	0.799
3232.43	0.806
3241.89	0.811
3251.35	0.815
3260.81	0.814
3270.27	0.818
3279.73	0.822
3289.19	0.823
3298.65	0.823
3308.1	0.823
3317.56	0.823
3327.02	0.823
3336.48	0.823
3345.94	0.823
3355.4	0.823
3364.86	0.823
3374.32	0.823
3383.78	0.823
3393.24	0.823
3402.7	0.825
3412.16	0.8275
3421.62	0.828
3431.08	0.827
3440.54	0.827
3450	0.829
3459.46	0.832
3468.92	0.833
3478.37	0.833
3487.83	0.832
3497.29	0.832
3506.75	0.8325
3516.21	0.835
3525.67	0.835
3535.13	0.833
3544.59	0.831
3554.05	0.827
3563.51	0.8225
3572.97	0.822
3582.43	0.8225
3591.89	0.82
3601.35	0.812
3610.81	0.808
3620.27	0.808
3629.73	0.805
3639.19	0.806
3648.65	0.81
3658.1	0.81
3667.56	0.811
3677.02	0.813
3686.48	0.813
3695.94	0.814
3705.4	0.816
3714.86	0.816
3724.32	0.815
3733.78	0.812
3743.24	0.808
3752.7	0.8055
3762.16	0.805
3771.62	0.806
3781.08	0.808
3790.54	0.808
3800	0.806
3809.46	0.805
3818.92	0.805
3828.37	0.806
3837.83	0.808
3847.29	0.808
3856.75	0.808
3866.21	0.804
3875.67	0.801
