Infrared Spectrum: Dimethyl 2,3-Dibromo-1,4-butanedioate
Formula: C6 H8 Br2 O4
CAS: 1186-98-7
State: gas
Origin: EPA-IR VAPOR PHASE LIBRARY
1/CM	ABSORBANCE
549.8	0.014293
559.445	0.021883
569.09	0.020193
578.734	0.013433
588.379	0.009483
598.024	0.007033
607.669	0.005143
617.313	0.003603
626.958	0.002613
636.603	0.002673
646.248	0.003813
655.893	0.007713
665.537	0.019213
675.182	0.024193
684.827	0.011133
694.472	0.005163
704.116	0.003463
713.761	0.002833
723.406	0.002453
733.051	0.002293
742.695	0.002293
752.34	0.002363
761.985	0.002463
771.63	0.002983
781.275	0.003163
790.919	0.003383
800.564	0.002863
810.209	0.002513
819.854	0.002883
829.498	0.003423
839.143	0.004253
848.788	0.006863
858.433	0.008553
868.078	0.011363
877.722	0.009463
887.367	0.004693
897.012	0.005543
906.657	0.007713
916.301	0.004003
925.946	0.001963
935.591	0.002233
945.236	0.002533
954.88	0.003053
964.525	0.004443
974.17	0.007513
983.815	0.016693
993.46	0.033773
1003.1	0.044063
1012.75	0.044413
1022.39	0.054973
1032.04	0.047793
1041.68	0.022623
1051.33	0.013293
1060.97	0.008813
1070.62	0.008473
1080.26	0.008303
1089.91	0.009223
1099.55	0.010693
1109.2	0.014843
1118.84	0.023343
1128.49	0.042593
1138.13	0.099203
1147.78	0.149193
1157.42	0.136643
1167.07	0.064833
1176.71	0.036873
1186.36	0.042953
1196	0.054493
1205.64	0.072223
1215.29	0.075663
1224.93	0.061823
1234.58	0.073993
1244.22	0.116093
1253.87	0.199473
1263.51	0.191993
1273.16	0.123063
1282.8	0.089183
1292.45	0.143703
1302.09	0.172283
1311.74	0.073423
1321.38	0.032993
1331.03	0.025413
1340.67	0.024933
1350.32	0.028903
1359.96	0.029323
1369.61	0.018093
1379.25	0.010443
1388.9	0.008563
1398.54	0.008263
1408.18	0.008543
1417.83	0.009733
1427.47	0.015713
1437.12	0.051073
1446.76	0.042673
1456.41	0.016983
1466.05	0.013203
1475.7	0.009573
1485.34	0.007173
1494.99	0.005813
1504.63	0.005173
1514.28	0.004853
1523.92	0.004823
1533.57	0.004733
1543.21	0.004923
1552.86	0.005333
1562.5	0.005503
1572.15	0.004993
1581.79	0.004213
1591.44	0.003683
1601.08	0.003423
1610.73	0.003353
1620.37	0.003453
1630.01	0.003253
1639.66	0.002763
1649.3	0.002693
1658.95	0.002993
1668.59	0.003113
1678.24	0.003563
1687.88	0.004143
1697.53	0.005093
1707.17	0.007623
1716.82	0.014173
1726.46	0.021983
1736.11	0.026603
1745.75	0.042983
1755.4	0.127363
1765.04	0.385853
1774.69	0.223493
1784.33	0.038863
1793.98	0.019523
1803.62	0.019023
1813.27	0.015233
1822.91	0.008543
1832.55	0.004713
1842.2	0.003633
1851.84	0.003133
1861.49	0.003213
1871.13	0.003333
1880.78	0.003073
1890.42	0.003073
1900.07	0.002623
1909.71	0.002213
1919.36	0.002083
1929	0.001963
1938.65	0.001923
1948.29	0.001703
1957.94	0.001603
1967.58	0.001893
1977.23	0.002003
1986.87	0.001643
1996.52	0.001533
2006.16	0.001763
2015.81	0.001993
2025.45	0.002363
2035.1	0.002453
2044.74	0.002613
2054.38	0.002523
2064.03	0.002253
2073.67	0.002023
2083.32	0.002223
2092.96	0.002463
2102.61	0.002643
2112.25	0.002543
2121.9	0.002133
2131.54	0.001863
2141.19	0.001663
2150.83	0.001333
2160.48	0.0011427
2170.12	0.0009925
2179.77	0.000875
2189.41	0.0007721
2199.06	0.0005903
2208.7	0.0006513
2218.35	0.0006989
2227.99	0.0007396
2237.64	0.000835
2247.28	0.0007225
2256.92	0.0007386
2266.57	0.0006107
2276.21	0.0007061
2285.86	0.0007401
2295.5	0.000939
2305.15	0.0010607
2314.79	0.0010006
2324.44	0.0008839
2334.08	0.0009542
2343.73	0.001051
2353.37	0.0009431
2363.02	0.000837
2372.66	0.0009099
2382.31	0.0007938
2391.95	0.0006976
2401.6	0.0006166
2411.24	0.0006125
2420.89	0.0006775
2430.53	0.0005891
2440.18	0.0007623
2449.82	0.0007297
2459.47	0.0006378
2469.11	0.0006469
2478.75	0.0006261
2488.4	0.0008311
2498.04	0.0008041
2507.69	0.0009684
2517.33	0.0009493
2526.98	0.0009016
2536.62	0.0010027
2546.27	0.0008177
2555.91	0.0006158
2565.56	0.0005739
2575.2	0.000558
2584.85	0.0005444
2594.49	0.0006549
2604.14	0.0006738
2613.78	0.0006377
2623.43	0.0006799
2633.07	0.0006126
2642.72	0.0006633
2652.36	0.0006475
2662.01	0.0004866
2671.65	0.0004517
2681.29	0.00031116
2690.94	0.000405
2700.58	0.0005213
2710.23	0.000298404
2719.87	0.00032206
2729.52	0.0002335
2739.16	0.0004416
2748.81	0.0004018
2758.45	0.00038358
2768.1	0.0004413
2777.74	0.0004144
2787.39	0.0004349
2797.03	0.0005569
2806.68	0.0007099
2816.32	0.0009018
2825.97	0.001423
2835.61	0.002383
2845.26	0.005653
2854.9	0.009193
2864.55	0.004793
2874.19	0.002623
2883.84	0.002963
2893.48	0.004803
2903.12	0.006653
2912.77	0.007273
2922.41	0.006763
2932.06	0.006433
2941.7	0.008333
2951.35	0.019733
2960.99	0.059513
2970.64	0.039463
2980.28	0.010783
2989.93	0.008593
2999.57	0.011303
3009.22	0.013693
3018.86	0.012953
3028.51	0.013893
3038.15	0.011963
3047.8	0.007833
3057.44	0.004963
3067.09	0.003813
3076.73	0.003403
3086.38	0.003033
3096.02	0.003053
3105.67	0.002733
3115.31	0.002333
3124.95	0.002013
3134.6	0.001533
3144.24	0.0012708
3153.89	0.0010874
3163.53	0.0008938
3173.18	0.0006615
3182.82	0.0005403
3192.47	0.0004662
3202.11	0.0006058
3211.76	0.0007638
3221.4	0.0004211
3231.05	0.0004119
3240.69	0.0002762
3250.34	0.0002714
3259.98	0.000297769
3269.63	0.000112
3279.27	0.00032993
3288.92	0.000183
3298.56	0.0004034
3308.21	0.00033765
3317.85	2.1e-05
3327.49	0.000145
3337.14	0.000277
3346.78	0.00032461
3356.43	0.0002065
3366.07	0.000186
3375.72	7.5e-05
3385.36	0.000105
3395.01	0.000205
3404.65	0.0002382
3414.3	0.0002075
3423.94	0.00037041
3433.59	0.0002826
3443.23	0.0002539
3452.88	0.00031846
3462.52	0.0005249
3472.17	0.0006728
3481.81	0.0006191
3491.46	0.0007745
3501.1	0.001543
3510.75	0.003013
3520.39	0.004073
3530.04	0.002123
3539.68	0.0011806
3549.32	0.0008189
3558.97	0.0005532
3568.61	0.0002971
3578.26	0.00030804
3587.9	0.00031791
3597.55	0.000257
3607.19	0.000179
3616.84	0.0004002
3626.48	0.00035111
3636.13	0.00031591
3645.77	9.2e-05
3655.42	0.000299623
3665.06	0.0002583
3674.71	0.0002395
3684.35	0.0003719
3694	0.0002074
3703.64	0.000193
3713.29	0.000152
3722.93	9.4e-05
3732.58	0.000161
3742.22	0.0002648
3751.86	0.0002483
3761.51	0.000323
3771.15	0.0004272
3780.8	0.00029199
3790.44	0.00037007
3800.09	0.000188
3809.73	0.0002333
3819.38	0.0002156
3829.02	0.0004221
3838.67	0.0002656
3848.31	0.00035219
3857.96	0.0002065
3867.6	0.00034692
3877.25	0.00029052
3886.89	0.0002001
3896.54	0.0002752
3906.18	0.00030705
3915.83	0.0002284
3925.47	0.00037808
3935.12	0.0005509
3944.76	0.0004788
3954.41	0.0005421
3964.05	0.0005075
3973.69	0.00032399
3983.34	0.0005991
3992.98	0.0006019
