Infrared Spectrum: 4-Methyl-1-hepten-4-ol
Formula: C 8 H 16 O
CAS: 1186-31-8
State: gas
Instrument: HP-GC/MS/IRD
Origin: NIST Mass Spectrometry Data Center
1/CM	ABSORBANCE
550	0.0005434
562	0.0001634
574	0.0001463
586	3.99e-05
598	0.0002527
610	0.0005054
622	0.0006973
634	0.0006897
646	0.0006992
658	0.0005054
670	0.0003325
682	0.000323
694	0.0001729
706	0.0002394
718	0.0003306
730	0.0003724
742	0.0004845
754	0.0005871
766	0.0008322
778	0.0009177
790	0.0007087
802	0.0004978
814	0.000399
826	0.0004845
838	0.0006232
850	0.0010089
862	0.0015941
874	0.0021964
886	0.0023655
898	0.0028785
910	0.0053922
922	0.0066975
934	0.0044859
946	0.0031578
958	0.0022648
970	0.0016777
982	0.0022287
994	0.0035264
1006	0.0034732
1018	0.0027873
1030	0.0024396
1042	0.0020691
1054	0.0020843
1066	0.0022192
1078	0.0023465
1090	0.0023142
1102	0.0024776
1114	0.002983
1126	0.0037088
1138	0.0041762
1150	0.004655
1162	0.0045524
1174	0.0037563
1186	0.0027949
1198	0.0022135
1210	0.0020425
1222	0.0021508
1234	0.0023142
1246	0.0024833
1258	0.0027341
1270	0.0027968
1282	0.002584
1294	0.0024605
1306	0.0023921
1318	0.0022971
1330	0.0023522
1342	0.0025346
1354	0.0027759
1366	0.0035473
1378	0.0044517
1390	0.0034751
1402	0.0019475
1414	0.001615
1426	0.0018905
1438	0.0025878
1450	0.0030609
1462	0.003002
1474	0.0021945
1486	0.0011362
1498	0.0006365
1510	0.0004389
1522	0.0003895
1534	0.0003154
1546	0.0002907
1558	0.0002641
1570	0.0002242
1582	0.0002147
1594	0.0002299
1606	0.0003097
1618	0.0005852
1630	0.0013908
1642	0.0017157
1654	0.0008037
1666	0.0002565
1678	0.0001786
1690	0.0001463
1702	0.0001026
1714	7.6e-05
1726	9.31e-05
1738	0.0001007
1750	6.84e-05
1762	7.98e-05
1774	9.69e-05
1786	0.0001083
1798	0.0001273
1810	0.000152
1822	0.000304
1834	0.0005662
1846	0.0005073
1858	0.0002736
1870	0.000133
1882	8.36e-05
1894	8.74e-05
1906	8.93e-05
1918	7.79e-05
1930	6.46e-05
1942	4.75e-05
1954	4.18e-05
1966	0.0001026
1978	6.84e-05
1990	8.17e-05
2002	8.17e-05
2014	8.55e-05
2026	6.27e-05
2038	8.93e-05
2050	5.13e-05
2062	5.51e-05
2074	4.56e-05
2086	5.13e-05
2098	6.65e-05
2110	5.7e-05
2122	5.32e-05
2134	8.17e-05
2146	7.98e-05
2158	6.08e-05
2170	7.98e-05
2182	6.46e-05
2194	9.31e-05
2206	6.84e-05
2218	5.13e-05
2230	8.93e-05
2242	6.46e-05
2254	8.36e-05
2266	8.36e-05
2278	5.7e-05
2290	3.61e-05
2302	4.37e-05
2314	3.99e-05
2326	6.46e-05
2338	8.55e-05
2350	8.17e-05
2362	7.98e-05
2374	7.98e-05
2386	5.13e-05
2398	7.03e-05
2410	8.17e-05
2422	6.46e-05
2434	3.42e-05
2446	5.13e-05
2458	3.8e-05
2470	1.71e-05
2482	3.99e-05
2494	3.61e-05
2506	5.32e-05
2518	7.41e-05
2530	5.32e-05
2542	5.89e-05
2554	0.0001102
2566	7.03e-05
2578	0.0001102
2590	7.41e-05
2602	0.0001026
2614	0.0001064
2626	0.0001178
2638	0.0001235
2650	0.0001406
2662	0.0001539
2674	0.0001406
2686	0.0001368
2698	0.0001957
2710	0.0002394
2722	0.0002679
2734	0.0003781
2746	0.0003857
2758	0.0003781
2770	0.0003534
2782	0.0004313
2794	0.0005111
2806	0.0007011
2818	0.0010051
2830	0.0014801
2842	0.0023389
2854	0.0032224
2866	0.0042959
2878	0.0066329
2890	0.0076437
2902	0.0079344
2914	0.0101384
2926	0.0123766
2938	0.0142405
2950	0.0134159
2962	0.0163723
2974	0.0186561
2986	0.0120517
2998	0.0056297
3010	0.0032395
3022	0.0023788
3034	0.0015884
3046	0.0013053
3058	0.0014858
3070	0.0022724
3082	0.0036024
3094	0.0025308
3106	0.0008626
3118	0.0004712
3130	0.0004104
3142	0.0004313
3154	0.0003591
3166	0.0003002
3178	0.0002014
3190	0.0002204
3202	0.0002394
3214	0.0001995
3226	0.0001577
3238	0.0001672
3250	0.0001159
3262	0.000133
3274	0.0001064
3286	0.0001425
3298	8.55e-05
3310	9.12e-05
3322	8.93e-05
3334	6.27e-05
3346	0.0001539
3358	7.03e-05
3370	0.0001634
3382	8.93e-05
3394	6.27e-05
3406	0.000133
3418	0.0001159
3430	7.79e-05
3442	7.03e-05
3454	6.65e-05
3466	9.12e-05
3478	0.0001311
3490	5.32e-05
3502	9.5e-05
3514	4.18e-05
3526	6.08e-05
3538	2.66e-05
3550	9.12e-05
3562	1.14e-05
3574	4.75e-05
3586	0.0001767
3598	0.0004351
3610	0.0008075
3622	0.00095
3634	0.0012806
3646	0.0011305
3658	0.0004541
3670	0.0001786
3682	1.14e-05
3694	5.7e-05
3706	1.9e-06
3718	1.33e-05
3730	1.9e-06
3742	9.5e-06
3754	1.9e-06
3766	1.9e-06
3778	1.9e-06
3790	1.9e-06
3802	6.27e-05
3814	3.8e-06
3826	3.8e-06
3838	3.8e-06
