Infrared Spectrum: ACETIC ACID, DIISOPROPYLPHOSPHONO-
Formula: C8 H17 O5 P
CAS: 118729-24-1
State: LIQUID (NEAT)
Class: COBLENTZ III
Instrument: PERKIN-ELMER 21 (GRATING)
Instrument parameters: FILTER CHANGE AT 1090 CM^-^1
Sampling: TRANSMISSION
Path length: CAPILLARY
Resolution: 4
Origin: SOUTHERN RESEARCH INSTITUTE
1/CM	TRANSMITTANCE
607.858	0.463
616.89	0.461
625.923	0.4648
634.955	0.4827
643.987	0.4882
653.019	0.492
662.052	0.495
671.084	0.495
680.116	0.4907
689.148	0.4638
698.181	0.4431
707.213	0.4475
716.245	0.5018
725.277	0.499
734.31	0.4825
743.342	0.477
752.374	0.462
761.407	0.4502
770.439	0.4827
779.471	0.5223
788.503	0.5804
797.536	0.594
806.568	0.5821
815.6	0.5248
824.632	0.4238
833.665	0.3699
842.697	0.4072
851.729	0.4992
860.761	0.4531
869.794	0.437
878.826	0.4236
887.858	0.3065
896.891	0.1886
905.923	0.1818
914.955	0.2308
923.987	0.3027
933.02	0.3207
942.052	0.3092
951.084	0.3228
960.116	0.2863
969.149	0.1939
978.181	0.0771
987.213	0.025
996.246	0.025
1005.28	0.0221
1014.31	0.018
1023.34	0.0272
1032.37	0.078
1041.41	0.1697
1050.44	0.2839
1059.47	0.3782
1068.5	0.4222
1077.54	0.4366
1086.57	0.438
1095.6	0.3594
1104.63	0.0843
1113.66	0.1054
1122.7	0.1081
1131.73	0.1581
1140.76	0.178
1149.79	0.1633
1158.83	0.256
1167.86	0.2271
1176.89	0.1211
1185.92	0.0696
1194.96	0.0637
1203.99	0.055
1213.02	0.052
1222.05	0.051
1231.08	0.05
1240.12	0.0508
1249.15	0.0597
1258.18	0.0731
1267.21	0.0895
1276.25	0.0971
1285.28	0.1215
1294.31	0.1852
1303.34	0.2493
1312.37	0.3094
1321.41	0.3597
1330.44	0.4136
1339.47	0.424
1348.5	0.415
1357.54	0.3896
1366.57	0.3477
1375.6	0.2693
1384.63	0.147
1393.67	0.123
1402.7	0.2197
1411.73	0.3189
1420.76	0.329
1429.79	0.3848
1438.83	0.4245
1447.86	0.476
1456.89	0.4231
1465.92	0.3936
1474.96	0.3871
1483.99	0.4503
1493.02	0.5939
1502.05	0.6223
1511.08	0.651
1520.12	0.6686
1529.15	0.6765
1538.18	0.6814
1547.21	0.686
1556.25	0.689
1565.28	0.691
1574.31	0.69
1583.34	0.6852
1592.38	0.6785
1601.41	0.6734
1610.44	0.6635
1619.47	0.6473
1628.5	0.6247
1637.54	0.6059
1646.57	0.5731
1655.6	0.5429
1664.63	0.5252
1673.67	0.4819
1682.7	0.4377
1691.73	0.3627
1700.76	0.2814
1709.79	0.1831
1718.83	0.0541
1727.86	0.046
1736.89	0.0511
1745.92	0.11
1754.96	0.1799
1763.99	0.2578
1773.02	0.3868
1782.05	0.4443
1791.09	0.472
1800.12	0.4967
1809.15	0.504
1818.18	0.5217
1827.21	0.5486
1836.25	0.5689
1845.28	0.5759
1854.31	0.583
1863.34	0.587
1872.38	0.589
1881.41	0.594
1890.44	0.5973
1899.47	0.6022
1908.5	0.607
1917.54	0.611
1926.57	0.6149
1935.6	0.6188
1944.63	0.6224
1953.67	0.6262
1962.7	0.628
1971.73	0.63
1980.76	0.6333
1989.79	0.637
1998.83	0.641
2007.86	0.643
2016.89	0.6451
2025.92	0.649
2034.96	0.652
2043.99	0.655
2053.02	0.658
2062.05	0.6601
2071.09	0.664
2080.12	0.667
2089.15	0.668
2098.18	0.669
2107.21	0.67
2116.25	0.6691
2125.28	0.6702
2134.31	0.672
2143.34	0.672
2152.38	0.672
2161.41	0.673
2170.44	0.67
2179.47	0.667
2188.5	0.67
2197.54	0.67
2206.57	0.6721
2215.6	0.672
2224.63	0.6761
2233.67	0.6739
2242.7	0.6702
2251.73	0.6718
2260.76	0.67
2269.8	0.668
2278.83	0.6628
2287.86	0.6559
2296.89	0.654
2305.92	0.6459
2314.96	0.634
2323.99	0.629
2333.02	0.6177
2342.05	0.6069
2351.09	0.601
2360.12	0.598
2369.15	0.596
2378.18	0.594
2387.21	0.592
2396.25	0.5868
2405.28	0.578
2414.31	0.5709
2423.34	0.5597
2432.38	0.5489
2441.41	0.5359
2450.44	0.5207
2459.47	0.4987
2468.51	0.4778
2477.54	0.4549
2486.57	0.4407
2495.6	0.4176
2504.63	0.3867
2513.67	0.3669
2522.7	0.356
2531.73	0.36
2540.76	0.3651
2549.8	0.37
2558.83	0.374
2567.86	0.3699
2576.89	0.357
2585.92	0.3488
2594.96	0.3378
2603.99	0.3247
2613.02	0.3039
2622.05	0.294
2631.09	0.2941
2640.12	0.299
2649.15	0.301
2658.18	0.3124
2667.22	0.3293
2676.25	0.3481
2685.28	0.3582
2694.31	0.3632
2703.34	0.3672
2712.38	0.3669
2721.41	0.3609
2730.44	0.3518
2739.47	0.3398
2748.51	0.3246
2757.54	0.3008
2766.57	0.2859
2775.6	0.2797
2784.63	0.267
2793.67	0.2599
2802.7	0.256
2811.73	0.252
2820.76	0.2379
2829.8	0.2289
2838.83	0.2196
2847.86	0.203
2856.89	0.1979
2865.92	0.1927
2874.96	0.1839
2883.99	0.1747
2893.02	0.1628
2902.05	0.1527
2911.09	0.1377
2920.12	0.1228
2929.15	0.1129
2938.18	0.1049
2947.22	0.1
2956.25	0.103
2965.28	0.107
2974.31	0.1039
2983.34	0.0819
2992.38	0.0861
3001.41	0.1031
3010.44	0.1327
3019.47	0.1634
3028.51	0.1813
3037.54	0.1942
3046.57	0.2032
3055.6	0.2213
3064.63	0.2344
3073.67	0.2513
3082.7	0.2643
3091.73	0.2833
3100.76	0.2982
3109.8	0.3121
3118.83	0.318
3127.86	0.327
3136.89	0.3342
3145.93	0.341
3154.96	0.352
3163.99	0.3612
3173.02	0.3741
3182.05	0.3831
3191.09	0.3942
3200.12	0.4001
3209.15	0.4101
3218.18	0.4162
3227.22	0.4252
3236.25	0.4321
3245.28	0.4401
3254.31	0.4472
3263.34	0.4551
3272.38	0.4641
3281.41	0.4721
3290.44	0.477
3299.47	0.481
3308.51	0.4851
3317.54	0.4901
3326.57	0.496
3335.6	0.501
3344.64	0.5043
3353.67	0.508
3362.7	0.508
3371.73	0.51
3380.76	0.5131
3389.8	0.518
3398.83	0.522
3407.86	0.523
3416.89	0.525
3425.93	0.525
3434.96	0.525
3443.99	0.5261
3453.02	0.531
3462.05	0.5362
3471.09	0.5412
3480.12	0.547
3489.15	0.5502
3498.18	0.5561
3507.22	0.5621
3516.25	0.5701
3525.28	0.576
3534.31	0.5831
3543.34	0.587
3552.38	0.587
3561.41	0.5903
3570.44	0.598
3579.47	0.603
3588.51	0.6072
3597.54	0.6122
3606.57	0.6191
3615.6	0.6241
3624.64	0.6302
3633.67	0.64
3642.7	0.6472
3651.73	0.654
3660.76	0.6601
3669.8	0.6681
3678.83	0.6761
3687.86	0.6851
3696.89	0.6922
3705.93	0.699
3714.96	0.708
3723.99	0.714
3733.02	0.718
3742.05	0.72
3751.09	0.7211
3760.12	0.723
3769.15	0.725
3778.18	0.726
3787.22	0.725
3796.25	0.7248
3805.28	0.723
3814.31	0.722
3823.35	0.722
3832.38	0.723
3841.41	0.725
3850.44	0.727
3859.47	0.729
3868.51	0.727
3877.54	0.726
3886.57	0.727
3895.6	0.727
3904.64	0.726
3913.67	0.723
3922.7	0.723
3931.73	0.723
3940.76	0.725
3949.8	0.726
3958.83	0.726
3967.86	0.727
3976.89	0.727
3985.93	0.727
3994.96	0.729
