Infrared Spectrum: DI-ISOBUTYL HYDROGEN PHOSPHATE
Formula: C8 H19 O3 P
CAS: 1189-24-8
State: LIQUID
Class: COBLENTZ
Instrument: PERKIN-ELMER
Sampling: TRANSMISSION
Path length: 0.0015 CM
Resolution: 4
Origin: STANDARD OIL OF OHIO
MICROMETERS	TRANSMITTANCE
2.013	1.018
2.04673	1.018
2.08046	1.02
2.1142	1.018
2.14793	1.018
2.18166	1.018
2.21539	1.018
2.24913	0.998
2.28286	0.979
2.31659	0.977
2.35032	0.988
2.38405	0.993
2.41779	0.991
2.45152	0.991
2.48525	1
2.51898	1.003
2.55272	1.005
2.58645	1.006
2.62018	1.006
2.65391	1.011
2.68764	1.005
2.72138	0.986
2.75511	0.95
2.78884	0.862
2.82257	0.847
2.85631	0.837
2.89004	0.866
2.92377	0.916
2.9575	0.949
2.99123	0.969
3.02497	0.977
3.0587	0.983
3.09243	0.976
3.12616	0.971
3.1599	0.971
3.19363	0.974
3.22736	0.974
3.26109	0.95
3.29482	0.857
3.32856	0.469
3.36229	0.098
3.39602	0.167
3.42975	0.225
3.46349	0.428
3.49722	0.752
3.53095	0.872
3.56468	0.911
3.59841	0.927
3.63215	0.927
3.66588	0.938
3.69961	0.971
3.73334	0.977
3.76708	0.983
3.80081	0.984
3.83454	0.991
3.86827	0.989
3.902	0.989
3.93574	0.986
3.96947	0.976
4.0032	0.959
4.03693	0.918
4.07067	0.776
4.1044	0.652
4.13813	0.679
4.17186	0.757
4.20559	0.82
4.23933	0.884
4.27306	0.932
4.30679	0.961
4.34052	0.971
4.37426	0.974
4.40799	0.979
4.44172	0.984
4.47545	0.989
4.50918	0.991
4.54292	0.993
4.57665	0.993
4.61038	0.991
4.64411	0.993
4.67785	0.993
4.71158	0.993
4.74531	0.993
4.77904	0.991
4.81277	0.991
4.84651	0.991
4.88024	0.993
4.91397	0.993
4.9477	0.993
4.98144	0.989
5.01517	0.989
5.0489	0.991
5.08263	0.989
5.11636	0.984
5.1501	0.974
5.18383	0.967
5.21756	0.964
5.25129	0.961
5.28503	0.955
5.31876	0.955
5.35249	0.957
5.38622	0.959
5.41995	0.959
5.45369	0.961
5.48742	0.964
5.52115	0.969
5.55488	0.969
5.58862	0.969
5.62235	0.972
5.65608	0.972
5.68981	0.979
5.72354	0.981
5.75728	0.984
5.79101	0.984
5.82474	0.986
5.85847	0.984
5.89221	0.983
5.92594	0.976
5.95967	0.966
5.9934	0.947
6.02713	0.945
6.06087	0.933
6.0946	0.93
6.12833	0.935
6.16206	0.95
6.1958	0.961
6.22953	0.971
6.26326	0.976
6.29699	0.979
6.33072	0.981
6.36446	0.981
6.39819	0.981
6.43192	0.979
6.46565	0.976
6.49939	0.967
6.53312	0.959
6.56685	0.95
6.60058	0.938
6.63431	0.923
6.66805	0.881
6.70178	0.7
6.73551	0.516
6.76924	0.227
6.80298	0.269
6.83671	0.4
6.87044	0.571
6.90417	0.72
6.9379	0.818
6.97164	0.852
7.00537	0.869
7.0391	0.874
7.07283	0.855
7.10657	0.732
7.1403	0.518
7.17403	0.616
7.20776	0.703
7.24149	0.571
7.27523	0.423
7.30896	0.566
7.34269	0.803
7.37642	0.845
7.41016	0.838
7.44389	0.838
7.47762	0.84
7.51135	0.835
7.54508	0.837
7.57882	0.827
7.61255	0.759
7.64628	0.693
7.68001	0.605
7.71375	0.469
7.74748	0.296
7.78121	0.122
7.81494	0.055
7.84867	0.027
7.88241	0.022
7.91614	0.016
7.94987	0.013
7.9836	0.015
8.01734	0.066
8.05107	0.211
8.0848	0.367
8.11853	0.535
8.15226	0.666
8.186	0.718
8.21973	0.769
8.25346	0.793
8.28719	0.806
8.32093	0.816
8.35466	0.815
8.38839	0.788
8.42212	0.708
8.45585	0.64
8.48959	0.642
8.52332	0.669
8.55705	0.659
8.59078	0.659
8.62452	0.698
8.65825	0.713
8.69198	0.733
8.72571	0.752
8.75944	0.749
8.79318	0.706
8.82691	0.65
8.86064	0.622
8.89437	0.676
8.92811	0.701
8.96184	0.676
8.99557	0.63
9.0293	0.54
9.06303	0.494
9.09677	0.471
9.1305	0.433
9.16423	0.323
9.19796	0.213
9.2317	0.118
9.26543	0.089
9.29916	0.083
9.33289	0.083
9.36662	0.089
9.40036	0.094
9.43409	0.089
9.46782	0.072
9.50155	0.054
9.53529	0.028
9.56902	0.023
9.60275	0.018
9.63648	0.016
9.67021	0.016
9.70395	0.02
9.73768	0.028
9.77141	0.038
9.80514	0.047
9.83888	0.045
9.87261	0.035
9.90634	0.025
9.94007	0.022
9.9738	0.018
10.0075	0.015
10.0413	0.011
10.075	0.01
10.1087	0.006
10.1425	0.006
10.1762	0.006
10.2099	0.006
10.2437	0.006
10.2774	0.008
10.3111	0.01
10.3449	0.01
10.3786	0.013
10.4123	0.016
10.4461	0.03
10.4798	0.089
10.5135	0.144
10.5473	0.169
10.581	0.216
10.6147	0.3
10.6484	0.381
10.6822	0.433
10.7159	0.491
10.7496	0.498
10.7834	0.493
10.8171	0.523
10.8508	0.567
10.8846	0.566
10.9183	0.552
10.952	0.549
10.9858	0.574
11.0195	0.644
11.0532	0.7
11.087	0.738
11.1207	0.771
11.1544	0.789
11.1882	0.801
11.2219	0.803
11.2556	0.801
11.2894	0.791
11.3231	0.771
11.3568	0.74
11.3906	0.688
11.4243	0.632
11.458	0.581
11.4918	0.532
11.5255	0.484
11.5592	0.45
11.593	0.43
11.6267	0.427
11.6604	0.428
11.6941	0.437
11.7279	0.45
11.7616	0.471
11.7953	0.483
11.8291	0.51
11.8628	0.53
11.8965	0.544
11.9303	0.555
11.964	0.566
11.9977	0.567
12.0315	0.557
12.0652	0.535
12.0989	0.513
12.1327	0.51
12.1664	0.515
12.2001	0.537
12.2339	0.552
12.2676	0.569
12.3013	0.584
12.3351	0.598
12.3688	0.61
12.4025	0.622
12.4363	0.635
12.47	0.647
12.5037	0.657
12.5375	0.664
12.5712	0.666
12.6049	0.671
12.6387	0.676
12.6724	0.691
12.7061	0.701
12.7398	0.718
12.7736	0.737
12.8073	0.762
12.841	0.788
12.8748	0.808
12.9085	0.825
12.9422	0.842
12.976	0.857
13.0097	0.869
13.0434	0.879
13.0772	0.893
13.1109	0.9
13.1446	0.91
13.1784	0.915
13.2121	0.92
13.2458	0.925
13.2796	0.927
13.3133	0.928
13.347	0.93
13.3808	0.93
13.4145	0.932
13.4482	0.933
13.482	0.932
13.5157	0.933
13.5494	0.933
13.5832	0.933
13.6169	0.935
13.6506	0.935
13.6843	0.935
13.7181	0.935
13.7518	0.933
13.7855	0.935
13.8193	0.935
13.853	0.933
13.8867	0.933
13.9205	0.933
13.9542	0.933
13.9879	0.932
14.0217	0.93
14.0554	0.928
14.0891	0.928
14.1229	0.927
14.1566	0.925
14.1903	0.925
14.2241	0.923
14.2578	0.923
14.2915	0.92
14.3253	0.918
14.359	0.916
14.3927	0.915
14.4265	0.915
14.4602	0.913
14.4939	0.911
14.5277	0.913
14.5614	0.911
14.5951	0.908
14.6289	0.905
14.6626	0.9
14.6963	0.898
14.73	0.898
14.7638	0.894
14.7975	0.891
14.8312	0.884
14.865	0.883
14.8987	0.881
14.9324	0.879
14.9662	0.876
14.9999	0.874
15.0336	0.867
15.0674	0.864
15.1011	0.861
15.1348	0.855
15.1686	0.855
15.2023	0.852
15.236	0.85
15.2698	0.847
15.3035	0.845
15.3372	0.844
15.371	0.838
