Infrared Spectrum: 1,3-BUTANEDIOL, BIS(2-METHYLPROPENOATE)
Formula: C12 H18 O4
CAS: 1189-08-8
State: SOLUTION (5% IN CCl4 FOR 3800-1300, 5% IN CS2 FOR 1300-600, AND 5% IN CCl4 FOR 600-240 CM^-^1) VERSUS SOLVENT
Class: COBLENTZ III
Instrument: PERKIN-ELMER 521 (GRATING)
Instrument parameters: FILTERS AT 3150, 2500, 2000, 1150, 700, 410; GRATING CHANGES AT 2000, 630 CM^-^1
Sampling: TRANSMISSION
Path length: 0.010, 0.010, AND 0.020 CM (CsBr CELL)
Resolution: 4
Origin: DOW CORNING CORP.
1/CM	TRANSMITTANCE
228.48	0.781
237.44	0.784
246.4	0.798
255.36	0.798
264.32	0.793
273.28	0.784
282.24	0.781
291.2	0.777
300.16	0.777
309.12	0.769
318.08	0.772
327.04	0.776
336	0.755
344.96	0.743
353.92	0.746
362.88	0.758
371.84	0.77
380.8	0.781
389.76	0.79
398.72	0.786
407.681	0.783
416.641	0.769
425.601	0.763
434.561	0.767
443.521	0.769
452.481	0.77
461.441	0.779
470.401	0.79
479.361	0.793
488.321	0.805
497.281	0.809
506.241	0.807
515.201	0.807
524.161	0.797
533.121	0.816
542.081	0.805
551.041	0.814
560.001	0.814
568.961	0.818
577.921	0.812
586.881	0.767
595.841	0.762
604.801	0.804
613.761	0.833
622.721	0.814
631.681	0.797
640.641	0.727
649.601	0.687
658.561	0.7359
667.521	0.825
676.481	0.849
685.441	0.86
694.401	0.863
703.361	0.868
712.321	0.87
721.281	0.867
730.241	0.87
739.201	0.868
748.161	0.865
757.121	0.856
766.082	0.854
775.042	0.847
784.002	0.837
792.962	0.826
801.922	0.765
810.882	0.417
819.842	0.746
828.802	0.776
837.762	0.784
846.722	0.807
855.682	0.797
864.642	0.805
873.602	0.823
882.562	0.821
891.522	0.779
900.482	0.807
909.442	0.812
918.402	0.7501
927.362	0.5832
936.322	0.22
945.282	0.519
954.242	0.6989
963.202	0.722
972.162	0.727
981.122	0.734
990.082	0.737
999.042	0.722
1008	0.5398
1016.96	0.7299
1025.92	0.734
1034.88	0.629
1043.84	0.655
1052.8	0.708
1061.76	0.709
1070.72	0.666
1079.68	0.568
1088.64	0.554
1097.6	0.4751
1106.56	0.4099
1115.52	0.435
1124.48	0.421
1133.44	0.3401
1142.4	0.167
1151.36	0.04
1160.32	0.029
1169.28	0.047
1178.24	0.099
1187.2	0.2558
1196.16	0.452
1205.12	0.652
1214.08	0.727
1223.04	0.734
1232	0.734
1240.96	0.737
1249.92	0.769
1258.88	0.755
1267.84	0.702
1276.8	0.648
1285.76	0.4121
1294.72	0.082
1303.68	0.2812
1312.64	0.36
1321.6	0.192
1330.56	0.3721
1339.52	0.6728
1348.48	0.694
1357.44	0.632
1366.4	0.7269
1375.36	0.683
1384.32	0.552
1393.28	0.667
1402.24	0.5891
1411.2	0.613
1420.16	0.706
1429.12	0.6801
1438.08	0.606
1447.04	0.536
1456	0.4169
1464.96	0.5969
1473.92	0.641
1482.88	0.7461
1491.84	0.821
1500.8	0.844
1509.76	0.853
1518.72	0.856
1527.68	0.858
1536.64	0.861
1545.6	0.86
1554.56	0.856
1563.52	0.856
1572.48	0.853
1581.44	0.849
1590.4	0.846
1599.36	0.828
1608.32	0.811
1617.28	0.772
1626.24	0.694
1635.2	0.5381
1644.16	0.4589
1653.12	0.788
1662.08	0.797
1671.04	0.776
1680	0.736
1688.96	0.704
1697.92	0.648
1706.88	0.4521
1715.84	0.073
1724.8	0.012
1733.76	0.0989
1742.72	0.552
1751.68	0.702
1760.64	0.763
1769.6	0.797
1778.56	0.812
1787.52	0.826
1796.48	0.833
1805.44	0.84
1814.4	0.846
1823.36	0.854
1832.32	0.858
1841.28	0.858
1850.24	0.858
1859.2	0.856
1868.16	0.849
1877.12	0.835
1886.08	0.816
1895.04	0.842
1904	0.854
1912.96	0.856
1921.92	0.858
1930.88	0.858
1939.84	0.86
1948.8	0.861
1957.76	0.865
1966.72	0.861
1975.68	0.858
1984.64	0.86
1993.6	0.865
2002.56	0.874
2011.53	0.8675
2020.49	0.868
2029.45	0.867
2038.41	0.867
2047.37	0.876
2056.33	0.8769
2065.29	0.87
2074.25	0.875
2083.21	0.877
2092.17	0.8737
2101.13	0.867
2110.09	0.868
2119.05	0.867
2128.01	0.861
2136.97	0.865
2145.93	0.865
2154.89	0.8638
2163.85	0.8601
2172.81	0.863
2181.77	0.863
2190.73	0.863
2199.69	0.863
2208.65	0.863
2217.61	0.8647
2226.57	0.863
2235.53	0.863
2244.49	0.861
2253.45	0.865
2262.41	0.865
2271.37	0.8627
2280.33	0.861
2289.29	0.8608
2298.25	0.8586
2307.21	0.858
2316.17	0.858
2325.13	0.8576
2334.09	0.856
2343.05	0.8584
2352.01	0.861
2360.97	0.86
2369.93	0.86
2378.89	0.86
2387.85	0.861
2396.81	0.8595
2405.77	0.856
2414.73	0.858
2423.69	0.86
2432.65	0.8575
2441.61	0.856
2450.57	0.858
2459.53	0.856
2468.49	0.856
2477.45	0.856
2486.41	0.856
2495.37	0.858
2504.33	0.858
2513.29	0.858
2522.25	0.856
2531.21	0.856
2540.17	0.854
2549.13	0.854
2558.09	0.854
2567.05	0.854
2576.01	0.854
2584.97	0.854
2593.93	0.854
2602.89	0.854
2611.85	0.854
2620.81	0.854
2629.77	0.854
2638.73	0.854
2647.69	0.856
2656.65	0.8562
2665.61	0.854
2674.57	0.854
2683.53	0.854
2692.49	0.854
2701.45	0.856
2710.41	0.854
2719.37	0.854
2728.33	0.853
2737.29	0.8501
2746.25	0.849
2755.21	0.8499
2764.17	0.851
2773.13	0.851
2782.09	0.851
2791.05	0.85
2800.01	0.847
2808.97	0.846
2817.93	0.844
2826.89	0.838
2835.85	0.8319
2844.81	0.8153
2853.77	0.8039
2862.73	0.7975
2871.69	0.7928
2880.65	0.7765
2889.61	0.7628
2898.57	0.7502
2907.53	0.7247
2916.49	0.7139
2925.45	0.6314
2934.41	0.564
2943.37	0.6508
2952.33	0.6478
2961.29	0.5329
2970.25	0.5328
2979.21	0.4794
2988.17	0.5021
2997.13	0.5953
3006.09	0.728
3015.05	0.7744
3024.01	0.7907
3032.97	0.8254
3041.93	0.83
3050.89	0.8303
3059.85	0.8423
3068.81	0.8513
3077.77	0.8517
3086.73	0.8468
3095.69	0.844
3104.65	0.8303
3113.61	0.8341
3122.57	0.8536
3131.53	0.858
3140.49	0.8576
3149.45	0.854
3158.41	0.858
3167.37	0.86
3176.33	0.8585
3185.29	0.86
3194.25	0.8615
3203.21	0.8615
3212.17	0.8615
3221.13	0.8665
3230.09	0.8655
3239.05	0.868
3248.01	0.87
3256.97	0.8672
3265.93	0.868
3274.89	0.87
3283.85	0.872
3292.81	0.8716
3301.77	0.872
3310.73	0.87
3319.69	0.872
3328.65	0.8683
3337.61	0.867
3346.57	0.8633
3355.53	0.8637
3364.49	0.8695
3373.45	0.8707
3382.41	0.872
3391.37	0.87
3400.33	0.8635
3409.29	0.8552
3418.25	0.851
3427.21	0.8498
3436.17	0.8557
3445.13	0.8662
3454.09	0.872
3463.05	0.8744
3472.01	0.875
3480.97	0.875
3489.93	0.8741
3498.89	0.875
3507.85	0.875
3516.81	0.875
3525.77	0.875
3534.73	0.875
3543.69	0.874
3552.65	0.874
3561.61	0.877
3570.57	0.878
3579.53	0.882
3588.49	0.883
3597.45	0.877
3606.41	0.8745
3615.37	0.875
3624.33	0.877
3633.29	0.875
3642.25	0.879
3651.21	0.881
3660.17	0.881
3669.13	0.879
3678.09	0.877
3687.05	0.8751
3696.01	0.879
3704.97	0.881
3713.93	0.882
3722.89	0.882
3731.85	0.8851
3740.81	0.8878
3749.77	0.882
3758.73	0.881
3767.69	0.881
3776.65	0.8811
3785.61	0.8832
