Infrared Spectrum: 2,2'-Methylenebis(6-t-butyl-4-methylphenol)
Formula: C 23 H 32 O 2
CAS: 119-47-1
State: gas
Origin: EPA-IR VAPOR PHASE LIBRARY
1/CM	ABSORBANCE
549.8	0.00479
559.445	0.00433
569.09	0.00441
578.734	0.00516
588.379	0.0052
598.024	0.00499
607.669	0.00581
617.313	0.00561
626.958	0.00361
636.603	0.0029
646.248	0.00306
655.893	0.00301
665.537	0.00329
675.182	0.00355
684.827	0.00368
694.472	0.00278
704.116	0.0028
713.761	0.00261
723.406	0.00272
733.051	0.00301
742.695	0.00483
752.34	0.00948
761.985	0.01574
771.63	0.0096
781.275	0.00529
790.919	0.00661
800.564	0.00533
810.209	0.00293
819.854	0.00198
829.498	0.00221
839.143	0.00318
848.788	0.00985
858.433	0.02152
868.078	0.00708
877.722	0.00436
887.367	0.00547
897.012	0.00599
906.657	0.00529
916.301	0.00457
925.946	0.0054
935.591	0.00429
945.236	0.00349
954.88	0.00377
964.525	0.00376
974.17	0.00353
983.815	0.00339
993.46	0.00386
1003.1	0.00466
1012.75	0.00438
1022.39	0.00415
1032.04	0.00363
1041.68	0.00315
1051.33	0.00327
1060.97	0.00274
1070.62	0.00259
1080.26	0.00252
1089.91	0.00277
1099.55	0.00305
1109.2	0.00517
1118.84	0.00823
1128.49	0.0117
1138.13	0.01385
1147.78	0.0146
1157.42	0.01999
1167.07	0.0314
1176.71	0.04651
1186.36	0.04712
1196	0.03351
1205.64	0.0274
1215.29	0.03448
1224.93	0.04195
1234.58	0.0378
1244.22	0.03098
1253.87	0.02221
1263.51	0.01531
1273.16	0.01541
1282.8	0.01734
1292.45	0.01553
1302.09	0.015
1311.74	0.01643
1321.38	0.01601
1331.03	0.01092
1340.67	0.00798
1350.32	0.00814
1359.96	0.01494
1369.61	0.02288
1379.25	0.01171
1388.9	0.01297
1398.54	0.01845
1408.18	0.01392
1417.83	0.01836
1427.47	0.02842
1437.12	0.0376
1446.76	0.05067
1456.41	0.05441
1466.05	0.05465
1475.7	0.04766
1485.34	0.02795
1494.99	0.01281
1504.63	0.00748
1514.28	0.00579
1523.92	0.00473
1533.57	0.00382
1543.21	0.00325
1552.86	0.00284
1562.5	0.00273
1572.15	0.00281
1581.79	0.00316
1591.44	0.00399
1601.08	0.00474
1610.73	0.0035
1620.37	0.00226
1630.01	0.00167
1639.66	0.00147
1649.3	0.00127
1658.95	0.00114
1668.59	0.00109
1678.24	0.00106
1687.88	0.00104
1697.53	0.00109
1707.17	0.00135
1716.82	0.00141
1726.46	0.00206
1736.11	0.00339
1745.75	0.00362
1755.4	0.00239
1765.04	0.00196
1774.69	0.00172
1784.33	0.0013
1793.98	0.00117
1803.62	0.0009724
1813.27	0.0008505
1822.91	0.0007144
1832.55	0.0004943
1842.2	0.0005487
1851.84	0.0005325
1861.49	0.0004702
1871.13	0.0005532
1880.78	0.0005225
1890.42	0.0006366
1900.07	0.000673
1909.71	0.0007085
1919.36	0.0007844
1929	0.0007218
1938.65	0.0007285
1948.29	0.0006423
1957.94	0.0007263
1967.58	0.0006254
1977.23	0.0005718
1986.87	0.0005713
1996.52	0.0006033
2006.16	0.0005042
2015.81	0.0005103
2025.45	0.000545
2035.1	0.0004698
2044.74	0.0003995
2054.38	0.0004573
2064.03	0.0003052
2073.67	0.0003189
2083.32	0.0003419
2092.96	0.0003337
2102.61	0.0003733
2112.25	0.0003826
2121.9	0.0003551
2131.54	0.0004459
2141.19	0.0003866
2150.83	0.0004695
2160.48	0.0005453
2170.12	0.0004081
2179.77	0.000385
2189.41	0.0004663
2199.06	0.0004243
2208.7	0.0004546
2218.35	0.0004413
2227.99	0.0004389
2237.64	0.0004224
2247.28	0.0004504
2256.92	0.0004021
2266.57	0.0004632
2276.21	0.0004998
2285.86	0.0006034
2295.5	0.0005724
2305.15	0.0004218
2314.79	0.0005178
2324.44	0.000581
2334.08	0.0007111
2343.73	0.0008206
2353.37	0.0008747
2363.02	0.0009359
2372.66	0.00105
2382.31	0.00104
2391.95	0.00115
2401.6	0.00106
2411.24	0.00108
2420.89	0.00102
2430.53	0.0011
2440.18	0.00119
2449.82	0.0011
2459.47	0.00116
2469.11	0.00115
2478.75	0.00118
2488.4	0.00127
2498.04	0.00134
2507.69	0.00117
2517.33	0.00105
2526.98	0.0009638
2536.62	0.0009757
2546.27	0.0009331
2555.91	0.00111
2565.56	0.00109
2575.2	0.0009662
2584.85	0.00102
2594.49	0.0009753
2604.14	0.001
2613.78	0.00101
2623.43	0.00113
2633.07	0.00124
2642.72	0.00125
2652.36	0.00142
2662.01	0.00135
2671.65	0.00114
2681.29	0.0012
2690.94	0.0013
2700.58	0.00134
2710.23	0.00167
2719.87	0.00219
2729.52	0.00238
2739.16	0.00294
2748.81	0.00289
2758.45	0.0023
2768.1	0.00226
2777.74	0.00238
2787.39	0.00289
2797.03	0.00289
2806.68	0.00339
2816.32	0.00431
2825.97	0.00548
2835.61	0.00739
2845.26	0.0098
2854.9	0.01453
2864.55	0.02616
2874.19	0.04294
2883.84	0.04511
2893.48	0.04082
2903.12	0.04522
2912.77	0.0574
2922.41	0.06983
2932.06	0.07096
2941.7	0.0611
2951.35	0.07607
2960.99	0.09775
2970.64	0.10384
2980.28	0.05499
2989.93	0.0293
2999.57	0.02874
3009.22	0.02871
3018.86	0.019
3028.51	0.01437
3038.15	0.01196
3047.8	0.01048
3057.44	0.00981
3067.09	0.00877
3076.73	0.00791
3086.38	0.0064
3096.02	0.00407
3105.67	0.00306
3115.31	0.00262
3124.95	0.00233
3134.6	0.00228
3144.24	0.0022
3153.89	0.00218
3163.53	0.00201
3173.18	0.00203
3182.82	0.00198
3192.47	0.00194
3202.11	0.00178
3211.76	0.00165
3221.4	0.00163
3231.05	0.0016
3240.69	0.0015
3250.34	0.00143
3259.98	0.00144
3269.63	0.00142
3279.27	0.0018
3288.92	0.00173
3298.56	0.00157
3308.21	0.00162
3317.85	0.00178
3327.49	0.00187
3337.14	0.00185
3346.78	0.00182
3356.43	0.00183
3366.07	0.00198
3375.72	0.00222
3385.36	0.00245
3395.01	0.00256
3404.65	0.00271
3414.3	0.00306
3423.94	0.00357
3433.59	0.00435
3443.23	0.00518
3452.88	0.0064
3462.52	0.00794
3472.17	0.00998
3481.81	0.0137
3491.46	0.01797
3501.1	0.02236
3510.75	0.0292
3520.39	0.04193
3530.04	0.05934
3539.68	0.06041
3549.32	0.05058
3558.97	0.04157
3568.61	0.03285
3578.26	0.02517
3587.9	0.01797
3597.55	0.01256
3607.19	0.00926
3616.84	0.00757
3626.48	0.00777
3636.13	0.01094
3645.77	0.01442
3655.42	0.01711
3665.06	0.0177
3674.71	0.01321
3684.35	0.00757
3694	0.00429
3703.64	0.00269
3713.29	0.00195
3722.93	0.00154
3732.58	0.00138
3742.22	0.00121
3751.86	0.00111
3761.51	0.00115
3771.15	0.0008101
3780.8	0.0008946
3790.44	0.0009085
3800.09	0.00101
3809.73	0.0009053
3819.38	0.0009927
3829.02	0.0009638
3838.67	0.0009485
3848.31	0.00106
3857.96	0.00105
3867.6	0.00115
3877.25	0.00121
3886.89	0.00109
3896.54	0.00127
3906.18	0.00115
3915.83	0.00113
3925.47	0.00106
3935.12	0.00102
3944.76	0.000985
3954.41	0.0009841
3964.05	0.0008697
3973.69	0.0008546
3983.34	0.0009209
3992.98	0.0007278
