Infrared Spectrum: Benzhydrol, 4,4'(dimethyl-amino)-
Formula: C17 H22 N2 O
CAS: 119-58-4
State: SOLID (0.9 mg / 300 mg KBr DISC)
Melting point: 94 C
Class: COBLENTZ III
Instrument: PERKIN-ELMER 180 (GRATING)
Instrument parameters: GRATINGS: 2000, 1000, 500, 250 CM^-^1; FILTER CHANGE: 2970, 2000, 1485, 1000, 743, 500, 372, 250, 186 CM^-^1.
Sampling: TRANSMISSION
Resolution: 2
Origin: K. K. DEB-NCI FREDERICK CANCER RESEARCH CENTER
1/CM	TRANSMITTANCE
353	0.7756
362	0.8071
371	0.8253
380	0.8318
389	0.8339
398	0.8327
407	0.8267
416	0.818
425	0.8162
434	0.8138
443	0.7974
452	0.7957
461	0.8169
470	0.8091
479	0.8048
488	0.7969
497	0.7463
506	0.7328
515	0.6837
524	0.758
533	0.7526
542	0.6152
551	0.7159
560	0.6399
569	0.6608
578	0.7783
587	0.7672
596	0.7597
605	0.794
614	0.7944
623	0.7889
632	0.7737
641	0.7884
650	0.7912
659	0.7884
668	0.7853
677	0.7807
686	0.762
695	0.6837
704	0.797
713	0.7895
722	0.7447
731	0.7908
740	0.7516
749	0.6946
758	0.8045
767	0.7842
776	0.796
785	0.7608
794	0.4473
803	0.4193
812	0.5216
821	0.3361
830	0.4696
839	0.6776
848	0.6478
857	0.7962
866	0.777
875	0.8254
884	0.828
893	0.8245
902	0.8166
911	0.8038
920	0.7754
929	0.6848
938	0.4832
947	0.4262
956	0.6663
965	0.7818
974	0.7869
983	0.7833
992	0.7502
1001	0.722
1010	0.664
1019	0.6372
1028	0.4281
1037	0.5538
1046	0.6595
1055	0.5265
1064	0.5948
1073	0.6936
1082	0.7191
1091	0.699
1100	0.6631
1109	0.6519
1118	0.5736
1127	0.4408
1136	0.3079
1145	0.3917
1154	0.3987
1163	0.2611
1172	0.473
1181	0.4089
1190	0.4481
1199	0.4707
1208	0.4858
1217	0.4704
1226	0.4198
1235	0.4791
1244	0.4469
1253	0.5696
1262	0.6387
1271	0.6223
1280	0.6327
1289	0.5984
1298	0.5769
1307	0.461
1316	0.4041
1325	0.4102
1334	0.4475
1343	0.3453
1352	0.2744
1361	0.4132
1370	0.5367
1379	0.6106
1388	0.6256
1397	0.6492
1406	0.6603
1415	0.653
1424	0.6231
1433	0.5949
1442	0.4098
1451	0.4912
1460	0.4712
1469	0.4688
1478	0.3689
1487	0.5289
1496	0.5239
1505	0.2592
1514	0.1153
1523	0.0622
1532	0.3446
1541	0.5813
1550	0.6648
1559	0.6903
1568	0.6012
1577	0.6664
1586	0.643
1595	0.4783
1604	0.3003
1613	0.1241
1622	0.3806
1631	0.6667
1640	0.7408
1649	0.7667
1658	0.7849
1667	0.7967
1676	0.8075
1685	0.818
1694	0.8279
1703	0.8337
1712	0.8325
1721	0.8233
1730	0.8233
1739	0.8318
1748	0.8375
1757	0.8352
1766	0.843
1775	0.8511
1784	0.8527
1793	0.8535
1802	0.8543
1811	0.8539
1820	0.8525
1829	0.8504
1838	0.8478
1847	0.8432
1856	0.8376
1865	0.8295
1874	0.8172
1883	0.8015
1892	0.8014
1901	0.8098
1910	0.816
1919	0.8315
1928	0.8362
1937	0.8366
1946	0.8373
1955	0.8393
1964	0.8395
1973	0.8394
1982	0.8393
1991	0.8383
2000	0.8366
2009	0.833
2018	0.8306
2027	0.8284
2036	0.8269
2045	0.8261
2054	0.8254
2063	0.8251
2072	0.825
2081	0.8243
2090	0.8236
2099	0.8228
2108	0.8221
2117	0.8214
2126	0.8209
2135	0.8203
2144	0.82
2153	0.8196
2162	0.8193
2171	0.8185
2180	0.8175
2189	0.8166
2198	0.8156
2207	0.8146
2216	0.8135
2225	0.8122
2234	0.811
2243	0.8098
2252	0.8086
2261	0.8084
2270	0.8082
2279	0.808
2288	0.8078
2297	0.8074
2306	0.8069
2315	0.8053
2324	0.8038
2333	0.8021
2342	0.8001
2351	0.7981
2360	0.796
2369	0.7936
2378	0.7913
2387	0.7889
2396	0.7868
2405	0.7845
2414	0.7824
2423	0.7801
2432	0.778
2441	0.7764
2450	0.7748
2459	0.7732
2468	0.7716
2477	0.7701
2486	0.7686
2495	0.767
2504	0.7655
2513	0.7638
2522	0.762
2531	0.7601
2540	0.7574
2549	0.7545
2558	0.7518
2567	0.7491
2576	0.7464
2585	0.7425
2594	0.7382
2603	0.7325
2612	0.7265
2621	0.7237
2630	0.7247
2639	0.7258
2648	0.7269
2657	0.7275
2666	0.7271
2675	0.7263
2684	0.7237
2693	0.721
2702	0.7178
2711	0.7144
2720	0.7088
2729	0.699
2738	0.6865
2747	0.6703
2756	0.6508
2765	0.6258
2774	0.5959
2783	0.5463
2792	0.4588
2801	0.378
2810	0.4377
2819	0.5105
2828	0.493
2837	0.43
2846	0.3788
2855	0.4267
2864	0.4647
2873	0.4314
2882	0.3989
2891	0.4406
2900	0.4871
2909	0.5029
2918	0.5163
2927	0.5254
2936	0.5262
2945	0.5168
2954	0.5103
2963	0.5271
2972	0.5487
2981	0.5454
2990	0.5733
2999	0.6143
3008	0.6328
3017	0.6346
3026	0.6272
3035	0.6139
3044	0.635
3053	0.6477
3062	0.6433
3071	0.6282
3080	0.6379
3089	0.6313
3098	0.6177
3107	0.6354
3116	0.6399
3125	0.6266
3134	0.6133
3143	0.6
3152	0.5867
3161	0.5734
3170	0.5601
3179	0.5468
3188	0.5335
3197	0.5202
3206	0.5069
3215	0.4936
3224	0.4803
3233	0.4683
3242	0.4575
3251	0.4486
3260	0.4445
3269	0.4447
3278	0.4469
3287	0.4526
3296	0.4609
3305	0.4691
3314	0.4771
3323	0.4872
3332	0.4976
3341	0.5079
3350	0.5183
3359	0.5286
3368	0.539
3377	0.5493
3386	0.5597
3395	0.5701
3404	0.5805
3413	0.5908
3422	0.6012
3431	0.6115
3440	0.6219
3449	0.6305
3458	0.64
3467	0.6486
3476	0.6561
3485	0.6635
3494	0.6701
3503	0.6759
3512	0.6812
3521	0.6856
3530	0.6896
3539	0.6932
3548	0.6947
3557	0.6953
3566	0.7
3575	0.7082
3584	0.7135
3593	0.7175
3602	0.7208
3611	0.7233
3620	0.7251
3629	0.7259
3638	0.7265
3647	0.7263
3656	0.7261
3665	0.7246
3674	0.723
3683	0.7222
3692	0.7229
3701	0.7234
3710	0.7238
3719	0.7237
3728	0.723
3737	0.7218
3746	0.7209
3755	0.72
3764	0.7191
3773	0.7176
3782	0.7162
3791	0.7147
