Infrared Spectrum: 1-NAPHTHYLAMINE-7-SULFONIC ACID
Formula: C10 H9 N O3 S
CAS: 119-28-8
State: SOLID (0.75% IN KBr PELLET)
Class: COBLENTZ
Instrument: Not specified, most likely a prism, grating, or hybrid spectrometer.
Sampling: TRANSMISSION
Path length: 0.0355 CM
Resolution: 4
Origin: ANDERSON PHYSICAL LABORATORY
1/CM	TRANSMITTANCE
667.91	0.441
676.306	0.412
684.701	0.1482
693.097	0.0699
701.492	0.2489
709.888	0.3809
718.283	0.5449
726.679	0.543
735.074	0.507
743.47	0.18
751.865	0.379
760.261	0.496
768.657	0.575
777.052	0.659
785.448	0.648
793.843	0.5749
802.239	0.675
810.634	0.702
819.03	0.698
827.425	0.573
835.821	0.1
844.216	0.5359
852.612	0.648
861.008	0.6829
869.403	0.767
877.799	0.707
886.194	0.714
894.59	0.539
902.985	0.689
911.381	0.809
919.776	0.813
928.172	0.815
936.567	0.815
944.963	0.813
953.358	0.804
961.754	0.791
970.15	0.773
978.545	0.779
986.941	0.777
995.336	0.765
1003.73	0.737
1012.13	0.711
1020.52	0.641
1028.92	0.4601
1037.31	0.451
1045.71	0.3571
1054.11	0.061
1062.5	0.2649
1070.9	0.533
1079.29	0.465
1087.69	0.294
1096.08	0.5448
1104.48	0.5881
1112.87	0.481
1121.27	0.3121
1129.66	0.135
1138.06	0.177
1146.46	0.391
1154.85	0.369
1163.25	0.324
1171.64	0.174
1180.04	0.036
1188.43	0.042
1196.83	0.031
1205.22	0.019
1213.62	0.058
1222.02	0.051
1230.41	0.034
1238.81	0.211
1247.2	0.361
1255.6	0.388
1263.99	0.536
1272.39	0.629
1280.78	0.701
1289.18	0.701
1297.58	0.599
1305.97	0.471
1314.37	0.698
1322.76	0.789
1331.16	0.813
1339.55	0.816
1347.95	0.801
1356.34	0.744
1364.74	0.744
1373.14	0.647
1381.53	0.385
1389.93	0.237
1398.32	0.426
1406.72	0.593
1415.11	0.749
1423.51	0.804
1431.9	0.828
1440.3	0.819
1448.7	0.794
1457.09	0.695
1465.49	0.662
1473.88	0.375
1482.28	0.693
1490.67	0.821
1499.07	0.81
1507.46	0.771
1515.86	0.63
1524.26	0.8
1532.65	0.824
1541.05	0.827
1549.44	0.818
1557.84	0.804
1566.23	0.749
1574.63	0.662
1583.02	0.4569
1591.42	0.4061
1599.82	0.463
1608.21	0.569
1616.61	0.489
1625	0.424
1633.4	0.441
1641.79	0.417
1650.19	0.342
1658.58	0.4361
1666.98	0.599
1675.38	0.7101
1683.77	0.797
1692.17	0.834
1700.56	0.837
1708.96	0.852
1717.35	0.873
1725.75	0.882
1734.14	0.873
1742.54	0.867
1750.94	0.876
1759.33	0.887
1767.73	0.882
1776.12	0.879
1784.52	0.879
1792.91	0.882
1801.31	0.894
1809.7	0.896
1818.1	0.891
1826.5	0.879
1834.89	0.882
1843.29	0.888
1851.68	0.897
1860.08	0.897
1868.47	0.897
1876.87	0.902
1885.26	0.9
1893.66	0.893
1902.05	0.894
1910.45	0.887
1918.85	0.869
1927.24	0.834
1935.64	0.846
1944.03	0.876
1952.43	0.884
1960.82	0.885
1969.22	0.882
1977.61	0.881
1986.01	0.878
1994.41	0.878
2002.8	0.8765
2011.2	0.873
2019.59	0.8712
2027.99	0.867
2036.38	0.866
2044.78	0.864
2053.17	0.8625
2061.57	0.8594
2069.97	0.858
2078.36	0.857
2086.76	0.855
2095.15	0.854
2103.55	0.854
2111.94	0.855
2120.34	0.8573
2128.73	0.858
2137.13	0.8596
2145.53	0.86
2153.92	0.86
2162.32	0.86
2170.71	0.86
2179.11	0.86
2187.5	0.861
2195.9	0.863
2204.29	0.8602
2212.69	0.8568
2221.09	0.855
2229.48	0.854
2237.88	0.854
2246.27	0.852
2254.67	0.852
2263.06	0.852
2271.46	0.852
2279.85	0.8541
2288.25	0.855
2296.65	0.857
2305.04	0.857
2313.44	0.8571
2321.83	0.858
2330.23	0.858
2338.62	0.858
2347.02	0.8605
2355.41	0.864
2363.81	0.866
2372.21	0.866
2380.6	0.866
2389	0.8636
2397.39	0.8616
2405.79	0.8601
2414.18	0.86
2422.58	0.86
2430.97	0.8586
2439.37	0.858
2447.77	0.8578
2456.16	0.855
2464.56	0.854
2472.95	0.852
2481.35	0.852
2489.74	0.852
2498.14	0.852
2506.53	0.851
2514.93	0.851
2523.33	0.851
2531.72	0.851
2540.12	0.851
2548.51	0.851
2556.91	0.849
2565.3	0.8482
2573.7	0.8449
2582.09	0.8397
2590.49	0.836
2598.89	0.834
2607.28	0.834
2615.68	0.834
2624.07	0.833
2632.47	0.833
2640.86	0.831
2649.26	0.83
2657.65	0.8289
2666.05	0.8254
2674.45	0.8238
2682.84	0.8217
2691.24	0.821
2699.63	0.821
2708.03	0.821
2716.42	0.8203
2724.82	0.8184
2733.21	0.818
2741.61	0.8147
2750	0.8113
2758.4	0.8078
2766.8	0.807
2775.19	0.809
2783.59	0.809
2791.98	0.809
2800.38	0.809
2808.77	0.8034
2817.17	0.7992
2825.56	0.797
2833.96	0.7952
2842.36	0.794
2850.75	0.792
2859.15	0.791
2867.54	0.791
2875.94	0.7906
2884.33	0.789
2892.73	0.789
2901.12	0.789
2909.52	0.7874
2917.92	0.7826
2926.31	0.7769
2934.71	0.7671
2943.1	0.7648
2951.5	0.764
2959.89	0.764
2968.29	0.764
2976.68	0.762
2985.08	0.76
2993.48	0.7508
3001.87	0.743
3010.27	0.7365
3018.66	0.73
3027.06	0.7109
3035.45	0.689
3043.85	0.684
3052.24	0.687
3060.64	0.6862
3069.04	0.6748
3077.43	0.6627
3085.83	0.6611
3094.22	0.6693
3102.62	0.6964
3111.01	0.708
3119.41	0.7074
3127.8	0.7024
3136.2	0.6988
3144.6	0.6934
3152.99	0.6861
3161.39	0.6747
3169.78	0.6625
3178.18	0.6514
3186.57	0.6397
3194.97	0.6305
3203.36	0.6264
3211.76	0.6106
3220.16	0.5958
3228.55	0.5663
3236.95	0.5389
3245.34	0.5095
3253.74	0.4714
3262.13	0.4465
3270.53	0.4329
3278.92	0.43
3287.32	0.443
3295.72	0.4554
3304.11	0.462
3312.51	0.462
3320.9	0.4574
3329.3	0.4485
3337.69	0.4311
3346.09	0.3997
3354.48	0.3652
3362.88	0.3254
3371.28	0.27
3379.67	0.261
3388.07	0.2748
3396.46	0.3143
3404.86	0.342
3413.25	0.3337
3421.65	0.3082
3430.04	0.2419
3438.44	0.2324
3446.84	0.2441
3455.23	0.267
3463.63	0.2879
3472.02	0.2955
3480.42	0.3024
3488.81	0.3135
3497.21	0.325
3505.6	0.3407
3514	0.357
3522.39	0.369
3530.79	0.373
3539.19	0.373
3547.58	0.373
3555.98	0.373
3564.37	0.373
3572.77	0.3714
3581.16	0.3674
3589.56	0.3632
3597.95	0.361
3606.35	0.361
3614.75	0.361
3623.14	0.3638
3631.54	0.3703
3639.93	0.379
3648.33	0.391
3656.72	0.4129
3665.12	0.4419
3673.51	0.4696
3681.91	0.4997
3690.31	0.5351
3698.7	0.5929
3707.1	0.6358
3715.49	0.6627
3723.89	0.6899
3732.28	0.7266
3740.68	0.7492
3749.07	0.7659
3757.47	0.7698
3765.87	0.7713
3774.26	0.773
3782.66	0.773
3791.05	0.7712
3799.45	0.7697
3807.84	0.765
3816.24	0.764
3824.63	0.762
3833.03	0.761
3841.43	0.7586
3849.82	0.755
3858.22	0.753
3866.61	0.7552
3875.01	0.7569
3883.4	0.758
3891.8	0.7561
3900.19	0.752
3908.59	0.7495
3916.99	0.749
3925.38	0.7471
3933.78	0.747
3942.17	0.7451
3950.57	0.7418
3958.96	0.74
3967.36	0.74
3975.75	0.74
