Infrared Spectrum: BENZAMIDE, N-ALLYL-, O-(CARBOXYMETHOXY)-
Formula: C12 H13 N O4
CAS: 119-45-9
State: SOLID (PELLET)
Class: COBLENTZ
Instrument: Not specified, most likely a prism, grating, or hybrid spectrometer.
Sampling: TRANSMISSION
Resolution: 4
Origin: TENNESSEE EASTMAN COMPANY, RESEARCH LABORATORIES
MICROMETERS	TRANSMITTANCE
1.987	0.137
2.02694	0.135
2.06687	0.135
2.10681	0.134
2.14675	0.134
2.18669	0.137
2.22662	0.139
2.26656	0.144
2.3065	0.147
2.34644	0.154
2.38637	0.164
2.42631	0.172
2.46625	0.185
2.50618	0.194
2.54612	0.204
2.58606	0.207
2.626	0.217
2.66593	0.227
2.70587	0.234
2.74581	0.234
2.78574	0.234
2.82568	0.234
2.86562	0.231
2.90556	0.229
2.94549	0.222
2.98543	0.165
3.02537	0.19
3.06531	0.249
3.10524	0.261
3.14518	0.264
3.18512	0.266
3.22505	0.261
3.26499	0.239
3.30493	0.239
3.34487	0.237
3.3848	0.221
3.42474	0.201
3.46468	0.201
3.50461	0.209
3.54455	0.232
3.58449	0.256
3.62443	0.286
3.66436	0.288
3.7043	0.289
3.74424	0.329
3.78418	0.333
3.82411	0.341
3.86405	0.336
3.90399	0.365
3.94392	0.378
3.98386	0.34
4.0238	0.353
4.06374	0.396
4.10367	0.43
4.14361	0.462
4.18355	0.474
4.22349	0.5
4.26342	0.502
4.30336	0.502
4.3433	0.539
4.38323	0.572
4.42317	0.581
4.46311	0.592
4.50305	0.611
4.54298	0.616
4.58292	0.623
4.62286	0.633
4.66279	0.633
4.70273	0.638
4.74267	0.646
4.78261	0.651
4.82254	0.656
4.86248	0.664
4.90242	0.67
4.94236	0.671
4.98229	0.671
5.02223	0.678
5.06217	0.676
5.1021	0.676
5.14204	0.676
5.18198	0.678
5.22192	0.678
5.26185	0.683
5.30179	0.683
5.34173	0.683
5.38166	0.676
5.4216	0.675
5.46154	0.666
5.50148	0.649
5.54141	0.648
5.58135	0.639
5.62129	0.564
5.66123	0.185
5.70116	0.229
5.7411	0.487
5.78104	0.53
5.82097	0.597
5.86091	0.644
5.90085	0.666
5.94079	0.661
5.98072	0.631
6.02066	0.597
6.0606	0.507
6.10053	0.368
6.14047	0.328
6.18041	0.105
6.22035	0.028
6.26028	0.13
6.30022	0.442
6.34016	0.276
6.3801	0.182
6.42003	0.118
6.45997	0.314
6.49991	0.495
6.53984	0.557
6.57978	0.596
6.61972	0.597
6.65966	0.435
6.69959	0.249
6.73953	0.534
6.77947	0.69
6.81941	0.68
6.85934	0.592
6.89928	0.649
6.93922	0.313
6.97915	0.465
7.01909	0.529
7.05903	0.561
7.09897	0.654
7.1389	0.7
7.17884	0.73
7.21878	0.738
7.25871	0.735
7.29865	0.72
7.33859	0.681
7.37853	0.552
7.41846	0.651
7.4584	0.603
7.49834	0.666
7.53828	0.654
7.57821	0.53
7.61815	0.201
7.65809	0.422
7.69802	0.529
7.73796	0.505
7.7779	0.519
7.81784	0.631
7.85777	0.591
7.89771	0.422
7.93765	0.288
7.97758	0.246
8.01752	0.422
8.05746	0.48
8.0974	0.393
8.13733	0.199
8.17727	0.075
8.21721	0.05
8.25715	0.144
8.29708	0.353
8.33702	0.492
8.37696	0.596
8.41689	0.683
8.45683	0.725
8.49677	0.752
8.53671	0.752
8.57664	0.601
8.61658	0.507
8.65652	0.723
8.69646	0.767
8.73639	0.81
8.77633	0.81
8.81627	0.75
8.8562	0.603
8.89614	0.361
8.93608	0.452
8.97602	0.621
9.01595	0.723
9.05589	0.745
9.09583	0.725
9.13576	0.737
9.1757	0.834
9.21564	0.881
9.25558	0.879
9.29551	0.681
9.33545	0.638
9.37539	0.787
9.41533	0.847
9.45526	0.876
9.4952	0.886
9.53514	0.877
9.57507	0.882
9.61501	0.896
9.65495	0.902
9.69489	0.886
9.73482	0.86
9.77476	0.891
9.8147	0.912
9.85463	0.919
9.89457	0.919
9.93451	0.892
9.97445	0.778
10.0144	0.666
10.0543	0.753
10.0943	0.82
10.1342	0.85
10.1741	0.837
10.2141	0.839
10.254	0.86
10.2939	0.854
10.3339	0.815
10.3738	0.85
10.4138	0.877
10.4537	0.877
10.4936	0.876
10.5336	0.859
10.5735	0.834
10.6134	0.81
10.6534	0.767
10.6933	0.7
10.7333	0.631
10.7732	0.452
10.8131	0.341
10.8531	0.546
10.893	0.614
10.9329	0.67
10.9729	0.678
11.0128	0.73
11.0528	0.782
11.0927	0.804
11.1326	0.802
11.1726	0.805
11.2125	0.854
11.2524	0.871
11.2924	0.886
11.3323	0.899
11.3722	0.902
11.4122	0.907
11.4521	0.916
11.4921	0.919
11.532	0.894
11.5719	0.802
11.6119	0.676
11.6518	0.536
11.6917	0.641
11.7317	0.747
11.7716	0.81
11.8116	0.869
11.8515	0.912
11.8914	0.936
11.9314	0.946
11.9713	0.956
12.0112	0.966
12.0512	0.974
12.0911	0.978
12.1311	0.978
12.171	0.978
12.2109	0.978
12.2509	0.968
12.2908	0.958
12.3307	0.943
12.3707	0.943
12.4106	0.953
12.4506	0.964
12.4905	0.976
12.5304	0.976
12.5704	0.946
12.6103	0.844
12.6502	0.876
12.6902	0.953
12.7301	0.973
12.7701	0.974
12.81	0.976
12.8499	0.976
12.8899	0.958
12.9298	0.922
12.9697	0.857
13.0097	0.753
13.0496	0.415
13.0896	0.299
13.1295	0.361
13.1694	0.504
13.2094	0.624
13.2493	0.708
13.2892	0.762
13.3292	0.812
13.3691	0.845
13.409	0.872
13.449	0.876
13.4889	0.876
13.5289	0.876
13.5688	0.859
13.6087	0.83
13.6487	0.802
13.6886	0.767
13.7285	0.75
13.7685	0.737
13.8084	0.737
13.8484	0.752
13.8883	0.79
13.9282	0.822
13.9682	0.85
14.0081	0.867
14.048	0.879
14.088	0.886
14.1279	0.889
14.1679	0.887
14.2078	0.884
14.2477	0.867
14.2877	0.847
14.3276	0.822
14.3675	0.785
14.4075	0.716
14.4474	0.621
14.4874	0.544
14.5273	0.438
14.5672	0.395
14.6072	0.376
14.6471	0.388
14.687	0.428
14.727	0.484
14.7669	0.527
14.8069	0.581
14.8468	0.626
14.8867	0.659
14.9267	0.666
14.9666	0.668
15.0065	0.691
15.0465	0.725
15.0864	0.735
15.1263	0.735
15.1663	0.73
15.2062	0.723
15.2462	0.715
15.2861	0.698
15.326	0.68
15.366	0.663
15.4059	0.658
15.4458	0.654
15.4858	0.654
15.5257	0.654
15.5657	0.654
15.6056	0.654
15.6455	0.654
15.6855	0.654
15.7254	0.651
15.7653	0.646
15.8053	0.646
15.8452	0.639
15.8852	0.631
15.9251	0.618
15.965	0.613
