Infrared Spectrum: p-(2,4-DINITROANILINO)-PHENOL
Formula: C12 H9 N3 O5
CAS: 119-15-3
State: SOLID (MINERAL OIL MULL)
Melting point: 194-196 C
Class: COBLENTZ
Instrument: Not specified, most likely a prism, grating, or hybrid spectrometer.
Sampling: TRANSMISSION
Resolution: 4
Origin: WYANDOTTE CHEMICALS CORP., WYANDOTTE, MICHIGAN, USA
MICROMETERS	TRANSMITTANCE
2.019	0.217
2.05617	0.224
2.09334	0.219
2.1305	0.213
2.16767	0.231
2.20484	0.236
2.24201	0.234
2.27918	0.247
2.31634	0.248
2.35351	0.242
2.39068	0.25
2.42785	0.262
2.46502	0.264
2.50219	0.27
2.53935	0.27
2.57652	0.281
2.61369	0.276
2.65086	0.284
2.68803	0.29
2.72519	0.299
2.76236	0.302
2.79953	0.298
2.8367	0.299
2.87387	0.281
2.91103	0.248
2.9482	0.18
2.98537	0.102
3.02254	0.095
3.05971	0.168
3.09687	0.205
3.13404	0.214
3.17121	0.227
3.20838	0.202
3.24555	0.21
3.28272	0.211
3.31988	0.173
3.35705	0.037
3.39422	0.02
3.43139	0.038
3.46856	0.046
3.50572	0.057
3.54289	0.23
3.58006	0.289
3.61723	0.306
3.6544	0.312
3.69156	0.321
3.72873	0.33
3.7659	0.319
3.80307	0.338
3.84024	0.338
3.8774	0.346
3.91457	0.35
3.95174	0.349
3.98891	0.372
4.02608	0.381
4.06325	0.375
4.10041	0.367
4.13758	0.38
4.17475	0.369
4.21192	0.391
4.24909	0.375
4.28625	0.386
4.32342	0.411
4.36059	0.44
4.39776	0.437
4.43493	0.432
4.47209	0.438
4.50926	0.446
4.54643	0.448
4.5836	0.459
4.62077	0.455
4.65794	0.468
4.6951	0.472
4.73227	0.489
4.76944	0.499
4.80661	0.508
4.84378	0.497
4.88094	0.505
4.91811	0.503
4.95528	0.522
4.99245	0.528
5.02962	0.545
5.06678	0.54
5.10395	0.553
5.14112	0.562
5.17829	0.548
5.21546	0.564
5.25262	0.578
5.28979	0.587
5.32696	0.601
5.36413	0.596
5.4013	0.622
5.43847	0.622
5.47563	0.649
5.5128	0.649
5.54997	0.667
5.58714	0.678
5.62431	0.69
5.66147	0.698
5.69864	0.74
5.73581	0.741
5.77298	0.799
5.81015	0.819
5.84731	0.859
5.88448	0.91
5.92165	0.918
5.95882	0.918
5.99599	0.863
6.03315	0.698
6.07032	0.483
6.10749	0.18
6.14466	0.061
6.18183	0.078
6.219	0.098
6.25616	0.06
6.29333	0.125
6.3305	0.295
6.36767	0.364
6.40484	0.502
6.442	0.463
6.47917	0.395
6.51634	0.247
6.55351	0.086
6.59068	0.041
6.62784	0.089
6.66501	0.071
6.70218	0.08
6.73935	0.122
6.77652	0.109
6.81368	0.097
6.85085	0.114
6.88802	0.171
6.92519	0.19
6.96236	0.156
6.99953	0.122
7.03669	0.128
7.07386	0.23
7.11103	0.327
7.1482	0.414
7.18537	0.448
7.22253	0.289
7.2597	0.17
7.29687	0.149
7.33404	0.242
7.37121	0.224
7.40837	0.14
7.44554	0.086
7.48271	0.035
7.51988	0.072
7.55705	0.077
7.59421	0.032
7.63138	0.032
7.66855	0.043
7.70572	0.044
7.74289	0.049
7.78006	0.06
7.81722	0.055
7.85439	0.03
7.89156	0.04
7.92873	0.044
7.9659	0.08
8.00306	0.103
8.04023	0.119
8.0774	0.081
8.11457	0.078
8.15174	0.117
8.1889	0.094
8.22607	0.058
8.26324	0.049
8.30041	0.074
8.33758	0.1
8.37474	0.122
8.41191	0.156
8.44908	0.194
8.48625	0.219
8.52342	0.17
8.56059	0.102
8.59775	0.2
8.63492	0.183
8.67209	0.109
8.70926	0.115
8.74643	0.154
8.78359	0.168
8.82076	0.122
8.85793	0.089
8.8951	0.094
8.93227	0.123
8.96943	0.16
9.0066	0.153
9.04377	0.151
9.08094	0.194
9.11811	0.217
9.15528	0.23
9.19244	0.242
9.22961	0.256
9.26678	0.262
9.30395	0.258
9.34112	0.202
9.37828	0.115
9.41545	0.17
9.45262	0.231
9.48979	0.253
9.52696	0.273
9.56412	0.298
9.60129	0.307
9.63846	0.315
9.67563	0.326
9.7128	0.332
9.74996	0.335
9.78713	0.338
9.8243	0.344
9.86147	0.343
9.89864	0.315
9.93581	0.336
9.97297	0.35
10.0101	0.367
10.0473	0.37
10.0845	0.387
10.1216	0.389
10.1588	0.386
10.196	0.374
10.2331	0.349
10.2703	0.378
10.3075	0.377
10.3447	0.389
10.3818	0.383
10.419	0.398
10.4562	0.395
10.4933	0.406
10.5305	0.408
10.5677	0.409
10.6048	0.414
10.642	0.418
10.6792	0.381
10.7163	0.327
10.7535	0.216
10.7907	0.217
10.8278	0.312
10.865	0.349
10.9022	0.295
10.9393	0.194
10.9765	0.318
11.0137	0.394
11.0508	0.428
11.088	0.434
11.1252	0.443
11.1624	0.44
11.1995	0.446
11.2367	0.445
11.2739	0.448
11.311	0.446
11.3482	0.44
11.3854	0.434
11.4225	0.429
11.4597	0.421
11.4969	0.429
11.534	0.437
11.5712	0.431
11.6084	0.415
11.6455	0.398
11.6827	0.357
11.7199	0.287
11.757	0.183
11.7942	0.137
11.8314	0.228
11.8685	0.329
11.9057	0.381
11.9429	0.398
11.9801	0.313
12.0172	0.224
12.0544	0.18
12.0916	0.1
12.1287	0.097
12.1659	0.185
12.2031	0.281
12.2402	0.31
12.2774	0.372
12.3146	0.451
12.3517	0.48
12.3889	0.508
12.4261	0.511
12.4632	0.517
12.5004	0.519
12.5376	0.506
12.5747	0.469
12.6119	0.384
12.6491	0.268
12.6862	0.255
12.7234	0.398
12.7606	0.483
12.7977	0.528
12.8349	0.537
12.8721	0.537
12.9093	0.544
12.9464	0.542
12.9836	0.531
13.0208	0.527
13.0579	0.502
13.0951	0.483
13.1323	0.502
13.1694	0.523
13.2066	0.519
13.2438	0.499
13.2809	0.477
13.3181	0.438
13.3553	0.361
13.3924	0.265
13.4296	0.151
13.4668	0.145
13.5039	0.278
13.5411	0.408
13.5783	0.491
13.6154	0.544
13.6526	0.554
13.6898	0.562
13.727	0.516
13.7641	0.432
13.8013	0.364
13.8385	0.417
13.8756	0.476
13.9128	0.525
13.95	0.551
13.9871	0.574
14.0243	0.584
14.0615	0.602
14.0986	0.596
14.1358	0.61
14.173	0.616
14.2101	0.621
14.2473	0.607
14.2845	0.556
14.3216	0.494
14.3588	0.438
14.396	0.448
14.4331	0.476
14.4703	0.491
14.5075	0.497
14.5446	0.491
14.5818	0.485
14.619	0.474
14.6562	0.482
14.6933	0.477
14.7305	0.489
14.7677	0.491
14.8048	0.497
14.842	0.483
14.8792	0.496
14.9163	0.486
14.9535	0.476
14.9907	0.452
15.0278	0.414
15.065	0.352
15.1022	0.309
15.1393	0.278
15.1765	0.279
15.2137	0.307
15.2508	0.326
15.288	0.366
15.3252	0.386
15.3623	0.409
15.3995	0.425
15.4367	0.415
15.4739	0.42
15.511	0.409
15.5482	0.401
15.5854	0.389
15.6225	0.394
15.6597	0.394
15.6969	0.377
15.734	0.347
15.7712	0.335
15.8084	0.327
15.8455	0.316
15.8827	0.315
15.9199	0.306
15.957	0.301
15.9942	0.292
