Infrared Spectrum: N-Octyl-N-decyl phthalate
Formula: C 26 H 42 O 4
CAS: 119-07-3
State: gas
Origin: EPA-IR VAPOR PHASE LIBRARY
1/CM	ABSORBANCE
549.8	0.000587722
559.445	0.000486622
569.09	0.000773322
578.734	0.000590422
588.379	0.000364122
598.024	0.000173922
607.669	0.000136022
617.313	3.9682e-05
626.958	7.1752e-05
636.603	9.9622e-05
646.248	0.00114072
655.893	0.00122072
665.537	0.000759422
675.182	0.000980022
684.827	0.00185072
694.472	0.00440072
704.116	0.00513072
713.761	0.00535072
723.406	0.00686072
733.051	0.00948072
742.695	0.0118107
752.34	0.00809072
761.985	0.00524072
771.63	0.00432072
781.275	0.00407072
790.919	0.00321072
800.564	0.00246072
810.209	0.00206072
819.854	0.00206072
829.498	0.00205072
839.143	0.00198072
848.788	0.00183072
858.433	0.00210072
868.078	0.00203072
877.722	0.00208072
887.367	0.00208072
897.012	0.00199072
906.657	0.00197072
916.301	0.00203072
925.946	0.00232072
935.591	0.00271072
945.236	0.00381072
954.88	0.00513072
964.525	0.00504072
974.17	0.00456072
983.815	0.00353072
993.46	0.00318072
1003.1	0.00293072
1012.75	0.00319072
1022.39	0.00427072
1032.04	0.00771072
1041.68	0.0136907
1051.33	0.0128107
1060.97	0.0231607
1070.62	0.0339007
1080.26	0.0203607
1089.91	0.0118907
1099.55	0.0136007
1109.2	0.0277207
1118.84	0.0536207
1128.49	0.0499107
1138.13	0.0337307
1147.78	0.0136007
1157.42	0.00722072
1167.07	0.00557072
1176.71	0.00461072
1186.36	0.00450072
1196	0.00492072
1205.64	0.00552072
1215.29	0.00756072
1224.93	0.0113307
1234.58	0.0204807
1244.22	0.0372907
1253.87	0.0572207
1263.51	0.0799807
1273.16	0.0882107
1282.8	0.0786007
1292.45	0.0518607
1302.09	0.0270507
1311.74	0.0157607
1321.38	0.0109607
1331.03	0.00832072
1340.67	0.00651072
1350.32	0.00600072
1359.96	0.00558072
1369.61	0.00525072
1379.25	0.00674072
1388.9	0.00700072
1398.54	0.00417072
1408.18	0.00311072
1417.83	0.00300072
1427.47	0.00358072
1437.12	0.00566072
1446.76	0.00887072
1456.41	0.0109607
1466.05	0.0117107
1475.7	0.00834072
1485.34	0.00532072
1494.99	0.00341072
1504.63	0.00237072
1514.28	0.00197072
1523.92	0.00179072
1533.57	0.00159072
1543.21	0.00150072
1552.86	0.00144072
1562.5	0.00178072
1572.15	0.00285072
1581.79	0.00351072
1591.44	0.00251072
1601.08	0.00314072
1610.73	0.00196072
1620.37	0.00162072
1630.01	0.00150072
1639.66	0.00151072
1649.3	0.00150072
1658.95	0.00169072
1668.59	0.00208072
1678.24	0.00244072
1687.88	0.00314072
1697.53	0.00465072
1707.17	0.00686072
1716.82	0.0113307
1726.46	0.0229407
1736.11	0.0549007
1745.75	0.0882107
1755.4	0.0462807
1765.04	0.0184707
1774.69	0.00898072
1784.33	0.00525072
1793.98	0.00346072
1803.62	0.00258072
1813.27	0.00204072
1822.91	0.00183072
1832.55	0.00171072
1842.2	0.00133072
1851.84	0.00117072
1861.49	0.00116072
1871.13	0.000927722
1880.78	0.000754322
1890.42	0.000751922
1900.07	0.000786622
1909.71	0.000842022
1919.36	0.000808822
1929	0.00109072
1938.65	0.00112072
1948.29	0.000785222
1957.94	0.000943922
1967.58	0.000864122
1977.23	0.000655122
1986.87	0.000563722
1996.52	0.000563122
2006.16	0.000558522
2015.81	0.000602322
2025.45	0.000602122
2035.1	0.000571222
2044.74	0.000543122
2054.38	0.000598322
2064.03	0.000614622
2073.67	0.000725322
2083.32	0.000718622
2092.96	0.000698222
2102.61	0.000650622
2112.25	0.000625822
2121.9	0.000602022
2131.54	0.000575122
2141.19	0.000569822
2150.83	0.000538022
2160.48	0.000491722
2170.12	0.000444922
2179.77	0.000516222
2189.41	0.000538122
2199.06	0.000445422
2208.7	0.000551522
2218.35	0.000469722
2227.99	0.000497522
2237.64	0.000515822
2247.28	0.000476822
2256.92	0.000487322
2266.57	0.000444522
2276.21	0.000405922
2285.86	0.000492322
2295.5	0.000456122
2305.15	0.000494622
2314.79	0.000547822
2324.44	0.000689622
2334.08	0.000644922
2343.73	0.000546322
2353.37	0.000486422
2363.02	0.000570022
2372.66	0.000546722
2382.31	0.000499522
2391.95	0.000513022
2401.6	0.000514322
2411.24	0.000540722
2420.89	0.000468522
2430.53	0.000409822
2440.18	0.000388922
2449.82	0.000398822
2459.47	0.000368622
2469.11	0.000370622
2478.75	0.000306822
2488.4	0.000415522
2498.04	0.000390222
2507.69	0.000389522
2517.33	0.000513422
2526.98	0.000562022
2536.62	0.000584722
2546.27	0.000602222
2555.91	0.000571022
2565.56	0.000622822
2575.2	0.000549422
2584.85	0.000648022
2594.49	0.000642222
2604.14	0.000688022
2613.78	0.000720822
2623.43	0.000771722
2633.07	0.000790322
2642.72	0.000846322
2652.36	0.000988822
2662.01	0.000990822
2671.65	0.00109072
2681.29	0.00107072
2690.94	0.00112072
2700.58	0.00118072
2710.23	0.00111072
2719.87	0.00109072
2729.52	0.00123072
2739.16	0.00137072
2748.81	0.00154072
2758.45	0.00152072
2768.1	0.00155072
2777.74	0.00177072
2787.39	0.00204072
2797.03	0.00247072
2806.68	0.00295072
2816.32	0.00373072
2825.97	0.00487072
2835.61	0.00700072
2845.26	0.0114907
2854.9	0.0234707
2864.55	0.0351207
2874.19	0.0288007
2883.84	0.0245707
2893.48	0.0230307
2903.12	0.0289507
2912.77	0.0415407
2922.41	0.0632607
2932.06	0.0899207
2941.7	0.0771307
2951.35	0.0531207
2960.99	0.0485607
2970.64	0.0419307
2980.28	0.0229207
2989.93	0.0134207
2999.57	0.00804072
3009.22	0.00544072
3018.86	0.00405072
3028.51	0.00351072
3038.15	0.00326072
3047.8	0.00273072
3057.44	0.00285072
3067.09	0.00397072
3076.73	0.00622072
3086.38	0.00349072
3096.02	0.00184072
3105.67	0.00149072
3115.31	0.00114072
3124.95	0.00100072
3134.6	0.000875222
3144.24	0.000922122
3153.89	0.000813022
3163.53	0.000759122
3173.18	0.000769122
3182.82	0.000674922
3192.47	0.000567122
3202.11	0.000526522
3211.76	0.000471122
3221.4	0.000392122
3231.05	0.000423122
3240.69	0.000327522
3250.34	0.000425622
3259.98	0.000434722
3269.63	0.000248822
3279.27	0.000296522
3288.92	0.000290222
3298.56	0.000262222
3308.21	0.000391822
3317.85	0.000389622
3327.49	0.000276522
3337.14	0.000414422
3346.78	0.000253122
3356.43	0.000322622
3366.07	0.000344722
3375.72	0.000308122
3385.36	0.000284622
3395.01	0.000218322
3404.65	0.000242622
3414.3	0.000417122
3423.94	0.000330422
3433.59	0.000338722
3443.23	0.000479222
3452.88	0.000642222
3462.52	0.000880622
3472.17	0.000954822
3481.81	0.000941422
3491.46	0.000528822
3501.1	0.000685022
3510.75	0.000435522
3520.39	0.000381222
3530.04	0.000214122
3539.68	0.000242022
3549.32	0.000260322
3558.97	0.000238722
3568.61	0.000304722
3578.26	0.000117622
3587.9	0.000282322
3597.55	0.000241922
3607.19	0.000220322
3616.84	0.000272922
3626.48	0.000216922
3636.13	0.000236022
3645.77	0.000242622
3655.42	0.000274822
3665.06	0.000384622
3674.71	0.000212622
3684.35	0.000316222
3694	0.000323422
3703.64	0.000364822
3713.29	0.000328522
3722.93	0.000300122
3732.58	0.000513322
3742.22	0.000253222
3751.86	0.000288622
3761.51	0.000353422
3771.15	0.000377522
3780.8	0.000503422
3790.44	0.000313622
3800.09	0.000370422
3809.73	0.000421322
3819.38	0.000321522
3829.02	0.000339722
3838.67	0.000342222
3848.31	0.000365622
3857.96	0.000305422
3867.6	0.000352122
3877.25	0.000396222
3886.89	0.000451622
3896.54	0.000394022
3906.18	0.000379622
3915.83	0.000265022
3925.47	0.000496922
3935.12	0.000341822
3944.76	0.000366522
3954.41	0.000434422
3964.05	0.000557422
3973.69	0.000360522
3983.34	0.000421922
3992.98	0.000428322
