Infrared Spectrum: BENZOIN
Formula: C14 H12 O2
CAS: 119-53-9
State: SOLID (SPLIT MULL)
Class: COBLENTZ III
Instrument: DOW KBr FOREPRISM-GRATING
Instrument parameters: BLAZED AT 3.5, 12.0, 20.0 MICRON AND CHANGED AT 5.0, 7.5, 14.9 MICRON
Sampling: TRANSMISSION
Resolution: 2
Origin: DOW CHEMICAL COMPANY
1/CM	TRANSMITTANCE
381	0.7919
389.929	0.7883
398.858	0.7907
407.787	0.7755
416.716	0.7577
425.645	0.7758
434.574	0.7821
443.503	0.7766
452.432	0.7689
461.361	0.755
470.29	0.7488
479.219	0.7298
488.148	0.7418
497.076	0.742
506.005	0.7126
514.934	0.3124
523.863	0.7448
532.792	0.7627
541.721	0.7626
550.65	0.7553
559.579	0.7456
568.508	0.7333
577.437	0.7143
586.366	0.6573
595.295	0.41
604.224	0.5055
613.153	0.5614
622.082	0.399
631.011	0.5023
639.94	0.6586
648.869	0.7105
657.798	0.7372
666.727	0.6913
675.656	0.4446
684.585	0.3174
693.514	0.4228
702.443	0.48
711.371	0.6344
720.3	0.6978
729.229	0.7481
738.158	0.7779
747.087	0.7696
756.016	0.0992
764.945	0.7684
773.874	0.8381
782.803	0.8547
791.732	0.8634
800.661	0.8598
809.59	0.8496
818.519	0.8198
827.448	0.6789
836.377	0.68
845.306	0.8489
854.235	0.6372
863.164	0.7917
872.093	0.872
881.022	0.872
889.951	0.8697
898.88	0.8684
907.809	0.8685
916.738	0.8175
925.666	0.5796
934.595	0.8388
943.524	0.8514
952.453	0.8379
961.382	0.8049
970.311	0.612
979.24	0.4501
988.169	0.7795
997.098	0.7892
1006.03	0.7168
1014.96	0.8054
1023.89	0.7725
1032.81	0.7649
1041.74	0.7968
1050.67	0.7822
1059.6	0.6596
1068.53	0.3183
1077.46	0.6964
1086.39	0.5404
1095.32	0.4143
1104.25	0.7113
1113.17	0.7436
1122.1	0.7617
1131.03	0.7707
1139.96	0.7623
1148.89	0.7442
1157.82	0.7187
1166.75	0.6843
1175.68	0.6235
1184.61	0.5668
1193.54	0.5731
1202.46	0.3379
1211.39	0.371
1220.32	0.6606
1229.25	0.6766
1238.18	0.6685
1247.11	0.618
1256.04	0.4737
1264.97	0.2957
1273.9	0.4435
1282.82	0.4711
1291.75	0.6184
1300.68	0.6455
1309.61	0.5079
1318.54	0.6029
1327.47	0.693
1336.4	0.5099
1345.33	0.5636
1354.26	0.7385
1363.19	0.7591
1372.11	0.7218
1381.04	0.6327
1389.97	0.5512
1398.9	0.6241
1407.83	0.7697
1416.76	0.7945
1425.69	0.8072
1434.62	0.8019
1443.55	0.7108
1452.48	0.3667
1461.4	0.832
1470.33	0.8417
1479.26	0.8231
1488.19	0.6702
1497.12	0.767
1506.05	0.8531
1514.98	0.859
1523.91	0.8555
1532.84	0.8486
1541.76	0.8397
1550.69	0.8294
1559.62	0.8135
1568.55	0.7792
1577.48	0.4764
1586.41	0.7492
1595.34	0.3917
1604.27	0.8307
1613.2	0.8202
1622.13	0.8021
1631.05	0.7827
1639.98	0.761
1648.91	0.6894
1657.84	0.6233
1666.77	0.5376
1675.7	0.0859
1684.63	0.3582
1693.56	0.8117
1702.49	0.8687
1711.41	0.8922
1720.34	0.8897
1729.27	0.8855
1738.2	0.8807
1747.13	0.8746
1756.06	0.8707
1764.99	0.8612
1773.92	0.8408
1782.85	0.8469
1791.78	0.8548
1800.7	0.8584
1809.63	0.8492
1818.56	0.8393
1827.49	0.8414
1836.42	0.8389
1845.35	0.8439
1854.28	0.8451
1863.21	0.846
1872.14	0.8467
1881.07	0.8447
1889.99	0.8354
1898.92	0.8165
1907.85	0.8176
1916.78	0.8225
1925.71	0.8255
1934.64	0.8297
1943.57	0.8339
1952.5	0.8401
1961.43	0.8105
1970.35	0.805
1979.28	0.7988
1988.21	0.8127
1997.14	0.8075
2006.07	0.8062
2015	0.8076
2023.93	0.8221
2032.86	0.8348
2041.79	0.8022
2050.72	0.7987
2059.64	0.795
2068.57	0.7928
2077.5	0.7909
2086.43	0.7892
2095.36	0.787
2104.29	0.7841
2113.22	0.7809
2122.15	0.7782
2131.08	0.7757
2140	0.7731
2148.93	0.77
2157.86	0.767
2166.79	0.7642
2175.72	0.7614
2184.65	0.7586
2193.58	0.7559
2202.51	0.7525
2211.44	0.7487
2220.37	0.7433
2229.29	0.7371
2238.22	0.732
2247.15	0.7272
2256.08	0.7234
2265.01	0.7196
2273.94	0.7166
2282.87	0.714
2291.8	0.7112
2300.73	0.7085
2309.66	0.7056
2318.58	0.7025
2327.51	0.6995
2336.44	0.6967
2345.37	0.6948
2354.3	0.6953
2363.23	0.696
2372.16	0.6967
2381.09	0.6974
2390.02	0.6971
2398.94	0.6969
2407.87	0.6967
2416.8	0.6964
2425.73	0.6947
2434.66	0.6925
2443.59	0.6908
2452.52	0.6895
2461.45	0.6903
2470.38	0.6908
2479.31	0.6903
2488.23	0.6899
2497.16	0.6888
2506.09	0.6873
2515.02	0.6858
2523.95	0.6844
2532.88	0.6831
2541.81	0.682
2550.74	0.6809
2559.67	0.6789
2568.59	0.677
2577.52	0.676
2586.45	0.6749
2595.38	0.6738
2604.31	0.6725
2613.24	0.6711
2622.17	0.6704
2631.1	0.6697
2640.03	0.6669
2648.96	0.665
2657.88	0.6637
2666.81	0.6623
2675.74	0.6625
2684.67	0.6618
2693.6	0.6606
2702.53	0.6582
2711.46	0.6552
2720.39	0.6517
2729.32	0.6497
2738.25	0.6481
2747.17	0.6465
2756.1	0.645
2765.03	0.6436
2773.96	0.6422
2782.89	0.6415
2791.82	0.6408
2800.75	0.641
2809.68	0.64
2818.61	0.6367
2827.53	0.6336
2836.46	0.631
2845.39	0.6282
2854.32	0.6242
2863.25	0.62
2872.18	0.6142
2881.11	0.6081
2890.04	0.6004
2898.97	0.5888
2907.9	0.5721
2916.82	0.5499
2925.75	0.522
2934.68	0.5098
2943.61	0.563
2952.54	0.5955
2961.47	0.5951
2970.4	0.5954
2979.33	0.599
2988.26	0.5938
2997.18	0.5888
3006.11	0.5762
3015.04	0.581
3023.97	0.5549
3032.9	0.5163
3041.83	0.5712
3050.76	0.559
3059.69	0.5181
3068.62	0.5336
3077.55	0.5645
3086.47	0.5365
3095.4	0.5737
3104.33	0.5797
3113.26	0.5788
3122.19	0.5766
3131.12	0.5753
3140.05	0.5739
3148.98	0.5713
3157.91	0.5671
3166.84	0.5637
3175.76	0.5586
3184.69	0.5526
3193.62	0.5464
3202.55	0.5398
3211.48	0.5332
3220.41	0.5262
3229.34	0.5159
3238.27	0.5064
3247.2	0.4966
3256.12	0.4859
3265.05	0.4751
3273.98	0.4638
3282.91	0.4524
3291.84	0.434
3300.77	0.4105
3309.7	0.3883
3318.63	0.3649
3327.56	0.3419
3336.49	0.3159
3345.41	0.2789
3354.34	0.239
3363.27	0.2035
3372.2	0.1594
3381.13	0.1302
3390.06	0.1607
3398.99	0.1661
3407.92	0.1156
3416.85	0.0826
3425.77	0.1078
3434.7	0.2734
3443.63	0.4375
3452.56	0.5195
3461.49	0.555
3470.42	0.5725
3479.35	0.5845
3488.28	0.5943
3497.21	0.5969
3506.14	0.5959
3515.06	0.5931
3523.99	0.5904
3532.92	0.5871
3541.85	0.5825
3550.78	0.5767
3559.71	0.5717
3568.64	0.5672
3577.57	0.5636
3586.5	0.5609
3595.43	0.5582
3604.35	0.555
3613.28	0.5516
3622.21	0.5482
3631.14	0.5448
3640.07	0.5415
3649	0.5383
3657.93	0.5355
3666.86	0.533
3675.79	0.5305
3684.71	0.5281
3693.64	0.5257
3702.57	0.5232
3711.5	0.5209
3720.43	0.5178
3729.36	0.5147
3738.29	0.5118
3747.22	0.5092
3756.15	0.5067
3765.08	0.5051
3774	0.5035
3782.93	0.5018
