Infrared Spectrum: 2,2'-Biquinoline
Formula: C 18 H 12 N 2
CAS: 119-91-5
State: gas
Instrument: HP-GC/MS/IRD
Origin: NIST Mass Spectrometry Data Center
1/CM	ABSORBANCE
550	0.0007917
562	0.0007254
574	0.0007215
586	0.0006591
598	0.0008164
610	0.0011115
622	0.0025129
634	0.0014066
646	0.0011024
658	0.0010569
670	0.0011557
682	0.0011193
694	0.0010894
706	0.0012051
718	0.0014131
730	0.003172
742	0.0092534
754	0.0044876
766	0.0026897
778	0.0026806
790	0.002808
802	0.0023283
814	0.0057629
826	0.013
838	0.0048568
850	0.0016939
862	0.0016887
874	0.0016952
886	0.0015314
898	0.001495
910	0.0014937
922	0.0015665
934	0.0027222
946	0.0030368
958	0.0019474
970	0.0018655
982	0.0016939
994	0.0015756
1006	0.0019123
1018	0.0019981
1030	0.0018265
1042	0.0030381
1054	0.0084201
1066	0.002652
1078	0.0015288
1090	0.0013741
1102	0.001144
1114	0.0012766
1126	0.0040677
1138	0.0027651
1150	0.0025493
1162	0.0004381
1174	0.0002184
1186	3.51e-05
1198	0.0003029
1210	0.0012454
1222	0.0002353
1234	0.0001235
1246	0.0002782
1258	0.0003458
1270	0.000416
1282	0.0007904
1294	0.0019201
1306	0.0015834
1318	0.0015379
1330	0.0014781
1342	0.0012571
1354	0.0009984
1366	0.0013767
1378	0.0015561
1390	0.0010569
1402	0.0017836
1414	0.00598
1426	0.0040898
1438	0.0016276
1450	0.0019149
1462	0.0015314
1474	0.0017992
1486	0.0041444
1498	0.0094328
1510	0.0023582
1522	0.0019201
1534	0.0025311
1546	0.0040092
1558	0.0052273
1570	0.002418
1582	0.0038415
1594	0.0100256
1606	0.0059137
1618	0.0058318
1630	0.0026741
1642	0.0010712
1654	0.0009347
1666	0.0008996
1678	0.0007683
1690	0.0009516
1702	0.000845
1714	0.0007085
1726	0.0005941
1738	0.000598
1750	0.0005733
1762	0.0006968
1774	0.0006058
1786	0.0005642
1798	0.0006981
1810	0.0007566
1822	0.0007462
1834	0.0006825
1846	0.0007436
1858	0.0003731
1870	0.0003549
1882	0.0004004
1894	0.0006591
1906	0.0005291
1918	0.0007189
1930	0.0006955
1942	0.000871
1954	0.0008879
1966	0.000364
1978	0.0002639
1990	0.0002314
2002	0.0002353
2014	0.0002353
2026	0.0001989
2038	0.0001924
2050	0.0001677
2062	0.0001495
2074	0.0001339
2086	0.0001443
2098	0.0001352
2110	0.0001183
2122	8.45e-05
2134	8.45e-05
2146	8.97e-05
2158	4.55e-05
2170	4.29e-05
2182	2.08e-05
2194	2.34e-05
2206	2.34e-05
2218	4.55e-05
2230	6.5e-05
2242	0.0001235
2254	0.0001118
2266	0.0001131
2278	0.0001352
2290	0.0001235
2302	8.58e-05
2314	5.59e-05
2326	3.77e-05
2338	6.89e-05
2350	8.45e-05
2362	6.37e-05
2374	0.0001092
2386	9.23e-05
2398	9.1e-05
2410	0.0001027
2422	9.49e-05
2434	7.93e-05
2446	0.0001209
2458	6.76e-05
2470	9.75e-05
2482	0.0001079
2494	0.0001027
2506	0.0001079
2518	0.000143
2530	0.0001365
2542	9.36e-05
2554	0.0001378
2566	0.0001365
2578	0.0001287
2590	0.0001196
2602	0.0001079
2614	9.88e-05
2626	0.0001352
2638	0.0001118
2650	0.0001677
2662	0.000156
2674	0.000156
2686	0.0001495
2698	0.000156
2710	0.0001417
2722	0.0001989
2734	0.0001469
2746	0.0001937
2758	0.0001586
2770	0.0002132
2782	0.0002314
2794	0.000234
2806	0.0002496
2818	0.0002223
2830	0.0002639
2842	0.0002847
2854	0.0002522
2866	0.0002509
2878	0.0002379
2890	0.0002795
2902	0.0003224
2914	0.0004004
2926	0.0003991
2938	0.0004784
2950	0.000403
2962	0.000442
2974	0.0004459
2986	0.0004641
2998	0.0007735
3010	0.0010946
3022	0.001209
3034	0.002236
3046	0.0043823
3058	0.0057694
3070	0.0071552
3082	0.004953
3094	0.0016809
3106	0.0008671
3118	0.0005213
3130	0.0003432
3142	0.0002795
3154	0.0002717
3166	0.0002561
3178	0.0002353
3190	0.0002678
3202	0.0001924
3214	0.0002535
3226	0.0001781
3238	0.000208
3250	0.000143
3262	0.0001378
3274	0.0001365
3286	0.0001742
3298	0.0001469
3310	0.0001352
3322	0.0001222
3334	0.0001157
3346	0.00013
3358	5.72e-05
3370	8.97e-05
3382	7.54e-05
3394	0.0001014
3406	8.58e-05
3418	9.49e-05
3430	0.0001066
3442	0.0001235
3454	9.75e-05
3466	5.98e-05
3478	7.02e-05
3490	4.16e-05
3502	5.72e-05
3514	2.6e-05
3526	1.43e-05
3538	2.6e-06
3550	6.76e-05
3562	6.76e-05
3574	4.68e-05
3586	2.99e-05
3598	2.34e-05
3610	8.71e-05
3622	0.0001456
3634	9.75e-05
3646	0.0001261
3658	0.0001365
3670	0.0001482
3682	0.0001027
3694	0.0001794
3706	0.0001183
3718	0.000143
3730	0.0001326
3742	0.0001599
3754	0.0001287
3766	0.0001183
3778	0.0001404
3790	0.000156
3802	0.0002691
3814	0.000195
3826	0.0001456
3838	0.0001794
