Infrared Spectrum: 1-NAPHTHYLAMINE-6-SULFONIC ACID
Formula: C10 H9 N O3 S
CAS: 119-79-9
State: SOLID (MINERAL OIL MULL)
Class: COBLENTZ
Instrument: Not specified, most likely a prism, grating, or hybrid spectrometer.
Sampling: TRANSMISSION
Resolution: 4
Origin: DOW CHEMICAL COMPANY
MICROMETERS	TRANSMITTANCE
2.033	0.628
2.07304	0.635
2.11308	0.64
2.15312	0.648
2.19316	0.655
2.2332	0.655
2.27324	0.655
2.31328	0.662
2.35332	0.677
2.39337	0.697
2.43341	0.703
2.47345	0.722
2.51349	0.737
2.55353	0.743
2.59357	0.753
2.63361	0.762
2.67365	0.77
2.71369	0.772
2.75373	0.752
2.79377	0.712
2.83381	0.67
2.87385	0.643
2.91389	0.638
2.95393	0.663
2.99397	0.69
3.03402	0.702
3.07406	0.69
3.1141	0.64
3.15414	0.592
3.19418	0.502
3.23422	0.454
3.27426	0.442
3.3143	0.407
3.35434	0.216
3.39438	0.041
3.43442	0.078
3.47446	0.104
3.5145	0.311
3.55454	0.455
3.59458	0.495
3.63462	0.525
3.67467	0.547
3.71471	0.564
3.75475	0.519
3.79479	0.469
3.83483	0.495
3.87487	0.549
3.91491	0.605
3.95495	0.643
3.99499	0.68
4.03503	0.712
4.07507	0.727
4.11511	0.747
4.15515	0.767
4.19519	0.773
4.23523	0.782
4.27527	0.787
4.31532	0.798
4.35536	0.805
4.3954	0.81
4.43544	0.813
4.47548	0.813
4.51552	0.825
4.55556	0.828
4.5956	0.83
4.63564	0.83
4.67568	0.831
4.71572	0.833
4.75576	0.833
4.7958	0.831
4.83584	0.83
4.87588	0.828
4.91592	0.833
4.95596	0.83
4.99601	0.83
5.03605	0.833
5.07609	0.846
5.11613	0.856
5.15617	0.861
5.19621	0.863
5.23625	0.868
5.27629	0.875
5.31633	0.881
5.35637	0.883
5.39641	0.89
5.43645	0.895
5.47649	0.893
5.51653	0.895
5.55657	0.898
5.59661	0.893
5.63666	0.891
5.6767	0.89
5.71674	0.878
5.75678	0.868
5.79682	0.861
5.83686	0.861
5.8769	0.861
5.91694	0.868
5.95698	0.863
5.99702	0.831
6.03706	0.785
6.0771	0.75
6.11714	0.76
6.15718	0.735
6.19722	0.705
6.23726	0.67
6.27731	0.7
6.31735	0.733
6.35739	0.757
6.39743	0.745
6.43747	0.712
6.47751	0.67
6.51755	0.594
6.55759	0.615
6.59763	0.657
6.63767	0.725
6.67771	0.778
6.71775	0.772
6.75779	0.645
6.79783	0.45
6.83787	0.422
6.87791	0.529
6.91796	0.6
6.958	0.775
6.99804	0.816
7.03808	0.848
7.07812	0.858
7.11816	0.856
7.1582	0.825
7.19824	0.732
7.23828	0.62
7.27832	0.69
7.31836	0.737
7.3584	0.703
7.39844	0.728
7.43848	0.818
7.47852	0.848
7.51856	0.863
7.55861	0.855
7.59865	0.856
7.63869	0.86
7.67873	0.858
7.71877	0.855
7.75881	0.823
7.79885	0.763
7.83889	0.745
7.87893	0.75
7.91897	0.722
7.95901	0.648
7.99905	0.57
8.03909	0.515
8.07913	0.462
8.11917	0.384
8.15921	0.284
8.19925	0.246
8.2393	0.269
8.27934	0.289
8.31938	0.301
8.35942	0.299
8.39946	0.244
8.4395	0.216
8.47954	0.194
8.51958	0.237
8.55962	0.269
8.59966	0.254
8.6397	0.286
8.67974	0.361
8.71978	0.419
8.75982	0.465
8.79986	0.524
8.8399	0.55
8.87995	0.534
8.91999	0.46
8.96003	0.414
9.00007	0.464
9.04011	0.504
9.08015	0.509
9.12019	0.5
9.16023	0.59
9.20027	0.668
9.24031	0.7
9.28035	0.66
9.32039	0.579
9.36043	0.622
9.40047	0.68
9.44051	0.708
9.48055	0.713
9.5206	0.713
9.56064	0.65
9.60068	0.495
9.64072	0.261
9.68076	0.244
9.7208	0.377
9.76084	0.535
9.80088	0.608
9.84092	0.647
9.88096	0.662
9.921	0.677
9.96104	0.7
10.0011	0.737
10.0411	0.768
10.0812	0.782
10.1212	0.8
10.1612	0.813
10.2013	0.825
10.2413	0.828
10.2814	0.828
10.3214	0.83
10.3614	0.83
10.4015	0.835
10.4415	0.84
10.4816	0.845
10.5216	0.851
10.5617	0.855
10.6017	0.858
10.6417	0.856
10.6818	0.845
10.7218	0.805
10.7619	0.752
10.8019	0.77
10.8419	0.82
10.882	0.83
10.922	0.833
10.9621	0.815
11.0021	0.768
11.0421	0.773
11.0822	0.8
11.1222	0.811
11.1623	0.821
11.2023	0.826
11.2423	0.831
11.2824	0.84
11.3224	0.851
11.3625	0.863
11.4025	0.866
11.4425	0.87
11.4826	0.87
11.5226	0.87
11.5627	0.868
11.6027	0.868
11.6427	0.87
11.6828	0.868
11.7228	0.866
11.7629	0.86
11.8029	0.858
11.843	0.856
11.883	0.853
11.923	0.841
11.9631	0.83
12.0031	0.815
12.0432	0.792
12.0832	0.763
12.1232	0.71
12.1633	0.637
12.2033	0.665
12.2434	0.725
12.2834	0.745
12.3234	0.757
12.3635	0.725
12.4035	0.62
12.4436	0.597
12.4836	0.675
12.5236	0.708
12.5637	0.708
12.6037	0.708
12.6438	0.705
12.6838	0.72
12.7238	0.747
12.7639	0.78
12.8039	0.8
12.844	0.818
12.884	0.826
12.924	0.826
12.9641	0.82
13.0041	0.82
13.0442	0.818
13.0842	0.803
13.1243	0.76
13.1643	0.678
13.2043	0.63
13.2444	0.653
13.2844	0.698
13.3245	0.71
13.3645	0.727
13.4045	0.745
13.4446	0.758
13.4846	0.767
13.5247	0.767
13.5647	0.767
13.6047	0.767
13.6448	0.762
13.6848	0.758
13.7249	0.747
13.7649	0.74
13.8049	0.733
13.845	0.72
13.885	0.708
13.9251	0.697
13.9651	0.69
14.0051	0.685
14.0452	0.685
14.0852	0.69
14.1253	0.697
14.1653	0.698
14.2053	0.697
14.2454	0.688
14.2854	0.68
14.3255	0.67
14.3655	0.66
14.4056	0.645
14.4456	0.632
14.4856	0.612
14.5257	0.587
14.5657	0.55
14.6058	0.5
14.6458	0.437
14.6858	0.356
14.7259	0.266
14.7659	0.206
14.806	0.174
14.846	0.168
14.886	0.178
14.9261	0.206
14.9661	0.272
15.0062	0.324
15.0462	0.372
15.0862	0.399
15.1263	0.415
15.1663	0.427
15.2064	0.432
15.2464	0.432
15.2864	0.43
15.3265	0.427
15.3665	0.424
15.4066	0.419
15.4466	0.409
15.4866	0.399
15.5267	0.386
15.5667	0.377
15.6068	0.374
15.6468	0.374
15.6869	0.371
15.7269	0.369
15.7669	0.369
15.807	0.367
15.847	0.366
15.8871	0.366
