Infrared Spectrum: Phthalic acid, ditridecyl ester
Formula: C34 H58 O4
CAS: 119-06-2
State: SOLUTION (10% CCl4 FOR 2.7-7.5, 10% CS2 FOR 7.5-26 MICRON) VS SOLVENT
Class: COBLENTZ III
Instrument: DOW KBr FOREPRISM-GRATING
Instrument parameters: BLAZED AT 3.5, 12.0, 20.0 MICRON AND CHANGED AT 5.0, 7.5, 14.9 MICRON
Sampling: TRANSMISSION
Path length: 0.011 CM, 0.011 CM
Resolution: 2
Origin: DOW CHEMICAL COMPANY
1/CM	TRANSMITTANCE
3792	0.851
3783	0.8516
3774	0.8523
3765	0.8527
3756	0.8532
3747	0.8536
3738	0.8542
3729	0.8548
3720	0.8554
3711	0.8555
3702	0.8554
3693	0.8553
3684	0.8544
3675	0.8532
3666	0.8525
3657	0.8521
3648	0.8521
3639	0.8542
3630	0.8588
3621	0.8602
3612	0.8603
3603	0.8607
3594	0.8609
3585	0.8616
3576	0.8664
3567	0.8709
3558	0.8723
3549	0.8733
3540	0.874
3531	0.8743
3522	0.8748
3513	0.875
3504	0.8748
3495	0.8746
3486	0.8744
3477	0.8741
3468	0.8732
3459	0.8699
3450	0.8652
3441	0.861
3432	0.8583
3423	0.8601
3414	0.8678
3405	0.8737
3396	0.8781
3387	0.8797
3378	0.8813
3369	0.8825
3360	0.8835
3351	0.8845
3342	0.8855
3333	0.8865
3324	0.8875
3315	0.8885
3306	0.8894
3297	0.8901
3288	0.8908
3279	0.8915
3270	0.8921
3261	0.8928
3252	0.8925
3243	0.8916
3234	0.8897
3225	0.8871
3216	0.8842
3207	0.8813
3198	0.8781
3189	0.8754
3180	0.8728
3171	0.8721
3162	0.8717
3153	0.8718
3144	0.8721
3135	0.8725
3126	0.8725
3117	0.871
3108	0.8684
3099	0.8651
3090	0.8611
3081	0.848
3072	0.7975
3063	0.7978
3054	0.8051
3045	0.8143
3036	0.8171
3027	0.8092
3018	0.7964
3009	0.7476
3000	0.6682
2991	0.5035
2982	0.3389
2973	0.1502
2964	0.0167
2955	0.0116
2946	0.0423
2937	0.0574
2928	0.04
2919	0.0395
2910	0.0648
2901	0.1122
2892	0.1698
2883	0.2202
2874	0.1388
2865	0.1446
2856	0.1954
2847	0.3121
2838	0.5617
2829	0.6507
2820	0.7061
2811	0.749
2802	0.7747
2793	0.7924
2784	0.8051
2775	0.8155
2766	0.8212
2757	0.8233
2748	0.8238
2739	0.8206
2730	0.818
2721	0.8165
2712	0.8193
2703	0.8247
2694	0.8278
2685	0.8302
2676	0.8324
2667	0.8347
2658	0.8374
2649	0.8408
2640	0.8418
2631	0.8418
2622	0.8416
2613	0.8414
2604	0.8412
2595	0.8417
2586	0.8425
2577	0.8443
2568	0.8477
2559	0.8511
2550	0.8549
2541	0.8584
2532	0.8616
2523	0.8648
2514	0.8668
2505	0.8682
2496	0.8692
2487	0.8701
2478	0.871
2469	0.8707
2460	0.8703
2451	0.8698
2442	0.8686
2433	0.8673
2424	0.8662
2415	0.8654
2406	0.8647
2397	0.8641
2388	0.864
2379	0.8637
2370	0.8635
2361	0.8632
2352	0.8628
2343	0.8625
2334	0.8628
2325	0.863
2316	0.8633
2307	0.8636
2298	0.8645
2289	0.8653
2280	0.8661
2271	0.8668
2262	0.868
2253	0.869
2244	0.8701
2235	0.8712
2226	0.8723
2217	0.8736
2208	0.8757
2199	0.8768
2190	0.8821
2181	0.8918
2172	0.8807
2163	0.8778
2154	0.8751
2145	0.8744
2136	0.8739
2127	0.8738
2118	0.8737
2109	0.8736
2100	0.8735
2091	0.8738
2082	0.8744
2073	0.8748
2064	0.8756
2055	0.8764
2046	0.8774
2037	0.8785
2028	0.8795
2019	0.8798
2010	0.88
2001	0.8797
1992	0.8734
1983	0.8774
1974	0.8761
1965	0.8702
1956	0.874
1947	0.8721
1938	0.8602
1929	0.8658
1920	0.87
1911	0.8711
1902	0.8723
1893	0.8728
1884	0.8718
1875	0.8697
1866	0.8681
1857	0.8686
1848	0.8681
1839	0.8585
1830	0.8506
1821	0.8514
1812	0.8513
1803	0.8491
1794	0.844
1785	0.8306
1776	0.8042
1767	0.7631
1758	0.6825
1749	0.4431
1740	0.137
1731	0.0126
1722	0.0059
1713	0.2238
1704	0.5334
1695	0.6599
1686	0.7145
1677	0.7721
1668	0.8094
1659	0.83
1650	0.8446
1641	0.8521
1632	0.8542
1623	0.8525
1614	0.8454
1605	0.7615
1596	0.7851
1587	0.7775
1578	0.7232
1569	0.8305
1560	0.8478
1551	0.8524
1542	0.8548
1533	0.8463
1524	0.8413
1515	0.8103
1506	0.8014
1497	0.7831
1488	0.6633
1479	0.4995
1470	0.2378
1461	0.2546
1452	0.3926
1443	0.6036
1434	0.7061
1425	0.7689
1416	0.7741
1407	0.7675
1398	0.634
1389	0.3722
1380	0.4122
1371	0.5002
1362	0.5957
1353	0.6535
1344	0.6617
1335	0.6618
1326	0.6283
1317	0.5009
1308	0.3205
1299	0.1732
1290	0.0578
1281	0.015
1272	0.0133
1263	0.0284
1254	0.1041
1245	0.267
1236	0.5412
1227	0.654
1218	0.7082
1209	0.7456
1200	0.7668
1191	0.7764
1182	0.7762
1173	0.759
1164	0.6671
1155	0.6401
1146	0.4858
1137	0.1718
1128	0.1324
1119	0.1081
1110	0.4125
1101	0.6618
1092	0.7108
1083	0.5547
1074	0.1867
1065	0.2966
1056	0.6367
1047	0.6878
1038	0.5002
1029	0.7251
1020	0.7869
1011	0.7993
1002	0.795
993	0.7904
984	0.7642
975	0.7055
966	0.6603
957	0.6482
948	0.7168
939	0.771
930	0.8145
921	0.8461
912	0.8516
903	0.8618
894	0.8673
885	0.869
876	0.866
867	0.8674
858	0.8751
849	0.8881
840	0.8766
831	0.8571
822	0.8725
813	0.8745
804	0.8718
795	0.8087
786	0.7697
777	0.7571
768	0.7422
759	0.7199
750	0.5117
741	0.3178
732	0.5901
723	0.7865
714	0.8225
705	0.6506
696	0.7418
687	0.8151
678	0.9054
669	0.9154
660	0.9155
651	0.8409
642	0.8744
633	0.9046
624	0.9081
615	0.9061
606	0.8983
597	0.886
588	0.8757
579	0.8591
570	0.8394
561	0.8373
552	0.8459
543	0.8573
534	0.8548
525	0.8554
516	0.8565
507	0.8591
498	0.8611
489	0.8631
480	0.8652
471	0.867
462	0.8671
453	0.8671
444	0.8673
435	0.8678
426	0.8683
417	0.868
408	0.8677
399	0.8684
