Infrared Spectrum: 1-PHENYL-1,2-PROPANE-DIONE-2-OXIME
Formula: C9 H9 N O2
CAS: 119-51-7
State: SOLID (MINERAL OIL MULL)
Melting point: 113-114 C
Class: COBLENTZ
Instrument: Not specified, most likely a prism, grating, or hybrid spectrometer.
Sampling: TRANSMISSION
Resolution: 4
Origin: WYANDOTTE CHEMICALS CORP., WYANDOTTE, MICHIGAN, USA
MICROMETERS	TRANSMITTANCE
2.013	0.398
2.05279	0.406
2.09258	0.413
2.13237	0.42
2.17217	0.421
2.21196	0.418
2.25175	0.426
2.29154	0.436
2.33133	0.448
2.37112	0.448
2.41092	0.455
2.45071	0.46
2.4905	0.471
2.53029	0.481
2.57008	0.486
2.60987	0.493
2.64966	0.503
2.68946	0.509
2.72925	0.513
2.76904	0.519
2.80883	0.518
2.84862	0.509
2.88841	0.48
2.92821	0.438
2.968	0.383
3.00779	0.3
3.04758	0.197
3.08737	0.164
3.12716	0.191
3.16696	0.255
3.20675	0.27
3.24654	0.274
3.28633	0.289
3.32612	0.255
3.36591	0.069
3.4057	0.058
3.4455	0.091
3.48529	0.109
3.52508	0.249
3.56487	0.504
3.60466	0.549
3.64445	0.579
3.68425	0.579
3.72404	0.599
3.76383	0.598
3.80362	0.612
3.84341	0.626
3.8832	0.632
3.92299	0.649
3.96279	0.652
4.00258	0.661
4.04237	0.659
4.08216	0.664
4.12195	0.679
4.16174	0.682
4.20154	0.687
4.24133	0.689
4.28112	0.676
4.32091	0.682
4.3607	0.7
4.40049	0.73
4.44028	0.737
4.48008	0.735
4.51987	0.74
4.55966	0.75
4.59945	0.757
4.63924	0.76
4.67903	0.765
4.71883	0.78
4.75862	0.785
4.79841	0.792
4.8382	0.799
4.87799	0.802
4.91778	0.805
4.95758	0.812
4.99737	0.818
5.03716	0.82
5.07695	0.797
5.11674	0.803
5.15653	0.803
5.19632	0.832
5.23612	0.832
5.27591	0.82
5.3157	0.838
5.35549	0.862
5.39528	0.87
5.43507	0.88
5.47487	0.877
5.51466	0.863
5.55445	0.885
5.59424	0.888
5.63403	0.88
5.67382	0.888
5.71361	0.901
5.75341	0.906
5.7932	0.91
5.83299	0.9
5.87278	0.908
5.91257	0.893
5.95236	0.78
5.99216	0.342
6.03195	0.194
6.07174	0.272
6.11153	0.498
6.15132	0.579
6.19111	0.676
6.2309	0.465
6.2707	0.659
6.31049	0.651
6.35028	0.709
6.39007	0.717
6.42986	0.759
6.46965	0.75
6.50945	0.77
6.54924	0.76
6.58903	0.762
6.62882	0.74
6.66861	0.717
6.7084	0.646
6.7482	0.531
6.78799	0.242
6.82778	0.184
6.86757	0.171
6.90736	0.24
6.94715	0.362
6.98694	0.46
7.02674	0.496
7.06653	0.533
7.10632	0.556
7.14611	0.579
7.1859	0.604
7.22569	0.501
7.26549	0.433
7.30528	0.401
7.34507	0.48
7.38486	0.606
7.42465	0.639
7.46444	0.631
7.50423	0.549
7.54403	0.352
7.58382	0.401
7.62361	0.403
7.6634	0.426
7.70319	0.558
7.74298	0.531
7.78278	0.639
7.82257	0.692
7.86236	0.734
7.90215	0.755
7.94194	0.782
7.98173	0.792
8.02152	0.797
8.06132	0.805
8.10111	0.823
8.1409	0.847
8.18069	0.853
8.22048	0.847
8.26027	0.84
8.30007	0.853
8.33986	0.84
8.37965	0.715
8.41944	0.31
8.45923	0.312
8.49902	0.476
8.53882	0.591
8.57861	0.664
8.6184	0.72
8.65819	0.734
8.69798	0.777
8.73777	0.802
8.77756	0.83
8.81736	0.853
8.85715	0.865
8.89694	0.867
8.93673	0.865
8.97652	0.863
9.01631	0.858
9.05611	0.863
9.0959	0.867
9.13569	0.87
9.17548	0.865
9.21527	0.787
9.25506	0.747
9.29485	0.8
9.33465	0.81
9.37444	0.815
9.41423	0.832
9.45402	0.833
9.49381	0.82
9.5336	0.81
9.5734	0.775
9.61319	0.705
9.65298	0.596
9.69277	0.475
9.73256	0.488
9.77235	0.428
9.81214	0.29
9.85194	0.212
9.89173	0.235
9.93152	0.28
9.97131	0.177
10.0111	0.146
10.0509	0.224
10.0907	0.34
10.1305	0.463
10.1703	0.553
10.2101	0.602
10.2499	0.619
10.2896	0.672
10.3294	0.704
10.3692	0.724
10.409	0.749
10.4488	0.755
10.4886	0.762
10.5284	0.769
10.5682	0.769
10.608	0.775
10.6478	0.789
10.6876	0.79
10.7274	0.74
10.7671	0.767
10.8069	0.812
10.8467	0.823
10.8865	0.823
10.9263	0.823
10.9661	0.818
11.0059	0.808
11.0457	0.794
11.0855	0.719
11.1253	0.528
11.1651	0.255
11.2048	0.207
11.2446	0.355
11.2844	0.508
11.3242	0.624
11.364	0.687
11.4038	0.725
11.4436	0.762
11.4834	0.785
11.5232	0.808
11.563	0.82
11.6028	0.832
11.6426	0.838
11.6823	0.842
11.7221	0.847
11.7619	0.853
11.8017	0.855
11.8415	0.863
11.8813	0.872
11.9211	0.873
11.9609	0.877
12.0007	0.88
12.0405	0.885
12.0803	0.895
12.1201	0.895
12.1598	0.893
12.1996	0.893
12.2394	0.897
12.2792	0.895
12.319	0.898
12.3588	0.898
12.3986	0.898
12.4384	0.9
12.4782	0.9
12.518	0.897
12.5578	0.895
12.5976	0.88
12.6373	0.838
12.6771	0.656
12.7169	0.634
12.7567	0.784
12.7965	0.825
12.8363	0.84
12.8761	0.83
12.9159	0.813
12.9557	0.8
12.9955	0.782
13.0353	0.752
13.0751	0.699
13.1148	0.594
13.1546	0.446
13.1944	0.37
13.2342	0.431
13.274	0.513
13.3138	0.548
13.3536	0.568
13.3934	0.573
13.4332	0.571
13.473	0.566
13.5128	0.558
13.5526	0.556
13.5923	0.548
13.6321	0.548
13.6719	0.548
13.7117	0.543
13.7515	0.543
13.7913	0.534
13.8311	0.511
13.8709	0.488
13.9107	0.443
13.9505	0.35
13.9903	0.252
14.03	0.205
14.0698	0.191
14.1096	0.189
14.1494	0.214
14.1892	0.255
14.229	0.315
14.2688	0.375
14.3086	0.428
14.3484	0.458
14.3882	0.441
14.428	0.345
14.4678	0.264
14.5075	0.26
14.5473	0.32
14.5871	0.413
14.6269	0.495
14.6667	0.546
14.7065	0.599
14.7463	0.622
14.7861	0.639
14.8259	0.651
14.8657	0.654
14.9055	0.647
14.9453	0.617
14.985	0.581
15.0248	0.533
15.0646	0.458
15.1044	0.393
15.1442	0.375
15.184	0.423
15.2238	0.478
15.2636	0.543
15.3034	0.576
15.3432	0.599
15.383	0.606
15.4228	0.609
15.4625	0.614
15.5023	0.616
15.5421	0.619
15.5819	0.619
15.6217	0.614
15.6615	0.604
15.7013	0.599
15.7411	0.593
15.7809	0.579
15.8207	0.571
15.8605	0.556
15.9003	0.553
15.94	0.544
15.9798	0.536
