Infrared Spectrum: Ethyl .gamma.-phenylbutyrate
Formula: C 12 H 16 O 2
CAS: 119-43-7
State: gas
Origin: EPA-IR VAPOR PHASE LIBRARY
1/CM	ABSORBANCE
501.5	0.00333
513.074	0.00139
524.648	0.0006884
536.222	0.0007211
547.796	0.00118
559.37	0.00275
570.944	0.0019
582.518	0.00163
594.092	0.00167
605.666	0.00163
617.24	0.00145
628.814	0.0016
640.388	0.00178
651.962	0.0022
663.536	0.00358
675.11	0.00755
686.684	0.01648
698.258	0.03016
709.832	0.01951
721.406	0.01462
732.98	0.02098
744.554	0.02246
756.128	0.01307
767.702	0.00817
779.276	0.00572
790.85	0.00437
802.423	0.00391
813.997	0.00381
825.571	0.00385
837.145	0.00406
848.719	0.00485
860.293	0.00544
871.867	0.00522
883.441	0.00415
895.015	0.00392
906.589	0.00482
918.163	0.00543
929.737	0.0055
941.311	0.00442
952.885	0.00345
964.459	0.00366
976.033	0.0045
987.607	0.00525
999.181	0.00711
1010.76	0.0125
1022.33	0.02544
1033.9	0.03875
1045.48	0.03703
1057.05	0.02733
1068.63	0.02015
1080.2	0.01854
1091.77	0.02121
1103.35	0.02453
1114.92	0.02697
1126.49	0.04221
1138.07	0.07378
1149.64	0.09186
1161.22	0.08487
1172.79	0.07521
1184.36	0.07544
1195.94	0.07591
1207.51	0.06856
1219.09	0.06362
1230.66	0.06409
1242.23	0.06089
1253.81	0.04764
1265.38	0.03532
1276.96	0.02685
1288.53	0.02367
1300.1	0.02533
1311.68	0.02529
1323.25	0.02362
1334.83	0.02395
1346.4	0.02335
1357.97	0.02182
1369.55	0.02839
1381.12	0.02349
1392.7	0.01325
1404.27	0.0101
1415.84	0.01013
1427.42	0.0131
1438.99	0.01613
1450.57	0.02065
1462.14	0.01932
1473.71	0.01408
1485.29	0.01186
1496.86	0.0175
1508.44	0.00694
1520.01	0.00361
1531.58	0.00304
1543.16	0.00269
1554.73	0.00256
1566.31	0.00283
1577.88	0.00365
1589.45	0.0057
1601.03	0.00851
1612.6	0.00538
1624.18	0.00276
1635.75	0.00249
1647.32	0.00259
1658.9	0.00275
1670.47	0.00318
1682.05	0.00414
1693.62	0.00625
1705.19	0.01047
1716.77	0.01831
1728.34	0.0366
1739.92	0.08356
1751.49	0.13312
1763.06	0.09147
1774.64	0.03761
1786.21	0.01643
1797.79	0.00955
1809.36	0.0057
1820.93	0.00386
1832.51	0.0029
1844.08	0.00258
1855.66	0.00268
1867.23	0.0029
1878.8	0.00292
1890.38	0.00227
1901.95	0.00189
1913.53	0.00194
1925.1	0.0024
1936.67	0.00302
1948.25	0.003
1959.82	0.0021
1971.4	0.00141
1982.97	0.00137
1994.54	0.00134
2006.12	0.00136
2017.69	0.00134
2029.27	0.00126
2040.84	0.00116
2052.41	0.00115
2063.99	0.00112
2075.56	0.00109
2087.14	0.00101
2098.71	0.0008968
2110.28	0.0007941
2121.86	0.0007107
2133.43	0.0006398
2145.01	0.0006389
2156.58	0.0006071
2168.15	0.0005998
2179.73	0.0006146
2191.3	0.000586
2202.88	0.000557
2214.45	0.0005757
2226.02	0.0005708
2237.6	0.0005789
2249.17	0.0005686
2260.74	0.000567
2272.32	0.0005692
2283.89	0.0006185
2295.47	0.0006527
2307.04	0.0008388
2318.61	0.0009506
2330.19	0.0008765
2341.76	0.0008412
2353.34	0.0007789
2364.91	0.0007271
2376.48	0.0006586
2388.06	0.0006013
2399.63	0.0005973
2411.21	0.0005902
2422.78	0.0005538
2434.35	0.0005239
2445.93	0.0005234
2457.5	0.0004597
2469.08	0.0004856
2480.65	0.0004587
2492.22	0.0004632
2503.8	0.0004009
2515.37	0.0003537
2526.95	0.0003908
2538.52	0.0003813
2550.09	0.000382
2561.67	0.0003971
2573.24	0.0004177
2584.82	0.000497
2596.39	0.0005246
2607.96	0.0005938
2619.54	0.0006086
2631.11	0.0006232
2642.69	0.0006482
2654.26	0.0006327
2665.83	0.0006627
2677.41	0.0006415
2688.98	0.0007109
2700.56	0.0006855
2712.13	0.000674
2723.7	0.0007352
2735.28	0.0008567
2746.85	0.0009761
2758.43	0.00112
2770	0.00139
2781.57	0.00168
2793.15	0.0019
2804.72	0.00217
2816.3	0.00264
2827.87	0.00344
2839.44	0.00481
2851.02	0.00791
2862.59	0.01268
2874.17	0.01548
2885.74	0.01532
2897.31	0.01537
2908.89	0.02022
2920.46	0.02967
2932.04	0.03987
2943.61	0.04792
2955.18	0.04454
2966.76	0.03831
2978.33	0.04004
2989.91	0.03866
3001.48	0.02555
3013.05	0.02055
3024.63	0.02484
3036.2	0.0283
3047.78	0.01622
3059.35	0.01702
3070.92	0.02523
3082.5	0.0167
3094.07	0.01147
3105.65	0.0073
3117.22	0.00422
3128.79	0.0021
3140.37	0.00143
3151.94	0.00122
3163.52	0.00108
3175.09	0.0008455
3186.66	0.0006844
3198.24	0.0006117
3209.81	0.0005096
3221.39	0.0003926
3232.96	0.0003593
3244.53	0.0002829
3256.11	0.000254
3267.68	0.000214
3279.26	0.0001913
3290.83	0.0002191
3302.4	0.000176
3313.98	0.0001327
3325.55	0.0001884
3337.13	0.0002031
3348.7	0.0001677
3360.27	0.000134
3371.85	0.0002213
3383.42	0.0002004
3395	0.0001946
3406.57	0.0001852
3418.14	0.0001806
3429.72	0.0002587
3441.29	0.0004668
3452.86	0.0005333
3464.44	0.0007695
3476.01	0.00129
3487.59	0.00155
3499.16	0.00123
3510.73	0.0007702
3522.31	0.0004777
3533.88	0.0003639
3545.46	0.0002438
3557.03	0.0001117
3568.6	0.0001617
3580.18	0.0001339
3591.75	0.0001101
3603.33	0.0001687
3614.9	0.0001597
3626.47	0.0002212
3638.05	0.0002763
3649.62	0.0002832
3661.2	0.000306
3672.77	0.0001961
3684.34	0.0002958
3695.92	0.0002479
3707.49	0.0002659
3719.07	0.000253
3730.64	0.0001605
3742.21	0.0002653
3753.79	0.0003082
3765.36	0.0003284
3776.94	0.0002724
3788.51	0.0003518
3800.08	0.0002786
3811.66	0.0003684
3823.23	0.0003366
3834.81	0.0003617
3846.38	0.0003684
3857.95	0.0003411
3869.53	0.0002433
3881.1	0.0003401
3892.68	0.0003303
3904.25	0.0003553
3915.82	0.0002996
3927.4	0.0004215
3938.97	0.0003546
3950.55	0.0004163
3962.12	0.0003357
3973.69	0.0004663
3985.27	0.0004338
3996.84	0.0004817
