Infrared Spectrum: N-METHYLANTHRANILIC ACID
Formula: C8 H9 N O2
CAS: 119-68-6
State: SOLID (MINERAL OIL MULL)
Melting point: 177 C
Class: COBLENTZ
Instrument: Not specified, most likely a prism, grating, or hybrid spectrometer.
Sampling: TRANSMISSION
Resolution: 4
Origin: WYANDOTTE CHEMICALS CORP., WYANDOTTE, MICHIGAN, USA
MICROMETERS	TRANSMITTANCE
2.027	0.451
2.06794	0.468
2.10887	0.48
2.14981	0.478
2.19074	0.463
2.23168	0.458
2.27261	0.477
2.31355	0.482
2.35448	0.483
2.39542	0.495
2.43635	0.511
2.47729	0.514
2.51823	0.517
2.55916	0.545
2.6001	0.534
2.64103	0.563
2.68197	0.575
2.7229	0.568
2.76384	0.553
2.80477	0.551
2.84571	0.548
2.88665	0.568
2.92758	0.553
2.96852	0.308
3.00945	0.434
3.05039	0.468
3.09132	0.4
3.13226	0.347
3.17319	0.289
3.21413	0.223
3.25506	0.175
3.296	0.134
3.33694	0.054
3.37787	0.028
3.41881	0.03
3.45974	0.034
3.50068	0.032
3.54161	0.115
3.58255	0.194
3.62348	0.228
3.66442	0.223
3.70535	0.248
3.74629	0.25
3.78723	0.219
3.82816	0.26
3.8691	0.269
3.91003	0.238
3.95097	0.282
3.9919	0.328
4.03284	0.328
4.07377	0.337
4.11471	0.379
4.15565	0.417
4.19658	0.415
4.23752	0.437
4.27845	0.441
4.31939	0.48
4.36032	0.543
4.40126	0.553
4.44219	0.557
4.48313	0.58
4.52406	0.584
4.565	0.597
4.60594	0.616
4.64687	0.625
4.68781	0.642
4.72874	0.662
4.76968	0.671
4.81061	0.683
4.85155	0.698
4.89248	0.713
4.93342	0.73
4.97435	0.732
5.01529	0.727
5.05623	0.761
5.09716	0.783
5.1381	0.797
5.17903	0.802
5.21997	0.78
5.2609	0.787
5.30184	0.807
5.34277	0.85
5.38371	0.862
5.42465	0.872
5.46558	0.889
5.50652	0.901
5.54745	0.89
5.58839	0.855
5.62932	0.94
5.67026	0.93
5.71119	0.879
5.75213	0.836
5.79306	0.766
5.834	0.601
5.87494	0.483
5.91587	0.299
5.95681	0.129
5.99774	0.069
6.03868	0.117
6.07961	0.178
6.12055	0.27
6.16148	0.304
6.20242	0.27
6.24335	0.124
6.28429	0.081
6.32523	0.236
6.36616	0.333
6.4071	0.42
6.44803	0.495
6.48897	0.485
6.5299	0.187
6.57084	0.163
6.61177	0.279
6.65271	0.316
6.69365	0.345
6.73458	0.248
6.77552	0.066
6.81645	0.063
6.85739	0.059
6.89832	0.04
6.93926	0.1
6.98019	0.185
7.02113	0.282
7.06206	0.177
7.103	0.289
7.14394	0.408
7.18487	0.366
7.22581	0.219
7.26674	0.281
7.30768	0.32
7.34861	0.393
7.38955	0.362
7.43048	0.291
7.47142	0.308
7.51235	0.335
7.55329	0.373
7.59423	0.425
7.63516	0.403
7.6761	0.347
7.71703	0.304
7.75797	0.238
7.7989	0.148
7.83984	0.078
7.88077	0.039
7.92171	0.039
7.96265	0.034
8.00358	0.04
8.04452	0.061
8.08545	0.088
8.12639	0.119
8.16732	0.166
8.20826	0.241
8.24919	0.303
8.29013	0.366
8.33106	0.432
8.372	0.47
8.41294	0.439
8.45387	0.134
8.49481	0.069
8.53574	0.117
8.57668	0.093
8.61761	0.201
8.65855	0.303
8.69948	0.349
8.74042	0.258
8.78135	0.287
8.82229	0.407
8.86323	0.429
8.90416	0.47
8.9451	0.492
8.98603	0.512
9.02697	0.519
9.0679	0.522
9.10884	0.492
9.14977	0.301
9.19071	0.456
9.23165	0.528
9.27258	0.546
9.31352	0.558
9.35445	0.572
9.39539	0.563
9.43632	0.512
9.47726	0.551
9.51819	0.575
9.55913	0.582
9.60006	0.492
9.641	0.424
9.68194	0.519
9.72287	0.545
9.76381	0.555
9.80474	0.577
9.84568	0.567
9.88661	0.575
9.92755	0.575
9.96848	0.575
10.0094	0.577
10.0504	0.579
10.0913	0.58
10.1322	0.582
10.1732	0.582
10.2141	0.58
10.255	0.568
10.296	0.519
10.3369	0.584
10.3778	0.589
10.4188	0.589
10.4597	0.531
10.5006	0.58
10.5416	0.604
10.5825	0.608
10.6235	0.608
10.6644	0.606
10.7053	0.584
10.7463	0.565
10.7872	0.524
10.8281	0.48
10.8691	0.408
10.91	0.33
10.9509	0.248
10.9919	0.197
11.0328	0.17
11.0737	0.166
11.1147	0.166
11.1556	0.166
11.1965	0.178
11.2375	0.195
11.2784	0.229
11.3194	0.267
11.3603	0.308
11.4012	0.357
11.4422	0.398
11.4831	0.442
11.524	0.477
11.565	0.514
11.6059	0.541
11.6468	0.562
11.6878	0.58
11.7287	0.589
11.7696	0.553
11.8106	0.385
11.8515	0.349
11.8925	0.497
11.9334	0.522
11.9743	0.436
12.0153	0.456
12.0562	0.546
12.0971	0.596
12.1381	0.623
12.179	0.645
12.2199	0.659
12.2609	0.667
12.3018	0.679
12.3427	0.684
12.3837	0.691
12.4246	0.698
12.4655	0.703
12.5065	0.71
12.5474	0.705
12.5884	0.671
12.6293	0.662
12.6702	0.684
12.7112	0.655
12.7521	0.613
12.793	0.546
12.834	0.483
12.8749	0.488
12.9158	0.534
12.9568	0.584
12.9977	0.614
13.0386	0.621
13.0796	0.628
13.1205	0.609
13.1615	0.551
13.2024	0.441
13.2433	0.241
13.2843	0.083
13.3252	0.054
13.3661	0.064
13.4071	0.103
13.448	0.211
13.4889	0.289
13.5299	0.366
13.5708	0.408
13.6117	0.449
13.6527	0.471
13.6936	0.502
13.7345	0.514
13.7755	0.526
13.8164	0.534
13.8574	0.541
13.8983	0.568
13.9392	0.601
13.9802	0.63
14.0211	0.643
14.062	0.657
14.103	0.654
14.1439	0.635
14.1848	0.594
14.2258	0.512
14.2667	0.448
14.3076	0.402
14.3486	0.449
14.3895	0.531
14.4305	0.589
14.4714	0.621
14.5123	0.642
14.5533	0.662
14.5942	0.669
14.6351	0.676
14.6761	0.679
14.717	0.679
14.7579	0.672
14.7989	0.662
14.8398	0.652
14.8807	0.643
14.9217	0.642
14.9626	0.626
15.0035	0.577
15.0445	0.497
15.0854	0.432
15.1264	0.403
15.1673	0.376
15.2082	0.342
15.2492	0.316
15.2901	0.323
15.331	0.369
15.372	0.417
15.4129	0.449
15.4538	0.473
15.4948	0.492
15.5357	0.494
15.5766	0.509
15.6176	0.512
15.6585	0.512
15.6995	0.509
15.7404	0.502
15.7813	0.494
15.8223	0.5
15.8632	0.487
15.9041	0.483
15.9451	0.477
15.986	0.446
