Infrared Spectrum: Isoquinoline
Formula: C 9 H 7 N
CAS: 119-65-3
State: gas
Instrument: HP-GC/MS/IRD
Origin: NIST Mass Spectrometry Data Center
1/CM	ABSORBANCE
550	0.0001375
562	8.47e-05
574	0
586	7.26e-05
598	0.000264
610	0.0002431
622	0.0008459
634	0.0027654
646	0.001881
658	0.0003498
670	0.0001419
682	0.0001287
694	0.0001507
706	0.0004466
718	0.0020966
730	0.0046596
742	0.0043527
754	0.0020559
766	0.0006677
778	0.000869
790	0.0018601
802	0.0036234
814	0.0061248
826	0.0076736
838	0.0042867
850	0.0022077
862	0.0013112
874	0.0005995
886	0.0001969
898	0.000286
910	0.0003619
922	0.0006578
934	0.0021241
946	0.0027269
958	0.0010736
970	0.0003993
982	0.000143
994	0.0002387
1006	0.0008701
1018	0.000979
1030	0.0005104
1042	0.0004675
1054	0.0001089
1066	0.0001155
1078	0.0001353
1090	0.0001782
1102	0.0002849
1114	0.0003531
1126	0.0006732
1138	0.0009636
1150	0.0005126
1162	0.0001914
1174	0.0002442
1186	0.0003454
1198	0.000539
1210	0.0010692
1222	0.0012892
1234	0.0011638
1246	0.0013816
1258	0.0021153
1270	0.0020603
1282	0.0013211
1294	0.0004048
1306	0.000209
1318	0.0001991
1330	0.0002046
1342	0.0002662
1354	0.000539
1366	0.0015752
1378	0.0021164
1390	0.0013024
1402	0.0004367
1414	0.0003355
1426	0.0005159
1438	0.0004884
1450	0.0004136
1462	0.0004543
1474	0.0004884
1486	0.0012947
1498	0.0018656
1510	0.0010087
1522	0.0003586
1534	0.0003608
1546	0.0007183
1558	0.0014938
1570	0.0029216
1582	0.0040964
1594	0.0027038
1606	0.0012859
1618	0.0031658
1630	0.0037257
1642	0.0013948
1654	0.0004356
1666	0.0003751
1678	0.0004994
1690	0.0004741
1702	0.0003542
1714	0.000297
1726	0.0003124
1738	0.0003784
1750	0.0004609
1762	0.0006116
1774	0.0006798
1786	0.0005412
1798	0.0005214
1810	0.0004829
1822	0.0004521
1834	0.0004246
1846	0.0002695
1858	0.0002332
1870	0.0002673
1882	0.0004037
1894	0.0004653
1906	0.0006358
1918	0.0007293
1930	0.0006501
1942	0.0005775
1954	0.0004763
1966	0.0002486
1978	0.0001474
1990	0.0001298
2002	0.0001232
2014	0.0001023
2026	9.79e-05
2038	9.9e-05
2050	0.0001298
2062	0.0001298
2074	0.000132
2086	9.46e-05
2098	0.0001243
2110	5.94e-05
2122	8.47e-05
2134	8.25e-05
2146	9.02e-05
2158	0.0001122
2170	9.35e-05
2182	6.82e-05
2194	5.94e-05
2206	8.58e-05
2218	9.13e-05
2230	8.14e-05
2242	8.8e-05
2254	0.0001133
2266	0.0001694
2278	0.0001705
2290	0.000143
2302	0.0001067
2314	0.0001463
2326	0.0001111
2338	8.91e-05
2350	0.0001078
2362	0.0001386
2374	0.0001188
2386	0.000121
2398	0.0001452
2410	0.0001408
2422	0.0001881
2434	0.0001364
2446	0.0001089
2458	0.0001243
2470	9.13e-05
2482	8.58e-05
2494	8.14e-05
2506	0.0001012
2518	6.38e-05
2530	6.05e-05
2542	9.9e-05
2554	0.0001012
2566	0.0001144
2578	9.24e-05
2590	8.58e-05
2602	9.9e-05
2614	7.92e-05
2626	0.0001122
2638	0.0001397
2650	0.0001727
2662	0.0001573
2674	9.35e-05
2686	9.68e-05
2698	8.25e-05
2710	0.0001188
2722	1.98e-05
2734	6.49e-05
2746	7.15e-05
2758	6.27e-05
2770	6.49e-05
2782	8.58e-05
2794	0.0001122
2806	0.000132
2818	0.0001353
2830	0.0001309
2842	9.46e-05
2854	0.0001188
2866	0.0001012
2878	0.0001848
2890	0.000121
2902	0.0001991
2914	0.000363
2926	0.0005192
2938	0.0006831
2950	0.0007161
2962	0.0006699
2974	0.0011
2986	0.0017281
2998	0.0021164
3010	0.0023562
3022	0.0028105
3034	0.0033869
3046	0.0053603
3058	0.0101882
3070	0.0102102
3082	0.0045221
3094	0.0021923
3106	0.0008415
3118	0.0004213
3130	0.0003487
3142	0.0002816
3154	0.0002695
3166	0.0001826
3178	0.0001551
3190	0.0001452
3202	0.0001023
3214	8.03e-05
3226	0.0001199
3238	0.0001034
3250	0.0001034
3262	5.28e-05
3274	8.03e-05
3286	0.0001199
3298	8.91e-05
3310	5.06e-05
3322	5.17e-05
3334	5.28e-05
3346	7.92e-05
3358	9.68e-05
3370	0.0001265
3382	0.0001133
3394	0.000121
3406	0.0001617
3418	0.0001782
3430	4.29e-05
3442	7.48e-05
3454	7.15e-05
3466	7.7e-05
3478	5.17e-05
3490	7.92e-05
3502	8.91e-05
3514	0.0001177
3526	0.0001166
3538	0.000132
3550	3.41e-05
3562	6.49e-05
3574	0.0001782
3586	9.79e-05
3598	7.81e-05
3610	9.35e-05
3622	7.04e-05
3634	0.0001122
3646	0.0001331
3658	6.38e-05
3670	9.68e-05
3682	0.0001155
3694	9.24e-05
3706	0.000132
3718	0.0001012
3730	0.0001309
3742	0.0001276
3754	0.0001232
3766	0.0001441
3778	0.0001078
3790	0.000165
3802	0.0001056
3814	0.0001375
3826	0.0001375
3838	0.0001441
