Infrared Spectrum: 2,4-DINITROPHENYL HYDRAZINE
Formula: C6 H6 N4 O4
CAS: 119-26-6
State: SOLID (MINERAL OIL MULL)
Class: COBLENTZ
Instrument: Not specified, most likely a prism, grating, or hybrid spectrometer.
Sampling: TRANSMISSION
Resolution: 4
Origin: DOW CHEMICAL COMPANY
MICROMETERS	TRANSMITTANCE
2.027	0.657
2.0682	0.67
2.10939	0.675
2.15059	0.684
2.19179	0.691
2.23298	0.699
2.27418	0.711
2.31538	0.716
2.35658	0.726
2.39777	0.736
2.43897	0.743
2.48017	0.753
2.52136	0.762
2.56256	0.769
2.60376	0.769
2.64495	0.774
2.68615	0.774
2.72735	0.772
2.76854	0.78
2.80974	0.774
2.85094	0.772
2.89214	0.799
2.93333	0.797
2.97453	0.619
3.01573	0.392
3.05692	0.617
3.09812	0.728
3.13932	0.769
3.18051	0.769
3.22171	0.743
3.26291	0.699
3.3041	0.769
3.3453	0.718
3.3865	0.505
3.4277	0.252
3.46889	0.417
3.51009	0.485
3.55129	0.73
3.59248	0.791
3.63368	0.806
3.67488	0.818
3.71607	0.821
3.75727	0.82
3.79847	0.823
3.83966	0.826
3.88086	0.835
3.92206	0.838
3.96326	0.85
4.00445	0.857
4.04565	0.852
4.08685	0.848
4.12804	0.857
4.16924	0.865
4.21044	0.859
4.25163	0.837
4.29283	0.845
4.33403	0.874
4.37522	0.874
4.41642	0.874
4.45762	0.882
4.49882	0.881
4.54001	0.887
4.58121	0.881
4.62241	0.887
4.6636	0.891
4.7048	0.893
4.746	0.896
4.78719	0.893
4.82839	0.894
4.86959	0.887
4.91078	0.899
4.95198	0.898
4.99318	0.903
5.03438	0.899
5.07557	0.904
5.11677	0.891
5.15797	0.899
5.19916	0.91
5.24036	0.91
5.28156	0.91
5.32275	0.918
5.36395	0.898
5.40515	0.904
5.44634	0.911
5.48754	0.921
5.52874	0.92
5.56994	0.916
5.61113	0.926
5.65233	0.921
5.69353	0.921
5.73472	0.92
5.77592	0.93
5.81712	0.935
5.85831	0.932
5.89951	0.913
5.94071	0.887
5.98191	0.845
6.0231	0.74
6.0643	0.368
6.1055	0.202
6.14669	0.302
6.18789	0.414
6.22909	0.412
6.27028	0.456
6.31148	0.455
6.35268	0.456
6.39387	0.643
6.43507	0.821
6.47627	0.707
6.51747	0.568
6.55866	0.448
6.59986	0.397
6.64106	0.422
6.68225	0.414
6.72345	0.617
6.76465	0.736
6.80584	0.638
6.84704	0.638
6.88824	0.719
6.92943	0.748
6.97063	0.573
7.01183	0.41
7.05303	0.292
7.09422	0.478
7.13542	0.792
7.17662	0.814
7.21781	0.724
7.25901	0.59
7.30021	0.534
7.3414	0.692
7.3826	0.616
7.4238	0.38
7.46499	0.164
7.50619	0.1
7.54739	0.106
7.58859	0.13
7.62978	0.307
7.67098	0.302
7.71218	0.229
7.75337	0.171
7.79457	0.183
7.83577	0.22
7.87696	0.314
7.91816	0.424
7.95936	0.516
8.00055	0.616
8.04175	0.641
8.08295	0.609
8.12415	0.488
8.16534	0.441
8.20654	0.726
8.24774	0.787
8.28893	0.82
8.33013	0.83
8.37133	0.85
8.41252	0.874
8.45372	0.887
8.49492	0.882
8.53611	0.889
8.57731	0.884
8.61851	0.835
8.65971	0.699
8.7009	0.534
8.7421	0.578
8.7833	0.555
8.82449	0.438
8.86569	0.514
8.90689	0.634
8.94808	0.633
8.98928	0.48
9.03048	0.531
9.07167	0.679
9.11287	0.745
9.15407	0.792
9.19527	0.828
9.23646	0.84
9.27766	0.84
9.31886	0.784
9.36005	0.597
9.40125	0.424
9.44245	0.602
9.48364	0.796
9.52484	0.847
9.56604	0.869
9.60723	0.889
9.64843	0.898
9.68963	0.899
9.73083	0.887
9.77202	0.889
9.81322	0.903
9.85442	0.91
9.89561	0.92
9.93681	0.915
9.97801	0.896
10.0192	0.859
10.0604	0.796
10.1016	0.68
10.1428	0.5
10.184	0.456
10.2252	0.511
10.2664	0.628
10.3076	0.794
10.3488	0.837
10.39	0.876
10.4312	0.881
10.4724	0.891
10.5136	0.896
10.5548	0.899
10.596	0.899
10.6372	0.894
10.6784	0.859
10.7196	0.769
10.7607	0.736
10.8019	0.707
10.8431	0.779
10.8843	0.865
10.9255	0.891
10.9667	0.901
11.0079	0.904
11.0491	0.91
11.0903	0.911
11.1315	0.911
11.1727	0.91
11.2139	0.906
11.2551	0.901
11.2963	0.908
11.3375	0.899
11.3787	0.896
11.4199	0.896
11.4611	0.894
11.5023	0.891
11.5435	0.887
11.5847	0.879
11.6259	0.881
11.6671	0.872
11.7083	0.869
11.7495	0.864
11.7907	0.859
11.8319	0.848
11.8731	0.83
11.9143	0.786
11.9555	0.707
11.9967	0.624
12.0379	0.606
12.0791	0.685
12.1202	0.806
12.1614	0.83
12.2026	0.84
12.2438	0.84
12.285	0.842
12.3262	0.848
12.3674	0.859
12.4086	0.869
12.4498	0.87
12.491	0.87
12.5322	0.87
12.5734	0.872
12.6146	0.877
12.6558	0.877
12.697	0.881
12.7382	0.881
12.7794	0.887
12.8206	0.891
12.8618	0.891
12.903	0.901
12.9442	0.904
12.9854	0.893
13.0266	0.864
13.0678	0.87
13.109	0.899
13.1502	0.906
13.1914	0.91
13.2326	0.906
13.2738	0.898
13.315	0.869
13.3562	0.796
13.3974	0.687
13.4385	0.648
13.4797	0.753
13.5209	0.864
13.5621	0.879
13.6033	0.886
13.6445	0.894
13.6857	0.896
13.7269	0.899
13.7681	0.896
13.8093	0.889
13.8505	0.886
13.8917	0.887
13.9329	0.876
13.9741	0.838
14.0153	0.76
14.0565	0.619
14.0977	0.536
14.1389	0.572
14.1801	0.707
14.2213	0.796
14.2625	0.82
14.3037	0.82
14.3449	0.799
14.3861	0.772
14.4273	0.758
14.4685	0.774
14.5097	0.813
14.5509	0.84
14.5921	0.845
14.6333	0.845
14.6745	0.845
14.7157	0.842
14.7569	0.84
14.798	0.838
14.8392	0.833
14.8804	0.806
14.9216	0.78
14.9628	0.797
15.004	0.828
15.0452	0.813
15.0864	0.791
15.1276	0.784
15.1688	0.772
15.21	0.764
15.2512	0.757
15.2924	0.75
15.3336	0.741
15.3748	0.73
15.416	0.716
15.4572	0.699
15.4984	0.667
15.5396	0.641
15.5808	0.629
15.622	0.619
15.6632	0.611
15.7044	0.607
15.7456	0.602
15.7868	0.597
15.828	0.597
15.8692	0.594
