Infrared Spectrum: N-(2-MERCAPTOETHYL)ACETAMIDE (N-ACETYLCYSTEAMINE)
Formula: C4 H9 N S O
CAS: 1190-73-4
State: LIQUID
Boiling point: 137 C AT 8 mmHg
Class: COBLENTZ
Instrument: Not specified, most likely a prism, grating, or hybrid spectrometer.
Sampling: TRANSMISSION
Resolution: 4
Origin: ARTHUR D. LITTLE, INC.
MICROMETERS	TRANSMITTANCE
2.053	0.862
2.08941	0.863
2.12582	0.865
2.16223	0.871
2.19864	0.875
2.23505	0.877
2.27146	0.878
2.30787	0.878
2.34428	0.875
2.38069	0.878
2.41709	0.88
2.4535	0.885
2.48991	0.888
2.52632	0.889
2.56273	0.894
2.59914	0.9
2.63555	0.904
2.67196	0.907
2.70837	0.909
2.74478	0.906
2.78119	0.897
2.8176	0.868
2.85401	0.813
2.89042	0.785
2.92683	0.683
2.96324	0.534
2.99965	0.34
3.03606	0.228
3.07247	0.181
3.10888	0.251
3.14528	0.402
3.18169	0.537
3.2181	0.568
3.25451	0.446
3.29092	0.482
3.32733	0.602
3.36374	0.596
3.40015	0.564
3.43656	0.482
3.47297	0.642
3.50938	0.645
3.54579	0.703
3.5822	0.77
3.61861	0.838
3.65502	0.847
3.69143	0.853
3.72784	0.86
3.76425	0.863
3.80066	0.866
3.83707	0.865
3.87347	0.863
3.90988	0.8
3.94629	0.721
3.9827	0.727
4.01911	0.774
4.05552	0.812
4.09193	0.841
4.12834	0.856
4.16475	0.868
4.20116	0.883
4.23757	0.892
4.27398	0.898
4.31039	0.912
4.3468	0.916
4.38321	0.918
4.41962	0.921
4.45603	0.922
4.49244	0.922
4.52885	0.922
4.56526	0.919
4.60166	0.918
4.63807	0.918
4.67448	0.921
4.71089	0.922
4.7473	0.924
4.78371	0.927
4.82012	0.928
4.85653	0.927
4.89294	0.928
4.92935	0.928
4.96576	0.928
5.00217	0.928
5.03858	0.928
5.07499	0.927
5.1114	0.927
5.14781	0.927
5.18422	0.927
5.22063	0.928
5.25704	0.928
5.29345	0.928
5.32985	0.93
5.36626	0.93
5.40267	0.93
5.43908	0.93
5.47549	0.928
5.5119	0.928
5.54831	0.925
5.58472	0.913
5.62113	0.901
5.65754	0.889
5.69395	0.883
5.73036	0.874
5.76677	0.859
5.80318	0.842
5.83959	0.815
5.876	0.774
5.91241	0.555
5.94882	0.252
5.98523	0.093
6.02164	0.048
6.05804	0.046
6.09445	0.052
6.13086	0.071
6.16727	0.21
6.20368	0.323
6.24009	0.378
6.2765	0.349
6.31291	0.269
6.34932	0.145
6.38573	0.102
6.42214	0.098
6.45855	0.087
6.49496	0.098
6.53137	0.127
6.56778	0.178
6.60419	0.245
6.6406	0.354
6.67701	0.419
6.71342	0.449
6.74983	0.464
6.78623	0.458
6.82264	0.425
6.85905	0.363
6.89546	0.285
6.93187	0.239
6.96828	0.237
7.00469	0.251
7.0411	0.32
7.07751	0.434
7.11392	0.476
7.15033	0.49
7.18674	0.47
7.22315	0.34
7.25956	0.226
7.29597	0.229
7.33238	0.26
7.36879	0.373
7.4052	0.523
7.44161	0.602
7.47802	0.623
7.51442	0.63
7.55083	0.623
7.58724	0.562
7.62365	0.419
7.66006	0.316
7.69647	0.216
7.73288	0.183
7.76929	0.18
7.8057	0.245
7.84211	0.357
7.87852	0.429
7.91493	0.503
7.95134	0.552
7.98775	0.514
8.02416	0.428
8.06057	0.441
8.09698	0.57
8.13339	0.649
8.1698	0.706
8.20621	0.718
8.24261	0.692
8.27902	0.588
8.31543	0.461
8.35184	0.45
8.38825	0.561
8.42466	0.694
8.46107	0.759
8.49748	0.803
8.53389	0.815
8.5703	0.829
8.60671	0.839
8.64312	0.845
8.67953	0.85
8.71594	0.853
8.75235	0.856
8.78876	0.854
8.82517	0.853
8.86158	0.847
8.89799	0.827
8.93439	0.789
8.9708	0.715
9.00721	0.67
9.04362	0.662
9.08003	0.659
9.11644	0.665
9.15285	0.726
9.18926	0.763
9.22567	0.782
9.26208	0.786
9.29849	0.782
9.3349	0.777
9.37131	0.777
9.40772	0.777
9.44413	0.776
9.48054	0.774
9.51695	0.748
9.55336	0.72
9.58977	0.677
9.62618	0.673
9.66258	0.703
9.69899	0.739
9.7354	0.762
9.77181	0.782
9.80822	0.797
9.84463	0.789
9.88104	0.771
9.91745	0.723
9.95386	0.698
9.99027	0.689
10.0267	0.685
10.0631	0.688
10.0995	0.701
10.1359	0.729
10.1723	0.757
10.2087	0.78
10.2451	0.795
10.2815	0.809
10.318	0.816
10.3544	0.827
10.3908	0.833
10.4272	0.841
10.4636	0.845
10.5	0.853
10.5364	0.856
10.5728	0.857
10.6092	0.86
10.6456	0.86
10.6821	0.859
10.7185	0.853
10.7549	0.844
10.7913	0.842
10.8277	0.841
10.8641	0.841
10.9005	0.841
10.9369	0.842
10.9733	0.848
11.0097	0.854
11.0461	0.865
11.0826	0.869
11.119	0.88
11.1554	0.886
11.1918	0.888
11.2282	0.889
11.2646	0.891
11.301	0.892
11.3374	0.891
11.3738	0.892
11.4102	0.891
11.4467	0.891
11.4831	0.891
11.5195	0.889
11.5559	0.889
11.5923	0.889
11.6287	0.888
11.6651	0.888
11.7015	0.886
11.7379	0.883
11.7743	0.88
11.8107	0.88
11.8472	0.878
11.8836	0.877
11.92	0.877
11.9564	0.877
11.9928	0.877
12.0292	0.877
12.0656	0.877
12.102	0.875
12.1384	0.874
12.1748	0.871
12.2112	0.862
12.2477	0.857
12.2841	0.854
12.3205	0.85
12.3569	0.841
12.3933	0.835
12.4297	0.832
12.4661	0.827
12.5025	0.819
12.5389	0.813
12.5753	0.803
12.6118	0.791
12.6482	0.783
12.6846	0.777
12.721	0.771
12.7574	0.763
12.7938	0.756
12.8302	0.744
12.8666	0.735
12.903	0.726
12.9394	0.717
12.9758	0.706
13.0123	0.691
13.0487	0.679
13.0851	0.67
13.1215	0.661
13.1579	0.641
13.1943	0.633
13.2307	0.627
13.2671	0.62
13.3035	0.612
13.3399	0.608
13.3764	0.605
13.4128	0.602
13.4492	0.603
13.4856	0.603
13.522	0.6
13.5584	0.597
13.5948	0.593
13.6312	0.586
13.6676	0.582
13.704	0.579
13.7404	0.574
13.7769	0.57
13.8133	0.568
13.8497	0.567
13.8861	0.562
13.9225	0.559
13.9589	0.555
13.9953	0.553
14.0317	0.555
14.0681	0.555
14.1045	0.555
14.141	0.556
14.1774	0.558
14.2138	0.561
14.2502	0.562
14.2866	0.564
14.323	0.567
14.3594	0.568
14.3958	0.573
14.4322	0.576
14.4686	0.577
14.505	0.579
14.5415	0.579
14.5779	0.58
14.6143	0.58
14.6507	0.582
14.6871	0.583
14.7235	0.583
14.7599	0.583
14.7963	0.582
14.8327	0.58
14.8691	0.579
14.9056	0.577
14.942	0.573
14.9784	0.573
15.0148	0.573
15.0512	0.561
15.0876	0.552
