Infrared Spectrum: 1-Dimethylamino-2-nitroethylene
Formula: C 4 H 8 N 2 O 2
CAS: 1190-92-7
State: gas
Origin: EPA-IR VAPOR PHASE LIBRARY
1/CM	ABSORBANCE
549.8	0.0012747
559.445	0.001228
569.09	0.0016396
578.734	0.0007092
588.379	0.0009746
598.024	0.00079444
607.669	0.0013272
617.313	0.0013009
626.958	0.000423
636.603	0.00083624
646.248	0.0015008
655.893	0.0009657
665.537	0.0007589
675.182	0.00085503
684.827	0.0017477
694.472	0.0017154
704.116	0.00225
713.761	0.0017444
723.406	0.00186
733.051	0.00267
742.695	0.00432
752.34	0.00651
761.985	0.00609
771.63	0.00482
781.275	0.00334
790.919	0.00179
800.564	0.001511
810.209	0.0013936
819.854	0.0017403
829.498	0.0015396
839.143	0.0011962
848.788	0.0014319
858.433	0.00238
868.078	0.00363
877.722	0.00198
887.367	0.00276
897.012	0.00217
906.657	0.00183
916.301	0.00204
925.946	0.00207
935.591	0.00232
945.236	0.00265
954.88	0.00305
964.525	0.00463
974.17	0.00525
983.815	0.00689
993.46	0.00716
1003.1	0.00468
1012.75	0.00335
1022.39	0.00295
1032.04	0.00301
1041.68	0.00331
1051.33	0.0022
1060.97	0.00258
1070.62	0.00399
1080.26	0.00467
1089.91	0.0063
1099.55	0.01009
1109.2	0.01264
1118.84	0.00999
1128.49	0.0073
1138.13	0.00613
1147.78	0.0029
1157.42	0.00276
1167.07	0.00317
1176.71	0.00268
1186.36	0.00268
1196	0.00192
1205.64	0.00341
1215.29	0.0023
1224.93	0.00316
1234.58	0.00473
1244.22	0.00515
1253.87	0.00626
1263.51	0.00914
1273.16	0.01304
1282.8	0.01441
1292.45	0.01097
1302.09	0.01282
1311.74	0.02246
1321.38	0.04699
1331.03	0.07112
1340.67	0.06176
1350.32	0.02674
1359.96	0.01272
1369.61	0.00992
1379.25	0.008
1388.9	0.00678
1398.54	0.00556
1408.18	0.00465
1417.83	0.00418
1427.47	0.00462
1437.12	0.00541
1446.76	0.00541
1456.41	0.00528
1466.05	0.00543
1475.7	0.00558
1485.34	0.00631
1494.99	0.00898
1504.63	0.01447
1514.28	0.02056
1523.92	0.02106
1533.57	0.01644
1543.21	0.00876
1552.86	0.00485
1562.5	0.00381
1572.15	0.00348
1581.79	0.00323
1591.44	0.0036
1601.08	0.00383
1610.73	0.00573
1620.37	0.01232
1630.01	0.0308
1639.66	0.05534
1649.3	0.05407
1658.95	0.02276
1668.59	0.00758
1678.24	0.00457
1687.88	0.00318
1697.53	0.00251
1707.17	0.00207
1716.82	0.00213
1726.46	0.00216
1736.11	0.0022
1745.75	0.0017478
1755.4	0.0014436
1765.04	0.0013492
1774.69	0.0012528
1784.33	0.0013325
1793.98	0.0012753
1803.62	0.0013574
1813.27	0.0013578
1822.91	0.001309
1832.55	0.0013288
1842.2	0.0011766
1851.84	0.0010754
1861.49	0.001187
1871.13	0.0009626
1880.78	0.0010762
1890.42	0.0010198
1900.07	0.0009753
1909.71	0.0012875
1919.36	0.0009947
1929	0.0010733
1938.65	0.0011358
1948.29	0.0011365
1957.94	0.0009434
1967.58	0.0010038
1977.23	0.0010202
1986.87	0.0010191
1996.52	0.0011221
2006.16	0.0010943
2015.81	0.0009862
2025.45	0.0009914
2035.1	0.0010277
2044.74	0.000780982
2054.38	0.0009666
2064.03	0.0009452
2073.67	0.0009178
2083.32	0.0009536
2092.96	0.0010082
2102.61	0.0008904
2112.25	0.0009363
2121.9	0.0010122
2131.54	0.0011068
2141.19	0.0010184
2150.83	0.0008222
2160.48	0.00085562
2170.12	0.000756
2179.77	0.0007653
2189.41	0.00085961
2199.06	0.0010327
2208.7	0.000917
2218.35	0.0010927
2227.99	0.0010619
2237.64	0.00076
2247.28	0.00106
2256.92	0.0010587
2266.57	0.0012548
2276.21	0.0009834
2285.86	0.001083
2295.5	0.0012397
2305.15	0.0012358
2314.79	0.0013585
2324.44	0.001353
2334.08	0.0013335
2343.73	0.0010353
2353.37	0.0010269
2363.02	0.0011283
2372.66	0.0010512
2382.31	0.0009669
2391.95	0.001088
2401.6	0.0009378
2411.24	0.0010443
2420.89	0.000743
2430.53	0.0007363
2440.18	0.0009073
2449.82	0.0009291
2459.47	0.0009379
2469.11	0.0009744
2478.75	0.0009688
2488.4	0.0010551
2498.04	0.0010967
2507.69	0.000898
2517.33	0.0009314
2526.98	0.0009254
2536.62	0.0012191
2546.27	0.0011061
2555.91	0.0009266
2565.56	0.0009808
2575.2	0.0009059
2584.85	0.0010718
2594.49	0.00085697
2604.14	0.0009936
2613.78	0.00079004
2623.43	0.0012329
2633.07	0.0012254
2642.72	0.0010316
2652.36	0.0010088
2662.01	0.0011997
2671.65	0.0012424
2681.29	0.0009496
2690.94	0.0010547
2700.58	0.00079317
2710.23	0.00084511
2719.87	0.0011409
2729.52	0.0009949
2739.16	0.0015105
2748.81	0.0014336
2758.45	0.0015674
2768.1	0.0013482
2777.74	0.001632
2787.39	0.00197
2797.03	0.00251
2806.68	0.00311
2816.32	0.00435
2825.97	0.00443
2835.61	0.00339
2845.26	0.00306
2854.9	0.00361
2864.55	0.00365
2874.19	0.0038
2883.84	0.00412
2893.48	0.00489
2903.12	0.00597
2912.77	0.00676
2922.41	0.00756
2932.06	0.0076
2941.7	0.00692
2951.35	0.00606
2960.99	0.00494
2970.64	0.00422
2980.28	0.00359
2989.93	0.00329
2999.57	0.00327
3009.22	0.00302
3018.86	0.00205
3028.51	0.00212
3038.15	0.00186
3047.8	0.0016204
3057.44	0.0014751
3067.09	0.0014489
3076.73	0.0014568
3086.38	0.0012277
3096.02	0.0011118
3105.67	0.0012307
3115.31	0.0014579
3124.95	0.0015503
3134.6	0.00226
3144.24	0.0023
3153.89	0.0013084
3163.53	0.0009688
3173.18	0.001335
3182.82	0.00077696
3192.47	0.0008443
3202.11	0.000984
3211.76	0.0011252
3221.4	0.00086583
3231.05	0.001024
3240.69	0.001104
3250.34	0.0009538
3259.98	0.0010798
3269.63	0.0011667
3279.27	0.00080141
3288.92	0.0009292
3298.56	0.0009474
3308.21	0.000517
3317.85	0.0007264
3327.49	0.0007592
3337.14	0.0007129
3346.78	0.0010816
3356.43	0.0012089
3366.07	0.000695
3375.72	0.000596
3385.36	0.0010854
3395.01	0.0009002
3404.65	0.0010645
3414.3	0.000648
3423.94	0.0012715
3433.59	0.00087592
3443.23	0.00085715
3452.88	0.00083067
3462.52	0.0008529
3472.17	0.0010729
3481.81	0.0008932
3491.46	0.000577
3501.1	0.0010711
3510.75	0.0009139
3520.39	0.00076
3530.04	0.0009377
3539.68	0.00085762
3549.32	0.0009853
3558.97	0.0010316
3568.61	0.0010439
3578.26	0.0007119
3587.9	0.00084551
3597.55	0.0010643
3607.19	0.0009003
3616.84	0.0010925
3626.48	0.0009448
3636.13	0.000626
3645.77	0.0007408
3655.42	0.0007202
3665.06	0.000606
3674.71	0.0010382
3684.35	0.00077618
3694	0.0009035
3703.64	0.0012178
3713.29	0.0010788
3722.93	0.00081868
3732.58	0.0009808
3742.22	0.000475
3751.86	0.0010568
3761.51	0.0009543
3771.15	0.000643
3780.8	0.0007267
3790.44	0.000651
3800.09	0.000633
3809.73	0.0008839
3819.38	0.0012959
3829.02	0.0007645
3838.67	0.0009386
3848.31	0.0007289
3857.96	0.0009314
3867.6	0.0010153
3877.25	0.000887
3886.89	0.0009287
3896.54	0.00083556
3906.18	0.0012806
3915.83	0.0011303
3925.47	0.00028
3935.12	0.0008366
3944.76	0.001026
3954.41	0.000783119
3964.05	0.0009294
3973.69	0.00028
3983.34	0.0011076
3992.98	0.000665
