Infrared Spectrum: 1,6-Hexanedithiol
Formula: C 6 H 14 S 2
CAS: 1191-43-1
State: gas
Instrument: HP-GC/MS/IRD
Origin: NIST Mass Spectrometry Data Center
1/CM	ABSORBANCE
550	0.000209
562	2.2e-06
574	0.0001518
586	9.46e-05
598	0.0001232
610	0.0001518
622	0.0001452
634	0.000231
646	0.0003762
658	0.000462
670	0.000363
682	0.000418
694	0.000583
706	0.0008514
718	0.0009878
730	0.0011418
742	0.0009922
754	0.000847
766	0.000671
778	0.0004928
790	0.0004994
802	0.0004378
814	0.000396
826	0.0005786
838	0.0004246
850	0.000418
862	0.0005148
874	0.0005192
886	0.000528
898	0.0005346
910	0.0005214
922	0.0004642
934	0.0004466
946	0.0004334
958	0.000484
970	0.000484
982	0.000506
994	0.0005126
1006	0.0004664
1018	0.0004862
1030	0.0004752
1042	0.0004818
1054	0.000528
1066	0.0004708
1078	0.000528
1090	0.0004048
1102	0.0004356
1114	0.0004268
1126	0.000517
1138	0.0004994
1150	0.0004862
1162	0.0004818
1174	0.0004708
1186	0.0004774
1198	0.000583
1210	0.000649
1222	0.0009724
1234	0.0013354
1246	0.0016148
1258	0.0022198
1270	0.0029656
1282	0.0028578
1294	0.0026048
1306	0.0022352
1318	0.001573
1330	0.001045
1342	0.001089
1354	0.0012408
1366	0.0009064
1378	0.0005522
1390	0.0004004
1402	0.00044
1414	0.0006292
1426	0.0012628
1438	0.0025234
1450	0.002838
1462	0.0023298
1474	0.0012716
1486	0.0006006
1498	0.0003432
1510	0.0002816
1522	0.0002332
1534	0.0002068
1546	0.0001408
1558	0.000121
1570	0.0001474
1582	9.46e-05
1594	8.8e-05
1606	8.8e-05
1618	0.0001034
1630	7.92e-05
1642	7.92e-05
1654	9.02e-05
1666	9.02e-05
1678	7.48e-05
1690	7.92e-05
1702	9.24e-05
1714	7.26e-05
1726	3.74e-05
1738	4.62e-05
1750	9.24e-05
1762	6.38e-05
1774	6.6e-05
1786	6.82e-05
1798	4.62e-05
1810	5.06e-05
1822	7.7e-05
1834	3.96e-05
1846	4.18e-05
1858	4.62e-05
1870	3.74e-05
1882	2.64e-05
1894	5.72e-05
1906	3.96e-05
1918	2.2e-05
1930	3.3e-05
1942	7.04e-05
1954	6.6e-05
1966	4.4e-05
1978	5.5e-05
1990	3.96e-05
2002	5.06e-05
2014	7.48e-05
2026	6.16e-05
2038	6.16e-05
2050	6.82e-05
2062	5.28e-05
2074	3.3e-05
2086	5.94e-05
2098	4.18e-05
2110	4.18e-05
2122	3.74e-05
2134	5.28e-05
2146	3.96e-05
2158	6.16e-05
2170	6.82e-05
2182	3.96e-05
2194	5.5e-05
2206	5.06e-05
2218	1.76e-05
2230	2.64e-05
2242	3.08e-05
2254	3.52e-05
2266	4.18e-05
2278	0
2290	4.4e-05
2302	4.18e-05
2314	2.64e-05
2326	3.08e-05
2338	4.62e-05
2350	3.08e-05
2362	3.96e-05
2374	4.4e-06
2386	4.4e-06
2398	5.06e-05
2410	4.4e-05
2422	5.5e-05
2434	3.74e-05
2446	4.62e-05
2458	4.18e-05
2470	5.28e-05
2482	5.72e-05
2494	9.9e-05
2506	0.0001034
2518	0.0001056
2530	0.0001232
2542	0.0001232
2554	0.0001298
2566	0.0001936
2578	0.0003542
2590	0.0006226
2602	0.0005104
2614	0.000297
2626	0.0002442
2638	0.0002266
2650	0.000253
2662	0.0002794
2674	0.0003014
2686	0.0003146
2698	0.0003102
2710	0.0003454
2722	0.0003278
2734	0.0002816
2746	0.0003124
2758	0.0003124
2770	0.0003498
2782	0.0004114
2794	0.0005214
2806	0.0007172
2818	0.000913
2830	0.0013948
2842	0.0027104
2854	0.0055264
2866	0.007282
2878	0.0056166
2890	0.0043494
2902	0.0055
2914	0.0090354
2926	0.0163614
2938	0.022
2950	0.016808
2962	0.011176
2974	0.0071412
2986	0.0029744
2998	0.0014872
3010	0.0009438
3022	0.0006754
3034	0.0004928
3046	0.0003454
3058	0.0002728
3070	0.000253
3082	0.000231
3094	0.0002002
3106	0.0001342
3118	0.0001782
3130	0.0001694
3142	0.0001276
3154	0.0001298
3166	0.0001606
3178	0.0001386
3190	0.0001408
3202	0.000143
3214	7.26e-05
3226	0.0001254
3238	8.36e-05
3250	9.24e-05
3262	9.24e-05
3274	0.0001298
3286	9.24e-05
3298	9.24e-05
3310	6.16e-05
3322	0.00011
3334	9.02e-05
3346	6.82e-05
3358	7.26e-05
3370	9.9e-05
3382	8.14e-05
3394	5.28e-05
3406	8.14e-05
3418	8.58e-05
3430	0.0001012
3442	0.0001232
3454	6.82e-05
3466	9.9e-05
3478	4.62e-05
3490	5.94e-05
3502	5.94e-05
3514	6.16e-05
3526	1.1e-05
3538	8.36e-05
3550	7.48e-05
3562	9.02e-05
3574	9.46e-05
3586	0.000143
3598	0.000143
3610	0.0001518
3622	0.0001826
3634	0.0001364
3646	9.46e-05
3658	0.0001562
3670	0.000176
3682	0.0001716
3694	0.000154
3706	0.0001408
3718	0.000121
3730	0.000154
3742	0.0001452
3754	0.0001672
3766	0.0001452
3778	0.000132
3790	0.0001826
3802	0.0001584
3814	0.000143
3826	0.0001672
3838	0.0001386
