Infrared Spectrum: Methylenecyclohexane
Formula: C 7 H 12
CAS: 1192-37-6
State: gas
Instrument: HP-GC/MS/IRD
Origin: NIST Mass Spectrometry Data Center
1/CM	ABSORBANCE
550	0.0003213
562	8.67e-05
574	0.0001734
586	0.0002805
598	0.0003672
610	0.0006987
622	0.001122
634	0.0008568
646	0.0004233
658	0.0002499
670	0.0002295
682	0.0003162
694	0.0001887
706	0.0001785
718	0.0002703
730	0.0002601
742	0.000408
754	0.0004845
766	0.0005049
778	0.000408
790	0.0003927
802	0.0002703
814	0.0003213
826	0.0005916
838	0.0012597
850	0.002091
862	0.0029835
874	0.0048144
886	0.0072165
898	0.0063903
910	0.0038556
922	0.0012597
934	0.0005763
946	0.0004896
958	0.0006069
970	0.0007752
982	0.0009129
994	0.000969
1006	0.0007242
1018	0.0005202
1030	0.0004029
1042	0.000255
1054	0.0002703
1066	0.0002142
1078	0.0002601
1090	0.0003519
1102	0.0003621
1114	0.0003264
1126	0.0003774
1138	0.000408
1150	0.0004182
1162	0.0003009
1174	0.0002958
1186	0.0002091
1198	0.0002652
1210	0.0004233
1222	0.0006171
1234	0.0007803
1246	0.0007395
1258	0.000663
1270	0.0006273
1282	0.0004437
1294	0.0003621
1306	0.0003366
1318	0.0004386
1330	0.0006834
1342	0.0008364
1354	0.0007599
1366	0.000612
1378	0.0005916
1390	0.000663
1402	0.0007548
1414	0.0010455
1426	0.0021777
1438	0.0043197
1450	0.00561
1462	0.0038709
1474	0.0015963
1486	0.0005559
1498	0.0003264
1510	0.0002601
1522	0.0002448
1534	0.0002142
1546	0.0002244
1558	0.0002091
1570	0.0002397
1582	0.0003162
1594	0.0003723
1606	0.000459
1618	0.0008874
1630	0.0021879
1642	0.0036669
1654	0.0036669
1666	0.0021114
1678	0.0008976
1690	0.00051
1702	0.0002754
1714	0.0002091
1726	0.0002244
1738	0.0002499
1750	0.000255
1762	0.0003264
1774	0.0006069
1786	0.0008262
1798	0.0006987
1810	0.0003366
1822	0.0001632
1834	0.0001275
1846	0.0001326
1858	0.0001326
1870	0.0001071
1882	9.69e-05
1894	8.67e-05
1906	8.16e-05
1918	8.67e-05
1930	9.18e-05
1942	0.000102
1954	9.69e-05
1966	7.14e-05
1978	8.16e-05
1990	5.1e-05
2002	5.1e-05
2014	7.65e-05
2026	5.61e-05
2038	4.59e-05
2050	7.65e-05
2062	7.14e-05
2074	6.12e-05
2086	9.18e-05
2098	6.12e-05
2110	9.69e-05
2122	6.63e-05
2134	6.12e-05
2146	6.63e-05
2158	4.59e-05
2170	6.63e-05
2182	5.1e-05
2194	9.18e-05
2206	7.65e-05
2218	7.65e-05
2230	6.63e-05
2242	4.59e-05
2254	2.55e-05
2266	5.61e-05
2278	3.57e-05
2290	6.12e-05
2302	9.18e-05
2314	6.63e-05
2326	6.63e-05
2338	9.18e-05
2350	7.65e-05
2362	4.08e-05
2374	4.08e-05
2386	7.14e-05
2398	7.14e-05
2410	9.69e-05
2422	6.63e-05
2434	7.65e-05
2446	6.12e-05
2458	9.18e-05
2470	0.000102
2482	0.0001071
2494	8.67e-05
2506	9.18e-05
2518	9.69e-05
2530	9.69e-05
2542	0.0001377
2554	0.0001479
2566	0.0001734
2578	0.0002091
2590	0.000204
2602	0.0002091
2614	0.0002652
2626	0.0003519
2638	0.0003927
2650	0.0005406
2662	0.0005814
2674	0.0005916
2686	0.0004794
2698	0.0003213
2710	0.0002907
2722	0.0002856
2734	0.0002856
2746	0.0003519
2758	0.000408
2770	0.0005916
2782	0.0007191
2794	0.000867
2806	0.0010404
2818	0.0017901
2830	0.0038046
2842	0.0074766
2854	0.0119289
2866	0.0137802
2878	0.0110568
2890	0.0085833
2902	0.0099858
2914	0.0174726
2926	0.0359448
2938	0.0509235
2950	0.039015
2962	0.0158457
2974	0.0054366
2986	0.0040239
2998	0.0031161
3010	0.001632
3022	0.0008058
3034	0.0008364
3046	0.0012852
3058	0.0025704
3070	0.004284
3082	0.0039678
3094	0.0021675
3106	0.0007038
3118	0.0003723
3130	0.0003672
3142	0.0003009
3154	0.0002193
3166	0.0001836
3178	0.0001173
3190	0.0001173
3202	0.0001785
3214	0.0001836
3226	0.0001836
3238	0.0001887
3250	0.0001581
3262	0.0001173
3274	0.000153
3286	8.67e-05
3298	0.0001071
3310	0.0001581
3322	0.0001377
3334	0.0001632
3346	0.000153
3358	0.0001377
3370	0.0001377
3382	0.0001224
3394	0.0001479
3406	0.0001275
3418	0.0001224
3430	0.0001071
3442	0.0001122
3454	5.61e-05
3466	8.67e-05
3478	9.69e-05
3490	9.18e-05
3502	0.0001122
3514	3.57e-05
3526	4.59e-05
3538	8.67e-05
3550	0.0001224
3562	7.14e-05
3574	0.000102
3586	5.1e-05
3598	9.18e-05
3610	2.55e-05
3622	6.12e-05
3634	7.65e-05
3646	9.69e-05
3658	0.000102
3670	9.18e-05
3682	8.67e-05
3694	0.0001122
3706	0.0001224
3718	0.0001683
3730	0.0001071
3742	7.14e-05
3754	0.0001683
3766	0.0001836
3778	0.0001173
3790	0.0001785
3802	0.0001224
3814	0.0001326
3826	0.0001377
3838	0.000153
