Infrared Spectrum: Mercury, bromophenyl-
Formula: C6 H5 Br Hg
CAS: 1192-89-8
State: SOLID (SPLIT MULL), FLUOROLUBE FOR 3800-1330 CM^-^1, NUJOL FOR 1330-400 CM^-^1
Class: COBLENTZ III
Instrument: BECKMAN IR-9 (GRATING)
Instrument parameters: ORDER CHANGES: 670, 1200, 2000 CM^-^1
Sampling: TRANSMISSION
Resolution: 2
Origin: DOW CHEMICAL COMPANY
1/CM	TRANSMITTANCE
3798	0.573
3789	0.5726
3780	0.5721
3771	0.5726
3762	0.5735
3753	0.5766
3744	0.5792
3735	0.5815
3726	0.582
3717	0.5825
3708	0.5831
3699	0.5837
3690	0.5855
3681	0.5878
3672	0.5891
3663	0.5904
3654	0.5916
3645	0.5927
3636	0.5935
3627	0.5939
3618	0.5947
3609	0.5957
3600	0.5954
3591	0.5919
3582	0.5937
3573	0.5962
3564	0.5974
3555	0.5983
3546	0.5985
3537	0.5987
3528	0.5989
3519	0.599
3510	0.5992
3501	0.5993
3492	0.5996
3483	0.5999
3474	0.6002
3465	0.6005
3456	0.6008
3447	0.601
3438	0.6014
3429	0.6017
3420	0.6029
3411	0.6042
3402	0.6056
3393	0.6072
3384	0.6094
3375	0.6116
3366	0.6138
3357	0.616
3348	0.6184
3339	0.6207
3330	0.6231
3321	0.6254
3312	0.6281
3303	0.6308
3294	0.6335
3285	0.6354
3276	0.6367
3267	0.6379
3258	0.6394
3249	0.6411
3240	0.6431
3231	0.6448
3222	0.6465
3213	0.6482
3204	0.6499
3195	0.6517
3186	0.6558
3177	0.6556
3168	0.6575
3159	0.6594
3150	0.6615
3141	0.6638
3132	0.6661
3123	0.669
3114	0.6718
3105	0.6749
3096	0.6778
3087	0.6791
3078	0.6748
3069	0.6304
3060	0.6685
3051	0.6456
3042	0.611
3033	0.6736
3024	0.6771
3015	0.6684
3006	0.676
2997	0.6867
2988	0.6892
2979	0.6917
2970	0.6941
2961	0.6962
2952	0.6986
2943	0.7008
2934	0.7032
2925	0.7054
2916	0.7076
2907	0.7099
2898	0.7125
2889	0.7151
2880	0.7178
2871	0.7205
2862	0.7231
2853	0.7256
2844	0.7281
2835	0.7306
2826	0.7325
2817	0.7343
2808	0.7361
2799	0.7378
2790	0.7395
2781	0.7415
2772	0.7435
2763	0.7455
2754	0.7475
2745	0.7499
2736	0.7525
2727	0.7551
2718	0.7578
2709	0.7595
2700	0.7612
2691	0.7628
2682	0.7645
2673	0.7658
2664	0.7671
2655	0.7692
2646	0.7715
2637	0.7739
2628	0.7758
2619	0.7775
2610	0.7793
2601	0.7799
2592	0.7807
2583	0.7822
2574	0.7842
2565	0.7861
2556	0.7878
2547	0.7892
2538	0.7905
2529	0.7918
2520	0.793
2511	0.7938
2502	0.7946
2493	0.7954
2484	0.7961
2475	0.7965
2466	0.7967
2457	0.7968
2448	0.7969
2439	0.7975
2430	0.7985
2421	0.7994
2412	0.8003
2403	0.8008
2394	0.801
2385	0.801
2376	0.8008
2367	0.8001
2358	0.7998
2349	0.7999
2340	0.8011
2331	0.8024
2322	0.804
2313	0.8058
2304	0.8078
2295	0.8098
2286	0.8118
2277	0.8137
2268	0.8157
2259	0.8181
2250	0.821
2241	0.8245
2232	0.8282
2223	0.8321
2214	0.8349
2205	0.837
2196	0.8389
2187	0.8408
2178	0.8428
2169	0.8456
2160	0.8484
2151	0.8507
2142	0.853
2133	0.8554
2124	0.8578
2115	0.8608
2106	0.8639
2097	0.8667
2088	0.8691
2079	0.8713
2070	0.8727
2061	0.8737
2052	0.8748
2043	0.876
2034	0.877
2025	0.8771
2016	0.8781
2007	0.8795
1998	0.8796
1989	0.8804
1980	0.8789
1971	0.8757
1962	0.8715
1953	0.8648
1944	0.8817
1935	0.8856
1926	0.887
1917	0.8871
1908	0.887
1899	0.8848
1890	0.8838
1881	0.8678
1872	0.8685
1863	0.8925
1854	0.896
1845	0.8971
1836	0.8966
1827	0.8921
1818	0.8934
1809	0.8957
1800	0.9003
1791	0.9028
1782	0.9039
1773	0.905
1764	0.9012
1755	0.9003
1746	0.9074
1737	0.9075
1728	0.9081
1719	0.9085
1710	0.9078
1701	0.9071
1692	0.9064
1683	0.9059
1674	0.9059
1665	0.9043
1656	0.9021
1647	0.9015
1638	0.9018
1629	0.9051
1620	0.9064
1611	0.9124
1602	0.9141
1593	0.9111
1584	0.904
1575	0.819
1566	0.9075
1557	0.9138
1548	0.9131
1539	0.9101
1530	0.9078
1521	0.9092
1512	0.915
1503	0.9209
1494	0.9268
1485	0.9149
1476	0.7008
1467	0.9081
1458	0.9113
1449	0.9038
1440	0.8991
1431	0.2562
1422	0.8489
1413	0.8816
1404	0.8914
1395	0.8918
1386	0.8835
1377	0.8757
1368	0.8741
1359	0.8671
1350	0.8182
1341	0.8145
1332	0.7946
1323	0.8165
1314	0.8204
1305	0.8112
1296	0.8047
1287	0.8313
1278	0.8364
1269	0.8401
1260	0.8423
1251	0.8443
1242	0.8457
1233	0.8448
1224	0.8418
1215	0.8387
1206	0.8391
1197	0.8313
1188	0.8305
1179	0.8353
1170	0.8349
1161	0.7949
1152	0.8368
1143	0.8456
1134	0.8499
1125	0.8527
1116	0.8552
1107	0.8546
1098	0.846
1089	0.8511
1080	0.8533
1071	0.8527
1062	0.8057
1053	0.8515
1044	0.8566
1035	0.8601
1026	0.8588
1017	0.4587
1008	0.8421
999	0.5367
990	0.8528
981	0.8554
972	0.8567
963	0.8609
954	0.8657
945	0.8678
936	0.8715
927	0.8731
918	0.8711
909	0.8668
900	0.8739
891	0.8771
882	0.8848
873	0.8878
864	0.8888
855	0.8888
846	0.8887
837	0.8895
828	0.8899
819	0.8903
810	0.8911
801	0.8909
792	0.8904
783	0.889
774	0.8881
765	0.8878
756	0.8875
747	0.8741
738	0.8358
729	0.2172
720	0.6643
711	0.8528
702	0.8121
693	0.3454
684	0.8699
675	0.8693
666	0.8842
657	0.8909
648	0.8986
639	0.9023
630	0.9052
621	0.904
612	0.9031
603	0.9064
594	0.9081
585	0.9084
576	0.9078
567	0.9052
558	0.9013
549	0.8966
540	0.8907
531	0.884
522	0.8777
513	0.8688
504	0.8606
495	0.8523
486	0.8425
477	0.8285
468	0.8083
459	0.7547
450	0.6039
441	0.7189
432	0.6847
423	0.6661
414	0.6643
405	0.681
