Infrared Spectrum: 9-METHYL-3-OXO-9-AZABICYCLO[3.3.1]NONAN-7-OL, BENZILATE ESTER, METHOBROMIDE
Formula: C23 H28 Br N O4
CAS: 119299-34-2
State: SOLID (KBr DISC)
Class: COBLENTZ III
Instrument: PERKIN-ELMER 21 (GRATING)
Instrument parameters: NaCl PRISM
Sampling: TRANSMISSION
Resolution: 2
Origin: SMITH, KLINE & FRENCH LABS.
1/CM	TRANSMITTANCE
679	0.4987
688	0.3092
697	0.1554
706	0.4771
715	0.6829
724	0.6515
733	0.4772
742	0.3696
751	0.4636
760	0.261
769	0.6148
778	0.5825
787	0.7092
796	0.7339
805	0.7297
814	0.7128
823	0.6141
832	0.6683
841	0.6534
850	0.6594
859	0.6581
868	0.5682
877	0.6052
886	0.5179
895	0.5111
904	0.2827
913	0.1326
922	0.5289
931	0.6224
940	0.5336
949	0.5841
958	0.5014
967	0.3304
976	0.411
985	0.4061
994	0.1786
1003	0.2011
1012	0.305
1021	0.1549
1030	0.4081
1039	0.5023
1048	0.2701
1057	0.175
1066	0.4718
1075	0.3758
1084	0.5134
1093	0.346
1102	0.4902
1111	0.4389
1120	0.2728
1129	0.3731
1138	0.5405
1147	0.2985
1156	0.3985
1165	0.3525
1174	0.1938
1183	0.1106
1192	0.1595
1201	0.2133
1210	0.259
1219	0.143
1228	0.1045
1237	0.1077
1246	0.1478
1255	0.1754
1264	0.2472
1273	0.4454
1282	0.4388
1291	0.5326
1300	0.64
1309	0.644
1318	0.6269
1327	0.6325
1336	0.5907
1345	0.5002
1354	0.3722
1363	0.3103
1372	0.3388
1381	0.4014
1390	0.5106
1399	0.5775
1408	0.6597
1417	0.6279
1426	0.6389
1435	0.3942
1444	0.3988
1453	0.1781
1462	0.3116
1471	0.2851
1480	0.3776
1489	0.5239
1498	0.3407
1507	0.5106
1516	0.6914
1525	0.7256
1534	0.7444
1543	0.737
1552	0.7386
1561	0.74
1570	0.7397
1579	0.7239
1588	0.6981
1597	0.6812
1606	0.6243
1615	0.6629
1624	0.6652
1633	0.6532
1642	0.6546
1651	0.6579
1660	0.6635
1669	0.6563
1678	0.6406
1687	0.629
1696	0.6097
1705	0.538
1714	0.4788
1723	0.3945
1732	0.3013
1741	0.1742
1750	0.1191
1759	0.1753
1768	0.3825
1777	0.587
1786	0.6762
1795	0.712
1804	0.7176
1813	0.7157
1822	0.7092
1831	0.7209
1840	0.7355
1849	0.74
1858	0.7443
1867	0.733
1876	0.722
1885	0.7215
1894	0.7238
1903	0.7265
1912	0.7271
1921	0.7256
1930	0.723
1939	0.7194
1948	0.7105
1957	0.6898
1966	0.6958
1975	0.707
1984	0.7204
1993	0.728
2002	0.7276
2011	0.7268
2020	0.7259
2029	0.7238
2038	0.7212
2047	0.7178
2056	0.715
2065	0.7119
2074	0.7095
2083	0.7097
2092	0.7068
2101	0.7022
2110	0.7033
2119	0.7043
2128	0.7043
2137	0.7038
2146	0.7025
2155	0.7004
2164	0.6982
2173	0.6964
2182	0.6949
2191	0.693
2200	0.6908
2209	0.6887
2218	0.6862
2227	0.6837
2236	0.6815
2245	0.6801
2254	0.6787
2263	0.6774
2272	0.6761
2281	0.6748
2290	0.6717
2299	0.6621
2308	0.6538
2317	0.6502
2326	0.6485
2335	0.649
2344	0.6515
2353	0.6537
2362	0.6537
2371	0.653
2380	0.6524
2389	0.6511
2398	0.6492
2407	0.645
2416	0.6385
2425	0.636
2434	0.6337
2443	0.6314
2452	0.6291
2461	0.6273
2470	0.6255
2479	0.6237
2488	0.6218
2497	0.62
2506	0.6181
2515	0.6153
2524	0.6102
2533	0.6022
2542	0.6012
2551	0.6022
2560	0.6026
2569	0.602
2578	0.6012
2587	0.5987
2596	0.5954
2605	0.5921
2614	0.5888
2623	0.5858
2632	0.5835
2641	0.5812
2650	0.5807
2659	0.5807
2668	0.5797
2677	0.5756
2686	0.5714
2695	0.5672
2704	0.5632
2713	0.5603
2722	0.5583
2731	0.5577
2740	0.5568
2749	0.5555
2758	0.5541
2767	0.5509
2776	0.5465
2785	0.5414
2794	0.5362
2803	0.5309
2812	0.5254
2821	0.519
2830	0.4986
2839	0.4714
2848	0.4579
2857	0.4362
2866	0.4052
2875	0.3823
2884	0.3852
2893	0.3907
2902	0.3941
2911	0.3921
2920	0.3845
2929	0.3823
2938	0.3812
2947	0.3803
2956	0.379
2965	0.3777
2974	0.3768
2983	0.3783
2992	0.3901
3001	0.402
3010	0.4058
3019	0.398
3028	0.3865
3037	0.3779
3046	0.3858
3055	0.409
3064	0.4322
3073	0.4568
3082	0.4863
3091	0.5036
3100	0.52
3109	0.5305
3118	0.5354
3127	0.5383
3136	0.5375
3145	0.5357
3154	0.5317
3163	0.5266
3172	0.5223
3181	0.518
3190	0.5135
3199	0.5087
3208	0.5024
3217	0.4963
3226	0.491
3235	0.4859
3244	0.4807
3253	0.4751
3262	0.4682
3271	0.4614
3280	0.4546
3289	0.4477
3298	0.441
3307	0.4322
3316	0.423
3325	0.4118
3334	0.3965
3343	0.3817
3352	0.3706
3361	0.3589
3370	0.3471
3379	0.3351
3388	0.323
3397	0.3129
3406	0.3054
3415	0.2982
3424	0.2922
3433	0.2858
3442	0.2793
3451	0.2703
3460	0.2582
3469	0.2457
3478	0.2368
3487	0.2313
3496	0.2285
3505	0.2287
3514	0.2306
3523	0.2361
3532	0.2508
3541	0.2916
3550	0.3322
3559	0.3725
3568	0.4126
3577	0.4407
3586	0.4707
3595	0.4832
3604	0.4877
3613	0.4922
3622	0.4962
3631	0.5002
3640	0.5046
3649	0.5091
3658	0.5133
3667	0.5166
3676	0.5179
3685	0.5179
3694	0.5178
3703	0.5177
3712	0.5172
3721	0.5167
3730	0.5158
3739	0.5148
3748	0.5137
3757	0.5119
3766	0.5105
3775	0.51
3784	0.5094
3793	0.5092
3802	0.5088
3811	0.5078
3820	0.5062
3829	0.5031
3838	0.4999
3847	0.4973
3856	0.4951
3865	0.4931
3874	0.4919
3883	0.4907
3892	0.4895
3901	0.4889
3910	0.4884
3919	0.4879
3928	0.4874
3937	0.4869
3946	0.4863
3955	0.4857
3964	0.4837
3973	0.4814
3982	0.4794
3991	0.4779
4000	0.4774
