Infrared Spectrum: cis-1,2-Dimethylcyclopentane
Formula: C 7 H 14
CAS: 1192-18-3
State: gas
Instrument: HP-GC/MS/IRD
Origin: NIST Mass Spectrometry Data Center
1/CM	ABSORBANCE
550	0.0002322
562	0.000129
574	0.0002236
586	7.74e-05
598	0.0001118
610	0.0001376
622	0.0001548
634	0.0001118
646	0.000172
658	9.46e-05
670	9.46e-05
682	9.46e-05
694	8.6e-05
706	7.74e-05
718	0.0001032
730	0.000129
742	0.0001806
754	0.000215
766	0.0001978
778	0.0001978
790	0.0001634
802	0.0001032
814	0.0001204
826	6.88e-05
838	0.0001376
850	0.0001978
862	0.0001978
874	0.000258
886	0.0003096
898	0.0002494
910	0.0002236
922	0.000258
934	0.0004988
946	0.000903
958	0.0009202
970	0.0006192
982	0.0003956
994	0.000387
1006	0.0005848
1018	0.00086
1030	0.0008944
1042	0.0008256
1054	0.0007224
1066	0.000817
1078	0.0008772
1090	0.0007654
1102	0.0006192
1114	0.0004644
1126	0.0003096
1138	0.0002838
1150	0.0003096
1162	0.0002924
1174	0.0002924
1186	0.0002236
1198	0.0002666
1210	0.0002924
1222	0.000301
1234	0.0002838
1246	0.000258
1258	0.0002924
1270	0.0003182
1282	0.0003268
1294	0.0003268
1306	0.0003784
1318	0.0005676
1330	0.0010492
1342	0.0015308
1354	0.0019092
1366	0.0031992
1378	0.0046526
1390	0.0043946
1402	0.0022446
1414	0.0012384
1426	0.0016684
1438	0.003526
1450	0.005805
1462	0.0069918
1474	0.0061232
1486	0.0038098
1498	0.0017974
1510	0.0008256
1522	0.0004902
1534	0.0003182
1546	0.0002494
1558	0.0002064
1570	0.000172
1582	0.000172
1594	0.000172
1606	0.0001548
1618	0.0001634
1630	0.0001634
1642	0.0001548
1654	0.0001548
1666	0.0001548
1678	0.0001462
1690	0.000129
1702	7.74e-05
1714	6.02e-05
1726	7.74e-05
1738	6.02e-05
1750	5.16e-05
1762	3.44e-05
1774	5.16e-05
1786	4.3e-05
1798	6.02e-05
1810	4.3e-05
1822	3.44e-05
1834	4.3e-05
1846	6.02e-05
1858	4.3e-05
1870	5.16e-05
1882	5.16e-05
1894	3.44e-05
1906	2.58e-05
1918	3.44e-05
1930	1.72e-05
1942	3.44e-05
1954	8.6e-06
1966	8.6e-06
1978	0
1990	1.72e-05
2002	8.6e-06
2014	1.72e-05
2026	4.3e-05
2038	5.16e-05
2050	2.58e-05
2062	3.44e-05
2074	3.44e-05
2086	2.58e-05
2098	2.58e-05
2110	6.02e-05
2122	6.88e-05
2134	8.6e-05
2146	7.74e-05
2158	7.74e-05
2170	7.74e-05
2182	8.6e-05
2194	7.74e-05
2206	7.74e-05
2218	7.74e-05
2230	9.46e-05
2242	9.46e-05
2254	8.6e-05
2266	9.46e-05
2278	0.0001032
2290	0.0001032
2302	0.0001462
2314	0.0001634
2326	0.0001892
2338	0.0002064
2350	0.0001978
2362	0.0001548
2374	0.0001548
2386	0.0001462
2398	0.0001548
2410	0.0001462
2422	0.0001462
2434	0.000129
2446	0.000129
2458	0.0001376
2470	0.0001462
2482	0.0001548
2494	0.000172
2506	0.0001548
2518	0.0001806
2530	0.0001892
2542	0.0002322
2554	0.0002838
2566	0.000344
2578	0.0003956
2590	0.0004558
2602	0.0004988
2614	0.0005332
2626	0.0005332
2638	0.0005762
2650	0.0005934
2662	0.0006708
2674	0.0007482
2686	0.0007826
2698	0.0007396
2710	0.0007396
2722	0.00086
2734	0.001032
2746	0.001118
2758	0.0011352
2770	0.0011524
2782	0.0012814
2794	0.0015136
2806	0.0019006
2818	0.0025112
2830	0.0034056
2842	0.0051514
2854	0.0102684
2866	0.0216376
2878	0.0321554
2890	0.0339958
2902	0.0332992
2914	0.0381754
2926	0.043774
2938	0.0552206
2950	0.0739428
2962	0.0837726
2974	0.0606214
2986	0.0271244
2998	0.0091934
3010	0.0045666
3022	0.0029584
3034	0.002193
3046	0.0017544
3058	0.0014878
3070	0.00129
3082	0.0011782
3094	0.0010922
3106	0.0010062
3118	0.0009116
3130	0.0008772
3142	0.0008428
3154	0.0008514
3166	0.0008514
3178	0.0008256
3190	0.0007396
3202	0.0006192
3214	0.0004902
3226	0.000387
3238	0.0003698
3250	0.0003268
3262	0.0003268
3274	0.0002752
3286	0.0002924
3298	0.0002752
3310	0.0002494
3322	0.000258
3334	0.000215
3346	0.0001892
3358	0.0001462
3370	0.0001634
3382	0.0001204
3394	0.0001032
3406	0.000129
3418	0.000129
3430	0.0001204
3442	0.000129
3454	0.0001548
3466	0.0001376
3478	0.000129
3490	0.000129
3502	0.000129
3514	0.0001548
3526	0.0001806
3538	0.0001376
3550	0.0001376
3562	0.0001032
3574	0.0001376
3586	6.88e-05
3598	0.000129
3610	0.0001548
3622	0.000129
3634	0.0001204
3646	0.0001462
3658	0.0001376
3670	0.0001462
3682	0.0001462
3694	0.000172
3706	0.0001978
3718	0.0001806
3730	0.0001892
3742	0.0001892
3754	0.0001978
3766	0.0002064
3778	0.0001978
3790	0.0002236
3802	0.000215
3814	0.0002064
3826	0.0002408
3838	0.0002838
