Infrared Spectrum: 3,3-DIMETHYL PIPERIDINE
Formula: C7 H15 N
CAS: 1193-12-0
State: LIQUID
Boiling point: 51-52 C AT 39-40 mmHg
Class: COBLENTZ
Instrument: Not specified, most likely a prism, grating, or hybrid spectrometer.
Sampling: TRANSMISSION
Path length: SMEAR
Resolution: 4
Origin: TENNESSEE EASTMAN COMPANY, RESEARCH LABORATORIES
MICROMETERS	TRANSMITTANCE
2.055	0.986
2.09587	0.986
2.13675	0.988
2.17762	0.988
2.21849	0.986
2.25937	0.964
2.30024	0.929
2.34112	0.926
2.38199	0.928
2.42286	0.933
2.46374	0.936
2.50461	0.948
2.54548	0.953
2.58636	0.955
2.62723	0.953
2.6681	0.955
2.70898	0.958
2.74985	0.95
2.79072	0.936
2.8316	0.924
2.87247	0.897
2.91335	0.863
2.95422	0.811
2.99509	0.729
3.03597	0.561
3.07684	0.592
3.11771	0.707
3.15859	0.768
3.19946	0.803
3.24033	0.832
3.28121	0.844
3.32208	0.796
3.36296	0.325
3.40383	0.001
3.4447	0.042
3.48558	0.063
3.52645	0.246
3.56732	0.121
3.6082	0.287
3.64907	0.4
3.68994	0.41
3.73082	0.671
3.77169	0.672
3.81257	0.763
3.85344	0.779
3.89431	0.864
3.93519	0.902
3.97606	0.919
4.01693	0.907
4.05781	0.919
4.09868	0.924
4.13955	0.928
4.18043	0.933
4.2213	0.934
4.26217	0.929
4.30305	0.916
4.34392	0.921
4.3848	0.936
4.42567	0.938
4.46654	0.938
4.50742	0.938
4.54829	0.938
4.58916	0.941
4.63004	0.943
4.67091	0.941
4.71178	0.945
4.75266	0.943
4.79353	0.943
4.83441	0.941
4.87528	0.941
4.91615	0.94
4.95703	0.94
4.9979	0.945
5.03877	0.945
5.07965	0.938
5.12052	0.941
5.16139	0.941
5.20227	0.941
5.24314	0.94
5.28401	0.938
5.32489	0.941
5.36576	0.94
5.40664	0.948
5.44751	0.943
5.48838	0.943
5.52926	0.94
5.57013	0.938
5.611	0.934
5.65188	0.938
5.69275	0.919
5.73362	0.895
5.7745	0.881
5.81537	0.888
5.85625	0.881
5.89712	0.871
5.93799	0.854
5.97887	0.84
6.01974	0.84
6.06061	0.839
6.10149	0.837
6.14236	0.84
6.18323	0.849
6.22411	0.861
6.26498	0.869
6.30586	0.875
6.34673	0.878
6.3876	0.873
6.42848	0.859
6.46935	0.871
6.51022	0.864
6.5511	0.857
6.59197	0.84
6.63284	0.809
6.67372	0.777
6.71459	0.63
6.75546	0.375
6.79634	0.248
6.83721	0.188
6.87809	0.178
6.91896	0.226
6.95983	0.388
7.00071	0.626
7.04158	0.702
7.08245	0.743
7.12333	0.751
7.1642	0.652
7.20507	0.434
7.24595	0.571
7.28682	0.484
7.3277	0.458
7.36857	0.376
7.40944	0.623
7.45032	0.726
7.49119	0.717
7.53206	0.77
7.57294	0.714
7.61381	0.345
7.65468	0.46
7.69556	0.688
7.73643	0.753
7.7773	0.75
7.81818	0.772
7.85905	0.789
7.89993	0.791
7.9408	0.77
7.98167	0.765
8.02255	0.815
8.06342	0.821
8.10429	0.82
8.14517	0.809
8.18604	0.775
8.22691	0.715
8.26779	0.539
8.30866	0.44
8.34954	0.647
8.39041	0.678
8.43128	0.722
8.47216	0.705
8.51303	0.578
8.5539	0.458
8.59478	0.518
8.63565	0.465
8.67652	0.491
8.7174	0.578
8.75827	0.63
8.79915	0.599
8.84002	0.339
8.88089	0.268
8.92177	0.32
8.96264	0.284
9.00351	0.344
9.04439	0.546
9.08526	0.671
9.12613	0.72
9.16701	0.748
9.20788	0.768
9.24875	0.775
9.28963	0.768
9.3305	0.755
9.37138	0.748
9.41225	0.761
9.45312	0.761
9.494	0.743
9.53487	0.702
9.57574	0.671
9.61662	0.655
9.65749	0.642
9.69836	0.655
9.73924	0.738
9.78011	0.758
9.82099	0.767
9.86186	0.773
9.90273	0.773
9.94361	0.772
9.98448	0.751
10.0254	0.705
10.0662	0.64
10.1071	0.563
10.148	0.544
10.1888	0.546
10.2297	0.626
10.2706	0.719
10.3115	0.761
10.3523	0.761
10.3932	0.738
10.4341	0.744
10.475	0.751
10.5158	0.738
10.5567	0.705
10.5976	0.648
10.6385	0.575
10.6793	0.525
10.7202	0.488
10.7611	0.549
10.802	0.631
10.8428	0.66
10.8837	0.681
10.9246	0.64
10.9654	0.546
11.0063	0.446
11.0472	0.352
11.0881	0.363
11.1289	0.515
11.1698	0.648
11.2107	0.7
11.2516	0.72
11.2924	0.732
11.3333	0.734
11.3742	0.679
11.4151	0.568
11.4559	0.457
11.4968	0.306
11.5377	0.246
11.5786	0.272
11.6194	0.482
11.6603	0.654
11.7012	0.722
11.742	0.743
11.7829	0.756
11.8238	0.779
11.8647	0.787
11.9055	0.772
11.9464	0.731
11.9873	0.678
12.0282	0.686
12.069	0.703
12.1099	0.7
12.1508	0.683
12.1917	0.669
12.2325	0.645
12.2734	0.623
12.3143	0.609
12.3551	0.589
12.396	0.565
12.4369	0.544
12.4778	0.529
12.5186	0.501
12.5595	0.489
12.6004	0.477
12.6413	0.47
12.6821	0.467
12.723	0.46
12.7639	0.448
12.8048	0.434
12.8456	0.422
12.8865	0.402
12.9274	0.381
12.9683	0.361
13.0091	0.339
13.05	0.318
13.0909	0.301
13.1317	0.284
13.1726	0.268
13.2135	0.244
13.2544	0.229
13.2952	0.207
13.3361	0.198
13.377	0.203
13.4179	0.231
13.4587	0.268
13.4996	0.323
13.5405	0.38
13.5814	0.446
13.6222	0.515
13.6631	0.568
13.704	0.614
13.7449	0.64
13.7857	0.66
13.8266	0.654
13.8675	0.616
13.9083	0.544
13.9492	0.467
13.9901	0.4
14.031	0.34
14.0718	0.321
14.1127	0.321
14.1536	0.34
14.1945	0.359
14.2353	0.369
14.2762	0.381
14.3171	0.393
14.358	0.412
14.3988	0.438
14.4397	0.47
14.4806	0.5
14.5215	0.537
14.5623	0.563
14.6032	0.582
14.6441	0.604
14.6849	0.618
14.7258	0.626
14.7667	0.635
14.8076	0.643
14.8484	0.648
14.8893	0.652
14.9302	0.654
14.9711	0.652
15.0119	0.652
15.0528	0.655
15.0937	0.662
15.1346	0.66
15.1754	0.652
15.2163	0.65
15.2572	0.648
15.298	0.647
15.3389	0.642
15.3798	0.638
15.4207	0.635
15.4615	0.628
15.5024	0.625
15.5433	0.621
15.5842	0.616
15.625	0.614
15.6659	0.609
15.7068	0.606
15.7477	0.601
15.7885	0.595
15.8294	0.59
15.8703	0.589
15.9112	0.587
15.952	0.589
15.9929	0.583
