Infrared Spectrum: 3-Methyl-2-cyclohexen-1-one
Formula: C 7 H 10 O
CAS: 1193-18-6
State: gas
Instrument: HP-GC/MS/IRD
Origin: NIST Mass Spectrometry Data Center
1/CM	ABSORBANCE
550	0.0004515
562	0.0003675
574	3.85e-05
586	0.00014
598	3.85e-05
610	0.000112
622	0.000126
634	0.000133
646	0.000182
658	0.000112
670	0.0001715
682	0.000126
694	0.00021
706	0.000238
718	0.0002555
730	0.0003955
742	0.000784
754	0.000924
766	0.000693
778	0.000343
790	0.000455
802	0.0006195
814	0.0007
826	0.0005985
838	0.0005915
850	0.0005985
862	0.000756
874	0.0015645
886	0.003178
898	0.0023275
910	0.001232
922	0.000553
934	0.000504
946	0.0008785
958	0.0015085
970	0.001505
982	0.00084
994	0.00077
1006	0.001253
1018	0.0012635
1030	0.0007525
1042	0.000525
1054	0.000469
1066	0.000378
1078	0.0003185
1090	0.000329
1102	0.000413
1114	0.000623
1126	0.001659
1138	0.0023345
1150	0.001722
1162	0.0010675
1174	0.002058
1186	0.003332
1198	0.002905
1210	0.001512
1222	0.002618
1234	0.005348
1246	0.0062475
1258	0.003983
1270	0.0014595
1282	0.001204
1294	0.002086
1306	0.003346
1318	0.004109
1330	0.0040145
1342	0.003787
1354	0.003591
1366	0.002807
1378	0.003136
1390	0.0028735
1402	0.001491
1414	0.0021315
1426	0.003395
1438	0.003913
1450	0.003339
1462	0.0023485
1474	0.001239
1486	0.000665
1498	0.0005565
1510	0.000518
1522	0.000462
1534	0.000462
1546	0.000518
1558	0.0005985
1570	0.000623
1582	0.0007385
1594	0.001029
1606	0.0015715
1618	0.0025165
1630	0.0038675
1642	0.004424
1654	0.0044205
1666	0.0064085
1678	0.0127365
1690	0.028966
1702	0.035
1714	0.022603
1726	0.007161
1738	0.003486
1750	0.0018935
1762	0.0010605
1774	0.0008365
1786	0.000812
1798	0.00077
1810	0.0005285
1822	0.000273
1834	0.000196
1846	0.000182
1858	0.000189
1870	0.0001715
1882	0.000147
1894	0.00014
1906	0.000105
1918	9.45e-05
1930	9.8e-05
1942	0.000105
1954	8.4e-05
1966	5.6e-05
1978	5.25e-05
1990	4.9e-05
2002	5.95e-05
2014	3.5e-05
2026	7e-05
2038	5.25e-05
2050	2.45e-05
2062	0
2074	1.75e-05
2086	5.95e-05
2098	6.3e-05
2110	6.3e-05
2122	5.25e-05
2134	7.7e-05
2146	7.35e-05
2158	7e-05
2170	3.85e-05
2182	3.85e-05
2194	4.55e-05
2206	4.55e-05
2218	1.4e-05
2230	2.1e-05
2242	3.85e-05
2254	7e-05
2266	7e-05
2278	7.35e-05
2290	3.85e-05
2302	2.1e-05
2314	3.15e-05
2326	3.85e-05
2338	3.85e-05
2350	4.2e-05
2362	3.5e-05
2374	4.55e-05
2386	5.95e-05
2398	6.3e-05
2410	2.8e-05
2422	4.9e-05
2434	5.6e-05
2446	5.6e-05
2458	4.9e-05
2470	6.3e-05
2482	7e-05
2494	6.65e-05
2506	6.65e-05
2518	6.65e-05
2530	8.4e-05
2542	4.9e-05
2554	5.25e-05
2566	4.2e-05
2578	6.65e-05
2590	5.6e-05
2602	9.1e-05
2614	9.45e-05
2626	9.8e-05
2638	0.0001295
2650	0.000154
2662	0.000168
2674	0.0001855
2686	0.000175
2698	0.0002135
2710	0.0002205
2722	0.0002345
2734	0.000273
2746	0.0003115
2758	0.000273
2770	0.000266
2782	0.000294
2794	0.000399
2806	0.0005845
2818	0.0010885
2830	0.002205
2842	0.002681
2854	0.002786
2866	0.003731
2878	0.004935
2890	0.0050925
2902	0.005166
2914	0.007588
2926	0.0104825
2938	0.012607
2950	0.0107625
2962	0.008953
2974	0.0058205
2986	0.0034335
2998	0.0020615
3010	0.0012285
3022	0.001204
3034	0.0016135
3046	0.001638
3058	0.0011445
3070	0.00077
3082	0.0005705
3094	0.0004165
3106	0.000315
3118	0.000252
3130	0.00021
3142	0.0001785
3154	0.000175
3166	0.0001715
3178	0.000147
3190	0.0001085
3202	0.0001015
3214	0.00014
3226	8.75e-05
3238	9.1e-05
3250	8.4e-05
3262	9.8e-05
3274	0.0001365
3286	0.0001295
3298	0.000133
3310	8.75e-05
3322	0.000189
3334	0.0002275
3346	0.000315
3358	0.0004445
3370	0.000546
3382	0.000609
3394	0.0004865
3406	0.0003325
3418	0.000203
3430	0.000126
3442	0.0001085
3454	0.0001225
3466	6.65e-05
3478	8.05e-05
3490	3.5e-05
3502	5.95e-05
3514	7.35e-05
3526	3.85e-05
3538	5.25e-05
3550	2.8e-05
3562	3.5e-05
3574	3.5e-05
3586	1.05e-05
3598	6.3e-05
3610	4.55e-05
3622	6.3e-05
3634	4.2e-05
3646	7e-05
3658	3.85e-05
3670	8.4e-05
3682	6.3e-05
3694	5.95e-05
3706	6.3e-05
3718	5.6e-05
3730	0.0001225
3742	9.1e-05
3754	7e-05
3766	5.25e-05
3778	4.2e-05
3790	9.8e-05
3802	9.8e-05
3814	0.000105
3826	8.4e-05
3838	8.75e-05
