Infrared Spectrum: 1-Bromo-2,4-dichlorobenzene
Formula: C 6 H 3 Br Cl 2
CAS: 1193-72-2
State: gas
Origin: EPA-IR VAPOR PHASE LIBRARY
1/CM	ABSORBANCE
549.8	0.006937
559.445	0.002897
569.09	0.001417
578.734	0.001023
588.379	0.0009936
598.024	0.001557
607.669	0.001917
617.313	0.0007934
626.958	0.0006959
636.603	0.000743
646.248	0.0007748
655.893	0.001527
665.537	0.003857
675.182	0.004247
684.827	0.002327
694.472	0.0011235
704.116	0.0009938
713.761	0.0012672
723.406	0.0010459
733.051	0.0006804
742.695	0.0008601
752.34	0.001377
761.985	0.002627
771.63	0.001877
781.275	0.002577
790.919	0.010817
800.564	0.051487
810.209	0.073347
819.854	0.016477
829.498	0.005757
839.143	0.003587
848.788	0.003307
858.433	0.009587
868.078	0.020407
877.722	0.010127
887.367	0.002767
897.012	0.0011569
906.657	0.0011363
916.301	0.0009059
925.946	0.0009201
935.591	0.0008429
945.236	0.0011128
954.88	0.0009823
964.525	0.0012089
974.17	0.001607
983.815	0.001677
993.46	0.001367
1003.1	0.003927
1012.75	0.025987
1022.39	0.052287
1032.04	0.017897
1041.68	0.008197
1051.33	0.005267
1060.97	0.003597
1070.62	0.004497
1080.26	0.013537
1089.91	0.045467
1099.55	0.063017
1109.2	0.028607
1118.84	0.012287
1128.49	0.012697
1138.13	0.013577
1147.78	0.011597
1157.42	0.003707
1167.07	0.001707
1176.71	0.001627
1186.36	0.0011763
1196	0.001507
1205.64	0.001777
1215.29	0.002007
1224.93	0.003277
1234.58	0.004987
1244.22	0.007347
1253.87	0.005247
1263.51	0.002787
1273.16	0.0010854
1282.8	0.0008493
1292.45	0.0011267
1302.09	0.0010443
1311.74	0.0010608
1321.38	0.0009244
1331.03	0.001347
1340.67	0.003437
1350.32	0.010197
1359.96	0.018877
1369.61	0.018437
1379.25	0.010737
1388.9	0.005087
1398.54	0.003737
1408.18	0.011497
1417.83	0.016947
1427.47	0.006957
1437.12	0.013697
1446.76	0.074607
1456.41	0.104727
1466.05	0.014307
1475.7	0.004377
1485.34	0.005647
1494.99	0.006057
1504.63	0.002717
1514.28	0.001817
1523.92	0.002487
1533.57	0.004517
1543.21	0.009797
1552.86	0.017227
1562.5	0.024007
1572.15	0.020997
1581.79	0.007707
1591.44	0.002007
1601.08	0.001947
1610.73	0.002737
1620.37	0.002717
1630.01	0.001807
1639.66	0.001477
1649.3	0.001347
1658.95	0.00104
1668.59	0.000944
1678.24	0.0007035
1687.88	0.0007035
1697.53	0.0006568
1707.17	0.0007874
1716.82	0.0011689
1726.46	0.002267
1736.11	0.003007
1745.75	0.002307
1755.4	0.0012623
1765.04	0.0010151
1774.69	0.0009481
1784.33	0.0006369
1793.98	0.0006268
1803.62	0.0008117
1813.27	0.000898
1822.91	0.0007072
1832.55	0.0005312
1842.2	0.0004654
1851.84	0.0005984
1861.49	0.0008282
1871.13	0.001587
1880.78	0.002597
1890.42	0.002087
1900.07	0.0009539
1909.71	0.0006322
1919.36	0.0004674
1929	0.0005299
1938.65	0.000527
1948.29	0.0006423
1957.94	0.0006329
1967.58	0.000552
1977.23	0.0004668
1986.87	0.0004555
1996.52	0.00040856
2006.16	0.0004401
2015.81	0.0004767
2025.45	0.00043226
2035.1	0.0004074
2044.74	0.0004896
2054.38	0.0004506
2064.03	0.000464
2073.67	0.0004623
2083.32	0.0004535
2092.96	0.00037187
2102.61	0.0004308
2112.25	0.0004772
2121.9	0.0006061
2131.54	0.0005349
2141.19	0.000467
2150.83	0.00039657
2160.48	0.0004845
2170.12	0.000487
2179.77	0.00032911
2189.41	0.0002853
2199.06	0.00038922
2208.7	0.00035896
2218.35	0.00034898
2227.99	0.00041684
2237.64	0.0004518
2247.28	0.0004491
2256.92	0.0005113
2266.57	0.000592
2276.21	0.0005373
2285.86	0.000622
2295.5	0.0004556
2305.15	0.0004715
2314.79	0.00039762
2324.44	0.0004842
2334.08	0.0006775
2343.73	0.0006927
2353.37	0.0006283
2363.02	0.0005564
2372.66	0.0005147
2382.31	0.0004655
2391.95	0.0005344
2401.6	0.00040733
2411.24	0.00039546
2420.89	0.0003948
2430.53	0.0003161
2440.18	0.00036453
2449.82	0.00037367
2459.47	0.000345538
2469.11	0.0004955
2478.75	0.00043323
2488.4	0.0004669
2498.04	0.0005398
2507.69	0.0004957
2517.33	0.0004175
2526.98	0.00039764
2536.62	0.00034135
2546.27	0.000339024
2555.91	0.0002912
2565.56	0.000353
2575.2	0.0004748
2584.85	0.0005428
2594.49	0.0005047
2604.14	0.0004835
2613.78	0.0005143
2623.43	0.000472
2633.07	0.00040905
2642.72	0.000472
2652.36	0.00039984
2662.01	0.0004637
2671.65	0.00042711
2681.29	0.00043454
2690.94	0.0006852
2700.58	0.0004612
2710.23	0.00040046
2719.87	0.00036703
2729.52	0.00038953
2739.16	0.00034929
2748.81	0.00042666
2758.45	0.0003181
2768.1	0.0004736
2777.74	0.0007279
2787.39	0.0008905
2797.03	0.0009513
2806.68	0.0006128
2816.32	0.0004694
2825.97	0.00033333
2835.61	0.00042023
2845.26	0.000158
2854.9	0.000186
2864.55	0.000215
2874.19	0.00016
2883.84	8.9e-05
2893.48	0.000172
2903.12	0.0002479
2912.77	0.0003086
2922.41	0.00032758
2932.06	0.00037037
2941.7	0.000174
2951.35	0.0002588
2960.99	0.00029
2970.64	0.0002887
2980.28	0.00040617
2989.93	0.00041642
2999.57	0.000323
3009.22	0.000301
3018.86	0.0002826
3028.51	0.000159
3038.15	0.00042074
3047.8	0.000228
3057.44	0.0004941
3067.09	0.0009113
3076.73	0.0011868
3086.38	0.0008369
3096.02	0.0006837
3105.67	0.000514
3115.31	0.0004464
3124.95	0.00035451
3134.6	0.00041886
3144.24	0.00041443
3153.89	0.000246
3163.53	0.000192
3173.18	0.00033461
3182.82	0
3192.47	0.00038458
3202.11	0.0002561
3211.76	0.0002774
3221.4	0.000326
3231.05	0.0002883
3240.69	0.000225
3250.34	0.000149
3259.98	0.00042602
3269.63	0.000340681
3279.27	0.00027
3288.92	0.0002645
3298.56	0.000168
3308.21	0.0005026
3317.85	0.0003119
3327.49	0.0003741
3337.14	0.00036696
3346.78	0.0003059
3356.43	0.000255
3366.07	0.0002928
3375.72	0.000109
3385.36	0.000218
3395.01	0.00039817
3404.65	0.0004246
3414.3	0.00039656
3423.94	0.0002598
3433.59	0.0002515
3443.23	0.0003049
3452.88	0.00017
3462.52	0.00038668
3472.17	0.00032952
3481.81	0.00041784
3491.46	0.0002824
3501.1	0.000345867
3510.75	0.000192
3520.39	0.00041264
3530.04	0.0003739
3539.68	0.000121
3549.32	0.0002496
3558.97	0.000258
3568.61	0.0005224
3578.26	0.0003058
3587.9	0.000233
3597.55	0.000474
3607.19	0.0003135
3616.84	0.0004448
3626.48	0.000133
3636.13	0.0004479
3645.77	0.000468
3655.42	0.0005305
3665.06	0.00039634
3674.71	0.0002953
3684.35	0.0003218
3694	0.00036159
3703.64	0.0002429
3713.29	0.0004123
3722.93	0.00036061
3732.58	0.00038605
3742.22	0.00035417
3751.86	0.0005523
3761.51	0.0007724
3771.15	0.0005051
3780.8	0.0005521
3790.44	0.000342441
3800.09	0.00033558
3809.73	0.00033417
3819.38	0.000226
3829.02	0.0005669
3838.67	0.0005006
3848.31	0.0004555
3857.96	0.00036719
3867.6	0.0004477
3877.25	0.0006719
3886.89	0.0008985
3896.54	0.000502
3906.18	0.00042705
3915.83	0.0004395
3925.47	0.0005891
3935.12	0.0004496
3944.76	0.0004822
3954.41	0.0002805
3964.05	0.00042821
3973.69	0.00040715
3983.34	0.0003066
3992.98	0.00037916
