Infrared Spectrum: 2,2,4-Trimethyldioxolane
Formula: C6 H12 O2
CAS: 1193-11-9
State: SOLUTION (10% CCl4 FOR 3800-1335, 10% CS2 FOR 1335-430 CM^-^1)
Class: COBLENTZ III
Instrument: DOW KBr FOREPRISM-GRATING
Instrument parameters: BLAZED AT 3.5, 12.0, 20.0 MICRON AND CHANGED AT 5.0, 7.5, 14.9 MICRON
Sampling: TRANSMISSION
Path length: 0.011 CM, 0.010 CM
Resolution: 2
Origin: DOW CHEMICAL COMPANY
1/CM	TRANSMITTANCE
3786	0.9321
3777	0.9324
3768	0.9332
3759	0.9358
3750	0.9371
3741	0.9387
3732	0.9402
3723	0.9405
3714	0.9387
3705	0.9375
3696	0.9319
3687	0.9268
3678	0.9267
3669	0.9288
3660	0.9303
3651	0.9319
3642	0.933
3633	0.9345
3624	0.9368
3615	0.9374
3606	0.9376
3597	0.9378
3588	0.938
3579	0.9379
3570	0.9354
3561	0.9345
3552	0.9333
3543	0.9306
3534	0.9287
3525	0.9252
3516	0.9233
3507	0.9234
3498	0.9251
3489	0.9269
3480	0.9288
3471	0.9291
3462	0.9258
3453	0.9234
3444	0.9235
3435	0.9237
3426	0.9236
3417	0.9234
3408	0.923
3399	0.9225
3390	0.9218
3381	0.9224
3372	0.9231
3363	0.9229
3354	0.9228
3345	0.9233
3336	0.923
3327	0.9211
3318	0.9213
3309	0.9243
3300	0.9243
3291	0.9251
3282	0.9259
3273	0.9253
3264	0.9242
3255	0.9229
3246	0.9214
3237	0.9196
3228	0.9178
3219	0.9159
3210	0.9133
3201	0.9091
3192	0.9081
3183	0.9079
3174	0.9118
3165	0.9156
3156	0.918
3147	0.9195
3138	0.9224
3129	0.9236
3120	0.9242
3111	0.924
3102	0.924
3093	0.9267
3084	0.9174
3075	0.9161
3066	0.9092
3057	0.9011
3048	0.8904
3039	0.8758
3030	0.8236
3021	0.7756
3012	0.6012
3003	0.394
2994	0.0322
2985	0.0169
2976	0.0262
2967	0.2835
2958	0.3947
2949	0.3413
2940	0.1963
2931	0.1389
2922	0.3803
2913	0.3969
2904	0.3749
2895	0.3058
2886	0.2367
2877	0.1695
2868	0.1477
2859	0.2622
2850	0.5033
2841	0.6841
2832	0.7449
2823	0.7917
2814	0.8205
2805	0.8412
2796	0.8568
2787	0.8724
2778	0.8829
2769	0.8793
2760	0.8761
2751	0.8761
2742	0.8771
2733	0.8784
2724	0.8791
2715	0.8924
2706	0.8948
2697	0.8948
2688	0.8945
2679	0.8939
2670	0.8948
2661	0.904
2652	0.9097
2643	0.9009
2634	0.8885
2625	0.8905
2616	0.8981
2607	0.9049
2598	0.9083
2589	0.9116
2580	0.9147
2571	0.9175
2562	0.9214
2553	0.9254
2544	0.9294
2535	0.9339
2526	0.9374
2517	0.9352
2508	0.9332
2499	0.9332
2490	0.9342
2481	0.9362
2472	0.9376
2463	0.9383
2454	0.9374
2445	0.9395
2436	0.9401
2427	0.9403
2418	0.9403
2409	0.9407
2400	0.9418
2391	0.9412
2382	0.944
2373	0.9427
2364	0.9287
2355	0.9308
2346	0.9324
2337	0.9334
2328	0.9352
2319	0.9354
2310	0.9307
2301	0.9257
2292	0.9238
2283	0.9228
2274	0.9284
2265	0.9305
2256	0.9305
2247	0.9302
2238	0.9304
2229	0.9296
2220	0.9289
2211	0.9316
2202	0.9333
2193	0.932
2184	0.9296
2175	0.9274
2166	0.9238
2157	0.9224
2148	0.9245
2139	0.9272
2130	0.9305
2121	0.9322
2112	0.93
2103	0.9254
2094	0.9241
2085	0.9268
2076	0.9294
2067	0.9311
2058	0.932
2049	0.9327
2040	0.9302
2031	0.9256
2022	0.9223
2013	0.9178
2004	0.9166
1995	0.9183
1986	0.9217
1977	0.9215
1968	0.9204
1959	0.9336
1950	0.9209
1941	0.919
1932	0.9186
1923	0.9199
1914	0.9214
1905	0.9189
1896	0.9148
1887	0.9138
1878	0.9229
1869	0.9241
1860	0.9172
1851	0.8992
1842	0.8957
1833	0.8977
1824	0.895
1815	0.9098
1806	0.9179
1797	0.9158
1788	0.9159
1779	0.9152
1770	0.8967
1761	0.8836
1752	0.8924
1743	0.8971
1734	0.8884
1725	0.8801
1716	0.8802
1707	0.8883
1698	0.895
1689	0.9005
1680	0.9076
1671	0.91
1662	0.9061
1653	0.9059
1644	0.9019
1635	0.9024
1626	0.8997
1617	0.8975
1608	0.8862
1599	0.8549
1590	0.8374
1581	0.8534
1572	0.8031
1563	0.7872
1554	0.7886
1545	0.8634
1536	0.9081
1527	0.8942
1518	0.8908
1509	0.8804
1500	0.8671
1491	0.8406
1482	0.7321
1473	0.714
1464	0.4429
1455	0.4259
1446	0.5951
1437	0.771
1428	0.8094
1419	0.8314
1410	0.8308
1401	0.774
1392	0.4216
1383	0.0218
1374	0.0494
1365	0.4876
1356	0.7791
1347	0.7957
1338	0.772
1329	0.7546
1320	0.5645
1311	0.6871
1302	0.7608
1293	0.7664
1284	0.6466
1275	0.5261
1266	0.312
1257	0.1062
1248	0.0688
1239	0.0659
1230	0.0595
1221	0.0397
1212	0.05
1203	0.2347
1194	0.3793
1185	0.4173
1176	0.2261
1167	0.0927
1158	0.2968
1149	0.4775
1140	0.6271
1131	0.6592
1122	0.5148
1113	0.2825
1104	0.0601
1095	0.0392
1086	0.1976
1077	0.3399
1068	0.2534
1059	0.0195
1050	0.0742
1041	0.239
1032	0.3716
1023	0.7512
1014	0.8398
1005	0.8625
996	0.8587
987	0.6848
978	0.3723
969	0.8139
960	0.8558
951	0.7885
942	0.7678
933	0.7747
924	0.4944
915	0.5979
906	0.8716
897	0.8866
888	0.8112
879	0.6294
870	0.6422
861	0.4965
852	0.2433
843	0.0932
834	0.4972
825	0.6835
816	0.8329
807	0.9
798	0.8254
789	0.8053
780	0.9311
771	0.9549
762	0.9655
753	0.9724
744	0.9761
735	0.9748
726	0.972
717	0.9794
708	0.9812
699	0.9839
690	0.9837
681	0.9803
672	0.9751
663	0.9706
654	0.9526
645	0.9396
636	0.9529
627	0.954
618	0.9533
609	0.9397
600	0.9141
591	0.9239
582	0.9459
573	0.9546
564	0.9541
555	0.9467
546	0.9401
537	0.9175
528	0.8142
519	0.375
510	0.7848
501	0.876
492	0.8904
483	0.8948
474	0.8814
465	0.8724
456	0.8688
447	0.8665
438	0.8648
429	0.8644
420	0.8641
411	0.8639
402	0.8628
