Infrared Spectrum: 4,6-Dichloropyrimidine
Formula: C 4 H 2 Cl 2 N 2
CAS: 1193-21-1
State: gas
Origin: EPA-IR VAPOR PHASE LIBRARY
1/CM	ABSORBANCE
549.8	0.0017042
559.445	0.0016402
569.09	0.000487
578.734	0.0012581
588.379	0.000152
598.024	0.00106299
607.669	0.00109815
617.313	0.000943
626.958	0.0010101
636.603	0.000602
646.248	0.0012099
655.893	0.0010363
665.537	0.0019551
675.182	0.0012512
684.827	0.0012824
694.472	0.0015051
704.116	0.00436
713.761	0.01191
723.406	0.03028
733.051	0.03257
742.695	0.02417
752.34	0.0129
761.985	0.00635
771.63	0.00607
781.275	0.01176
790.919	0.05425
800.564	0.16566
810.209	0.17761
819.854	0.05742
829.498	0.03065
839.143	0.02555
848.788	0.0333
858.433	0.04517
868.078	0.02435
877.722	0.01059
887.367	0.0047
897.012	0.00297
906.657	0.00224
916.301	0.0021
925.946	0.00239
935.591	0.0024
945.236	0.00358
954.88	0.00415
964.525	0.00635
974.17	0.01011
983.815	0.00974
993.46	0.00592
1003.1	0.0019969
1012.75	0.00275
1022.39	0.00258
1032.04	0.00589
1041.68	0.00653
1051.33	0.00463
1060.97	0.00428
1070.62	0.02782
1080.26	0.07679
1089.91	0.07302
1099.55	0.01001
1109.2	0.0021
1118.84	0.00335
1128.49	0.00369
1138.13	0.00478
1147.78	0.00552
1157.42	0.01148
1167.07	0.01761
1176.71	0.02184
1186.36	0.02191
1196	0.01536
1205.64	0.0073
1215.29	0.00364
1224.93	0.00226
1234.58	0.00116605
1244.22	0.00244
1253.87	0.00461
1263.51	0.01363
1273.16	0.04163
1282.8	0.07983
1292.45	0.10075
1302.09	0.06701
1311.74	0.0318
1321.38	0.01236
1331.03	0.00962
1340.67	0.00737
1350.32	0.00573
1359.96	0.0065
1369.61	0.00613
1379.25	0.0069
1388.9	0.00691
1398.54	0.00657
1408.18	0.01855
1417.83	0.08549
1427.47	0.16456
1437.12	0.12077
1446.76	0.01516
1456.41	0.00628
1466.05	0.00729
1475.7	0.01164
1485.34	0.01914
1494.99	0.03082
1504.63	0.05235
1514.28	0.13351
1523.92	0.34895
1533.57	0.61871
1543.21	0.4814
1552.86	0.15454
1562.5	0.05166
1572.15	0.03081
1581.79	0.01752
1591.44	0.00745
1601.08	0.00442
1610.73	0.00362
1620.37	0.00422
1630.01	0.00451
1639.66	0.00368
1649.3	0.00244
1658.95	0.00282
1668.59	0.00398
1678.24	0.00418
1687.88	0.00347
1697.53	0.00314
1707.17	0.00392
1716.82	0.00361
1726.46	0.00317
1736.11	0.00248
1745.75	0.0019774
1755.4	0.0016642
1765.04	0.0012176
1774.69	0.0012882
1784.33	0.0013327
1793.98	0.0011455
1803.62	0.0013674
1813.27	0.001807
1822.91	0.0017747
1832.55	0.0015017
1842.2	0.0012844
1851.84	0.00115736
1861.49	0.0016148
1871.13	0.0016889
1880.78	0.00222
1890.42	0.00247
1900.07	0.00298
1909.71	0.00395
1919.36	0.00394
1929	0.00344
1938.65	0.00295
1948.29	0.00291
1957.94	0.00263
1967.58	0.00226
1977.23	0.0020651
1986.87	0.0019915
1996.52	0.0016946
2006.16	0.0015631
2015.81	0.0013562
2025.45	0.0014562
2035.1	0.0013625
2044.74	0.0014088
2054.38	0.0012601
2064.03	0.001506
2073.67	0.0017232
2083.32	0.0015565
2092.96	0.00267
2102.61	0.00253
2112.25	0.0020679
2121.9	0.001574
2131.54	0.0014426
2141.19	0.0015344
2150.83	0.0019397
2160.48	0.0020646
2170.12	0.0020482
2179.77	0.0016011
2189.41	0.0012252
2199.06	0.0012862
2208.7	0.0013946
2218.35	0.0017298
2227.99	0.00211
2237.64	0.0024
2247.28	0.0022
2256.92	0.00307
2266.57	0.00339
2276.21	0.00293
2285.86	0.00211
2295.5	0.0016809
2305.15	0.0020371
2314.79	0.0019783
2324.44	0.00225
2334.08	0.00263
2343.73	0.00274
2353.37	0.00294
2363.02	0.00284
2372.66	0.00228
2382.31	0.0017664
2391.95	0.0017705
2401.6	0.0018801
2411.24	0.0016429
2420.89	0.0015006
2430.53	0.0015409
2440.18	0.0018788
2449.82	0.0019387
2459.47	0.00221
2469.11	0.0020673
2478.75	0.00215
2488.4	0.0017584
2498.04	0.00235
2507.69	0.0028
2517.33	0.00279
2526.98	0.0021
2536.62	0.0011832
2546.27	0.0014736
2555.91	0.0018283
2565.56	0.001906
2575.2	0.0019757
2584.85	0.00161
2594.49	0.0020648
2604.14	0.0017286
2613.78	0.0018389
2623.43	0.0014671
2633.07	0.0015543
2642.72	0.0015957
2652.36	0.0019949
2662.01	0.0018361
2671.65	0.0019115
2681.29	0.00223
2690.94	0.00237
2700.58	0.00286
2710.23	0.00329
2719.87	0.00297
2729.52	0.0018917
2739.16	0.0014459
2748.81	0.0016045
2758.45	0.001209
2768.1	0.00113359
2777.74	0.0011834
2787.39	0.001303
2797.03	0.000665
2806.68	0.0012087
2816.32	0.0013464
2825.97	0.0015191
2835.61	0.0015127
2845.26	0.0015979
2854.9	0.0009845
2864.55	0.0013163
2874.19	0.001483
2883.84	0.000955
2893.48	0.0012239
2903.12	0.0012771
2912.77	0.0011763
2922.41	0.000758
2932.06	0.0013964
2941.7	0.0012984
2951.35	0.0009959
2960.99	0.0013558
2970.64	0.0016686
2980.28	0.00108758
2989.93	0.000864
2999.57	0.00109913
3009.22	0.000866
3018.86	0.001837
3028.51	0.0022
3038.15	0.00265
3047.8	0.00523
3057.44	0.00679
3067.09	0.00883
3076.73	0.01013
3086.38	0.00957
3096.02	0.00614
3105.67	0.00376
3115.31	0.00381
3124.95	0.00296
3134.6	0.0013271
3144.24	0.0012326
3153.89	0.0012905
3163.53	0.001258
3173.18	0.0012532
3182.82	0.0010494
3192.47	0.000897
3202.11	0.000724
3211.76	0.000942
3221.4	0.000791
3231.05	0.0012387
3240.69	0.000498
3250.34	0.000873
3259.98	0.0010447
3269.63	0.0014175
3279.27	0.00108482
3288.92	0.000636
3298.56	0.0010227
3308.21	0.00108298
3317.85	0.000702
3327.49	0.0010255
3337.14	0.0016203
3346.78	0.000886
3356.43	0.0011856
3366.07	0.000655
3375.72	0.000732
3385.36	0.0017049
3395.01	0.0010251
3404.65	0.000879
3414.3	0.0012618
3423.94	0.000714
3433.59	0.000949
3443.23	0.0012344
3452.88	0.000768
3462.52	0.000654
3472.17	0.000775
3481.81	0.0010091
3491.46	0.000851
3501.1	0.000966
3510.75	0.0012245
3520.39	0.00116334
3530.04	0.000896
3539.68	0.000781
3549.32	0.000683
3558.97	0.000818
3568.61	0.000438
3578.26	0.000625
3587.9	0.000688
3597.55	0.00075
3607.19	0.0014798
3616.84	0.000944
3626.48	0.00116511
3636.13	0.000955
3645.77	0.000886
3655.42	0.0011977
3665.06	0.000566
3674.71	0.000761
3684.35	0.0013686
3694	0.00025
3703.64	0.0010365
3713.29	0.001275
3722.93	0.000898
3732.58	0.0010195
3742.22	0.000633
3751.86	0.0019506
3761.51	0.00095
3771.15	0.00094
3780.8	0.00112356
3790.44	0.001459
3800.09	0.000715
3809.73	0.0014446
3819.38	0.001272
3829.02	0.0011507
3838.67	0.0013608
3848.31	0.0012158
3857.96	0.00108248
3867.6	0.0011623
3877.25	0.0010349
3886.89	0.000814
3896.54	0.000566
3906.18	0.00116683
3915.83	0.0017781
3925.47	0.0009933
3935.12	0.000784
3944.76	0.000683
3954.41	0.00110353
3964.05	0.0015036
3973.69	0.0010153
3983.34	0.000901
3992.98	0.0015415
