Infrared Spectrum: CYCLOPENTADIENYL PENTAMETHYL DISILOXANE
Formula: C10 H20 Si2 O
CAS: 119415-97-3
State: LIQUID
Class: COBLENTZ
Instrument: Not specified, most likely a prism, grating, or hybrid spectrometer.
Sampling: TRANSMISSION
Path length: 0.003 CM
Resolution: 4
Origin: WYANDOTTE CHEMICALS CORP., WYANDOTTE, MICHIGAN, USA
MICROMETERS	TRANSMITTANCE
2.046	0.996
2.08574	0.998
2.12547	0.996
2.16521	1.003
2.20495	0.985
2.24469	0.98
2.28442	0.981
2.32416	0.98
2.3639	0.98
2.40363	0.983
2.44337	0.986
2.48311	0.988
2.52285	0.975
2.56258	0.983
2.60232	0.971
2.64206	0.961
2.6818	0.97
2.72153	0.986
2.76127	0.983
2.80101	0.98
2.84074	0.99
2.88048	0.993
2.92022	0.995
2.95996	0.991
2.99969	0.988
3.03943	0.99
3.07917	0.976
3.1189	0.978
3.15864	0.963
3.19838	0.927
3.23812	0.733
3.27785	0.872
3.31759	0.836
3.35733	0.375
3.39706	0.239
3.4368	0.7
3.47654	0.707
3.51628	0.876
3.55601	0.897
3.59575	0.914
3.63549	0.953
3.67522	0.976
3.71496	0.98
3.7547	0.986
3.79444	0.98
3.83417	0.995
3.87391	0.996
3.91365	0.986
3.95339	0.993
3.99312	0.985
4.03286	0.985
4.0726	0.98
4.11233	0.985
4.15207	0.983
4.19181	0.986
4.23155	0.985
4.27128	1.004
4.31102	1.008
4.35076	1.006
4.39049	1
4.43023	0.99
4.46997	0.973
4.50971	0.985
4.54944	0.988
4.58918	0.99
4.62892	0.981
4.66865	0.98
4.70839	0.99
4.74813	0.99
4.78787	0.985
4.8276	0.98
4.86734	0.986
4.90708	0.981
4.94681	0.985
4.98655	0.985
5.02629	0.976
5.06603	0.966
5.10576	0.98
5.1455	0.966
5.18524	0.945
5.22498	0.933
5.26471	0.973
5.30445	0.978
5.34419	0.955
5.38392	0.983
5.42366	0.983
5.4634	0.968
5.50314	0.96
5.54287	0.961
5.58261	0.975
5.62235	0.968
5.66208	0.97
5.70182	0.963
5.74156	0.957
5.7813	0.952
5.82103	0.948
5.86077	0.953
5.90051	0.955
5.94024	0.95
5.97998	0.943
6.01972	0.957
6.05946	0.933
6.09919	0.859
6.13893	0.851
6.17867	0.852
6.21841	0.809
6.25814	0.857
6.29788	0.877
6.33762	0.889
6.37735	0.91
6.41709	0.919
6.45683	0.92
6.49657	0.922
6.5363	0.914
6.57604	0.912
6.61578	0.892
6.65551	0.874
6.69525	0.862
6.73499	0.879
6.77473	0.753
6.81446	0.748
6.8542	0.768
6.89394	0.76
6.93367	0.753
6.97341	0.768
7.01315	0.745
7.05289	0.647
7.09262	0.641
7.13236	0.697
7.1721	0.773
7.21183	0.694
7.25157	0.803
7.29131	0.788
7.33105	0.849
7.37078	0.862
7.41052	0.776
7.45026	0.833
7.49	0.857
7.52973	0.823
7.56947	0.801
7.60921	0.828
7.64894	0.826
7.68868	0.795
7.72842	0.727
7.76816	0.733
7.80789	0.654
7.84763	0.476
7.88737	0.204
7.9271	0.041
7.96684	0.029
8.00658	0.163
8.04632	0.542
8.08605	0.687
8.12579	0.765
8.16553	0.79
8.20526	0.829
8.245	0.828
8.28474	0.804
8.32448	0.834
8.36421	0.861
8.40395	0.877
8.44369	0.874
8.48343	0.856
8.52316	0.842
8.5629	0.821
8.60264	0.786
8.64237	0.766
8.68211	0.722
8.72185	0.685
8.76159	0.624
8.80132	0.557
8.84106	0.494
8.8808	0.393
8.92053	0.322
8.96027	0.277
9.00001	0.242
9.03975	0.161
9.07948	0.107
9.11922	0.064
9.15896	0.038
9.19869	0.033
9.23843	0.029
9.27817	0.028
9.31791	0.028
9.35764	0.028
9.39738	0.028
9.43712	0.028
9.47685	0.029
9.51659	0.031
9.55633	0.034
9.59607	0.041
9.6358	0.074
9.67554	0.12
9.71528	0.17
9.75502	0.226
9.79475	0.289
9.83449	0.249
9.87423	0.325
9.91396	0.408
9.9537	0.441
9.99344	0.381
10.0332	0.304
10.0729	0.269
10.1126	0.224
10.1524	0.152
10.1921	0.099
10.2319	0.077
10.2716	0.099
10.3113	0.196
10.3511	0.345
10.3908	0.414
10.4305	0.408
10.4703	0.238
10.51	0.102
10.5498	0.19
10.5895	0.401
10.6292	0.566
10.669	0.646
10.7087	0.689
10.7484	0.697
10.7882	0.715
10.8279	0.723
10.8677	0.712
10.9074	0.692
10.9471	0.642
10.9869	0.507
11.0266	0.406
11.0663	0.502
11.1061	0.476
11.1458	0.442
11.1856	0.466
11.2253	0.477
11.265	0.438
11.3048	0.365
11.3445	0.276
11.3842	0.208
11.424	0.157
11.4637	0.127
11.5035	0.133
11.5432	0.125
11.5829	0.1
11.6227	0.061
11.6624	0.042
11.7021	0.036
11.7419	0.036
11.7816	0.031
11.8213	0.031
11.8611	0.029
11.9008	0.028
11.9406	0.029
11.9803	0.033
12.02	0.046
12.0598	0.061
12.0995	0.08
12.1392	0.089
12.179	0.067
12.2187	0.047
12.2585	0.069
12.2982	0.085
12.3379	0.105
12.3777	0.085
12.4174	0.069
12.4571	0.041
12.4969	0.041
12.5366	0.038
12.5764	0.041
12.6161	0.059
12.6558	0.107
12.6956	0.152
12.7353	0.15
12.775	0.153
12.8148	0.193
12.8545	0.244
12.8943	0.299
12.934	0.315
12.9737	0.292
13.0135	0.231
13.0532	0.147
13.0929	0.094
13.1327	0.077
13.1724	0.09
13.2122	0.109
13.2519	0.115
13.2916	0.133
13.3314	0.173
13.3711	0.204
13.4108	0.211
13.4506	0.216
13.4903	0.264
13.53	0.325
13.5698	0.393
13.6095	0.424
13.6493	0.434
13.689	0.421
13.7287	0.393
13.7685	0.333
13.8082	0.277
13.8479	0.244
13.8877	0.236
13.9274	0.28
13.9672	0.327
14.0069	0.358
14.0466	0.376
14.0864	0.39
14.1261	0.404
14.1658	0.4
14.2056	0.368
14.2453	0.31
14.2851	0.249
14.3248	0.195
14.3645	0.152
14.4043	0.135
14.444	0.142
14.4837	0.173
14.5235	0.203
14.5632	0.244
14.603	0.282
14.6427	0.315
14.6824	0.34
14.7222	0.386
14.7619	0.439
14.8016	0.484
14.8414	0.552
14.8811	0.596
14.9209	0.624
14.9606	0.638
15.0003	0.657
15.0401	0.687
15.0798	0.709
15.1195	0.717
15.1593	0.733
15.199	0.753
15.2387	0.773
15.2785	0.795
15.3182	0.811
15.358	0.816
15.3977	0.821
15.4374	0.818
15.4772	0.818
15.5169	0.818
15.5566	0.821
15.5964	0.813
15.6361	0.801
15.6759	0.785
15.7156	0.776
15.7553	0.773
15.7951	0.76
15.8348	0.765
15.8745	0.755
15.9143	0.77
15.954	0.778
15.9938	0.78
