Infrared Spectrum: 2,6-Dichloronitrosobenzene
Formula: C 6 H 3 Cl 2 N O
CAS: 1194-66-7
State: gas
Origin: EPA-IR VAPOR PHASE LIBRARY
1/CM	ABSORBANCE
549.8	0.00038
559.445	0.001134
569.09	0.002
578.734	0.000464
588.379	0.0011317
598.024	0.000411
607.669	0.0011821
617.313	0.000737
626.958	0.0012366
636.603	0.0011047
646.248	0.0009037
655.893	0.0018019
665.537	0.0012693
675.182	0.0016392
684.827	0.0015063
694.472	0.0015137
704.116	0.0018261
713.761	0.0017845
723.406	0.00232
733.051	0.001955
742.695	0.00261
752.34	0.00326
761.985	0.00639
771.63	0.01063
781.275	0.0118
790.919	0.00734
800.564	0.00492
810.209	0.00367
819.854	0.00548
829.498	0.00652
839.143	0.00685
848.788	0.00531
858.433	0.0029
868.078	0.0015995
877.722	0.0014211
887.367	0.0015016
897.012	0.0012043
906.657	0.001419
916.301	0.00107651
925.946	0.0011534
935.591	0.0009029
945.236	0.0015699
954.88	0.00108722
964.525	0.0011879
974.17	0.000853
983.815	0.0011566
993.46	0.0018133
1003.1	0.0012566
1012.75	0.0025
1022.39	0.0021
1032.04	0.0016884
1041.68	0.0019379
1051.33	0.00255
1060.97	0.00361
1070.62	0.0019026
1080.26	0.0024
1089.91	0.00469
1099.55	0.00724
1109.2	0.00564
1118.84	0.00495
1128.49	0.00478
1138.13	0.00273
1147.78	0.00297
1157.42	0.0019859
1167.07	0.0017573
1176.71	0.00214
1186.36	0.00426
1196	0.00517
1205.64	0.0034
1215.29	0
1224.93	0.0009827
1234.58	0.000956
1244.22	0.0011541
1253.87	0.000573
1263.51	0.000409
1273.16	0.0011408
1282.8	0.0015293
1292.45	0.0009774
1302.09	0.00105469
1311.74	0.0009486
1321.38	0.0012145
1331.03	0.00109703
1340.67	0.0012542
1350.32	0.0013473
1359.96	0.0011122
1369.61	0.001356
1379.25	0.0019583
1388.9	0.00245
1398.54	0.0023
1408.18	0.0019924
1417.83	0.00374
1427.47	0.01003
1437.12	0.01148
1446.76	0.0053
1456.41	0.00261
1466.05	0.00221
1475.7	0.00237
1485.34	0.00264
1494.99	0.00315
1504.63	0.00382
1514.28	0.00703
1523.92	0.01551
1533.57	0.01718
1543.21	0.00906
1552.86	0.00619
1562.5	0.00937
1572.15	0.00937
1581.79	0.0033
1591.44	0.00229
1601.08	0.001889
1610.73	0.0016396
1620.37	0.0015467
1630.01	0.0011354
1639.66	0.0013165
1649.3	0.0012836
1658.95	0.000889
1668.59	0.0012558
1678.24	0.0012817
1687.88	0.0009653
1697.53	0.0009807
1707.17	0.00108758
1716.82	0.0009896
1726.46	0.00101674
1736.11	0.00099011
1745.75	0.00108937
1755.4	0.00101443
1765.04	0.00108503
1774.69	0.0011829
1784.33	0.0013981
1793.98	0.00107417
1803.62	0.00107869
1813.27	0.0011407
1822.91	0.00089
1832.55	0.0011902
1842.2	0.0012585
1851.84	0.0011014
1861.49	0.001379
1871.13	0.0010785
1880.78	0.0009916
1890.42	0.0011776
1900.07	0.00106535
1909.71	0.0012236
1919.36	0.001241
1929	0.001553
1938.65	0.0014795
1948.29	0.0012755
1957.94	0.0011436
1967.58	0.0011225
1977.23	0.0011794
1986.87	0.00108288
1996.52	0.0011025
2006.16	0.00103283
2015.81	0.00108311
2025.45	0.0011063
2035.1	0.0011781
2044.74	0.0012406
2054.38	0.0011449
2064.03	0.0012143
2073.67	0.0013351
2083.32	0.0011147
2092.96	0.00109633
2102.61	0.0011468
2112.25	0.0011132
2121.9	0.0010854
2131.54	0.00109453
2141.19	0.0011966
2150.83	0.0011529
2160.48	0.0010872
2170.12	0.0011287
2179.77	0.0011997
2189.41	0.0011279
2199.06	0.0012865
2208.7	0.0012787
2218.35	0.0011918
2227.99	0.0009779
2237.64	0.0012272
2247.28	0.0009879
2256.92	0.0011456
2266.57	0.0009562
2276.21	0.0012293
2285.86	0.00100601
2295.5	0.0012169
2305.15	0.0012684
2314.79	0.0012534
2324.44	0.0012406
2334.08	0.00101381
2343.73	0.00100525
2353.37	0.0011527
2363.02	0.0011831
2372.66	0.0012589
2382.31	0.0012191
2391.95	0.0011036
2401.6	0.0013706
2411.24	0.0011278
2420.89	0.00109174
2430.53	0.0011212
2440.18	0.00109071
2449.82	0.00103363
2459.47	0.0012272
2469.11	0.0011335
2478.75	0.0011346
2488.4	0.00077
2498.04	0.0011421
2507.69	0.0009658
2517.33	0.00124
2526.98	0.00103403
2536.62	0.00125
2546.27	0.0012783
2555.91	0.00104653
2565.56	0.0012281
2575.2	0.000881
2584.85	0.0013116
2594.49	0.0013524
2604.14	0.0013956
2613.78	0.00103539
2623.43	0.0012249
2633.07	0.001373
2642.72	0.0012962
2652.36	0.00108315
2662.01	0.0012164
2671.65	0.0012559
2681.29	0.0014376
2690.94	0.0013201
2700.58	0.0009841
2710.23	0.0009602
2719.87	0.0011828
2729.52	0.0013049
2739.16	0.0014096
2748.81	0.001152
2758.45	0.0010828
2768.1	0.0013341
2777.74	0.0013721
2787.39	0.0012746
2797.03	0.0011077
2806.68	0.0014358
2816.32	0.0014046
2825.97	0.0012151
2835.61	0.0011078
2845.26	0.0011257
2854.9	0.0016039
2864.55	0.0011649
2874.19	0.0012487
2883.84	0.0012319
2893.48	0.0014687
2903.12	0.0013285
2912.77	0.0012644
2922.41	0.0012275
2932.06	0.0013326
2941.7	0.00107827
2951.35	0.0013602
2960.99	0.00107186
2970.64	0.0012958
2980.28	0.0012192
2989.93	0.0015692
2999.57	0.00107011
3009.22	0.0014792
3018.86	0.0013441
3028.51	0.001412
3038.15	0.0013398
3047.8	0.0012409
3057.44	0.0013296
3067.09	0.00213
3076.73	0.0019944
3086.38	0.001855
3096.02	0.0016201
3105.67	0.0014479
3115.31	0.0013762
3124.95	0.0014098
3134.6	0.0015139
3144.24	0.0012475
3153.89	0.001325
3163.53	0.0014763
3173.18	0.0011641
3182.82	0.00100047
3192.47	0.000548
3202.11	0.0012792
3211.76	0.0011333
3221.4	0.0009113
3231.05	0.0015908
3240.69	0.0010971
3250.34	0.0012419
3259.98	0.00100622
3269.63	0.0009255
3279.27	0.0009555
3288.92	0.001122
3298.56	0.00099099
3308.21	0.0011851
3317.85	0.0013577
3327.49	0.0009692
3337.14	0.0016143
3346.78	0.0012623
3356.43	0.0012881
3366.07	0.0011481
3375.72	0.0013802
3385.36	0.00102182
3395.01	0.00100297
3404.65	0.00108193
3414.3	0.0009339
3423.94	0.00101035
3433.59	0.000801
3443.23	0.0014323
3452.88	0.0015058
3462.52	0.0012019
3472.17	0.00104379
3481.81	0.000806
3491.46	0.00102358
3501.1	0.001319
3510.75	0.0012562
3520.39	0.000863
3530.04	0.00103353
3539.68	0.00108099
3549.32	0.0009175
3558.97	0.00073
3568.61	0.00102819
3578.26	0.00147
3587.9	0.001316
3597.55	0.0013858
3607.19	0.0013718
3616.84	0.00102932
3626.48	0.001581
3636.13	0.0011321
3645.77	0.0012584
3655.42	0.00108426
3665.06	0.0009173
3674.71	0.0016085
3684.35	0.001602
3694	0.0011853
3703.64	0.0011412
3713.29	0.0014361
3722.93	0.000954
3732.58	0.0015065
3742.22	0.0005
3751.86	0.00101388
3761.51	0.00108809
3771.15	0.0011078
3780.8	0.0015875
3790.44	0.0015042
3800.09	0.0015026
3809.73	0.00102466
3819.38	0.0011065
3829.02	0.001166
3838.67	0.0016708
3848.31	0.0015257
3857.96	0.0011791
3867.6	0.0011316
3877.25	0.0012419
3886.89	0.0012417
3896.54	0.0015824
3906.18	0.00106037
3915.83	0.0014367
3925.47	0.0014957
3935.12	0.0015081
3944.76	0.0013404
3954.41	0.0014328
3964.05	0.002
3973.69	0.001561
3983.34	0.001251
3992.98	0.0012987
