Infrared Spectrum: BENZONITRILE, 2,6-DICHLORO-
Formula: C7 H3 Cl2 N
CAS: 1194-65-6
State: SOLUTION (1% IN CCl4 FOR 4000-1300, 1% IN CS2 FOR 1300-200 CM^-^1)
Melting point: 145 C
Class: COBLENTZ III
Instrument: PERKIN-ELMER 180
Sampling: TRANSMISSION
Path length: 0.113, 0.110 CM
Resolution: 4
Origin: DOW CHEMICAL COMPANY
1/CM	TRANSMITTANCE
226.138	0.01
236.711	0.033
247.283	0.08
257.856	0.136
268.429	0.2
279.001	0.239
289.574	0.26
300.147	0.311
310.72	0.372
321.292	0.403
331.865	0.431
342.438	0.467
353.01	0.515
363.583	0.552
374.156	0.571
384.728	0.605
395.301	0.636
405.874	0.661
416.447	0.683
427.019	0.7
437.592	0.723
448.165	0.732
458.737	0.75
469.31	0.773
479.883	0.785
490.455	0.799
501.028	0.823
511.601	0.849
522.174	0.866
532.746	0.877
543.319	0.809
553.892	0.8589
564.464	0.889
575.037	0.882
585.61	0.871
596.182	0.851
606.755	0.829
617.328	0.797
627.901	0.724
638.473	0.6
649.046	0.461
659.619	0.5309
670.191	0.6779
680.764	0.737
691.337	0.753
701.909	0.755
712.482	0.6901
723.055	0.7309
733.628	0.809
744.2	0.837
754.773	0.834
765.346	0.7691
775.918	0.1756
786.491	0.3768
797.064	0.3244
807.636	0.0909
818.209	0.737
828.782	0.705
839.355	0.497
849.927	0.13
860.5	0.091
871.073	0.1829
881.645	0.3019
892.218	0.5739
902.791	0.7669
913.363	0.845
923.936	0.869
934.509	0.894
945.082	0.904
955.654	0.877
966.227	0.9
976.8	0.8779
987.372	0.914
997.945	0.914
1008.52	0.901
1019.09	0.879
1029.66	0.88
1040.24	0.88
1050.81	0.878
1061.38	0.887
1071.95	0.891
1082.53	0.894
1093.1	0.7971
1103.67	0.773
1114.24	0.6914
1124.82	0.889
1135.39	0.883
1145.96	0.879
1156.54	0.843
1167.11	0.875
1177.68	0.848
1188.25	0.7752
1198.83	0.045
1209.4	0.876
1219.97	0.91
1230.54	0.921
1241.12	0.926
1251.69	0.925
1262.26	0.837
1272.84	0.922
1283.41	0.922
1293.98	0.904
1304.55	0.89
1315.13	0.885
1325.7	0.858
1336.27	0.883
1346.84	0.884
1357.42	0.867
1367.99	0.864
1378.56	0.872
1389.13	0.857
1399.71	0.823
1410.28	0.758
1420.85	0.5561
1431.43	0.004
1442	0.6139
1452.57	0.724
1463.14	0.662
1473.72	0.542
1484.29	0.38
1494.86	0.19
1505.43	0.084
1516.01	0.031
1526.58	0.008
1537.15	0.002
1547.73	0
1558.3	0
1568.87	0.002
1579.44	0.012
1590.02	0.064
1600.59	0.251
1611.16	0.4699
1621.73	0.6668
1632.31	0.764
1642.88	0.816
1653.45	0.848
1664.03	0.848
1674.6	0.849
1685.17	0.879
1695.74	0.893
1706.32	0.903
1716.89	0.905
1727.46	0.907
1738.03	0.899
1748.61	0.889
1759.18	0.903
1769.75	0.898
1780.32	0.872
1790.9	0.845
1801.47	0.862
1812.04	0.855
1822.62	0.845
1833.19	0.837
1843.76	0.827
1854.33	0.816
1864.91	0.787
1875.48	0.853
1886.05	0.87
1896.62	0.872
1907.2	0.877
1917.77	0.885
1928.34	0.887
1938.92	0.8451
1949.49	0.849
1960.06	0.869
1970.63	0.864
1981.21	0.848
1991.78	0.838
2002.35	0.835
2012.92	0.849
2023.5	0.866
2034.07	0.8755
2044.64	0.88
2055.21	0.8914
2065.79	0.9009
2076.36	0.9075
2086.93	0.913
2097.51	0.915
2108.08	0.915
2118.65	0.9135
2129.22	0.918
2139.8	0.9195
2150.37	0.919
2160.94	0.917
2171.51	0.9141
2182.09	0.9121
2192.66	0.9062
2203.23	0.8986
2213.81	0.8869
2224.38	0.8644
2234.95	0.6474
2245.52	0.823
2256.1	0.7929
2266.67	0.7359
2277.24	0.7057
2287.81	0.6968
2298.39	0.7175
2308.96	0.7322
2319.53	0.7537
2330.11	0.7758
2340.68	0.8162
2351.25	0.8441
2361.82	0.8626
2372.4	0.8781
2382.97	0.8918
2393.54	0.9004
2404.11	0.9079
2414.69	0.9144
2425.26	0.9179
2435.83	0.919
2446.4	0.9181
2456.98	0.908
2467.55	0.9199
2478.12	0.921
2488.7	0.9192
2499.27	0.92
2509.84	0.921
2520.41	0.921
2530.99	0.92
2541.56	0.918
2552.13	0.918
2562.7	0.9177
2573.28	0.914
2583.85	0.908
2594.42	0.9096
2605	0.912
2615.57	0.9102
2626.14	0.8996
2636.71	0.9071
2647.29	0.9133
2657.86	0.9132
2668.43	0.9107
2679	0.91
2689.58	0.9091
2700.15	0.9128
2710.72	0.914
2721.29	0.914
2731.87	0.912
2742.44	0.914
2753.01	0.915
2763.59	0.9118
2774.16	0.9139
2784.73	0.9095
2795.3	0.9183
2805.88	0.9172
2816.45	0.9117
2827.02	0.9062
2837.59	0.9105
2848.17	0.915
2858.74	0.9172
2869.31	0.919
2879.89	0.9188
2890.46	0.918
2901.03	0.914
2911.6	0.913
2922.18	0.91
2932.75	0.91
2943.32	0.911
2953.89	0.912
2964.47	0.9093
2975.04	0.8996
2985.61	0.9032
2996.19	0.8996
3006.76	0.8984
3017.33	0.9024
3027.9	0.901
3038.48	0.8976
3049.05	0.8883
3059.62	0.8757
3070.19	0.8848
3080.77	0.8593
3091.34	0.8704
3101.91	0.8843
3112.48	0.889
3123.06	0.8937
3133.63	0.8955
3144.2	0.891
3154.78	0.8943
3165.35	0.9023
3175.92	0.905
3186.49	0.907
3197.07	0.9101
3207.64	0.912
3218.21	0.912
3228.78	0.912
3239.36	0.912
3249.93	0.912
3260.5	0.912
3271.08	0.912
3281.65	0.911
3292.22	0.9088
3302.79	0.911
3313.37	0.911
3323.94	0.91
3334.51	0.91
3345.08	0.911
3355.66	0.911
3366.23	0.911
3376.8	0.911
3387.37	0.911
3397.95	0.911
3408.52	0.911
3419.09	0.911
3429.67	0.91
3440.24	0.904
3450.81	0.911
3461.38	0.912
3471.96	0.914
3482.53	0.913
3493.1	0.911
3503.67	0.912
3514.25	0.9141
3524.82	0.915
3535.39	0.917
3545.97	0.918
3556.54	0.919
3567.11	0.9185
3577.68	0.914
3588.26	0.9151
3598.83	0.92
3609.4	0.918
3619.97	0.917
3630.55	0.917
3641.12	0.914
3651.69	0.9175
3662.27	0.919
3672.84	0.917
3683.41	0.919
3693.98	0.92
3704.56	0.92
3715.13	0.9205
3725.7	0.922
3736.27	0.9245
3746.85	0.925
3757.42	0.926
3767.99	0.927
3778.56	0.927
3789.14	0.927
3799.71	0.9265
3810.28	0.926
3820.86	0.925
3831.43	0.9221
3842	0.918
3852.57	0.919
3863.15	0.918
3873.72	0.9209
3884.29	0.921
3894.86	0.9239
3905.44	0.928
3916.01	0.9309
3926.58	0.931
3937.16	0.929
3947.73	0.931
3958.3	0.931
3968.87	0.931
3979.45	0.931
3990.02	0.932
4000.59	0.932
