Infrared Spectrum: 2,5-Dihydroxybenzaldehyde
Formula: C 7 H 6 O 3
CAS: 1194-98-5
State: gas
Origin: EPA-IR VAPOR PHASE LIBRARY
1/CM	ABSORBANCE
501.5	0.0006323
513.074	0.0008293
524.648	0.0010412
536.222	0.001901
547.796	0.004021
559.37	0.005531
570.944	0.004031
582.518	0.002611
594.092	0.002331
605.666	0.002881
617.24	0.002571
628.814	0.002271
640.388	0.002511
651.962	0.004061
663.536	0.008141
675.11	0.014691
686.684	0.016731
698.258	0.011761
709.832	0.007001
721.406	0.005661
732.98	0.003411
744.554	0.002471
756.128	0.005931
767.702	0.008341
779.276	0.008641
790.85	0.015101
802.423	0.024221
813.997	0.018111
825.571	0.010601
837.145	0.008381
848.719	0.006721
860.293	0.005301
871.867	0.003611
883.441	0.001721
895.015	0.0008947
906.589	0.001171
918.163	0.001691
929.737	0.002671
941.311	0.005401
952.885	0.005051
964.459	0.001571
976.033	0.0004006
987.607	0.0003721
999.181	0.0005018
1010.76	0.0005082
1022.33	0.0006034
1033.9	0.0006076
1045.48	0.0008236
1057.05	0.000983
1068.63	0.001201
1080.2	0.001541
1091.77	0.003071
1103.35	0.006391
1114.92	0.010051
1126.49	0.020831
1138.07	0.029551
1149.64	0.026811
1161.22	0.027591
1172.79	0.028181
1184.36	0.022791
1195.94	0.025351
1207.51	0.019591
1219.09	0.011481
1230.66	0.009101
1242.23	0.012481
1253.81	0.022921
1265.38	0.044231
1276.96	0.062141
1288.53	0.049411
1300.1	0.022931
1311.68	0.010201
1323.25	0.011321
1334.83	0.012091
1346.4	0.010081
1357.97	0.012901
1369.55	0.016461
1381.12	0.013261
1392.7	0.010911
1404.27	0.010551
1415.84	0.008781
1427.42	0.007331
1438.99	0.007311
1450.57	0.009261
1462.14	0.016201
1473.71	0.036441
1485.29	0.051831
1496.86	0.035751
1508.44	0.013851
1520.01	0.006001
1531.58	0.003981
1543.16	0.003821
1554.73	0.003831
1566.31	0.005181
1577.88	0.010761
1589.45	0.015941
1601.03	0.011411
1612.6	0.006981
1624.18	0.009151
1635.75	0.009801
1647.32	0.009911
1658.9	0.020951
1670.47	0.066381
1682.05	0.079491
1693.62	0.030611
1705.19	0.012971
1716.77	0.010201
1728.34	0.005501
1739.92	0.002381
1751.49	0.001721
1763.06	0.001451
1774.64	0.0010205
1786.21	0.0006552
1797.79	0.0006407
1809.36	0.0006387
1820.93	0.0004819
1832.51	0.0003462
1844.08	0.00041
1855.66	0.0005921
1867.23	0.0006949
1878.8	0.0006754
1890.38	0.0008528
1901.95	0.0008228
1913.53	0.0005432
1925.1	0.0003203
1936.67	0.00021302
1948.25	0.0001892
1959.82	0.00020222
1971.4	0.00019386
1982.97	0.00014925
1994.54	0.00014066
2006.12	0.00013607
2017.69	0.0001397
2029.27	0.0002542
2040.84	0.0003618
2052.41	0.0004422
2063.99	0.0004421
2075.56	0.0004602
2087.14	0.0004494
2098.71	0.0003438
2110.28	0.0003
2121.86	0.00017832
2133.43	0.00013179
2145.01	0.000128129
2156.58	9.91e-05
2168.15	2.96e-05
2179.73	1.6e-05
2191.3	1.9e-05
2202.88	4e-06
2214.45	5.5e-05
2226.02	0.00012727
2237.6	0.0002801
2249.17	0.0003657
2260.74	0.0003024
2272.32	0.000231
2283.89	0.0002706
2295.47	0.00021022
2307.04	0.0002602
2318.61	0.00021024
2330.19	0.0002537
2341.76	0.00018094
2353.34	0.0002042
2364.91	0.0003539
2376.48	0.0003998
2388.06	0.0005068
2399.63	0.00049
2411.21	0.0004189
2422.78	0.0003946
2434.35	0.0004993
2445.93	0.0004672
2457.5	0.0004513
2469.08	0.0004431
2480.65	0.0004195
2492.22	0.0003907
2503.8	0.0004136
2515.37	0.0004628
2526.95	0.0005741
2538.52	0.0006871
2550.09	0.0006137
2561.67	0.0005496
2573.24	0.0004928
2584.82	0.0005415
2596.39	0.0006143
2607.96	0.0007512
2619.54	0.0008082
2631.11	0.0007669
2642.69	0.0007564
2654.26	0.0009048
2665.83	0.0010685
2677.41	0.001161
2688.98	0.001241
2700.56	0.001271
2712.13	0.001761
2723.7	0.003651
2735.28	0.005681
2746.85	0.005241
2758.43	0.003221
2770	0.002401
2781.57	0.002361
2793.15	0.002751
2804.72	0.004391
2816.3	0.008401
2827.87	0.014071
2839.44	0.014211
2851.02	0.007901
2862.59	0.003121
2874.17	0.001701
2885.74	0.001097
2897.31	0.0010096
2908.89	0.0009847
2920.46	0.0009837
2932.04	0.0010626
2943.61	0.001171
2955.18	0.001331
2966.76	0.001421
2978.33	0.001491
2989.91	0.001581
3001.48	0.001861
3013.05	0.002671
3024.63	0.004061
3036.2	0.004471
3047.78	0.003381
3059.35	0.002531
3070.92	0.002281
3082.5	0.002111
3094.07	0.001591
3105.65	0.001401
3117.22	0.001411
3128.79	0.001391
3140.37	0.001511
3151.94	0.001581
3163.52	0.002011
3175.09	0.002471
3186.66	0.003161
3198.24	0.003991
3209.81	0.004771
3221.39	0.005571
3232.96	0.006161
3244.53	0.006431
3256.11	0.006131
3267.68	0.005711
3279.26	0.005331
3290.83	0.005021
3302.4	0.004821
3313.98	0.004671
3325.55	0.004671
3337.13	0.005021
3348.7	0.005221
3360.27	0.004751
3371.85	0.004141
3383.42	0.003601
3395	0.003441
3406.57	0.003291
3418.14	0.003101
3429.72	0.002871
3441.29	0.002681
3452.86	0.002531
3464.44	0.002311
3476.01	0.002111
3487.59	0.001951
3499.16	0.001781
3510.73	0.001571
3522.31	0.001431
3533.88	0.001301
3545.46	0.001191
3557.03	0.0010372
3568.6	0.00089
3580.18	0.0008114
3591.75	0.0008572
3603.33	0.0008803
3614.9	0.001131
3626.47	0.002041
3638.05	0.005261
3649.62	0.015921
3661.2	0.017131
3672.77	0.005611
3684.34	0.001121
3695.92	0.0005337
3707.49	0.000435
3719.07	0.0003479
3730.64	0.0003442
3742.21	0.0002908
3753.79	0.0002729
3765.36	0.0004374
3776.94	0.000407
3788.51	0.000394
3800.08	0.0004292
3811.66	0.0003683
3823.23	0.0004669
3834.81	0.0004665
3846.38	0.0004942
3857.95	0.000549
3869.53	0.0005605
3881.1	0.0003631
3892.68	0.0002374
3904.25	0.0004851
3915.82	0.0003016
3927.4	0.0002442
3938.97	9.62e-05
3950.55	0.00019514
3962.12	8.12e-05
3973.69	0.0002664
3985.27	0.0002268
3996.84	0.00021785
