Infrared Spectrum: 2,2,6,6,-Tetramethylcyclohexanone
Formula: C 10 H 18 O
CAS: 1195-93-3
State: gas
Instrument: HP-GC/MS/IRD
Origin: NIST Mass Spectrometry Data Center
1/CM	ABSORBANCE
550	0.0009102
562	0.0004403
574	0.0002886
586	0.0001554
598	0
610	0.000111
622	6.29e-05
634	8.88e-05
646	8.14e-05
658	4.81e-05
670	8.88e-05
682	7.77e-05
694	5.55e-05
706	3.7e-05
718	9.25e-05
730	0.0001591
742	0.0001591
754	0.0002109
766	0.0001998
778	0.0001073
790	0.0001554
802	0.0002405
814	0.0003663
826	0.0004662
838	0.0005846
850	0.0012025
862	0.0017982
874	0.0010878
886	0.0004958
898	0.0003145
910	0.0003552
922	0.0004884
934	0.0008325
946	0.0013098
958	0.0017686
970	0.003441
982	0.0054427
994	0.0052022
1006	0.0050283
1018	0.0071632
1030	0.0082214
1042	0.0054649
1054	0.00407
1066	0.0028749
1078	0.002294
1090	0.0015392
1102	0.0007548
1114	0.0005661
1126	0.0006068
1138	0.0008806
1150	0.0008362
1162	0.0007511
1174	0.0009805
1186	0.0011618
1198	0.0011581
1210	0.0011618
1222	0.0016132
1234	0.0015059
1246	0.0007733
1258	0.0006512
1270	0.0012395
1282	0.0020387
1294	0.0017575
1306	0.0010064
1318	0.0007289
1330	0.001073
1342	0.0015503
1354	0.0026862
1366	0.0052688
1378	0.0070818
1390	0.0069819
1402	0.0024161
1414	0.0011544
1426	0.0014356
1438	0.0024605
1450	0.0051467
1462	0.0093536
1474	0.0093203
1486	0.0043327
1498	0.0014578
1510	0.0008584
1522	0.0006253
1534	0.0004329
1546	0.0003256
1558	0.0002886
1570	0.0002923
1582	0.0002849
1594	0.0002923
1606	0.0003293
1618	0.0003589
1630	0.000444
1642	0.000629
1654	0.0010286
1666	0.0016243
1678	0.002627
1690	0.0074407
1702	0.0208717
1714	0.0228919
1726	0.0081622
1738	0.0023791
1750	0.0014319
1762	0.000925
1774	0.0005661
1786	0.0003737
1798	0.0002775
1810	0.0002331
1822	0.0002146
1834	0.0001554
1846	0.0001776
1858	0.0001295
1870	0.0001073
1882	0.000111
1894	0.000111
1906	0.0001332
1918	0.0001147
1930	0.0001036
1942	9.62e-05
1954	8.14e-05
1966	6.29e-05
1978	5.92e-05
1990	7.03e-05
2002	9.25e-05
2014	5.92e-05
2026	6.29e-05
2038	5.18e-05
2050	6.66e-05
2062	4.81e-05
2074	3.7e-05
2086	3.33e-05
2098	5.92e-05
2110	5.18e-05
2122	3.7e-05
2134	4.07e-05
2146	5.92e-05
2158	6.29e-05
2170	4.07e-05
2182	6.66e-05
2194	7.4e-05
2206	7.03e-05
2218	6.29e-05
2230	4.07e-05
2242	5.55e-05
2254	5.55e-05
2266	4.44e-05
2278	3.7e-05
2290	8.88e-05
2302	9.99e-05
2314	9.99e-05
2326	9.25e-05
2338	5.55e-05
2350	4.07e-05
2362	7.4e-05
2374	4.81e-05
2386	4.07e-05
2398	4.44e-05
2410	5.55e-05
2422	6.66e-05
2434	4.44e-05
2446	5.55e-05
2458	4.81e-05
2470	5.18e-05
2482	4.07e-05
2494	2.59e-05
2506	4.44e-05
2518	6.66e-05
2530	7.77e-05
2542	8.88e-05
2554	0.0001073
2566	9.99e-05
2578	8.88e-05
2590	8.14e-05
2602	8.51e-05
2614	0.0001184
2626	0.0001813
2638	0.0002368
2650	0.0002775
2662	0.0003848
2674	0.0004403
2686	0.0003626
2698	0.0002738
2710	0.0002849
2722	0.0003922
2734	0.0004292
2746	0.0003885
2758	0.0005069
2770	0.0005883
2782	0.0006623
2794	0.0007955
2806	0.0009768
2818	0.0012247
2830	0.0016835
2842	0.0029415
2854	0.0072113
2866	0.0129907
2878	0.0155067
2890	0.0137011
2902	0.0154327
2914	0.0228475
2926	0.0299774
2938	0.037
2950	0.0313464
2962	0.0265697
2974	0.0254301
2986	0.0203648
2998	0.0116328
3010	0.0038591
3022	0.001776
3034	0.0011914
3046	0.0008991
3058	0.0007326
3070	0.0006031
3082	0.0005661
3094	0.0005291
3106	0.0005069
3118	0.0004699
3130	0.0004329
3142	0.0004144
3154	0.0004218
3166	0.0004477
3178	0.000444
3190	0.0004181
3202	0.0003922
3214	0.00037
3226	0.00037
3238	0.000296
3250	0.0001813
3262	0.0001369
3274	0.0001295
3286	0.0001073
3298	0.0001184
3310	0.0001147
3322	0.0001517
3334	0.0001332
3346	0.0001665
3358	0.0001998
3370	0.0002035
3382	0.0003848
3394	0.0005328
3406	0.0004625
3418	0.0003293
3430	0.0001924
3442	0.0001369
3454	9.62e-05
3466	5.92e-05
3478	6.66e-05
3490	2.96e-05
3502	7.4e-05
3514	5.18e-05
3526	2.22e-05
3538	1.85e-05
3550	3.33e-05
3562	1.11e-05
3574	5.18e-05
3586	7.4e-06
3598	4.44e-05
3610	5.55e-05
3622	3.33e-05
3634	3.33e-05
3646	7.4e-05
3658	6.66e-05
3670	3.33e-05
3682	7.4e-06
3694	3.33e-05
3706	8.88e-05
3718	9.25e-05
3730	4.44e-05
3742	0.0001147
3754	7.4e-05
3766	5.18e-05
3778	4.07e-05
3790	6.29e-05
3802	5.92e-05
3814	9.25e-05
3826	8.14e-05
3838	5.92e-05
