Infrared Spectrum: PYRIDINE, 2,6-DICARBINOL
Formula: C7 H9 N O2
CAS: 1195-59-1
State: SOLID (MINERAL OIL MULL)
Class: COBLENTZ
Instrument: Not specified, most likely a prism, grating, or hybrid spectrometer.
Sampling: TRANSMISSION
Resolution: 4
Origin: DOW CHEMICAL COMPANY
MICROMETERS	TRANSMITTANCE
2.041	0.433
2.08214	0.443
2.12327	0.455
2.16441	0.465
2.20555	0.479
2.24668	0.474
2.28782	0.484
2.32896	0.503
2.3701	0.515
2.41123	0.525
2.45237	0.537
2.49351	0.554
2.53464	0.563
2.57578	0.575
2.61692	0.587
2.65805	0.595
2.69919	0.604
2.74033	0.609
2.78147	0.604
2.8226	0.583
2.86374	0.506
2.90488	0.404
2.94601	0.162
2.98715	0.192
3.02829	0.354
3.06942	0.336
3.11056	0.29
3.1517	0.223
3.19283	0.17
3.23397	0.146
3.27511	0.155
3.31625	0.186
3.35738	0.116
3.39852	0.03
3.43966	0.052
3.48079	0.075
3.52193	0.204
3.56307	0.232
3.6042	0.249
3.64534	0.317
3.68648	0.372
3.72761	0.402
3.76875	0.394
3.80989	0.392
3.85103	0.484
3.89216	0.535
3.9333	0.573
3.97444	0.598
4.01557	0.612
4.05671	0.614
4.09785	0.614
4.13898	0.634
4.18012	0.645
4.22126	0.65
4.2624	0.684
4.30353	0.72
4.34467	0.73
4.38581	0.74
4.42694	0.745
4.46808	0.754
4.50922	0.754
4.55035	0.761
4.59149	0.762
4.63263	0.762
4.67376	0.778
4.7149	0.783
4.75604	0.79
4.79718	0.795
4.83831	0.8
4.87945	0.803
4.92059	0.783
4.96172	0.783
5.00286	0.805
5.044	0.812
5.08513	0.82
5.12627	0.81
5.16741	0.812
5.20854	0.824
5.24968	0.831
5.29082	0.832
5.33196	0.834
5.37309	0.829
5.41423	0.831
5.45537	0.831
5.4965	0.839
5.53764	0.839
5.57878	0.844
5.61991	0.837
5.66105	0.836
5.70219	0.822
5.74333	0.819
5.78446	0.831
5.8256	0.831
5.86674	0.824
5.90787	0.824
5.94901	0.812
5.99015	0.815
6.03128	0.81
6.07242	0.803
6.11356	0.791
6.15469	0.767
6.19583	0.537
6.23697	0.307
6.27811	0.602
6.31924	0.525
6.36038	0.692
6.40152	0.728
6.44265	0.733
6.48379	0.738
6.52493	0.742
6.56606	0.737
6.6072	0.732
6.64834	0.723
6.68947	0.68
6.73061	0.523
6.77175	0.208
6.81289	0.155
6.85402	0.255
6.89516	0.211
6.9363	0.325
6.97743	0.361
7.01857	0.332
7.05971	0.31
7.10084	0.356
7.14198	0.402
7.18312	0.423
7.22426	0.348
7.26539	0.322
7.30653	0.459
7.34767	0.5
7.3888	0.363
7.42994	0.593
7.47108	0.696
7.51221	0.718
7.55335	0.73
7.59449	0.742
7.63562	0.752
7.67676	0.759
7.7179	0.769
7.75904	0.767
7.80017	0.735
7.84131	0.718
7.88245	0.75
7.92358	0.773
7.96472	0.779
8.00586	0.786
8.04699	0.771
8.08813	0.67
8.12927	0.544
8.1704	0.537
8.21154	0.643
8.25268	0.672
8.29382	0.73
8.33495	0.813
8.37609	0.832
8.41723	0.839
8.45836	0.837
8.4995	0.819
8.54064	0.696
8.58177	0.462
8.62291	0.435
8.66405	0.718
8.70519	0.786
8.74632	0.81
8.78746	0.829
8.8286	0.839
8.86973	0.843
8.91087	0.837
8.95201	0.827
8.99314	0.723
9.03428	0.525
9.07542	0.428
9.11655	0.639
9.15769	0.51
9.19883	0.254
9.23997	0.068
9.2811	0.215
9.32224	0.392
9.36338	0.477
9.40451	0.558
9.44565	0.631
9.48679	0.675
9.52792	0.691
9.56906	0.692
9.6102	0.679
9.65133	0.639
9.69247	0.534
9.73361	0.325
9.77475	0.116
9.81588	0.192
9.85702	0.281
9.89816	0.387
9.93929	0.445
9.98043	0.703
10.0216	0.704
10.0627	0.626
10.1038	0.472
10.145	0.418
10.1861	0.392
10.2273	0.271
10.2684	0.377
10.3095	0.556
10.3507	0.699
10.3918	0.762
10.4329	0.791
10.4741	0.813
10.5152	0.827
10.5563	0.834
10.5975	0.836
10.6386	0.839
10.6798	0.831
10.7209	0.812
10.762	0.79
10.8032	0.805
10.8443	0.815
10.8854	0.807
10.9266	0.781
10.9677	0.771
11.0089	0.786
11.05	0.81
11.0911	0.819
11.1323	0.822
11.1734	0.822
11.2145	0.824
11.2557	0.822
11.2968	0.819
11.3379	0.819
11.3791	0.817
11.4202	0.815
11.4614	0.813
11.5025	0.81
11.5436	0.807
11.5848	0.805
11.6259	0.802
11.667	0.795
11.7082	0.79
11.7493	0.781
11.7905	0.774
11.8316	0.764
11.8727	0.754
11.9139	0.74
11.955	0.718
11.9961	0.684
12.0373	0.648
12.0784	0.583
12.1196	0.481
12.1607	0.344
12.2018	0.184
12.243	0.133
12.2841	0.189
12.3252	0.32
12.3664	0.472
12.4075	0.552
12.4486	0.597
12.4898	0.609
12.5309	0.61
12.5721	0.598
12.6132	0.58
12.6543	0.561
12.6955	0.546
12.7366	0.539
12.7777	0.549
12.8189	0.569
12.86	0.575
12.9012	0.554
12.9423	0.51
12.9834	0.47
13.0246	0.448
13.0657	0.443
13.1068	0.462
13.148	0.486
13.1891	0.515
13.2302	0.542
13.2714	0.563
13.3125	0.581
13.3537	0.598
13.3948	0.609
13.4359	0.617
13.4771	0.622
13.5182	0.622
13.5593	0.619
13.6005	0.61
13.6416	0.61
13.6828	0.627
13.7239	0.639
13.765	0.639
13.8062	0.638
13.8473	0.634
13.8884	0.638
13.9296	0.643
13.9707	0.645
14.0119	0.646
14.053	0.646
14.0941	0.643
14.1353	0.638
14.1764	0.634
14.2175	0.627
14.2587	0.622
14.2998	0.612
14.3409	0.604
14.3821	0.593
14.4232	0.585
14.4644	0.568
14.5055	0.558
14.5466	0.542
14.5878	0.529
14.6289	0.508
14.67	0.494
14.7112	0.477
14.7523	0.453
14.7935	0.435
14.8346	0.416
14.8757	0.399
14.9169	0.385
14.958	0.37
14.9991	0.36
15.0403	0.344
15.0814	0.337
15.1225	0.334
15.1637	0.332
15.2048	0.332
15.246	0.337
15.2871	0.341
15.3282	0.344
15.3694	0.349
15.4105	0.354
15.4516	0.358
15.4928	0.361
15.5339	0.361
15.5751	0.361
15.6162	0.36
15.6573	0.354
15.6985	0.348
15.7396	0.334
15.7807	0.319
15.8219	0.296
15.863	0.278
15.9042	0.295
15.9453	0.32
