Infrared Spectrum: 2-Methoxy-5-methylphenol
Formula: C 8 H 10 O 2
CAS: 1195-09-1
State: gas
Origin: EPA-IR VAPOR PHASE LIBRARY
1/CM	ABSORBANCE
549.8	0.0008086
559.445	0.0010116
569.09	0.0013409
578.734	0.002759
588.379	0.003839
598.024	0.002939
607.669	0.001809
617.313	0.001155
626.958	0.0012329
636.603	0.0010697
646.248	0.0009648
655.893	0.0009995
665.537	0.0008478
675.182	0.0010243
684.827	0.0008553
694.472	0.001322
704.116	0.002329
713.761	0.002619
723.406	0.002209
733.051	0.002769
742.695	0.005049
752.34	0.010249
761.985	0.011989
771.63	0.009949
781.275	0.011389
790.919	0.016129
800.564	0.013589
810.209	0.007859
819.854	0.003899
829.498	0.002979
839.143	0.003219
848.788	0.004399
858.433	0.006439
868.078	0.005489
877.722	0.003539
887.367	0.002109
897.012	0.001959
906.657	0.002129
916.301	0.002969
925.946	0.005479
935.591	0.009699
945.236	0.009879
954.88	0.005799
964.525	0.003989
974.17	0.005189
983.815	0.007179
993.46	0.008669
1003.1	0.009839
1012.75	0.013099
1022.39	0.017799
1032.04	0.019209
1041.68	0.015649
1051.33	0.010139
1060.97	0.005659
1070.62	0.003819
1080.26	0.003089
1089.91	0.002749
1099.55	0.004409
1109.2	0.007249
1118.84	0.015159
1128.49	0.022419
1138.13	0.022629
1147.78	0.017029
1157.42	0.014069
1167.07	0.013789
1176.71	0.017179
1186.36	0.018419
1196	0.022569
1205.64	0.029949
1215.29	0.035899
1224.93	0.045249
1234.58	0.056469
1244.22	0.047859
1253.87	0.032109
1263.51	0.040049
1273.16	0.069589
1282.8	0.073639
1292.45	0.041169
1302.09	0.017569
1311.74	0.012079
1321.38	0.013559
1331.03	0.016009
1340.67	0.013629
1350.32	0.007979
1359.96	0.004619
1369.61	0.003719
1379.25	0.003679
1388.9	0.003799
1398.54	0.003669
1408.18	0.003899
1417.83	0.004809
1427.47	0.007099
1437.12	0.013259
1446.76	0.018399
1456.41	0.018789
1466.05	0.015289
1475.7	0.012469
1485.34	0.014559
1494.99	0.034369
1504.63	0.070329
1514.28	0.077559
1523.92	0.045359
1533.57	0.018429
1543.21	0.009659
1552.86	0.006919
1562.5	0.007649
1572.15	0.009999
1581.79	0.013439
1591.44	0.014859
1601.08	0.011789
1610.73	0.006079
1620.37	0.004239
1630.01	0.003529
1639.66	0.002679
1649.3	0.001999
1658.95	0.001599
1668.59	0.001379
1678.24	0.001301
1687.88	0.0011671
1697.53	0.0012098
1707.17	0.001469
1716.82	0.001599
1726.46	0.001659
1736.11	0.0011259
1745.75	0.0009075
1755.4	0.000868
1765.04	0.0010446
1774.69	0.0011154
1784.33	0.0010725
1793.98	0.0009725
1803.62	0.0009666
1813.27	0.0011028
1822.91	0.0012582
1832.55	0.001489
1842.2	0.001419
1851.84	0.0012588
1861.49	0.0010736
1871.13	0.0008745
1880.78	0.0007425
1890.42	0.0007691
1900.07	0.0007853
1909.71	0.0007674
1919.36	0.0007527
1929	0.0007344
1938.65	0.0007751
1948.29	0.0007864
1957.94	0.0008719
1967.58	0.0009469
1977.23	0.00108
1986.87	0.0012953
1996.52	0.0012973
2006.16	0.0012768
2015.81	0.0012087
2025.45	0.0012088
2035.1	0.001429
2044.74	0.0012826
2054.38	0.0011242
2064.03	0.0009442
2073.67	0.0009332
2083.32	0.0008338
2092.96	0.0008098
2102.61	0.0006679
2112.25	0.0005333
2121.9	0.0004881
2131.54	0.00044511
2141.19	0.0005693
2150.83	0.000611
2160.48	0.0005948
2170.12	0.0006676
2179.77	0.0007103
2189.41	0.0005773
2199.06	0.0007145
2208.7	0.000681
2218.35	0.0007858
2227.99	0.0006402
2237.64	0.000616
2247.28	0.0006234
2256.92	0.0008866
2266.57	0.0009708
2276.21	0.0009223
2285.86	0.0007316
2295.5	0.0006176
2305.15	0.0005619
2314.79	0.000618
2324.44	0.0006193
2334.08	0.0006499
2343.73	0.0006191
2353.37	0.0005873
2363.02	0.0005727
2372.66	0.0005806
2382.31	0.0006671
2391.95	0.0006763
2401.6	0.000792
2411.24	0.0008559
2420.89	0.0010232
2430.53	0.0010504
2440.18	0.0009714
2449.82	0.0008193
2459.47	0.0007128
2469.11	0.0005799
2478.75	0.0005178
2488.4	0.0006136
2498.04	0.0008465
2507.69	0.0010208
2517.33	0.0011443
2526.98	0.0012174
2536.62	0.0010941
2546.27	0.0011185
2555.91	0.0009229
2565.56	0.0007962
2575.2	0.000762
2584.85	0.0006535
2594.49	0.0005355
2604.14	0.0005195
2613.78	0.0007156
2623.43	0.0006042
2633.07	0.0005134
2642.72	0.000619
2652.36	0.0005509
2662.01	0.0005354
2671.65	0.0004811
2681.29	0.00040573
2690.94	0.0004796
2700.58	0.0005053
2710.23	0.0007643
2719.87	0.0008835
2729.52	0.0008943
2739.16	0.0011635
2748.81	0.0011754
2758.45	0.0010002
2768.1	0.0009194
2777.74	0.0010147
2787.39	0.001252
2797.03	0.001599
2806.68	0.001859
2816.32	0.002689
2825.97	0.003819
2835.61	0.006769
2845.26	0.009839
2854.9	0.009559
2864.55	0.008039
2874.19	0.008949
2883.84	0.009219
2893.48	0.008399
2903.12	0.009019
2912.77	0.011909
2922.41	0.016719
2932.06	0.021019
2941.7	0.021939
2951.35	0.019379
2960.99	0.016369
2970.64	0.012089
2980.28	0.009399
2989.93	0.009539
2999.57	0.013189
3009.22	0.014269
3018.86	0.011319
3028.51	0.010079
3038.15	0.011989
3047.8	0.011119
3057.44	0.008049
3067.09	0.005659
3076.73	0.004639
3086.38	0.003989
3096.02	0.003039
3105.67	0.002319
3115.31	0.001669
3124.95	0.00127
3134.6	0.001312
3144.24	0.0010589
3153.89	0.000689
3163.53	0.0006605
3173.18	0.0007072
3182.82	0.0004984
3192.47	0.0004813
3202.11	0.000303
3211.76	0.0005101
3221.4	0.000281
3231.05	0.0003263
3240.69	0.00038602
3250.34	0.00042241
3259.98	0.00039352
3269.63	0.000207
3279.27	0.00043881
3288.92	0.0006693
3298.56	0.0005739
3308.21	0.00046808
3317.85	0.000253
3327.49	0.0002759
3337.14	0.000183
3346.78	0.000246
3356.43	0.000231
3366.07	0.00044459
3375.72	0.000215
3385.36	0.0002927
3395.01	4.1e-05
3404.65	0.000138
3414.3	0.0002731
3423.94	0
3433.59	0.000147
3443.23	0.000177
3452.88	0.000206
3462.52	9.6e-05
3472.17	0.000173
3481.81	0.0003224
3491.46	0.000265
3501.1	0.000271
3510.75	0.000326
3520.39	0.00046435
3530.04	0.0004809
3539.68	0.0007548
3549.32	0.0012496
3558.97	0.003109
3568.61	0.010659
3578.26	0.029829
3587.9	0.039029
3597.55	0.023529
3607.19	0.007159
3616.84	0.002369
3626.48	0.001629
3636.13	0.0010985
3645.77	0.001479
3655.42	0.0013223
3665.06	0.0007398
3674.71	0.000369596
3684.35	0.000472
3694	0.0002913
3703.64	0.00036373
3713.29	0.0003003
3722.93	0.000257
3732.58	0.000253
3742.22	0.000171
3751.86	0.000370473
3761.51	0.0003403
3771.15	0.000167
3780.8	4.9e-05
3790.44	0.000376485
3800.09	0.000263
3809.73	0.00046307
3819.38	0.0002781
3829.02	0.00038742
3838.67	0.000246
3848.31	0.00039878
3857.96	0.0005512
3867.6	0.00043312
3877.25	0.0005358
3886.89	0.0006315
3896.54	0.0003156
3906.18	0.000271
3915.83	0.000256
3925.47	0.0003556
3935.12	0.000268
3944.76	0.0003405
3954.41	0.0002712
3964.05	0.0003518
3973.69	0.0006834
3983.34	0.0006246
3992.98	0.00046285
