Infrared Spectrum: 1-Methyl-4-iso-propenylbenzene
Formula: C 10 H 12
CAS: 1195-32-0
State: gas
Instrument: HP-GC/MS/IRD
Origin: NIST Mass Spectrometry Data Center
1/CM	ABSORBANCE
550	0.0051604
562	0.0021204
574	0.0013167
586	0.0008512
598	0.000532
610	0.0001919
622	0.0001881
634	0.0004408
646	0.0002774
658	0.0002299
670	0.0004009
682	0.0002508
694	0.000361
706	0.0005491
718	0.0016207
730	0.0029583
742	0.0020387
754	0.000988
766	0.0006783
778	0.0008322
790	0.0018544
802	0.0061123
814	0.0138225
826	0.0162146
838	0.0079762
850	0.0028196
862	0.0026733
874	0.0057627
886	0.0111568
898	0.0124051
910	0.007562
922	0.0034333
934	0.0017347
946	0.0009937
958	0.0007201
970	0.0005719
982	0.0006042
994	0.0008493
1006	0.0016796
1018	0.0031768
1030	0.0017499
1042	0.0011837
1054	0.0011514
1066	0.0008759
1078	0.0007258
1090	0.0008094
1102	0.0018335
1114	0.0035036
1126	0.0025992
1138	0.0010241
1150	0.0004978
1162	0.0004522
1174	0.0007733
1186	0.0015542
1198	0.0012312
1210	0.0010868
1222	0.0013737
1234	0.0012331
1246	0.0006935
1258	0.0006061
1270	0.0009557
1282	0.0019076
1294	0.0045391
1306	0.0043282
1318	0.0020235
1330	0.0011096
1342	0.0012806
1354	0.0019494
1366	0.0036898
1378	0.0058501
1390	0.0045562
1402	0.0036176
1414	0.0037734
1426	0.0043567
1438	0.0052079
1450	0.0058881
1462	0.0055594
1474	0.0038532
1486	0.0034333
1498	0.005719
1510	0.0130397
1522	0.0095722
1534	0.0022876
1546	0.001767
1558	0.0017024
1570	0.0021926
1582	0.00209
1594	0.002451
1606	0.0035663
1618	0.0055974
1630	0.0074499
1642	0.0057627
1654	0.0024605
1666	0.0012806
1678	0.0005947
1690	0.000361
1702	4.75e-05
1714	0.000152
1726	0.0003154
1738	0.00019
1750	0.0005168
1762	0.0009063
1774	0.001539
1786	0.0025536
1798	0.0019038
1810	0.0008607
1822	0.0004769
1834	0.0003249
1846	0.0002736
1858	0.0004788
1870	0.0006802
1882	0.0012293
1894	0.0014706
1906	0.0010431
1918	0.0004883
1930	0.0003154
1942	0.0002166
1954	0.0001995
1966	0.0002033
1978	0.00019
1990	0.0001881
2002	0.0001786
2014	0.000171
2026	0.0001767
2038	0.0001121
2050	0.000152
2062	0.0001862
2074	0.0001653
2086	0.0001672
2098	0.0001482
2110	0.0001539
2122	0.0001691
2134	0.0001919
2146	0.0001634
2158	0.0001482
2170	0.0001767
2182	0.0001805
2194	0.0002147
2206	0.0001957
2218	0.0001748
2230	0.0001596
2242	0.0001634
2254	0.0001881
2266	0.0001881
2278	0.0002622
2290	0.0003192
2302	0.0004237
2314	0.0004332
2326	0.0004047
2338	0.0003211
2350	0.0002527
2362	0.0002489
2374	0.0002508
2386	0.0002261
2398	0.0002223
2410	0.0002755
2422	0.0002945
2434	0.0002698
2446	0.0002394
2458	0.0002356
2470	0.0002679
2482	0.0002375
2494	0.0002109
2506	0.0002337
2518	0.0002375
2530	0.0001805
2542	0.0001995
2554	0.0001425
2566	0.0002128
2578	0.0003002
2590	0.0003724
2602	0.0003496
2614	0.0003078
2626	0.0002774
2638	0.0003002
2650	0.0002679
2662	0.0003002
2674	0.0003002
2686	0.0003306
2698	0.0004085
2710	0.0004807
2722	0.000589
2734	0.0008645
2746	0.001064
2758	0.0007125
2770	0.0006251
2782	0.0007201
2794	0.0008341
2806	0.001064
2818	0.0013851
2830	0.0018126
2842	0.0026619
2854	0.0042598
2866	0.006992
2878	0.0089414
2890	0.0087533
2902	0.0088084
2914	0.0112119
2926	0.0172577
2938	0.018259
2950	0.0129903
2962	0.0115064
2974	0.0162602
2986	0.0166364
2998	0.0126825
3010	0.0131556
3022	0.0168777
3034	0.0170373
3046	0.0115292
3058	0.0101118
3070	0.0102315
3082	0.0134026
3094	0.0133209
3106	0.0054055
3118	0.0027227
3130	0.0020425
3142	0.0014364
3154	0.0009728
3166	0.0007125
3178	0.0006099
3190	0.0005909
3202	0.0005073
3214	0.0004123
3226	0.0004313
3238	0.0003838
3250	0.0004123
3262	0.0004294
3274	0.0004636
3286	0.0004921
3298	0.0004389
3310	0.0004864
3322	0.0004294
3334	0.0004579
3346	0.0004294
3358	0.0004465
3370	0.0003762
3382	0.000437
3394	0.0004123
3406	0.0003952
3418	0.0003857
3430	0.0003819
3442	0.0004047
3454	0.0004066
3466	0.0004009
3478	0.0003876
3490	0.0004275
3502	0.000418
3514	0.0004256
3526	0.0004009
3538	0.0003857
3550	0.000323
3562	0.0003401
3574	0.0003705
3586	0.0003819
3598	0.0003762
3610	0.000304
3622	0.0003116
3634	0.0003173
3646	0.0002432
3658	0.000361
3670	0.000285
3682	0.0004427
3694	0.0003648
3706	0.000399
3718	0.0005054
3730	0.0002622
3742	0.0002128
3754	0.0001653
3766	0.0003819
3778	0.000437
3790	0.0004921
3802	0.0002926
3814	0.000323
3826	0.0004123
3838	0.0002698
