Infrared Spectrum: FENCHONE
Formula: C10 H16 O
CAS: 1195-79-5
State: LIQUID (SMEAR)
Class: COBLENTZ
Instrument: Not specified, most likely a prism, grating, or hybrid spectrometer.
Sampling: TRANSMISSION
Resolution: 4
Origin: BATTELLE MEMORIAL INSTITUTE
MICROMETERS	TRANSMITTANCE
2.067	0.96
2.10383	0.96
2.14067	0.96
2.1775	0.96
2.21433	0.96
2.25117	0.96
2.288	0.953
2.32483	0.937
2.36167	0.938
2.3985	0.942
2.43533	0.943
2.47217	0.944
2.509	0.949
2.54583	0.95
2.58267	0.95
2.6195	0.95
2.65633	0.953
2.69317	0.955
2.73	0.955
2.76683	0.955
2.80367	0.953
2.8405	0.942
2.87733	0.936
2.91417	0.927
2.951	0.946
2.98783	0.952
3.02467	0.954
3.0615	0.954
3.09833	0.954
3.13517	0.95
3.172	0.942
3.20883	0.939
3.24567	0.941
3.2825	0.933
3.31933	0.85
3.35617	0.378
3.393	0.113
3.42983	0.21
3.46667	0.412
3.5035	0.443
3.54033	0.861
3.57717	0.901
3.614	0.927
3.65083	0.933
3.68767	0.936
3.7245	0.942
3.76133	0.947
3.79817	0.952
3.835	0.953
3.87183	0.954
3.90867	0.954
3.9455	0.954
3.98233	0.954
4.01917	0.954
4.056	0.954
4.09283	0.954
4.12966	0.954
4.1665	0.954
4.20333	0.954
4.24016	0.954
4.277	0.954
4.31383	0.954
4.35066	0.954
4.3875	0.954
4.42433	0.954
4.46116	0.954
4.498	0.954
4.53483	0.954
4.57166	0.954
4.6085	0.954
4.64533	0.954
4.68216	0.954
4.719	0.954
4.75583	0.954
4.79266	0.955
4.8295	0.955
4.86633	0.954
4.90316	0.948
4.94	0.947
4.97683	0.948
5.01366	0.946
5.0505	0.944
5.08733	0.946
5.12416	0.943
5.161	0.941
5.19783	0.942
5.23466	0.942
5.2715	0.942
5.30833	0.942
5.34516	0.941
5.382	0.924
5.41883	0.921
5.45566	0.921
5.4925	0.909
5.52933	0.908
5.56616	0.897
5.603	0.837
5.63983	0.666
5.67666	0.463
5.7135	0.115
5.75033	0.025
5.78716	0.424
5.824	0.75
5.86083	0.792
5.89766	0.854
5.9345	0.886
5.97133	0.898
6.00816	0.899
6.045	0.9
6.08183	0.908
6.11866	0.91
6.1555	0.91
6.19233	0.911
6.22916	0.912
6.266	0.917
6.30283	0.922
6.33966	0.927
6.3765	0.93
6.41333	0.932
6.45016	0.927
6.487	0.925
6.52383	0.926
6.56066	0.925
6.5975	0.92
6.63433	0.914
6.67116	0.863
6.708	0.764
6.74483	0.693
6.78166	0.636
6.8185	0.46
6.85533	0.432
6.89216	0.448
6.929	0.604
6.96583	0.747
7.00266	0.813
7.0395	0.83
7.07633	0.833
7.11316	0.859
7.15	0.867
7.18683	0.802
7.22366	0.556
7.2605	0.585
7.29733	0.772
7.33416	0.785
7.371	0.774
7.40783	0.867
7.44466	0.877
7.4815	0.848
7.51833	0.841
7.55516	0.852
7.592	0.841
7.62883	0.83
7.66566	0.875
7.7025	0.876
7.73933	0.812
7.77616	0.714
7.813	0.837
7.84983	0.85
7.88666	0.841
7.9235	0.832
7.96033	0.871
7.99716	0.873
8.034	0.848
8.07083	0.838
8.10766	0.856
8.14449	0.865
8.18133	0.852
8.21816	0.859
8.25499	0.837
8.29183	0.857
8.32866	0.884
8.36549	0.878
8.40233	0.894
8.43916	0.908
8.47599	0.911
8.51283	0.911
8.54966	0.87
8.58649	0.851
8.62333	0.877
8.66016	0.857
8.69699	0.865
8.73383	0.897
8.77066	0.908
8.80749	0.912
8.84433	0.912
8.88116	0.908
8.91799	0.892
8.95483	0.851
8.99166	0.844
9.02849	0.834
9.06533	0.71
9.10216	0.794
9.13899	0.854
9.17583	0.883
9.21266	0.893
9.24949	0.893
9.28633	0.89
9.32316	0.877
9.35999	0.851
9.39683	0.873
9.43366	0.886
9.47049	0.882
9.50733	0.852
9.54416	0.821
9.58099	0.816
9.61783	0.819
9.65466	0.813
9.69149	0.72
9.72833	0.519
9.76516	0.355
9.80199	0.398
9.83883	0.496
9.87566	0.631
9.91249	0.756
9.94933	0.797
9.98616	0.767
10.023	0.7
10.0598	0.732
10.0967	0.705
10.1335	0.801
10.1703	0.862
10.2072	0.888
10.244	0.897
10.2808	0.9
10.3177	0.9
10.3545	0.898
10.3913	0.865
10.4282	0.797
10.465	0.723
10.5018	0.761
10.5387	0.814
10.5755	0.812
10.6123	0.685
10.6492	0.743
10.686	0.778
10.7228	0.667
10.7597	0.623
10.7965	0.767
10.8333	0.849
10.8702	0.888
10.907	0.903
10.9438	0.909
10.9807	0.914
11.0175	0.92
11.0543	0.925
11.0912	0.927
11.128	0.927
11.1648	0.926
11.2017	0.92
11.2385	0.906
11.2753	0.899
11.3122	0.906
11.349	0.922
11.3858	0.928
11.4227	0.931
11.4595	0.932
11.4963	0.935
11.5332	0.935
11.57	0.935
11.6068	0.935
11.6437	0.935
11.6805	0.933
11.7173	0.928
11.7542	0.927
11.791	0.927
11.8278	0.927
11.8647	0.926
11.9015	0.915
11.9383	0.887
11.9752	0.821
12.012	0.742
12.0488	0.764
12.0857	0.816
12.1225	0.822
12.1593	0.813
12.1962	0.817
12.233	0.84
12.2698	0.87
12.3067	0.89
12.3435	0.904
12.3803	0.911
12.4172	0.917
12.454	0.925
12.4908	0.927
12.5277	0.93
12.5645	0.931
12.6013	0.931
12.6382	0.931
12.675	0.931
12.7118	0.931
12.7487	0.931
12.7855	0.931
12.8223	0.931
12.8592	0.926
12.896	0.924
12.9328	0.925
12.9697	0.926
13.0065	0.928
13.0433	0.928
13.0802	0.928
13.117	0.928
13.1538	0.928
13.1907	0.927
13.2275	0.922
13.2643	0.912
13.3012	0.905
13.338	0.903
13.3748	0.903
13.4117	0.905
13.4485	0.908
13.4853	0.911
13.5222	0.912
13.559	0.914
13.5958	0.914
13.6327	0.916
13.6695	0.917
13.7063	0.917
13.7432	0.917
13.78	0.917
13.8168	0.916
13.8537	0.915
13.8905	0.911
13.9273	0.905
13.9642	0.898
14.001	0.894
14.0378	0.895
14.0747	0.897
14.1115	0.898
14.1483	0.898
14.1852	0.899
14.222	0.899
14.2588	0.899
14.2957	0.899
14.3325	0.898
14.3693	0.898
14.4062	0.897
14.443	0.895
14.4798	0.895
14.5167	0.894
14.5535	0.893
14.5903	0.89
14.6272	0.889
14.664	0.888
14.7008	0.887
14.7377	0.883
14.7745	0.881
14.8113	0.878
14.8482	0.873
14.885	0.872
14.9218	0.871
14.9587	0.87
14.9955	0.868
15.0323	0.857
15.0692	0.848
15.106	0.833
15.1428	0.819
15.1797	0.812
15.2165	0.813
15.2533	0.818
15.2902	0.823
15.327	0.825
15.3638	0.825
