Infrared Spectrum: N-Isopropylcyclohexylamine
Formula: C 9 H 19 N
CAS: 1195-42-2
State: gas
Origin: EPA-IR VAPOR PHASE LIBRARY
1/CM	ABSORBANCE
501.5	0.002572
513.074	0.001962
524.648	0.001912
536.222	0.002032
547.796	0.002662
559.37	0.003592
570.944	0.004202
582.518	0.003832
594.092	0.003642
605.666	0.004042
617.24	0.004582
628.814	0.004812
640.388	0.005172
651.962	0.006112
663.536	0.007522
675.11	0.009062
686.684	0.009972
698.258	0.009332
709.832	0.007242
721.406	0.005112
732.98	0.003512
744.554	0.002632
756.128	0.002232
767.702	0.002082
779.276	0.002132
790.85	0.002192
802.423	0.001992
813.997	0.001912
825.571	0.002252
837.145	0.003292
848.719	0.003672
860.293	0.002662
871.867	0.003172
883.441	0.004972
895.015	0.004992
906.589	0.003092
918.163	0.002782
929.737	0.002822
941.311	0.002492
952.885	0.001802
964.459	0.001242
976.033	0.001122
987.607	0.001492
999.181	0.001832
1010.76	0.002672
1022.33	0.003472
1033.9	0.003692
1045.48	0.004352
1057.05	0.004112
1068.63	0.004572
1080.2	0.007302
1091.77	0.011592
1103.35	0.015052
1114.92	0.018142
1126.49	0.017942
1138.07	0.015672
1149.64	0.017602
1161.22	0.029052
1172.79	0.035702
1184.36	0.021192
1195.94	0.009782
1207.51	0.005702
1219.09	0.004362
1230.66	0.004492
1242.23	0.005532
1253.81	0.006902
1265.38	0.007392
1276.96	0.005672
1288.53	0.005162
1300.1	0.006982
1311.68	0.009992
1323.25	0.014372
1334.83	0.019152
1346.4	0.018632
1357.97	0.018562
1369.55	0.023242
1381.12	0.026282
1392.7	0.013392
1404.27	0.006362
1415.84	0.006102
1427.42	0.009242
1438.99	0.018992
1450.57	0.029992
1462.14	0.031112
1473.71	0.024622
1485.29	0.012872
1496.86	0.005402
1508.44	0.002862
1520.01	0.001892
1531.58	0.001422
1543.16	0.001152
1554.73	0.0009966
1566.31	0.0009526
1577.88	0.0008656
1589.45	0.000806
1601.03	0.0007356
1612.6	0.0007442
1624.18	0.0007235
1635.75	0.0008038
1647.32	0.0008632
1658.9	0.0009643
1670.47	0.0010056
1682.05	0.00092
1693.62	0.0008518
1705.19	0.00079
1716.77	0.0007166
1728.34	0.0007489
1739.92	0.0007272
1751.49	0.0007035
1763.06	0.0006969
1774.64	0.0006734
1786.21	0.0006504
1797.79	0.0006396
1809.36	0.0006293
1820.93	0.0006032
1832.51	0.0005647
1844.08	0.0005497
1855.66	0.0005032
1867.23	0.0004682
1878.8	0.0004446
1890.38	0.0003904
1901.95	0.0003516
1913.53	0.0003334
1925.1	0.0003466
1936.67	0.000362
1948.25	0.000327
1959.82	0.0003218
1971.4	0.0002966
1982.97	0.000232
1994.54	0.00020339
2006.12	0.00020028
2017.69	0.0002321
2029.27	0.0002741
2040.84	0.0002968
2052.41	0.0002861
2063.99	0.0002248
2075.56	0.0002158
2087.14	0.00022049
2098.71	0.0002339
2110.28	0.000246
2121.86	0.0002736
2133.43	0.0003288
2145.01	0.0003465
2156.58	0.0003718
2168.15	0.0004044
2179.73	0.000436
2191.3	0.0004992
2202.88	0.0004627
2214.45	0.0004027
2226.02	0.0004414
2237.6	0.0004608
2249.17	0.0004115
2260.74	0.0004043
2272.32	0.0003987
2283.89	0.0004342
2295.47	0.0004104
2307.04	0.0003773
2318.61	0.0003123
2330.19	0.0003616
2341.76	0.0004101
2353.34	0.0004466
2364.91	0.0004954
2376.48	0.0005708
2388.06	0.0005591
2399.63	0.0005008
2411.21	0.0005308
2422.78	0.0005017
2434.35	0.0004571
2445.93	0.0004344
2457.5	0.0004465
2469.08	0.0005369
2480.65	0.0007074
2492.22	0.0006878
2503.8	0.0006204
2515.37	0.0006639
2526.95	0.0007434
2538.52	0.0008141
2550.09	0.000955
2561.67	0.001262
2573.24	0.001712
2584.82	0.002332
2596.39	0.003002
2607.96	0.003332
2619.54	0.003462
2631.11	0.003542
2642.69	0.003802
2654.26	0.004222
2665.83	0.004482
2677.41	0.004022
2688.98	0.003522
2700.56	0.003362
2712.13	0.003362
2723.7	0.003472
2735.28	0.003792
2746.85	0.004342
2758.43	0.005212
2770	0.006572
2781.57	0.008622
2793.15	0.010832
2804.72	0.012932
2816.3	0.015772
2827.87	0.020362
2839.44	0.030642
2851.02	0.058822
2862.59	0.085602
2874.17	0.065442
2885.74	0.047502
2897.31	0.053502
2908.89	0.081462
2920.46	0.142172
2932.04	0.238002
2943.61	0.209412
2955.18	0.109322
2966.76	0.096852
2978.33	0.070152
2989.91	0.027942
3001.48	0.011492
3013.05	0.006612
3024.63	0.004462
3036.2	0.003412
3047.78	0.002722
3059.35	0.002452
3070.92	0.002112
3082.5	0.002052
3094.07	0.001862
3105.65	0.001632
3117.22	0.001522
3128.79	0.001502
3140.37	0.001552
3151.94	0.001592
3163.52	0.001532
3175.09	0.001442
3186.66	0.001332
3198.24	0.001162
3209.81	0.0009961
3221.39	0.0007912
3232.96	0.000628
3244.53	0.000561
3256.11	0.0004975
3267.68	0.000456
3279.26	0.0003621
3290.83	0.000351
3302.4	0.0002896
3313.98	0.0004641
3325.55	0.0006572
3337.13	0.0006177
3348.7	0.0006266
3360.27	0.0005552
3371.85	0.0004383
3383.42	0.0004985
3395	0.0004836
3406.57	0.0005126
3418.14	0.0004662
3429.72	0.0004403
3441.29	0.0003179
3452.86	0.00021104
3464.44	0.00011461
3476.01	0.00011313
3487.59	0.000131716
3499.16	0.00018193
3510.73	0.00017834
3522.31	0.000131254
3533.88	9.98e-05
3545.46	0.00013966
3557.03	5.36e-05
3568.6	0.0001067
3580.18	2.46e-05
3591.75	2.27e-05
3603.33	3.95e-05
3614.9	1.1e-05
3626.47	6.24e-05
3638.05	0.0001014
3649.62	6.34e-05
3661.2	0.00014718
3672.77	0.00015512
3684.34	0.00018154
3695.92	0.00014877
3707.49	0.0002614
3719.07	0.00022007
3730.64	0.0002366
3742.21	0.0002768
3753.79	0.0002816
3765.36	0.0002872
3776.94	0.000294
3788.51	0.0003707
3800.08	0.0003752
3811.66	0.0003521
3823.23	0.0003368
3834.81	0.000318
3846.38	0.000375
3857.95	0.0003548
3869.53	0.0004042
3881.1	0.0003209
3892.68	0.0003323
3904.25	0.0003175
3915.82	0.0004412
3927.4	0.0005677
3938.97	0.0004799
3950.55	0.0004295
3962.12	0.0004749
3973.69	0.0005029
3985.27	0.0004969
3996.84	0.0005085
