Infrared Spectrum: Pyrimidine, 4,6-dichloro-2-ethyl-,
Formula: C6 H6 Cl2 N2
CAS: 1195-34-2
State: LIQUID (NEAT)
Class: COBLENTZ III
Instrument: PERKIN-ELMER 21 (GRATING)
Instrument parameters: FILTER CHANGE ABOUT 1020 CM^-^1
Path length: 0.01 CM
Resolution: 2
Origin: SOUTHERN RESEARCH INSTITUTE
1/CM	TRANSMITTANCE
597.08	0.4643
606.133	0.4647
615.186	0.4642
624.239	0.4651
633.292	0.468
642.345	0.4754
651.398	0.4983
660.451	0.5536
669.504	0.5695
678.557	0.6134
687.61	0.6246
696.663	0.6239
705.716	0.619
714.769	0.6039
723.822	0.5845
732.875	0.5564
741.928	0.5173
750.981	0.4675
760.034	0.3724
769.087	0.2748
778.14	0.0784
787.193	0.0045
796.246	0.0011
805.299	0.0008
814.352	0.0009
823.405	0.001
832.458	0.0011
841.511	0.0025
850.564	0.0061
859.617	0.0108
868.67	0.0207
877.723	0.1092
886.776	0.2603
895.829	0.3835
904.882	0.4642
913.935	0.5393
922.988	0.6196
932.041	0.6204
941.094	0.609
950.147	0.5939
959.2	0.4958
968.253	0.2734
977.306	0.2087
986.359	0.5515
995.412	0.5323
1004.47	0.5481
1013.52	0.5266
1022.57	0.5437
1031.62	0.4454
1040.68	0.1417
1049.73	0.0195
1058.78	0.0398
1067.84	0.1845
1076.89	0.3224
1085.94	0.381
1095	0.3151
1104.05	0.1039
1113.1	0.0013
1122.15	0.009
1131.21	0.1117
1140.26	0.366
1149.31	0.5265
1158.37	0.5546
1167.42	0.5255
1176.47	0.4108
1185.53	0.3368
1194.58	0.1978
1203.63	0.0194
1212.68	0.0144
1221.74	0.0001
1230.79	0
1239.84	0
1248.9	0.0014
1257.95	0.0247
1267	0.0939
1276.06	0.0447
1285.11	0.0007
1294.16	0.0001
1303.21	0
1312.27	0.0538
1321.32	0.1388
1330.37	0.1498
1339.43	0.1251
1348.48	0.0248
1357.53	0.0002
1366.59	0.0002
1375.64	0.0002
1384.69	0.0002
1393.74	0.0002
1402.8	0.0002
1411.85	0.0002
1420.9	0.0002
1429.96	0.0002
1439.01	0.0002
1448.06	0.0002
1457.12	0.0002
1466.17	0.0002
1475.22	0.0198
1484.27	0.0176
1493.33	0.0066
1502.38	0.0018
1511.43	0.0016
1520.49	0.0013
1529.54	0.0011
1538.59	0.0009
1547.65	0.0007
1556.7	0.0005
1565.75	0.0003
1574.8	0.0311
1583.86	0.0652
1592.91	0.1443
1601.96	0.2395
1611.02	0.3598
1620.07	0.4151
1629.12	0.4691
1638.18	0.5155
1647.23	0.5726
1656.28	0.5826
1665.33	0.5729
1674.39	0.5331
1683.44	0.4897
1692.49	0.5451
1701.55	0.5911
1710.6	0.5937
1719.65	0.5873
1728.71	0.6309
1737.76	0.6783
1746.81	0.6946
1755.86	0.6977
1764.92	0.6979
1773.97	0.6985
1783.02	0.707
1792.08	0.7389
1801.13	0.7457
1810.18	0.7523
1819.24	0.7585
1828.29	0.7444
1837.34	0.7164
1846.39	0.7186
1855.45	0.7316
1864.5	0.7465
1873.55	0.77
1882.61	0.7783
1891.66	0.7688
1900.71	0.7363
1909.77	0.692
1918.82	0.6329
1927.87	0.6291
1936.92	0.6656
1945.98	0.6948
1955.03	0.7071
1964.08	0.7208
1973.14	0.7223
1982.19	0.7268
1991.24	0.7405
2000.3	0.7455
2009.35	0.7366
2018.4	0.7172
2027.45	0.6989
2036.51	0.679
2045.56	0.6592
2054.61	0.6408
2063.67	0.6696
2072.72	0.7278
2081.77	0.7253
2090.83	0.7192
2099.88	0.7207
2108.93	0.7378
2117.98	0.7667
2127.04	0.7771
2136.09	0.7671
2145.14	0.7423
2154.2	0.7323
2163.25	0.715
2172.3	0.6943
2181.36	0.6957
2190.41	0.6957
2199.46	0.6815
2208.51	0.6636
2217.57	0.6218
2226.62	0.5409
2235.67	0.5427
2244.73	0.6052
2253.78	0.6387
2262.83	0.6581
2271.89	0.671
2280.94	0.6601
2289.99	0.652
2299.04	0.6775
2308.1	0.6996
2317.15	0.6901
2326.2	0.6765
2335.26	0.6669
2344.31	0.6657
2353.36	0.6719
2362.42	0.6856
2371.47	0.6995
2380.52	0.7049
2389.57	0.6967
2398.63	0.6793
2407.68	0.6581
2416.73	0.6502
2425.79	0.6686
2434.84	0.694
2443.89	0.6904
2452.95	0.6761
2462	0.6634
2471.05	0.65
2480.1	0.6071
2489.16	0.5619
2498.21	0.5233
2507.26	0.5085
2516.32	0.5276
2525.37	0.5709
2534.42	0.6157
2543.48	0.6497
2552.53	0.6732
2561.58	0.7033
2570.63	0.7039
2579.69	0.7023
2588.74	0.6952
2597.79	0.684
2606.85	0.6733
2615.9	0.6641
2624.95	0.6613
2634.01	0.6607
2643.06	0.6617
2652.11	0.6607
2661.16	0.6335
2670.22	0.593
2679.27	0.573
2688.32	0.561
2697.38	0.5532
2706.43	0.551
2715.48	0.5573
2724.54	0.5609
2733.59	0.5591
2742.64	0.5585
2751.69	0.5637
2760.75	0.5773
2769.8	0.5876
2778.85	0.5867
2787.91	0.5799
2796.96	0.5588
2806.01	0.4982
2815.07	0.4451
2824.12	0.3887
2833.17	0.3329
2842.22	0.2982
2851.28	0.2288
2860.33	0.1243
2869.38	0.1008
2878.44	0.0994
2887.49	0.0956
2896.54	0.0827
2905.6	0.0499
2914.65	0.0325
2923.7	0.023
2932.75	0.0255
2941.81	0.0256
2950.86	0.0234
2959.91	0.0232
2968.97	0.047
2978.02	0.0773
2987.07	0.1366
2996.13	0.2121
3005.18	0.3369
3014.23	0.3723
3023.28	0.3768
3032.34	0.3805
3041.39	0.3813
3050.44	0.3732
3059.5	0.3393
3068.55	0.2537
3077.6	0.1679
3086.66	0.1104
3095.71	0.141
3104.76	0.2064
3113.81	0.3848
3122.87	0.5105
3131.92	0.5645
3140.97	0.6128
3150.03	0.6511
3159.08	0.6732
3168.13	0.6918
3177.19	0.7208
3186.24	0.7329
3195.29	0.7455
3204.34	0.7552
3213.4	0.764
3222.45	0.769
3231.5	0.7724
3240.56	0.774
3249.61	0.7755
3258.66	0.7773
3267.72	0.7787
3276.77	0.7811
3285.82	0.783
3294.87	0.7845
3303.93	0.7854
3312.98	0.7859
3322.03	0.7859
3331.09	0.7854
3340.14	0.7845
3349.19	0.7826
3358.25	0.7791
3367.3	0.7758
3376.35	0.7751
3385.4	0.7755
3394.46	0.7771
3403.51	0.7778
3412.56	0.779
3421.62	0.7805
3430.67	0.782
3439.72	0.7834
3448.78	0.7848
3457.83	0.7857
3466.88	0.7865
3475.93	0.7875
3484.99	0.7887
3494.04	0.7898
3503.09	0.7914
3512.15	0.793
3521.2	0.7949
3530.25	0.7977
3539.31	0.8028
3548.36	0.8039
3557.41	0.8053
3566.46	0.8082
3575.52	0.8111
3584.57	0.812
3593.62	0.8117
3602.68	0.8113
3611.73	0.8094
3620.78	0.8081
3629.84	0.8071
3638.89	0.8072
3647.94	0.8073
3656.99	0.8075
3666.05	0.8079
3675.1	0.8084
3684.15	0.8082
3693.21	0.8078
3702.26	0.807
3711.31	0.806
3720.37	0.8058
3729.42	0.8066
3738.47	0.8085
3747.52	0.8104
3756.58	0.8121
3765.63	0.8131
3774.68	0.8128
3783.74	0.8082
3792.79	0.8053
3801.84	0.8047
3810.9	0.8049
3819.95	0.8068
3829	0.8091
3838.05	0.8095
3847.11	0.809
3856.16	0.8081
3865.21	0.8079
3874.27	0.8075
3883.32	0.8067
3892.37	0.8049
3901.43	0.8027
3910.48	0.8005
