Infrared Spectrum: (1-Ethylpropyl)benzene
Formula: C 11 H 16
CAS: 1196-58-3
State: gas
Instrument: HP-GC/MS/IRD
Origin: NIST Mass Spectrometry Data Center
1/CM	ABSORBANCE
550	0.0030528
562	0.0011664
574	0.0006876
586	0.0004824
598	0.0003816
610	0.0004428
622	0.0002808
634	0.0003456
646	0.0006912
658	0.00108
670	0.00135
682	0.0039168
694	0.0133164
706	0.0124164
718	0.0040572
730	0.003816
742	0.005886
754	0.0080928
766	0.0046548
778	0.0019224
790	0.0010116
802	0.0006516
814	0.0004752
826	0.0006696
838	0.0009468
850	0.0007236
862	0.0005508
874	0.0006408
886	0.0011268
898	0.0012168
910	0.0005724
922	0.0002736
934	0.000126
946	7.2e-06
958	3.24e-05
970	6.84e-05
982	6.12e-05
994	0.0002088
1006	0.0005436
1018	0.0012528
1030	0.0019152
1042	0.001224
1054	0.0010044
1066	0.0011592
1078	0.0010548
1090	0.000864
1102	0.000576
1114	0.0004968
1126	0.0005436
1138	0.0007452
1150	0.000396
1162	0.0001692
1174	0.0001872
1186	0.0002016
1198	0.000216
1210	0.0002376
1222	0.0003096
1234	0.0004968
1246	0.0005724
1258	0.0004572
1270	0.000432
1282	0.000648
1294	0.0008892
1306	0.0010872
1318	0.0013716
1330	0.0014472
1342	0.0013212
1354	0.0013392
1366	0.0017964
1378	0.0030348
1390	0.0029556
1402	0.0012024
1414	0.0008028
1426	0.001026
1438	0.0023364
1450	0.0055692
1462	0.0063864
1474	0.0045216
1486	0.0049824
1498	0.0044064
1510	0.00135
1522	0.00081
1534	0.0007416
1546	0.0005436
1558	0.0004284
1570	0.0006876
1582	0.0014724
1594	0.0026928
1606	0.002448
1618	0.0008676
1630	0.000414
1642	0.0003672
1654	0.0003852
1666	0.0003456
1678	0.0002556
1690	0.0002268
1702	0.0001944
1714	0.0002376
1726	0.0003312
1738	0.0003024
1750	0.0002052
1762	0.000216
1774	0.0002736
1786	0.0006372
1798	0.0007848
1810	0.000378
1822	0.0002268
1834	0.0001764
1846	0.0002988
1858	0.0005148
1870	0.0005436
1882	0.0004104
1894	0.0002664
1906	0.000216
1918	0.0002916
1930	0.0006768
1942	0.0007956
1954	0.0005544
1966	0.0001872
1978	0.0001008
1990	6.12e-05
2002	3.24e-05
2014	3.24e-05
2026	7.56e-05
2038	3.24e-05
2050	3.6e-05
2062	1.44e-05
2074	2.52e-05
2086	4.32e-05
2098	1.44e-05
2110	1.44e-05
2122	1.08e-05
2134	1.44e-05
2146	2.16e-05
2158	1.8e-05
2170	3.6e-05
2182	4.32e-05
2194	1.44e-05
2206	3.24e-05
2218	4.32e-05
2230	3.96e-05
2242	2.88e-05
2254	4.32e-05
2266	3.96e-05
2278	5.4e-05
2290	5.76e-05
2302	7.92e-05
2314	0.0001296
2326	9.72e-05
2338	0.0001224
2350	0.0001116
2362	7.2e-05
2374	9.36e-05
2386	0.000108
2398	0.0001224
2410	7.2e-05
2422	7.2e-05
2434	3.96e-05
2446	3.96e-05
2458	2.88e-05
2470	5.04e-05
2482	6.12e-05
2494	5.04e-05
2506	1.8e-05
2518	1.44e-05
2530	1.08e-05
2542	5.04e-05
2554	9e-05
2566	0.000144
2578	0.0001584
2590	0.0001656
2602	0.0001728
2614	0.0001368
2626	0.0001332
2638	0.0001764
2650	0.0001692
2662	0.0002268
2674	0.0002376
2686	0.0002664
2698	0.0002772
2710	0.0002988
2722	0.00036
2734	0.0005184
2746	0.000612
2758	0.0006012
2770	0.000612
2782	0.0008136
2794	0.000954
2806	0.0011808
2818	0.001368
2830	0.0017496
2842	0.0024516
2854	0.0046368
2866	0.0108468
2878	0.018378
2890	0.0171432
2902	0.0113724
2914	0.014544
2926	0.0265536
2938	0.0301608
2950	0.02322
2962	0.0292356
2974	0.0343188
2986	0.0155052
2998	0.0058608
3010	0.0052056
3022	0.0084996
3034	0.0111564
3046	0.0073548
3058	0.0073692
3070	0.0106488
3082	0.0085356
3094	0.00531
3106	0.0030564
3118	0.0017208
3130	0.0010728
3142	0.0008208
3154	0.0006984
3166	0.00054
3178	0.0003636
3190	0.0002772
3202	0.0002304
3214	0.0001944
3226	0.0001044
3238	8.28e-05
3250	5.04e-05
3262	4.32e-05
3274	4.32e-05
3286	2.16e-05
3298	5.76e-05
3310	1.08e-05
3322	3.24e-05
3334	1.08e-05
3346	4.68e-05
3358	5.4e-05
3370	4.68e-05
3382	3.24e-05
3394	3.24e-05
3406	3.6e-05
3418	5.04e-05
3430	7.92e-05
3442	9.36e-05
3454	0.0001008
3466	6.84e-05
3478	0.0001008
3490	6.84e-05
3502	7.56e-05
3514	0.0001008
3526	9.36e-05
3538	0.0001368
3550	0.0001008
3562	9e-05
3574	0.0001404
3586	0.0001044
3598	9e-05
3610	9e-05
3622	0.0001692
3634	0.0001872
3646	0.0001836
3658	0.0002016
3670	0.0001764
3682	0.0002016
3694	0.0002124
3706	0.0001908
3718	0.0002124
3730	0.0001404
3742	0.0002232
3754	0.0001944
3766	0.0002268
3778	0.0001656
3790	0.0002232
3802	0.0001476
3814	0.0001656
3826	0.0002052
3838	0.0001188
