Infrared Spectrum: 4,7,13,16-TETRAOXA-1,10-DITHIACYCLOOCTADECANE-1,10-BIS-P-TOLYL-SULFONYLIMIDO- (Alpha-FORM)
Formula: C26 H38 N2 O8 S4
CAS: 119698-57-6
State: SOLID (KBr PRESSING)
Melting point: 175-177 C
Class: COBLENTZ
Instrument: Not specified, most likely a prism, grating, or hybrid spectrometer.
Sampling: TRANSMISSION
Resolution: 4
Origin: EASTMAN KODAK COMPANY, RESEARCH LABORATORIES, ROCHESTER, N.Y.
MICROMETERS	TRANSMITTANCE
2.029	0.701
2.06419	0.712
2.09938	0.721
2.13458	0.731
2.16977	0.738
2.20496	0.74
2.24015	0.736
2.27534	0.733
2.31054	0.731
2.34573	0.749
2.38092	0.745
2.41611	0.754
2.4513	0.749
2.4865	0.745
2.52169	0.747
2.55688	0.759
2.59207	0.757
2.62726	0.759
2.66246	0.77
2.69765	0.771
2.73284	0.766
2.76803	0.743
2.80322	0.67
2.83842	0.647
2.87361	0.622
2.9088	0.615
2.94399	0.608
2.97918	0.629
3.01438	0.68
3.04957	0.698
3.08476	0.729
3.11995	0.736
3.15515	0.754
3.19034	0.759
3.22553	0.771
3.26072	0.761
3.29591	0.738
3.33111	0.735
3.3663	0.624
3.40149	0.687
3.43668	0.501
3.47187	0.564
3.50707	0.519
3.54226	0.689
3.57745	0.7
3.61264	0.75
3.64783	0.766
3.68303	0.768
3.71822	0.78
3.75341	0.791
3.7886	0.8
3.82379	0.8
3.85899	0.8
3.89418	0.792
3.92937	0.785
3.96456	0.801
3.99975	0.803
4.03495	0.803
4.07014	0.803
4.10533	0.8
4.14052	0.798
4.17571	0.798
4.21091	0.812
4.2461	0.803
4.28129	0.803
4.31648	0.8
4.35167	0.798
4.38687	0.796
4.42206	0.796
4.45725	0.792
4.49244	0.792
4.52763	0.803
4.56283	0.801
4.59802	0.796
4.63321	0.801
4.6684	0.803
4.70359	0.808
4.73879	0.803
4.77398	0.814
4.80917	0.8
4.84436	0.796
4.87955	0.801
4.91475	0.805
4.94994	0.807
4.98513	0.805
5.02032	0.807
5.05552	0.8
5.09071	0.805
5.1259	0.784
5.16109	0.787
5.19628	0.792
5.23148	0.796
5.26667	0.78
5.30186	0.8
5.33705	0.8
5.37224	0.796
5.40744	0.801
5.44263	0.805
5.47782	0.808
5.51301	0.805
5.5482	0.789
5.5834	0.775
5.61859	0.791
5.65378	0.778
5.68897	0.792
5.72416	0.78
5.75936	0.761
5.79455	0.729
5.82974	0.752
5.86493	0.757
5.90012	0.771
5.93532	0.773
5.97051	0.761
6.0057	0.742
6.04089	0.747
6.07608	0.708
6.11128	0.696
6.14647	0.708
6.18166	0.719
6.21685	0.707
6.25204	0.663
6.28724	0.724
6.32243	0.757
6.35762	0.761
6.39281	0.771
6.428	0.757
6.4632	0.763
6.49839	0.757
6.53358	0.756
6.56877	0.75
6.60396	0.75
6.63916	0.714
6.67435	0.678
6.70954	0.612
6.74473	0.55
6.77992	0.629
6.81512	0.663
6.85031	0.636
6.8855	0.591
6.92069	0.652
6.95589	0.678
6.99108	0.673
7.02627	0.664
7.06146	0.621
7.09665	0.638
7.13185	0.592
7.16704	0.584
7.20223	0.657
7.23742	0.652
7.27261	0.663
7.30781	0.557
7.343	0.554
7.37819	0.619
7.41338	0.507
7.44857	0.7
7.48377	0.691
7.51896	0.689
7.55415	0.682
7.58934	0.642
7.62453	0.594
7.65973	0.471
7.69492	0.412
7.73011	0.27
7.7653	0.249
7.80049	0.205
7.83569	0.147
7.87088	0.301
7.90607	0.405
7.94126	0.485
7.97645	0.512
8.01165	0.543
8.04684	0.589
8.08203	0.603
8.11722	0.577
8.15241	0.64
8.18761	0.671
8.2228	0.668
8.25799	0.654
8.29318	0.61
8.32837	0.603
8.36357	0.607
8.39876	0.596
8.43395	0.601
8.46914	0.582
8.50433	0.582
8.53953	0.582
8.57472	0.542
8.60991	0.461
8.6451	0.34
8.68029	0.191
8.71549	0.071
8.75068	0.059
8.78587	0.103
8.82106	0.149
8.85626	0.147
8.89145	0.098
8.92664	0.119
8.96183	0.154
8.99702	0.221
9.03222	0.263
9.06741	0.284
9.1026	0.208
9.13779	0.138
9.17298	0.129
9.20818	0.294
9.24337	0.328
9.27856	0.289
9.31375	0.308
9.34894	0.384
9.38414	0.438
9.41933	0.485
9.45452	0.489
9.48971	0.505
9.5249	0.484
9.5601	0.431
9.59529	0.389
9.63048	0.45
9.66567	0.464
9.70086	0.447
9.73606	0.45
9.77125	0.331
9.80644	0.457
9.84163	0.501
9.87682	0.489
9.91202	0.447
9.94721	0.384
9.9824	0.268
10.0176	0.178
10.0528	0.121
10.088	0.119
10.1232	0.177
10.1584	0.221
10.1936	0.254
10.2287	0.259
10.2639	0.271
10.2991	0.27
10.3343	0.298
10.3695	0.331
10.4047	0.35
10.4399	0.38
10.4751	0.412
10.5103	0.438
10.5455	0.475
10.5807	0.496
10.6159	0.528
10.651	0.55
10.6862	0.563
10.7214	0.559
10.7566	0.589
10.7918	0.587
10.827	0.596
10.8622	0.591
10.8974	0.54
10.9326	0.475
10.9678	0.496
11.003	0.529
11.0382	0.55
11.0734	0.577
11.1085	0.571
11.1437	0.58
11.1789	0.568
11.2141	0.58
11.2493	0.598
11.2845	0.587
11.3197	0.596
11.3549	0.592
11.3901	0.603
11.4253	0.601
11.4605	0.598
11.4957	0.614
11.5308	0.605
11.566	0.61
11.6012	0.615
11.6364	0.605
11.6716	0.612
11.7068	0.601
11.742	0.598
11.7772	0.619
11.8124	0.601
11.8476	0.598
11.8828	0.6
11.918	0.585
11.9532	0.577
11.9883	0.58
12.0235	0.563
12.0587	0.533
12.0939	0.501
12.1291	0.473
12.1643	0.482
12.1995	0.478
12.2347	0.438
12.2699	0.421
12.3051	0.34
12.3403	0.305
12.3755	0.363
12.4107	0.429
12.4458	0.447
12.481	0.466
12.5162	0.48
12.5514	0.503
12.5866	0.535
12.6218	0.54
12.657	0.533
12.6922	0.54
12.7274	0.543
12.7626	0.54
12.7978	0.538
12.833	0.54
12.8681	0.519
12.9033	0.528
12.9385	0.521
12.9737	0.498
13.0089	0.485
13.0441	0.47
13.0793	0.429
13.1145	0.38
13.1497	0.329
13.1849	0.294
13.2201	0.256
13.2553	0.268
13.2905	0.296
13.3256	0.319
13.3608	0.338
13.396	0.363
13.4312	0.405
13.4664	0.436
13.5016	0.449
13.5368	0.464
13.572	0.47
13.6072	0.47
13.6424	0.468
13.6776	0.482
13.7128	0.487
13.7479	0.478
13.7831	0.485
13.8183	0.508
13.8535	0.478
13.8887	0.482
13.9239	0.487
13.9591	0.498
13.9943	0.485
14.0295	0.464
14.0647	0.45
14.0999	0.459
14.1351	0.44
14.1703	0.44
14.2054	0.445
14.2406	0.449
14.2758	0.452
14.311	0.45
14.3462	0.438
14.3814	0.396
14.4166	0.41
14.4518	0.41
14.487	0.419
14.5222	0.426
14.5574	0.421
14.5926	0.429
14.6277	0.429
14.6629	0.449
14.6981	0.44
14.7333	0.442
14.7685	0.447
14.8037	0.438
14.8389	0.431
14.8741	0.433
14.9093	0.468
14.9445	0.482
14.9797	0.375
15.0149	0.317
15.0501	0.349
15.0852	0.342
15.1204	0.277
15.1556	0.259
15.1908	0.24
15.226	0.242
15.2612	0.247
15.2964	0.277
15.3316	0.3
15.3668	0.319
15.402	0.352
15.4372	0.364
15.4724	0.371
15.5075	0.373
15.5427	0.4
15.5779	0.405
15.6131	0.405
15.6483	0.403
15.6835	0.408
15.7187	0.419
15.7539	0.405
15.7891	0.403
15.8243	0.412
15.8595	0.419
15.8947	0.421
15.9299	0.422
15.965	0.405
