Infrared Spectrum: p-Aminophenylacetic acid
Formula: C 8 H 9 N O 2
CAS: 1197-55-3
State: gas
Instrument: HP-GC/MS/IRD
Origin: NIST Mass Spectrometry Data Center
1/CM	ABSORBANCE
550	0.00102
562	0.0016854
574	0.001008
586	0.0008856
598	0.0014214
610	0.001452
622	0.0013554
634	0.0013926
646	0.001425
658	0.0012516
670	0.001383
682	0.001131
694	0.0011664
706	0.0007098
718	0.0005448
730	0.0003612
742	0.0002496
754	0.000201
766	0.000222
778	0.0005268
790	0.0008736
802	0.0009636
814	0.0008802
826	0.0006888
838	0.0003654
850	0.0002676
862	0.0001662
874	0.0001362
886	6.78e-05
898	6.48e-05
910	5.64e-05
922	5.52e-05
934	4.86e-05
946	6.78e-05
958	3.6e-06
970	5.58e-05
982	1.8e-05
994	3.54e-05
1006	4.98e-05
1018	2.58e-05
1030	0.0001038
1042	0.0001056
1054	0.0002808
1066	0.0006318
1078	0.0012414
1090	0.002352
1102	0.004404
1114	0.0056028
1126	0.003579
1138	0.0020442
1150	0.0010854
1162	0.0006216
1174	0.0007068
1186	0.0009186
1198	0.0006642
1210	0.0006828
1222	0.0005244
1234	0.0004392
1246	0.0005802
1258	0.0012408
1270	0.002403
1282	0.0018348
1294	0.0007836
1306	0.0005496
1318	0.0004194
1330	0.0004806
1342	0.0007398
1354	0.0008088
1366	0.0006132
1378	0.0003636
1390	0.0001476
1402	0.0001194
1414	0.0001596
1426	0.0002838
1438	0.0003384
1450	0.0002448
1462	0.0001536
1474	0.000177
1486	0.0002232
1498	0.0007236
1510	0.0030402
1522	0.0035178
1534	0.0008502
1546	0.0002796
1558	0.0002016
1570	0.0002088
1582	0.0002928
1594	0.0004326
1606	0.0008388
1618	0.0021462
1630	0.0032508
1642	0.0013302
1654	0.0003486
1666	0.0001884
1678	0.0001494
1690	0.00018
1702	0.0002802
1714	0.0004242
1726	0.0007134
1738	0.0013104
1750	0.0024648
1762	0.0039882
1774	0.0057528
1786	0.0055164
1798	0.0035766
1810	0.001761
1822	0.0006774
1834	0.0003156
1846	0.000168
1858	0.0001278
1870	9.72e-05
1882	9.12e-05
1894	4.08e-05
1906	4.2e-06
1918	2.22e-05
1930	1.92e-05
1942	1.38e-05
1954	2.82e-05
1966	1.98e-05
1978	1.44e-05
1990	1.74e-05
2002	1.56e-05
2014	2.16e-05
2026	2.7e-05
2038	3.48e-05
2050	2.76e-05
2062	2.04e-05
2074	1.62e-05
2086	3.84e-05
2098	1.74e-05
2110	3.12e-05
2122	3.6e-05
2134	3.42e-05
2146	0
2158	1.38e-05
2170	2.22e-05
2182	2.28e-05
2194	3.54e-05
2206	3.36e-05
2218	3.24e-05
2230	0
2242	3.06e-05
2254	2.46e-05
2266	4.92e-05
2278	6.36e-05
2290	0.0001092
2302	0.0002394
2314	0.000357
2326	0.0004518
2338	0.0003966
2350	0.0003474
2362	0.0005784
2374	0.0004182
2386	0.0001134
2398	3.72e-05
2410	3.36e-05
2422	2.94e-05
2434	1.56e-05
2446	5.22e-05
2458	2.58e-05
2470	4.02e-05
2482	3.3e-05
2494	2.88e-05
2506	1.62e-05
2518	3.72e-05
2530	7.92e-05
2542	6.54e-05
2554	3.84e-05
2566	5.46e-05
2578	4.38e-05
2590	3.84e-05
2602	2.28e-05
2614	7.08e-05
2626	5.34e-05
2638	6.48e-05
2650	4.74e-05
2662	4.5e-05
2674	4.62e-05
2686	4.74e-05
2698	6.72e-05
2710	5.52e-05
2722	7.32e-05
2734	5.22e-05
2746	6.24e-05
2758	6.78e-05
2770	4.62e-05
2782	7.74e-05
2794	8.16e-05
2806	7.62e-05
2818	9.12e-05
2830	7.86e-05
2842	9.6e-05
2854	0.0001032
2866	0.0001296
2878	0.0001362
2890	0.0001956
2902	0.0002016
2914	0.0002736
2926	0.000366
2938	0.0004056
2950	0.000348
2962	0.0003144
2974	0.0003006
2986	0.0003036
2998	0.0004794
3010	0.0007902
3022	0.000864
3034	0.001068
3046	0.0007878
3058	0.000555
3070	0.0004476
3082	0.0002886
3094	0.000195
3106	0.0002058
3118	0.0001536
3130	0.000168
3142	0.0001092
3154	6.36e-05
3166	6.18e-05
3178	7.92e-05
3190	5.52e-05
3202	9.24e-05
3214	7.32e-05
3226	0.000114
3238	0.0001164
3250	6.12e-05
3262	7.2e-05
3274	6.9e-05
3286	6.78e-05
3298	3.96e-05
3310	2.4e-05
3322	4.32e-05
3334	5.52e-05
3346	9.6e-05
3358	6.66e-05
3370	0.0001236
3382	0.000126
3394	0.0002106
3406	0.0004014
3418	0.000387
3430	0.0001884
3442	0.0001296
3454	9.78e-05
3466	0.0001278
3478	0.0001404
3490	0.0003
3502	0.0003804
3514	0.000243
3526	0.000249
3538	0.0002226
3550	0.0004446
3562	0.00108
3574	0.0025008
3586	0.0012762
3598	0.0003852
3610	0.0002004
3622	0.000135
3634	6.18e-05
3646	6.12e-05
3658	7.44e-05
3670	5.1e-05
3682	8.28e-05
3694	4.44e-05
3706	5.34e-05
3718	5.94e-05
3730	9.42e-05
3742	3.78e-05
3754	5.28e-05
3766	6.3e-05
3778	5.34e-05
3790	9.96e-05
3802	1.86e-05
3814	7.14e-05
3826	2.1e-05
3838	8.76e-05
