Infrared Spectrum: p-Dimethylaminobenzonitrile
Formula: C 9 H 10 N 2
CAS: 1197-19-9
State: gas
Origin: EPA-IR VAPOR PHASE LIBRARY
1/CM	ABSORBANCE
551.7	0.00801
563.274	0.00417
574.848	0.00177
586.421	0.00147
597.995	0.00139
609.569	0.00117
621.143	0.00123
632.717	0.00199
644.291	0.00436
655.864	0.00319
667.438	0.0010588
679.012	0.000749
690.586	0.0005982
702.16	0.0006361
713.734	0.0006451
725.307	0.0006395
736.881	0.0006436
748.455	0.000772
760.029	0.0010694
771.603	0.00147
783.177	0.0027
794.75	0.00511
806.324	0.0132
817.898	0.02334
829.472	0.01577
841.046	0.00588
852.619	0.00218
864.193	0.00155
875.767	0.00138
887.341	0.00132
898.915	0.00117
910.489	0.00143
922.062	0.0027
933.636	0.0088
945.21	0.01514
956.784	0.00672
968.358	0.00209
979.932	0.00144
991.505	0.00163
1003.08	0.00247
1014.65	0.00256
1026.23	0.00216
1037.8	0.00283
1049.37	0.00466
1060.95	0.0066
1072.52	0.00664
1084.1	0.00582
1095.67	0.005
1107.24	0.00488
1118.82	0.00613
1130.39	0.00846
1141.97	0.01295
1153.54	0.02452
1165.11	0.03687
1176.69	0.03124
1188.26	0.01791
1199.83	0.01212
1211.41	0.01315
1222.98	0.01408
1234.56	0.01094
1246.13	0.00698
1257.7	0.00532
1269.28	0.00492
1280.85	0.00478
1292.42	0.00512
1304	0.00588
1315.57	0.00795
1327.15	0.01204
1338.72	0.02187
1350.29	0.04515
1361.87	0.0545
1373.44	0.02754
1385.02	0.01137
1396.59	0.00748
1408.16	0.007
1419.74	0.00729
1431.31	0.00854
1442.88	0.01224
1454.46	0.012
1466.03	0.00935
1477.61	0.01089
1489.18	0.01328
1500.75	0.02373
1512.33	0.06622
1523.9	0.08325
1535.48	0.03839
1547.05	0.01765
1558.62	0.01298
1570.2	0.01171
1581.77	0.01447
1593.34	0.03266
1604.92	0.08471
1616.49	0.08014
1628.07	0.01983
1639.64	0.00879
1651.21	0.00583
1662.79	0.00464
1674.36	0.00363
1685.93	0.00313
1697.51	0.00267
1709.08	0.00226
1720.66	0.00191
1732.23	0.00187
1743.8	0.00216
1755.38	0.00182
1766.95	0.00127
1778.53	0.0011082
1790.1	0.0011578
1801.67	0.0010945
1813.25	0.0010365
1824.82	0.0009357
1836.39	0.0008274
1847.97	0.0008948
1859.54	0.00127
1871.12	0.00208
1882.69	0.00259
1894.26	0.00198
1905.84	0.0010883
1917.41	0.0007185
1928.99	0.0007232
1940.56	0.0008467
1952.13	0.0010307
1963.71	0.0009695
1975.28	0.0008533
1986.85	0.0010559
1998.43	0.00133
2010	0.00146
2021.58	0.0010178
2033.15	0.0006291
2044.72	0.000524
2056.3	0.0004882
2067.87	0.0005063
2079.44	0.0004385
2091.02	0.0004752
2102.59	0.0005148
2114.17	0.000596
2125.74	0.0006289
2137.31	0.0007227
2148.89	0.0008111
2160.46	0.0009101
2172.04	0.0010516
2183.61	0.000955
2195.18	0.00139
2206.76	0.00375
2218.33	0.01718
2229.9	0.02589
2241.48	0.00632
2253.05	0.00123
2264.63	0.0007996
2276.2	0.0006508
2287.77	0.0006532
2299.35	0.0006308
2310.92	0.0006034
2322.5	0.0006877
2334.07	0.0007264
2345.64	0.0007694
2357.22	0.000869
2368.79	0.000866
2380.36	0.0007989
2391.94	0.0009214
2403.51	0.0009669
2415.09	0.0008261
2426.66	0.0007765
2438.23	0.0008751
2449.81	0.000901
2461.38	0.0008564
2472.96	0.0007731
2484.53	0.0008829
2496.1	0.0010525
2507.68	0.00126
2519.25	0.0014
2530.82	0.00134
2542.4	0.00135
2553.97	0.0015
2565.55	0.00165
2577.12	0.00184
2588.69	0.00176
2600.27	0.00157
2611.84	0.00143
2623.41	0.00138
2634.99	0.00132
2646.56	0.00121
2658.14	0.0012
2669.71	0.00119
2681.28	0.00123
2692.86	0.00157
2704.43	0.00173
2716.01	0.0018
2727.58	0.00192
2739.15	0.00209
2750.73	0.0025
2762.3	0.00325
2773.87	0.00471
2785.45	0.00695
2797.02	0.01104
2808.6	0.01538
2820.17	0.01522
2831.74	0.01321
2843.32	0.01287
2854.89	0.0142
2866.47	0.01611
2878.04	0.01674
2889.61	0.01692
2901.19	0.01728
2912.76	0.01729
2924.33	0.01711
2935.91	0.01755
2947.48	0.01776
2959.06	0.0159
2970.63	0.01333
2982.2	0.01174
2993.78	0.01095
3005.35	0.00928
3016.92	0.00708
3028.5	0.00551
3040.07	0.00549
3051.65	0.00613
3063.22	0.00458
3074.79	0.00317
3086.37	0.00399
3097.94	0.00492
3109.52	0.00458
3121.09	0.00282
3132.66	0.00164
3144.24	0.0010576
3155.81	0.0007518
3167.38	0.0005929
3178.96	0.0004641
3190.53	0.0005818
3202.11	0.000626
3213.68	0.0006803
3225.25	0.0006627
3236.83	0.0004586
3248.4	0.0002817
3259.98	0.0003293
3271.55	0.0001456
3283.12	0.0002702
3294.7	0.00018738
3306.27	0.0001496
3317.84	0.000161664
3329.42	0.000136
3340.99	0.00023016
3352.57	0.000167609
3364.14	0.0002613
3375.71	0.0003267
3387.29	0.0005434
3398.86	0.0005524
3410.43	0.0005174
3422.01	0.0002887
3433.58	0.0004012
3445.16	0.0006109
3456.73	0.0004633
3468.3	0.0003108
3479.88	0.0001921
3491.45	0.0003
3503.03	0.0003321
3514.6	0.00019133
3526.17	0.0002711
3537.75	7.69e-05
3549.32	5.4e-05
3560.89	0.0001372
3572.47	0.00021716
3584.04	0.00020998
3595.62	0.00020829
3607.19	0.0002947
3618.76	0.0001249
3630.34	0.0001277
3641.91	0.00021418
3653.49	0.00017655
3665.06	0.0002379
3676.63	0
3688.21	0.00020744
3699.78	0.0001383
3711.35	0.0001766
3722.93	0.0001395
3734.5	0.0001155
3746.08	0.0001438
3757.65	0.00018455
3769.22	0.00021972
3780.8	0.0002749
3792.37	0.0002741
3803.94	0.00021239
3815.52	0.0004281
3827.09	0.0005394
3838.67	0.000466
3850.24	0.0003631
3861.81	0.000342
3873.39	0.000306
3884.96	0.00021755
3896.54	0.000224
3908.11	0.000164816
3919.68	0.0002807
3931.26	0.0003546
3942.83	0.00023123
3954.4	0.0003493
3965.98	0.00024395
3977.55	0.0002654
3989.13	0.00019557
4000.7	0.00019476
