Infrared Spectrum: 3',4'-Dihydroxyacetophenone
Formula: C8 H8 O3
CAS: 1197-09-7
State: gas
Origin: EPA-IR VAPOR PHASE LIBRARY
1/CM	ABSORBANCE
549.8	0.004677
559.445	0.007987
569.09	0.007637
578.734	0.007587
588.379	0.009447
598.024	0.008057
607.669	0.004787
617.313	0.003587
626.958	0.004207
636.603	0.005177
646.248	0.004017
655.893	0.002427
665.537	0.001847
675.182	0.002337
684.827	0.003257
694.472	0.002747
704.116	0.001857
713.761	0.001857
723.406	0.001747
733.051	0.001827
742.695	0.001867
752.34	0.002527
761.985	0.003777
771.63	0.009197
781.275	0.013257
790.919	0.009447
800.564	0.006997
810.209	0.008687
819.854	0.007667
829.498	0.006107
839.143	0.004347
848.788	0.004157
858.433	0.004067
868.078	0.005157
877.722	0.006657
887.367	0.009287
897.012	0.010767
906.657	0.007877
916.301	0.004807
925.946	0.003337
935.591	0.002747
945.236	0.003837
954.88	0.005207
964.525	0.004717
974.17	0.003667
983.815	0.002977
993.46	0.001917
1003.1	0.001507
1012.75	0.001697
1022.39	0.002177
1032.04	0.002117
1041.68	0.002677
1051.33	0.003967
1060.97	0.004907
1070.62	0.005567
1080.26	0.004867
1089.91	0.007327
1099.55	0.018537
1109.2	0.028447
1118.84	0.019787
1128.49	0.008487
1138.13	0.008317
1147.78	0.021787
1157.42	0.034197
1167.07	0.032477
1176.71	0.025697
1186.36	0.022827
1196	0.030467
1205.64	0.050877
1215.29	0.059397
1224.93	0.032207
1234.58	0.013887
1244.22	0.014427
1253.87	0.021967
1263.51	0.041197
1273.16	0.072947
1282.8	0.097487
1292.45	0.082687
1302.09	0.043057
1311.74	0.021967
1321.38	0.014147
1331.03	0.009947
1340.67	0.010327
1350.32	0.016657
1359.96	0.024097
1369.61	0.019447
1379.25	0.011447
1388.9	0.007747
1398.54	0.005957
1408.18	0.007627
1417.83	0.014597
1427.47	0.026167
1437.12	0.026887
1446.76	0.014867
1456.41	0.008547
1466.05	0.006617
1475.7	0.005527
1485.34	0.005837
1494.99	0.010377
1504.63	0.020997
1514.28	0.026487
1523.92	0.019287
1533.57	0.010007
1543.21	0.005377
1552.86	0.004707
1562.5	0.005187
1572.15	0.006797
1581.79	0.011147
1591.44	0.020597
1601.08	0.031207
1610.73	0.030887
1620.37	0.020337
1630.01	0.010197
1639.66	0.005787
1649.3	0.005127
1658.95	0.005787
1668.59	0.007067
1678.24	0.012087
1687.88	0.028887
1697.53	0.050777
1707.17	0.044307
1716.82	0.015867
1726.46	0.005467
1736.11	0.004327
1745.75	0.004727
1755.4	0.004777
1765.04	0.003437
1774.69	0.003077
1784.33	0.002787
1793.98	0.001817
1803.62	0.0013808
1813.27	0.0012388
1822.91	0.0012162
1832.55	0.0011636
1842.2	0.0011515
1851.84	0.0012176
1861.49	0.0013649
1871.13	0.001319
1880.78	0.0012333
1890.42	0.0010662
1900.07	0.0009604
1909.71	0.0009061
1919.36	0.0008739
1929	0.0009047
1938.65	0.0008971
1948.29	0.0009997
1957.94	0.0010195
1967.58	0.0009279
1977.23	0.0009016
1986.87	0.0008227
1996.52	0.0008153
2006.16	0.0007605
2015.81	0.0007852
2025.45	0.0008926
2035.1	0.0011891
2044.74	0.001397
2054.38	0.0013074
2064.03	0.0010313
2073.67	0.0008928
2083.32	0.0007018
2092.96	0.0007416
2102.61	0.0007792
2112.25	0.0007401
2121.9	0.0007201
2131.54	0.0006105
2141.19	0.0005972
2150.83	0.0006445
2160.48	0.0006572
2170.12	0.000703
2179.77	0.0006597
2189.41	0.0005033
2199.06	0.0006051
2208.7	0.00067
2218.35	0.0005467
2227.99	0.0005174
2237.64	0.000668
2247.28	0.0007018
2256.92	0.0007829
2266.57	0.0008698
2276.21	0.0008959
2285.86	0.0009087
2295.5	0.000972
2305.15	0.0009429
2314.79	0.0009913
2324.44	0.0009046
2334.08	0.0008972
2343.73	0.0010094
2353.37	0.0009825
2363.02	0.0010596
2372.66	0.0010796
2382.31	0.0010118
2391.95	0.0010071
2401.6	0.0010155
2411.24	0.001011
2420.89	0.0008385
2430.53	0.0008075
2440.18	0.0007372
2449.82	0.0008639
2459.47	0.000864
2469.11	0.0009118
2478.75	0.0010205
2488.4	0.001175
2498.04	0.0011306
2507.69	0.001149
2517.33	0.0010376
2526.98	0.0010397
2536.62	0.0010339
2546.27	0.0010386
2555.91	0.0007595
2565.56	0.0009464
2575.2	0.0008636
2584.85	0.0009108
2594.49	0.0008266
2604.14	0.000822
2613.78	0.0009425
2623.43	0.0009715
2633.07	0.0009155
2642.72	0.0008259
2652.36	0.0008415
2662.01	0.0007797
2671.65	0.0008163
2681.29	0.0008084
2690.94	0.0007512
2700.58	0.0006145
2710.23	0.000558
2719.87	0.0005903
2729.52	0.0006382
2739.16	0.0006423
2748.81	0.0006541
2758.45	0.0007108
2768.1	0.0006412
2777.74	0.000576
2787.39	0.0006422
2797.03	0.0006105
2806.68	0.0006589
2816.32	0.0007193
2825.97	0.000555
2835.61	0.000713
2845.26	0.0006693
2854.9	0.0006186
2864.55	0.000871
2874.19	0.0009332
2883.84	0.0010435
2893.48	0.0009954
2903.12	0.0010277
2912.77	0.00114
2922.41	0.001547
2932.06	0.001967
2941.7	0.001977
2951.35	0.001687
2960.99	0.002107
2970.64	0.003057
2980.28	0.002507
2989.93	0.002017
2999.57	0.002217
3009.22	0.003307
3018.86	0.003387
3028.51	0.002857
3038.15	0.002777
3047.8	0.002977
3057.44	0.003067
3067.09	0.003387
3076.73	0.003187
3086.38	0.002537
3096.02	0.001817
3105.67	0.001407
3115.31	0.0011663
3124.95	0.0008875
3134.6	0.0007967
3144.24	0.0006942
3153.89	0.000605
3163.53	0.0006483
3173.18	0.000557
3182.82	0.0005984
3192.47	0.0006323
3202.11	0.0008624
3211.76	0.0007563
3221.4	0.0006905
3231.05	0.0006012
3240.69	0.000551
3250.34	0.0006445
3259.98	0.0005737
3269.63	0.0005429
3279.27	0.0007655
3288.92	0.0006124
3298.56	0.0007161
3308.21	0.0006503
3317.85	0.0006976
3327.49	0.000531
3337.14	0.0005752
3346.78	0.0006709
3356.43	0.0007062
3366.07	0.0011125
3375.72	0.0013675
3385.36	0.001447
3395.01	0.0012192
3404.65	0.0010871
3414.3	0.0009242
3423.94	0.0009208
3433.59	0.0008213
3443.23	0.0008604
3452.88	0.000752
3462.52	0.0008017
3472.17	0.0008317
3481.81	0.0008135
3491.46	0.000821
3501.1	0.0008132
3510.75	0.0006536
3520.39	0.0006691
3530.04	0.0005959
3539.68	0.000893
3549.32	0.001447
3558.97	0.002247
3568.61	0.003857
3578.26	0.009857
3587.9	0.023507
3597.55	0.033757
3607.19	0.026117
3616.84	0.010057
3626.48	0.003937
3636.13	0.005497
3645.77	0.011947
3655.42	0.021167
3665.06	0.018187
3674.71	0.006757
3684.35	0.001647
3694	0.0008504
3703.64	0.00042212
3713.29	0.0006258
3722.93	0.000264
3732.58	0.0006827
3742.22	0.00042526
3751.86	0.000159
3761.51	0.0003103
3771.15	0.0003559
3780.8	0.0004102
3790.44	0.0005087
3800.09	0.0004996
3809.73	0.00042646
3819.38	0.00043508
3829.02	0.0005729
3838.67	0.0003494
3848.31	0.00038955
3857.96	0.0005575
3867.6	0.00047831
3877.25	0.0005843
3886.89	0.0006105
3896.54	0.0006819
3906.18	0.0006657
3915.83	0.00046763
3925.47	0.0002916
3935.12	0.000251
3944.76	0
3954.41	0.0003305
3964.05	0.00042904
3973.69	0.00045234
3983.34	0.000276
3992.98	0.000153
