Infrared Spectrum: Pyrazole, 3-methyl-, hydrochloride
Formula: C4 H7 Cl N2
CAS: 119760-62-2
State: SOLID (KBr DISC, 0.8-1% WT)
Class: COBLENTZ
Instrument: PERKIN-ELMER 157
Sampling: TRANSMISSION
Resolution: 2
Origin: BRITISH PETROLEUM CO. LTD., ENGLAND
1/CM	TRANSMITTANCE
667	0.4875
676	0.4729
685	0.459
694	0.4362
703	0.4261
712	0.4098
721	0.3887
730	0.3805
739	0.362
748	0.3526
757	0.3587
766	0.3591
775	0.3317
784	0.2861
793	0.2256
802	0.1728
811	0.1491
820	0.1816
829	0.2582
838	0.3022
847	0.3258
856	0.3678
865	0.3945
874	0.3941
883	0.3861
892	0.3798
901	0.3699
910	0.3483
919	0.3437
928	0.4206
937	0.4475
946	0.4573
955	0.4587
964	0.456
973	0.4498
982	0.4181
991	0.3962
1000	0.4335
1009	0.4728
1018	0.4721
1027	0.456
1036	0.4116
1045	0.3418
1054	0.324
1063	0.3547
1072	0.4382
1081	0.43
1090	0.3466
1099	0.2707
1108	0.3085
1117	0.4554
1126	0.4797
1135	0.4783
1144	0.4671
1153	0.4526
1162	0.44
1171	0.422
1180	0.3996
1189	0.3898
1198	0.3701
1207	0.3679
1216	0.3847
1225	0.3852
1234	0.4227
1243	0.427
1252	0.41
1261	0.3412
1270	0.3205
1279	0.3163
1288	0.2849
1297	0.2631
1306	0.3055
1315	0.3212
1324	0.3387
1333	0.3831
1342	0.3954
1351	0.3953
1360	0.3874
1369	0.3684
1378	0.3571
1387	0.3555
1396	0.3343
1405	0.3021
1414	0.2647
1423	0.2462
1432	0.2313
1441	0.2279
1450	0.2347
1459	0.2363
1468	0.2338
1477	0.239
1486	0.2542
1495	0.2597
1504	0.2616
1513	0.2626
1522	0.2635
1531	0.2643
1540	0.2636
1549	0.2433
1558	0.2193
1567	0.1531
1576	0.0878
1585	0.1105
1594	0.124
1603	0.1584
1612	0.1692
1621	0.1902
1630	0.2115
1639	0.2314
1648	0.2622
1657	0.2711
1666	0.2987
1675	0.3163
1684	0.3251
1693	0.3376
1702	0.3389
1711	0.3393
1720	0.3392
1729	0.3389
1738	0.3376
1747	0.3345
1756	0.3292
1765	0.3244
1774	0.3229
1783	0.3219
1792	0.3197
1801	0.3135
1810	0.3074
1819	0.3062
1828	0.3053
1837	0.3028
1846	0.2982
1855	0.2974
1864	0.2968
1873	0.296
1882	0.2951
1891	0.2935
1900	0.2896
1909	0.2863
1918	0.2845
1927	0.2841
1936	0.2839
1945	0.2837
1954	0.2834
1963	0.2831
1972	0.281
1981	0.2784
1990	0.2766
1999	0.2682
2008	0.2645
2017	0.2629
2026	0.2623
2035	0.2619
2044	0.2614
2053	0.2606
2062	0.2598
2071	0.2595
2080	0.2591
2089	0.2583
2098	0.2561
2107	0.2535
2116	0.251
2125	0.2488
2134	0.2466
2143	0.2437
2152	0.2407
2161	0.2373
2170	0.2339
2179	0.2305
2188	0.2269
2197	0.2234
2206	0.2198
2215	0.2157
2224	0.2116
2233	0.2076
2242	0.2028
2251	0.1981
2260	0.1935
2269	0.1879
2278	0.1821
2287	0.1763
2296	0.1708
2305	0.1653
2314	0.1599
2323	0.1553
2332	0.151
2341	0.1463
2350	0.1425
2359	0.1404
2368	0.1336
2377	0.1227
2386	0.1155
2395	0.1085
2404	0.1033
2413	0.0988
2422	0.0956
2431	0.0927
2440	0.0901
2449	0.0815
2458	0.0719
2467	0.0655
2476	0.0614
2485	0.0594
2494	0.058
2503	0.0553
2512	0.052
2521	0.0468
2530	0.0388
2539	0.0334
2548	0.0316
2557	0.0308
2566	0.0304
2575	0.0301
2584	0.0298
2593	0.0296
2602	0.0293
2611	0.0291
2620	0.0289
2629	0.0286
2638	0.0283
2647	0.0279
2656	0.0276
2665	0.0273
2674	0.0267
2683	0.0262
2692	0.026
2701	0.0259
2710	0.0258
2719	0.0257
2728	0.0257
2737	0.0258
2746	0.0259
2755	0.026
2764	0.0261
2773	0.0261
2782	0.0262
2791	0.0263
2800	0.0264
2809	0.0265
2818	0.0266
2827	0.0267
2836	0.0268
2845	0.0269
2854	0.027
2863	0.0271
2872	0.0272
2881	0.0273
2890	0.0274
2899	0.0275
2908	0.0276
2917	0.0277
2926	0.0278
2935	0.0279
2944	0.0279
2953	0.028
2962	0.0281
2971	0.0282
2980	0.0284
2989	0.0285
2998	0.0286
3007	0.0287
3016	0.0288
3025	0.0289
3034	0.0289
3043	0.0289
3052	0.029
3061	0.029
3070	0.0291
3079	0.0291
3088	0.0291
3097	0.0291
3106	0.029
3115	0.029
3124	0.029
3133	0.029
3142	0.029
3151	0.029
3160	0.029
3169	0.029
3178	0.029
3187	0.029
3196	0.029
3205	0.029
3214	0.0287
3223	0.0285
3232	0.0283
3241	0.0281
3250	0.0279
3259	0.0278
3268	0.0276
3277	0.0274
3286	0.0273
3295	0.0272
3304	0.027
3313	0.0269
3322	0.0268
3331	0.0267
3340	0.0267
3349	0.0267
3358	0.0267
3367	0.0267
3376	0.0269
3385	0.027
3394	0.0272
3403	0.0273
3412	0.0277
3421	0.0282
3430	0.0286
3439	0.029
3448	0.0296
3457	0.0303
3466	0.0309
3475	0.0315
3484	0.0326
3493	0.0349
3502	0.0425
3511	0.0499
3520	0.0575
3529	0.0674
3538	0.0753
3547	0.0799
3556	0.0847
3565	0.0938
3574	0.1051
3583	0.1125
3592	0.121
3601	0.1281
3610	0.1335
3619	0.138
3628	0.1414
3637	0.1437
3646	0.1456
3655	0.1465
3664	0.1472
3673	0.1475
3682	0.1476
3691	0.1477
3700	0.1479
3709	0.1479
3718	0.1481
3727	0.1482
3736	0.1482
3745	0.1484
3754	0.1485
3763	0.1485
3772	0.1485
3781	0.1485
3790	0.1484
3799	0.1483
3808	0.1482
3817	0.1481
3826	0.1478
3835	0.1472
3844	0.1467
3853	0.1461
3862	0.1455
3871	0.1447
3880	0.1439
3889	0.1431
3898	0.1426
3907	0.1422
3916	0.1418
3925	0.1415
3934	0.1412
3943	0.1409
3952	0.1406
3961	0.1404
3970	0.1403
3979	0.1402
3988	0.14
3997	0.14
