Infrared Spectrum: 2-(TRICHLOROMETHYL)-5-CHLORO PYRIDINE
Formula: C6 H3 Cl4 N
CAS: 1197-03-1
State: SOLUTION (10% CCl4 FOR 5000-1330, 10% CS2 FOR 1330-625 CM^-^1)
Class: COBLENTZ
Instrument: Not specified, most likely a prism, grating, or hybrid spectrometer.
Sampling: TRANSMISSION
Path length: 0.0125 CM, 0.0120 CM
Resolution: 4
Origin: DOW CHEMICAL COMPANY
MICROMETERS	TRANSMITTANCE
2.021	0.897
2.06207	0.897
2.10315	0.895
2.14422	0.895
2.18529	0.895
2.22637	0.894
2.26744	0.89
2.30851	0.89
2.34959	0.89
2.39066	0.895
2.43173	0.895
2.47281	0.895
2.51388	0.902
2.55495	0.895
2.59603	0.902
2.6371	0.911
2.67817	0.902
2.71925	0.902
2.76032	0.902
2.80139	0.9
2.84247	0.897
2.88354	0.895
2.92461	0.887
2.96569	0.887
3.00676	0.883
3.04783	0.887
3.08891	0.89
3.12998	0.894
3.17105	0.892
3.21213	0.882
3.2532	0.87
3.29427	0.851
3.33535	0.888
3.37642	0.902
3.41749	0.909
3.45857	0.911
3.49964	0.912
3.54071	0.902
3.58179	0.902
3.62286	0.899
3.66393	0.9
3.70501	0.907
3.74608	0.905
3.78715	0.897
3.82823	0.904
3.8693	0.911
3.91037	0.911
3.95145	0.911
3.99252	0.899
4.03359	0.899
4.07467	0.905
4.11574	0.909
4.15681	0.904
4.19789	0.887
4.23896	0.887
4.28003	0.905
4.32111	0.914
4.36218	0.892
4.40325	0.904
4.44433	0.914
4.4854	0.919
4.52647	0.921
4.56755	0.921
4.60862	0.921
4.64969	0.919
4.69077	0.919
4.73184	0.919
4.77291	0.921
4.81399	0.914
4.85506	0.911
4.89613	0.919
4.93721	0.919
4.97828	0.916
5.01935	0.914
5.06043	0.916
5.1015	0.919
5.14257	0.917
5.18365	0.904
5.22472	0.894
5.26579	0.917
5.30687	0.919
5.34794	0.919
5.38901	0.912
5.43009	0.888
5.47116	0.895
5.51223	0.921
5.55331	0.909
5.59438	0.921
5.63545	0.928
5.67653	0.928
5.7176	0.919
5.75867	0.921
5.79975	0.924
5.84082	0.917
5.88189	0.919
5.92297	0.907
5.96404	0.907
6.00511	0.919
6.04619	0.907
6.08726	0.894
6.12833	0.88
6.16941	0.868
6.21048	0.823
6.25155	0.75
6.29263	0.652
6.3337	0.576
6.37477	0.441
6.41585	0.43
6.45692	0.458
6.49799	0.519
6.53907	0.601
6.58014	0.652
6.62121	0.707
6.66229	0.757
6.70336	0.803
6.74443	0.81
6.78551	0.757
6.82658	0.579
6.86765	0.379
6.90873	0.743
6.9498	0.741
6.99087	0.808
7.03195	0.849
7.07302	0.888
7.11409	0.888
7.15517	0.888
7.19624	0.885
7.23732	0.798
7.27839	0.535
7.31946	0.476
7.36054	0.762
7.40161	0.864
7.44268	0.883
7.48376	0.883
7.52483	0.847
7.5659	0.864
7.60698	0.88
7.64805	0.892
7.68912	0.885
7.7302	0.868
7.77127	0.844
7.81234	0.864
7.85342	0.88
7.89449	0.887
7.93556	0.888
7.97664	0.882
8.01771	0.876
8.05878	0.887
8.09986	0.892
8.14093	0.892
8.182	0.883
8.22308	0.863
8.26415	0.851
8.30522	0.846
8.3463	0.844
8.38737	0.847
8.42844	0.868
8.46952	0.883
8.51059	0.892
8.55166	0.895
8.59274	0.89
8.63381	0.888
8.67488	0.88
8.71596	0.861
8.75703	0.82
8.7981	0.777
8.83918	0.772
8.88025	0.774
8.92132	0.625
8.9624	0.364
9.00347	0.203
9.04454	0.241
9.08562	0.545
9.12669	0.767
9.16776	0.832
9.20884	0.849
9.24991	0.875
9.29098	0.888
9.33206	0.888
9.37313	0.89
9.4142	0.89
9.45528	0.892
9.49635	0.892
9.53742	0.892
9.5785	0.887
9.61957	0.878
9.66064	0.858
9.70172	0.765
9.74279	0.699
9.78386	0.752
9.82494	0.699
9.86601	0.43
9.90708	0.365
9.94816	0.767
9.98923	0.839
10.0303	0.868
10.0714	0.875
10.1124	0.882
10.1535	0.888
10.1946	0.89
10.2357	0.89
10.2767	0.883
10.3178	0.876
10.3589	0.87
10.4	0.858
10.441	0.864
10.4821	0.878
10.5232	0.882
10.5643	0.883
10.6053	0.885
10.6464	0.885
10.6875	0.883
10.7285	0.878
10.7696	0.866
10.8107	0.835
10.8518	0.791
10.8928	0.788
10.9339	0.822
10.975	0.839
11.0161	0.841
11.0571	0.82
11.0982	0.791
11.1393	0.735
11.1804	0.611
11.2214	0.37
11.2625	0.119
11.3036	0.136
11.3446	0.376
11.3857	0.5
11.4268	0.533
11.4679	0.533
11.5089	0.547
11.55	0.572
11.5911	0.593
11.6322	0.62
11.6732	0.62
11.7143	0.62
11.7554	0.622
11.7965	0.625
11.8375	0.625
11.8786	0.603
11.9197	0.593
11.9607	0.565
12.0018	0.523
12.0429	0.394
12.084	0.275
12.125	0.133
12.1661	0.068
12.2072	0.042
12.2483	0.054
12.2893	0.102
12.3304	0.2
12.3715	0.292
12.4126	0.384
12.4536	0.446
12.4947	0.468
12.5358	0.471
12.5769	0.461
12.6179	0.42
12.659	0.352
12.7001	0.225
12.7411	0.116
12.7822	0.035
12.8233	0.011
12.8644	0.032
12.9054	0.148
12.9465	0.287
12.9876	0.456
13.0287	0.581
13.0697	0.652
13.1108	0.7
13.1519	0.729
13.193	0.743
13.234	0.748
13.2751	0.752
13.3162	0.753
13.3572	0.741
13.3983	0.721
13.4394	0.707
13.4805	0.685
13.5215	0.663
13.5626	0.634
13.6037	0.593
13.6448	0.533
13.6858	0.435
13.7269	0.336
13.768	0.189
13.8091	0.109
13.8501	0.051
13.8912	0.027
13.9323	0.029
13.9733	0.063
14.0144	0.14
14.0555	0.247
14.0966	0.34
14.1376	0.434
14.1787	0.494
14.2198	0.531
14.2609	0.569
14.3019	0.591
14.343	0.601
14.3841	0.617
14.4252	0.622
14.4662	0.625
14.5073	0.627
14.5484	0.629
14.5894	0.629
14.6305	0.629
14.6716	0.622
14.7127	0.622
14.7537	0.615
14.7948	0.606
14.8359	0.603
14.877	0.596
14.918	0.593
14.9591	0.593
15.0002	0.584
15.0413	0.576
15.0823	0.553
15.1234	0.543
15.1645	0.533
15.2055	0.526
15.2466	0.517
15.2877	0.511
15.3288	0.505
15.3698	0.5
15.4109	0.497
15.452	0.494
15.4931	0.49
15.5341	0.482
15.5752	0.476
15.6163	0.473
15.6574	0.47
15.6984	0.463
15.7395	0.452
15.7806	0.447
15.8216	0.444
15.8627	0.442
