Infrared Spectrum: 1-AMINO-2-NAPHTHOL HYDROCHLORIDE
Formula: C10 H10 Cl N O
CAS: 1198-27-2
State: SOLID (MINERAL OIL MULL)
Class: COBLENTZ
Instrument: Not specified, most likely a prism, grating, or hybrid spectrometer.
Sampling: TRANSMISSION
Resolution: 4
Origin: DOW CHEMICAL COMPANY
MICROMETERS	TRANSMITTANCE
2.034	0.604
2.07506	0.614
2.11611	0.619
2.15717	0.626
2.19822	0.63
2.23928	0.633
2.28033	0.64
2.32139	0.643
2.36244	0.652
2.4035	0.66
2.44455	0.678
2.48561	0.695
2.52666	0.702
2.56772	0.712
2.60877	0.72
2.64983	0.729
2.69089	0.739
2.73194	0.746
2.773	0.751
2.81405	0.755
2.85511	0.753
2.89616	0.738
2.93722	0.669
2.97827	0.631
3.01933	0.52
3.06038	0.323
3.10144	0.212
3.14249	0.34
3.18355	0.369
3.2246	0.304
3.26566	0.195
3.30671	0.181
3.34777	0.148
3.38883	0.044
3.42988	0.085
3.47094	0.113
3.51199	0.202
3.55305	0.287
3.5941	0.356
3.63516	0.491
3.67621	0.566
3.71727	0.565
3.75832	0.553
3.79938	0.636
3.84043	0.583
3.88149	0.539
3.92254	0.657
3.9636	0.683
4.00466	0.732
4.04571	0.756
4.08677	0.763
4.12782	0.782
4.16888	0.792
4.20993	0.792
4.25099	0.794
4.29204	0.813
4.3331	0.828
4.37415	0.83
4.41521	0.83
4.45626	0.832
4.49732	0.835
4.53837	0.83
4.57943	0.832
4.62049	0.84
4.66154	0.849
4.7026	0.852
4.74365	0.861
4.78471	0.864
4.82576	0.869
4.86682	0.869
4.90787	0.868
4.94893	0.866
4.98998	0.863
5.03104	0.859
5.07209	0.847
5.11315	0.806
5.1542	0.799
5.19526	0.818
5.23631	0.835
5.27737	0.849
5.31843	0.856
5.35948	0.878
5.40054	0.886
5.44159	0.89
5.48265	0.883
5.5237	0.886
5.56476	0.892
5.60581	0.9
5.64687	0.9
5.68792	0.893
5.72898	0.902
5.77003	0.909
5.81109	0.916
5.85214	0.912
5.8932	0.904
5.93426	0.868
5.97531	0.722
6.01637	0.506
6.05742	0.465
6.09848	0.717
6.13953	0.787
6.18059	0.782
6.22164	0.727
6.2627	0.698
6.30375	0.7
6.34481	0.501
6.38586	0.604
6.42692	0.794
6.46797	0.832
6.50903	0.835
6.55009	0.63
6.59114	0.436
6.6322	0.26
6.67325	0.32
6.71431	0.421
6.75536	0.378
6.79642	0.467
6.83747	0.441
6.87853	0.464
6.91958	0.613
6.96064	0.772
7.00169	0.797
7.04275	0.804
7.0838	0.708
7.12486	0.739
7.16591	0.761
7.20697	0.669
7.24803	0.619
7.28908	0.647
7.33014	0.648
7.37119	0.773
7.41225	0.808
7.4533	0.825
7.49436	0.839
7.53541	0.83
7.57647	0.823
7.61752	0.761
7.65858	0.625
7.69963	0.398
7.74069	0.15
7.78174	0.227
7.8228	0.467
7.86386	0.601
7.90491	0.667
7.94597	0.729
7.98702	0.787
8.02808	0.806
8.06913	0.801
8.11019	0.797
8.15124	0.785
8.1923	0.676
8.23335	0.601
8.27441	0.784
8.31546	0.804
8.35652	0.813
8.39757	0.811
8.43863	0.797
8.47969	0.773
8.52074	0.731
8.5618	0.732
8.60285	0.794
8.64391	0.806
8.68496	0.784
8.72602	0.775
8.76707	0.828
8.80813	0.842
8.84918	0.842
8.89024	0.842
8.93129	0.844
8.97235	0.842
9.0134	0.785
9.05446	0.667
9.09551	0.532
9.13657	0.589
9.17763	0.698
9.21868	0.695
9.25974	0.633
9.30079	0.715
9.34185	0.791
9.3829	0.772
9.42396	0.744
9.46501	0.809
9.50607	0.84
9.54712	0.851
9.58818	0.857
9.62923	0.868
9.67029	0.871
9.71134	0.873
9.7524	0.859
9.79346	0.844
9.83451	0.863
9.87557	0.878
9.91662	0.885
9.95768	0.892
9.99873	0.892
10.0398	0.897
10.0808	0.898
10.1219	0.898
10.163	0.893
10.204	0.893
10.2451	0.895
10.2861	0.888
10.3272	0.871
10.3682	0.875
10.4093	0.881
10.4503	0.82
10.4914	0.813
10.5325	0.863
10.5735	0.861
10.6146	0.839
10.6556	0.873
10.6967	0.883
10.7377	0.886
10.7788	0.854
10.8198	0.669
10.8609	0.551
10.9019	0.695
10.943	0.835
10.9841	0.863
11.0251	0.885
11.0662	0.897
11.1072	0.897
11.1483	0.9
11.1893	0.902
11.2304	0.902
11.2714	0.904
11.3125	0.91
11.3536	0.912
11.3946	0.912
11.4357	0.916
11.4767	0.916
11.5178	0.905
11.5588	0.885
11.5999	0.885
11.6409	0.893
11.682	0.897
11.7231	0.873
11.7641	0.869
11.8052	0.902
11.8462	0.904
11.8873	0.904
11.9283	0.904
11.9694	0.898
12.0104	0.89
12.0515	0.88
12.0926	0.857
12.1336	0.821
12.1747	0.75
12.2157	0.551
12.2568	0.273
12.2978	0.318
12.3389	0.58
12.3799	0.738
12.421	0.821
12.4621	0.861
12.5031	0.873
12.5442	0.89
12.5852	0.898
12.6263	0.902
12.6673	0.898
12.7084	0.895
12.7494	0.89
12.7905	0.885
12.8315	0.883
12.8726	0.873
12.9137	0.864
12.9547	0.849
12.9958	0.772
13.0368	0.642
13.0779	0.659
13.1189	0.785
13.16	0.813
13.201	0.818
13.2421	0.811
13.2832	0.787
13.3242	0.748
13.3653	0.676
13.4063	0.5
13.4474	0.301
13.4884	0.291
13.5295	0.482
13.5705	0.65
13.6116	0.696
13.6527	0.702
13.6937	0.669
13.7348	0.674
13.7758	0.714
13.8169	0.734
13.8579	0.743
13.899	0.748
13.94	0.755
13.9811	0.758
14.0222	0.758
14.0632	0.753
14.1043	0.75
14.1453	0.741
14.1864	0.739
14.2274	0.722
14.2685	0.705
14.3095	0.683
14.3506	0.667
14.3917	0.662
14.4327	0.662
14.4738	0.669
14.5148	0.669
14.5559	0.662
14.5969	0.652
14.638	0.631
14.679	0.623
14.7201	0.611
14.7611	0.59
14.8022	0.575
14.8433	0.559
14.8843	0.534
14.9254	0.508
14.9664	0.484
15.0075	0.46
15.0485	0.443
15.0896	0.446
15.1306	0.464
15.1717	0.484
15.2128	0.508
15.2538	0.52
15.2949	0.523
15.3359	0.523
15.377	0.517
15.418	0.511
15.4591	0.503
15.5001	0.491
15.5412	0.477
15.5823	0.47
15.6233	0.465
15.6644	0.453
15.7054	0.443
15.7465	0.44
15.7875	0.428
15.8286	0.416
