Infrared Spectrum: PURINE, 2-AMINO-6-(METHYLTHIO)-
Formula: C6 H7 N5 S
CAS: 1198-47-6
State: SOLID (0.8 mg / 650 mg KBr DISC)
Melting point: 239.5 C
Class: COBLENTZ III
Instrument: PERKIN-ELMER 21 (GRATING)
Instrument parameters: FILTER CHANGE ABOUT 1075 CM^-^1
Sampling: TRANSMISSION
Resolution: 4
Origin: SOUTHERN RESEARCH INSTITUTE
1/CM	TRANSMITTANCE
629.915	0.681
638.183	0.7852
646.45	0.834
654.718	0.8385
662.986	0.8564
671.254	0.8525
679.521	0.8465
687.789	0.844
696.057	0.8367
704.324	0.8233
712.592	0.8048
720.86	0.78
729.128	0.7849
737.395	0.797
745.663	0.792
753.931	0.7854
762.198	0.7687
770.466	0.727
778.734	0.606
787.001	0.6447
795.269	0.7286
803.537	0.7047
811.805	0.6359
820.072	0.5439
828.34	0.5631
836.608	0.6379
844.875	0.6673
853.143	0.676
861.411	0.6809
869.679	0.7214
877.946	0.7154
886.214	0.7031
894.482	0.6347
902.749	0.4709
911.017	0.2955
919.285	0.3686
927.553	0.6223
935.82	0.744
944.088	0.734
952.356	0.733
960.623	0.7344
968.891	0.7494
977.159	0.7992
985.426	0.8039
993.694	0.794
1001.96	0.7803
1010.23	0.7595
1018.5	0.7088
1026.77	0.6434
1035.03	0.6428
1043.3	0.7131
1051.57	0.7708
1059.84	0.773
1068.1	0.772
1076.37	0.7575
1084.64	0.739
1092.91	0.7272
1101.17	0.7165
1109.44	0.709
1117.71	0.706
1125.98	0.707
1134.25	0.7164
1142.51	0.7455
1150.78	0.75
1159.05	0.7468
1167.32	0.7377
1175.58	0.7109
1183.85	0.6665
1192.12	0.691
1200.39	0.7317
1208.65	0.7234
1216.92	0.7103
1225.19	0.6946
1233.46	0.6509
1241.73	0.56
1249.99	0.4384
1258.26	0.2991
1266.53	0.5537
1274.8	0.6717
1283.06	0.6698
1291.33	0.6062
1299.6	0.5364
1307.87	0.396
1316.13	0.6285
1324.4	0.695
1332.67	0.6735
1340.94	0.6009
1349.21	0.4905
1357.47	0.3158
1365.74	0.3989
1374.01	0.4622
1382.28	0.4104
1390.54	0.3217
1398.81	0.462
1407.08	0.5994
1415.35	0.6018
1423.62	0.5682
1431.88	0.5124
1440.15	0.4452
1448.42	0.3725
1456.69	0.3438
1464.95	0.4239
1473.22	0.5088
1481.49	0.4683
1489.76	0.3185
1498.02	0.2174
1506.29	0.4706
1514.56	0.5613
1522.83	0.5531
1531.1	0.5097
1539.36	0.2931
1547.63	0.1823
1555.9	0.0803
1564.17	0.1066
1572.43	0.2401
1580.7	0.31
1588.97	0.2361
1597.24	0.1342
1605.5	0.1256
1613.77	0.1412
1622.04	0.168
1630.31	0.2955
1638.58	0.4206
1646.84	0.6452
1655.11	0.6916
1663.38	0.754
1671.65	0.7934
1679.91	0.805
1688.18	0.8114
1696.45	0.817
1704.72	0.8294
1712.98	0.8345
1721.25	0.8429
1729.52	0.8449
1737.79	0.85
1746.06	0.852
1754.32	0.853
1762.59	0.8566
1770.86	0.87
1779.13	0.8732
1787.39	0.877
1795.66	0.877
1803.93	0.882
1812.2	0.883
1820.47	0.883
1828.73	0.883
1837	0.883
1845.27	0.8847
1853.54	0.8906
1861.8	0.891
1870.07	0.8866
1878.34	0.884
1886.61	0.884
1894.87	0.884
1903.14	0.884
1911.41	0.884
1919.68	0.884
1927.95	0.88
1936.21	0.877
1944.48	0.877
1952.75	0.8765
1961.02	0.8716
1969.28	0.87
1977.55	0.87
1985.82	0.87
1994.09	0.87
2002.35	0.867
2010.62	0.864
2018.89	0.863
2027.16	0.863
2035.43	0.859
2043.69	0.857
2051.96	0.857
2060.23	0.857
2068.5	0.853
2076.76	0.852
2085.03	0.852
2093.3	0.847
2101.57	0.841
2109.83	0.84
2118.1	0.84
2126.37	0.836
2134.64	0.832
2142.91	0.829
2151.17	0.826
2159.44	0.826
2167.71	0.825
2175.98	0.825
2184.24	0.824
2192.51	0.816
2200.78	0.813
2209.05	0.807
2217.32	0.804
2225.58	0.793
2233.85	0.791
2242.12	0.787
2250.39	0.784
2258.65	0.78
2266.92	0.777
2275.19	0.772
2283.46	0.766
2291.72	0.755
2299.99	0.752
2308.26	0.744
2316.53	0.74
2324.8	0.739
2333.06	0.737
2341.33	0.733
2349.6	0.726
2357.87	0.722
2366.13	0.722
2374.4	0.718
2382.67	0.712
2390.94	0.707
2399.2	0.705
2407.47	0.701
2415.74	0.694
2424.01	0.678
2432.28	0.669
2440.54	0.659
2448.81	0.645
2457.08	0.637
2465.35	0.625
2473.61	0.615
2481.88	0.612
2490.15	0.599
2498.42	0.587
2506.68	0.579
2514.95	0.569
2523.22	0.564
2531.49	0.563
2539.76	0.567
2548.02	0.569
2556.29	0.569
2564.56	0.569
2572.83	0.567
2581.09	0.558
2589.36	0.547
2597.63	0.534
2605.9	0.528
2614.17	0.521
2622.43	0.514
2630.7	0.497
2638.97	0.487
2647.24	0.478
2655.5	0.472
2663.77	0.466
2672.04	0.463
2680.31	0.458
2688.57	0.456
2696.84	0.452
2705.11	0.449
2713.38	0.446
2721.65	0.442
2729.91	0.433
2738.18	0.429
2746.45	0.422
2754.72	0.42
2762.98	0.424
2771.25	0.428
2779.52	0.432
2787.79	0.439
2796.05	0.457
2804.32	0.474
2812.59	0.495
2820.86	0.507
2829.13	0.52
2837.39	0.524
2845.66	0.518
2853.93	0.504
2862.2	0.497
2870.46	0.492
2878.73	0.477
2887	0.454
2895.27	0.445
2903.53	0.442
2911.8	0.441
2920.07	0.439
2928.34	0.436
2936.61	0.429
2944.87	0.43
2953.14	0.433
2961.41	0.441
2969.68	0.449
2977.94	0.457
2986.21	0.468
2994.48	0.469
3002.75	0.468
3011.02	0.45
3019.28	0.431
3027.55	0.42
3035.82	0.405
3044.09	0.392
3052.35	0.383
3060.62	0.378
3068.89	0.376
3077.16	0.376
3085.42	0.376
3093.69	0.376
3101.96	0.377
3110.23	0.378
3118.5	0.379
3126.76	0.384
3135.03	0.391
3143.3	0.4
3151.57	0.416
3159.83	0.426
3168.1	0.4389
3176.37	0.462
3184.64	0.465
3192.9	0.47
3201.17	0.469
3209.44	0.464
3217.71	0.454
3225.98	0.438
3234.24	0.425
3242.51	0.42
3250.78	0.418
3259.05	0.412
3267.31	0.413
3275.58	0.418
3283.85	0.423
3292.12	0.43
3300.39	0.433
3308.65	0.433
3316.92	0.431
3325.19	0.429
3333.46	0.429
3341.72	0.429
3349.99	0.431
3358.26	0.442
3366.53	0.452
3374.79	0.469
3383.06	0.476
3391.33	0.476
3399.6	0.468
3407.87	0.459
3416.13	0.443
3424.4	0.438
3432.67	0.436
3440.94	0.438
3449.2	0.456
3457.47	0.5099
3465.74	0.5509
3474.01	0.587
3482.27	0.62
3490.54	0.656
3498.81	0.675
3507.08	0.692
3515.35	0.702
3523.61	0.714
3531.88	0.724
3540.15	0.734
3548.42	0.746
3556.68	0.757
3564.95	0.764
3573.22	0.775
3581.49	0.785
3589.75	0.794
3598.02	0.798
3606.29	0.8
3614.56	0.81
3622.83	0.814
3631.09	0.818
3639.36	0.817
3647.63	0.814
3655.9	0.813
3664.16	0.816
3672.43	0.819
3680.7	0.82
3688.97	0.819
3697.24	0.817
3705.5	0.817
3713.77	0.817
3722.04	0.814
3730.31	0.812
3738.57	0.81
3746.84	0.808
3755.11	0.807
3763.38	0.806
3771.64	0.804
3779.91	0.799
3788.18	0.795
3796.45	0.794
3804.72	0.795
3812.98	0.795
3821.25	0.795
3829.52	0.794
3837.79	0.794
3846.05	0.793
3854.32	0.792
3862.59	0.791
3870.86	0.791
3879.12	0.791
3887.39	0.792
3895.66	0.792
3903.93	0.79
