Infrared Spectrum: ADENINE, 2-(METHYLTHIO)-
Formula: C6 H7 N5 S
CAS: 1198-83-0
State: SOLID (0.8 mg / 650 mg KBr DISC)
Class: COBLENTZ III
Instrument: PERKIN-ELMER 21 (GRATING)
Instrument parameters: FILTER CHANGE AT 1075 CM^-^1
Sampling: TRANSMISSION
Resolution: 2
Origin: SOUTHERN RESEARCH INSTITUTE
1/CM	TRANSMITTANCE
632.244	0.599
641.609	0.7463
650.973	0.7847
660.338	0.7729
669.702	0.6734
679.067	0.6219
688.431	0.777
697.796	0.7756
707.16	0.7595
716.525	0.7288
725.889	0.702
735.254	0.6917
744.618	0.6799
753.983	0.6581
763.348	0.5636
772.712	0.4654
782.077	0.4615
791.441	0.654
800.806	0.6748
810.17	0.6539
819.535	0.6198
828.899	0.5812
838.264	0.544
847.628	0.5842
856.993	0.6346
866.358	0.6742
875.722	0.694
885.087	0.709
894.451	0.7082
903.816	0.6716
913.18	0.5882
922.545	0.3022
931.909	0.438
941.274	0.4925
950.638	0.6247
960.003	0.7023
969.367	0.7092
978.732	0.7466
988.097	0.776
997.461	0.7721
1006.83	0.7671
1016.19	0.7592
1025.55	0.7451
1034.92	0.736
1044.28	0.7161
1053.65	0.6651
1063.01	0.65
1072.38	0.6517
1081.74	0.6565
1091.11	0.6293
1100.47	0.5492
1109.84	0.459
1119.2	0.4864
1128.56	0.6127
1137.93	0.5557
1147.29	0.6046
1156.66	0.651
1166.02	0.6292
1175.39	0.5712
1184.75	0.5924
1194.12	0.6423
1203.48	0.6199
1212.85	0.5635
1222.21	0.4732
1231.57	0.265
1240.94	0.2768
1250.3	0.2815
1259.67	0.4198
1269.03	0.5774
1278.4	0.6032
1287.76	0.4674
1297.13	0.2376
1306.49	0.1925
1315.86	0.2147
1325.22	0.148
1334.58	0.1792
1343.95	0.4798
1353.31	0.5748
1362.68	0.6647
1372.04	0.6743
1381.41	0.6692
1390.77	0.6356
1400.14	0.5479
1409.5	0.3698
1418.87	0.3472
1428.23	0.4399
1437.59	0.451
1446.96	0.472
1456.32	0.424
1465.69	0.394
1475.05	0.4637
1484.42	0.5507
1493.78	0.5805
1503.15	0.603
1512.51	0.569
1521.88	0.5354
1531.24	0.4895
1540.6	0.4417
1549.97	0.3656
1559.33	0.2481
1568.7	0.0698
1578.06	0.0413
1587.43	0.044
1596.79	0.0716
1606.16	0.1519
1615.52	0.1418
1624.89	0.0504
1634.25	0.0216
1643.61	0.1135
1652.98	0.1729
1662.34	0.3217
1671.71	0.3527
1681.07	0.349
1690.44	0.4412
1699.8	0.5177
1709.17	0.6542
1718.53	0.7296
1727.9	0.7887
1737.26	0.8154
1746.62	0.8264
1755.99	0.8373
1765.35	0.844
1774.72	0.8465
1784.08	0.851
1793.45	0.854
1802.81	0.859
1812.18	0.86
1821.54	0.86
1830.91	0.86
1840.27	0.859
1849.63	0.8554
1859	0.851
1868.36	0.85
1877.73	0.847
1887.09	0.844
1896.46	0.844
1905.82	0.844
1915.19	0.8427
1924.55	0.839
1933.92	0.836
1943.28	0.8339
1952.64	0.829
1962.01	0.828
1971.37	0.825
1980.74	0.821
1990.1	0.8176
1999.47	0.816
2008.83	0.8132
2018.2	0.8084
2027.56	0.805
2036.93	0.8044
2046.29	0.8036
2055.65	0.8038
2065.02	0.8012
2074.38	0.7982
2083.75	0.7924
2093.11	0.789
2102.48	0.784
2111.84	0.779
2121.21	0.776
2130.57	0.7702
2139.94	0.7674
2149.3	0.7554
2158.66	0.752
2168.03	0.752
2177.39	0.7468
2186.76	0.741
2196.12	0.7348
2205.49	0.7288
2214.85	0.7174
2224.22	0.708
2233.58	0.702
2242.95	0.701
2252.31	0.6964
2261.67	0.6822
2271.04	0.6666
2280.4	0.653
2289.77	0.6446
2299.13	0.6338
2308.5	0.6184
2317.86	0.61
2327.23	0.603
2336.59	0.599
2345.95	0.598
2355.32	0.597
2364.68	0.5938
2374.05	0.5854
2383.41	0.579
2392.78	0.574
2402.14	0.571
2411.51	0.5634
2420.87	0.5584
2430.24	0.5468
2439.6	0.524
2448.96	0.5036
2458.33	0.4886
2467.69	0.4718
2477.06	0.4554
2486.42	0.4474
2495.79	0.4418
2505.15	0.439
2514.52	0.4324
2523.88	0.423
2533.25	0.4102
2542.61	0.406
2551.97	0.4004
2561.34	0.398
2570.7	0.3948
2580.07	0.3862
2589.43	0.3768
2598.8	0.3552
2608.16	0.3456
2617.53	0.3342
2626.89	0.322
2636.26	0.3118
2645.62	0.303
2654.98	0.2984
2664.35	0.2904
2673.71	0.287
2683.08	0.286
2692.44	0.2814
2701.81	0.2704
2711.17	0.2632
2720.54	0.2544
2729.9	0.25
2739.27	0.25
2748.63	0.2506
2757.99	0.2568
2767.36	0.2786
2776.72	0.2946
2786.09	0.306
2795.45	0.309
2804.82	0.3094
2814.18	0.2998
2823.55	0.2918
2832.91	0.289
2842.28	0.289
2851.64	0.289
2861	0.2854
2870.37	0.278
2879.73	0.2694
2889.1	0.2574
2898.46	0.246
2907.83	0.242
2917.19	0.239
2926.56	0.2354
2935.92	0.231
2945.29	0.228
2954.65	0.228
2964.01	0.228
2973.38	0.224
2982.74	0.216
2992.11	0.2034
3001.47	0.199
3010.84	0.2
3020.2	0.1994
3029.57	0.198
3038.93	0.1944
3048.3	0.1892
3057.66	0.1824
3067.02	0.176
3076.39	0.1744
3085.75	0.1714
3095.12	0.1688
3104.48	0.1578
3113.85	0.1426
3123.21	0.137
3132.58	0.137
3141.94	0.147
3151.31	0.1736
3160.67	0.2072
3170.03	0.2518
3179.4	0.2702
3188.76	0.2776
3198.13	0.2842
3207.49	0.2962
3216.86	0.302
3226.22	0.299
3235.59	0.2864
3244.95	0.2642
3254.32	0.2436
3263.68	0.2194
3273.04	0.218
3282.41	0.2226
3291.77	0.2328
3301.14	0.253
3310.5	0.2884
3319.87	0.3248
3329.23	0.34
3338.6	0.3496
3347.96	0.3592
3357.33	0.3672
3366.69	0.368
3376.05	0.368
3385.42	0.365
3394.78	0.365
3404.15	0.3654
3413.51	0.3568
3422.88	0.3552
3432.24	0.3566
3441.61	0.3632
3450.97	0.394
3460.34	0.4382
3469.7	0.4948
3479.06	0.5272
3488.43	0.5574
3497.79	0.5756
3507.16	0.5902
3516.52	0.6016
3525.89	0.6198
3535.25	0.631
3544.62	0.6528
3553.98	0.6648
3563.35	0.6794
3572.71	0.6896
3582.07	0.7108
3591.44	0.7176
3600.8	0.7256
3610.17	0.728
3619.53	0.728
3628.9	0.728
3638.26	0.728
3647.63	0.725
3656.99	0.724
3666.36	0.724
3675.72	0.724
3685.08	0.724
3694.45	0.724
3703.81	0.721
3713.18	0.718
3722.54	0.716
3731.91	0.713
3741.27	0.712
3750.64	0.7072
3760	0.706
3769.37	0.702
3778.73	0.7014
3788.09	0.701
3797.46	0.697
3806.82	0.692
3816.19	0.69
3825.55	0.689
3834.92	0.6868
3844.28	0.685
3853.65	0.684
3863.01	0.684
3872.38	0.684
3881.74	0.684
3891.1	0.684
3900.47	0.684
3909.83	0.681
3919.2	0.681
3928.56	0.68
3937.93	0.678
3947.29	0.6788
3956.66	0.678
3966.02	0.677
3975.39	0.678
3984.75	0.678
3994.11	0.677
4003.48	0.674
4012.84	0.677
