Infrared Spectrum: 4-Dimethylamino-2-methylbenzaldehyde
Formula: C 10 H 13 N O
CAS: 1199-59-3
State: gas
Origin: EPA-IR VAPOR PHASE LIBRARY
1/CM	ABSORBANCE
549.8	0.004765
559.445	0.003355
569.09	0.002845
578.734	0.003535
588.379	0.005095
598.024	0.008395
607.669	0.012425
617.313	0.008835
626.958	0.003345
636.603	0.002315
646.248	0.002085
655.893	0.002155
665.537	0.001625
675.182	0.001335
684.827	0.002015
694.472	0.003535
704.116	0.005795
713.761	0.006305
723.406	0.002425
733.051	0.001975
742.695	0.002705
752.34	0.004505
761.985	0.009815
771.63	0.025835
781.275	0.036355
790.919	0.033895
800.564	0.040905
810.209	0.029265
819.854	0.013825
829.498	0.012835
839.143	0.017755
848.788	0.015945
858.433	0.008805
868.078	0.004745
877.722	0.003455
887.367	0.003265
897.012	0.003715
906.657	0.003195
916.301	0.002745
925.946	0.003275
935.591	0.004735
945.236	0.007085
954.88	0.014175
964.525	0.022025
974.17	0.015595
983.815	0.008245
993.46	0.007805
1003.1	0.009095
1012.75	0.011045
1022.39	0.011115
1032.04	0.010555
1041.68	0.013135
1051.33	0.016485
1060.97	0.021235
1070.62	0.023965
1080.26	0.028415
1089.91	0.044425
1099.55	0.065015
1109.2	0.085085
1118.84	0.115885
1128.49	0.087545
1138.13	0.036345
1147.78	0.027305
1157.42	0.026895
1167.07	0.021335
1176.71	0.019605
1186.36	0.030895
1196	0.074725
1205.64	0.086515
1215.29	0.060085
1224.93	0.060825
1234.58	0.047375
1244.22	0.025755
1253.87	0.018905
1263.51	0.018885
1273.16	0.028535
1282.8	0.049715
1292.45	0.045045
1302.09	0.031135
1311.74	0.031355
1321.38	0.027645
1331.03	0.033555
1340.67	0.062085
1350.32	0.124785
1359.96	0.159015
1369.61	0.097295
1379.25	0.050185
1388.9	0.037025
1398.54	0.031015
1408.18	0.028695
1417.83	0.028055
1427.47	0.030475
1437.12	0.034895
1446.76	0.036885
1456.41	0.032025
1466.05	0.030795
1475.7	0.033435
1485.34	0.034265
1494.99	0.036485
1504.63	0.053565
1514.28	0.065365
1523.92	0.053595
1533.57	0.049635
1543.21	0.073245
1552.86	0.118265
1562.5	0.117635
1572.15	0.080915
1581.79	0.108755
1591.44	0.222145
1601.08	0.343665
1610.73	0.290275
1620.37	0.126265
1630.01	0.050635
1639.66	0.031335
1649.3	0.025445
1658.95	0.025515
1668.59	0.032645
1678.24	0.047465
1687.88	0.088445
1697.53	0.205985
1707.17	0.283895
1716.82	0.113305
1726.46	0.021885
1736.11	0.009985
1745.75	0.006855
1755.4	0.006145
1765.04	0.006225
1774.69	0.005025
1784.33	0.004155
1793.98	0.003945
1803.62	0.003905
1813.27	0.003815
1822.91	0.003945
1832.55	0.003695
1842.2	0.003025
1851.84	0.002775
1861.49	0.002985
1871.13	0.003155
1880.78	0.003065
1890.42	0.003055
1900.07	0.003185
1909.71	0.003105
1919.36	0.002795
1929	0.002835
1938.65	0.002625
1948.29	0.002305
1957.94	0.002365
1967.58	0.002385
1977.23	0.002435
1986.87	0.002235
1996.52	0.001945
2006.16	0.001845
2015.81	0.001775
2025.45	0.001815
2035.1	0.001845
2044.74	0.001825
2054.38	0.002105
2064.03	0.002295
2073.67	0.002185
2083.32	0.002085
2092.96	0.001975
2102.61	0.001755
2112.25	0.001665
2121.9	0.001545
2131.54	0.001295
2141.19	0.001245
2150.83	0.0011054
2160.48	0.001205
2170.12	0.0010654
2179.77	0.0011244
2189.41	0.001205
2199.06	0.001335
2208.7	0.001325
2218.35	0.001355
2227.99	0.001365
2237.64	0.001385
2247.28	0.001365
2256.92	0.001355
2266.57	0.001365
2276.21	0.001285
2285.86	0.001525
2295.5	0.001725
2305.15	0.001925
2314.79	0.002085
2324.44	0.001935
2334.08	0.001415
2343.73	0.001355
2353.37	0.001185
2363.02	0.001195
2372.66	0.001235
2382.31	0.001495
2391.95	0.001575
2401.6	0.001595
2411.24	0.001615
2420.89	0.001725
2430.53	0.001945
2440.18	0.002155
2449.82	0.002345
2459.47	0.002425
2469.11	0.002365
2478.75	0.002335
2488.4	0.002265
2498.04	0.002445
2507.69	0.002715
2517.33	0.002685
2526.98	0.002645
2536.62	0.002515
2546.27	0.002245
2555.91	0.002335
2565.56	0.002585
2575.2	0.002855
2584.85	0.003225
2594.49	0.003935
2604.14	0.004895
2613.78	0.005705
2623.43	0.005715
2633.07	0.005135
2642.72	0.004775
2652.36	0.004805
2662.01	0.005465
2671.65	0.007375
2681.29	0.011545
2690.94	0.019525
2700.58	0.034125
2710.23	0.053165
2719.87	0.052095
2729.52	0.032425
2739.16	0.024835
2748.81	0.027115
2758.45	0.021735
2768.1	0.016185
2777.74	0.018125
2787.39	0.024025
2797.03	0.034335
2806.68	0.044945
2816.32	0.050725
2825.97	0.052515
2835.61	0.051735
2845.26	0.049125
2854.9	0.046965
2864.55	0.045955
2874.19	0.044575
2883.84	0.043565
2893.48	0.043765
2903.12	0.044105
2912.77	0.044655
2922.41	0.048275
2932.06	0.055785
2941.7	0.057675
2951.35	0.050575
2960.99	0.043575
2970.64	0.039485
2980.28	0.036495
2989.93	0.032695
2999.57	0.028175
3009.22	0.024595
3018.86	0.022425
3028.51	0.019665
3038.15	0.015255
3047.8	0.012105
3057.44	0.011025
3067.09	0.011885
3076.73	0.013055
3086.38	0.014055
3096.02	0.012855
3105.67	0.010555
3115.31	0.008245
3124.95	0.005685
3134.6	0.003385
3144.24	0.002515
3153.89	0.001835
3163.53	0.001715
3173.18	0.001475
3182.82	0.001315
3192.47	0.001305
3202.11	0.001155
3211.76	0.001195
3221.4	0.000896
3231.05	0.0007557
3240.69	0.0007292
3250.34	0.0006099
3259.98	0.0006035
3269.63	0.0005215
3279.27	0.000502
3288.92	0.0003768
3298.56	0.0003788
3308.21	0.0006691
3317.85	0.0006557
3327.49	0.0005029
3337.14	0.000632
3346.78	0.0008234
3356.43	0.0010698
3366.07	0.002035
3375.72	0.002575
3385.36	0.002895
3395.01	0.003135
3404.65	0.002445
3414.3	0.0010811
3423.94	0.0007316
3433.59	0.0003875
3443.23	0.0002689
3452.88	0.0004049
3462.52	0.0003891
3472.17	0.00024456
3481.81	0.0005482
3491.46	0.0002916
3501.1	0.0003746
3510.75	0.0002654
3520.39	0.0002517
3530.04	0.00016879
3539.68	0.00021819
3549.32	0.0004344
3558.97	0.0003627
3568.61	0.00018352
3578.26	0.0003535
3587.9	0.0002964
3597.55	0.00014377
3607.19	0.0002543
3616.84	0.00019972
3626.48	0.0003144
3636.13	0.0003498
3645.77	0.00017377
3655.42	0.0003016
3665.06	0.0002693
3674.71	0.0003709
3684.35	0.00041
3694	0.000146219
3703.64	0.0003622
3713.29	0.0003932
3722.93	0.0002815
3732.58	0.000475
3742.22	0.00023861
3751.86	0.0002273
3761.51	0.00017667
3771.15	0.0003607
3780.8	0.0002932
3790.44	0.00019633
3800.09	0.0003257
3809.73	0.0003554
3819.38	0.00041
3829.02	0.0003715
3838.67	0.0005682
3848.31	0.0002481
3857.96	0.0004229
3867.6	0.00037
3877.25	0.0005974
3886.89	0.0004331
3896.54	0.0005612
3906.18	0.0006723
3915.83	0.0005818
3925.47	0.000615
3935.12	0.0006615
3944.76	0.0006479
3954.41	0.0007046
3964.05	0.000667
3973.69	0.0004958
3983.34	0.0009105
3992.98	0.0006661
