Infrared Spectrum: .alpha.-Methylcinnamic acid
Formula: C 10 H 10 O 2
CAS: 1199-77-5
State: gas
Origin: EPA-IR VAPOR PHASE LIBRARY
1/CM	ABSORBANCE
549.8	0.03804
559.445	0.0667
569.09	0.07136
578.734	0.0529
588.379	0.04795
598.024	0.02475
607.669	0.01469
617.313	0.01176
626.958	0.01055
636.603	0.01032
646.248	0.01893
655.893	0.03155
665.537	0.02081
675.182	0.02091
684.827	0.03218
694.472	0.04776
704.116	0.03996
713.761	0.02609
723.406	0.02433
733.051	0.03004
742.695	0.03971
752.34	0.05239
761.985	0.04837
771.63	0.03109
781.275	0.02548
790.919	0.03332
800.564	0.02472
810.209	0.01227
819.854	0.00755
829.498	0.00744
839.143	0.00749
848.788	0.0051
858.433	0.0038
868.078	0.00391
877.722	0.00468
887.367	0.0059
897.012	0.00684
906.657	0.00828
916.301	0.01061
925.946	0.01155
935.591	0.00942
945.236	0.00813
954.88	0.00879
964.525	0.01252
974.17	0.01974
983.815	0.02584
993.46	0.02524
1003.1	0.02095
1012.75	0.01366
1022.39	0.01357
1032.04	0.01577
1041.68	0.016
1051.33	0.01941
1060.97	0.02681
1070.62	0.04529
1080.26	0.09197
1089.91	0.20193
1099.55	0.25276
1109.2	0.14001
1118.84	0.06831
1128.49	0.0489
1138.13	0.04597
1147.78	0.05381
1157.42	0.08047
1167.07	0.14814
1176.71	0.16048
1186.36	0.08029
1196	0.03626
1205.64	0.02453
1215.29	0.02147
1224.93	0.01583
1234.58	0.0136
1244.22	0.01415
1253.87	0.01632
1263.51	0.02074
1273.16	0.0278
1282.8	0.03793
1292.45	0.04827
1302.09	0.05038
1311.74	0.03927
1321.38	0.03096
1331.03	0.02522
1340.67	0.02396
1350.32	0.03194
1359.96	0.05366
1369.61	0.05983
1379.25	0.03692
1388.9	0.02863
1398.54	0.02393
1408.18	0.0138
1417.83	0.01074
1427.47	0.01196
1437.12	0.01551
1446.76	0.01831
1456.41	0.01599
1466.05	0.01114
1475.7	0.01053
1485.34	0.01453
1494.99	0.02065
1504.63	0.01248
1514.28	0.00628
1523.92	0.00536
1533.57	0.00506
1543.21	0.00461
1552.86	0.00451
1562.5	0.0053
1572.15	0.00659
1581.79	0.00763
1591.44	0.00898
1601.08	0.01037
1610.73	0.00933
1620.37	0.01148
1630.01	0.02212
1639.66	0.03086
1649.3	0.01972
1658.95	0.01096
1668.59	0.00974
1678.24	0.01087
1687.88	0.0142
1697.53	0.01907
1707.17	0.02543
1716.82	0.03401
1726.46	0.06459
1736.11	0.18557
1745.75	0.41346
1755.4	0.32803
1765.04	0.13718
1774.69	0.05663
1784.33	0.03315
1793.98	0.02761
1803.62	0.02508
1813.27	0.01789
1822.91	0.01165
1832.55	0.00807
1842.2	0.00624
1851.84	0.00525
1861.49	0.0046
1871.13	0.00442
1880.78	0.00453
1890.42	0.00435
1900.07	0.00375
1909.71	0.00317
1919.36	0.00318
1929	0.00384
1938.65	0.0046
1948.29	0.0055
1957.94	0.00635
1967.58	0.00505
1977.23	0.00281
1986.87	0.0021
1996.52	0.00178
2006.16	0.00177
2015.81	0.00158
2025.45	0.00138
2035.1	0.00123
2044.74	0.00122
2054.38	0.0013
2064.03	0.00147
2073.67	0.0015
2083.32	0.00142
2092.96	0.00127
2102.61	0.00122
2112.25	0.00126
2121.9	0.00115
2131.54	0.00118
2141.19	0.00132
2150.83	0.00143
2160.48	0.00148
2170.12	0.00162
2179.77	0.00161
2189.41	0.00157
2199.06	0.00136
2208.7	0.0012
2218.35	0.00115
2227.99	0.00115
2237.64	0.0011
2247.28	0.0011
2256.92	0.00122
2266.57	0.00127
2276.21	0.00117
2285.86	0.00103
2295.5	0.00111
2305.15	0.00137
2314.79	0.00193
2324.44	0.00202
2334.08	0.00229
2343.73	0.00252
2353.37	0.00227
2363.02	0.00191
2372.66	0.00182
2382.31	0.00156
2391.95	0.00152
2401.6	0.00139
2411.24	0.00137
2420.89	0.00161
2430.53	0.00154
2440.18	0.00155
2449.82	0.00165
2459.47	0.00143
2469.11	0.00148
2478.75	0.0014
2488.4	0.00136
2498.04	0.0014
2507.69	0.0012
2517.33	0.00121
2526.98	0.00112
2536.62	0.00122
2546.27	0.00125
2555.91	0.00114
2565.56	0.00106
2575.2	0.00107
2584.85	0.00106
2594.49	0.001
2604.14	0.00105
2613.78	0.0009366
2623.43	0.0009276
2633.07	0.000842
2642.72	0.0009139
2652.36	0.000796
2662.01	0.0008001
2671.65	0.0008429
2681.29	0.0007426
2690.94	0.000884
2700.58	0.0006992
2710.23	0.000736
2719.87	0.0008649
2729.52	0.0008128
2739.16	0.0009191
2748.81	0.0009998
2758.45	0.00121
2768.1	0.00103
2777.74	0.0014
2787.39	0.00144
2797.03	0.0015
2806.68	0.00205
2816.32	0.0022
2825.97	0.00221
2835.61	0.00237
2845.26	0.00259
2854.9	0.00318
2864.55	0.00391
2874.19	0.00482
2883.84	0.00515
2893.48	0.00489
2903.12	0.00451
2912.77	0.00519
2922.41	0.0073
2932.06	0.01057
2941.7	0.01229
2951.35	0.01137
2960.99	0.01024
2970.64	0.01002
2980.28	0.00912
2989.93	0.00895
2999.57	0.0106
3009.22	0.01069
3018.86	0.01346
3028.51	0.02025
3038.15	0.02176
3047.8	0.01786
3057.44	0.02297
3067.09	0.03809
3076.73	0.03368
3086.38	0.02286
3096.02	0.01835
3105.67	0.01307
3115.31	0.00776
3124.95	0.00375
3134.6	0.00265
3144.24	0.00244
3153.89	0.00224
3163.53	0.00138
3173.18	0.00122
3182.82	0.0008619
3192.47	0.0007164
3202.11	0.0008521
3211.76	0.0007285
3221.4	0.0005123
3231.05	0.0008139
3240.69	0.0006129
3250.34	0.0007347
3259.98	0.0006107
3269.63	0.0006188
3279.27	0.0007376
3288.92	0.000568
3298.56	0.0004969
3308.21	0.0008479
3317.85	0.0007449
3327.49	0.000493
3337.14	0.0006785
3346.78	0.0006638
3356.43	0.0004465
3366.07	0.0007112
3375.72	0.00111
3385.36	0.00116
3395.01	0.00106
3404.65	0.0007662
3414.3	0.000614
3423.94	0.0008712
3433.59	0.00105
3443.23	0.0009639
3452.88	0.00138
3462.52	0.00169
3472.17	0.00311
3481.81	0.00349
3491.46	0.00285
3501.1	0.00245
3510.75	0.00173
3520.39	0.00176
3530.04	0.00201
3539.68	0.0018
3549.32	0.00255
3558.97	0.00686
3568.61	0.03036
3578.26	0.11554
3587.9	0.11398
3597.55	0.02591
3607.19	0.00602
3616.84	0.00334
3626.48	0.00253
3636.13	0.00174
3645.77	0.00155
3655.42	0.00129
3665.06	0.00123
3674.71	0.0007706
3684.35	0.0009662
3694	0.0009593
3703.64	0.0006122
3713.29	0.0006917
3722.93	0.0005645
3732.58	0.0003585
3742.22	0.0003492
3751.86	0.0003531
3761.51	0.0003981
3771.15	0.0003423
3780.8	0.0002111
3790.44	0.0002524
3800.09	0.0004915
3809.73	0.0005658
3819.38	0.0003234
3829.02	0.0003569
3838.67	0.0002128
3848.31	0.0004365
3857.96	0.0003831
3867.6	0.0003714
3877.25	0.0006157
3886.89	0.0005166
3896.54	0.0005404
3906.18	0.0007408
3915.83	0.0004541
3925.47	0.0004703
3935.12	0.0001959
3944.76	0.0006448
3954.41	7.351e-05
3964.05	0.0003865
3973.69	0.0002595
3983.34	0.0004563
3992.98	0.0003642
