Infrared Spectrum: Desoxyanisoin
Formula: C 16 H 16 O 3
CAS: 120-44-5
State: gas
Origin: EPA-IR VAPOR PHASE LIBRARY
1/CM	ABSORBANCE
501.5	0.002039
513.074	0.002509
524.648	0.003569
536.222	0.003839
547.796	0.003449
559.37	0.004799
570.944	0.007029
582.518	0.005659
594.092	0.002759
605.666	0.002259
617.24	0.002009
628.814	0.002049
640.388	0.001839
651.962	0.0013717
663.536	0.0012447
675.11	0.0014252
686.684	0.001519
698.258	0.0013056
709.832	0.0011978
721.406	0.0014369
732.98	0.0012587
744.554	0.0012582
756.128	0.001599
767.702	0.003039
779.276	0.006719
790.85	0.005069
802.423	0.006799
813.997	0.006049
825.571	0.008139
837.145	0.007709
848.719	0.004479
860.293	0.003099
871.867	0.001809
883.441	0.0013392
895.015	0.0012025
906.589	0.001219
918.163	0.001519
929.737	0.001649
941.311	0.001589
952.885	0.001659
964.459	0.002029
976.033	0.003539
987.607	0.006939
999.181	0.006959
1010.76	0.007709
1022.33	0.011009
1033.9	0.014549
1045.48	0.013399
1057.05	0.006309
1068.63	0.003259
1080.2	0.002649
1091.77	0.002479
1103.35	0.003179
1114.92	0.003689
1126.49	0.003409
1138.07	0.005099
1149.64	0.010489
1161.22	0.020589
1172.79	0.039329
1184.36	0.014589
1195.94	0.010599
1207.51	0.011439
1219.09	0.015559
1230.66	0.024359
1242.23	0.049989
1253.81	0.060489
1265.38	0.034829
1276.96	0.022769
1288.53	0.020029
1300.1	0.018169
1311.68	0.013929
1323.25	0.010999
1334.83	0.007289
1346.4	0.004509
1357.97	0.003169
1369.55	0.002409
1381.12	0.002139
1392.7	0.002249
1404.27	0.003449
1415.84	0.005599
1427.42	0.005189
1438.99	0.006859
1450.57	0.006909
1462.14	0.007659
1473.71	0.008129
1485.29	0.006419
1496.86	0.013599
1508.44	0.040239
1520.01	0.020219
1531.58	0.005439
1543.16	0.003629
1554.73	0.003879
1566.31	0.006399
1577.88	0.011579
1589.45	0.017309
1601.03	0.032419
1612.6	0.020489
1624.18	0.007439
1635.75	0.003849
1647.32	0.003119
1658.9	0.003259
1670.47	0.004679
1682.05	0.012489
1693.62	0.023159
1705.19	0.012289
1716.77	0.004369
1728.34	0.002219
1739.92	0.001699
1751.49	0.001549
1763.06	0.0014427
1774.64	0.0012182
1786.21	0.0009987
1797.79	0.0009229
1809.36	0.000906
1820.93	0.000886
1832.51	0.0008365
1844.08	0.0008889
1855.66	0.001029
1867.23	0.0011343
1878.8	0.0011999
1890.38	0.0011803
1901.95	0.0011626
1913.53	0.0010208
1925.1	0.0009164
1936.67	0.0009175
1948.25	0.0009484
1959.82	0.0009905
1971.4	0.0010139
1982.97	0.0010022
1994.54	0.0009333
2006.12	0.0009351
2017.69	0.001013
2029.27	0.0011402
2040.84	0.0012832
2052.41	0.0014272
2063.99	0.001469
2075.56	0.0013537
2087.14	0.0011075
2098.71	0.0008114
2110.28	0.0006537
2121.86	0.0005793
2133.43	0.00054302
2145.01	0.00048641
2156.58	0.00047859
2168.15	0.00047304
2179.73	0.00048609
2191.3	0.00049006
2202.88	0.00048782
2214.45	0.00048698
2226.02	0.00052081
2237.6	0.00052893
2249.17	0.00048848
2260.74	0.000505
2272.32	0.0005599
2283.89	0.0006764
2295.47	0.0006699
2307.04	0.0006258
2318.61	0.0005781
2330.19	0.00053494
2341.76	0.00054924
2353.34	0.0005244
2364.91	0.0005066
2376.48	0.00049085
2388.06	0.00051388
2399.63	0.0006257
2411.21	0.0006438
2422.78	0.00068
2434.35	0.0006478
2445.93	0.00055027
2457.5	0.000574
2469.08	0.0005712
2480.65	0.0006061
2492.22	0.0006474
2503.8	0.0006816
2515.37	0.0007643
2526.95	0.0007429
2538.52	0.0009201
2550.09	0.0010142
2561.67	0.0009874
2573.24	0.0008087
2584.82	0.0007493
2596.39	0.0006661
2607.96	0.0006403
2619.54	0.0006134
2631.11	0.00052605
2642.69	0.00049982
2654.26	0.0004443
2665.83	0.0004028
2677.41	0.0003718
2688.98	0.0003801
2700.56	0.0004367
2712.13	0.00044
2723.7	0.000461237
2735.28	0.0005496
2746.85	0.0005908
2758.43	0.0006334
2770	0.0006477
2781.57	0.0007042
2793.15	0.0008946
2804.72	0.0011379
2816.3	0.001569
2827.87	0.002499
2839.44	0.005309
2851.02	0.006239
2862.59	0.003269
2874.17	0.002569
2885.74	0.002819
2897.31	0.003779
2908.89	0.005469
2920.46	0.006659
2932.04	0.007199
2943.61	0.009449
2955.18	0.009309
2966.76	0.007419
2978.33	0.004959
2989.91	0.004719
3001.48	0.007099
3013.05	0.008309
3024.63	0.004489
3036.2	0.004529
3047.78	0.003449
3059.35	0.002889
3070.92	0.003359
3082.5	0.003089
3094.07	0.002419
3105.65	0.002029
3117.22	0.0013567
3128.79	0.0009662
3140.37	0.0006176
3151.94	0.0005507
3163.52	0.0004286
3175.09	0.000357
3186.66	0.00028
3198.24	0.00032
3209.81	0.000296
3221.39	0.000212
3232.96	0.000184
3244.53	0.000209
3256.11	0.00016
3267.68	0.000118
3279.26	0.000201
3290.83	0.000151
3302.4	0.000216
3313.98	0.000158
3325.55	0.000133
3337.13	0.000149
3348.7	0.000302
3360.27	0.00045283
3371.85	0.000324
3383.42	0.000272
3395	0.000251
3406.57	0.000129
3418.14	0.000166
3429.72	0.000158
3441.29	0.000149
3452.86	0.000119
3464.44	3.7e-05
3476.01	0.00016
3487.59	0.000114
3499.16	3.1e-05
3510.73	9.4e-05
3522.31	7.2e-05
3533.88	0.000122
3545.46	0.000108
3557.03	9.5e-05
3568.6	0.000157
3580.18	0.000111
3591.75	0.00013
3603.33	5.9e-05
3614.9	5.6e-05
3626.47	5.3e-05
3638.05	0.000165
3649.62	0.000104
3661.2	0.000102
3672.77	0.000175
3684.34	0.000186
3695.92	6.8e-05
3707.49	8.9e-05
3719.07	8e-05
3730.64	0.000133
3742.21	4.6e-05
3753.79	0.000105
3765.36	8.2e-05
3776.94	6.7e-05
3788.51	4.2e-05
3800.08	3e-05
3811.66	5.2e-05
3823.23	5.4e-05
3834.81	0.000108
3846.38	6.6e-05
3857.95	0.000173
3869.53	0.000161
3881.1	0.000148
3892.68	9.4e-05
3904.25	0.000128
3915.82	4.9e-05
3927.4	7.6e-05
3938.97	0.00013
3950.55	0.000131
3962.12	0.000168
3973.69	0.000135
3985.27	0.000172
3996.84	4.7e-05
