Infrared Spectrum: Imidazolidinetrione
Formula: C3 H2 N2 O3
CAS: 120-89-8
State: SOLID (OIL MULL)
Class: COBLENTZ III
Instrument: BAIRD (GRATING)
Instrument parameters: NaCl PRISM
Resolution: 2
Origin: WYANDOTTE CHEMICALS CORP.
1/CM	TRANSMITTANCE
625	0.5103
634	0.4712
643	0.4135
652	0.3393
661	0.3199
670	0.4105
679	0.3782
688	0.3348
697	0.3
706	0.3049
715	0.2813
724	0.2371
733	0.1891
742	0.1388
751	0.1147
760	0.1117
769	0.2099
778	0.3408
787	0.456
796	0.4104
805	0.1093
814	0.2942
823	0.5021
832	0.5922
841	0.6257
850	0.6453
859	0.6839
868	0.7261
877	0.7553
886	0.7577
895	0.7384
904	0.7678
913	0.7725
922	0.7487
931	0.7241
940	0.6882
949	0.6553
958	0.6058
967	0.5647
976	0.4647
985	0.2468
994	0.2217
1003	0.2864
1012	0.4611
1021	0.6252
1030	0.6971
1039	0.7425
1048	0.7672
1057	0.7668
1066	0.7598
1075	0.7479
1084	0.7317
1093	0.7146
1102	0.6892
1111	0.6427
1120	0.5849
1129	0.574
1138	0.4121
1147	0.5481
1156	0.629
1165	0.5772
1174	0.5469
1183	0.5578
1192	0.5728
1201	0.5565
1210	0.5333
1219	0.5448
1228	0.5367
1237	0.5126
1246	0.4669
1255	0.4308
1264	0.3921
1273	0.3545
1282	0.3227
1291	0.2784
1300	0.2259
1309	0.1826
1318	0.1411
1327	0.1059
1336	0.0913
1345	0.0627
1354	0.0615
1363	0.0816
1372	0.0952
1381	0.1079
1390	0.1072
1399	0.1392
1408	0.2936
1417	0.451
1426	0.5024
1435	0.513
1444	0.5063
1453	0.3816
1462	0.2284
1471	0.1605
1480	0.149
1489	0.2897
1498	0.409
1507	0.4577
1516	0.4792
1525	0.4674
1534	0.4482
1543	0.484
1552	0.4823
1561	0.4523
1570	0.4491
1579	0.4158
1588	0.3989
1597	0.361
1606	0.3029
1615	0.2338
1624	0.2493
1633	0.2997
1642	0.3081
1651	0.2792
1660	0.2404
1669	0.2046
1678	0.1701
1687	0.1429
1696	0.1164
1705	0.0917
1714	0.0751
1723	0.0645
1732	0.0593
1741	0.0649
1750	0.0651
1759	0.0659
1768	0.0713
1777	0.0848
1786	0.0974
1795	0.0973
1804	0.1179
1813	0.1835
1822	0.2448
1831	0.1894
1840	0.2727
1849	0.335
1858	0.4055
1867	0.4484
1876	0.4941
1885	0.5393
1894	0.5842
1903	0.6285
1912	0.6725
1921	0.7162
1930	0.731
1939	0.717
1948	0.6918
1957	0.6668
1966	0.6419
1975	0.6478
1984	0.7266
1993	0.762
2002	0.7798
2011	0.807
2020	0.8431
2029	0.8814
2038	0.8944
2047	0.9009
2056	0.91
2065	0.9209
2074	0.9424
2083	0.9526
2092	0.9582
2101	0.9629
2110	0.9658
2119	0.9663
2128	0.9624
2137	0.9547
2146	0.9422
2155	0.9382
2164	0.9406
2173	0.9471
2182	0.9583
2191	0.9624
2200	0.9617
2209	0.9586
2218	0.9546
2227	0.9502
2236	0.9459
2245	0.9412
2254	0.9374
2263	0.9354
2272	0.9358
2281	0.9324
2290	0.9223
2299	0.9112
2308	0.8967
2317	0.8836
2326	0.874
2335	0.8667
2344	0.8594
2353	0.8529
2362	0.8486
2371	0.8466
2380	0.8449
2389	0.8334
2398	0.8291
2407	0.8317
2416	0.8398
2425	0.8407
2434	0.8372
2443	0.8278
2452	0.8159
2461	0.8018
2470	0.7866
2479	0.7695
2488	0.7552
2497	0.7527
2506	0.7746
2515	0.7997
2524	0.8048
2533	0.8025
2542	0.7997
2551	0.7963
2560	0.7924
2569	0.7871
2578	0.7814
2587	0.7753
2596	0.769
2605	0.7625
2614	0.7554
2623	0.7482
2632	0.7407
2641	0.7327
2650	0.7227
2659	0.7107
2668	0.6965
2677	0.68
2686	0.6611
2695	0.6411
2704	0.598
2713	0.4803
2722	0.4629
2731	0.4637
2740	0.4822
2749	0.5099
2758	0.5373
2767	0.5646
2776	0.5894
2785	0.5925
2794	0.5892
2803	0.5829
2812	0.5724
2821	0.5515
2830	0.3878
2839	0.2288
2848	0.0797
2857	0.0613
2866	0.0585
2875	0.058
2884	0.056
2893	0.0502
2902	0.043
2911	0.0388
2920	0.0362
2929	0.0352
2938	0.0345
2947	0.0342
2956	0.0343
2965	0.0344
2974	0.0349
2983	0.0457
2992	0.088
3001	0.1307
3010	0.173
3019	0.2152
3028	0.249
3037	0.2491
3046	0.2425
3055	0.2291
3064	0.2157
3073	0.2026
3082	0.1894
3091	0.1761
3100	0.1695
3109	0.1661
3118	0.1643
3127	0.1631
3136	0.1626
3145	0.1622
3154	0.1624
3163	0.1626
3172	0.1629
3181	0.1633
3190	0.1638
3199	0.1662
3208	0.1697
3217	0.1735
3226	0.18
3235	0.1885
3244	0.2071
3253	0.2282
3262	0.2458
3271	0.2632
3280	0.2905
3289	0.3096
3298	0.3477
3307	0.3864
3316	0.4247
3325	0.463
3334	0.501
3343	0.5385
3352	0.5635
3361	0.5749
3370	0.5825
3379	0.5899
3388	0.597
3397	0.6066
3406	0.6267
3415	0.6438
3424	0.6988
3433	0.7168
3442	0.7377
3451	0.7526
3460	0.7594
3469	0.7639
3478	0.7661
3487	0.7666
3496	0.7658
3505	0.7637
3514	0.7616
3523	0.7601
3532	0.7595
3541	0.7595
3550	0.7602
3559	0.7611
3568	0.7624
3577	0.765
3586	0.7689
3595	0.7736
3604	0.7783
3613	0.7831
3622	0.7895
3631	0.7971
3640	0.8069
3649	0.8193
3658	0.8306
3667	0.8401
3676	0.8448
3685	0.8494
3694	0.853
3703	0.8562
3712	0.8583
3721	0.8593
3730	0.8595
3739	0.8591
3748	0.8584
3757	0.8572
3766	0.8553
3775	0.8534
3784	0.8514
3793	0.8495
3802	0.8476
3811	0.8453
3820	0.8427
3829	0.8402
3838	0.8378
3847	0.8357
3856	0.8337
3865	0.8326
3874	0.8318
3883	0.831
3892	0.8304
3901	0.8297
3910	0.8287
3919	0.8269
3928	0.825
3937	0.8226
3946	0.8192
3955	0.8159
3964	0.8114
3973	0.8067
3982	0.802
3991	0.7989
4000	0.7961
