Infrared Spectrum: p-DIETHYLAMINOBENZALDEHYDE
Formula: C11 H15 N O
CAS: 120-21-8
State: SOLUTION (CCl4 FOR 2-9.5 MICRONS, CS2 FOR 9.5-16 MICRONS) VS. 0.005 CM SOLVENT
Melting point: 39 C
Class: COBLENTZ III
Instrument: BAIRD (PRISM)
Instrument parameters: NaCl PRISM
Sampling: TRANSMISSION
Path length: 0.010 CM, 0.010 CM
Resolution: 4
Origin: WYANDOTTE CHEMICALS CORP.
MICROMETERS	TRANSMITTANCE
1.991	0.946
2.03036	0.942
2.06972	0.937
2.10908	0.942
2.14844	0.941
2.1878	0.932
2.22716	0.937
2.26652	0.946
2.30588	0.953
2.34524	0.948
2.3846	0.949
2.42396	0.957
2.46333	0.964
2.50269	0.974
2.54205	0.974
2.58141	0.976
2.62077	0.979
2.66013	0.99
2.69949	0.988
2.73885	0.982
2.77821	0.976
2.81757	0.973
2.85693	0.977
2.89629	0.98
2.93565	0.974
2.97501	0.97
3.01437	0.943
3.05373	0.969
3.09309	0.971
3.13245	0.948
3.17181	0.953
3.21117	0.84
3.25053	0.784
3.28989	0.743
3.32926	0.293
3.36862	0.305
3.40798	0.303
3.44734	0.368
3.4867	0.598
3.52606	0.51
3.56542	0.499
3.60478	0.748
3.64414	0.455
3.6835	0.411
3.72286	0.618
3.76222	0.822
3.80158	0.883
3.84094	0.896
3.8803	0.946
3.91966	0.944
3.95902	0.973
3.99838	0.99
4.03774	0.981
4.0771	0.981
4.11646	0.991
4.15582	0.995
4.19519	0.993
4.23455	0.99
4.27391	0.997
4.31327	0.998
4.35263	0.998
4.39199	0.998
4.43135	0.998
4.47071	0.998
4.51007	0.998
4.54943	1
4.58879	1
4.62815	1.001
4.66751	1.001
4.70687	1.001
4.74623	1.001
4.78559	1.001
4.82495	1.001
4.86431	1
4.90367	1.001
4.94303	1.001
4.98239	1.001
5.02175	1.001
5.06112	1.001
5.10048	1.001
5.13984	1
5.1792	1
5.21856	0.998
5.25792	0.998
5.29728	0.997
5.33664	0.996
5.376	0.997
5.41536	0.997
5.45472	0.998
5.49408	0.998
5.53344	0.998
5.5728	0.998
5.61216	0.997
5.65152	0.996
5.69088	0.991
5.73024	0.976
5.7696	0.92
5.80896	0.742
5.84832	0.446
5.88768	0.082
5.92704	0.05
5.96641	0.046
6.00577	0.066
6.04513	0.241
6.08449	0.325
6.12385	0.176
6.16321	0.044
6.20257	0.013
6.24193	0.019
6.28129	0.066
6.32065	0.197
6.36001	0.155
6.39937	0.096
6.43873	0.147
6.47809	0.114
6.51745	0.072
6.55681	0.139
6.59617	0.384
6.63553	0.646
6.67489	0.674
6.71425	0.588
6.75361	0.488
6.79297	0.415
6.83234	0.409
6.8717	0.287
6.91106	0.181
6.95042	0.207
6.98978	0.33
7.02914	0.283
7.0685	0.049
7.10786	0.038
7.14722	0.116
7.18658	0.284
7.22594	0.149
7.2653	0.163
7.30466	0.272
7.34402	0.038
7.38338	0.018
7.42274	0.098
7.4621	0.299
7.50146	0.325
7.54082	0.327
7.58018	0.154
7.61954	0.136
7.6589	0.376
7.69827	0.603
7.73763	0.619
7.77699	0.419
7.81635	0.12
7.85571	0.039
7.89507	0.106
7.93443	0.385
7.97379	0.451
8.01315	0.236
8.05251	0.041
8.09187	0.041
8.13123	0.193
8.17059	0.359
8.20995	0.472
8.24931	0.554
8.28867	0.543
8.32803	0.298
8.36739	0.08
8.40675	0.206
8.44611	0.299
8.48547	0.111
8.52483	0.034
8.5642	0.038
8.60356	0.051
8.64292	0.02
8.68228	0.019
8.72164	0.071
8.761	0.208
8.80036	0.402
8.83972	0.505
8.87908	0.494
8.91844	0.566
8.9578	0.655
8.99716	0.707
9.03652	0.698
9.07588	0.55
9.11524	0.401
9.1546	0.386
9.19396	0.414
9.23332	0.238
9.27268	0.163
9.31204	0.198
9.3514	0.39
9.39076	0.453
9.43012	0.516
9.46949	0.581
9.50885	0.633
9.54821	0.685
9.58757	0.705
9.62693	0.709
9.66629	0.704
9.70565	0.688
9.74501	0.629
9.78437	0.474
9.82373	0.278
9.86309	0.138
9.90245	0.104
9.94181	0.128
9.98117	0.157
10.0205	0.192
10.0599	0.434
10.0993	0.634
10.1386	0.764
10.178	0.823
10.2173	0.865
10.2567	0.919
10.2961	0.917
10.3354	0.901
10.3748	0.892
10.4141	0.863
10.4535	0.852
10.4929	0.871
10.5322	0.888
10.5716	0.899
10.6109	0.898
10.6503	0.884
10.6897	0.866
10.729	0.846
10.7684	0.849
10.8077	0.878
10.8471	0.85
10.8865	0.797
10.9258	0.804
10.9652	0.873
11.0045	0.922
11.0439	0.934
11.0833	0.934
11.1226	0.92
11.162	0.873
11.2013	0.883
11.2407	0.905
11.2801	0.914
11.3194	0.923
11.3588	0.923
11.3981	0.917
11.4375	0.901
11.4769	0.899
11.5162	0.871
11.5556	0.825
11.5949	0.759
11.6343	0.679
11.6737	0.608
11.713	0.539
11.7524	0.499
11.7918	0.469
11.8311	0.435
11.8705	0.352
11.9098	0.25
11.9492	0.128
11.9886	0.09
12.0279	0.092
12.0673	0.104
12.1066	0.131
12.146	0.152
12.1854	0.123
12.2247	0.098
12.2641	0.071
12.3034	0.049
12.3428	0.033
12.3822	0.025
12.4215	0.042
12.4609	0.074
12.5002	0.109
12.5396	0.115
12.579	0.122
12.6183	0.17
12.6577	0.201
12.697	0.234
12.7364	0.279
12.7758	0.369
12.8151	0.509
12.8545	0.604
12.8938	0.668
12.9332	0.725
12.9726	0.771
13.0119	0.807
13.0513	0.846
13.0906	0.874
13.13	0.901
13.1694	0.903
13.2087	0.91
13.2481	0.917
13.2874	0.921
13.3268	0.919
13.3662	0.925
13.4055	0.931
13.4449	0.93
13.4843	0.925
13.5236	0.922
13.563	0.92
13.6023	0.925
13.6417	0.928
13.6811	0.922
13.7204	0.917
13.7598	0.911
13.7991	0.889
13.8385	0.86
13.8779	0.831
13.9172	0.758
13.9566	0.663
13.9959	0.546
14.0353	0.43
14.0747	0.247
14.114	0.137
14.1534	0.11
14.1927	0.133
14.2321	0.202
14.2715	0.369
14.3108	0.522
14.3502	0.64
14.3895	0.731
14.4289	0.773
14.4683	0.797
14.5076	0.817
14.547	0.836
14.5863	0.85
14.6257	0.872
14.6651	0.882
14.7044	0.893
14.7438	0.898
14.7831	0.892
14.8225	0.885
14.8619	0.884
14.9012	0.885
14.9406	0.889
14.9799	0.888
15.0193	0.873
15.0587	0.867
15.098	0.866
15.1374	0.866
15.1768	0.866
15.2161	0.863
15.2555	0.851
15.2948	0.839
15.3342	0.819
15.3736	0.785
15.4129	0.759
15.4523	0.771
15.4916	0.78
15.531	0.785
15.5704	0.786
15.6097	0.788
15.6491	0.792
15.6884	0.793
15.7278	0.796
15.7672	0.797
15.8065	0.797
15.8459	0.793
15.8852	0.788
15.9246	0.776
15.964	0.77
