Infrared Spectrum: PHENOL, 4-CHLORO-2-BENZYL-
Formula: C13 H11 Cl O
CAS: 120-32-1
State: SOLUTION (CCl4/CsBr FOR 4000-1335, CS2/CsI FOR 1335-623, CCl4/CsBr FOR 623-300 CM^-^1)
Class: COBLENTZ II
Instrument: PERKIN-ELMER 621 (GRATING)
Instrument parameters: GRATING CHANGE AT 623; ORDER CHANGE AT 2000. FILTERS AT 3146, 2494, 2000, 1146, 698, 497 CM^-^1
Sampling: TRANSMISSION
Path length: 0.01 CM, 0.01 CM, 0.01 CM
Resolution: 2
Origin: PERKIN-ELMER CORP. (R. HANNAH)
1/CM	TRANSMITTANCE
4000	0.8933
3990	0.8915
3980	0.8896
3970	0.8886
3960	0.8875
3950	0.8871
3940	0.8868
3930	0.8864
3920	0.8857
3910	0.8848
3900	0.8839
3890	0.8831
3880	0.8821
3870	0.8827
3860	0.8834
3850	0.8843
3840	0.8853
3830	0.8863
3820	0.887
3810	0.888
3800	0.8894
3790	0.8908
3780	0.8921
3770	0.8928
3760	0.8938
3750	0.8943
3740	0.8946
3730	0.8947
3720	0.8944
3710	0.8942
3700	0.894
3690	0.8933
3680	0.8905
3670	0.8882
3660	0.8843
3650	0.8811
3640	0.8737
3630	0.7892
3620	0.6312
3610	0.3666
3600	0.3948
3590	0.5009
3580	0.5291
3570	0.5225
3560	0.4827
3550	0.4643
3540	0.4634
3530	0.5093
3520	0.5612
3510	0.6193
3500	0.6475
3490	0.6671
3480	0.684
3470	0.6995
3460	0.7149
3450	0.7364
3440	0.7578
3430	0.7788
3420	0.7934
3410	0.8061
3400	0.8175
3390	0.8273
3380	0.8351
3370	0.8421
3360	0.849
3350	0.8549
3340	0.8604
3330	0.8654
3320	0.8692
3310	0.8728
3300	0.8759
3290	0.8786
3280	0.8811
3270	0.8834
3260	0.8856
3250	0.8878
3240	0.8906
3230	0.8933
3220	0.8952
3210	0.8967
3200	0.8977
3190	0.8986
3180	0.8994
3170	0.8993
3160	0.8993
3150	0.8987
3140	0.8975
3130	0.8964
3120	0.8938
3110	0.8743
3100	0.8477
3090	0.798
3080	0.7342
3070	0.7495
3060	0.6618
3050	0.7636
3040	0.7414
3030	0.5381
3020	0.6893
3010	0.8285
3000	0.8352
2990	0.8711
2980	0.8782
2970	0.8782
2960	0.8732
2950	0.8618
2940	0.8353
2930	0.7762
2920	0.7594
2910	0.7575
2900	0.7778
2890	0.8364
2880	0.8545
2870	0.867
2860	0.8523
2850	0.8438
2840	0.8459
2830	0.8574
2820	0.8758
2810	0.895
2800	0.8977
2790	0.8983
2780	0.8987
2770	0.8989
2760	0.8985
2750	0.8982
2740	0.8984
2730	0.8988
2720	0.9007
2710	0.9037
2700	0.9059
2690	0.9068
2680	0.9068
2670	0.9056
2660	0.9044
2650	0.9037
2640	0.9036
2630	0.9038
2620	0.9041
2610	0.9044
2600	0.905
2590	0.9063
2580	0.9073
2570	0.9081
2560	0.909
2550	0.9098
2540	0.9096
2530	0.9051
2520	0.8977
2510	0.8955
2500	0.8985
2490	0.9032
2480	0.9025
2470	0.904
2460	0.9059
2450	0.9065
2440	0.906
2430	0.9057
2420	0.9047
2410	0.9031
2400	0.9067
2390	0.907
2380	0.9058
2370	0.9037
2360	0.9033
2350	0.9031
2340	0.904
2330	0.9049
2320	0.9062
2310	0.9078
2300	0.9103
2290	0.9133
2280	0.9151
2270	0.914
2260	0.9108
2250	0.9121
2240	0.9131
2230	0.9137
2220	0.9149
2210	0.9165
2200	0.918
2190	0.9196
2180	0.92
2170	0.9197
2160	0.919
2150	0.9191
2140	0.9193
2130	0.9195
2120	0.9197
2110	0.9198
2100	0.9197
2090	0.9197
2080	0.9196
2070	0.9199
2060	0.9202
2050	0.9191
2040	0.9193
2030	0.9214
2020	0.9221
2010	0.9221
2000	0.9215
1990	0.9109
1980	0.9071
1970	0.9041
1960	0.8939
1950	0.8847
1940	0.8768
1930	0.8925
1920	0.8987
1910	0.898
1900	0.8963
1890	0.8947
1880	0.8856
1870	0.8716
1860	0.8735
1850	0.8756
1840	0.8804
1830	0.8904
1820	0.8902
1810	0.8783
1800	0.8698
1790	0.8851
1780	0.8892
1770	0.8885
1760	0.8839
1750	0.8763
1740	0.876
1730	0.8827
1720	0.8893
1710	0.8946
1700	0.898
1690	0.8992
1680	0.899
1670	0.899
1660	0.8944
1650	0.8943
1640	0.8915
1630	0.8828
1620	0.873
1610	0.8289
1600	0.639
1590	0.789
1580	0.7899
1570	0.8555
1560	0.8885
1550	0.9021
1540	0.8893
1530	0.8805
1520	0.8728
1510	0.8132
1500	0.4617
1490	0.0412
1480	0.1681
1470	0.5326
1460	0.6987
1450	0.3057
1440	0.6906
1430	0.5926
1420	0.6861
1410	0.2081
1400	0.7418
1390	0.8498
1380	0.852
1370	0.8627
1360	0.8532
1350	0.8371
1340	0.8048
1330	0.6888
1320	0.5206
1310	0.4324
1300	0.7653
1290	0.8024
1280	0.7618
1270	0.5337
1260	0.2133
1250	0.3855
1240	0.7208
1230	0.7651
1220	0.6911
1210	0.3299
1200	0.3122
1190	0.4581
1180	0.4702
1170	0.4875
1160	0.2591
1150	0.3035
1140	0.739
1130	0.81
1120	0.8046
1110	0.3821
1100	0.1249
1090	0.665
1080	0.7536
1070	0.6561
1060	0.8574
1050	0.8957
1040	0.9075
1030	0.7485
1020	0.8739
1010	0.9043
1000	0.8883
990	0.9061
980	0.9054
970	0.9002
960	0.8944
950	0.8916
940	0.8169
930	0.7712
920	0.8099
910	0.7982
900	0.7272
890	0.8017
880	0.635
870	0.6069
860	0.878
850	0.9039
840	0.8892
830	0.8039
820	0.4205
810	0.4812
800	0.3966
790	0.7791
780	0.8044
770	0.8784
760	0.896
750	0.8646
740	0.6432
730	0.3539
720	0.3618
710	0.6925
700	0.5288
690	0.2998
680	0.8406
670	0.847
660	0.7308
650	0.2366
640	0.8094
630	0.7818
620	0.7651
610	0.8149
600	0.8149
590	0.8615
580	0.8155
570	0.6565
560	0.8249
550	0.816
540	0.7189
530	0.6648
520	0.852
510	0.8621
500	0.8703
490	0.805
480	0.7355
470	0.8464
460	0.8096
450	0.641
440	0.7712
430	0.8236
420	0.8548
410	0.8475
400	0.8424
390	0.8299
380	0.76
370	0.7531
360	0.7192
350	0.6821
340	0.6901
330	0.6731
320	0.6498
310	0.6411
300	0.6327
290	0.6461
280	0.6608
270	0.6951
260	0.7246
250	0.7421
240	0.7474
230	0.7428
220	0.7369
210	0.7297
