Infrared Spectrum: Benzene, 1,2,-methylenedioxy-4-[(2-octylsulfinyl)propyl]-
Formula: C18 H28 O3 S
CAS: 120-62-7
State: LIQUID (NEAT)
Boiling point: 163 C DECOMPOSES
Class: COBLENTZ II
Instrument: PERKIN-ELMER 180 (GRATING)
Instrument parameters: GRATINGS: 2000, 1000, 500, 250 CM^-^1; FILTER CHANGE: 2970, 2000, 1485, 1000, 743, 500, 372, 250, 186 CM^-^1.
Sampling: TRANSMISSION
Path length: CAPILLARY
Resolution: 2
Origin: K. K. DEB-NCI FREDERICK CANCER RESEARCH CENTER
1/CM	TRANSMITTANCE
399	0.7006
408	0.7255
417	0.7502
426	0.7643
435	0.8028
444	0.8438
453	0.8635
462	0.8795
471	0.8935
480	0.9054
489	0.9103
498	0.9143
507	0.9264
516	0.9296
525	0.9294
534	0.9261
543	0.9257
552	0.9388
561	0.9411
570	0.9414
579	0.9407
588	0.9257
597	0.9029
606	0.8828
615	0.8951
624	0.9062
633	0.9178
642	0.9127
651	0.9211
660	0.9283
669	0.9197
678	0.8997
687	0.9063
696	0.9029
705	0.9019
714	0.8992
723	0.8605
732	0.8522
741	0.9035
750	0.9065
759	0.9018
768	0.8766
777	0.7215
786	0.858
795	0.8738
804	0.7304
813	0.6157
822	0.7283
831	0.8389
840	0.8773
849	0.8473
858	0.832
867	0.8361
876	0.8092
885	0.8488
894	0.8594
903	0.8537
912	0.8357
921	0.759
930	0.4856
939	0.6462
948	0.6489
957	0.8457
966	0.8559
975	0.8587
984	0.8254
993	0.7339
1002	0.6835
1011	0.6149
1020	0.4521
1029	0.2893
1038	0.1328
1047	0.2375
1056	0.5191
1065	0.6692
1074	0.7239
1083	0.7779
1092	0.747
1101	0.6897
1110	0.7371
1119	0.7509
1128	0.754
1137	0.8189
1146	0.8577
1155	0.8527
1164	0.8553
1173	0.8199
1182	0.689
1191	0.5809
1200	0.6546
1209	0.7244
1218	0.7304
1227	0.6332
1236	0.4479
1245	0.2115
1254	0.2924
1263	0.6374
1272	0.7504
1281	0.7955
1290	0.813
1299	0.8178
1308	0.8211
1317	0.8428
1326	0.847
1335	0.8453
1344	0.8389
1353	0.8137
1362	0.7473
1371	0.7261
1380	0.7328
1389	0.838
1398	0.8218
1407	0.8041
1416	0.8192
1425	0.8058
1434	0.6676
1443	0.4011
1452	0.4541
1461	0.5142
1470	0.5719
1479	0.5971
1488	0.2573
1497	0.2827
1506	0.2385
1515	0.7322
1524	0.8186
1533	0.8533
1542	0.8742
1551	0.886
1560	0.8953
1569	0.9007
1578	0.8978
1587	0.8909
1596	0.8779
1605	0.8405
1614	0.8477
1623	0.8795
1632	0.8703
1641	0.8808
1650	0.8883
1659	0.8916
1668	0.8976
1677	0.9007
1686	0.902
1695	0.8993
1704	0.895
1713	0.8889
1722	0.888
1731	0.8965
1740	0.9002
1749	0.898
1758	0.9035
1767	0.9094
1776	0.9108
1785	0.9114
1794	0.912
1803	0.9119
1812	0.9103
1821	0.9063
1830	0.9013
1839	0.8971
1848	0.8945
1857	0.8938
1866	0.8945
1875	0.8977
1884	0.9066
1893	0.9124
1902	0.9153
1911	0.9171
1920	0.9181
1929	0.9188
1938	0.9189
1947	0.9184
1956	0.9175
1965	0.9161
1974	0.9147
1983	0.9134
1992	0.9122
2001	0.9121
2010	0.9129
2019	0.9096
2028	0.9061
2037	0.904
2046	0.9024
2055	0.9023
2064	0.9032
2073	0.9043
2082	0.9054
2091	0.9072
2100	0.91
2109	0.9133
2118	0.9169
2127	0.916
2136	0.9145
2145	0.9136
2154	0.9128
2163	0.9121
2172	0.9117
2181	0.9112
2190	0.9108
2199	0.9106
2208	0.9104
2217	0.9102
2226	0.91
2235	0.9096
2244	0.9093
2253	0.9088
2262	0.9084
2271	0.9079
2280	0.9075
2289	0.9067
2298	0.9061
2307	0.9065
2316	0.9073
2325	0.9078
2334	0.9083
2343	0.9082
2352	0.9068
2361	0.9041
2370	0.901
2379	0.9015
2388	0.9028
2397	0.9042
2406	0.9059
2415	0.9064
2424	0.9067
2433	0.9067
2442	0.9066
2451	0.9064
2460	0.9062
2469	0.9054
2478	0.9042
2487	0.903
2496	0.9018
2505	0.9006
2514	0.8996
2523	0.8986
2532	0.8976
2541	0.8966
2550	0.8966
2559	0.8975
2568	0.8961
2577	0.8941
2586	0.8911
2595	0.8881
2604	0.8876
2613	0.8877
2622	0.8901
2631	0.8918
2640	0.8907
2649	0.8885
2658	0.8856
2667	0.883
2676	0.8806
2685	0.8809
2694	0.8813
2703	0.8809
2712	0.8789
2721	0.875
2730	0.8745
2739	0.8747
2748	0.8742
2757	0.8583
2766	0.8395
2775	0.8287
2784	0.8321
2793	0.8384
2802	0.842
2811	0.83
2820	0.8019
2829	0.7721
2838	0.6763
2847	0.5122
2856	0.3376
2865	0.4113
2874	0.4495
2883	0.5094
2892	0.4505
2901	0.3786
2910	0.3068
2919	0.2349
2928	0.163
2937	0.1449
2946	0.3717
2955	0.3635
2964	0.3649
2973	0.4853
2982	0.6057
2991	0.7063
3000	0.7599
3009	0.7803
3018	0.7879
3027	0.7926
3036	0.7982
3045	0.8127
3054	0.8264
3063	0.8285
3072	0.8282
3081	0.8398
3090	0.8528
3099	0.8582
3108	0.859
3117	0.8599
3126	0.86
3135	0.8601
3144	0.8602
3153	0.86
3162	0.8593
3171	0.8586
3180	0.858
3189	0.8574
3198	0.8571
3207	0.8568
3216	0.8565
3225	0.8561
3234	0.8558
3243	0.8554
3252	0.8552
3261	0.8548
3270	0.8544
3279	0.854
3288	0.8536
3297	0.8531
3306	0.8527
3315	0.8523
3324	0.8519
3333	0.8513
3342	0.8504
3351	0.8495
3360	0.8485
3369	0.8476
3378	0.8467
3387	0.8458
3396	0.8448
3405	0.8441
3414	0.8438
3423	0.8435
3432	0.8432
3441	0.8428
3450	0.8426
3459	0.8427
3468	0.8436
3477	0.8444
3486	0.8453
3495	0.8461
3504	0.847
3513	0.848
3522	0.8496
3531	0.8511
3540	0.8527
3549	0.8542
3558	0.8558
3567	0.8569
3576	0.8575
3585	0.8581
3594	0.8587
3603	0.8593
3612	0.8599
3621	0.8602
3630	0.8607
3639	0.8611
3648	0.8616
3657	0.8621
3666	0.8633
3675	0.8645
3684	0.8657
3693	0.8668
3702	0.8669
3711	0.8667
3720	0.8666
3729	0.8664
3738	0.8664
3747	0.8663
3756	0.8663
3765	0.8663
3774	0.8662
3783	0.8662
