Infrared Spectrum: 9H-PURINE
Formula: C5 H4 N4
CAS: 120-73-0
State: SOLID (SPLIT MULL)
Class: COBLENTZ II
Instrument: DOW KBr FOREPRISM-GRATING
Instrument parameters: BLAZED AT 3.5, 12.0, 20.0 MICRON AND CHANGED AT 5.0, 7.5, 14.9 MICRON
Sampling: TRANSMISSION
Resolution: 2
Origin: DOW CHEMICAL COMPANY
1/CM	TRANSMITTANCE
3800	0.7926
3791	0.7928
3782	0.7932
3773	0.7935
3764	0.7937
3755	0.7942
3746	0.7969
3737	0.7998
3728	0.8021
3719	0.8039
3710	0.8042
3701	0.8031
3692	0.8019
3683	0.8015
3674	0.8037
3665	0.8039
3656	0.8038
3647	0.8043
3638	0.8078
3629	0.8088
3620	0.808
3611	0.803
3602	0.8112
3593	0.8087
3584	0.7903
3575	0.8108
3566	0.8125
3557	0.8136
3548	0.8145
3539	0.8146
3530	0.8145
3521	0.8148
3512	0.8153
3503	0.815
3494	0.8146
3485	0.8153
3476	0.8171
3467	0.8206
3458	0.8235
3449	0.8252
3440	0.8266
3431	0.8277
3422	0.8288
3413	0.8304
3404	0.8327
3395	0.8327
3386	0.8323
3377	0.8307
3368	0.8281
3359	0.8246
3350	0.8204
3341	0.8135
3332	0.8055
3323	0.7978
3314	0.7905
3305	0.7835
3296	0.7767
3287	0.7706
3278	0.7661
3269	0.7624
3260	0.759
3251	0.7561
3242	0.7524
3233	0.7476
3224	0.7371
3215	0.7351
3206	0.7314
3197	0.725
3188	0.7178
3179	0.7081
3170	0.6976
3161	0.6862
3152	0.6707
3143	0.6515
3134	0.6264
3125	0.6012
3116	0.5892
3107	0.5704
3098	0.4331
3089	0.4803
3080	0.452
3071	0.417
3062	0.4476
3053	0.496
3044	0.4915
3035	0.422
3026	0.4026
3017	0.4259
3008	0.4299
2999	0.4471
2990	0.4743
2981	0.4959
2972	0.4918
2963	0.4714
2954	0.4567
2945	0.4183
2936	0.4209
2927	0.4549
2918	0.4768
2909	0.4987
2900	0.4916
2891	0.4807
2882	0.4725
2873	0.4451
2864	0.4225
2855	0.4351
2846	0.4375
2837	0.4173
2828	0.3974
2819	0.3843
2810	0.3698
2801	0.3606
2792	0.3504
2783	0.3446
2774	0.363
2765	0.3807
2756	0.3804
2747	0.3622
2738	0.3543
2729	0.3464
2720	0.3394
2711	0.358
2702	0.3712
2693	0.3737
2684	0.3484
2675	0.3425
2666	0.3493
2657	0.3672
2648	0.3822
2639	0.3964
2630	0.3993
2621	0.3846
2612	0.3698
2603	0.3738
2594	0.3844
2585	0.4002
2576	0.4198
2567	0.4185
2558	0.4096
2549	0.4101
2540	0.4159
2531	0.4233
2522	0.4468
2513	0.466
2504	0.4823
2495	0.5
2486	0.5158
2477	0.5288
2468	0.5391
2459	0.5388
2450	0.5379
2441	0.5454
2432	0.5525
2423	0.5679
2414	0.5775
2405	0.5855
2396	0.5945
2387	0.6004
2378	0.6107
2369	0.6251
2360	0.626
2351	0.6305
2342	0.64
2333	0.649
2324	0.6561
2315	0.6815
2306	0.7126
2297	0.7238
2288	0.7357
2279	0.7486
2270	0.7585
2261	0.7672
2252	0.7718
2243	0.7782
2234	0.7843
2225	0.7892
2216	0.7942
2207	0.7991
2198	0.8041
2189	0.8091
2180	0.8141
2171	0.8191
2162	0.8239
2153	0.8282
2144	0.8324
2135	0.8367
2126	0.841
2117	0.8442
2108	0.847
2099	0.8491
2090	0.851
2081	0.853
2072	0.8553
2063	0.8578
2054	0.8601
2045	0.862
2036	0.8639
2027	0.8649
2018	0.8658
2009	0.8668
2000	0.8686
1991	0.8711
1982	0.8712
1973	0.8671
1964	0.8677
1955	0.852
1946	0.8486
1937	0.8591
1928	0.8555
1919	0.8517
1910	0.8475
1901	0.8058
1892	0.7925
1883	0.8254
1874	0.8278
1865	0.8199
1856	0.7991
1847	0.7781
1838	0.7918
1829	0.8084
1820	0.8124
1811	0.8135
1802	0.8132
1793	0.8125
1784	0.8108
1775	0.8092
1766	0.8071
1757	0.8053
1748	0.8037
1739	0.8026
1730	0.8021
1721	0.8018
1712	0.8143
1703	0.822
1694	0.8291
1685	0.8337
1676	0.8378
1667	0.8474
1658	0.8565
1649	0.8665
1640	0.885
1631	0.8875
1622	0.1387
1613	0.5722
1604	0.7889
1595	0.8188
1586	0.8162
1577	0.6212
1568	0.5378
1559	0.8025
1550	0.8596
1541	0.8731
1532	0.8756
1523	0.8732
1514	0.8639
1505	0.8237
1496	0.8317
1487	0.8721
1478	0.7775
1469	0.2626
1460	0.5916
1451	0.7482
1442	0.5756
1433	0.3102
1424	0.4187
1415	0.5228
1406	0.0913
1397	0.2815
1388	0.5421
1379	0.7015
1370	0.741
1361	0.7389
1352	0.7157
1343	0.7175
1334	0.4684
1325	0.6805
1316	0.7569
1307	0.714
1298	0.7605
1289	0.7541
1280	0.5275
1271	0.0509
1262	0.2904
1253	0.6696
1244	0.6975
1235	0.7325
1226	0.6828
1217	0.267
1208	0.5678
1199	0.6265
1190	0.7325
1181	0.7618
1172	0.7685
1163	0.7937
1154	0.7857
1145	0.764
1136	0.7853
1127	0.8155
1118	0.8371
1109	0.8362
1100	0.4682
1091	0.7395
1082	0.8053
1073	0.8258
1064	0.8323
1055	0.8383
1046	0.8418
1037	0.8398
1028	0.843
1019	0.8435
1010	0.8428
1001	0.8389
992	0.8423
983	0.8251
974	0.6686
965	0.3
956	0.6806
947	0.7653
938	0.7869
929	0.7462
920	0.5602
911	0.2026
902	0.6411
893	0.6933
884	0.6819
875	0.6474
866	0.6411
857	0.6657
848	0.7214
839	0.7507
830	0.7734
821	0.7926
812	0.7917
803	0.6532
794	0.5391
785	0.8347
776	0.8675
767	0.8752
758	0.8795
749	0.8799
740	0.8752
731	0.8618
722	0.8367
713	0.8994
704	0.9186
695	0.9268
686	0.9295
677	0.9295
668	0.9355
659	0.9408
650	0.9281
641	0.9124
632	0.9285
623	0.8307
614	0.8477
605	0.7411
596	0.9052
587	0.9161
578	0.9193
569	0.4968
560	0.9139
551	0.9168
542	0.9145
533	0.9105
524	0.909
515	0.9093
506	0.9092
497	0.9075
488	0.9043
479	0.8992
470	0.8914
461	0.8775
452	0.6036
443	0.8673
434	0.8649
425	0.8499
416	0.8344
407	0.8197
398	0.8026
