Infrared Spectrum: 3-Ethylamino-4-methylphenol
Formula: C 9 H 13 N O
CAS: 120-37-6
State: gas
Origin: EPA-IR VAPOR PHASE LIBRARY
1/CM	ABSORBANCE
549.9	0.01306
559.547	0.01233
569.193	0.01211
578.84	0.01227
588.486	0.01129
598.133	0.01081
607.779	0.01421
617.426	0.01915
627.072	0.01613
636.719	0.01196
646.365	0.01018
656.012	0.00951
665.658	0.0092
675.305	0.00899
684.951	0.00877
694.598	0.00851
704.245	0.00825
713.891	0.00862
723.538	0.01085
733.184	0.01285
742.831	0.01235
752.477	0.01321
762.124	0.01882
771.77	0.02722
781.417	0.02305
791.063	0.01995
800.71	0.02099
810.356	0.02972
820.003	0.03125
829.649	0.02785
839.296	0.02376
848.943	0.0157
858.589	0.01001
868.236	0.00772
877.882	0.00705
887.529	0.00725
897.175	0.00749
906.822	0.00771
916.468	0.00775
926.115	0.00692
935.761	0.0065
945.408	0.00803
955.054	0.01241
964.701	0.01738
974.347	0.01737
983.994	0.01954
993.64	0.03629
1003.29	0.03794
1012.93	0.01662
1022.58	0.00812
1032.23	0.00837
1041.87	0.01019
1051.52	0.01219
1061.17	0.01275
1070.81	0.01283
1080.46	0.0149
1090.11	0.02147
1099.75	0.03151
1109.4	0.03574
1119.05	0.03117
1128.69	0.02904
1138.34	0.04213
1147.99	0.07034
1157.63	0.10943
1167.28	0.16694
1176.92	0.17412
1186.57	0.11601
1196.22	0.07438
1205.86	0.05861
1215.51	0.04765
1225.16	0.02743
1234.8	0.01683
1244.45	0.01658
1254.1	0.02366
1263.74	0.04131
1273.39	0.04971
1283.04	0.04527
1292.68	0.04814
1302.33	0.05157
1311.98	0.06041
1321.62	0.06779
1331.27	0.05433
1340.92	0.03137
1350.56	0.02212
1360.21	0.01981
1369.86	0.02053
1379.5	0.02949
1389.15	0.0295
1398.79	0.01877
1408.44	0.01706
1418.09	0.02163
1427.73	0.03319
1437.38	0.05258
1447.03	0.0711
1456.67	0.07639
1466.32	0.06844
1475.97	0.05663
1485.61	0.04555
1495.26	0.04509
1504.91	0.07884
1514.55	0.14831
1524.2	0.14492
1533.85	0.07182
1543.49	0.0371
1553.14	0.02694
1562.79	0.02474
1572.43	0.0314
1582.08	0.05192
1591.73	0.08349
1601.37	0.11216
1611.02	0.13568
1620.67	0.1343
1630.31	0.08474
1639.96	0.03735
1649.6	0.02087
1659.25	0.01429
1668.9	0.01064
1678.54	0.00819
1688.19	0.00644
1697.84	0.00544
1707.48	0.00493
1717.13	0.00456
1726.78	0.00437
1736.42	0.00424
1746.07	0.0039
1755.72	0.00348
1765.36	0.0030076
1775.01	0.0027388
1784.66	0.002724
1794.3	0.0029035
1803.95	0.00346
1813.6	0.00441
1823.24	0.00473
1832.89	0.00434
1842.54	0.00418
1852.18	0.00366
1861.83	0.0028862
1871.47	0.0026724
1881.12	0.0026582
1890.77	0.0027743
1900.41	0.0026427
1910.06	0.002515
1919.71	0.00233
1929.35	0.0023762
1939	0.0024184
1948.65	0.002401
1958.29	0.0022175
1967.94	0.00210421
1977.59	0.00213523
1987.23	0.00205302
1996.88	0.001984
2006.53	0.00198
2016.17	0.001876
2025.82	0.001856
2035.47	0.001939
2045.11	0.0020116
2054.76	0.00204175
2064.41	0.0019697
2074.05	0.001821
2083.7	0.001743
2093.35	0.0017
2102.99	0.001648
2112.64	0.001644
2122.28	0.001657
2131.93	0.001729
2141.58	0.001851
2151.22	0.001788
2160.87	0.001816
2170.52	0.001778
2180.16	0.001799
2189.81	0.001759
2199.46	0.001694
2209.1	0.001636
2218.75	0.0016
2228.4	0.001636
2238.04	0.001699
2247.69	0.001736
2257.34	0.001721
2266.98	0.001752
2276.63	0.001813
2286.28	0.0019517
2295.92	0.0019468
2305.57	0.0019868
2315.22	0.00208793
2324.86	0.0021794
2334.51	0.0023138
2344.16	0.002489
2353.8	0.0025452
2363.45	0.0025316
2373.09	0.0026026
2382.74	0.0026838
2392.39	0.0026391
2402.03	0.0025279
2411.68	0.0025609
2421.33	0.0026604
2430.97	0.0026815
2440.62	0.00257
2450.27	0.0024738
2459.91	0.0024483
2469.56	0.002496
2479.21	0.0024831
2488.85	0.0023857
2498.5	0.0023752
2508.15	0.0024178
2517.79	0.0023611
2527.44	0.0025013
2537.09	0.002553
2546.73	0.0024236
2556.38	0.0023971
2566.03	0.0023652
2575.67	0.0023676
2585.32	0.0024884
2594.96	0.0025914
2604.61	0.0026367
2614.26	0.002637
2623.9	0.0024253
2633.55	0.0022531
2643.2	0.00211232
2652.84	0.0021587
2662.49	0.0022864
2672.14	0.0023757
2681.78	0.0026971
2691.43	0.0031
2701.08	0.00333
2710.72	0.00348
2720.37	0.00369
2730.02	0.00437
2739.66	0.00539
2749.31	0.00531
2758.96	0.00457
2768.6	0.00441
2778.25	0.0047
2787.9	0.00558
2797.54	0.00668
2807.19	0.00799
2816.84	0.00935
2826.48	0.01108
2836.13	0.01346
2845.77	0.01822
2855.42	0.02751
2865.07	0.04158
2874.71	0.05202
2884.36	0.05453
2894.01	0.04964
2903.65	0.04452
2913.3	0.04519
2922.95	0.04785
2932.59	0.0513
2942.24	0.04949
2951.89	0.04305
2961.53	0.04819
2971.18	0.06916
2980.83	0.07013
2990.47	0.04261
3000.12	0.02175
3009.77	0.01968
3019.41	0.02751
3029.06	0.03112
3038.71	0.024
3048.35	0.01791
3058	0.01483
3067.64	0.01246
3077.29	0.01054
3086.94	0.00905
3096.58	0.00688
3106.23	0.00521
3115.88	0.00398
3125.52	0.0032
3135.17	0.0027485
3144.82	0.0021608
3154.46	0.001501
3164.11	0.001216
3173.76	0.00082
3183.4	0.00092
3193.05	0.00093
3202.7	0.00079
3212.34	0.00099
3221.99	0.0008
3231.64	0.00053
3241.28	0.00065
3250.93	0.00047
3260.58	2e-05
3270.22	0.00022
3279.87	0.0001
3289.52	0.00018
3299.16	0.00014
3308.81	0.00021
3318.45	0.00011
3328.1	0.0003
3337.75	0.00037
3347.39	0.00074
3357.04	0.00108
3366.69	0.001179
3376.33	0.00108
3385.98	0.001162
3395.63	0.00119
3405.27	0.001569
3414.92	0.00212584
3424.57	0.00354
3434.21	0.00618
3443.86	0.00852
3453.51	0.00804
3463.15	0.00601
3472.8	0.00405
3482.45	0.002401
3492.09	0.00151
3501.74	0.001061
3511.39	0.00098
3521.03	0.001045
3530.68	0.00089
3540.33	0.00072
3549.97	0.00076
3559.62	0.00069
3569.26	0.00079
3578.91	0.00082
3588.56	0.00107
3598.2	0.001095
3607.85	0.001461
3617.5	0.0023369
3627.14	0.00486
3636.79	0.01621
3646.44	0.05513
3656.08	0.06199
3665.73	0.02111
3675.38	0.00357
3685.02	0.001701
3694.67	0.001278
3704.32	0.001153
3713.96	0.001194
3723.61	0.00093
3733.26	0.001109
3742.9	0.001128
3752.55	0.00104
3762.2	0.001144
3771.84	0.001274
3781.49	0.001286
3791.13	0.001376
3800.78	0.001312
3810.43	0.001335
3820.07	0.001338
3829.72	0.001393
3839.37	0.001476
3849.01	0.001577
3858.66	0.001557
3868.31	0.001599
3877.95	0.001541
3887.6	0.001712
3897.25	0.001713
3906.89	0.001686
3916.54	0.001668
3926.19	0.001691
3935.83	0.001609
3945.48	0.001841
3955.13	0.001632
3964.77	0.001511
3974.42	0.001428
3984.07	0.00133
3993.71	0.001433
