Infrared Spectrum: Diethylene glycol dibenzoate
Formula: C18 H18 O5
CAS: 120-55-8
State: SOLUTION (10% CCl4 FOR 2.7-7.5, CS2 FOR 7.5-26 MICRON) VS SOLVENT
Class: COBLENTZ III
Instrument: DOW KBr FOREPRISM-GRATING
Instrument parameters: BLAZED AT 3.5, 12.0, 20.0 MICRON AND CHANGED AT 5.0, 7.5, 14.9 MICRON
Sampling: TRANSMISSION
Path length: 0.011 CM, 0.011 CM
Resolution: 2
Origin: DOW CHEMICAL COMPANY
1/CM	TRANSMITTANCE
3794	0.8725
3785	0.873
3776	0.8728
3767	0.872
3758	0.8711
3749	0.87
3740	0.869
3731	0.8682
3722	0.8678
3713	0.8677
3704	0.8678
3695	0.8689
3686	0.8704
3677	0.8702
3668	0.8675
3659	0.8657
3650	0.8661
3641	0.867
3632	0.8683
3623	0.8698
3614	0.8716
3605	0.8727
3596	0.8731
3587	0.8725
3578	0.8731
3569	0.8749
3560	0.8759
3551	0.8756
3542	0.8745
3533	0.8743
3524	0.8744
3515	0.8748
3506	0.8752
3497	0.8762
3488	0.8773
3479	0.8794
3470	0.8816
3461	0.8838
3452	0.8852
3443	0.8854
3434	0.8824
3425	0.8748
3416	0.8651
3407	0.8523
3398	0.8555
3389	0.8644
3380	0.8736
3371	0.8784
3362	0.8796
3353	0.8801
3344	0.8805
3335	0.8807
3326	0.8814
3317	0.882
3308	0.8834
3299	0.8849
3290	0.8867
3281	0.8885
3272	0.8896
3263	0.8904
3254	0.8911
3245	0.8918
3236	0.893
3227	0.8944
3218	0.8951
3209	0.8955
3200	0.8958
3191	0.8958
3182	0.896
3173	0.8963
3164	0.8895
3155	0.8843
3146	0.8866
3137	0.8893
3128	0.8906
3119	0.8898
3110	0.8862
3101	0.8695
3092	0.8483
3083	0.7498
3074	0.7821
3065	0.6806
3056	0.6491
3047	0.7851
3038	0.7711
3029	0.7268
3020	0.774
3011	0.8192
3002	0.7821
2993	0.751
2984	0.7342
2975	0.7053
2966	0.6255
2957	0.5147
2948	0.4733
2939	0.5103
2930	0.6325
2921	0.6622
2912	0.6664
2903	0.6244
2894	0.5689
2885	0.5232
2876	0.5197
2867	0.5257
2858	0.5548
2849	0.6259
2840	0.7217
2831	0.7754
2822	0.7708
2813	0.7747
2804	0.8057
2795	0.8345
2786	0.8354
2777	0.8389
2768	0.8473
2759	0.8503
2750	0.85
2741	0.8503
2732	0.8518
2723	0.8541
2714	0.8578
2705	0.8631
2696	0.8689
2687	0.8747
2678	0.8798
2669	0.883
2660	0.884
2651	0.8844
2642	0.8845
2633	0.8835
2624	0.8817
2615	0.8808
2606	0.881
2597	0.8797
2588	0.8798
2579	0.8802
2570	0.8809
2561	0.8809
2552	0.8805
2543	0.8787
2534	0.8781
2525	0.8783
2516	0.8786
2507	0.8804
2498	0.8823
2489	0.8843
2480	0.886
2471	0.8875
2462	0.8889
2453	0.89
2444	0.8907
2435	0.8911
2426	0.8915
2417	0.8907
2408	0.8888
2399	0.8846
2390	0.8818
2381	0.8802
2372	0.8803
2363	0.8804
2354	0.8802
2345	0.8803
2336	0.8813
2327	0.8821
2318	0.8824
2309	0.8821
2300	0.8825
2291	0.8818
2282	0.8788
2273	0.879
2264	0.8808
2255	0.878
2246	0.8788
2237	0.8823
2228	0.8856
2219	0.888
2210	0.8897
2201	0.8905
2192	0.8898
2183	0.8908
2174	0.8941
2165	0.8901
2156	0.8881
2147	0.8864
2138	0.885
2129	0.8841
2120	0.8833
2111	0.8825
2102	0.8828
2093	0.8833
2084	0.8838
2075	0.8843
2066	0.8846
2057	0.8847
2048	0.885
2039	0.8846
2030	0.8835
2021	0.8814
2012	0.8805
2003	0.8803
1994	0.8808
1985	0.873
1976	0.8581
1967	0.8415
1958	0.8072
1949	0.8298
1940	0.8538
1931	0.8597
1922	0.8398
1913	0.8262
1904	0.8167
1895	0.8428
1886	0.8694
1877	0.875
1868	0.8785
1859	0.8813
1850	0.8828
1841	0.8815
1832	0.8695
1823	0.8511
1814	0.8088
1805	0.8111
1796	0.8275
1787	0.8097
1778	0.7683
1769	0.7403
1760	0.7378
1751	0.6981
1742	0.4845
1733	0.1384
1724	0.005
1715	0.0036
1706	0.1954
1697	0.501
1688	0.6257
1679	0.6512
1670	0.7515
1661	0.7784
1652	0.7867
1643	0.7664
1634	0.8036
1625	0.816
1616	0.7861
1607	0.7117
1598	0.5744
1589	0.7032
1580	0.7343
1571	0.8012
1562	0.8228
1553	0.822
1544	0.8392
1535	0.8431
1526	0.844
1517	0.8394
1508	0.8364
1499	0.8031
1490	0.7239
1481	0.7621
1472	0.7008
1463	0.6303
1454	0.0772
1445	0.541
1436	0.6038
1427	0.7301
1418	0.7389
1409	0.7287
1400	0.5426
1391	0.5519
1382	0.5328
1373	0.5226
1364	0.5303
1355	0.6319
1346	0.6188
1337	0.5487
1328	0.5377
1319	0.3955
1310	0.358
1301	0.361
1292	0.2101
1283	0.0591
1274	0
1265	0
1256	0.0753
1247	0.0935
1238	0.3402
1229	0.5683
1220	0.6331
1211	0.668
1202	0.6828
1193	0.6849
1184	0.6268
1175	0.2502
1166	0.4966
1157	0.3618
1148	0.194
1139	0.1851
1130	0.1854
1121	0.0892
1112	0.0222
1103	0.0134
1094	0.0287
1085	0.1927
1076	0.3878
1067	0.1507
1058	0.5453
1049	0.5449
1040	0.4783
1031	0.3792
1022	0.4766
1013	0.6678
1004	0.7039
995	0.7208
986	0.6986
977	0.6803
968	0.7261
959	0.7318
950	0.6374
941	0.6028
932	0.5201
923	0.7268
914	0.7651
905	0.7725
896	0.7253
887	0.6555
878	0.6451
869	0.6671
860	0.6803
851	0.6735
842	0.6837
833	0.7403
824	0.7583
815	0.7574
806	0.7075
797	0.7512
788	0.7836
779	0.7976
770	0.8046
761	0.8038
752	0.7922
743	0.7761
734	0.7395
725	0.573
716	0.1646
707	0
698	0.5644
689	0.4086
680	0.5947
671	0.6861
662	0.7854
653	0.7955
644	0.8068
635	0.8151
626	0.819
617	0.7978
608	0.8051
599	0.8101
590	0.8114
581	0.8074
572	0.7975
563	0.7803
554	0.7661
545	0.7615
536	0.7567
527	0.7501
518	0.7521
509	0.7558
500	0.7539
491	0.743
482	0.7371
473	0.7385
464	0.7408
455	0.7489
446	0.755
437	0.756
428	0.7564
419	0.7565
410	0.7561
401	0.7549
