Infrared Spectrum: ACETIC ACID, (2-NAPHTHYLOXY)-
Formula: C12 H10 O3
CAS: 120-23-0
State: SOLID (SPLIT MULL)
Class: COBLENTZ III
Instrument: DOW KBr FOREPRISM-GRATING
Instrument parameters: BLAZED AT 3.5, 12.0, 20.0 MICRON AND CHANGED AT 5.0, 7.5, 14.9 MICRON
Sampling: TRANSMISSION
Resolution: 2
Origin: DOW CHEMICAL COMPANY
1/CM	TRANSMITTANCE
384.937	0.8774
394.015	0.8601
403.092	0.8439
412.17	0.8247
421.247	0.8046
430.325	0.8018
439.403	0.8091
448.48	0.8083
457.558	0.8022
466.635	0.8002
475.713	0.6004
484.79	0.7896
493.868	0.7904
502.946	0.8001
512.023	0.7839
521.101	0.7873
530.178	0.7821
539.256	0.7799
548.334	0.7316
557.411	0.7801
566.489	0.7932
575.566	0.7905
584.644	0.7919
593.721	0.7925
602.799	0.7951
611.877	0.7922
620.954	0.7337
630.032	0.7938
639.109	0.7878
648.187	0.7821
657.265	0.7938
666.342	0.6221
675.42	0.7523
684.497	0.7932
693.575	0.7901
702.652	0.7801
711.73	0.765
720.808	0.7354
729.885	0.7311
738.963	0.7114
748.04	0.643
757.118	0.2447
766.196	0.5745
775.273	0.7201
784.351	0.7406
793.428	0.7447
802.506	0.7285
811.583	0.6313
820.661	0.6023
829.739	0.7015
838.816	0.6461
847.894	0.3058
856.971	0.723
866.049	0.7145
875.127	0.6453
884.204	0.6736
893.282	0.6296
902.359	0.5225
911.437	0.4096
920.514	0.6314
929.592	0.6545
938.67	0.6547
947.747	0.6747
956.825	0.6362
965.902	0.4114
974.98	0.693
984.058	0.6829
993.135	0.7053
1002.21	0.7143
1011.29	0.7171
1020.37	0.6748
1029.45	0.723
1038.52	0.7225
1047.6	0.7103
1056.68	0.6908
1065.76	0.6411
1074.83	0.492
1083.91	0.3675
1092.99	0.715
1102.07	0.7241
1111.14	0.7078
1120.22	0.5711
1129.3	0.6899
1138.38	0.6746
1147.45	0.6257
1156.53	0.6589
1165.61	0.6256
1174.69	0.5207
1183.76	0.1472
1192.84	0.4511
1201.92	0.6218
1211	0.4528
1220.07	0.1335
1229.15	0.5208
1238.23	0.5038
1247.31	0.1704
1256.39	0.0917
1265.46	0.4404
1274.54	0.4922
1283.62	0.6637
1292.7	0.6867
1301.77	0.6888
1310.85	0.674
1319.93	0.6923
1329.01	0.701
1338.08	0.6771
1347.16	0.6301
1356.24	0.6049
1365.32	0.5379
1374.39	0.7367
1383.47	0.7017
1392.55	0.4255
1401.63	0.5599
1410.7	0.7113
1419.78	0.7428
1428.86	0.5868
1437.94	0.2767
1447.01	0.6699
1456.09	0.5462
1465.17	0.645
1474.25	0.3314
1483.32	0.7586
1492.4	0.7849
1501.48	0.7607
1510.56	0.5339
1519.64	0.5741
1528.71	0.837
1537.79	0.8393
1546.87	0.8163
1555.95	0.8052
1565.02	0.7819
1574.1	0.7708
1583.18	0.7041
1592.26	0.6583
1601.33	0.3613
1610.41	0.7584
1619.49	0.7126
1628.57	0.4153
1637.64	0.6413
1646.72	0.7785
1655.8	0.742
1664.88	0.7404
1673.95	0.7202
1683.03	0.6847
1692.11	0.6452
1701.19	0.5949
1710.26	0.5041
1719.34	0.4646
1728.42	0.3653
1737.5	0.113
1746.57	0.1478
1755.65	0.6023
1764.73	0.8037
1773.81	0.8407
1782.88	0.8405
1791.96	0.8294
1801.04	0.8185
1810.12	0.8085
1819.2	0.808
1828.27	0.8043
1837.35	0.8088
1846.43	0.808
1855.51	0.8
1864.58	0.8032
1873.66	0.7949
1882.74	0.7983
1891.82	0.7918
1900.89	0.7867
1909.97	0.7811
1919.05	0.7891
1928.13	0.7897
1937.2	0.7894
1946.28	0.7882
1955.36	0.7882
1964.44	0.7742
1973.51	0.7808
1982.59	0.7804
1991.67	0.7784
2000.75	0.7895
2009.82	0.8696
2018.9	0.8661
2027.98	0.8636
2037.06	0.8615
2046.13	0.8553
2055.21	0.8505
2064.29	0.8454
2073.37	0.8399
2082.45	0.8342
2091.52	0.8286
2100.6	0.8228
2109.68	0.816
2118.76	0.8089
2127.83	0.8021
2136.91	0.7963
2145.99	0.7896
2155.07	0.7874
2164.14	0.7876
2173.22	0.7812
2182.3	0.7771
2191.38	0.7751
2200.45	0.7704
2209.53	0.7656
2218.61	0.7606
2227.69	0.7549
2236.76	0.7504
2245.84	0.7458
2254.92	0.7389
2264	0.731
2273.07	0.7214
2282.15	0.7138
2291.23	0.7061
2300.31	0.7007
2309.38	0.6966
2318.46	0.6918
2327.54	0.6866
2336.62	0.6814
2345.7	0.678
2354.77	0.675
2363.85	0.6698
2372.93	0.6641
2382.01	0.6661
2391.08	0.6636
2400.16	0.6594
2409.24	0.6543
2418.32	0.6483
2427.39	0.6415
2436.47	0.6349
2445.55	0.628
2454.63	0.6192
2463.7	0.6097
2472.78	0.6006
2481.86	0.5927
2490.94	0.5942
2500.01	0.592
2509.09	0.5862
2518.17	0.58
2527.25	0.5753
2536.32	0.5682
2545.4	0.5564
2554.48	0.5451
2563.56	0.5264
2572.63	0.5037
2581.71	0.4813
2590.79	0.4846
2599.87	0.5252
2608.95	0.5312
2618.02	0.5318
2627.1	0.5327
2636.18	0.5303
2645.26	0.5256
2654.33	0.519
2663.41	0.5108
2672.49	0.5061
2681.57	0.5032
2690.64	0.5041
2699.72	0.4927
2708.8	0.4806
2717.88	0.4803
2726.95	0.4931
2736.03	0.4962
2745.11	0.4853
2754.19	0.4736
2763.26	0.4645
2772.34	0.456
2781.42	0.4539
2790.5	0.4564
2799.57	0.4587
2808.65	0.4557
2817.73	0.4494
2826.81	0.4415
2835.88	0.4314
2844.96	0.4227
2854.04	0.4148
2863.12	0.409
2872.2	0.4072
2881.27	0.4059
2890.35	0.4
2899.43	0.3899
2908.51	0.3782
2917.58	0.3751
2926.66	0.4116
2935.74	0.4289
2944.82	0.4353
2953.89	0.4323
2962.97	0.4254
2972.05	0.4223
2981.13	0.4215
2990.2	0.4248
2999.28	0.4301
3008.36	0.4284
3017.44	0.4312
3026.51	0.4347
3035.59	0.4298
3044.67	0.4269
3053.75	0.4207
3062.82	0.3993
3071.9	0.4093
3080.98	0.4475
3090.06	0.4598
3099.13	0.4677
3108.21	0.4743
3117.29	0.481
3126.37	0.4853
3135.44	0.4895
3144.52	0.4946
3153.6	0.5
3162.68	0.5072
3171.76	0.5155
3180.83	0.5253
3189.91	0.5309
3198.99	0.5375
3208.07	0.543
3217.14	0.547
3226.22	0.5491
3235.3	0.5509
3244.38	0.5524
3253.45	0.554
3262.53	0.556
3271.61	0.5575
3280.69	0.5587
3289.76	0.5588
3298.84	0.5583
3307.92	0.5575
3317	0.5559
3326.07	0.554
3335.15	0.5521
3344.23	0.5498
3353.31	0.5475
3362.38	0.5449
3371.46	0.5422
3380.54	0.5396
3389.62	0.5371
3398.69	0.5346
3407.77	0.5322
3416.85	0.5299
3425.93	0.528
3435.01	0.526
3444.08	0.5245
3453.16	0.5233
3462.24	0.5221
3471.32	0.5208
3480.39	0.5191
3489.47	0.5175
3498.55	0.5158
3507.63	0.5142
3516.7	0.5125
3525.78	0.5109
3534.86	0.5093
3543.94	0.5077
3553.01	0.5065
3562.09	0.5053
3571.17	0.5041
3580.25	0.5023
3589.32	0.5
3598.4	0.4977
3607.48	0.4954
3616.56	0.4931
3625.63	0.4909
3634.71	0.489
3643.79	0.4871
3652.87	0.4861
3661.94	0.4852
3671.02	0.4841
3680.1	0.4811
3689.18	0.4784
3698.26	0.4781
3707.33	0.4774
3716.41	0.476
3725.49	0.4732
3734.57	0.4693
3743.64	0.465
3752.72	0.4634
3761.8	0.4633
3770.88	0.4638
3779.95	0.4641
3789.03	0.4647
