Infrared Spectrum: o-Cresol, Alpha,Alpha'-(trimethylenedinitrilo)di-
Formula: C17 H18 N2 O2
CAS: 120-70-7
State: SOLID (SPLIT MULL), FLUOROLUBE FOR 3800-1330 CM^-^1, NUJOL FOR 1330-400 CM^-^1
Class: COBLENTZ III
Instrument: DOW KBr FOREPRISM-GRATING
Instrument parameters: BLAZED AT 3.5, 12.0, 20.0 MICRON AND CHANGED AT 5.0, 7.5, 14.9 MICRON
Sampling: TRANSMISSION
Resolution: 2
Origin: DOW CHEMICAL COMPANY
1/CM	TRANSMITTANCE
3800	0.6256
3791	0.6266
3782	0.6278
3773	0.6288
3764	0.6299
3755	0.6309
3746	0.6319
3737	0.6327
3728	0.6335
3719	0.6342
3710	0.635
3701	0.6359
3692	0.6369
3683	0.6379
3674	0.6389
3665	0.6399
3656	0.641
3647	0.6419
3638	0.643
3629	0.6436
3620	0.6443
3611	0.645
3602	0.6457
3593	0.6464
3584	0.6471
3575	0.6478
3566	0.6486
3557	0.649
3548	0.6491
3539	0.6493
3530	0.6495
3521	0.6508
3512	0.6521
3503	0.6535
3494	0.6549
3485	0.6562
3476	0.658
3467	0.6597
3458	0.6614
3449	0.6631
3440	0.6648
3431	0.6665
3422	0.6682
3413	0.6695
3404	0.6706
3395	0.6717
3386	0.6728
3377	0.674
3368	0.6751
3359	0.6771
3350	0.6794
3341	0.6815
3332	0.6839
3323	0.6868
3314	0.6901
3305	0.693
3296	0.6949
3287	0.696
3278	0.6971
3269	0.6968
3260	0.6951
3251	0.694
3242	0.695
3233	0.6982
3224	0.7001
3215	0.701
3206	0.7019
3197	0.703
3188	0.7039
3179	0.7048
3170	0.7057
3161	0.7062
3152	0.7068
3143	0.7072
3134	0.7078
3125	0.7084
3116	0.7088
3107	0.7089
3098	0.7085
3089	0.7062
3080	0.7035
3071	0.6942
3062	0.6751
3053	0.6621
3044	0.6586
3035	0.6786
3026	0.6815
3017	0.6751
3008	0.6649
2999	0.6615
2990	0.6625
2981	0.6741
2972	0.6928
2963	0.7003
2954	0.6972
2945	0.6101
2936	0.6265
2927	0.6358
2918	0.6337
2909	0.6346
2900	0.6385
2891	0.6337
2882	0.6327
2873	0.6403
2864	0.5987
2855	0.6131
2846	0.6293
2837	0.6447
2828	0.6575
2819	0.6675
2810	0.6737
2801	0.6735
2792	0.6725
2783	0.6736
2774	0.6795
2765	0.6841
2756	0.6821
2747	0.6801
2738	0.6768
2729	0.6733
2720	0.668
2711	0.6689
2702	0.6724
2693	0.6795
2684	0.6872
2675	0.6897
2666	0.6836
2657	0.6785
2648	0.6747
2639	0.6714
2630	0.6698
2621	0.6678
2612	0.6678
2603	0.6712
2594	0.6715
2585	0.6701
2576	0.6688
2567	0.6675
2558	0.6671
2549	0.668
2540	0.6699
2531	0.6725
2522	0.6754
2513	0.6784
2504	0.6815
2495	0.6844
2486	0.6875
2477	0.6901
2468	0.6925
2459	0.6948
2450	0.6971
2441	0.6997
2432	0.7021
2423	0.7048
2414	0.7074
2405	0.71
2396	0.7111
2387	0.7122
2378	0.715
2369	0.7189
2360	0.7224
2351	0.7228
2342	0.7215
2333	0.7205
2324	0.7217
2315	0.7264
2306	0.7353
2297	0.7431
2288	0.7469
2279	0.7505
2270	0.7539
2261	0.7572
2252	0.761
2243	0.7647
2234	0.7685
2225	0.7721
2216	0.7756
2207	0.779
2198	0.7824
2189	0.7857
2180	0.7884
2171	0.7904
2162	0.7925
2153	0.7949
2144	0.7975
2135	0.8001
2126	0.8026
2117	0.806
2108	0.8094
2099	0.8126
2090	0.8161
2081	0.8195
2072	0.8225
2063	0.8254
2054	0.8288
2045	0.8318
2036	0.8342
2027	0.8365
2018	0.839
2009	0.8412
2000	0.8436
1991	0.8477
1982	0.8513
1973	0.8543
1964	0.8566
1955	0.8587
1946	0.8567
1937	0.8395
1928	0.8604
1919	0.8642
1910	0.859
1901	0.8527
1892	0.8593
1883	0.8639
1874	0.8671
1865	0.8568
1856	0.8608
1847	0.8655
1838	0.8696
1829	0.866
1820	0.8635
1811	0.867
1802	0.8728
1793	0.87
1784	0.8621
1775	0.8684
1766	0.8765
1757	0.8811
1748	0.8848
1739	0.8874
1730	0.8889
1721	0.8897
1712	0.8849
1703	0.8755
1694	0.8702
1685	0.8685
1676	0.8625
1667	0.8518
1658	0.8582
1649	0.8254
1640	0.132
1631	0.368
1622	0.557
1613	0.4595
1604	0.5558
1595	0.6584
1586	0.4891
1577	0.5571
1568	0.7306
1559	0.7794
1550	0.8004
1541	0.8165
1532	0.8196
1523	0.8028
1514	0.8075
1505	0.5632
1496	0.5812
1487	0.7471
1478	0.7801
1469	0.6974
1460	0.6066
1451	0.489
1442	0.7101
1433	0.7246
1424	0.5993
1415	0.6704
1406	0.7474
1397	0.7711
1388	0.7562
1379	0.776
1370	0.7908
1361	0.7017
1352	0.7561
1343	0.6197
1334	0.7084
1325	0.7318
1316	0.6687
1307	0.6871
1298	0.6675
1289	0.4398
1280	0.3606
1271	0.5823
1262	0.66
1253	0.7011
1244	0.7132
1235	0.6994
1226	0.6831
1217	0.561
1208	0.5879
1199	0.636
1190	0.6584
1181	0.7425
1172	0.7419
1163	0.7442
1154	0.5433
1145	0.6021
1136	0.6771
1127	0.6765
1118	0.7078
1109	0.6228
1100	0.7301
1091	0.7395
1082	0.6218
1073	0.7497
1064	0.744
1055	0.5685
1046	0.5588
1037	0.7235
1028	0.6672
1019	0.728
1010	0.6025
1001	0.6172
992	0.7508
983	0.7512
974	0.6599
965	0.7648
956	0.7765
947	0.7815
938	0.7765
929	0.7611
920	0.7657
911	0.7468
902	0.7045
893	0.5262
884	0.4814
875	0.5301
866	0.6753
857	0.4792
848	0.7107
839	0.7632
830	0.7844
821	0.7968
812	0.8042
803	0.8087
794	0.8065
785	0.6127
776	0.7878
767	0.7555
758	0.1083
749	0.698
740	0.4949
731	0.7818
722	0.7886
713	0.8474
704	0.8753
695	0.8886
686	0.8928
677	0.8938
668	0.8947
659	0.8639
650	0.9047
641	0.7575
632	0.9081
623	0.9083
614	0.9011
605	0.9033
596	0.9045
587	0.9074
578	0.8934
569	0.8733
560	0.8511
551	0.8981
542	0.9059
533	0.9089
524	0.8968
515	0.8983
506	0.9073
497	0.9084
488	0.9045
479	0.8992
470	0.6511
461	0.8216
452	0.8815
443	0.8814
434	0.8771
425	0.8673
416	0.8465
407	0.8242
398	0.8118
389	0.8024
