Infrared Spectrum: BENZOTHIAZYL DISULFIDE
Formula: C14 H8 N2 S4
CAS: 120-78-5
State: SOLID (MINERAL OIL MULL)
Class: COBLENTZ
Instrument: Not specified, most likely a prism, grating, or hybrid spectrometer.
Sampling: TRANSMISSION
Resolution: 4
Origin: WYANDOTTE CHEMICALS CORP., WYANDOTTE, MICHIGAN, USA
MICROMETERS	TRANSMITTANCE
2.034	0.105
2.07486	0.105
2.11571	0.11
2.15657	0.112
2.19742	0.117
2.23828	0.122
2.27913	0.126
2.31999	0.131
2.36084	0.15
2.4017	0.158
2.44256	0.165
2.48341	0.174
2.52427	0.175
2.56512	0.179
2.60598	0.196
2.64683	0.203
2.68769	0.211
2.72855	0.213
2.7694	0.226
2.81026	0.237
2.85111	0.24
2.89197	0.24
2.93282	0.242
2.97368	0.244
3.01453	0.245
3.05539	0.255
3.09625	0.262
3.1371	0.269
3.17796	0.271
3.21881	0.269
3.25967	0.257
3.30052	0.226
3.34138	0.192
3.38224	0.059
3.42309	0.029
3.46395	0.037
3.5048	0.047
3.54566	0.177
3.58651	0.346
3.62737	0.397
3.66822	0.401
3.70908	0.404
3.74994	0.412
3.79079	0.419
3.83165	0.433
3.8725	0.445
3.91336	0.452
3.95421	0.459
3.99507	0.467
4.03592	0.476
4.07678	0.484
4.11764	0.484
4.15849	0.488
4.19935	0.5
4.2402	0.505
4.28106	0.506
4.32191	0.511
4.36277	0.522
4.40363	0.542
4.44448	0.549
4.48534	0.559
4.52619	0.563
4.56705	0.571
4.6079	0.575
4.64876	0.583
4.68961	0.592
4.73047	0.598
4.77133	0.602
4.81218	0.607
4.85304	0.614
4.89389	0.616
4.93475	0.617
4.9756	0.622
5.01646	0.636
5.05732	0.643
5.09817	0.648
5.13903	0.651
5.17988	0.651
5.22074	0.651
5.26159	0.643
5.30245	0.653
5.3433	0.663
5.38416	0.677
5.42502	0.68
5.46587	0.686
5.50673	0.679
5.54758	0.682
5.58844	0.665
5.62929	0.694
5.67015	0.701
5.711	0.701
5.75186	0.703
5.79272	0.701
5.83357	0.686
5.87443	0.651
5.91528	0.651
5.95614	0.646
5.99699	0.641
6.03785	0.627
6.07871	0.674
6.11956	0.679
6.16042	0.672
6.20127	0.694
6.24213	0.689
6.28298	0.68
6.32384	0.708
6.36469	0.665
6.40555	0.689
6.44641	0.703
6.48726	0.72
6.52812	0.721
6.56897	0.723
6.60983	0.72
6.65068	0.713
6.69154	0.687
6.7324	0.627
6.77325	0.346
6.81411	0.076
6.85496	0.146
6.89582	0.279
6.93667	0.284
6.97753	0.051
7.01838	0.23
7.05924	0.489
7.1001	0.593
7.14095	0.617
7.18181	0.59
7.22266	0.5
7.26352	0.401
7.30437	0.549
7.34523	0.631
7.38608	0.662
7.42694	0.668
7.4678	0.682
7.50865	0.701
7.54951	0.697
7.59036	0.523
7.63122	0.426
7.67207	0.655
7.71293	0.694
7.75379	0.711
7.79464	0.704
7.8355	0.549
7.87635	0.665
7.91721	0.699
7.95806	0.703
7.99892	0.667
8.03977	0.527
8.08063	0.395
8.12149	0.631
8.16234	0.662
8.2032	0.679
8.24405	0.68
8.28491	0.684
8.32576	0.704
8.36662	0.72
8.40748	0.72
8.44833	0.716
8.48919	0.704
8.53004	0.691
8.5709	0.658
8.61175	0.617
8.65261	0.621
8.69346	0.672
8.73432	0.687
8.77518	0.697
8.81603	0.703
8.85689	0.686
8.89774	0.67
8.9386	0.66
8.97945	0.663
9.02031	0.66
9.06116	0.662
9.10202	0.682
9.14288	0.689
9.18373	0.677
9.22459	0.537
9.26544	0.552
9.3063	0.674
9.34715	0.703
9.38801	0.713
9.42887	0.737
9.46972	0.761
9.51058	0.766
9.55143	0.769
9.59229	0.757
9.63314	0.726
9.674	0.72
9.71485	0.718
9.75571	0.592
9.79657	0.452
9.83742	0.523
9.87828	0.206
9.91913	0.151
9.95999	0.104
10.0008	0.426
10.0417	0.674
10.0826	0.728
10.1234	0.726
10.1643	0.732
10.2051	0.759
10.246	0.766
10.2868	0.779
10.3277	0.802
10.3685	0.813
10.4094	0.813
10.4503	0.75
10.4911	0.73
10.532	0.779
10.5728	0.771
10.6137	0.759
10.6545	0.771
10.6954	0.817
10.7362	0.836
10.7771	0.856
10.818	0.868
10.8588	0.88
10.8997	0.883
10.9405	0.89
10.9814	0.901
11.0222	0.904
11.0631	0.907
11.1039	0.907
11.1448	0.911
11.1857	0.914
11.2265	0.912
11.2674	0.909
11.3082	0.909
11.3491	0.909
11.3899	0.909
11.4308	0.906
11.4716	0.904
11.5125	0.909
11.5534	0.909
11.5942	0.909
11.6351	0.911
11.6759	0.909
11.7168	0.872
11.7576	0.849
11.7985	0.844
11.8393	0.885
11.8802	0.924
11.9211	0.933
11.9619	0.938
12.0028	0.947
12.0436	0.95
12.0845	0.943
12.1253	0.935
12.1662	0.931
12.207	0.928
12.2479	0.919
12.2888	0.907
12.3296	0.902
12.3705	0.907
12.4113	0.923
12.4522	0.928
12.493	0.931
12.5339	0.928
12.5747	0.931
12.6156	0.938
12.6565	0.941
12.6973	0.94
12.7382	0.935
12.779	0.935
12.8199	0.933
12.8607	0.928
12.9016	0.919
12.9424	0.889
12.9833	0.791
13.0242	0.511
13.065	0.165
13.1059	0.114
13.1467	0.165
13.1876	0.097
13.2284	0.109
13.2693	0.3
13.3101	0.561
13.351	0.691
13.3919	0.767
13.4327	0.808
13.4736	0.837
13.5144	0.844
13.5553	0.86
13.5961	0.868
13.637	0.878
13.6778	0.865
13.7187	0.726
13.7596	0.46
13.8004	0.279
13.8413	0.281
13.8821	0.496
13.923	0.703
13.9638	0.79
14.0047	0.844
14.0455	0.877
14.0864	0.895
14.1273	0.906
14.1681	0.892
14.209	0.82
14.2498	0.762
14.2907	0.779
14.3315	0.834
14.3724	0.887
14.4132	0.909
14.4541	0.914
14.495	0.919
14.5358	0.916
14.5767	0.912
14.6175	0.909
14.6584	0.907
14.6992	0.901
14.7401	0.895
14.781	0.883
14.8218	0.87
14.8627	0.837
14.9035	0.771
14.9444	0.67
14.9852	0.604
15.0261	0.561
15.0669	0.593
15.1078	0.696
15.1487	0.755
15.1895	0.769
15.2304	0.764
15.2712	0.761
15.3121	0.749
15.3529	0.742
15.3938	0.73
15.4346	0.72
15.4755	0.703
15.5164	0.697
15.5572	0.684
15.5981	0.675
15.6389	0.663
15.6798	0.648
15.7206	0.638
15.7615	0.622
15.8023	0.605
15.8432	0.588
15.8841	0.568
15.9249	0.559
15.9658	0.539
