Infrared Spectrum: N,N'-Bis(2-hydroxyethyl)dithioxamide
Formula: C 6 H 12 N 2 O 2 S 2
CAS: 120-86-5
State: gas
Instrument: HP-GC/MS/IRD
Origin: NIST Mass Spectrometry Data Center
1/CM	ABSORBANCE
550	0.0004956
562	0.0001357
574	0.0002124
586	0.0004661
598	0.0004897
610	0.0007847
622	0.0011623
634	0.0014691
646	0.0017287
658	0.0022302
670	0.0029972
682	0.0038468
694	0.0039766
706	0.0034574
718	0.0025134
730	0.0016284
742	0.0009912
754	0.000649
766	0.0004543
778	0.0003894
790	0.0004366
802	0.0005546
814	0.0007316
826	0.0014514
838	0.0022951
850	0.0022951
862	0.0022125
874	0.0019883
886	0.0019883
898	0.0023423
910	0.0031447
922	0.0048085
934	0.006018
946	0.0041359
958	0.0019824
970	0.0015281
982	0.0014927
994	0.0020237
1006	0.0030267
1018	0.0046728
1030	0.0079886
1042	0.012626
1054	0.0164905
1066	0.014455
1078	0.0083485
1090	0.004897
1102	0.0037524
1114	0.0028733
1126	0.0021771
1138	0.0017936
1150	0.0016284
1162	0.0016933
1174	0.0019588
1186	0.002419
1198	0.0029087
1210	0.0032627
1222	0.0033335
1234	0.0036403
1246	0.0040651
1258	0.0043129
1270	0.0049737
1282	0.0055696
1294	0.0059118
1306	0.0069266
1318	0.0092453
1330	0.0128443
1342	0.0132809
1354	0.0101598
1366	0.010325
1378	0.0147146
1390	0.017641
1402	0.014986
1414	0.010856
1426	0.008083
1438	0.0074045
1450	0.0087615
1462	0.0073042
1474	0.0072511
1486	0.0082364
1498	0.0159654
1510	0.0410935
1522	0.0568937
1534	0.0200954
1546	0.0065077
1558	0.0031978
1570	0.0021476
1582	0.0016461
1594	0.0012567
1606	0.0009263
1618	0.000767
1630	0.0006962
1642	0.0005133
1654	0.000354
1666	0.0003658
1678	0.000295
1690	0.0002655
1702	0.0002242
1714	0.0002478
1726	0.0002832
1738	0.0002242
1750	0.0002124
1762	0.0001711
1774	0.0001121
1786	8.85e-05
1798	6.49e-05
1810	6.49e-05
1822	3.54e-05
1834	2.95e-05
1846	5.9e-06
1858	1.77e-05
1870	2.36e-05
1882	4.72e-05
1894	7.67e-05
1906	0.0001062
1918	0.0001357
1930	0.0001357
1942	0.0001121
1954	9.44e-05
1966	5.9e-05
1978	6.49e-05
1990	7.67e-05
2002	9.44e-05
2014	0.0001121
2026	9.44e-05
2038	0.000118
2050	0.0001475
2062	0.0001652
2074	0.0001947
2086	0.0002124
2098	0.0002006
2110	0.0002242
2122	0.0002242
2134	0.0002006
2146	0.0001829
2158	0.000177
2170	0.0002065
2182	0.0001357
2194	0.0001239
2206	0.0001829
2218	0.0001829
2230	0.0001829
2242	0.0001711
2254	0.0001711
2266	0.0001593
2278	0.0001475
2290	0.0001416
2302	0.0001416
2314	0.0001357
2326	0.0001239
2338	0.0001475
2350	0.0001239
2362	0.0001534
2374	0.0001947
2386	0.0001947
2398	0.0001829
2410	0.000177
2422	0.0001711
2434	0.0001534
2446	0.0001888
2458	0.000177
2470	0.0001652
2482	0.0001475
2494	0.0002006
2506	0.000177
2518	0.0001298
2530	0.0001475
2542	0.0001711
2554	0.0001947
2566	0.0001947
2578	0.0002065
2590	0.0001947
2602	0.0001829
2614	0.0001475
2626	0.0001534
2638	0.0001475
2650	0.0002065
2662	0.0002478
2674	0.0002419
2686	0.0002655
2698	0.0003481
2710	0.0003304
2722	0.0003776
2734	0.0003953
2746	0.0004189
2758	0.0004307
2770	0.000472
2782	0.000531
2794	0.0005959
2806	0.0006962
2818	0.0007906
2830	0.0009263
2842	0.0012154
2854	0.0017169
2866	0.0026727
2878	0.0040946
2890	0.0055873
2902	0.0051566
2914	0.005015
2926	0.0068912
2938	0.0098176
2950	0.0098353
2962	0.0066729
2974	0.0044368
2986	0.0030149
2998	0.0019706
3010	0.0015399
3022	0.0013216
3034	0.0013216
3046	0.0011328
3058	0.0009558
3070	0.0008378
3082	0.0008083
3094	0.0008673
3106	0.0009735
3118	0.0011859
3130	0.0014455
3142	0.0020001
3154	0.0027789
3166	0.004071
3178	0.0062068
3190	0.0092099
3202	0.0124077
3214	0.0137293
3226	0.011741
3238	0.0084724
3250	0.0060121
3262	0.0042539
3274	0.0030621
3286	0.0021889
3298	0.0015517
3310	0.0011918
3322	0.0009499
3334	0.0007552
3346	0.0006195
3358	0.0005487
3370	0.0006372
3382	0.0004897
3394	0.0003894
3406	0.0003304
3418	0.0002537
3430	0.0002006
3442	0.0002006
3454	0.0001711
3466	0.0001888
3478	0.0001711
3490	0.000295
3502	0.0002891
3514	0.0004779
3526	0.0004956
3538	0.0005074
3550	0.0005192
3562	0.0005015
3574	0.0004897
3586	0.0003835
3598	0.000413
3610	0.0003776
3622	0.0004248
3634	0.0006903
3646	0.0013039
3658	0.0026845
3670	0.0036993
3682	0.0023777
3694	0.0009971
3706	0.0004838
3718	0.0001947
3730	5.9e-05
3742	0
3754	0
3766	0
3778	0
3790	0
3802	0
3814	0
3826	0
3838	0
