Infrared Spectrum: 3,4-Methylenedioxybenzaldehyde
Formula: C 8 H 6 O 3
CAS: 120-57-0
State: gas
Origin: EPA-IR VAPOR PHASE LIBRARY
1/CM	ABSORBANCE
549.8	0.00136
559.445	0.00312
569.09	0.00904
578.734	0.01296
588.379	0.01446
598.024	0.01142
607.669	0.00787
617.313	0.01729
626.958	0.01843
636.603	0.00873
646.248	0.00453
655.893	0.00302
665.537	0.00337
675.182	0.00636
684.827	0.00683
694.472	0.00335
704.116	0.00216
713.761	0.00637
723.406	0.00804
733.051	0.00345
742.695	0.00238
752.34	0.00345
761.985	0.00667
771.63	0.0192
781.275	0.04371
790.919	0.04797
800.564	0.04344
810.209	0.0449
819.854	0.03118
829.498	0.01668
839.143	0.0106
848.788	0.00959
858.433	0.01117
868.078	0.01293
877.722	0.01438
887.367	0.01014
897.012	0.00752
906.657	0.01006
916.301	0.02294
925.946	0.04193
935.591	0.05532
945.236	0.05297
954.88	0.03139
964.525	0.01471
974.17	0.0079
983.815	0.00715
993.46	0.00857
1003.1	0.01071
1012.75	0.01638
1022.39	0.03039
1032.04	0.06063
1041.68	0.10649
1051.33	0.11816
1060.97	0.07944
1070.62	0.04663
1080.26	0.04334
1089.91	0.05432
1099.55	0.04747
1109.2	0.03056
1118.84	0.02285
1128.49	0.016
1138.13	0.01088
1147.78	0.00675
1157.42	0.0048
1167.07	0.00517
1176.71	0.00562
1186.36	0.00558
1196	0.00599
1205.64	0.00983
1215.29	0.02014
1224.93	0.04631
1234.58	0.12387
1244.22	0.3244
1253.87	0.43099
1263.51	0.23473
1273.16	0.07233
1282.8	0.02636
1292.45	0.01734
1302.09	0.01667
1311.74	0.01526
1321.38	0.01477
1331.03	0.02128
1340.67	0.05123
1350.32	0.0633
1359.96	0.03048
1369.61	0.01212
1379.25	0.01857
1388.9	0.03176
1398.54	0.0323
1408.18	0.02415
1417.83	0.02533
1427.47	0.05202
1437.12	0.14339
1446.76	0.21215
1456.41	0.13697
1466.05	0.05248
1475.7	0.07925
1485.34	0.1496
1494.99	0.12203
1504.63	0.05886
1514.28	0.03906
1523.92	0.01291
1533.57	0.00652
1543.21	0.00575
1552.86	0.00587
1562.5	0.0062
1572.15	0.00802
1581.79	0.01259
1591.44	0.0242
1601.08	0.04125
1610.73	0.05188
1620.37	0.04167
1630.01	0.02685
1639.66	0.01553
1649.3	0.00799
1658.95	0.00644
1668.59	0.00906
1678.24	0.01396
1687.88	0.02986
1697.53	0.09502
1707.17	0.21107
1716.82	0.27
1726.46	0.17474
1736.11	0.04668
1745.75	0.01507
1755.4	0.01068
1765.04	0.00788
1774.69	0.00541
1784.33	0.00435
1793.98	0.00455
1803.62	0.00504
1813.27	0.00493
1822.91	0.00447
1832.55	0.00485
1842.2	0.0054
1851.84	0.00525
1861.49	0.00477
1871.13	0.00552
1880.78	0.00611
1890.42	0.00534
1900.07	0.00376
1909.71	0.00295
1919.36	0.00221
1929	0.00173
1938.65	0.00169
1948.29	0.00165
1957.94	0.00192
1967.58	0.0022
1977.23	0.00235
1986.87	0.00229
1996.52	0.00283
2006.16	0.00339
2015.81	0.0037
2025.45	0.00401
2035.1	0.00441
2044.74	0.004
2054.38	0.00345
2064.03	0.00276
2073.67	0.00222
2083.32	0.002
2092.96	0.00173
2102.61	0.00129
2112.25	0.0009906
2121.9	0.0010479
2131.54	0.0011017
2141.19	0.0009611
2150.83	0.0010345
2160.48	0.00129
2170.12	0.00161
2179.77	0.00195
2189.41	0.00195
2199.06	0.00173
2208.7	0.00135
2218.35	0.00144
2227.99	0.00146
2237.64	0.00129
2247.28	0.00115
2256.92	0.0010426
2266.57	0.00116
2276.21	0.00127
2285.86	0.00145
2295.5	0.00161
2305.15	0.0015
2314.79	0.00132
2324.44	0.00113
2334.08	0.0010071
2343.73	0.0008952
2353.37	0.0009439
2363.02	0.00113
2372.66	0.00135
2382.31	0.00139
2391.95	0.0009961
2401.6	0.000842
2411.24	0.0009043
2420.89	0.0009702
2430.53	0.0010571
2440.18	0.00117
2449.82	0.0010117
2459.47	0.0009079
2469.11	0.0008685
2478.75	0.0009831
2488.4	0.0010616
2498.04	0.0013
2507.69	0.00146
2517.33	0.00186
2526.98	0.00252
2536.62	0.00288
2546.27	0.00258
2555.91	0.00222
2565.56	0.00217
2575.2	0.00245
2584.85	0.00304
2594.49	0.00395
2604.14	0.00484
2613.78	0.00437
2623.43	0.00327
2633.07	0.00324
2642.72	0.00387
2652.36	0.00398
2662.01	0.00412
2671.65	0.00494
2681.29	0.00791
2690.94	0.01406
2700.58	0.02412
2710.23	0.03151
2719.87	0.03497
2729.52	0.0303
2739.16	0.02146
2748.81	0.02107
2758.45	0.02493
2768.1	0.02987
2777.74	0.0305
2787.39	0.02603
2797.03	0.02676
2806.68	0.03297
2816.32	0.03884
2825.97	0.03598
2835.61	0.02437
2845.26	0.01681
2854.9	0.01504
2864.55	0.0189
2874.19	0.02636
2883.84	0.03153
2893.48	0.03153
2903.12	0.03205
2912.77	0.03538
2922.41	0.0349
2932.06	0.0307
2941.7	0.02689
2951.35	0.02519
2960.99	0.02221
2970.64	0.01666
2980.28	0.01215
2989.93	0.01029
2999.57	0.01027
3009.22	0.0117
3018.86	0.01504
3028.51	0.01466
3038.15	0.01079
3047.8	0.0077
3057.44	0.00631
3067.09	0.00657
3076.73	0.00871
3086.38	0.00871
3096.02	0.00503
3105.67	0.00316
3115.31	0.00204
3124.95	0.00129
3134.6	0.000659
3144.24	0.0004957
3153.89	0.0002829
3163.53	0.0004899
3173.18	0.0002859
3182.82	0.000291
3192.47	0.0004217
3202.11	0.0004394
3211.76	0.0005797
3221.4	0.0006558
3231.05	0.0006696
3240.69	0.0005361
3250.34	0.0003237
3259.98	0.0001763
3269.63	0.000385
3279.27	0.00019616
3288.92	0.0002462
3298.56	2.43e-05
3308.21	0.000116435
3317.85	0.0003997
3327.49	0.0003504
3337.14	0.0004512
3346.78	0.0003013
3356.43	0.0002751
3366.07	0.0004618
3375.72	0.0006931
3385.36	0.0013
3395.01	0.00281
3404.65	0.00434
3414.3	0.00416
3423.94	0.00248
3433.59	0.00147
3443.23	0.0010484
3452.88	0.0005991
3462.52	0.0003303
3472.17	0.0003161
3481.81	0.0004622
3491.46	0.00028
3501.1	0.0002606
3510.75	0.0004388
3520.39	0.00012154
3530.04	0.00015829
3539.68	0.00015301
3549.32	0.00014557
3558.97	0.000117322
3568.61	0.0003137
3578.26	0.0002248
3587.9	0.0002621
3597.55	0.0002378
3607.19	0.0002449
3616.84	0.0002266
3626.48	0.0003358
3636.13	0.0002912
3645.77	0.0002384
3655.42	0.00020349
3665.06	0.0001759
3674.71	0.0001274
3684.35	0.0003276
3694	0.00012267
3703.64	0.0004005
3713.29	0.0003565
3722.93	0.00015637
3732.58	0.0002116
3742.22	0.0003376
3751.86	0.0002945
3761.51	0.0002678
3771.15	0.00019438
3780.8	0.0003118
3790.44	0.00019239
3800.09	0.0004002
3809.73	0.0002591
3819.38	0.0002365
3829.02	0.000489
3838.67	0.0003038
3848.31	0.0004713
3857.96	0.0004451
3867.6	0.0003473
3877.25	0.0004305
3886.89	0.0004274
3896.54	0.00017832
3906.18	0.0005677
3915.83	0.0004562
3925.47	0.0004106
3935.12	0.0003956
3944.76	0.0006306
3954.41	0.0007355
3964.05	0.000931
3973.69	0.0007995
3983.34	0.0007351
3992.98	0.0006692
