Infrared Spectrum: BENZENE, 1,2-(METHYLENEDIOXY)-4-PROPENYL-
Formula: C10 H10 O2
CAS: 120-58-1
State: SOLUTION (10% IN CCl4 FOR 3800-1330, 10% IN CS2 FOR 1330-400 CM^-^1)
Class: COBLENTZ III
Instrument: DOW KBr FOREPRISM-GRATING
Instrument parameters: BLAZED AT 3.5, 12.0, 20.0 MICRON, CHANGED AT 5.0, 7.5, 14.9 MICRON
Sampling: TRANSMISSION
Path length: 0.011, 0.011 CM
Resolution: 4
Origin: DOW CHEMICAL COMPANY
1/CM	TRANSMITTANCE
381.602	0.262
390.308	0.278
399.014	0.394
407.719	0.668
416.425	0.774
425.131	0.861
433.837	0.966
442.542	0.927
451.248	1.009
459.954	0.989
468.66	0.974
477.366	1.031
486.071	1.042
494.777	1.038
503.483	1.029
512.189	1.025
520.894	1.02
529.6	1.012
538.306	1.019
547.012	1.009
555.718	0.669
564.423	0.96
573.129	1.028
581.835	1.01
590.541	0.982
599.246	0.826
607.952	0.952
616.658	1.009
625.364	1.023
634.07	1.006
642.775	0.976
651.481	0.947
660.187	1.023
668.893	1.05
677.599	1.05
686.304	1.04
695.01	1.035
703.716	1
712.422	0.987
721.127	0.983
729.833	0.994
738.539	1.01
747.245	1.008
755.951	0.985
764.656	0.892
773.362	0.5628
782.068	0.175
790.774	0.751
799.479	0.843
808.185	0.6949
816.891	0.2749
825.597	0.6501
834.303	0.873
843.008	0.811
851.714	0.5269
860.42	0.25
869.126	0.646
877.831	0.835
886.537	0.884
895.243	0.88
903.949	0.7209
912.655	0.54
921.36	0.668
930.066	0.4559
938.772	0.062
947.478	0.37
956.183	0.042
964.889	0.4851
973.595	0.793
982.301	0.873
991.007	0.892
999.712	0.885
1008.42	0.841
1017.12	0.71
1025.83	0.4789
1034.54	0.0819
1043.24	0.013
1051.95	0.4271
1060.65	0.71
1069.36	0.801
1078.06	0.766
1086.77	0.552
1095.48	0.557
1104.18	0.4421
1112.89	0.71
1121.59	0.576
1130.3	0.7411
1139	0.891
1147.71	0.945
1156.42	0.951
1165.12	0.915
1173.83	0.815
1182.53	0.4319
1191.24	0.1451
1199.95	0.457
1208.65	0.63
1217.36	0.538
1226.06	0.2239
1234.77	0.024
1243.47	0.016
1252.18	0.009
1260.89	0.3752
1269.59	0.551
1278.3	0.623
1287	0.664
1295.71	0.5501
1304.41	0.745
1313.12	0.7391
1321.83	0.875
1330.53	0.873
1339.24	0.83
1347.94	0.6939
1356.65	0.32
1365.36	0.838
1374.06	0.82
1382.77	0.7831
1391.47	0.876
1400.18	0.802
1408.88	0.86
1417.59	0.771
1426.3	0.5759
1435	0.1689
1443.71	0.0969
1452.41	0.2141
1461.12	0.4929
1469.82	0.442
1478.53	0.459
1487.24	0.0719
1495.94	0.0126
1504.65	0.014
1513.35	0.4321
1522.06	0.561
1530.76	0.595
1539.47	0.5209
1548.18	0.489
1556.88	0.497
1565.59	0.589
1574.29	0.644
1583	0.654
1591.71	0.672
1600.41	0.68
1609.12	0.574
1617.82	0.851
1626.53	0.855
1635.23	0.88
1643.94	0.896
1652.65	0.857
1661.35	0.887
1670.06	0.9
1678.76	0.914
1687.47	0.925
1696.17	0.898
1704.88	0.936
1713.59	0.907
1722.29	0.906
1731	0.889
1739.7	0.899
1748.41	0.927
1757.12	0.93
1765.82	0.96
1774.53	0.968
1783.23	0.97
1791.94	0.978
1800.64	0.97
1809.35	0.957
1818.06	0.947
1826.76	0.908
1835.47	0.907
1844.17	0.93
1852.88	0.927
1861.58	0.922
1870.29	0.903
1879	0.919
1887.7	0.955
1896.41	0.974
1905.11	0.97
1913.82	0.971
1922.53	0.979
1931.23	0.986
1939.94	0.989
1948.64	0.989
1957.35	1.001
1966.05	0.976
1974.76	0.971
1983.47	0.974
1992.17	0.955
2000.88	0.958
2009.58	0.9665
2018.29	0.9715
2026.99	0.973
2035.7	0.9614
2044.41	0.956
2053.11	0.961
2061.82	0.97
2070.52	0.9635
2079.23	0.9706
2087.93	0.9756
2096.64	0.9841
2105.35	0.9906
2114.05	0.991
2122.76	0.991
2131.46	0.991
2140.17	0.987
2148.88	0.987
2157.58	0.987
2166.29	0.9838
2174.99	0.98
2183.7	0.9794
2192.4	0.979
2201.11	0.9784
2209.82	0.978
2218.52	0.9714
2227.23	0.9673
2235.93	0.9717
2244.64	0.974
2253.34	0.9687
2262.05	0.966
2270.76	0.9556
2279.46	0.9513
2288.17	0.9483
2296.87	0.9426
2305.58	0.937
2314.29	0.937
2322.99	0.9417
2331.7	0.945
2340.4	0.9517
2349.11	0.957
2357.81	0.955
2366.52	0.951
2375.23	0.949
2383.93	0.9528
2392.64	0.9482
2401.34	0.951
2410.05	0.9528
2418.75	0.955
2427.46	0.952
2436.17	0.9482
2444.87	0.9402
2453.58	0.9486
2462.28	0.951
2470.99	0.9456
2479.69	0.944
2488.4	0.9423
2497.11	0.9402
2505.81	0.9357
2514.52	0.9362
2523.22	0.9321
2531.93	0.9233
2540.64	0.9153
2549.34	0.9083
2558.05	0.9139
2566.75	0.9074
2575.46	0.9031
2584.16	0.903
2592.87	0.9
2601.58	0.8953
2610.28	0.8938
2618.99	0.9098
2627.69	0.91
2636.4	0.9098
2645.1	0.9071
2653.81	0.911
2662.52	0.9031
2671.22	0.899
2679.93	0.8961
2688.63	0.8851
2697.34	0.887
2706.05	0.887
2714.75	0.891
2723.46	0.8761
2732.16	0.86
2740.87	0.841
2749.57	0.869
2758.28	0.854
2766.99	0.7858
2775.69	0.614
2784.4	0.7423
2793.1	0.8362
2801.81	0.839
2810.51	0.8278
2819.22	0.8117
2827.93	0.7809
2836.63	0.7476
2845.34	0.6955
2854.04	0.476
2862.75	0.517
2871.46	0.4046
2880.16	0.273
2888.87	0.2846
2897.57	0.334
2906.28	0.4057
2914.98	0.3147
2923.69	0.466
2932.4	0.4263
2941.1	0.4327
2949.81	0.4914
2958.51	0.4822
2967.22	0.4277
2975.92	0.5367
2984.63	0.6053
2993.34	0.5209
3002.04	0.5763
3010.75	0.5562
3019.45	0.5128
3028.16	0.4485
3036.86	0.5527
3045.57	0.6084
3054.28	0.7246
3062.98	0.7542
3071.69	0.7283
3080.39	0.7321
3089.1	0.8023
3097.81	0.8152
3106.51	0.8192
3115.22	0.8232
3123.92	0.8305
3132.63	0.834
3141.33	0.834
3150.04	0.8343
3158.75	0.8398
3167.45	0.8516
3176.16	0.8613
3184.86	0.8686
3193.57	0.8753
3202.27	0.8793
3210.98	0.88
3219.69	0.883
3228.39	0.883
3237.1	0.8817
3245.8	0.887
3254.51	0.891
3263.22	0.8927
3271.92	0.896
3280.63	0.898
3289.33	0.902
3298.04	0.902
3306.74	0.904
3315.45	0.9074
3324.16	0.908
3332.86	0.908
3341.57	0.91
3350.27	0.91
3358.98	0.911
3367.68	0.911
3376.39	0.913
3385.1	0.914
3393.8	0.9159
3402.51	0.9159
3411.21	0.9174
3419.92	0.919
3428.62	0.922
3437.33	0.925
3446.04	0.93
3454.74	0.933
3463.45	0.934
3472.15	0.9365
3480.86	0.94
3489.57	0.943
3498.27	0.945
3506.98	0.947
3515.68	0.949
3524.39	0.949
3533.09	0.951
3541.8	0.952
3550.51	0.952
3559.21	0.953
3567.92	0.952
3576.62	0.955
3585.33	0.9488
3594.03	0.953
3602.74	0.955
3611.45	0.949
3620.15	0.9468
3628.86	0.9492
3637.56	0.956
3646.27	0.9554
3654.98	0.9522
3663.68	0.9582
3672.39	0.955
3681.09	0.9549
3689.8	0.9577
3698.5	0.957
3707.21	0.956
3715.92	0.9556
3724.62	0.959
3733.33	0.9557
3742.03	0.9577
3750.74	0.952
3759.44	0.9567
3768.15	0.961
3776.86	0.9624
3785.56	0.9603
3794.27	0.9593
