Infrared Spectrum: 4,5-DICHLORO-m-BENZENEDISULFONAMIDE
Formula: C6 H6 Cl2 N2 O4 S2
CAS: 120-97-8
State: SOLID (NUJOL MULL)
Melting point: 239-241 C
Class: COBLENTZ III
Instrument: PERKIN-ELMER 521 (GRATING)
Instrument parameters: GRATING CHANGE AT 1996 CM^-^1
Sampling: TRANSMISSION
Resolution: 4
Origin: MERCK SHARPE & DOHME RESEARCH LABORATORIES, Nelson Trenner
1/CM	TRANSMITTANCE
603.022	0.288
612.088	0.403
621.155	0.415
630.221	0.4509
639.288	0.473
648.354	0.472
657.42	0.465
666.487	0.437
675.553	0.427
684.62	0.42
693.686	0.373
702.752	0.353
711.819	0.307
720.885	0.329
729.952	0.374
739.018	0.432
748.084	0.518
757.151	0.578
766.217	0.628
775.284	0.678
784.35	0.647
793.416	0.559
802.483	0.732
811.549	0.716
820.616	0.5221
829.682	0.342
838.748	0.554
847.815	0.64
856.881	0.649
865.948	0.596
875.014	0.272
884.08	0.573
893.147	0.449
902.213	0.283
911.28	0.431
920.346	0.582
929.412	0.577
938.479	0.629
947.545	0.573
956.612	0.681
965.678	0.755
974.744	0.756
983.811	0.749
992.877	0.738
1001.94	0.708
1011.01	0.655
1020.08	0.651
1029.14	0.6
1038.21	0.3711
1047.28	0.5079
1056.34	0.559
1065.41	0.559
1074.47	0.542
1083.54	0.48
1092.61	0.452
1101.67	0.464
1110.74	0.415
1119.81	0.297
1128.87	0.434
1137.94	0.317
1147.01	0.15
1156.07	0.096
1165.14	0.193
1174.21	0.166
1183.27	0.379
1192.34	0.532
1201.4	0.37
1210.47	0.642
1219.54	0.689
1228.6	0.688
1237.67	0.682
1246.74	0.634
1255.8	0.56
1264.87	0.431
1273.94	0.583
1283	0.559
1292.07	0.5
1301.13	0.407
1310.2	0.275
1319.27	0.175
1328.33	0.081
1337.4	0.104
1346.47	0.237
1355.53	0.221
1364.6	0.293
1373.67	0.151
1382.73	0.339
1391.8	0.477
1400.86	0.301
1409.93	0.42
1419	0.545
1428.06	0.522
1437.13	0.354
1446.2	0.223
1455.26	0.146
1464.33	0.147
1473.4	0.501
1482.46	0.669
1491.53	0.701
1500.6	0.686
1509.66	0.623
1518.73	0.4819
1527.79	0.374
1536.86	0.425
1545.93	0.457
1554.99	0.509
1564.06	0.506
1573.13	0.592
1582.19	0.668
1591.26	0.713
1600.33	0.732
1609.39	0.761
1618.46	0.792
1627.52	0.808
1636.59	0.813
1645.66	0.813
1654.72	0.815
1663.79	0.831
1672.86	0.84
1681.92	0.842
1690.99	0.838
1700.06	0.839
1709.12	0.83
1718.19	0.841
1727.26	0.872
1736.32	0.875
1745.39	0.879
1754.45	0.875
1763.52	0.878
1772.59	0.872
1781.65	0.889
1790.72	0.888
1799.79	0.895
1808.85	0.893
1817.92	0.892
1826.99	0.889
1836.05	0.886
1845.12	0.872
1854.18	0.882
1863.25	0.891
1872.32	0.891
1881.38	0.888
1890.45	0.884
1899.52	0.881
1908.58	0.878
1917.65	0.874
1926.72	0.869
1935.78	0.862
1944.85	0.862
1953.92	0.862
1962.98	0.862
1972.05	0.862
1981.11	0.859
1990.18	0.85
1999.25	0.855
2008.31	0.869
2017.38	0.8689
2026.45	0.868
2035.51	0.868
2044.58	0.868
2053.65	0.8678
2062.71	0.8642
2071.78	0.8546
2080.84	0.853
2089.91	0.853
2098.98	0.853
2108.04	0.852
2117.11	0.8485
2126.18	0.8468
2135.24	0.843
2144.31	0.8392
2153.38	0.8375
2162.44	0.834
2171.51	0.834
2180.58	0.8302
2189.64	0.829
2198.71	0.8277
2207.77	0.8209
2216.84	0.8115
2225.91	0.809
2234.97	0.807
2244.04	0.8029
2253.11	0.802
2262.17	0.801
2271.24	0.7938
2280.31	0.79
2289.37	0.788
2298.44	0.7873
2307.5	0.7836
2316.57	0.7744
2325.64	0.77
2334.7	0.77
2343.77	0.771
2352.84	0.771
2361.9	0.77
2370.97	0.77
2380.04	0.77
2389.1	0.7647
2398.17	0.76
2407.24	0.7572
2416.3	0.755
2425.37	0.753
2434.43	0.7519
2443.5	0.7492
2452.57	0.746
2461.63	0.7426
2470.7	0.7389
2479.77	0.7302
2488.83	0.725
2497.9	0.723
2506.97	0.7178
2516.03	0.715
2525.1	0.7053
2534.16	0.6976
2543.23	0.6946
2552.3	0.688
2561.36	0.6783
2570.43	0.6705
2579.5	0.6643
2588.56	0.653
2597.63	0.6462
2606.7	0.6405
2615.76	0.6262
2624.83	0.619
2633.9	0.6162
2642.96	0.6095
2652.03	0.607
2661.09	0.6049
2670.16	0.6012
2679.23	0.6
2688.29	0.602
2697.36	0.605
2706.43	0.6051
2715.49	0.6024
2724.56	0.5916
2733.63	0.5943
2742.69	0.5989
2751.76	0.604
2760.82	0.608
2769.89	0.6058
2778.96	0.5773
2788.02	0.5606
2797.09	0.5457
2806.16	0.4981
2815.22	0.4681
2824.29	0.397
2833.36	0.3214
2842.42	0.1732
2851.49	0.0814
2860.55	0.0596
2869.62	0.0681
2878.69	0.0779
2887.75	0.0769
2896.82	0.0572
2905.89	0.0382
2914.95	0.032
2924.02	0.032
2933.09	0.0349
2942.15	0.0393
2951.22	0.045
2960.29	0.0501
2969.35	0.0588
2978.42	0.1063
2987.48	0.1958
2996.55	0.2586
3005.62	0.2777
3014.68	0.3159
3023.75	0.3385
3032.82	0.347
3041.88	0.348
3050.95	0.3455
3060.02	0.343
3069.08	0.2995
3078.15	0.3353
3087.21	0.3588
3096.28	0.3615
3105.35	0.3597
3114.41	0.358
3123.48	0.3562
3132.55	0.3504
3141.61	0.35
3150.68	0.3479
3159.75	0.3394
3168.81	0.3265
3177.88	0.3151
3186.95	0.3107
3196.01	0.2984
3205.08	0.2837
3214.14	0.2676
3223.21	0.2467
3232.28	0.2122
3241.34	0.1661
3250.41	0.1399
3259.48	0.1867
3268.54	0.214
3277.61	0.1668
3286.68	0.1405
3295.74	0.1869
3304.81	0.2102
3313.87	0.2202
3322.94	0.1786
3332.01	0.1475
3341.07	0.1373
3350.14	0.1763
3359.21	0.2177
3368.27	0.2277
3377.34	0.1774
3386.41	0.1549
3395.47	0.2095
3404.54	0.2316
3413.61	0.2614
3422.67	0.3619
3431.74	0.4386
3440.8	0.4965
3449.87	0.5361
3458.94	0.5577
3468	0.5667
3477.07	0.567
3486.14	0.5668
3495.2	0.565
3504.27	0.564
3513.34	0.5615
3522.4	0.559
3531.47	0.558
3540.53	0.557
3549.6	0.557
3558.67	0.556
3567.73	0.552
3576.8	0.551
3585.87	0.55
3594.93	0.5477
3604	0.5409
3613.07	0.535
3622.13	0.5324
3631.2	0.531
3640.27	0.531
3649.33	0.53
3658.4	0.53
3667.46	0.532
3676.53	0.531
3685.6	0.53
3694.66	0.5273
3703.73	0.5255
3712.8	0.5198
3721.86	0.516
3730.93	0.5143
3740	0.513
3749.06	0.5117
3758.13	0.509
3767.19	0.507
3776.26	0.505
3785.33	0.504
3794.39	0.503
3803.46	0.5012
3812.53	0.5
3821.59	0.4977
3830.66	0.4926
3839.73	0.4841
3848.79	0.481
3857.86	0.478
3866.93	0.4789
3875.99	0.476
3885.06	0.472
3894.12	0.4696
3903.19	0.4688
3912.26	0.467
3921.32	0.467
3930.39	0.4652
3939.46	0.465
3948.52	0.464
3957.59	0.4585
3966.66	0.459
3975.72	0.4602
3984.79	0.459
3993.85	0.4562
