Infrared Spectrum: Catechol
Formula: C 6 H 6 O 2
CAS: 120-80-9
State: gas
Instrument: HP-GC/MS/IRD
Origin: NIST Mass Spectrometry Data Center
1/CM	ABSORBANCE
550	0.001526
562	0.0010192
574	0.0004116
586	0.0003808
598	0.0001512
610	3.92e-05
622	7.28e-05
634	8.4e-06
646	6.16e-05
658	0.0001008
670	0.000112
682	0.000154
694	0.0003864
706	0.0012264
718	0.004956
730	0.0095088
742	0.0151928
754	0.011074
766	0.006594
778	0.0030856
790	0.0004424
802	0.0002912
814	0.000364
826	0.0008988
838	0.0017052
850	0.0031052
862	0.002744
874	0.0016632
886	0.0005544
898	0.0005488
910	0.0008372
922	0.0007252
934	0.000518
946	0.000308
958	0.0002268
970	0.0001876
982	0.0002492
994	0.000434
1006	0.0009492
1018	0.0019292
1030	0.0021308
1042	0.0014868
1054	0.0009912
1066	0.0017864
1078	0.005922
1090	0.0078932
1102	0.0067032
1114	0.0024472
1126	0.0026992
1138	0.0071596
1150	0.012124
1162	0.0148932
1174	0.0125328
1186	0.0112028
1198	0.010192
1210	0.0085652
1222	0.0078848
1234	0.0136948
1246	0.0201012
1258	0.028
1270	0.024038
1282	0.0141428
1294	0.0045556
1306	0.0053088
1318	0.0064176
1330	0.0054376
1342	0.0041664
1354	0.0053256
1366	0.0046172
1378	0.0022232
1390	0.0011508
1402	0.000938
1414	0.0006328
1426	0.0005656
1438	0.0007504
1450	0.001414
1462	0.002828
1474	0.0049252
1486	0.0091112
1498	0.0160244
1510	0.0186004
1522	0.0117068
1534	0.004102
1546	0.0012376
1558	0.0010696
1570	0.0015204
1582	0.0025508
1594	0.0045388
1606	0.0060452
1618	0.005236
1630	0.0030072
1642	0.0010416
1654	0.000602
1666	0.000686
1678	0.0008484
1690	0.0007336
1702	0.0004452
1714	0.000322
1726	0.000294
1738	0.0003808
1750	0.0004508
1762	0.000322
1774	0.000224
1786	0.00021
1798	0.0001764
1810	0.0001204
1822	0.000112
1834	0.0001148
1846	0.0001764
1858	0.0002996
1870	0.0003444
1882	0.0002772
1894	0.0002436
1906	0.0003332
1918	0.000322
1930	0.0001764
1942	7.84e-05
1954	4.48e-05
1966	3.92e-05
1978	1.4e-05
1990	6.44e-05
2002	0.0001316
2014	0.000182
2026	0.000308
2038	0.0002744
2050	0.0001428
2062	7.28e-05
2074	9.24e-05
2086	0.000126
2098	0.0001652
2110	0.0001316
2122	5.6e-05
2134	3.08e-05
2146	1.96e-05
2158	2.52e-05
2170	2.52e-05
2182	3.92e-05
2194	3.64e-05
2206	3.64e-05
2218	4.76e-05
2230	7.56e-05
2242	9.52e-05
2254	0.0001456
2266	0.0001904
2278	0.0001932
2290	0.0001792
2302	0.0001456
2314	0.0001512
2326	0.0001848
2338	0.0002548
2350	0.0002436
2362	0.0002352
2374	0.0002016
2386	0.0002156
2398	0.0002128
2410	0.0002128
2422	0.0001708
2434	0.0001904
2446	0.0002912
2458	0.0003612
2470	0.000364
2482	0.0003024
2494	0.0002548
2506	0.0002352
2518	0.000238
2530	0.000224
2542	0.0001848
2554	0.000182
2566	0.0001484
2578	0.0001484
2590	0.0001316
2602	0.0001288
2614	7.84e-05
2626	7.84e-05
2638	8.96e-05
2650	7e-05
2662	6.72e-05
2674	7.56e-05
2686	5.04e-05
2698	3.64e-05
2710	0.0001036
2722	0.0001092
2734	4.76e-05
2746	6.44e-05
2758	7.84e-05
2770	7e-05
2782	5.6e-05
2794	2.52e-05
2806	1.96e-05
2818	3.64e-05
2830	5.6e-06
2842	2.52e-05
2854	2.24e-05
2866	0
2878	3.64e-05
2890	2.8e-06
2902	0
2914	3.08e-05
2926	4.48e-05
2938	6.72e-05
2950	7e-05
2962	0.000112
2974	0.0001008
2986	0.0001176
2998	0.000224
3010	0.000392
3022	0.0008568
3034	0.001708
3046	0.002828
3058	0.0035868
3070	0.003318
3082	0.002366
3094	0.00154
3106	0.0008792
3118	0.0004676
3130	0.0002296
3142	0.000112
3154	4.48e-05
3166	4.48e-05
3178	4.76e-05
3190	4.76e-05
3202	5.04e-05
3214	5.6e-05
3226	5.04e-05
3238	4.48e-05
3250	5.04e-05
3262	7.56e-05
3274	0.0001008
3286	0.0001512
3298	0.0001232
3310	7.28e-05
3322	3.64e-05
3334	4.2e-05
3346	5.88e-05
3358	4.76e-05
3370	6.16e-05
3382	7.56e-05
3394	4.76e-05
3406	7.84e-05
3418	8.68e-05
3430	0.0001288
3442	0.000238
3454	0.0003108
3466	0.0003696
3478	0.0003808
3490	0.0003696
3502	0.0003248
3514	0.0002044
3526	0.000196
3538	0.0002072
3550	0.0002632
3562	0.0005852
3574	0.0016968
3586	0.0064344
3598	0.0132244
3610	0.0129108
3622	0.0063924
3634	0.0029764
3646	0.0049112
3658	0.0078512
3670	0.0068068
3682	0.0029764
3694	0.0006076
3706	0.0002604
3718	0.0002044
3730	0.0002324
3742	0.000196
3754	0.0001904
3766	0.0001064
3778	0.0001288
3790	0.0001512
3802	0.0001736
3814	0.0001512
3826	0.0001624
3838	0.0001652
