Infrared Spectrum: 4-Ethoxy-3-methoxybenzaldehyde
Formula: C 10 H 12 O 3
CAS: 120-25-2
State: gas
Origin: EPA-IR VAPOR PHASE LIBRARY
1/CM	ABSORBANCE
501.5	0.0007892
513.074	0.0008091
524.648	0.001151
536.222	0.001641
547.796	0.002211
559.37	0.003031
570.944	0.003421
582.518	0.004181
594.092	0.004261
605.666	0.003871
617.24	0.005291
628.814	0.008171
640.388	0.007771
651.962	0.004711
663.536	0.001921
675.11	0.0010892
686.684	0.0009601
698.258	0.001311
709.832	0.003161
721.406	0.011171
732.98	0.015521
744.554	0.009481
756.128	0.008031
767.702	0.011891
779.276	0.013951
790.85	0.009981
802.423	0.012101
813.997	0.010981
825.571	0.008661
837.145	0.006111
848.719	0.004561
860.293	0.004911
871.867	0.006761
883.441	0.006871
895.015	0.007301
906.589	0.006811
918.163	0.007381
929.737	0.009961
941.311	0.009461
952.885	0.007761
964.459	0.005191
976.033	0.004071
987.607	0.005271
999.181	0.008331
1010.76	0.015921
1022.33	0.036821
1033.9	0.053671
1045.48	0.037051
1057.05	0.017261
1068.63	0.010591
1080.2	0.011031
1091.77	0.015521
1103.35	0.025191
1114.92	0.046801
1126.49	0.060041
1138.07	0.052201
1149.64	0.046241
1161.22	0.029701
1172.79	0.015251
1184.36	0.013881
1195.94	0.016671
1207.51	0.024311
1219.09	0.037761
1230.66	0.049301
1242.23	0.056341
1253.81	0.088051
1265.38	0.153461
1276.96	0.146971
1288.53	0.081651
1300.1	0.046571
1311.68	0.031311
1323.25	0.020851
1334.83	0.014521
1346.4	0.009991
1357.97	0.009341
1369.55	0.014971
1381.12	0.029261
1392.7	0.032971
1404.27	0.023161
1415.84	0.029681
1427.42	0.026131
1438.99	0.013921
1450.57	0.016351
1462.14	0.024171
1473.71	0.032181
1485.29	0.035061
1496.86	0.057701
1508.44	0.069631
1520.01	0.032141
1531.58	0.013941
1543.16	0.010091
1554.73	0.011361
1566.31	0.020061
1577.88	0.037741
1589.45	0.054261
1601.03	0.051481
1612.6	0.020361
1624.18	0.007881
1635.75	0.005181
1647.32	0.004751
1658.9	0.005621
1670.47	0.008521
1682.05	0.014121
1693.62	0.026481
1705.19	0.078111
1716.77	0.137731
1728.34	0.053071
1739.92	0.012101
1751.49	0.005561
1763.06	0.003671
1774.64	0.002881
1786.21	0.002531
1797.79	0.002261
1809.36	0.002061
1820.93	0.001981
1832.51	0.001951
1844.08	0.001891
1855.66	0.002001
1867.23	0.002171
1878.8	0.002081
1890.38	0.001851
1901.95	0.001781
1913.53	0.001731
1925.1	0.001661
1936.67	0.001571
1948.25	0.001491
1959.82	0.001521
1971.4	0.001601
1982.97	0.001731
1994.54	0.001851
2006.12	0.001721
2017.69	0.001641
2029.27	0.001761
2040.84	0.001991
2052.41	0.002061
2063.99	0.001811
2075.56	0.001541
2087.14	0.001281
2098.71	0.0011036
2110.28	0.000973
2121.86	0.0008174
2133.43	0.0007523
2145.01	0.0007549
2156.58	0.0007945
2168.15	0.0007238
2179.73	0.0007309
2191.3	0.0007312
2202.88	0.0007339
2214.45	0.0007582
2226.02	0.0008186
2237.6	0.0007865
2249.17	0.0007646
2260.74	0.0008056
2272.32	0.0008584
2283.89	0.0008214
2295.47	0.0008225
2307.04	0.0007853
2318.61	0.0006681
2330.19	0.0005515
2341.76	0.0005165
2353.34	0.000466
2364.91	0.0004356
2376.48	0.0004739
2388.06	0.0005207
2399.63	0.0006069
2411.21	0.0007055
2422.78	0.0007312
2434.35	0.0007511
2445.93	0.0007445
2457.5	0.0007852
2469.08	0.0008101
2480.65	0.0008544
2492.22	0.000928
2503.8	0.0010122
2515.37	0.001251
2526.95	0.001561
2538.52	0.001801
2550.09	0.001901
2561.67	0.001961
2573.24	0.002151
2584.82	0.002261
2596.39	0.002331
2607.96	0.002301
2619.54	0.002111
2631.11	0.002001
2642.69	0.002181
2654.26	0.002321
2665.83	0.002431
2677.41	0.002791
2688.98	0.004531
2700.56	0.010311
2712.13	0.019521
2723.7	0.021351
2735.28	0.013561
2746.85	0.008281
2758.43	0.007381
2770	0.008721
2781.57	0.010411
2793.15	0.014241
2804.72	0.019571
2816.3	0.020011
2827.87	0.014461
2839.44	0.012511
2851.02	0.011811
2862.59	0.010171
2874.17	0.011521
2885.74	0.014391
2897.31	0.014961
2908.89	0.015861
2920.46	0.017711
2932.04	0.022071
2943.61	0.028921
2955.18	0.025101
2966.76	0.022021
2978.33	0.025001
2989.91	0.028161
3001.48	0.022361
3013.05	0.016401
3024.63	0.009511
3036.2	0.007341
3047.78	0.006701
3059.35	0.006331
3070.92	0.006181
3082.5	0.004901
3094.07	0.003411
3105.65	0.002541
3117.22	0.001801
3128.79	0.001281
3140.37	0.0009812
3151.94	0.0009252
3163.52	0.0008399
3175.09	0.0008196
3186.66	0.0007593
3198.24	0.0006348
3209.81	0.0004434
3221.39	0.0003547
3232.96	0.0002891
3244.53	0.00019625
3256.11	0.00016186
3267.68	0.00014082
3279.26	0.0001036
3290.83	0.0001441
3302.4	0.000130867
3313.98	0.00011702
3325.55	0.00016461
3337.13	9.51e-05
3348.7	0.00020106
3360.27	0.00018392
3371.85	0.000343
3383.42	0.0006139
3395	0.001271
3406.57	0.001841
3418.14	0.001561
3429.72	0.0008684
3441.29	0.0005361
3452.86	0.0002922
3464.44	0.00014673
3476.01	0.00014398
3487.59	0.0001167
3499.16	0.0001005
3510.73	5.1e-05
3522.31	8.96e-05
3533.88	5.67e-05
3545.46	9.95e-05
3557.03	0.00012316
3568.6	9.41e-05
3580.18	3.71e-05
3591.75	0.0001029
3603.33	7.89e-05
3614.9	4.87e-05
3626.47	5.66e-05
3638.05	5.2e-05
3649.62	9.59e-05
3661.2	9.36e-05
3672.77	0.000130218
3684.34	0.00017908
3695.92	6.55e-05
3707.49	6.78e-05
3719.07	0.00015578
3730.64	0.00011401
3742.21	0.00016956
3753.79	0.00014783
3765.36	0.0002338
3776.94	0.0002457
3788.51	0.00018006
3800.08	0.00021511
3811.66	0.00021586
3823.23	0.0002432
3834.81	0.00017199
3846.38	0.00019353
3857.95	0.00021083
3869.53	0.0002288
3881.1	0.00018765
3892.68	0.00022062
3904.25	0.00014475
3915.82	0.00017491
3927.4	0.0001915
3938.97	0.00020363
3950.55	0.00020171
3962.12	0.0003417
3973.69	0.0003311
3985.27	0.0004401
3996.84	0.0003912
