Infrared Spectrum: Dibenzoyl methane
Formula: C 15 H 12 O 2
CAS: 120-46-7
State: gas
Instrument: HP-GC/MS/IRD
Origin: NIST Mass Spectrometry Data Center
1/CM	ABSORBANCE
550	0.0003128
562	8.05e-05
574	0.0003979
586	0.0009269
598	0.002599
610	0.0042619
622	0.0015249
634	0.0002898
646	0.0001817
658	0.0005727
670	0.0018423
682	0.0045609
694	0.0048737
706	0.0033442
718	0.0026634
730	0.0023184
742	0.0053015
754	0.0087561
766	0.0042849
778	0.0015387
790	0.0009821
802	0.0006325
814	0.0003036
826	0.0002714
838	0.0003174
850	0.0003358
862	0.0003795
874	0.0004554
886	0.0005083
898	0.0006923
910	0.0008717
922	0.0013294
934	0.0014329
946	0.0010166
958	0.0008142
970	0.0008648
982	0.0012811
994	0.0017756
1006	0.0021344
1018	0.0036018
1030	0.003243
1042	0.0021689
1054	0.0025714
1066	0.0027301
1078	0.0017135
1090	0.0015157
1102	0.0013225
1114	0.0010833
1126	0.0011937
1138	0.0015203
1150	0.0020148
1162	0.0025024
1174	0.0040342
1186	0.0059639
1198	0.0047426
1210	0.0078085
1222	0.0085951
1234	0.0064975
1246	0.0067137
1258	0.0071921
1270	0.0080937
1282	0.0089861
1294	0.0089677
1306	0.0072036
1318	0.0057707
1330	0.0045839
1342	0.0038548
1354	0.0035397
1366	0.0035075
1378	0.003726
1390	0.0040779
1402	0.0050347
1414	0.006095
1426	0.0064653
1438	0.0068149
1450	0.0077924
1462	0.008349
1474	0.0086503
1486	0.009016
1498	0.0075624
1510	0.0078131
1522	0.0092253
1534	0.0109112
1546	0.0132802
1558	0.0165255
1570	0.0191866
1582	0.0169165
1594	0.0204608
1606	0.023
1618	0.0196489
1630	0.015226
1642	0.0107019
1654	0.0074198
1666	0.0060766
1678	0.0073094
1690	0.0073692
1702	0.0052532
1714	0.0044919
1726	0.0026979
1738	0.0016146
1750	0.0012811
1762	0.0011293
1774	0.0009959
1786	0.0009085
1798	0.0011224
1810	0.0010189
1822	0.0007521
1834	0.0007061
1846	0.0005911
1858	0.000529
1870	0.0005014
1882	0.000575
1894	0.00069
1906	0.0006371
1918	0.0003933
1930	0.0003105
1942	0.0004347
1954	0.0005635
1966	0.0005497
1978	0.0002668
1990	0.0001633
2002	0.0001357
2014	0.0001288
2026	0.0001081
2038	0.000115
2050	0.000138
2062	0.000138
2074	0.0001426
2086	0.0001495
2098	8.74e-05
2110	8.74e-05
2122	0.0001081
2134	8.05e-05
2146	9.2e-05
2158	6.44e-05
2170	7.36e-05
2182	5.06e-05
2194	6.67e-05
2206	4.6e-05
2218	6.9e-05
2230	8.51e-05
2242	8.51e-05
2254	9.89e-05
2266	7.36e-05
2278	0.0001403
2290	0.0001334
2302	0.0001334
2314	0.0002392
2326	0.0002001
2338	0.0001909
2350	0.0001909
2362	0.0001771
2374	0.000184
2386	0.0001587
2398	0.0001702
2410	0.0001679
2422	0.0001518
2434	0.0001518
2446	0.0001656
2458	0.0001702
2470	0.0002254
2482	0.0002208
2494	0.0002668
2506	0.0002806
2518	0.0002346
2530	0.0002254
2542	0.0002599
2554	0.0002254
2566	0.0002691
2578	0.000276
2590	0.0003427
2602	0.000368
2614	0.0003565
2626	0.0003726
2638	0.0003795
2650	0.000414
2662	0.0003887
2674	0.0003795
2686	0.0003519
2698	0.0003772
2710	0.0003174
2722	0.0003611
2734	0.0003634
2746	0.0003657
2758	0.0003496
2770	0.0003473
2782	0.0003519
2794	0.0003496
2806	0.0003818
2818	0.0003611
2830	0.0003864
2842	0.0003772
2854	0.0003726
2866	0.0003956
2878	0.0004048
2890	0.0003841
2902	0.0003703
2914	0.0003795
2926	0.0003634
2938	0.000391
2950	0.000345
2962	0.0004186
2974	0.0004577
2986	0.0004945
2998	0.0005221
3010	0.0007084
3022	0.0011224
3034	0.001955
3046	0.0025944
3058	0.0033465
3070	0.0054901
3082	0.0042205
3094	0.0029072
3106	0.0017319
3118	0.0010327
3130	0.0005658
3142	0.0004485
3154	0.0004462
3166	0.0003956
3178	0.0003496
3190	0.0002898
3202	0.0002829
3214	0.0002415
3226	0.0002645
3238	0.0002323
3250	0.0001817
3262	0.0001886
3274	0.000138
3286	0.0001449
3298	0.0001173
3310	0.0001173
3322	8.51e-05
3334	5.29e-05
3346	9.43e-05
3358	0.0001771
3370	0.0001196
3382	0.000184
3394	0.0001242
3406	7.59e-05
3418	0.0001127
3430	0.0001081
3442	0.0001035
3454	0.0001702
3466	0.0001035
3478	0.0001081
3490	0.0001219
3502	0.0001127
3514	8.97e-05
3526	0.0001656
3538	0.0001702
3550	5.75e-05
3562	0.0001173
3574	8.05e-05
3586	9.66e-05
3598	0.0001104
3610	8.51e-05
3622	7.59e-05
3634	0.0001518
3646	0.000115
3658	0.0001127
3670	7.36e-05
3682	0.0002139
3694	0.0001334
3706	0.0002047
3718	0.0001104
3730	0.0001334
3742	0.000138
3754	8.05e-05
3766	0.0001771
3778	0.0001863
3790	0.0001909
3802	0.0001541
3814	0.0001656
3826	0.0001633
3838	0.0001081
