Infrared Spectrum: Ethyl m-toluate
Formula: C 10 H 12 O 2
CAS: 120-33-2
State: gas
Origin: EPA-IR VAPOR PHASE LIBRARY
1/CM	ABSORBANCE
549.8	0.0010419
559.445	0.0003938
569.09	0.00044703
578.735	0.0003108
588.38	0.0002
598.025	0.0003325
607.67	0.000251
617.315	0.00017
626.96	0.000216
636.605	0.000224
646.251	0.0005324
655.896	0.0011707
665.541	0.003863
675.186	0.005063
684.831	0.004153
694.476	0.002323
704.121	0.0012051
713.766	0.001903
723.411	0.004663
733.056	0.015573
742.701	0.033763
752.346	0.022763
761.991	0.009283
771.636	0.004963
781.281	0.003873
790.926	0.003703
800.571	0.004083
810.216	0.003813
819.861	0.002533
829.507	0.001613
839.152	0.001513
848.797	0.002003
858.442	0.002963
868.087	0.003313
877.732	0.002553
887.377	0.002853
897.022	0.004303
906.667	0.006243
916.312	0.005023
925.957	0.002793
935.602	0.001713
945.247	0.001533
954.892	0.001683
964.537	0.001843
974.182	0.002203
983.827	0.002973
993.472	0.004203
1003.12	0.006893
1012.76	0.011373
1022.41	0.016473
1032.05	0.013793
1041.7	0.007613
1051.34	0.005773
1060.99	0.008003
1070.63	0.018593
1080.28	0.035743
1089.92	0.041563
1099.57	0.063383
1109.21	0.068193
1118.86	0.025673
1128.5	0.010623
1138.15	0.007623
1147.79	0.007033
1157.44	0.008953
1167.08	0.013093
1176.73	0.024943
1186.37	0.073663
1196.02	0.126733
1205.66	0.071113
1215.31	0.020423
1224.95	0.013493
1234.6	0.012653
1244.24	0.014053
1253.89	0.025333
1263.53	0.071303
1273.18	0.156993
1282.82	0.141923
1292.47	0.066483
1302.11	0.036903
1311.76	0.019453
1321.4	0.010913
1331.05	0.007073
1340.69	0.005423
1350.34	0.005173
1359.98	0.008963
1369.63	0.014503
1379.27	0.010143
1388.92	0.008343
1398.56	0.007253
1408.21	0.006893
1417.85	0.007663
1427.5	0.009683
1437.14	0.011463
1446.79	0.010523
1456.43	0.008523
1466.08	0.009713
1475.73	0.010703
1485.37	0.009063
1495.02	0.006083
1504.66	0.003713
1514.31	0.002833
1523.95	0.002603
1533.6	0.002573
1543.24	0.002453
1552.89	0.002453
1562.53	0.002583
1572.18	0.003693
1581.82	0.006603
1591.47	0.008153
1601.11	0.006893
1610.76	0.006153
1620.4	0.004453
1630.05	0.002833
1639.69	0.002213
1649.34	0.002153
1658.98	0.002513
1668.63	0.002853
1678.27	0.003203
1687.92	0.004883
1697.56	0.007123
1707.21	0.009073
1716.85	0.016723
1726.5	0.050953
1736.14	0.115713
1745.79	0.105193
1755.43	0.028893
1765.08	0.008653
1774.72	0.006633
1784.37	0.006013
1794.01	0.004163
1803.66	0.003093
1813.3	0.002593
1822.95	0.001913
1832.59	0.0013655
1842.24	0.0010781
1851.88	0.0010863
1861.53	0.001403
1871.17	0.001463
1880.82	0.0012375
1890.46	0.0013152
1900.11	0.001221
1909.75	0.0007951
1919.4	0.0006649
1929.04	0.0007588
1938.69	0.0011462
1948.33	0.001483
1957.98	0.0013274
1967.62	0.0010916
1977.27	0.0007386
1986.91	0.0005303
1996.56	0.0003101
2006.2	0.0003181
2015.85	0.0003192
2025.49	0.0003032
2035.14	0.00038365
2044.78	0.0005505
2054.43	0.0006813
2064.07	0.0006167
2073.72	0.00046979
2083.36	0.0003602
2093.01	0.00039593
2102.65	0.00042407
2112.3	0.00038977
2121.94	0.000376111
2131.59	0.0004181
2141.23	0.00043322
2150.88	0.0003279
2160.52	0.0003378
2170.17	0.0003109
2179.81	0.0003405
2189.46	0.0003628
2199.1	0.00021
2208.75	0.00026
2218.39	0.0002947
2228.04	0.000246
2237.68	0.000197
2247.33	0.000245
2256.97	0.000191
2266.62	0.0002919
2276.26	0.0003361
2285.91	0.000321
2295.55	0.0003484
2305.2	0.0003466
2314.84	0.000235
2324.49	0.000236
2334.13	0.000197
2343.78	0.000214
2353.42	0.000252
2363.07	0.000269
2372.72	0.00038418
2382.36	0.00043611
2392.01	0.00044182
2401.65	0.00043996
2411.3	0.00041122
2420.94	0.0002932
2430.59	0.000243
2440.23	0.00026
2449.88	0.0003135
2459.52	0.0002983
2469.17	0.00042775
2478.81	0.0003594
2488.46	0.000273
2498.1	0.0003089
2507.75	0.000231
2517.39	0.000219
2527.04	0.000215
2536.68	0.000179
2546.33	0.00036786
2555.97	0.00046584
2565.62	0.0005525
2575.26	0.0002987
2584.91	0.00036847
2594.55	0.0003087
2604.2	0.0002986
2613.84	0.0002816
2623.49	0.000243
2633.13	0.000234
2642.78	0.0003331
2652.42	0.0003467
2662.07	0.0003331
2671.71	0.000231
2681.36	0.000221
2691	0.0002988
2700.65	0.000378273
2710.29	0.00041706
2719.94	0.000488
2729.58	0.0005461
2739.23	0.0007953
2748.87	0.0010315
2758.52	0.0007439
2768.16	0.0008938
2777.81	0.0008325
2787.45	0.00081
2797.1	0.0008291
2806.74	0.0009998
2816.39	0.0011933
2826.03	0.001623
2835.68	0.001793
2845.32	0.002343
2854.97	0.003363
2864.61	0.004983
2874.26	0.007353
2883.9	0.008843
2893.55	0.008663
2903.19	0.009253
2912.84	0.011063
2922.48	0.013453
2932.13	0.017513
2941.77	0.019333
2951.42	0.016253
2961.06	0.014143
2970.71	0.016483
2980.35	0.023283
2990	0.024143
2999.64	0.017573
3009.29	0.013253
3018.93	0.010463
3028.58	0.010013
3038.22	0.009923
3047.87	0.009243
3057.51	0.009373
3067.16	0.008763
3076.8	0.007063
3086.45	0.005193
3096.09	0.003893
3105.74	0.002943
3115.38	0.001983
3125.03	0.0012983
3134.67	0.0008679
3144.32	0.0007409
3153.96	0.0006714
3163.61	0.0006484
3173.25	0.0006726
3182.9	0.0007696
3192.54	0.0007008
3202.19	0.0006284
3211.83	0.0005477
3221.48	0.0004862
3231.12	0.000373039
3240.77	0.0002853
3250.41	0.00041066
3260.06	0.000201
3269.7	0.0003393
3279.35	0.000254
3289	0.00032
3298.64	0.000171
3308.29	0.000142
3317.93	0.000262
3327.58	0.00035
3337.22	0.000204
3346.87	0.00044193
3356.51	0.0002731
3366.16	0.000253
3375.8	0.0002864
3385.45	0.000201
3395.09	0.000236
3404.74	0.0002917
3414.38	0.0003278
3424.03	0.00043321
3433.67	0.0005124
3443.32	0.0006501
3452.96	0.0010089
3462.61	0.0012244
3472.25	0.0007539
3481.9	0.0005241
3491.54	0.00038682
3501.19	7.6e-05
3510.83	0.000213
3520.48	0.000379443
3530.12	0.000244
3539.77	0.000376211
3549.41	0.000174
3559.06	0.000224
3568.7	0.00039357
3578.35	0.00040354
3587.99	0.000233
3597.64	0.00026
3607.28	0.000138
3616.93	0.000234
3626.57	0.000241
3636.22	0.000184
3645.86	0.000229
3655.51	0.0002901
3665.15	0.0002889
3674.8	0
3684.44	0.000217
3694.09	0.000139
3703.73	0.00036544
3713.38	0.000225
3723.02	0.0003088
3732.67	0.000186
3742.31	0.000177
3751.96	0.000223
3761.6	0.00041684
3771.25	0.000233
3780.89	0.0003351
3790.54	0.00036415
3800.18	0.0003484
3809.83	0.0005192
3819.47	0.00047062
3829.12	0.0003272
3838.76	0.000252
3848.41	0.00045395
3858.05	0.000272
3867.7	0.0005406
3877.34	0.00041086
3886.99	0.0005543
3896.63	0.0005782
3906.28	0.00044385
3915.92	0.0002959
3925.57	0.0005208
3935.21	0.000267
3944.86	0.0004913
3954.5	0.00038787
3964.15	0.00039883
3973.79	0.0005558
3983.44	0.0005273
3993.08	0.000631
