Infrared Spectrum: PIPERAZINE, 1,2,4-TRIMETHYL-
Formula: C7 H16 N2
CAS: 120-85-4
State: LIQUID (NEAT)
Boiling point: 149-150 C
Class: COBLENTZ III
Instrument: BAIRD (GRATING)
Instrument parameters: NaCl PRISM
Sampling: TRANSMISSION
Path length: 0.0015 CM
Resolution: 2
Origin: WYANDOTTE CHEMICALS CORP.
1/CM	TRANSMITTANCE
4000	0.9148
3991	0.9181
3982	0.9215
3973	0.925
3964	0.9285
3955	0.9316
3946	0.9346
3937	0.9377
3928	0.9405
3919	0.943
3910	0.9442
3901	0.9451
3892	0.9459
3883	0.9467
3874	0.9447
3865	0.9418
3856	0.9399
3847	0.9402
3838	0.9415
3829	0.9449
3820	0.9501
3811	0.9568
3802	0.9616
3793	0.9655
3784	0.9675
3775	0.9673
3766	0.9671
3757	0.9663
3748	0.9651
3739	0.9639
3730	0.963
3721	0.9623
3712	0.9616
3703	0.9612
3694	0.9612
3685	0.9614
3676	0.9616
3667	0.9617
3658	0.9618
3649	0.9609
3640	0.9594
3631	0.9556
3622	0.9515
3613	0.9456
3604	0.9375
3595	0.929
3586	0.9221
3577	0.9161
3568	0.9109
3559	0.9058
3550	0.9017
3541	0.8981
3532	0.8944
3523	0.8895
3514	0.8844
3505	0.8791
3496	0.8728
3487	0.8664
3478	0.8604
3469	0.8555
3460	0.8518
3451	0.848
3442	0.8441
3433	0.8403
3424	0.8365
3415	0.8334
3406	0.8306
3397	0.8277
3388	0.8253
3379	0.8236
3370	0.824
3361	0.8265
3352	0.8297
3343	0.8346
3334	0.8397
3325	0.8456
3316	0.8513
3307	0.8564
3298	0.8613
3289	0.8644
3280	0.8664
3271	0.8675
3262	0.8678
3253	0.8667
3244	0.8631
3235	0.8589
3226	0.8548
3217	0.8513
3208	0.8486
3199	0.8466
3190	0.8455
3181	0.8447
3172	0.8475
3163	0.851
3154	0.8546
3145	0.8568
3136	0.858
3127	0.8588
3118	0.8593
3109	0.8592
3100	0.858
3091	0.8563
3082	0.8535
3073	0.8474
3064	0.8347
3055	0.7912
3046	0.7055
3037	0.6003
3028	0.4945
3019	0.388
3010	0.2809
3001	0.1731
2992	0.0647
2983	0.029
2974	0.0296
2965	0.0318
2956	0.0356
2947	0.04
2938	0.0475
2929	0.0618
2920	0.0809
2911	0.09
2902	0.0955
2893	0.0985
2884	0.1048
2875	0.1178
2866	0.1249
2857	0.1268
2848	0.1235
2839	0.0957
2830	0.0665
2821	0.0507
2812	0.0454
2803	0.0413
2794	0.0391
2785	0.0381
2776	0.0386
2767	0.0413
2758	0.0513
2749	0.0726
2740	0.0989
2731	0.1348
2722	0.1526
2713	0.1648
2704	0.2381
2695	0.3521
2686	0.4669
2677	0.5439
2668	0.546
2659	0.569
2650	0.6152
2641	0.6543
2632	0.6524
2623	0.6497
2614	0.6508
2605	0.7028
2596	0.7662
2587	0.7906
2578	0.8091
2569	0.8314
2560	0.8468
2551	0.8521
2542	0.8554
2533	0.847
2524	0.8334
2515	0.8402
2506	0.8517
2497	0.8614
2488	0.8713
2479	0.8867
2470	0.9004
2461	0.9057
2452	0.9094
2443	0.9128
2434	0.9163
2425	0.919
2416	0.9213
2407	0.9223
2398	0.9231
2389	0.9233
2380	0.9232
2371	0.9204
2362	0.9132
2353	0.9131
2344	0.9191
2335	0.9274
2326	0.9339
2317	0.9393
2308	0.9446
2299	0.9494
2290	0.9542
2281	0.9583
2272	0.9536
2263	0.9175
2254	0.9094
2245	0.9123
2236	0.9297
2227	0.9421
2218	0.9457
2209	0.9418
2200	0.9388
2191	0.9368
2182	0.9383
2173	0.9425
2164	0.9498
2155	0.9573
2146	0.9624
2137	0.962
2128	0.9486
2119	0.937
2110	0.94
2101	0.9558
2092	0.9603
2083	0.9568
2074	0.9438
2065	0.9349
2056	0.9313
2047	0.9377
2038	0.943
2029	0.9484
2020	0.9543
2011	0.9617
2002	0.9653
1993	0.9621
1984	0.9432
1975	0.9401
1966	0.9552
1957	0.965
1948	0.9657
1939	0.9577
1930	0.9425
1921	0.9391
1912	0.9398
1903	0.9506
1894	0.9609
1885	0.9624
1876	0.953
1867	0.9468
1858	0.9449
1849	0.9462
1840	0.9564
1831	0.9652
1822	0.9593
1813	0.954
1804	0.9493
1795	0.9459
1786	0.9478
1777	0.9495
1768	0.9555
1759	0.9549
1750	0.9451
1741	0.9355
1732	0.9377
1723	0.9395
1714	0.9171
1705	0.9202
1696	0.8893
1687	0.8893
1678	0.8925
1669	0.888
1660	0.8945
1651	0.8941
1642	0.9051
1633	0.9121
1624	0.9193
1615	0.9211
1606	0.9261
1597	0.9256
1588	0.9315
1579	0.9212
1570	0.9265
1561	0.9089
1552	0.9147
1543	0.9064
1534	0.8968
1525	0.8751
1516	0.8285
1507	0.7919
1498	0.6998
1489	0.4886
1480	0.2168
1471	0.0562
1462	0.0459
1453	0.108
1444	0.3284
1435	0.5835
1426	0.6334
1417	0.7237
1408	0.746
1399	0.7108
1390	0.4726
1381	0.1039
1372	0.2612
1363	0.1408
1354	0.5436
1345	0.2534
1336	0.5743
1327	0.6386
1318	0.3268
1309	0.1764
1300	0.1532
1291	0.2046
1282	0.1569
1273	0.481
1264	0.5256
1255	0.6084
1246	0.2351
1237	0.4293
1228	0.7441
1219	0.7698
1210	0.7704
1201	0.7154
1192	0.2495
1183	0.2484
1174	0.0442
1165	0.0438
1156	0.3076
1147	0.6151
1138	0.6507
1129	0.317
1120	0.1641
1111	0.3166
1102	0.5589
1093	0.3589
1084	0.5184
1075	0.102
1066	0.2806
1057	0.3991
1048	0.5694
1039	0.1821
1030	0.7061
1021	0.8216
1012	0.8505
1003	0.8467
994	0.7456
985	0.2295
976	0.685
967	0.8106
958	0.8142
949	0.6501
940	0.7992
931	0.8511
922	0.8703
913	0.8001
904	0.614
895	0.82
886	0.604
877	0.6711
868	0.8373
859	0.8347
850	0.8084
841	0.7441
832	0.3743
823	0.0869
814	0.5812
805	0.7187
796	0.8359
787	0.8952
778	0.9062
769	0.8828
760	0.6373
751	0.4725
742	0.8431
733	0.9011
724	0.925
715	0.9362
706	0.9371
697	0.9281
688	0.9125
679	0.8943
670	0.8716
661	0.8606
652	0.8404
643	0.8147
634	0.7805
