Infrared Spectrum: 3,4-Dimethoxyphenethylamine
Formula: C 10 H 15 N O 2
CAS: 120-20-7
State: gas
Origin: EPA-IR VAPOR PHASE LIBRARY
1/CM	ABSORBANCE
549.8	0.003218
559.445	0.003348
569.09	0.003238
578.734	0.002828
588.379	0.003158
598.024	0.002798
607.669	0.002988
617.313	0.003718
626.958	0.004368
636.603	0.004338
646.248	0.004228
655.893	0.003748
665.537	0.003638
675.182	0.003818
684.827	0.004308
694.472	0.005218
704.116	0.006068
713.761	0.006378
723.406	0.008228
733.051	0.010848
742.695	0.013558
752.34	0.016598
761.985	0.018508
771.63	0.018248
781.275	0.018338
790.919	0.017398
800.564	0.016228
810.209	0.013808
819.854	0.010908
829.498	0.007228
839.143	0.005818
848.788	0.005358
858.433	0.005428
868.078	0.005198
877.722	0.005138
887.367	0.004528
897.012	0.003478
906.657	0.003488
916.301	0.003248
925.946	0.003608
935.591	0.003828
945.236	0.003388
954.88	0.003578
964.525	0.003898
974.17	0.004708
983.815	0.005538
993.46	0.007868
1003.1	0.011368
1012.75	0.019098
1022.39	0.030378
1032.04	0.036408
1041.68	0.030188
1051.33	0.017928
1060.97	0.013138
1070.62	0.011488
1080.26	0.008008
1089.91	0.005868
1099.55	0.006368
1109.2	0.010798
1118.84	0.018858
1128.49	0.024098
1138.13	0.023548
1147.78	0.022518
1157.42	0.019908
1167.07	0.013448
1176.71	0.010248
1186.36	0.009678
1196	0.010188
1205.64	0.012708
1215.29	0.020648
1224.93	0.032308
1234.58	0.036558
1244.22	0.034458
1253.87	0.039588
1263.51	0.058828
1273.16	0.070668
1282.8	0.053808
1292.45	0.032078
1302.09	0.020058
1311.74	0.013558
1321.38	0.010208
1331.03	0.009038
1340.67	0.008068
1350.32	0.007018
1359.96	0.006218
1369.61	0.005838
1379.25	0.006038
1388.9	0.006338
1398.54	0.008368
1408.18	0.014008
1417.83	0.015358
1427.47	0.011248
1437.12	0.013148
1446.76	0.015878
1456.41	0.016688
1466.05	0.018828
1475.7	0.017668
1485.34	0.018288
1494.99	0.034218
1504.63	0.066618
1514.28	0.064178
1523.92	0.027328
1533.57	0.011218
1543.21	0.007218
1552.86	0.006118
1562.5	0.006908
1572.15	0.009358
1581.79	0.011508
1591.44	0.010288
1601.08	0.009488
1610.73	0.009728
1620.37	0.008558
1630.01	0.006438
1639.66	0.004438
1649.3	0.003178
1658.95	0.002368
1668.59	0.002088
1678.24	0.001758
1687.88	0.001708
1697.53	0.001648
1707.17	0.001638
1716.82	0.001588
1726.46	0.001608
1736.11	0.001378
1745.75	0.001508
1755.4	0.001378
1765.04	0.001358
1774.69	0.001238
1784.33	0.0011544
1793.98	0.001298
1803.62	0.001218
1813.27	0.001228
1822.91	0.001338
1832.55	0.001318
1842.2	0.001438
1851.84	0.001418
1861.49	0.001508
1871.13	0.001388
1880.78	0.001288
1890.42	0.0010768
1900.07	0.0009592
1909.71	0.0009673
1919.36	0.0010152
1929	0.0009408
1938.65	0.0009631
1948.29	0.0011293
1957.94	0.0010731
1967.58	0.001198
1977.23	0.001228
1986.87	0.001308
1996.52	0.001438
2006.16	0.001578
2015.81	0.001938
2025.45	0.002098
2035.1	0.002028
2044.74	0.001768
2054.38	0.001738
2064.03	0.001518
2073.67	0.001478
2083.32	0.001168
2092.96	0.0010787
2102.61	0.0009069
2112.25	0.0007696
2121.9	0.0006387
2131.54	0.0007567
2141.19	0.0006865
2150.83	0.0007979
2160.48	0.0008182
2170.12	0.0007243
2179.77	0.0007674
2189.41	0.0007849
2199.06	0.0008509
2208.7	0.0007055
2218.35	0.000743
2227.99	0.0007785
2237.64	0.0006729
2247.28	0.0009621
2256.92	0.0009651
2266.57	0.000995
2276.21	0.0010287
2285.86	0.0010094
2295.5	0.0007742
2305.15	0.0007031
2314.79	0.0007136
2324.44	0.000667
2334.08	0.0006598
2343.73	0.0005989
2353.37	0.0006255
2363.02	0.0007206
2372.66	0.0007172
2382.31	0.0007854
2391.95	0.0006295
2401.6	0.0006249
2411.24	0.0005975
2420.89	0.0006801
2430.53	0.0006651
2440.18	0.0006569
2449.82	0.0008163
2459.47	0.0008157
2469.11	0.0007266
2478.75	0.0006264
2488.4	0.0006981
2498.04	0.0008019
2507.69	0.0008574
2517.33	0.0008921
2526.98	0.0009128
2536.62	0.0010942
2546.27	0.0010979
2555.91	0.001218
2565.56	0.001248
2575.2	0.0011115
2584.85	0.0011359
2594.49	0.0009987
2604.14	0.001065
2613.78	0.0010354
2623.43	0.0009364
2633.07	0.0009165
2642.72	0.0009869
2652.36	0.0011112
2662.01	0.0010533
2671.65	0.0010311
2681.29	0.0011493
2690.94	0.0011415
2700.58	0.001278
2710.23	0.001218
2719.87	0.001448
2729.52	0.001638
2739.16	0.001618
2748.81	0.001988
2758.45	0.001838
2768.1	0.001918
2777.74	0.002358
2787.39	0.002448
2797.03	0.003148
2806.68	0.004198
2816.32	0.006078
2825.97	0.010208
2835.61	0.017528
2845.26	0.021418
2854.9	0.019808
2864.55	0.017628
2874.19	0.015988
2883.84	0.015098
2893.48	0.015018
2903.12	0.018668
2912.77	0.025808
2922.41	0.031338
2932.06	0.036878
2941.7	0.043338
2951.35	0.036298
2960.99	0.025128
2970.64	0.017908
2980.28	0.014398
2989.93	0.015248
2999.57	0.019268
3009.22	0.017078
3018.86	0.010408
3028.51	0.009058
3038.15	0.009078
3047.8	0.008668
3057.44	0.007378
3067.09	0.005798
3076.73	0.004438
3086.38	0.003488
3096.02	0.002678
3105.67	0.002258
3115.31	0.001898
3124.95	0.001638
3134.6	0.001278
3144.24	0.001248
3153.89	0.0010828
3163.53	0.0007234
3173.18	0.0006002
3182.82	0.0006713
3192.47	0.0006148
3202.11	0.0006158
3211.76	0.0004232
3221.4	0.0005889
3231.05	0.0004276
3240.69	0.0003003
3250.34	0.00022694
3259.98	0.0004209
3269.63	0.0003941
3279.27	0.0003598
3288.92	0.0006085
3298.56	0.0004162
3308.21	0.0003791
3317.85	0.00025341
3327.49	0.0006443
3337.14	0.0005744
3346.78	0.0007221
3356.43	0.000635
3366.07	0.0005421
3375.72	0.0004629
3385.36	0.0003955
3395.01	0.000489
3404.65	0.0004169
3414.3	0.0005657
3423.94	0.000645
3433.59	0.0006034
3443.23	0.00024846
3452.88	0.0003875
3462.52	0.0003007
3472.17	0.000372
3481.81	0.0004011
3491.46	0.0003755
3501.1	0.0002637
3510.75	0
3520.39	0.00024289
3530.04	0.0002805
3539.68	0.0002601
3549.32	0.00014939
3558.97	0.000375
3568.61	0.0004096
3578.26	0.0002855
3587.9	0.0004887
3597.55	0.0002918
3607.19	0.000324
3616.84	0.0004967
3626.48	0.00022922
3636.13	0.00025091
3645.77	0.0003145
3655.42	0.0002105
3665.06	0.00017178
3674.71	0.00015318
3684.35	0.00017844
3694	0.0004429
3703.64	0.0003615
3713.29	0.00023963
3722.93	0.0002928
3732.58	0.000162709
3742.22	0.0003468
3751.86	0.0003389
3761.51	0.0005312
3771.15	0.000472
3780.8	0.0003544
3790.44	0.00025097
3800.09	0.0005579
3809.73	0.0004758
3819.38	0.0003063
3829.02	0.0004103
3838.67	0.0006743
3848.31	0.0003924
3857.96	0.000433
3867.6	0.00025734
3877.25	0.0005334
3886.89	0.0005824
3896.54	0.0003146
3906.18	0.0004214
3915.83	0.0004814
3925.47	0.0005882
3935.12	0.0003921
3944.76	0.0003315
3954.41	0.0003939
3964.05	0.0007545
3973.69	0.0006635
3983.34	0.0004401
3992.98	0.0006061
