Infrared Spectrum: Isobornyl formate
Formula: C 11 H 18 O 2
CAS: 1200-67-5
State: gas
Origin: EPA-IR VAPOR PHASE LIBRARY
1/CM	ABSORBANCE
501.5	0.0065
513.074	0.00331
524.648	0.00401
536.222	0.00205
547.796	0.0006056
559.37	0.0003522
570.944	0.00174
582.518	0.00328
594.092	0.00163
605.666	0.00226
617.24	0.00485
628.814	0.00393
640.388	0.00461
651.962	0.00555
663.536	0.00405
675.11	0.00235
686.684	0.00169
698.258	0.00255
709.832	0.00511
721.406	0.00416
732.98	0.00298
744.554	0.00418
756.128	0.00782
767.702	0.00742
779.276	0.00706
790.85	0.0107
802.423	0.01955
813.997	0.03215
825.571	0.05397
837.145	0.04757
848.719	0.02364
860.293	0.02621
871.867	0.03032
883.441	0.02362
895.015	0.01915
906.589	0.02795
918.163	0.03092
929.737	0.0503
941.311	0.07182
952.885	0.0921
964.459	0.12131
976.033	0.08531
987.607	0.07796
999.181	0.0893
1010.76	0.06601
1022.33	0.04641
1033.9	0.04983
1045.48	0.11378
1057.05	0.10561
1068.63	0.0625
1080.2	0.0621
1091.77	0.06941
1103.35	0.09672
1114.92	0.12857
1126.49	0.20922
1138.07	0.39748
1149.64	0.81195
1161.22	1.35817
1172.79	1.36071
1184.36	0.61428
1195.94	0.25341
1207.51	0.14603
1219.09	0.09381
1230.66	0.06722
1242.23	0.05607
1253.81	0.04449
1265.38	0.03641
1276.96	0.02892
1288.53	0.02753
1300.1	0.03536
1311.68	0.03792
1323.25	0.02682
1334.83	0.02166
1346.4	0.02703
1357.97	0.04999
1369.55	0.10505
1381.12	0.13153
1392.7	0.13708
1404.27	0.0822
1415.84	0.02865
1427.42	0.02901
1438.99	0.05521
1450.57	0.11932
1462.14	0.15569
1473.71	0.1292
1485.29	0.0984
1496.86	0.04548
1508.44	0.02014
1520.01	0.01368
1531.58	0.01178
1543.16	0.01186
1554.73	0.01187
1566.31	0.0116
1577.88	0.01033
1589.45	0.0091
1601.03	0.00842
1612.6	0.00855
1624.18	0.00923
1635.75	0.01153
1647.32	0.01562
1658.9	0.01893
1670.47	0.02213
1682.05	0.03061
1693.62	0.06306
1705.19	0.11646
1716.77	0.15423
1728.34	0.44849
1739.92	1.23645
1751.49	0.86522
1763.06	0.20925
1774.64	0.26583
1786.21	0.14926
1797.79	0.04489
1809.36	0.02394
1820.93	0.01742
1832.51	0.01713
1844.08	0.01276
1855.66	0.0079
1867.23	0.0064
1878.8	0.00607
1890.38	0.00546
1901.95	0.00595
1913.53	0.00699
1925.1	0.00659
1936.67	0.00559
1948.25	0.00589
1959.82	0.00725
1971.4	0.00886
1982.97	0.01116
1994.54	0.01355
2006.12	0.01165
2017.69	0.00808
2029.27	0.00677
2040.84	0.00572
2052.41	0.00426
2063.99	0.0034
2075.56	0.00336
2087.14	0.00382
2098.71	0.00455
2110.28	0.00452
2121.86	0.00422
2133.43	0.00413
2145.01	0.00407
2156.58	0.00413
2168.15	0.00396
2179.73	0.00366
2191.3	0.00354
2202.88	0.00372
2214.45	0.00396
2226.02	0.00416
2237.6	0.00465
2249.17	0.00551
2260.74	0.00667
2272.32	0.00841
2283.89	0.01067
2295.47	0.01456
2307.04	0.0208
2318.61	0.02601
2330.19	0.02201
2341.76	0.01361
2353.34	0.00918
2364.91	0.00761
2376.48	0.00556
2388.06	0.00393
2399.63	0.0034
2411.21	0.00307
2422.78	0.00268
2434.35	0.00239
2445.93	0.00218
2457.5	0.0022
2469.08	0.00245
2480.65	0.00268
2492.22	0.00309
2503.8	0.00325
2515.37	0.00275
2526.95	0.00291
2538.52	0.0036
2550.09	0.00382
2561.67	0.00377
2573.24	0.00423
2584.82	0.00426
2596.39	0.00369
2607.96	0.00366
2619.54	0.00368
2631.11	0.00373
2642.69	0.00386
2654.26	0.00409
2665.83	0.00455
2677.41	0.00552
2688.98	0.00666
2700.56	0.00825
2712.13	0.01241
2723.7	0.01927
2735.28	0.02246
2746.85	0.01925
2758.43	0.01516
2770	0.0147
2781.57	0.01599
2793.15	0.0162
2804.72	0.01658
2816.3	0.02009
2827.87	0.02694
2839.44	0.03638
2851.02	0.05473
2862.59	0.09743
2874.17	0.22446
2885.74	0.42844
2897.31	0.50057
2908.89	0.51174
2920.46	0.60831
2932.04	0.59777
2943.61	0.74777
2955.18	0.96377
2966.76	0.99849
2978.33	0.62944
2989.91	0.36105
3001.48	0.19767
3013.05	0.11496
3024.63	0.08632
3036.2	0.04247
3047.78	0.02673
3059.35	0.02216
3070.92	0.02072
3082.5	0.02099
3094.07	0.0221
3105.65	0.02552
3117.22	0.02585
3128.79	0.01895
3140.37	0.01553
3151.94	0.01386
3163.52	0.01229
3175.09	0.01061
3186.66	0.00876
3198.24	0.00707
3209.81	0.00592
3221.39	0.00523
3232.96	0.00442
3244.53	0.00362
3256.11	0.00299
3267.68	0.00266
3279.26	0.00243
3290.83	0.00218
3302.4	0.00186
3313.98	0.00175
3325.55	0.00171
3337.13	0.00194
3348.7	0.00224
3360.27	0.00238
3371.85	0.00227
3383.42	0.00237
3395	0.00275
3406.57	0.00292
3418.14	0.00345
3429.72	0.00416
3441.29	0.00492
3452.86	0.01042
3464.44	0.02142
3476.01	0.01401
3487.59	0.00447
3499.16	0.00311
3510.73	0.00235
3522.31	0.0025
3533.88	0.00335
3545.46	0.00241
3557.03	0.00167
3568.6	0.00155
3580.18	0.00125
3591.75	0.00113
3603.33	0.0009732
3614.9	0.0008063
3626.47	0.0007765
3638.05	0.000863
3649.62	0.0011
3661.2	0.00124
3672.77	0.00126
3684.34	0.00114
3695.92	0.00122
3707.49	0.00122
3719.07	0.00113
3730.64	0.00122
3742.21	0.00118
3753.79	0.00126
3765.36	0.00144
3776.94	0.00163
3788.51	0.00202
3800.08	0.00271
3811.66	0.00288
3823.23	0.0027
3834.81	0.0025
3846.38	0.00265
3857.95	0.00277
3869.53	0.00274
3881.1	0.00288
3892.68	0.00296
3904.25	0.00282
3915.82	0.00254
3927.4	0.00219
3938.97	0.00214
3950.55	0.0021
3962.12	0.00208
3973.69	0.00236
3985.27	0.00273
3996.84	0.00295
