Infrared Spectrum: 1,4,4a,8a-Tetrahydro-endo-1,4-methanonaphthalene-5,8-dione
Formula: C 11 H 10 O 2
CAS: 1200-89-1
State: gas
Origin: EPA-IR VAPOR PHASE LIBRARY
1/CM	ABSORBANCE
549.8	0
559.445	0.00027
569.09	0.000457
578.734	0.0006513
588.379	0.00076663
598.024	0.0012348
607.669	0.000495
617.313	0.000564
626.958	0.000576
636.603	0.000512
646.248	0.000199
655.893	0.000445
665.537	0.0006409
675.182	0.00076989
684.827	0.000476
694.472	0.000369
704.116	0.000399
713.761	0.0006196
723.406	0.0006871
733.051	0.000548
742.695	0.0008466
752.34	0.0013551
761.985	0.0016796
771.63	0.0010004
781.275	0.001071
790.919	0.0006195
800.564	0.0008624
810.209	0.0009571
819.854	0.0009792
829.498	0.0010859
839.143	0.0010016
848.788	0.0012896
858.433	0.002119
868.078	0.0016641
877.722	0.0011911
887.367	0.0016571
897.012	0.002299
906.657	0.002319
916.301	0.0014855
925.946	0.0010356
935.591	0.0009552
945.236	0.001262
954.88	0.001622
964.525	0.001949
974.17	0.002419
983.815	0.0014887
993.46	0.0010425
1003.1	0.0009437
1012.75	0.0010325
1022.39	0.0012494
1032.04	0.001989
1041.68	0.003229
1051.33	0.004029
1060.97	0.005029
1070.62	0.005289
1080.26	0.003209
1089.91	0.002319
1099.55	0.0012241
1109.2	0.0016598
1118.84	0.002449
1128.49	0.0015906
1138.13	0.0008796
1147.78	0.0008649
1157.42	0.000712521
1167.07	0.0011369
1176.71	0.002409
1186.36	0.003949
1196	0.002669
1205.64	0.002109
1215.29	0.002829
1224.93	0.003369
1234.58	0.002209
1244.22	0.0014051
1253.87	0.001869
1263.51	0.001949
1273.16	0.001819
1282.8	0.0015498
1292.45	0.0012798
1302.09	0.0011554
1311.74	0.00077596
1321.38	0.00078122
1331.03	0.000816
1340.67	0.00074608
1350.32	0.00073309
1359.96	0.00072649
1369.61	0.000712552
1379.25	0.00073853
1388.9	0.0007036
1398.54	0.00072668
1408.18	0.0006949
1417.83	0.00073079
1427.47	0.0007091
1437.12	0.0008621
1446.76	0.0012344
1456.41	0.0016708
1466.05	0.0012826
1475.7	0.000929
1485.34	0.00078015
1494.99	0.00073072
1504.63	0.0008174
1514.28	0.00075509
1523.92	0.00076959
1533.57	0.000713313
1543.21	0.0008109
1552.86	0.00075153
1562.5	0.0008445
1572.15	0.0008741
1581.79	0.0008172
1591.44	0.0008228
1601.08	0.0008125
1610.73	0.0009209
1620.37	0.0008816
1630.01	0.0010133
1639.66	0.0011287
1649.3	0.0011943
1658.95	0.0012915
1668.59	0.0015023
1678.24	0.0016097
1687.88	0.002019
1697.53	0.002379
1707.17	0.002989
1716.82	0.004469
1726.46	0.006059
1736.11	0.008269
1745.75	0.015769
1755.4	0.033389
1765.04	0.058189
1774.69	0.064279
1784.33	0.038319
1793.98	0.015269
1803.62	0.006229
1813.27	0.003309
1822.91	0.002069
1832.55	0.0015126
1842.2	0.0012034
1851.84	0.0011237
1861.49	0.0012068
1871.13	0.0011249
1880.78	0.0010694
1890.42	0.0009748
1900.07	0.000912
1909.71	0.0008892
1919.36	0.0009064
1929	0.000872
1938.65	0.0009483
1948.29	0.0008973
1957.94	0.0008307
1967.58	0.0009094
1977.23	0.0009081
1986.87	0.0009059
1996.52	0.0008709
2006.16	0.0008962
2015.81	0.0009429
2025.45	0.0009624
2035.1	0.0010093
2044.74	0.000979
2054.38	0.0009195
2064.03	0.00077527
2073.67	0.00080876
2083.32	0.00076556
2092.96	0.00078879
2102.61	0.00076248
2112.25	0.0008344
2121.9	0.0008156
2131.54	0.0008096
2141.19	0.0009232
2150.83	0.0008712
2160.48	0.0009119
2170.12	0.0009255
2179.77	0.0008925
2189.41	0.0008553
2199.06	0.0008774
2208.7	0.0009437
2218.35	0.0008398
2227.99	0.0008845
2237.64	0.0009239
2247.28	0.0009224
2256.92	0.000926
2266.57	0.00080028
2276.21	0.0008356
2285.86	0.00078832
2295.5	0.0007775
2305.15	0.0008523
2314.79	0.0008192
2324.44	0.00080805
2334.08	0.000916
2343.73	0.00080623
2353.37	0.00075863
2363.02	0.00072072
2372.66	0.00076056
2382.31	0.0008415
2391.95	0.00080528
2401.6	0.0007241
2411.24	0.000688
2420.89	0.00073039
2430.53	0.00076889
2440.18	0.0008363
2449.82	0.0008311
2459.47	0.00074529
2469.11	0.0006717
2478.75	0.000598
2488.4	0.000824
2498.04	0.00069929
2507.69	0.00071549
2517.33	0.0006785
2526.98	0.0007236
2536.62	0.00073192
2546.27	0.000716787
2555.91	0.0007517
2565.56	0.00079644
2575.2	0.0006813
2584.85	0.0006887
2594.49	0.000711588
2604.14	0.00072173
2613.78	0.00075643
2623.43	0.0006769
2633.07	0.000737
2642.72	0.00075365
2652.36	0.0006473
2662.01	0.000666
2671.65	0.0008342
2681.29	0.000564
2690.94	0.0006785
2700.58	0.00074969
2710.23	0.000711601
2719.87	0.0006203
2729.52	0.00073485
2739.16	0.00070635
2748.81	0.0006508
2758.45	0.00074348
2768.1	0.000571
2777.74	0.0006525
2787.39	0.000578
2797.03	0.0006372
2806.68	0.0006196
2816.32	0.000598
2825.97	0.0007499
2835.61	0.00079428
2845.26	0.0008757
2854.9	0.0009884
2864.55	0.001959
2874.19	0.003379
2883.84	0.002949
2893.48	0.001574
2903.12	0.0010713
2912.77	0.0009624
2922.41	0.0012877
2932.06	0.002559
2941.7	0.004629
2951.35	0.006359
2960.99	0.010149
2970.64	0.012299
2980.28	0.016629
2989.93	0.020189
2999.57	0.014519
3009.22	0.008759
3018.86	0.006119
3028.51	0.002659
3038.15	0.001222
3047.8	0.0009812
3057.44	0.0009136
3067.09	0.00077353
3076.73	0.00069
3086.38	0.0006899
3096.02	0.00070496
3105.67	0.0006782
3115.31	0.0008363
3124.95	0.00075998
3134.6	0.00078254
3144.24	0.00075273
3153.89	0.0006766
3163.53	0.00077254
3173.18	0.0006279
3182.82	0.000525
3192.47	0.00069909
3202.11	0.00071994
3211.76	0.0006336
3221.4	0.000854
3231.05	0.0009121
3240.69	0.000604
3250.34	0.0008519
3259.98	0.000557
3269.63	0.00079306
3279.27	0.00076853
3288.92	0.00072874
3298.56	0.0006752
3308.21	0.0008185
3317.85	0.0009299
3327.49	0.000815
3337.14	0.00073493
3346.78	0.00078781
3356.43	0.00078166
3366.07	0.0009413
3375.72	0.0006932
3385.36	0.0009187
3395.01	0.00075859
3404.65	0.0006914
3414.3	0.0008446
3423.94	0.0008848
3433.59	0.000905
3443.23	0.0008409
3452.88	0.0010172
3462.52	0.0008486
3472.17	0.0011464
3481.81	0.0012225
3491.46	0.0011309
3501.1	0.0014316
3510.75	0.0015325
3520.39	0.0016679
3530.04	0.0014032
3539.68	0.0012909
3549.32	0.0011763
3558.97	0.0010482
3568.61	0.0008634
3578.26	0.0008185
3587.9	0.0010094
3597.55	0.0010254
3607.19	0.0008123
3616.84	0.0008344
3626.48	0.0006536
3636.13	0.000592
3645.77	0.00080174
3655.42	0.00074599
3665.06	0.000887
3674.71	0.0008093
3684.35	0.0009205
3694	0.0008615
3703.64	0.00073482
3713.29	0.00078697
3722.93	0.0009981
3732.58	0.0008331
3742.22	0.00074944
3751.86	0.0009527
3761.51	0.0010057
3771.15	0.0010967
3780.8	0.00076582
3790.44	0.00074306
3800.09	0.0010685
3809.73	0.0010464
3819.38	0.000884
3829.02	0.0008249
3838.67	0.0010326
3848.31	0.00074131
3857.96	0.0009236
3867.6	0.0009346
3877.25	0.0008309
3886.89	0.0009239
3896.54	0.0009374
3906.18	0.0008845
3915.83	0.0010195
3925.47	0.0009744
3935.12	0.0009683
3944.76	0.00076765
3954.41	0.0008881
3964.05	0.0010138
3973.69	0.0009151
3983.34	0.00074777
3992.98	0.00074176
