Infrared Spectrum: ASBESTOS
CAS: 12001-28-4
State: SOLID (CsI PELLET)
Class: COBLENTZ
Instrument: Not specified, most likely a grating spectrometer.
Sampling: TRANSMISSION
Resolution: 4
Origin: DESOTO CHEMICAL COATINGS, INC.
1/CM	TRANSMITTANCE
200	0.937
210.62	0.941
221.239	0.952
231.859	0.949
242.478	0.898
253.098	0.924
263.717	0.912
274.337	0.908
284.956	0.909
295.576	0.857
306.195	0.804
316.815	0.749
327.434	0.784
338.054	0.817
348.673	0.794
359.293	0.769
369.912	0.6921
380.532	0.628
391.151	0.524
401.771	0.457
412.39	0.372
423.01	0.3741
433.629	0.2061
444.249	0.105
454.868	0.193
465.488	0.276
476.107	0.338
486.727	0.378
497.346	0.45
507.966	0.542
518.585	0.621
529.205	0.664
539.824	0.618
550.444	0.537
561.063	0.494
571.683	0.47
582.302	0.438
592.922	0.422
603.541	0.382
614.161	0.341
624.78	0.393
635.4	0.454
646.019	0.5299
656.639	0.562
667.258	0.609
677.878	0.668
688.497	0.726
699.117	0.758
709.736	0.796
720.356	0.818
730.975	0.824
741.595	0.838
752.214	0.857
762.834	0.861
773.454	0.878
784.073	0.88
794.693	0.894
805.312	0.9
815.932	0.904
826.551	0.91
837.171	0.913
847.79	0.913
858.41	0.912
869.029	0.912
879.649	0.908
890.268	0.901
900.888	0.88
911.507	0.846
922.127	0.764
932.746	0.594
943.366	0.35
953.985	0.193
964.605	0.172
975.224	0.21
985.844	0.274
996.463	0.318
1007.08	0.37
1017.7	0.362
1028.32	0.38
1038.94	0.469
1049.56	0.556
1060.18	0.542
1070.8	0.422
1081.42	0.366
1092.04	0.42
1102.66	0.518
1113.28	0.641
1123.9	0.762
1134.52	0.8
1145.14	0.822
1155.76	0.834
1166.38	0.849
1176.99	0.852
1187.61	0.862
1198.23	0.87
1208.85	0.862
1219.47	0.87
1230.09	0.878
1240.71	0.881
1251.33	0.881
1261.95	0.882
1272.57	0.882
1283.19	0.886
1293.81	0.888
1304.43	0.893
1315.05	0.892
1325.67	0.885
1336.29	0.888
1346.91	0.886
1357.53	0.884
1368.15	0.885
1378.77	0.878
1389.39	0.881
1400	0.88
1410.62	0.88
1421.24	0.877
1431.86	0.874
1442.48	0.874
1453.1	0.874
1463.72	0.874
1474.34	0.874
1484.96	0.877
1495.58	0.878
1506.2	0.88
1516.82	0.88
1527.44	0.878
1538.06	0.878
1548.68	0.876
1559.3	0.876
1569.92	0.876
1580.54	0.872
1591.16	0.865
1601.78	0.856
1612.39	0.842
1623.01	0.84
1633.63	0.844
1644.25	0.85
1654.87	0.857
1665.49	0.864
1676.11	0.866
1686.73	0.87
1697.35	0.873
1707.97	0.873
1718.59	0.876
1729.21	0.877
1739.83	0.877
1750.45	0.876
1761.07	0.88
1771.69	0.881
1782.31	0.88
1792.93	0.88
1803.55	0.877
1814.17	0.877
1824.78	0.877
1835.4	0.878
1846.02	0.88
1856.64	0.876
1867.26	0.878
1877.88	0.88
1888.5	0.878
1899.12	0.874
1909.74	0.877
1920.36	0.877
1930.98	0.876
1941.6	0.874
1952.22	0.872
1962.84	0.87
1973.46	0.877
1984.08	0.87
1994.7	0.877
2005.32	0.868
2015.94	0.869
2026.56	0.872
2037.18	0.876
2047.79	0.874
2058.41	0.873
2069.03	0.874
2079.65	0.8701
2090.27	0.869
2100.89	0.87
2111.51	0.865
2122.13	0.868
2132.75	0.87
2143.37	0.87
2153.99	0.869
2164.61	0.8659
2175.23	0.8612
2185.85	0.865
2196.47	0.864
2207.09	0.864
2217.71	0.8641
2228.33	0.8639
2238.95	0.858
2249.57	0.858
2260.18	0.8611
2270.8	0.8579
2281.42	0.857
2292.04	0.858
2302.66	0.8575
2313.28	0.8485
2323.9	0.8571
2334.52	0.857
2345.14	0.8542
2355.76	0.858
2366.38	0.8555
2377	0.853
2387.62	0.85
2398.24	0.8529
2408.86	0.8445
2419.48	0.8457
2430.1	0.842
2440.72	0.844
2451.34	0.84
2461.96	0.8378
2472.58	0.833
2483.19	0.8343
2493.81	0.833
2504.43	0.832
2515.05	0.833
2525.67	0.832
2536.29	0.8298
2546.91	0.828
2557.53	0.8298
2568.15	0.8288
2578.77	0.8276
2589.39	0.8258
2600.01	0.8252
2610.63	0.822
2621.25	0.824
2631.87	0.8196
2642.49	0.817
2653.11	0.8154
2663.73	0.8147
2674.35	0.8147
2684.97	0.814
2695.58	0.8095
2706.2	0.808
2716.82	0.808
2727.44	0.8075
2738.06	0.805
2748.68	0.805
2759.3	0.802
2769.92	0.8017
2780.54	0.8007
2791.16	0.797
2801.78	0.794
2812.4	0.794
2823.02	0.7967
2833.64	0.793
2844.26	0.793
2854.88	0.7914
2865.5	0.784
2876.12	0.782
2886.74	0.784
2897.36	0.7834
2907.97	0.78
2918.59	0.777
2929.21	0.7714
2939.83	0.766
2950.45	0.7686
2961.07	0.773
2971.69	0.769
2982.31	0.776
2992.93	0.769
3003.55	0.7767
3014.17	0.772
3024.79	0.769
3035.41	0.769
3046.03	0.7687
3056.65	0.7687
3067.27	0.764
3077.89	0.762
3088.51	0.7614
3099.13	0.761
3109.75	0.7576
3120.37	0.754
3130.98	0.752
3141.6	0.7525
3152.22	0.7469
3162.84	0.7468
3173.46	0.7472
3184.08	0.744
3194.7	0.741
3205.32	0.74
3215.94	0.7392
3226.56	0.7366
3237.18	0.7312
3247.8	0.73
3258.42	0.7286
3269.04	0.726
3279.66	0.724
3290.28	0.7197
3300.9	0.7151
3311.52	0.712
3322.14	0.7077
3332.76	0.701
3343.37	0.6957
3353.99	0.69
3364.61	0.6842
3375.23	0.677
3385.85	0.6711
3396.47	0.6671
3407.09	0.6596
3417.71	0.6471
3428.33	0.6415
3438.95	0.6365
3449.57	0.6325
3460.19	0.628
3470.81	0.626
3481.43	0.627
3492.05	0.629
3502.67	0.629
3513.29	0.63
3523.91	0.63
3534.53	0.632
3545.15	0.6335
3555.76	0.634
3566.38	0.636
3577	0.6386
3587.62	0.6415
3598.24	0.6445
3608.86	0.6471
3619.48	0.6506
3630.1	0.6495
3640.72	0.6301
3651.34	0.5745
3661.96	0.5631
3672.58	0.5729
3683.2	0.4531
3693.82	0.3109
3704.44	0.3209
3715.06	0.5353
3725.68	0.6395
3736.3	0.6616
3746.92	0.6712
3757.54	0.6752
3768.16	0.68
3778.77	0.6792
3789.39	0.678
3800.01	0.682
3810.63	0.6816
3821.25	0.6832
3831.87	0.6828
3842.49	0.681
3853.11	0.682
3863.73	0.684
3874.35	0.68
3884.97	0.678
3895.59	0.681
3906.21	0.681
3916.83	0.6774
3927.45	0.676
3938.07	0.6766
3948.69	0.6814
3959.31	0.678
3969.93	0.678
3980.55	0.6773
