Infrared Spectrum: 1-(4-Fluorophenyl)-2-methyl-2-propylamine
Formula: C 10 H 14 F N
CAS: 1200-27-7
State: gas
Origin: EPA-IR VAPOR PHASE LIBRARY
1/CM	ABSORBANCE
549.8	0.012219
559.445	0.022229
569.09	0.020929
578.734	0.012799
588.379	0.006339
598.024	0.005149
607.669	0.005639
617.313	0.005849
626.958	0.006609
636.603	0.006049
646.248	0.007069
655.893	0.007239
665.537	0.007999
675.182	0.009939
684.827	0.011739
694.472	0.015169
704.116	0.014289
713.761	0.013659
723.406	0.015509
733.051	0.019799
742.695	0.029179
752.34	0.039749
761.985	0.048399
771.63	0.064859
781.275	0.061239
790.919	0.056469
800.564	0.057819
810.209	0.060589
819.854	0.067449
829.498	0.071479
839.143	0.065169
848.788	0.054789
858.433	0.036869
868.078	0.017529
877.722	0.011649
887.367	0.009879
897.012	0.008719
906.657	0.008569
916.301	0.007889
925.946	0.007639
935.591	0.006389
945.236	0.005469
954.88	0.005829
964.525	0.005309
974.17	0.005919
983.815	0.005839
993.46	0.005749
1003.1	0.006439
1012.75	0.012749
1022.39	0.010119
1032.04	0.004199
1041.68	0.005329
1051.33	0.004589
1060.97	0.006299
1070.62	0.005809
1080.26	0.008639
1089.91	0.012199
1099.55	0.013549
1109.2	0.012639
1118.84	0.008509
1128.49	0.013559
1138.13	0.017469
1147.78	0.023259
1157.42	0.057999
1167.07	0.040269
1176.71	0.027719
1186.36	0.029009
1196	0.025329
1205.64	0.029519
1215.29	0.056919
1224.93	0.135259
1234.58	0.209779
1244.22	0.103839
1253.87	0.030969
1263.51	0.017609
1273.16	0.014149
1282.8	0.010799
1292.45	0.009249
1302.09	0.010149
1311.74	0.010579
1321.38	0.010189
1331.03	0.010409
1340.67	0.009229
1350.32	0.010339
1359.96	0.018689
1369.61	0.028609
1379.25	0.029589
1388.9	0.024099
1398.54	0.011609
1408.18	0.008809
1417.83	0.008909
1427.47	0.009929
1437.12	0.014189
1446.76	0.017429
1456.41	0.019649
1466.05	0.023839
1475.7	0.025349
1485.34	0.028439
1494.99	0.057719
1504.63	0.160439
1514.28	0.195249
1523.92	0.068829
1533.57	0.021909
1543.21	0.013549
1552.86	0.010879
1562.5	0.010549
1572.15	0.011729
1581.79	0.016249
1591.44	0.029139
1601.08	0.055669
1610.73	0.053129
1620.37	0.029879
1630.01	0.021619
1639.66	0.016229
1649.3	0.011379
1658.95	0.008369
1668.59	0.006039
1678.24	0.004759
1687.88	0.003779
1697.53	0.003349
1707.17	0.003179
1716.82	0.002979
1726.46	0.002879
1736.11	0.002779
1745.75	0.003109
1755.4	0.004119
1765.04	0.003699
1774.69	0.002529
1784.33	0.002129
1793.98	0.002319
1803.62	0.001839
1813.27	0.00159
1822.91	0.0017481
1832.55	0.0017524
1842.2	0.001989
1851.84	0.002449
1861.49	0.003219
1871.13	0.004849
1880.78	0.006099
1890.42	0.005809
1900.07	0.003329
1909.71	0.002109
1919.36	0.001869
1929	0.001999
1938.65	0.0017227
1948.29	0.001899
1957.94	0.0015043
1967.58	0.0016248
1977.23	0.001819
1986.87	0.002149
1996.52	0.002599
2006.16	0.002559
2015.81	0.002349
2025.45	0.001779
2035.1	0.002009
2044.74	0.001849
2054.38	0.001959
2064.03	0.001999
2073.67	0.001939
2083.32	0.001759
2092.96	0.001809
2102.61	0.0014372
2112.25	0.0016715
2121.9	0.001472
2131.54	0.0011334
2141.19	0.0012633
2150.83	0.0014979
2160.48	0.0015153
2170.12	0.0012357
2179.77	0.0012428
2189.41	0.0010793
2199.06	0.0010731
2208.7	0.0012337
2218.35	0.0010169
2227.99	0.0010527
2237.64	0.0009803
2247.28	0.0017344
2256.92	0.0015498
2266.57	0.001465
2276.21	0.0013483
2285.86	0.0015039
2295.5	0.0015506
2305.15	0.0014998
2314.79	0.0013862
2324.44	0.0015115
2334.08	0.0016951
2343.73	0.0012388
2353.37	0.001736
2363.02	0.0016775
2372.66	0.001919
2382.31	0.0017123
2391.95	0.002119
2401.6	0.0013144
2411.24	0.0012354
2420.89	0.0012603
2430.53	0.0015208
2440.18	0.001929
2449.82	0.002509
2459.47	0.002709
2469.11	0.002339
2478.75	0.001909
2488.4	0.0014116
2498.04	0.0013848
2507.69	0.0015629
2517.33	0.00131
2526.98	0.0013733
2536.62	0.0013412
2546.27	0.0012647
2555.91	0.001809
2565.56	0.001779
2575.2	0.002289
2584.85	0.002009
2594.49	0.002049
2604.14	0.0017051
2613.78	0.001705
2623.43	0.0016484
2633.07	0.0015527
2642.72	0.0012622
2652.36	0.0017281
2662.01	0.001919
2671.65	0.001939
2681.29	0.0014007
2690.94	0.0015682
2700.58	0.001879
2710.23	0.001999
2719.87	0.002699
2729.52	0.002389
2739.16	0.002779
2748.81	0.002539
2758.45	0.002339
2768.1	0.002659
2777.74	0.001899
2787.39	0.002359
2797.03	0.002889
2806.68	0.004129
2816.32	0.004369
2825.97	0.005949
2835.61	0.008669
2845.26	0.013659
2854.9	0.020559
2864.55	0.024939
2874.19	0.029749
2883.84	0.032409
2893.48	0.033309
2903.12	0.038459
2912.77	0.051309
2922.41	0.066889
2932.06	0.071239
2941.7	0.065649
2951.35	0.069299
2960.99	0.102159
2970.64	0.120209
2980.28	0.082769
2989.93	0.037199
2999.57	0.016099
3009.22	0.010729
3018.86	0.008849
3028.51	0.009679
3038.15	0.018969
3047.8	0.023289
3057.44	0.014169
3067.09	0.010199
3076.73	0.010079
3086.38	0.008059
3096.02	0.005859
3105.67	0.005819
3115.31	0.005719
3124.95	0.003949
3134.6	0.002869
3144.24	0.002499
3153.89	0.002289
3163.53	0.002009
3173.18	0.0016216
3182.82	0.002199
3192.47	0.002759
3202.11	0.002669
3211.76	0.002349
3221.4	0.002079
3231.05	0.001879
3240.69	0.0016218
3250.34	0.002029
3259.98	0.0015943
3269.63	0.0013523
3279.27	0.0016514
3288.92	0.0011428
3298.56	0.001779
3308.21	0.002249
3317.85	0.003139
3327.49	0.004059
3337.14	0.002759
3346.78	0.002089
3356.43	0.002079
3366.07	0.00085383
3375.72	0.001979
3385.36	0.0011202
3395.01	0.0013095
3404.65	0.0012113
3414.3	0.0006873
3423.94	0.0012888
3433.59	0.001593
3443.23	0.0007248
3452.88	0.0008788
3462.52	0.000651
3472.17	0.000133
3481.81	0.0010789
3491.46	0.0010887
3501.1	0.000644
3510.75	0.0015872
3520.39	0.0010896
3530.04	0.0013726
3539.68	0.00076986
3549.32	0.0013789
3558.97	0.000433
3568.61	0.0013589
3578.26	0.000389
3587.9	0.000452
3597.55	0.000585
3607.19	0.0007296
3616.84	0.000521
3626.48	0.0010374
3636.13	0.0009581
3645.77	0.0006946
3655.42	0.0010273
3665.06	0.00075107
3674.71	0.0011855
3684.35	0.0013457
3694	0.0010197
3703.64	0.0011769
3713.29	0.0011417
3722.93	0.000266
3732.58	0.000762168
3742.22	0.000761855
3751.86	0.000444
3761.51	0.001134
3771.15	0.0010105
3780.8	0.000564
3790.44	0.0012397
3800.09	0.0013552
3809.73	0.001759
3819.38	0.0015703
3829.02	0.0011929
3838.67	0.0012086
3848.31	0.0010853
3857.96	0.000305
3867.6	0.001089
3877.25	0.0008565
3886.89	0.000892
3896.54	0.0009594
3906.18	0.0010274
3915.83	0.0007719
3925.47	0.0008041
3935.12	0.0011603
3944.76	0.0009653
3954.41	0.0012411
3964.05	0.0015924
3973.69	0.001383
3983.34	0.0011584
3992.98	0.0008705
