Infrared Spectrum: BENZO[b]THIOPHENE-3-ETHYLAMINE, Alpha-METHYL-
Formula: C11 H13 N S
CAS: 1201-27-0
State: LIQUID (NEAT)
Class: COBLENTZ III
Instrument: PERKIN-ELMER 21 (GRATING)
Instrument parameters: NaCl PRISM
Sampling: TRANSMISSION
Path length: CAPILLARY
Resolution: 2
Origin: SMITH KLINE & FRENCH LABS.
MICROMETERS	TRANSMITTANCE
2.025	0.969
2.0593	0.974
2.0936	0.978
2.1279	0.981
2.1622	0.984
2.1965	0.98
2.2308	0.974
2.2651	0.976
2.2994	0.973
2.3337	0.967
2.368	0.959
2.4023	0.957
2.4366	0.952
2.4709	0.952
2.5052	0.954
2.5395	0.959
2.5738	0.965
2.6081	0.968
2.6424	0.967
2.6767	0.978
2.711	0.981
2.7453	0.98
2.7796	0.98
2.8139	0.978
2.8482	0.974
2.8825	0.957
2.9168	0.945
2.9511	0.876
2.9854	0.83
3.0197	0.836
3.054	0.831
3.0883	0.846
3.1226	0.864
3.1569	0.863
3.1912	0.868
3.2255	0.853
3.2598	0.73
3.2941	0.721
3.3284	0.774
3.3627	0.689
3.397	0.462
3.4313	0.464
3.4656	0.489
3.4999	0.567
3.5342	0.631
3.5685	0.768
3.6028	0.878
3.6371	0.912
3.6714	0.918
3.7057	0.924
3.74	0.931
3.7743	0.929
3.8086	0.931
3.8429	0.942
3.8772	0.948
3.9115	0.954
3.9458	0.957
3.9801	0.958
4.0144	0.96
4.0487	0.971
4.083	0.973
4.1173	0.97
4.1516	0.971
4.1859	0.971
4.2202	0.967
4.2545	0.968
4.2888	0.958
4.3231	0.959
4.3574	0.962
4.3917	0.958
4.426	0.965
4.4603	0.975
4.4946	0.97
4.5289	0.959
4.5632	0.973
4.5975	0.964
4.6318	0.973
4.6661	0.973
4.7004	0.971
4.7347	0.971
4.769	0.973
4.8033	0.975
4.8376	0.974
4.8719	0.973
4.9062	0.971
4.9405	0.964
4.9748	0.958
5.0091	0.954
5.0434	0.964
5.0777	0.958
5.112	0.94
5.1463	0.909
5.1806	0.924
5.2149	0.931
5.2492	0.907
5.2835	0.93
5.3178	0.936
5.3521	0.94
5.3864	0.948
5.4207	0.948
5.455	0.943
5.4893	0.932
5.5236	0.94
5.5579	0.935
5.5922	0.912
5.6265	0.93
5.6608	0.946
5.6951	0.951
5.7294	0.95
5.7637	0.943
5.798	0.934
5.8323	0.925
5.8666	0.915
5.9009	0.902
5.9352	0.897
5.9695	0.88
6.0038	0.804
6.0381	0.815
6.0724	0.826
6.1067	0.797
6.141	0.774
6.1753	0.746
6.2096	0.717
6.2439	0.687
6.2782	0.658
6.3125	0.64
6.3468	0.652
6.3811	0.659
6.4154	0.669
6.4497	0.685
6.484	0.736
6.5183	0.784
6.5526	0.771
6.5869	0.774
6.6212	0.806
6.6555	0.857
6.6898	0.863
6.7241	0.864
6.7584	0.851
6.7927	0.784
6.827	0.551
6.8613	0.46
6.8956	0.534
6.9299	0.562
6.9642	0.467
6.9985	0.25
7.0328	0.56
7.0671	0.781
7.1014	0.817
7.1357	0.807
7.17	0.765
7.2043	0.686
7.2386	0.597
7.2729	0.565
7.3072	0.546
7.3415	0.541
7.3758	0.619
7.4101	0.71
7.4444	0.662
7.4787	0.693
7.513	0.773
7.5473	0.823
7.5816	0.792
7.6159	0.8
7.6502	0.871
7.6845	0.884
7.7188	0.887
7.7531	0.864
7.7874	0.839
7.8217	0.814
7.856	0.82
7.8903	0.787
7.9246	0.686
7.9589	0.68
7.9932	0.735
8.0275	0.779
8.0618	0.809
8.0961	0.825
8.1304	0.845
8.1647	0.868
8.199	0.87
8.2333	0.87
8.2676	0.868
8.3019	0.858
8.3362	0.826
8.3705	0.812
8.4048	0.815
8.4391	0.818
8.4734	0.826
8.5077	0.817
8.542	0.8
8.5763	0.781
8.6106	0.739
8.6449	0.691
8.6792	0.708
8.7135	0.731
8.7478	0.735
8.7821	0.692
8.8164	0.66
8.8507	0.676
8.885	0.714
8.9193	0.765
8.9536	0.759
8.9879	0.742
9.0222	0.706
9.0565	0.712
9.0908	0.701
9.1251	0.562
9.1594	0.552
9.1937	0.546
9.228	0.575
9.2623	0.624
9.2966	0.669
9.3309	0.684
9.3652	0.725
9.3995	0.789
9.4338	0.807
9.4681	0.818
9.5024	0.834
9.5367	0.843
9.571	0.821
9.6053	0.759
9.6396	0.726
9.6739	0.736
9.7082	0.786
9.7425	0.781
9.7768	0.626
9.8111	0.564
9.8454	0.682
9.8797	0.784
9.914	0.813
9.9483	0.835
9.9826	0.85
10.0169	0.869
10.0512	0.871
10.0855	0.871
10.1198	0.871
10.1541	0.869
10.1884	0.867
10.2227	0.862
10.257	0.846
10.2913	0.828
10.3256	0.815
10.3599	0.821
10.3942	0.817
10.4285	0.804
10.4628	0.8
10.4971	0.79
10.5314	0.782
10.5657	0.775
10.6	0.768
10.6343	0.752
10.6686	0.748
10.7029	0.736
10.7372	0.745
10.7715	0.759
10.8058	0.748
10.8401	0.734
10.8744	0.725
10.9087	0.696
10.943	0.662
10.9773	0.647
11.0116	0.643
11.0459	0.643
11.0802	0.645
11.1145	0.64
11.1488	0.636
11.1831	0.634
11.2174	0.63
11.2517	0.619
11.286	0.595
11.3203	0.576
11.3546	0.551
11.3889	0.524
11.4232	0.504
11.4575	0.49
11.4918	0.456
11.5261	0.442
11.5604	0.43
11.5947	0.418
11.629	0.406
11.6633	0.387
11.6976	0.375
11.7319	0.365
11.7662	0.36
11.8005	0.375
11.8348	0.404
11.8691	0.439
11.9034	0.463
11.9377	0.456
11.972	0.408
12.0063	0.37
12.0406	0.334
12.0749	0.321
12.1092	0.31
12.1435	0.326
12.1778	0.324
12.2121	0.343
12.2464	0.36
12.2807	0.397
12.315	0.425
12.3493	0.45
12.3836	0.468
12.4179	0.478
12.4522	0.498
12.4865	0.504
12.5208	0.507
12.5551	0.523
12.5894	0.526
12.6237	0.526
12.658	0.521
12.6923	0.512
12.7266	0.482
12.7609	0.453
12.7952	0.407
12.8295	0.373
12.8638	0.354
12.8981	0.315
12.9324	0.257
12.9667	0.215
13.001	0.186
13.0353	0.114
13.0696	0.103
13.1039	0.119
13.1382	0.132
13.1725	0.157
13.2068	0.15
13.2411	0.123
13.2754	0.178
13.3097	0.246
13.344	0.378
13.3783	0.492
13.4126	0.591
13.4469	0.637
13.4812	0.637
13.5155	0.589
13.5498	0.448
13.5841	0.253
13.6184	0.165
13.6527	0.095
13.687	0.091
13.7213	0.095
13.7556	0.123
13.7899	0.225
13.8242	0.382
13.8585	0.534
13.8928	0.634
13.9271	0.676
13.9614	0.702
13.9957	0.726
14.03	0.718
14.0643	0.7
14.0986	0.679
14.1329	0.663
14.1672	0.641
14.2015	0.612
14.2358	0.62
14.2701	0.685
14.3044	0.734
14.3387	0.762
14.373	0.774
14.4073	0.779
14.4416	0.782
14.4759	0.786
14.5102	0.786
14.5445	0.786
14.5788	0.785
14.6131	0.782
14.6474	0.782
14.6817	0.78
14.716	0.776
14.7503	0.774
14.7846	0.769
14.8189	0.764
14.8532	0.759
14.8875	0.756
14.9218	0.753
14.9561	0.753
14.9904	0.754
15.0247	0.754
15.059	0.754
15.0933	0.754
