Infrared Spectrum: 2,2'-Dipyridylamine
Formula: C 10 H 9 N 3
CAS: 1202-34-2
State: gas
Instrument: HP-GC/MS/IRD
Origin: NIST Mass Spectrometry Data Center
1/CM	ABSORBANCE
550	0.006636
562	0.0016296
574	0.0016968
586	0.0021084
598	0.0023604
610	0.0015036
622	0.0015036
634	0.0014532
646	0.0009156
658	0.0005124
670	0.000714
682	0.0007056
694	0.0007728
706	0.0011508
718	0.0024528
730	0.005502
742	0.0053676
754	0.0074592
766	0.0135072
778	0.0095928
790	0.0031752
802	0.0014952
814	0.0010668
826	0.0005544
838	0.00042
850	0.0003444
862	0.0002184
874	0.0002436
886	0.0002352
898	0.0007812
910	0.0010416
922	0.0003696
934	0.0002436
946	0.0004452
958	0.0005292
970	0.0007644
982	0.0027132
994	0.0036708
1006	0.0008568
1018	0.000378
1030	0.00063
1042	0.0012012
1054	0.001344
1066	0.0006468
1078	0.0004452
1090	0.0006132
1102	0.000672
1114	0.0006216
1126	0.0010332
1138	0.0049476
1150	0.0076608
1162	0.0016212
1174	0.0009072
1186	0.0009324
1198	0.001176
1210	0.0023436
1222	0.0042924
1234	0.0028728
1246	0.002268
1258	0.0020496
1270	0.0028056
1282	0.0035532
1294	0.0061068
1306	0.0223524
1318	0.0285012
1330	0.0187068
1342	0.008946
1354	0.003864
1366	0.0028056
1378	0.0019908
1390	0.0019488
1402	0.0030576
1414	0.0067284
1426	0.0243012
1438	0.084
1450	0.03297
1462	0.0138684
1474	0.017388
1486	0.02268
1498	0.0300804
1510	0.0639324
1522	0.0353388
1534	0.008526
1546	0.0077028
1558	0.012432
1570	0.029694
1582	0.043848
1594	0.0539364
1606	0.0297948
1618	0.009576
1630	0.004494
1642	0.0032928
1654	0.0019656
1666	0.0018228
1678	0.0011592
1690	0.0007644
1702	0.0001596
1714	0.0004284
1726	0.0006804
1738	0.0003696
1750	0.0006216
1762	0.0007056
1774	0.0003864
1786	0.00063
1798	0.000672
1810	0.0008232
1822	0.0011172
1834	0.001008
1846	0.000756
1858	0.000588
1870	0.0003612
1882	0.0005544
1894	0.0008988
1906	0.0010416
1918	0.000756
1930	0.0008484
1942	0.0007728
1954	0.0006468
1966	0.000378
1978	0.0002604
1990	0.000168
2002	0.0001344
2014	0.0001344
2026	0.000168
2038	0.00021
2050	0.0001764
2062	0.000168
2074	0.0001428
2086	0.000168
2098	0.0001596
2110	0.0001764
2122	0.00021
2134	0.0003192
2146	0.00042
2158	0.0003612
2170	0.0002688
2182	0.0002184
2194	0.0001932
2206	0.0001344
2218	0.000126
2230	0.0002016
2242	0.0002184
2254	0.0002268
2266	0.0003108
2278	0.000294
2290	0.000294
2302	0.0004032
2314	0.0005124
2326	0.0005628
2338	0.0005544
2350	0.0004872
2362	0.0005292
2374	0.0004704
2386	0.0003948
2398	0.000336
2410	0.000294
2422	0.0003024
2434	0.0002604
2446	0.0003024
2458	0.0003444
2470	0.0003024
2482	0.0003864
2494	0.0004368
2506	0.0003948
2518	0.000336
2530	0.000336
2542	0.0003276
2554	0.0004536
2566	0.0004284
2578	0.000378
2590	0.0002856
2602	0.0002352
2614	0.0001932
2626	0.0001512
2638	0.0001512
2650	0.000126
2662	0.0001344
2674	0.000168
2686	0.000126
2698	0.0001344
2710	0.0001764
2722	0.000252
2734	0.0002016
2746	0.0002436
2758	0.0002604
2770	0.00021
2782	0.000294
2794	0.0002604
2806	0.000252
2818	0.000252
2830	0.0001764
2842	0.000252
2854	0.0003276
2866	0.0002688
2878	0.0002604
2890	0.0002856
2902	0.000378
2914	0.0003696
2926	0.0004368
2938	0.0003864
2950	0.0003948
2962	0.0004956
2974	0.0006216
2986	0.0009408
2998	0.0015624
3010	0.0026796
3022	0.0042924
3034	0.0043344
3046	0.0039816
3058	0.005754
3070	0.0067116
3082	0.0061152
3094	0.0041916
3106	0.0017976
3118	0.0010416
3130	0.0009156
3142	0.0007812
3154	0.0006972
3166	0.0006972
3178	0.0007308
3190	0.0006552
3202	0.0005964
3214	0.0004704
3226	0.0004368
3238	0.0004872
3250	0.000462
3262	0.0004536
3274	0.0003696
3286	0.0004284
3298	0.0004284
3310	0.0004536
3322	0.0004704
3334	0.0004788
3346	0.000504
3358	0.0005796
3370	0.0005796
3382	0.0006384
3394	0.000882
3406	0.0014952
3418	0.002898
3430	0.0045696
3442	0.0045612
3454	0.002352
3466	0.0010164
3478	0.0007728
3490	0.0006972
3502	0.0007392
3514	0.0006636
3526	0.0006804
3538	0.000672
3550	0.0006468
3562	0.0006804
3574	0.0006216
3586	0.0006552
3598	0.0006384
3610	0.0005796
3622	0.0005796
3634	0.000504
3646	0.0004284
3658	0.000588
3670	0.0003024
3682	0.0006384
3694	0.000588
3706	0.0006384
3718	0.000714
3730	0.0004872
3742	0.00021
3754	0.0002184
3766	0.00063
3778	0.000714
3790	0.0007728
3802	0.0002604
3814	0.0004284
3826	0.0005796
3838	0.0002436
