Infrared Spectrum: N-(p-HYDROXYPHENETHYL) ACETAMIDE
Formula: C10 H13 N O2
CAS: 1202-66-0
State: SOLID (1.5 mg / 100 mg KBr PELLET)
Class: COBLENTZ
Instrument: Not specified, most likely a grating spectrometer.
Sampling: TRANSMISSION
Resolution: 4
Origin: CITRUS EXPERIMENT STATION, UNIVERSITY OF FLORIDA (G. EDWARDS)
MICROMETERS	TRANSMITTANCE
2.018	0.822
2.05423	0.822
2.09046	0.825
2.12669	0.824
2.16292	0.822
2.19915	0.822
2.23538	0.822
2.27161	0.822
2.30784	0.822
2.34407	0.822
2.3803	0.822
2.41653	0.821
2.45276	0.821
2.48899	0.821
2.52522	0.82
2.56145	0.819
2.59768	0.816
2.63391	0.813
2.67014	0.812
2.70637	0.808
2.7426	0.807
2.77883	0.804
2.81506	0.802
2.85129	0.8
2.88752	0.793
2.92375	0.766
2.95998	0.709
2.99621	0.665
3.03244	0.693
3.06867	0.781
3.1049	0.789
3.14113	0.793
3.17736	0.784
3.21359	0.767
3.24982	0.768
3.28605	0.777
3.32228	0.784
3.35851	0.798
3.39474	0.818
3.43097	0.803
3.4672	0.814
3.50343	0.81
3.53966	0.813
3.57589	0.814
3.61212	0.814
3.64835	0.815
3.68458	0.816
3.72081	0.818
3.75704	0.818
3.79327	0.818
3.8295	0.816
3.86573	0.816
3.90196	0.815
3.93819	0.815
3.97442	0.815
4.01065	0.814
4.04688	0.814
4.08311	0.813
4.11934	0.813
4.15557	0.814
4.1918	0.812
4.22803	0.81
4.26426	0.813
4.30049	0.814
4.33672	0.814
4.37295	0.814
4.40918	0.814
4.44541	0.81
4.48164	0.809
4.51787	0.809
4.5541	0.808
4.59033	0.808
4.62656	0.806
4.66279	0.804
4.69902	0.802
4.73525	0.803
4.77148	0.803
4.80771	0.801
4.84394	0.802
4.88017	0.802
4.9164	0.802
4.95263	0.802
4.98886	0.801
5.0251	0.801
5.06133	0.801
5.09756	0.802
5.13379	0.801
5.17002	0.797
5.20625	0.798
5.24248	0.8
5.27871	0.801
5.31494	0.798
5.35117	0.793
5.3874	0.785
5.42363	0.779
5.45986	0.771
5.49609	0.759
5.53232	0.733
5.56855	0.7
5.60478	0.577
5.64101	0.479
5.67724	0.492
5.71347	0.677
5.7497	0.68
5.78593	0.624
5.82216	0.502
5.85839	0.416
5.89462	0.439
5.93085	0.589
5.96708	0.61
6.00331	0.569
6.03954	0.489
6.07577	0.492
6.112	0.63
6.14823	0.712
6.18446	0.727
6.22069	0.733
6.25692	0.737
6.29315	0.731
6.32938	0.671
6.36561	0.639
6.40184	0.634
6.43807	0.631
6.4743	0.637
6.51053	0.632
6.54676	0.598
6.58299	0.593
6.61922	0.639
6.65545	0.698
6.69168	0.722
6.72791	0.727
6.76414	0.716
6.80037	0.709
6.8366	0.696
6.87283	0.69
6.90906	0.663
6.94529	0.62
6.98152	0.609
7.01775	0.625
7.05398	0.66
7.09021	0.693
7.12644	0.686
7.16267	0.653
7.1989	0.545
7.23513	0.474
7.27136	0.384
7.30759	0.467
7.34382	0.625
7.38005	0.621
7.41628	0.602
7.45251	0.643
7.48874	0.696
7.52497	0.712
7.5612	0.701
7.59743	0.71
7.63366	0.709
7.66989	0.69
7.70612	0.677
7.74235	0.66
7.77858	0.62
7.81481	0.53
7.85104	0.491
7.88727	0.443
7.9235	0.375
7.95973	0.469
7.99596	0.532
8.03219	0.473
8.06842	0.342
8.10465	0.267
8.14088	0.314
8.17711	0.395
8.21334	0.327
8.24957	0.334
8.2858	0.461
8.32203	0.454
8.35826	0.33
8.39449	0.206
8.43072	0.293
8.46695	0.348
8.50318	0.408
8.53941	0.437
8.57564	0.485
8.61187	0.625
8.6481	0.681
8.68433	0.712
8.72056	0.724
8.75679	0.725
8.79302	0.725
8.82925	0.731
8.86548	0.74
8.90171	0.743
8.93794	0.74
8.97417	0.734
9.0104	0.724
9.04663	0.724
9.08286	0.733
9.11909	0.744
9.15532	0.745
9.19155	0.748
9.22778	0.751
9.26401	0.755
9.30024	0.754
9.33647	0.751
9.3727	0.745
9.40893	0.736
9.44516	0.715
9.48139	0.719
9.51762	0.709
9.55385	0.685
9.59008	0.691
9.62631	0.701
9.66254	0.687
9.69877	0.69
9.735	0.686
9.77123	0.663
9.80746	0.628
9.84369	0.624
9.87992	0.65
9.91615	0.679
9.95238	0.684
9.98861	0.657
10.0248	0.625
10.0611	0.68
10.0973	0.719
10.1335	0.718
10.1698	0.691
10.206	0.601
10.2422	0.602
10.2785	0.681
10.3147	0.726
10.3509	0.739
10.3871	0.733
10.4234	0.731
10.4596	0.738
10.4958	0.744
10.5321	0.742
10.5683	0.742
10.6045	0.754
10.6408	0.762
10.677	0.763
10.7132	0.762
10.7494	0.753
10.7857	0.739
10.8219	0.708
10.8581	0.669
10.8944	0.631
10.9306	0.612
10.9668	0.598
11.0031	0.607
11.0393	0.662
11.0755	0.715
11.1117	0.742
11.148	0.754
11.1842	0.759
11.2204	0.761
11.2567	0.763
11.2929	0.765
11.3291	0.763
11.3654	0.761
11.4016	0.756
11.4378	0.751
11.474	0.742
11.5103	0.722
11.5465	0.693
11.5827	0.669
11.619	0.669
11.6552	0.671
11.6914	0.683
11.7277	0.702
11.7639	0.708
11.8001	0.716
11.8363	0.72
11.8726	0.721
11.9088	0.73
11.945	0.732
11.9813	0.74
12.0175	0.742
12.0537	0.742
12.09	0.739
12.1262	0.734
12.1624	0.722
12.1986	0.719
12.2349	0.724
12.2711	0.737
12.3073	0.743
12.3436	0.745
12.3798	0.743
12.416	0.737
12.4523	0.734
12.4885	0.734
12.5247	0.74
12.5609	0.746
12.5972	0.748
12.6334	0.746
12.6696	0.746
12.7059	0.744
12.7421	0.742
12.7783	0.739
12.8146	0.738
12.8508	0.734
12.887	0.731
12.9232	0.724
12.9595	0.714
12.9957	0.707
13.0319	0.703
13.0682	0.704
13.1044	0.713
13.1406	0.721
13.1769	0.721
13.2131	0.722
13.2493	0.722
13.2855	0.721
13.3218	0.72
13.358	0.719
13.3942	0.714
13.4305	0.712
13.4667	0.707
13.5029	0.704
13.5392	0.701
13.5754	0.696
13.6116	0.691
13.6478	0.686
13.6841	0.683
13.7203	0.679
13.7565	0.675
13.7928	0.671
13.829	0.666
13.8652	0.663
13.9015	0.665
13.9377	0.662
13.9739	0.661
14.0102	0.66
14.0464	0.656
14.0826	0.654
14.1188	0.651
14.1551	0.65
14.1913	0.649
14.2275	0.646
14.2638	0.64
14.3	0.631
14.3362	0.625
14.3725	0.619
14.4087	0.615
14.4449	0.612
14.4811	0.609
14.5174	0.609
14.5536	0.606
14.5898	0.6
14.6261	0.598
14.6623	0.597
14.6985	0.592
14.7348	0.591
14.771	0.586
14.8072	0.583
14.8434	0.58
14.8797	0.579
14.9159	0.58
14.9521	0.591
14.9884	0.598
