Infrared Spectrum: 2-Amino-N-t-butylbenzamide
Formula: C 11 H 16 N 2 O
CAS: 1203-89-0
State: gas
Origin: EPA-IR VAPOR PHASE LIBRARY
1/CM	ABSORBANCE
551.7	0.0108
563.274	0.01049
574.848	0.00957
586.421	0.0094
597.995	0.00917
609.569	0.00894
621.143	0.00858
632.717	0.0085
644.291	0.00887
655.864	0.0123
667.438	0.01627
679.012	0.01046
690.586	0.01098
702.16	0.01371
713.734	0.0116
725.307	0.01343
736.881	0.02714
748.455	0.02662
760.029	0.01355
771.603	0.00876
783.177	0.00745
794.75	0.00706
806.324	0.00692
817.898	0.00713
829.472	0.00746
841.046	0.00827
852.619	0.00849
864.193	0.00888
875.767	0.01143
887.341	0.01091
898.915	0.00911
910.489	0.00842
922.062	0.00691
933.636	0.00643
945.21	0.00647
956.784	0.00639
968.358	0.00605
979.932	0.00586
991.505	0.00562
1003.08	0.00545
1014.65	0.00534
1026.23	0.00587
1037.8	0.00639
1049.37	0.00589
1060.95	0.00519
1072.52	0.00463
1084.1	0.0045
1095.67	0.00474
1107.24	0.00589
1118.82	0.0084
1130.39	0.00972
1141.97	0.00936
1153.54	0.0192
1165.11	0.01904
1176.69	0.01033
1188.26	0.01306
1199.83	0.0216
1211.41	0.03416
1222.98	0.03509
1234.56	0.0296
1246.13	0.02958
1257.7	0.04606
1269.28	0.03891
1280.85	0.04009
1292.42	0.03576
1304	0.02182
1315.57	0.02022
1327.15	0.01334
1338.72	0.00827
1350.29	0.00903
1361.87	0.01722
1373.44	0.02125
1385.02	0.01525
1396.59	0.02264
1408.16	0.01174
1419.74	0.01001
1431.31	0.01376
1442.88	0.02729
1454.46	0.04623
1466.03	0.04232
1477.61	0.05353
1489.18	0.07609
1500.75	0.09767
1512.33	0.0873
1523.9	0.04581
1535.48	0.02499
1547.05	0.02108
1558.62	0.02275
1570.2	0.02392
1581.77	0.03343
1593.34	0.04479
1604.92	0.0492
1616.49	0.05579
1628.07	0.03437
1639.64	0.02005
1651.21	0.02066
1662.79	0.03948
1674.36	0.07149
1685.93	0.05359
1697.51	0.02454
1709.08	0.01265
1720.66	0.00812
1732.23	0.006
1743.8	0.00463
1755.38	0.00402
1766.95	0.00409
1778.53	0.00392
1790.1	0.00329
1801.67	0.00302
1813.25	0.00275
1824.82	0.00251
1836.39	0.00234
1847.97	0.00238
1859.54	0.00238
1871.12	0.00234
1882.69	0.00247
1894.26	0.00259
1905.84	0.0024
1917.41	0.00276
1928.99	0.00248
1940.56	0.00182
1952.13	0.0017
1963.71	0.00167
1975.28	0.00162
1986.85	0.00157
1998.43	0.00148
2010	0.00142
2021.58	0.00143
2033.15	0.00142
2044.72	0.00138
2056.3	0.00132
2067.87	0.00124
2079.44	0.0012
2091.02	0.00117
2102.59	0.00116
2114.17	0.00124
2125.74	0.00129
2137.31	0.00133
2148.89	0.00128
2160.46	0.00121
2172.04	0.00119
2183.61	0.00117
2195.18	0.00112
2206.76	0.00109
2218.33	0.00109
2229.9	0.0011
2241.48	0.00107
2253.05	0.00109
2264.63	0.0011
2276.2	0.00117
2287.77	0.00117
2299.35	0.00116
2310.92	0.00118
2322.5	0.00126
2334.07	0.00123
2345.64	0.00124
2357.22	0.00122
2368.79	0.00124
2380.36	0.00129
2391.94	0.00132
2403.51	0.00134
2415.09	0.00132
2426.66	0.00126
2438.23	0.00118
2449.81	0.00109
2461.38	0.00102
2472.96	0.00105
2484.53	0.00106
2496.1	0.00104
2507.68	0.00103
2519.25	0.00101
2530.82	0.00106
2542.4	0.00109
2553.97	0.00114
2565.55	0.00116
2577.12	0.00125
2588.69	0.0013
2600.27	0.00128
2611.84	0.00134
2623.41	0.00138
2634.99	0.00154
2646.56	0.00152
2658.14	0.00138
2669.71	0.0013
2681.28	0.00129
2692.86	0.00131
2704.43	0.00143
2716.01	0.00158
2727.58	0.00175
2739.15	0.00165
2750.73	0.00166
2762.3	0.00175
2773.87	0.00179
2785.45	0.00179
2797.02	0.00179
2808.6	0.00193
2820.17	0.00218
2831.74	0.00251
2843.32	0.00303
2854.89	0.00434
2866.47	0.00687
2878.04	0.00978
2889.61	0.01094
2901.19	0.01192
2912.76	0.0142
2924.33	0.01776
2935.91	0.01977
2947.48	0.01915
2959.06	0.0271
2970.63	0.04034
2982.2	0.03612
2993.78	0.01344
3005.35	0.01116
3016.92	0.0101
3028.5	0.01119
3040.07	0.00915
3051.65	0.00892
3063.22	0.01103
3074.79	0.01082
3086.37	0.00875
3097.94	0.00503
3109.52	0.00338
3121.09	0.00271
3132.66	0.00225
3144.24	0.00204
3155.81	0.00201
3167.38	0.00211
3178.96	0.00213
3190.53	0.00205
3202.11	0.00199
3213.68	0.00205
3225.25	0.00211
3236.83	0.00214
3248.4	0.00217
3259.98	0.00225
3271.55	0.00244
3283.12	0.00257
3294.7	0.00273
3306.27	0.00311
3317.84	0.00436
3329.42	0.0069
3340.99	0.00811
3352.57	0.01218
3364.14	0.02283
3375.71	0.01936
3387.29	0.00906
3398.86	0.00492
3410.43	0.00367
3422.01	0.0031
3433.58	0.00325
3445.16	0.00458
3456.73	0.00725
3468.3	0.00807
3479.88	0.00774
3491.45	0.01151
3503.03	0.01593
3514.6	0.00914
3526.17	0.00383
3537.75	0.00248
3549.32	0.00175
3560.89	0.00152
3572.47	0.00132
3584.04	0.00121
3595.62	0.00116
3607.19	0.00113
3618.76	0.00115
3630.34	0.0012
3641.91	0.00104
3653.49	0.00105
3665.06	0.00107
3676.63	0.00102
3688.21	0.00109
3699.78	0.00102
3711.35	0.00104
3722.93	0.00102
3734.5	0.00104
3746.08	0.0009007
3757.65	0.0009032
3769.22	0.00103
3780.8	0.00101
3792.37	0.0011
3803.94	0.00107
3815.52	0.001
3827.09	0.00103
3838.67	0.00104
3850.24	0.0011
3861.81	0.00116
3873.39	0.00112
3884.96	0.00111
3896.54	0.00118
3908.11	0.00123
3919.68	0.00123
3931.26	0.0011
3942.83	0.00119
3954.4	0.00123
3965.98	0.00116
3977.55	0.00117
3989.13	0.00109
4000.7	0.00113
