Infrared Spectrum: INDOLE, 3-(2-AMINOPROPYL)-5-CHLORO-, HYDROCHLORIDE
Formula: C11 H14 Cl2 N2
CAS: 1203-99-2
State: SOLID (KBr DISC)
Class: COBLENTZ III
Instrument: PERKIN-ELMER 21 (GRATING)
Instrument parameters: NaCl PRISM
Sampling: TRANSMISSION
Resolution: 2
Origin: SMITH KLINE & FRENCH LABS.
MICROMETERS	TRANSMITTANCE
2.015	0.525
2.05421	0.532
2.09343	0.54
2.13264	0.55
2.17186	0.552
2.21107	0.56
2.25028	0.573
2.2895	0.584
2.32871	0.598
2.36793	0.607
2.40714	0.614
2.44636	0.619
2.48557	0.631
2.52478	0.637
2.564	0.647
2.60321	0.654
2.64243	0.68
2.68164	0.676
2.72085	0.685
2.76007	0.665
2.79928	0.641
2.8385	0.615
2.87771	0.584
2.91692	0.556
2.95614	0.509
2.99535	0.414
3.03457	0.218
3.07378	0.16
3.11299	0.301
3.15221	0.362
3.19142	0.39
3.23064	0.292
3.26985	0.196
3.30907	0.159
3.34828	0.12
3.38749	0.128
3.42671	0.137
3.46592	0.15
3.50514	0.198
3.54435	0.284
3.58356	0.351
3.62278	0.403
3.66199	0.452
3.70121	0.481
3.74042	0.48
3.77963	0.531
3.81885	0.584
3.85806	0.575
3.89728	0.518
3.93649	0.56
3.9757	0.613
4.01492	0.597
4.05413	0.55
4.09335	0.626
4.13256	0.675
4.17178	0.69
4.21099	0.696
4.2502	0.691
4.28942	0.67
4.32863	0.682
4.36785	0.719
4.40706	0.742
4.44627	0.75
4.48549	0.756
4.5247	0.759
4.56392	0.758
4.60313	0.758
4.64234	0.758
4.68156	0.763
4.72077	0.767
4.75999	0.765
4.7992	0.763
4.83842	0.758
4.87763	0.753
4.91684	0.741
4.95606	0.706
4.99527	0.656
5.03449	0.67
5.0737	0.684
5.11291	0.686
5.15213	0.709
5.19134	0.753
5.23056	0.771
5.26977	0.784
5.30898	0.791
5.3482	0.747
5.38741	0.789
5.42663	0.809
5.46584	0.819
5.50505	0.82
5.54427	0.815
5.58348	0.807
5.6227	0.815
5.66191	0.804
5.70113	0.818
5.74034	0.798
5.77955	0.775
5.81877	0.763
5.85798	0.771
5.8972	0.775
5.93641	0.781
5.97562	0.753
6.01484	0.736
6.05405	0.741
6.09327	0.713
6.13248	0.719
6.17169	0.67
6.21091	0.395
6.25012	0.306
6.28934	0.342
6.32855	0.467
6.36777	0.592
6.40698	0.696
6.44619	0.71
6.48541	0.737
6.52462	0.769
6.56384	0.718
6.60305	0.512
6.64226	0.256
6.68148	0.334
6.72069	0.57
6.75991	0.608
6.79912	0.409
6.83833	0.321
6.87755	0.256
6.91676	0.467
6.95598	0.435
6.99519	0.371
7.0344	0.48
7.07362	0.615
7.11283	0.682
7.15205	0.665
7.19126	0.441
7.23048	0.617
7.26969	0.595
7.3089	0.53
7.34812	0.623
7.38733	0.709
7.42655	0.586
7.46576	0.595
7.50497	0.7
7.54419	0.763
7.5834	0.513
7.62262	0.647
7.66183	0.703
7.70104	0.608
7.74026	0.635
7.77947	0.643
7.81869	0.676
7.8579	0.712
7.89711	0.721
7.93633	0.652
7.97554	0.485
8.01476	0.675
8.05397	0.668
8.09319	0.51
8.1324	0.446
8.17161	0.551
8.21083	0.662
8.25004	0.673
8.28926	0.673
8.32847	0.61
8.36768	0.464
8.4069	0.428
8.44611	0.565
8.48533	0.648
8.52454	0.662
8.56375	0.687
8.60297	0.713
8.64218	0.729
8.6814	0.741
8.72061	0.756
8.75983	0.76
8.79904	0.717
8.83825	0.647
8.87747	0.69
8.91668	0.647
8.9559	0.643
8.99511	0.674
9.03432	0.551
9.07354	0.385
9.11275	0.382
9.15197	0.554
9.19118	0.647
9.23039	0.679
9.26961	0.448
9.30882	0.346
9.34804	0.554
9.38725	0.628
9.42646	0.696
9.46568	0.713
9.50489	0.72
9.54411	0.72
9.58332	0.701
9.62254	0.731
9.66175	0.753
9.70096	0.763
9.74018	0.769
9.77939	0.771
9.81861	0.776
9.85782	0.778
9.89703	0.779
9.93625	0.77
9.97546	0.752
10.0147	0.682
10.0539	0.678
10.0931	0.712
10.1323	0.747
10.1715	0.768
10.2107	0.746
10.25	0.718
10.2892	0.718
10.3284	0.731
10.3676	0.758
10.4068	0.785
10.446	0.795
10.4852	0.806
10.5245	0.81
10.5637	0.815
10.6029	0.809
10.6421	0.774
10.6813	0.736
10.7205	0.762
10.7597	0.762
10.799	0.792
10.8382	0.804
10.8774	0.813
10.9166	0.82
10.9558	0.819
10.995	0.781
11.0342	0.591
11.0735	0.632
11.1127	0.719
11.1519	0.751
11.1911	0.763
11.2303	0.674
11.2695	0.397
11.3087	0.554
11.348	0.669
11.3872	0.747
11.4264	0.764
11.4656	0.765
11.5048	0.698
11.544	0.562
11.5832	0.454
11.6225	0.317
11.6617	0.575
11.7009	0.709
11.7401	0.754
11.7793	0.773
11.8185	0.782
11.8577	0.789
11.897	0.785
11.9362	0.737
11.9754	0.652
12.0146	0.576
12.0538	0.569
12.093	0.678
12.1322	0.739
12.1715	0.76
12.2107	0.782
12.2499	0.776
12.2891	0.753
12.3283	0.695
12.3675	0.604
12.4067	0.497
12.446	0.275
12.4852	0.179
12.5244	0.302
12.5636	0.467
12.6028	0.558
12.642	0.584
12.6812	0.496
12.7204	0.49
12.7597	0.61
12.7989	0.671
12.8381	0.71
12.8773	0.729
12.9165	0.743
12.9557	0.754
12.9949	0.76
13.0342	0.76
13.0734	0.714
13.1126	0.604
13.1518	0.654
13.191	0.718
13.2302	0.757
13.2694	0.78
13.3087	0.786
13.3479	0.787
13.3871	0.789
13.4263	0.789
13.4655	0.79
13.5047	0.792
13.5439	0.795
13.5832	0.793
13.6224	0.797
13.6616	0.797
13.7008	0.793
13.74	0.787
13.7792	0.789
13.8184	0.79
13.8577	0.789
13.8969	0.786
13.9361	0.782
13.9753	0.781
14.0145	0.782
14.0537	0.784
14.0929	0.785
14.1322	0.784
14.1714	0.782
14.2106	0.781
14.2498	0.776
14.289	0.77
14.3282	0.763
14.3674	0.754
14.4067	0.752
14.4459	0.748
14.4851	0.73
14.5243	0.718
14.5635	0.704
14.6027	0.695
14.6419	0.682
14.6812	0.668
14.7204	0.645
14.7596	0.634
14.7988	0.625
14.838	0.623
14.8772	0.62
14.9164	0.62
14.9557	0.629
14.9949	0.615
15.0341	0.597
15.0733	0.619
15.1125	0.614
15.1517	0.59
15.1909	0.569
15.2302	0.54
15.2694	0.52
15.3086	0.515
15.3478	0.507
15.387	0.509
15.4262	0.514
15.4654	0.52
15.5047	0.526
15.5439	0.529
15.5831	0.53
15.6223	0.532
15.6615	0.529
15.7007	0.523
15.7399	0.52
15.7791	0.489
15.8184	0.451
15.8576	0.385
15.8968	0.295
