Infrared Spectrum: TETRACHLORO TETRAHYDRO NAPHTHALENE
Formula: C10 H8 Cl4
CAS: 1203-38-9
State: SOLID (MULL)
Melting point: 186-189 C
Class: COBLENTZ
Instrument: Not specified, most likely a prism, grating, or hybrid spectrometer.
Sampling: TRANSMISSION
Resolution: 4
Origin: WYANDOTTE CHEMICALS CORP., WYANDOTTE, MICHIGAN, USA
MICROMETERS	TRANSMITTANCE
2.018	0.535
2.05677	0.538
2.09554	0.549
2.13432	0.554
2.17309	0.559
2.21186	0.569
2.25063	0.577
2.2894	0.581
2.32818	0.583
2.36695	0.591
2.40572	0.599
2.44449	0.607
2.48327	0.615
2.52204	0.628
2.56081	0.635
2.59958	0.646
2.63835	0.662
2.67713	0.675
2.7159	0.68
2.75467	0.678
2.79344	0.67
2.83221	0.654
2.87099	0.657
2.90976	0.654
2.94853	0.657
2.9873	0.663
3.02607	0.643
3.06485	0.643
3.10362	0.639
3.14239	0.647
3.18116	0.651
3.21993	0.644
3.25871	0.618
3.29748	0.588
3.33625	0.45
3.37502	0.106
3.4138	0.02
3.45257	0.027
3.49134	0.028
3.53011	0.051
3.56888	0.245
3.60766	0.342
3.64643	0.369
3.6852	0.372
3.72397	0.371
3.76274	0.374
3.80152	0.384
3.84029	0.385
3.87906	0.397
3.91783	0.411
3.9566	0.424
3.99538	0.437
4.03415	0.443
4.07292	0.451
4.11169	0.456
4.15046	0.459
4.18924	0.474
4.22801	0.479
4.26678	0.483
4.30555	0.487
4.34433	0.5
4.3831	0.512
4.42187	0.541
4.46064	0.54
4.49941	0.557
4.53819	0.575
4.57696	0.583
4.61573	0.594
4.6545	0.602
4.69327	0.61
4.73205	0.622
4.77082	0.641
4.80959	0.649
4.84836	0.655
4.88713	0.659
4.92591	0.665
4.96468	0.676
5.00345	0.692
5.04222	0.696
5.081	0.712
5.11977	0.655
5.15854	0.696
5.19731	0.694
5.23608	0.696
5.27486	0.737
5.31363	0.739
5.3524	0.779
5.39117	0.779
5.42994	0.755
5.46872	0.784
5.50749	0.736
5.54626	0.757
5.58503	0.797
5.6238	0.816
5.66258	0.831
5.70135	0.837
5.74012	0.839
5.77889	0.781
5.81766	0.787
5.85644	0.824
5.89521	0.855
5.93398	0.869
5.97275	0.892
6.01153	0.892
6.0503	0.85
6.08907	0.881
6.12784	0.898
6.16661	0.897
6.20539	0.869
6.24416	0.922
6.28293	0.929
6.3217	0.956
6.36047	0.938
6.39925	0.953
6.43802	0.945
6.47679	0.958
6.51556	0.953
6.55433	0.956
6.59311	0.958
6.63188	0.757
6.67065	0.3
6.70942	0.22
6.74819	0.194
6.78697	0.048
6.82574	0.038
6.86451	0.057
6.90328	0.192
6.94206	0.381
6.98083	0.491
7.0196	0.532
7.05837	0.565
7.09714	0.561
7.13592	0.532
7.17469	0.408
7.21346	0.183
7.25223	0.168
7.291	0.311
7.32978	0.437
7.36855	0.258
7.40732	0.445
7.44609	0.493
7.48486	0.495
7.52364	0.519
7.56241	0.561
7.60118	0.562
7.63995	0.567
7.67872	0.326
7.7175	0.245
7.75627	0.385
7.79504	0.451
7.83381	0.461
7.87259	0.284
7.91136	0.11
7.95013	0.297
7.9889	0.512
8.02767	0.572
8.06645	0.596
8.10522	0.633
8.14399	0.639
8.18276	0.643
8.22153	0.496
8.26031	0.196
8.29908	0.107
8.33785	0.356
8.37662	0.16
8.41539	0.443
8.45417	0.26
8.49294	0.295
8.53171	0.474
8.57048	0.559
8.60926	0.591
8.64803	0.606
8.6868	0.649
8.72557	0.67
8.76434	0.686
8.80312	0.694
8.84189	0.689
8.88066	0.657
8.91943	0.564
8.9582	0.524
8.99698	0.681
9.03575	0.702
9.07452	0.721
9.11329	0.741
9.15206	0.739
9.19084	0.744
9.22961	0.739
9.26838	0.737
9.30715	0.755
9.34592	0.758
9.3847	0.763
9.42347	0.768
9.46224	0.774
9.50101	0.763
9.53979	0.731
9.57856	0.508
9.61733	0.58
9.6561	0.553
9.69487	0.315
9.73365	0.102
9.77242	0.231
9.81119	0.44
9.84996	0.604
9.88873	0.676
9.92751	0.713
9.96628	0.758
10.0051	0.784
10.0438	0.79
10.0826	0.792
10.1214	0.795
10.1601	0.807
10.1989	0.794
10.2377	0.776
10.2765	0.782
10.3152	0.782
10.354	0.754
10.3928	0.655
10.4315	0.4
10.4703	0.13
10.5091	0.215
10.5479	0.538
10.5866	0.618
10.6254	0.692
10.6642	0.718
10.7029	0.742
10.7417	0.747
10.7805	0.76
10.8193	0.77
10.858	0.77
10.8968	0.76
10.9356	0.737
10.9744	0.7
11.0131	0.434
11.0519	0.225
11.0907	0.424
11.1294	0.715
11.1682	0.845
11.207	0.876
11.2458	0.893
11.2845	0.906
11.3233	0.921
11.3621	0.929
11.4008	0.852
11.4396	0.631
11.4784	0.79
11.5172	0.906
11.5559	0.934
11.5947	0.954
11.6335	0.942
11.6723	0.877
11.711	0.572
11.7498	0.104
11.7886	0.075
11.8273	0.239
11.8661	0.445
11.9049	0.519
11.9437	0.4
11.9824	0.123
12.0212	0.08
12.06	0.104
12.0987	0.212
12.1375	0.39
12.1763	0.557
12.2151	0.647
12.2538	0.697
12.2926	0.737
12.3314	0.744
12.3701	0.749
12.4089	0.779
12.4477	0.797
12.4865	0.8
12.5252	0.794
12.564	0.79
12.6028	0.763
12.6416	0.627
12.6803	0.371
12.7191	0.077
12.7579	0.028
12.7966	0.035
12.8354	0.025
12.8742	0.032
12.913	0.125
12.9517	0.393
12.9905	0.62
13.0293	0.731
13.068	0.779
13.1068	0.834
13.1456	0.863
13.1844	0.877
13.2231	0.876
13.2619	0.872
13.3007	0.874
13.3394	0.881
13.3782	0.872
13.417	0.831
13.4558	0.675
13.4945	0.4
13.5333	0.268
13.5721	0.446
13.6109	0.588
13.6496	0.639
13.6884	0.668
13.7272	0.688
13.7659	0.694
13.8047	0.673
13.8435	0.659
13.8823	0.628
13.921	0.612
13.9598	0.601
13.9986	0.573
14.0373	0.541
14.0761	0.491
14.1149	0.427
14.1537	0.34
14.1924	0.25
14.2312	0.176
14.27	0.127
14.3088	0.098
14.3475	0.077
14.3863	0.073
14.4251	0.056
14.4638	0.046
14.5026	0.04
14.5414	0.043
14.5802	0.045
14.6189	0.048
14.6577	0.059
14.6965	0.086
14.7352	0.147
14.774	0.229
14.8128	0.323
14.8516	0.413
14.8903	0.48
14.9291	0.538
14.9679	0.551
15.0066	0.543
15.0454	0.546
15.0842	0.61
15.123	0.662
15.1617	0.68
15.2005	0.689
15.2393	0.705
15.2781	0.709
15.3168	0.704
15.3556	0.68
15.3944	0.654
15.4331	0.641
15.4719	0.622
15.5107	0.593
15.5495	0.549
15.5882	0.485
15.627	0.372
15.6658	0.282
15.7045	0.236
15.7433	0.233
15.7821	0.268
15.8209	0.315
15.8596	0.364
15.8984	0.385
15.9372	0.406
15.976	0.416
