Infrared Spectrum: PHTHALIC , 4-(CHLOROFORMYL)-,ANHYDRIDE
Formula: C9 H3 Cl O4
CAS: 1204-28-0
State: SOLID (SPLIT MULL), FLUOROLUBE FOR 3800-1330 CM^-^1, NUJOL FOR 1330-400 CM^-^1
Melting point: 66 C
Class: COBLENTZ III
Instrument: BECKMAN IR-9 (GRATING)
Instrument parameters: ORDER CHANGES: 670, 1200, 2000 CM^-^1
Sampling: TRANSMISSION
Resolution: 2
Origin: DOW CHEMICAL COMPANY
1/CM	TRANSMITTANCE
402	0.5239
411	0.5212
420	0.5331
429	0.5925
438	0.6433
447	0.6901
456	0.724
465	0.7432
474	0.7681
483	0.7972
492	0.8145
501	0.8295
510	0.8418
519	0.852
528	0.8592
537	0.8638
546	0.8637
555	0.7992
564	0.8666
573	0.877
582	0.8766
591	0.8493
600	0.8685
609	0.8758
618	0.8655
627	0.8393
636	0.8436
645	0.8624
654	0.8758
663	0.8771
672	0.8605
681	0.8414
690	0.4007
699	0.4307
708	0.8313
717	0.8224
726	0.8057
735	0.8228
744	0.7078
753	0.8378
762	0.8684
771	0.8698
780	0.8697
789	0.8686
798	0.8657
807	0.8381
816	0.6306
825	0.714
834	0.748
843	0.581
852	0.8374
861	0.8516
870	0.8178
879	0.8613
888	0.8493
897	0.8167
906	0.6324
915	0.4056
924	0.6246
933	0.7762
942	0.628
951	0.3466
960	0.8191
969	0.6937
978	0.8417
987	0.8818
996	0.8925
1005	0.9
1014	0.9048
1023	0.9065
1032	0.9065
1041	0.9025
1050	0.8982
1059	0.8983
1068	0.8941
1077	0.8835
1086	0.7071
1095	0.6483
1104	0.8401
1113	0.7504
1122	0.8101
1131	0.8575
1140	0.8521
1149	0.6735
1158	0.4418
1167	0.7968
1176	0.8514
1185	0.7232
1194	0.3596
1203	0.5835
1212	0.691
1221	0.8382
1230	0.8599
1239	0.8424
1248	0.8122
1257	0.6718
1266	0.5833
1275	0.4775
1284	0.7631
1293	0.8156
1302	0.8416
1311	0.859
1320	0.867
1329	0.7504
1338	0.7478
1347	0.6657
1356	0.7862
1365	0.8185
1374	0.8266
1383	0.8224
1392	0.8174
1401	0.8188
1410	0.8151
1419	0.7941
1428	0.6681
1437	0.8042
1446	0.8278
1455	0.8289
1464	0.8262
1473	0.8239
1482	0.8126
1491	0.8194
1500	0.8144
1509	0.8194
1518	0.8231
1527	0.8213
1536	0.8158
1545	0.8153
1554	0.815
1563	0.8133
1572	0.8124
1581	0.8097
1590	0.8046
1599	0.7967
1608	0.7737
1617	0.766
1626	0.7808
1635	0.7719
1644	0.7672
1653	0.7618
1662	0.7475
1671	0.7301
1680	0.7092
1689	0.6871
1698	0.6565
1707	0.6117
1716	0.5916
1725	0.5239
1734	0.4648
1743	0.2156
1752	0.3668
1761	0.3887
1770	0.1008
1779	0.0934
1788	0.3794
1797	0.6101
1806	0.6362
1815	0.6469
1824	0.7387
1833	0.7045
1842	0.5405
1851	0.5006
1860	0.6376
1869	0.6965
1878	0.8278
1887	0.8506
1896	0.8628
1905	0.8667
1914	0.8753
1923	0.8812
1932	0.8831
1941	0.8818
1950	0.8799
1959	0.8699
1968	0.8642
1977	0.871
1986	0.8687
1995	0.86
2004	0.8675
2013	0.8668
2022	0.865
2031	0.8642
2040	0.8641
2049	0.8639
2058	0.8618
2067	0.8615
2076	0.8628
2085	0.8603
2094	0.8564
2103	0.8534
2112	0.8511
2121	0.8488
2130	0.8473
2139	0.8451
2148	0.8423
2157	0.8371
2166	0.8337
2175	0.8311
2184	0.8296
2193	0.8283
2202	0.8278
2211	0.8274
2220	0.8268
2229	0.8212
2238	0.8156
2247	0.8117
2256	0.8098
2265	0.8081
2274	0.8065
2283	0.8051
2292	0.804
2301	0.8039
2310	0.8041
2319	0.8061
2328	0.8078
2337	0.8081
2346	0.809
2355	0.8098
2364	0.8115
2373	0.8096
2382	0.7953
2391	0.7892
2400	0.788
2409	0.7865
2418	0.7856
2427	0.7847
2436	0.7843
2445	0.7839
2454	0.7835
2463	0.7828
2472	0.7825
2481	0.7821
2490	0.7818
2499	0.7815
2508	0.7812
2517	0.7801
2526	0.779
2535	0.7776
2544	0.7761
2553	0.7747
2562	0.7744
2571	0.774
2580	0.7736
2589	0.7731
2598	0.7725
2607	0.7715
2616	0.7704
2625	0.7692
2634	0.7683
2643	0.7671
2652	0.7651
2661	0.7632
2670	0.7618
2679	0.7607
2688	0.7596
2697	0.7581
2706	0.7567
2715	0.7551
2724	0.7536
2733	0.7518
2742	0.7501
2751	0.7483
2760	0.7468
2769	0.7451
2778	0.7436
2787	0.7417
2796	0.7396
2805	0.7375
2814	0.7354
2823	0.7335
2832	0.7317
2841	0.73
2850	0.7282
2859	0.7264
2868	0.7245
2877	0.7226
2886	0.7208
2895	0.7192
2904	0.7175
2913	0.7158
2922	0.7141
2931	0.7124
2940	0.7108
2949	0.7093
2958	0.7082
2967	0.7069
2976	0.7058
2985	0.7046
2994	0.7031
3003	0.7006
3012	0.6974
3021	0.6911
3030	0.6797
3039	0.6858
3048	0.6846
3057	0.6604
3066	0.6462
3075	0.6737
3084	0.6745
3093	0.6699
3102	0.6747
3111	0.6753
3120	0.6812
3129	0.6965
3138	0.6981
3147	0.6971
3156	0.696
3165	0.6949
3174	0.6939
3183	0.6928
3192	0.6917
3201	0.6904
3210	0.6892
3219	0.6878
3228	0.6861
3237	0.6845
3246	0.6828
3255	0.6812
3264	0.6797
3273	0.6782
3282	0.6767
3291	0.6751
3300	0.6736
3309	0.6721
3318	0.6707
3327	0.6692
3336	0.6676
3345	0.6662
3354	0.665
3363	0.6636
3372	0.6622
3381	0.6608
3390	0.6592
3399	0.6575
3408	0.6558
3417	0.654
3426	0.6522
3435	0.6507
3444	0.6494
3453	0.6481
3462	0.6468
3471	0.6455
3480	0.6453
3489	0.6453
3498	0.6454
3507	0.6451
3516	0.6446
3525	0.6439
3534	0.6426
3543	0.6412
3552	0.6395
3561	0.6372
3570	0.6347
3579	0.6314
3588	0.63
3597	0.629
3606	0.6299
3615	0.6315
3624	0.6332
3633	0.6348
3642	0.6362
3651	0.6362
3660	0.6359
3669	0.6351
3678	0.6344
3687	0.6336
3696	0.6327
3705	0.6318
3714	0.6312
3723	0.6308
3732	0.6305
3741	0.6302
3750	0.6295
3759	0.6268
3768	0.622
3777	0.6197
3786	0.6191
3795	0.6184
