Infrared Spectrum: 4-Ethoxycarbonylphenylisothiocyanate
Formula: C 10 H 9 N O 2 S
CAS: 1205-06-7
State: gas
Origin: EPA-IR VAPOR PHASE LIBRARY
1/CM	ABSORBANCE
549.8	0.006794
559.445	0.007134
569.09	0.007434
578.734	0.008324
588.379	0.007734
598.024	0.007024
607.669	0.006184
617.313	0.005064
626.958	0.004944
636.603	0.005744
646.248	0.004294
655.893	0.003764
665.537	0.004564
675.182	0.008584
684.827	0.013594
694.472	0.012314
704.116	0.007664
713.761	0.009004
723.406	0.011334
733.051	0.006864
742.695	0.009514
752.34	0.023904
761.985	0.055764
771.63	0.061854
781.275	0.035274
790.919	0.020714
800.564	0.015344
810.209	0.012124
819.854	0.012064
829.498	0.016444
839.143	0.032684
848.788	0.064454
858.433	0.056744
868.078	0.023644
877.722	0.011434
887.367	0.009704
897.012	0.014224
906.657	0.021634
916.301	0.027684
925.946	0.036634
935.591	0.052654
945.236	0.053294
954.88	0.036194
964.525	0.023234
974.17	0.016814
983.815	0.014694
993.46	0.016064
1003.1	0.020424
1012.75	0.038624
1022.39	0.058854
1032.04	0.022154
1041.68	0.013094
1051.33	0.012664
1060.97	0.016964
1070.62	0.028804
1080.26	0.068194
1089.91	0.167594
1099.55	0.371944
1109.2	0.360094
1118.84	0.177744
1128.49	0.079084
1138.13	0.046194
1147.78	0.035804
1157.42	0.038424
1167.07	0.135734
1176.71	0.099414
1186.36	0.029554
1196	0.019954
1205.64	0.020754
1215.29	0.036494
1224.93	0.068914
1234.58	0.072064
1244.22	0.120724
1253.87	0.276164
1263.51	0.597774
1273.16	0.713294
1282.8	0.353544
1292.45	0.145614
1302.09	0.079824
1311.74	0.058084
1321.38	0.036464
1331.03	0.025234
1340.67	0.018934
1350.32	0.020294
1359.96	0.031964
1369.61	0.067534
1379.25	0.034094
1388.9	0.023194
1398.54	0.026494
1408.18	0.037204
1417.83	0.036944
1427.47	0.017624
1437.12	0.015864
1446.76	0.018834
1456.41	0.022194
1466.05	0.027644
1475.7	0.030014
1485.34	0.026084
1494.99	0.049984
1504.63	0.070104
1514.28	0.022534
1523.92	0.013794
1533.57	0.012864
1543.21	0.013864
1552.86	0.016004
1562.5	0.021024
1572.15	0.030894
1581.79	0.048754
1591.44	0.115154
1601.08	0.239064
1610.73	0.131904
1620.37	0.041964
1630.01	0.022914
1639.66	0.017754
1649.3	0.017434
1658.95	0.016834
1668.59	0.016344
1678.24	0.016974
1687.88	0.018704
1697.53	0.022474
1707.17	0.028844
1716.82	0.055384
1726.46	0.148714
1736.11	0.366124
1745.75	0.370954
1755.4	0.138264
1765.04	0.044624
1774.69	0.022444
1784.33	0.019094
1793.98	0.017904
1803.62	0.014654
1813.27	0.013554
1822.91	0.013394
1832.55	0.013534
1842.2	0.014434
1851.84	0.015964
1861.49	0.017624
1871.13	0.018824
1880.78	0.019604
1890.42	0.020724
1900.07	0.023474
1909.71	0.029184
1919.36	0.036624
1929	0.046924
1938.65	0.061794
1948.29	0.084424
1957.94	0.117584
1967.58	0.160674
1977.23	0.212394
1986.87	0.280804
1996.52	0.373884
2006.16	0.488224
2015.81	0.594984
2025.45	0.686114
2035.1	0.793324
2044.74	0.720214
2054.38	0.472454
2064.03	0.375154
2073.67	0.430714
2083.32	0.541674
2092.96	0.499474
2102.61	0.331114
2112.25	0.227874
2121.9	0.185174
2131.54	0.171184
2141.19	0.149074
2150.83	0.117584
2160.48	0.092864
2170.12	0.073714
2179.77	0.061824
2189.41	0.055784
2199.06	0.048474
2208.7	0.036954
2218.35	0.026124
2227.99	0.018544
2237.64	0.013354
2247.28	0.010084
2256.92	0.008224
2266.57	0.007484
2276.21	0.007324
2285.86	0.006914
2295.5	0.006744
2305.15	0.006904
2314.79	0.007304
2324.44	0.007154
2334.08	0.006054
2343.73	0.005404
2353.37	0.005654
2363.02	0.005944
2372.66	0.005584
2382.31	0.004974
2391.95	0.004604
2401.6	0.004424
2411.24	0.004444
2420.89	0.004654
2430.53	0.004174
2440.18	0.003834
2449.82	0.003754
2459.47	0.004034
2469.11	0.004644
2478.75	0.005624
2488.4	0.006674
2498.04	0.008044
2507.69	0.008144
2517.33	0.007614
2526.98	0.007384
2536.62	0.007374
2546.27	0.006984
2555.91	0.007034
2565.56	0.008044
2575.2	0.009994
2584.85	0.012674
2594.49	0.016754
2604.14	0.019384
2613.78	0.015634
2623.43	0.009534
2633.07	0.005884
2642.72	0.004614
2652.36	0.004014
2662.01	0.003544
2671.65	0.003044
2681.29	0.002644
2690.94	0.002584
2700.58	0.002854
2710.23	0.003334
2719.87	0.004014
2729.52	0.004934
2739.16	0.005994
2748.81	0.006944
2758.45	0.008014
2768.1	0.007714
2777.74	0.005724
2787.39	0.004354
2797.03	0.004034
2806.68	0.004184
2816.32	0.004204
2825.97	0.004324
2835.61	0.004164
2845.26	0.004704
2854.9	0.005734
2864.55	0.007304
2874.19	0.009374
2883.84	0.012964
2893.48	0.012934
2903.12	0.014134
2912.77	0.017634
2922.41	0.017714
2932.06	0.020224
2941.7	0.031734
2951.35	0.032054
2960.99	0.029194
2970.64	0.037534
2980.28	0.057854
2989.93	0.067474
2999.57	0.039424
3009.22	0.027234
3018.86	0.017394
3028.51	0.011544
3038.15	0.008954
3047.8	0.008054
3057.44	0.007574
3067.09	0.007094
3076.73	0.008204
3086.38	0.007274
3096.02	0.006044
3105.67	0.005524
3115.31	0.004334
3124.95	0.003224
3134.6	0.002654
3144.24	0.002174
3153.89	0.001854
3163.53	0.001194
3173.18	0.0010511
3182.82	0.001204
3192.47	0.001051
3202.11	0.0007391
3211.76	0.0007016
3221.4	0.0005075
3231.05	0.00026455
3240.69	0.0002913
3250.34	0.00022339
3259.98	8.45e-05
3269.63	9e-05
3279.27	7.4e-05
3288.92	0.00025993
3298.56	0.0004623
3308.21	0.0002946
3317.85	0.0005676
3327.49	0.0004974
3337.14	0.0008327
3346.78	0.0007172
3356.43	0.0005159
3366.07	0.0004876
3375.72	0.0005413
3385.36	0.0003506
3395.01	0.0002599
3404.65	0.0003664
3414.3	0.0004599
3423.94	0.0004454
3433.59	0.0008644
3443.23	0.001724
3452.88	0.002774
3462.52	0.003874
3472.17	0.002624
3481.81	0.001594
3491.46	0.0011085
3501.1	0.0008744
3510.75	0.0006404
3520.39	0.000407
3530.04	0.0003779
3539.68	0.0004111
3549.32	0.000313
3558.97	0.0004207
3568.61	0.0004349
3578.26	0.0003729
3587.9	0.00025299
3597.55	0.0003754
3607.19	0.00024255
3616.84	0.00022461
3626.48	0.0003124
3636.13	0.0004518
3645.77	0.0003436
3655.42	0.0004037
3665.06	0.0004724
3674.71	0.0006589
3684.35	0.0007232
3694	0.000655
3703.64	0.000698
3713.29	0.000424
3722.93	0.0007571
3732.58	0.0007029
3742.22	0.000829
3751.86	0.0006245
3761.51	0.000605
3771.15	0.0009011
3780.8	0.0007629
3790.44	0.0009028
3800.09	0.0007776
3809.73	0.0008923
3819.38	0.001027
3829.02	0.0009553
3838.67	0.0009365
3848.31	0.0009627
3857.96	0.0011001
3867.6	0.0011168
3877.25	0.001184
3886.89	0.001244
3896.54	0.001484
3906.18	0.001474
3915.83	0.001734
3925.47	0.001984
3935.12	0.002204
3944.76	0.002024
3954.41	0.002334
3964.05	0.002444
3973.69	0.002684
3983.34	0.002834
3992.98	0.002874
