Infrared Spectrum: DL-N-BENZOYL-Alpha-ALANINE
Formula: C10 H11 N O3
CAS: 1205-02-3
State: SOLID (MINERAL OIL MULL)
Melting point: 163-165 C
Class: COBLENTZ
Instrument: Not specified, most likely a prism, grating, or hybrid spectrometer.
Sampling: TRANSMISSION
Resolution: 4
Origin: WYANDOTTE CHEMICALS CORP., WYANDOTTE, MICHIGAN, USA
MICROMETERS	TRANSMITTANCE
2.033	0.654
2.07275	0.656
2.11251	0.666
2.15226	0.672
2.19202	0.669
2.23177	0.679
2.27153	0.689
2.31128	0.696
2.35103	0.702
2.39079	0.709
2.43054	0.715
2.4703	0.724
2.51005	0.737
2.5498	0.745
2.58956	0.754
2.62931	0.774
2.66907	0.779
2.70882	0.782
2.74858	0.782
2.78833	0.779
2.82808	0.775
2.86784	0.744
2.90759	0.705
2.94735	0.528
2.9871	0.328
3.02685	0.581
3.06661	0.589
3.10636	0.538
3.14612	0.443
3.18587	0.345
3.22563	0.237
3.26538	0.174
3.30513	0.111
3.34489	0.061
3.38464	0.058
3.4244	0.063
3.46415	0.071
3.50391	0.139
3.54366	0.217
3.58341	0.282
3.62317	0.308
3.66292	0.36
3.70268	0.372
3.74243	0.43
3.78218	0.423
3.82194	0.421
3.86169	0.48
3.90145	0.481
3.9412	0.48
3.98096	0.544
4.02071	0.546
4.06046	0.583
4.10022	0.641
4.13997	0.651
4.17973	0.679
4.21948	0.717
4.25923	0.722
4.29899	0.754
4.33874	0.799
4.3785	0.842
4.41825	0.845
4.45801	0.863
4.49776	0.868
4.53751	0.878
4.57727	0.883
4.61702	0.888
4.65678	0.9
4.69653	0.906
4.73629	0.913
4.77604	0.906
4.81579	0.913
4.85555	0.925
4.8953	0.933
4.93506	0.925
4.97481	0.92
5.01456	0.928
5.05432	0.921
5.09407	0.92
5.13383	0.918
5.17358	0.923
5.21334	0.925
5.25309	0.916
5.29284	0.901
5.3326	0.92
5.37235	0.918
5.41211	0.905
5.45186	0.89
5.49162	0.867
5.53137	0.833
5.57112	0.815
5.61088	0.757
5.65063	0.712
5.69039	0.632
5.73014	0.382
5.76989	0.068
5.80965	0.083
5.8494	0.107
5.88916	0.393
5.92891	0.475
5.96867	0.529
6.00842	0.32
6.04817	0.063
6.08793	0.056
6.12768	0.063
6.16744	0.134
6.20719	0.32
6.24694	0.255
6.2867	0.142
6.32645	0.21
6.36621	0.079
6.40596	0.064
6.44572	0.137
6.48547	0.285
6.52522	0.431
6.56498	0.509
6.60473	0.493
6.64449	0.347
6.68424	0.421
6.724	0.481
6.76375	0.317
6.8035	0.174
6.84326	0.078
6.88301	0.262
6.92277	0.46
6.96252	0.438
7.00227	0.27
7.04203	0.431
7.08178	0.531
7.12154	0.617
7.16129	0.659
7.20105	0.589
7.2408	0.495
7.28055	0.478
7.32031	0.591
7.36006	0.607
7.39982	0.358
7.43957	0.405
7.47932	0.596
7.51908	0.689
7.55883	0.669
7.59859	0.651
7.63834	0.558
7.6781	0.307
7.71785	0.184
7.7576	0.282
7.79736	0.425
7.83711	0.478
7.87687	0.509
7.91662	0.627
7.95638	0.659
7.99613	0.626
8.03588	0.561
8.07564	0.426
8.11539	0.277
8.15515	0.096
8.1949	0.053
8.23465	0.061
8.27441	0.093
8.31416	0.174
8.35392	0.27
8.39367	0.35
8.43343	0.308
8.47318	0.28
8.51293	0.342
8.55269	0.441
8.59244	0.446
8.6322	0.571
8.67195	0.622
8.7117	0.641
8.75146	0.656
8.79121	0.662
8.83097	0.602
8.87072	0.327
8.91048	0.22
8.95023	0.496
8.98998	0.636
9.02974	0.692
9.06949	0.719
9.10925	0.73
9.149	0.73
9.18876	0.707
9.22851	0.636
9.26826	0.606
9.30802	0.612
9.34777	0.619
9.38753	0.724
9.42728	0.765
9.46703	0.784
9.50679	0.794
9.54654	0.799
9.5863	0.807
9.62605	0.815
9.66581	0.81
9.70556	0.677
9.74531	0.762
9.78507	0.802
9.82482	0.818
9.86458	0.825
9.90433	0.823
9.94409	0.794
9.98384	0.769
10.0236	0.799
10.0633	0.807
10.1031	0.81
10.1429	0.812
10.1826	0.802
10.2224	0.779
10.2621	0.782
10.3019	0.779
10.3416	0.75
10.3814	0.762
10.4211	0.775
10.4609	0.775
10.5006	0.774
10.5404	0.77
10.5802	0.769
10.6199	0.754
10.6597	0.722
10.6994	0.644
10.7392	0.363
10.7789	0.451
10.8187	0.392
10.8584	0.415
10.8982	0.498
10.9379	0.611
10.9777	0.636
11.0174	0.611
11.0572	0.548
11.097	0.445
11.1367	0.323
11.1765	0.217
11.2162	0.207
11.256	0.28
11.2957	0.357
11.3355	0.426
11.3752	0.498
11.415	0.576
11.4547	0.614
11.4945	0.664
11.5343	0.704
11.574	0.73
11.6138	0.745
11.6535	0.744
11.6933	0.75
11.733	0.775
11.7728	0.79
11.8125	0.803
11.8523	0.808
11.892	0.803
11.9318	0.755
11.9715	0.785
12.0113	0.822
12.0511	0.8
12.0908	0.696
12.1306	0.581
12.1703	0.539
12.2101	0.599
12.2498	0.705
12.2896	0.762
12.3293	0.8
12.3691	0.822
12.4088	0.837
12.4486	0.843
12.4884	0.852
12.5281	0.832
12.5679	0.724
12.6076	0.694
12.6474	0.8
12.6871	0.882
12.7269	0.9
12.7666	0.908
12.8064	0.921
12.8461	0.925
12.8859	0.926
12.9256	0.923
12.9654	0.913
13.0052	0.906
13.0449	0.91
13.0847	0.91
13.1244	0.903
13.1642	0.9
13.2039	0.895
13.2437	0.863
13.2834	0.792
13.3232	0.727
13.3629	0.737
13.4027	0.794
13.4425	0.84
13.4822	0.86
13.522	0.86
13.5617	0.86
13.6015	0.858
13.6412	0.843
13.681	0.83
13.7207	0.803
13.7605	0.762
13.8002	0.677
13.84	0.554
13.8798	0.405
13.9195	0.305
13.9593	0.235
13.999	0.202
14.0388	0.244
14.0785	0.31
14.1183	0.411
14.158	0.486
14.1978	0.556
14.2375	0.599
14.2773	0.616
14.317	0.619
14.3568	0.589
14.3966	0.465
14.4363	0.33
14.4761	0.25
14.5158	0.277
14.5556	0.408
14.5953	0.533
14.6351	0.629
14.6748	0.682
14.7146	0.694
14.7543	0.669
14.7941	0.627
14.8339	0.598
14.8736	0.602
14.9134	0.651
14.9531	0.696
14.9929	0.705
15.0326	0.7
15.0724	0.691
15.1121	0.691
15.1519	0.709
15.1916	0.714
15.2314	0.719
15.2711	0.712
15.3109	0.702
15.3507	0.691
15.3904	0.681
15.4302	0.671
15.4699	0.652
15.5097	0.639
15.5494	0.619
15.5892	0.607
15.6289	0.579
15.6687	0.549
15.7084	0.519
15.7482	0.491
15.788	0.47
15.8277	0.448
15.8675	0.433
15.9072	0.431
15.947	0.436
15.9867	0.448
