Infrared Spectrum: p-Phenylenediacetate
Formula: C 10 H 10 O 4
CAS: 1205-91-0
State: gas
Origin: EPA-IR VAPOR PHASE LIBRARY
1/CM	ABSORBANCE
551.7	0.00287
563.274	0.00305
574.848	0.00482
586.421	0.0104
597.995	0.02317
609.569	0.03404
621.143	0.01184
632.717	0.00439
644.291	0.00322
655.864	0.00316
667.438	0.00308
679.012	0.00289
690.586	0.00264
702.16	0.00223
713.734	0.00197
725.307	0.00216
736.881	0.00275
748.455	0.0035
760.029	0.0056
771.603	0.00624
783.177	0.00696
794.75	0.00666
806.324	0.00738
817.898	0.01057
829.472	0.01892
841.046	0.0267
852.619	0.02428
864.193	0.02023
875.767	0.02093
887.341	0.03365
898.915	0.06049
910.489	0.08041
922.062	0.05068
933.636	0.01985
945.21	0.00917
956.784	0.00712
968.358	0.00949
979.932	0.01766
991.505	0.03258
1003.08	0.07209
1014.65	0.09336
1026.23	0.03337
1037.8	0.01939
1049.37	0.02074
1060.95	0.02739
1072.52	0.0384
1084.1	0.04034
1095.67	0.03545
1107.24	0.03177
1118.82	0.03018
1130.39	0.03333
1141.97	0.05279
1153.54	0.13536
1165.11	0.44886
1176.69	0.77653
1188.26	0.53886
1199.83	0.56036
1211.41	0.343
1222.98	0.13238
1234.56	0.07311
1246.13	0.04479
1257.7	0.03419
1269.28	0.02931
1280.85	0.0246
1292.42	0.01907
1304	0.01531
1315.57	0.0123
1327.15	0.01036
1338.72	0.01108
1350.29	0.01945
1361.87	0.0599
1373.44	0.13289
1385.02	0.05005
1396.59	0.01989
1408.16	0.01539
1419.74	0.01562
1431.31	0.01681
1442.88	0.01841
1454.46	0.01685
1466.03	0.01562
1477.61	0.0235
1489.18	0.07563
1500.75	0.2404
1512.33	0.07669
1523.9	0.01871
1535.48	0.01214
1547.05	0.00914
1558.62	0.00875
1570.2	0.00935
1581.77	0.01037
1593.34	0.01027
1604.92	0.00918
1616.49	0.00782
1628.07	0.00701
1639.64	0.00713
1651.21	0.00747
1662.79	0.00743
1674.36	0.00731
1685.93	0.00791
1697.51	0.00899
1709.08	0.01124
1720.66	0.01561
1732.23	0.02414
1743.8	0.03996
1755.38	0.07009
1766.95	0.13202
1778.53	0.21636
1790.1	0.23021
1801.67	0.14782
1813.25	0.06902
1824.82	0.03666
1836.39	0.02212
1847.97	0.01462
1859.54	0.00995
1871.12	0.00844
1882.69	0.00702
1894.26	0.0049
1905.84	0.00396
1917.41	0.00367
1928.99	0.00325
1940.56	0.00308
1952.13	0.00353
1963.71	0.00465
1975.28	0.00612
1986.85	0.00687
1998.43	0.00643
2010	0.00577
2021.58	0.00466
2033.15	0.00382
2044.72	0.00332
2056.3	0.00279
2067.87	0.00249
2079.44	0.00265
2091.02	0.0032
2102.59	0.00384
2114.17	0.00336
2125.74	0.00251
2137.31	0.00188
2148.89	0.00144
2160.46	0.00128
2172.04	0.00116
2183.61	0.00102
2195.18	0.0009618
2206.76	0.00109
2218.33	0.00102
2229.9	0.0009101
2241.48	0.0008794
2253.05	0.00111
2264.63	0.00132
2276.2	0.00151
2287.77	0.00137
2299.35	0.00128
2310.92	0.00121
2322.5	0.00141
2334.07	0.00164
2345.64	0.00168
2357.22	0.00188
2368.79	0.00256
2380.36	0.0034
2391.94	0.00368
2403.51	0.00318
2415.09	0.00239
2426.66	0.00178
2438.23	0.00149
2449.81	0.00118
2461.38	0.0008416
2472.96	0.0007727
2484.53	0.0007178
2496.1	0.0006626
2507.68	0.0005948
2519.25	0.0005518
2530.82	0.0005047
2542.4	0.0005287
2553.97	0.0005772
2565.55	0.0008172
2577.12	0.0007979
2588.69	0.0005808
2600.27	0.0003868
2611.84	0.0003104
2623.41	0.0002645
2634.99	0.0002932
2646.56	0.0002936
2658.14	0.0003405
2669.71	0.0003777
2681.28	0.0004531
2692.86	0.0004411
2704.43	0.0005591
2716.01	0.0007116
2727.58	0.0006294
2739.15	0.000449
2750.73	0.0003833
2762.3	0.0004388
2773.87	0.0004852
2785.45	0.0006869
2797.02	0.0006845
2808.6	0.0006134
2820.17	0.0005563
2831.74	0.0007075
2843.32	0.000959
2854.89	0.00148
2866.47	0.00152
2878.04	0.00118
2889.61	0.00108
2901.19	0.0009141
2912.76	0.00106
2924.33	0.00142
2935.91	0.00238
2947.48	0.0055
2959.06	0.00494
2970.63	0.00298
2982.2	0.00299
2993.78	0.00333
3005.35	0.00385
3016.92	0.00476
3028.5	0.00608
3040.07	0.00669
3051.65	0.00864
3063.22	0.00772
3074.79	0.00636
3086.37	0.0058
3097.94	0.00491
3109.52	0.00415
3121.09	0.00304
3132.66	0.00204
3144.24	0.00134
3155.81	0.00111
3167.38	0.0009046
3178.96	0.0007362
3190.53	0.000587
3202.11	0.0004191
3213.68	0.0003307
3225.25	0.0003298
3236.83	0.000306
3248.4	0.0002435
3259.98	0.0001401
3271.55	0.0001484
3283.12	0.0002195
3294.7	0.0001414
3306.27	0.0001056
3317.84	0.0001944
3329.42	0.0001219
3340.99	0.0001691
3352.57	0.0001597
3364.14	0.0001277
3375.71	0.0001882
3387.29	0.0002307
3398.86	0.0001505
3410.43	8.997e-05
3422.01	0.0001847
3433.58	0.0002458
3445.16	0.0002204
3456.73	0.0003764
3468.3	0.0003877
3479.88	0.000467
3491.45	0.0006166
3503.03	0.0008824
3514.6	0.00129
3526.17	0.00191
3537.75	0.00264
3549.32	0.00311
3560.89	0.00253
3572.47	0.00174
3584.04	0.00115
3595.62	0.0008313
3607.19	0.0005303
3618.76	0.0003963
3630.34	0.0003518
3641.91	0.0003032
3653.49	0.0003434
3665.06	0.0003888
3676.63	0.0002593
3688.21	0.0002662
3699.78	0.0001743
3711.35	0.0002477
3722.93	0.0002046
3734.5	0.0001922
3746.08	0.0001264
3757.65	0.0002519
3769.22	0.0001201
3780.8	0.0001888
3792.37	0.0002109
3803.94	0.0001279
3815.52	9.764e-05
3827.09	0.0002084
3838.67	0.0001885
3850.24	0.0002049
3861.81	0.0003609
3873.39	0.0002892
3884.96	0.0003502
3896.54	0.0003201
3908.11	0.0002579
3919.68	0.0002808
3931.26	0.0004466
3942.83	0.0003468
3954.4	0.0004631
3965.98	0.0004901
3977.55	0.0004256
3989.13	0.0005832
4000.7	0.0005519
