Infrared Spectrum: Maleimide, N-(2,6-xylyl)-
Formula: C12 H11 N O2
CAS: 1206-49-1
State: SOLUTION (CCl4 FOR 3800-1340, CS2 FOR 1340-450 CM^-^1)
Class: COBLENTZ III
Instrument: DOW KBr FOREPRISM-GRATING
Instrument parameters: BLAZED AT 3.5, 12.0, 20.0 MICRON AND CHANGED AT 5.0, 7.5, 14.9 MICRON
Sampling: TRANSMISSION
Path length: 0.011 CM, 0.011 CM
Resolution: 2
Origin: DOW CHEMICAL COMPANY
1/CM	TRANSMITTANCE
3800	0.9195
3791	0.9158
3782	0.9085
3773	0.9152
3764	0.921
3755	0.9257
3746	0.9304
3737	0.9345
3728	0.9328
3719	0.9282
3710	0.9274
3701	0.9221
3692	0.9134
3683	0.9085
3674	0.9103
3665	0.9179
3656	0.914
3647	0.9161
3638	0.9171
3629	0.9122
3620	0.9109
3611	0.9036
3602	0.8939
3593	0.8976
3584	0.8953
3575	0.8768
3566	0.877
3557	0.8717
3548	0.8688
3539	0.8649
3530	0.8637
3521	0.8594
3512	0.8557
3503	0.847
3494	0.8227
3485	0.6736
3476	0.7007
3467	0.7923
3458	0.8217
3449	0.8277
3440	0.8293
3431	0.8296
3422	0.8293
3413	0.8293
3404	0.8286
3395	0.8273
3386	0.8262
3377	0.8255
3368	0.8251
3359	0.8249
3350	0.8245
3341	0.8231
3332	0.8221
3323	0.821
3314	0.82
3305	0.8205
3296	0.8179
3287	0.8171
3278	0.8179
3269	0.8181
3260	0.818
3251	0.8177
3242	0.8173
3233	0.8164
3224	0.8152
3215	0.8138
3206	0.8103
3197	0.8086
3188	0.8049
3179	0.7891
3170	0.7771
3161	0.778
3152	0.7781
3143	0.7732
3134	0.769
3125	0.7484
3116	0.7034
3107	0.6702
3098	0.6892
3089	0.6841
3080	0.6464
3071	0.6831
3062	0.6755
3053	0.6358
3044	0.6313
3035	0.626
3026	0.6926
3017	0.7217
3008	0.7196
2999	0.6517
2990	0.5636
2981	0.5652
2972	0.5845
2963	0.5835
2954	0.5985
2945	0.6493
2936	0.5911
2927	0.5176
2918	0.583
2909	0.7074
2900	0.7645
2891	0.7717
2882	0.7508
2873	0.6985
2864	0.6642
2855	0.7722
2846	0.817
2837	0.8291
2828	0.836
2819	0.8438
2810	0.8503
2801	0.8589
2792	0.8628
2783	0.858
2774	0.8638
2765	0.8673
2756	0.8677
2747	0.8484
2738	0.834
2729	0.8615
2720	0.8767
2711	0.8817
2702	0.8814
2693	0.8798
2684	0.8777
2675	0.8791
2666	0.881
2657	0.8842
2648	0.8765
2639	0.8682
2630	0.8718
2621	0.8834
2612	0.8891
2603	0.8914
2594	0.8928
2585	0.8929
2576	0.8908
2567	0.8877
2558	0.8869
2549	0.8862
2540	0.874
2531	0.8566
2522	0.8571
2513	0.8774
2504	0.8899
2495	0.8973
2486	0.9021
2477	0.9079
2468	0.9113
2459	0.9146
2450	0.9174
2441	0.9178
2432	0.9155
2423	0.9111
2414	0.9055
2405	0.9155
2396	0.9152
2387	0.9107
2378	0.9106
2369	0.9139
2360	0.9167
2351	0.9165
2342	0.9178
2333	0.9234
2324	0.9323
2315	0.9318
2306	0.9225
2297	0.9301
2288	0.9367
2279	0.9408
2270	0.939
2261	0.9322
2252	0.9281
2243	0.9295
2234	0.9332
2225	0.9359
2216	0.9343
2207	0.9342
2198	0.9341
2189	0.9257
2180	0.9245
2171	0.9294
2162	0.9271
2153	0.9203
2144	0.9195
2135	0.9209
2126	0.9195
2117	0.9217
2108	0.9259
2099	0.925
2090	0.9153
2081	0.9118
2072	0.9079
2063	0.8909
2054	0.9136
2045	0.9113
2036	0.9118
2027	0.9192
2018	0.9172
2009	0.905
2000	0.8803
1991	0.886
1982	0.8877
1973	0.8718
1964	0.8709
1955	0.8848
1946	0.871
1937	0.8379
1928	0.8603
1919	0.8664
1910	0.8786
1901	0.8762
1892	0.7451
1883	0.8381
1874	0.8743
1865	0.8612
1856	0.8571
1847	0.8737
1838	0.8802
1829	0.8652
1820	0.8481
1811	0.7395
1802	0.7585
1793	0.7803
1784	0.698
1775	0.621
1766	0.6256
1757	0.5801
1748	0.4755
1739	0.3985
1730	0.0906
1721	0.0002
1712	0.0002
1703	0.2823
1694	0.324
1685	0.6878
1676	0.7604
1667	0.7836
1658	0.7724
1649	0.8008
1640	0.6769
1631	0.7842
1622	0.7879
1613	0.7593
1604	0.6276
1595	0.6151
1586	0.6599
1577	0.7901
1568	0.7718
1559	0.7577
1550	0.8327
1541	0.8425
1532	0.8099
1523	0.8009
1514	0.7787
1505	0.7125
1496	0.4974
1487	0.1483
1478	0.1042
1469	0.2827
1460	0.4374
1451	0.2797
1442	0.2063
1433	0.4684
1424	0.6637
1415	0.6764
1406	0.444
1397	0.377
1388	0.0111
1379	0.0268
1370	0.1507
1361	0.6344
1352	0.7533
1343	0.7227
1334	0.8067
1325	0.8054
1316	0.813
1307	0.8055
1298	0.7266
1289	0.7405
1280	0.7692
1271	0.8072
1262	0.5671
1253	0.8235
1244	0.8432
1235	0.8501
1226	0.8331
1217	0.8249
1208	0.8221
1199	0.5236
1190	0.6657
1181	0.7576
1172	0.5942
1163	0.4311
1154	0.0156
1145	0.1128
1136	0.6653
1127	0.7414
1118	0.7074
1109	0.7393
1100	0.7684
1091	0.7719
1082	0.8003
1073	0.8083
1064	0.7889
1055	0.6501
1046	0.7586
1037	0.7416
1028	0.7236
1019	0.5554
1010	0.8134
1001	0.8369
992	0.8418
983	0.857
974	0.8567
965	0.8521
956	0.8395
947	0.3743
938	0.7864
929	0.8259
920	0.7801
911	0.8375
902	0.8613
893	0.866
884	0.8778
875	0.8813
866	0.8722
857	0.8588
848	0.8453
839	0.7467
830	0.3103
821	0.3243
812	0.8163
803	0.8631
794	0.8618
785	0.8041
776	0.5983
767	0.0621
758	0.8154
749	0.8506
740	0.8347
731	0.638
722	0.8676
713	0.8723
704	0.8503
695	0.3854
686	0.2712
677	0.7759
668	0.872
659	0.4339
650	0.766
641	0.8475
632	0.8019
623	0.8581
614	0.8902
605	0.8902
596	0.8793
587	0.6505
578	0.8272
569	0.8966
560	0.8947
551	0.8825
542	0.8764
533	0.8735
524	0.8674
515	0.8556
506	0.8534
497	0.8483
488	0.8371
479	0.8188
470	0.784
461	0.6162
