Infrared Spectrum: Methyl 10,12-pentacosadiynoate
Formula: C 26 H 44 O 2
CAS: 120650-77-3
State: gas
Origin: EPA-IR VAPOR PHASE LIBRARY
1/CM	ABSORBANCE
549.9	0.0005026
559.547	0.0005042
569.193	0.0004332
578.84	0.0005521
588.486	0.0004783
598.133	0.0004779
607.779	0.0004614
617.426	0.00040028
627.072	0.00036594
636.719	0.00036083
646.365	0.0003051
656.012	0.000281
665.658	0.000198
675.305	0.0002403
684.951	0.00030967
694.598	0.0004019
704.245	0.0006276
713.891	0.0008529
723.538	0.0009068
733.184	0.0008152
742.831	0.0006337
752.477	0.0005932
762.124	0.0005745
771.77	0.0005407
781.417	0.0005263
791.063	0.0004844
800.71	0.0005176
810.356	0.0005269
820.003	0.0006087
829.649	0.0006586
839.296	0.0006562
848.943	0.0006819
858.589	0.0006529
868.236	0.0006052
877.882	0.0005518
887.529	0.0004911
897.175	0.00037525
906.822	0.000335
916.468	0.0002788
926.115	0.0002738
935.761	0.0002815
945.408	0.0002628
955.054	0.0002879
964.701	0.00034761
974.347	0.0004899
983.994	0.0006493
993.64	0.0009573
1003.29	0.0012537
1012.93	0.001556
1022.58	0.001646
1032.23	0.001506
1041.87	0.0012849
1051.52	0.0011267
1061.17	0.0011411
1070.81	0.001336
1080.46	0.001596
1090.11	0.001836
1099.75	0.001836
1109.4	0.001856
1119.05	0.002136
1128.69	0.002956
1138.34	0.004016
1147.99	0.005146
1157.63	0.006396
1167.28	0.007396
1176.92	0.007446
1186.57	0.006606
1196.22	0.006186
1205.86	0.005796
1215.51	0.005516
1225.16	0.005446
1234.8	0.005516
1244.45	0.005396
1254.1	0.005036
1263.74	0.004296
1273.39	0.003636
1283.04	0.003326
1292.68	0.003246
1302.33	0.003396
1311.98	0.003726
1321.62	0.004266
1331.27	0.003756
1340.92	0.003626
1350.56	0.004056
1360.21	0.003656
1369.86	0.002836
1379.5	0.001846
1389.15	0.0012414
1398.79	0.0009924
1408.44	0.0010556
1418.09	0.001446
1427.73	0.002716
1437.38	0.005096
1447.03	0.004246
1456.67	0.004566
1466.32	0.003946
1475.97	0.002116
1485.61	0.0011557
1495.26	0.0007414
1504.91	0.0005318
1514.55	0.0004419
1524.2	0.00037982
1533.85	0.00034315
1543.49	0.0003037
1553.14	0.0002734
1562.79	0.0002651
1572.43	0.0002382
1582.08	0.000198
1591.73	0.0002309
1601.37	0.000174
1611.02	0.000196
1620.67	0.000155
1630.31	0.000163
1639.96	0.000147
1649.6	0.00016
1659.25	0.000212
1668.9	0.000214
1678.54	0.0002892
1688.19	0.00035295
1697.84	0.0005209
1707.48	0.0008526
1717.13	0.001496
1726.78	0.002666
1736.42	0.004756
1746.07	0.007956
1755.72	0.011786
1765.36	0.009696
1775.01	0.005686
1784.66	0.002886
1794.3	0.0012582
1803.95	0.0006343
1813.6	0.00035001
1823.24	0.0002552
1832.89	0.000173
1842.54	0.000152
1852.18	0.000139
1861.83	0.000133
1871.47	0.00013
1881.12	0.000134
1890.77	0.000106
1900.41	0.000123
1910.06	0.000112
1919.71	0.000134
1929.35	0.000124
1939	0.000146
1948.65	0.000132
1958.29	0.000137
1967.94	0.000151
1977.59	0.0002
1987.23	0.000215
1996.88	0.000199
2006.53	0.0002197
2016.17	0.0002369
2025.82	0.0002536
2035.47	0.0002639
2045.11	0.0002686
2054.76	0.000256
2064.41	0.0002246
2074.05	0.0002264
2083.7	0.000197
2093.35	0.000181
2102.99	0.000183
2112.64	0.00017
2122.28	0.000159
2131.93	0.000169
2141.58	0.00019
2151.22	0.000215
2160.87	0.000201
2170.52	0.000205
2180.16	0.0002207
2189.81	0.000193
2199.46	0.000196
2209.1	0.000192
2218.75	0.000192
2228.4	0.000202
2238.04	0.000207
2247.69	0.0002314
2257.34	0.000199
2266.98	0.000185
2276.63	0.000204
2286.28	0.000203
2295.92	0.000211
2305.57	0.00021
2315.22	0.000199
2324.86	0.000203
2334.51	0.000188
2344.16	0.000201
2353.8	0.0002374
2363.45	0.000213
2373.09	0.0002382
2382.74	0.0002297
2392.39	0.000192
2402.03	0.000203
2411.68	0.000207
2421.33	0.000206
2430.97	0.000211
2440.62	0.000197
2450.27	0.000183
2459.91	0.0002167
2469.56	0.000209
2479.21	0.000194
2488.85	0.000197
2498.5	0.00021
2508.15	0.0002309
2517.79	0.000231
2527.44	0.0002501
2537.09	0.0002664
2546.73	0.0002801
2556.38	0.00031255
2566.03	0.00033891
2575.67	0.000325968
2585.32	0.00035188
2594.96	0.00038221
2604.61	0.0004214
2614.26	0.0004243
2623.9	0.0004637
2633.55	0.0005075
2643.2	0.0005469
2652.84	0.000584
2662.49	0.0006275
2672.14	0.0006319
2681.78	0.0006698
2691.43	0.0006726
2701.08	0.0005803
2710.72	0.000579
2720.37	0.0005963
2730.02	0.0006114
2739.66	0.0006663
2749.31	0.0006966
2758.96	0.0007396
2768.6	0.0007449
2778.25	0.0008544
2787.9	0.0010137
2797.54	0.0011909
2807.19	0.001506
2816.84	0.001876
2826.48	0.002486
2836.13	0.003756
2845.77	0.006676
2855.42	0.012386
2865.07	0.017856
2874.71	0.013096
2884.36	0.009566
2894.01	0.009336
2903.65	0.013286
2913.3	0.020516
2922.95	0.032106
2932.59	0.046816
2942.24	0.042686
2951.89	0.025506
2961.53	0.016566
2971.18	0.011236
2980.83	0.006346
2990.47	0.004166
3000.12	0.003216
3009.77	0.002466
3019.41	0.002056
3029.06	0.001756
3038.71	0.001456
3048.35	0.0011719
3058	0.0010764
3067.64	0.0008459
3077.29	0.0007939
3086.94	0.0007569
3096.58	0.0006227
3106.23	0.0005287
3115.88	0.0005612
3125.52	0.0005327
3135.17	0.0004655
3144.82	0.00036926
3154.46	0.00041105
3164.11	0.00038146
3173.76	0.00039973
3183.4	0.00038178
3193.05	0.00040517
3202.7	0.0002719
3212.34	0.0003047
3221.99	0.0002801
3231.64	0.000216
3241.28	0.0002357
3250.93	0.0002838
3260.58	0.0002964
3270.22	0.0002566
3279.87	0.000155
3289.52	0.000114
3299.16	0.000207
3308.81	0.000159
3318.45	0.000209
3328.1	0.000157
3337.75	0.000169
3347.39	0.000101
3357.04	0.000199
3366.69	0.000192
3376.33	0.000177
3385.98	0.000174
3395.63	0.000174
3405.27	0.000129
3414.92	0.000127
3424.57	0.000157
3434.21	0.000135
3443.86	0.00012
3453.51	8.2e-05
3463.15	0.000142
3472.8	0.000118
3482.45	0.000165
3492.09	0.000115
3501.74	0.000166
3511.39	0.000185
3521.03	0.000183
3530.68	0.000126
3540.33	0.000183
3549.97	0
3559.62	5.1e-05
3569.26	7.7e-05
3578.91	0.000162
3588.56	0.000123
3598.2	0.000114
3607.85	0.000147
3617.5	0.000149
3627.14	0.000166
3636.79	9.6e-05
3646.44	0.000178
3656.08	0.0002246
3665.73	8.9e-05
3675.38	0.000109
3685.02	0.000156
3694.67	0.000137
3704.32	0.000136
3713.96	0.000124
3723.61	0.000109
3733.26	0.000107
3742.9	0.000148
3752.55	0.000162
3762.2	0.000115
3771.84	0.000137
3781.49	0.00017
3791.13	0.000118
3800.78	0.000196
3810.43	0.000219
3820.07	0.000165
3829.72	0.00015
3839.37	0.000154
3849.01	0.0002207
3858.66	0.000187
3868.31	0.000207
3877.95	0.0002413
3887.6	0.000202
3897.25	0.000209
3906.89	0.000145
3916.54	0.000237
3926.19	0.0002179
3935.83	0.000204
3945.48	0.0002762
3955.13	0.0002977
3964.77	0.0002814
3974.42	0.000189
3984.07	0.000275
3993.71	0.00032038
