Infrared Spectrum: Cyclopentadienylcobalt dicarbonyl
Formula: C7 H5 Co O2
CAS: 12078-25-0
State: LIQUID (NEAT)
Class: COBLENTZ III
Instrument: BECKMAN IR-9 (GRATING)
Instrument parameters: ORDER CHANGES: 670, 1200, 2000 CM^-^1
Sampling: TRANSMISSION
Path length: CAPILLARY BETWEEN KBr PLATES
Resolution: 2
Origin: DOW CHEMICAL COMPANY
1/CM	TRANSMITTANCE
3796	0.8711
3787	0.8707
3778	0.8703
3769	0.8698
3760	0.8693
3751	0.8688
3742	0.8684
3733	0.868
3724	0.8685
3715	0.8689
3706	0.8692
3697	0.8692
3688	0.8693
3679	0.8694
3670	0.8693
3661	0.8692
3652	0.869
3643	0.8686
3634	0.868
3625	0.8674
3616	0.8663
3607	0.8646
3598	0.8628
3589	0.8612
3580	0.8601
3571	0.8592
3562	0.8583
3553	0.8575
3544	0.8566
3535	0.8557
3526	0.8547
3517	0.8538
3508	0.8528
3499	0.852
3490	0.8516
3481	0.8513
3472	0.8511
3463	0.8509
3454	0.8506
3445	0.8502
3436	0.8499
3427	0.8495
3418	0.8491
3409	0.8486
3400	0.8487
3391	0.8487
3382	0.8488
3373	0.8488
3364	0.8489
3355	0.8489
3346	0.849
3337	0.8491
3328	0.8494
3319	0.8496
3310	0.8499
3301	0.8501
3292	0.8502
3283	0.8499
3274	0.8496
3265	0.8493
3256	0.849
3247	0.8487
3238	0.8485
3229	0.8484
3220	0.8492
3211	0.8499
3202	0.8509
3193	0.8518
3184	0.8524
3175	0.8521
3166	0.8515
3157	0.8508
3148	0.8491
3139	0.8405
3130	0.8331
3121	0.8325
3112	0.8339
3103	0.8366
3094	0.8395
3085	0.8427
3076	0.8459
3067	0.8489
3058	0.8515
3049	0.8541
3040	0.8568
3031	0.8581
3022	0.8589
3013	0.8592
3004	0.8586
2995	0.8554
2986	0.8517
2977	0.8478
2968	0.8439
2959	0.84
2950	0.8378
2941	0.8371
2932	0.8393
2923	0.8425
2914	0.8487
2905	0.8534
2896	0.855
2887	0.8545
2878	0.8534
2869	0.8515
2860	0.8499
2851	0.8553
2842	0.8602
2833	0.863
2824	0.8648
2815	0.8658
2806	0.8665
2797	0.8668
2788	0.8667
2779	0.8664
2770	0.8662
2761	0.866
2752	0.8659
2743	0.8658
2734	0.8658
2725	0.8662
2716	0.8667
2707	0.8667
2698	0.8666
2689	0.8668
2680	0.8671
2671	0.8671
2662	0.8661
2653	0.8633
2644	0.8618
2635	0.8616
2626	0.8618
2617	0.8625
2608	0.8605
2599	0.8583
2590	0.8575
2581	0.8604
2572	0.8618
2563	0.8614
2554	0.861
2545	0.8597
2536	0.8586
2527	0.8575
2518	0.8577
2509	0.8578
2500	0.858
2491	0.858
2482	0.8575
2473	0.8568
2464	0.8586
2455	0.8617
2446	0.8631
2437	0.8643
2428	0.8644
2419	0.8641
2410	0.8637
2401	0.8641
2392	0.8661
2383	0.8717
2374	0.8755
2365	0.8754
2356	0.8738
2347	0.8718
2338	0.8698
2329	0.8667
2320	0.8635
2311	0.8615
2302	0.8598
2293	0.8596
2284	0.8595
2275	0.8594
2266	0.8588
2257	0.8582
2248	0.8575
2239	0.8568
2230	0.8557
2221	0.8546
2212	0.8535
2203	0.8518
2194	0.8502
2185	0.8484
2176	0.8466
2167	0.8433
2158	0.8401
2149	0.8375
2140	0.836
2131	0.8346
2122	0.8306
2113	0.8265
2104	0.8213
2095	0.8142
2086	0.8025
2077	0.7861
2068	0.7591
2059	0.5956
2050	0.5795
2041	0.1731
2032	0.0462
2023	0.0451
2014	0.1783
2005	0.4814
1996	0.4797
1987	0.4127
1978	0.2179
1969	0.0717
1960	0.0466
1951	0.049
1942	0.1685
1933	0.4295
1924	0.5476
1915	0.6749
1906	0.7451
1897	0.7701
1888	0.7898
1879	0.8024
1870	0.8105
1861	0.8147
1852	0.8169
1843	0.8169
1834	0.8154
1825	0.8178
1816	0.8223
1807	0.8256
1798	0.8271
1789	0.8283
1780	0.829
1771	0.8294
1762	0.8297
1753	0.8295
1744	0.8292
1735	0.8289
1726	0.8274
1717	0.8203
1708	0.8215
1699	0.8263
1690	0.8293
1681	0.8301
1672	0.831
1663	0.8316
1654	0.8307
1645	0.8277
1636	0.824
1627	0.819
1618	0.8207
1609	0.8246
1600	0.8273
1591	0.829
1582	0.8288
1573	0.8275
1564	0.8151
1555	0.8133
1546	0.8141
1537	0.8146
1528	0.8138
1519	0.8128
1510	0.8118
1501	0.8108
1492	0.8096
1483	0.8078
1474	0.8054
1465	0.8024
1456	0.7999
1447	0.7956
1438	0.7994
1429	0.7978
1420	0.7848
1411	0.7657
1402	0.756
1393	0.7815
1384	0.7917
1375	0.8028
1366	0.8011
1357	0.8047
1348	0.821
1339	0.8365
1330	0.8467
1321	0.8528
1312	0.8568
1303	0.8585
1294	0.8636
1285	0.8689
1276	0.8706
1267	0.871
1258	0.8713
1249	0.8717
1240	0.8721
1231	0.873
1222	0.8732
1213	0.8715
1204	0.8698
1195	0.8691
1186	0.8611
1177	0.8674
1168	0.8656
1159	0.8641
1150	0.8592
1141	0.8558
1132	0.853
1123	0.8528
1114	0.8513
1105	0.8561
1096	0.8536
1087	0.8434
1078	0.8401
1069	0.8383
1060	0.8368
1051	0.8463
1042	0.8444
1033	0.8292
1024	0.7804
1015	0.8281
1006	0.863
997	0.8486
988	0.8399
979	0.8681
970	0.8959
961	0.9002
952	0.8994
943	0.8913
934	0.8875
925	0.8923
916	0.897
907	0.9
898	0.9018
889	0.8996
880	0.8845
871	0.8948
862	0.8966
853	0.8953
844	0.8874
835	0.8713
826	0.8106
817	0.5559
808	0.7345
799	0.8587
790	0.8881
781	0.9018
772	0.9083
763	0.9096
754	0.9116
745	0.9139
736	0.9184
727	0.9231
718	0.9283
709	0.9334
700	0.9381
691	0.9416
682	0.9459
673	0.9568
664	0.9612
655	0.9673
646	0.9701
637	0.9648
628	0.8793
619	0.5377
610	0.8368
601	0.9287
592	0.9501
583	0.919
574	0.8405
565	0.6338
556	0.7588
547	0.724
538	0.6707
529	0.9005
520	0.9115
511	0.8884
502	0.8895
493	0.8987
484	0.8849
475	0.8321
466	0.8448
457	0.8356
448	0.8203
439	0.7912
430	0.7483
421	0.709
412	0.6964
403	0.716
