Infrared Spectrum: PHENOTHIAZINE, 5-OXIDE
Formula: C12 H9 N O S
CAS: 1207-71-2
State: SOLID (OIL MULL)
Class: COBLENTZ III
Instrument: PERKIN-ELMER 21 (GRATING)
Instrument parameters: NaCl PRISM
Sampling: TRANSMISSION
Resolution: 2
Origin: SMITH KLINE & FRENCH LABS.
MICROMETERS	TRANSMITTANCE
2.013	0.336
2.04736	0.341
2.08172	0.357
2.11607	0.367
2.15043	0.368
2.18479	0.372
2.21915	0.381
2.25351	0.396
2.28787	0.399
2.32222	0.407
2.35658	0.408
2.39094	0.413
2.4253	0.419
2.45966	0.432
2.49402	0.449
2.52837	0.45
2.56273	0.46
2.59709	0.468
2.63145	0.473
2.66581	0.479
2.70016	0.492
2.73452	0.499
2.76888	0.507
2.80324	0.509
2.8376	0.514
2.87196	0.529
2.90631	0.528
2.94067	0.537
2.97503	0.543
3.00939	0.56
3.04375	0.563
3.07811	0.571
3.11246	0.478
3.14682	0.512
3.18118	0.51
3.21554	0.432
3.2499	0.489
3.28426	0.421
3.31861	0.341
3.35297	0.376
3.38733	0.121
3.42169	0.009
3.45605	0.003
3.4904	0.04
3.52476	0.064
3.55912	0.181
3.59348	0.408
3.62784	0.462
3.6622	0.494
3.69655	0.498
3.73091	0.522
3.76527	0.532
3.79963	0.542
3.83399	0.554
3.86835	0.566
3.9027	0.577
3.93706	0.587
3.97142	0.597
4.00578	0.605
4.04014	0.61
4.07449	0.614
4.10885	0.621
4.14321	0.626
4.17757	0.63
4.21193	0.632
4.24629	0.632
4.28064	0.632
4.315	0.641
4.34936	0.645
4.38372	0.652
4.41808	0.659
4.45244	0.66
4.48679	0.67
4.52115	0.673
4.55551	0.673
4.58987	0.674
4.62423	0.681
4.65858	0.689
4.69294	0.68
4.7273	0.695
4.76166	0.692
4.79602	0.692
4.83038	0.692
4.86473	0.692
4.89909	0.698
4.93345	0.708
4.96781	0.709
5.00217	0.705
5.03653	0.701
5.07088	0.707
5.10524	0.702
5.1396	0.701
5.17396	0.701
5.20832	0.711
5.24268	0.713
5.27703	0.722
5.31139	0.724
5.34575	0.717
5.38011	0.733
5.41447	0.739
5.44882	0.733
5.48318	0.733
5.51754	0.741
5.5519	0.74
5.58626	0.729
5.62062	0.745
5.65497	0.758
5.68933	0.753
5.72369	0.762
5.75805	0.752
5.79241	0.763
5.82677	0.772
5.86112	0.762
5.89548	0.768
5.92984	0.773
5.9642	0.784
5.99856	0.79
6.03291	0.785
6.06727	0.789
6.10163	0.812
6.13599	0.761
6.17035	0.511
6.20471	0.374
6.23906	0.574
6.27342	0.682
6.30778	0.451
6.34214	0.441
6.3765	0.571
6.41086	0.662
6.44521	0.7
6.47957	0.711
6.51393	0.718
6.54829	0.67
6.58265	0.516
6.617	0.599
6.65136	0.63
6.68572	0.701
6.72008	0.725
6.75444	0.359
6.7888	0.138
6.82315	0.077
6.85751	0.177
6.89187	0.297
6.92623	0.359
6.96059	0.373
6.99495	0.553
7.0293	0.621
7.06366	0.642
7.09802	0.67
7.13238	0.673
7.16674	0.689
7.2011	0.674
7.23545	0.552
7.26981	0.492
7.30417	0.571
7.33853	0.581
7.37289	0.479
7.40724	0.61
7.4416	0.66
7.47596	0.681
7.51032	0.689
7.54468	0.597
7.57904	0.651
7.61339	0.697
7.64775	0.711
7.68211	0.716
7.71647	0.729
7.75083	0.735
7.78519	0.738
7.81954	0.729
7.8539	0.61
7.88826	0.664
7.92262	0.594
7.95698	0.679
7.99133	0.664
8.02569	0.7
8.06005	0.714
8.09441	0.724
8.12877	0.716
8.16313	0.701
8.19748	0.731
8.23184	0.753
8.2662	0.76
8.30056	0.761
8.33492	0.769
8.36928	0.773
8.40363	0.779
8.43799	0.789
8.47235	0.793
8.50671	0.791
8.54107	0.784
8.57542	0.783
8.60978	0.731
8.64414	0.649
8.6785	0.701
8.71286	0.723
8.74722	0.747
8.78157	0.638
8.81593	0.681
8.85029	0.761
8.88465	0.768
8.91901	0.751
8.95337	0.78
8.98772	0.794
9.02208	0.81
9.05644	0.813
9.0908	0.818
9.12516	0.815
9.15951	0.811
9.19387	0.804
9.22823	0.793
9.26259	0.701
9.29695	0.46
9.33131	0.429
9.36566	0.593
9.40002	0.643
9.43438	0.682
9.46874	0.719
9.5031	0.768
9.53746	0.773
9.57181	0.783
9.60617	0.801
9.64053	0.804
9.67489	0.805
9.70925	0.752
9.74361	0.616
9.77796	0.703
9.81232	0.773
9.84668	0.789
9.88104	0.804
9.9154	0.799
9.94975	0.789
9.98411	0.764
10.0185	0.738
10.0528	0.681
10.0872	0.581
10.1215	0.512
10.1559	0.483
10.1903	0.365
10.2246	0.183
10.259	0.09
10.2933	0.108
10.3277	0.239
10.3621	0.35
10.3964	0.461
10.4308	0.532
10.4651	0.578
10.4995	0.616
10.5338	0.653
10.5682	0.681
10.6026	0.69
10.6369	0.652
10.6713	0.673
10.7056	0.659
10.74	0.713
10.7744	0.73
10.8087	0.744
10.8431	0.749
10.8774	0.757
10.9118	0.755
10.9461	0.763
10.9805	0.766
11.0149	0.772
11.0492	0.777
11.0836	0.782
11.1179	0.784
11.1523	0.774
11.1867	0.751
11.221	0.604
11.2554	0.62
11.2897	0.68
11.3241	0.673
11.3584	0.663
11.3928	0.669
11.4272	0.7
11.4615	0.725
11.4959	0.741
11.5302	0.682
11.5646	0.657
11.599	0.73
11.6333	0.627
11.6677	0.592
11.702	0.687
11.7364	0.741
11.7707	0.76
11.8051	0.776
11.8395	0.785
11.8738	0.798
11.9082	0.8
11.9425	0.8
11.9769	0.8
12.0112	0.801
12.0456	0.8
12.08	0.8
12.1143	0.791
12.1487	0.79
12.183	0.777
12.2174	0.769
12.2518	0.75
12.2861	0.742
12.3205	0.713
12.3548	0.7
12.3892	0.659
12.4235	0.583
12.4579	0.521
12.4923	0.488
12.5266	0.477
12.561	0.478
12.5953	0.499
12.6297	0.527
12.6641	0.553
12.6984	0.589
12.7328	0.604
12.7671	0.624
12.8015	0.623
12.8358	0.626
12.8702	0.632
12.9046	0.641
12.9389	0.642
12.9733	0.642
13.0076	0.57
13.042	0.47
13.0764	0.446
13.1107	0.552
13.1451	0.588
13.1794	0.624
13.2138	0.61
13.2481	0.533
13.2825	0.449
13.3169	0.26
13.3512	0.15
13.3856	0.16
13.4199	0.274
13.4543	0.408
13.4887	0.543
13.523	0.61
13.5574	0.643
13.5917	0.68
13.6261	0.69
13.6604	0.694
13.6948	0.697
13.7292	0.662
13.7635	0.654
13.7979	0.701
13.8322	0.7
13.8666	0.676
13.901	0.659
13.9353	0.694
13.9697	0.713
14.004	0.72
14.0384	0.728
14.0727	0.733
14.1071	0.733
14.1415	0.734
14.1758	0.735
14.2102	0.733
14.2445	0.733
14.2789	0.729
14.3133	0.724
14.3476	0.723
14.382	0.716
14.4163	0.69
14.4507	0.662
14.485	0.675
14.5194	0.692
14.5538	0.702
14.5881	0.705
14.6225	0.702
14.6568	0.69
14.6912	0.681
14.7256	0.678
14.7599	0.679
14.7943	0.68
14.8286	0.684
14.863	0.68
14.8973	0.678
14.9317	0.673
14.9661	0.67
