Infrared Spectrum: p-N,N-Bis(2-chloroethyl)aminobenzaldehyde
Formula: C 11 H 13 Cl 2 N O
CAS: 1208-03-3
State: gas
Origin: EPA-IR VAPOR PHASE LIBRARY
1/CM	ABSORBANCE
549.8	0.006
559.445	0.00538
569.09	0.004
578.734	0.00434
588.379	0.00587
598.024	0.0082
607.669	0.00622
617.313	0.00329
626.958	0.00254
636.603	0.00341
646.248	0.00351
655.893	0.00432
665.537	0.00894
675.182	0.01187
684.827	0.0071
694.472	0.0065
704.116	0.01247
713.761	0.02771
723.406	0.02456
733.051	0.01015
742.695	0.00875
752.34	0.01345
761.985	0.01768
771.63	0.0148
781.275	0.00972
790.919	0.00942
800.564	0.0146
810.209	0.02789
819.854	0.03636
829.498	0.02575
839.143	0.02345
848.788	0.01927
858.433	0.01284
868.078	0.01027
877.722	0.00685
887.367	0.0048
897.012	0.00475
906.657	0.00522
916.301	0.00807
925.946	0.01043
935.591	0.00855
945.236	0.00788
954.88	0.00911
964.525	0.00883
974.17	0.00706
983.815	0.00651
993.46	0.00776
1003.1	0.00935
1012.75	0.00771
1022.39	0.006
1032.04	0.00531
1041.68	0.00391
1051.33	0.00408
1060.97	0.004
1070.62	0.0033
1080.26	0.00363
1089.91	0.00413
1099.55	0.00567
1109.2	0.00708
1118.84	0.01115
1128.49	0.01726
1138.13	0.02656
1147.78	0.03551
1157.42	0.07351
1167.07	0.18475
1176.71	0.08189
1186.36	0.03168
1196	0.03042
1205.64	0.03355
1215.29	0.03837
1224.93	0.04626
1234.58	0.03772
1244.22	0.03107
1253.87	0.03268
1263.51	0.027
1273.16	0.02842
1282.8	0.02604
1292.45	0.02414
1302.09	0.02765
1311.74	0.03589
1321.38	0.03155
1331.03	0.02797
1340.67	0.04081
1350.32	0.06212
1359.96	0.05195
1369.61	0.03094
1379.25	0.02836
1388.9	0.03504
1398.54	0.02311
1408.18	0.01281
1417.83	0.01197
1427.47	0.01611
1437.12	0.01641
1446.76	0.01991
1456.41	0.01897
1466.05	0.01276
1475.7	0.01121
1485.34	0.0103
1494.99	0.01374
1504.63	0.03508
1514.28	0.07485
1523.92	0.0422
1533.57	0.0169
1543.21	0.01246
1552.86	0.01491
1562.5	0.03086
1572.15	0.04596
1581.79	0.05049
1591.44	0.10308
1601.08	0.17128
1610.73	0.12908
1620.37	0.04692
1630.01	0.02152
1639.66	0.01362
1649.3	0.01073
1658.95	0.0109
1668.59	0.01337
1678.24	0.01672
1687.88	0.02046
1697.53	0.03389
1707.17	0.11059
1716.82	0.19566
1726.46	0.04778
1736.11	0.01351
1745.75	0.00768
1755.4	0.00485
1765.04	0.00354
1774.69	0.00263
1784.33	0.00209
1793.98	0.00191
1803.62	0.00177
1813.27	0.00167
1822.91	0.00161
1832.55	0.00148
1842.2	0.00159
1851.84	0.00164
1861.49	0.00189
1871.13	0.00199
1880.78	0.00206
1890.42	0.00232
1900.07	0.00212
1909.71	0.00169
1919.36	0.0017
1929	0.00155
1938.65	0.00136
1948.29	0.00145
1957.94	0.00151
1967.58	0.00142
1977.23	0.00152
1986.87	0.00181
1996.52	0.00194
2006.16	0.00217
2015.81	0.00189
2025.45	0.00152
2035.1	0.00131
2044.74	0.00131
2054.38	0.00134
2064.03	0.00127
2073.67	0.001179
2083.32	0.0010594
2092.96	0.0010532
2102.61	0.000927
2112.25	0.000995
2121.9	0.000833
2131.54	0.0007886
2141.19	0.0008042
2150.83	0.0008252
2160.48	0.0008519
2170.12	0.0007513
2179.77	0.000815
2189.41	0.0008251
2199.06	0.0008955
2208.7	0.000871
2218.35	0.0008364
2227.99	0.0009375
2237.64	0.0009473
2247.28	0.0007892
2256.92	0.0007617
2266.57	0.0008117
2276.21	0.0009156
2285.86	0.0009333
2295.5	0.0008201
2305.15	0.0008234
2314.79	0.0010829
2324.44	0.0011374
2334.08	0.00135
2343.73	0.0012032
2353.37	0.0009834
2363.02	0.0008596
2372.66	0.0008566
2382.31	0.0010051
2391.95	0.0010319
2401.6	0.0011037
2411.24	0.0011754
2420.89	0.0012549
2430.53	0.00138
2440.18	0.00165
2449.82	0.00164
2459.47	0.00154
2469.11	0.00136
2478.75	0.00142
2488.4	0.00143
2498.04	0.00136
2507.69	0.00156
2517.33	0.00184
2526.98	0.00173
2536.62	0.00184
2546.27	0.00198
2555.91	0.00222
2565.56	0.00231
2575.2	0.00234
2584.85	0.00264
2594.49	0.00276
2604.14	0.00266
2613.78	0.00266
2623.43	0.00246
2633.07	0.00229
2642.72	0.00231
2652.36	0.00247
2662.01	0.00297
2671.65	0.00362
2681.29	0.00551
2690.94	0.00913
2700.58	0.01221
2710.23	0.01491
2719.87	0.02679
2729.52	0.03051
2739.16	0.01578
2748.81	0.0089
2758.45	0.0069
2768.1	0.00695
2777.74	0.00829
2787.39	0.01258
2797.03	0.02057
2806.68	0.02223
2816.32	0.01983
2825.97	0.01539
2835.61	0.01024
2845.26	0.00883
2854.9	0.00905
2864.55	0.00958
2874.19	0.00991
2883.84	0.01122
2893.48	0.01105
2903.12	0.00994
2912.77	0.00872
2922.41	0.00813
2932.06	0.00837
2941.7	0.00894
2951.35	0.01098
2960.99	0.01894
2970.64	0.02131
2980.28	0.01528
2989.93	0.01067
2999.57	0.01032
3009.22	0.01516
3018.86	0.0102
3028.51	0.00778
3038.15	0.00754
3047.8	0.0048
3057.44	0.00354
3067.09	0.00393
3076.73	0.00518
3086.38	0.00608
3096.02	0.00656
3105.67	0.0053
3115.31	0.00317
3124.95	0.00265
3134.6	0.00207
3144.24	0.00129
3153.89	0.0007418
3163.53	0.0007167
3173.18	0.000704
3182.82	0.0007853
3192.47	0.0008339
3202.11	0.0008664
3211.76	0.0008325
3221.4	0.0006572
3231.05	0.0003813
3240.69	0.0005094
3250.34	0.00033217
3259.98	0.0004342
3269.63	0.0004841
3279.27	0.00028523
3288.92	0.00030293
3298.56	0.0004506
3308.21	0.00033401
3317.85	0.0004244
3327.49	0.0004147
3337.14	0.00029575
3346.78	0.0004746
3356.43	0.0004704
3366.07	0.0006662
3375.72	0.0007834
3385.36	0.0010746
3395.01	0.00164
3404.65	0.00222
3414.3	0.00207
3423.94	0.00146
3433.59	0.0008873
3443.23	0.0005435
3452.88	0.0005705
3462.52	0.00034696
3472.17	0.00030027
3481.81	0.0003749
3491.46	0.00027575
3501.1	0.0003682
3510.75	0.000265463
3520.39	0.00030767
3530.04	0.0004017
3539.68	0.0001709
3549.32	5.9e-05
3558.97	0.000144
3568.61	0.000263379
3578.26	0.0003264
3587.9	8.3e-05
3597.55	0.00028062
3607.19	0.00031405
3616.84	0.00022
3626.48	0.0005389
3636.13	0.00032936
3645.77	0.0005747
3655.42	0.0004534
3665.06	0.0005151
3674.71	0.000462
3684.35	0.00029988
3694	0.0004408
3703.64	0.0004482
3713.29	0.00034678
3722.93	0.0005384
3732.58	0.0003269
3742.22	0.0004579
3751.86	0.00035228
3761.51	0.00029406
3771.15	0.0003896
3780.8	0.0003907
3790.44	0.00027387
3800.09	0.0004707
3809.73	0.0005808
3819.38	0.0005426
3829.02	0.0005338
3838.67	0.000455
3848.31	0.000366
3857.96	0.000245
3867.6	0.000235
3877.25	0.000472
3886.89	0.000473
3896.54	0.000236
3906.18	0.0004451
3915.83	0.00030598
3925.47	0.00027971
3935.12	0.0004542
3944.76	0.0003791
3954.41	0.0004969
3964.05	0.0004781
3973.69	0.00033844
3983.34	0.0004025
3992.98	0.0008347
