Infrared Spectrum: Malathion
Formula: C 10 H 19 O 6 P S 2
CAS: 121-75-5
State: gas
Instrument: HP-GC/MS/IRD
Origin: NIST Mass Spectrometry Data Center
1/CM	ABSORBANCE
550	0.003648
562	0.0004845
574	5.7e-05
586	0.0001425
598	0.000684
610	0.0020805
622	0.0053865
634	0.0126255
646	0.0355395
658	0.120356
670	0.092568
682	0.0260775
694	0.01026
706	0.005415
718	0.0036765
730	0.0024795
742	0.0023655
754	0.003933
766	0.0079515
778	0.017499
790	0.038988
802	0.065778
814	0.0887205
826	0.092454
838	0.0533235
850	0.0297825
862	0.020292
874	0.0114285
886	0.006327
898	0.0047595
910	0.0051585
922	0.007467
934	0.00741
946	0.0071535
958	0.0090915
970	0.013794
982	0.0183255
994	0.0293835
1006	0.061332
1018	0.144409
1030	0.266902
1042	0.254733
1054	0.181488
1066	0.108443
1078	0.063669
1090	0.052611
1102	0.052098
1114	0.0454005
1126	0.0530385
1138	0.08835
1150	0.147003
1162	0.170516
1174	0.14954
1186	0.128364
1198	0.115881
1210	0.110837
1222	0.106961
1234	0.112233
1246	0.111178
1258	0.0935085
1270	0.068343
1282	0.057855
1294	0.0541215
1306	0.0504165
1318	0.0474525
1330	0.040698
1342	0.039216
1354	0.0326895
1366	0.0357675
1378	0.0382185
1390	0.019551
1402	0.0177555
1414	0.0195795
1426	0.0184965
1438	0.017442
1450	0.020976
1462	0.0221445
1474	0.021261
1486	0.0122835
1498	0.0069255
1510	0.0047595
1522	0.00399
1534	0.0037335
1546	0.0035625
1558	0.003192
1570	0.002964
1582	0.002565
1594	0.0023085
1606	0.002166
1618	0.0021375
1630	0.0021375
1642	0.002223
1654	0.002451
1666	0.0032205
1678	0.0045315
1690	0.0070395
1702	0.012027
1714	0.020235
1726	0.03648
1738	0.0918555
1750	0.227573
1762	0.168948
1774	0.0602205
1786	0.025308
1798	0.013224
1810	0.0082935
1822	0.0063555
1834	0.0056145
1846	0.005244
1858	0.004731
1870	0.0039045
1882	0.003078
1894	0.00228
1906	0.0015675
1918	0.0011115
1930	0.000912
1942	0.000855
1954	0.0008265
1966	0.0008265
1978	0.0008265
1990	0.0008835
2002	0.0009975
2014	0.0011115
2026	0.0010545
2038	0.0009405
2050	0.0009405
2062	0.001083
2074	0.00114
2086	0.0011115
2098	0.0008835
2110	0.0005985
2122	0.000342
2134	0.000228
2146	0.0001425
2158	8.55e-05
2170	2.85e-05
2182	2.85e-05
2194	0
2206	5.7e-05
2218	8.55e-05
2230	0.000171
2242	0.0002565
2254	0.000285
2266	0.0002565
2278	0.000285
2290	0.0002565
2302	0.0001995
2314	0.0002565
2326	0.000285
2338	0.0002565
2350	0.000228
2362	0.000171
2374	0.0002565
2386	0.0002565
2398	0.000285
2410	0.0003135
2422	0.0003135
2434	0.0002565
2446	0.000228
2458	0.000285
2470	0.0001995
2482	0.0001995
2494	0.000171
2506	8.55e-05
2518	8.55e-05
2530	5.7e-05
2542	5.7e-05
2554	5.7e-05
2566	5.7e-05
2578	8.55e-05
2590	0.0001425
2602	0.0001995
2614	0.0002565
2626	0.000228
2638	0.0001995
2650	0.0001425
2662	0.000114
2674	0.000114
2686	0.000114
2698	8.55e-05
2710	0.000114
2722	0.0003135
2734	0.00057
2746	0.0006555
2758	0.000741
2770	0.001026
2782	0.0013395
2794	0.0015105
2806	0.0019665
2818	0.002964
2830	0.004617
2842	0.0083505
2854	0.016929
2866	0.010602
2878	0.011685
2890	0.014763
2902	0.017784
2914	0.021888
2926	0.0233415
2938	0.0377055
2950	0.060534
2962	0.061218
2974	0.0478515
2986	0.064239
2998	0.0449445
3010	0.0300105
3022	0.0205485
3034	0.012825
3046	0.0082935
3058	0.0062985
3070	0.0052725
3082	0.0045885
3094	0.004047
3106	0.0033915
3118	0.002736
3130	0.0021375
3142	0.00171
3154	0.001368
3166	0.0010545
3178	0.0008835
3190	0.000684
3202	0.0005985
3214	0.0004275
3226	0.000342
3238	0.000285
3250	0.0001995
3262	0.000171
3274	0.0001425
3286	0.000114
3298	0.000114
3310	8.55e-05
3322	2.85e-05
3334	8.55e-05
3346	8.55e-05
3358	0.0001425
3370	0.0001425
3382	0.000171
3394	0.000114
3406	0.0001995
3418	0.0002565
3430	0.0002565
3442	0.0004275
3454	0.0005985
3466	0.001026
3478	0.001824
3490	0.0020235
3502	0.001653
3514	0.000969
3526	0.000684
3538	0.000456
3550	0.0002565
3562	0.0001995
3574	8.55e-05
3586	8.55e-05
3598	8.55e-05
3610	8.55e-05
3622	8.55e-05
3634	5.7e-05
3646	5.7e-05
3658	5.7e-05
3670	8.55e-05
3682	0
3694	0.000114
3706	8.55e-05
3718	0.000171
3730	0.000114
3742	5.7e-05
3754	0.000114
3766	0.0001425
3778	0.0002565
3790	0.0001995
3802	0.000228
3814	0.0001995
3826	0.0002565
3838	0.0002565
