Infrared Spectrum: ISOPHTHALIC ACID
Formula: C8 H6 O4
CAS: 121-91-5
State: SOLID (SPLIT MULL)
Class: COBLENTZ III
Instrument: BECKMAN IR-9 (GRATING)
Instrument parameters: ORDER CHANGES: 670, 1200, 2000 CM^-^1
Sampling: TRANSMISSION
Resolution: 2
Origin: DOW CHEMICAL COMPANY
1/CM	TRANSMITTANCE
3800	0.7361
3791	0.7381
3782	0.7401
3773	0.7419
3764	0.7441
3755	0.7461
3746	0.7482
3737	0.7501
3728	0.7521
3719	0.7542
3710	0.7561
3701	0.7582
3692	0.7601
3683	0.7621
3674	0.7642
3665	0.7661
3656	0.7678
3647	0.7696
3638	0.7711
3629	0.7728
3620	0.7745
3611	0.7761
3602	0.7775
3593	0.7787
3584	0.7799
3575	0.7811
3566	0.7825
3557	0.7838
3548	0.7851
3539	0.7865
3530	0.7878
3521	0.7892
3512	0.7905
3503	0.7917
3494	0.7928
3485	0.7938
3476	0.7942
3467	0.7944
3458	0.7946
3449	0.7944
3440	0.7946
3431	0.7974
3422	0.8003
3413	0.8041
3404	0.8074
3395	0.8094
3386	0.8106
3377	0.8115
3368	0.8108
3359	0.8092
3350	0.8064
3341	0.8032
3332	0.7976
3323	0.789
3314	0.7803
3305	0.7767
3296	0.7734
3287	0.7699
3278	0.7628
3269	0.7453
3260	0.731
3251	0.7168
3242	0.7021
3233	0.6868
3224	0.6715
3215	0.6564
3206	0.6411
3197	0.6252
3188	0.6093
3179	0.5928
3170	0.5765
3161	0.5586
3152	0.5408
3143	0.5248
3134	0.5076
3125	0.486
3116	0.4659
3107	0.449
3098	0.4286
3089	0.38
3080	0.3782
3071	0.3758
3062	0.3807
3053	0.3846
3044	0.3866
3035	0.38
3026	0.3659
3017	0.3503
3008	0.3397
2999	0.3321
2990	0.3318
2981	0.335
2972	0.3394
2963	0.3459
2954	0.355
2945	0.3658
2936	0.3726
2927	0.3721
2918	0.3621
2909	0.3473
2900	0.3344
2891	0.325
2882	0.3193
2873	0.3212
2864	0.3259
2855	0.3276
2846	0.325
2837	0.3163
2828	0.3105
2819	0.3145
2810	0.333
2801	0.3616
2792	0.3836
2783	0.4027
2774	0.4188
2765	0.4323
2756	0.4439
2747	0.4521
2738	0.4556
2729	0.4579
2720	0.4565
2711	0.4504
2702	0.4314
2693	0.4059
2684	0.3848
2675	0.3644
2666	0.3625
2657	0.3745
2648	0.3858
2639	0.3976
2630	0.4108
2621	0.4183
2612	0.4242
2603	0.4289
2594	0.4322
2585	0.4329
2576	0.4274
2567	0.3758
2558	0.3546
2549	0.3488
2540	0.356
2531	0.3734
2522	0.392
2513	0.4131
2504	0.4351
2495	0.4509
2486	0.4667
2477	0.4818
2468	0.497
2459	0.5122
2450	0.5275
2441	0.5465
2432	0.563
2423	0.5707
2414	0.5762
2405	0.5815
2396	0.5898
2387	0.6046
2378	0.626
2369	0.6392
2360	0.6449
2351	0.6478
2342	0.651
2333	0.6526
2324	0.654
2315	0.6599
2306	0.6703
2297	0.6818
2288	0.6917
2279	0.7015
2270	0.7108
2261	0.7194
2252	0.7281
2243	0.7367
2234	0.7454
2225	0.7511
2216	0.754
2207	0.7568
2198	0.76
2189	0.7657
2180	0.7728
2171	0.7834
2162	0.7918
2153	0.8001
2144	0.8071
2135	0.8136
2126	0.82
2117	0.8263
2108	0.8325
2099	0.8387
2090	0.8439
2081	0.8474
2072	0.8481
2063	0.8483
2054	0.8489
2045	0.852
2036	0.8596
2027	0.8681
2018	0.8704
2009	0.871
2000	0.8633
1991	0.8525
1982	0.8588
1973	0.8621
1964	0.8638
1955	0.8587
1946	0.8473
1937	0.8509
1928	0.8556
1919	0.859
1910	0.8612
1901	0.8608
1892	0.8695
1883	0.8748
1874	0.8638
1865	0.8578
1856	0.8618
1847	0.8601
1838	0.8564
1829	0.8551
1820	0.8605
1811	0.8662
1802	0.8689
1793	0.8668
1784	0.8607
1775	0.8743
1766	0.8914
1757	0.8891
1748	0.8415
1739	0.7918
1730	0.6721
1721	0.2999
1712	0.1328
1703	0.0359
1694	0.026
1685	0.054
1676	0.1469
1667	0.2685
1658	0.3612
1649	0.4532
1640	0.5452
1631	0.634
1622	0.656
1613	0.2146
1604	0.5103
1595	0.7003
1586	0.5417
1577	0.6249
1568	0.7368
1559	0.7935
1550	0.8223
1541	0.8342
1532	0.8352
1523	0.8447
1514	0.8454
1505	0.8657
1496	0.8468
1487	0.773
1478	0.8756
1469	0.8275
1460	0.6951
1451	0.7247
1442	0.7143
1433	0.5216
1424	0.241
1415	0.3142
1406	0.4962
1397	0.6878
1388	0.7565
1379	0.8028
1370	0.838
1361	0.8504
1352	0.8464
1343	0.8085
1334	0.6426
1325	0.3151
1316	0.2711
1307	0.2
1298	0.1402
1289	0.1025
1280	0.0599
1271	0.0849
1262	0.1521
1253	0.2457
1244	0.353
1235	0.4252
1226	0.4638
1217	0.4947
1208	0.5143
1199	0.5342
1190	0.5612
1181	0.5779
1172	0.5394
1163	0.4366
1154	0.5159
1145	0.6001
1136	0.6407
1127	0.6714
1118	0.6796
1109	0.6406
1100	0.6173
1091	0.6591
1082	0.6238
1073	0.6381
1064	0.6822
1055	0.6941
1046	0.6996
1037	0.7028
1028	0.7015
1019	0.7067
1010	0.7067
1001	0.6365
992	0.6878
983	0.6742
974	0.6526
965	0.6234
956	0.5719
947	0.5105
938	0.3982
929	0.4286
920	0.4775
911	0.567
902	0.6081
893	0.6079
884	0.6131
875	0.6431
866	0.6811
857	0.7056
848	0.7274
839	0.7369
830	0.6665
821	0.7538
812	0.779
803	0.7906
794	0.7931
785	0.7708
776	0.7757
767	0.7858
758	0.7846
749	0.7719
740	0.7271
731	0.3169
722	0.4546
713	0.7358
704	0.8076
695	0.7546
686	0.3097
677	0.6661
668	0.6324
659	0.7804
650	0.7694
641	0.8207
632	0.8362
623	0.846
614	0.8511
605	0.8521
596	0.8484
587	0.8345
578	0.755
569	0.6901
560	0.7058
551	0.7034
542	0.6392
533	0.6401
524	0.6894
515	0.7207
506	0.7492
497	0.7722
488	0.7897
479	0.7943
470	0.7888
461	0.7754
452	0.7597
443	0.7421
434	0.6988
425	0.6415
416	0.5872
407	0.5439
