Infrared Spectrum: m-Nitrobenzenesulfonamide
Formula: C6 H6 N2 O4 S
CAS: 121-52-8
State: SOLID (SPLIT MULL)
Class: COBLENTZ II
Instrument: DOW KBr FOREPRISM-GRATING
Instrument parameters: BLAZED AT 3.5, 12.0, 20.0 MICRON AND CHANGED AT 5.0, 7.5, 14.9 MICRON
Sampling: TRANSMISSION
Resolution: 2
Origin: DOW CHEMICAL COMPANY
1/CM	TRANSMITTANCE
3800	0.6247
3791	0.625
3782	0.6255
3773	0.626
3764	0.6269
3755	0.6277
3746	0.6296
3737	0.6317
3728	0.6339
3719	0.6359
3710	0.6377
3701	0.6394
3692	0.6411
3683	0.6428
3674	0.6447
3665	0.6467
3656	0.6488
3647	0.6508
3638	0.6528
3629	0.6548
3620	0.6561
3611	0.6575
3602	0.6589
3593	0.6605
3584	0.6624
3575	0.6642
3566	0.6665
3557	0.6697
3548	0.6728
3539	0.6757
3530	0.6784
3521	0.6811
3512	0.683
3503	0.6849
3494	0.688
3485	0.6911
3476	0.695
3467	0.6991
3458	0.703
3449	0.7068
3440	0.7107
3431	0.7151
3422	0.7195
3413	0.7217
3404	0.7201
3395	0.71
3386	0.6846
3377	0.6315
3368	0.5491
3359	0.3464
3350	0.1719
3341	0.2367
3332	0.3525
3323	0.4219
3314	0.4617
3305	0.4868
3296	0.5012
3287	0.5087
3278	0.5086
3269	0.266
3260	0.2466
3251	0.2985
3242	0.3804
3233	0.4674
3224	0.512
3215	0.5356
3206	0.5512
3197	0.5645
3188	0.5759
3179	0.5847
3170	0.591
3161	0.5967
3152	0.6019
3143	0.6066
3134	0.6112
3125	0.6139
3116	0.6162
3107	0.6068
3098	0.4449
3089	0.477
3080	0.5028
3071	0.5308
3062	0.5784
3053	0.5974
3044	0.6105
3035	0.6218
3026	0.6327
3017	0.6412
3008	0.6497
2999	0.6575
2990	0.6648
2981	0.6717
2972	0.6771
2963	0.6783
2954	0.6788
2945	0.679
2936	0.679
2927	0.6784
2918	0.6776
2909	0.6808
2900	0.69
2891	0.6921
2882	0.6932
2873	0.6897
2864	0.6833
2855	0.68
2846	0.6807
2837	0.6914
2828	0.7025
2819	0.7091
2810	0.7139
2801	0.7171
2792	0.7205
2783	0.7234
2774	0.7265
2765	0.7289
2756	0.7308
2747	0.7326
2738	0.7344
2729	0.7358
2720	0.7372
2711	0.7388
2702	0.7405
2693	0.7421
2684	0.744
2675	0.7454
2666	0.7458
2657	0.7464
2648	0.7461
2639	0.745
2630	0.7435
2621	0.7426
2612	0.7447
2603	0.7475
2594	0.7508
2585	0.7538
2576	0.7561
2567	0.7584
2558	0.7607
2549	0.7625
2540	0.7645
2531	0.7664
2522	0.768
2513	0.769
2504	0.7681
2495	0.7664
2486	0.7639
2477	0.7605
2468	0.7586
2459	0.7587
2450	0.7596
2441	0.7607
2432	0.7618
2423	0.763
2414	0.7643
2405	0.7654
2396	0.7658
2387	0.7662
2378	0.7676
2369	0.7693
2360	0.7715
2351	0.7744
2342	0.7799
2333	0.7864
2324	0.7917
2315	0.7934
2306	0.7865
2297	0.7785
2288	0.774
2279	0.7707
2270	0.7711
2261	0.7722
2252	0.7742
2243	0.7765
2234	0.7799
2225	0.783
2216	0.7861
2207	0.7898
2198	0.7934
2189	0.7953
2180	0.7978
2171	0.8008
2162	0.8041
2153	0.8068
2144	0.8097
2135	0.8125
2126	0.8151
2117	0.8178
2108	0.8202
2099	0.8225
2090	0.8249
2081	0.8275
2072	0.8306
2063	0.8341
2054	0.8349
2045	0.8357
2036	0.8368
2027	0.8381
2018	0.8395
2009	0.8413
2000	0.8399
1991	0.8217
1982	0.8278
1973	0.833
1964	0.8354
1955	0.8361
1946	0.8284
1937	0.8295
1928	0.837
1919	0.8385
1910	0.8394
1901	0.8395
1892	0.8366
1883	0.8378
1874	0.8393
1865	0.8399
1856	0.84
1847	0.8444
1838	0.8474
1829	0.8428
1820	0.8371
1811	0.8336
1802	0.8456
1793	0.8477
1784	0.8503
1775	0.8557
1766	0.8523
1757	0.8441
1748	0.8528
1739	0.8578
1730	0.8595
1721	0.8397
1712	0.8457
1703	0.8632
1694	0.865
1685	0.8574
1676	0.8674
1667	0.8721
1658	0.8716
1649	0.8721
1640	0.8716
1631	0.8693
1622	0.8625
1613	0.7328
1604	0.6903
1595	0.8051
1586	0.7725
1577	0.7965
1568	0.7947
1559	0.7815
1550	0.6293
1541	0.4908
1532	0.0406
1523	0.2327
1514	0.6175
1505	0.7015
1496	0.7418
1487	0.7664
1478	0.7636
1469	0.7468
1460	0.7258
1451	0.7658
1442	0.768
1433	0.6707
1424	0.7386
1415	0.7301
1406	0.7575
1397	0.7862
1388	0.794
1379	0.7805
1370	0.6818
1361	0.1774
1352	0.0564
1343	0.1086
1334	0.1277
1325	0.3386
1316	0.4696
1307	0.4277
1298	0.5542
1289	0.5679
1280	0.5519
1271	0.6244
1262	0.6661
1253	0.7057
1244	0.7307
1235	0.7246
1226	0.7345
1217	0.7192
1208	0.7062
1199	0.6134
1190	0.2257
1181	0.1829
1172	0.416
1163	0.3512
1154	0.5464
1145	0.6162
1136	0.5989
1127	0.4743
1118	0.6396
1109	0.6378
1100	0.6322
1091	0.6014
1082	0.5642
1073	0.4915
1064	0.6714
1055	0.7199
1046	0.7564
1037	0.7765
1028	0.7968
1019	0.8232
1010	0.8253
1001	0.7161
992	0.7854
983	0.8488
974	0.8528
965	0.8524
956	0.8687
947	0.7835
938	0.8704
929	0.874
920	0.7986
911	0.6057
902	0.5838
893	0.7908
884	0.8331
875	0.5274
866	0.8668
857	0.8423
848	0.8766
839	0.8721
830	0.8771
821	0.7438
812	0.676
803	0.8345
794	0.8108
785	0.7649
776	0.6415
767	0.4759
758	0.6956
749	0.8156
740	0.291
731	0.6701
722	0.6012
713	0.5862
704	0.5449
695	0.5182
686	0.5155
677	0.5123
668	0.2989
659	0.2355
650	0.6392
641	0.6279
632	0.63
623	0.6465
614	0.685
605	0.7026
596	0.4858
587	0.4959
578	0.8
569	0.8156
560	0.7356
551	0.5647
542	0.7662
533	0.7137
524	0.7775
515	0.8696
506	0.9045
497	0.9204
488	0.926
479	0.902
470	0.8363
461	0.8575
452	0.7178
443	0.8712
434	0.915
425	0.9391
416	0.9524
407	0.957
398	0.9601
