Infrared Spectrum: m-Nitrobenzenesulfonyl chloride
Formula: C 6 H 4 Cl N O 4 S
CAS: 121-51-7
State: gas
Origin: EPA-IR VAPOR PHASE LIBRARY
1/CM	ABSORBANCE
549.8	0.04388
559.445	0.05852
569.09	0.02915
578.734	0.05
588.379	0.07801
598.024	0.05555
607.669	0.02485
617.313	0.01174
626.958	0.00607
636.603	0.00434
646.248	0.00589
655.893	0.02597
665.537	0.03247
675.182	0.01894
684.827	0.00707
694.472	0.00259
704.116	0.00185
713.761	0.00231
723.406	0.00608
733.051	0.01083
742.695	0.00813
752.34	0.00945
761.985	0.00745
771.63	0.00345
781.275	0.00257
790.919	0.00319
800.564	0.0064
810.209	0.00553
819.854	0.00211
829.498	0.00139
839.143	0.0009085
848.788	0.00142
858.433	0.00339
868.078	0.01638
877.722	0.01826
887.367	0.00355
897.012	0.0023
906.657	0.00305
916.301	0.00277
925.946	0.00157
935.591	0.00137
945.236	0.001
954.88	0.00104
964.525	0.0006926
974.17	0.0008273
983.815	0.0005081
993.46	0.0008927
1003.1	0.0009969
1012.75	0.0007229
1022.39	0.0007166
1032.04	0.00122
1041.68	0.0015
1051.33	0.00314
1060.97	0.00775
1070.62	0.0114
1080.26	0.01165
1089.91	0.00662
1099.55	0.00469
1109.2	0.00429
1118.84	0.00609
1128.49	0.00721
1138.13	0.00689
1147.78	0.00686
1157.42	0.00906
1167.07	0.01695
1176.71	0.02736
1186.36	0.05065
1196	0.07195
1205.64	0.03218
1215.29	0.0086
1224.93	0.00424
1234.58	0.00267
1244.22	0.00201
1253.87	0.00169
1263.51	0.00195
1273.16	0.00399
1282.8	0.00455
1292.45	0.00405
1302.09	0.0044
1311.74	0.00499
1321.38	0.00644
1331.03	0.01023
1340.67	0.02837
1350.32	0.06639
1359.96	0.04287
1369.61	0.01196
1379.25	0.01222
1388.9	0.02036
1398.54	0.05195
1408.18	0.06698
1417.83	0.02455
1427.47	0.01305
1437.12	0.00896
1446.76	0.0043
1456.41	0.00517
1466.05	0.00682
1475.7	0.00481
1485.34	0.00314
1494.99	0.00436
1504.63	0.00703
1514.28	0.00725
1523.92	0.00855
1533.57	0.01882
1543.21	0.05096
1552.86	0.07113
1562.5	0.03542
1572.15	0.01275
1581.79	0.01073
1591.44	0.01472
1601.08	0.01825
1610.73	0.01427
1620.37	0.00527
1630.01	0.00259
1639.66	0.00271
1649.3	0.00245
1658.95	0.00161
1668.59	0.00111
1678.24	0.0007567
1687.88	0.0004281
1697.53	0.0004374
1707.17	0.0005513
1716.82	0.0006809
1726.46	0.0009745
1736.11	0.00153
1745.75	0.00105
1755.4	0.0006025
1765.04	0.0004451
1774.69	0.0004956
1784.33	0.0005724
1793.98	0.0007394
1803.62	0.0008086
1813.27	0.0009715
1822.91	0.0009888
1832.55	0.0009048
1842.2	0.0006111
1851.84	0.0007323
1861.49	0.0006752
1871.13	0.000776
1880.78	0.0006766
1890.42	0.0006338
1900.07	0.0007119
1909.71	0.00107
1919.36	0.00124
1929	0.0008166
1938.65	0.0005054
1948.29	0.0007032
1957.94	0.0007171
1967.58	0.0008779
1977.23	0.0007439
1986.87	0.0004979
1996.52	0.0004685
2006.16	0.0004634
2015.81	0.0004555
2025.45	0.0003431
2035.1	0.000333
2044.74	0.0004523
2054.38	0.0003029
2064.03	0.0002871
2073.67	0.0002419
2083.32	0.0003707
2092.96	0.0002927
2102.61	0.0004306
2112.25	0.0003605
2121.9	0.0003501
2131.54	0.0004793
2141.19	0.0004892
2150.83	0.0004271
2160.48	0.0003555
2170.12	0.0002722
2179.77	0.0003276
2189.41	0.0003881
2199.06	0.0004069
2208.7	0.0004264
2218.35	0.0003847
2227.99	0.0003903
2237.64	0.0003944
2247.28	0.0004663
2256.92	0.0005268
2266.57	0.0005057
2276.21	0.0004527
2285.86	0.0004447
2295.5	0.0004784
2305.15	0.0004135
2314.79	0.0003914
2324.44	0.0005815
2334.08	0.0006648
2343.73	0.0006282
2353.37	0.0006107
2363.02	0.0006048
2372.66	0.0004958
2382.31	0.0005665
2391.95	0.0005624
2401.6	0.0005522
2411.24	0.0005977
2420.89	0.0005711
2430.53	0.0005836
2440.18	0.0004948
2449.82	0.0004411
2459.47	0.0006755
2469.11	0.0006485
2478.75	0.0004583
2488.4	0.000444
2498.04	0.0004907
2507.69	0.0002978
2517.33	0.0003895
2526.98	0.0005799
2536.62	0.0006418
2546.27	0.0007216
2555.91	0.0008068
2565.56	0.0007357
2575.2	0.0009021
2584.85	0.0008529
2594.49	0.00103
2604.14	0.0006518
2613.78	0.0005858
2623.43	0.0004935
2633.07	0.0006851
2642.72	0.0006672
2652.36	0.0007343
2662.01	0.0005146
2671.65	0.0006341
2681.29	0.0008707
2690.94	0.00117
2700.58	0.00127
2710.23	0.0009013
2719.87	0.000927
2729.52	0.0009249
2739.16	0.000577
2748.81	0.0006345
2758.45	0.0006855
2768.1	0.0005284
2777.74	0.000648
2787.39	0.0005224
2797.03	0.0006557
2806.68	0.0008781
2816.32	0.0004741
2825.97	0.0007688
2835.61	0.000723
2845.26	0.0008527
2854.9	0.00108
2864.55	0.00126
2874.19	0.00164
2883.84	0.00222
2893.48	0.00237
2903.12	0.00184
2912.77	0.00167
2922.41	0.00172
2932.06	0.00169
2941.7	0.00184
2951.35	0.00163
2960.99	0.00162
2970.64	0.00191
2980.28	0.00119
2989.93	0.0009314
2999.57	0.000775
3009.22	0.0009444
3018.86	0.0008171
3028.51	0.0007442
3038.15	0.0005849
3047.8	0.0007807
3057.44	0.0008766
3067.09	0.0019
3076.73	0.00416
3086.38	0.00703
3096.02	0.00604
3105.67	0.00348
3115.31	0.00174
3124.95	0.00121
3134.6	0.00118
3144.24	0.0007208
3153.89	0.0007859
3163.53	0.000768
3173.18	0.0007624
3182.82	0.0008031
3192.47	0.0009415
3202.11	0.000798
3211.76	0.0008489
3221.4	0.0009409
3231.05	0.0009079
3240.69	0.0006743
3250.34	0.000855
3259.98	0.0004176
3269.63	0.0009447
3279.27	0.0006991
3288.92	0.0008696
3298.56	0.0008224
3308.21	0.0008279
3317.85	0.0008549
3327.49	0.0008425
3337.14	0.00103
3346.78	0.00105
3356.43	0.00057
3366.07	0.0007635
3375.72	0.000852
3385.36	0.0009109
3395.01	0.00109
3404.65	0.0008742
3414.3	0.00122
3423.94	0.0009972
3433.59	0.0008182
3443.23	0.0009053
3452.88	0.00101
3462.52	0.0007723
3472.17	0.000926
3481.81	0.0012
3491.46	0.00128
3501.1	0.0009901
3510.75	0.0008995
3520.39	0.000994
3530.04	0.00109
3539.68	0.0014
3549.32	0.00112
3558.97	0.0008994
3568.61	0.00109
3578.26	0.0009587
3587.9	0.001
3597.55	0.00124
3607.19	0.00129
3616.84	0.00102
3626.48	0.0011
3636.13	0.001
3645.77	0.00117
3655.42	0.00152
3665.06	0.00124
3674.71	0.00104
3684.35	0.00133
3694	0.00132
3703.64	0.00104
3713.29	0.00123
3722.93	0.0007492
3732.58	0.00143
3742.22	0.00132
3751.86	0.00129
3761.51	0.00152
3771.15	0.00124
3780.8	0.00129
3790.44	0.00134
3800.09	0.00146
3809.73	0.0009693
3819.38	0.00126
3829.02	0.00105
3838.67	0.00136
3848.31	0.00126
3857.96	0.00135
3867.6	0.00162
3877.25	0.00109
3886.89	0.00109
3896.54	0.00142
3906.18	0.00155
3915.83	0.00128
3925.47	0.00128
3935.12	0.00122
3944.76	0.00159
3954.41	0.00168
3964.05	0.00114
3973.69	0.0011
3983.34	0.00108
3992.98	0.00131
