Infrared Spectrum: 3-Ethoxy-4-hydroxybenzaldehyde
Formula: C 9 H 10 O 3
CAS: 121-32-4
State: gas
Origin: EPA-IR VAPOR PHASE LIBRARY
1/CM	ABSORBANCE
501.5	0.01518
513.074	0.01029
524.648	0.00688
536.222	0.00494
547.796	0.00367
559.37	0.00292
570.944	0.00298
582.518	0.00513
594.092	0.00541
605.666	0.0057
617.24	0.01789
628.814	0.01933
640.388	0.00665
651.962	0.00204
663.536	0.0011
675.11	0.0011
686.684	0.00143
698.258	0.00222
709.832	0.00533
721.406	0.01247
732.98	0.01756
744.554	0.0164
756.128	0.0103
767.702	0.01144
779.276	0.01226
790.85	0.01115
802.423	0.01442
813.997	0.02349
825.571	0.02143
837.145	0.01031
848.719	0.0073
860.293	0.00944
871.867	0.01374
883.441	0.01342
895.015	0.01
906.589	0.00601
918.163	0.00412
929.737	0.004
941.311	0.00437
952.885	0.00544
964.459	0.00699
976.033	0.00752
987.607	0.00736
999.181	0.00752
1010.76	0.01048
1022.33	0.0214
1033.9	0.03671
1045.48	0.03223
1057.05	0.01592
1068.63	0.00939
1080.2	0.00947
1091.77	0.01331
1103.35	0.02612
1114.92	0.04835
1126.49	0.04443
1138.07	0.04459
1149.64	0.05336
1161.22	0.04693
1172.79	0.05272
1184.36	0.06164
1195.94	0.06928
1207.51	0.05464
1219.09	0.03633
1230.66	0.04505
1242.23	0.06741
1253.81	0.08342
1265.38	0.14168
1276.96	0.1804
1288.53	0.10715
1300.1	0.03566
1311.68	0.01628
1323.25	0.01017
1334.83	0.00954
1346.4	0.01316
1357.97	0.02231
1369.55	0.03057
1381.12	0.04265
1392.7	0.04443
1404.27	0.02728
1415.84	0.01584
1427.42	0.02576
1438.99	0.0589
1450.57	0.04333
1462.14	0.01485
1473.71	0.01382
1485.29	0.02378
1496.86	0.06194
1508.44	0.09662
1520.01	0.04579
1531.58	0.01556
1543.16	0.00933
1554.73	0.00879
1566.31	0.01314
1577.88	0.03068
1589.45	0.0636
1601.03	0.07271
1612.6	0.04355
1624.18	0.01605
1635.75	0.00827
1647.32	0.0063
1658.9	0.00652
1670.47	0.00913
1682.05	0.01435
1693.62	0.03448
1705.19	0.12497
1716.77	0.15808
1728.34	0.04459
1739.92	0.01334
1751.49	0.00645
1763.06	0.00403
1774.64	0.00329
1786.21	0.00291
1797.79	0.00298
1809.36	0.0026
1820.93	0.00198
1832.51	0.00175
1844.08	0.00183
1855.66	0.00237
1867.23	0.00265
1878.8	0.00221
1890.38	0.0023
1901.95	0.00237
1913.53	0.002
1925.1	0.00172
1936.67	0.00148
1948.25	0.00126
1959.82	0.00114
1971.4	0.0012
1982.97	0.0013
1994.54	0.00132
2006.12	0.00126
2017.69	0.00124
2029.27	0.00123
2040.84	0.00129
2052.41	0.00141
2063.99	0.0015
2075.56	0.00154
2087.14	0.00137
2098.71	0.00115
2110.28	0.00114
2121.86	0.00106
2133.43	0.0009316
2145.01	0.0008013
2156.58	0.0007403
2168.15	0.0006573
2179.73	0.0005903
2191.3	0.0005115
2202.88	0.0004828
2214.45	0.0005558
2226.02	0.0006622
2237.6	0.0007041
2249.17	0.0006849
2260.74	0.0006773
2272.32	0.0008187
2283.89	0.001
2295.47	0.00121
2307.04	0.00122
2318.61	0.00105
2330.19	0.0008547
2341.76	0.0006926
2353.34	0.0006426
2364.91	0.0006549
2376.48	0.0007361
2388.06	0.0008745
2399.63	0.0009386
2411.21	0.00101
2422.78	0.0009785
2434.35	0.0009339
2445.93	0.0009167
2457.5	0.0009714
2469.08	0.00116
2480.65	0.00128
2492.22	0.00134
2503.8	0.00155
2515.37	0.00198
2526.95	0.00231
2538.52	0.00211
2550.09	0.00191
2561.67	0.00159
2573.24	0.00128
2584.82	0.00109
2596.39	0.00109
2607.96	0.00124
2619.54	0.00163
2631.11	0.00218
2642.69	0.00274
2654.26	0.00328
2665.83	0.00333
2677.41	0.00336
2688.98	0.00505
2700.56	0.01218
2712.13	0.02496
2723.7	0.02873
2735.28	0.01445
2746.85	0.00813
2758.43	0.00734
2770	0.00935
2781.57	0.01444
2793.15	0.01863
2804.72	0.02403
2816.3	0.02187
2827.87	0.01345
2839.44	0.00725
2851.02	0.00472
2862.59	0.00475
2874.17	0.00619
2885.74	0.00844
2897.31	0.01048
2908.89	0.01165
2920.46	0.01146
2932.04	0.01327
2943.61	0.01571
2955.18	0.01289
2966.76	0.01192
2978.33	0.0189
2989.91	0.02679
3001.48	0.01687
3013.05	0.00794
3024.63	0.00595
3036.2	0.00574
3047.78	0.00565
3059.35	0.00642
3070.92	0.00737
3082.5	0.00492
3094.07	0.00257
3105.65	0.00183
3117.22	0.00143
3128.79	0.00104
3140.37	0.000764
3151.94	0.000584
3163.52	0.0006853
3175.09	0.0006729
3186.66	0.0008164
3198.24	0.0009524
3209.81	0.0008765
3221.39	0.0006951
3232.96	0.0005345
3244.53	0.0004314
3256.11	0.0004895
3267.68	0.0003459
3279.26	0.0003366
3290.83	0.0002673
3302.4	0.0003949
3313.98	0.0003903
3325.55	0.0003611
3337.13	0.0002993
3348.7	0.0003262
3360.27	0.0004535
3371.85	0.0005955
3383.42	0.000984
3395	0.00185
3406.57	0.00253
3418.14	0.00187
3429.72	0.0008891
3441.29	0.0005666
3452.86	0.0004273
3464.44	0.0005577
3476.01	0.0006221
3487.59	0.0007322
3499.16	0.000923
3510.73	0.00131
3522.31	0.00223
3533.88	0.00446
3545.46	0.01286
3557.03	0.04328
3568.6	0.06769
3580.18	0.03989
3591.75	0.0101
3603.33	0.00341
3614.9	0.0018
3626.47	0.00129
3638.05	0.00215
3649.62	0.00195
3661.2	0.0007245
3672.77	0.0004063
3684.34	0.0003608
3695.92	0.0004315
3707.49	0.0003285
3719.07	0.000276
3730.64	0.0002544
3742.21	0.0002771
3753.79	0.0002808
3765.36	0.0003539
3776.94	0.0003792
3788.51	0.0003755
3800.08	0.0002367
3811.66	0.0003975
3823.23	0.0003419
3834.81	0.0004089
3846.38	0.0003916
3857.95	0.0004572
3869.53	0.0004582
3881.1	0.0004468
3892.68	0.0003269
3904.25	0.0002858
3915.82	0.0001742
3927.4	0.0003314
3938.97	0.0001904
3950.55	0.000302
3962.12	0.0003801
3973.69	0.0002538
3985.27	0.0003642
3996.84	0.0003875
