Infrared Spectrum: 3-t-Butyl-4-hydroxyanisole
Formula: C 11 H 16 O 2
CAS: 121-00-6
State: gas
Instrument: HP-GC/MS/IRD
Origin: NIST Mass Spectrometry Data Center
1/CM	ABSORBANCE
550	0.0013158
562	0.0010707
574	0.0022833
586	0.0025671
598	0.0012126
610	0.0008643
622	0.0014577
634	0.0015609
646	0.0007998
658	0.0001677
670	0.0003612
682	0.0027864
694	0.00387
706	0.0011481
718	0.0013029
730	0.0040893
742	0.0163959
754	0.0363909
766	0.0280704
778	0.0130935
790	0.0191436
802	0.0276705
814	0.0184341
826	0.0065661
838	0.003741
850	0.0059082
862	0.0082818
874	0.0110553
886	0.0066693
898	0.0044634
910	0.0066564
922	0.0055857
934	0.0031734
946	0.0017157
958	0.0016383
970	0.0023607
982	0.0034572
994	0.0055083
1006	0.0095718
1018	0.0159702
1030	0.0283929
1042	0.0558312
1054	0.0669123
1066	0.0434601
1078	0.0260322
1090	0.0133386
1102	0.0083592
1114	0.0095331
1126	0.0190533
1138	0.029154
1150	0.0374745
1162	0.0964404
1174	0.124382
1186	0.0773097
1198	0.0652224
1210	0.0854367
1222	0.109366
1234	0.0730269
1246	0.0412671
1258	0.0397578
1270	0.0665769
1282	0.0820956
1294	0.0588498
1306	0.0334626
1318	0.0352557
1330	0.0250131
1342	0.0117648
1354	0.0131967
1366	0.0253098
1378	0.0223041
1390	0.0310245
1402	0.0526062
1414	0.0688473
1426	0.0456144
1438	0.0284961
1450	0.0352686
1462	0.0515871
1474	0.070692
1486	0.104335
1498	0.117519
1510	0.0694923
1522	0.0236328
1534	0.0110553
1546	0.0078561
1558	0.0084366
1570	0.0143061
1582	0.0218784
1594	0.0205755
1606	0.0198918
1618	0.0147705
1630	0.0067854
1642	0.0035088
1654	0.0024897
1666	0.0020253
1678	0.0016641
1690	0.0015351
1702	0.0015093
1714	0.0015351
1726	0.0012771
1738	0.0013029
1750	0.0013545
1762	0.0012642
1774	0.0012513
1786	0.0011352
1798	0.0010707
1810	0.001161
1822	0.0016383
1834	0.0015867
1846	0.0008901
1858	0.0006192
1870	0.0003354
1882	2.58e-05
1894	9.03e-05
1906	0.0002967
1918	0.0003741
1930	0.0003354
1942	0.0003999
1954	0.0005676
1966	0.0007998
1978	0.0011094
1990	0.0013803
2002	0.0012384
2014	0.0008901
2026	0.0009546
2038	0.0010965
2050	0.0010062
2062	0.0009933
2074	0.0011223
2086	0.0011481
2098	0.0010449
2110	0.000903
2122	0.0007095
2134	0.0005289
2146	0.0002193
2158	3.87e-05
2170	0.0001677
2182	0.0003225
2194	0.0002709
2206	9.03e-05
2218	0
2230	0
2242	0
2254	3.87e-05
2266	0.0001677
2278	0.0002967
2290	0.0004644
2302	0.0005418
2314	0.0005934
2326	0.0006837
2338	0.000516
2350	0.0003612
2362	0.0004386
2374	0.0005934
2386	0.0006966
2398	0.0008256
2410	0.0009417
2422	0.0007611
2434	0.0006579
2446	0.0007095
2458	0.0008385
2470	0.0010062
2482	0.0011352
2494	0.0010707
2506	0.0008385
2518	0.0006063
2530	0.0003612
2542	0.0003483
2554	0.0004773
2566	0.0005031
2578	0.0003741
2590	0.0003999
2602	0.0004257
2614	0.0004386
2626	0.000516
2638	0.0006708
2650	0.0007095
2662	0.0006321
2674	0.0005676
2686	0.0005805
2698	0.0006837
2710	0.0009546
2722	0.001548
2734	0.0016254
2746	0.0015996
2758	0.0019221
2770	0.0022188
2782	0.0031089
2794	0.0042828
2806	0.0059082
2818	0.0087204
2830	0.0164217
2842	0.0255936
2854	0.0211431
2866	0.0266772
2878	0.0399255
2890	0.0432021
2902	0.0464916
2914	0.059598
2926	0.0657513
2938	0.0733365
2950	0.0931251
2962	0.119544
2974	0.112488
2986	0.0553539
2998	0.049149
3010	0.040635
3022	0.0221235
3034	0.0161121
3046	0.0104361
3058	0.0083334
3070	0.0097911
3082	0.0092622
3094	0.0060888
3106	0.0045279
3118	0.0041538
3130	0.0034572
3142	0.0025284
3154	0.0019092
3166	0.0017028
3178	0.001419
3190	0.0011868
3202	0.0010062
3214	0.0008256
3226	0.0006321
3238	0.0005934
3250	0.0004773
3262	0.000387
3274	0.0003612
3286	0.0004257
3298	0.0003612
3310	0.0002967
3322	0.0001806
3334	7.74e-05
3346	0.0001548
3358	0.0002967
3370	0.0005031
3382	0.0006837
3394	0.0005805
3406	0.000645
3418	0.0005418
3430	0.0004515
3442	0.0004902
3454	0.0004773
3466	0.0004128
3478	0.0003741
3490	0.0002967
3502	0.0002451
3514	0.0001677
3526	9.03e-05
3538	0.0001032
3550	9.03e-05
3562	0.0002064
3574	0.0002967
3586	0.0003354
3598	0.0006321
3610	0.0012255
3622	0.0030186
3634	0.0123969
3646	0.0403254
3658	0.0300699
3670	0.0135837
3682	0.0096105
3694	0.0056502
3706	0.0029412
3718	0.001548
3730	0.0009546
3742	0.0006837
3754	0.000516
3766	0.0004902
3778	0.0004902
3790	0.0005031
3802	0.000516
3814	0.0005676
3826	0.000645
3838	0.0006837
