Infrared Spectrum: GALLIC ACID, n-PROPYL ESTER
Formula: C10 H12 O5
CAS: 121-79-9
State: SOLID (KBr PELLET)
Class: COBLENTZ
Instrument: PERKIN-ELMER
Sampling: TRANSMISSION
Resolution: 4
Origin: HORMEL INSTITUTE
MICROMETERS	TRANSMITTANCE
2.054	0.837
2.08782	0.835
2.12164	0.83
2.15546	0.825
2.18928	0.825
2.2231	0.832
2.25692	0.842
2.29074	0.847
2.32456	0.851
2.35838	0.861
2.3922	0.866
2.42602	0.873
2.45984	0.873
2.49366	0.871
2.52749	0.871
2.56131	0.874
2.59513	0.876
2.62895	0.881
2.66277	0.888
2.69659	0.89
2.73041	0.886
2.76423	0.864
2.79805	0.766
2.83187	0.472
2.86569	0.104
2.89951	0.054
2.93333	0.054
2.96715	0.064
3.00097	0.042
3.03479	0.027
3.06861	0.064
3.10243	0.147
3.13625	0.213
3.17007	0.294
3.20389	0.395
3.23771	0.46
3.27153	0.521
3.30535	0.592
3.33917	0.598
3.37299	0.309
3.40681	0.433
3.44064	0.551
3.47446	0.551
3.50828	0.695
3.5421	0.751
3.57592	0.773
3.60974	0.769
3.64356	0.763
3.67738	0.756
3.7112	0.749
3.74502	0.751
3.77884	0.773
3.81266	0.798
3.84648	0.81
3.8803	0.803
3.91412	0.8
3.94794	0.808
3.98176	0.82
4.01558	0.827
4.0494	0.832
4.08322	0.844
4.11704	0.84
4.15086	0.839
4.18468	0.844
4.2185	0.859
4.25232	0.861
4.28614	0.862
4.31997	0.876
4.35379	0.883
4.38761	0.886
4.42143	0.89
4.45525	0.893
4.48907	0.895
4.52289	0.891
4.55671	0.886
4.59053	0.886
4.62435	0.89
4.65817	0.898
4.69199	0.901
4.72581	0.901
4.75963	0.901
4.79345	0.901
4.82727	0.903
4.86109	0.903
4.89491	0.903
4.92873	0.903
4.96255	0.903
4.99637	0.901
5.03019	0.9
5.06401	0.9
5.09783	0.901
5.13165	0.901
5.16547	0.901
5.19929	0.9
5.23312	0.898
5.26694	0.898
5.30076	0.901
5.33458	0.9
5.3684	0.9
5.40222	0.898
5.43604	0.895
5.46986	0.893
5.50368	0.886
5.5375	0.879
5.57132	0.871
5.60514	0.856
5.63896	0.84
5.67278	0.82
5.7066	0.781
5.74042	0.725
5.77424	0.575
5.80806	0.416
5.84188	0.209
5.8757	0.04
5.90952	0.023
5.94334	0.038
5.97716	0.199
6.01098	0.392
6.0448	0.473
6.07862	0.404
6.11244	0.131
6.14627	0.032
6.18009	0.02
6.21391	0.082
6.24773	0.265
6.28155	0.465
6.31537	0.578
6.34919	0.642
6.38301	0.683
6.41683	0.612
6.45065	0.384
6.48447	0.121
6.51829	0.223
6.55211	0.387
6.58593	0.505
6.61975	0.582
6.65357	0.651
6.68739	0.644
6.72121	0.553
6.75503	0.355
6.78885	0.131
6.82267	0.103
6.85649	0.152
6.89031	0.12
6.92413	0.184
6.95795	0.406
6.99177	0.47
7.02559	0.431
7.05942	0.165
7.09324	0.032
7.12706	0.043
7.16088	0.076
7.1947	0.055
7.22852	0.032
7.26234	0.045
7.29616	0.077
7.32998	0.076
7.3638	0.062
7.39762	0.037
7.43144	0.02
7.46526	0.015
7.49908	0.02
7.5329	0.013
7.56672	0.005
7.60054	0.003
7.63436	0.003
7.66818	0.005
7.702	0.023
7.73582	0.076
7.76964	0.142
7.80346	0.159
7.83728	0.152
7.8711	0.074
7.90492	0.021
7.93874	0.006
7.97257	0.005
8.00639	0.005
8.04021	0.003
8.07403	0.003
8.10785	0.01
8.14167	0.016
8.17549	0.025
8.20931	0.035
8.24313	0.038
8.27695	0.023
8.31077	0.008
8.34459	0.005
8.37841	0.011
8.41223	0.035
8.44605	0.076
8.47987	0.116
8.51369	0.15
8.54751	0.186
8.58133	0.235
8.61515	0.289
8.64897	0.321
8.68279	0.358
8.71661	0.402
8.75043	0.443
8.78425	0.475
8.81807	0.502
8.8519	0.531
8.88572	0.546
8.91954	0.556
8.95336	0.551
8.98718	0.522
9.021	0.456
9.05482	0.353
9.08864	0.301
9.12246	0.362
9.15628	0.45
9.1901	0.507
9.22392	0.571
9.25774	0.598
9.29156	0.602
9.32538	0.593
9.3592	0.558
9.39302	0.48
9.42684	0.353
9.46066	0.282
9.49448	0.247
9.5283	0.142
9.56212	0.042
9.59594	0.013
9.62976	0.008
9.66358	0.011
9.6974	0.027
9.73122	0.055
9.76505	0.093
9.79887	0.147
9.83269	0.267
9.86651	0.375
9.90033	0.433
9.93415	0.421
9.96797	0.304
10.0018	0.172
10.0356	0.143
10.0694	0.223
10.1032	0.314
10.1371	0.331
10.1709	0.262
10.2047	0.243
10.2385	0.313
10.2724	0.441
10.3062	0.549
10.34	0.614
10.3738	0.661
10.4076	0.695
10.4415	0.705
10.4753	0.722
10.5091	0.727
10.5429	0.722
10.5767	0.702
10.6106	0.668
10.6444	0.661
10.6782	0.649
10.712	0.622
10.7458	0.609
10.7797	0.609
10.8135	0.631
10.8473	0.659
10.8811	0.676
10.9149	0.67
10.9488	0.642
10.9826	0.614
11.0164	0.631
11.0502	0.67
11.084	0.69
11.1179	0.708
11.1517	0.715
11.1855	0.71
11.2193	0.698
11.2531	0.693
11.287	0.681
11.3208	0.654
11.3546	0.619
11.3884	0.571
11.4222	0.531
11.4561	0.45
11.4899	0.357
11.5237	0.34
11.5575	0.436
11.5913	0.505
11.6252	0.62
11.659	0.681
11.6928	0.69
11.7266	0.702
11.7604	0.732
11.7943	0.744
11.8281	0.759
11.8619	0.766
11.8957	0.773
11.9295	0.778
11.9634	0.785
11.9972	0.788
12.031	0.788
12.0648	0.788
12.0987	0.788
12.1325	0.786
12.1663	0.783
12.2001	0.771
12.2339	0.751
12.2678	0.725
12.3016	0.68
12.3354	0.61
12.3692	0.61
12.403	0.678
12.4369	0.712
12.4707	0.739
12.5045	0.754
12.5383	0.764
12.5721	0.771
12.606	0.773
12.6398	0.774
12.6736	0.769
12.7074	0.758
12.7412	0.742
12.7751	0.71
12.8089	0.653
12.8427	0.566
12.8765	0.434
12.9103	0.279
12.9442	0.159
12.978	0.121
13.0118	0.135
13.0456	0.181
13.0794	0.25
13.1133	0.343
13.1471	0.39
13.1809	0.411
13.2147	0.411
13.2485	0.392
13.2824	0.37
13.3162	0.291
13.35	0.191
13.3838	0.138
13.4176	0.145
13.4515	0.196
13.4853	0.269
13.5191	0.329
13.5529	0.38
13.5867	0.419
13.6206	0.421
13.6544	0.389
13.6882	0.377
13.722	0.463
13.7558	0.563
13.7897	0.609
13.8235	0.649
13.8573	0.673
13.8911	0.681
13.925	0.688
13.9588	0.693
13.9926	0.7
14.0264	0.7
14.0602	0.71
14.0941	0.712
14.1279	0.71
14.1617	0.71
14.1955	0.71
14.2293	0.712
14.2632	0.714
14.297	0.714
14.3308	0.712
14.3646	0.71
14.3984	0.708
14.4323	0.707
14.4661	0.703
14.4999	0.7
14.5337	0.698
14.5675	0.695
14.6014	0.69
14.6352	0.688
14.669	0.68
14.7028	0.676
14.7366	0.67
14.7705	0.661
14.8043	0.658
14.8381	0.653
14.8719	0.641
14.9057	0.634
14.9396	0.624
14.9734	0.615
15.0072	0.615
15.041	0.61
15.0748	0.59
