Infrared Spectrum: 1,3-DISULFONAMIDE, 4-AMINO-6-CHLOROBENZENE-
Formula: C6 H8 Cl N3 O4 S2
CAS: 121-30-2
State: SOLID (8 mg / 200 mg KBr DISC)
Class: COBLENTZ III
Instrument: PERKIN-ELMER 21 (GRATING)
Instrument parameters: FILTER AT ABOUT 10 MICRONS
Sampling: TRANSMISSION
Resolution: 2
1/CM	TRANSMITTANCE
4000	0.7585
3991	0.7589
3982	0.7593
3973	0.7597
3964	0.7601
3955	0.7606
3946	0.7611
3937	0.7615
3928	0.7619
3919	0.7628
3910	0.7637
3901	0.7646
3892	0.7655
3883	0.7662
3874	0.7675
3865	0.7692
3856	0.7708
3847	0.7725
3838	0.7741
3829	0.7761
3820	0.7785
3811	0.7808
3802	0.7832
3793	0.7853
3784	0.7872
3775	0.7894
3766	0.7914
3757	0.7926
3748	0.7939
3739	0.7949
3730	0.7958
3721	0.7967
3712	0.7974
3703	0.7982
3694	0.7989
3685	0.7997
3676	0.8006
3667	0.8014
3658	0.8022
3649	0.8032
3640	0.804
3631	0.8048
3622	0.8056
3613	0.8064
3604	0.8069
3595	0.8075
3586	0.808
3577	0.8089
3568	0.8099
3559	0.8108
3550	0.8119
3541	0.8133
3532	0.8148
3523	0.8162
3514	0.8168
3505	0.8125
3496	0.7449
3487	0.6399
3478	0.6103
3469	0.6342
3460	0.6598
3451	0.6856
3442	0.6987
3433	0.6683
3424	0.5828
3415	0.4968
3406	0.4103
3397	0.3234
3388	0.2782
3379	0.2872
3370	0.3098
3361	0.3326
3352	0.3555
3343	0.3786
3334	0.4016
3325	0.4143
3316	0.4107
3307	0.397
3298	0.3832
3289	0.3692
3280	0.355
3271	0.3487
3262	0.366
3253	0.396
3244	0.4262
3235	0.4566
3226	0.4871
3217	0.5178
3208	0.5486
3199	0.5727
3190	0.5945
3181	0.6185
3172	0.6341
3163	0.6511
3154	0.663
3145	0.6703
3136	0.6734
3127	0.6742
3118	0.6728
3109	0.6696
3100	0.6678
3091	0.6671
3082	0.6675
3073	0.6718
3064	0.6838
3055	0.6993
3046	0.7132
3037	0.7265
3028	0.7384
3019	0.7442
3010	0.7487
3001	0.7522
2992	0.7558
2983	0.7585
2974	0.7608
2965	0.7632
2956	0.7656
2947	0.768
2938	0.7705
2929	0.773
2920	0.7756
2911	0.7785
2902	0.7812
2893	0.7841
2884	0.7868
2875	0.7897
2866	0.7925
2857	0.7954
2848	0.7982
2839	0.8014
2830	0.8046
2821	0.8078
2812	0.8111
2803	0.8155
2794	0.82
2785	0.8244
2776	0.8285
2767	0.8325
2758	0.8351
2749	0.8375
2740	0.8399
2731	0.8418
2722	0.8434
2713	0.845
2704	0.8458
2695	0.8458
2686	0.8452
2677	0.8443
2668	0.8433
2659	0.8424
2650	0.8417
2641	0.8415
2632	0.842
2623	0.8427
2614	0.8441
2605	0.8454
2596	0.8468
2587	0.8489
2578	0.8511
2569	0.8544
2560	0.8578
2551	0.8616
2542	0.8656
2533	0.8688
2524	0.8704
2515	0.8721
2506	0.8735
2497	0.874
2488	0.8743
2479	0.8754
2470	0.8768
2461	0.8783
2452	0.8797
2443	0.8813
2434	0.8832
2425	0.8852
2416	0.8871
2407	0.889
2398	0.8907
2389	0.8921
2380	0.8939
2371	0.8956
2362	0.8973
2353	0.8993
2344	0.9013
2335	0.9034
2326	0.9055
2317	0.9068
2308	0.9083
2299	0.9096
2290	0.911
2281	0.912
2272	0.9128
2263	0.9139
2254	0.9147
2245	0.9151
2236	0.9156
2227	0.916
2218	0.9163
2209	0.9161
2200	0.9157
2191	0.9164
2182	0.9174
2173	0.9198
2164	0.9221
2155	0.924
2146	0.9258
2137	0.927
2128	0.9278
2119	0.9285
2110	0.9292
2101	0.93
2092	0.9307
2083	0.9314
2074	0.932
2065	0.9327
2056	0.9335
2047	0.9343
2038	0.9351
2029	0.9359
2020	0.9368
2011	0.9378
2002	0.9388
1993	0.9398
1984	0.9406
1975	0.9413
1966	0.9421
1957	0.9431
1948	0.9444
1939	0.9457
1930	0.9471
1921	0.9487
1912	0.9503
1903	0.9518
1894	0.9531
1885	0.9544
1876	0.9552
1867	0.9512
1858	0.9454
1849	0.941
1840	0.9421
1831	0.9467
1822	0.9502
1813	0.9528
1804	0.955
1795	0.957
1786	0.9554
1777	0.9545
1768	0.953
1759	0.9511
1750	0.9478
1741	0.9447
1732	0.9411
1723	0.9357
1714	0.9289
1705	0.9168
1696	0.8985
1687	0.8668
1678	0.8221
1669	0.7615
1660	0.6615
1651	0.4466
1642	0.3241
1633	0.4674
1624	0.6122
1615	0.6986
1606	0.3662
1597	0.3448
1588	0.5986
1579	0.6915
1570	0.705
1561	0.6489
1552	0.4064
1543	0.376
1534	0.5573
1525	0.6508
1516	0.7675
1507	0.8271
1498	0.8545
1489	0.7657
1480	0.5729
1471	0.7454
1462	0.8256
1453	0.8592
1444	0.8678
1435	0.8168
1426	0.4935
1417	0.7068
1408	0.8212
1399	0.8571
1390	0.8636
1381	0.8496
1372	0.8122
1363	0.7403
1354	0.6179
1345	0.2905
1336	0.2921
1327	0.2271
1318	0.1672
1309	0.2704
1300	0.4951
1291	0.4949
1282	0.6484
1273	0.7538
1264	0.746
1255	0.6279
1246	0.7878
1237	0.8349
1228	0.8515
1219	0.8525
1210	0.8493
1201	0.8318
1192	0.7747
1183	0.6808
1174	0.4184
1165	0.1643
1156	0.2415
1147	0.1653
1138	0.2317
1129	0.3744
1120	0.5292
1111	0.6149
1102	0.5623
1093	0.6511
1084	0.7243
1075	0.7428
1066	0.7146
1057	0.7718
1048	0.8018
1039	0.8235
1030	0.8361
1021	0.8385
1012	0.8313
1003	0.8205
994	0.8236
985	0.8114
976	0.7245
967	0.506
958	0.423
949	0.5278
940	0.6755
931	0.7132
922	0.7111
913	0.7101
904	0.6233
895	0.4743
886	0.4181
877	0.5873
868	0.6794
859	0.6216
850	0.6081
841	0.6922
832	0.751
823	0.7662
814	0.7768
805	0.7835
796	0.7755
787	0.7672
778	0.7518
769	0.7281
760	0.6651
751	0.5086
742	0.615
733	0.7194
724	0.7007
715	0.6008
706	0.5693
697	0.4799
688	0.3934
679	0.4341
