Infrared Spectrum: 3-Amino-4-chlorobenzotrifluoride
Formula: C 7 H 5 Cl F 3 N
CAS: 121-50-6
State: gas
Origin: EPA-IR VAPOR PHASE LIBRARY
1/CM	ABSORBANCE
549.8	0.007277
559.445	0.008767
569.09	0.017077
578.734	0.011047
588.379	0.007077
598.024	0.007897
607.669	0.007317
617.313	0.007217
626.958	0.007707
636.603	0.008987
646.248	0.011097
655.893	0.013457
665.537	0.013987
675.182	0.016117
684.827	0.018077
694.472	0.019427
704.116	0.020437
713.761	0.020497
723.406	0.019497
733.051	0.019137
742.695	0.024637
752.34	0.020587
761.985	0.009297
771.63	0.008437
781.275	0.009317
790.919	0.013187
800.564	0.022437
810.209	0.028267
819.854	0.017897
829.498	0.009327
839.143	0.007547
848.788	0.010037
858.433	0.018277
868.078	0.025897
877.722	0.018047
887.367	0.010497
897.012	0.008707
906.657	0.013497
916.301	0.024077
925.946	0.016367
935.591	0.005557
945.236	0.004347
954.88	0.004367
964.525	0.004247
974.17	0.004677
983.815	0.003757
993.46	0.003437
1003.1	0.003327
1012.75	0.004857
1022.39	0.006597
1032.04	0.010247
1041.68	0.010647
1051.33	0.009957
1060.97	0.019067
1070.62	0.072927
1080.26	0.153547
1089.91	0.072717
1099.55	0.039607
1109.2	0.028947
1118.84	0.033147
1128.49	0.067167
1138.13	0.151457
1147.78	0.250217
1157.42	0.162317
1167.07	0.157357
1176.71	0.172637
1186.36	0.084437
1196	0.030317
1205.64	0.014577
1215.29	0.012157
1224.93	0.013507
1234.58	0.021787
1244.22	0.052797
1253.87	0.066907
1263.51	0.032417
1273.16	0.028897
1282.8	0.047287
1292.45	0.017227
1302.09	0.013727
1311.74	0.022427
1321.38	0.067777
1331.03	0.233627
1340.67	0.226207
1350.32	0.048537
1359.96	0.015487
1369.61	0.011667
1379.25	0.011797
1388.9	0.011007
1398.54	0.008837
1408.18	0.012937
1417.83	0.028547
1427.47	0.059767
1437.12	0.083757
1446.76	0.052037
1456.41	0.016307
1466.05	0.007897
1475.7	0.008927
1485.34	0.017337
1494.99	0.028087
1504.63	0.019057
1514.28	0.007417
1523.92	0.005077
1533.57	0.003767
1543.21	0.003637
1552.86	0.004487
1562.5	0.006437
1572.15	0.010927
1581.79	0.016867
1591.44	0.021507
1601.08	0.034037
1610.73	0.054747
1620.37	0.068387
1630.01	0.059087
1639.66	0.034297
1649.3	0.016927
1658.95	0.010177
1668.59	0.006457
1678.24	0.004517
1687.88	0.003607
1697.53	0.003177
1707.17	0.003367
1716.82	0.003657
1726.46	0.004127
1736.11	0.004747
1745.75	0.003847
1755.4	0.002097
1765.04	0.002037
1774.69	0.002037
1784.33	0.001857
1793.98	0.001587
1803.62	0.001477
1813.27	0.001247
1822.91	0.001337
1832.55	0.001357
1842.2	0.001417
1851.84	0.001737
1861.49	0.002397
1871.13	0.003027
1880.78	0.002807
1890.42	0.001787
1900.07	0.001357
1909.71	0.0011958
1919.36	0.001247
1929	0.0010995
1938.65	0.0010999
1948.29	0.0012035
1957.94	0.0009626
1967.58	0.0009015
1977.23	0.0009289
1986.87	0.0009962
1996.52	0.0010151
2006.16	0.0009705
2015.81	0.0008731
2025.45	0.0009098
2035.1	0.0010023
2044.74	0.0008785
2054.38	0.0010731
2064.03	0.001247
2073.67	0.001297
2083.32	0.001567
2092.96	0.0012358
2102.61	0.0008693
2112.25	0.0008112
2121.9	0.0007541
2131.54	0.0007809
2141.19	0.0007915
2150.83	0.0009636
2160.48	0.0010439
2170.12	0.001171
2179.77	0.0011373
2189.41	0.0011398
2199.06	0.0011587
2208.7	0.0010911
2218.35	0.0010963
2227.99	0.0010424
2237.64	0.0010504
2247.28	0.0011936
2256.92	0.001205
2266.57	0.001297
2276.21	0.001267
2285.86	0.0012065
2295.5	0.0011534
2305.15	0.0011485
2314.79	0.001199
2324.44	0.001277
2334.08	0.001287
2343.73	0.001206
2353.37	0.001397
2363.02	0.0011257
2372.66	0.0009213
2382.31	0.0007762
2391.95	0.000684
2401.6	0.0007352
2411.24	0.000834
2420.89	0.0007099
2430.53	0.0007382
2440.18	0.000561
2449.82	0.0005916
2459.47	0.0005845
2469.11	0.0006875
2478.75	0.000659
2488.4	0.0007342
2498.04	0.0005681
2507.69	0.000652
2517.33	0.0008439
2526.98	0.0008663
2536.62	0.0009238
2546.27	0.0009577
2555.91	0.0010131
2565.56	0.0008599
2575.2	0.0008705
2584.85	0.0006337
2594.49	0.0009088
2604.14	0.001029
2613.78	0.001257
2623.43	0.0010922
2633.07	0.0009299
2642.72	0.0007873
2652.36	0.0006848
2662.01	0.0007845
2671.65	0.0008074
2681.29	0.0006101
2690.94	0.0004587
2700.58	0.0005137
2710.23	0.000486
2719.87	0.00030222
2729.52	0.0004797
2739.16	0.0004208
2748.81	0.0004164
2758.45	0.0007145
2768.1	0.0005313
2777.74	0.0004911
2787.39	0.0003026
2797.03	0.00033065
2806.68	0.0002151
2816.32	0.0004706
2825.97	0.00030604
2835.61	0.0003428
2845.26	0.0003941
2854.9	0.0004372
2864.55	0.0007156
2874.19	0.0005647
2883.84	0.0006563
2893.48	0.0006394
2903.12	0.0007584
2912.77	0.0007074
2922.41	0.0006404
2932.06	0.0006921
2941.7	0.0006466
2951.35	0.0004183
2960.99	0.0004467
2970.64	0.0004225
2980.28	8.8e-05
2989.93	0.0001783
2999.57	0.00029499
3009.22	0.0004475
3018.86	0.0005668
3028.51	0.0005063
3038.15	0.001477
3047.8	0.002047
3057.44	0.002157
3067.09	0.001827
3076.73	0.001637
3086.38	0.001397
3096.02	0.001437
3105.67	0.0010543
3115.31	0.000677
3124.95	0.0007975
3134.6	0.0004788
3144.24	0.00031291
3153.89	0.0003405
3163.53	0.0005439
3173.18	0.0008524
3182.82	0.001046
3192.47	0.001307
3202.11	0.0010868
3211.76	0.0011412
3221.4	0.0009778
3231.05	0.0007594
3240.69	0.0006989
3250.34	0.0005253
3259.98	0.0006255
3269.63	0.00033419
3279.27	0.0002569
3288.92	0.0004241
3298.56	0.00031326
3308.21	0.0005515
3317.85	0.0003707
3327.49	0.0005176
3337.14	0.0004644
3346.78	0.0003688
3356.43	0.0005422
3366.07	0.0006928
3375.72	0.001055
3385.36	0.002407
3395.01	0.004917
3404.65	0.009917
3414.3	0.016757
3423.94	0.017047
3433.59	0.009267
3443.23	0.004507
3452.88	0.002577
3462.52	0.002217
3472.17	0.002497
3481.81	0.003957
3491.46	0.007057
3501.1	0.010527
3510.75	0.012857
3520.39	0.011797
3530.04	0.007147
3539.68	0.004167
3549.32	0.002217
3558.97	0.0009487
3568.61	0.0008503
3578.26	0.0003386
3587.9	0.0006362
3597.55	0.00033691
3607.19	0.0001641
3616.84	0.00029005
3626.48	0.0004626
3636.13	7.4e-05
3645.77	0.00023319
3655.42	0.0003724
3665.06	0.0003896
3674.71	0.0005458
3684.35	0.000439
3694	0.000521
3703.64	0.00027705
3713.29	0.0004804
3722.93	0.0002231
3732.58	0.000653
3742.22	0.0005115
3751.86	0.0003674
3761.51	0.0005668
3771.15	0.0004099
3780.8	0.0005341
3790.44	0.0005935
3800.09	0.0004843
3809.73	0.0009121
3819.38	0.0004734
3829.02	0.0006345
3838.67	0.0010728
3848.31	0.0008193
3857.96	0.0007256
3867.6	0.0006911
3877.25	0.0007887
3886.89	0.000595
3896.54	0.0004389
3906.18	0.0004615
3915.83	0.0005313
3925.47	0.0004071
3935.12	0.0007875
3944.76	0.000973
3954.41	0.0007378
3964.05	0.0008076
3973.69	0.0006386
3983.34	0.0006677
3992.98	0.0006069
