Infrared Spectrum: P-ACETAMIDOBENZENE SULFONYL CHLORIDE
Formula: C8 H8 Cl N O3 S
CAS: 121-60-8
State: SOLID (MULL)
Melting point: 146-148 C
Class: COBLENTZ
Instrument: Not specified, most likely a prism, grating, or hybrid spectrometer.
Sampling: TRANSMISSION
Resolution: 4
Origin: WYANDOTTE CHEMICALS CORP., WYANDOTTE, MICHIGAN, USA
MICROMETERS	TRANSMITTANCE
2.011	0.474
2.05081	0.477
2.09063	0.497
2.13044	0.505
2.17026	0.512
2.21007	0.514
2.24989	0.517
2.2897	0.527
2.32951	0.534
2.36933	0.544
2.40914	0.564
2.44896	0.577
2.48877	0.587
2.52858	0.6
2.5684	0.62
2.60821	0.627
2.64803	0.643
2.68784	0.653
2.72766	0.652
2.76747	0.665
2.80728	0.652
2.8471	0.657
2.88691	0.65
2.92673	0.648
2.96654	0.63
3.00636	0.602
3.04617	0.409
3.08598	0.292
3.1258	0.307
3.16561	0.272
3.20543	0.249
3.24524	0.189
3.28506	0.163
3.32487	0.123
3.36468	0.049
3.4045	0.026
3.44431	0.023
3.48413	0.024
3.52394	0.038
3.56375	0.154
3.60357	0.254
3.64338	0.321
3.6832	0.362
3.72301	0.394
3.76283	0.349
3.80264	0.342
3.84245	0.422
3.88227	0.482
3.92208	0.539
3.9619	0.597
4.00171	0.637
4.04153	0.68
4.08134	0.713
4.12115	0.74
4.16097	0.737
4.20078	0.757
4.2406	0.757
4.28041	0.732
4.32023	0.747
4.36004	0.765
4.39985	0.785
4.43967	0.816
4.47948	0.825
4.5193	0.83
4.55911	0.845
4.59892	0.856
4.63874	0.87
4.67855	0.87
4.71837	0.881
4.75818	0.905
4.798	0.916
4.83781	0.911
4.87762	0.92
4.91744	0.935
4.95725	0.933
4.99707	0.941
5.03688	0.938
5.0767	0.94
5.11651	0.936
5.15632	0.926
5.19614	0.918
5.23595	0.885
5.27577	0.888
5.31558	0.91
5.35539	0.935
5.39521	0.936
5.43502	0.938
5.47484	0.95
5.51465	0.95
5.55447	0.933
5.59428	0.91
5.63409	0.893
5.67391	0.915
5.71372	0.92
5.75354	0.92
5.79335	0.843
5.83317	0.79
5.87298	0.617
5.91279	0.271
5.95261	0.178
5.99242	0.349
6.03224	0.467
6.07205	0.462
6.11187	0.392
6.15168	0.387
6.19149	0.224
6.23131	0.153
6.27112	0.031
6.31094	0.189
6.35075	0.317
6.39056	0.319
6.43038	0.226
6.47019	0.146
6.51001	0.091
6.54982	0.141
6.58964	0.207
6.62945	0.209
6.66926	0.151
6.70908	0.221
6.74889	0.231
6.78871	0.123
6.82852	0.121
6.86834	0.151
6.90815	0.227
6.94796	0.329
6.98778	0.43
7.02759	0.46
7.06741	0.272
7.10722	0.103
7.14703	0.176
7.18685	0.149
7.22666	0.061
7.26648	0.023
7.30629	0.033
7.34611	0.143
7.38592	0.257
7.42573	0.366
7.46555	0.366
7.50536	0.239
7.54518	0.158
7.58499	0.124
7.62481	0.181
7.66462	0.336
7.70443	0.467
7.74425	0.529
7.78406	0.509
7.82388	0.44
7.86369	0.214
7.90351	0.059
7.94332	0.086
7.98313	0.098
8.02295	0.103
8.06276	0.149
8.10258	0.232
8.14239	0.274
8.1822	0.256
8.22202	0.239
8.26183	0.232
8.30165	0.266
8.34146	0.231
8.38128	0.111
8.42109	0.051
8.4609	0.049
8.50072	0.021
8.54053	0.016
8.58035	0.014
8.62016	0.026
8.65998	0.061
8.69979	0.103
8.7396	0.163
8.77942	0.202
8.81923	0.171
8.85905	0.114
8.89886	0.113
8.93868	0.133
8.97849	0.164
9.0183	0.211
9.05812	0.241
9.09793	0.267
9.13775	0.284
9.17756	0.198
9.21737	0.131
9.25719	0.176
9.297	0.242
9.33682	0.289
9.37663	0.332
9.41645	0.362
9.45626	0.384
9.49607	0.384
9.53589	0.327
9.5757	0.216
9.61552	0.124
9.65533	0.108
9.69515	0.212
9.73496	0.331
9.77477	0.359
9.81459	0.276
9.8544	0.158
9.89422	0.079
9.93403	0.128
9.97384	0.193
10.0137	0.254
10.0535	0.296
10.0933	0.317
10.1331	0.327
10.1729	0.344
10.2127	0.327
10.2525	0.319
10.2924	0.316
10.3322	0.342
10.372	0.391
10.4118	0.49
10.4516	0.567
10.4914	0.575
10.5312	0.605
10.5711	0.665
10.6109	0.688
10.6507	0.683
10.6905	0.672
10.7303	0.66
10.7701	0.643
10.8099	0.63
10.8498	0.625
10.8896	0.612
10.9294	0.595
10.9692	0.594
11.009	0.595
11.0488	0.587
11.0886	0.58
11.1285	0.572
11.1683	0.569
11.2081	0.557
11.2479	0.545
11.2877	0.535
11.3275	0.522
11.3673	0.514
11.4072	0.5
11.447	0.49
11.4868	0.479
11.5266	0.47
11.5664	0.455
11.6062	0.432
11.646	0.427
11.6859	0.402
11.7257	0.351
11.7655	0.297
11.8053	0.281
11.8451	0.277
11.8849	0.242
11.9247	0.138
11.9646	0.091
12.0044	0.108
12.0442	0.159
12.084	0.204
12.1238	0.207
12.1636	0.212
12.2034	0.286
12.2433	0.344
12.2831	0.41
12.3229	0.482
12.3627	0.524
12.4025	0.545
12.4423	0.55
12.4821	0.552
12.522	0.552
12.5618	0.55
12.6016	0.549
12.6414	0.542
12.6812	0.53
12.721	0.524
12.7608	0.517
12.8007	0.514
12.8405	0.5
12.8803	0.487
12.9201	0.487
12.9599	0.477
12.9997	0.469
13.0395	0.457
13.0794	0.442
13.1192	0.434
13.159	0.419
13.1988	0.4
13.2386	0.386
13.2784	0.379
13.3182	0.367
13.3581	0.361
13.3979	0.356
13.4377	0.356
13.4775	0.359
13.5173	0.364
13.5571	0.367
13.5969	0.371
13.6368	0.387
13.6766	0.399
13.7164	0.4
13.7562	0.374
13.796	0.332
13.8358	0.289
13.8756	0.257
13.9155	0.261
13.9553	0.294
13.9951	0.342
14.0349	0.376
14.0747	0.392
14.1145	0.357
14.1543	0.311
14.1942	0.284
14.234	0.289
14.2738	0.306
14.3136	0.312
14.3534	0.314
14.3932	0.312
14.433	0.302
14.4729	0.276
14.5127	0.242
14.5525	0.207
14.5923	0.159
14.6321	0.141
14.6719	0.154
14.7117	0.178
14.7516	0.219
14.7914	0.281
14.8312	0.344
14.871	0.387
14.9108	0.432
14.9506	0.467
14.9904	0.48
15.0303	0.484
15.0701	0.487
15.1099	0.492
15.1497	0.519
15.1895	0.535
15.2293	0.547
15.2691	0.552
15.309	0.555
15.3488	0.557
15.3886	0.557
15.4284	0.554
15.4682	0.549
15.508	0.542
15.5478	0.544
15.5877	0.547
15.6275	0.552
15.6673	0.552
15.7071	0.552
15.7469	0.534
15.7867	0.505
15.8265	0.479
15.8664	0.45
15.9062	0.42
15.946	0.394
15.9858	0.389
