Infrared Spectrum: 2-Amino-5-nitrobenzotrifluoride
Formula: C 7 H 5 F 3 N 2 O 2
CAS: 121-01-7
State: gas
Origin: EPA-IR VAPOR PHASE LIBRARY
1/CM	ABSORBANCE
549.8	0.008359
559.445	0.007209
569.09	0.007019
578.735	0.006609
588.38	0.006149
598.025	0.005839
607.67	0.006289
617.315	0.007469
626.96	0.010529
636.605	0.019929
646.251	0.018939
655.896	0.011289
665.541	0.017809
675.186	0.041869
684.831	0.045699
694.476	0.023899
704.121	0.018999
713.766	0.019529
723.411	0.022599
733.056	0.023669
742.701	0.021559
752.346	0.021459
761.991	0.018229
771.636	0.011679
781.281	0.008519
790.926	0.008149
800.571	0.007899
810.216	0.009839
819.861	0.025009
829.507	0.030499
839.152	0.017769
848.797	0.011919
858.442	0.009969
868.087	0.009059
877.732	0.008889
887.377	0.011179
897.022	0.012279
906.667	0.010579
916.312	0.016349
925.957	0.018519
935.602	0.008909
945.247	0.004789
954.892	0.004469
964.537	0.004529
974.182	0.004259
983.827	0.003979
993.472	0.003909
1003.12	0.004159
1012.76	0.004549
1022.41	0.004839
1032.05	0.007639
1041.7	0.015659
1051.34	0.020389
1060.99	0.023779
1070.63	0.027979
1080.28	0.018669
1089.92	0.015689
1099.57	0.025739
1109.21	0.087289
1118.86	0.186609
1128.5	0.185259
1138.15	0.196529
1147.79	0.157509
1157.44	0.068699
1167.08	0.045009
1176.73	0.043029
1186.37	0.021409
1196.02	0.011889
1205.66	0.009439
1215.31	0.009029
1224.95	0.008579
1234.6	0.008529
1244.24	0.011859
1253.89	0.024109
1263.53	0.044529
1273.18	0.049919
1282.82	0.061859
1292.47	0.144589
1302.11	0.196049
1311.76	0.125319
1321.4	0.070059
1331.05	0.099049
1340.69	0.157739
1350.34	0.196469
1359.98	0.119259
1369.63	0.031139
1379.27	0.011719
1388.92	0.010769
1398.56	0.011909
1408.21	0.009629
1417.85	0.012739
1427.5	0.026119
1437.14	0.044829
1446.79	0.042729
1456.43	0.021199
1466.08	0.015289
1475.73	0.025919
1485.37	0.045849
1495.02	0.073489
1504.66	0.065069
1514.31	0.027819
1523.95	0.028619
1533.6	0.075219
1543.24	0.108009
1552.89	0.048729
1562.53	0.019669
1572.18	0.026339
1581.82	0.046529
1591.47	0.070819
1601.11	0.069029
1610.76	0.054149
1620.4	0.079569
1630.05	0.121219
1639.69	0.113569
1649.34	0.052239
1658.98	0.022169
1668.63	0.011729
1678.27	0.007619
1687.92	0.005579
1697.56	0.003909
1707.21	0.002869
1716.85	0.002429
1726.5	0.002339
1736.14	0.002189
1745.79	0.002089
1755.43	0.002089
1765.08	0.001909
1774.72	0.001889
1784.37	0.001839
1794.01	0.001699
1803.66	0.001689
1813.3	0.001829
1822.95	0.002169
1832.59	0.002589
1842.24	0.002569
1851.88	0.001819
1861.53	0.0012162
1871.17	0.0011544
1880.82	0.0012483
1890.46	0.0013908
1900.11	0.001859
1909.75	0.002369
1919.4	0.002069
1929.04	0.001298
1938.69	0.0010746
1948.33	0.0009574
1957.98	0.0009451
1967.62	0.0010054
1977.27	0.0010466
1986.91	0.0010566
1996.56	0.0011327
2006.2	0.0012615
2015.85	0.001248
2025.49	0.0010743
2035.14	0.000995
2044.78	0.0010753
2054.43	0.001249
2064.07	0.0013307
2073.72	0.0013235
2083.36	0.0012856
2093.01	0.001108
2102.65	0.0010208
2112.3	0.0010531
2121.94	0.0010077
2131.59	0.0009747
2141.23	0.0009937
2150.88	0.0009131
2160.52	0.0010261
2170.17	0.0010308
2179.81	0.0009773
2189.46	0.0011273
2199.1	0.0013012
2208.75	0.0012869
2218.39	0.0013874
2228.04	0.0014689
2237.68	0.001599
2247.33	0.0015693
2256.97	0.0013731
2266.62	0.0012716
2276.26	0.0010276
2285.91	0.0010528
2295.55	0.000988
2305.2	0.0011819
2314.84	0.0011521
2324.49	0.0010526
2334.13	0.0010514
2343.78	0.0012087
2353.42	0.001208
2363.07	0.000968
2372.72	0.0008552
2382.36	0.0009301
2392.01	0.0009293
2401.65	0.0009759
2411.3	0.0009815
2420.94	0.0009945
2430.59	0.0011112
2440.23	0.0012862
2449.88	0.0014203
2459.52	0.001639
2469.17	0.001629
2478.81	0.0012785
2488.46	0.0010492
2498.1	0.0009902
2507.75	0.00081
2517.39	0.0007328
2527.04	0.0007718
2536.68	0.0008053
2546.33	0.0008412
2555.97	0.0008686
2565.62	0.0009319
2575.26	0.0007341
2584.91	0.000691
2594.55	0.0008519
2604.2	0.0010301
2613.84	0.0012261
2623.49	0.0008468
2633.13	0.0008667
2642.78	0.0009208
2652.42	0.0011461
2662.07	0.0012745
2671.71	0.0015175
2681.36	0.0015137
2691	0.001318
2700.65	0.0009614
2710.29	0.00064314
2719.94	0.00064717
2729.58	0.00058752
2739.23	0.000569
2748.87	0.0005613
2758.52	0.00065438
2768.16	0.0007562
2777.81	0.001059
2787.45	0.0011586
2797.1	0.0010239
2806.74	0.00093
2816.39	0.0006924
2826.03	0.0007858
2835.68	0.0008552
2845.32	0.0009403
2854.97	0.0011979
2864.61	0.0015251
2874.26	0.002069
2883.9	0.002329
2893.55	0.001809
2903.19	0.0010165
2912.84	0.000982
2922.48	0.0011743
2932.13	0.0015343
2941.77	0.001709
2951.42	0.0014574
2961.06	0.0009771
2970.71	0.0008967
2980.35	0.0008856
2990	0.0007146
2999.64	0.00061237
3009.29	0.000299
3018.93	0.000269
3028.58	0.00065742
3038.22	0.001659
3047.87	0.002719
3057.51	0.002169
3067.16	0.001899
3076.8	0.002939
3086.45	0.004659
3096.09	0.005219
3105.74	0.003269
3115.38	0.0010625
3125.03	0.000341
3134.67	0.000386
3144.32	0.000211
3153.96	0.000104
3163.61	0.000139
3173.25	0.00047
3182.9	0.00062211
3192.54	0.0004936
3202.19	0.00065
3211.83	0.0009731
3221.48	0.0013571
3231.12	0.001589
3240.77	0.001679
3250.41	0.0013438
3260.06	0.0012379
3269.7	0.0010178
3279.35	0.0006417
3289	0.0005072
3298.64	0.000338
3308.29	0.000154
3317.93	0.000173
3327.58	5.6e-05
3337.22	0.000215
3346.87	0.000267
3356.51	0.000459
3366.16	0.000284
3375.8	0.000419
3385.45	0.0007206
3395.09	0.0011345
3404.74	0.002609
3414.38	0.005159
3424.03	0.010459
3433.67	0.019279
3443.32	0.025749
3452.96	0.027839
3462.61	0.028009
3472.25	0.013719
3481.9	0.004839
3491.54	0.003479
3501.19	0.004359
3510.83	0.006279
3520.48	0.009219
3530.12	0.012509
3539.77	0.012789
3549.41	0.012989
3559.06	0.014699
3568.7	0.011099
3578.35	0.005049
3587.99	0.002179
3597.64	0.0014533
3607.28	0.0008657
3616.93	0.0007742
3626.57	0.00067214
3636.22	0.00061409
3645.86	0.0005435
3655.51	0.000302
3665.15	0.0005435
3674.8	0.00062953
3684.44	0.00065865
3694.09	0.0007257
3703.73	0.0007069
3713.38	0.0005358
3723.02	0.0007433
3732.67	0.0005445
3742.31	0.000478
3751.96	0.000423
3761.6	0.00060242
3771.25	0.0005293
3780.89	0.0006102
3790.54	0.0004896
3800.18	0.0005455
3809.83	0.0005353
3819.47	0.0007019
3829.12	0.00064553
3838.76	0.00064874
3848.41	0.0007872
3858.05	0.000582711
3867.7	0.0007706
3877.34	0.0008093
3886.99	0.0007173
3896.63	0.0008076
3906.28	0.0008068
3915.92	0.0010892
3925.57	0.0014283
3935.21	0.0010043
3944.86	0.0009925
3954.5	0.0010084
3964.15	0.0009
3973.79	0.0007961
3983.44	0.0008294
3993.08	0.00063557
