Infrared Spectrum: 3,5-Dinitrobenzamide
Formula: C 7 H 5 N 3 O 5
CAS: 121-81-3
State: gas
Origin: EPA-IR VAPOR PHASE LIBRARY
1/CM	ABSORBANCE
549.9	5e-05
559.547	0.000131
569.193	0.000229
578.84	6.7e-05
588.486	0.000252
598.133	0.000244
607.779	0.000499
617.426	0.0007306
627.072	0.0006736
636.719	0.000499
646.365	0.000444
656.012	0.000443
665.658	0.000319
675.305	0.000459
684.951	0.000469
694.598	0.00067793
704.245	0.0007973
713.891	0.0015397
723.538	0.003231
733.184	0.002571
742.831	0.0009004
752.477	0.000612404
762.124	0.00072
771.77	0.00068317
781.417	0.0009699
791.063	0.0009934
800.71	0.0005752
810.356	0.0005822
820.003	0.0005474
829.649	0.0005467
839.296	0.000469
848.943	0.0005671
858.589	0.0005337
868.236	0.0005587
877.882	0.0006033
887.529	0.00062833
897.175	0.0007684
906.822	0.0011128
916.468	0.0015014
926.115	0.0010918
935.761	0.0007127
945.408	0.00065112
955.054	0.00064425
964.701	0.0005146
974.347	0.0005831
983.994	0.0005473
993.64	0.0005391
1003.29	0.000488
1012.93	0.000478
1022.58	0.0005385
1032.23	0.0005998
1041.87	0.0005716
1051.52	0.00068234
1061.17	0.0009598
1070.81	0.0013728
1080.46	0.0012051
1090.11	0.0010525
1099.75	0.0009467
1109.4	0.0010138
1119.05	0.000779
1128.69	0.0005976
1138.34	0.000393
1147.99	0.0005776
1157.63	0.0007345
1167.28	0.000619878
1176.92	0.00067384
1186.57	0.000406
1196.22	0.000487
1205.86	0.000362
1215.51	0.00029
1225.16	0.00064342
1234.8	0.0005152
1244.45	0.00062507
1254.1	0.00062477
1263.74	0.000616602
1273.39	0.0007455
1283.04	0.0008389
1292.68	0.0012012
1302.33	0.0015386
1311.98	0.001811
1321.62	0.002401
1331.27	0.005341
1340.92	0.010731
1350.56	0.008201
1360.21	0.002781
1369.86	0.0013586
1379.5	0.0009776
1389.15	0.0008724
1398.79	0.0008589
1408.44	0.0008736
1418.09	0.0009081
1427.73	0.0007685
1437.38	0.0007825
1447.03	0.0007926
1456.67	0.0010758
1466.32	0.0009131
1475.97	0.0008982
1485.61	0.0008174
1495.26	0.0009694
1504.91	0.0013593
1514.55	0.001751
1524.2	0.0014612
1533.85	0.0012623
1543.49	0.002571
1553.14	0.008761
1562.79	0.009411
1572.43	0.002621
1582.08	0.002381
1591.73	0.003671
1601.37	0.003131
1611.02	0.001821
1620.67	0.001606
1630.31	0.001535
1639.96	0.0010141
1649.6	0.0008494
1659.25	0.0008222
1668.9	0.0009025
1678.54	0.000867
1688.19	0.0010601
1697.84	0.0015686
1707.48	0.001731
1717.13	0.002061
1726.78	0.005681
1736.42	0.005921
1746.07	0.001781
1755.72	0.001631
1765.36	0.0016016
1775.01	0.0009966
1784.66	0.0007359
1794.3	0.00069113
1803.95	0.00062521
1813.6	0.00063523
1823.24	0.00060586
1832.89	0.00064848
1842.54	0.000620889
1852.18	0.00063409
1861.83	0.000596
1871.47	0.0005731
1881.12	0.00060843
1890.77	0.0005343
1900.41	0.0005212
1910.06	0.0005326
1919.71	0.0005183
1929.35	0.000482
1939	0.00051
1948.65	0.0005168
1958.29	0.0005437
1967.94	0.0005456
1977.59	0.0005326
1987.23	0.0005885
1996.88	0.0005466
2006.53	0.0005142
2016.17	0.0005676
2025.82	0.0005511
2035.47	0.0005441
2045.11	0.000513
2054.76	0.0005665
2064.41	0.000523
2074.05	0.0005499
2083.7	0.0005478
2093.35	0.000531
2102.99	0.0005421
2112.64	0.0005533
2122.28	0.0005582
2131.93	0.0005182
2141.58	0.0005341
2151.22	0.0005153
2160.87	0.0005193
2170.52	0.000498
2180.16	0.0005111
2189.81	0.0005519
2199.46	0.0005211
2209.1	0.000501
2218.75	0.0005281
2228.4	0.0005407
2238.04	0.0005331
2247.69	0.0005467
2257.34	0.0005215
2266.98	0.0005269
2276.63	0.0005438
2286.28	0.000511
2295.92	0.0005288
2305.57	0.0005355
2315.22	0.00060929
2324.86	0.0005824
2334.51	0.00064725
2344.16	0.000599
2353.8	0.00060927
2363.45	0.00064959
2373.09	0.00063113
2382.74	0.0005386
2392.39	0.000501
2402.03	0.000501
2411.68	0.0005264
2421.33	0.0005422
2430.97	0.0005192
2440.62	0.0005536
2450.27	0.000496
2459.91	0.000492
2469.56	0.000502
2479.21	0.000446
2488.85	0.0005508
2498.5	0.0005167
2508.15	0.000478
2517.79	0.000488
2527.44	0.0005115
2537.09	0.000468
2546.73	0.000455
2556.38	0.00044
2566.03	0.000471
2575.67	0.000491
2585.32	0.000451
2594.96	0.000506
2604.61	0.000495
2614.26	0.00049
2623.9	0.000488
2633.55	0.0005479
2643.2	0.000454
2652.84	0.000441
2662.49	0.0005477
2672.14	0.000501
2681.78	0.000497
2691.43	0.000457
2701.08	0.000444
2710.72	0.000457
2720.37	0.000435
2730.02	0.000466
2739.66	0.000432
2749.31	0.000415
2758.96	0.000486
2768.6	0.000482
2778.25	0.000438
2787.9	0.000419
2797.54	0.000417
2807.19	0.000435
2816.84	0.000401
2826.48	0.000442
2836.13	0.000497
2845.77	0.000438
2855.42	0.000431
2865.07	0.000423
2874.71	0.0005283
2884.36	0.00063077
2894.01	0.0006003
2903.65	0.0005562
2913.3	0.000457
2922.95	0.000348
2932.59	0.0005362
2942.24	0.000465
2951.89	0.000508
2961.53	0.000388
2971.18	0.000423
2980.83	0.000361
2990.47	0.000358
3000.12	0.000362
3009.77	0.000317
3019.41	0.000441
3029.06	0.000369
3038.71	0.000507
3048.35	0.000305
3058	0.000361
3067.64	0.000479
3077.29	0.000402
3086.94	0.000509
3096.58	0.0009662
3106.23	0.0011084
3115.88	0.00066628
3125.52	0.000437
3135.17	0.000357
3144.82	0.000324
3154.46	0.000352
3164.11	0.000346
3173.76	0.00043
3183.4	0.000444
3193.05	0.000443
3202.7	0.000282
3212.34	0.000328
3221.99	0.00044
3231.64	0.000269
3241.28	0.00041
3250.93	0.000368
3260.58	0.000472
3270.22	0.000394
3279.87	0.000358
3289.52	0.000494
3299.16	0.00033
3308.81	0.000455
3318.45	0.0005989
3328.1	0.000437
3337.75	0.0005114
3347.39	0.000433
3357.04	0.000434
3366.69	0.0005206
3376.33	0.000507
3385.98	0.000494
3395.63	0.0005301
3405.27	0.00060738
3414.92	0.00064359
3424.57	0.0010307
3434.21	0.0014554
3443.86	0.0010963
3453.51	0.0007934
3463.15	0.0005531
3472.8	0.0007139
3482.45	0.0005716
3492.09	0.0005815
3501.74	0.00067589
3511.39	0.00069447
3521.03	0.0007181
3530.68	0.0008193
3540.33	0.0009412
3549.97	0.0010706
3559.62	0.000942
3569.26	0.0007863
3578.91	0.0006314
3588.56	0.0005711
3598.2	0.000486
3607.85	0.00062365
3617.5	0.00066544
3627.14	0.00063477
3636.79	0.00064101
3646.44	0.00062764
3656.08	0.0005438
3665.73	0.000467
3675.38	0.0005615
3685.02	0.000481
3694.67	0.000619235
3704.32	0.0005519
3713.96	0.00065429
3723.61	0.000610256
3733.26	0.0005987
3742.9	0.0006752
3752.55	0.00063909
3762.2	0.0005594
3771.84	0.000486
3781.49	0.000541
3791.13	0.0005721
3800.78	0.000506
3810.43	0.000487
3820.07	0.000616162
3829.72	0.000506
3839.37	0.0005771
3849.01	0.0005343
3858.66	0.000421
3868.31	0.0005505
3877.95	0.000494
3887.6	0.0005308
3897.25	0.000484
3906.89	0.000424
3916.54	0.0005607
3926.19	0.0005301
3935.83	0.000375
3945.48	0.000476
3955.13	0.000454
3964.77	0.0005488
3974.42	0.0005944
3984.07	0.0005692
3993.71	0.00065643
