Infrared Spectrum: 9-Anthracenecarbonitrile
Formula: C 15 H 9 N
CAS: 1210-12-4
State: gas
Instrument: HP-GC/MS/IRD
Origin: NIST Mass Spectrometry Data Center
1/CM	ABSORBANCE
550	0.0011124
562	0.0006948
574	0.0012096
586	0.0012492
598	0.000756
610	0.0018396
622	0.0031068
634	0.0008748
646	0.000585
658	0.0002736
670	0.0003186
682	0.0002538
694	0.0002754
706	0.0006516
718	0.0024444
730	0.0132768
742	0.0109116
754	0.0018378
766	0.000873
778	0.0022878
790	0.001431
802	0.0003132
814	0.0002484
826	0.0005382
838	0.0024138
850	0.0024048
862	0.0006444
874	0.0006714
886	0.0036162
898	0.0028818
910	0.0004698
922	0.0001242
934	7.92e-05
946	0.0002916
958	0.0006066
970	0.0001656
982	0.000162
994	0.0008244
1006	0.0007956
1018	0.0009972
1030	0.0002034
1042	9.9e-05
1054	3.6e-05
1066	1.26e-05
1078	3.78e-05
1090	0.0001134
1102	0.0002484
1114	0.000162
1126	0.0001458
1138	0.0009648
1150	0.0008838
1162	0.000999
1174	0.0004554
1186	0.0004356
1198	0.0004032
1210	0.0003852
1222	0.0005076
1234	0.0004752
1246	0.0004086
1258	0.0010026
1270	0.0008478
1282	0.000414
1294	0.000198
1306	0.0001548
1318	0.0003042
1330	0.0004554
1342	0.0009756
1354	0.0004086
1366	0.00018
1378	0.000288
1390	0.0004446
1402	0.000324
1414	0.0002394
1426	0.0002088
1438	0.001341
1450	0.001674
1462	0.0006264
1474	0.0002628
1486	0.000423
1498	0.0002754
1510	0.0007182
1522	0.0016236
1534	0.0006048
1546	0.0002106
1558	0.0003294
1570	0.0004464
1582	0.0004392
1594	0.0002772
1606	0.00036
1618	0.000828
1630	0.000909
1642	0.0003474
1654	0.000234
1666	0.000153
1678	0.0003834
1690	0.0007074
1702	0.0006408
1714	0.0006786
1726	0.0004212
1738	0.0005328
1750	0.0003744
1762	0.0003474
1774	0.0004662
1786	0.0006282
1798	0.000828
1810	0.0008748
1822	0.0009558
1834	0.000297
1846	0.0003456
1858	0.0001962
1870	0.0001584
1882	9e-05
1894	0.0002106
1906	0.0006048
1918	0.0005346
1930	0.0005436
1942	0.0008244
1954	0.0006264
1966	0.0001026
1978	3.78e-05
1990	4.14e-05
2002	4.14e-05
2014	2.88e-05
2026	5.94e-05
2038	4.68e-05
2050	1.62e-05
2062	2.52e-05
2074	2.16e-05
2086	1.8e-05
2098	9e-06
2110	1.62e-05
2122	2.34e-05
2134	1.08e-05
2146	9e-06
2158	3.42e-05
2170	5.94e-05
2182	8.64e-05
2194	0.0002736
2206	0.000909
2218	0.0025398
2230	0.001404
2242	0.0001926
2254	9.54e-05
2266	0.0001026
2278	0.0001116
2290	0.0001278
2302	0.0001566
2314	0.000198
2326	0.0001548
2338	0.0001242
2350	9.18e-05
2362	0.0001404
2374	0.0001062
2386	8.46e-05
2398	0.0001026
2410	9.72e-05
2422	7.02e-05
2434	7.02e-05
2446	5.22e-05
2458	7.02e-05
2470	8.28e-05
2482	7.02e-05
2494	5.76e-05
2506	3.24e-05
2518	3.96e-05
2530	6.48e-05
2542	6.84e-05
2554	5.04e-05
2566	1.8e-05
2578	4.32e-05
2590	4.14e-05
2602	6.48e-05
2614	8.46e-05
2626	5.04e-05
2638	3.78e-05
2650	7.56e-05
2662	0.0001044
2674	7.02e-05
2686	9.54e-05
2698	8.82e-05
2710	7.02e-05
2722	5.22e-05
2734	3.96e-05
2746	1.98e-05
2758	1.26e-05
2770	1.8e-05
2782	2.7e-05
2794	2.88e-05
2806	2.7e-05
2818	5.4e-05
2830	7.2e-05
2842	0.0001242
2854	7.56e-05
2866	3.24e-05
2878	7.56e-05
2890	9.18e-05
2902	0.0001062
2914	0.0001602
2926	0.0002574
2938	0.0002862
2950	0.0002016
2962	0.0002124
2974	0.0002358
2986	0.000414
2998	0.0007092
3010	0.000918
3022	0.0011772
3034	0.0024372
3046	0.0033732
3058	0.0069264
3070	0.0070434
3082	0.004383
3094	0.0036486
3106	0.00108
3118	0.0003258
3130	0.0002322
3142	0.0002016
3154	0.0001746
3166	0.0001278
3178	0.000189
3190	0.0002142
3202	0.0001458
3214	2.52e-05
3226	6.66e-05
3238	0.0001152
3250	0.0001224
3262	1.44e-05
3274	5.04e-05
3286	5.76e-05
3298	3.06e-05
3310	5.58e-05
3322	6.66e-05
3334	5.4e-06
3346	3.42e-05
3358	6.3e-05
3370	3.06e-05
3382	0.0001062
3394	3.24e-05
3406	1.8e-05
3418	4.5e-05
3430	6.84e-05
3442	6.48e-05
3454	6.48e-05
3466	5.04e-05
3478	8.1e-05
3490	0.0001026
3502	2.7e-05
3514	3.6e-05
3526	0.000108
3538	8.64e-05
3550	0.0001314
3562	0.0001494
3574	0.0001224
3586	0.0001026
3598	0.000108
3610	9.9e-05
3622	8.82e-05
3634	0.0001044
3646	0.000171
3658	0.0001278
3670	0.0001296
3682	6.12e-05
3694	0.0001242
3706	0.000108
3718	9.72e-05
3730	4.68e-05
3742	0.000108
3754	0.0001494
3766	9.36e-05
3778	5.76e-05
3790	3.24e-05
3802	8.64e-05
3814	8.64e-05
3826	4.5e-05
3838	4.14e-05
