Infrared Spectrum: Ammonium chloride
Formula: N H 4 Cl
CAS: 12125-02-9
State: solid
Instrument: Bruker Tensor 37 FTIR
Resolution: 0.96450084
Origin: Pacific Northwest National Laboratory Under IARPA Contract
1/cm	Reflectance
7498.99	0.433711
7481.63	0.441197
7464.27	0.440203
7446.91	0.450083
7429.55	0.462295
7412.19	0.480548
7394.84	0.498585
7377.48	0.507157
7360.12	0.512835
7342.76	0.506816
7325.4	0.523231
7308.04	0.542407
7290.68	0.563056
7273.32	0.579702
7255.96	0.583604
7238.6	0.590298
7221.24	0.587895
7203.88	0.594731
7186.52	0.591682
7169.16	0.584363
7151.8	0.572696
7134.44	0.553039
7117.08	0.539539
7099.72	0.520238
7082.36	0.498993
7065	0.467742
7047.64	0.432635
7030.28	0.399803
7012.92	0.371065
6995.56	0.342751
6978.2	0.311297
6960.84	0.275012
6943.48	0.238578
6926.12	0.197841
6908.76	0.15672
6891.4	0.132429
6874.04	0.123498
6856.68	0.126282
6839.32	0.136441
6821.96	0.157733
6804.6	0.182617
6787.24	0.202539
6769.88	0.209332
6752.52	0.203304
6735.16	0.194855
6717.8	0.209271
6700.44	0.243533
6683.08	0.267236
6665.72	0.297763
6648.36	0.317842
6631	0.377977
6613.64	0.421927
6596.28	0.436303
6578.92	0.436544
6561.56	0.43853
6544.2	0.447162
6526.85	0.433572
6509.49	0.434555
6492.13	0.429513
6474.77	0.424229
6457.41	0.416537
6440.05	0.406761
6422.69	0.389742
6405.33	0.361455
6387.97	0.322519
6370.61	0.276233
6353.25	0.226435
6335.89	0.185876
6318.53	0.16761
6301.17	0.166916
6283.81	0.15819
6266.45	0.135225
6249.09	0.104307
6231.73	0.0764122
6214.37	0.0592175
6197.01	0.0522907
6179.65	0.0502108
6162.29	0.0493052
6144.93	0.0490845
6127.57	0.0529143
6110.21	0.0529737
6092.85	0.0491884
6075.49	0.0473452
6058.13	0.0457171
6040.77	0.0447848
6023.41	0.0443838
6006.05	0.0450053
5988.69	0.0462181
5971.33	0.0474362
5953.97	0.0529947
5936.61	0.0659668
5919.25	0.0859023
5901.89	0.093543
5884.53	0.0787477
5867.17	0.0920925
5849.81	0.122917
5832.45	0.159304
5815.09	0.185302
5797.73	0.200885
5780.37	0.218586
5763.01	0.237744
5745.65	0.238732
5728.29	0.220256
5710.93	0.189966
5693.57	0.157378
5676.21	0.131277
5658.86	0.117499
5641.5	0.116235
5624.14	0.116592
5606.78	0.107736
5589.42	0.0909528
5572.06	0.0744487
5554.7	0.0613128
5537.34	0.0520229
5519.98	0.0441488
5502.62	0.0395315
5485.26	0.0383866
5467.9	0.0363426
5450.54	0.0335092
5433.18	0.0305676
5415.82	0.0273656
5398.46	0.0246902
5381.1	0.0219399
5363.74	0.023065
5346.38	0.0295018
5329.02	0.051323
5311.66	0.0568242
5294.3	0.0439976
5276.94	0.0540554
5259.58	0.0571579
5242.22	0.0522162
5224.86	0.0492833
5207.5	0.0469711
5190.14	0.0440573
5172.78	0.0431967
5155.42	0.0460475
5138.06	0.047746
5120.7	0.0472276
5103.34	0.0468321
5085.98	0.046362
5068.62	0.0459196
5051.26	0.0474816
5033.9	0.0509054
5016.54	0.0538229
4999.18	0.0557912
4981.82	0.0575765
4964.46	0.0589047
4947.1	0.0589254
4929.74	0.0587602
4912.38	0.0574149
4895.02	0.0545893
4877.66	0.0505546
4860.3	0.0456323
4842.94	0.0429222
4825.58	0.0414582
4808.22	0.0405398
4790.86	0.0384711
4773.51	0.0374662
4756.15	0.0371537
4738.79	0.0373697
4721.43	0.0374945
4704.07	0.0369934
4686.71	0.0360829
4669.35	0.0345676
4651.99	0.0334103
4634.63	0.0338879
4617.27	0.035275
4599.91	0.0352584
4582.55	0.0346644
4565.19	0.0342786
4547.83	0.0339269
4530.47	0.0320139
4513.11	0.030398
4495.75	0.0272625
4478.39	0.0178934
4461.03	0.0553984
4443.67	0.0684774
4426.31	0.0479537
4408.95	0.0430396
4391.59	0.0451193
4374.23	0.0581133
4356.87	0.0725064
4339.51	0.0725442
4322.15	0.0565595
4304.79	0.03951
4287.43	0.0359985
4270.07	0.0425016
4252.71	0.0830536
4235.35	0.105515
4217.99	0.108872
4200.63	0.10365
4183.27	0.0898474
4165.91	0.0699648
4148.55	0.0489367
4131.19	0.0345286
4113.83	0.0295628
4096.47	0.0291373
4079.11	0.0286979
4061.75	0.0289034
4044.39	0.42927
4027.03	0.436112
4009.67	0.439427
3992.31	0.457179
3974.95	0.460902
3957.59	0.475969
3940.23	0.5036
3922.87	0.508727
3905.52	0.513427
3888.16	0.50442
3870.8	0.527896
3853.44	0.551379
3836.08	0.571556
3818.72	0.586891
3801.36	0.58932
3784	0.588498
3766.64	0.597489
3749.28	0.596805
3731.92	0.594278
3714.56	0.583326
3697.2	0.567513
3679.84	0.549224
3662.48	0.536427
3645.12	0.515962
3627.76	0.487949
3610.4	0.457996
3593.04	0.418178
3575.68	0.388404
3558.32	0.359062
3540.96	0.331201
3523.6	0.294386
3506.24	0.260788
3488.88	0.223005
3471.52	0.180797
3454.16	0.145488
3436.8	0.123875
3419.44	0.122081
3402.08	0.125807
3384.72	0.140677
3367.36	0.162999
3350	0.18589
3332.64	0.20134
3315.28	0.205259
3297.92	0.19868
3280.56	0.192633
3263.2	0.214563
3245.84	0.246556
3228.48	0.268373
3211.12	0.303397
3193.76	0.325135
3176.4	0.388318
3159.04	0.424083
3141.68	0.434357
3124.32	0.431097
3106.96	0.436748
3089.6	0.441677
3072.24	0.429794
3054.88	0.428935
3037.52	0.424059
3020.17	0.417792
3002.81	0.409838
2985.45	0.400149
2968.09	0.379272
2950.73	0.347221
2933.37	0.306417
2916.01	0.25796
2898.65	0.209666
2881.29	0.17603
2863.93	0.163862
2846.57	0.162797
2829.21	0.150019
2811.85	0.125265
2794.49	0.0940663
2777.13	0.0685412
2759.77	0.055974
2742.41	0.0508245
2725.05	0.0495623
2707.69	0.0483403
2690.33	0.0494178
2672.97	0.0529854
2655.61	0.0517716
2638.25	0.0486722
2620.89	0.0461635
2603.53	0.0457707
2586.17	0.0448137
2568.81	0.0440857
2551.45	0.0449917
2534.09	0.0456187
2516.73	0.0473905
2499.37	0.0549952
2482.01	0.0699397
2464.65	0.0903546
2447.29	0.0888145
2429.93	0.0772409
2412.57	0.0991447
2395.21	0.126887
2377.85	0.165642
2360.49	0.186541
2343.13	0.202357
2325.77	0.221249
2308.41	0.237368
2291.05	0.232236
2273.69	0.209857
2256.33	0.177995
2238.97	0.147141
2221.61	0.124302
2204.25	0.114594
2186.89	0.115263
2169.53	0.114065
2152.18	0.102913
2134.82	0.085674
2117.46	0.0700713
2100.1	0.0580696
2082.74	0.0492197
2065.38	0.0421656
2048.02	0.0389472
2030.66	0.0383317
2013.3	0.0357665
1995.94	0.0326192
1978.58	0.0297273
1961.22	0.027215
1943.86	0.0245273
1926.5	0.0223117
1909.14	0.0243687
1891.78	0.0338021
1874.42	0.0548519
1857.06	0.0528626
1839.7	0.0418125
1822.34	0.0605572
1804.98	0.0548747
1787.62	0.0510704
1770.26	0.0482107
1752.9	0.0461467
1735.54	0.0433168
1718.18	0.0438758
1700.82	0.0474695
1683.46	0.0475145
1666.1	0.0467838
1648.74	0.046381
1631.38	0.0462841
1614.02	0.046124
1596.66	0.0480875
1579.3	0.0515343
1561.94	0.0541793
1544.58	0.0561695
1527.22	0.0582055
1509.86	0.0590645
1492.5	0.0589611
1475.14	0.0584898
1457.78	0.0566794
1440.42	0.0541064
1423.06	0.0493538
1405.7	0.044898
1388.34	0.0425715
1370.98	0.041705
1353.62	0.0402682
1336.26	0.0385596
1318.9	0.0374759
1301.54	0.0377178
1284.19	0.0378505
1266.83	0.0377839
1249.47	0.0372814
1232.11	0.0362335
1214.75	0.0347811
1197.39	0.0338319
1180.03	0.0349757
1162.67	0.0358325
1145.31	0.0356206
1127.95	0.0354094
1110.59	0.035188
1093.23	0.0344131
1075.87	0.0326569
1058.51	0.0303086
1041.15	0.0262381
1023.79	0.0207043
1006.43	0.146299
989.068	0.0590973
971.709	0.0470402
954.349	0.0435207
936.989	0.0493774
919.629	0.0650622
902.269	0.0764027
884.91	0.0716116
867.55	0.052413
850.19	0.0394341
832.83	0.0383916
815.47	0.0510913
798.111	0.0980754
780.751	0.111296
763.391	0.11276
746.031	0.104922
728.671	0.0892698
711.312	0.0675577
693.952	0.0457021
676.592	0.0336297
659.232	0.0313438
641.872	0.0315785
624.513	0.0308342
607.153	0.0318008
