Infrared Spectrum: 5-Benzyloxyindole
Formula: C 15 H 13 N O
CAS: 1215-59-4
State: gas
Instrument: HP-GC/MS/IRD
Origin: NIST Mass Spectrometry Data Center
1/CM	ABSORBANCE
550	0.0004158
562	0.0001023
574	0.000726
586	0.0018744
598	0.0015114
610	0.0008646
622	0.0007293
634	0.0006336
646	0.0006336
658	0.0007689
670	0.0015411
682	0.0038643
694	0.0084216
706	0.0126258
718	0.0148236
730	0.0114081
742	0.0124509
754	0.0096723
766	0.0050424
778	0.0066396
790	0.0095931
802	0.0082599
814	0.0052437
826	0.0049698
838	0.0045243
850	0.0040029
862	0.0034584
874	0.0023859
886	0.0018579
898	0.0061479
910	0.0038346
922	0.0016797
934	0.0020823
946	0.0025377
958	0.0017754
970	0.0019107
982	0.0030624
994	0.0055638
1006	0.0077154
1018	0.010428
1030	0.0095568
1042	0.0048015
1054	0.0024849
1066	0.0032802
1078	0.0022605
1090	0.0022671
1102	0.0026301
1114	0.0052206
1126	0.0106953
1138	0.0163977
1150	0.033
1162	0.0131043
1174	0.0042372
1186	0.003201
1198	0.005181
1210	0.0199881
1222	0.0215028
1234	0.0092301
1246	0.007326
1258	0.0051084
1270	0.0144705
1282	0.0145563
1294	0.0053328
1306	0.0053724
1318	0.0056331
1330	0.0040293
1342	0.0027984
1354	0.0024684
1366	0.0041613
1378	0.0055836
1390	0.0029667
1402	0.0032868
1414	0.0031614
1426	0.0030162
1438	0.005874
1450	0.0156057
1462	0.01749
1474	0.0254397
1486	0.0112035
1498	0.0056793
1510	0.004587
1522	0.0053064
1534	0.002211
1546	0.0031053
1558	0.0043923
1570	0.0048246
1582	0.0064647
1594	0.0035046
1606	0.0027984
1618	0.0042273
1630	0.0044946
1642	0.0016995
1654	0.0009207
1666	0.0008811
1678	0.0011121
1690	0.0011979
1702	0.0008811
1714	0.0007557
1726	0.0005577
1738	0.0004059
1750	0.0001914
1762	0.0001155
1774	0.0001551
1786	0.0003036
1798	0.0005874
1810	0.0003993
1822	0.0003729
1834	0.0004983
1846	0.000495
1858	0.0004785
1870	0.0004884
1882	0.0004323
1894	0.0002277
1906	0.0001584
1918	0.0002244
1930	0.0003696
1942	0.0005016
1954	0.0005511
1966	0.0002871
1978	0.0001617
1990	0.0001584
2002	0.0001518
2014	0.0002013
2026	0.0002145
2038	0.0002211
2050	0.0002145
2062	0.0001881
2074	0.0001419
2086	8.25e-05
2098	6.27e-05
2110	5.94e-05
2122	9.57e-05
2134	9.57e-05
2146	0.0001254
2158	0.0001155
2170	0.0001551
2182	0.0001452
2194	0.000132
2206	0.0001518
2218	0.0001254
2230	8.91e-05
2242	7.26e-05
2254	6.27e-05
2266	8.58e-05
2278	8.58e-05
2290	0.0001056
2302	0.0001419
2314	0.000165
2326	0.0001188
2338	0.000165
2350	0.0001782
2362	0.0001287
2374	0.0001221
2386	8.91e-05
2398	0.0001188
2410	0.0001716
2422	0.0001782
2434	0.000132
2446	0.0001617
2458	0.0002046
2470	0.000231
2482	0.0002343
2494	0.000198
2506	0.0001716
2518	0.0001815
2530	0.0002277
2542	0.0001353
2554	0.0001122
2566	6.6e-05
2578	0.0001188
2590	0.0001056
2602	0.0001485
2614	0.0001683
2626	0.0001881
2638	0.0001551
2650	0.0001452
2662	0.0001386
2674	0.0001782
2686	0.0001716
2698	0.0001287
2710	0.0001122
2722	0.0001221
2734	0.0001419
2746	0.0001353
2758	0.0001122
2770	5.28e-05
2782	0.0001815
2794	0.0001848
2806	0.00033
2818	0.0005049
2830	0.0006831
2842	0.0008514
2854	0.0013431
2866	0.0021516
2878	0.0031317
2890	0.0028479
2902	0.0024981
2914	0.0024156
2926	0.0026301
2938	0.0028347
2950	0.0026961
2962	0.0019404
2974	0.0010989
2986	0.0006798
2998	0.0007656
3010	0.0015345
3022	0.0036135
3034	0.0068178
3046	0.0055044
3058	0.0048147
3070	0.0074052
3082	0.0051909
3094	0.0035805
3106	0.002376
3118	0.0015246
3130	0.0013233
3142	0.0011187
3154	0.0003762
3166	0.0002706
3178	0.0001353
3190	4.62e-05
3202	3.63e-05
3214	9.57e-05
3226	6.27e-05
3238	5.61e-05
3250	0.0001122
3262	0.0001056
3274	9.24e-05
3286	8.91e-05
3298	8.25e-05
3310	8.58e-05
3322	0.0001716
3334	8.58e-05
3346	0.0001386
3358	0.0001155
3370	0.0002145
3382	0.0001353
3394	0.0001914
3406	0.0001815
3418	0.0002145
3430	0.0003036
3442	0.0004191
3454	0.000627
3466	0.000858
3478	0.0015708
3490	0.0033891
3502	0.0042801
3514	0.0071214
3526	0.0090684
3538	0.0020394
3550	0.0006369
3562	0.0003036
3574	0.0003135
3586	0.0001914
3598	0.0002376
3610	0.0002112
3622	0.0002904
3634	0.0002706
3646	0.0002904
3658	0.0003234
3670	0.0002871
3682	0.0002244
3694	0.0002376
3706	0.0002607
3718	0.000264
3730	0.0002145
3742	0.0002508
3754	0.0001683
3766	0.0003036
3778	0.00033
3790	0.0002838
3802	0.000231
3814	0.0002673
3826	0.0003135
3838	0.0003168
