Infrared Spectrum: Imidazole-4(or 5)-carboxamide, 5(or 4)-diazo-4,5-dihydro-
Formula: C4 H5 N5 O
CAS: 121514-72-5
State: SOLID (0.8 mg / 650 mg KBr DISC)
Class: COBLENTZ III
Instrument: PERKIN-ELMER 221 (GRATING)
Instrument parameters: FILTER AT 980 CM^-^1. GRATING 4000-1428 CM^-^1, NaCl PRISM 1428-650 CM^-^1
Resolution: 2
Origin: SOUTHERN RESEARCH INSTITUTE
1/CM	TRANSMITTANCE
613	0.7952
622	0.7322
631	0.5189
640	0.562
649	0.5338
658	0.5291
667	0.6668
676	0.6559
685	0.6132
694	0.5903
703	0.61
712	0.6468
721	0.5029
730	0.3006
739	0.7192
748	0.7766
757	0.7971
766	0.8044
775	0.8231
784	0.8198
793	0.8284
802	0.8466
811	0.8619
820	0.8724
829	0.8824
838	0.8869
847	0.8869
856	0.8841
865	0.8788
874	0.8605
883	0.6866
892	0.8492
901	0.8804
910	0.8808
919	0.8785
928	0.8739
937	0.7738
946	0.8731
955	0.8709
964	0.8688
973	0.8612
982	0.8502
991	0.8431
1000	0.8376
1009	0.8303
1018	0.8314
1027	0.8298
1036	0.8256
1045	0.8177
1054	0.8074
1063	0.7896
1072	0.7396
1081	0.5636
1090	0.6671
1099	0.7078
1108	0.6704
1117	0.6187
1126	0.6465
1135	0.4161
1144	0.3109
1153	0.824
1162	0.8216
1171	0.7908
1180	0.7783
1189	0.748
1198	0.7052
1207	0.6482
1216	0.484
1225	0.3111
1234	0.318
1243	0.3299
1252	0.3601
1261	0.6504
1270	0.8143
1279	0.807
1288	0.7943
1297	0.7867
1306	0.7551
1315	0.6753
1324	0.5616
1333	0.3824
1342	0.5325
1351	0.4656
1360	0.3596
1369	0.4587
1378	0.6111
1387	0.7237
1396	0.7213
1405	0.7144
1414	0.7064
1423	0.638
1432	0.4845
1441	0.335
1450	0.5988
1459	0.8113
1468	0.7939
1477	0.7585
1486	0.7511
1495	0.6969
1504	0.5991
1513	0.4205
1522	0.443
1531	0.6827
1540	0.7098
1549	0.7472
1558	0.7566
1567	0.7555
1576	0.7487
1585	0.7266
1594	0.701
1603	0.6696
1612	0.597
1621	0.5067
1630	0.534
1639	0.6344
1648	0.6502
1657	0.6328
1666	0.5785
1675	0.5273
1684	0.4831
1693	0.3972
1702	0.2315
1711	0.3925
1720	0.6936
1729	0.7974
1738	0.8461
1747	0.8639
1756	0.86
1765	0.7942
1774	0.8646
1783	0.8732
1792	0.8744
1801	0.8739
1810	0.8728
1819	0.8712
1828	0.8696
1837	0.8684
1846	0.8687
1855	0.8737
1864	0.8734
1873	0.8706
1882	0.8658
1891	0.8582
1900	0.8538
1909	0.851
1918	0.848
1927	0.8449
1936	0.8415
1945	0.8397
1954	0.838
1963	0.8363
1972	0.834
1981	0.8312
1990	0.8277
1999	0.8246
2008	0.8199
2017	0.813
2026	0.8055
2035	0.7979
2044	0.7894
2053	0.7798
2062	0.7706
2071	0.7616
2080	0.7524
2089	0.7422
2098	0.7297
2107	0.7143
2116	0.6914
2125	0.6646
2134	0.6338
2143	0.5791
2152	0.5069
2161	0.4216
2170	0.3051
2179	0.2039
2188	0.1435
2197	0.2082
2206	0.4549
2215	0.6892
2224	0.7719
2233	0.8591
2242	0.8727
2251	0.8755
2260	0.8756
2269	0.8751
2278	0.8739
2287	0.8688
2296	0.8571
2305	0.8418
2314	0.8203
2323	0.8109
2332	0.8146
2341	0.8186
2350	0.8221
2359	0.8246
2368	0.8252
2377	0.8249
2386	0.8246
2395	0.824
2404	0.8225
2413	0.8228
2422	0.8287
2431	0.8278
2440	0.8192
2449	0.8098
2458	0.8025
2467	0.7998
2476	0.8082
2485	0.8106
2494	0.8106
2503	0.8101
2512	0.8088
2521	0.8041
2530	0.7978
2539	0.7921
2548	0.7891
2557	0.7853
2566	0.7816
2575	0.7772
2584	0.7728
2593	0.7683
2602	0.764
2611	0.7606
2620	0.7571
2629	0.7524
2638	0.7473
2647	0.7422
2656	0.7369
2665	0.7313
2674	0.7256
2683	0.7196
2692	0.7142
2701	0.7094
2710	0.7047
2719	0.6995
2728	0.6929
2737	0.6851
2746	0.6763
2755	0.6668
2764	0.6583
2773	0.6538
2782	0.6465
2791	0.6579
2800	0.6767
2809	0.6803
2818	0.6806
2827	0.6797
2836	0.6779
2845	0.6745
2854	0.6712
2863	0.6677
2872	0.6625
2881	0.6528
2890	0.6408
2899	0.6295
2908	0.6166
2917	0.6074
2926	0.6014
2935	0.5978
2944	0.5917
2953	0.5819
2962	0.57
2971	0.5587
2980	0.5461
2989	0.5335
2998	0.5217
3007	0.5122
3016	0.4997
3025	0.4724
3034	0.4548
3043	0.4384
3052	0.424
3061	0.4088
3070	0.379
3079	0.3628
3088	0.3473
3097	0.3208
3106	0.294
3115	0.273
3124	0.2667
3133	0.2645
3142	0.2646
3151	0.2665
3160	0.2695
3169	0.2747
3178	0.2787
3187	0.2843
3196	0.2918
3205	0.3008
3214	0.3064
3223	0.3077
3232	0.3048
3241	0.2981
3250	0.2878
3259	0.2731
3268	0.2623
3277	0.266
3286	0.2816
3295	0.2954
3304	0.3186
3313	0.3769
3322	0.4341
3331	0.4858
3340	0.5276
3349	0.5521
3358	0.562
3367	0.566
3376	0.578
3385	0.5851
3394	0.6109
3403	0.6393
3412	0.6542
3421	0.662
3430	0.6655
3439	0.6734
3448	0.6815
3457	0.6885
3466	0.6946
3475	0.702
3484	0.708
3493	0.7105
3502	0.7125
3511	0.7139
3520	0.7152
3529	0.718
3538	0.7252
3547	0.7323
3556	0.7348
3565	0.7373
3574	0.7397
3583	0.7413
3592	0.7446
3601	0.7557
3610	0.7603
3619	0.762
3628	0.7635
3637	0.764
3646	0.7634
3655	0.7611
3664	0.7583
3673	0.757
3682	0.7573
3691	0.7577
3700	0.7579
3709	0.7579
3718	0.7577
3727	0.7574
3736	0.7572
3745	0.7566
3754	0.7558
3763	0.755
3772	0.754
3781	0.7545
3790	0.7529
3799	0.7443
3808	0.7412
3817	0.7412
3826	0.7408
3835	0.7409
3844	0.7336
3853	0.7321
3862	0.7316
3871	0.7307
3880	0.7307
3889	0.7306
3898	0.7304
3907	0.7304
3916	0.7304
3925	0.7304
3934	0.73
3943	0.7298
3952	0.7298
3961	0.7299
3970	0.7304
3979	0.7298
3988	0.7304
3997	0.7316
