Infrared Spectrum: 2-NAPHTHANILIDE, 4-[4-DIETHYLAMINO-o-TOLYLIMINO]-1,4-DIHYDRO-N-METHYL-1-OXO-
Formula: C29 H29 N3 O2
CAS: 121676-58-2
State: SOLID (KBr PRESSING)
Melting point: 188-189 C
Class: COBLENTZ
Instrument: Not specified, most likely a prism, grating, or hybrid spectrometer.
Sampling: TRANSMISSION
Resolution: 4
Origin: EASTMAN KODAK COMPANY, RESEARCH LABORATORIES, ROCHESTER, N.Y.
MICROMETERS	TRANSMITTANCE
2.028	0.564
2.06323	0.547
2.09846	0.533
2.13369	0.529
2.16892	0.528
2.20415	0.528
2.23938	0.528
2.27461	0.528
2.30984	0.529
2.34507	0.531
2.3803	0.531
2.41553	0.536
2.45076	0.542
2.48599	0.545
2.52122	0.552
2.55645	0.57
2.59168	0.575
2.62691	0.58
2.66214	0.585
2.69737	0.603
2.7326	0.612
2.76783	0.614
2.80306	0.608
2.83829	0.594
2.87352	0.559
2.90875	0.545
2.94398	0.54
2.97921	0.538
3.01444	0.547
3.04967	0.566
3.0849	0.587
3.12012	0.594
3.15535	0.605
3.19058	0.617
3.22581	0.631
3.26104	0.629
3.29627	0.598
3.3315	0.587
3.36673	0.6
3.40196	0.475
3.43719	0.468
3.47242	0.482
3.50765	0.519
3.54288	0.568
3.57811	0.614
3.61334	0.64
3.64857	0.652
3.6838	0.659
3.71903	0.682
3.75426	0.685
3.78949	0.689
3.82472	0.691
3.85995	0.689
3.89518	0.687
3.93041	0.685
3.96564	0.694
4.00087	0.714
4.0361	0.722
4.07133	0.733
4.10656	0.747
4.14179	0.757
4.17702	0.761
4.21225	0.764
4.24748	0.771
4.28271	0.785
4.31794	0.801
4.35317	0.801
4.3884	0.798
4.42363	0.796
4.45886	0.801
4.49409	0.805
4.52932	0.808
4.56455	0.808
4.59978	0.808
4.63501	0.81
4.67024	0.812
4.70547	0.814
4.7407	0.819
4.77593	0.821
4.81116	0.826
4.84639	0.833
4.88162	0.836
4.91685	0.838
4.95208	0.842
4.98731	0.843
5.02254	0.847
5.05777	0.845
5.093	0.842
5.12823	0.842
5.16346	0.847
5.19869	0.854
5.23392	0.863
5.26915	0.866
5.30438	0.871
5.3396	0.871
5.37483	0.871
5.41006	0.877
5.44529	0.887
5.48052	0.892
5.51575	0.896
5.55098	0.898
5.58621	0.905
5.62144	0.915
5.65667	0.926
5.6919	0.931
5.72713	0.935
5.76236	0.933
5.79759	0.929
5.83282	0.926
5.86805	0.935
5.90328	0.929
5.93851	0.908
5.97374	0.757
6.00897	0.347
6.0442	0.175
6.07943	0.119
6.11466	0.154
6.14989	0.138
6.18512	0.163
6.22035	0.145
6.25558	0.117
6.29081	0.049
6.32604	0.107
6.36127	0.263
6.3965	0.4
6.43173	0.484
6.46696	0.552
6.50219	0.612
6.53742	0.612
6.57265	0.585
6.60788	0.243
6.64311	0.198
6.67834	0.147
6.71357	0.124
6.7488	0.152
6.78403	0.242
6.81926	0.282
6.85449	0.3
6.88972	0.219
6.92495	0.247
6.96018	0.292
6.99541	0.31
7.03064	0.317
7.06587	0.373
7.1011	0.457
7.13633	0.342
7.17156	0.242
7.20679	0.14
7.24202	0.136
7.27725	0.173
7.31248	0.331
7.34771	0.31
7.38294	0.175
7.41817	0.1
7.4534	0.117
7.48863	0.254
7.52385	0.277
7.55908	0.198
7.59431	0.142
7.62954	0.156
7.66477	0.185
7.7	0.233
7.73523	0.307
7.77046	0.371
7.80569	0.343
7.84092	0.331
7.87615	0.289
7.91138	0.159
7.94661	0.071
7.98184	0.078
8.01707	0.143
8.0523	0.282
8.08753	0.38
8.12276	0.456
8.15799	0.503
8.19322	0.535
8.22845	0.552
8.26368	0.571
8.29891	0.582
8.33414	0.564
8.36937	0.5
8.4046	0.343
8.43983	0.356
8.47506	0.447
8.51029	0.473
8.54552	0.507
8.58075	0.54
8.61598	0.505
8.65121	0.484
8.68644	0.54
8.72167	0.594
8.7569	0.647
8.79213	0.67
8.82736	0.668
8.86259	0.614
8.89782	0.529
8.93305	0.438
8.96828	0.484
9.00351	0.566
9.03874	0.601
9.07397	0.528
9.1092	0.45
9.14443	0.45
9.17966	0.51
9.21489	0.542
9.25012	0.356
9.28535	0.214
9.32058	0.107
9.35581	0.098
9.39104	0.198
9.42627	0.349
9.4615	0.431
9.49673	0.503
9.53196	0.559
9.56719	0.573
9.60242	0.563
9.63765	0.566
9.67287	0.547
9.7081	0.421
9.74333	0.415
9.77856	0.408
9.81379	0.329
9.84902	0.408
9.88425	0.492
9.91948	0.557
9.95471	0.57
9.98994	0.543
10.0252	0.545
10.0604	0.531
10.0956	0.512
10.1309	0.577
10.1661	0.626
10.2013	0.661
10.2366	0.691
10.2718	0.703
10.307	0.708
10.3422	0.707
10.3775	0.705
10.4127	0.707
10.4479	0.707
10.4832	0.708
10.5184	0.721
10.5536	0.726
10.5889	0.719
10.6241	0.701
10.6593	0.705
10.6945	0.715
10.7298	0.703
10.765	0.608
10.8002	0.577
10.8355	0.496
10.8707	0.38
10.9059	0.429
10.9411	0.51
10.9764	0.626
11.0116	0.682
11.0468	0.708
11.0821	0.724
11.1173	0.728
11.1525	0.74
11.1878	0.747
11.223	0.749
11.2582	0.761
11.2934	0.775
11.3287	0.784
11.3639	0.792
11.3991	0.789
11.4344	0.771
11.4696	0.666
11.5048	0.578
11.5401	0.549
11.5753	0.57
11.6105	0.626
11.6457	0.666
11.681	0.689
11.7162	0.677
11.7514	0.649
11.7867	0.622
11.8219	0.607
11.8571	0.621
11.8924	0.663
11.9276	0.707
11.9628	0.726
11.998	0.749
12.0333	0.749
12.0685	0.743
12.1037	0.687
12.139	0.608
12.1742	0.621
12.2094	0.675
12.2447	0.68
12.2799	0.638
12.3151	0.563
12.3503	0.41
12.3856	0.359
12.4208	0.263
12.456	0.314
12.4913	0.435
12.5265	0.492
12.5617	0.466
12.597	0.384
12.6322	0.317
12.6674	0.352
12.7026	0.428
12.7379	0.44
12.7731	0.324
12.8083	0.271
12.8436	0.34
12.8788	0.356
12.914	0.285
12.9493	0.247
12.9845	0.326
13.0197	0.489
13.0549	0.543
13.0902	0.592
13.1254	0.615
13.1606	0.594
13.1959	0.45
13.2311	0.343
13.2663	0.373
13.3015	0.468
13.3368	0.564
13.372	0.622
13.4072	0.652
13.4425	0.675
13.4777	0.687
13.5129	0.705
13.5482	0.712
13.5834	0.719
13.6186	0.708
13.6538	0.678
13.6891	0.645
13.7243	0.629
13.7595	0.633
13.7948	0.635
13.83	0.636
13.8652	0.638
13.9005	0.603
13.9357	0.57
13.9709	0.571
14.0061	0.58
14.0414	0.584
14.0766	0.507
14.1118	0.391
14.1471	0.25
14.1823	0.222
14.2175	0.252
14.2528	0.285
14.288	0.294
14.3232	0.324
14.3584	0.371
14.3937	0.424
14.4289	0.477
14.4641	0.519
14.4994	0.507
14.5346	0.484
14.5698	0.473
14.6051	0.47
14.6403	0.477
14.6755	0.494
14.7107	0.519
14.746	0.536
14.7812	0.547
14.8164	0.561
14.8517	0.57
14.8869	0.568
14.9221	0.561
14.9574	0.552
14.9926	0.575
15.0278	0.596
15.063	0.575
15.0983	0.557
15.1335	0.543
15.1687	0.526
15.204	0.522
15.2392	0.515
15.2744	0.507
15.3096	0.492
15.3449	0.473
15.3801	0.463
15.4153	0.443
15.4506	0.422
15.4858	0.41
15.521	0.414
15.5563	0.417
15.5915	0.421
15.6267	0.422
15.6619	0.424
15.6972	0.426
15.7324	0.426
15.7676	0.428
15.8029	0.424
15.8381	0.422
15.8733	0.421
15.9086	0.415
15.9438	0.412
15.979	0.412
