Infrared Spectrum: 1,1'-DIBENZOYL FERROCENE
Formula: C24 H18 Fe O2
CAS: 12180-80-2
State: SOLID (MINERAL OIL MULL)
Melting point: 104-105 C
Class: COBLENTZ
Instrument: Not specified, most likely a prism, grating, or hybrid spectrometer.
Sampling: TRANSMISSION
Resolution: 4
Origin: WYANDOTTE CHEMICALS CORP., WYANDOTTE, MICHIGAN, USA
MICROMETERS	TRANSMITTANCE
2.027	0.629
2.06782	0.641
2.10864	0.653
2.14945	0.66
2.19027	0.655
2.23109	0.66
2.27191	0.672
2.31272	0.682
2.35354	0.686
2.39436	0.687
2.43518	0.701
2.47599	0.692
2.51681	0.715
2.55763	0.737
2.59845	0.732
2.63926	0.745
2.68008	0.744
2.7209	0.75
2.76172	0.757
2.80253	0.752
2.84335	0.757
2.88417	0.752
2.92499	0.761
2.9658	0.759
3.00662	0.759
3.04744	0.761
3.08826	0.742
3.12907	0.745
3.16989	0.744
3.21071	0.672
3.25153	0.68
3.29234	0.646
3.33316	0.31
3.37398	0.047
3.4148	0.073
3.45561	0.172
3.49643	0.151
3.53725	0.691
3.57807	0.8
3.61888	0.827
3.6597	0.824
3.70052	0.834
3.74134	0.837
3.78215	0.844
3.82297	0.86
3.86379	0.861
3.90461	0.87
3.94542	0.877
3.98624	0.883
4.02706	0.887
4.06788	0.877
4.10869	0.88
4.14951	0.889
4.19033	0.892
4.23115	0.883
4.27196	0.887
4.31278	0.901
4.3536	0.909
4.39442	0.921
4.43523	0.909
4.47605	0.916
4.51687	0.916
4.55769	0.919
4.5985	0.924
4.63932	0.928
4.68014	0.926
4.72096	0.93
4.76177	0.93
4.80259	0.933
4.84341	0.947
4.88423	0.945
4.92504	0.95
4.96586	0.945
5.00668	0.95
5.0475	0.94
5.08831	0.928
5.12913	0.93
5.16995	0.943
5.21077	0.94
5.25158	0.926
5.2924	0.936
5.33322	0.957
5.37404	0.96
5.41485	0.952
5.45567	0.95
5.49649	0.928
5.53731	0.919
5.57812	0.916
5.61894	0.912
5.65976	0.924
5.70058	0.912
5.74139	0.902
5.78221	0.873
5.82303	0.882
5.86385	0.88
5.90466	0.861
5.94548	0.824
5.9863	0.784
6.02712	0.675
6.06793	0.162
6.10875	0.175
6.14957	0.624
6.19039	0.445
6.2312	0.706
6.27202	0.566
6.31284	0.703
6.35366	0.786
6.39447	0.832
6.43529	0.812
6.47611	0.803
6.51693	0.798
6.55774	0.843
6.59856	0.841
6.63938	0.808
6.6802	0.779
6.72101	0.723
6.76183	0.431
6.80265	0.262
6.84347	0.1
6.88428	0.211
6.9251	0.424
6.96592	0.73
7.00674	0.79
7.04755	0.812
7.08837	0.742
7.12919	0.735
7.17001	0.733
7.21082	0.453
7.25164	0.187
7.29246	0.626
7.33328	0.747
7.37409	0.793
7.41491	0.767
7.45573	0.774
7.49655	0.795
7.53736	0.561
7.57818	0.549
7.619	0.517
7.65982	0.481
7.70064	0.124
7.74145	0.109
7.78227	0.459
7.82309	0.646
7.86391	0.72
7.90472	0.764
7.94554	0.79
7.98636	0.798
8.02718	0.819
8.06799	0.839
8.10881	0.856
8.14963	0.858
8.19045	0.858
8.23126	0.878
8.27208	0.882
8.3129	0.885
8.35372	0.877
8.39453	0.841
8.43535	0.745
8.47617	0.636
8.51699	0.53
8.5578	0.711
8.59862	0.79
8.63944	0.861
8.68026	0.899
8.72107	0.916
8.76189	0.935
8.80271	0.943
8.84353	0.948
8.88434	0.938
8.92516	0.921
8.96598	0.93
9.0068	0.94
9.04761	0.94
9.08843	0.921
9.12925	0.877
9.17007	0.786
9.21088	0.72
9.2517	0.762
9.29252	0.723
9.33334	0.841
9.37415	0.791
9.41497	0.711
9.45579	0.573
9.49661	0.668
9.53742	0.839
9.57824	0.87
9.61906	0.861
9.65988	0.745
9.70069	0.481
9.74151	0.716
9.78233	0.851
9.82315	0.883
9.86396	0.897
9.90478	0.901
9.9456	0.889
9.98642	0.86
10.0272	0.853
10.0681	0.901
10.1089	0.909
10.1497	0.911
10.1905	0.901
10.2313	0.873
10.2721	0.837
10.313	0.873
10.3538	0.887
10.3946	0.851
10.4354	0.749
10.4762	0.583
10.517	0.634
10.5579	0.778
10.5987	0.849
10.6395	0.817
10.6803	0.848
10.7211	0.858
10.7619	0.892
10.8028	0.902
10.8436	0.907
10.8844	0.911
10.9252	0.909
10.966	0.904
11.0069	0.889
11.0477	0.86
11.0885	0.796
11.1293	0.894
11.1701	0.912
11.2109	0.895
11.2518	0.786
11.2926	0.66
11.3334	0.817
11.3742	0.877
11.415	0.889
11.4558	0.873
11.4967	0.796
11.5375	0.752
11.5783	0.677
11.6191	0.356
11.6599	0.305
11.7008	0.641
11.7416	0.735
11.7824	0.72
11.8232	0.651
11.864	0.46
11.9048	0.426
11.9457	0.651
11.9865	0.602
12.0273	0.518
12.0681	0.646
12.1089	0.732
12.1497	0.779
12.1906	0.843
12.2314	0.868
12.2722	0.875
12.313	0.877
12.3538	0.865
12.3946	0.849
12.4355	0.791
12.4763	0.587
12.5171	0.498
12.5579	0.749
12.5987	0.863
12.6396	0.897
12.6804	0.906
12.7212	0.914
12.762	0.919
12.8028	0.921
12.8436	0.918
12.8845	0.918
12.9253	0.916
12.9661	0.909
13.0069	0.904
13.0477	0.897
13.0885	0.899
13.1294	0.895
13.1702	0.889
13.211	0.889
13.2518	0.882
13.2926	0.882
13.3335	0.883
13.3743	0.878
13.4151	0.87
13.4559	0.856
13.4967	0.841
13.5375	0.807
13.5784	0.749
13.6192	0.624
13.66	0.453
13.7008	0.203
13.7416	0.116
13.7824	0.192
13.8233	0.433
13.8641	0.624
13.9049	0.721
13.9457	0.798
13.9865	0.827
14.0274	0.837
14.0682	0.844
14.109	0.843
14.1498	0.803
14.1906	0.747
14.2314	0.576
14.2723	0.392
14.3131	0.245
14.3539	0.213
14.3947	0.336
14.4355	0.568
14.4763	0.715
14.5172	0.79
14.558	0.822
14.5988	0.836
14.6396	0.839
14.6804	0.843
14.7212	0.839
14.7621	0.827
14.8029	0.791
14.8437	0.733
14.8845	0.662
14.9253	0.6
14.9662	0.563
15.007	0.546
15.0478	0.6
15.0886	0.706
15.1294	0.773
15.1702	0.788
15.2111	0.791
15.2519	0.79
15.2927	0.784
15.3335	0.783
15.3743	0.774
15.4151	0.769
15.456	0.762
15.4968	0.752
15.5376	0.749
15.5784	0.749
15.6192	0.737
15.6601	0.728
15.7009	0.723
15.7417	0.718
15.7825	0.704
15.8233	0.691
15.8641	0.687
15.905	0.68
15.9458	0.667
15.9866	0.653
