Infrared Spectrum: Dimethyl isothiocyanatosuccinate
Formula: C 7 H 9 N O 4 S
CAS: 121928-38-9
State: gas
Origin: EPA-IR VAPOR PHASE LIBRARY
1/CM	ABSORBANCE
549.8	0.013118
559.445	0.011088
569.09	0.008778
578.734	0.007738
588.379	0.006618
598.024	0.006128
607.669	0.005878
617.313	0.006088
626.958	0.007518
636.603	0.009078
646.248	0.010258
655.893	0.010548
665.537	0.010158
675.182	0.009808
684.827	0.009938
694.472	0.009638
704.116	0.008938
713.761	0.008268
723.406	0.007498
733.051	0.006048
742.695	0.004808
752.34	0.003728
761.985	0.003408
771.63	0.003598
781.275	0.004078
790.919	0.004128
800.564	0.004898
810.209	0.005728
819.854	0.005548
829.498	0.006588
839.143	0.008288
848.788	0.009058
858.433	0.007548
868.078	0.006638
877.722	0.005298
887.367	0.005898
897.012	0.007338
906.657	0.007328
916.301	0.007188
925.946	0.008448
935.591	0.010738
945.236	0.012328
954.88	0.011568
964.525	0.011198
974.17	0.013328
983.815	0.019688
993.46	0.030898
1003.1	0.041588
1012.75	0.042068
1022.39	0.034628
1032.04	0.026898
1041.68	0.023268
1051.33	0.021568
1060.97	0.017058
1070.62	0.013538
1080.26	0.012358
1089.91	0.012978
1099.55	0.013508
1109.2	0.016448
1118.84	0.020818
1128.49	0.027208
1138.13	0.038108
1147.78	0.059298
1157.42	0.098678
1167.07	0.136178
1176.71	0.132078
1186.36	0.116208
1196	0.112848
1205.64	0.109188
1215.29	0.100388
1224.93	0.096058
1234.58	0.096418
1244.22	0.103168
1253.87	0.108658
1263.51	0.107508
1273.16	0.102808
1282.8	0.088748
1292.45	0.067018
1302.09	0.047588
1311.74	0.038678
1321.38	0.040178
1331.03	0.045408
1340.67	0.046888
1350.32	0.048078
1359.96	0.051218
1369.61	0.043318
1379.25	0.023838
1388.9	0.014288
1398.54	0.011538
1408.18	0.013038
1417.83	0.017848
1427.47	0.023218
1437.12	0.048068
1446.76	0.042078
1456.41	0.017058
1466.05	0.012748
1475.7	0.009998
1485.34	0.007748
1494.99	0.006168
1504.63	0.005278
1514.28	0.004838
1523.92	0.004638
1533.57	0.004558
1543.21	0.004588
1552.86	0.004498
1562.5	0.004478
1572.15	0.004398
1581.79	0.004138
1591.44	0.004008
1601.08	0.003678
1610.73	0.003578
1620.37	0.003368
1630.01	0.003268
1639.66	0.003328
1649.3	0.003408
1658.95	0.003678
1668.59	0.004028
1678.24	0.004638
1687.88	0.005778
1697.53	0.007458
1707.17	0.010848
1716.82	0.016858
1726.46	0.026708
1736.11	0.045508
1745.75	0.084778
1755.4	0.173608
1765.04	0.234818
1774.69	0.165808
1784.33	0.097058
1793.98	0.051078
1803.62	0.025628
1813.27	0.014818
1822.91	0.009558
1832.55	0.007088
1842.2	0.005758
1851.84	0.005408
1861.49	0.005348
1871.13	0.005678
1880.78	0.006158
1890.42	0.007178
1900.07	0.008558
1909.71	0.010658
1919.36	0.013668
1929	0.017688
1938.65	0.022868
1948.29	0.030148
1957.94	0.040278
1967.58	0.054398
1977.23	0.073548
1986.87	0.099368
1996.52	0.133638
2006.16	0.177998
2015.81	0.231038
2025.45	0.282598
2035.1	0.301008
2044.74	0.267578
2054.38	0.210788
2064.03	0.159318
2073.67	0.126348
2083.32	0.109158
2092.96	0.097488
2102.61	0.086198
2112.25	0.076248
2121.9	0.066528
2131.54	0.055258
2141.19	0.043888
2150.83	0.034338
2160.48	0.027278
2170.12	0.022158
2179.77	0.018638
2189.41	0.016148
2199.06	0.014068
2208.7	0.012388
2218.35	0.011118
2227.99	0.010148
2237.64	0.009328
2247.28	0.008608
2256.92	0.007788
2266.57	0.006948
2276.21	0.006138
2285.86	0.005378
2295.5	0.004518
2305.15	0.003818
2314.79	0.003428
2324.44	0.002998
2334.08	0.002778
2343.73	0.002688
2353.37	0.002458
2363.02	0.002318
2372.66	0.002178
2382.31	0.001978
2391.95	0.001828
2401.6	0.001678
2411.24	0.001638
2420.89	0.001558
2430.53	0.001558
2440.18	0.0014849
2449.82	0.0014268
2459.47	0.001484
2469.11	0.0014901
2478.75	0.0014169
2488.4	0.0015161
2498.04	0.001628
2507.69	0.001638
2517.33	0.001828
2526.98	0.002068
2536.62	0.002298
2546.27	0.002478
2555.91	0.002808
2565.56	0.002758
2575.2	0.002798
2584.85	0.002598
2594.49	0.002568
2604.14	0.002258
2613.78	0.002278
2623.43	0.002018
2633.07	0.001928
2642.72	0.001728
2652.36	0.001818
2662.01	0.001748
2671.65	0.001708
2681.29	0.001688
2690.94	0.001828
2700.58	0.002118
2710.23	0.002218
2719.87	0.002378
2729.52	0.002688
2739.16	0.002788
2748.81	0.002948
2758.45	0.002968
2768.1	0.002668
2777.74	0.002488
2787.39	0.002238
2797.03	0.002098
2806.68	0.001938
2816.32	0.002058
2825.97	0.002368
2835.61	0.003248
2845.26	0.005898
2854.9	0.008638
2864.55	0.005298
2874.19	0.003898
2883.84	0.003838
2893.48	0.005488
2903.12	0.007738
2912.77	0.009038
2922.41	0.009318
2932.06	0.009748
2941.7	0.012738
2951.35	0.023288
2960.99	0.050678
2970.64	0.037408
2980.28	0.013228
2989.93	0.010778
2999.57	0.011898
3009.22	0.012658
3018.86	0.010878
3028.51	0.009968
3038.15	0.009088
3047.8	0.006628
3057.44	0.004968
3067.09	0.003838
3076.73	0.003158
3086.38	0.002748
3096.02	0.002888
3105.67	0.002588
3115.31	0.002258
3124.95	0.001968
3134.6	0.0013944
3144.24	0.0012928
3153.89	0.0010447
3163.53	0.0008531
3173.18	0.0006923
3182.82	0.0008058
3192.47	0.0006383
3202.11	0.0004598
3211.76	0.000377
3221.4	0.000222
3231.05	0.000153
3240.69	0.00027
3250.34	0.000248
3259.98	0.000253
3269.63	0.000194
3279.27	0.000216
3288.92	0.000262
3298.56	0.000298
3308.21	0.00028
3317.85	0.000145
3327.49	8.5e-05
3337.14	0.000271
3346.78	0.000162
3356.43	0.000227
3366.07	0.000307
3375.72	0.0003
3385.36	0.00029
3395.01	0.00014
3404.65	0.0004
3414.3	0.000315
3423.94	0.00034
3433.59	0.000277
3443.23	0.000373
3452.88	0.00059865
3462.52	0.00054907
3472.17	0.0006403
3481.81	0.0010736
3491.46	0.001598
3501.1	0.002148
3510.75	0.002488
3520.39	0.002128
3530.04	0.001768
3539.68	0.0014329
3549.32	0.000998
3558.97	0.0008642
3568.61	0.00055728
3578.26	0.0007112
3587.9	0.000337
3597.55	0.0004359
3607.19	0.000212
3616.84	0.0004692
3626.48	0.000527565
3636.13	0.000363
3645.77	0.000397
3655.42	0.000136
3665.06	0.000364
3674.71	0.000272
3684.35	0.00025
3694	0.000279
3703.64	0.000132
3713.29	0.000381
3722.93	0.000356
3732.58	0.0004455
3742.22	0.000318
3751.86	0.00035
3761.51	0.0006501
3771.15	0.000337
3780.8	0.000416
3790.44	0.000529621
3800.09	0.0004511
3809.73	0.0004541
3819.38	0.000315
3829.02	0.000285
3838.67	0.000301
3848.31	0.000369
3857.96	0.00056583
3867.6	0.00052898
3877.25	0.0006858
3886.89	0.0007
3896.54	0.0006298
3906.18	0.0008472
3915.83	0.0009991
3925.47	0.0009271
3935.12	0.0009745
3944.76	0.0011279
3954.41	0.0013307
3964.05	0.0013227
3973.69	0.001568
3983.34	0.001638
3992.98	0.001618
