Infrared Spectrum: AMMONIUM COMPOUNDS, SUBSTITUTED-(5-HYDROXY-4-OXO-4H-PYRAN-2-YLMETHYL)DIMETHYLOCTADECYL- CHLORIDE
Formula: C26 H48 Cl N O3
CAS: 121968-90-9
State: SOLID (SPLIT MULL), FLUOROLUBE FOR 3800-1330 CM^-^1, NUJOL FOR 1330-400 CM^-^1
Class: COBLENTZ III
Instrument: BECKMAN IR-9 (GRATING)
Instrument parameters: ORDER CHANGES: 670, 1200, 2000 CM^-^1
Sampling: TRANSMISSION
Resolution: 2
Origin: DOW CHEMICAL COMPANY
1/CM	TRANSMITTANCE
407.93	0.734
416.741	0.731
425.551	0.734
434.362	0.768
443.172	0.827
451.983	0.853
460.794	0.889
469.604	0.913
478.415	0.934
487.225	0.957
496.036	0.967
504.846	0.973
513.657	0.969
522.468	0.983
531.278	0.96
540.089	0.984
548.899	0.984
557.71	0.976
566.521	0.949
575.331	0.958
584.142	0.956
592.952	0.83
601.763	0.897
610.573	0.934
619.384	0.947
628.195	0.941
637.005	0.915
645.816	0.882
654.626	0.841
663.437	0.747
672.248	0.724
681.058	0.769
689.869	0.871
698.679	0.915
707.49	0.935
716.3	0.913
725.111	0.549
733.922	0.794
742.732	0.878
751.543	0.861
760.353	0.871
769.164	0.828
777.975	0.913
786.785	0.968
795.596	0.978
804.406	0.935
813.217	0.912
822.027	0.7021
830.838	0.908
839.649	0.973
848.459	0.98
857.27	0.956
866.08	0.91
874.891	0.853
883.702	0.709
892.512	0.689
901.323	0.582
910.133	0.6841
918.944	0.7609
927.754	0.808
936.565	0.913
945.376	0.902
954.186	0.535
962.997	0.6531
971.807	0.847
980.618	0.893
989.429	0.945
998.239	0.952
1007.05	0.954
1015.86	0.954
1024.67	0.924
1033.48	0.93
1042.29	0.935
1051.1	0.842
1059.91	0.894
1068.72	0.912
1077.53	0.91
1086.34	0.906
1095.16	0.905
1103.97	0.904
1112.78	0.901
1121.59	0.884
1130.4	0.864
1139.21	0.842
1148.02	0.767
1156.83	0.841
1165.64	0.809
1174.45	0.5832
1183.26	0.85
1192.07	0.843
1200.88	0.858
1209.69	0.826
1218.5	0.716
1227.31	0.2939
1236.12	0.3843
1244.94	0.801
1253.75	0.798
1262.56	0.805
1271.37	0.698
1280.18	0.636
1288.99	0.679
1297.8	0.7691
1306.61	0.797
1315.42	0.793
1324.23	0.775
1333.04	0.735
1341.85	0.693
1350.66	0.702
1359.47	0.769
1368.28	0.778
1377.09	0.75
1385.9	0.649
1394.72	0.702
1403.53	0.746
1412.34	0.763
1421.15	0.723
1429.96	0.6149
1438.77	0.5431
1447.58	0.687
1456.39	0.632
1465.2	0.5129
1474.01	0.3321
1482.82	0.542
1491.63	0.7351
1500.44	0.886
1509.25	0.926
1518.06	0.934
1526.87	0.93
1535.68	0.924
1544.5	0.932
1553.31	0.932
1562.12	0.923
1570.93	0.893
1579.74	0.856
1588.55	0.7819
1597.36	0.4928
1606.17	0.6781
1614.98	0.6829
1623.79	0.4527
1632.6	0.041
1641.41	0.0818
1650.22	0.2342
1659.03	0.53
1667.84	0.8301
1676.65	0.936
1685.46	0.987
1694.28	0.997
1703.09	0.997
1711.9	0.995
1720.71	0.993
1729.52	0.995
1738.33	0.998
1747.14	0.998
1755.95	1
1764.76	1
1773.57	0.991
1782.38	0.989
1791.19	0.991
1800	0.997
1808.81	1.004
1817.62	1.009
1826.43	1.015
1835.24	1.017
1844.06	1.017
1852.87	1.016
1861.68	1.015
1870.49	1.015
1879.3	1.015
1888.11	1.015
1896.92	1.015
1905.73	1.015
1914.54	1.016
1923.35	1.016
1932.16	1.017
1940.97	1.017
1949.78	1.017
1958.59	1.017
1967.4	1.017
1976.21	1.016
1985.02	1.016
1993.84	1.013
2002.65	1.002
2011.46	0.999
2020.27	0.9935
2029.08	0.991
2037.89	0.99
2046.7	0.989
2055.51	0.989
2064.32	0.987
2073.13	0.986
2081.94	0.984
2090.75	0.983
2099.56	0.98
2108.37	0.9784
2117.18	0.9754
2125.99	0.973
2134.8	0.971
2143.61	0.9683
2152.43	0.9657
2161.24	0.9633
2170.05	0.96
2178.86	0.956
2187.67	0.952
2196.48	0.949
2205.29	0.947
2214.1	0.9475
2222.91	0.946
2231.72	0.9395
2240.53	0.9312
2249.34	0.9245
2258.15	0.9167
2266.96	0.9092
2275.77	0.9024
2284.58	0.897
2293.39	0.893
2302.21	0.8914
2311.02	0.8902
2319.83	0.89
2328.64	0.8892
2337.45	0.889
2346.26	0.887
2355.07	0.887
2363.88	0.889
2372.69	0.889
2381.5	0.89
2390.31	0.89
2399.12	0.89
2407.93	0.889
2416.74	0.8861
2425.55	0.884
2434.36	0.884
2443.17	0.883
2451.99	0.882
2460.8	0.878
2469.61	0.873
2478.42	0.873
2487.23	0.872
2496.04	0.872
2504.85	0.8709
2513.66	0.867
2522.47	0.8639
2531.28	0.86
2540.09	0.856
2548.9	0.853
2557.71	0.8499
2566.52	0.847
2575.33	0.845
2584.14	0.841
2592.95	0.838
2601.77	0.8349
2610.58	0.831
2619.39	0.8278
2628.2	0.82
2637.01	0.8158
2645.82	0.809
2654.63	0.8076
2663.44	0.8048
2672.25	0.801
2681.06	0.798
2689.87	0.795
2698.68	0.7925
2707.49	0.7855
2716.3	0.7787
2725.11	0.7717
2733.92	0.7624
2742.73	0.7537
2751.55	0.7451
2760.36	0.7341
2769.17	0.722
2777.98	0.708
2786.79	0.6963
2795.6	0.6799
2804.41	0.6586
2813.22	0.6369
2822.03	0.607
2830.84	0.545
2839.65	0.4016
2848.46	0.0296
2857.27	0.2002
2866.08	0.3904
2874.89	0.397
2883.7	0.3704
2892.51	0.2882
2901.33	0.1993
2910.14	0.1019
2918.95	0.0147
2927.76	0.0447
2936.57	0.2108
2945.38	0.2884
2954.19	0.2568
2963	0.3084
2971.81	0.3406
2980.62	0.3525
2989.43	0.4697
2998.24	0.5043
3007.05	0.524
3015.86	0.5225
3024.67	0.501
3033.48	0.5566
3042.29	0.578
3051.11	0.5615
3059.92	0.5168
3068.73	0.445
3077.54	0.5342
3086.35	0.6132
3095.16	0.6554
3103.97	0.677
3112.78	0.6891
3121.59	0.6964
3130.4	0.7007
3139.21	0.7057
3148.02	0.7115
3156.83	0.7167
3165.64	0.721
3174.45	0.7255
3183.26	0.728
3192.07	0.7348
3200.89	0.7388
3209.7	0.742
3218.51	0.741
3227.32	0.7592
3236.13	0.7665
3244.94	0.7755
3253.75	0.779
3262.56	0.7838
3271.37	0.7899
3280.18	0.7949
3288.99	0.7979
3297.8	0.8009
3306.61	0.802
3315.42	0.805
3324.23	0.808
3333.04	0.808
3341.85	0.808
3350.66	0.8089
3359.48	0.809
3368.29	0.809
3377.1	0.812
3385.91	0.813
3394.72	0.815
3403.53	0.817
3412.34	0.819
3421.15	0.821
3429.96	0.823
3438.77	0.827
3447.58	0.83
3456.39	0.832
3465.2	0.8321
3474.01	0.834
3482.82	0.834
3491.63	0.834
3500.44	0.834
3509.26	0.834
3518.07	0.834
3526.88	0.834
3535.69	0.834
3544.5	0.835
3553.31	0.835
3562.12	0.835
3570.93	0.836
3579.74	0.8358
3588.55	0.8252
3597.36	0.8324
3606.17	0.835
3614.98	0.8318
3623.79	0.8325
3632.6	0.836
3641.41	0.836
3650.22	0.836
3659.04	0.836
3667.85	0.8357
3676.66	0.8347
3685.47	0.834
3694.28	0.834
3703.09	0.834
3711.9	0.834
3720.71	0.834
3729.52	0.832
3738.33	0.832
3747.14	0.83
3755.95	0.828
3764.76	0.827
3773.57	0.8252
3782.38	0.821
3791.19	0.819
3800	0.8164
