Infrared Spectrum: BENZENEETHANAMINE, Alpha,Alpha-DIMETHYL-
Formula: C10 H15 N
CAS: 122-09-8
State: LIQUID (NEAT)
Class: COBLENTZ III
Instrument: DOW KBr FOREPRISM-GRATING
Instrument parameters: BLAZED AT 3.5, 12.0, 20.0 MICRON, CHANGED AT 5.0, 7.5, 14.9 MICRON
Sampling: TRANSMISSION
Path length: CAPILLARY
Resolution: 4
Origin: DOW CHEMICAL COMPANY
1/CM	TRANSMITTANCE
465.116	0.893
473.837	0.911
482.558	0.912
491.279	0.914
500	0.915
508.721	0.828
517.442	0.757
526.162	0.892
534.883	0.91
543.604	0.918
552.325	0.919
561.046	0.926
569.767	0.92
578.488	0.916
587.209	0.914
595.93	0.903
604.651	0.775
613.372	0.888
622.093	0.905
630.814	0.91
639.534	0.904
648.255	0.904
656.976	0.884
665.697	0.871
674.418	0.863
683.139	0.835
691.86	0.753
700.581	0.102
709.302	0.608
718.023	0.362
726.744	0.211
735.465	0.758
744.185	0.843
752.906	0.859
761.627	0.848
770.348	0.679
779.069	0.577
787.79	0.824
796.511	0.807
805.232	0.757
813.953	0.692
822.674	0.644
831.395	0.619
840.116	0.602
848.837	0.581
857.557	0.576
866.278	0.588
874.999	0.591
883.72	0.617
892.441	0.608
901.162	0.622
909.883	0.692
918.604	0.738
927.325	0.76
936.046	0.786
944.767	0.81
953.488	0.843
962.209	0.876
970.929	0.908
979.65	0.93
988.371	0.926
997.092	0.873
1005.81	0.844
1014.53	0.844
1023.25	0.87
1031.98	0.802
1040.7	0.968
1049.42	0.976
1058.14	0.965
1066.86	0.956
1075.58	0.912
1084.3	0.85
1093.02	0.882
1101.74	0.956
1110.46	0.971
1119.19	0.963
1127.91	0.918
1136.63	0.81
1145.35	0.884
1154.07	0.87
1162.79	0.861
1171.51	0.799
1180.23	0.698
1188.95	0.668
1197.67	0.694
1206.39	0.75
1215.12	0.801
1223.84	0.861
1232.56	0.854
1241.28	0.811
1250	0.779
1258.72	0.901
1267.44	0.931
1276.16	0.889
1284.88	0.889
1293.6	0.9
1302.32	0.888
1311.05	0.92
1319.77	0.918
1328.49	0.878
1337.21	0.855
1345.93	0.897
1354.65	0.911
1363.37	0.63
1372.09	0.674
1380.81	0.544
1389.53	0.788
1398.25	0.93
1406.98	0.937
1415.7	0.938
1424.42	0.918
1433.14	0.854
1441.86	0.745
1450.58	0.419
1459.3	0.656
1468.02	0.603
1476.74	0.851
1485.46	0.797
1494.18	0.565
1502.91	0.809
1511.63	0.918
1520.35	0.935
1529.07	0.941
1537.79	0.929
1546.51	0.901
1555.23	0.88
1563.95	0.841
1572.67	0.761
1581.39	0.651
1590.11	0.674
1598.84	0.637
1607.56	0.722
1616.28	0.801
1625	0.825
1633.72	0.84
1642.44	0.859
1651.16	0.88
1659.88	0.893
1668.6	0.905
1677.32	0.918
1686.04	0.931
1694.77	0.946
1703.49	0.953
1712.21	0.967
1720.93	0.971
1729.65	0.976
1738.37	0.972
1747.09	0.975
1755.81	0.974
1764.53	0.976
1773.25	0.983
1781.98	0.986
1790.7	0.989
1799.42	0.978
1808.14	0.965
1816.86	0.971
1825.58	0.979
1834.3	0.989
1843.02	0.993
1851.74	0.993
1860.46	0.986
1869.18	0.978
1877.91	0.97
1886.63	0.965
1895.35	0.974
1904.07	0.978
1912.79	0.986
1921.51	0.986
1930.23	0.979
1938.95	0.96
1947.67	0.948
1956.39	0.953
1965.11	0.965
1973.84	0.975
1982.56	0.979
1991.28	0.98
2000	0.985
2008.72	0.986
2017.44	0.986
2026.16	0.987
2034.88	0.985
2043.6	0.986
2052.32	0.9849
2061.04	0.986
2069.77	0.985
2078.49	0.983
2087.21	0.985
2095.93	0.983
2104.65	0.9818
2113.37	0.982
2122.09	0.98
2130.81	0.979
2139.53	0.979
2148.25	0.979
2156.97	0.979
2165.7	0.978
2174.42	0.9864
2183.14	0.9777
2191.86	0.9737
2200.58	0.975
2209.3	0.9752
2218.02	0.976
2226.74	0.9764
2235.46	0.9758
2244.18	0.9724
2252.9	0.972
2261.63	0.9736
2270.35	0.971
2279.07	0.9718
2287.79	0.9708
2296.51	0.971
2305.23	0.9735
2313.95	0.9753
2322.67	0.9808
2331.39	0.9853
2340.11	0.986
2348.83	0.985
2357.56	0.986
2366.28	0.9841
2375	0.9757
2383.72	0.972
2392.44	0.971
2401.16	0.971
2409.88	0.971
2418.6	0.97
2427.32	0.9704
2436.04	0.97
2444.77	0.97
2453.49	0.9692
2462.21	0.968
2470.93	0.97
2479.65	0.968
2488.37	0.965
2497.09	0.963
2505.81	0.963
2514.53	0.963
2523.25	0.9596
2531.97	0.9596
2540.7	0.957
2549.42	0.957
2558.14	0.957
2566.86	0.956
2575.58	0.952
2584.3	0.9495
2593.02	0.949
2601.74	0.9485
2610.46	0.948
2619.18	0.9445
2627.9	0.944
2636.63	0.946
2645.35	0.946
2654.07	0.944
2662.79	0.944
2671.51	0.944
2680.23	0.942
2688.95	0.941
2697.67	0.937
2706.39	0.9318
2715.11	0.926
2723.83	0.927
2732.56	0.9264
2741.28	0.926
2750	0.925
2758.72	0.9207
2767.44	0.9184
2776.16	0.914
2784.88	0.908
2793.6	0.897
2802.32	0.8833
2811.04	0.872
2819.76	0.8563
2828.49	0.8353
2837.21	0.7786
2845.93	0.6442
2854.65	0.6339
2863.37	0.5689
2872.09	0.5641
2880.81	0.5859
2889.53	0.5516
2898.25	0.5086
2906.97	0.4162
2915.69	0.351
2924.42	0.3456
2933.14	0.3793
2941.86	0.4078
2950.58	0.2787
2959.3	0.1716
2968.02	0.202
2976.74	0.3495
2985.46	0.5787
2994.18	0.6926
3002.9	0.703
3011.62	0.6987
3020.35	0.5755
3029.07	0.425
3037.79	0.6318
3046.51	0.6781
3055.23	0.6051
3063.95	0.6097
3072.67	0.651
3081.39	0.6282
3090.11	0.6951
3098.83	0.712
3107.56	0.7089
3116.28	0.715
3125	0.7091
3133.72	0.7001
3142.44	0.6833
3151.16	0.6662
3159.88	0.6522
3168.6	0.6441
3177.32	0.636
3186.04	0.633
3194.76	0.632
3203.49	0.629
3212.21	0.625
3220.93	0.621
3229.65	0.617
3238.37	0.6079
3247.09	0.5989
3255.81	0.591
3264.53	0.5829
3273.25	0.5789
3281.97	0.581
3290.69	0.5912
3299.42	0.6002
3308.14	0.602
3316.86	0.5949
3325.58	0.5806
3334.3	0.5528
3343.02	0.5429
3351.74	0.5464
3360.46	0.5738
3369.18	0.5995
3377.9	0.6153
3386.62	0.6256
3395.35	0.6332
3404.07	0.6442
3412.79	0.651
3421.51	0.6622
3430.23	0.6678
3438.95	0.6774
3447.67	0.6836
3456.39	0.6924
3465.11	0.7019
3473.83	0.719
3482.55	0.7305
3491.28	0.7437
3500	0.758
3508.72	0.775
3517.44	0.7918
3526.16	0.8055
3534.88	0.8163
3543.6	0.8323
3552.32	0.8492
3561.04	0.8608
3569.76	0.8749
3578.48	0.8923
3587.21	0.902
3595.93	0.9143
3604.65	0.916
3613.37	0.914
3622.09	0.9099
3630.81	0.905
3639.53	0.9074
3648.25	0.9114
3656.97	0.919
3665.69	0.9437
3674.42	0.9658
3683.14	0.9754
3691.86	0.9784
3700.58	0.9838
3709.3	0.9864
3718.02	0.987
3726.74	0.986
3735.46	0.987
3744.18	0.986
3752.9	0.991
3761.62	0.9865
3770.35	0.987
3779.07	0.9895
3787.79	0.9895
3796.51	0.99
