Infrared Spectrum: Propham
Formula: C 10 H 13 N O 2
CAS: 122-42-9
State: gas
Instrument: HP-GC/MS/IRD
Origin: NIST Mass Spectrometry Data Center
1/CM	ABSORBANCE
550	0.00336
562	0.0027125
574	0.001435
586	0.000595
598	0.0006475
610	0.0005775
622	0.000315
634	0.000245
646	0.001015
658	0.00133
670	0.0042525
682	0.0104125
694	0.01162
706	0.00756
718	0.0071925
730	0.0102725
742	0.0178325
754	0.02079
766	0.0161
778	0.011445
790	0.0067375
802	0.0040075
814	0.0018375
826	0.0007
838	0.0005775
850	0.000665
862	0.001295
874	0.0020475
886	0.0023275
898	0.0031325
910	0.00413
922	0.0055475
934	0.0043575
946	0.0026425
958	0.00196
970	0.0023275
982	0.00406
994	0.0071925
1006	0.0113225
1018	0.02842
1030	0.032655
1042	0.030205
1054	0.022435
1066	0.01372
1078	0.0171325
1090	0.0186375
1102	0.04004
1114	0.075915
1126	0.0610575
1138	0.048475
1150	0.0372925
1162	0.0364875
1174	0.06265
1186	0.08204
1198	0.15603
1210	0.131687
1222	0.043435
1234	0.0263025
1246	0.0232575
1258	0.01799
1270	0.0195825
1282	0.0301875
1294	0.0504875
1306	0.063945
1318	0.0445725
1330	0.0237475
1342	0.016555
1354	0.0164675
1366	0.026075
1378	0.0326025
1390	0.02723
1402	0.01358
1414	0.0119875
1426	0.0247275
1438	0.0764575
1450	0.04151
1462	0.01932
1474	0.0224
1486	0.028735
1498	0.0669025
1510	0.137095
1522	0.142677
1534	0.04522
1546	0.020685
1558	0.0164325
1570	0.0149275
1582	0.0196
1594	0.0392525
1606	0.0396025
1618	0.015715
1630	0.0054425
1642	0.00406
1654	0.0035
1666	0.00343
1678	0.00413
1690	0.005635
1702	0.0083825
1714	0.0117425
1726	0.02191
1738	0.06839
1750	0.12117
1762	0.10311
1774	0.04046
1786	0.0130725
1798	0.00721
1810	0.0055125
1822	0.004305
1834	0.0034125
1846	0.002905
1858	0.0023275
1870	0.001645
1882	0.0009275
1894	0.00063
1906	0.0008225
1918	0.00119
1930	0.00154
1942	0.0013825
1954	0.0009975
1966	0.0004725
1978	0.00035
1990	0.0002625
2002	0.0002625
2014	0.0002625
2026	0.000315
2038	0.000455
2050	0.000385
2062	0.00021
2074	0.0001225
2086	8.75e-05
2098	0.0001225
2110	0.00021
2122	0.00028
2134	0.0001575
2146	1.75e-05
2158	8.75e-05
2170	0.000175
2182	0.0002625
2194	0.0004025
2206	0.00056
2218	0.0007525
2230	0.0008575
2242	0.001015
2254	0.00126
2266	0.0013825
2278	0.0014875
2290	0.0012775
2302	0.0008225
2314	0.0007175
2326	0.00049
2338	0.0002975
2350	0.0002625
2362	0.0002975
2374	0.000315
2386	0.0002975
2398	0.0002275
2410	5.25e-05
2422	0
2434	0.000105
2446	0.000175
2458	0.0001925
2470	0.0002275
2482	0.00028
2494	0.000315
2506	0.00035
2518	0.000455
2530	0.000525
2542	0.00056
2554	0.00049
2566	0.000315
2578	0.0001575
2590	8.75e-05
2602	5.25e-05
2614	8.75e-05
2626	0.0001575
2638	0.00021
2650	0.00021
2662	0.0001225
2674	0.0002275
2686	0.000315
2698	0.0003325
2710	0.0003675
2722	0.0003675
2734	0.000455
2746	0.000595
2758	0.0005075
2770	0.0005425
2782	0.0005075
2794	0.00056
2806	0.0006125
2818	0.000665
2830	0.00084
2842	0.000945
2854	0.001225
2866	0.0021
2878	0.003955
2890	0.00567
2902	0.0049875
2914	0.0053725
2926	0.00728
2938	0.0121975
2950	0.01309
2962	0.00931
2974	0.0175875
2986	0.0359975
2998	0.02086
3010	0.00882
3022	0.00791
3034	0.0098525
3046	0.0084
3058	0.0101675
3070	0.0130375
3082	0.00847
3094	0.0059675
3106	0.0042875
3118	0.002695
3130	0.001435
3142	0.0009625
3154	0.0008575
3166	0.0007875
3178	0.0007
3190	0.0006825
3202	0.0006475
3214	0.000525
3226	0.0003325
3238	0.0002625
3250	0.000175
3262	0.0001925
3274	0.0001925
3286	7e-05
3298	5.25e-05
3310	7e-05
3322	0.000105
3334	0.0001925
3346	0.0001925
3358	0.0002625
3370	0.00028
3382	0.000315
3394	0.000385
3406	0.0005775
3418	0.000875
3430	0.0016625
3442	0.0042175
3454	0.00938
3466	0.0123725
3478	0.00756
3490	0.0029925
3502	0.00175
3514	0.0011725
3526	0.000735
3538	0.0005075
3550	0.0004375
3562	0.000315
3574	0.000245
3586	0.0002625
3598	0.0002275
3610	0.000245
3622	0.0002275
3634	0.0002975
3646	0.0003675
3658	0.000315
3670	0.000385
3682	0.00035
3694	0.0002975
3706	0.000315
3718	0.0002975
3730	0.0002975
3742	0.0002975
3754	0.0002625
3766	0.00035
3778	0.0002625
3790	0.0003675
3802	0.000385
3814	0.0003675
3826	0.00035
3838	0.000385
