Infrared Spectrum: Acetic acid, m-methylphenyl ester
Formula: C9 H10 O2
CAS: 122-46-3
State: LIQUID (NEAT)
Class: COBLENTZ III
Instrument: BAIRD (PRISM)
Instrument parameters: NaCl PRISM
Sampling: TRANSMISSION
Path length: CAPILLARY
Resolution: 2
Origin: WYANDOTTE CHEMICALS CORP.
1/CM	TRANSMITTANCE
626	0.7209
635	0.7476
644	0.7582
653	0.7646
662	0.5805
671	0.7546
680	0.5719
689	0.2293
698	0.782
707	0.8606
716	0.8675
725	0.863
734	0.7699
743	0.4926
752	0.5078
761	0.7603
770	0.7079
779	0.3064
788	0.1402
797	0.6205
806	0.7889
815	0.8407
824	0.8601
833	0.852
842	0.7999
851	0.6498
860	0.5827
869	0.4399
878	0.3459
887	0.6466
896	0.6298
905	0.2751
914	0.6022
923	0.652
932	0.4065
941	0.0997
950	0.4429
959	0.6808
968	0.7248
977	0.7323
986	0.7003
995	0.573
1004	0.1612
1013	0.1903
1022	0.1169
1031	0.3836
1040	0.3928
1049	0.3754
1058	0.5489
1067	0.6142
1076	0.6148
1085	0.4914
1094	0.5168
1103	0.6143
1112	0.6441
1121	0.6227
1130	0.5464
1139	0.1184
1148	0.0266
1157	0.2274
1166	0.308
1175	0.3203
1184	0.1638
1193	0.0257
1202	0.0211
1211	0.0191
1220	0.0155
1229	0.0215
1238	0.0376
1247	0.0686
1256	0.2621
1265	0.4412
1274	0.4635
1283	0.3613
1292	0.4644
1301	0.6197
1310	0.6358
1319	0.6541
1328	0.6528
1337	0.6694
1346	0.6667
1355	0.5621
1364	0.3191
1373	0.0398
1382	0.2429
1391	0.4859
1400	0.5856
1409	0.5456
1418	0.4901
1427	0.3899
1436	0.2882
1445	0.2556
1454	0.2612
1463	0.2861
1472	0.2979
1481	0.3706
1490	0.2021
1499	0.1466
1508	0.4133
1517	0.5265
1526	0.553
1535	0.6251
1544	0.6472
1553	0.675
1562	0.6778
1571	0.6763
1580	0.6363
1589	0.5274
1598	0.2116
1607	0.1942
1616	0.309
1625	0.1406
1634	0.4501
1643	0.6956
1652	0.7235
1661	0.7274
1670	0.7263
1679	0.724
1688	0.7199
1697	0.7016
1706	0.6619
1715	0.6033
1724	0.3594
1733	0.1035
1742	0.0546
1751	0.0268
1760	0.0239
1769	0.0507
1778	0.2209
1787	0.3924
1796	0.5522
1805	0.7003
1814	0.7573
1823	0.8172
1832	0.8505
1841	0.8647
1850	0.869
1859	0.8665
1868	0.8556
1877	0.8527
1886	0.8774
1895	0.9064
1904	0.91
1913	0.8995
1922	0.895
1931	0.9049
1940	0.9227
1949	0.9392
1958	0.9538
1967	0.9562
1976	0.9585
1985	0.9553
1994	0.9482
2003	0.9342
2012	0.9217
2021	0.9104
2030	0.9049
2039	0.9064
2048	0.9112
2057	0.9179
2066	0.9252
2075	0.9308
2084	0.9329
2093	0.9368
2102	0.9459
2111	0.9505
2120	0.9522
2129	0.9563
2138	0.9623
2147	0.9626
2156	0.9618
2165	0.9606
2174	0.959
2183	0.9574
2192	0.9545
2201	0.9509
2210	0.9483
2219	0.9478
2228	0.9474
2237	0.9469
2246	0.9481
2255	0.953
2264	0.9535
2273	0.9528
2282	0.9515
2291	0.9493
2300	0.945
2309	0.9374
2318	0.9283
2327	0.919
2336	0.9093
2345	0.9
2354	0.8921
2363	0.8936
2372	0.8968
2381	0.8993
2390	0.8976
2399	0.8942
2408	0.8968
2417	0.902
2426	0.9067
2435	0.9122
2444	0.9172
2453	0.9209
2462	0.924
2471	0.9264
2480	0.9281
2489	0.9299
2498	0.9306
2507	0.9307
2516	0.9291
2525	0.9271
2534	0.9246
2543	0.9225
2552	0.923
2561	0.9287
2570	0.9317
2579	0.9328
2588	0.9325
2597	0.9301
2606	0.9284
2615	0.9289
2624	0.9315
2633	0.9355
2642	0.9381
2651	0.9364
2660	0.9299
2669	0.923
2678	0.9148
2687	0.9053
2696	0.8953
2705	0.8844
2714	0.8761
2723	0.8761
2732	0.8814
2741	0.8877
2750	0.8881
2759	0.8876
2768	0.8862
2777	0.885
2786	0.8834
2795	0.8798
2804	0.8686
2813	0.8554
2822	0.8318
2831	0.7951
2840	0.7585
2849	0.7222
2858	0.6911
2867	0.6981
2876	0.7118
2885	0.7131
2894	0.6875
2903	0.6372
2912	0.5872
2921	0.5375
2930	0.5105
2939	0.5197
2948	0.5383
2957	0.5567
2966	0.5698
2975	0.583
2984	0.6018
2993	0.6206
3002	0.6362
3011	0.6367
3020	0.6102
3029	0.58
3038	0.5601
3047	0.5664
3056	0.6058
3065	0.6487
3074	0.6912
3083	0.7335
3092	0.7755
3101	0.8313
3110	0.8502
3119	0.8605
3128	0.8661
3137	0.8697
3146	0.8724
3155	0.8741
3164	0.8754
3173	0.8763
3182	0.8773
3191	0.8782
3200	0.8787
3209	0.8791
3218	0.8796
3227	0.8803
3236	0.8814
3245	0.8826
3254	0.8841
3263	0.8868
3272	0.8896
3281	0.8923
3290	0.8951
3299	0.8989
3308	0.9032
3317	0.9075
3326	0.9118
3335	0.9162
3344	0.9206
3353	0.9246
3362	0.9268
3371	0.9285
3380	0.9303
3389	0.932
3398	0.9338
3407	0.9354
3416	0.937
3425	0.9386
3434	0.9402
3443	0.9418
3452	0.9434
3461	0.9449
3470	0.9465
3479	0.9485
3488	0.9505
3497	0.9526
3506	0.9546
3515	0.9566
3524	0.9586
3533	0.9606
3542	0.9626
3551	0.9646
3560	0.9665
3569	0.9678
3578	0.9689
3587	0.9701
3596	0.9713
3605	0.9724
3614	0.9735
3623	0.9747
3632	0.9758
3641	0.9769
3650	0.9781
3659	0.9792
3668	0.9802
3677	0.9813
3686	0.9824
3695	0.9834
3704	0.9845
3713	0.9856
3722	0.9866
3731	0.9873
3740	0.9875
3749	0.9878
3758	0.9879
3767	0.9881
3776	0.9882
3785	0.9883
3794	0.988
3803	0.9877
3812	0.9874
3821	0.9872
3830	0.9869
3839	0.9869
3848	0.9873
3857	0.9878
3866	0.9882
3875	0.9886
3884	0.9891
3893	0.9893
3902	0.9895
3911	0.9895
3920	0.9897
3929	0.9893
3938	0.9878
3947	0.9861
3956	0.9845
3965	0.9827
3974	0.9807
3983	0.9786
3992	0.9765
