Infrared Spectrum: Phenylethanal
Formula: C 8 H 8 O
CAS: 122-78-1
State: gas
Instrument: HP-GC/MS/IRD
Origin: NIST Mass Spectrometry Data Center
1/CM	ABSORBANCE
550	0.0012024
562	0.000138
574	0.0002664
586	0.000102
598	0.0003228
610	0.0002436
622	0.00024
634	0.0002652
646	0.0003744
658	0.0005124
670	0.0009444
682	0.002064
694	0.0034116
706	0.0030756
718	0.0021252
730	0.0020136
742	0.0023472
754	0.0016284
766	0.0008196
778	0.00045
790	0.0003588
802	0.000258
814	0.000234
826	0.0002532
838	0.0002148
850	0.0002724
862	0.00027
874	0.000294
886	0.000324
898	0.0003672
910	0.0004668
922	0.0004956
934	0.0005388
946	0.0004764
958	0.0003756
970	0.0003864
982	0.0004956
994	0.0005556
1006	0.0008496
1018	0.0014952
1030	0.0022632
1042	0.0017604
1054	0.0010512
1066	0.0008784
1078	0.000786
1090	0.0006876
1102	0.000498
1114	0.0004116
1126	0.0003504
1138	0.000384
1150	0.000408
1162	0.0004992
1174	0.0005784
1186	0.000582
1198	0.0004608
1210	0.0003684
1222	0.0004008
1234	0.0003408
1246	0.0003072
1258	0.0003468
1270	0.0004164
1282	0.0004548
1294	0.0004932
1306	0.0005256
1318	0.0005292
1330	0.0004764
1342	0.0003984
1354	0.0003624
1366	0.000444
1378	0.000552
1390	0.0006468
1402	0.0007284
1414	0.0008448
1426	0.000834
1438	0.0008088
1450	0.000858
1462	0.0007392
1474	0.0006192
1486	0.001128
1498	0.0015984
1510	0.000906
1522	0.0003492
1534	0.000324
1546	0.0003168
1558	0.0003048
1570	0.0003948
1582	0.000612
1594	0.0009
1606	0.00096
1618	0.000588
1630	0.0003768
1642	0.000414
1654	0.000426
1666	0.0004968
1678	0.0007104
1690	0.0010824
1702	0.0016944
1714	0.0027096
1726	0.005958
1738	0.0115524
1750	0.0105036
1762	0.0040692
1774	0.0023412
1786	0.0015648
1798	0.0010992
1810	0.0006708
1822	0.0004704
1834	0.0003876
1846	0.0003852
1858	0.000456
1870	0.0004692
1882	0.0004116
1894	0.0002796
1906	0.000252
1918	0.0002568
1930	0.0003108
1942	0.0003372
1954	0.0003348
1966	0.0002688
1978	0.0001896
1990	0.0001704
2002	0.0001776
2014	0.0001692
2026	0.00018
2038	0.0001704
2050	0.0002064
2062	0.00015
2074	0.0001272
2086	0.0001464
2098	8.88e-05
2110	0.0001416
2122	0.0001284
2134	0.000108
2146	0.0001332
2158	0.0001236
2170	0.0001404
2182	0.0001488
2194	0.0001356
2206	0.0001272
2218	0.000126
2230	0.0001392
2242	0.000102
2254	0.0001464
2266	0.0001464
2278	0.00012
2290	0.0001488
2302	0.0001704
2314	0.000174
2326	0.000186
2338	0.000132
2350	0.00018
2362	0.0001368
2374	0.0001404
2386	9.96e-05
2398	0.0001344
2410	9.48e-05
2422	0.0001512
2434	0.0001368
2446	0.0001296
2458	9.36e-05
2470	0.0001092
2482	7.92e-05
2494	0.0001152
2506	0.0001344
2518	0.0001452
2530	0.0001836
2542	0.000156
2554	0.0001824
2566	0.0001908
2578	0.0001908
2590	0.000216
2602	0.0002196
2614	0.0002304
2626	0.0002928
2638	0.000342
2650	0.00048
2662	0.0006252
2674	0.000822
2686	0.001086
2698	0.0014976
2710	0.0020844
2722	0.0020904
2734	0.001662
2746	0.0012936
2758	0.0012468
2770	0.0012888
2782	0.0013692
2794	0.0016776
2806	0.0021372
2818	0.0020376
2830	0.001506
2842	0.0010596
2854	0.000822
2866	0.0007284
2878	0.0006528
2890	0.0007128
2902	0.0009696
2914	0.0012216
2926	0.0010584
2938	0.0007752
2950	0.0006612
2962	0.0005148
2974	0.0004044
2986	0.0003828
2998	0.0004716
3010	0.0007512
3022	0.0015228
3034	0.0023316
3046	0.0020832
3058	0.0016392
3070	0.0023052
3082	0.0021456
3094	0.0013632
3106	0.0008976
3118	0.0005076
3130	0.000246
3142	0.000168
3154	0.000144
3166	0.000138
3178	0.0001284
3190	0.00012
3202	7.8e-05
3214	0.0001368
3226	0.0001356
3238	0.0001104
3250	0.000108
3262	0.0001464
3274	0.00012
3286	0.0001176
3298	5.52e-05
3310	9.72e-05
3322	7.32e-05
3334	5.76e-05
3346	0
3358	7.68e-05
3370	7.92e-05
3382	5.64e-05
3394	0.000162
3406	0.0001128
3418	0.000156
3430	0.0001584
3442	0.0001908
3454	0.000282
3466	0.0003792
3478	0.0002556
3490	0.0001992
3502	0.0002004
3514	0.0001956
3526	0.0001164
3538	0.000144
3550	0.0001308
3562	0.00012
3574	0.0001272
3586	0.000108
3598	8.52e-05
3610	0.0001332
3622	0.0001176
3634	8.52e-05
3646	5.76e-05
3658	0.0001188
3670	0.0001188
3682	0.0001044
3694	0.0001116
3706	3.36e-05
3718	4.68e-05
3730	3.84e-05
3742	0.0001092
3754	3.12e-05
3766	7.92e-05
3778	0.0001068
3790	0.0001056
3802	4.32e-05
3814	8.64e-05
3826	8.76e-05
3838	0.0001008
