Infrared Spectrum: 4-Chlorobenzoyl chloride
Formula: C 7 H 4 Cl 2 O
CAS: 122-01-0
State: gas
Origin: EPA-IR VAPOR PHASE LIBRARY
1/CM	ABSORBANCE
549.9	0.0256
559.547	0.06031
569.193	0.04156
578.84	0.0104
588.486	0.00562
598.133	0.0054
607.779	0.00574
617.426	0.00617
627.072	0.0134
636.719	0.02643
646.365	0.02618
656.012	0.01402
665.658	0.00713
675.305	0.00642
684.951	0.00709
694.598	0.00778
704.245	0.01567
713.891	0.04182
723.538	0.06681
733.184	0.04249
742.831	0.01164
752.477	0.00608
762.124	0.00617
771.77	0.00566
781.417	0.00599
791.063	0.00939
800.71	0.0159
810.356	0.01771
820.003	0.02712
829.649	0.05129
839.296	0.07404
848.943	0.08535
858.589	0.12513
868.236	0.21717
877.882	0.26846
887.529	0.21024
897.175	0.10456
906.822	0.04388
916.468	0.02516
926.115	0.01556
935.761	0.01532
945.408	0.01634
955.054	0.01403
964.701	0.00948
974.347	0.00649
983.994	0.00461
993.64	0.00447
1003.29	0.00801
1012.93	0.02524
1022.58	0.01872
1032.23	0.00447
1041.87	0.0036353
1051.52	0.0032123
1061.17	0.00406
1070.81	0.00914
1080.46	0.04122
1090.11	0.13727
1099.75	0.09971
1109.4	0.01784
1119.05	0.01485
1128.69	0.0111
1138.34	0.0064
1147.99	0.00802
1157.63	0.02146
1167.28	0.08318
1176.92	0.10188
1186.57	0.07863
1196.22	0.17778
1205.86	0.15799
1215.51	0.03908
1225.16	0.01739
1234.8	0.0112
1244.45	0.00679
1254.1	0.00669
1263.74	0.00865
1273.39	0.00996
1283.04	0.00826
1292.68	0.00568
1302.33	0.00489
1311.98	0.003703
1321.62	0.002818
1331.27	0.002833
1340.92	0.0035814
1350.56	0.00513
1360.21	0.00583
1369.86	0.0057
1379.5	0.00781
1389.15	0.01689
1398.79	0.02452
1408.44	0.01803
1418.09	0.00981
1427.73	0.0081
1437.38	0.00717
1447.03	0.00736
1456.67	0.00777
1466.32	0.01004
1475.97	0.02475
1485.61	0.04077
1495.26	0.02227
1504.91	0.00772
1514.55	0.00546
1524.2	0.00503
1533.85	0.00492
1543.49	0.0069
1553.14	0.01361
1562.79	0.02287
1572.43	0.04122
1582.08	0.06758
1591.73	0.09414
1601.37	0.05929
1611.02	0.01308
1620.67	0.00662
1630.31	0.00521
1639.96	0.00565
1649.6	0.00751
1659.25	0.00775
1668.9	0.00662
1678.54	0.00574
1688.19	0.00588
1697.84	0.00752
1707.48	0.01058
1717.13	0.01682
1726.78	0.02828
1736.42	0.04682
1746.07	0.064
1755.72	0.07126
1765.36	0.0814
1775.01	0.12872
1784.66	0.21236
1794.3	0.20466
1803.95	0.09252
1813.6	0.03243
1823.24	0.01748
1832.89	0.01376
1842.54	0.00941
1852.18	0.00584
1861.83	0.00436
1871.47	0.0038719
1881.12	0.0037541
1890.77	0.00418
1900.41	0.00528
1910.06	0.0065
1919.71	0.00652
1929.35	0.00533
1939	0.00399
1948.65	0.0032432
1958.29	0.002631
1967.94	0.002325
1977.59	0.002242
1987.23	0.002085
1996.88	0.002069
2006.53	0.002109
2016.17	0.00226
2025.82	0.002538
2035.47	0.0030059
2045.11	0.0031152
2054.76	0.0031423
2064.41	0.0031388
2074.05	0.0031228
2083.7	0.0029635
2093.35	0.002469
2102.99	0.002277
2112.64	0.002108
2122.28	0.001997
2131.93	0.002052
2141.58	0.00208
2151.22	0.002071
2160.87	0.002061
2170.52	0.002111
2180.16	0.002204
2189.81	0.002218
2199.46	0.002114
2209.1	0.002072
2218.75	0.001992
2228.4	0.001993
2238.04	0.00202
2247.69	0.001985
2257.34	0.001948
2266.98	0.002155
2276.63	0.002362
2286.28	0.002713
2295.92	0.002714
2305.57	0.002509
2315.22	0.002442
2324.86	0.002206
2334.51	0.00221
2344.16	0.002308
2353.8	0.002488
2363.45	0.0029189
2373.09	0.0031355
2382.74	0.00300452
2392.39	0.0031727
2402.03	0.003154
2411.68	0.002602
2421.33	0.002268
2430.97	0.002112
2440.62	0.002006
2450.27	0.001969
2459.91	0.002036
2469.56	0.002083
2479.21	0.00194
2488.85	0.002031
2498.5	0.002012
2508.15	0.00219
2517.79	0.002186
2527.44	0.002503
2537.09	0.002759
2546.73	0.0030998
2556.38	0.0031756
2566.03	0.0030882
2575.67	0.0028963
2585.32	0.002562
2594.96	0.002348
2604.61	0.002133
2614.26	0.002135
2623.9	0.0019
2633.55	0.00179
2643.2	0.00182
2652.84	0.0019
2662.49	0.001943
2672.14	0.00219
2681.78	0.002326
2691.43	0.002243
2701.08	0.00193
2710.72	0.00159
2720.37	0.00164
2730.02	0.00161
2739.66	0.00179
2749.31	0.002166
2758.96	0.002216
2768.6	0.002253
2778.25	0.002452
2787.9	0.002147
2797.54	0.002092
2807.19	0.00149
2816.84	0.00129
2826.48	0.00128
2836.13	0.00117
2845.77	0.0012
2855.42	0.00121
2865.07	0.00117
2874.71	0.00111
2884.36	0.00104
2894.01	0.00112
2903.65	0.00116
2913.3	0.00111
2922.95	0.00122
2932.59	0.00108
2942.24	0.00131
2951.89	0.00133
2961.53	0.00159
2971.18	0.00147
2980.83	0.00184
2990.47	0.00173
3000.12	0.00141
3009.77	0.00105
3019.41	0.00102
3029.06	0.00114
3038.71	0.00107
3048.35	0.00125
3058	0.00123
3067.64	0.00172
3077.29	0.0030463
3086.94	0.0035704
3096.58	0.001969
3106.23	0.00164
3115.88	0.00097
3125.52	0.00061
3135.17	0.00092
3144.82	0.00079
3154.46	0.00045
3164.11	0.00051
3173.76	0.00034
3183.4	0.00049
3193.05	6e-05
3202.7	0.00024
3212.34	0.0001
3221.99	0.00034
3231.64	0.00021
3241.28	0.00028
3250.93	0.00033
3260.58	0.00024
3270.22	8e-05
3279.87	0.00036
3289.52	0.00035
3299.16	0.00031
3308.81	0.0004
3318.45	0.00039
3328.1	0.00041
3337.75	0.00042
3347.39	0.00056
3357.04	0.00031
3366.69	0.00069
3376.33	0.00093
3385.98	0.00086
3395.63	0.00093
3405.27	0.00063
3414.92	0.00068
3424.57	0.00055
3434.21	0.00064
3443.86	0.0006
3453.51	0.00071
3463.15	0.00106
3472.8	0.00098
3482.45	0.00121
3492.09	0.00151
3501.74	0.001969
3511.39	0.002765
3521.03	0.0036584
3530.68	0.0036686
3540.33	0.002739
3549.97	0.002249
3559.62	0.0022
3569.26	0.002166
3578.91	0.00188
3588.56	0.00189
3598.2	0.00172
3607.85	0.00148
3617.5	0.00131
3627.14	0.00144
3636.79	0.00151
3646.44	0.00153
3656.08	0.0014
3665.73	0.00155
3675.38	0.0014
3685.02	0.00157
3694.67	0.00142
3704.32	0.0014
3713.96	0.00168
3723.61	0.0017
3733.26	0.00173
3742.9	0.00167
3752.55	0.00159
3762.2	0.00163
3771.84	0.0016
3781.49	0.00156
3791.13	0.00155
3800.78	0.00177
3810.43	0.00176
3820.07	0.0019
3829.72	0.00192
3839.37	0.00174
3849.01	0.00173
3858.66	0.00165
3868.31	0.00178
3877.95	0.0017
3887.6	0.00181
3897.25	0.00179
3906.89	0.00161
3916.54	0.00178
3926.19	0.00181
3935.83	0.00183
3945.48	0.001977
3955.13	0.00184
3964.77	0.001946
3974.42	0.00175
3984.07	0.00185
3993.71	0.00171
