Infrared Spectrum: 3-Phenyl-1-propanol acetate
Formula: C 11 H 14 O 2
CAS: 122-72-5
State: gas
Instrument: HP-GC/MS/IRD
Origin: NIST Mass Spectrometry Data Center
1/CM	ABSORBANCE
550	0.002874
562	0.000294
574	0.00051
586	0.000558
598	0.000804
610	0.001014
622	0.001122
634	0.00141
646	0.001158
658	0.000726
670	0.00114
682	0.002982
694	0.00654
706	0.005466
718	0.003624
730	0.004416
742	0.005508
754	0.002904
766	0.001284
778	0.000768
790	0.000714
802	0.000822
814	0.000918
826	0.000966
838	0.00096
850	0.000996
862	0.001092
874	0.001206
886	0.001206
898	0.001104
910	0.001074
922	0.001074
934	0.001554
946	0.002076
958	0.001698
970	0.001644
982	0.00186
994	0.00228
1006	0.003696
1018	0.007602
1030	0.013332
1042	0.013308
1054	0.010272
1066	0.008112
1078	0.006384
1090	0.004842
1102	0.003246
1114	0.002106
1126	0.001458
1138	0.001266
1150	0.001302
1162	0.001626
1174	0.002514
1186	0.004242
1198	0.008736
1210	0.019932
1222	0.045666
1234	0.058746
1246	0.03228
1258	0.015228
1270	0.008958
1282	0.00546
1294	0.003846
1306	0.002862
1318	0.002196
1330	0.00192
1342	0.002328
1354	0.00432
1366	0.009996
1378	0.007746
1390	0.006096
1402	0.003504
1414	0.00201
1426	0.00204
1438	0.00294
1450	0.004134
1462	0.003882
1474	0.002976
1486	0.002886
1498	0.004122
1510	0.001776
1522	0.001128
1534	0.000978
1546	0.000906
1558	0.000894
1570	0.000978
1582	0.001254
1594	0.001836
1606	0.002064
1618	0.00111
1630	0.00084
1642	0.000846
1654	0.000912
1666	0.000912
1678	0.001032
1690	0.001326
1702	0.001956
1714	0.00315
1726	0.005442
1738	0.010518
1750	0.021738
1762	0.03501
1774	0.020028
1786	0.008904
1798	0.004512
1810	0.002436
1822	0.001494
1834	0.001056
1846	0.000918
1858	0.000906
1870	0.000894
1882	0.000816
1894	0.000636
1906	0.000552
1918	0.000606
1930	0.000726
1942	0.00081
1954	0.000726
1966	0.000456
1978	0.000366
1990	0.000384
2002	0.000384
2014	0.000384
2026	0.000402
2038	0.00039
2050	0.000396
2062	0.000408
2074	0.000408
2086	0.00042
2098	0.00042
2110	0.000426
2122	0.000354
2134	0.000276
2146	0.000252
2158	0.000228
2170	0.000234
2182	0.000198
2194	0.00021
2206	0.000216
2218	0.000204
2230	0.000222
2242	0.000198
2254	0.000198
2266	0.00018
2278	0.000204
2290	0.000192
2302	0.000216
2314	0.00024
2326	0.000162
2338	0.000144
2350	0.000168
2362	0.00012
2374	0.000132
2386	0.000174
2398	0.000168
2410	0.000168
2422	0.000168
2434	0.000216
2446	0.000222
2458	0.000228
2470	0.000204
2482	0.000168
2494	0.000156
2506	0.000156
2518	0.000144
2530	0.00015
2542	0.00012
2554	0.000144
2566	0.00015
2578	0.000174
2590	0.000186
2602	0.000216
2614	0.000186
2626	0.000174
2638	0.000186
2650	0.000192
2662	0.000174
2674	0.00015
2686	0.000192
2698	0.000198
2710	0.000216
2722	0.000192
2734	0.000192
2746	0.00021
2758	0.00024
2770	0.00024
2782	0.000318
2794	0.000354
2806	0.000354
2818	0.000426
2830	0.000588
2842	0.001008
2854	0.001824
2866	0.002586
2878	0.002508
2890	0.00252
2902	0.00309
2914	0.004128
2926	0.006066
2938	0.007524
2950	0.008886
2962	0.008376
2974	0.006354
2986	0.0042
2998	0.002736
3010	0.002712
3022	0.004374
3034	0.006588
3046	0.0042
3058	0.0039
3070	0.005958
3082	0.004224
3094	0.00291
3106	0.00183
3118	0.001056
3130	0.00057
3142	0.000438
3154	0.000318
3166	0.000276
3178	0.00024
3190	0.000204
3202	0.00021
3214	0.000198
3226	0.000198
3238	0.000186
3250	0.000204
3262	0.000234
3274	0.000186
3286	0.000204
3298	0.000198
3310	0.000204
3322	0.00021
3334	0.000132
3346	0.00018
3358	0.000138
3370	0.000144
3382	0.000192
3394	0.000162
3406	0.000258
3418	0.000222
3430	0.00018
3442	0.00027
3454	0.00024
3466	0.000246
3478	0.000372
3490	0.00045
3502	0.000564
3514	0.000534
3526	0.000408
3538	0.000366
3550	0.000288
3562	0.000228
3574	0.00024
3586	0.00021
3598	0.000204
3610	0.000192
3622	0.000234
3634	0.00021
3646	0.000252
3658	0.000234
3670	0.000234
3682	0.000228
3694	0.00021
3706	0.00021
3718	0.00027
3730	0.000246
3742	0.00027
3754	0.00021
3766	0.000186
3778	0.00027
3790	0.000186
3802	0.000222
3814	0.000276
3826	0.00024
3838	0.000234
