Infrared Spectrum: SEBACIC ACID, DIOCTYL ESTER-
Formula: C26 H50 O4
CAS: 122-62-3
State: SOLUTION (10% CCl4 FOR 3800-1333, 10% CS2 FOR 1333-440 CM^-^1)
Class: COBLENTZ
Instrument: Not specified, most likely a prism, grating, or hybrid spectrometer.
Sampling: TRANSMISSION
Path length: 0.01 CM, 0.01 CM
Resolution: 4
Origin: DOW CHEMICAL COMPANY
1/CM	TRANSMITTANCE
433.824	0.853
442.402	0.853
450.981	0.853
459.559	0.853
468.138	0.854
476.716	0.858
485.295	0.861
493.873	0.871
502.452	0.881
511.03	0.89
519.609	0.893
528.187	0.895
536.766	0.895
545.344	0.895
553.923	0.895
562.501	0.895
571.079	0.885
579.658	0.883
588.236	0.885
596.815	0.885
605.393	0.887
613.972	0.89
622.55	0.887
631.129	0.875
639.707	0.861
648.286	0.838
656.864	0.853
665.443	0.881
674.021	0.89
682.6	0.878
691.178	0.87
699.756	0.86
708.335	0.844
716.913	0.809
725.492	0.6981
734.07	0.78
742.649	0.821
751.227	0.833
759.806	0.816
768.384	0.752
776.963	0.763
785.541	0.784
794.12	0.829
802.698	0.846
811.277	0.843
819.855	0.839
828.433	0.834
837.012	0.827
845.59	0.78
854.169	0.699
862.747	0.701
871.326	0.723
879.904	0.755
888.483	0.775
897.061	0.774
905.64	0.765
914.218	0.777
922.797	0.775
931.375	0.765
939.954	0.765
948.532	0.75
957.11	0.701
965.689	0.693
974.267	0.698
982.846	0.674
991.424	0.666
1000	0.635
1008.58	0.588
1017.16	0.591
1025.74	0.58
1034.32	0.598
1042.9	0.657
1051.47	0.696
1060.05	0.699
1068.63	0.699
1077.21	0.655
1085.79	0.544
1094.37	0.495
1102.94	0.516
1111.52	0.553
1120.1	0.475
1128.68	0.404
1137.26	0.406
1145.84	0.333
1154.42	0.2121
1162.99	0.116
1171.57	0.065
1180.15	0.092
1188.73	0.156
1197.31	0.236
1205.89	0.284
1214.46	0.308
1223.04	0.303
1231.62	0.273
1240.2	0.268
1248.78	0.283
1257.36	0.3
1265.94	0.355
1274.51	0.397
1283.09	0.455
1291.67	0.485
1300.25	0.487
1308.83	0.504
1317.41	0.519
1325.98	0.571
1334.56	0.575
1343.14	0.509
1351.72	0.467
1360.3	0.468
1368.88	0.537
1377.46	0.5099
1386.03	0.44
1394.61	0.475
1403.19	0.7091
1411.77	0.728
1420.35	0.581
1428.93	0.645
1437.5	0.617
1446.08	0.516
1454.66	0.391
1463.24	0.183
1471.82	0.173
1480.4	0.607
1488.98	0.723
1497.55	0.728
1506.13	0.704
1514.71	0.667
1523.29	0.625
1531.87	0.586
1540.45	0.5189
1549.02	0.445
1557.6	0.455
1566.18	0.521
1574.76	0.595
1583.34	0.617
1591.92	0.652
1600.5	0.716
1609.07	0.779
1617.65	0.811
1626.23	0.826
1634.81	0.827
1643.39	0.821
1651.97	0.822
1660.54	0.816
1669.12	0.809
1677.7	0.79
1686.28	0.745
1694.86	0.699
1703.44	0.657
1712.02	0.5759
1720.59	0.3377
1729.17	0.033
1737.75	0.02
1746.33	0.0351
1754.91	0.3219
1763.49	0.603
1772.06	0.72
1780.64	0.767
1789.22	0.794
1797.8	0.816
1806.38	0.829
1814.96	0.839
1823.54	0.848
1832.11	0.856
1840.69	0.86
1849.27	0.863
1857.85	0.865
1866.43	0.868
1875.01	0.87
1883.58	0.873
1892.16	0.873
1900.74	0.875
1909.32	0.875
1917.9	0.876
1926.48	0.875
1935.06	0.875
1943.63	0.875
1952.21	0.875
1960.79	0.89
1969.37	0.875
1977.95	0.873
1986.53	0.873
1995.1	0.866
2003.68	0.865
2012.26	0.861
2020.84	0.864
2029.42	0.866
2038	0.871
2046.58	0.871
2055.15	0.869
2063.73	0.87
2072.31	0.872
2080.89	0.871
2089.47	0.871
2098.05	0.871
2106.63	0.873
2115.2	0.873
2123.78	0.873
2132.36	0.873
2140.94	0.8739
2149.52	0.873
2158.1	0.875
2166.67	0.876
2175.25	0.8756
2183.83	0.875
2192.41	0.875
2200.99	0.875
2209.57	0.875
2218.15	0.8749
2226.72	0.873
2235.3	0.873
2243.88	0.871
2252.46	0.8698
2261.04	0.8643
2269.62	0.8607
2278.19	0.8548
2286.77	0.853
2295.35	0.853
2303.93	0.8537
2312.51	0.848
2321.09	0.86
2329.67	0.846
2338.24	0.8719
2346.82	0.854
2355.4	0.865
2363.98	0.8441
2372.56	0.8794
2381.14	0.87
2389.71	0.8704
2398.29	0.871
2406.87	0.873
2415.45	0.8743
2424.03	0.875
2432.61	0.875
2441.19	0.876
2449.76	0.876
2458.34	0.8759
2466.92	0.876
2475.5	0.8752
2484.08	0.875
2492.66	0.875
2501.23	0.875
2509.81	0.8747
2518.39	0.873
2526.97	0.873
2535.55	0.871
2544.13	0.871
2552.71	0.871
2561.28	0.87
2569.86	0.866
2578.44	0.8626
2587.02	0.86
2595.6	0.856
2604.18	0.8546
2612.75	0.854
2621.33	0.8533
2629.91	0.853
2638.49	0.851
2647.07	0.851
2655.65	0.8452
2664.23	0.8403
2672.8	0.836
2681.38	0.836
2689.96	0.838
2698.54	0.836
2707.12	0.836
2715.7	0.834
2724.27	0.8286
2732.85	0.819
2741.43	0.8217
2750.01	0.8275
2758.59	0.829
2767.17	0.827
2775.75	0.8225
2784.32	0.8135
2792.9	0.8032
2801.48	0.7902
2810.06	0.772
2818.64	0.7366
2827.22	0.7015
2835.79	0.6456
2844.37	0.5393
2852.95	0.3245
2861.53	0.0356
2870.11	0.0889
2878.69	0.1045
2887.27	0.2376
2895.84	0.1885
2904.42	0.118
2913	0.0477
2921.58	0.0194
2930.16	0.015
2938.74	0.0173
2947.31	0.0307
2955.89	0.0244
2964.47	0.021
2973.05	0.0373
2981.63	0.1386
2990.21	0.3473
2998.79	0.5483
3007.36	0.6781
3015.94	0.7426
3024.52	0.776
3033.1	0.7984
3041.68	0.8157
3050.26	0.8338
3058.83	0.839
3067.41	0.8477
3075.99	0.8534
3084.57	0.8557
3093.15	0.8604
3101.73	0.8659
3110.31	0.8687
3118.88	0.871
3127.46	0.873
3136.04	0.873
3144.62	0.873
3153.2	0.873
3161.78	0.873
3170.35	0.873
3178.93	0.873
3187.51	0.873
3196.09	0.875
3204.67	0.875
3213.25	0.875
3221.83	0.875
3230.4	0.875
3238.98	0.875
3247.56	0.875
3256.14	0.875
3264.72	0.875
3273.3	0.873
3281.87	0.873
3290.45	0.873
3299.03	0.871
3307.61	0.871
3316.19	0.871
3324.77	0.871
3333.35	0.87
3341.92	0.87
3350.5	0.8689
3359.08	0.866
3367.66	0.865
3376.24	0.863
3384.82	0.863
3393.4	0.863
3401.97	0.861
3410.55	0.861
3419.13	0.8591
3427.71	0.854
3436.29	0.85
3444.87	0.843
3453.44	0.8435
3462.02	0.846
3470.6	0.856
3479.18	0.866
3487.76	0.871
3496.34	0.875
3504.92	0.875
3513.49	0.875
3522.07	0.876
3530.65	0.878
3539.23	0.879
3547.81	0.88
3556.39	0.881
3564.96	0.883
3573.54	0.883
3582.12	0.883
3590.7	0.8839
3599.28	0.883
3607.86	0.883
3616.44	0.881
3625.01	0.881
3633.59	0.881
3642.17	0.8804
3650.75	0.8802
3659.33	0.881
3667.91	0.8799
3676.48	0.8754
3685.06	0.8731
3693.64	0.8771
3702.22	0.881
3710.8	0.881
3719.38	0.8828
3727.96	0.8821
3736.53	0.88
3745.11	0.8853
3753.69	0.883
3762.27	0.8842
3770.85	0.885
3779.43	0.887
3788	0.887
