Infrared Spectrum: Triethyl orthoformate
Formula: C 7 H 16 O 3
CAS: 122-51-0
State: gas
Origin: EPA-IR VAPOR PHASE LIBRARY
1/CM	ABSORBANCE
549.8	0.0009906
559.445	0.0006453
569.09	0.0007016
578.734	0.0010192
588.379	0.0006044
598.024	0.0003535
607.669	0.0005937
617.313	0.0003122
626.958	0.0006423
636.603	0.0005032
646.248	0.0005706
655.893	0.0004521
665.537	0.0003133
675.182	0.0006799
684.827	0.0005937
694.472	0.0005102
704.116	0.0008028
713.761	0.0007676
723.406	0.0007829
733.051	0.0005044
742.695	0.0009062
752.34	0.0009775
761.985	0.0009743
771.63	0.0011566
781.275	0.0014266
790.919	0.0013866
800.564	0.0017766
810.209	0.0018966
819.854	0.0019066
829.498	0.0026366
839.143	0.0031166
848.788	0.0029466
858.433	0.0019366
868.078	0.0018966
877.722	0.0019566
887.367	0.0023366
897.012	0.0022466
906.657	0.0023766
916.301	0.0022266
925.946	0.0027966
935.591	0.0031466
945.236	0.0037266
954.88	0.0045766
964.525	0.0063166
974.17	0.0104266
983.815	0.0170866
993.46	0.0259466
1003.1	0.0329266
1012.75	0.0364566
1022.39	0.0387566
1032.04	0.0417566
1041.68	0.0528066
1051.33	0.0760466
1060.97	0.101197
1070.62	0.107547
1080.26	0.105587
1089.91	0.117127
1099.55	0.134817
1109.2	0.134117
1118.84	0.114017
1128.49	0.0927766
1138.13	0.0791266
1147.78	0.0654866
1157.42	0.0531166
1167.07	0.0444466
1176.71	0.0368266
1186.36	0.0294266
1196	0.0220266
1205.64	0.0151466
1215.29	0.0105966
1224.93	0.0076166
1234.58	0.0063566
1244.22	0.0054566
1253.87	0.0054466
1263.51	0.0054966
1273.16	0.0060066
1282.8	0.0066166
1292.45	0.0072366
1302.09	0.0083266
1311.74	0.0087566
1321.38	0.0089366
1331.03	0.0127766
1340.67	0.0184166
1350.32	0.0173166
1359.96	0.0124766
1369.61	0.0194966
1379.25	0.0233766
1388.9	0.0137766
1398.54	0.0084766
1408.18	0.0065166
1417.83	0.0055166
1427.47	0.0052066
1437.12	0.0054866
1446.76	0.0062266
1456.41	0.0059366
1466.05	0.0052966
1475.7	0.0051266
1485.34	0.0046966
1494.99	0.0033166
1504.63	0.0023066
1514.28	0.0019866
1523.92	0.0016466
1533.57	0.0013866
1543.21	0.0011766
1552.86	0.0011466
1562.5	0.0009723
1572.15	0.0008644
1581.79	0.0008523
1591.44	0.0008421
1601.08	0.0008717
1610.73	0.0008266
1620.37	0.0010583
1630.01	0.0008635
1639.66	0.000951
1649.3	0.0008289
1658.95	0.0009498
1668.59	0.0009033
1678.24	0.0010377
1687.88	0.0009709
1697.53	0.0010583
1707.17	0.0009152
1716.82	0.0010049
1726.46	0.0012466
1736.11	0.0016066
1745.75	0.0015966
1755.4	0.0017066
1765.04	0.0014866
1774.69	0.0011266
1784.33	0.0009819
1793.98	0.0008519
1803.62	0.0008112
1813.27	0.0008571
1822.91	0.0007828
1832.55	0.0007112
1842.2	0.0008061
1851.84	0.0007143
1861.49	0.0006826
1871.13	0.0007227
1880.78	0.0007102
1890.42	0.0008208
1900.07	0.0007662
1909.71	0.0008535
1919.36	0.0009175
1929	0.0010647
1938.65	0.0010829
1948.29	0.0012066
1957.94	0.0011966
1967.58	0.0012166
1977.23	0.0012166
1986.87	0.0012966
1996.52	0.0011666
2006.16	0.0011166
2015.81	0.0010134
2025.45	0.0009935
2035.1	0.0009004
2044.74	0.0007676
2054.38	0.0007678
2064.03	0.0007647
2073.67	0.0008008
2083.32	0.0007601
2092.96	0.0008517
2102.61	0.0010017
2112.25	0.0010695
2121.9	0.0010699
2131.54	0.0011566
2141.19	0.0011966
2150.83	0.0011966
2160.48	0.0011366
2170.12	0.0009772
2179.77	0.0010381
2189.41	0.0009733
2199.06	0.0009367
2208.7	0.0009249
2218.35	0.0008722
2227.99	0.0009323
2237.64	0.000962
2247.28	0.0009241
2256.92	0.0010056
2266.57	0.000949
2276.21	0.0008943
2285.86	0.0009477
2295.5	0.0007892
2305.15	0.0006973
2314.79	0.0006628
2324.44	0.0004527
2334.08	0.00049
2343.73	0.0004408
2353.37	0.0004143
2363.02	0.0004464
2372.66	0.0006397
2382.31	0.0004819
2391.95	0.0005666
2401.6	0.0005415
2411.24	0.0005097
2420.89	0.0006262
2430.53	0.0005188
2440.18	0.0005052
2449.82	0.0005234
2459.47	0.0004691
2469.11	0.0004542
2478.75	0.0004905
2488.4	0.0004588
2498.04	0.0003905
2507.69	0.0004075
2517.33	0.0003998
2526.98	0.0003776
2536.62	0.0004508
2546.27	0.0004105
2555.91	0.0003456
2565.56	0.0004391
2575.2	0.0005366
2584.85	0.0005476
2594.49	0.0007532
2604.14	0.0009279
2613.78	0.0010262
2623.43	0.0011366
2633.07	0.0014466
2642.72	0.0015566
2652.36	0.0016366
2662.01	0.0016766
2671.65	0.0013966
2681.29	0.0014066
2690.94	0.0014966
2700.58	0.0016366
2710.23	0.0017566
2719.87	0.0018066
2729.52	0.0019466
2739.16	0.0024466
2748.81	0.0028566
2758.45	0.0032266
2768.1	0.0035666
2777.74	0.0038466
2787.39	0.0041966
2797.03	0.0046066
2806.68	0.0048666
2816.32	0.0052966
2825.97	0.0058966
2835.61	0.0067466
2845.26	0.0084166
2854.9	0.0115166
2864.55	0.0171966
2874.19	0.0264466
2883.84	0.0340766
2893.48	0.0348866
2903.12	0.0318066
2912.77	0.0297166
2922.41	0.0299166
2932.06	0.0347266
2941.7	0.0371366
2951.35	0.0313666
2960.99	0.0273566
2970.64	0.0361066
2980.28	0.0515866
2989.93	0.0466566
2999.57	0.0254766
3009.22	0.0143566
3018.86	0.0096866
3028.51	0.0068966
3038.15	0.0047666
3047.8	0.0034666
3057.44	0.0029466
3067.09	0.0024166
3076.73	0.0019566
3086.38	0.0016366
3096.02	0.0014366
3105.67	0.0014166
3115.31	0.0014766
3124.95	0.0011866
3134.6	0.0009195
3144.24	0.0008823
3153.89	0.0009377
3163.53	0.0009387
3173.18	0.0008605
3182.82	0.0007982
3192.47	0.000901
3202.11	0.0009033
3211.76	0.0006044
3221.4	0.0007093
3231.05	0.0006023
3240.69	0.0004986
3250.34	0.0004525
3259.98	0.0002261
3269.63	0.00018889
3279.27	0.0002392
3288.92	0.0005027
3298.56	0.0003267
3308.21	0.0003456
3317.85	0.0002742
3327.49	0.0003585
3337.14	0.00014656
3346.78	0.0003078
3356.43	0.0003091
3366.07	0.0002253
3375.72	0.00018551
3385.36	0.0002229
3395.01	0.0003293
3404.65	0.0005146
3414.3	0.0003654
3423.94	0.000289
3433.59	0.0002844
3443.23	0.0002335
3452.88	0.00014858
3462.52	0.0004394
3472.17	4.08e-05
3481.81	0.0004066
3491.46	0.0003274
3501.1	0.0002339
3510.75	0.00019557
3520.39	0.0002907
3530.04	9.5664e-05
3539.68	0.0002536
3549.32	0.0002506
3558.97	0.0002226
3568.61	0.0002723
3578.26	0.00015227
3587.9	0.0003636
3597.55	0.0004055
3607.19	0.00015112
3616.84	0.0005069
3626.48	0.0004614
3636.13	0.0002836
3645.77	0.0003998
3655.42	0.0003523
3665.06	0.0003634
3674.71	0.0003869
3684.35	0.0002136
3694	0.0002835
3703.64	0.0004597
3713.29	0.000297
3722.93	0.000566
3732.58	0.0004198
3742.22	0.0003123
3751.86	0.0004208
3761.51	0.0002957
3771.15	0.0003275
3780.8	0.0002028
3790.44	0.0003682
3800.09	0.0003952
3809.73	0.0004429
3819.38	0.0005202
3829.02	0.0003521
3838.67	0.0002287
3848.31	0.0003435
3857.96	0.0002079
3867.6	0.0004269
3877.25	0.0003252
3886.89	0.0006939
3896.54	0.0005202
3906.18	0.0003803
3915.83	0.0002697
3925.47	0.0006213
3935.12	0.0005939
3944.76	0.0006781
3954.41	0.0006045
3964.05	0.0005408
3973.69	0.0006517
3983.34	0.0005336
3992.98	0.0005934
