Infrared Spectrum: 4-Isopropylbenzaldehyde
Formula: C 10 H 12 O
CAS: 122-03-2
State: gas
Instrument: HP-GC/MS/IRD
Origin: NIST Mass Spectrometry Data Center
1/CM	ABSORBANCE
550	0.0027328
562	0.000992
574	0.0005056
586	0.0009344
598	0.0014976
610	0.0009472
622	0.0001152
634	8.96e-05
646	6.4e-06
658	0.0001344
670	2.56e-05
682	9.6e-05
694	0.0004096
706	0.0013632
718	0.0052096
730	0.0050112
742	0.0009984
754	0.0003456
766	0.0002944
778	0.000416
790	0.0010432
802	0.0029184
814	0.006752
826	0.013472
838	0.0150912
850	0.004224
862	0.0012544
874	0.000832
886	0.000736
898	0.0004864
910	0.0003264
922	0.0002496
934	0.00016
946	0.000128
958	0.0001664
970	0.000128
982	0.0001792
994	0.0004032
1006	0.0010304
1018	0.0016
1030	0.0005312
1042	0.0016768
1054	0.00432
1066	0.0028032
1078	0.0012864
1090	0.0011968
1102	0.0018048
1114	0.0013184
1126	0.0011328
1138	0.001664
1150	0.0015808
1162	0.0058176
1174	0.0097152
1186	0.0027456
1198	0.0069888
1210	0.01056
1222	0.0032832
1234	0.0015552
1246	0.0007616
1258	0.0006016
1270	0.0011712
1282	0.0024896
1294	0.004032
1306	0.0054272
1318	0.0021056
1330	0.0021696
1342	0.0024064
1354	0.002048
1366	0.002656
1378	0.0036416
1390	0.0041536
1402	0.0026368
1414	0.0023808
1426	0.0024512
1438	0.0017088
1450	0.0021376
1462	0.002848
1474	0.00256
1486	0.0014336
1498	0.0008064
1510	0.0005952
1522	0.0004096
1534	0.0003776
1546	0.0006144
1558	0.0012864
1570	0.0036736
1582	0.00496
1594	0.0066432
1606	0.0156544
1618	0.0087424
1630	0.0020928
1642	0.0018304
1654	0.0024064
1666	0.0034944
1678	0.0042816
1690	0.0047424
1702	0.0119488
1714	0.0532928
1726	0.0535168
1738	0.0099712
1750	0.002624
1762	0.0011072
1774	0.0008384
1786	0.0007552
1798	0.000896
1810	0.0006912
1822	0.0003584
1834	0.00032
1846	0.000384
1858	0.000352
1870	0.0003456
1882	0.0004736
1894	0.0004672
1906	0.000512
1918	0.0005312
1930	0.0004224
1942	0.0002944
1954	0.0002048
1966	0.0001856
1978	0.0001984
1990	0.0001984
2002	0.0003264
2014	0.0002752
2026	0.0002496
2038	0.00032
2050	0.000192
2062	0.0001024
2074	6.4e-05
2086	3.84e-05
2098	3.2e-05
2110	4.48e-05
2122	5.76e-05
2134	5.12e-05
2146	2.56e-05
2158	1.92e-05
2170	0
2182	0
2194	1.28e-05
2206	3.84e-05
2218	7.04e-05
2230	2.56e-05
2242	1.28e-05
2254	4.48e-05
2266	7.68e-05
2278	4.48e-05
2290	5.12e-05
2302	7.68e-05
2314	7.04e-05
2326	8.32e-05
2338	9.6e-05
2350	7.68e-05
2362	5.12e-05
2374	8.32e-05
2386	0.0001152
2398	0.0001152
2410	0.0001792
2422	0.0001728
2434	0.0001088
2446	0.0001024
2458	0.0001088
2470	0.0001408
2482	0.0001344
2494	0.0001344
2506	0.0001728
2518	0.0001408
2530	0.0001024
2542	0.000128
2554	0.0002368
2566	0.0003136
2578	0.0004416
2590	0.0004928
2602	0.0004032
2614	0.0003264
2626	0.0003648
2638	0.0003712
2650	0.00048
2662	0.0007552
2674	0.0012672
2686	0.0021824
2698	0.0033344
2710	0.0063872
2722	0.0092352
2734	0.0072192
2746	0.0041216
2758	0.0030208
2770	0.0030912
2782	0.004064
2794	0.0062144
2806	0.0074176
2818	0.0072832
2830	0.004896
2842	0.0027328
2854	0.0023296
2866	0.0032256
2878	0.0056256
2890	0.0063232
2902	0.0061312
2914	0.00624
2926	0.0067136
2938	0.0083392
2950	0.0089536
2962	0.016864
2974	0.025568
2986	0.0103424
2998	0.0040128
3010	0.0030144
3022	0.0036224
3034	0.0036736
3046	0.0027904
3058	0.0028928
3070	0.0025536
3082	0.0022208
3094	0.0019264
3106	0.001376
3118	0.0009152
3130	0.0007104
3142	0.0004352
3154	0.0004096
3166	0.0003392
3178	0.0003712
3190	0.0004096
3202	0.0003456
3214	0.0003712
3226	0.000288
3238	0.0001984
3250	0.0001472
3262	9.6e-05
3274	0.0001216
3286	8.96e-05
3298	7.68e-05
3310	3.84e-05
3322	7.68e-05
3334	0.0001024
3346	7.68e-05
3358	7.68e-05
3370	0.00016
3382	0.0002304
3394	0.0003776
3406	0.0005568
3418	0.000928
3430	0.0008384
3442	0.000416
3454	0.000256
3466	0.0001024
3478	6.4e-05
3490	9.6e-05
3502	1.28e-05
3514	7.68e-05
3526	4.48e-05
3538	3.2e-05
3550	1.92e-05
3562	7.04e-05
3574	0.0001024
3586	7.04e-05
3598	3.2e-05
3610	1.92e-05
3622	0.0001024
3634	8.96e-05
3646	7.04e-05
3658	0.0001152
3670	8.32e-05
3682	6.4e-05
3694	7.04e-05
3706	6.4e-05
3718	8.96e-05
3730	3.2e-05
3742	0
3754	5.76e-05
3766	8.32e-05
3778	5.76e-05
3790	7.04e-05
3802	0.0001024
3814	4.48e-05
3826	7.68e-05
3838	3.2e-05
