Infrared Spectrum: p-Butoxyphenol
Formula: C 10 H 14 O 2
CAS: 122-94-1
State: gas
Instrument: HP-GC/MS/IRD
Origin: NIST Mass Spectrometry Data Center
1/CM	ABSORBANCE
550	0.0032025
562	0.00305
574	0.001586
586	0.0005185
598	0.000244
610	0
622	3.05e-05
634	0.0003355
646	0.000549
658	9.15e-05
670	0.0003965
682	0.0009455
694	0.0024705
706	0.0063745
718	0.013176
730	0.01708
742	0.0174155
754	0.0193065
766	0.020923
778	0.011468
790	0.0103395
802	0.0160735
814	0.0339465
826	0.045933
838	0.033062
850	0.015982
862	0.0078995
874	0.0077165
886	0.0065575
898	0.004453
910	0.00366
922	0.0030195
934	0.0039345
946	0.006466
958	0.0110715
970	0.0159515
982	0.0155855
994	0.015128
1006	0.02501
1018	0.037149
1030	0.0401685
1042	0.0310185
1054	0.023912
1066	0.0299815
1078	0.027023
1090	0.0249795
1102	0.0228445
1114	0.017995
1126	0.01525
1138	0.016714
1150	0.029646
1162	0.0939095
1174	0.167658
1186	0.105682
1198	0.0797575
1210	0.108549
1222	0.176991
1234	0.227835
1246	0.135298
1258	0.052521
1270	0.03172
1282	0.0286395
1294	0.026352
1306	0.0257115
1318	0.0294935
1330	0.027999
1342	0.0149145
1354	0.0080825
1366	0.0076555
1378	0.015067
1390	0.02196
1402	0.012078
1414	0.011651
1426	0.0224175
1438	0.0277245
1450	0.017507
1462	0.023729
1474	0.042334
1486	0.0433405
1498	0.139659
1510	0.305
1522	0.086376
1534	0.024522
1546	0.009394
1558	0.0058865
1570	0.0049105
1582	0.004758
1594	0.006283
1606	0.0066795
1618	0.004819
1630	0.0032635
1642	0.002318
1654	0.00183
1666	0.0014945
1678	0.0013115
1690	0.001159
1702	0.00122
1714	0.0015555
1726	0.0017995
1738	0.001342
1750	0.0008235
1762	0.000671
1774	0.00061
1786	0.0007015
1798	0.000915
1810	0.0011895
1822	0.0016775
1834	0.00244
1846	0.002745
1858	0.002257
1870	0.0017995
1882	0.001525
1894	0.001037
1906	0.000793
1918	0.000915
1930	0.001037
1942	0.001098
1954	0.0011895
1966	0.001525
1978	0.001891
1990	0.0021655
2002	0.002257
2014	0.0023485
2026	0.002196
2038	0.0019825
2050	0.001952
2062	0.001891
2074	0.001708
2086	0.001281
2098	0.000793
2110	0.000488
2122	0.000244
2134	6.1e-05
2146	6.1e-05
2158	3.05e-05
2170	3.05e-05
2182	0
2194	0
2206	0
2218	6.1e-05
2230	0.0001525
2242	0.0002745
2254	0.0003965
2266	0.0003965
2278	0.000305
2290	0.0003355
2302	0.0004575
2314	0.000854
2326	0.001464
2338	0.0016165
2350	0.0015555
2362	0.00122
2374	0.001098
2386	0.0011285
2398	0.0013115
2410	0.001647
2422	0.0021655
2434	0.001891
2446	0.0014335
2458	0.001525
2470	0.0016775
2482	0.0020435
2494	0.0017995
2506	0.00122
2518	0.0008845
2530	0.0007015
2542	0.0005795
2554	0.0004575
2566	0.000488
2578	0.0006405
2590	0.000793
2602	0.000793
2614	0.00061
2626	0.0005795
2638	0.0005185
2650	0.00061
2662	0.000793
2674	0.0010065
2686	0.0011285
2698	0.0011895
2710	0.001403
2722	0.0017385
2734	0.002318
2746	0.002928
2758	0.00305
2770	0.002928
2782	0.002684
2794	0.0029585
2806	0.00366
2818	0.0047885
2830	0.006832
2842	0.0108275
2854	0.018117
2866	0.029097
2878	0.043554
2890	0.0468175
2902	0.0427
2914	0.0486475
2926	0.056486
2938	0.072346
2950	0.07991
2962	0.0817705
2974	0.0734745
2986	0.035319
2998	0.0185745
3010	0.0162565
3022	0.0183305
3034	0.0189405
3046	0.017324
3058	0.011346
3070	0.0093635
3082	0.0076555
3094	0.005612
3106	0.0046055
3118	0.0037515
3130	0.002623
3142	0.0016165
3154	0.0011285
3166	0.0008235
3178	0.0007015
3190	0.0006405
3202	0.0004575
3214	0.0002745
3226	0.0002135
3238	0.000183
3250	3.05e-05
3262	3.05e-05
3274	0
3286	3.05e-05
3298	0
3310	0
3322	0
3334	9.15e-05
3346	0.0001525
3358	0.000183
3370	0.0003355
3382	0.000549
3394	0.0007015
3406	0.0007625
3418	0.0008845
3430	0.000854
3442	0.0006405
3454	0.0005185
3466	0.0005185
3478	0.0004575
3490	0.000366
3502	0.000305
3514	0.000305
3526	0.000183
3538	0.0001525
3550	0.000183
3562	0.000183
3574	0.0002135
3586	0.000305
3598	0.000732
3610	0.001403
3622	0.00305
3634	0.0086315
3646	0.0302865
3658	0.0588955
3670	0.0163175
3682	0.0036905
3694	0.001342
3706	0.0007015
3718	0.000549
3730	0.0003965
3742	0.000305
3754	0.000366
3766	0.000488
3778	0.000488
3790	0.000549
3802	0.000549
3814	0.0006405
3826	0.000732
3838	0.0008845
