Infrared Spectrum: TRIBUTYLBORANE
Formula: C12 H27 B
CAS: 122-56-5
State: LIQUID;
Class: COBLENTZ
Instrument: Not specified, most likely a prism, grating, or hybrid spectrometer.
Sampling: TRANSMISSION
Path length: 0.0036 CM
Resolution: 4
Origin: KALLERY CHEMICAL COMPANY
MICROMETERS	TRANSMITTANCE
2.046	0.955
2.07985	0.955
2.11369	0.954
2.14754	0.951
2.18138	0.946
2.21523	0.917
2.24907	0.83
2.28292	0.846
2.31676	0.853
2.35061	0.867
2.38445	0.864
2.4183	0.867
2.45214	0.876
2.48599	0.892
2.51983	0.906
2.55368	0.917
2.58752	0.917
2.62137	0.914
2.65522	0.919
2.68906	0.917
2.72291	0.924
2.75675	0.933
2.7906	0.936
2.82444	0.933
2.85829	0.93
2.89213	0.927
2.92598	0.927
2.95982	0.927
2.99367	0.924
3.02751	0.916
3.06136	0.884
3.0952	0.87
3.12905	0.864
3.1629	0.849
3.19674	0.789
3.23059	0.714
3.26443	0.557
3.29828	0.246
3.33212	0.047
3.36597	0.039
3.39981	0.042
3.43366	0.045
3.4675	0.121
3.50135	0.385
3.53519	0.57
3.56904	0.654
3.60288	0.698
3.63673	0.753
3.67057	0.807
3.70442	0.807
3.73827	0.815
3.77211	0.838
3.80596	0.867
3.8398	0.881
3.87365	0.89
3.90749	0.9
3.94134	0.906
3.97518	0.909
4.00903	0.911
4.04287	0.911
4.07672	0.908
4.11056	0.905
4.14441	0.905
4.17825	0.911
4.2121	0.917
4.24594	0.916
4.27979	0.911
4.31364	0.913
4.34748	0.914
4.38133	0.916
4.41517	0.916
4.44902	0.916
4.48286	0.916
4.51671	0.913
4.55055	0.914
4.5844	0.917
4.61824	0.917
4.65209	0.916
4.68593	0.916
4.71978	0.913
4.75362	0.908
4.78747	0.906
4.82132	0.903
4.85516	0.902
4.88901	0.903
4.92285	0.905
4.9567	0.908
4.99054	0.908
5.02439	0.911
5.05823	0.911
5.09208	0.914
5.12592	0.914
5.15977	0.914
5.19361	0.916
5.22746	0.916
5.2613	0.916
5.29515	0.914
5.32899	0.916
5.36284	0.916
5.39669	0.917
5.43053	0.919
5.46438	0.917
5.49822	0.914
5.53207	0.911
5.56591	0.911
5.59976	0.911
5.6336	0.913
5.66745	0.914
5.70129	0.913
5.73514	0.911
5.76898	0.909
5.80283	0.908
5.83667	0.906
5.87052	0.903
5.90436	0.902
5.93821	0.9
5.97206	0.9
6.0059	0.9
6.03975	0.898
6.07359	0.894
6.10744	0.89
6.14128	0.89
6.17513	0.887
6.20897	0.884
6.24282	0.878
6.27666	0.875
6.31051	0.87
6.34435	0.867
6.3782	0.862
6.41204	0.856
6.44589	0.849
6.47973	0.843
6.51358	0.824
6.54743	0.807
6.58127	0.785
6.61512	0.74
6.64896	0.715
6.68281	0.551
6.71665	0.436
6.7505	0.357
6.78434	0.145
6.81819	0.074
6.85203	0.071
6.88588	0.137
6.91972	0.211
6.95357	0.216
6.98741	0.194
7.02126	0.181
7.05511	0.164
7.08895	0.14
7.1228	0.121
7.15664	0.102
7.19049	0.097
7.22433	0.096
7.25818	0.077
7.29202	0.055
7.32587	0.05
7.35971	0.047
7.39356	0.042
7.4274	0.037
7.46125	0.036
7.49509	0.039
7.52894	0.039
7.56278	0.039
7.59663	0.048
7.63048	0.061
7.66432	0.074
7.69817	0.086
7.73201	0.101
7.76586	0.112
7.7997	0.124
7.83355	0.135
7.86739	0.148
7.90124	0.17
7.93508	0.183
7.96893	0.169
8.00277	0.134
8.03662	0.115
8.07046	0.12
8.10431	0.127
8.13815	0.14
8.172	0.187
8.20585	0.24
8.23969	0.29
8.27354	0.255
8.30738	0.255
8.34123	0.308
8.37507	0.342
8.40892	0.364
8.44276	0.38
8.47661	0.396
8.51045	0.421
8.5443	0.483
8.57814	0.507
8.61199	0.529
8.64583	0.533
8.67968	0.481
8.71353	0.436
8.74737	0.401
8.78122	0.36
8.81506	0.274
8.84891	0.227
8.88275	0.183
8.9166	0.178
8.95044	0.194
8.98429	0.23
9.01813	0.296
9.05198	0.357
9.08582	0.385
9.11967	0.35
9.15351	0.339
9.18736	0.338
9.2212	0.336
9.25505	0.333
9.2889	0.333
9.32274	0.338
9.35659	0.347
9.39043	0.361
9.42428	0.369
9.45812	0.372
9.49197	0.374
9.52581	0.377
9.55966	0.382
9.5935	0.38
9.62735	0.375
9.66119	0.377
9.69504	0.38
9.72888	0.38
9.76273	0.377
9.79657	0.382
9.83042	0.396
9.86427	0.412
9.89811	0.426
9.93196	0.45
9.9658	0.461
9.99965	0.469
10.0335	0.478
10.0673	0.489
10.1012	0.499
10.135	0.51
10.1689	0.518
10.2027	0.527
10.2366	0.535
10.2704	0.541
10.3043	0.551
10.3381	0.56
10.3719	0.568
10.4058	0.576
10.4396	0.586
10.4735	0.593
10.5073	0.608
10.5412	0.622
10.575	0.642
10.6089	0.661
10.6427	0.682
10.6766	0.706
10.7104	0.731
10.7442	0.755
10.7781	0.77
10.8119	0.786
10.8458	0.786
10.8796	0.774
10.9135	0.736
10.9473	0.712
10.9812	0.657
11.015	0.605
11.0489	0.556
11.0827	0.513
11.1165	0.518
11.1504	0.533
11.1842	0.565
11.2181	0.586
11.2519	0.603
11.2858	0.624
11.3196	0.649
11.3535	0.669
11.3873	0.691
11.4211	0.71
11.455	0.723
11.4888	0.729
11.5227	0.737
11.5565	0.744
11.5904	0.748
11.6242	0.751
11.6581	0.755
11.6919	0.761
11.7258	0.763
11.7596	0.766
11.7934	0.769
11.8273	0.774
11.8611	0.778
11.895	0.789
11.9288	0.794
11.9627	0.804
11.9965	0.815
12.0304	0.824
12.0642	0.829
12.0981	0.834
12.1319	0.834
12.1657	0.83
12.1996	0.827
12.2334	0.821
12.2673	0.815
12.3011	0.807
12.335	0.796
12.3688	0.785
12.4027	0.775
12.4365	0.764
12.4704	0.75
12.5042	0.739
12.538	0.726
12.5719	0.715
12.6057	0.707
12.6396	0.706
12.6734	0.704
12.7073	0.706
12.7411	0.704
12.775	0.707
12.8088	0.707
12.8427	0.707
12.8765	0.71
12.9103	0.712
12.9442	0.714
12.978	0.709
13.0119	0.703
13.0457	0.693
13.0796	0.685
13.1134	0.674
13.1473	0.665
13.1811	0.665
13.215	0.665
13.2488	0.66
13.2826	0.649
13.3165	0.638
13.3503	0.625
13.3842	0.606
13.418	0.582
13.4519	0.57
13.4857	0.546
13.5196	0.526
13.5534	0.513
13.5872	0.503
13.6211	0.5
13.6549	0.503
13.6888	0.518
13.7226	0.519
13.7565	0.522
13.7903	0.527
13.8242	0.532
13.858	0.541
13.8919	0.562
13.9257	0.593
13.9595	0.627
13.9934	0.658
14.0272	0.685
14.0611	0.706
14.0949	0.72
14.1288	0.728
14.1626	0.737
14.1965	0.744
14.2303	0.747
14.2642	0.75
14.298	0.753
14.3318	0.755
14.3657	0.758
14.3995	0.758
14.4334	0.759
14.4672	0.763
14.5011	0.763
14.5349	0.761
14.5688	0.761
14.6026	0.761
14.6365	0.761
14.6703	0.763
14.7041	0.761
14.738	0.761
14.7718	0.759
14.8057	0.761
14.8395	0.761
14.8734	0.761
14.9072	0.759
14.9411	0.756
14.9749	0.756
15.0088	0.755
15.0426	0.753
15.0764	0.753
15.1103	0.75
15.1441	0.75
15.178	0.748
15.2118	0.748
