Infrared Spectrum: 1,2-Diphenylhydrazine
Formula: C 12 H 12 N 2
CAS: 122-66-7
State: gas
Origin: EPA-IR VAPOR PHASE LIBRARY
1/CM	ABSORBANCE
551.7	0.00338
563.274	0.0028
574.848	0.0027
586.421	0.00303
597.995	0.00314
609.569	0.00311
621.143	0.00342
632.717	0.00365
644.291	0.00454
655.864	0.00545
667.438	0.00614
679.012	0.00755
690.586	0.01015
702.16	0.00738
713.734	0.00566
725.307	0.00786
736.881	0.0168
748.455	0.01726
760.029	0.00942
771.603	0.0067
783.177	0.00464
794.75	0.00326
806.324	0.00261
817.898	0.00248
829.472	0.00219
841.046	0.00177
852.619	0.00189
864.193	0.00201
875.767	0.00234
887.341	0.00217
898.915	0.00158
910.489	0.00139
922.062	0.00149
933.636	0.00135
945.21	0.00111
956.784	0.00103
968.358	0.0009874
979.932	0.00107
991.505	0.00144
1003.08	0.00135
1014.65	0.0014
1026.23	0.00231
1037.8	0.00167
1049.37	0.00157
1060.95	0.0016
1072.52	0.00166
1084.1	0.00129
1095.67	0.00121
1107.24	0.0008709
1118.82	0.00106
1130.39	0.00162
1141.97	0.00204
1153.54	0.00251
1165.11	0.00185
1176.69	0.00165
1188.26	0.0015
1199.83	0.00191
1211.41	0.00277
1222.98	0.00375
1234.56	0.00559
1246.13	0.00765
1257.7	0.00774
1269.28	0.00862
1280.85	0.01174
1292.42	0.01624
1304	0.01373
1315.57	0.00774
1327.15	0.00443
1338.72	0.00291
1350.29	0.00204
1361.87	0.00175
1373.44	0.00163
1385.02	0.00178
1396.59	0.00277
1408.16	0.00474
1419.74	0.00339
1431.31	0.00252
1442.88	0.00292
1454.46	0.00397
1466.03	0.00492
1477.61	0.00852
1489.18	0.0214
1500.75	0.03376
1512.33	0.0182
1523.9	0.00687
1535.48	0.00384
1547.05	0.00335
1558.62	0.00376
1570.2	0.00557
1581.77	0.01084
1593.34	0.01915
1604.92	0.01971
1616.49	0.01496
1628.07	0.01062
1639.64	0.00526
1651.21	0.00248
1662.79	0.00155
1674.36	0.00124
1685.93	0.00118
1697.51	0.00101
1709.08	0.0007357
1720.66	0.0006014
1732.23	0.0005995
1743.8	0.0006687
1755.38	0.0007908
1766.95	0.0008844
1778.53	0.0007753
1790.1	0.0007261
1801.67	0.0007351
1813.25	0.000655
1824.82	0.0007254
1836.39	0.0007439
1847.97	0.0007508
1859.54	0.0006942
1871.12	0.0007192
1882.69	0.0008329
1894.26	0.0008219
1905.84	0.00102
1917.41	0.0011
1928.99	0.0008438
1940.56	0.0006607
1952.13	0.0005387
1963.71	0.000445
1975.28	0.0003453
1986.85	0.0003605
1998.43	0.0003523
2010	0.000349
2021.58	0.0003207
2033.15	0.0003083
2044.72	0.0003275
2056.3	0.0003339
2067.87	0.0003448
2079.44	0.0003135
2091.02	0.0003277
2102.59	0.0002996
2114.17	0.0002579
2125.74	0.0002746
2137.31	0.0002483
2148.89	0.0002849
2160.46	0.0002502
2172.04	0.0002881
2183.61	0.000272
2195.18	0.0002441
2206.76	0.0002646
2218.33	0.0002401
2229.9	0.0002195
2241.48	0.0002201
2253.05	0.0002092
2264.63	0.0002389
2276.2	0.0002768
2287.77	0.0002806
2299.35	0.0003257
2310.92	0.0004551
2322.5	0.0003927
2334.07	0.0003839
2345.64	0.0003914
2357.22	0.0003654
2368.79	0.0003315
2380.36	0.0003173
2391.94	0.0002649
2403.51	0.0002263
2415.09	0.0002852
2426.66	0.0003228
2438.23	0.0002551
2449.81	0.0002631
2461.38	0.0003385
2472.96	0.0003419
2484.53	0.0003266
2496.1	0.0004055
2507.68	0.0003326
2519.25	0.0004472
2530.82	0.0004911
2542.4	0.0004007
2553.97	0.0003205
2565.55	0.0002852
2577.12	0.0003276
2588.69	0.0003007
2600.27	0.00031
2611.84	0.0003465
2623.41	0.0003662
2634.99	0.0003017
2646.56	0.0002928
2658.14	0.0002372
2669.71	0.0001623
2681.28	0.0001915
2692.86	0.0002096
2704.43	0.0001502
2716.01	0.0002606
2727.58	0.0002869
2739.15	0.0002853
2750.73	0.0002277
2762.3	0.0002301
2773.87	0.0002573
2785.45	0.0002311
2797.02	0.0002609
2808.6	0.0002271
2820.17	0.0002702
2831.74	0.0002172
2843.32	0.0001944
2854.89	0.0002316
2866.47	0.0003702
2878.04	0.0004001
2889.61	0.0003985
2901.19	0.0004787
2912.76	0.0004173
2924.33	0.0003168
2935.91	0.0003145
2947.48	0.0003578
2959.06	0.000363
2970.63	0.0004561
2982.2	0.0005057
2993.78	0.0008919
3005.35	0.00191
3016.92	0.00387
3028.5	0.00607
3040.07	0.00712
3051.65	0.00753
3063.22	0.00771
3074.79	0.00785
3086.37	0.00645
3097.94	0.00381
3109.52	0.00189
3121.09	0.0008905
3132.66	0.0005562
3144.24	0.0003838
3155.81	0.0003072
3167.38	0.0003366
3178.96	0.0003161
3190.53	0.0003642
3202.11	0.0004004
3213.68	0.000361
3225.25	0.0003162
3236.83	0.0001853
3248.4	0.0002728
3259.98	0.0001738
3271.55	0.0001956
3283.12	0.0001173
3294.7	0.0001629
3306.27	0.0002624
3317.84	0.0001575
3329.42	0.0002678
3340.99	0.0002495
3352.57	0.0004699
3364.14	0.0008347
3375.71	0.00113
3387.29	0.00182
3398.86	0.00277
3410.43	0.00256
3422.01	0.00188
3433.58	0.00126
3445.16	0.0009491
3456.73	0.00105
3468.3	0.00125
3479.88	0.00171
3491.45	0.00212
3503.03	0.00178
3514.6	0.0009487
3526.17	0.0004837
3537.75	0.0002896
3549.32	0.000384
3560.89	0.0002187
3572.47	0.0001976
3584.04	0.0003088
3595.62	0.0002652
3607.19	0.0003122
3618.76	0.0002165
3630.34	0.0003094
3641.91	0.0002793
3653.49	0.0002468
3665.06	0.0002601
3676.63	0.0002841
3688.21	0.0001813
3699.78	0.0003165
3711.35	0.000282
3722.93	0.0003117
3734.5	0.0002708
3746.08	0.0002689
3757.65	0.0002056
3769.22	0.000161
3780.8	0.000127
3792.37	0.0003248
3803.94	0.000428
3815.52	0.0004801
3827.09	0.000337
3838.67	0.0002268
3850.24	0.0003363
3861.81	0.0003223
3873.39	0.0003526
3884.96	0.0003427
3896.54	0.0003547
3908.11	0.0003366
3919.68	0.0005053
3931.26	0.0003178
3942.83	0.000388
3954.4	0.0003518
3965.98	0.0005143
3977.55	0.0003662
3989.13	0.0003495
4000.7	0.000448
