Infrared Spectrum: 2,2-Dimethoxy-N-methyl-ethanamine
Formula: C 5 H 13 N O 2
CAS: 122-07-6
State: gas
Origin: EPA-IR VAPOR PHASE LIBRARY
1/CM	ABSORBANCE
549.8	0.003448
559.445	0.003328
569.09	0.003868
578.734	0.003948
588.379	0.003558
598.024	0.003128
607.669	0.003158
617.313	0.003648
626.958	0.004208
636.603	0.004818
646.248	0.005278
655.893	0.005798
665.537	0.006358
675.182	0.007168
684.827	0.007988
694.472	0.008288
704.116	0.008438
713.761	0.008118
723.406	0.008048
733.051	0.007978
742.695	0.007828
752.34	0.007628
761.985	0.007248
771.63	0.006388
781.275	0.005298
790.919	0.004288
800.564	0.003818
810.209	0.004738
819.854	0.005808
829.498	0.007108
839.143	0.007728
848.788	0.007568
858.433	0.007168
868.078	0.006138
877.722	0.005248
887.367	0.005308
897.012	0.006078
906.657	0.007888
916.301	0.009878
925.946	0.011098
935.591	0.011838
945.236	0.012738
954.88	0.012188
964.525	0.011978
974.17	0.012488
983.815	0.012758
993.46	0.011788
1003.1	0.011158
1012.75	0.012728
1022.39	0.014638
1032.04	0.018488
1041.68	0.026078
1051.33	0.039968
1060.97	0.057138
1070.62	0.072338
1080.26	0.079738
1089.91	0.076318
1099.55	0.067498
1109.2	0.065978
1118.84	0.072638
1128.49	0.072638
1138.13	0.062698
1147.78	0.049888
1157.42	0.038228
1167.07	0.029488
1176.71	0.027048
1186.36	0.027528
1196	0.027528
1205.64	0.024208
1215.29	0.018938
1224.93	0.014198
1234.58	0.011268
1244.22	0.009928
1253.87	0.009418
1263.51	0.008388
1273.16	0.007318
1282.8	0.006338
1292.45	0.005798
1302.09	0.006468
1311.74	0.007058
1321.38	0.006408
1331.03	0.005048
1340.67	0.005268
1350.32	0.007798
1359.96	0.011458
1369.61	0.013308
1379.25	0.011818
1388.9	0.008578
1398.54	0.005648
1408.18	0.004218
1417.83	0.004708
1427.47	0.006208
1437.12	0.009408
1446.76	0.013668
1456.41	0.016318
1466.05	0.016378
1475.7	0.014548
1485.34	0.010758
1494.99	0.006278
1504.63	0.003878
1514.28	0.002848
1523.92	0.002368
1533.57	0.002208
1543.21	0.002088
1552.86	0.001928
1562.5	0.001938
1572.15	0.001718
1581.79	0.001578
1591.44	0.001518
1601.08	0.001428
1610.73	0.001338
1620.37	0.001198
1630.01	0.001158
1639.66	0.0010858
1649.3	0.0010093
1658.95	0.001
1668.59	0.0008926
1678.24	0.0007343
1687.88	0.0008522
1697.53	0.0007268
1707.17	0.0007638
1716.82	0.0007908
1726.46	0.0006181
1736.11	0.0006387
1745.75	0.0006098
1755.4	0.0006004
1765.04	0.0006065
1774.69	0.0004979
1784.33	0.0005046
1793.98	0.000489
1803.62	0.0005176
1813.27	0.0005442
1822.91	0.0004525
1832.55	0.0005077
1842.2	0.000594
1851.84	0.0005136
1861.49	0.0005634
1871.13	0.0006406
1880.78	0.0006911
1890.42	0.000701
1900.07	0.000728
1909.71	0.0007329
1919.36	0.0008422
1929	0.0007762
1938.65	0.0007903
1948.29	0.0008881
1957.94	0.0009187
1967.58	0.0009094
1977.23	0.000955
1986.87	0.0010112
1996.52	0.0010502
2006.16	0.001093
2015.81	0.001047
2025.45	0.001128
2035.1	0.001148
2044.74	0.001168
2054.38	0.001278
2064.03	0.001288
2073.67	0.001338
2083.32	0.001238
2092.96	0.001268
2102.61	0.001238
2112.25	0.001128
2121.9	0.0010886
2131.54	0.0009634
2141.19	0.0009519
2150.83	0.0009176
2160.48	0.0008559
2170.12	0.000787
2179.77	0.0006854
2189.41	0.000691
2199.06	0.0005675
2208.7	0.0005718
2218.35	0.000507
2227.99	0.000436
2237.64	0.0004614
2247.28	0.0005685
2256.92	0.0004669
2266.57	0.0004725
2276.21	0.0003865
2285.86	0.0004393
2295.5	0.0003623
2305.15	0.0004968
2314.79	0.0004713
2324.44	0.0004471
2334.08	0.0004339
2343.73	0.0004424
2353.37	0.0005152
2363.02	0.0005106
2372.66	0.0004173
2382.31	0.0004221
2391.95	0.0004452
2401.6	0.0004478
2411.24	0.0004172
2420.89	0.0004626
2430.53	0.000398
2440.18	0.0003397
2449.82	0.0003617
2459.47	0.0004787
2469.11	0.0004309
2478.75	0.0004252
2488.4	0.0005088
2498.04	0.0005382
2507.69	0.0005617
2517.33	0.0006163
2526.98	0.0006654
2536.62	0.0006968
2546.27	0.0006943
2555.91	0.0008387
2565.56	0.0008716
2575.2	0.0010825
2584.85	0.001168
2594.49	0.001288
2604.14	0.001378
2613.78	0.001468
2623.43	0.001628
2633.07	0.001688
2642.72	0.001958
2652.36	0.002308
2662.01	0.002568
2671.65	0.002598
2681.29	0.002708
2690.94	0.002688
2700.58	0.002768
2710.23	0.002728
2719.87	0.003078
2729.52	0.003368
2739.16	0.003938
2748.81	0.004648
2758.45	0.005588
2768.1	0.007178
2777.74	0.010628
2787.39	0.016788
2797.03	0.022828
2806.68	0.025458
2816.32	0.027188
2825.97	0.034218
2835.61	0.043428
2845.26	0.045088
2854.9	0.038918
2864.55	0.032568
2874.19	0.029468
2883.84	0.031148
2893.48	0.036318
2903.12	0.042628
2912.77	0.047558
2922.41	0.051438
2932.06	0.055268
2941.7	0.058108
2951.35	0.056788
2960.99	0.049198
2970.64	0.040198
2980.28	0.033218
2989.93	0.029128
2999.57	0.024208
3009.22	0.017588
3018.86	0.011668
3028.51	0.008648
3038.15	0.007238
3047.8	0.006378
3057.44	0.005718
3067.09	0.005098
3076.73	0.004298
3086.38	0.003808
3096.02	0.003148
3105.67	0.002568
3115.31	0.002138
3124.95	0.001678
3134.6	0.001478
3144.24	0.001218
3153.89	0.001178
3163.53	0.0009142
3173.18	0.0007752
3182.82	0.0006568
3192.47	0.0006786
3202.11	0.0004463
3211.76	0.0004883
3221.4	0.000461
3231.05	0.0006275
3240.69	0.0005298
3250.34	0.0003244
3259.98	0.0003068
3269.63	0.000121926
3279.27	0.0003829
3288.92	0.00021114
3298.56	0.0003847
3308.21	0.0004871
3317.85	0.0003516
3327.49	0.00019932
3337.14	0.0002547
3346.78	0.0004756
3356.43	0.0006907
3366.07	0.001238
3375.72	0.001488
3385.36	0.001128
3395.01	0.0007048
3404.65	0.0007207
3414.3	0.0005091
3423.94	0.00015361
3433.59	0.0002984
3443.23	0.0002541
3452.88	0.0003385
3462.52	8.14e-05
3472.17	0.0003066
3481.81	0.0001814
3491.46	0.0001034
3501.1	0.0002136
3510.75	0.0001133
3520.39	0.0002976
3530.04	0.0002367
3539.68	0
3549.32	0.0004098
3558.97	0.0004278
3568.61	0.0003701
3578.26	0.00016613
3587.9	0.0002776
3597.55	0.0002256
3607.19	0.0002801
3616.84	0.00017186
3626.48	0.00019168
3636.13	0.00019443
3645.77	0.0003161
3655.42	0.0002513
3665.06	0.0003127
3674.71	0.0004107
3684.35	0.0002276
3694	0.0002993
3703.64	0.0002442
3713.29	0.0003825
3722.93	0.0003498
3732.58	0.0003825
3742.22	0.000389
3751.86	0.0006593
3761.51	0.0003975
3771.15	0.0001682
3780.8	0.0003112
3790.44	0.000438
3800.09	0.0005091
3809.73	0.0004843
3819.38	0.0003168
3829.02	0.0003053
3838.67	0.0004429
3848.31	0.0003576
3857.96	0.0004789
3867.6	0.0003898
3877.25	0.0003502
3886.89	0.0004223
3896.54	0.0008071
3906.18	0.000732
3915.83	0.0006216
3925.47	0.0007011
3935.12	0.0007005
3944.76	0.0006115
3954.41	0.0006587
3964.05	0.0007092
3973.69	0.000999
3983.34	0.0009996
3992.98	0.0006938
