Infrared Spectrum: 3,4-Dimethoxy-.beta.-methyl-.beta.-nitrosostyrene
Formula: C 11 H 13 N O 4
CAS: 122-47-4
State: gas
Origin: EPA-IR VAPOR PHASE LIBRARY
1/CM	ABSORBANCE
549.8	0.003173
559.445	0.004653
569.09	0.006573
578.734	0.007573
588.379	0.006183
598.024	0.006083
607.669	0.007033
617.313	0.006373
626.958	0.003803
636.603	0.002273
646.248	0.001473
655.893	0.0011999
665.537	0.0012491
675.182	0.001423
684.827	0.002213
694.472	0.002543
704.116	0.002333
713.761	0.002923
723.406	0.003943
733.051	0.005003
742.695	0.006203
752.34	0.006233
761.985	0.006023
771.63	0.005533
781.275	0.004683
790.919	0.004353
800.564	0.007083
810.209	0.010573
819.854	0.010103
829.498	0.008093
839.143	0.008373
848.788	0.021953
858.433	0.024803
868.078	0.010453
877.722	0.007423
887.367	0.007103
897.012	0.007663
906.657	0.009843
916.301	0.012353
925.946	0.015693
935.591	0.015393
945.236	0.010003
954.88	0.006343
964.525	0.006593
974.17	0.009953
983.815	0.018443
993.46	0.023783
1003.1	0.018603
1012.75	0.024893
1022.39	0.037213
1032.04	0.043863
1041.68	0.030813
1051.33	0.013663
1060.97	0.007323
1070.62	0.005723
1080.26	0.004893
1089.91	0.005053
1099.55	0.006623
1109.2	0.010763
1118.84	0.020543
1128.49	0.033613
1138.13	0.035893
1147.78	0.029553
1157.42	0.029713
1167.07	0.030033
1176.71	0.019403
1186.36	0.015353
1196	0.014843
1205.64	0.015073
1215.29	0.019663
1224.93	0.030533
1234.58	0.043653
1244.22	0.053773
1253.87	0.067913
1263.51	0.103663
1273.16	0.130573
1282.8	0.115153
1292.45	0.084303
1302.09	0.066563
1311.74	0.059963
1321.38	0.067033
1331.03	0.081343
1340.67	0.064283
1350.32	0.041583
1359.96	0.021403
1369.61	0.014573
1379.25	0.014623
1388.9	0.017083
1398.54	0.021483
1408.18	0.029953
1417.83	0.026533
1427.47	0.018313
1437.12	0.021293
1446.76	0.026743
1456.41	0.026613
1466.05	0.030433
1475.7	0.027563
1485.34	0.029313
1494.99	0.050863
1504.63	0.101883
1514.28	0.116233
1523.92	0.079803
1533.57	0.092173
1543.21	0.095173
1552.86	0.063443
1562.5	0.042053
1572.15	0.033953
1581.79	0.026413
1591.44	0.023363
1601.08	0.024713
1610.73	0.016913
1620.37	0.009043
1630.01	0.006723
1639.66	0.005963
1649.3	0.006613
1658.95	0.010133
1668.59	0.007333
1678.24	0.003453
1687.88	0.002783
1697.53	0.002663
1707.17	0.002543
1716.82	0.002163
1726.46	0.002193
1736.11	0.002133
1745.75	0.002123
1755.4	0.002063
1765.04	0.002023
1774.69	0.001933
1784.33	0.001923
1793.98	0.001993
1803.62	0.001903
1813.27	0.001743
1822.91	0.001713
1832.55	0.001713
1842.2	0.001763
1851.84	0.001743
1861.49	0.001783
1871.13	0.001793
1880.78	0.001753
1890.42	0.001613
1900.07	0.001513
1909.71	0.001503
1919.36	0.001453
1929	0.001343
1938.65	0.001453
1948.29	0.001453
1957.94	0.001643
1967.58	0.001643
1977.23	0.001683
1986.87	0.001893
1996.52	0.002083
2006.16	0.002513
2015.81	0.002943
2025.45	0.003173
2035.1	0.002983
2044.74	0.002843
2054.38	0.002583
2064.03	0.002403
2073.67	0.002053
2083.32	0.001643
2092.96	0.001393
2102.61	0.0010469
2112.25	0.0009492
2121.9	0.0009611
2131.54	0.0009116
2141.19	0.0009003
2150.83	0.0009203
2160.48	0.001043
2170.12	0.0011002
2179.77	0.0010283
2189.41	0.0011732
2199.06	0.0011894
2208.7	0.0010751
2218.35	0.0010522
2227.99	0.0010706
2237.64	0.0011301
2247.28	0.001154
2256.92	0.0012765
2266.57	0.001353
2276.21	0.001333
2285.86	0.0011874
2295.5	0.0010698
2305.15	0.0010036
2314.79	0.0009115
2324.44	0.0008401
2334.08	0.0008191
2343.73	0.0008455
2353.37	0.0009341
2363.02	0.0010825
2372.66	0.0010145
2382.31	0.0010185
2391.95	0.0011135
2401.6	0.0010248
2411.24	0.0009612
2420.89	0.0011174
2430.53	0.0012007
2440.18	0.0013078
2449.82	0.0012456
2459.47	0.0011546
2469.11	0.0011055
2478.75	0.0012322
2488.4	0.0012518
2498.04	0.0011955
2507.69	0.0012891
2517.33	0.001373
2526.98	0.001583
2536.62	0.001793
2546.27	0.001863
2555.91	0.002073
2565.56	0.002233
2575.2	0.001953
2584.85	0.001903
2594.49	0.001583
2604.14	0.001363
2613.78	0.0012996
2623.43	0.0012
2633.07	0.001363
2642.72	0.0012622
2652.36	0.0013118
2662.01	0.0012165
2671.65	0.0012074
2681.29	0.0010784
2690.94	0.0010738
2700.58	0.0009968
2710.23	0.0010151
2719.87	0.0010418
2729.52	0.0011091
2739.16	0.0012972
2748.81	0.001443
2758.45	0.001673
2768.1	0.001843
2777.74	0.001983
2787.39	0.002123
2797.03	0.002693
2806.68	0.003463
2816.32	0.005103
2825.97	0.007933
2835.61	0.013643
2845.26	0.019643
2854.9	0.015443
2864.55	0.011783
2874.19	0.010123
2883.84	0.009593
2893.48	0.010093
2903.12	0.011963
2912.77	0.014763
2922.41	0.017003
2932.06	0.021523
2941.7	0.031143
2951.35	0.030693
2960.99	0.025493
2970.64	0.020443
2980.28	0.016923
2989.93	0.015733
2999.57	0.018853
3009.22	0.023783
3018.86	0.015223
3028.51	0.008663
3038.15	0.007483
3047.8	0.007483
3057.44	0.007203
3067.09	0.006643
3076.73	0.005863
3086.38	0.004523
3096.02	0.003653
3105.67	0.002913
3115.31	0.002523
3124.95	0.002223
3134.6	0.001613
3144.24	0.001453
3153.89	0.0012698
3163.53	0.0009859
3173.18	0.0009768
3182.82	0.0007676
3192.47	0.0005963
3202.11	0.0009608
3211.76	0.0007213
3221.4	0.0006101
3231.05	0.0007119
3240.69	0.0004703
3250.34	0.00035257
3259.98	0.0004832
3269.63	0.0004724
3279.27	0.0005271
3288.92	0.00041
3298.56	0.00039078
3308.21	0.0005109
3317.85	0.00040803
3327.49	0.0004464
3337.14	0.00031667
3346.78	0.00040717
3356.43	0.0004986
3366.07	0.000322912
3375.72	0.0002402
3385.36	0.0002893
3395.01	0.0002737
3404.65	0.0002696
3414.3	0.00039735
3423.94	0.0002255
3433.59	0.0002835
3443.23	0.000320198
3452.88	0.0002765
3462.52	0.00033534
3472.17	0.0004196
3481.81	0.0005406
3491.46	0.000237
3501.1	0.00041097
3510.75	0.00033604
3520.39	0.0002564
3530.04	0.00037054
3539.68	0.00040725
3549.32	0.00040683
3558.97	0.0005249
3568.61	0.0002568
3578.26	0.0003022
3587.9	3.1e-05
3597.55	0.000417
3607.19	0.0002738
3616.84	0.000179
3626.48	0.0002708
3636.13	0.00037314
3645.77	0.000196
3655.42	0.00033385
3665.06	0.000208
3674.71	0.0002471
3684.35	0
3694	0.00035213
3703.64	0.00031019
3713.29	0.0002652
3722.93	0.0002743
3732.58	0.000203
3742.22	0.00030679
3751.86	0.0002524
3761.51	0.0004777
3771.15	0.0004247
3780.8	0.0004524
3790.44	0.00035989
3800.09	0.0003001
3809.73	0.0004494
3819.38	0.0004233
3829.02	0.0004058
3838.67	0.0005025
3848.31	0.00037248
3857.96	0.0004918
3867.6	0.0005705
3877.25	0.0003305
3886.89	0.0003277
3896.54	0.000499
3906.18	0.00039889
3915.83	0.0002709
3925.47	0.0004739
3935.12	0.0006314
3944.76	0.0005101
3954.41	0.0007694
3964.05	0.0006016
3973.69	0.0004513
3983.34	0.000476
3992.98	0.0004314
