Infrared Spectrum: Acetaldehyde diphenylethylacetal
Formula: C 18 H 22 O 2
CAS: 122-71-4
State: gas
Instrument: HP-GC/MS/IRD
Origin: NIST Mass Spectrometry Data Center
1/CM	ABSORBANCE
550	0.0004577
562	0.0007153
574	0.0010465
586	0.0005819
598	0.0003956
610	0.0002254
622	6.9e-05
634	3.68e-05
646	0.000184
658	0.0004531
670	0.0014076
682	0.003864
694	0.0090045
706	0.006831
718	0.0042412
730	0.0043976
742	0.0063986
754	0.0039882
766	0.0017434
778	0.0009913
790	0.0008809
802	0.0008855
814	0.0012995
826	0.0017595
838	0.0012811
850	0.0010097
862	0.0011615
874	0.0013892
886	0.0019343
898	0.0029141
910	0.0030567
922	0.0036938
934	0.0042458
946	0.0033189
958	0.0018929
970	0.0015801
982	0.0022586
994	0.0037168
1006	0.0039491
1018	0.0054878
1030	0.009936
1042	0.0111665
1054	0.0143543
1066	0.0152099
1078	0.0131583
1090	0.0159643
1102	0.023
1114	0.0176571
1126	0.0175812
1138	0.0161276
1150	0.0104512
1162	0.006716
1174	0.0046391
1186	0.0041446
1198	0.0042366
1210	0.0036478
1222	0.0024587
1234	0.0017296
1246	0.0015732
1258	0.001564
1270	0.0015433
1282	0.0013823
1294	0.001311
1306	0.0014076
1318	0.0019642
1330	0.0027853
1342	0.0047127
1354	0.003266
1366	0.0032683
1378	0.0051336
1390	0.0044229
1402	0.0026312
1414	0.0013823
1426	0.0013363
1438	0.0021413
1450	0.0027048
1462	0.0021321
1474	0.00184
1486	0.0023299
1498	0.0043217
1510	0.001127
1522	0.0004347
1534	0.0003841
1546	0.0003105
1558	0.0002967
1570	0.0004715
1582	0.0009223
1594	0.0018814
1606	0.0028014
1618	0.0017273
1630	0.0013777
1642	0.0014122
1654	0.0007682
1666	0.0004531
1678	0.0002277
1690	0.000138
1702	7.82e-05
1714	0.0001058
1726	0.0001702
1738	0.000207
1750	0.0001334
1762	9.89e-05
1774	0.0002001
1786	0.000414
1798	0.0005635
1810	0.000299
1822	0.0001679
1834	0.0001449
1846	0.0002346
1858	0.0004117
1870	0.0004715
1882	0.000414
1894	0.0002254
1906	0.0002392
1918	0.0003427
1930	0.0005451
1942	0.0006532
1954	0.0005819
1966	0.0002208
1978	0.0001426
1990	0.0001173
2002	0.0001035
2014	8.51e-05
2026	8.51e-05
2038	9.66e-05
2050	9.43e-05
2062	8.97e-05
2074	0.0001219
2086	0.0001127
2098	0.0001012
2110	8.74e-05
2122	6.21e-05
2134	5.29e-05
2146	2.07e-05
2158	3.91e-05
2170	2.07e-05
2182	2.53e-05
2194	4.37e-05
2206	3.68e-05
2218	2.76e-05
2230	3.68e-05
2242	2.3e-05
2254	4.6e-05
2266	3.91e-05
2278	5.75e-05
2290	4.6e-05
2302	5.52e-05
2314	0.0001219
2326	5.98e-05
2338	8.97e-05
2350	5.52e-05
2362	3.68e-05
2374	4.6e-05
2386	4.6e-05
2398	3.91e-05
2410	2.07e-05
2422	2.76e-05
2434	4.83e-05
2446	4.37e-05
2458	5.06e-05
2470	3.91e-05
2482	4.6e-05
2494	5.75e-05
2506	3.68e-05
2518	8.28e-05
2530	5.52e-05
2542	5.29e-05
2554	8.97e-05
2566	0.0001012
2578	9.89e-05
2590	0.0001288
2602	0.000161
2614	0.0002001
2626	0.0002484
2638	0.0003588
2650	0.0003795
2662	0.0003933
2674	0.0003266
2686	0.0003358
2698	0.0003289
2710	0.0003703
2722	0.0004301
2734	0.0005198
2746	0.0005796
2758	0.0006739
2770	0.0007268
2782	0.0008349
2794	0.0008556
2806	0.0009016
2818	0.0011017
2830	0.0015134
2842	0.0023437
2854	0.0036271
2866	0.0059685
2878	0.0069966
2890	0.0062629
2902	0.0066654
2914	0.0079281
2926	0.0086802
2938	0.0085997
2950	0.0089746
2962	0.0060398
2974	0.0036064
2986	0.0040066
2998	0.0057316
3010	0.0032154
3022	0.0049335
3034	0.0076797
3046	0.0050002
3058	0.0046299
3070	0.007475
3082	0.0049036
3094	0.0033258
3106	0.0020378
3118	0.0011454
3130	0.0005957
3142	0.0003243
3154	0.0002599
3166	0.0002507
3178	0.0001794
3190	0.0001242
3202	0.0001219
3214	8.97e-05
3226	0.0001012
3238	2.76e-05
3250	8.51e-05
3262	4.37e-05
3274	3.45e-05
3286	6.9e-05
3298	3.91e-05
3310	2.76e-05
3322	8.97e-05
3334	2.53e-05
3346	2.76e-05
3358	8.51e-05
3370	6.44e-05
3382	5.98e-05
3394	6.44e-05
3406	5.29e-05
3418	3.68e-05
3430	7.59e-05
3442	6.9e-05
3454	6.9e-05
3466	7.13e-05
3478	1.38e-05
3490	0.0001058
3502	1.38e-05
3514	2.99e-05
3526	2.76e-05
3538	5.52e-05
3550	8.51e-05
3562	4.37e-05
3574	3.45e-05
3586	2.07e-05
3598	4.6e-05
3610	0.0001012
3622	0.0001633
3634	0.0002277
3646	0.0002323
3658	0.0002507
3670	0.0002254
3682	0.0002139
3694	0.0001403
3706	6.21e-05
3718	7.82e-05
3730	0.0001127
3742	9.2e-05
3754	0.0001219
3766	0.0001587
3778	0.0001725
3790	0.0001472
3802	8.51e-05
3814	0.0001909
3826	0.0001449
3838	0.0001403
