Infrared Spectrum: Di(hydroxyethyl)piperazine
Formula: C 8 H 18 N 2 O 2
CAS: 122-96-3
State: gas
Origin: EPA-IR VAPOR PHASE LIBRARY
1/CM	ABSORBANCE
501.5	0.0022495
513.074	0.0018995
524.648	0.0019395
536.222	0.0019195
547.796	0.0016895
559.37	0.0014995
570.944	0.0010495
582.518	0.0009709
594.092	0.0009363
605.666	0.000908
617.24	0.0009583
628.814	0.0010088
640.388	0.0007925
651.962	0.0007875
663.536	0.0007615
675.11	0.0006306
686.684	0.0006534
698.258	0.0006493
709.832	0.0008458
721.406	0.0009152
732.98	0.0011595
744.554	0.0016395
756.128	0.0025795
767.702	0.0037295
779.276	0.0037495
790.85	0.0027495
802.423	0.0021195
813.997	0.0019295
825.571	0.0017895
837.145	0.0018195
848.719	0.0022695
860.293	0.0034995
871.867	0.0051495
883.441	0.0047195
895.015	0.0029795
906.589	0.0024895
918.163	0.0030995
929.737	0.0050495
941.311	0.0066195
952.885	0.0056095
964.459	0.0050895
976.033	0.0049295
987.607	0.0062195
999.181	0.0113195
1010.76	0.0256095
1022.33	0.0226795
1033.9	0.0161095
1045.48	0.0172095
1057.05	0.0213595
1068.63	0.0252595
1080.2	0.0187495
1091.77	0.0103695
1103.35	0.0076895
1114.92	0.0078995
1126.49	0.0099395
1138.07	0.0155295
1149.64	0.0243895
1161.22	0.0209395
1172.79	0.0116295
1184.36	0.0081295
1195.94	0.0075595
1207.51	0.0078495
1219.09	0.0074695
1230.66	0.0062795
1242.23	0.0049895
1253.81	0.0047995
1265.38	0.0059795
1276.96	0.0084495
1288.53	0.0113995
1300.1	0.0133695
1311.68	0.0117595
1323.25	0.0106795
1334.83	0.0112495
1346.4	0.0136995
1357.97	0.0149495
1369.55	0.0119195
1381.12	0.0090795
1392.7	0.0097695
1404.27	0.0105095
1415.84	0.0070895
1427.42	0.0049995
1438.99	0.0062795
1450.57	0.0086395
1462.14	0.0093295
1473.71	0.0062295
1485.29	0.0030495
1496.86	0.0014795
1508.44	0.0009842
1520.01	0.0007187
1531.58	0.000602
1543.16	0.0005263
1554.73	0.0004288
1566.31	0.000352
1577.88	0.0002988
1589.45	0.0002559
1601.03	0.0002455
1612.6	0.0001609
1624.18	0.0001459
1635.75	0.000173
1647.32	0.0001631
1658.9	0.00012625
1670.47	0.0001464
1682.05	0.0001656
1693.62	0.0002143
1705.19	0.0002164
1716.77	0.0001526
1728.34	0.000136
1739.92	0.00012664
1751.49	5.713e-05
1763.06	0
1774.64	9.348e-05
1786.21	9.809e-05
1797.79	9.089e-05
1809.36	0.0001012
1820.93	5.408e-05
1832.51	5.559e-05
1844.08	0.00010129
1855.66	8.323e-05
1867.23	0.0001637
1878.8	0.0002408
1890.38	0.0002666
1901.95	0.000359
1913.53	0.0003996
1925.1	0.0003829
1936.67	0.0003563
1948.25	0.0002797
1959.82	0.0002165
1971.4	0.0001569
1982.97	0.0001448
1994.54	0.0001615
2006.12	0.00011237
2017.69	0.00011205
2029.27	0.0001376
2040.84	0.0002078
2052.41	0.0002868
2063.99	0.000329
2075.56	0.0003551
2087.14	0.0002875
2098.71	0.0002265
2110.28	0.000266
2121.86	0.000263
2133.43	0.0002594
2145.01	0.0001832
2156.58	0.0001727
2168.15	0.0001438
2179.73	0.0001436
2191.3	0.0001405
2202.88	0.000152
2214.45	0.0001329
2226.02	0.0001392
2237.6	0.0001817
2249.17	0.0001986
2260.74	0.000274
2272.32	0.000279
2283.89	0.0002616
2295.47	0.000236
2307.04	0.0002415
2318.61	0.0002607
2330.19	0.0002525
2341.76	0.0002751
2353.34	0.0002567
2364.91	0.0002723
2376.48	0.0002265
2388.06	0.0002458
2399.63	0.0002699
2411.21	0.0002692
2422.78	0.0002256
2434.35	0.0002475
2445.93	0.0002671
2457.5	0.0003427
2469.08	0.0003424
2480.65	0.0003722
2492.22	0.0004285
2503.8	0.0003652
2515.37	0.0004079
2526.95	0.0004853
2538.52	0.0005452
2550.09	0.0005907
2561.67	0.0005975
2573.24	0.0006246
2584.82	0.0005892
2596.39	0.0006458
2607.96	0.0007326
2619.54	0.0009169
2631.11	0.0012395
2642.69	0.0016795
2654.26	0.0022495
2665.83	0.0030495
2677.41	0.0037995
2688.98	0.0044395
2700.56	0.0048695
2712.13	0.0049895
2723.7	0.0053295
2735.28	0.0064795
2746.85	0.0084095
2758.43	0.0108595
2770	0.0130995
2781.57	0.0153295
2793.15	0.0217095
2804.72	0.0359595
2816.3	0.0482395
2827.87	0.0381395
2839.44	0.0208195
2851.02	0.0134795
2862.59	0.0138695
2874.17	0.0193895
2885.74	0.0230995
2897.31	0.0204395
2908.89	0.0193095
2920.46	0.0226195
2932.04	0.0307495
2943.61	0.0440195
2955.18	0.0419095
2966.76	0.0219095
2978.33	0.0096795
2989.91	0.0045195
3001.48	0.0024495
3013.05	0.0016495
3024.63	0.0010695
3036.2	0.0008583
3047.78	0.0006845
3059.35	0.0005912
3070.92	0.0005116
3082.5	0.0003589
3094.07	0.000341
3105.65	0.0002675
3117.22	0.0001773
3128.79	0.0003174
3140.37	0.0002472
3151.94	0.0002612
3163.52	0.000257
3175.09	0.0002741
3186.66	0.0002441
3198.24	0.0001963
3209.81	0.0002553
3221.39	0.0002372
3232.96	0.0002758
3244.53	0.0001888
3256.11	0.000182
3267.68	0.000234
3279.26	0.0002623
3290.83	0.0002589
3302.4	0.0002623
3313.98	0.0003047
3325.55	0.0003327
3337.13	0.0004041
3348.7	0.0004607
3360.27	0.0004819
3371.85	0.0005763
3383.42	0.0006547
3395	0.0007955
3406.57	0.00094
3418.14	0.0009785
3429.72	0.0010295
3441.29	0.0011295
3452.86	0.0014095
3464.44	0.0016795
3476.01	0.0017795
3487.59	0.0017595
3499.16	0.0018295
3510.73	0.0017595
3522.31	0.0020195
3533.88	0.0034695
3545.46	0.0057995
3557.03	0.0050895
3568.6	0.0037695
3580.18	0.0030995
3591.75	0.0027195
3603.33	0.0020495
3614.9	0.0015495
3626.47	0.0013295
3638.05	0.0014195
3649.62	0.0019095
3661.2	0.0032995
3672.77	0.0034395
3684.34	0.0020595
3695.92	0.0009792
3707.49	0.0006054
3719.07	0.0005142
3730.64	0.0004364
3742.21	0.0003819
3753.79	0.0002499
3765.36	0.0002879
3776.94	0.0002275
3788.51	0.0002929
3800.08	0.0001919
3811.66	0.0002173
3823.23	0.0002502
3834.81	0.0003073
3846.38	0.0002476
3857.95	0.0003163
3869.53	0.0003062
3881.1	0.0003539
3892.68	0.0003312
3904.25	0.0003082
3915.82	0.0002117
3927.4	0.0004204
3938.97	0.0003416
3950.55	0.0003087
3962.12	0.0003054
3973.69	0.000212
3985.27	0.0003279
3996.84	0.0003562
