Infrared Spectrum: 2-Fluoro-4-(trifluoromethyl)acetophenone
Formula: C 9 H 6 F 4 O
CAS: 122023-29-4
State: gas
Origin: EPA-IR VAPOR PHASE LIBRARY
1/CM	ABSORBANCE
549.8	0.00908
559.445	0.00485
569.09	0.00533
578.734	0.00463
588.379	0.00339
598.024	0.00368
607.669	0.00529
617.313	0.00259
626.958	0.002039
636.603	0.00212
646.248	0.00264
655.893	0.00618
665.537	0.00982
675.182	0.00723
684.827	0.00479
694.472	0.00983
704.116	0.0133
713.761	0.00388
723.406	0.00247
733.051	0.00472
742.695	0.01942
752.34	0.01547
761.985	0.00335
771.63	0.0012231
781.275	0.001724
790.919	0.0018753
800.564	0.00236
810.209	0.00383
819.854	0.00819
829.498	0.01742
839.143	0.01953
848.788	0.00963
858.433	0.00498
868.078	0.00976
877.722	0.02279
887.367	0.02493
897.012	0.02498
906.657	0.05157
916.301	0.04472
925.946	0.01166
935.591	0.00694
945.236	0.00675
954.88	0.01346
964.525	0.02115
974.17	0.01321
983.815	0.00638
993.46	0.0052
1003.1	0.00531
1012.75	0.005
1022.39	0.0046
1032.04	0.00476
1041.68	0.00524
1051.33	0.00977
1060.97	0.01452
1070.62	0.03153
1080.26	0.06169
1089.91	0.0401
1099.55	0.01676
1109.2	0.0159
1118.84	0.02441
1128.49	0.05396
1138.13	0.10918
1147.78	0.17413
1157.42	0.21522
1167.07	0.14648
1176.71	0.1936
1186.36	0.14016
1196	0.07663
1205.64	0.08151
1215.29	0.06686
1224.93	0.07979
1234.58	0.05794
1244.22	0.02743
1253.87	0.01748
1263.51	0.03204
1273.16	0.04552
1282.8	0.02264
1292.45	0.02609
1302.09	0.04211
1311.74	0.05869
1321.38	0.15835
1331.03	0.2844
1340.67	0.11271
1350.32	0.03099
1359.96	0.02611
1369.61	0.027
1379.25	0.0193
1388.9	0.02239
1398.54	0.03392
1408.18	0.06643
1417.83	0.11033
1427.47	0.09894
1437.12	0.04907
1446.76	0.02561
1456.41	0.01431
1466.05	0.00907
1475.7	0.0094
1485.34	0.015
1494.99	0.02841
1504.63	0.0245
1514.28	0.00948
1523.92	0.00577
1533.57	0.00454
1543.21	0.00459
1552.86	0.00587
1562.5	0.0091
1572.15	0.01425
1581.79	0.0147
1591.44	0.00855
1601.08	0.00559
1610.73	0.0073
1620.37	0.01208
1630.01	0.01177
1639.66	0.00749
1649.3	0.00613
1658.95	0.00681
1668.59	0.0084
1678.24	0.01144
1687.88	0.01801
1697.53	0.03702
1707.17	0.08462
1716.82	0.08796
1726.46	0.04064
1736.11	0.01942
1745.75	0.01471
1755.4	0.01091
1765.04	0.00739
1774.69	0.00478
1784.33	0.00382
1793.98	0.00346
1803.62	0.00314
1813.27	0.00249
1822.91	0.00229
1832.55	0.00215
1842.2	0.00222
1851.84	0.0020011
1861.49	0.0014804
1871.13	0.0015426
1880.78	0.0017625
1890.42	0.0016804
1900.07	0.0020185
1909.71	0.00228
1919.36	0.00246
1929	0.00247
1938.65	0.0020746
1948.29	0.0016865
1957.94	0.0014997
1967.58	0.0014417
1977.23	0.0013847
1986.87	0.0012632
1996.52	0.0010192
2006.16	0.0011956
2015.81	0.00113107
2025.45	0.0012276
2035.1	0.00111475
2044.74	0.00109932
2054.38	0.0014064
2064.03	0.0014113
2073.67	0.0018657
2083.32	0.001426
2092.96	0.0014411
2102.61	0.001367
2112.25	0.0016721
2121.9	0.0013123
2131.54	0.00107148
2141.19	0.000943
2150.83	0.00085
2160.48	0.000857
2170.12	0.0009814
2179.77	0.00113373
2189.41	0.000959
2199.06	0.00095
2208.7	0.00110051
2218.35	0.0011995
2227.99	0.0013923
2237.64	0.0014186
2247.28	0.00116581
2256.92	0.00148
2266.57	0.0014112
2276.21	0.0015112
2285.86	0.0015245
2295.5	0.0017981
2305.15	0.0020796
2314.79	0.0016397
2324.44	0.0019778
2334.08	0.00223
2343.73	0.0017219
2353.37	0.0016659
2363.02	0.0013643
2372.66	0.0012658
2382.31	0.0013845
2391.95	0.0012866
2401.6	0.00117431
2411.24	0.0012582
2420.89	0.00093
2430.53	0.000848
2440.18	0.0010491
2449.82	0.000918
2459.47	0.0010142
2469.11	0.0014042
2478.75	0.00094
2488.4	0.001308
2498.04	0.0014932
2507.69	0.0009857
2517.33	0.0013
2526.98	0.0010685
2536.62	0.0009913
2546.27	0.000968
2555.91	0.000787
2565.56	0.000824
2575.2	0.000567
2584.85	0.000796
2594.49	0.0010049
2604.14	0.00109826
2613.78	0.000824
2623.43	0.00067
2633.07	0.00117935
2642.72	0.0010624
2652.36	0.0011026
2662.01	0.00109821
2671.65	0.000916
2681.29	0.0011955
2690.94	0.0010001
2700.58	0.00084
2710.23	0.000915
2719.87	0.000801
2729.52	0.000697
2739.16	0.000891
2748.81	0.000658
2758.45	0.00074
2768.1	0.000336
2777.74	0.000975
2787.39	0.000693
2797.03	0.000952
2806.68	0.0010027
2816.32	0.000783
2825.97	0.000736
2835.61	0.000657
2845.26	0.00107139
2854.9	0.000541
2864.55	0.00108649
2874.19	0.000796
2883.84	0.0010151
2893.48	0.000886
2903.12	0.0015153
2912.77	0.0012133
2922.41	0.0016959
2932.06	0.0014911
2941.7	0.00217
2951.35	0.00229
2960.99	0.0020788
2970.64	0.0023
2980.28	0.00216
2989.93	0.0031
2999.57	0.00273
3009.22	0.0039
3018.86	0.00468
3028.51	0.00327
3038.15	0.0020474
3047.8	0.00247
3057.44	0.00234
3067.09	0.00239
3076.73	0.00232
3086.38	0.0023
3096.02	0.00273
3105.67	0.00226
3115.31	0.0015194
3124.95	0.0012097
3134.6	0.0011905
3144.24	0.00107593
3153.89	0.000636
3163.53	7e-05
3173.18	0.000799
3182.82	0.00061
3192.47	0.000778
3202.11	0.001005
3211.76	0.000434
3221.4	0.000331
3231.05	0.000601
3240.69	0.0009849
3250.34	0.000792
3259.98	0.000798
3269.63	0.000833
3279.27	0.0009986
3288.92	0.0012334
3298.56	0.00107637
3308.21	0.00112542
3317.85	0.000884
3327.49	0.00115376
3337.14	0.0010153
3346.78	0.000956
3356.43	0.000424
3366.07	0.0013448
3375.72	0.0015693
3385.36	0.0011827
3395.01	0.00238
3404.65	0.00224
3414.3	0.0020074
3423.94	0.00215
3433.59	0.001436
3443.23	0.0010897
3452.88	0.001261
3462.52	0.001143
3472.17	0.000687
3481.81	0.0012674
3491.46	0.00116025
3501.1	0.0011826
3510.75	0.00088
3520.39	0.0009945
3530.04	0.000889
3539.68	0.00107342
3549.32	0.000669
3558.97	0.000749
3568.61	0.000642
3578.26	0.000922
3587.9	1e-05
3597.55	0.000835
3607.19	0.000912
3616.84	0.0011991
3626.48	0.000948
3636.13	0.0012437
3645.77	0.000701
3655.42	0.000666
3665.06	0.00055
3674.71	0.0010211
3684.35	0.000697
3694	0.000712
3703.64	0.00071
3713.29	0.000933
3722.93	0.00074
3732.58	0.0010146
3742.22	0.0009
3751.86	0.0011418
3761.51	0.000868
3771.15	0.000403
3780.8	0.000693
3790.44	0.000593
3800.09	0.000349
3809.73	0.000761
3819.38	0.000562
3829.02	0.000413
3838.67	0.000915
3848.31	0.000772
3857.96	0.000478
3867.6	0.000347
3877.25	0.00072
3886.89	0.00016
3896.54	0.0011909
3906.18	0.000284
3915.83	0.0010194
3925.47	0.000343
3935.12	0.000745
3944.76	0.000541
3954.41	0.000509
3964.05	0.000859
3973.69	0.000619
3983.34	0.000584
3992.98	0.0009816
