Infrared Spectrum: 3,5-Difluoroacetonitrile
Formula: C 8 H 5 F 2 N
CAS: 122376-76-5
State: gas
Origin: EPA-IR VAPOR PHASE LIBRARY
1/CM	ABSORBANCE
549.8	0.007321
559.445	0.006171
569.09	0.003021
578.734	0.0013005
588.379	0.00072885
598.024	0.0016236
607.669	0.0011727
617.313	0.0007588
626.958	0.002501
636.603	0.004271
646.248	0.010241
655.893	0.016761
665.537	0.022051
675.182	0.019571
684.827	0.015141
694.472	0.013741
704.116	0.011521
713.761	0.007841
723.406	0.003021
733.051	0.002081
742.695	0.001891
752.34	0.0007549
761.985	0.000974
771.63	0.0010349
781.275	0.0015947
790.919	0.0010388
800.564	0.002041
810.209	0.003961
819.854	0.010321
829.498	0.020641
839.143	0.040061
848.788	0.074101
858.433	0.060331
868.078	0.028501
877.722	0.009231
887.367	0.007511
897.012	0.012131
906.657	0.016961
916.301	0.015981
925.946	0.012241
935.591	0.010031
945.236	0.007491
954.88	0.005591
964.525	0.006871
974.17	0.017741
983.815	0.036591
993.46	0.064741
1003.1	0.068251
1012.75	0.038321
1022.39	0.010381
1032.04	0.003521
1041.68	0.003561
1051.33	0.003471
1060.97	0.003601
1070.62	0.003191
1080.26	0.005131
1089.91	0.006401
1099.55	0.009011
1109.2	0.028751
1118.84	0.115871
1128.49	0.162181
1138.13	0.100611
1147.78	0.018011
1157.42	0.004771
1167.07	0.003831
1176.71	0.002351
1186.36	0.002611
1196	0.001701
1205.64	0.002041
1215.29	0.000495
1224.93	0.002901
1234.58	0.003361
1244.22	0.002941
1253.87	0.002271
1263.51	0.001671
1273.16	0.002011
1282.8	0.004621
1292.45	0.011931
1302.09	0.014691
1311.74	0.018831
1321.38	0.050621
1331.03	0.097641
1340.67	0.073461
1350.32	0.020441
1359.96	0.010401
1369.61	0.007401
1379.25	0.005861
1388.9	0.006751
1398.54	0.009431
1408.18	0.012761
1417.83	0.022671
1427.47	0.040081
1437.12	0.069331
1446.76	0.083921
1456.41	0.102771
1466.05	0.108571
1475.7	0.073931
1485.34	0.035981
1494.99	0.017511
1504.63	0.018891
1514.28	0.018691
1523.92	0.015691
1533.57	0.013881
1543.21	0.014341
1552.86	0.015531
1562.5	0.018461
1572.15	0.028181
1581.79	0.066201
1591.44	0.131941
1601.08	0.156111
1610.73	0.136511
1620.37	0.199901
1630.01	0.189061
1639.66	0.067461
1649.3	0.031111
1658.95	0.019331
1668.59	0.013721
1678.24	0.011131
1687.88	0.009441
1697.53	0.007221
1707.17	0.005351
1716.82	0.004191
1726.46	0.004121
1736.11	0.002871
1745.75	0.002001
1755.4	0.001651
1765.04	0.001721
1774.69	0.001871
1784.33	0.002031
1793.98	0.002331
1803.62	0.001941
1813.27	0.0015663
1822.91	0.0013844
1832.55	0.0013067
1842.2	0.001352
1851.84	0.0013738
1861.49	0.0012256
1871.13	0.0009655
1880.78	0.0013089
1890.42	0.0010415
1900.07	0.0010254
1909.71	0.0010222
1919.36	0.0011595
1929	0.0009989
1938.65	0.0011946
1948.29	0.0012755
1957.94	0.0013205
1967.58	0.0013117
1977.23	0.0014106
1986.87	0.0013513
1996.52	0.0014043
2006.16	0.0012079
2015.81	0.0013841
2025.45	0.0013243
2035.1	0.0011879
2044.74	0.00145
2054.38	0.0011083
2064.03	0.0011935
2073.67	0.0012967
2083.32	0.0011786
2092.96	0.0013428
2102.61	0.001841
2112.25	0.002401
2121.9	0.003101
2131.54	0.002971
2141.19	0.002061
2150.83	0.001841
2160.48	0.0015271
2170.12	0.0014971
2179.77	0.001344
2189.41	0.0011884
2199.06	0.0011157
2208.7	0.0010659
2218.35	0.0012288
2227.99	0.0012817
2237.64	0.001691
2247.28	0.002251
2256.92	0.003011
2266.57	0.002931
2276.21	0.002371
2285.86	0.001961
2295.5	0.002011
2305.15	0.002181
2314.79	0.001921
2324.44	0.002151
2334.08	0.001991
2343.73	0.001811
2353.37	0.001651
2363.02	0.0013431
2372.66	0.001371
2382.31	0.001428
2391.95	0.0013521
2401.6	0.0015213
2411.24	0.002131
2420.89	0.002351
2430.53	0.002471
2440.18	0.002811
2449.82	0.003381
2459.47	0.003511
2469.11	0.002821
2478.75	0.0014985
2488.4	0.0012592
2498.04	0.0012406
2507.69	0.0012835
2517.33	0.001179
2526.98	0.0014157
2536.62	0.0016382
2546.27	0.0015916
2555.91	0.0013173
2565.56	0.001751
2575.2	0.002121
2584.85	0.002621
2594.49	0.002471
2604.14	0.002321
2613.78	0.0014243
2623.43	0.0012365
2633.07	0.0013887
2642.72	0.0013018
2652.36	0.0015121
2662.01	0.0014724
2671.65	0.0014936
2681.29	0.0014403
2690.94	0.001346
2700.58	0.0014939
2710.23	0.0011995
2719.87	0.001791
2729.52	0.0014349
2739.16	0.0013795
2748.81	0.001861
2758.45	0.002011
2768.1	0.002011
2777.74	0.001881
2787.39	0.001771
2797.03	0.0012643
2806.68	0.001841
2816.32	0.0016396
2825.97	0.0016077
2835.61	0.001811
2845.26	0.0015366
2854.9	0.0014611
2864.55	0.0009243
2874.19	0.0009989
2883.84	0.0010857
2893.48	0.0005733
2903.12	0.0012293
2912.77	0.001891
2922.41	0.002971
2932.06	0.004001
2941.7	0.003701
2951.35	0.002741
2960.99	0.002121
2970.64	0.00147
2980.28	0.001721
2989.93	0.0012516
2999.57	0.0008631
3009.22	0.0008503
3018.86	0.0010262
3028.51	0.0008643
3038.15	0.0008603
3047.8	0.0013921
3057.44	0.001901
3067.09	0.002331
3076.73	0.002691
3086.38	0.002621
3096.02	0.003131
3105.67	0.002771
3115.31	0.001731
3124.95	0.0012578
3134.6	0.0009224
3144.24	0.0012428
3153.89	0.0014328
3163.53	0.0012613
3173.18	0.0012993
3182.82	0.0014472
3192.47	0.0014644
3202.11	0.001701
3211.76	0.0015108
3221.4	0.0016381
3231.05	0.0015822
3240.69	0.0012847
3250.34	0.001651
3259.98	0.0012588
3269.63	0.000816
3279.27	0.0009146
3288.92	0.0005816
3298.56	0.0010644
3308.21	0.0008395
3317.85	0.0012673
3327.49	0.000648521
3337.14	0.00071324
3346.78	0.0007613
3356.43	0.000406
3366.07	0.00014
3375.72	0.0015728
3385.36	0.0010926
3395.01	0.0005603
3404.65	0.000188
3414.3	0.000454
3423.94	0.0011405
3433.59	0.000443
3443.23	0.00066064
3452.88	0.0005
3462.52	0.0008333
3472.17	0.000604
3481.81	0.000282
3491.46	0.000837
3501.1	0.000503
3510.75	0.0007591
3520.39	0.00124
3530.04	0.0011629
3539.68	0.0010676
3549.32	0.000994
3558.97	0.0010712
3568.61	0.0010349
3578.26	0.0013502
3587.9	0.00072006
3597.55	0.0010194
3607.19	0.0010977
3616.84	0.0006064
3626.48	0.0010664
3636.13	0.0013747
3645.77	0.0007734
3655.42	0.0009634
3665.06	0.0010509
3674.71	0.0011665
3684.35	0.0010595
3694	0.0010644
3703.64	0.00069702
3713.29	0.0010876
3722.93	0.0008296
3732.58	0.001103
3742.22	0.0008922
3751.86	0.0009565
3761.51	0.0006002
3771.15	0.0009385
3780.8	0.0010949
3790.44	0.0010863
3800.09	0.00073218
3809.73	0.0008309
3819.38	0.0009692
3829.02	0.00068583
3838.67	0.00036
3848.31	0.000751
3857.96	0.001841
3867.6	0.0012127
3877.25	0.0013931
3886.89	0.0009828
3896.54	0.0010839
3906.18	0.00067475
3915.83	0.000479
3925.47	0.0005566
3935.12	0.00077
3944.76	0.00070889
3954.41	0.0009686
3964.05	0.0012798
3973.69	0.0007566
3983.34	0.000483
3992.98	0.00045
