Infrared Spectrum: 1-Methyl-3-trifluoromethyl-2-pyrazolin-5-one
Formula: C 5 H 5 F 3 N 2 O
CAS: 122431-37-2
State: gas
Origin: EPA-IR VAPOR PHASE LIBRARY
1/CM	ABSORBANCE
549.8	0.001914
559.445	0.001834
569.09	0.002334
578.734	0.002654
588.379	0.003764
598.024	0.005824
607.669	0.006734
617.313	0.004774
626.958	0.005024
636.603	0.006634
646.248	0.009204
655.893	0.020144
665.537	0.017524
675.182	0.005084
684.827	0.002774
694.472	0.003624
704.116	0.006944
713.761	0.017784
723.406	0.021394
733.051	0.012774
742.695	0.006344
752.34	0.009164
761.985	0.010624
771.63	0.009574
781.275	0.007284
790.919	0.004914
800.564	0.003064
810.209	0.002314
819.854	0.001844
829.498	0.002214
839.143	0.002124
848.788	0.002364
858.433	0.002944
868.078	0.005054
877.722	0.008064
887.367	0.012904
897.012	0.012104
906.657	0.006164
916.301	0.004434
925.946	0.005774
935.591	0.007044
945.236	0.008594
954.88	0.017654
964.525	0.056474
974.17	0.069194
983.815	0.026314
993.46	0.007064
1003.1	0.005174
1012.75	0.006294
1022.39	0.008334
1032.04	0.008274
1041.68	0.006334
1051.33	0.005354
1060.97	0.006004
1070.62	0.008584
1080.26	0.016474
1089.91	0.039824
1099.55	0.056844
1109.2	0.043414
1118.84	0.056834
1128.49	0.107424
1138.13	0.173374
1147.78	0.227184
1157.42	0.208414
1167.07	0.157134
1176.71	0.164194
1186.36	0.179924
1196	0.175914
1205.64	0.138084
1215.29	0.125774
1224.93	0.162464
1234.58	0.152904
1244.22	0.082924
1253.87	0.037544
1263.51	0.023964
1273.16	0.017804
1282.8	0.016744
1292.45	0.018034
1302.09	0.018104
1311.74	0.020784
1321.38	0.028404
1331.03	0.036734
1340.67	0.035644
1350.32	0.025844
1359.96	0.018824
1369.61	0.019654
1379.25	0.025364
1388.9	0.032824
1398.54	0.039874
1408.18	0.047884
1417.83	0.047554
1427.47	0.033244
1437.12	0.022244
1446.76	0.015544
1456.41	0.013324
1466.05	0.017084
1475.7	0.032734
1485.34	0.066714
1494.99	0.074964
1504.63	0.038654
1514.28	0.022234
1523.92	0.018284
1533.57	0.018184
1543.21	0.021664
1552.86	0.031804
1562.5	0.046334
1572.15	0.040824
1581.79	0.023904
1591.44	0.020104
1601.08	0.017974
1610.73	0.009794
1620.37	0.004534
1630.01	0.003014
1639.66	0.002294
1649.3	0.002184
1658.95	0.002324
1668.59	0.002774
1678.24	0.002994
1687.88	0.003004
1697.53	0.003564
1707.17	0.005174
1716.82	0.007864
1726.46	0.011584
1736.11	0.022194
1745.75	0.065314
1755.4	0.155504
1765.04	0.157264
1774.69	0.057064
1784.33	0.021324
1793.98	0.008834
1803.62	0.004434
1813.27	0.003134
1822.91	0.002914
1832.55	0.003024
1842.2	0.003174
1851.84	0.002824
1861.49	0.002374
1871.13	0.001934
1880.78	0.001694
1890.42	0.001534
1900.07	0.001504
1909.71	0.001454
1919.36	0.001374
1929	0.001614
1938.65	0.001534
1948.29	0.001404
1957.94	0.001504
1967.58	0.0013094
1977.23	0.0011688
1986.87	0.0011685
1996.52	0.0010612
2006.16	0.0008541
2015.81	0.0008689
2025.45	0.0010807
2035.1	0.001085
2044.74	0.000998
2054.38	0.0007686
2064.03	0.000752
2073.67	0.0008263
2083.32	0.0008848
2092.96	0.000979
2102.61	0.001035
2112.25	0.0012784
2121.9	0.0012655
2131.54	0.0011634
2141.19	0.0010399
2150.83	0.0011373
2160.48	0.0009687
2170.12	0.0010776
2179.77	0.0010913
2189.41	0.0012556
2199.06	0.001544
2208.7	0.001734
2218.35	0.001714
2227.99	0.001584
2237.64	0.0013354
2247.28	0.0012061
2256.92	0.0012263
2266.57	0.001424
2276.21	0.001534
2285.86	0.001654
2295.5	0.001834
2305.15	0.001654
2314.79	0.001604
2324.44	0.001624
2334.08	0.001514
2343.73	0.001474
2353.37	0.001504
2363.02	0.001744
2372.66	0.001464
2382.31	0.001434
2391.95	0.001574
2401.6	0.001534
2411.24	0.001474
2420.89	0.0012705
2430.53	0.001024
2440.18	0.0010738
2449.82	0.001074
2459.47	0.0010145
2469.11	0.0010507
2478.75	0.0010031
2488.4	0.0009436
2498.04	0.0009825
2507.69	0.0011218
2517.33	0.0010297
2526.98	0.0009711
2536.62	0.001171
2546.27	0.00114
2555.91	0.001001
2565.56	0.0010595
2575.2	0.0011411
2584.85	0.0010626
2594.49	0.0009138
2604.14	0.0007524
2613.78	0.000849
2623.43	0.0008561
2633.07	0.0008889
2642.72	0.0009052
2652.36	0.0010241
2662.01	0.0009989
2671.65	0.0010568
2681.29	0.0011534
2690.94	0.0010027
2700.58	0.0010489
2710.23	0.0008902
2719.87	0.0008956
2729.52	0.0009474
2739.16	0.0009981
2748.81	0.000935
2758.45	0.0009593
2768.1	0.000971
2777.74	0.0009395
2787.39	0.001454
2797.03	0.001634
2806.68	0.001814
2816.32	0.002364
2825.97	0.002124
2835.61	0.001904
2845.26	0.001834
2854.9	0.001814
2864.55	0.001804
2874.19	0.002204
2883.84	0.003404
2893.48	0.005204
2903.12	0.005814
2912.77	0.005714
2922.41	0.005884
2932.06	0.007064
2941.7	0.010484
2951.35	0.015244
2960.99	0.016484
2970.64	0.012334
2980.28	0.008004
2989.93	0.006084
2999.57	0.004464
3009.22	0.003164
3018.86	0.002344
3028.51	0.002024
3038.15	0.001814
3047.8	0.001664
3057.44	0.002044
3067.09	0.002114
3076.73	0.001954
3086.38	0.001494
3096.02	0.001494
3105.67	0.0012666
3115.31	0.0010529
3124.95	0.0012266
3134.6	0.000932
3144.24	0.0010882
3153.89	0.0012421
3163.53	0.0009538
3173.18	0.000642
3182.82	0.0006296
3192.47	0.0005604
3202.11	0.000451
3211.76	0.0003093
3221.4	0.00011
3231.05	0.00036817
3240.69	0.0004163
3250.34	0.00044097
3259.98	0.0003994
3269.63	0.000242
3279.27	0.0002841
3288.92	0.0004526
3298.56	0.0003063
3308.21	0.0004365
3317.85	0.0005763
3327.49	0.00042818
3337.14	0.0004777
3346.78	0.000344546
3356.43	0.0004576
3366.07	0.0006205
3375.72	0.0003122
3385.36	0.0004565
3395.01	0.0007282
3404.65	0.0005803
3414.3	0.0006158
3423.94	0.0006778
3433.59	0.0008732
3443.23	0.0007049
3452.88	0.001053
3462.52	0.001614
3472.17	0.001624
3481.81	0.002004
3491.46	0.002644
3501.1	0.003074
3510.75	0.002564
3520.39	0.001634
3530.04	0.0009898
3539.68	0.0008635
3549.32	0.0007283
3558.97	0.0005992
3568.61	0.0007977
3578.26	0.0008869
3587.9	0.0008028
3597.55	0.0008997
3607.19	0.001634
3616.84	0.001994
3626.48	0.004984
3636.13	0.008354
3645.77	0.010894
3655.42	0.016774
3665.06	0.022634
3674.71	0.018344
3684.35	0.007874
3694	0.002664
3703.64	0.0010849
3713.29	0.0007818
3722.93	0.0006993
3732.58	0.0007213
3742.22	0.0007676
3751.86	0.0006643
3761.51	0.0008717
3771.15	0.0006712
3780.8	0.0008646
3790.44	0.0009986
3800.09	0.0006862
3809.73	0.0009099
3819.38	0.0007266
3829.02	0.0009842
3838.67	0.0011357
3848.31	0.0007167
3857.96	0.0007949
3867.6	0.0007514
3877.25	0.0008197
3886.89	0.0004815
3896.54	0.0006664
3906.18	0.00043689
3915.83	0.0004601
3925.47	0.0004978
3935.12	0.0005492
3944.76	0.0004705
3954.41	0.000594
3964.05	0.0003131
3973.69	0
3983.34	0.0005729
3992.98	0.000167
