Infrared Spectrum: 1,5-PENTANEDIONE, 3-METHYL-1,5-DIPHENYL-
Formula: C18 H18 O2
CAS: 1226-91-1
State: SOLID (OIL MULL)
Class: COBLENTZ III
Instrument: BAIRD (GRATING)
Instrument parameters: NaCl PRISM
Sampling: TRANSMISSION
Resolution: 2
Origin: WYANDOTTE CHEMICALS CORP.
1/CM	TRANSMITTANCE
4000	0.5317
3991	0.5306
3982	0.53
3973	0.5297
3964	0.5295
3955	0.5296
3946	0.5304
3937	0.5312
3928	0.5321
3919	0.5336
3910	0.5353
3901	0.5371
3892	0.5394
3883	0.5418
3874	0.5431
3865	0.544
3856	0.5439
3847	0.5434
3838	0.5432
3829	0.5434
3820	0.5467
3811	0.5505
3802	0.5547
3793	0.5586
3784	0.5606
3775	0.5616
3766	0.5617
3757	0.5619
3748	0.5621
3739	0.5622
3730	0.5624
3721	0.5625
3712	0.5627
3703	0.5629
3694	0.5631
3685	0.5637
3676	0.5643
3667	0.565
3658	0.566
3649	0.5682
3640	0.571
3631	0.5736
3622	0.5751
3613	0.5755
3604	0.5757
3595	0.5755
3586	0.5725
3577	0.5678
3568	0.5639
3559	0.5608
3550	0.5583
3541	0.5557
3532	0.5531
3523	0.5505
3514	0.5478
3505	0.5449
3496	0.5421
3487	0.5392
3478	0.5365
3469	0.5341
3460	0.5324
3451	0.5317
3442	0.5314
3433	0.5321
3424	0.5331
3415	0.5346
3406	0.5359
3397	0.5364
3388	0.5368
3379	0.5365
3370	0.5357
3361	0.5341
3352	0.5318
3343	0.5287
3334	0.5267
3325	0.5248
3316	0.5239
3307	0.5242
3298	0.5294
3289	0.5368
3280	0.5435
3271	0.5484
3262	0.5515
3253	0.5541
3244	0.556
3235	0.5571
3226	0.5567
3217	0.5544
3208	0.5525
3199	0.5507
3190	0.5496
3181	0.5487
3172	0.5484
3163	0.5485
3154	0.5492
3145	0.5499
3136	0.5502
3127	0.5498
3118	0.5489
3109	0.5414
3100	0.5173
3091	0.4902
3082	0.4629
3073	0.4354
3064	0.4198
3055	0.4243
3046	0.4279
3037	0.3982
3028	0.3457
3019	0.2929
3010	0.2398
3001	0.1864
2992	0.1326
2983	0.0786
2974	0.0337
2965	0.0294
2956	0.0289
2947	0.0294
2938	0.0298
2929	0.0306
2920	0.0321
2911	0.0362
2902	0.0423
2893	0.0485
2884	0.0507
2875	0.0529
2866	0.059
2857	0.09
2848	0.1815
2839	0.2692
2830	0.4109
2821	0.5531
2812	0.6507
2803	0.6717
2794	0.6934
2785	0.7098
2776	0.7254
2767	0.7321
2758	0.7334
2749	0.7293
2740	0.7201
2731	0.7112
2722	0.7091
2713	0.7154
2704	0.7197
2695	0.7237
2686	0.726
2677	0.7282
2668	0.7303
2659	0.7325
2650	0.7343
2641	0.7361
2632	0.7381
2623	0.7415
2614	0.746
2605	0.7506
2596	0.7553
2587	0.76
2578	0.7647
2569	0.7694
2560	0.7742
2551	0.7775
2542	0.7806
2533	0.7837
2524	0.7868
2515	0.7893
2506	0.7911
2497	0.793
2488	0.7949
2479	0.7961
2470	0.7972
2461	0.7985
2452	0.7997
2443	0.8008
2434	0.8021
2425	0.8028
2416	0.8037
2407	0.8035
2398	0.8031
2389	0.8017
2380	0.7996
2371	0.7978
2362	0.7965
2353	0.7974
2344	0.7993
2335	0.8047
2326	0.8108
2317	0.8205
2308	0.8287
2299	0.8336
2290	0.8347
2281	0.8356
2272	0.836
2263	0.8363
2254	0.8368
2245	0.8387
2236	0.8417
2227	0.8448
2218	0.8478
2209	0.8512
2200	0.8544
2191	0.8578
2182	0.8608
2173	0.8639
2164	0.8668
2155	0.8682
2146	0.8678
2137	0.8678
2128	0.8696
2119	0.8749
2110	0.8806
2101	0.8864
2092	0.8909
2083	0.8911
2074	0.8913
2065	0.8931
2056	0.8947
2047	0.8956
2038	0.8965
2029	0.8968
2020	0.897
2011	0.8956
2002	0.8914
1993	0.8832
1984	0.8708
1975	0.8627
1966	0.855
1957	0.8504
1948	0.8601
1939	0.8874
1930	0.8942
1921	0.8831
1912	0.8694
1903	0.8618
1894	0.885
1885	0.9068
1876	0.9094
1867	0.9102
1858	0.9138
1849	0.915
1840	0.9114
1831	0.8709
1822	0.8661
1813	0.8845
1804	0.8968
1795	0.9023
1786	0.8832
1777	0.8724
1768	0.9164
1759	0.9096
1750	0.8977
1741	0.8957
1732	0.8778
1723	0.8104
1714	0.7211
1705	0.609
1696	0.3308
1687	0.0891
1678	0.0412
1669	0.2756
1660	0.4142
1651	0.5789
1642	0.7001
1633	0.7058
1624	0.646
1615	0.3282
1606	0.4725
1597	0.3703
1588	0.6815
1579	0.7508
1570	0.793
1561	0.8071
1552	0.8161
1543	0.8238
1534	0.8184
1525	0.8248
1516	0.8072
1507	0.7665
1498	0.7367
1489	0.6369
1480	0.3559
1471	0.1716
1462	0.1076
1453	0.1959
1444	0.4832
1435	0.7383
1426	0.7021
1417	0.2783
1408	0.5805
1399	0.6075
1390	0.3649
1381	0.1337
1372	0.1394
1363	0.3143
1354	0.6087
1345	0.6772
1336	0.7075
1327	0.4857
1318	0.3416
1309	0.4384
1300	0.3204
1291	0.6118
1282	0.7115
1273	0.7318
1264	0.6489
1255	0.466
1246	0.1642
1237	0.3602
1228	0.1191
1219	0.1089
1210	0.4091
1201	0.5887
1192	0.4943
1183	0.2324
1174	0.5705
1165	0.6756
1156	0.7374
1147	0.7593
1138	0.8228
1129	0.8742
1120	0.8938
1111	0.8598
1102	0.8523
1093	0.8548
1084	0.6289
1075	0.7481
1066	0.8805
1057	0.8998
1048	0.9018
1039	0.8932
1030	0.7718
1021	0.8165
1012	0.4314
1003	0.2537
994	0.614
985	0.7126
976	0.8038
967	0.8425
958	0.8405
949	0.5998
940	0.6339
931	0.3482
922	0.7792
913	0.851
904	0.8459
895	0.5298
886	0.6234
877	0.8643
868	0.9141
859	0.8984
850	0.7745
841	0.8724
832	0.9137
823	0.9433
814	0.9546
805	0.931
796	0.9092
787	0.8848
778	0.9302
769	0.831
760	0.33
751	0.0588
742	0.6428
733	0.8088
724	0.8365
715	0.8821
706	0.8974
697	0.7411
688	0.2831
679	0.3266
670	0.6545
661	0.6304
652	0.7304
643	0.7015
634	0.7078
