Infrared Spectrum: Anisil
Formula: C 16 H 14 O 4
CAS: 1226-42-2
State: gas
Origin: EPA-IR VAPOR PHASE LIBRARY
1/CM	ABSORBANCE
549.9	0.002979
559.547	0.002659
569.193	0.002939
578.84	0.003709
588.486	0.008009
598.133	0.021039
607.779	0.013579
617.426	0.004379
627.072	0.003139
636.719	0.004419
646.365	0.003139
656.012	0.002089
665.658	0.002049
675.305	0.002619
684.951	0.003429
694.598	0.004789
704.245	0.003279
713.891	0.002439
723.538	0.002539
733.184	0.003629
742.831	0.006589
752.477	0.010529
762.124	0.006549
771.77	0.003919
781.417	0.004059
791.063	0.006459
800.71	0.004449
810.356	0.004299
820.003	0.004539
829.649	0.006559
839.296	0.014959
848.943	0.010559
858.589	0.006899
868.236	0.011029
877.882	0.022049
887.529	0.015279
897.175	0.006769
906.822	0.003019
916.468	0.0018578
926.115	0.0014371
935.761	0.0014197
945.408	0.0016208
955.054	0.0014815
964.701	0.001555
974.347	0.0016961
983.994	0.0018224
993.64	0.002209
1003.29	0.003079
1012.93	0.004999
1022.58	0.009639
1032.23	0.017409
1041.87	0.015289
1051.52	0.007399
1061.17	0.004379
1070.81	0.002879
1080.46	0.002419
1090.11	0.002429
1099.75	0.002859
1109.4	0.004139
1119.05	0.005129
1128.69	0.004129
1138.34	0.005599
1147.99	0.012159
1157.63	0.059229
1167.28	0.104219
1176.92	0.025879
1186.57	0.014349
1196.22	0.017769
1205.86	0.035809
1215.51	0.032499
1225.16	0.025749
1234.8	0.018139
1244.45	0.030179
1254.1	0.062929
1263.74	0.060449
1273.39	0.024399
1283.04	0.018749
1292.68	0.021419
1302.33	0.022659
1311.98	0.018079
1321.62	0.011359
1331.27	0.007199
1340.92	0.004119
1350.56	0.003339
1360.21	0.002899
1369.86	0.002519
1379.5	0.002269
1389.15	0.002299
1398.79	0.002639
1408.44	0.004789
1418.09	0.009299
1427.73	0.005819
1437.38	0.004349
1447.03	0.006999
1456.67	0.006359
1466.32	0.009419
1475.97	0.007429
1485.61	0.005639
1495.26	0.009859
1504.91	0.028469
1514.55	0.021219
1524.2	0.006759
1533.85	0.004609
1543.49	0.004449
1553.14	0.005229
1562.79	0.008699
1572.43	0.020129
1582.08	0.028159
1591.73	0.055609
1601.37	0.079939
1611.02	0.033519
1620.67	0.012799
1630.31	0.007349
1639.96	0.005949
1649.6	0.006239
1659.25	0.008289
1668.9	0.017699
1678.54	0.040069
1688.19	0.037259
1697.84	0.020159
1707.48	0.009469
1717.13	0.004319
1726.78	0.002439
1736.42	0.0016091
1746.07	0.0013765
1755.72	0.0013069
1765.36	0.001494
1775.01	0.001442
1784.66	0.0011654
1794.3	0.0011121
1803.95	0.0010847
1813.6	0.000931026
1823.24	0.000694
1832.89	0.000706
1842.54	0.000709
1852.18	0.000744
1861.83	0.000761
1871.47	0.000822
1881.12	0.0009752
1890.77	0.00096168
1900.41	0.001117
1910.06	0.0012145
1919.71	0.0008793
1929.35	0.0008483
1939	0.000801
1948.65	0.000752
1958.29	0.0008567
1967.94	0.000818
1977.59	0.000686
1987.23	0.000633
1996.88	0.000597
2006.53	0.000762
2016.17	0.00098615
2025.82	0.00099488
2035.47	0.0012168
2045.11	0.0015768
2054.76	0.001758
2064.41	0.001518
2074.05	0.0010908
2083.7	0.0008675
2093.35	0.000716
2102.99	0.000628
2112.64	0.000444
2122.28	0.000445
2131.93	0.000417
2141.58	0.00037
2151.22	0.000296
2160.87	0.00033
2170.52	0.000377
2180.16	0.000276
2189.81	0.000272
2199.46	0.000243
2209.1	0.000226
2218.75	0.000224
2228.4	0.000233
2238.04	0.000249
2247.69	0.000262
2257.34	0.000305
2266.98	0.000351
2276.63	0.000349
2286.28	0.000505
2295.92	0.000536
2305.57	0.000345
2315.22	0.000315
2324.86	0.000219
2334.51	0.000138
2344.16	0.000198
2353.8	0.000194
2363.45	0.000178
2373.09	0.000222
2382.74	0.000383
2392.39	0.000396
2402.03	0.000394
2411.68	0.000389
2421.33	0.000509
2430.97	0.000479
2440.62	0.00042
2450.27	0.000419
2459.91	0.00043
2469.56	0.000555
2479.21	0.000484
2488.85	0.000567
2498.5	0.000542
2508.15	0.000653
2517.79	0.000672
2527.44	0.000662
2537.09	0.000677
2546.73	0.00096394
2556.38	0.0012748
2566.03	0.0012932
2575.67	0.00100867
2585.32	0.000789
2594.96	0.000695
2604.61	0.000586
2614.26	0.000544
2623.9	0.000511
2633.55	0.000376
2643.2	0.000285
2652.84	0.000224
2662.49	0.000135
2672.14	6.8e-05
2681.78	3.7e-05
2691.43	8e-05
2701.08	0.000105
2710.72	0.000177
2720.37	0.000207
2730.02	0.000238
2739.66	0.000233
2749.31	0.000319
2758.96	0.000446
2768.6	0.000313
2778.25	0.000269
2787.9	0.000378
2797.54	0.00052
2807.19	0.000563
2816.84	0.00095206
2826.48	0.0014835
2836.13	0.002589
2845.77	0.006359
2855.42	0.005259
2865.07	0.002319
2874.71	0.0016679
2884.36	0.0015616
2894.01	0.001923
2903.65	0.002849
2913.3	0.004329
2922.95	0.004779
2932.59	0.004939
2942.24	0.007669
2951.89	0.008329
2961.53	0.007789
2971.18	0.006329
2980.83	0.003719
2990.47	0.003039
3000.12	0.003999
3009.77	0.007609
3019.41	0.006309
3029.06	0.002579
3038.71	0.002019
3048.35	0.0018444
3058	0.0017559
3067.64	0.002109
3077.29	0.003759
3086.94	0.002739
3096.58	0.002019
3106.23	0.0016428
3115.88	0.0011257
3125.52	0.000703
3135.17	0.000624
3144.82	0.000618
3154.46	0.000442
3164.11	0.000375
3173.76	0.000428
3183.4	0.000262
3193.05	0.000383
3202.7	0.000259
3212.34	0.000196
3221.99	0.000249
3231.64	0.000147
3241.28	0.000252
3250.93	0.000192
3260.58	0.000345
3270.22	0.000251
3279.87	0.000373
3289.52	0.000368
3299.16	0.000524
3308.81	0.000401
3318.45	0.000462
3328.1	0.000548
3337.75	0.0010316
3347.39	0.0011067
3357.04	0.000936159
3366.69	0.000675
3376.33	0.000665
3385.98	0.000595
3395.63	0.000463
3405.27	0.000516
3414.92	0.000377
3424.57	0.000532
3434.21	0.000442
3443.86	0.00037
3453.51	0.000413
3463.15	0.000692
3472.8	0.000538
3482.45	0.000612
3492.09	0.000507
3501.74	0.000697
3511.39	0.000596
3521.03	0.000589
3530.68	0.000592
3540.33	0.00051
3549.97	0.000614
3559.62	0.000622
3569.26	0.000555
3578.91	0.000711
3588.56	0.000668
3598.2	0.0006
3607.85	0.000628
3617.5	0.000555
3627.14	0.000597
3636.79	0.000618
3646.44	0.000686
3656.08	0.000631
3665.73	0.000688
3675.38	0.000569
3685.02	0.000575
3694.67	0.000564
3704.32	0.000662
3713.96	0.000652
3723.61	0.000536
3733.26	0.000678
3742.9	0.000631
3752.55	0.000613
3762.2	0.000708
3771.84	0.000604
3781.49	0.000494
3791.13	0.000619
3800.78	0.00063
3810.43	0.000696
3820.07	0.00065
3829.72	0.000636
3839.37	0.000547
3849.01	0.000629
3858.66	0.000643
3868.31	0.000504
3877.95	0.000586
3887.6	0.000669
3897.25	0.000599
3906.89	0.000659
3916.54	0.000563
3926.19	0.000619
3935.83	0.000517
3945.48	0.000508
3955.13	0.000554
3964.77	0.000536
3974.42	0.000577
3984.07	0.000701
3993.71	0.000599
