Infrared Spectrum: 4,4'-BIS(DIMETHYLAMINO)THIO BENZOPHENONE
Formula: C17 H20 N2 S
CAS: 1226-46-6
State: SOLID (MINERAL OIL MULL)
Class: COBLENTZ
Instrument: Not specified, most likely a prism, grating, or hybrid spectrometer.
Sampling: TRANSMISSION
Resolution: 4
Origin: WYANDOTTE CHEMICALS CORP., WYANDOTTE, MICHIGAN, USA
MICROMETERS	TRANSMITTANCE
2.027	0.159
2.06784	0.159
2.10868	0.161
2.14951	0.164
2.19035	0.164
2.23119	0.162
2.27203	0.173
2.31287	0.173
2.3537	0.178
2.39454	0.181
2.43538	0.191
2.47622	0.191
2.51706	0.193
2.55789	0.198
2.59873	0.203
2.63957	0.212
2.68041	0.212
2.72125	0.208
2.76208	0.219
2.80292	0.224
2.84376	0.224
2.8846	0.22
2.92544	0.217
2.96627	0.219
3.00711	0.225
3.04795	0.227
3.08879	0.227
3.12962	0.227
3.17046	0.224
3.2113	0.222
3.25214	0.212
3.29298	0.196
3.33381	0.112
3.37465	0.025
3.41549	0.028
3.45633	0.039
3.49717	0.049
3.538	0.181
3.57884	0.266
3.61968	0.29
3.66052	0.298
3.70136	0.307
3.74219	0.315
3.78303	0.315
3.82387	0.324
3.86471	0.336
3.90555	0.344
3.94638	0.353
3.98722	0.358
4.02806	0.363
4.0689	0.368
4.10974	0.37
4.15057	0.376
4.19141	0.385
4.23225	0.39
4.27309	0.393
4.31393	0.404
4.35476	0.419
4.3956	0.436
4.43644	0.438
4.47728	0.441
4.51812	0.449
4.55895	0.453
4.59979	0.456
4.64063	0.465
4.68147	0.471
4.72231	0.483
4.76314	0.497
4.80398	0.504
4.84482	0.507
4.88566	0.511
4.92649	0.517
4.96733	0.534
5.00817	0.541
5.04901	0.544
5.08985	0.553
5.13068	0.572
5.17152	0.577
5.21236	0.577
5.2532	0.59
5.29404	0.594
5.33487	0.607
5.37571	0.614
5.41655	0.629
5.45739	0.648
5.49823	0.66
5.53906	0.674
5.5799	0.684
5.62074	0.701
5.66158	0.713
5.70242	0.724
5.74325	0.745
5.78409	0.77
5.82493	0.808
5.86577	0.835
5.90661	0.86
5.94744	0.908
5.98828	0.938
6.02912	0.91
6.06996	0.966
6.1108	0.758
6.15163	0.395
6.19247	0.159
6.23331	0.095
6.27415	0.112
6.31499	0.224
6.35582	0.329
6.39666	0.412
6.4375	0.412
6.47834	0.419
6.51918	0.32
6.56001	0.4
6.60085	0.453
6.64169	0.492
6.68253	0.492
6.72336	0.395
6.7642	0.249
6.80504	0.188
6.84588	0.271
6.88672	0.271
6.92755	0.382
6.96839	0.531
7.00923	0.633
7.05007	0.663
7.09091	0.716
7.13174	0.764
7.17258	0.701
7.21342	0.387
7.25426	0.132
7.2951	0.134
7.33593	0.303
7.37677	0.438
7.41761	0.539
7.45845	0.631
7.49929	0.699
7.54012	0.528
7.58096	0.288
7.6218	0.149
7.66264	0.247
7.70348	0.371
7.74431	0.251
7.78515	0.198
7.82599	0.325
7.86683	0.405
7.90767	0.471
7.9485	0.524
7.98934	0.543
8.03018	0.463
8.07102	0.385
8.11186	0.383
8.15269	0.421
8.19353	0.567
8.23437	0.662
8.27521	0.745
8.31605	0.821
8.35688	0.645
8.39772	0.264
8.43856	0.241
8.4794	0.191
8.52024	0.13
8.56107	0.101
8.60191	0.127
8.64275	0.179
8.68359	0.224
8.72442	0.276
8.76526	0.307
8.8061	0.341
8.84694	0.353
8.88778	0.349
8.92861	0.371
8.96945	0.41
9.01029	0.424
9.05113	0.443
9.09197	0.455
9.1328	0.47
9.17364	0.475
9.21448	0.49
9.25532	0.504
9.29616	0.504
9.33699	0.504
9.37783	0.473
9.41867	0.488
9.45951	0.524
9.50035	0.543
9.54118	0.568
9.58202	0.558
9.62286	0.502
9.6637	0.4
9.70454	0.351
9.74537	0.431
9.78621	0.485
9.82705	0.526
9.86789	0.555
9.90873	0.58
9.94956	0.575
9.9904	0.592
10.0312	0.607
10.0721	0.628
10.1129	0.651
10.1538	0.67
10.1946	0.677
10.2354	0.685
10.2763	0.694
10.3171	0.702
10.3579	0.714
10.3988	0.718
10.4396	0.724
10.4805	0.735
10.5213	0.714
10.5621	0.634
10.603	0.465
10.6438	0.456
10.6846	0.56
10.7255	0.584
10.7663	0.612
10.8072	0.651
10.848	0.67
10.8888	0.685
10.9297	0.701
10.9705	0.728
11.0114	0.736
11.0522	0.748
11.093	0.755
11.1339	0.757
11.1747	0.74
11.2155	0.753
11.2564	0.767
11.2972	0.78
11.3381	0.794
11.3789	0.799
11.4197	0.816
11.4606	0.82
11.5014	0.82
11.5422	0.826
11.5831	0.831
11.6239	0.833
11.6648	0.842
11.7056	0.857
11.7464	0.865
11.7873	0.879
11.8281	0.884
11.8689	0.896
11.9098	0.918
11.9506	0.932
11.9915	0.943
12.0323	0.959
12.0731	0.96
12.114	0.95
12.1548	0.691
12.1957	0.337
12.2365	0.293
12.2773	0.449
12.3182	0.522
12.359	0.444
12.3998	0.356
12.4407	0.531
12.4815	0.629
12.5224	0.674
12.5632	0.56
12.604	0.455
12.6449	0.526
12.6857	0.602
12.7265	0.638
12.7674	0.665
12.8082	0.709
12.8491	0.73
12.8899	0.745
12.9307	0.764
12.9716	0.774
13.0124	0.775
13.0532	0.769
13.0941	0.691
13.1349	0.674
13.1758	0.73
13.2166	0.769
13.2574	0.784
13.2983	0.792
13.3391	0.799
13.38	0.804
13.4208	0.809
13.4616	0.801
13.5025	0.77
13.5433	0.728
13.5841	0.748
13.625	0.789
13.6658	0.789
13.7067	0.73
13.7475	0.677
13.7883	0.691
13.8292	0.682
13.87	0.704
13.9108	0.735
13.9517	0.777
13.9925	0.808
14.0334	0.814
14.0742	0.838
14.115	0.838
14.1559	0.852
14.1967	0.855
14.2375	0.862
14.2784	0.859
14.3192	0.864
14.3601	0.859
14.4009	0.859
14.4417	0.859
14.4826	0.853
14.5234	0.843
14.5643	0.837
14.6051	0.828
14.6459	0.818
14.6868	0.809
14.7276	0.804
14.7684	0.796
14.8093	0.792
14.8501	0.791
14.891	0.786
14.9318	0.775
14.9726	0.748
15.0135	0.707
15.0543	0.651
15.0951	0.68
15.136	0.723
15.1768	0.73
15.2177	0.713
15.2585	0.689
15.2993	0.682
15.3402	0.662
15.381	0.638
15.4218	0.617
15.4627	0.592
15.5035	0.56
15.5444	0.538
15.5852	0.522
15.626	0.529
15.6669	0.529
15.7077	0.519
15.7486	0.495
15.7894	0.475
15.8302	0.471
15.8711	0.458
15.9119	0.449
15.9527	0.434
15.9936	0.415
