Infrared Spectrum: 3-HYDROXYESTRA-1,3,5(10)-TRIENE-16,17-DIONE
Formula: C18 H20 O3
CAS: 1228-73-5
State: SOLID (KBr DISC)
Class: COBLENTZ III
Instrument: BECKMAN IR-7
Sampling: TRANSMISSION
Resolution: 4
Origin: THE WORCESTER FOUNDATION FOR EXPERIMENTAL BIOLOGY, Neal L. McNiven
1/CM	TRANSMITTANCE
598.54	0.668
607.299	0.698
616.058	0.5931
624.817	0.57
633.576	0.595
642.336	0.596
651.095	0.525
659.854	0.612
668.613	0.719
677.372	0.759
686.131	0.805
694.89	0.832
703.649	0.693
712.409	0.832
721.168	0.876
729.927	0.867
738.686	0.868
747.445	0.909
756.204	0.918
764.963	0.92
773.722	0.918
782.482	0.891
791.241	0.5571
800	0.858
808.759	0.7981
817.518	0.784
826.277	0.485
835.036	0.7919
843.795	0.7931
852.555	0.8289
861.314	0.812
870.073	0.492
878.832	0.727
887.591	0.8079
896.35	0.843
905.109	0.529
913.868	0.786
922.628	0.7791
931.387	0.77
940.146	0.6979
948.905	0.809
957.664	0.788
966.423	0.7101
975.182	0.632
983.941	0.5541
992.701	0.544
1001.46	0.697
1010.22	0.632
1018.98	0.664
1027.74	0.613
1036.5	0.526
1045.26	0.448
1054.01	0.58
1062.77	0.645
1071.53	0.557
1080.29	0.627
1089.05	0.637
1097.81	0.58
1106.57	0.564
1115.33	0.596
1124.09	0.611
1132.85	0.558
1141.61	0.631
1150.36	0.4932
1159.12	0.403
1167.88	0.488
1176.64	0.6
1185.4	0.617
1194.16	0.62
1202.92	0.563
1211.68	0.536
1220.44	0.47
1229.2	0.342
1237.96	0.238
1246.72	0.2121
1255.47	0.327
1264.23	0.529
1272.99	0.565
1281.75	0.3143
1290.51	0.2319
1299.27	0.64
1308.03	0.676
1316.79	0.604
1325.55	0.682
1334.31	0.652
1343.07	0.348
1351.82	0.366
1360.58	0.521
1369.34	0.652
1378.1	0.5781
1386.86	0.599
1395.62	0.663
1404.38	0.572
1413.14	0.588
1421.9	0.692
1430.66	0.567
1439.42	0.448
1448.17	0.466
1456.93	0.411
1465.69	0.4469
1474.45	0.645
1483.21	0.659
1491.97	0.314
1500.73	0.23
1509.49	0.4238
1518.25	0.711
1527.01	0.79
1535.77	0.803
1544.53	0.801
1553.28	0.788
1562.04	0.769
1570.8	0.668
1579.56	0.387
1588.32	0.6248
1597.08	0.739
1605.84	0.66
1614.6	0.48
1623.36	0.4719
1632.12	0.704
1640.88	0.745
1649.63	0.753
1658.39	0.749
1667.15	0.729
1675.91	0.673
1684.67	0.594
1693.43	0.671
1702.19	0.66
1710.95	0.574
1719.71	0.576
1728.47	0.461
1737.23	0.135
1745.99	0.035
1754.74	0.078
1763.5	0.2409
1772.26	0.5858
1781.02	0.717
1789.78	0.761
1798.54	0.798
1807.3	0.806
1816.06	0.825
1824.82	0.832
1833.58	0.83
1842.34	0.834
1851.09	0.832
1859.85	0.824
1868.61	0.812
1877.37	0.816
1886.13	0.83
1894.89	0.838
1903.65	0.839
1912.41	0.838
1921.17	0.838
1929.93	0.835
1938.69	0.832
1947.44	0.83
1956.2	0.828
1964.96	0.827
1973.72	0.827
1982.48	0.824
1991.24	0.824
2000	0.822
2008.76	0.822
2017.52	0.822
2026.28	0.822
2035.04	0.822
2043.8	0.822
2052.55	0.822
2061.31	0.8217
2070.07	0.8217
2078.83	0.8197
2087.59	0.819
2096.35	0.819
2105.11	0.819
2113.87	0.819
2122.63	0.819
2131.39	0.819
2140.15	0.819
2148.9	0.8184
2157.66	0.816
2166.42	0.815
2175.18	0.8132
2183.94	0.8112
2192.7	0.811
2201.46	0.8091
2210.22	0.8011
2218.98	0.7972
2227.74	0.795
2236.5	0.793
2245.26	0.793
2254.01	0.792
2262.77	0.79
2271.53	0.7898
2280.29	0.788
2289.05	0.787
2297.81	0.786
2306.57	0.7847
2315.33	0.783
2324.09	0.782
2332.85	0.7824
2341.61	0.784
2350.36	0.785
2359.12	0.7844
2367.88	0.783
2376.64	0.782
2385.4	0.7793
2394.16	0.7719
2402.92	0.7607
2411.68	0.7514
2420.44	0.7455
2429.2	0.743
2437.96	0.742
2446.71	0.7361
2455.47	0.73
2464.23	0.726
2472.99	0.7199
2481.75	0.718
2490.51	0.721
2499.27	0.725
2508.03	0.726
2516.79	0.726
2525.55	0.7247
2534.31	0.721
2543.07	0.7194
2551.82	0.719
2560.58	0.7171
2569.34	0.7155
2578.1	0.7135
2586.86	0.713
2595.62	0.7124
2604.38	0.712
2613.14	0.711
2621.9	0.71
2630.66	0.71
2639.42	0.7084
2648.17	0.7072
2656.93	0.705
2665.69	0.6991
2674.45	0.6941
2683.21	0.689
2691.97	0.688
2700.73	0.6881
2709.49	0.689
2718.25	0.689
2727.01	0.687
2735.77	0.684
2744.53	0.681
2753.28	0.6797
2762.04	0.6777
2770.8	0.676
2779.56	0.6718
2788.32	0.6667
2797.08	0.6581
2805.84	0.6439
2814.6	0.6262
2823.36	0.6052
2832.12	0.5773
2840.88	0.513
2849.63	0.4375
2858.39	0.3781
2867.15	0.3214
2875.91	0.3403
2884.67	0.3746
2893.43	0.3705
2902.19	0.3336
2910.95	0.2457
2919.71	0.216
2928.47	0.2304
2937.23	0.2516
2945.99	0.274
2954.74	0.3061
2963.5	0.4089
2972.26	0.4661
2981.02	0.513
2989.78	0.5193
2998.54	0.5424
3007.3	0.5918
3016.06	0.6134
3024.82	0.583
3033.58	0.5251
3042.34	0.5812
3051.09	0.6086
3059.85	0.6123
3068.61	0.624
3077.37	0.6321
3086.13	0.633
3094.89	0.6322
3103.65	0.6284
3112.41	0.6204
3121.17	0.6142
3129.93	0.6111
3138.69	0.6041
3147.44	0.603
3156.2	0.6019
3164.96	0.5958
3173.72	0.591
3182.48	0.5887
3191.24	0.5796
3200	0.5713
3208.76	0.5634
3217.52	0.5587
3226.28	0.554
3235.04	0.5508
3243.8	0.5378
3252.55	0.5311
3261.31	0.5235
3270.07	0.5138
3278.83	0.5008
3287.59	0.4778
3296.35	0.4613
3305.11	0.4415
3313.87	0.4263
3322.63	0.3988
3331.39	0.3807
3340.15	0.3494
3348.9	0.3193
3357.66	0.2867
3366.42	0.2464
3375.18	0.201
3383.94	0.1809
3392.7	0.1378
3401.46	0.0866
3410.22	0.0845
3418.98	0.0956
3427.74	0.1169
3436.5	0.1378
3445.26	0.1778
3454.01	0.1981
3462.77	0.2158
3471.53	0.2453
3480.29	0.2865
3489.05	0.3341
3497.81	0.3675
3506.57	0.3969
3515.33	0.4254
3524.09	0.4552
3532.85	0.4933
3541.61	0.5348
3550.36	0.5695
3559.12	0.5967
3567.88	0.6066
3576.64	0.6187
3585.4	0.6275
3594.16	0.6458
3602.92	0.657
3611.68	0.658
3620.44	0.6591
3629.2	0.6654
3637.96	0.671
3646.71	0.671
3655.47	0.6722
3664.23	0.6768
3672.99	0.6826
3681.75	0.6844
3690.51	0.686
3699.27	0.686
3708.03	0.685
3716.79	0.683
3725.55	0.6795
3734.31	0.679
3743.07	0.6806
3751.82	0.684
3760.58	0.6826
3769.34	0.6775
3778.1	0.6699
3786.86	0.6672
3795.62	0.6679
3804.38	0.67
3813.14	0.67
3821.9	0.669
3830.66	0.668
3839.42	0.6669
3848.17	0.661
3856.93	0.66
3865.69	0.6602
3874.45	0.6608
3883.21	0.659
3891.97	0.658
3900.73	0.6567
3909.49	0.6526
3918.25	0.6496
3927.01	0.649
3935.77	0.649
3944.53	0.6475
3953.28	0.6465
3962.04	0.6444
3970.8	0.6414
3979.56	0.6383
3988.32	0.6363
