Infrared Spectrum: Benzanilide, 2-(N-methyl-chloroacetamido)-,
Formula: C16 H15 Cl N2 O2
CAS: 1229-34-1
State: SOLUTION 3% (CHCl3 FOR 2.5-12.5 microns)
Class: COBLENTZ
Instrument: PERKIN-ELMER 21 (GRATING)
Instrument parameters: FILTER AT ABOUT 10 MICRONS
Path length: 0.03 CM
Resolution: 2
Origin: ABBOTT LABORATORIES
1/CM	TRANSMITTANCE
796	0.8163
805	0.8077
814	0.8027
823	0.7944
832	0.8044
841	0.8282
850	0.8334
859	0.8217
868	0.7935
877	0.7372
886	0.6653
895	0.7096
904	0.7133
913	0.7495
922	0.8004
931	0.8149
940	0.8132
949	0.7981
958	0.8106
967	0.8201
976	0.8128
985	0.8175
994	0.8149
1003	0.8173
1012	0.8075
1021	0.7694
1030	0.7618
1039	0.7621
1048	0.7083
1057	0.7633
1066	0.6241
1075	0.5723
1084	0.5431
1093	0.6707
1102	0.5746
1111	0.5579
1120	0.4872
1129	0.5266
1138	0.7003
1147	0.7273
1156	0.7081
1165	0.6882
1174	0.6926
1183	0.634
1192	0.5695
1201	0.5193
1210	0.4762
1219	0.4429
1228	0.4117
1237	0.3834
1246	0.4142
1255	0.5259
1264	0.5728
1273	0.5779
1282	0.5532
1291	0.4869
1300	0.3691
1309	0.1968
1318	0.1863
1327	0.4976
1336	0.6224
1345	0.6042
1354	0.5652
1363	0.4614
1372	0.3252
1381	0.3191
1390	0.4658
1399	0.5694
1408	0.5022
1417	0.3432
1426	0.1863
1435	0.156
1444	0.2567
1453	0.5116
1462	0.4973
1471	0.346
1480	0.1966
1489	0.1805
1498	0.2039
1507	0.199
1516	0.2026
1525	0.2229
1534	0.2854
1543	0.4579
1552	0.6365
1561	0.6381
1570	0.5688
1579	0.5515
1588	0.311
1597	0.1133
1606	0.4492
1615	0.5231
1624	0.4625
1633	0.3097
1642	0.1594
1651	0.0645
1660	0.0304
1669	0.0309
1678	0.0378
1687	0.0752
1696	0.3284
1705	0.5768
1714	0.6486
1723	0.7115
1732	0.7585
1741	0.7902
1750	0.8087
1759	0.8215
1768	0.8295
1777	0.8343
1786	0.8393
1795	0.8517
1804	0.8552
1813	0.8527
1822	0.8476
1831	0.8558
1840	0.8609
1849	0.8618
1858	0.8636
1867	0.8722
1876	0.8769
1885	0.8766
1894	0.8756
1903	0.8745
1912	0.8739
1921	0.8583
1930	0.8441
1939	0.8561
1948	0.8665
1957	0.8747
1966	0.8826
1975	0.8897
1984	0.8944
1993	0.8958
2002	0.896
2011	0.8957
2020	0.8948
2029	0.8936
2038	0.8928
2047	0.8926
2056	0.8967
2065	0.8996
2074	0.8993
2083	0.8989
2092	0.8986
2101	0.8982
2110	0.8979
2119	0.8976
2128	0.8979
2137	0.8982
2146	0.8984
2155	0.8986
2164	0.8963
2173	0.8932
2182	0.8899
2191	0.8879
2200	0.887
2209	0.8881
2218	0.8907
2227	0.8943
2236	0.8964
2245	0.8946
2254	0.8914
2263	0.8882
2272	0.8847
2281	0.8811
2290	0.8778
2299	0.8751
2308	0.8748
2317	0.8775
2326	0.878
2335	0.8777
2344	0.8768
2353	0.8755
2362	0.874
2371	0.8666
2380	0.8558
2389	0.8531
2398	0.8544
2407	0.857
2416	0.8599
2425	0.8623
2434	0.8645
2443	0.8671
2452	0.8704
2461	0.8737
2470	0.8771
2479	0.8806
2488	0.8837
2497	0.8866
2506	0.8894
2515	0.8913
2524	0.8933
2533	0.8947
2542	0.8957
2551	0.8966
2560	0.8976
2569	0.8975
2578	0.8974
2587	0.8973
2596	0.8965
2605	0.8954
2614	0.8944
2623	0.8933
2632	0.8923
2641	0.8913
2650	0.8904
2659	0.8893
2668	0.8884
2677	0.8869
2686	0.8852
2695	0.8836
2704	0.8829
2713	0.8825
2722	0.8821
2731	0.883
2740	0.8834
2749	0.8831
2758	0.8829
2767	0.8804
2776	0.8763
2785	0.8721
2794	0.8675
2803	0.8628
2812	0.8575
2821	0.8539
2830	0.8513
2839	0.8434
2848	0.8357
2857	0.828
2866	0.8196
2875	0.8094
2884	0.7958
2893	0.7787
2902	0.7657
2911	0.7575
2920	0.748
2929	0.7334
2938	0.7218
2947	0.7109
2956	0.6983
2965	0.6909
2974	0.6903
2983	0.6968
2992	0.719
3001	0.7413
3010	0.7567
3019	0.7614
3028	0.763
3037	0.7649
3046	0.7683
3055	0.7749
3064	0.7871
3073	0.803
3082	0.8184
3091	0.8302
3100	0.8364
3109	0.8411
3118	0.8439
3127	0.8461
3136	0.8468
3145	0.8463
3154	0.8414
3163	0.8343
3172	0.8307
3181	0.8289
3190	0.8281
3199	0.8276
3208	0.8249
3217	0.8192
3226	0.8062
3235	0.7874
3244	0.7687
3253	0.7501
3262	0.7316
3271	0.7133
3280	0.702
3289	0.7057
3298	0.7196
3307	0.7337
3316	0.7479
3325	0.7603
3334	0.7597
3343	0.7459
3352	0.7262
3361	0.7065
3370	0.687
3379	0.6676
3388	0.6369
3397	0.6359
3406	0.6625
3415	0.726
3424	0.7892
3433	0.8521
3442	0.8856
3451	0.8917
3460	0.8957
3469	0.8991
3478	0.9018
3487	0.9035
3496	0.9044
3505	0.9047
3514	0.9048
3523	0.9048
3532	0.9048
3541	0.9046
3550	0.9039
3559	0.9034
3568	0.9028
3577	0.9017
3586	0.9002
3595	0.8988
3604	0.8972
3613	0.8958
3622	0.8958
3631	0.8963
3640	0.8974
3649	0.8985
3658	0.9
3667	0.9017
3676	0.9031
3685	0.9042
3694	0.9052
3703	0.9063
3712	0.9073
3721	0.9082
3730	0.9091
3739	0.9099
3748	0.9101
3757	0.91
3766	0.9099
3775	0.9098
3784	0.9088
3793	0.9078
3802	0.9067
3811	0.9057
3820	0.9047
3829	0.9038
3838	0.9029
3847	0.902
3856	0.9011
3865	0.9001
3874	0.8992
3883	0.8982
3892	0.8973
3901	0.8963
3910	0.8953
3919	0.8943
3928	0.8931
3937	0.8919
3946	0.8906
3955	0.8894
3964	0.8882
3973	0.887
3982	0.8858
3991	0.8846
4000	0.8842
