Infrared Spectrum: 2-PROPANOL, 1-[(2-AMINOETHYL)AMINO]-
Formula: C5 H14 N2 O
CAS: 123-84-2
State: LIQUID (NEAT)
Class: COBLENTZ III
Instrument: BAIRD (GRATING)
Instrument parameters: NaCl PRISM
Sampling: TRANSMISSION
Path length: CAPILLARY
Resolution: 2
Origin: WYANDOTTE CHEMICALS CORP.
1/CM	TRANSMITTANCE
4000	0.8928
3991	0.8937
3982	0.8944
3973	0.8953
3964	0.8961
3955	0.8968
3946	0.8977
3937	0.8988
3928	0.8998
3919	0.9008
3910	0.902
3901	0.9036
3892	0.9048
3883	0.9056
3874	0.9046
3865	0.9028
3856	0.9009
3847	0.8991
3838	0.8975
3829	0.8961
3820	0.8947
3811	0.8936
3802	0.8923
3793	0.8912
3784	0.8901
3775	0.8892
3766	0.8882
3757	0.8868
3748	0.8852
3739	0.8828
3730	0.8784
3721	0.8731
3712	0.8657
3703	0.8577
3694	0.8486
3685	0.8392
3676	0.8283
3667	0.8164
3658	0.798
3649	0.7631
3640	0.745
3631	0.7351
3622	0.7228
3613	0.7099
3604	0.6956
3595	0.6758
3586	0.6557
3577	0.6212
3568	0.6036
3559	0.5873
3550	0.5708
3541	0.5543
3532	0.5377
3523	0.521
3514	0.5042
3505	0.4873
3496	0.4703
3487	0.4533
3478	0.4362
3469	0.4189
3460	0.4024
3451	0.3914
3442	0.3812
3433	0.3691
3424	0.3532
3415	0.3332
3406	0.2857
3397	0.2608
3388	0.2416
3379	0.2117
3370	0.1981
3361	0.19
3352	0.1834
3343	0.1789
3334	0.1757
3325	0.1734
3316	0.1722
3307	0.1711
3298	0.1712
3289	0.1729
3280	0.1794
3271	0.1892
3262	0.1934
3253	0.1944
3244	0.1948
3235	0.195
3226	0.1952
3217	0.1954
3208	0.1964
3199	0.1977
3190	0.2009
3181	0.2051
3172	0.211
3163	0.2182
3154	0.2284
3145	0.2384
3136	0.2484
3127	0.2615
3118	0.2745
3109	0.2905
3100	0.3067
3091	0.323
3082	0.3397
3073	0.3562
3064	0.3729
3055	0.3877
3046	0.3888
3037	0.3721
3028	0.315
3019	0.2575
3010	0.1995
3001	0.1415
2992	0.1181
2983	0.1157
2974	0.1092
2965	0.1004
2956	0.0989
2947	0.0991
2938	0.1005
2929	0.1027
2920	0.1053
2911	0.108
2902	0.1105
2893	0.113
2884	0.115
2875	0.1167
2866	0.1181
2857	0.1204
2848	0.1275
2839	0.1458
2830	0.1668
2821	0.1939
2812	0.2418
2803	0.2948
2794	0.3142
2785	0.3337
2776	0.355
2767	0.3714
2758	0.3912
2749	0.4092
2740	0.431
2731	0.4525
2722	0.4742
2713	0.496
2704	0.5181
2695	0.5392
2686	0.56
2677	0.5802
2668	0.595
2659	0.6085
2650	0.6198
2641	0.631
2632	0.6415
2623	0.6522
2614	0.6615
2605	0.6708
2596	0.6805
2587	0.6905
2578	0.7005
2569	0.7112
2560	0.7224
2551	0.7335
2542	0.7446
2533	0.7553
2524	0.7657
2515	0.7761
2506	0.7865
2497	0.7971
2488	0.8074
2479	0.8161
2470	0.8239
2461	0.8309
2452	0.836
2443	0.841
2434	0.8447
2425	0.8491
2416	0.8537
2407	0.8577
2398	0.8606
2389	0.8624
2380	0.8605
2371	0.8581
2362	0.8627
2353	0.8725
2344	0.8841
2335	0.8971
2326	0.905
2317	0.908
2308	0.9095
2299	0.9106
2290	0.9093
2281	0.9078
2272	0.9078
2263	0.9085
2254	0.912
2245	0.9158
2236	0.9198
2227	0.9201
2218	0.9205
2209	0.9218
2200	0.9235
2191	0.9252
2182	0.9268
2173	0.9285
2164	0.9304
2155	0.9321
2146	0.9344
2137	0.9367
2128	0.9382
2119	0.9396
2110	0.9406
2101	0.9409
2092	0.9413
2083	0.9415
2074	0.9418
2065	0.9425
2056	0.944
2047	0.9454
2038	0.9468
2029	0.9481
2020	0.949
2011	0.9493
2002	0.9486
1993	0.946
1984	0.9421
1975	0.939
1966	0.9432
1957	0.9453
1948	0.9408
1939	0.9386
1930	0.9414
1921	0.9427
1912	0.9424
1903	0.9413
1894	0.94
1885	0.9401
1876	0.9454
1867	0.9474
1858	0.9475
1849	0.9473
1840	0.9468
1831	0.9463
1822	0.9453
1813	0.9443
1804	0.9436
1795	0.9398
1786	0.9394
1777	0.9452
1768	0.9378
1759	0.9335
1750	0.931
1741	0.9227
1732	0.9168
1723	0.9097
1714	0.9028
1705	0.8883
1696	0.8891
1687	0.8761
1678	0.8616
1669	0.8511
1660	0.8273
1651	0.7571
1642	0.6921
1633	0.601
1624	0.5629
1615	0.5826
1606	0.6219
1597	0.6721
1588	0.726
1579	0.7632
1570	0.7911
1561	0.7955
1552	0.8111
1543	0.8115
1534	0.8
1525	0.7624
1516	0.7117
1507	0.6418
1498	0.5253
1489	0.4351
1480	0.344
1471	0.3191
1462	0.3858
1453	0.4434
1444	0.5188
1435	0.5736
1426	0.6269
1417	0.66
1408	0.6733
1399	0.6515
1390	0.5285
1381	0.4119
1372	0.5408
1363	0.5688
1354	0.532
1345	0.5052
1336	0.5327
1327	0.5582
1318	0.5765
1309	0.5794
1300	0.6078
1291	0.6547
1282	0.6834
1273	0.7168
1264	0.7468
1255	0.7551
1246	0.7458
1237	0.7456
1228	0.7758
1219	0.8032
1210	0.8022
1201	0.7601
1192	0.723
1183	0.7293
1174	0.7182
1165	0.5468
1156	0.3868
1147	0.3334
1138	0.2971
1129	0.2969
1120	0.3495
1111	0.4084
1102	0.4525
1093	0.4485
1084	0.4431
1075	0.4836
1066	0.4536
1057	0.4212
1048	0.4748
1039	0.5452
1030	0.5798
1021	0.5915
1012	0.5986
1003	0.5926
994	0.5631
985	0.5305
976	0.4952
967	0.4499
958	0.3834
949	0.3487
940	0.34
931	0.3389
922	0.3376
913	0.4221
904	0.475
895	0.4624
886	0.4334
877	0.4089
868	0.4107
859	0.4175
850	0.406
841	0.388
832	0.4171
823	0.4456
814	0.4499
805	0.4499
796	0.4495
787	0.4475
778	0.4576
769	0.4797
760	0.5076
751	0.5407
742	0.5712
733	0.602
724	0.6329
715	0.6615
706	0.6861
697	0.7074
688	0.7224
679	0.7293
670	0.7301
661	0.7308
652	0.7297
643	0.7081
634	0.6836
