Infrared Spectrum: AZELAOYL CHLORIDE
Formula: C9 H14 Cl2 O2
CAS: 123-98-8
State: SOLUTION (10% CCl4 FOR 3800-1330, 10% CS2 FOR 1330-450 CM^-^1) VS SOLVENT
Class: COBLENTZ III
Instrument: DOW KBr FOREPRISM-GRATING
Instrument parameters: BLAZED AT 3.5, 12.0, 20.0 MICRON AND CHANGED AT 5.0, 7.5, 14.9 MICRON
Sampling: TRANSMISSION
Path length: 0.011 CM, 0.012 CM, 0.011 CM
Resolution: 2
Origin: DOW CHEMICAL COMPANY
1/CM	TRANSMITTANCE
456	0.7665
465	0.7655
474	0.7549
483	0.7311
492	0.7041
501	0.6891
510	0.6912
519	0.7168
528	0.7218
537	0.7245
546	0.7017
555	0.596
564	0.3284
573	0.3952
582	0.436
591	0.4203
600	0.5231
609	0.6978
618	0.7658
627	0.7674
636	0.7526
645	0.726
654	0.7168
663	0.6741
672	0.4216
681	0.2234
690	0.5609
699	0.5816
708	0.3846
717	0.1821
726	0.1707
735	0.2955
744	0.5041
753	0.5849
762	0.6046
771	0.6262
780	0.6665
789	0.6688
798	0.7031
807	0.7064
816	0.6991
825	0.6791
834	0.7095
843	0.6969
852	0.6824
861	0.6184
870	0.5783
879	0.6126
888	0.6326
897	0.5745
906	0.4277
915	0.333
924	0.2659
933	0.2281
942	0.1911
951	0.1267
960	0.1595
969	0.2326
978	0.2888
987	0.2995
996	0.2979
1005	0.3309
1014	0.3709
1023	0.373
1032	0.3676
1041	0.4366
1050	0.5928
1059	0.6591
1068	0.7262
1077	0.6997
1086	0.6273
1095	0.6184
1104	0.5575
1113	0.614
1122	0.6951
1131	0.7074
1140	0.6279
1149	0.6341
1158	0.74
1167	0.7381
1176	0.7248
1185	0.7315
1194	0.7311
1203	0.7131
1212	0.7328
1221	0.7553
1230	0.7417
1239	0.7362
1248	0.7369
1257	0.7242
1266	0.7151
1275	0.6969
1284	0.7021
1293	0.7026
1302	0.7056
1311	0.7142
1320	0.7153
1329	0.7274
1338	0.6911
1347	0.6588
1356	0.673
1365	0.6853
1374	0.7139
1383	0.7388
1392	0.7039
1401	0.4199
1410	0.4731
1419	0.6481
1428	0.6656
1437	0.6675
1446	0.6027
1455	0.4901
1464	0.4362
1473	0.7562
1482	0.8248
1491	0.8421
1500	0.8544
1509	0.8651
1518	0.8747
1527	0.8828
1536	0.9031
1545	0.9141
1554	0.9007
1563	0.8833
1572	0.8752
1581	0.8724
1590	0.8699
1599	0.8562
1608	0.8491
1617	0.8424
1626	0.8363
1635	0.8301
1644	0.824
1653	0.8178
1662	0.8108
1671	0.8025
1680	0.7921
1689	0.774
1698	0.7326
1707	0.5931
1716	0.6183
1725	0.6742
1734	0.6496
1743	0.577
1752	0.4872
1761	0.4349
1770	0.2892
1779	0.1234
1788	0.0059
1797	0
1806	0.0001
1815	0.0417
1824	0.2354
1833	0.3688
1842	0.4742
1851	0.5485
1860	0.6086
1869	0.6614
1878	0.7011
1887	0.7288
1896	0.7508
1905	0.7646
1914	0.7776
1923	0.7934
1932	0.8045
1941	0.8151
1950	0.8251
1959	0.8337
1968	0.8365
1977	0.8427
1986	0.844
1995	0.8355
2004	0.8945
2013	0.8971
2022	0.8997
2031	0.9021
2040	0.904
2049	0.9053
2058	0.9059
2067	0.9064
2076	0.9066
2085	0.9068
2094	0.9068
2103	0.907
2112	0.9068
2121	0.9067
2130	0.9065
2139	0.9062
2148	0.9059
2157	0.9055
2166	0.9052
2175	0.9037
2184	0.9018
2193	0.8982
2202	0.8947
2211	0.8914
2220	0.8884
2229	0.8857
2238	0.886
2247	0.8944
2256	0.8997
2265	0.901
2274	0.8996
2283	0.8967
2292	0.8918
2301	0.8904
2310	0.9
2319	0.9036
2328	0.9024
2337	0.9002
2346	0.8985
2355	0.897
2364	0.8956
2373	0.8936
2382	0.8917
2391	0.8902
2400	0.889
2409	0.8878
2418	0.887
2427	0.8861
2436	0.8851
2445	0.8841
2454	0.8831
2463	0.882
2472	0.8805
2481	0.8788
2490	0.8771
2499	0.8756
2508	0.874
2517	0.8723
2526	0.8707
2535	0.869
2544	0.8678
2553	0.8667
2562	0.8657
2571	0.8644
2580	0.863
2589	0.8615
2598	0.8601
2607	0.8582
2616	0.8559
2625	0.8535
2634	0.8514
2643	0.8495
2652	0.8475
2661	0.8457
2670	0.8438
2679	0.8424
2688	0.8412
2697	0.8398
2706	0.8385
2715	0.8371
2724	0.8357
2733	0.8339
2742	0.8318
2751	0.83
2760	0.8266
2769	0.8218
2778	0.8148
2787	0.8069
2796	0.7984
2805	0.7884
2814	0.7758
2823	0.7545
2832	0.7171
2841	0.6547
2850	0.338
2859	0.2548
2868	0.416
2877	0.5774
2886	0.5767
2895	0.4625
2904	0.3482
2913	0.234
2922	0.1262
2931	0.0976
2940	0.1136
2949	0.2313
2958	0.3692
2967	0.5402
2976	0.6518
2985	0.703
2994	0.7545
3003	0.7725
3012	0.7833
3021	0.7862
3030	0.7888
3039	0.7919
3048	0.7949
3057	0.7976
3066	0.8006
3075	0.8034
3084	0.8061
3093	0.8087
3102	0.8107
3111	0.8125
3120	0.8144
3129	0.8165
3138	0.8189
3147	0.8206
3156	0.8224
3165	0.8244
3174	0.8268
3183	0.829
3192	0.8312
3201	0.8332
3210	0.8354
3219	0.8377
3228	0.8402
3237	0.8423
3246	0.8444
3255	0.8465
3264	0.8484
3273	0.8503
3282	0.8516
3291	0.8521
3300	0.8528
3309	0.8536
3318	0.8542
3327	0.8548
3336	0.8555
3345	0.856
3354	0.8567
3363	0.8573
3372	0.858
3381	0.8586
3390	0.8593
3399	0.8598
3408	0.8605
3417	0.861
3426	0.8616
3435	0.8621
3444	0.8625
3453	0.863
3462	0.8635
3471	0.8641
3480	0.8647
3489	0.8645
3498	0.8628
3507	0.8606
3516	0.8558
3525	0.8475
3534	0.8349
3543	0.8195
3552	0.8061
3561	0.8003
3570	0.8044
3579	0.8178
3588	0.8306
3597	0.8432
3606	0.8528
3615	0.8587
3624	0.8625
3633	0.8644
3642	0.8659
3651	0.8675
3660	0.8689
3669	0.8699
3678	0.8704
3687	0.8708
3696	0.8718
3705	0.8728
3714	0.8745
3723	0.8765
3732	0.8784
3741	0.8756
3750	0.8746
3759	0.8741
3768	0.8738
3777	0.8739
3786	0.8738
3795	0.8735
