Infrared Spectrum: 2-(2-HYDROXYETHOXY) ACETAMIDE
Formula: C4 H9 N O3
CAS: 123-85-3
State: SOLID (NUJOL MULL)
Class: COBLENTZ
Instrument: Not specified, most likely a prism, grating, or hybrid spectrometer.
Sampling: TRANSMISSION
Resolution: 4
Origin: TENNESSEE EASTMAN COMPANY, RESEARCH LABORATORIES
MICROMETERS	TRANSMITTANCE
2.071	0.799
2.10841	0.813
2.14581	0.819
2.18322	0.823
2.22063	0.82
2.25804	0.802
2.29544	0.785
2.33285	0.788
2.37026	0.797
2.40767	0.808
2.44507	0.814
2.48248	0.816
2.51989	0.842
2.5573	0.85
2.5947	0.859
2.63211	0.866
2.66952	0.875
2.70693	0.878
2.74433	0.881
2.78174	0.852
2.81915	0.774
2.85655	0.492
2.89396	0.302
2.93137	0.657
2.96878	0.345
3.00618	0.244
3.04359	0.428
3.081	0.445
3.11841	0.409
3.15581	0.267
3.19322	0.322
3.23063	0.404
3.26804	0.442
3.30544	0.45
3.34285	0.238
3.38026	0.059
3.41767	0.031
3.45507	0.028
3.49248	0.034
3.52989	0.328
3.56729	0.616
3.6047	0.663
3.64211	0.702
3.67952	0.707
3.71692	0.725
3.75433	0.761
3.79174	0.767
3.82915	0.78
3.86655	0.788
3.90396	0.811
3.94137	0.839
3.97878	0.856
4.01618	0.864
4.05359	0.876
4.091	0.873
4.12841	0.88
4.16581	0.881
4.20322	0.897
4.24063	0.92
4.27803	0.92
4.31544	0.917
4.35285	0.917
4.39026	0.917
4.42766	0.919
4.46507	0.926
4.50248	0.94
4.53989	0.94
4.57729	0.939
4.6147	0.939
4.65211	0.95
4.68952	0.95
4.72692	0.959
4.76433	0.968
4.80174	0.97
4.83915	0.97
4.87655	0.97
4.91396	0.967
4.95137	0.967
4.98877	0.965
5.02618	0.965
5.06359	0.961
5.101	0.957
5.1384	0.956
5.17581	0.953
5.21322	0.951
5.25063	0.945
5.28803	0.942
5.32544	0.937
5.36285	0.931
5.40026	0.919
5.43766	0.908
5.47507	0.88
5.51248	0.869
5.54989	0.844
5.58729	0.814
5.6247	0.78
5.66211	0.744
5.69951	0.713
5.73692	0.665
5.77433	0.613
5.81174	0.576
5.84914	0.507
5.88655	0.443
5.92396	0.309
5.96137	0.289
5.99877	0.257
6.03618	0.211
6.07359	0.235
6.111	0.277
6.1484	0.28
6.18581	0.288
6.22322	0.323
6.26063	0.369
6.29803	0.384
6.33544	0.422
6.37285	0.453
6.41025	0.514
6.44766	0.563
6.48507	0.616
6.52248	0.646
6.55988	0.652
6.59729	0.654
6.6347	0.658
6.67211	0.643
6.70951	0.58
6.74692	0.473
6.78433	0.238
6.82174	0.127
6.85914	0.146
6.89655	0.213
6.93396	0.255
6.97137	0.188
7.00877	0.228
7.04618	0.397
7.08359	0.456
7.12099	0.461
7.1584	0.386
7.19581	0.28
7.23322	0.199
7.27062	0.202
7.30803	0.319
7.34544	0.404
7.38285	0.451
7.42025	0.352
7.45766	0.205
7.49507	0.386
7.53248	0.489
7.56988	0.548
7.60729	0.59
7.6447	0.609
7.68211	0.63
7.71951	0.654
7.75692	0.677
7.79433	0.685
7.83173	0.671
7.86914	0.613
7.90655	0.517
7.94396	0.526
7.98136	0.546
8.01877	0.573
8.05618	0.652
8.09359	0.685
8.13099	0.584
8.1684	0.602
8.20581	0.685
8.24322	0.708
8.28062	0.732
8.31803	0.747
8.35544	0.757
8.39285	0.757
8.43025	0.75
8.46766	0.719
8.50507	0.685
8.54247	0.657
8.57988	0.619
8.61729	0.559
8.6547	0.475
8.6921	0.372
8.72951	0.257
8.76692	0.171
8.80433	0.152
8.84173	0.199
8.87914	0.314
8.91655	0.414
8.95396	0.448
8.99136	0.419
9.02877	0.333
9.06618	0.278
9.10359	0.317
9.14099	0.457
9.1784	0.562
9.21581	0.598
9.25321	0.543
9.29062	0.414
9.32803	0.283
9.36544	0.23
9.40284	0.264
9.44025	0.322
9.47766	0.35
9.51507	0.348
9.55247	0.355
9.58988	0.412
9.62729	0.481
9.6647	0.526
9.7021	0.548
9.73951	0.562
9.77692	0.595
9.81433	0.596
9.85173	0.584
9.88914	0.588
9.92655	0.615
9.96395	0.637
10.0014	0.652
10.0388	0.663
10.0762	0.674
10.1136	0.68
10.151	0.685
10.1884	0.688
10.2258	0.688
10.2632	0.691
10.3006	0.696
10.338	0.704
10.3754	0.714
10.4128	0.718
10.4503	0.724
10.4877	0.736
10.5251	0.746
10.5625	0.753
10.5999	0.758
10.6373	0.763
10.6747	0.766
10.7121	0.771
10.7495	0.774
10.7869	0.777
10.8243	0.766
10.8617	0.705
10.8991	0.616
10.9365	0.538
10.974	0.546
11.0114	0.599
11.0488	0.64
11.0862	0.68
11.1236	0.697
11.161	0.711
11.1984	0.718
11.2358	0.7
11.2732	0.591
11.3106	0.54
11.348	0.605
11.3854	0.651
11.4228	0.679
11.4602	0.68
11.4977	0.613
11.5351	0.518
11.5725	0.44
11.6099	0.489
11.6473	0.598
11.6847	0.66
11.7221	0.697
11.7595	0.713
11.7969	0.722
11.8343	0.724
11.8717	0.724
11.9091	0.721
11.9465	0.714
11.984	0.705
12.0214	0.7
12.0588	0.699
12.0962	0.7
12.1336	0.704
12.171	0.711
12.2084	0.721
12.2458	0.728
12.2832	0.735
12.3206	0.741
12.358	0.746
12.3954	0.75
12.4328	0.75
12.4702	0.753
12.5077	0.753
12.5451	0.755
12.5825	0.755
12.6199	0.755
12.6573	0.753
12.6947	0.752
12.7321	0.752
12.7695	0.75
12.8069	0.746
12.8443	0.736
12.8817	0.73
12.9191	0.722
12.9565	0.718
12.994	0.707
13.0314	0.7
13.0688	0.696
13.1062	0.69
13.1436	0.677
13.181	0.669
13.2184	0.658
13.2558	0.647
13.2932	0.633
13.3306	0.623
13.368	0.61
13.4054	0.59
13.4428	0.582
13.4802	0.556
13.5177	0.54
13.5551	0.529
13.5925	0.509
13.6299	0.492
13.6673	0.475
13.7047	0.459
13.7421	0.443
13.7795	0.429
13.8169	0.42
13.8543	0.415
13.8917	0.414
13.9291	0.412
13.9665	0.409
14.004	0.409
14.0414	0.408
14.0788	0.408
14.1162	0.408
14.1536	0.408
14.191	0.408
14.2284	0.411
14.2658	0.415
14.3032	0.422
14.3406	0.431
14.378	0.44
14.4154	0.451
14.4528	0.462
14.4902	0.475
14.5277	0.484
14.5651	0.498
14.6025	0.507
14.6399	0.517
14.6773	0.526
14.7147	0.537
14.7521	0.545
14.7895	0.549
14.8269	0.551
14.8643	0.551
14.9017	0.551
14.9391	0.556
14.9765	0.563
15.0139	0.568
15.0514	0.57
15.0888	0.573
15.1262	0.576
15.1636	0.577
15.201	0.58
15.2384	0.582
15.2758	0.587
15.3132	0.59
15.3506	0.593
15.388	0.593
15.4254	0.593
