Infrared Spectrum: 1-MONOSTEARIN
Formula: C21 H42 O4
CAS: 123-94-4
State: SOLID (NUJOL MULL)
Class: COBLENTZ III
Instrument: BAIRD (PRISM)
Instrument parameters: NaCl PRISM
Sampling: TRANSMISSION
Resolution: 2
Origin: DOW CHEMICAL COMPANY
MICROMETERS	TRANSMITTANCE
1.989	0.652
2.02806	0.649
2.06711	0.651
2.10617	0.654
2.14523	0.663
2.18428	0.671
2.22334	0.662
2.26239	0.622
2.30145	0.601
2.34051	0.605
2.37956	0.611
2.41862	0.618
2.45768	0.63
2.49673	0.661
2.53579	0.672
2.57484	0.676
2.6139	0.679
2.65296	0.693
2.69201	0.693
2.73107	0.68
2.77013	0.633
2.80918	0.551
2.84824	0.421
2.88729	0.285
2.92635	0.22
2.96541	0.174
3.00446	0.118
3.04352	0.09
3.08258	0.088
3.12163	0.103
3.16069	0.205
3.19974	0.314
3.2388	0.4
3.27786	0.438
3.31691	0.411
3.35597	0.202
3.39503	0.03
3.43408	0.03
3.47314	0.032
3.51219	0.046
3.55125	0.244
3.59031	0.451
3.62936	0.524
3.66842	0.537
3.70748	0.573
3.74653	0.584
3.78559	0.6
3.82464	0.634
3.8637	0.669
3.90276	0.7
3.94181	0.728
3.98087	0.75
4.01993	0.762
4.05898	0.774
4.09804	0.779
4.13709	0.783
4.17615	0.785
4.21521	0.767
4.25426	0.762
4.29332	0.8
4.33238	0.812
4.37143	0.82
4.41049	0.827
4.44954	0.829
4.4886	0.834
4.52766	0.831
4.56671	0.835
4.60577	0.833
4.64483	0.831
4.68388	0.839
4.72294	0.841
4.76199	0.841
4.80105	0.836
4.84011	0.846
4.87916	0.85
4.91822	0.851
4.95728	0.851
4.99633	0.864
5.03539	0.867
5.07444	0.869
5.1135	0.87
5.15256	0.869
5.19161	0.869
5.23067	0.87
5.26973	0.866
5.30878	0.872
5.34784	0.872
5.38689	0.87
5.42595	0.863
5.46501	0.852
5.50406	0.828
5.54312	0.809
5.58218	0.783
5.62123	0.75
5.66029	0.669
5.69934	0.512
5.7384	0.181
5.77746	0.042
5.81651	0.082
5.85557	0.142
5.89463	0.352
5.93368	0.61
5.97274	0.713
6.01179	0.739
6.05085	0.758
6.08991	0.775
6.12896	0.775
6.16802	0.794
6.20708	0.805
6.24613	0.816
6.28519	0.819
6.32424	0.813
6.3633	0.808
6.40236	0.801
6.44141	0.8
6.48047	0.783
6.51953	0.772
6.55858	0.751
6.59764	0.716
6.63669	0.667
6.67575	0.6
6.71481	0.429
6.75386	0.207
6.79292	0.057
6.83198	0.057
6.87103	0.104
6.91009	0.214
6.94914	0.281
6.9882	0.281
7.02726	0.235
7.06631	0.35
7.10537	0.408
7.14443	0.308
7.18348	0.239
7.22254	0.203
7.26159	0.183
7.30065	0.272
7.33971	0.352
7.37876	0.395
7.41782	0.42
7.45688	0.437
7.49593	0.417
7.53499	0.442
7.57405	0.399
7.6131	0.332
7.65216	0.358
7.69121	0.38
7.73027	0.35
7.76933	0.378
7.80838	0.409
7.84744	0.361
7.8865	0.332
7.92555	0.37
7.96461	0.352
8.00366	0.358
8.04272	0.342
8.08178	0.382
8.12083	0.403
8.15989	0.259
8.19895	0.231
8.238	0.365
8.27706	0.3
8.31611	0.141
8.35517	0.191
8.39423	0.219
8.43328	0.08
8.47234	0.088
8.5114	0.211
8.55045	0.308
8.58951	0.401
8.62856	0.451
8.66762	0.461
8.70668	0.451
8.74573	0.419
8.78479	0.4
8.82385	0.433
8.8629	0.417
8.90196	0.366
8.94101	0.372
8.98007	0.376
9.01913	0.299
9.05818	0.253
9.09724	0.285
9.1363	0.399
9.17535	0.511
9.21441	0.559
9.25346	0.538
9.29252	0.488
9.33158	0.442
9.37063	0.338
9.40969	0.213
9.44875	0.27
9.4878	0.274
9.52686	0.13
9.56591	0.17
9.60497	0.332
9.64403	0.412
9.68308	0.454
9.72214	0.5
9.7612	0.557
9.80025	0.587
9.83931	0.598
9.87836	0.607
9.91742	0.622
9.95648	0.616
9.99553	0.571
10.0346	0.462
10.0736	0.38
10.1127	0.42
10.1518	0.499
10.1908	0.571
10.2299	0.617
10.2689	0.627
10.308	0.627
10.347	0.626
10.3861	0.65
10.4252	0.693
10.4642	0.672
10.5033	0.61
10.5423	0.515
10.5814	0.399
10.6204	0.42
10.6595	0.528
10.6985	0.593
10.7376	0.607
10.7767	0.633
10.8157	0.663
10.8548	0.66
10.8938	0.635
10.9329	0.616
10.9719	0.633
11.011	0.689
11.0501	0.732
11.0891	0.756
11.1282	0.758
11.1672	0.747
11.2063	0.735
11.2453	0.73
11.2844	0.742
11.3234	0.725
11.3625	0.685
11.4016	0.655
11.4406	0.654
11.4797	0.678
11.5187	0.706
11.5578	0.73
11.5968	0.734
11.6359	0.724
11.675	0.697
11.714	0.651
11.7531	0.624
11.7921	0.64
11.8312	0.693
11.8702	0.725
11.9093	0.735
11.9483	0.738
11.9874	0.71
12.0265	0.669
12.0655	0.668
12.1046	0.725
12.1436	0.747
12.1827	0.747
12.2217	0.742
12.2608	0.73
12.2999	0.707
12.3389	0.696
12.378	0.714
12.417	0.727
12.4561	0.73
12.4951	0.728
12.5342	0.723
12.5732	0.716
12.6123	0.711
12.6514	0.701
12.6904	0.683
12.7295	0.652
12.7685	0.627
12.8076	0.615
12.8466	0.624
12.8857	0.643
12.9248	0.649
12.9638	0.643
13.0029	0.634
13.0419	0.624
13.081	0.609
13.12	0.591
13.1591	0.583
13.1981	0.582
13.2372	0.582
13.2763	0.578
13.3153	0.572
13.3544	0.561
13.3934	0.549
13.4325	0.532
13.4715	0.511
13.5106	0.484
13.5497	0.471
13.5887	0.464
13.6278	0.451
13.6668	0.436
13.7059	0.414
13.7449	0.38
13.784	0.33
13.823	0.263
13.8621	0.191
13.9012	0.152
13.9402	0.158
13.9793	0.243
14.0183	0.354
14.0574	0.431
14.0964	0.47
14.1355	0.495
14.1746	0.512
14.2136	0.529
14.2527	0.538
14.2917	0.543
14.3308	0.548
14.3698	0.549
14.4089	0.55
14.4479	0.551
14.487	0.551
14.5261	0.55
14.5651	0.549
14.6042	0.545
14.6432	0.543
14.6823	0.54
14.7213	0.54
14.7604	0.539
14.7995	0.54
14.8385	0.539
14.8776	0.534
14.9166	0.527
14.9557	0.527
14.9947	0.534
15.0338	0.534
15.0728	0.532
15.1119	0.528
15.151	0.528
15.19	0.528
15.2291	0.528
15.2681	0.528
15.3072	0.529
15.3462	0.531
15.3853	0.532
15.4244	0.532
15.4634	0.531
15.5025	0.529
15.5415	0.527
15.5806	0.526
15.6196	0.524
15.6587	0.523
15.6977	0.52
15.7368	0.515
15.7759	0.51
15.8149	0.504
15.854	0.501
