Infrared Spectrum: 1,1'-AZODIFORMAMIDE
Formula: C2 H4 N4 O2
CAS: 123-77-3
State: SOLID (PELLET)
Class: COBLENTZ
Instrument: Not specified, most likely a prism, grating, or hybrid spectrometer.
Sampling: TRANSMISSION
Resolution: 4
Origin: TENNESSEE EASTMAN COMPANY, RESEARCH LABORATORIES
MICROMETERS	TRANSMITTANCE
2.033	0.73
2.0729	0.74
2.11279	0.75
2.15269	0.755
2.19259	0.775
2.23249	0.779
2.27238	0.784
2.31228	0.794
2.35218	0.799
2.39207	0.81
2.43197	0.82
2.47187	0.825
2.51177	0.83
2.55166	0.837
2.59156	0.842
2.63146	0.843
2.67135	0.845
2.71125	0.848
2.75115	0.842
2.79105	0.81
2.83094	0.739
2.87084	0.661
2.91074	0.564
2.95063	0.38
2.99053	0.169
3.03043	0.031
3.07033	0.039
3.11022	0.059
3.15012	0.046
3.19002	0.034
3.22991	0.054
3.26981	0.179
3.30971	0.39
3.34961	0.541
3.3895	0.606
3.4294	0.669
3.4693	0.682
3.50919	0.694
3.54909	0.732
3.58899	0.782
3.62889	0.775
3.66878	0.752
3.70868	0.782
3.74858	0.803
3.78847	0.815
3.82837	0.83
3.86827	0.84
3.90817	0.85
3.94806	0.86
3.98796	0.877
4.02786	0.888
4.06775	0.895
4.10765	0.895
4.14755	0.901
4.18745	0.906
4.22734	0.915
4.26724	0.918
4.30714	0.916
4.34703	0.916
4.38693	0.923
4.42683	0.93
4.46673	0.928
4.50662	0.918
4.54652	0.931
4.58642	0.933
4.62631	0.941
4.66621	0.951
4.70611	0.955
4.74601	0.963
4.7859	0.968
4.8258	0.97
4.8657	0.968
4.90559	0.97
4.94549	0.973
4.98539	0.973
5.02529	0.981
5.06518	0.98
5.10508	0.978
5.14498	0.978
5.18487	0.98
5.22477	0.98
5.26467	0.97
5.30457	0.945
5.34446	0.93
5.38436	0.897
5.42426	0.883
5.46415	0.87
5.50405	0.823
5.54395	0.744
5.58385	0.674
5.62374	0.524
5.66364	0.204
5.70354	0.039
5.74343	0.021
5.78333	0.019
5.82323	0.029
5.86313	0.159
5.90302	0.312
5.94292	0.416
5.98282	0.524
6.02271	0.584
6.06261	0.538
6.10251	0.29
6.14241	0.192
6.1823	0.272
6.2222	0.377
6.2621	0.433
6.30199	0.478
6.34189	0.509
6.38179	0.531
6.42169	0.534
6.46158	0.513
6.50148	0.475
6.54138	0.453
6.58127	0.433
6.62117	0.408
6.66107	0.392
6.70097	0.382
6.74086	0.378
6.78076	0.38
6.82066	0.39
6.86055	0.413
6.90045	0.441
6.94035	0.465
6.98025	0.468
7.02014	0.468
7.06004	0.466
7.09994	0.47
7.13983	0.473
7.17973	0.483
7.21963	0.495
7.25953	0.483
7.29942	0.269
7.33932	0.071
7.37922	0.25
7.41911	0.425
7.45901	0.481
7.49891	0.468
7.53881	0.282
7.5787	0.543
7.6186	0.691
7.6585	0.747
7.69839	0.797
7.73829	0.823
7.77819	0.835
7.81809	0.852
7.85798	0.858
7.89788	0.86
7.93778	0.865
7.97767	0.87
8.01757	0.875
8.05747	0.882
8.09737	0.883
8.13726	0.887
8.17716	0.898
8.21706	0.901
8.25695	0.906
8.29685	0.91
8.33675	0.908
8.37665	0.911
8.41654	0.915
8.45644	0.915
8.49634	0.92
8.53623	0.92
8.57613	0.923
8.61603	0.925
8.65593	0.925
8.69582	0.928
8.73572	0.926
8.77562	0.925
8.81551	0.897
8.85541	0.779
8.89531	0.524
8.93521	0.24
8.9751	0.413
9.015	0.707
9.0549	0.818
9.09479	0.86
9.13469	0.878
9.17459	0.903
9.21449	0.911
9.25438	0.92
9.29428	0.923
9.33418	0.925
9.37407	0.925
9.41397	0.928
9.45387	0.93
9.49377	0.93
9.53366	0.93
9.57356	0.93
9.61346	0.931
9.65335	0.93
9.69325	0.928
9.73315	0.928
9.77305	0.931
9.81294	0.928
9.85284	0.928
9.89274	0.928
9.93263	0.931
9.97253	0.931
10.0124	0.933
10.0523	0.93
10.0922	0.93
10.1321	0.935
10.172	0.931
10.2119	0.928
10.2518	0.931
10.2917	0.931
10.3316	0.933
10.3715	0.931
10.4114	0.935
10.4513	0.931
10.4912	0.933
10.5311	0.935
10.571	0.935
10.6109	0.933
10.6508	0.931
10.6907	0.93
10.7306	0.931
10.7705	0.931
10.8104	0.93
10.8503	0.923
10.8902	0.92
10.9301	0.918
10.97	0.91
11.0099	0.923
11.0498	0.898
11.0897	0.887
11.1295	0.89
11.1694	0.89
11.2093	0.887
11.2492	0.878
11.2891	0.873
11.329	0.87
11.3689	0.858
11.4088	0.842
11.4487	0.813
11.4886	0.772
11.5285	0.7
11.5684	0.583
11.6083	0.413
11.6482	0.262
11.6881	0.229
11.728	0.287
11.7679	0.348
11.8078	0.362
11.8477	0.365
11.8876	0.435
11.9275	0.528
11.9674	0.612
12.0073	0.676
12.0472	0.715
12.0871	0.735
12.127	0.74
12.1669	0.74
12.2068	0.722
12.2467	0.686
12.2866	0.639
12.3265	0.564
12.3664	0.463
12.4063	0.421
12.4462	0.43
12.4861	0.485
12.5259	0.513
12.5658	0.514
12.6057	0.504
12.6456	0.463
12.6855	0.413
12.7254	0.383
12.7653	0.347
12.8052	0.32
12.8451	0.303
12.885	0.29
12.9249	0.27
12.9648	0.247
13.0047	0.222
13.0446	0.197
13.0845	0.177
13.1244	0.157
13.1643	0.144
13.2042	0.139
13.2441	0.136
13.284	0.132
13.3239	0.132
13.3638	0.136
13.4037	0.136
13.4436	0.137
13.4835	0.141
13.5234	0.149
13.5633	0.157
13.6032	0.172
13.6431	0.187
13.683	0.197
13.7229	0.21
13.7628	0.232
13.8027	0.25
13.8426	0.27
13.8825	0.289
13.9223	0.312
13.9622	0.33
14.0021	0.348
14.042	0.368
14.0819	0.388
14.1218	0.403
14.1617	0.42
14.2016	0.438
14.2415	0.453
14.2814	0.468
14.3213	0.488
14.3612	0.501
14.4011	0.513
14.441	0.531
14.4809	0.549
14.5208	0.564
14.5607	0.576
14.6006	0.589
14.6405	0.601
14.6804	0.611
14.7203	0.619
14.7602	0.629
14.8001	0.639
14.84	0.646
14.8799	0.651
14.9198	0.651
14.9597	0.642
14.9996	0.627
15.0395	0.621
15.0794	0.626
15.1193	0.637
15.1592	0.637
15.1991	0.636
15.239	0.624
15.2789	0.614
15.3187	0.601
15.3586	0.591
15.3985	0.579
15.4384	0.568
15.4783	0.559
15.5182	0.539
15.5581	0.524
15.598	0.5
15.6379	0.471
15.6778	0.44
15.7177	0.418
15.7576	0.4
15.7975	0.398
15.8374	0.4
15.8773	0.401
15.9172	0.415
15.9571	0.421
15.997	0.421
