Infrared Spectrum: Acetic acid, sulfonyldi-
Formula: C4 H6 O6 S
CAS: 123-45-5
State: SOLID (SPLIT MULL), FLUOROLUBE FOR 3800-1330 CM^-^1, NUJOL FOR 1330-450 CM^-^1
Class: COBLENTZ III
Instrument: DOW KBr FOREPRISM-GRATING
Instrument parameters: BLAZED AT 3.5, 12.0, 20.0 MICRON AND CHANGED AT 5.0, 7.5, 14.9 MICRON
Sampling: TRANSMISSION
Resolution: 2
Origin: DOW CHEMICAL COMPANY
1/CM	TRANSMITTANCE
3800	0.7405
3791	0.7442
3782	0.7484
3773	0.7525
3764	0.7564
3755	0.7601
3746	0.7642
3737	0.7681
3728	0.7721
3719	0.7751
3710	0.7784
3701	0.7808
3692	0.783
3683	0.7844
3674	0.7853
3665	0.7826
3656	0.7788
3647	0.773
3638	0.7669
3629	0.759
3620	0.7508
3611	0.7425
3602	0.7341
3593	0.7255
3584	0.7175
3575	0.7108
3566	0.7042
3557	0.6989
3548	0.6957
3539	0.6922
3530	0.6891
3521	0.6864
3512	0.6843
3503	0.6821
3494	0.6801
3485	0.6786
3476	0.6771
3467	0.6755
3458	0.6739
3449	0.6725
3440	0.6711
3431	0.6696
3422	0.6678
3413	0.6658
3404	0.6639
3395	0.6618
3386	0.6598
3377	0.6575
3368	0.6554
3359	0.6521
3350	0.6487
3341	0.644
3332	0.6393
3323	0.6348
3314	0.6302
3305	0.6219
3296	0.6136
3287	0.6035
3278	0.5932
3269	0.5758
3260	0.5597
3251	0.5439
3242	0.5276
3233	0.511
3224	0.4948
3215	0.4801
3206	0.4654
3197	0.4501
3188	0.4345
3179	0.4188
3170	0.4016
3161	0.3842
3152	0.3696
3143	0.3553
3134	0.34
3125	0.3249
3116	0.3124
3107	0.298
3098	0.2887
3089	0.2816
3080	0.2765
3071	0.271
3062	0.265
3053	0.2584
3044	0.2507
3035	0.2427
3026	0.2352
3017	0.2057
3008	0.162
2999	0.1684
2990	0.1949
2981	0.2149
2972	0.2339
2963	0.2471
2954	0.1535
2945	0.1027
2936	0.1165
2927	0.147
2918	0.1681
2909	0.1827
2900	0.1906
2891	0.1956
2882	0.2007
2873	0.2056
2864	0.2107
2855	0.2158
2846	0.2217
2837	0.2296
2828	0.2382
2819	0.2478
2810	0.2574
2801	0.2669
2792	0.2764
2783	0.2862
2774	0.2959
2765	0.3047
2756	0.3124
2747	0.3167
2738	0.3188
2729	0.3169
2720	0.3145
2711	0.3168
2702	0.3258
2693	0.3346
2684	0.3424
2675	0.339
2666	0.3324
2657	0.3287
2648	0.3282
2639	0.3318
2630	0.3414
2621	0.3574
2612	0.3646
2603	0.3545
2594	0.3403
2585	0.3459
2576	0.356
2567	0.3671
2558	0.3786
2549	0.3909
2540	0.3918
2531	0.3618
2522	0.337
2513	0.3345
2504	0.3471
2495	0.3628
2486	0.3778
2477	0.3928
2468	0.4078
2459	0.4229
2450	0.4383
2441	0.4544
2432	0.471
2423	0.4846
2414	0.497
2405	0.5058
2396	0.5109
2387	0.5136
2378	0.5136
2369	0.5139
2360	0.5167
2351	0.5272
2342	0.5378
2333	0.5473
2324	0.5565
2315	0.5655
2306	0.5742
2297	0.5828
2288	0.5916
2279	0.6002
2270	0.6094
2261	0.6186
2252	0.6278
2243	0.6375
2234	0.6489
2225	0.6601
2216	0.6715
2207	0.6811
2198	0.6903
2189	0.6996
2180	0.7088
2171	0.718
2162	0.7272
2153	0.7367
2144	0.7461
2135	0.7555
2126	0.765
2117	0.7725
2108	0.7747
2099	0.7765
2090	0.7778
2081	0.7798
2072	0.7825
2063	0.7854
2054	0.7889
2045	0.7951
2036	0.8072
2027	0.8165
2018	0.8178
2009	0.818
2000	0.8189
1991	0.8215
1982	0.8256
1973	0.83
1964	0.8389
1955	0.8431
1946	0.8445
1937	0.8494
1928	0.8575
1919	0.8633
1910	0.8623
1901	0.8607
1892	0.8616
1883	0.8633
1874	0.8636
1865	0.8621
1856	0.852
1847	0.8355
1838	0.8189
1829	0.7761
1820	0.7661
1811	0.7434
1802	0.7303
1793	0.7255
1784	0.6871
1775	0.6228
1766	0.5316
1757	0.225
1748	0.1168
1739	0.0953
1730	0.079
1721	0.062
1712	0.0494
1703	0.0413
1694	0.0413
1685	0.0642
1676	0.1166
1667	0.1869
1658	0.2681
1649	0.3334
1640	0.3809
1631	0.4356
1622	0.499
1613	0.5487
1604	0.5941
1595	0.6312
1586	0.663
1577	0.6919
1568	0.7218
1559	0.7508
1550	0.7753
1541	0.8001
1532	0.8151
1523	0.8188
1514	0.8065
1505	0.809
1496	0.8265
1487	0.8257
1478	0.8062
1469	0.8076
1460	0.7628
1451	0.7038
1442	0.5784
1433	0.3736
1424	0.2497
1415	0.1718
1406	0.1506
1397	0.2987
1388	0.3471
1379	0.1371
1370	0.3859
1361	0.4509
1352	0.4328
1343	0.1548
1334	0.1623
1325	0.2972
1316	0.2825
1307	0.12
1298	0.0825
1289	0.0811
1280	0.0695
1271	0.0466
1262	0.0583
1253	0.2509
1244	0.4091
1235	0.2209
1226	0.1107
1217	0.1234
1208	0.3507
1199	0.5079
1190	0.5377
1181	0.5443
1172	0.4475
1163	0.3526
1154	0.2787
1145	0.0917
1136	0.0868
1127	0.2052
1118	0.4947
1109	0.6105
1100	0.7686
1091	0.7951
1082	0.8118
1073	0.8167
1064	0.8082
1055	0.83
1046	0.834
1037	0.8504
1028	0.8657
1019	0.8528
1010	0.8354
1001	0.8421
992	0.8473
983	0.8413
974	0.8275
965	0.8153
956	0.8115
947	0.7946
938	0.7561
929	0.5616
920	0.2463
911	0.1463
902	0.0837
893	0.1307
884	0.2125
875	0.4671
866	0.6075
857	0.6497
848	0.6837
839	0.7556
830	0.794
821	0.8039
812	0.7355
803	0.8062
794	0.8777
785	0.9007
776	0.8908
767	0.5985
758	0.5629
749	0.8518
740	0.8983
731	0.8885
722	0.7658
713	0.6908
704	0.8638
695	0.921
686	0.8067
677	0.6365
668	0.7676
659	0.8887
650	0.9458
641	0.9737
632	0.9866
623	0.988
614	0.9414
605	0.924
596	0.7285
587	0.4788
578	0.0735
569	0.1477
560	0.6764
551	0.1844
542	0.6541
533	0.7387
524	0.7571
515	0.5773
506	0.1619
497	0.6681
488	0.7606
479	0.8078
470	0.8302
461	0.8418
