Infrared Spectrum: MORPHOLINE, 3,5-DIMETHYL-
Formula: C6 H13 N O
CAS: 123-57-9
State: LIQUID (NEAT)
Boiling point: 143-144 C
Class: COBLENTZ III
Instrument: BAIRD (PRISM)
Instrument parameters: NaCl PRISM
Sampling: TRANSMISSION
Path length: 0.003 CM
Resolution: 2
Origin: WYANDOTTE CHEMICALS CORP.
MICROMETERS	TRANSMITTANCE
1.98	0.986
2.01917	0.986
2.05834	0.985
2.09752	0.99
2.13669	0.984
2.17586	0.964
2.21503	0.943
2.2542	0.96
2.29338	0.965
2.33255	0.96
2.37172	0.955
2.41089	0.966
2.45006	0.962
2.48924	0.966
2.52841	0.977
2.56758	0.981
2.60675	0.997
2.64592	0.995
2.6851	0.998
2.72427	0.996
2.76344	0.982
2.80261	0.974
2.84178	0.96
2.88096	0.958
2.92013	0.943
2.9593	0.927
2.99847	0.888
3.03764	0.651
3.07682	0.761
3.11599	0.868
3.15516	0.887
3.19433	0.898
3.2335	0.898
3.27268	0.873
3.31185	0.735
3.35102	0.089
3.39019	0.041
3.42937	0.122
3.46854	0.093
3.50771	0.067
3.54688	0.04
3.58605	0.427
3.62523	0.556
3.6644	0.56
3.70357	0.535
3.74274	0.745
3.78191	0.8
3.82109	0.768
3.86026	0.813
3.89943	0.835
3.9386	0.9
3.97777	0.915
4.01695	0.93
4.05612	0.932
4.09529	0.935
4.13446	0.93
4.17363	0.939
4.21281	0.952
4.25198	0.962
4.29115	0.965
4.33032	0.97
4.36949	0.971
4.40867	0.969
4.44784	0.968
4.48701	0.966
4.52618	0.977
4.56535	0.98
4.60453	0.984
4.6437	0.985
4.68287	0.987
4.72204	0.992
4.76121	0.993
4.80039	0.992
4.83956	0.979
4.87873	0.976
4.9179	0.981
4.95707	0.968
4.99625	0.947
5.03542	0.968
5.07459	0.98
5.11376	0.982
5.15293	0.985
5.19211	0.985
5.23128	0.981
5.27045	0.985
5.30962	0.995
5.34879	0.988
5.38797	0.99
5.42714	0.988
5.46631	0.988
5.50548	0.988
5.54465	0.988
5.58383	0.988
5.623	0.987
5.66217	0.986
5.70134	0.977
5.74051	0.941
5.77969	0.937
5.81886	0.933
5.85803	0.908
5.8972	0.876
5.93637	0.845
5.97555	0.775
6.01472	0.817
6.05389	0.868
6.09306	0.886
6.13223	0.897
6.17141	0.9
6.21058	0.914
6.24975	0.928
6.28892	0.936
6.3281	0.936
6.36727	0.933
6.40644	0.931
6.44561	0.931
6.48478	0.931
6.52396	0.932
6.56313	0.919
6.6023	0.903
6.64147	0.867
6.68064	0.791
6.71982	0.672
6.75899	0.458
6.79816	0.263
6.83733	0.107
6.8765	0.332
6.91568	0.493
6.95485	0.506
6.99402	0.66
7.03319	0.753
7.07236	0.77
7.11154	0.765
7.15071	0.675
7.18988	0.582
7.22905	0.286
7.26822	0.136
7.3074	0.346
7.34657	0.593
7.38574	0.533
7.42491	0.338
7.46408	0.496
7.50326	0.361
7.54243	0.066
7.5816	0.106
7.62077	0.339
7.65994	0.503
7.69912	0.518
7.73829	0.631
7.77746	0.734
7.81663	0.8
7.8558	0.832
7.89498	0.852
7.93415	0.863
7.97332	0.856
8.01249	0.837
8.05166	0.81
8.09084	0.746
8.13001	0.725
8.16918	0.564
8.20835	0.457
8.24752	0.677
8.2867	0.758
8.32587	0.756
8.36504	0.716
8.40421	0.621
8.44338	0.567
8.48256	0.27
8.52173	0.145
8.5609	0.243
8.60007	0.348
8.63924	0.318
8.67842	0.449
8.71759	0.462
8.75676	0.469
8.79593	0.463
8.8351	0.362
8.87428	0.23
8.91345	0.073
8.95262	0.018
8.99179	0.018
9.03097	0.047
9.07014	0.052
9.10931	0.136
9.14848	0.2
9.18765	0.102
9.22683	0.139
9.266	0.259
9.30517	0.142
9.34434	0.036
9.38351	0.16
9.42269	0.514
9.46186	0.686
9.50103	0.75
9.5402	0.773
9.57937	0.773
9.61855	0.719
9.65772	0.682
9.69689	0.681
9.73606	0.77
9.77523	0.805
9.81441	0.823
9.85358	0.832
9.89275	0.841
9.93192	0.845
9.97109	0.845
10.0103	0.833
10.0494	0.811
10.0886	0.78
10.1278	0.735
10.167	0.628
10.2061	0.504
10.2453	0.412
10.2845	0.175
10.3236	0.077
10.3628	0.053
10.402	0.091
10.4412	0.221
10.4803	0.303
10.5195	0.435
10.5587	0.587
10.5978	0.697
10.637	0.756
10.6762	0.761
10.7154	0.77
10.7545	0.769
10.7937	0.759
10.8329	0.725
10.8721	0.666
10.9112	0.629
10.9504	0.599
10.9896	0.56
11.0287	0.571
11.0679	0.655
11.1071	0.708
11.1463	0.73
11.1854	0.732
11.2246	0.736
11.2638	0.735
11.3029	0.713
11.3421	0.671
11.3813	0.579
11.4205	0.452
11.4596	0.311
11.4988	0.231
11.538	0.202
11.5771	0.191
11.6163	0.218
11.6555	0.34
11.6947	0.553
11.7338	0.672
11.773	0.767
11.8122	0.797
11.8514	0.819
11.8905	0.825
11.9297	0.838
11.9689	0.838
12.008	0.837
12.0472	0.829
12.0864	0.808
12.1256	0.786
12.1647	0.757
12.2039	0.734
12.2431	0.696
12.2822	0.649
12.3214	0.606
12.3606	0.564
12.3998	0.528
12.4389	0.496
12.4781	0.465
12.5173	0.433
12.5564	0.397
12.5956	0.363
12.6348	0.323
12.674	0.291
12.7131	0.28
12.7523	0.265
12.7915	0.243
12.8307	0.236
12.8698	0.226
12.909	0.218
12.9482	0.21
12.9873	0.204
13.0265	0.199
13.0657	0.194
13.1049	0.189
13.144	0.187
13.1832	0.185
13.2224	0.183
13.2615	0.182
13.3007	0.186
13.3399	0.188
13.3791	0.198
13.4182	0.207
13.4574	0.227
13.4966	0.25
13.5357	0.28
13.5749	0.317
13.6141	0.354
13.6533	0.399
13.6924	0.447
13.7316	0.495
13.7708	0.536
13.81	0.577
13.8491	0.61
13.8883	0.64
13.9275	0.671
13.9666	0.694
14.0058	0.714
14.045	0.734
14.0842	0.751
14.1233	0.767
14.1625	0.778
14.2017	0.789
14.2408	0.799
14.28	0.803
14.3192	0.807
14.3584	0.811
14.3975	0.818
14.4367	0.817
14.4759	0.816
14.515	0.814
14.5542	0.812
14.5934	0.811
14.6326	0.814
14.6717	0.818
14.7109	0.824
14.7501	0.829
14.7893	0.835
14.8284	0.843
14.8676	0.844
14.9068	0.854
14.9459	0.854
14.9851	0.852
15.0243	0.843
15.0635	0.827
15.1026	0.825
15.1418	0.844
15.181	0.843
15.2201	0.841
15.2593	0.838
15.2985	0.835
15.3377	0.83
15.3768	0.829
15.416	0.83
15.4552	0.824
15.4943	0.814
15.5335	0.807
15.5727	0.806
15.6119	0.807
15.651	0.803
15.6902	0.801
15.7294	0.799
15.7686	0.792
15.8077	0.783
15.8469	0.774
15.8861	0.768
15.9252	0.763
15.9644	0.761
