Infrared Spectrum: 6-Pteridinecarboxamide, 4,7-diamino-2-phenyl-
Formula: C13 H11 N7 O
CAS: 1230-14-4
State: SOLID (KBr DISC)
Class: COBLENTZ III
Instrument: PERKIN-ELMER 21 (GRATING)
Instrument parameters: NaCl PRISM
Sampling: TRANSMISSION
Resolution: 2
Origin: SMITH, KLINE & FRENCH LABS.
1/CM	TRANSMITTANCE
658	0.7674
667	0.7413
676	0.6906
685	0.6355
694	0.7128
703	0.6031
712	0.6909
721	0.6383
730	0.4948
739	0.7669
748	0.7647
757	0.7143
766	0.6892
775	0.6964
784	0.7335
793	0.6855
802	0.7492
811	0.7828
820	0.7398
829	0.7397
838	0.796
847	0.8024
856	0.8041
865	0.7812
874	0.786
883	0.7889
892	0.7835
901	0.7739
910	0.768
919	0.7579
928	0.7341
937	0.6886
946	0.7088
955	0.7346
964	0.7237
973	0.7083
982	0.6872
991	0.6656
1000	0.6658
1009	0.6674
1018	0.6684
1027	0.6463
1036	0.6727
1045	0.6799
1054	0.6645
1063	0.6387
1072	0.5838
1081	0.6403
1090	0.659
1099	0.6512
1108	0.6398
1117	0.6226
1126	0.6036
1135	0.644
1144	0.6442
1153	0.6221
1162	0.5682
1171	0.5923
1180	0.6202
1189	0.5749
1198	0.5341
1207	0.5912
1216	0.6265
1225	0.6087
1234	0.5898
1243	0.5663
1252	0.5403
1261	0.5066
1270	0.4709
1279	0.4342
1288	0.3862
1297	0.3247
1306	0.2075
1315	0.2848
1324	0.2868
1333	0.491
1342	0.6372
1351	0.6481
1360	0.617
1369	0.5739
1378	0.4831
1387	0.3653
1396	0.4115
1405	0.3366
1414	0.2521
1423	0.4874
1432	0.4425
1441	0.4616
1450	0.5112
1459	0.5084
1468	0.472
1477	0.4829
1486	0.4623
1495	0.4341
1504	0.3868
1513	0.331
1522	0.2304
1531	0.1415
1540	0.1537
1549	0.1503
1558	0.1425
1567	0.1719
1576	0.3527
1585	0.331
1594	0.4702
1603	0.3342
1612	0.2064
1621	0.1639
1630	0.2062
1639	0.365
1648	0.3198
1657	0.4168
1666	0.3765
1675	0.1553
1684	0.397
1693	0.4912
1702	0.478
1711	0.7146
1720	0.7753
1729	0.8259
1738	0.8477
1747	0.8676
1756	0.8932
1765	0.8935
1774	0.89
1783	0.8911
1792	0.8836
1801	0.8758
1810	0.8681
1819	0.8614
1828	0.863
1837	0.868
1846	0.8633
1855	0.8577
1864	0.8502
1873	0.849
1882	0.8456
1891	0.839
1900	0.8326
1909	0.8263
1918	0.8193
1927	0.8131
1936	0.8091
1945	0.8083
1954	0.8092
1963	0.805
1972	0.7972
1981	0.7855
1990	0.782
1999	0.781
2008	0.7802
2017	0.7781
2026	0.7758
2035	0.7729
2044	0.77
2053	0.7656
2062	0.7618
2071	0.7585
2080	0.7554
2089	0.7524
2098	0.7497
2107	0.747
2116	0.7445
2125	0.7424
2134	0.7405
2143	0.7384
2152	0.7363
2161	0.7343
2170	0.7322
2179	0.7301
2188	0.7282
2197	0.7264
2206	0.7253
2215	0.7248
2224	0.7243
2233	0.7244
2242	0.7234
2251	0.7194
2260	0.7175
2269	0.7152
2278	0.7125
2287	0.7091
2296	0.7053
2305	0.7016
2314	0.6962
2323	0.6856
2332	0.6844
2341	0.6911
2350	0.6928
2359	0.6921
2368	0.6911
2377	0.6898
2386	0.6882
2395	0.6864
2404	0.6844
2413	0.6804
2422	0.6757
2431	0.6699
2440	0.6648
2449	0.6603
2458	0.6563
2467	0.6538
2476	0.653
2485	0.6534
2494	0.654
2503	0.6509
2512	0.6472
2521	0.643
2530	0.6382
2539	0.6307
2548	0.6277
2557	0.6224
2566	0.614
2575	0.606
2584	0.5995
2593	0.5991
2602	0.5977
2611	0.595
2620	0.5924
2629	0.5899
2638	0.5877
2647	0.5853
2656	0.5819
2665	0.5785
2674	0.5753
2683	0.5722
2692	0.5691
2701	0.5659
2710	0.563
2719	0.5612
2728	0.5597
2737	0.5576
2746	0.554
2755	0.5488
2764	0.5425
2773	0.5338
2782	0.5262
2791	0.52
2800	0.514
2809	0.5081
2818	0.5022
2827	0.496
2836	0.4894
2845	0.4837
2854	0.4794
2863	0.4756
2872	0.4665
2881	0.4537
2890	0.442
2899	0.4293
2908	0.4134
2917	0.4037
2926	0.396
2935	0.39
2944	0.3819
2953	0.369
2962	0.3578
2971	0.3474
2980	0.3397
2989	0.3324
2998	0.3252
3007	0.3188
3016	0.3058
3025	0.2934
3034	0.2924
3043	0.2926
3052	0.2948
3061	0.2999
3070	0.3072
3079	0.3136
3088	0.32
3097	0.3214
3106	0.3202
3115	0.3193
3124	0.32
3133	0.3227
3142	0.3285
3151	0.3387
3160	0.3604
3169	0.3638
3178	0.3664
3187	0.3687
3196	0.3704
3205	0.3707
3214	0.3693
3223	0.3649
3232	0.3603
3241	0.3572
3250	0.357
3259	0.3595
3268	0.3646
3277	0.3823
3286	0.4011
3295	0.4017
3304	0.3992
3313	0.3899
3322	0.3752
3331	0.3612
3340	0.3473
3349	0.3335
3358	0.3204
3367	0.3158
3376	0.3151
3385	0.3155
3394	0.3188
3403	0.3406
3412	0.3679
3421	0.3831
3430	0.3858
3439	0.3783
3448	0.3674
3457	0.3586
3466	0.3573
3475	0.3573
3484	0.3638
3493	0.3898
3502	0.4159
3511	0.442
3520	0.4678
3529	0.4935
3538	0.518
3547	0.5276
3556	0.5307
3565	0.5335
3574	0.5359
3583	0.5382
3592	0.5406
3601	0.5429
3610	0.5441
3619	0.5452
3628	0.5462
3637	0.5466
3646	0.5468
3655	0.5484
3664	0.5472
3673	0.547
3682	0.5467
3691	0.5465
3700	0.5463
3709	0.5457
3718	0.545
3727	0.5442
3736	0.5433
3745	0.5417
3754	0.5401
3763	0.5381
3772	0.5356
3781	0.5336
3790	0.5327
3799	0.5319
3808	0.5332
3817	0.5361
3826	0.5383
3835	0.5398
3844	0.5402
3853	0.5402
3862	0.54
3871	0.5393
3880	0.5371
3889	0.5325
3898	0.5264
3907	0.5222
3916	0.5186
3925	0.5154
3934	0.5126
3943	0.5108
3952	0.5096
3961	0.509
3970	0.5086
3979	0.5082
3988	0.5078
3997	0.5075
