Infrared Spectrum: BENZOPHENONE-4,4'-DICARBOXYLIC ACID, DIMETHYL ESTER
Formula: C17 H14 O5
CAS: 1233-73-4
State: SOLID (KBr PELLET)
Melting point: 222 C
Class: COBLENTZ
Instrument: Not specified, most likely a prism, grating, or hybrid spectrometer.
Sampling: TRANSMISSION
Resolution: 4
Origin: TENNESSEE EASTMAN COMPANY, RESEARCH LABORATORIES
MICROMETERS	TRANSMITTANCE
2.055	0.95
2.09594	0.952
2.13687	0.953
2.17781	0.959
2.21874	0.96
2.25968	0.96
2.30061	0.964
2.34155	0.964
2.38248	0.965
2.42342	0.964
2.46435	0.964
2.50529	0.967
2.54622	0.969
2.58716	0.969
2.62809	0.969
2.66903	0.97
2.70997	0.969
2.7509	0.935
2.79184	0.829
2.83277	0.755
2.87371	0.715
2.91464	0.674
2.95558	0.672
2.99651	0.742
3.03745	0.81
3.07838	0.837
3.11932	0.86
3.16025	0.883
3.20119	0.906
3.24212	0.911
3.28306	0.904
3.324	0.887
3.36493	0.882
3.40587	0.851
3.4468	0.88
3.48774	0.907
3.52867	0.912
3.56961	0.947
3.61054	0.95
3.65148	0.953
3.69241	0.957
3.73335	0.962
3.77428	0.962
3.81522	0.962
3.85615	0.962
3.89709	0.962
3.93802	0.962
3.97896	0.962
4.0199	0.964
4.06083	0.967
4.10177	0.969
4.1427	0.969
4.18364	0.97
4.22457	0.97
4.26551	0.965
4.30644	0.957
4.34738	0.959
4.38831	0.962
4.42925	0.97
4.47018	0.974
4.51112	0.972
4.55205	0.976
4.59299	0.976
4.63393	0.976
4.67486	0.974
4.7158	0.97
4.75673	0.964
4.79767	0.965
4.8386	0.965
4.87954	0.964
4.92047	0.967
4.96141	0.967
5.00234	0.969
5.04328	0.97
5.08421	0.95
5.12515	0.936
5.16608	0.955
5.20702	0.964
5.24796	0.965
5.28889	0.967
5.32983	0.97
5.37076	0.972
5.4117	0.97
5.45263	0.953
5.49357	0.957
5.5345	0.959
5.57544	0.941
5.61637	0.923
5.65731	0.907
5.69824	0.873
5.73918	0.703
5.78011	0.252
5.82105	0.107
5.86199	0.578
5.90292	0.721
5.94386	0.8
5.98479	0.767
6.02573	0.694
6.06666	0.249
6.1076	0.5
6.14853	0.73
6.18947	0.761
6.2304	0.798
6.27134	0.834
6.31227	0.839
6.35321	0.745
6.39414	0.781
6.43508	0.875
6.47601	0.885
6.51695	0.899
6.55789	0.899
6.59882	0.863
6.63976	0.701
6.68069	0.837
6.72163	0.875
6.76256	0.846
6.8035	0.781
6.84443	0.747
6.88537	0.651
6.9263	0.383
6.96724	0.621
7.00817	0.793
7.04911	0.749
7.09004	0.563
7.13098	0.571
7.17192	0.703
7.21285	0.754
7.25379	0.793
7.29472	0.831
7.33566	0.854
7.37659	0.863
7.41753	0.865
7.45846	0.846
7.4994	0.815
7.54033	0.779
7.58127	0.738
7.6222	0.636
7.66314	0.378
7.70407	0.254
7.74501	0.088
7.78595	0.034
7.82688	0.04
7.86782	0.133
7.90875	0.24
7.94969	0.346
7.99062	0.481
8.03156	0.663
8.07249	0.764
8.11343	0.81
8.15436	0.827
8.1953	0.841
8.23623	0.843
8.27717	0.843
8.3181	0.8
8.35904	0.704
8.39998	0.602
8.44091	0.691
8.48185	0.718
8.52278	0.732
8.56372	0.808
8.60465	0.819
8.64559	0.819
8.68652	0.817
8.72746	0.817
8.76839	0.819
8.80933	0.798
8.85026	0.757
8.8912	0.653
8.93213	0.431
8.97307	0.199
9.014	0.119
9.05494	0.191
9.09588	0.476
9.13681	0.674
9.17775	0.764
9.21868	0.803
9.25962	0.819
9.30055	0.829
9.34149	0.836
9.38242	0.844
9.42336	0.853
9.46429	0.861
9.50523	0.865
9.54616	0.87
9.5871	0.87
9.62803	0.87
9.66897	0.875
9.70991	0.873
9.75084	0.872
9.79178	0.822
9.83271	0.6
9.87365	0.697
9.91458	0.849
9.95552	0.875
9.99645	0.885
10.0374	0.89
10.0783	0.89
10.1193	0.878
10.1602	0.89
10.2011	0.895
10.2421	0.894
10.283	0.868
10.3239	0.856
10.3649	0.834
10.4058	0.755
10.4467	0.709
10.4877	0.788
10.5286	0.839
10.5695	0.854
10.6105	0.831
10.6514	0.715
10.6924	0.501
10.7333	0.682
10.7742	0.805
10.8152	0.854
10.8561	0.883
10.897	0.909
10.938	0.928
10.9789	0.938
11.0198	0.94
11.0608	0.94
11.1017	0.94
11.1426	0.94
11.1836	0.94
11.2245	0.938
11.2654	0.921
11.3064	0.87
11.3473	0.759
11.3883	0.658
11.4292	0.614
11.4701	0.604
11.5111	0.827
11.552	0.887
11.5929	0.914
11.6339	0.931
11.6748	0.936
11.7157	0.936
11.7567	0.93
11.7976	0.928
11.8385	0.935
11.8795	0.938
11.9204	0.936
11.9613	0.912
12.0023	0.882
12.0432	0.824
12.0842	0.747
12.1251	0.665
12.166	0.694
12.207	0.827
12.2479	0.875
12.2888	0.901
12.3298	0.919
12.3707	0.924
12.4116	0.926
12.4526	0.924
12.4935	0.877
12.5344	0.86
12.5754	0.894
12.6163	0.916
12.6572	0.923
12.6982	0.924
12.7391	0.926
12.7801	0.926
12.821	0.921
12.8619	0.892
12.9029	0.805
12.9438	0.641
12.9847	0.701
13.0257	0.851
13.0666	0.889
13.1075	0.907
13.1485	0.912
13.1894	0.914
13.2303	0.916
13.2713	0.912
13.3122	0.912
13.3531	0.912
13.3941	0.904
13.435	0.866
13.476	0.805
13.5169	0.8
13.5578	0.825
13.5988	0.827
13.6397	0.79
13.6806	0.733
13.7216	0.626
13.7625	0.455
13.8034	0.25
13.8444	0.158
13.8853	0.139
13.9262	0.322
13.9672	0.558
14.0081	0.689
14.049	0.767
14.09	0.802
14.1309	0.81
14.1719	0.812
14.2128	0.79
14.2537	0.773
14.2947	0.771
14.3356	0.784
14.3765	0.808
14.4175	0.817
14.4584	0.815
14.4993	0.808
14.5403	0.807
14.5812	0.808
14.6221	0.815
14.6631	0.819
14.704	0.819
14.745	0.817
14.7859	0.817
14.8268	0.813
14.8678	0.807
14.9087	0.798
14.9496	0.776
14.9906	0.752
15.0315	0.728
15.0724	0.718
15.1134	0.718
15.1543	0.72
15.1952	0.723
15.2362	0.723
15.2771	0.718
15.318	0.713
15.359	0.703
15.3999	0.696
15.4409	0.689
15.4818	0.68
15.5227	0.674
15.5637	0.667
15.6046	0.656
15.6455	0.653
15.6865	0.645
15.7274	0.633
15.7683	0.626
15.8093	0.619
15.8502	0.609
15.8911	0.604
15.9321	0.597
15.973	0.592
