Infrared Spectrum: AKINETON, HYDROCHLORIDE
Formula: C21 H30 Cl N O
CAS: 1235-82-1
State: SOLID (KCl DISC) VS KCl
Class: COBLENTZ III
Instrument: PERKIN-ELMER 21 (GRATING)
Instrument parameters: FILTER AT ABOUT 10 MICRONS
Sampling: TRANSMISSION
Resolution: 2
1/CM	TRANSMITTANCE
4000	0.7087
3991	0.7095
3982	0.7106
3973	0.7117
3964	0.7128
3955	0.714
3946	0.7151
3937	0.7165
3928	0.7175
3919	0.7188
3910	0.72
3901	0.7211
3892	0.7222
3883	0.7235
3874	0.7247
3865	0.7258
3856	0.7268
3847	0.7281
3838	0.7292
3829	0.7303
3820	0.7315
3811	0.7325
3802	0.7339
3793	0.7351
3784	0.7362
3775	0.7375
3766	0.7386
3757	0.7395
3748	0.7403
3739	0.7411
3730	0.7419
3721	0.7422
3712	0.7425
3703	0.7428
3694	0.7433
3685	0.7446
3676	0.746
3667	0.7474
3658	0.7489
3649	0.7505
3640	0.7521
3631	0.7536
3622	0.7551
3613	0.7567
3604	0.758
3595	0.7588
3586	0.7595
3577	0.7594
3568	0.7586
3559	0.7575
3550	0.7561
3541	0.7537
3532	0.7487
3523	0.7391
3514	0.726
3505	0.7136
3496	0.7022
3487	0.6897
3478	0.6767
3469	0.6665
3460	0.6569
3451	0.6482
3442	0.6394
3433	0.6303
3424	0.621
3415	0.6101
3406	0.5984
3397	0.5797
3388	0.5431
3379	0.4818
3370	0.4133
3361	0.3668
3352	0.367
3343	0.3999
3334	0.4462
3325	0.4873
3316	0.5052
3307	0.5196
3298	0.543
3289	0.5691
3280	0.5945
3271	0.6136
3262	0.6271
3253	0.6418
3244	0.6578
3235	0.6708
3226	0.6828
3217	0.6939
3208	0.7037
3199	0.7115
3190	0.7184
3181	0.725
3172	0.7325
3163	0.7375
3154	0.7421
3145	0.7458
3136	0.7485
3127	0.7507
3118	0.7512
3109	0.7483
3100	0.7407
3091	0.716
3082	0.6865
3073	0.6755
3064	0.6803
3055	0.6862
3046	0.6884
3037	0.6865
3028	0.6455
3019	0.601
3010	0.5562
3001	0.5112
2992	0.466
2983	0.4208
2974	0.3964
2965	0.3786
2956	0.363
2947	0.3414
2938	0.3308
2929	0.3688
2920	0.4334
2911	0.4974
2902	0.5278
2893	0.5528
2884	0.5675
2875	0.5695
2866	0.5752
2857	0.6059
2848	0.637
2839	0.6682
2830	0.69
2821	0.7014
2812	0.7068
2803	0.7084
2794	0.7084
2785	0.7044
2776	0.6962
2767	0.689
2758	0.6805
2749	0.6625
2740	0.6445
2731	0.6298
2722	0.615
2713	0.6046
2704	0.596
2695	0.5874
2686	0.5774
2677	0.565
2668	0.5174
2659	0.4318
2650	0.3454
2641	0.3025
2632	0.3012
2623	0.3206
2614	0.3654
2605	0.4104
2596	0.4558
2587	0.4796
2578	0.4658
2569	0.4549
2560	0.3732
2551	0.305
2542	0.3034
2533	0.3294
2524	0.3627
2515	0.4025
2506	0.4423
2497	0.4864
2488	0.5079
2479	0.5255
2470	0.5412
2461	0.5521
2452	0.5686
2443	0.5893
2434	0.607
2425	0.6282
2416	0.6316
2407	0.635
2398	0.6386
2389	0.6433
2380	0.6488
2371	0.6546
2362	0.6606
2353	0.6678
2344	0.6758
2335	0.6884
2326	0.7021
2317	0.7349
2308	0.7562
2299	0.7678
2290	0.7751
2281	0.7757
2272	0.7769
2263	0.7814
2254	0.7887
2245	0.7935
2236	0.7978
2227	0.8028
2218	0.8078
2209	0.8115
2200	0.815
2191	0.8186
2182	0.8217
2173	0.8247
2164	0.8278
2155	0.8302
2146	0.8324
2137	0.8348
2128	0.8362
2119	0.8375
2110	0.8384
2101	0.8391
2092	0.8386
2083	0.8391
2074	0.8412
2065	0.8435
2056	0.8456
2047	0.8475
2038	0.8495
2029	0.8516
2020	0.8537
2011	0.8558
2002	0.8581
1993	0.8596
1984	0.8608
1975	0.8616
1966	0.862
1957	0.8571
1948	0.8538
1939	0.8573
1930	0.8666
1921	0.8686
1912	0.8702
1903	0.8693
1894	0.8643
1885	0.8614
1876	0.8641
1867	0.8698
1858	0.8767
1849	0.8771
1840	0.8764
1831	0.8758
1822	0.8763
1813	0.8743
1804	0.8749
1795	0.8757
1786	0.8771
1777	0.8788
1768	0.8804
1759	0.8816
1750	0.883
1741	0.8842
1732	0.8854
1723	0.8865
1714	0.8871
1705	0.8871
1696	0.8859
1687	0.8839
1678	0.8794
1669	0.8741
1660	0.8718
1651	0.8701
1642	0.8699
1633	0.8701
1624	0.8708
1615	0.8702
1606	0.8311
1597	0.85
1588	0.8742
1579	0.8763
1570	0.8653
1561	0.8725
1552	0.8828
1543	0.8878
1534	0.8889
1525	0.8898
1516	0.8878
1507	0.8294
1498	0.7694
1489	0.8004
1480	0.7186
1471	0.5901
1462	0.6143
1453	0.5612
1444	0.4817
1435	0.6614
1426	0.741
1417	0.7839
1408	0.7848
1399	0.7069
1390	0.681
1381	0.6981
1372	0.7858
1363	0.7769
1354	0.7935
1345	0.7583
1336	0.7436
1327	0.6807
1318	0.7808
1309	0.8336
1300	0.8212
1291	0.7604
1282	0.8056
1273	0.7665
1264	0.7583
1255	0.8012
1246	0.7814
1237	0.729
1228	0.7621
1219	0.8336
1210	0.8335
1201	0.6099
1192	0.5932
1183	0.7195
1174	0.616
1165	0.7778
1156	0.7875
1147	0.7408
1138	0.7978
1129	0.8155
1120	0.8092
1111	0.83
1102	0.8042
1093	0.7962
1084	0.7003
1075	0.6786
1066	0.7282
1057	0.8144
1048	0.8535
1039	0.8541
1030	0.7708
1021	0.8187
1012	0.8364
1003	0.826
994	0.8305
985	0.7672
976	0.7934
967	0.6389
958	0.6557
949	0.7121
940	0.6806
931	0.8174
922	0.852
913	0.8602
904	0.8105
895	0.8325
886	0.9067
877	0.9082
868	0.9095
859	0.8335
850	0.8865
841	0.925
832	0.9209
823	0.941
814	0.9339
805	0.8985
796	0.9049
787	0.931
778	0.8681
769	0.8609
760	0.8402
751	0.626
742	0.613
733	0.869
724	0.8567
715	0.8325
706	0.4645
697	0.329
688	0.8309
679	0.8686
