Infrared Spectrum: 17Beta-ACETOXY-5Alpha-ANDROSTANE
Formula: C21 H34 O2
CAS: 1236-49-3
State: SOLID (KBr DISC)
Class: COBLENTZ III
Instrument: BECKMAN IR-7
Sampling: TRANSMISSION
Resolution: 4
Origin: THE WORCESTER FOUNDATION FOR EXPERIMENTAL BIOLOGY, Neal L. McNiven
1/CM	TRANSMITTANCE
599.272	0.781
608.004	0.7301
616.736	0.6869
625.467	0.841
634.199	0.902
642.931	0.925
651.663	0.873
660.395	0.92
669.127	0.891
677.858	0.862
686.59	0.929
695.322	0.941
704.054	0.943
712.786	0.95
721.517	0.955
730.249	0.952
738.981	0.946
747.713	0.917
756.445	0.949
765.176	0.95
773.908	0.949
782.64	0.946
791.372	0.934
800.104	0.872
808.836	0.902
817.567	0.908
826.299	0.772
835.031	0.813
843.763	0.817
852.495	0.8276
861.226	0.767
869.958	0.876
878.69	0.87
887.422	0.6641
896.154	0.802
904.885	0.699
913.617	0.61
922.349	0.6609
931.081	0.6311
939.813	0.695
948.545	0.716
957.276	0.566
966.008	0.692
974.74	0.632
983.472	0.399
992.204	0.569
1000.94	0.538
1009.67	0.357
1018.4	0.2731
1027.13	0.054
1035.86	0.168
1044.59	0.18
1053.33	0.31
1062.06	0.443
1070.79	0.386
1079.52	0.538
1088.25	0.466
1096.99	0.615
1105.72	0.593
1114.45	0.4562
1123.18	0.579
1131.91	0.55
1140.64	0.659
1149.38	0.69
1158.11	0.6341
1166.84	0.639
1175.57	0.61
1184.3	0.621
1193.04	0.545
1201.77	0.49
1210.5	0.372
1219.23	0.203
1227.96	0.161
1236.69	0.027
1245.43	0.015
1254.16	0.028
1262.89	0.148
1271.62	0.324
1280.35	0.483
1289.09	0.375
1297.82	0.584
1306.55	0.618
1315.28	0.638
1324.01	0.671
1332.74	0.5471
1341.48	0.593
1350.21	0.425
1358.94	0.208
1367.67	0.2321
1376.4	0.287
1385.14	0.359
1393.87	0.431
1402.6	0.569
1411.33	0.584
1420.06	0.584
1428.79	0.545
1437.53	0.401
1446.26	0.227
1454.99	0.187
1463.72	0.356
1472.45	0.373
1481.19	0.608
1489.92	0.659
1498.65	0.703
1507.38	0.729
1516.11	0.724
1524.84	0.731
1533.58	0.744
1542.31	0.751
1551.04	0.75
1559.77	0.759
1568.5	0.74
1577.24	0.738
1585.97	0.727
1594.7	0.732
1603.43	0.732
1612.16	0.731
1620.89	0.724
1629.63	0.716
1638.36	0.701
1647.09	0.683
1655.82	0.637
1664.55	0.636
1673.29	0.653
1682.02	0.664
1690.75	0.571
1699.48	0.564
1708.21	0.549
1716.94	0.417
1725.68	0.092
1734.41	0.027
1743.14	0.118
1751.87	0.235
1760.6	0.436
1769.34	0.555
1778.07	0.617
1786.8	0.637
1795.53	0.629
1804.26	0.631
1812.99	0.648
1821.73	0.65
1830.46	0.674
1839.19	0.706
1847.92	0.725
1856.65	0.728
1865.39	0.73
1874.12	0.731
1882.85	0.73
1891.58	0.727
1900.31	0.727
1909.04	0.728
1917.78	0.724
1926.51	0.719
1935.24	0.716
1943.97	0.716
1952.7	0.716
1961.43	0.718
1970.17	0.72
1978.9	0.719
1987.63	0.718
1996.36	0.716
2005.09	0.7162
2013.83	0.716
2022.56	0.715
2031.29	0.715
2040.02	0.715
2048.75	0.715
2057.48	0.715
2066.22	0.715
2074.95	0.7141
2083.68	0.714
2092.41	0.711
2101.14	0.71
2109.88	0.708
2118.61	0.708
2127.34	0.7079
2136.07	0.707
2144.8	0.707
2153.53	0.708
2162.27	0.708
2171	0.708
2179.73	0.708
2188.46	0.707
2197.19	0.7037
2205.93	0.6855
2214.66	0.6677
2223.39	0.666
2232.12	0.6646
2240.85	0.6592
2249.58	0.653
2258.32	0.65
2267.05	0.6495
2275.78	0.647
2284.51	0.637
2293.24	0.6285
2301.98	0.6281
2310.71	0.6349
2319.44	0.6432
2328.17	0.646
2336.9	0.648
2345.63	0.6493
2354.37	0.6507
2363.1	0.6517
2371.83	0.6527
2380.56	0.6505
2389.29	0.6456
2398.03	0.6316
2406.76	0.6215
2415.49	0.6113
2424.22	0.609
2432.95	0.609
2441.68	0.609
2450.42	0.608
2459.15	0.6031
2467.88	0.6
2476.61	0.597
2485.34	0.5939
2494.08	0.5869
2502.81	0.584
2511.54	0.5872
2520.27	0.592
2529	0.5928
2537.73	0.5916
2546.47	0.5878
2555.2	0.5865
2563.93	0.5827
2572.66	0.5782
2581.39	0.5734
2590.13	0.5697
2598.86	0.5657
2607.59	0.5592
2616.32	0.555
2625.05	0.5546
2633.78	0.5491
2642.52	0.5431
2651.25	0.5305
2659.98	0.5265
2668.71	0.5235
2677.44	0.5251
2686.18	0.5312
2694.91	0.5356
2703.64	0.536
2712.37	0.5317
2721.1	0.5216
2729.83	0.5207
2738.57	0.5254
2747.3	0.5277
2756.03	0.5265
2764.76	0.5188
2773.49	0.5021
2782.23	0.4895
2790.96	0.4755
2799.69	0.4485
2808.42	0.4004
2817.15	0.3597
2825.88	0.2273
2834.62	0.094
2843.35	0.057
2852.08	0.084
2860.81	0.1235
2869.54	0.14
2878.28	0.1087
2887.01	0.0771
2895.74	0.0521
2904.47	0.0356
2913.2	0.0204
2921.93	0.0162
2930.67	0.0237
2939.4	0.032
2948.13	0.0556
2956.86	0.0769
2965.59	0.081
2974.33	0.1253
2983.06	0.206
2991.79	0.2823
3000.52	0.3412
3009.25	0.3819
3017.98	0.4093
3026.72	0.426
3035.45	0.4381
3044.18	0.4486
3052.91	0.4571
3061.64	0.4632
3070.38	0.4676
3079.11	0.469
3087.84	0.4697
3096.57	0.47
3105.3	0.4707
3114.03	0.471
3122.77	0.473
3131.5	0.4758
3140.23	0.4788
3148.96	0.48
3157.69	0.4829
3166.43	0.4859
3175.16	0.4889
3183.89	0.488
3192.62	0.489
3201.35	0.488
3210.08	0.487
3218.82	0.486
3227.55	0.485
3236.28	0.4839
3245.01	0.481
3253.74	0.4809
3262.48	0.479
3271.21	0.479
3279.94	0.478
3288.67	0.478
3297.4	0.4778
3306.13	0.4745
3314.87	0.4725
3323.6	0.47
3332.33	0.468
3341.06	0.4647
3349.79	0.4616
3358.53	0.4596
3367.26	0.4566
3375.99	0.452
3384.72	0.4495
3393.45	0.4466
3402.18	0.438
3410.92	0.4325
3419.65	0.432
3428.38	0.4346
3437.11	0.4356
3445.84	0.4299
3454.58	0.415
3463.31	0.427
3472.04	0.4367
3480.77	0.4404
3489.5	0.4485
3498.23	0.4535
3506.97	0.4568
3515.7	0.4588
3524.43	0.4616
3533.16	0.4679
3541.89	0.4698
3550.63	0.4757
3559.36	0.4769
3568.09	0.478
3576.82	0.478
3585.55	0.481
3594.28	0.486
3603.02	0.4901
3611.75	0.4949
3620.48	0.4938
3629.21	0.4898
3637.94	0.486
3646.68	0.4848
3655.41	0.4838
3664.14	0.4818
3672.87	0.481
3681.6	0.4797
3690.33	0.478
3699.07	0.478
3707.8	0.4793
3716.53	0.4833
3725.26	0.4864
3733.99	0.4904
3742.73	0.4944
3751.46	0.4926
3760.19	0.4826
3768.92	0.4775
3777.65	0.472
3786.38	0.4695
3795.12	0.468
3803.85	0.47
3812.58	0.4716
3821.31	0.4736
3830.04	0.473
3838.77	0.471
3847.51	0.4653
3856.24	0.4643
3864.97	0.4623
3873.7	0.4602
3882.43	0.4572
3891.17	0.456
3899.9	0.455
3908.63	0.4531
3917.36	0.452
3926.09	0.452
3934.82	0.451
3943.56	0.448
3952.29	0.447
3961.02	0.443
3969.75	0.441
3978.48	0.44
3987.22	0.44
