Infrared Spectrum: STEARAMIDE
Formula: C18 H37 N O
CAS: 124-26-5
State: SOLID (MELT)
Class: COBLENTZ
Instrument: PERKIN-ELMER
Sampling: TRANSMISSION
Resolution: 4
Origin: HORMEL INSTITUTE
MICROMETERS	TRANSMITTANCE
2.02	0.59
2.05387	0.592
2.08775	0.595
2.12162	0.597
2.15549	0.598
2.18937	0.6
2.22324	0.593
2.25712	0.598
2.29099	0.597
2.32486	0.587
2.35874	0.592
2.39261	0.59
2.42648	0.59
2.46036	0.604
2.49423	0.617
2.5281	0.627
2.56198	0.629
2.59585	0.629
2.62973	0.631
2.6636	0.641
2.69747	0.644
2.73135	0.644
2.76522	0.646
2.79909	0.641
2.83297	0.649
2.86684	0.649
2.90071	0.614
2.93459	0.355
2.96846	0.194
3.00234	0.355
3.03621	0.419
3.07008	0.465
3.10396	0.389
3.13783	0.267
3.1717	0.367
3.20558	0.482
3.23945	0.521
3.27333	0.544
3.3072	0.551
3.34107	0.544
3.37495	0.333
3.40882	0.103
3.44269	0.059
3.47657	0.177
3.51044	0.123
3.54431	0.406
3.57819	0.5
3.61206	0.566
3.64594	0.59
3.67981	0.615
3.71368	0.642
3.74756	0.649
3.78143	0.653
3.8153	0.658
3.84918	0.673
3.88305	0.683
3.91692	0.686
3.9508	0.69
3.98467	0.692
4.01855	0.693
4.05242	0.698
4.08629	0.702
4.12017	0.7
4.15404	0.705
4.18791	0.707
4.22179	0.708
4.25566	0.697
4.28953	0.697
4.32341	0.698
4.35728	0.7
4.39116	0.703
4.42503	0.705
4.4589	0.707
4.49278	0.708
4.52665	0.71
4.56052	0.712
4.5944	0.714
4.62827	0.714
4.66214	0.714
4.69602	0.715
4.72989	0.717
4.76377	0.719
4.79764	0.72
4.83151	0.72
4.86539	0.72
4.89926	0.717
4.93313	0.715
4.96701	0.717
5.00088	0.722
5.03475	0.72
5.06863	0.722
5.1025	0.724
5.13638	0.724
5.17025	0.724
5.20412	0.724
5.238	0.722
5.27187	0.72
5.30574	0.727
5.33962	0.732
5.37349	0.732
5.40736	0.732
5.44124	0.732
5.47511	0.736
5.50899	0.736
5.54286	0.732
5.57673	0.729
5.61061	0.722
5.64448	0.715
5.67835	0.707
5.71223	0.685
5.7461	0.685
5.77998	0.688
5.81385	0.678
5.84772	0.651
5.8816	0.626
5.91547	0.561
5.94934	0.426
5.98322	0.275
6.01709	0.16
6.05096	0.104
6.08484	0.101
6.11871	0.109
6.15259	0.27
6.18646	0.443
6.22033	0.512
6.25421	0.568
6.28808	0.59
6.32195	0.61
6.35583	0.622
6.3897	0.632
6.42357	0.648
6.45745	0.656
6.49132	0.663
6.5252	0.668
6.55907	0.668
6.59294	0.671
6.62682	0.671
6.66069	0.675
6.69456	0.664
6.72844	0.609
6.76231	0.362
6.79618	0.164
6.83006	0.358
6.86393	0.49
6.89781	0.521
6.93168	0.475
6.96555	0.343
6.99943	0.192
7.0333	0.196
7.06717	0.421
7.10105	0.516
7.13492	0.575
7.16879	0.612
7.20267	0.634
7.23654	0.634
7.27042	0.607
7.30429	0.617
7.33816	0.622
7.37204	0.61
7.40591	0.626
7.43978	0.57
7.47366	0.6
7.50753	0.598
7.5414	0.531
7.57528	0.629
7.60915	0.531
7.64303	0.507
7.6769	0.602
7.71077	0.609
7.74465	0.529
7.77852	0.604
7.81239	0.614
7.84627	0.578
7.88014	0.51
7.91401	0.588
7.94789	0.6
7.98176	0.566
8.01564	0.524
8.04951	0.58
8.08338	0.588
8.11726	0.51
8.15113	0.512
8.185	0.568
8.21888	0.585
8.25275	0.524
8.28663	0.5
8.3205	0.565
8.35437	0.583
8.38825	0.536
8.42212	0.509
8.45599	0.58
8.48987	0.593
8.52374	0.6
8.55761	0.604
8.59149	0.609
8.62536	0.61
8.65924	0.61
8.69311	0.604
8.72698	0.602
8.76086	0.588
8.79473	0.553
8.8286	0.524
8.86248	0.45
8.89635	0.412
8.93022	0.448
8.9641	0.539
8.99797	0.605
9.03185	0.642
9.06572	0.661
9.09959	0.678
9.13347	0.69
9.16734	0.703
9.20121	0.712
9.23509	0.717
9.26896	0.719
9.30283	0.72
9.33671	0.722
9.37058	0.724
9.40446	0.727
9.43833	0.729
9.4722	0.734
9.50608	0.737
9.53995	0.739
9.57382	0.739
9.6077	0.742
9.64157	0.739
9.67544	0.727
9.70932	0.737
9.74319	0.739
9.77707	0.739
9.81094	0.737
9.84481	0.747
9.87869	0.751
9.91256	0.752
9.94643	0.754
9.98031	0.754
10.0142	0.754
10.0481	0.752
10.0819	0.754
10.1158	0.758
10.1497	0.758
10.1835	0.758
10.2174	0.756
10.2513	0.756
10.2852	0.756
10.319	0.756
10.3529	0.756
10.3868	0.754
10.4207	0.754
10.4545	0.751
10.4884	0.744
10.5223	0.741
10.5562	0.749
10.59	0.751
10.6239	0.749
10.6578	0.747
10.6917	0.741
10.7255	0.744
10.7594	0.742
10.7933	0.742
10.8271	0.742
10.861	0.742
10.8949	0.741
10.9288	0.741
10.9626	0.739
10.9965	0.739
11.0304	0.739
11.0643	0.737
11.0981	0.732
11.132	0.73
11.1659	0.724
11.1998	0.705
11.2336	0.69
11.2675	0.7
11.3014	0.702
11.3353	0.698
11.3691	0.67
11.403	0.661
11.4369	0.688
11.4707	0.708
11.5046	0.717
11.5385	0.72
11.5724	0.724
11.6062	0.725
11.6401	0.722
11.674	0.719
11.7079	0.717
11.7417	0.712
11.7756	0.71
11.8095	0.703
11.8434	0.693
11.8772	0.688
11.9111	0.698
11.945	0.7
11.9789	0.692
12.0127	0.688
12.0466	0.683
12.0805	0.671
12.1143	0.658
12.1482	0.639
12.1821	0.619
12.216	0.598
12.2498	0.571
12.2837	0.543
12.3176	0.543
12.3515	0.571
12.3853	0.583
12.4192	0.56
12.4531	0.541
12.487	0.541
12.5208	0.554
12.5547	0.571
12.5886	0.588
12.6225	0.612
12.6563	0.632
12.6902	0.648
12.7241	0.658
12.7579	0.658
12.7918	0.651
12.8257	0.659
12.8596	0.678
12.8934	0.685
12.9273	0.69
12.9612	0.7
12.9951	0.7
13.0289	0.703
13.0628	0.705
13.0967	0.708
13.1306	0.71
13.1644	0.712
13.1983	0.712
13.2322	0.712
13.2661	0.712
13.2999	0.712
13.3338	0.712
13.3677	0.71
13.4015	0.708
13.4354	0.71
13.4693	0.714
13.5032	0.715
13.537	0.712
13.5709	0.707
13.6048	0.698
13.6387	0.695
13.6725	0.683
13.7064	0.658
13.7403	0.627
13.7742	0.582
13.808	0.531
13.8419	0.45
13.8758	0.379
13.9097	0.395
13.9435	0.49
13.9774	0.578
14.0113	0.632
14.0451	0.659
14.079	0.68
14.1129	0.688
14.1468	0.688
14.1806	0.692
14.2145	0.697
14.2484	0.698
14.2823	0.698
14.3161	0.695
14.35	0.69
14.3839	0.688
14.4178	0.685
14.4516	0.681
14.4855	0.678
14.5194	0.671
14.5533	0.668
14.5871	0.659
14.621	0.651
14.6549	0.641
14.6887	0.634
14.7226	0.624
14.7565	0.61
14.7904	0.602
14.8242	0.583
14.8581	0.573
14.892	0.554
14.9259	0.543
14.9597	0.531
14.9936	0.522
15.0275	0.49
15.0614	0.472
15.0952	0.458
15.1291	0.443
15.163	0.428
