Infrared Spectrum: Laurylamine
Formula: C 12 H 27 N
CAS: 124-22-1
State: gas
Origin: EPA-IR VAPOR PHASE LIBRARY
1/CM	ABSORBANCE
501.5	0.00053422
513.074	0.00052892
524.648	0.00051357
536.222	0.00053012
547.796	0.00047137
559.37	0.0004023
570.944	0.00054322
582.518	0.00053615
594.092	0.000463037
605.666	0.00053324
617.24	0.0005992
628.814	0.00052308
640.388	0.00050958
651.962	0.0007983
663.536	0.000696
675.11	0.0007508
686.684	0.0007747
698.258	0.0008798
709.832	0.0010318
721.406	0.0012332
732.98	0.0013842
744.554	0.001691
756.128	0.001871
767.702	0.002031
779.276	0.001951
790.85	0.001561
802.423	0.0011433
813.997	0.0009073
825.571	0.0008618
837.145	0.0007834
848.719	0.0006654
860.293	0.0006466
871.867	0.0007034
883.441	0.0007643
895.015	0.0007557
906.589	0.0006687
918.163	0.0005961
929.737	0.0006385
941.311	0.0006643
952.885	0.0005904
964.459	0.0006348
976.033	0.0005952
987.607	0.000573
999.181	0.0006319
1010.76	0.0006766
1022.33	0.0006232
1033.9	0.0007361
1045.48	0.0007741
1057.05	0.0008325
1068.63	0.0009193
1080.2	0.0009113
1091.77	0.0008714
1103.35	0.0008301
1114.92	0.000661
1126.49	0.0008685
1138.07	0.0009179
1149.64	0.0007746
1161.22	0.0009439
1172.79	0.0008554
1184.36	0.0007829
1195.94	0.0006472
1207.51	0.00050714
1219.09	0.000465517
1230.66	0.0003613
1242.23	0.0004009
1253.81	0.0003657
1265.38	0.000119
1276.96	0.000181
1288.53	0.000279
1300.1	0.0005642
1311.68	0.0007288
1323.25	0.0008273
1334.83	0.0009302
1346.4	0.0010999
1357.97	0.0011957
1369.55	0.0011703
1381.12	0.0011657
1392.7	0.0010314
1404.27	0.0009107
1415.84	0.0008979
1427.42	0.0009895
1438.99	0.0013125
1450.57	0.001801
1462.14	0.002161
1473.71	0.001861
1485.29	0.0014446
1496.86	0.0012998
1508.44	0.0012391
1520.01	0.0012135
1531.58	0.0012128
1543.16	0.0011265
1554.73	0.0011109
1566.31	0.0010841
1577.88	0.0010405
1589.45	0.0010292
1601.03	0.0009322
1612.6	0.000964
1624.18	0.0009409
1635.75	0.000676
1647.32	0.00047716
1658.9	0.000331
1670.47	0.000168
1682.05	3.7e-05
1693.62	7.2e-05
1705.19	6.8e-05
1716.77	6e-06
1728.34	0
1739.92	4.9e-05
1751.49	0.000128
1763.06	0.000184
1774.64	0.000218
1786.21	0.000286
1797.79	0.000312
1809.36	0.000317
1820.93	0.00032
1832.51	0.000312
1844.08	0.000321
1855.66	0.000344
1867.23	0.00035
1878.8	0.000357
1890.38	0.0003656
1901.95	0.0003649
1913.53	0.0003801
1925.1	0.00036
1936.67	0.0003628
1948.25	0.0003836
1959.82	0.000361
1971.4	0.000354
1982.97	0.0003636
1994.54	0.0003862
2006.12	0.0003895
2017.69	0.000397
2029.27	0.0003881
2040.84	0.0003933
2052.41	0.0003933
2063.99	0.0004163
2075.56	0.0003968
2087.14	0.0004023
2098.71	0.0004073
2110.28	0.0004306
2121.86	0.0004131
2133.43	0.0004155
2145.01	0.0004249
2156.58	0.0004425
2168.15	0.0004337
2179.73	0.0004349
2191.3	0.000461596
2202.88	0.000434
2214.45	0.0004468
2226.02	0.0004309
2237.6	0.0004027
2249.17	0.0004218
2260.74	0.0004282
2272.32	0.0004223
2283.89	0.0004359
2295.47	0.0003978
2307.04	0.0004303
2318.61	0.0004061
2330.19	0.0003832
2341.76	0.0003987
2353.34	0.000402
2364.91	0.0004081
2376.48	0.0004094
2388.06	0.0003996
2399.63	0.0004141
2411.21	0.0004105
2422.78	0.0004184
2434.35	0.0004264
2445.93	0.0004093
2457.5	0.0004103
2469.08	0.000433
2480.65	0.0004337
2492.22	0.000426
2503.8	0.00045141
2515.37	0.00045599
2526.95	0.0004575
2538.52	0.0004402
2550.09	0.0004224
2561.67	0.00048568
2573.24	0.0004721
2584.82	0.00048534
2596.39	0.00050014
2607.96	0.00050281
2619.54	0.00049441
2631.11	0.00053456
2642.69	0.00053038
2654.26	0.0005943
2665.83	0.0005908
2677.41	0.0005954
2688.98	0.0006217
2700.56	0.0006048
2712.13	0.000612
2723.7	0.0006368
2735.28	0.0006861
2746.85	0.0006695
2758.43	0.0007232
2770	0.0007044
2781.57	0.0007779
2793.15	0.0009464
2804.72	0.0010786
2816.3	0.0012797
2827.87	0.001731
2839.44	0.002541
2851.02	0.004841
2862.59	0.007721
2874.17	0.006241
2885.74	0.004911
2897.31	0.005141
2908.89	0.007591
2920.46	0.013101
2932.04	0.019381
2943.61	0.013871
2955.18	0.007441
2966.76	0.005671
2978.33	0.003381
2989.91	0.001871
3001.48	0.0012703
3013.05	0.0010043
3024.63	0.0008336
3036.2	0.0006801
3047.78	0.0006034
3059.35	0.00055818
3070.92	0.00052397
3082.5	0.00045945
3094.07	0.00047702
3105.65	0.0004345
3117.22	0.0004212
3128.79	0.00048059
3140.37	0.0004108
3151.94	0.0004071
3163.52	0.0004315
3175.09	0.000399
3186.66	0.0003691
3198.24	0.0004297
3209.81	0.0004338
3221.39	0.0004253
3232.96	0.0003948
3244.53	0.0003854
3256.11	0.000393
3267.68	0.0004041
3279.26	0.0003813
3290.83	0.0003917
3302.4	0.0003889
3313.98	0.0004154
3325.55	0.0003881
3337.13	0.0004375
3348.7	0.0004329
3360.27	0.00050631
3371.85	0.00052933
3383.42	0.0004037
3395	0.0004288
3406.57	0.0004435
3418.14	0.00048035
3429.72	0.00045125
3441.29	0.000478
3452.86	0.0005051
3464.44	0.00054059
3476.01	0.00048909
3487.59	0.00052613
3499.16	0.000469394
3510.73	0.00048235
3522.31	0.00053167
3533.88	0.00048203
3545.46	0.00053392
3557.03	0.00055287
3568.6	0.00051081
3580.18	0.00052105
3591.75	0.00055517
3603.33	0.00050748
3614.9	0.000578
3626.47	0.00055683
3638.05	0.00050897
3649.62	0.00055852
3661.2	0.0005904
3672.77	0.0005642
3684.34	0.000577
3695.92	0.00053162
3707.49	0.000589
3719.07	0.0005771
3730.64	0.0005842
3742.21	0.00055829
3753.79	0.0005519
3765.36	0.0006266
3776.94	0.0006233
3788.51	0.00055722
3800.08	0.0005714
3811.66	0.00054909
3823.23	0.0005819
3834.81	0.00053029
3846.38	0.0005783
3857.95	0.0006218
3869.53	0.00054546
3881.1	0.0006762
3892.68	0.0005915
3904.25	0.000653
3915.82	0.0006138
3927.4	0.0006193
3938.97	0.00055052
3950.55	0.0006119
3962.12	0.0006643
3973.69	0.0006832
3985.27	0.000634
3996.84	0.0006843
