Infrared Spectrum: exo-1,7,7-Trimethylbicyclo[2.2.1]-2-heptanol
Formula: C 10 H 18 O
CAS: 124-76-5
State: gas
Instrument: HP-GC/MS/IRD
Origin: NIST Mass Spectrometry Data Center
1/CM	ABSORBANCE
550	7.22e-05
562	7.6e-05
574	6.08e-05
586	7.6e-05
598	0.0001102
610	0.0001672
622	0.0001558
634	0.0002014
646	0.000247
658	0.000152
670	0.0001216
682	3.8e-05
694	8.36e-05
706	0.0001102
718	0.0001026
730	0.0001064
742	9.12e-05
754	0.0001406
766	0.0001824
778	0.0003306
790	0.0004332
802	0.0001596
814	0.0001672
826	0.0004674
838	0.0008094
850	0.0007752
862	0.0006688
874	0.000513
886	0.000494
898	0.0010222
910	0.0012046
922	0.0010526
934	0.0012274
946	0.0013528
958	0.0013756
970	0.001577
982	0.00228
994	0.003952
1006	0.004313
1018	0.0024966
1030	0.001368
1042	0.0014706
1054	0.0038912
1066	0.0087248
1078	0.007885
1090	0.0037544
1102	0.0030286
1114	0.001919
1126	0.001026
1138	0.0008208
1150	0.0008626
1162	0.0009576
1174	0.0012236
1186	0.0019228
1198	0.0024928
1210	0.0025004
1222	0.0024358
1234	0.0026562
1246	0.0027778
1258	0.002527
1270	0.0023332
1282	0.002052
1294	0.001691
1306	0.0015276
1318	0.0013908
1330	0.001159
1342	0.0009728
1354	0.001197
1366	0.002451
1378	0.0036176
1390	0.0034846
1402	0.0023218
1414	0.00095
1426	0.000798
1438	0.001425
1450	0.00304
1462	0.0040128
1474	0.0034314
1486	0.0024548
1498	0.0011514
1510	0.0004598
1522	0.0002546
1534	0.0001634
1546	0.0001292
1558	0.000152
1570	0.0001444
1582	0.0001254
1594	0.0001216
1606	8.74e-05
1618	0.0001064
1630	7.98e-05
1642	8.74e-05
1654	7.98e-05
1666	6.46e-05
1678	4.18e-05
1690	4.94e-05
1702	4.56e-05
1714	1.9e-05
1726	2.28e-05
1738	4.56e-05
1750	1.14e-05
1762	2.28e-05
1774	1.14e-05
1786	2.66e-05
1798	2.28e-05
1810	1.9e-05
1822	3.8e-06
1834	3.42e-05
1846	3.04e-05
1858	1.9e-05
1870	3.04e-05
1882	1.52e-05
1894	1.14e-05
1906	2.28e-05
1918	0
1930	1.14e-05
1942	7.6e-06
1954	0
1966	7.6e-06
1978	7.6e-06
1990	7.6e-06
2002	0
2014	1.14e-05
2026	3.42e-05
2038	4.18e-05
2050	3.04e-05
2062	4.56e-05
2074	3.42e-05
2086	4.56e-05
2098	6.08e-05
2110	6.84e-05
2122	6.84e-05
2134	5.7e-05
2146	5.7e-05
2158	5.7e-05
2170	4.56e-05
2182	4.94e-05
2194	2.66e-05
2206	4.56e-05
2218	4.94e-05
2230	3.42e-05
2242	3.8e-05
2254	4.94e-05
2266	5.7e-05
2278	5.7e-05
2290	5.7e-05
2302	7.98e-05
2314	7.98e-05
2326	7.22e-05
2338	8.74e-05
2350	9.5e-05
2362	6.84e-05
2374	6.08e-05
2386	8.74e-05
2398	6.84e-05
2410	5.32e-05
2422	8.74e-05
2434	6.84e-05
2446	9.12e-05
2458	9.88e-05
2470	9.5e-05
2482	7.6e-05
2494	8.74e-05
2506	9.5e-05
2518	7.98e-05
2530	9.5e-05
2542	0.0001026
2554	0.0001064
2566	0.0001026
2578	0.0001064
2590	0.000114
2602	0.0001254
2614	0.0001596
2626	0.0001596
2638	0.0001786
2650	0.000171
2662	0.0001824
2674	0.0001596
2686	0.0002166
2698	0.0003078
2710	0.0003344
2722	0.0005358
2734	0.000741
2746	0.000703
2758	0.0006802
2770	0.0006802
2782	0.0006954
2794	0.000646
2806	0.0006764
2818	0.0009234
2830	0.001216
2842	0.001615
2854	0.0025916
2866	0.0058938
2878	0.0129656
2890	0.017651
2902	0.015314
2914	0.013243
2926	0.0169442
2938	0.0247076
2950	0.0341848
2962	0.0363432
2974	0.0195928
2986	0.0086526
2998	0.0058216
3010	0.0033364
3022	0.0022116
3034	0.0013566
3046	0.0008246
3058	0.000703
3070	0.0007144
3082	0.0006346
3094	0.0005966
3106	0.000551
3118	0.0005358
3130	0.000513
3142	0.0004826
3154	0.00038
3166	0.0003268
3178	0.0002508
3190	0.000209
3202	0.00019
3214	0.0001862
3226	0.000114
3238	0.000114
3250	0.0001064
3262	7.22e-05
3274	8.74e-05
3286	0.0001026
3298	5.32e-05
3310	7.98e-05
3322	4.56e-05
3334	0.0001026
3346	8.36e-05
3358	5.32e-05
3370	6.84e-05
3382	7.22e-05
3394	7.22e-05
3406	9.12e-05
3418	0.0001064
3430	9.12e-05
3442	9.5e-05
3454	0.0001216
3466	7.98e-05
3478	4.18e-05
3490	4.18e-05
3502	6.08e-05
3514	9.12e-05
3526	0.0001026
3538	8.74e-05
3550	7.98e-05
3562	9.88e-05
3574	9.88e-05
3586	6.46e-05
3598	4.18e-05
3610	0.0001482
3622	0.0002014
3634	0.0003914
3646	0.00152
3658	0.0025916
3670	0.0014022
3682	0.0003382
3694	0.000209
3706	9.5e-05
3718	4.94e-05
3730	4.56e-05
3742	1.52e-05
3754	7.98e-05
3766	5.32e-05
3778	8.74e-05
3790	0.0001026
3802	7.98e-05
3814	0.000114
3826	7.22e-05
3838	0.0001064
