Infrared Spectrum: Tetradecanal
Formula: C 14 H 28 O
CAS: 124-25-4
State: gas
Instrument: HP-GC/MS/IRD
Origin: NIST Mass Spectrometry Data Center
1/CM	ABSORBANCE
550	0.0004796
562	9.68e-05
574	4.4e-06
586	0.0001672
598	0.0001584
610	6.6e-05
622	0.0001232
634	0.000154
646	0.0001364
658	0.000396
670	0.0002508
682	0.0003168
694	0.0004268
706	0.000594
718	0.00077
730	0.0007788
742	0.0006072
754	0.0005632
766	0.000484
778	0.0004532
790	0.0003608
802	0.0003212
814	0.0003696
826	0.000418
838	0.0004048
850	0.0004796
862	0.0004576
874	0.0004312
886	0.000506
898	0.0004796
910	0.0004312
922	0.0004708
934	0.000484
946	0.0005148
958	0.0005324
970	0.0005808
982	0.0006468
994	0.000682
1006	0.0006864
1018	0.0006776
1030	0.0007084
1042	0.0006512
1054	0.0006028
1066	0.0006072
1078	0.0005896
1090	0.0005808
1102	0.0004972
1114	0.000462
1126	0.0004796
1138	0.000462
1150	0.0004048
1162	0.0004048
1174	0.0004004
1186	0.0004224
1198	0.0004004
1210	0.0003696
1222	0.0003344
1234	0.0004268
1246	0.0004268
1258	0.0005412
1270	0.000572
1282	0.0006776
1294	0.0007656
1306	0.0008976
1318	0.000902
1330	0.0009504
1342	0.0013508
1354	0.0016544
1366	0.0014344
1378	0.0012452
1390	0.00132
1402	0.0010252
1414	0.001188
1426	0.0013728
1438	0.0015928
1450	0.0026752
1462	0.0033968
1474	0.0021472
1486	0.0009196
1498	0.0005148
1510	0.0003212
1522	0.0002332
1534	0.000198
1546	0.0001452
1558	9.68e-05
1570	0.0001232
1582	0.0001496
1594	0.0001584
1606	0.0001408
1618	0.0001276
1630	0.0001672
1642	0.0002024
1654	0.0002684
1666	0.0004532
1678	0.0006556
1690	0.001034
1702	0.001694
1714	0.0028116
1726	0.00539
1738	0.0104016
1750	0.008558
1762	0.004224
1774	0.0023452
1786	0.0013728
1798	0.0008272
1810	0.00055
1822	0.0003564
1834	0.000264
1846	0.0001848
1858	0.0001364
1870	0.0001012
1882	9.68e-05
1894	8.36e-05
1906	9.24e-05
1918	6.6e-05
1930	4.84e-05
1942	5.28e-05
1954	6.16e-05
1966	4.84e-05
1978	3.52e-05
1990	3.52e-05
2002	5.72e-05
2014	6.16e-05
2026	5.72e-05
2038	8.8e-05
2050	7.92e-05
2062	6.6e-05
2074	4.84e-05
2086	3.96e-05
2098	2.64e-05
2110	3.52e-05
2122	2.2e-05
2134	5.72e-05
2146	2.2e-05
2158	4.84e-05
2170	5.72e-05
2182	4.4e-05
2194	6.16e-05
2206	4.84e-05
2218	2.2e-05
2230	5.72e-05
2242	3.96e-05
2254	6.16e-05
2266	3.96e-05
2278	3.96e-05
2290	3.96e-05
2302	3.96e-05
2314	5.28e-05
2326	4.4e-05
2338	4.84e-05
2350	4.84e-05
2362	6.6e-05
2374	6.6e-05
2386	3.52e-05
2398	3.96e-05
2410	5.28e-05
2422	7.92e-05
2434	2.2e-05
2446	3.52e-05
2458	0
2470	8.8e-06
2482	3.08e-05
2494	5.28e-05
2506	7.92e-05
2518	6.16e-05
2530	0.0001232
2542	0.000132
2554	0.0001496
2566	0.0001716
2578	0.0002112
2590	0.000264
2602	0.0003124
2614	0.0004312
2626	0.0005412
2638	0.0006864
2650	0.0008668
2662	0.0011264
2674	0.0014652
2686	0.0020592
2698	0.0031592
2710	0.0046464
2722	0.003212
2734	0.0022396
2746	0.0019184
2758	0.0017864
2770	0.0017996
2782	0.0021076
2794	0.0028688
2806	0.0038588
2818	0.0039776
2830	0.0038016
2842	0.0051788
2854	0.0111408
2866	0.0166144
2878	0.01188
2890	0.0101024
2902	0.0123772
2914	0.0196768
2926	0.0369996
2938	0.0410432
2950	0.022836
2962	0.0139832
2974	0.0093808
2986	0.0043296
2998	0.00253
3010	0.0016852
3022	0.0012628
3034	0.000924
3046	0.0007348
3058	0.0005984
3070	0.0004884
3082	0.0004224
3094	0.000374
3106	0.0002992
3118	0.0002552
3130	0.000264
3142	0.000264
3154	0.0002332
3166	0.0002596
3178	0.0001804
3190	0.0001408
3202	0.000154
3214	0.0001584
3226	0.0001408
3238	6.16e-05
3250	5.28e-05
3262	3.08e-05
3274	7.48e-05
3286	7.04e-05
3298	9.24e-05
3310	4.4e-05
3322	8.8e-06
3334	5.28e-05
3346	0.0001012
3358	8.8e-05
3370	5.72e-05
3382	7.48e-05
3394	6.16e-05
3406	0.0001056
3418	0.0001012
3430	0.0001452
3442	0.0002068
3454	0.0002244
3466	0.0002552
3478	0.0001716
3490	0.0001672
3502	8.36e-05
3514	6.6e-05
3526	5.72e-05
3538	0.00011
3550	2.64e-05
3562	1.32e-05
3574	7.04e-05
3586	6.6e-05
3598	3.96e-05
3610	6.16e-05
3622	8.8e-05
3634	3.08e-05
3646	9.24e-05
3658	9.68e-05
3670	7.48e-05
3682	8.8e-05
3694	0.0001144
3706	8.8e-05
3718	7.48e-05
3730	6.6e-05
3742	7.92e-05
3754	6.6e-05
3766	0.0001012
3778	0.0001232
3790	8.36e-05
3802	7.92e-05
3814	0.0001188
3826	0.0001276
3838	3.52e-05
