Infrared Spectrum: 9Alpha-FLUORO-11Beta,16Alpha,17Alpha,21-TETRAHYDROXYPREGNA-1,4-DIENE-3,20-DIONE
Formula: C21 H27 F O6
CAS: 124-94-7
State: SOLID (KBr DISC)
Class: COBLENTZ III
Instrument: BECKMAN IR-7
Sampling: TRANSMISSION
Resolution: 4
Origin: THE WORCESTER FOUNDATION FOR EXPERIMENTAL BIOLOGY, Neal L. McNiven
1/CM	TRANSMITTANCE
597.814	0.19
606.559	0.298
615.305	0.244
624.05	0.32
632.796	0.395
641.541	0.433
650.287	0.459
659.032	0.486
667.778	0.479
676.523	0.469
685.269	0.531
694.014	0.492
702.759	0.472
711.505	0.571
720.25	0.55
728.996	0.659
737.741	0.576
746.487	0.456
755.232	0.4491
763.978	0.5429
772.723	0.582
781.469	0.666
790.214	0.703
798.959	0.633
807.705	0.607
816.45	0.626
825.196	0.593
833.941	0.383
842.687	0.486
851.432	0.384
860.178	0.572
868.923	0.535
877.668	0.433
886.414	0.0301
895.159	0.169
903.905	0.15
912.65	0.293
921.396	0.45
930.141	0.3589
938.887	0.521
947.632	0.525
956.378	0.408
965.123	0.55
973.868	0.385
982.614	0.3889
991.359	0.312
1000.1	0.282
1008.85	0.436
1017.6	0.426
1026.34	0.374
1035.09	0.281
1043.83	0.216
1052.58	0.011
1061.32	0
1070.07	0.001
1078.81	0.109
1087.56	0.171
1096.3	0.314
1105.05	0.305
1113.8	0.384
1122.54	0.253
1131.29	0.102
1140.03	0.235
1148.78	0.402
1157.52	0.394
1166.27	0.31
1175.01	0.338
1183.76	0.341
1192.5	0.394
1201.25	0.506
1210	0.469
1218.74	0.39
1227.49	0.43
1236.23	0.245
1244.98	0.132
1253.72	0.333
1262.47	0.407
1271.21	0.33
1279.96	0.293
1288.7	0.187
1297.45	0.201
1306.2	0.12
1314.94	0.217
1323.69	0.236
1332.43	0.309
1341.18	0.309
1349.92	0.259
1358.67	0.332
1367.41	0.386
1376.16	0.345
1384.9	0.354
1393.65	0.232
1402.4	0.161
1411.14	0.162
1419.89	0.235
1428.63	0.29
1437.38	0.287
1446.12	0.224
1454.87	0.308
1463.61	0.448
1472.36	0.519
1481.1	0.645
1489.85	0.697
1498.6	0.723
1507.34	0.73
1516.09	0.733
1524.83	0.735
1533.58	0.722
1542.32	0.71
1551.07	0.703
1559.81	0.692
1568.56	0.656
1577.3	0.558
1586.05	0.374
1594.8	0.206
1603.54	0.044
1612.29	0.067
1621.03	0.008
1629.78	0.193
1638.52	0.306
1647.27	0.084
1656.01	0
1664.76	0
1673.5	0.248
1682.25	0.471
1691	0.405
1699.74	0.069
1708.49	0.028
1717.23	0.214
1725.98	0.4229
1734.72	0.573
1743.47	0.64
1752.21	0.685
1760.96	0.736
1769.7	0.76
1778.45	0.792
1787.2	0.802
1795.94	0.81
1804.69	0.815
1813.43	0.823
1822.18	0.828
1830.92	0.83
1839.67	0.833
1848.41	0.846
1857.16	0.849
1865.9	0.851
1874.65	0.854
1883.4	0.849
1892.14	0.849
1900.89	0.849
1909.63	0.852
1918.38	0.854
1927.12	0.851
1935.87	0.85
1944.61	0.851
1953.36	0.85
1962.1	0.85
1970.85	0.849
1979.6	0.849
1988.34	0.849
1997.09	0.848
2005.83	0.847
2014.58	0.846
2023.32	0.846
2032.07	0.846
2040.81	0.845
2049.56	0.8439
2058.3	0.843
2067.05	0.8429
2075.8	0.842
2084.54	0.841
2093.29	0.841
2102.03	0.84
2110.78	0.8398
2119.52	0.839
2128.27	0.838
2137.01	0.837
2145.76	0.8357
2154.5	0.835
2163.25	0.8337
2172	0.8317
2180.74	0.8296
2189.49	0.8276
2198.23	0.8256
2206.98	0.8236
2215.72	0.8216
2224.47	0.819
2233.21	0.8175
2241.96	0.817
2250.7	0.8155
2259.45	0.814
2268.2	0.812
2276.94	0.811
2285.69	0.809
2294.43	0.8064
2303.18	0.8044
2311.92	0.8034
2320.67	0.801
2329.41	0.7994
2338.16	0.7973
2346.9	0.7953
2355.65	0.793
2364.4	0.7913
2373.14	0.7903
2381.89	0.7883
2390.63	0.787
2399.38	0.785
2408.12	0.7832
2416.87	0.7822
2425.61	0.78
2434.36	0.7781
2443.1	0.7771
2451.85	0.7761
2460.6	0.7741
2469.34	0.7702
2478.09	0.769
2486.83	0.767
2495.58	0.765
2504.32	0.764
2513.07	0.761
2521.81	0.7589
2530.56	0.7539
2539.3	0.7479
2548.05	0.7459
2556.8	0.7429
2565.54	0.7387
2574.29	0.7269
2583.03	0.7239
2591.78	0.7207
2600.52	0.7168
2609.27	0.714
2618.01	0.711
2626.76	0.7088
2635.5	0.7078
2644.25	0.7057
2653	0.703
2661.74	0.7007
2670.49	0.6971
2679.23	0.6864
2687.98	0.6713
2696.72	0.6585
2705.47	0.6456
2714.21	0.6462
2722.96	0.6551
2731.7	0.6619
2740.45	0.6654
2749.2	0.6675
2757.94	0.669
2766.69	0.6705
2775.43	0.671
2784.18	0.671
2792.92	0.6673
2801.67	0.6552
2810.41	0.6425
2819.16	0.6222
2827.9	0.5948
2836.65	0.562
2845.4	0.4942
2854.14	0.4563
2862.89	0.4111
2871.63	0.3727
2880.38	0.2772
2889.12	0.2627
2897.87	0.2783
2906.61	0.2797
2915.36	0.2552
2924.1	0.2454
2932.85	0.2209
2941.6	0.1917
2950.34	0.2113
2959.09	0.2655
2967.83	0.3278
2976.58	0.3503
2985.32	0.3745
2994.07	0.4064
3002.81	0.4641
3011.56	0.5068
3020.3	0.5351
3029.05	0.578
3037.8	0.579
3046.54	0.577
3055.29	0.5801
3064.03	0.585
3072.78	0.5838
3081.52	0.5799
3090.27	0.578
3099.01	0.5769
3107.76	0.5727
3116.5	0.5631
3125.25	0.549
3134	0.5361
3142.74	0.524
3151.49	0.5107
3160.23	0.492
3168.98	0.4662
3177.72	0.4503
3186.47	0.4304
3195.21	0.4042
3203.96	0.3768
3212.7	0.351
3221.45	0.3292
3230.2	0.3027
3238.94	0.2825
3247.69	0.2622
3256.43	0.2468
3265.18	0.2246
3273.92	0.1985
3282.67	0.1707
3291.41	0.1445
3300.16	0.1167
3308.9	0.0937
3317.65	0.0658
3326.4	0.0399
3335.14	0.0235
3343.89	0.0065
3352.63	0.0024
3361.38	0.0013
3370.12	0.001
3378.87	0
3387.61	0
3396.36	0
3405.1	0
3413.85	0
3422.6	0
3431.34	0
3440.09	0
3448.83	0
3457.58	0
3466.32	0
3475.07	0.0028
3483.81	0.0204
3492.56	0.0501
3501.3	0.0813
3510.05	0.1314
3518.8	0.1803
3527.54	0.2349
3536.29	0.2745
3545.03	0.3274
3553.78	0.3706
3562.52	0.411
3571.27	0.4608
3580.01	0.488
3588.76	0.5192
3597.5	0.5486
3606.25	0.5858
3615	0.622
3623.74	0.6526
3632.49	0.6819
3641.23	0.7074
3649.98	0.7144
3658.72	0.7258
3667.47	0.732
3676.21	0.7364
3684.96	0.7489
3693.7	0.7533
3702.45	0.7553
3711.2	0.7556
3719.94	0.753
3728.69	0.7516
3737.43	0.75
3746.18	0.7514
3754.92	0.756
3763.67	0.757
3772.41	0.7585
3781.16	0.759
3789.9	0.76
3798.65	0.76
3807.4	0.759
3816.14	0.758
3824.89	0.7564
3833.63	0.7554
3842.38	0.7534
3851.12	0.753
3859.87	0.751
3868.61	0.7503
3877.36	0.7483
3886.1	0.7463
3894.85	0.746
3903.6	0.744
3912.34	0.743
3921.09	0.7412
3929.83	0.74
3938.58	0.738
3947.32	0.7372
3956.07	0.736
3964.81	0.735
3973.56	0.734
3982.3	0.734
3991.05	0.733
