Infrared Spectrum: ETHANOL, 2-(2-BUTOXY-ETHOXY)-, ACETATE
Formula: C10 H20 O4
CAS: 124-17-4
Class: COBLENTZ
Instrument: Not specified, most likely a prism, grating, or hybrid spectrometer.
Sampling: TRANSMISSION
Resolution: 4
Origin: TENNESSEE EASTMAN COMPANY, RESEARCH LABORATORIES
MICROMETERS	TRANSMITTANCE
1.993	0.994
2.03296	0.993
2.07292	0.993
2.11289	0.994
2.15285	0.994
2.19281	0.994
2.23277	0.991
2.27273	0.983
2.3127	0.978
2.35266	0.978
2.39262	0.978
2.43258	0.978
2.47254	0.978
2.5125	0.979
2.55247	0.978
2.59243	0.978
2.63239	0.979
2.67235	0.979
2.71231	0.978
2.75228	0.968
2.79224	0.934
2.8322	0.918
2.87216	0.908
2.91212	0.909
2.95209	0.916
2.99205	0.926
3.03201	0.928
3.07197	0.929
3.11193	0.931
3.15189	0.933
3.19186	0.934
3.23182	0.933
3.27178	0.918
3.31174	0.821
3.3517	0.469
3.39167	0.365
3.43163	0.355
3.47159	0.343
3.51155	0.612
3.55151	0.716
3.59148	0.796
3.63144	0.824
3.6714	0.849
3.71136	0.874
3.75132	0.909
3.79128	0.929
3.83125	0.941
3.87121	0.943
3.91117	0.948
3.95113	0.959
3.99109	0.968
4.03106	0.969
4.07102	0.971
4.11098	0.973
4.15094	0.973
4.1909	0.974
4.23087	0.978
4.27083	0.979
4.31079	0.979
4.35075	0.981
4.39071	0.981
4.43068	0.983
4.47064	0.981
4.5106	0.981
4.55056	0.981
4.59052	0.981
4.63048	0.981
4.67045	0.981
4.71041	0.976
4.75037	0.969
4.79033	0.969
4.83029	0.969
4.87026	0.969
4.91022	0.971
4.95018	0.969
4.99014	0.971
5.0301	0.971
5.07007	0.969
5.11003	0.966
5.14999	0.966
5.18995	0.966
5.22991	0.966
5.26987	0.966
5.30984	0.966
5.3498	0.966
5.38976	0.966
5.42972	0.964
5.46968	0.951
5.50965	0.924
5.54961	0.894
5.58957	0.839
5.62953	0.741
5.66949	0.44
5.70946	0.153
5.74942	0.212
5.78938	0.489
5.82934	0.679
5.8693	0.742
5.90926	0.809
5.94923	0.851
5.98919	0.863
6.02915	0.874
6.06911	0.883
6.10907	0.899
6.14904	0.914
6.189	0.933
6.22896	0.939
6.26892	0.939
6.30888	0.939
6.34885	0.939
6.38881	0.939
6.42877	0.939
6.46873	0.934
6.50869	0.924
6.54866	0.916
6.58862	0.908
6.62858	0.876
6.66854	0.803
6.7085	0.719
6.74846	0.669
6.78843	0.549
6.82839	0.534
6.86835	0.549
6.90831	0.594
6.94827	0.631
6.98824	0.689
7.0282	0.719
7.06816	0.714
7.10812	0.699
7.14808	0.622
7.18805	0.519
7.22801	0.434
7.26797	0.395
7.30793	0.42
7.34789	0.49
7.38785	0.549
7.42782	0.679
7.46778	0.754
7.50774	0.759
7.5477	0.759
7.58766	0.754
7.62763	0.692
7.66759	0.602
7.70755	0.564
7.74751	0.539
7.78747	0.492
7.82744	0.452
7.8674	0.412
7.90736	0.35
7.94732	0.25
7.98728	0.21
8.02724	0.173
8.06721	0.171
8.10717	0.173
8.14713	0.24
8.18709	0.36
8.22705	0.51
8.26702	0.622
8.30698	0.674
8.34694	0.712
8.3869	0.719
8.42686	0.722
8.46683	0.714
8.50679	0.684
8.54675	0.612
8.58671	0.532
8.62667	0.44
8.66664	0.348
8.7066	0.282
8.74656	0.258
8.78652	0.252
8.82648	0.248
8.86644	0.245
8.90641	0.238
8.94637	0.238
8.98633	0.248
9.02629	0.283
9.06625	0.32
9.10622	0.353
9.14618	0.404
9.18614	0.439
9.2261	0.46
9.26606	0.464
9.30603	0.445
9.34599	0.402
9.38595	0.338
9.42591	0.293
9.46587	0.288
9.50583	0.313
9.5458	0.357
9.58576	0.404
9.62572	0.47
9.66568	0.524
9.70564	0.574
9.74561	0.614
9.78557	0.626
9.82553	0.631
9.86549	0.641
9.90545	0.644
9.94542	0.646
9.98538	0.652
10.0253	0.666
10.0653	0.679
10.1053	0.679
10.1452	0.661
10.1852	0.646
10.2251	0.649
10.2651	0.651
10.3051	0.646
10.345	0.631
10.385	0.619
10.425	0.612
10.4649	0.614
10.5049	0.629
10.5448	0.649
10.5848	0.671
10.6248	0.694
10.6647	0.717
10.7047	0.727
10.7447	0.737
10.7846	0.744
10.8246	0.747
10.8645	0.752
10.9045	0.761
10.9445	0.762
10.9844	0.766
11.0244	0.764
11.0643	0.764
11.1043	0.764
11.1443	0.764
11.1842	0.769
11.2242	0.784
11.2642	0.791
11.3041	0.791
11.3441	0.792
11.384	0.791
11.424	0.784
11.464	0.774
11.5039	0.767
11.5439	0.761
11.5839	0.754
11.6238	0.747
11.6638	0.741
11.7037	0.732
11.7437	0.727
11.7837	0.724
11.8236	0.724
11.8636	0.731
11.9035	0.741
11.9435	0.754
11.9835	0.762
12.0234	0.774
12.0634	0.781
12.1034	0.789
12.1433	0.796
12.1833	0.808
12.2232	0.814
12.2632	0.819
12.3032	0.823
12.3431	0.828
12.3831	0.834
12.4231	0.841
12.463	0.849
12.503	0.858
12.5429	0.864
12.5829	0.871
12.6229	0.881
12.6628	0.889
12.7028	0.894
12.7427	0.901
12.7827	0.903
12.8227	0.906
12.8626	0.906
12.9026	0.908
12.9426	0.909
12.9825	0.909
13.0225	0.909
13.0624	0.909
13.1024	0.909
13.1424	0.909
13.1823	0.909
13.2223	0.906
13.2623	0.904
13.3022	0.901
13.3422	0.898
13.3821	0.893
13.4221	0.881
13.4621	0.868
13.502	0.859
13.542	0.856
13.5819	0.863
13.6219	0.868
13.6619	0.876
13.7018	0.881
13.7418	0.881
13.7818	0.883
13.8217	0.884
13.8617	0.884
13.9016	0.884
13.9416	0.884
13.9816	0.884
14.0215	0.884
14.0615	0.883
14.1015	0.881
14.1414	0.876
14.1814	0.868
14.2213	0.863
14.2613	0.856
14.3013	0.854
14.3412	0.849
14.3812	0.844
14.4211	0.839
14.4611	0.831
14.5011	0.823
14.541	0.816
14.581	0.813
14.621	0.806
14.6609	0.801
14.7009	0.794
14.7408	0.789
14.7808	0.782
14.8208	0.776
14.8607	0.769
14.9007	0.761
14.9407	0.744
14.9806	0.732
15.0206	0.724
15.0605	0.724
15.1005	0.722
15.1405	0.721
15.1804	0.714
15.2204	0.702
15.2603	0.697
15.3003	0.692
15.3403	0.681
15.3802	0.676
15.4202	0.671
15.4602	0.662
15.5001	0.657
15.5401	0.654
15.58	0.649
15.62	0.646
15.66	0.641
15.6999	0.636
15.7399	0.634
15.7799	0.632
15.8198	0.632
15.8598	0.631
15.8997	0.629
15.9397	0.629
