Infrared Spectrum: 1,6-HEXANEDIAMINE
Formula: C6 H16 N2
CAS: 124-09-4
State: SOLID (MINERAL OIL MULL)
Melting point: 40-42 C
Class: COBLENTZ
Instrument: Not specified, most likely a prism, grating, or hybrid spectrometer.
Sampling: TRANSMISSION
Resolution: 4
Origin: WYANDOTTE CHEMICALS CORP., WYANDOTTE, MICHIGAN, USA
MICROMETERS	TRANSMITTANCE
2.02	0.632
2.06084	0.63
2.10168	0.625
2.14251	0.633
2.18335	0.63
2.22419	0.6
2.26503	0.593
2.30587	0.593
2.3467	0.591
2.38754	0.6
2.42838	0.603
2.46922	0.608
2.51006	0.613
2.55089	0.611
2.59173	0.613
2.63257	0.61
2.67341	0.611
2.71425	0.591
2.75508	0.577
2.79592	0.528
2.83676	0.488
2.8776	0.459
2.91844	0.423
2.95927	0.405
3.00011	0.335
3.04095	0.294
3.08179	0.344
3.12263	0.344
3.16346	0.333
3.2043	0.338
3.24514	0.325
3.28598	0.298
3.32682	0.228
3.36765	0.149
3.40849	0.1
3.44933	0.098
3.49017	0.113
3.53101	0.113
3.57184	0.316
3.61268	0.388
3.65352	0.405
3.69436	0.423
3.73519	0.452
3.77603	0.454
3.81687	0.476
3.85771	0.483
3.89855	0.481
3.93938	0.489
3.98022	0.51
4.02106	0.533
4.0619	0.552
4.10274	0.579
4.14357	0.6
4.18441	0.615
4.22525	0.633
4.26609	0.635
4.30693	0.655
4.34776	0.679
4.3886	0.713
4.42944	0.737
4.47028	0.737
4.51112	0.749
4.55195	0.75
4.59279	0.754
4.63363	0.767
4.67447	0.738
4.71531	0.723
4.75614	0.725
4.79698	0.754
4.83782	0.777
4.87866	0.793
4.9195	0.813
4.96033	0.833
5.00117	0.845
5.04201	0.861
5.08285	0.877
5.12369	0.889
5.16452	0.898
5.20536	0.908
5.2462	0.922
5.28704	0.923
5.32788	0.933
5.36871	0.933
5.40955	0.944
5.45039	0.947
5.49123	0.95
5.53207	0.969
5.5729	0.964
5.61374	0.964
5.65458	0.94
5.69542	0.938
5.73626	0.913
5.77709	0.9
5.81793	0.84
5.85877	0.798
5.89961	0.769
5.94045	0.711
5.98128	0.644
6.02212	0.525
6.06296	0.408
6.1038	0.4
6.14464	0.454
6.18547	0.396
6.22631	0.401
6.26715	0.42
6.30799	0.379
6.34883	0.288
6.38966	0.211
6.4305	0.225
6.47134	0.327
6.51218	0.438
6.55302	0.53
6.59385	0.555
6.63469	0.491
6.67553	0.418
6.71637	0.323
6.75721	0.208
6.79804	0.159
6.83888	0.13
6.87972	0.15
6.92056	0.198
6.96139	0.274
7.00223	0.42
7.04307	0.518
7.08391	0.537
7.12475	0.438
7.16558	0.311
7.20642	0.327
7.24726	0.242
7.2881	0.337
7.32894	0.347
7.36977	0.418
7.41061	0.53
7.45145	0.583
7.49229	0.613
7.53313	0.5
7.57396	0.408
7.6148	0.472
7.65564	0.528
7.69648	0.581
7.73732	0.623
7.77815	0.447
7.81899	0.557
7.85983	0.662
7.90067	0.683
7.94151	0.718
7.98234	0.757
8.02318	0.762
8.06402	0.738
8.10486	0.767
8.1457	0.789
8.18653	0.788
8.22737	0.789
8.26821	0.827
8.30905	0.832
8.34989	0.849
8.39072	0.859
8.43156	0.849
8.4724	0.84
8.51324	0.85
8.55408	0.849
8.59491	0.842
8.63575	0.818
8.67659	0.822
8.71743	0.781
8.75827	0.8
8.7991	0.849
8.83994	0.876
8.88078	0.886
8.92162	0.886
8.96246	0.889
9.00329	0.879
9.04413	0.859
9.08497	0.818
9.12581	0.777
9.16665	0.759
9.20748	0.762
9.24832	0.745
9.28916	0.72
9.33	0.703
9.37084	0.669
9.41167	0.635
9.45251	0.659
9.49335	0.71
9.53419	0.762
9.57503	0.764
9.61586	0.779
9.6567	0.794
9.69754	0.798
9.73838	0.798
9.77922	0.788
9.82005	0.761
9.86089	0.732
9.90173	0.749
9.94257	0.766
9.98341	0.752
10.0242	0.742
10.0651	0.742
10.1059	0.744
10.1468	0.744
10.1876	0.737
10.2284	0.73
10.2693	0.711
10.3101	0.669
10.3509	0.684
10.3918	0.693
10.4326	0.689
10.4735	0.683
10.5143	0.689
10.5551	0.681
10.596	0.672
10.6368	0.659
10.6777	0.652
10.7185	0.642
10.7593	0.633
10.8002	0.622
10.841	0.62
10.8818	0.622
10.9227	0.622
10.9635	0.623
11.0044	0.628
11.0452	0.627
11.086	0.618
11.1269	0.618
11.1677	0.61
11.2085	0.603
11.2494	0.603
11.2902	0.605
11.3311	0.608
11.3719	0.601
11.4127	0.591
11.4536	0.611
11.4944	0.616
11.5352	0.627
11.5761	0.628
11.6169	0.633
11.6578	0.64
11.6986	0.64
11.7394	0.642
11.7803	0.644
11.8211	0.644
11.862	0.649
11.9028	0.65
11.9436	0.652
11.9845	0.649
12.0253	0.652
12.0661	0.65
12.107	0.627
12.1478	0.581
12.1887	0.532
12.2295	0.552
12.2703	0.593
12.3112	0.601
12.352	0.616
12.3928	0.62
12.4337	0.627
12.4745	0.618
12.5154	0.611
12.5562	0.576
12.597	0.528
12.6379	0.557
12.6787	0.588
12.7195	0.611
12.7604	0.618
12.8012	0.623
12.8421	0.633
12.8829	0.638
12.9237	0.642
12.9646	0.649
13.0054	0.655
13.0463	0.655
13.0871	0.657
13.1279	0.661
13.1688	0.662
13.2096	0.661
13.2504	0.657
13.2913	0.659
13.3321	0.659
13.373	0.657
13.4138	0.65
13.4546	0.647
13.4955	0.628
13.5363	0.61
13.5771	0.581
13.618	0.55
13.6588	0.515
13.6997	0.501
13.7405	0.513
13.7813	0.516
13.8222	0.511
13.863	0.501
13.9039	0.503
13.9447	0.51
13.9855	0.506
14.0264	0.511
14.0672	0.513
14.108	0.515
14.1489	0.532
14.1897	0.557
14.2306	0.581
14.2714	0.601
14.3122	0.616
14.3531	0.625
14.3939	0.638
14.4347	0.642
14.4756	0.642
14.5164	0.645
14.5573	0.644
14.5981	0.64
14.6389	0.642
14.6798	0.638
14.7206	0.63
14.7614	0.632
14.8023	0.622
14.8431	0.618
14.884	0.618
14.9248	0.606
14.9656	0.6
15.0065	0.586
15.0473	0.562
15.0882	0.566
15.129	0.581
15.1698	0.586
15.2107	0.583
15.2515	0.571
15.2923	0.562
15.3332	0.554
15.374	0.552
15.4149	0.54
15.4557	0.532
15.4965	0.525
15.5374	0.525
15.5782	0.518
15.619	0.52
15.6599	0.516
15.7007	0.515
15.7416	0.513
15.7824	0.513
15.8232	0.506
15.8641	0.501
15.9049	0.498
15.9457	0.494
15.9866	0.494
