Infrared Spectrum: Octanal
Formula: C 8 H 16 O
CAS: 124-13-0
State: gas
Instrument: HP-GC/MS/IRD
Origin: NIST Mass Spectrometry Data Center
1/CM	ABSORBANCE
550	0.0002788
562	4.51e-05
574	0.0001148
586	6.56e-05
598	3.69e-05
610	3.28e-05
622	7.38e-05
634	0.0001558
646	0.0002214
658	0.0003239
670	0.00041
682	0.0004305
694	0.0004182
706	0.0005617
718	0.0007872
730	0.000738
742	0.0007093
754	0.0005617
766	0.0005658
778	0.0005084
790	0.0005084
802	0.0005904
814	0.0005822
826	0.000533
838	0.0006232
850	0.0007052
862	0.0007011
874	0.000697
886	0.0007954
898	0.0006601
910	0.0005699
922	0.0005699
934	0.0006724
946	0.0009635
958	0.0011193
970	0.0011603
982	0.0011726
994	0.0011316
1006	0.0011685
1018	0.0011931
1030	0.0012218
1042	0.00123
1054	0.0012136
1066	0.0010496
1078	0.0009307
1090	0.0008569
1102	0.0008036
1114	0.000861
1126	0.0009266
1138	0.0008651
1150	0.0007134
1162	0.0006888
1174	0.0007503
1186	0.0007626
1198	0.0006888
1210	0.0006355
1222	0.000574
1234	0.0006191
1246	0.0006765
1258	0.0007626
1270	0.0007995
1282	0.000861
1294	0.0009758
1306	0.0010742
1318	0.0011644
1330	0.0013776
1342	0.0018614
1354	0.0021279
1366	0.001927
1378	0.0021197
1390	0.0025748
1402	0.0021279
1414	0.0023247
1426	0.0024518
1438	0.0025133
1450	0.0035137
1462	0.0042558
1474	0.0030463
1486	0.0014965
1498	0.0007585
1510	0.0004715
1522	0.000328
1534	0.0002337
1546	0.0001763
1558	0.0001722
1570	0.0001476
1582	0.0001312
1594	0.0001722
1606	0.0001722
1618	0.0002173
1630	0.0002911
1642	0.0003977
1654	0.0005986
1666	0.0009143
1678	0.0014637
1690	0.0023985
1702	0.0039647
1714	0.00656
1726	0.0126977
1738	0.0238784
1750	0.0205697
1762	0.0101885
1774	0.0054735
1786	0.0031406
1798	0.0018778
1810	0.0011521
1822	0.000779
1834	0.0005289
1846	0.0003813
1858	0.000287
1870	0.0002214
1882	0.0001476
1894	0.0001312
1906	0.0001025
1918	0.0001025
1930	6.97e-05
1942	6.97e-05
1954	4.51e-05
1966	4.1e-05
1978	2.46e-05
1990	3.69e-05
2002	2.05e-05
2014	4.1e-05
2026	6.15e-05
2038	4.92e-05
2050	4.92e-05
2062	2.87e-05
2074	2.46e-05
2086	3.28e-05
2098	2.46e-05
2110	2.05e-05
2122	0
2134	1.64e-05
2146	2.46e-05
2158	2.05e-05
2170	2.87e-05
2182	3.69e-05
2194	3.69e-05
2206	3.28e-05
2218	4.51e-05
2230	8.2e-06
2242	3.28e-05
2254	2.46e-05
2266	3.69e-05
2278	3.28e-05
2290	3.28e-05
2302	2.05e-05
2314	4.92e-05
2326	1.64e-05
2338	4.1e-06
2350	1.64e-05
2362	8.2e-06
2374	8.2e-06
2386	2.05e-05
2398	2.05e-05
2410	3.69e-05
2422	2.87e-05
2434	2.05e-05
2446	1.64e-05
2458	1.64e-05
2470	2.87e-05
2482	1.64e-05
2494	2.87e-05
2506	6.97e-05
2518	7.79e-05
2530	0.0001107
2542	0.0001353
2554	0.000164
2566	0.0002337
2578	0.0003157
2590	0.0004018
2602	0.0005412
2614	0.0006888
2626	0.0009184
2638	0.0012505
2650	0.0016564
2662	0.002132
2674	0.0029356
2686	0.0043337
2698	0.0070725
2710	0.0100286
2722	0.0073103
2734	0.0048585
2746	0.0039606
2758	0.0035875
2770	0.0035711
2782	0.0041328
2794	0.0055801
2806	0.0074989
2818	0.0072775
2830	0.0060024
2842	0.0069454
2854	0.0114226
2866	0.0164902
2878	0.0167608
2890	0.0151823
2902	0.0160228
2914	0.0225377
2926	0.0350632
2938	0.041
2950	0.0323203
2962	0.0246205
2974	0.0186017
2986	0.0085403
2998	0.0043337
3010	0.002747
3022	0.0020213
3034	0.0015293
3046	0.0011972
3058	0.0009307
3070	0.0007831
3082	0.0006437
3094	0.0006109
3106	0.0005535
3118	0.0005002
3130	0.0004387
3142	0.0003608
3154	0.0003567
3166	0.0002706
3178	0.0002665
3190	0.000205
3202	0.0001927
3214	0.000164
3226	0.0001066
3238	9.02e-05
3250	8.2e-05
3262	8.2e-05
3274	8.61e-05
3286	3.28e-05
3298	6.15e-05
3310	1.23e-05
3322	3.28e-05
3334	7.38e-05
3346	5.74e-05
3358	0.0001107
3370	8.2e-05
3382	8.61e-05
3394	0.0001271
3406	0.0001435
3418	0.0001722
3430	0.0002542
3442	0.0003444
3454	0.0004715
3466	0.000574
3478	0.0004551
3490	0.0002665
3502	0.000164
3514	0.0001312
3526	9.43e-05
3538	0.0001025
3550	6.56e-05
3562	6.56e-05
3574	9.43e-05
3586	7.79e-05
3598	9.43e-05
3610	8.2e-05
3622	0.0001189
3634	8.2e-05
3646	0.0001148
3658	0.0001107
3670	0.0001066
3682	0.0001189
3694	0.0001107
3706	0.0001353
3718	8.2e-05
3730	9.84e-05
3742	0.0001066
3754	0.0001066
3766	0.0001435
3778	0.0001804
3790	0.0001107
3802	0.0001558
3814	0.0001517
3826	0.0001599
3838	0.000205
