Infrared Spectrum: Methylvinyldichlorosilane
Formula: C3 H6 Cl2 Si
CAS: 124-70-9
State: SOLUTION (10% CCl4 FOR 3800-1300, 2% CS2 FOR 1300-620, AND 10% CCl4 FOR 620-240) VS SOLVENT
Boiling point: 90 C
Class: COBLENTZ III
Instrument: PERKIN-ELMER 521 (GRATING)
Instrument parameters: FILTERS AT 3150, 2500, 2000, 1150, 700, 410. GRATING CHANGES: 2000, 630
Path length: 0.011 CM, 0.011 CM, AND 0.012 CM
Resolution: 2
Origin: DOW CORNING CORP.
1/CM	TRANSMITTANCE
242	0.8768
251	0.876
260	0.8761
269	0.8712
278	0.8664
287	0.8708
296	0.8781
305	0.8842
314	0.8911
323	0.888
332	0.8828
341	0.8716
350	0.8401
359	0.7726
368	0.776
377	0.8759
386	0.8827
395	0.8835
404	0.8798
413	0.875
422	0.8761
431	0.8622
440	0.8355
449	0.6619
458	0.3109
467	0.5422
476	0.405
485	0.4776
494	0.617
503	0.5938
512	0.4478
521	0.395
530	0.4892
539	0.418
548	0.0835
557	0.0001
566	0.0468
575	0.4214
584	0.6291
593	0.6395
602	0.7214
611	0.7595
620	0.8557
629	0.8538
638	0.8489
647	0.8381
656	0.8123
665	0.6832
674	0.59
683	0.8285
692	0.8494
701	0.8501
710	0.8446
719	0.8337
728	0.8139
737	0.7416
746	0.5774
755	0.6307
764	0.6589
773	0.6909
782	0.371
791	0.5172
800	0.3871
809	0.6617
818	0.8066
827	0.8438
836	0.8563
845	0.8622
854	0.8645
863	0.8655
872	0.8661
881	0.866
890	0.8654
899	0.8645
908	0.8629
917	0.8603
926	0.8576
935	0.8522
944	0.8262
953	0.732
962	0.6436
971	0.811
980	0.7907
989	0.6913
998	0.7209
1007	0.8139
1016	0.8309
1025	0.8427
1034	0.8408
1043	0.8385
1052	0.8357
1061	0.8345
1070	0.8339
1079	0.8369
1088	0.8412
1097	0.8461
1106	0.8491
1115	0.8529
1124	0.8563
1133	0.8573
1142	0.8568
1151	0.8573
1160	0.8589
1169	0.8594
1178	0.8598
1187	0.86
1196	0.8615
1205	0.8584
1214	0.8544
1223	0.8498
1232	0.8378
1241	0.7934
1250	0.5927
1259	0.8079
1268	0.8447
1277	0.857
1286	0.8606
1295	0.8551
1304	0.8382
1313	0.8369
1322	0.8318
1331	0.8245
1340	0.8161
1349	0.8136
1358	0.8045
1367	0.7856
1376	0.7695
1385	0.6694
1394	0.2878
1403	0.4062
1412	0.7045
1421	0.7646
1430	0.7941
1439	0.8118
1448	0.8234
1457	0.8316
1466	0.8347
1475	0.8343
1484	0.8324
1493	0.8363
1502	0.8434
1511	0.8541
1520	0.8671
1529	0.8775
1538	0.8749
1547	0.8671
1556	0.8541
1565	0.8479
1574	0.8381
1583	0.7854
1592	0.5063
1601	0.8219
1610	0.8439
1619	0.8504
1628	0.8538
1637	0.8546
1646	0.8539
1655	0.8532
1664	0.8541
1673	0.853
1682	0.8537
1691	0.8542
1700	0.8538
1709	0.854
1718	0.8542
1727	0.8556
1736	0.8596
1745	0.8618
1754	0.862
1763	0.8609
1772	0.8612
1781	0.8624
1790	0.8615
1799	0.8628
1808	0.8639
1817	0.8642
1826	0.863
1835	0.8617
1844	0.862
1853	0.8639
1862	0.8655
1871	0.8653
1880	0.8639
1889	0.8616
1898	0.8582
1907	0.8524
1916	0.8342
1925	0.8069
1934	0.8007
1943	0.8139
1952	0.8489
1961	0.8571
1970	0.8578
1979	0.8579
1988	0.8572
1997	0.8618
2006	0.8771
2015	0.8848
2024	0.8848
2033	0.8843
2042	0.8835
2051	0.8821
2060	0.8807
2069	0.8802
2078	0.886
2087	0.8923
2096	0.894
2105	0.8937
2114	0.8936
2123	0.8935
2132	0.8933
2141	0.8929
2150	0.8926
2159	0.892
2168	0.8914
2177	0.8905
2186	0.8893
2195	0.8882
2204	0.8881
2213	0.8884
2222	0.8891
2231	0.8898
2240	0.8884
2249	0.8829
2258	0.8742
2267	0.8722
2276	0.887
2285	0.8932
2294	0.8938
2303	0.8943
2312	0.8948
2321	0.8952
2330	0.8955
2339	0.8952
2348	0.8946
2357	0.8938
2366	0.8931
2375	0.893
2384	0.8919
2393	0.8915
2402	0.8933
2411	0.8955
2420	0.8957
2429	0.895
2438	0.8949
2447	0.8948
2456	0.8937
2465	0.8917
2474	0.8931
2483	0.8976
2492	0.8908
2501	0.8904
2510	0.8906
2519	0.8906
2528	0.8904
2537	0.8903
2546	0.8911
2555	0.8914
2564	0.8917
2573	0.8922
2582	0.8929
2591	0.8937
2600	0.8937
2609	0.8935
2618	0.893
2627	0.8924
2636	0.8917
2645	0.8897
2654	0.8862
2663	0.8837
2672	0.8883
2681	0.8931
2690	0.8933
2699	0.8929
2708	0.8925
2717	0.8922
2726	0.8918
2735	0.891
2744	0.8901
2753	0.8889
2762	0.8868
2771	0.8841
2780	0.8809
2789	0.8783
2798	0.8792
2807	0.8797
2816	0.8784
2825	0.8755
2834	0.8787
2843	0.8797
2852	0.8793
2861	0.8786
2870	0.8766
2879	0.874
2888	0.872
2897	0.8679
2906	0.8589
2915	0.8553
2924	0.8519
2933	0.8408
2942	0.8209
2951	0.7733
2960	0.6866
2969	0.7191
2978	0.735
2987	0.7598
2996	0.8216
3005	0.8195
3014	0.7978
3023	0.7761
3032	0.8308
3041	0.8498
3050	0.8439
3059	0.8054
3068	0.711
3077	0.7526
3086	0.8674
3095	0.8765
3104	0.8778
3113	0.8787
3122	0.8787
3131	0.8854
3140	0.8698
3149	0.8716
3158	0.8734
3167	0.8721
3176	0.8701
3185	0.866
3194	0.8718
3203	0.8767
3212	0.8767
3221	0.8773
3230	0.8813
3239	0.884
3248	0.8852
3257	0.8859
3266	0.8863
3275	0.8865
3284	0.8871
3293	0.8876
3302	0.8882
3311	0.8888
3320	0.8894
3329	0.8895
3338	0.8895
3347	0.8894
3356	0.8902
3365	0.8919
3374	0.893
3383	0.894
3392	0.895
3401	0.8961
3410	0.8965
3419	0.8965
3428	0.8965
3437	0.8965
3446	0.8965
3455	0.8966
3464	0.8968
3473	0.897
3482	0.897
3491	0.8968
3500	0.8963
3509	0.8956
3518	0.8948
3527	0.8946
3536	0.8948
3545	0.8967
3554	0.8981
3563	0.8966
3572	0.8954
3581	0.895
3590	0.896
3599	0.8974
3608	0.899
3617	0.9002
3626	0.9003
3635	0.9
3644	0.8985
3653	0.896
3662	0.8924
3671	0.8895
3680	0.887
3689	0.8854
3698	0.8839
3707	0.8892
3716	0.8917
3725	0.8911
3734	0.8907
3743	0.8917
3752	0.8954
3761	0.8966
3770	0.8926
3779	0.8919
3788	0.8958
3797	0.8987
3806	0.9018
3815	0.9031
