Infrared Spectrum: PHOSPHONIUM, CHLORO-TETRAKIS(HYDROXYMETHYL)-
Formula: C4 H12 Cl O4 P
CAS: 124-64-1
State: LIQUID (NEAT)
Class: COBLENTZ
Instrument: Not specified, most likely a prism, grating, or hybrid spectrometer.
Sampling: TRANSMISSION
Path length: CAPILLARY
Resolution: 4
Origin: PERKIN-ELMER CORP.
1/CM	TRANSMITTANCE
240.573	0.582
250.12	0.656
259.666	0.709
269.213	0.756
278.759	0.771
288.306	0.782
297.852	0.784
307.399	0.778
316.945	0.766
326.492	0.764
336.038	0.756
345.585	0.737
355.131	0.709
364.678	0.682
374.224	0.649
383.771	0.626
393.318	0.601
402.864	0.588
412.411	0.592
421.957	0.568
431.504	0.501
441.05	0.491
450.597	0.518
460.143	0.535
469.69	0.555
479.236	0.565
488.783	0.563
498.329	0.556
507.876	0.547
517.423	0.538
526.969	0.528
536.516	0.523
546.062	0.515
555.609	0.51
565.155	0.508
574.702	0.503
584.248	0.501
593.795	0.5
603.341	0.501
612.888	0.503
622.434	0.509
631.981	0.522
641.527	0.541
651.074	0.556
660.621	0.571
670.167	0.592
679.714	0.612
689.26	0.625
698.807	0.63
708.353	0.638
717.9	0.645
727.446	0.653
736.993	0.689
746.539	0.714
756.086	0.723
765.632	0.729
775.179	0.738
784.726	0.747
794.272	0.74
803.819	0.708
813.365	0.691
822.912	0.699
832.458	0.699
842.005	0.668
851.551	0.628
861.098	0.532
870.644	0.471
880.191	0.464
889.737	0.461
899.284	0.459
908.83	0.442
918.377	0.411
927.924	0.478
937.47	0.69
947.017	0.782
956.563	0.819
966.11	0.821
975.656	0.816
985.203	0.802
994.749	0.773
1004.3	0.71
1013.84	0.557
1023.39	0.298
1032.94	0.076
1042.48	0.056
1052.03	0.064
1061.58	0.129
1071.12	0.379
1080.67	0.568
1090.21	0.62
1099.76	0.626
1109.31	0.61
1118.85	0.606
1128.4	0.589
1137.95	0.587
1147.49	0.589
1157.04	0.561
1166.59	0.55
1176.13	0.508
1185.68	0.486
1195.23	0.481
1204.77	0.492
1214.32	0.538
1223.87	0.602
1233.41	0.652
1242.96	0.668
1252.51	0.668
1262.05	0.667
1271.6	0.664
1281.15	0.626
1290.69	0.554
1300.24	0.532
1309.78	0.577
1319.33	0.619
1328.88	0.638
1338.42	0.642
1347.97	0.62
1357.52	0.574
1367.06	0.521
1376.61	0.467
1386.16	0.419
1395.7	0.38
1405.25	0.341
1414.8	0.312
1424.34	0.321
1433.89	0.397
1443.44	0.503
1452.98	0.607
1462.53	0.677
1472.08	0.722
1481.62	0.761
1491.17	0.785
1500.72	0.801
1510.26	0.816
1519.81	0.825
1529.36	0.833
1538.9	0.838
1548.45	0.839
1557.99	0.838
1567.54	0.836
1577.09	0.825
1586.63	0.808
1596.18	0.783
1605.73	0.745
1615.27	0.704
1624.82	0.69
1634.37	0.7
1643.91	0.731
1653.46	0.775
1663.01	0.805
1672.55	0.838
1682.1	0.857
1691.65	0.87
1701.19	0.877
1710.74	0.885
1720.29	0.889
1729.83	0.889
1739.38	0.892
1748.93	0.892
1758.47	0.898
1768.02	0.9
1777.57	0.9
1787.11	0.901
1796.66	0.903
1806.2	0.904
1815.75	0.904
1825.3	0.904
1834.84	0.904
1844.39	0.904
1853.94	0.904
1863.48	0.901
1873.03	0.901
1882.58	0.901
1892.12	0.9
1901.67	0.898
1911.22	0.896
1920.76	0.894
1930.31	0.887
1939.86	0.892
1949.4	0.892
1958.95	0.891
1968.5	0.887
1978.04	0.884
1987.59	0.88
1997.14	0.876
2006.68	0.8705
2016.23	0.8665
2025.78	0.8605
2035.32	0.851
2044.87	0.833
2054.41	0.8165
2063.96	0.8005
2073.51	0.796
2083.05	0.8015
2092.6	0.8141
2102.15	0.8316
2111.69	0.8425
2121.24	0.852
2130.79	0.8565
2140.33	0.8601
2149.88	0.8615
2159.43	0.8635
2168.97	0.8635
2178.52	0.864
2188.07	0.862
2197.61	0.862
2207.16	0.862
2216.71	0.859
2226.25	0.858
2235.8	0.857
2245.35	0.858
2254.89	0.857
2264.44	0.856
2273.99	0.8524
2283.53	0.852
2293.08	0.8484
2302.62	0.8444
2312.17	0.8408
2321.72	0.8369
2331.26	0.8334
2340.81	0.829
2350.36	0.829
2359.9	0.829
2369.45	0.829
2379	0.8284
2388.54	0.828
2398.09	0.828
2407.64	0.8244
2417.18	0.822
2426.73	0.8194
2436.28	0.8178
2445.82	0.815
2455.37	0.814
2464.92	0.812
2474.46	0.811
2484.01	0.808
2493.56	0.807
2503.1	0.803
2512.65	0.8004
2522.19	0.791
2531.74	0.7801
2541.29	0.7652
2550.83	0.7481
2560.38	0.7238
2569.93	0.7004
2579.47	0.6809
2589.02	0.6667
2598.57	0.659
2608.11	0.657
2617.66	0.6603
2627.21	0.6659
2636.75	0.6717
2646.3	0.681
2655.85	0.6897
2665.39	0.698
2674.94	0.699
2684.49	0.7
2694.03	0.6967
2703.58	0.6847
2713.13	0.6756
2722.67	0.657
2732.22	0.6356
2741.77	0.6096
2751.31	0.5765
2760.86	0.5368
2770.4	0.5009
2779.95	0.4681
2789.5	0.4362
2799.04	0.4122
2808.59	0.3973
2818.14	0.391
2827.68	0.388
2837.23	0.389
2846.78	0.391
2856.32	0.3954
2865.87	0.398
2875.42	0.3889
2884.96	0.3653
2894.51	0.3181
2904.06	0.2817
2913.6	0.2849
2923.15	0.3268
2932.7	0.347
2942.24	0.3423
2951.79	0.336
2961.34	0.3357
2970.88	0.34
2980.43	0.3403
2989.98	0.3288
2999.52	0.3128
3009.07	0.2903
3018.61	0.2715
3028.16	0.2475
3037.71	0.2227
3047.25	0.1902
3056.8	0.1685
3066.35	0.146
3075.89	0.1297
3085.44	0.1057
3094.99	0.0945
3104.53	0.0787
3114.08	0.0702
3123.63	0.059
3133.17	0.0532
3142.72	0.049
3152.27	0.047
3161.81	0.045
3171.36	0.042
3180.91	0.04
3190.45	0.04
3200	0.039
3209.55	0.039
3219.09	0.038
3228.64	0.039
3238.19	0.0388
3247.73	0.038
3257.28	0.038
3266.82	0.039
3276.37	0.039
3285.92	0.038
3295.46	0.039
3305.01	0.04
3314.56	0.04
3324.1	0.04
3333.65	0.042
3343.2	0.043
3352.74	0.044
3362.29	0.047
3371.84	0.0478
3381.38	0.0498
3390.93	0.0528
3400.48	0.0578
3410.02	0.063
3419.57	0.0679
3429.12	0.0718
3438.66	0.077
3448.21	0.0887
3457.76	0.0959
3467.3	0.1044
3476.85	0.1236
3486.4	0.1376
3495.94	0.1495
3505.49	0.1693
3515.03	0.1905
3524.58	0.2104
3534.13	0.2335
3543.67	0.2663
3553.22	0.2932
3562.77	0.3142
3572.31	0.3463
3581.86	0.376
3591.41	0.4073
3600.95	0.4355
3610.5	0.4706
3620.05	0.5091
3629.59	0.5482
3639.14	0.5725
3648.69	0.6064
3658.23	0.6255
3667.78	0.6467
3677.33	0.6588
3686.87	0.67
3696.42	0.6769
3705.97	0.6809
3715.51	0.6838
3725.06	0.6869
3734.6	0.689
3744.15	0.691
3753.7	0.69
3763.24	0.691
3772.79	0.691
3782.34	0.691
3791.88	0.691
3801.43	0.6919
3810.98	0.692
3820.52	0.692
3830.07	0.6939
3839.62	0.696
3849.16	0.698
3858.71	0.696
3868.26	0.696
3877.8	0.696
3887.35	0.698
3896.9	0.699
3906.44	0.699
3915.99	0.698
3925.54	0.695
3935.08	0.691
3944.63	0.687
3954.18	0.687
3963.72	0.689
3973.27	0.691
3982.81	0.694
3992.36	0.696
