Infrared Spectrum: 1-Nonene
Formula: C 9 H 18
CAS: 124-11-8
State: gas
Instrument: HP-GC/MS/IRD
Origin: NIST Mass Spectrometry Data Center
1/CM	ABSORBANCE
550	0.0003888
562	5.76e-05
574	0
586	0.0001296
598	0.00027
610	0.000216
622	0.0004788
634	0.0005436
646	0.0003528
658	0.0002052
670	0.0001728
682	0.0001872
694	0.0002052
706	0.0003636
718	0.0005436
730	0.0005076
742	0.0003852
754	0.0003564
766	0.0002916
778	0.0003312
790	0.0002412
802	0.0002124
814	0.0002628
826	0.0003312
838	0.0003492
850	0.0004896
862	0.00054
874	0.0008856
886	0.0012996
898	0.0025164
910	0.0047592
922	0.0037512
934	0.0019692
946	0.0013284
958	0.0011196
970	0.0011592
982	0.0017316
994	0.002214
1006	0.0015372
1018	0.0010188
1030	0.0006876
1042	0.0005724
1054	0.0004716
1066	0.0003816
1078	0.0003996
1090	0.0002844
1102	0.0003096
1114	0.000288
1126	0.0002484
1138	0.0002484
1150	0.0001944
1162	0.0001764
1174	0.0001764
1186	0.0001908
1198	0.000198
1210	0.0002232
1222	0.00018
1234	0.0002088
1246	0.0002988
1258	0.0003312
1270	0.00036
1282	0.000468
1294	0.0006048
1306	0.0006588
1318	0.0006372
1330	0.000738
1342	0.0009504
1354	0.00099
1366	0.0009
1378	0.0009864
1390	0.0009468
1402	0.0008244
1414	0.0009432
1426	0.0011628
1438	0.001854
1450	0.0028116
1462	0.0030636
1474	0.0021132
1486	0.0010692
1498	0.0005364
1510	0.0002772
1522	0.0002124
1534	0.0002484
1546	0.0001908
1558	5.4e-05
1570	0.0001764
1582	0.0002124
1594	0.0002736
1606	0.0004068
1618	0.000648
1630	0.0014292
1642	0.0021168
1654	0.000846
1666	0.0003348
1678	0.0001836
1690	0.000108
1702	7.2e-06
1714	1.8e-05
1726	7.2e-05
1738	3.96e-05
1750	3.24e-05
1762	3.96e-05
1774	3.96e-05
1786	7.2e-05
1798	9.36e-05
1810	0.0002196
1822	0.000468
1834	0.0004716
1846	0.0002124
1858	0.0001368
1870	8.64e-05
1882	8.28e-05
1894	4.32e-05
1906	5.76e-05
1918	4.68e-05
1930	3.96e-05
1942	2.88e-05
1954	5.76e-05
1966	9e-05
1978	8.64e-05
1990	6.12e-05
2002	5.76e-05
2014	6.48e-05
2026	5.04e-05
2038	6.84e-05
2050	5.76e-05
2062	4.32e-05
2074	3.6e-05
2086	4.68e-05
2098	2.52e-05
2110	1.44e-05
2122	1.8e-05
2134	1.8e-05
2146	2.16e-05
2158	1.8e-05
2170	3.6e-05
2182	4.68e-05
2194	3.24e-05
2206	1.44e-05
2218	2.52e-05
2230	4.68e-05
2242	2.16e-05
2254	1.8e-05
2266	2.52e-05
2278	3.96e-05
2290	5.04e-05
2302	2.16e-05
2314	2.16e-05
2326	2.52e-05
2338	2.16e-05
2350	3.6e-06
2362	0
2374	3.96e-05
2386	2.52e-05
2398	6.48e-05
2410	5.04e-05
2422	5.76e-05
2434	4.68e-05
2446	5.4e-05
2458	3.96e-05
2470	3.96e-05
2482	4.32e-05
2494	2.16e-05
2506	6.12e-05
2518	6.48e-05
2530	0.0001008
2542	0.0001008
2554	0.0001152
2566	0.000126
2578	0.0001476
2590	0.0001368
2602	0.000162
2614	0.0001692
2626	0.00018
2638	0.0002232
2650	0.0002556
2662	0.0003024
2674	0.0003456
2686	0.0003744
2698	0.000378
2710	0.0003528
2722	0.0003816
2734	0.0004428
2746	0.0005076
2758	0.000522
2770	0.0005688
2782	0.0007056
2794	0.000954
2806	0.00126
2818	0.0016956
2830	0.0025992
2842	0.0048204
2854	0.0095436
2866	0.0130284
2878	0.012024
2890	0.0103536
2902	0.0118692
2914	0.0194148
2926	0.0320688
2938	0.0346356
2950	0.0231516
2962	0.017226
2974	0.0139932
2986	0.0076644
2998	0.005004
3010	0.0037368
3022	0.0024804
3034	0.0018324
3046	0.001584
3058	0.0016956
3070	0.0023112
3082	0.003456
3094	0.0026964
3106	0.0011052
3118	0.0006948
3130	0.0005112
3142	0.0004536
3154	0.0003564
3166	0.0002952
3178	0.0002556
3190	0.000252
3202	0.0002232
3214	0.0001548
3226	0.0001512
3238	0.00018
3250	9e-05
3262	0.0001044
3274	9.36e-05
3286	7.92e-05
3298	8.28e-05
3310	0.0001116
3322	0.0001044
3334	0.0001476
3346	0.0001116
3358	0.0001044
3370	0.0001368
3382	9.72e-05
3394	0.000108
3406	0.0001152
3418	0.0001188
3430	7.2e-05
3442	8.28e-05
3454	8.28e-05
3466	6.48e-05
3478	0.0001044
3490	7.56e-05
3502	6.48e-05
3514	7.2e-05
3526	0.0001008
3538	6.84e-05
3550	7.2e-05
3562	5.04e-05
3574	2.88e-05
3586	3.96e-05
3598	0.0001188
3610	6.84e-05
3622	0.0001296
3634	0.0001368
3646	8.64e-05
3658	0.0001728
3670	5.04e-05
3682	0.0001296
3694	0.0001404
3706	0.0001476
3718	0.0001404
3730	0.000108
3742	5.4e-05
3754	9e-05
3766	0.0001836
3778	0.00018
3790	0.0001764
3802	0.000126
3814	9e-05
3826	0.0001656
3838	0.0001188
