Infrared Spectrum: d-Camphoric acid
Formula: C 10 H 16 O 4
CAS: 124-83-4
State: gas
Instrument: HP-GC/MS/IRD
Origin: NIST Mass Spectrometry Data Center
1/CM	ABSORBANCE
550	0.0016605
562	0.002835
574	0.0035586
586	0.0041337
598	0.0037233
610	0.0026541
622	0.0023463
634	0.0023247
646	0.002133
658	0.0017982
670	0.0014472
682	0.0009396
694	0.0006129
706	0.0005157
718	0.0006561
730	0.000891
742	0.0010773
754	0.0009369
766	0.0013986
778	0.0012123
790	0.0005697
802	0.0003078
814	0.0001053
826	7.02e-05
838	1.62e-05
850	0.0001215
862	4.86e-05
874	2.97e-05
886	3.78e-05
898	0.0001242
910	0.0001512
922	0.0001215
934	0.0003753
946	0.0006588
958	0.000837
970	0.0007641
982	0.0009693
994	0.0010827
1006	0.000891
1018	0.00081
1030	0.0011394
1042	0.0019332
1054	0.0023031
1066	0.0036585
1078	0.0072522
1090	0.0103032
1102	0.0091746
1114	0.0093717
1126	0.0109053
1138	0.0096066
1150	0.006939
1162	0.0049842
1174	0.0035721
1186	0.0027405
1198	0.001998
1210	0.0017685
1222	0.0020439
1234	0.001539
1246	0.0010503
1258	0.0009855
1270	0.001188
1282	0.0016038
1294	0.0019008
1306	0.0020115
1318	0.0016227
1330	0.0013419
1342	0.0012096
1354	0.0013689
1366	0.0018495
1378	0.0027162
1390	0.0025002
1402	0.0013257
1414	0.0006021
1426	0.0004563
1438	0.0005373
1450	0.0010773
1462	0.0018576
1474	0.0016659
1486	0.0010395
1498	0.000432
1510	0.0002484
1522	0.0001809
1534	0.0001701
1546	0.0001512
1558	0.0002079
1570	6.75e-05
1582	8.64e-05
1594	6.48e-05
1606	2.97e-05
1618	7.83e-05
1630	9.72e-05
1642	0.0001026
1654	0.0001512
1666	0.0001647
1678	0.0002214
1690	0.0004347
1702	0.0008721
1714	0.0016821
1726	0.0027135
1738	0.0044361
1750	0.0130356
1762	0.027
1774	0.0173826
1786	0.0057996
1798	0.0031266
1810	0.0018279
1822	0.0010503
1834	0.0005211
1846	0.0002943
1858	0.0001728
1870	9.99e-05
1882	8.1e-05
1894	6.48e-05
1906	5.94e-05
1918	4.59e-05
1930	2.43e-05
1942	1.89e-05
1954	2.7e-05
1966	3.51e-05
1978	2.43e-05
1990	4.59e-05
2002	3.78e-05
2014	8.1e-06
2026	1.62e-05
2038	4.86e-05
2050	3.78e-05
2062	3.51e-05
2074	5.13e-05
2086	5.67e-05
2098	1.89e-05
2110	3.78e-05
2122	3.78e-05
2134	4.05e-05
2146	1.08e-05
2158	5.4e-05
2170	7.29e-05
2182	8.64e-05
2194	8.1e-05
2206	8.64e-05
2218	9.45e-05
2230	6.75e-05
2242	8.37e-05
2254	1.89e-05
2266	8.1e-05
2278	5.4e-05
2290	8.1e-05
2302	9.72e-05
2314	7.83e-05
2326	6.48e-05
2338	0.000108
2350	0.0001188
2362	0.000135
2374	8.64e-05
2386	6.48e-05
2398	4.05e-05
2410	7.83e-05
2422	6.75e-05
2434	6.48e-05
2446	3.78e-05
2458	5.13e-05
2470	7.29e-05
2482	5.13e-05
2494	8.1e-05
2506	5.4e-05
2518	4.59e-05
2530	6.48e-05
2542	4.32e-05
2554	4.59e-05
2566	8.1e-06
2578	5.13e-05
2590	4.86e-05
2602	3.51e-05
2614	8.37e-05
2626	6.75e-05
2638	6.75e-05
2650	9.99e-05
2662	8.64e-05
2674	7.29e-05
2686	9.72e-05
2698	7.56e-05
2710	7.56e-05
2722	9.99e-05
2734	0.0001242
2746	0.0001215
2758	0.0001404
2770	0.0001485
2782	0.0001323
2794	0.0001755
2806	0.0001323
2818	0.000216
2830	0.0002403
2842	0.000324
2854	0.0003996
2866	0.0005346
2878	0.001026
2890	0.0018603
2902	0.0021141
2914	0.0018198
2926	0.002133
2938	0.0027675
2950	0.0035046
2962	0.0042039
2974	0.0058077
2986	0.0062937
2998	0.0038367
3010	0.0017523
3022	0.0006561
3034	0.0003645
3046	0.0002619
3058	0.0001944
3070	0.0002052
3082	0.0001701
3094	0.0001566
3106	0.0001836
3118	9.72e-05
3130	0.0001593
3142	0.0001296
3154	0.0001512
3166	0.0001296
3178	0.0001701
3190	0.000162
3202	0.0001998
3214	0.0001107
3226	7.29e-05
3238	4.32e-05
3250	5.4e-05
3262	2.43e-05
3274	6.75e-05
3286	7.56e-05
3298	3.78e-05
3310	4.86e-05
3322	6.48e-05
3334	3.78e-05
3346	0.000135
3358	1.89e-05
3370	0.0001593
3382	0
3394	3.78e-05
3406	8.91e-05
3418	0.0001431
3430	0.0001566
3442	0.0001458
3454	0.0001242
3466	0.0001296
3478	9.45e-05
3490	0.0002133
3502	0.0002727
3514	0.0002997
3526	0.0003726
3538	0.0004698
3550	0.0011529
3562	0.0081864
3574	0.0088992
3586	0.0011448
3598	0.0003807
3610	0.0002295
3622	0.000216
3634	0.0002511
3646	0.0001836
3658	6.21e-05
3670	0.0001269
3682	7.02e-05
3694	0.0001377
3706	0.000135
3718	9.18e-05
3730	7.56e-05
3742	0.0001323
3754	8.91e-05
3766	0.0001269
3778	0.0001323
3790	0.000108
3802	0.0001809
3814	6.48e-05
3826	8.64e-05
3838	0.000189
