Infrared Spectrum: Methylsulfonyl chloride
Formula: C H 3 Cl O 2 S
CAS: 124-63-0
State: gas
Origin: EPA-IR VAPOR PHASE LIBRARY
1/CM	ABSORBANCE
549.8	0.031245
559.445	0.011595
569.09	0.002655
578.734	0.001445
588.379	0.0005078
598.024	0.0007746
607.669	0.0007855
617.313	0.0007929
626.958	0.0008106
636.603	0.0007235
646.248	0.0005396
655.893	0.00045444
665.537	0.00042099
675.182	0.0006222
684.827	0.00049139
694.472	0.0006766
704.116	0.0012721
713.761	0.003355
723.406	0.007555
733.051	0.011625
742.695	0.013555
752.34	0.010185
761.985	0.005965
771.63	0.001725
781.275	0.0008945
790.919	0.0007154
800.564	0.0005983
810.209	0.0007371
819.854	0.0003341
829.498	0.00045639
839.143	0.0007946
848.788	0.000625
858.433	0.0006987
868.078	0.0007308
877.722	0.0008561
887.367	0.0006529
897.012	0.0006699
906.657	0.0007653
916.301	0.000834
925.946	0.000988
935.591	0.0013664
945.236	0.003345
954.88	0.006465
964.525	0.010055
974.17	0.007765
983.815	0.004505
993.46	0.001535
1003.1	0.0008197
1012.75	0.0006615
1022.39	0.0007328
1032.04	0.0008394
1041.68	0.0009136
1051.33	0.0008147
1060.97	0.0007469
1070.62	0.0009357
1080.26	0.0009502
1089.91	0.0011631
1099.55	0.001171
1109.2	0.0006375
1118.84	0.0010847
1128.49	0.0007143
1138.13	0.0008296
1147.78	0.002475
1157.42	0.006165
1167.07	0.017095
1176.71	0.027605
1186.36	0.036305
1196	0.024295
1205.64	0.014115
1215.29	0.002965
1224.93	0.000867
1234.58	0.0009371
1244.22	0.0005817
1253.87	0.00041462
1263.51	0.00023
1273.16	9.7e-05
1282.8	0.0005594
1292.45	0.0008013
1302.09	0.001645
1311.74	0.002675
1321.38	0.004165
1331.03	0.003165
1340.67	0.002845
1350.32	0.001855
1359.96	0.003755
1369.61	0.010665
1379.25	0.023695
1388.9	0.033405
1398.54	0.050255
1408.18	0.031015
1417.83	0.023405
1427.47	0.010225
1437.12	0.004305
1446.76	0.001565
1456.41	0.0009157
1466.05	0.0008915
1475.7	0.0008187
1485.34	0.0007234
1494.99	0.0006382
1504.63	0.0006174
1514.28	0.0006145
1523.92	0.0005859
1533.57	0.0005595
1543.21	0.000512
1552.86	0.0006245
1562.5	0.0006248
1572.15	0.0005237
1581.79	0.0005705
1591.44	0.0004951
1601.08	0.000616
1610.73	0.0005912
1620.37	0.0005554
1630.01	0.0005263
1639.66	0.00040824
1649.3	0.00042203
1658.95	0.00048258
1668.59	0.0005279
1678.24	0.00045817
1687.88	0.0003711
1697.53	0.00041475
1707.17	0.0003411
1716.82	0.000398665
1726.46	0.00041272
1736.11	0.0003351
1745.75	0.00041671
1755.4	0.00041728
1765.04	0.0003563
1774.69	0.00042063
1784.33	0.00043142
1793.98	0.0003742
1803.62	0.00042935
1813.27	0.00045834
1822.91	0.00047216
1832.55	0.00044976
1842.2	0.0003772
1851.84	0.0003803
1861.49	0.000336
1871.13	0.0003836
1880.78	0.00039356
1890.42	0.00045136
1900.07	0.0005185
1909.71	0.0005218
1919.36	0.00046715
1929	0.0004968
1938.65	0.000498
1948.29	0.0005396
1957.94	0.0005034
1967.58	0.0005097
1977.23	0.0005145
1986.87	0.00045659
1996.52	0.00046939
2006.16	0.0005052
2015.81	0.000534
2025.45	0.0005832
2035.1	0.0005603
2044.74	0.0006676
2054.38	0.0007553
2064.03	0.0005963
2073.67	0.0006738
2083.32	0.00043233
2092.96	0.0005569
2102.61	0.0005121
2112.25	0.00047833
2121.9	0.0005956
2131.54	0.0005407
2141.19	0.0005338
2150.83	0.0005527
2160.48	0.00048127
2170.12	0.00046329
2179.77	0.0006067
2189.41	0.00047902
2199.06	0.00041485
2208.7	0.00039239
2218.35	0.0003859
2227.99	0.0005015
2237.64	0.0004784
2247.28	0.00048091
2256.92	0.00039943
2266.57	0.0005467
2276.21	0.0006282
2285.86	0.0007511
2295.5	0.0006209
2305.15	0.0006592
2314.79	0.0006546
2324.44	0.00059
2334.08	0.0005423
2343.73	0.00048481
2353.37	0.0007159
2363.02	0.0006759
2372.66	0.0007924
2382.31	0.0007176
2391.95	0.00045299
2401.6	0.0005506
2411.24	0.0005584
2420.89	0.00045394
2430.53	0.00041953
2440.18	0.0005285
2449.82	0.00040629
2459.47	0.0005064
2469.11	0.0005354
2478.75	0.00048954
2488.4	0.0005487
2498.04	0.00048908
2507.69	0.0005162
2517.33	0.00046689
2526.98	0.00042815
2536.62	0.0006098
2546.27	0.0007273
2555.91	0.0007176
2565.56	0.0008155
2575.2	0.0008959
2584.85	0.0006742
2594.49	0.0006648
2604.14	0.0006119
2613.78	0.0005415
2623.43	0.0004951
2633.07	0.0005097
2642.72	0.00042499
2652.36	0.0005741
2662.01	0.00041466
2671.65	0.0005474
2681.29	0.0005411
2690.94	0.00045439
2700.58	0.0003827
2710.23	0.00040578
2719.87	0.00040989
2729.52	0.0005003
2739.16	0.0005556
2748.81	0.00044257
2758.45	0.0003635
2768.1	0.000589
2777.74	0.0006866
2787.39	0.0005954
2797.03	0.0005469
2806.68	0.0005022
2816.32	0.0005633
2825.97	0.0005219
2835.61	0.00044712
2845.26	0.0003689
2854.9	0.0004609
2864.55	0.0005969
2874.19	0.0005573
2883.84	0.00043218
2893.48	0.0006167
2903.12	0.00046269
2912.77	0.0005096
2922.41	0.0005215
2932.06	0.000307
2941.7	0.00044938
2951.35	0.000401154
2960.99	0.00042014
2970.64	0.0005737
2980.28	0.0005882
2989.93	0.0005027
2999.57	0.000279
3009.22	0.00047922
3018.86	0.0006023
3028.51	0.0007407
3038.15	0.0006314
3047.8	0.0003294
3057.44	0.0005198
3067.09	0.0003454
3076.73	0.0005863
3086.38	0.000400757
3096.02	0.00042235
3105.67	0.00044955
3115.31	0.0005072
3124.95	0.0006791
3134.6	0.000400851
3144.24	0.00046654
3153.89	0.000271
3163.53	0.00046059
3173.18	0.0005566
3182.82	0.0004982
3192.47	0.0007303
3202.11	0.00039692
3211.76	0.00044671
3221.4	0.00046034
3231.05	0.00044422
3240.69	0.000522
3250.34	0.0005649
3259.98	0.00045791
3269.63	0.0005674
3279.27	0.000403965
3288.92	0.0005139
3298.56	0.00025
3308.21	0.0003312
3317.85	0.0005174
3327.49	0.0005183
3337.14	0.0005522
3346.78	0.0004341
3356.43	0.0006655
3366.07	0.0003425
3375.72	0.0006181
3385.36	0.00027
3395.01	0.0003575
3404.65	0.00040986
3414.3	0.0005672
3423.94	0.000248
3433.59	0.00048446
3443.23	0.00040525
3452.88	0.0006734
3462.52	0.00021
3472.17	0.00044769
3481.81	0.0005242
3491.46	0.0004431
3501.1	0.000279
3510.75	0.00046295
3520.39	0.0005307
3530.04	0.0005636
3539.68	0.000395813
3549.32	0.00049341
3558.97	0.000266
3568.61	0.000275
3578.26	0.00045265
3587.9	0.0003501
3597.55	0.0005009
3607.19	0.0003023
3616.84	0.00057
3626.48	0.0003552
3636.13	0.0005447
3645.77	0.00024
3655.42	0.0003554
3665.06	0.0006309
3674.71	0.000399627
3684.35	0.0003792
3694	0.00047852
3703.64	0.000164
3713.29	0.0003426
3722.93	0.0007155
3732.58	0.0005494
3742.22	0.0005702
3751.86	0.00047484
3761.51	0.0003607
3771.15	0.000294
3780.8	0.0003533
3790.44	0.00048672
3800.09	0.000579
3809.73	0.0003669
3819.38	0.0003502
3829.02	0.0003687
3838.67	0.0003543
3848.31	0.000275
3857.96	0.0006516
3867.6	0.000175
3877.25	0.00044612
3886.89	0.000266
3896.54	0.0005105
3906.18	0.00047408
3915.83	0.00049161
3925.47	0.0007254
3935.12	0.000542
3944.76	0.0006485
3954.41	0.00041223
3964.05	0.0005049
3973.69	0.0005473
3983.34	0.0006236
3992.98	0.0003048
