Infrared Spectrum: PHOSPHORIC ACID, 2-ETHYLHEXYL DIPHENYL ESTER
Formula: C20 H27 O4 P
CAS: 1241-94-7
State: SOLUTION (10% IN CCl4 FOR 3800-1330, 10% IN CS2 FOR 1330-420 CM^-^1) VS. SOLVENT
Class: COBLENTZ III
Instrument: PERKIN-ELMER 180
Sampling: TRANSMISSION
Path length: 0.011, 0.011 CM
Resolution: 4
Origin: DOW CHEMICAL COMPANY
1/CM	TRANSMITTANCE
417.237	0.923
426.362	0.919
435.488	0.895
444.613	0.862
453.739	0.805
462.864	0.757
471.99	0.72
481.115	0.67
490.241	0.593
499.366	0.49
508.492	0.5
517.617	0.4171
526.743	0.444
535.868	0.6039
544.994	0.764
554.119	0.785
563.245	0.743
572.37	0.675
581.496	0.7
590.621	0.785
599.747	0.881
608.872	0.8791
617.998	0.7829
627.123	0.964
636.249	0.982
645.374	0.968
654.5	0.928
663.625	0.966
672.751	0.925
681.876	0.62
691.002	0.4811
700.127	0.93
709.253	0.947
718.378	0.889
727.504	0.798
736.629	0.767
745.755	0.5771
754.88	0.22
764.005	0.166
773.131	0.175
782.256	0.552
791.382	0.8379
800.507	0.844
809.633	0.798
818.758	0.8
827.884	0.838
837.009	0.84
846.135	0.808
855.26	0.767
864.386	0.766
873.511	0.814
882.637	0.844
891.762	0.7012
900.888	0.518
910.013	0.706
919.139	0.5921
928.264	0.2801
937.39	0.009
946.515	0
955.641	0.001
964.766	0.081
973.892	0.198
983.017	0.228
992.143	0.27
1001.27	0.1752
1010.39	0.116
1019.52	0.016
1028.64	0.038
1037.77	0.052
1046.9	0.13
1056.02	0.307
1065.15	0.404
1074.27	0.5968
1083.4	0.7409
1092.52	0.829
1101.65	0.83
1110.77	0.839
1119.9	0.861
1129.02	0.84
1138.15	0.781
1147.28	0.664
1156.4	0.3192
1165.53	0.3506
1174.65	0.4861
1183.78	0.0592
1192.9	0.011
1202.03	0.2259
1211.15	0.331
1220.28	0.182
1229.41	0.335
1238.53	0.51
1247.66	0.689
1256.78	0.696
1265.91	0.5921
1275.03	0.2931
1284.16	0.073
1293.28	0.088
1302.41	0.171
1311.53	0.224
1320.66	0.582
1329.79	0.707
1338.91	0.7359
1348.04	0.834
1357.16	0.848
1366.29	0.847
1375.41	0.7501
1384.54	0.756
1393.66	0.835
1402.79	0.879
1411.91	0.888
1421.04	0.881
1430.17	0.862
1439.29	0.7911
1448.42	0.677
1457.54	0.431
1466.67	0.461
1475.79	0.408
1484.92	0.0461
1494.04	0.125
1503.17	0.7
1512.3	0.809
1521.42	0.843
1530.55	0.859
1539.67	0.87
1548.8	0.869
1557.92	0.856
1567.05	0.815
1576.17	0.666
1585.3	0.325
1594.42	0.222
1603.55	0.586
1612.68	0.854
1621.8	0.883
1630.93	0.903
1640.05	0.901
1649.18	0.903
1658.3	0.909
1667.43	0.911
1676.55	0.91
1685.68	0.908
1694.81	0.907
1703.93	0.898
1713.06	0.879
1722.18	0.87
1731.31	0.894
1740.43	0.916
1749.56	0.921
1758.68	0.916
1767.81	0.904
1776.93	0.888
1786.06	0.904
1795.19	0.913
1804.31	0.919
1813.44	0.926
1822.56	0.925
1831.69	0.924
1840.81	0.916
1849.94	0.887
1859.06	0.879
1868.19	0.891
1877.31	0.89
1886.44	0.894
1895.57	0.898
1904.69	0.896
1913.82	0.89
1922.94	0.871
1932.07	0.841
1941.19	0.88
1950.32	0.879
1959.44	0.894
1968.57	0.909
1977.7	0.909
1986.82	0.909
1995.95	0.911
2005.07	0.914
2014.2	0.921
2023.32	0.927
2032.45	0.929
2041.57	0.9295
2050.7	0.933
2059.82	0.9295
2068.95	0.929
2078.08	0.9335
2087.2	0.932
2096.33	0.9345
2105.45	0.935
2114.58	0.936
2123.7	0.936
2132.83	0.9345
2141.95	0.933
2151.08	0.9356
2160.2	0.936
2169.33	0.9344
2178.46	0.934
2187.58	0.933
2196.71	0.933
2205.83	0.932
2214.96	0.93
2224.08	0.929
2233.21	0.927
2242.33	0.9264
2251.46	0.926
2260.59	0.9266
2269.71	0.9291
2278.84	0.932
2287.96	0.934
2297.09	0.9324
2306.21	0.9279
2315.34	0.9204
2324.46	0.9221
2333.59	0.927
2342.71	0.9236
2351.84	0.92
2360.97	0.9231
2370.09	0.9204
2379.22	0.9179
2388.34	0.918
2397.47	0.919
2406.59	0.9137
2415.72	0.9163
2424.84	0.921
2433.97	0.922
2443.09	0.9256
2452.22	0.929
2461.35	0.931
2470.47	0.932
2479.6	0.932
2488.72	0.9318
2497.85	0.931
2506.97	0.932
2516.1	0.932
2525.22	0.931
2534.35	0.93
2543.48	0.9288
2552.6	0.9256
2561.73	0.9238
2570.85	0.921
2579.98	0.9232
2589.1	0.924
2598.23	0.923
2607.35	0.921
2616.48	0.922
2625.6	0.9257
2634.73	0.928
2643.86	0.926
2652.98	0.9238
2662.11	0.922
2671.23	0.921
2680.36	0.9228
2689.48	0.9217
2698.61	0.92
2707.73	0.9187
2716.86	0.9162
2725.99	0.9115
2735.11	0.9068
2744.24	0.9113
2753.36	0.9122
2762.49	0.9107
2771.61	0.908
2780.74	0.907
2789.86	0.9044
2798.99	0.8954
2808.11	0.8864
2817.24	0.8731
2826.37	0.8418
2835.49	0.8013
2844.62	0.6894
2853.74	0.3877
2862.87	0.4182
2871.99	0.3991
2881.12	0.5125
2890.24	0.5334
2899.37	0.45
2908.49	0.362
2917.62	0.2622
2926.75	0.1613
2935.87	0.219
2945	0.3052
2954.12	0.1656
2963.25	0.1388
2972.37	0.3589
2981.5	0.6307
2990.62	0.7687
2999.75	0.8193
3008.88	0.844
3018	0.8361
3027.13	0.7918
3036.25	0.788
3045.38	0.732
3054.5	0.7834
3063.63	0.7337
3072.75	0.7244
3081.88	0.807
3091	0.8464
3100.13	0.8567
3109.26	0.9003
3118.38	0.9198
3127.51	0.9254
3136.63	0.9289
3145.76	0.9284
3154.88	0.9299
3164.01	0.929
3173.13	0.9281
3182.26	0.928
3191.38	0.9299
3200.51	0.9354
3209.64	0.939
3218.76	0.9415
3227.89	0.942
3237.01	0.942
3246.14	0.944
3255.26	0.944
3264.39	0.9479
3273.51	0.9475
3282.64	0.948
3291.77	0.946
3300.89	0.949
3310.02	0.948
3319.14	0.948
3328.27	0.948
3337.39	0.95
3346.52	0.95
3355.64	0.95
3364.77	0.951
3373.89	0.951
3383.02	0.95
3392.15	0.95
3401.27	0.949
3410.4	0.949
3419.52	0.951
3428.65	0.951
3437.77	0.951
3446.9	0.951
3456.02	0.9495
3465.15	0.949
3474.27	0.9475
3483.4	0.947
3492.53	0.947
3501.65	0.9491
3510.78	0.95
3519.9	0.9509
3529.03	0.949
3538.15	0.949
3547.28	0.9496
3556.4	0.951
3565.53	0.9516
3574.66	0.9605
3583.78	0.955
3592.91	0.951
3602.03	0.952
3611.16	0.95
3620.28	0.949
3629.41	0.948
3638.53	0.948
3647.66	0.946
3656.78	0.9466
3665.91	0.9449
3675.04	0.94
3684.16	0.9391
3693.29	0.9446
3702.41	0.947
3711.54	0.946
3720.66	0.9481
3729.79	0.95
3738.91	0.9501
3748.04	0.951
3757.16	0.951
3766.29	0.951
3775.42	0.95
3784.54	0.95
3793.67	0.95
3802.79	0.951
3811.92	0.948
3821.04	0.951
3830.17	0.951
3839.29	0.952
3848.42	0.951
3857.55	0.951
3866.67	0.952
3875.8	0.952
3884.92	0.952
3894.05	0.952
3903.17	0.9528
3912.3	0.952
3921.42	0.953
3930.55	0.952
3939.67	0.952
3948.8	0.952
3957.93	0.952
3967.05	0.952
3976.18	0.952
3985.3	0.9517
