Infrared Spectrum: 7, 7-DIMETHOXY-1, 4, 5, 6-TETRACHLOROBICYCLO [2. 2. 1]-5-HEPTENE-2-CARBOXYLIC ACID
Formula: C10 H10 Cl4 O4
CAS: 124715-79-3
State: SOLID (NUJOL MULL)
Class: COBLENTZ
Instrument: Not specified, most likely a grating spectrometer.
Sampling: TRANSMISSION
Path length: CsBr PLATES
Resolution: 4
Origin: STANDARD OIL OF OHIO
1/CM	TRANSMITTANCE
248.649	0.903
258.109	0.901
267.568	0.9
277.028	0.898
286.487	0.89
295.947	0.89
305.406	0.883
314.866	0.868
324.325	0.871
333.785	0.869
343.244	0.866
352.704	0.866
362.163	0.862
371.623	0.851
381.082	0.844
390.542	0.846
400.001	0.842
409.461	0.834
418.92	0.852
428.38	0.861
437.839	0.862
447.299	0.864
456.758	0.871
466.218	0.873
475.677	0.869
485.137	0.871
494.596	0.871
504.056	0.866
513.515	0.864
522.975	0.868
532.434	0.864
541.894	0.862
551.353	0.868
560.813	0.862
570.272	0.861
579.732	0.861
589.191	0.866
598.651	0.864
608.11	0.854
617.57	0.842
627.029	0.8
636.489	0.8489
645.948	0.866
655.408	0.861
664.867	0.849
674.327	0.803
683.786	0.644
693.246	0.7163
702.705	0.822
712.165	0.786
721.624	0.656
731.084	0.7459
740.543	0.788
750.003	0.803
759.462	0.798
768.922	0.771
778.381	0.673
787.841	0.4288
797.3	0.761
806.76	0.798
816.219	0.78
825.679	0.5982
835.138	0.729
844.598	0.651
854.057	0.5729
863.517	0.641
872.976	0.538
882.436	0.685
891.895	0.666
901.355	0.632
910.814	0.5579
920.274	0.3889
929.733	0.519
939.193	0.45
948.652	0.402
958.112	0.448
967.571	0.475
977.031	0.4141
986.49	0.279
995.95	0.336
1005.41	0.5021
1014.87	0.631
1024.33	0.659
1033.79	0.619
1043.25	0.5461
1052.71	0.502
1062.17	0.3681
1071.63	0.614
1081.09	0.576
1090.54	0.377
1100	0.3531
1109.46	0.517
1118.92	0.323
1128.38	0.252
1137.84	0.468
1147.3	0.358
1156.76	0.438
1166.22	0.3989
1175.68	0.387
1185.14	0.155
1194.6	0.162
1204.06	0.252
1213.52	0.301
1222.98	0.296
1232.44	0.4391
1241.9	0.164
1251.36	0.335
1260.82	0.323
1270.28	0.434
1279.74	0.34
1289.19	0.587
1298.65	0.573
1308.11	0.539
1317.57	0.593
1327.03	0.4991
1336.49	0.343
1345.95	0.499
1355.41	0.573
1364.87	0.51
1374.33	0.363
1383.79	0.5311
1393.25	0.664
1402.71	0.642
1412.17	0.575
1421.63	0.4011
1431.09	0.189
1440.55	0.252
1450.01	0.214
1459.47	0.184
1468.93	0.3801
1478.38	0.5491
1487.84	0.666
1497.3	0.697
1506.76	0.707
1516.22	0.741
1525.68	0.749
1535.14	0.751
1544.6	0.751
1554.06	0.746
1563.52	0.744
1572.98	0.722
1582.44	0.722
1591.9	0.698
1601.36	0.5508
1610.82	0.4937
1620.28	0.7
1629.74	0.683
1639.2	0.666
1648.66	0.651
1658.12	0.637
1667.57	0.607
1677.03	0.549
1686.49	0.402
1695.95	0.219
1705.41	0.0721
1714.87	0.223
1724.33	0.49
1733.79	0.615
1743.25	0.654
1752.71	0.676
1762.17	0.707
1771.63	0.702
1781.09	0.692
1790.55	0.68
1800.01	0.688
1809.47	0.688
1818.93	0.685
1828.39	0.692
1837.85	0.688
1847.31	0.69
1856.76	0.697
1866.22	0.698
1875.68	0.697
1885.14	0.703
1894.6	0.708
1904.06	0.707
1913.52	0.705
1922.98	0.712
1932.44	0.722
1941.9	0.725
1951.36	0.724
1960.82	0.725
1970.28	0.724
1979.74	0.725
1989.2	0.724
1998.66	0.714
2008.12	0.705
2017.58	0.701
2027.04	0.697
2036.5	0.697
2045.95	0.6999
2055.41	0.707
2064.87	0.708
2074.33	0.7092
2083.79	0.7071
2093.25	0.708
2102.71	0.7023
2112.17	0.698
2121.63	0.698
2131.09	0.6987
2140.55	0.698
2150.01	0.698
2159.47	0.6903
2168.93	0.683
2178.39	0.68
2187.85	0.6786
2197.31	0.6808
2206.77	0.68
2216.23	0.6734
2225.69	0.671
2235.14	0.67
2244.6	0.6655
2254.06	0.661
2263.52	0.6553
2272.98	0.6483
2282.44	0.6471
2291.9	0.644
2301.36	0.6406
2310.82	0.6299
2320.28	0.6265
2329.74	0.624
2339.2	0.624
2348.66	0.622
2358.12	0.6087
2367.58	0.6044
2377.04	0.5948
2386.5	0.5888
2395.96	0.5879
2405.42	0.5796
2414.88	0.5747
2424.34	0.5643
2433.79	0.5539
2443.25	0.5499
2452.71	0.539
2462.17	0.5299
2471.63	0.524
2481.09	0.524
2490.55	0.51
2500.01	0.4945
2509.47	0.4801
2518.93	0.4656
2528.39	0.4482
2537.85	0.4187
2547.31	0.406
2556.77	0.4123
2566.23	0.4373
2575.69	0.446
2585.15	0.446
2594.61	0.4398
2604.07	0.4197
2613.53	0.4109
2622.98	0.3975
2632.44	0.3694
2641.9	0.3647
2651.36	0.3845
2660.82	0.419
2670.28	0.437
2679.74	0.443
2689.2	0.4374
2698.66	0.4266
2708.12	0.419
2717.58	0.4074
2727.04	0.4005
2736.5	0.3875
2745.96	0.3825
2755.42	0.3986
2764.88	0.426
2774.34	0.4134
2783.8	0.3949
2793.26	0.3688
2802.72	0.3448
2812.17	0.3169
2821.63	0.2793
2831.09	0.2088
2840.55	0.0944
2850.01	0.0483
2859.47	0.0601
2868.93	0.0742
2878.39	0.098
2887.85	0.0753
2897.31	0.0533
2906.77	0.0303
2916.23	0.018
2925.69	0.0233
2935.15	0.0371
2944.61	0.0375
2954.07	0.0381
2963.53	0.069
2972.99	0.1574
2982.45	0.2036
2991.91	0.231
3001.36	0.2625
3010.82	0.2909
3020.28	0.3187
3029.74	0.3477
3039.2	0.3664
3048.66	0.3798
3058.12	0.3894
3067.58	0.4057
3077.04	0.414
3086.5	0.4208
3095.96	0.433
3105.42	0.445
3114.88	0.4557
3124.34	0.4724
3133.8	0.4811
3143.26	0.4916
3152.72	0.5007
3162.18	0.5095
3171.64	0.5177
3181.1	0.5281
3190.55	0.5383
3200.01	0.548
3209.47	0.556
3218.93	0.5653
3228.39	0.5724
3237.85	0.5828
3247.31	0.5885
3256.77	0.5957
3266.23	0.6005
3275.69	0.6065
3285.15	0.6109
3294.61	0.617
3304.07	0.6154
3313.53	0.617
3322.99	0.617
3332.45	0.6183
3341.91	0.62
3351.37	0.624
3360.83	0.626
3370.29	0.6266
3379.75	0.6311
3389.2	0.636
3398.66	0.637
3408.12	0.6402
3417.58	0.644
3427.04	0.641
3436.5	0.648
3445.96	0.6486
3455.42	0.649
3464.88	0.646
3474.34	0.646
3483.8	0.648
3493.26	0.648
3502.72	0.6525
3512.18	0.649
3521.64	0.6485
3531.1	0.646
3540.56	0.648
3550.02	0.648
3559.48	0.6451
3568.94	0.642
3578.39	0.6402
3587.85	0.6408
3597.31	0.639
3606.77	0.6388
3616.23	0.6402
3625.69	0.6322
3635.15	0.6353
3644.61	0.6337
3654.07	0.6353
3663.53	0.631
3672.99	0.631
3682.45	0.629
3691.91	0.629
3701.37	0.6286
3710.83	0.631
3720.29	0.627
3729.75	0.626
3739.21	0.626
3748.67	0.624
3758.13	0.6225
3767.58	0.624
3777.04	0.622
3786.5	0.621
3795.96	0.6143
3805.42	0.614
3814.88	0.614
3824.34	0.6148
3833.8	0.6147
3843.26	0.6132
3852.72	0.61
3862.18	0.609
3871.64	0.6115
3881.1	0.6124
3890.56	0.6108
3900.02	0.609
3909.48	0.609
