Infrared Spectrum: 2,3-BUTANEDIOL, BIS(Alpha,Alpha-DI-CHLOROPROPIONATE)
Formula: C10 H14 Cl4 O4
CAS: 124715-84-0
State: SOLUTION (10% CCl4 FOR 5000-1330, 10% CS2 FOR 1330-625 CM^-^1)
Class: COBLENTZ
Instrument: Not specified, most likely a prism, grating, or hybrid spectrometer.
Sampling: TRANSMISSION
Path length: 0.0130 CM, 0.0112 CM
Resolution: 4
Origin: DOW CHEMICAL COMPANY
MICROMETERS	TRANSMITTANCE
2.021	0.901
2.06211	0.901
2.10323	0.895
2.14434	0.902
2.18546	0.892
2.22657	0.878
2.26769	0.889
2.3088	0.892
2.34992	0.892
2.39103	0.885
2.43215	0.894
2.47326	0.902
2.51438	0.904
2.55549	0.904
2.59661	0.904
2.63772	0.902
2.67884	0.901
2.71995	0.894
2.76107	0.88
2.80218	0.866
2.8433	0.858
2.88441	0.872
2.92553	0.87
2.96664	0.866
3.00776	0.87
3.04887	0.863
3.08999	0.863
3.1311	0.87
3.17222	0.868
3.21333	0.868
3.25445	0.856
3.29556	0.761
3.33668	0.619
3.37779	0.73
3.41891	0.836
3.46002	0.856
3.50114	0.872
3.54225	0.88
3.58337	0.88
3.62448	0.877
3.6656	0.88
3.70671	0.878
3.74783	0.882
3.78894	0.889
3.83006	0.889
3.87117	0.885
3.91229	0.877
3.9534	0.875
3.99452	0.875
4.03563	0.878
4.07675	0.882
4.11786	0.878
4.15898	0.868
4.20009	0.87
4.24121	0.873
4.28232	0.875
4.32344	0.872
4.36455	0.878
4.40567	0.883
4.44678	0.885
4.4879	0.889
4.52901	0.889
4.57013	0.882
4.61124	0.878
4.65236	0.88
4.69347	0.875
4.73459	0.882
4.7757	0.887
4.81682	0.889
4.85793	0.889
4.89905	0.889
4.94016	0.885
4.98128	0.877
5.02239	0.88
5.06351	0.883
5.10462	0.883
5.14574	0.887
5.18685	0.885
5.22797	0.882
5.26908	0.878
5.3102	0.868
5.35131	0.863
5.39243	0.853
5.43354	0.832
5.47466	0.81
5.51577	0.776
5.55689	0.713
5.598	0.556
5.63912	0.162
5.68023	0.059
5.72135	0.066
5.76246	0.484
5.80358	0.665
5.84469	0.738
5.88581	0.81
5.92692	0.837
5.96804	0.849
6.00915	0.854
6.05027	0.856
6.09138	0.853
6.1325	0.831
6.17361	0.8
6.21473	0.735
6.25584	0.655
6.29696	0.593
6.33807	0.569
6.37919	0.517
6.4203	0.441
6.46142	0.457
6.50253	0.547
6.54365	0.597
6.58476	0.646
6.62588	0.708
6.66699	0.754
6.70811	0.774
6.74922	0.755
6.79034	0.675
6.83145	0.551
6.87257	0.385
6.91368	0.375
6.9548	0.668
6.99591	0.737
7.03703	0.75
7.07814	0.747
7.11926	0.704
7.16037	0.571
7.20149	0.353
7.2426	0.435
7.28372	0.711
7.32483	0.708
7.36595	0.718
7.40706	0.72
7.44818	0.682
7.48929	0.658
7.53041	0.607
7.57152	0.559
7.61264	0.534
7.65375	0.513
7.69487	0.394
7.73598	0.273
7.7771	0.162
7.81821	0.068
7.85933	0.051
7.90044	0.044
7.94156	0.047
7.98267	0.063
8.02379	0.073
8.0649	0.131
8.10602	0.31
8.14713	0.493
8.18825	0.561
8.22936	0.612
8.27048	0.648
8.31159	0.66
8.35271	0.662
8.39382	0.645
8.43494	0.604
8.47605	0.539
8.51717	0.508
8.55828	0.501
8.5994	0.544
8.64051	0.571
8.68163	0.581
8.72274	0.535
8.76386	0.419
8.80497	0.244
8.84609	0.097
8.8872	0.063
8.92832	0.102
8.96943	0.146
9.01055	0.187
9.05166	0.148
9.09278	0.104
9.13389	0.098
9.17501	0.08
9.21612	0.063
9.25724	0.075
9.29835	0.076
9.33947	0.126
9.38058	0.247
9.4217	0.383
9.46281	0.494
9.50393	0.556
9.54504	0.592
9.58616	0.6
9.62727	0.566
9.66839	0.515
9.7095	0.522
9.75062	0.58
9.79173	0.61
9.83285	0.612
9.87396	0.626
9.91508	0.616
9.95619	0.53
9.99731	0.438
10.0384	0.445
10.0795	0.498
10.1207	0.51
10.1618	0.53
10.2029	0.588
10.244	0.665
10.2851	0.699
10.3262	0.708
10.3673	0.715
10.4085	0.723
10.4496	0.735
10.4907	0.744
10.5318	0.745
10.5729	0.742
10.614	0.726
10.6551	0.709
10.6963	0.668
10.7374	0.641
10.7785	0.648
10.8196	0.675
10.8607	0.679
10.9018	0.66
10.943	0.646
10.9841	0.667
11.0252	0.704
11.0663	0.721
11.1074	0.728
11.1485	0.728
11.1896	0.708
11.2308	0.684
11.2719	0.643
11.313	0.6
11.3541	0.559
11.3952	0.542
11.4363	0.537
11.4774	0.505
11.5186	0.47
11.5597	0.476
11.6008	0.501
11.6419	0.529
11.683	0.558
11.7241	0.578
11.7653	0.595
11.8064	0.621
11.8475	0.641
11.8886	0.658
11.9297	0.667
11.9708	0.675
12.0119	0.68
12.0531	0.679
12.0942	0.658
12.1353	0.656
12.1764	0.651
12.2175	0.648
12.2586	0.645
12.2997	0.643
12.3409	0.648
12.382	0.65
12.4231	0.651
12.4642	0.639
12.5053	0.598
12.5464	0.549
12.5876	0.488
12.6287	0.474
12.6698	0.488
12.7109	0.508
12.752	0.513
12.7931	0.53
12.8342	0.551
12.8754	0.576
12.9165	0.592
12.9576	0.604
12.9987	0.627
13.0398	0.634
13.0809	0.646
13.122	0.648
13.1632	0.65
13.2043	0.648
13.2454	0.646
13.2865	0.636
13.3276	0.624
13.3687	0.609
13.4099	0.587
13.451	0.554
13.4921	0.511
13.5332	0.469
13.5743	0.447
13.6154	0.44
13.6565	0.436
13.6977	0.441
13.7388	0.45
13.7799	0.45
13.821	0.455
13.8621	0.46
13.9032	0.464
13.9443	0.464
13.9855	0.474
14.0266	0.484
14.0677	0.488
14.1088	0.489
14.1499	0.482
14.191	0.479
14.2322	0.474
14.2733	0.462
14.3144	0.452
14.3555	0.441
14.3966	0.431
14.4377	0.418
14.4788	0.402
14.52	0.387
14.5611	0.37
14.6022	0.351
14.6433	0.334
14.6844	0.319
14.7255	0.3
14.7666	0.288
14.8078	0.269
14.8489	0.249
14.89	0.228
14.9311	0.204
14.9722	0.17
15.0133	0.138
15.0545	0.1
15.0956	0.083
15.1367	0.073
15.1778	0.068
15.2189	0.081
15.26	0.107
15.3011	0.119
15.3423	0.15
15.3834	0.186
15.4245	0.216
15.4656	0.232
15.5067	0.259
15.5478	0.267
15.5889	0.273
15.6301	0.284
15.6712	0.288
15.7123	0.288
15.7534	0.29
15.7945	0.288
15.8356	0.283
