Infrared Spectrum: Morphinan, 3-methoxy-N-methyl-
Formula: C18 H25 N O
CAS: 125-70-2
State: SOLID (NUJOL MULL)
Class: COBLENTZ III
Instrument: PERKIN-ELMER 21 (GRATING)
Instrument parameters: NaCl PRISM
Sampling: TRANSMISSION
Resolution: 2
Origin: SMITH KLINE & FRENCH LABS.
1/CM	TRANSMITTANCE
650	0.6835
659	0.7182
668	0.7385
677	0.7599
686	0.7842
695	0.7864
704	0.8048
713	0.8242
722	0.6502
731	0.8369
740	0.8582
749	0.8556
758	0.7173
767	0.8727
776	0.8741
785	0.8885
794	0.862
803	0.8355
812	0.7374
821	0.5166
830	0.8223
839	0.7184
848	0.334
857	0.5708
866	0.8244
875	0.829
884	0.6705
893	0.8709
902	0.8697
911	0.803
920	0.8043
929	0.8469
938	0.8123
947	0.7987
956	0.7862
965	0.8414
974	0.816
983	0.828
992	0.8095
1001	0.6721
1010	0.786
1019	0.743
1028	0.562
1037	0.227
1046	0.6106
1055	0.5663
1064	0.6257
1073	0.6594
1082	0.7689
1091	0.6638
1100	0.6553
1109	0.7047
1118	0.5037
1127	0.7818
1136	0.7623
1145	0.7232
1154	0.4064
1163	0.6108
1172	0.7359
1181	0.5352
1190	0.7039
1199	0.7633
1208	0.7481
1217	0.5461
1226	0.2189
1235	0.268
1244	0.3138
1253	0.5727
1262	0.3304
1271	0.5102
1280	0.6562
1289	0.6648
1298	0.5956
1307	0.6988
1316	0.6558
1325	0.4844
1334	0.6649
1343	0.7127
1352	0.6955
1361	0.66
1370	0.5272
1379	0.5089
1388	0.7395
1397	0.7772
1406	0.7482
1415	0.7012
1424	0.4946
1433	0.4736
1442	0.2669
1451	0.291
1460	0.2145
1469	0.432
1478	0.5787
1487	0.4779
1496	0.3458
1505	0.6605
1514	0.7782
1523	0.8328
1532	0.8277
1541	0.8324
1550	0.8279
1559	0.8168
1568	0.7682
1577	0.6954
1586	0.695
1595	0.506
1604	0.3142
1613	0.5979
1622	0.8015
1631	0.8194
1640	0.8311
1649	0.8405
1658	0.8341
1667	0.8336
1676	0.829
1685	0.8261
1694	0.84
1703	0.8513
1712	0.8524
1721	0.8431
1730	0.8391
1739	0.8377
1748	0.8371
1757	0.8382
1766	0.8445
1775	0.8497
1784	0.8509
1793	0.8485
1802	0.8465
1811	0.8446
1820	0.8429
1829	0.8412
1838	0.8395
1847	0.8379
1856	0.8362
1865	0.835
1874	0.8307
1883	0.8242
1892	0.8255
1901	0.8292
1910	0.8288
1919	0.8311
1928	0.8357
1937	0.8361
1946	0.8354
1955	0.8338
1964	0.8317
1973	0.8292
1982	0.8269
1991	0.8276
2000	0.832
2009	0.8312
2018	0.8275
2027	0.8225
2036	0.8121
2045	0.8097
2054	0.8128
2063	0.8217
2072	0.8225
2081	0.8234
2090	0.8239
2099	0.8243
2108	0.8232
2117	0.8198
2126	0.8176
2135	0.8191
2144	0.8183
2153	0.8099
2162	0.8084
2171	0.8084
2180	0.8089
2189	0.8089
2198	0.8085
2207	0.8083
2216	0.8083
2225	0.8076
2234	0.8064
2243	0.804
2252	0.8016
2261	0.7977
2270	0.7937
2279	0.7892
2288	0.7896
2297	0.7907
2306	0.7894
2315	0.7883
2324	0.7877
2333	0.7869
2342	0.7859
2351	0.7849
2360	0.7832
2369	0.7815
2378	0.7791
2387	0.7754
2396	0.7718
2405	0.7685
2414	0.7671
2423	0.7649
2432	0.7616
2441	0.7585
2450	0.7553
2459	0.7524
2468	0.7494
2477	0.7478
2486	0.7461
2495	0.7446
2504	0.742
2513	0.7403
2522	0.7392
2531	0.7376
2540	0.7347
2549	0.7295
2558	0.7282
2567	0.7276
2576	0.7269
2585	0.7199
2594	0.7071
2603	0.6969
2612	0.6877
2621	0.6786
2630	0.6707
2639	0.6646
2648	0.6604
2657	0.6487
2666	0.6399
2675	0.6329
2684	0.6279
2693	0.6233
2702	0.6176
2711	0.6036
2720	0.5506
2729	0.5157
2738	0.4667
2747	0.4178
2756	0.3693
2765	0.3645
2774	0.3907
2783	0.3444
2792	0.257
2801	0.1659
2810	0.1024
2819	0.0918
2828	0.087
2837	0.0831
2846	0.075
2855	0.0594
2864	0.041
2873	0.036
2882	0.037
2891	0.0395
2900	0.0814
2909	0.1595
2918	0.237
2927	0.3141
2936	0.3907
2945	0.4669
2954	0.5168
2963	0.5369
2972	0.5504
2981	0.5681
2990	0.6209
2999	0.6466
3008	0.6553
3017	0.6608
3026	0.6625
3035	0.6626
3044	0.6625
3053	0.6621
3062	0.6617
3071	0.661
3080	0.6597
3089	0.6583
3098	0.6569
3107	0.6556
3116	0.6545
3125	0.6536
3134	0.6526
3143	0.652
3152	0.6516
3161	0.6511
3170	0.6506
3179	0.6501
3188	0.6496
3197	0.6493
3206	0.649
3215	0.6487
3224	0.6475
3233	0.646
3242	0.6426
3251	0.639
3260	0.6348
3269	0.6326
3278	0.6313
3287	0.63
3296	0.6288
3305	0.6279
3314	0.6271
3323	0.6263
3332	0.6261
3341	0.626
3350	0.6259
3359	0.6258
3368	0.6258
3377	0.626
3386	0.6262
3395	0.6248
3404	0.6231
3413	0.6213
3422	0.6194
3431	0.6177
3440	0.6164
3449	0.615
3458	0.6137
3467	0.6129
3476	0.6126
3485	0.6123
3494	0.6122
3503	0.6123
3512	0.6124
3521	0.6125
3530	0.6127
3539	0.6128
3548	0.6131
3557	0.6134
3566	0.6137
3575	0.6139
3584	0.6136
3593	0.6124
3602	0.6088
3611	0.6048
3620	0.6018
3629	0.6011
3638	0.6006
3647	0.6001
3656	0.5996
3665	0.5991
3674	0.5986
3683	0.5981
3692	0.5976
3701	0.5966
3710	0.5953
3719	0.5916
3728	0.5878
3737	0.5834
3746	0.5782
3755	0.5747
3764	0.5741
3773	0.5738
3782	0.5736
3791	0.5734
3800	0.5733
3809	0.5732
3818	0.5728
3827	0.5719
3836	0.5706
3845	0.5692
3854	0.5678
3863	0.5664
3872	0.5649
3881	0.5632
3890	0.5614
3899	0.5595
3908	0.5577
3917	0.5557
3926	0.5534
3935	0.5511
3944	0.5487
3953	0.5464
3962	0.5442
3971	0.5422
3980	0.5401
3989	0.5381
3998	0.5361
