Infrared Spectrum: OXYPHENCYCLIMINE HYDROCHLORIDE
Formula: C20 H29 Cl N2 O3
CAS: 125-52-0
State: SOLID (KCl DISC)
Melting point: 231-232 C DECOMP.
Class: COBLENTZ III
Instrument: PERKIN-ELMER 21 (GRATING)
Instrument parameters: FILTER AT ABOUT 10 MICRONS
Sampling: TRANSMISSION
Resolution: 2
1/CM	TRANSMITTANCE
4000	0.852
3991	0.8528
3982	0.8538
3973	0.8548
3964	0.8558
3955	0.8567
3946	0.8577
3937	0.8589
3928	0.86
3919	0.8612
3910	0.8624
3901	0.8635
3892	0.8646
3883	0.8658
3874	0.867
3865	0.8682
3856	0.8694
3847	0.8706
3838	0.8718
3829	0.8731
3820	0.8744
3811	0.8756
3802	0.877
3793	0.8783
3784	0.8797
3775	0.881
3766	0.8823
3757	0.8834
3748	0.8841
3739	0.8849
3730	0.8856
3721	0.8864
3712	0.8871
3703	0.8878
3694	0.8878
3685	0.8878
3676	0.8878
3667	0.888
3658	0.888
3649	0.8878
3640	0.8868
3631	0.8859
3622	0.885
3613	0.8825
3604	0.8778
3595	0.873
3586	0.8681
3577	0.8623
3568	0.853
3559	0.8435
3550	0.8334
3541	0.8223
3532	0.811
3523	0.7962
3514	0.7786
3505	0.7578
3496	0.7381
3487	0.7221
3478	0.7065
3469	0.693
3460	0.6796
3451	0.6651
3442	0.6475
3433	0.6298
3424	0.6123
3415	0.6029
3406	0.595
3397	0.5901
3388	0.5853
3379	0.5807
3370	0.5762
3361	0.572
3352	0.5676
3343	0.5634
3334	0.5592
3325	0.5503
3316	0.5221
3307	0.4762
3298	0.4299
3289	0.3832
3280	0.3364
3271	0.2893
3262	0.2533
3253	0.2538
3244	0.2582
3235	0.2721
3226	0.2962
3217	0.325
3208	0.35
3199	0.36
3190	0.365
3181	0.3696
3172	0.3739
3163	0.3839
3154	0.4004
3145	0.4124
3136	0.4171
3127	0.4179
3118	0.4138
3109	0.3914
3100	0.3827
3091	0.3812
3082	0.3812
3073	0.3889
3064	0.4169
3055	0.435
3046	0.4483
3037	0.4612
3028	0.4774
3019	0.4906
3010	0.502
3001	0.5119
2992	0.5208
2983	0.5289
2974	0.5323
2965	0.532
2956	0.4802
2947	0.4096
2938	0.3384
2929	0.2677
2920	0.2561
2911	0.2722
2902	0.3134
2893	0.355
2884	0.3968
2875	0.4389
2866	0.467
2857	0.4644
2848	0.4581
2839	0.4654
2830	0.5395
2821	0.6087
2812	0.6337
2803	0.6543
2794	0.6737
2785	0.6901
2776	0.7058
2767	0.7208
2758	0.7308
2749	0.7408
2740	0.7507
2731	0.7599
2722	0.7653
2713	0.7689
2704	0.7708
2695	0.7726
2686	0.7756
2677	0.7796
2668	0.7858
2659	0.7925
2650	0.7996
2641	0.8068
2632	0.814
2623	0.8209
2614	0.8278
2605	0.8345
2596	0.8397
2587	0.8447
2578	0.8498
2569	0.8533
2560	0.8557
2551	0.8585
2542	0.8613
2533	0.8642
2524	0.8687
2515	0.8734
2506	0.8778
2497	0.8818
2488	0.8841
2479	0.8856
2470	0.8871
2461	0.8887
2452	0.8904
2443	0.8923
2434	0.8944
2425	0.8964
2416	0.898
2407	0.8995
2398	0.9011
2389	0.9021
2380	0.9031
2371	0.9039
2362	0.9045
2353	0.9052
2344	0.9071
2335	0.9095
2326	0.9114
2317	0.9132
2308	0.9151
2299	0.917
2290	0.9189
2281	0.9208
2272	0.9223
2263	0.9235
2254	0.9247
2245	0.9259
2236	0.9271
2227	0.9282
2218	0.9282
2209	0.9282
2200	0.9282
2191	0.9282
2182	0.9283
2173	0.9285
2164	0.9288
2155	0.929
2146	0.9291
2137	0.9293
2128	0.9295
2119	0.9299
2110	0.9304
2101	0.9309
2092	0.9314
2083	0.9317
2074	0.9313
2065	0.931
2056	0.9315
2047	0.9321
2038	0.9328
2029	0.9349
2020	0.937
2011	0.939
2002	0.9407
1993	0.9423
1984	0.9434
1975	0.9424
1966	0.941
1957	0.9378
1948	0.9377
1939	0.9395
1930	0.9431
1921	0.9467
1912	0.9501
1903	0.9509
1894	0.9501
1885	0.9465
1876	0.9465
1867	0.9485
1858	0.9502
1849	0.9512
1840	0.9521
1831	0.9518
1822	0.9499
1813	0.9451
1804	0.9356
1795	0.9368
1786	0.9368
1777	0.9306
1768	0.9227
1759	0.8216
1750	0.5582
1741	0.2921
1732	0.4064
1723	0.7525
1714	0.829
1705	0.8408
1696	0.8416
1687	0.8215
1678	0.571
1669	0.277
1660	0.0649
1651	0.2681
1642	0.5182
1633	0.6262
1624	0.6924
1615	0.7399
1606	0.7637
1597	0.7265
1588	0.6883
1579	0.517
1570	0.603
1561	0.7278
1552	0.7798
1543	0.8058
1534	0.8169
1525	0.8258
1516	0.8306
1507	0.8233
1498	0.7571
1489	0.7281
1480	0.7345
1471	0.7133
1462	0.6839
1453	0.5428
1444	0.4101
1435	0.5865
1426	0.7264
1417	0.7482
1408	0.7807
1399	0.7915
1390	0.7626
1381	0.6738
1372	0.5636
1363	0.5639
1354	0.5478
1345	0.5004
1336	0.5464
1327	0.5768
1318	0.2312
1309	0.5101
1300	0.6792
1291	0.7201
1282	0.7218
1273	0.6615
1264	0.71
1255	0.6933
1246	0.4992
1237	0.546
1228	0.2644
1219	0.1648
1210	0.2323
1201	0.2307
1192	0.3106
1183	0.5186
1174	0.5522
1165	0.6364
1156	0.6734
1147	0.636
1138	0.68
1129	0.7291
1120	0.6433
1111	0.5934
1102	0.624
1093	0.6871
1084	0.5871
1075	0.5279
1066	0.519
1057	0.6351
1048	0.6093
1039	0.5205
1030	0.6212
1021	0.7301
1012	0.7321
1003	0.7732
994	0.8348
985	0.799
976	0.7574
967	0.7854
958	0.8345
949	0.7697
940	0.8137
931	0.8536
922	0.8687
913	0.8164
904	0.85
895	0.8254
886	0.8034
877	0.7982
868	0.8821
859	0.8239
850	0.8771
841	0.9001
832	0.8106
823	0.876
814	0.8317
805	0.8515
796	0.8688
787	0.8543
778	0.8134
769	0.6662
760	0.7118
751	0.7087
742	0.6154
733	0.5856
724	0.691
715	0.7593
706	0.5772
697	0.5358
688	0.774
679	0.8181
670	0.8001
