Infrared Spectrum: Primidone
Formula: C 12 H 14 N 2 O 2
CAS: 125-33-7
State: gas
Instrument: HP-GC/MS/IRD
Origin: NIST Mass Spectrometry Data Center
1/CM	ABSORBANCE
550	0.0009252
562	0.0002724
574	0.000492
586	0.0008472
598	0.000714
610	0.0004164
622	0.0002544
634	0.000174
646	0.000126
658	0.0001632
670	0.0001452
682	0.0003084
694	0.0011592
706	0.0011412
718	0.0007308
730	0.0004788
742	0.0004692
754	0.000924
766	0.000642
778	0.0004416
790	0.0004428
802	0.0003036
814	0.0002676
826	0.0003432
838	0.0004164
850	0.000444
862	0.0004488
874	0.0003552
886	0.0003036
898	0.0003372
910	0.000378
922	0.0002592
934	0.0002016
946	0.0003144
958	0.0001608
970	2.4e-05
982	9.96e-05
994	0.0001968
1006	9.24e-05
1018	5.28e-05
1030	0.0002952
1042	0.0002028
1054	9.6e-06
1066	0.0001356
1078	0.0002736
1090	0.0004992
1102	0.0010464
1114	0.0007752
1126	0.0002976
1138	0.0002712
1150	0.000204
1162	0.0001068
1174	8.76e-05
1186	0.0001344
1198	0.0002244
1210	0.0003312
1222	0.0003516
1234	0.0003384
1246	0.0002544
1258	0.000234
1270	0.0002748
1282	0.000306
1294	0.0003876
1306	0.0006396
1318	0.0012504
1330	0.0023052
1342	0.0034764
1354	0.0040872
1366	0.0021504
1378	0.0010452
1390	0.0007056
1402	0.0004992
1414	0.000804
1426	0.0019044
1438	0.003888
1450	0.0044136
1462	0.0024528
1474	0.00123
1486	0.0012576
1498	0.0012804
1510	0.0004584
1522	0.0001596
1534	9e-05
1546	8.28e-05
1558	3.12e-05
1570	0.0001488
1582	0.000282
1594	0.0003936
1606	0.0003972
1618	0.0002412
1630	0.0002688
1642	0.0003336
1654	0.0004092
1666	0.0008088
1678	0.001356
1690	0.0024504
1702	0.007638
1714	0.0118932
1726	0.0081696
1738	0.011616
1750	0.0051624
1762	0.0013752
1774	0.000696
1786	0.0005352
1798	0.0004548
1810	0.0003948
1822	0.0002304
1834	0.0001908
1846	0.0001428
1858	0.0001068
1870	0.0001056
1882	9.96e-05
1894	9e-05
1906	5.52e-05
1918	3.36e-05
1930	5.04e-05
1942	9.48e-05
1954	0.0001116
1966	7.2e-05
1978	3e-05
1990	1.56e-05
2002	2.88e-05
2014	2.16e-05
2026	2.64e-05
2038	1.32e-05
2050	2.64e-05
2062	9.6e-06
2074	0
2086	1.2e-05
2098	3e-05
2110	3e-05
2122	1.2e-05
2134	0
2146	7.2e-06
2158	2.52e-05
2170	4.8e-06
2182	1.08e-05
2194	9.6e-06
2206	1.56e-05
2218	2.04e-05
2230	1.56e-05
2242	1.68e-05
2254	1.2e-05
2266	1.68e-05
2278	3.12e-05
2290	2.76e-05
2302	2.28e-05
2314	3.48e-05
2326	2.52e-05
2338	1.56e-05
2350	4.32e-05
2362	1.08e-05
2374	3.6e-06
2386	3.36e-05
2398	3.84e-05
2410	5.52e-05
2422	4.8e-06
2434	4.8e-05
2446	4.68e-05
2458	1.44e-05
2470	5.16e-05
2482	3.96e-05
2494	1.56e-05
2506	2.04e-05
2518	3.36e-05
2530	4.32e-05
2542	5.76e-05
2554	6.72e-05
2566	6.96e-05
2578	4.92e-05
2590	4.68e-05
2602	2.4e-05
2614	1.32e-05
2626	4.44e-05
2638	2.64e-05
2650	5.4e-05
2662	2.4e-05
2674	1.8e-05
2686	4.8e-05
2698	3.72e-05
2710	6.36e-05
2722	7.32e-05
2734	8.4e-05
2746	9.12e-05
2758	0.0001092
2770	0.0001488
2782	0.0001716
2794	0.000192
2806	0.000216
2818	0.0002112
2830	0.0003312
2842	0.000558
2854	0.000636
2866	0.0005316
2878	0.0006768
2890	0.001044
2902	0.0008088
2914	0.0005268
2926	0.0005136
2938	0.0009888
2950	0.0015852
2962	0.0012972
2974	0.0013404
2986	0.001176
2998	0.0009912
3010	0.0005232
3022	0.000408
3034	0.0004896
3046	0.0004632
3058	0.0006816
3070	0.0011364
3082	0.0006288
3094	0.000438
3106	0.0002676
3118	0.0001956
3130	0.0001176
3142	0.0001056
3154	0.0001128
3166	9.6e-05
3178	7.2e-05
3190	7.92e-05
3202	5.4e-05
3214	8.4e-05
3226	5.16e-05
3238	2.16e-05
3250	4.32e-05
3262	4.68e-05
3274	3.36e-05
3286	4.32e-05
3298	7.68e-05
3310	5.16e-05
3322	3.84e-05
3334	3.24e-05
3346	3.48e-05
3358	7.32e-05
3370	7.08e-05
3382	0.0001248
3394	0.0001788
3406	0.0002292
3418	0.0003792
3430	0.0007848
3442	0.0019476
3454	0.0024024
3466	0.0008832
3478	0.0002652
3490	0.0001296
3502	8.04e-05
3514	7.68e-05
3526	8.76e-05
3538	7.44e-05
3550	6.36e-05
3562	3.96e-05
3574	9.6e-05
3586	3.72e-05
3598	5.88e-05
3610	3.96e-05
3622	3.48e-05
3634	4.92e-05
3646	1.32e-05
3658	3.6e-05
3670	2.28e-05
3682	6.72e-05
3694	4.68e-05
3706	6.36e-05
3718	2.88e-05
3730	4.32e-05
3742	2.04e-05
3754	0
3766	5.76e-05
3778	6.36e-05
3790	4.08e-05
3802	4.8e-06
3814	2.64e-05
3826	3e-05
3838	1.8e-05
