Infrared Spectrum: 2,4-PIPERIDINEDIONE, 3,3-DIETHYL-5-METHYL-
Formula: C10 H17 N O2
CAS: 125-64-4
State: SOLID (1 mg / 200 mg KBr DISC)
Melting point: 74-77 C
Class: COBLENTZ III
Instrument: PERKIN-ELMER 21 (GRATING)
Instrument parameters: FILTER AT ABOUT 10 MICRONS
Sampling: TRANSMISSION
Resolution: 2
1/CM	TRANSMITTANCE
4000	0.7857
3991	0.7856
3982	0.7856
3973	0.7856
3964	0.7856
3955	0.7856
3946	0.7855
3937	0.7853
3928	0.7851
3919	0.7851
3910	0.785
3901	0.7849
3892	0.785
3883	0.7854
3874	0.7858
3865	0.7864
3856	0.7871
3847	0.7889
3838	0.7908
3829	0.7926
3820	0.7941
3811	0.795
3802	0.796
3793	0.7969
3784	0.7975
3775	0.7975
3766	0.7975
3757	0.7975
3748	0.7976
3739	0.7976
3730	0.7976
3721	0.7975
3712	0.7975
3703	0.7974
3694	0.7974
3685	0.7971
3676	0.7967
3667	0.7962
3658	0.7958
3649	0.7949
3640	0.7938
3631	0.7914
3622	0.7889
3613	0.7876
3604	0.7868
3595	0.7858
3586	0.7842
3577	0.7818
3568	0.7795
3559	0.7762
3550	0.7721
3541	0.768
3532	0.7625
3523	0.7565
3514	0.7506
3505	0.7447
3496	0.7386
3487	0.7325
3478	0.7246
3469	0.7161
3460	0.7076
3451	0.6978
3442	0.6875
3433	0.678
3424	0.6686
3415	0.6589
3406	0.6489
3397	0.6388
3388	0.6288
3379	0.615
3370	0.5447
3361	0.4667
3352	0.3924
3343	0.3178
3334	0.2432
3325	0.2379
3316	0.2363
3307	0.2723
3298	0.3247
3289	0.3775
3280	0.4305
3271	0.4838
3262	0.5374
3253	0.5912
3244	0.6364
3235	0.6658
3226	0.6861
3217	0.7021
3208	0.7132
3199	0.7204
3190	0.7257
3181	0.7311
3172	0.7341
3163	0.7371
3154	0.7395
3145	0.7411
3136	0.7426
3127	0.7442
3118	0.7451
3109	0.7458
3100	0.7467
3091	0.7471
3082	0.7475
3073	0.748
3064	0.7483
3055	0.7487
3046	0.7488
3037	0.7485
3028	0.7483
3019	0.7471
3010	0.7451
3001	0.7381
2992	0.6819
2983	0.6098
2974	0.5332
2965	0.4562
2956	0.3787
2947	0.3532
2938	0.3959
2929	0.4172
2920	0.421
2911	0.4253
2902	0.4395
2893	0.4931
2884	0.5487
2875	0.545
2866	0.5176
2857	0.5051
2848	0.529
2839	0.5879
2830	0.6483
2821	0.6814
2812	0.708
2803	0.7288
2794	0.7458
2785	0.7611
2776	0.7726
2767	0.7788
2758	0.7836
2749	0.7869
2740	0.7904
2731	0.7942
2722	0.7985
2713	0.8028
2704	0.8081
2695	0.8133
2686	0.8187
2677	0.8231
2668	0.8267
2659	0.8291
2650	0.8307
2641	0.8323
2632	0.8337
2623	0.8351
2614	0.8361
2605	0.8359
2596	0.8349
2587	0.834
2578	0.8334
2569	0.8331
2560	0.8328
2551	0.8327
2542	0.833
2533	0.8333
2524	0.8337
2515	0.8341
2506	0.8343
2497	0.8344
2488	0.8344
2479	0.8345
2470	0.8345
2461	0.8341
2452	0.8335
2443	0.833
2434	0.8325
2425	0.8321
2416	0.8317
2407	0.8313
2398	0.8309
2389	0.8305
2380	0.8301
2371	0.8303
2362	0.8314
2353	0.8327
2344	0.8339
2335	0.8341
2326	0.8324
2317	0.8293
2308	0.8267
2299	0.8303
2290	0.8347
2281	0.838
2272	0.8386
2263	0.8375
2254	0.8365
2245	0.8358
2236	0.8357
2227	0.8357
2218	0.8361
2209	0.8365
2200	0.8371
2191	0.8375
2182	0.8375
2173	0.8375
2164	0.8371
2155	0.8363
2146	0.8356
2137	0.8347
2128	0.8338
2119	0.8327
2110	0.8313
2101	0.8297
2092	0.8268
2083	0.8228
2074	0.8218
2065	0.8217
2056	0.8218
2047	0.8218
2038	0.8216
2029	0.8211
2020	0.8203
2011	0.8189
2002	0.8175
1993	0.8161
1984	0.8153
1975	0.8146
1966	0.8139
1957	0.8128
1948	0.8117
1939	0.8105
1930	0.8075
1921	0.8044
1912	0.8011
1903	0.7975
1894	0.7937
1885	0.7899
1876	0.7868
1867	0.784
1858	0.7799
1849	0.7753
1840	0.7683
1831	0.7562
1822	0.7447
1813	0.7331
1804	0.72
1795	0.708
1786	0.6839
1777	0.6639
1768	0.6449
1759	0.6227
1750	0.5925
1741	0.5539
1732	0.4829
1723	0.4112
1714	0.3206
1705	0.2076
1696	0.1536
1687	0.1553
1678	0.063
1669	0.048
1660	0.0492
1651	0.1333
1642	0.2918
1633	0.4432
1624	0.4862
1615	0.5971
1606	0.6618
1597	0.6993
1588	0.7431
1579	0.7621
1570	0.7801
1561	0.7925
1552	0.7917
1543	0.7797
1534	0.7721
1525	0.7603
1516	0.7331
1507	0.6612
1498	0.4491
1489	0.3959
1480	0.4267
1471	0.4909
1462	0.2911
1453	0.2946
1444	0.3871
1435	0.5103
1426	0.6167
1417	0.6465
1408	0.6478
1399	0.5704
1390	0.498
1381	0.35
1372	0.416
1363	0.3126
1354	0.4194
1345	0.6049
1336	0.5612
1327	0.4403
1318	0.5643
1309	0.3671
1300	0.5554
1291	0.6634
1282	0.7215
1273	0.7297
1264	0.6249
1255	0.7076
1246	0.7611
1237	0.7733
1228	0.6786
1219	0.7799
1210	0.8021
1201	0.7905
1192	0.7818
1183	0.8022
1174	0.7935
1165	0.808
1156	0.7965
1147	0.7707
1138	0.8132
1129	0.7682
1120	0.7367
1111	0.7928
1102	0.7495
1093	0.7075
1084	0.3528
1075	0.6102
1066	0.7257
1057	0.6142
1048	0.7358
1039	0.6783
1030	0.6152
1021	0.7168
1012	0.6676
1003	0.794
994	0.8217
985	0.8237
976	0.8315
967	0.8374
958	0.8301
949	0.8213
940	0.8316
931	0.835
922	0.8201
913	0.7139
904	0.7458
895	0.8199
886	0.8306
877	0.8225
868	0.6975
859	0.5372
850	0.808
841	0.8292
832	0.8368
823	0.8373
814	0.8321
805	0.8243
796	0.7962
787	0.6703
778	0.7811
769	0.7274
760	0.5456
751	0.3589
742	0.6175
733	0.5773
724	0.6761
715	0.7521
706	0.7135
697	0.6499
688	0.5695
679	0.5455
670	0.5699
661	0.6246
652	0.6801
