Infrared Spectrum: Cinnamylamine, N-methyl-N-2-propynyl-,
Formula: C13 H15 N
CAS: 125436-88-6
State: LIQUID (NEAT)
Class: COBLENTZ III
Instrument: PERKIN-ELMER 21 (GRATING)
Instrument parameters: FILTER AT ABOUT 10 MICRONS
Path length: CAPILLARY
Resolution: 2
Origin: ABBOTT LABORATORIES
1/CM	TRANSMITTANCE
656	0.2669
665	0.3037
674	0.386
683	0.3739
692	0.1162
701	0.4649
710	0.5989
719	0.5945
728	0.4722
737	0.1608
746	0.1629
755	0.5868
764	0.7256
773	0.7556
782	0.7731
791	0.7517
800	0.6005
809	0.6197
818	0.7061
827	0.7507
836	0.76
845	0.7569
854	0.6863
863	0.6114
872	0.7049
881	0.7436
890	0.6296
899	0.5171
908	0.6387
917	0.7394
926	0.7326
935	0.6765
944	0.6358
953	0.5032
962	0.1333
971	0.1701
980	0.3512
989	0.5825
998	0.59
1007	0.6175
1016	0.3872
1025	0.2108
1034	0.502
1043	0.6675
1052	0.6459
1061	0.6172
1070	0.6341
1079	0.6492
1088	0.6002
1097	0.69
1106	0.6787
1115	0.4448
1124	0.3597
1133	0.4582
1142	0.6569
1151	0.7011
1160	0.7431
1169	0.6673
1178	0.5821
1187	0.5619
1196	0.6439
1205	0.7229
1214	0.7173
1223	0.6568
1232	0.5975
1241	0.5903
1250	0.5897
1259	0.5538
1268	0.5885
1277	0.5515
1286	0.5834
1295	0.5667
1304	0.5614
1313	0.5005
1322	0.3262
1331	0.4894
1340	0.5426
1349	0.4294
1358	0.3435
1367	0.519
1376	0.7105
1385	0.7506
1394	0.7555
1403	0.6953
1412	0.6122
1421	0.5142
1430	0.473
1439	0.3372
1448	0.3753
1457	0.4416
1466	0.6665
1475	0.6674
1484	0.4899
1493	0.6082
1502	0.7993
1511	0.8059
1520	0.8072
1529	0.8124
1538	0.8136
1547	0.8107
1556	0.8022
1565	0.7708
1574	0.7446
1583	0.7517
1592	0.6339
1601	0.7721
1610	0.7988
1619	0.7969
1628	0.7903
1637	0.7724
1646	0.7621
1655	0.7692
1664	0.7818
1673	0.7963
1682	0.8046
1691	0.8072
1700	0.8036
1709	0.8101
1718	0.8216
1727	0.8227
1736	0.8212
1745	0.8255
1754	0.8299
1763	0.8277
1772	0.8233
1781	0.8191
1790	0.8145
1799	0.8168
1808	0.8281
1817	0.8365
1826	0.8459
1835	0.8526
1844	0.8535
1853	0.8355
1862	0.823
1871	0.8274
1880	0.8344
1889	0.8457
1898	0.8486
1907	0.8418
1916	0.8265
1925	0.8125
1934	0.8139
1943	0.8246
1952	0.8387
1961	0.8497
1970	0.8562
1979	0.8577
1988	0.8612
1997	0.8664
2006	0.8661
2015	0.8655
2024	0.8646
2033	0.8632
2042	0.8615
2051	0.8588
2060	0.855
2069	0.8499
2078	0.8461
2087	0.8482
2096	0.8548
2105	0.8615
2114	0.8664
2123	0.8686
2132	0.8699
2141	0.8704
2150	0.8707
2159	0.8705
2168	0.8703
2177	0.87
2186	0.8697
2195	0.8693
2204	0.8686
2213	0.8677
2222	0.8668
2231	0.866
2240	0.8689
2249	0.8723
2258	0.8719
2267	0.8714
2276	0.8712
2285	0.871
2294	0.8708
2303	0.8708
2312	0.8707
2321	0.8706
2330	0.8702
2339	0.8699
2348	0.8697
2357	0.8709
2366	0.8723
2375	0.8737
2384	0.8752
2393	0.8763
2402	0.8769
2411	0.8745
2420	0.8714
2429	0.8679
2438	0.8667
2447	0.8661
2456	0.8662
2465	0.8666
2474	0.8668
2483	0.8666
2492	0.8663
2501	0.8659
2510	0.8651
2519	0.8626
2528	0.8579
2537	0.8527
2546	0.8478
2555	0.8458
2564	0.8451
2573	0.8443
2582	0.8432
2591	0.8402
2600	0.8364
2609	0.8298
2618	0.8225
2627	0.8148
2636	0.8047
2645	0.7932
2654	0.7776
2663	0.7632
2672	0.756
2681	0.7505
2690	0.7417
2699	0.7189
2708	0.6813
2717	0.634
2726	0.58
2735	0.4838
2744	0.3883
2753	0.3561
2762	0.3673
2771	0.3926
2780	0.4177
2789	0.4351
2798	0.4389
2807	0.4429
2816	0.4495
2825	0.4576
2834	0.4725
2843	0.4816
2852	0.4824
2861	0.472
2870	0.4519
2879	0.4319
2888	0.4142
2897	0.4115
2906	0.4227
2915	0.4547
2924	0.4865
2933	0.5182
2942	0.5497
2951	0.5683
2960	0.5664
2969	0.5462
2978	0.5242
2987	0.5097
2996	0.51
3005	0.5399
3014	0.5771
3023	0.6058
3032	0.6329
3041	0.6648
3050	0.6963
3059	0.7278
3068	0.7432
3077	0.7452
3086	0.7434
3095	0.7393
3104	0.732
3113	0.7189
3122	0.7059
3131	0.6938
3140	0.6828
3149	0.6732
3158	0.6688
3167	0.6651
3176	0.6624
3185	0.6604
3194	0.6513
3203	0.5941
3212	0.5372
3221	0.4806
3230	0.4243
3239	0.3684
3248	0.315
3257	0.336
3266	0.5234
3275	0.7162
3284	0.7655
3293	0.7765
3302	0.7868
3311	0.7936
3320	0.7997
3329	0.8039
3338	0.8081
3347	0.8122
3356	0.8158
3365	0.8192
3374	0.8233
3383	0.829
3392	0.8349
3401	0.8377
3410	0.839
3419	0.8394
3428	0.8404
3437	0.8435
3446	0.847
3455	0.8492
3464	0.85
3473	0.8508
3482	0.8526
3491	0.8544
3500	0.8562
3509	0.8579
3518	0.859
3527	0.8598
3536	0.8607
3545	0.8603
3554	0.8594
3563	0.8586
3572	0.8589
3581	0.8595
3590	0.86
3599	0.861
3608	0.8626
3617	0.8643
3626	0.8649
3635	0.8647
3644	0.8645
3653	0.8641
3662	0.8637
3671	0.8634
3680	0.863
3689	0.8629
3698	0.8628
3707	0.8627
3716	0.8625
3725	0.8624
3734	0.862
3743	0.8613
3752	0.8606
3761	0.8597
3770	0.8575
3779	0.855
3788	0.8525
3797	0.8501
3806	0.8477
3815	0.8454
3824	0.8435
3833	0.8435
3842	0.8435
3851	0.8435
3860	0.8442
3869	0.8452
3878	0.846
3887	0.8465
3896	0.847
3905	0.8474
3914	0.847
3923	0.8465
3932	0.843
3941	0.8406
3950	0.8393
3959	0.8387
3968	0.8381
3977	0.8375
3986	0.8368
3995	0.8363
