Infrared Spectrum: 3Beta-ACETOXY-17Beta-HYDROXY-5Alpha-ANDROSTAN-16Beta-YLACETIC ACID LACTONE
Formula: C23 H34 O4
CAS: 125567-32-0
State: SOLUTION (7% IN CHCl3 FOR 2.5-12.5 MICRON) VS. SOLVENT
Class: COBLENTZ
Instrument: PERKIN-ELMER 21 (GRATING)
Instrument parameters: FILTER CHANGE AT 10 MICRON
Sampling: TRANSMISSION
Path length: 0.010 CM
Resolution: 2
Origin: ABBOTT LABORATORIES
MICROMETERS	TRANSMITTANCE
2.49	0.889
2.51808	0.889
2.54616	0.889
2.57424	0.89
2.60232	0.89
2.63041	0.892
2.65849	0.892
2.68657	0.893
2.71465	0.898
2.74273	0.903
2.77081	0.905
2.79889	0.906
2.82697	0.906
2.85505	0.9
2.88314	0.896
2.91122	0.895
2.9393	0.895
2.96738	0.898
2.99546	0.899
3.02354	0.901
3.05162	0.905
3.0797	0.908
3.10778	0.909
3.13587	0.907
3.16395	0.903
3.19203	0.9
3.22011	0.896
3.24819	0.894
3.27627	0.89
3.30435	0.88
3.33243	0.835
3.36052	0.76
3.3886	0.613
3.41668	0.375
3.44476	0.318
3.47284	0.365
3.50092	0.466
3.529	0.547
3.55708	0.527
3.58516	0.582
3.61325	0.834
3.64133	0.855
3.66941	0.865
3.69749	0.871
3.72557	0.871
3.75365	0.871
3.78173	0.871
3.80981	0.871
3.83789	0.871
3.86598	0.872
3.89406	0.875
3.92214	0.878
3.95022	0.878
3.9783	0.876
4.00638	0.876
4.03446	0.875
4.06254	0.873
4.09062	0.869
4.11871	0.871
4.14679	0.88
4.17487	0.887
4.20295	0.9
4.23103	0.915
4.25911	0.909
4.28719	0.899
4.31527	0.892
4.34335	0.893
4.37144	0.893
4.39952	0.892
4.4276	0.893
4.45568	0.893
4.48376	0.894
4.51184	0.894
4.53992	0.894
4.568	0.894
4.59608	0.892
4.62417	0.889
4.65225	0.888
4.68033	0.888
4.70841	0.887
4.73649	0.888
4.76457	0.89
4.79265	0.894
4.82073	0.894
4.84882	0.894
4.8769	0.893
4.90498	0.892
4.93306	0.89
4.96114	0.888
4.98922	0.888
5.0173	0.888
5.04538	0.889
5.07346	0.89
5.10155	0.89
5.12963	0.89
5.15771	0.889
5.18579	0.889
5.21387	0.886
5.24195	0.883
5.27003	0.882
5.29811	0.88
5.32619	0.876
5.35428	0.874
5.38236	0.874
5.41044	0.872
5.43852	0.867
5.4666	0.86
5.49468	0.851
5.52276	0.841
5.55084	0.825
5.57892	0.753
5.60701	0.634
5.63509	0.365
5.66317	0.173
5.69125	0.097
5.71933	0.107
5.74741	0.291
5.77549	0.392
5.80357	0.255
5.83165	0.147
5.85974	0.212
5.88782	0.447
5.9159	0.635
5.94398	0.74
5.97206	0.781
6.00014	0.803
6.02822	0.818
6.0563	0.827
6.08438	0.835
6.11247	0.847
6.14055	0.852
6.16863	0.864
6.19671	0.865
6.22479	0.874
6.25287	0.879
6.28095	0.885
6.30903	0.886
6.33712	0.883
6.3652	0.882
6.39328	0.879
6.42136	0.88
6.44944	0.886
6.47752	0.888
6.5056	0.89
6.53368	0.894
6.56176	0.912
6.58985	0.914
6.61793	0.913
6.64601	0.909
6.67409	0.894
6.70217	0.881
6.73025	0.855
6.75833	0.84
6.78641	0.819
6.81449	0.718
6.84258	0.669
6.87066	0.697
6.89874	0.633
6.92682	0.579
6.9549	0.614
6.98298	0.669
7.01106	0.753
7.03914	0.766
7.06722	0.753
7.09531	0.732
7.12339	0.786
7.15147	0.79
7.17955	0.784
7.20763	0.717
7.23571	0.606
7.26379	0.563
7.29187	0.524
7.31995	0.572
7.34804	0.473
7.37612	0.477
7.4042	0.536
7.43228	0.682
7.46036	0.719
7.48844	0.739
7.51652	0.738
7.5446	0.699
7.57268	0.702
7.60077	0.732
7.62885	0.749
7.65693	0.738
7.68501	0.645
7.71309	0.62
7.74117	0.652
7.76925	0.671
7.79733	0.696
7.82542	0.685
7.8535	0.613
7.88158	0.504
7.90966	0.357
7.93774	0.221
7.96582	0.169
7.9939	0.162
8.02198	0.164
8.05006	0.187
8.07815	0.22
8.10623	0.252
8.13431	0.282
8.16239	0.313
8.19047	0.344
8.21855	0.375
8.24663	0.405
8.27471	0.437
8.30279	0.467
8.33088	0.499
8.35896	0.543
8.38704	0.614
8.41512	0.69
8.4432	0.661
8.47128	0.546
8.49936	0.396
8.52744	0.309
8.55552	0.294
8.58361	0.31
8.61169	0.37
8.63977	0.48
8.66785	0.541
8.69593	0.565
8.72401	0.559
8.75209	0.572
8.78017	0.63
8.80825	0.637
8.83634	0.676
8.86442	0.671
8.8925	0.642
8.92058	0.697
8.94866	0.759
8.97674	0.773
9.00482	0.773
9.0329	0.791
9.06098	0.797
9.08907	0.8
9.11715	0.808
9.14523	0.813
9.17331	0.81
9.20139	0.801
9.22947	0.792
9.25755	0.779
9.28563	0.771
9.31372	0.778
9.3418	0.778
9.36988	0.771
9.39796	0.744
9.42604	0.723
9.45412	0.708
9.4822	0.677
9.51028	0.624
9.53836	0.529
9.56645	0.364
9.59453	0.202
9.62261	0.194
9.65069	0.286
9.67877	0.423
9.70685	0.398
9.73493	0.32
9.76301	0.283
9.79109	0.314
9.81918	0.242
9.84726	0.25
9.87534	0.361
9.90342	0.466
9.9315	0.484
9.95958	0.484
9.98766	0.5
10.0157	0.543
10.0438	0.601
10.0719	0.63
10.1	0.661
10.1281	0.665
10.1561	0.689
10.1842	0.723
10.2123	0.742
10.2404	0.745
10.2685	0.754
10.2966	0.747
10.3246	0.703
10.3527	0.685
10.3808	0.712
10.4089	0.753
10.437	0.76
10.465	0.738
10.4931	0.742
10.5212	0.77
10.5493	0.794
10.5774	0.796
10.6054	0.803
10.6335	0.812
10.6616	0.81
10.6897	0.812
10.7178	0.844
10.7459	0.864
10.7739	0.889
10.802	0.905
10.8301	0.905
10.8582	0.886
10.8863	0.855
10.9143	0.846
10.9424	0.844
10.9705	0.838
10.9986	0.825
11.0267	0.793
11.0547	0.742
11.0828	0.706
11.1109	0.718
11.139	0.762
11.1671	0.791
11.1952	0.794
11.2232	0.797
11.2513	0.797
11.2794	0.77
11.3075	0.758
11.3356	0.771
11.3636	0.797
11.3917	0.81
11.4198	0.81
11.4479	0.805
11.476	0.798
11.504	0.801
11.5321	0.815
11.5602	0.824
11.5883	0.826
11.6164	0.826
11.6444	0.819
11.6725	0.799
11.7006	0.773
11.7287	0.767
11.7568	0.763
11.7849	0.778
11.8129	0.804
11.841	0.83
11.8691	0.84
11.8972	0.84
11.9253	0.834
11.9533	0.832
11.9814	0.833
12.0095	0.84
12.0376	0.84
12.0657	0.811
12.0937	0.793
12.1218	0.817
12.1499	0.842
12.178	0.871
12.2061	0.9
12.2342	0.913
12.2622	0.922
12.2903	0.932
12.3184	0.939
12.3465	0.951
12.3746	0.967
12.4026	0.98
