Infrared Spectrum: Androst-5-ene-17,17-ethylenedioxy-3b-hydroxy-,p-nitrobenzoate
Formula: C28 H35 N O6
CAS: 125567-35-3
State: SOLUTION 7% (CHCl3 FOR 2.5-15 microns)
Melting point: 196-198 C
Class: COBLENTZ
Instrument: PERKIN-ELMER 21 (GRATING)
Instrument parameters: FILTER AT ABOUT 10 MICRONS
Path length: 0.01 CM
Resolution: 2
Origin: ABBOTT LABORATORIES
1/CM	TRANSMITTANCE
800	0.9955
809	0.9552
818	0.9365
827	0.8564
836	0.6841
845	0.8083
854	0.7671
863	0.8288
872	0.6426
881	0.8747
890	0.8932
899	0.8458
908	0.9216
917	0.9267
926	0.8966
935	0.702
944	0.6694
953	0.7158
962	0.7488
971	0.6662
980	0.7249
989	0.7739
998	0.7346
1007	0.6617
1016	0.6506
1025	0.6428
1034	0.6164
1043	0.6485
1052	0.7696
1061	0.6621
1070	0.6759
1079	0.6758
1088	0.5577
1097	0.3664
1106	0.479
1115	0.3391
1124	0.5717
1133	0.7216
1142	0.7222
1151	0.6312
1160	0.5363
1169	0.6817
1178	0.7902
1187	0.7852
1196	0.7183
1205	0.6832
1214	0.68
1223	0.6617
1232	0.6543
1241	0.6625
1250	0.5184
1259	0.3878
1268	0.1022
1277	0.1083
1286	0.4415
1295	0.5138
1304	0.5702
1313	0.5357
1322	0.7002
1331	0.6115
1340	0.4083
1349	0.5239
1358	0.7252
1367	0.7157
1376	0.7681
1385	0.8217
1394	0.8269
1403	0.8277
1412	0.8715
1421	0.7864
1430	0.7779
1439	0.8116
1448	0.7569
1457	0.7532
1466	0.8285
1475	0.872
1484	0.8703
1493	0.8636
1502	0.7847
1511	0.4329
1520	0.2898
1529	0.6247
1538	0.8536
1547	0.8756
1556	0.8801
1565	0.8793
1574	0.8704
1583	0.8384
1592	0.7569
1601	0.7001
1610	0.8478
1619	0.8917
1628	0.8907
1637	0.8849
1646	0.8782
1655	0.871
1664	0.8686
1673	0.8646
1682	0.8438
1691	0.7033
1700	0.5163
1709	0.3319
1718	0.4299
1727	0.804
1736	0.9104
1745	0.9293
1754	0.932
1763	0.9316
1772	0.9308
1781	0.9303
1790	0.9292
1799	0.9368
1808	0.9413
1817	0.9442
1826	0.9458
1835	0.9464
1844	0.9465
1853	0.9481
1862	0.9486
1871	0.948
1880	0.9461
1889	0.944
1898	0.9421
1907	0.9402
1916	0.9376
1925	0.9376
1934	0.9408
1943	0.943
1952	0.9431
1961	0.9414
1970	0.939
1979	0.9372
1988	0.9401
1997	0.9439
2006	0.9436
2015	0.9422
2024	0.9405
2033	0.9403
2042	0.9401
2051	0.9402
2060	0.9403
2069	0.9404
2078	0.9404
2087	0.9402
2096	0.94
2105	0.9399
2114	0.9397
2123	0.9395
2132	0.9394
2141	0.9394
2150	0.9395
2159	0.9396
2168	0.9397
2177	0.9398
2186	0.9401
2195	0.9406
2204	0.9409
2213	0.9415
2222	0.9422
2231	0.943
2240	0.9437
2249	0.9441
2258	0.9445
2267	0.9442
2276	0.9438
2285	0.9424
2294	0.9412
2303	0.9411
2312	0.9431
2321	0.9452
2330	0.9468
2339	0.9453
2348	0.9422
2357	0.9384
2366	0.9343
2375	0.9304
2384	0.9296
2393	0.9297
2402	0.9299
2411	0.9302
2420	0.9309
2429	0.9316
2438	0.9321
2447	0.9322
2456	0.9323
2465	0.9322
2474	0.9322
2483	0.932
2492	0.9313
2501	0.9306
2510	0.9299
2519	0.9292
2528	0.9285
2537	0.9279
2546	0.9272
2555	0.9257
2564	0.9244
2573	0.923
2582	0.9216
2591	0.92
2600	0.9184
2609	0.9168
2618	0.9164
2627	0.9177
2636	0.9162
2645	0.9161
2654	0.9165
2663	0.9172
2672	0.9181
2681	0.9191
2690	0.9201
2699	0.9206
2708	0.9205
2717	0.9197
2726	0.9152
2735	0.9082
2744	0.9005
2753	0.8929
2762	0.8819
2771	0.8657
2780	0.8321
2789	0.7915
2798	0.7511
2807	0.7109
2816	0.671
2825	0.6314
2834	0.5921
2843	0.571
2852	0.5639
2861	0.563
2870	0.5621
2879	0.5506
2888	0.5367
2897	0.5276
2906	0.5282
2915	0.5383
2924	0.5952
2933	0.6534
2942	0.7114
2951	0.769
2960	0.8261
2969	0.8724
2978	0.8823
2987	0.8882
2996	0.8922
3005	0.8951
3014	0.8975
3023	0.8992
3032	0.9007
3041	0.9016
3050	0.9025
3059	0.9029
3068	0.9033
3077	0.9036
3086	0.9038
3095	0.9038
3104	0.9038
3113	0.9038
3122	0.9036
3131	0.9032
3140	0.9027
3149	0.9022
3158	0.9017
3167	0.9012
3176	0.9006
3185	0.9
3194	0.8994
3203	0.8986
3212	0.8977
3221	0.8968
3230	0.8961
3239	0.8955
3248	0.895
3257	0.8945
3266	0.8939
3275	0.8927
3284	0.8913
3293	0.8901
3302	0.8892
3311	0.8882
3320	0.8878
3329	0.8881
3338	0.8884
3347	0.8903
3356	0.8933
3365	0.897
3374	0.8986
3383	0.8996
3392	0.8997
3401	0.8998
3410	0.9003
3419	0.901
3428	0.9021
3437	0.9041
3446	0.9062
3455	0.908
3464	0.9096
3473	0.9104
3482	0.9105
3491	0.9106
3500	0.9108
3509	0.9106
3518	0.9103
3527	0.91
3536	0.9098
3545	0.9093
3554	0.9074
3563	0.9056
3572	0.9037
3581	0.9026
3590	0.9026
3599	0.9028
3608	0.903
3617	0.903
3626	0.9032
3635	0.9034
3644	0.9034
3653	0.9032
3662	0.9031
3671	0.903
3680	0.9029
3689	0.9027
3698	0.9024
3707	0.902
3716	0.9017
3725	0.9014
3734	0.9011
3743	0.9009
3752	0.9008
3761	0.9006
3770	0.9005
3779	0.9002
3788	0.8998
3797	0.8994
3806	0.899
3815	0.8986
3824	0.8983
3833	0.8978
3842	0.8975
3851	0.8971
3860	0.8967
3869	0.8963
3878	0.8959
3887	0.8956
3896	0.8952
3905	0.8947
3914	0.8943
3923	0.8938
3932	0.8935
3941	0.8931
3950	0.8926
3959	0.8922
3968	0.8918
3977	0.8913
3986	0.8909
3995	0.8906
