Infrared Spectrum: 5Alpha-ANDROSTONE-3Beta, 17Beta-DIOL,16-YLACETIC ACID, 3,17-DIACETATE
Formula: C25 H38 O6
CAS: 125638-43-9
State: SOLID (KBr PELLET)
Class: COBLENTZ
Instrument: PERKIN-ELMER
Sampling: TRANSMISSION
Resolution: 4
Origin: ABBOTT LABORATORIES - WASHBURN
MICROMETERS	TRANSMITTANCE
2.493	0.623
2.52607	0.623
2.55914	0.6278
2.59221	0.628
2.62528	0.626
2.65835	0.6289
2.69142	0.629
2.72449	0.6281
2.75756	0.6193
2.79063	0.611
2.8237	0.5861
2.85677	0.5573
2.88984	0.558
2.92291	0.5331
2.95598	0.5
2.98905	0.4672
3.02212	0.4028
3.05519	0.357
3.08826	0.3199
3.12133	0.2759
3.1544	0.2313
3.18747	0.2181
3.22054	0.1961
3.25361	0.1832
3.28668	0.1475
3.31975	0.0762
3.35282	0.041
3.38589	0.039
3.41896	0.062
3.45203	0.0949
3.4851	0.1003
3.51817	0.257
3.55124	0.3565
3.58431	0.3645
3.61738	0.3698
3.65045	0.37
3.68352	0.37
3.71659	0.37
3.74966	0.37
3.78273	0.3778
3.8158	0.396
3.84887	0.4086
3.88194	0.431
3.91501	0.4509
3.94808	0.49
3.98115	0.512
4.01422	0.525
4.04729	0.5463
4.08036	0.5548
4.11343	0.5839
4.1465	0.591
4.17957	0.595
4.21264	0.6029
4.24571	0.6127
4.27878	0.623
4.31185	0.629
4.34492	0.624
4.37799	0.621
4.41106	0.624
4.44413	0.629
4.4772	0.638
4.51027	0.642
4.54334	0.6411
4.57641	0.633
4.60948	0.6192
4.64255	0.608
4.67562	0.611
4.70869	0.6208
4.74176	0.6329
4.77483	0.6379
4.8079	0.641
4.84097	0.6341
4.87404	0.628
4.90711	0.628
4.94018	0.6229
4.97325	0.618
5.00632	0.6013
5.03939	0.6012
5.07246	0.593
5.10553	0.5815
5.1386	0.573
5.17167	0.5706
5.20474	0.5619
5.23781	0.559
5.27088	0.5466
5.30395	0.5305
5.33702	0.5082
5.37009	0.4885
5.40316	0.4628
5.43623	0.4391
5.4693	0.3909
5.50237	0.3471
5.53544	0.3172
5.56851	0.2659
5.60158	0.2072
5.63465	0.1319
5.66772	0.0674
5.70079	0.0334
5.73386	0.028
5.76693	0.0453
5.8	0.042
5.83307	0.0347
5.86614	0.0451
5.89921	0.1846
5.93228	0.2909
5.96534	0.3809
5.99841	0.4282
6.03148	0.4935
6.06455	0.5264
6.09762	0.5621
6.13069	0.5883
6.16376	0.623
6.19683	0.6286
6.2299	0.636
6.26297	0.636
6.29604	0.6351
6.32911	0.634
6.36218	0.6204
6.39525	0.6215
6.42832	0.6131
6.46139	0.6042
6.49446	0.606
6.52753	0.601
6.5606	0.5931
6.59367	0.5787
6.62674	0.5702
6.65981	0.5469
6.69288	0.514
6.72595	0.4452
6.75902	0.332
6.79209	0.266
6.82516	0.2857
6.85823	0.146
6.8913	0.1276
6.92437	0.1232
6.95744	0.1143
6.99051	0.1368
7.02358	0.2014
7.05665	0.2042
7.08972	0.219
7.12279	0.2387
7.15586	0.266
7.18893	0.1265
7.222	0.0842
7.25507	0.0797
7.28814	0.089
7.32121	0.116
7.35428	0.2267
7.38735	0.3902
7.42042	0.416
7.45349	0.3416
7.48656	0.2728
7.51963	0.213
7.5527	0.2615
7.58577	0.302
7.61884	0.2513
7.65191	0.208
7.68498	0.1717
7.71805	0.1122
7.75112	0.0724
7.78419	0.0834
7.81726	0.0677
7.85033	0.0414
7.8834	0.0375
7.91647	0.029
7.94954	0.028
7.98261	0.026
8.01568	0.026
8.04875	0.028
8.08182	0.024
8.11489	0.023
8.14796	0.024
8.18103	0.0358
8.2141	0.0681
8.24717	0.1072
8.28024	0.1604
8.31331	0.2044
8.34638	0.2513
8.37945	0.2781
8.41252	0.2836
8.44559	0.315
8.47866	0.3411
8.51173	0.2947
8.5448	0.2686
8.57787	0.3421
8.61094	0.3757
8.64401	0.3528
8.67708	0.3041
8.71015	0.3676
8.74322	0.4477
8.77629	0.4502
8.80936	0.3129
8.84243	0.3033
8.8755	0.4098
8.90857	0.448
8.94164	0.4579
8.97471	0.4759
9.00778	0.5076
9.04085	0.508
9.07392	0.4718
9.10699	0.4783
9.14006	0.4939
9.17313	0.464
9.2062	0.4146
9.23927	0.4075
9.27234	0.4226
9.30541	0.3761
9.33848	0.3061
9.37155	0.2156
9.40462	0.1361
9.43769	0.0771
9.47076	0.0798
9.50383	0.1217
9.5369	0.1415
9.56997	0.1143
9.60304	0.102
9.63611	0.0888
9.66918	0.0517
9.70225	0.039
9.73532	0.041
9.76839	0.0608
9.80146	0.1108
9.83453	0.1807
9.8676	0.228
9.90067	0.2402
9.93374	0.2547
9.96681	0.2988
9.99988	0.3368
10.0329	0.379
10.066	0.3792
10.0991	0.3787
10.1322	0.3925
10.1652	0.4037
10.1983	0.4165
10.2314	0.4189
10.2644	0.409
10.2975	0.414
10.3306	0.418
10.3636	0.3841
10.3967	0.2999
10.4298	0.2726
10.4629	0.3491
10.4959	0.3769
10.529	0.3931
10.5621	0.3898
10.5951	0.3541
10.6282	0.3024
10.6613	0.2847
10.6943	0.2876
10.7274	0.317
10.7605	0.3304
10.7936	0.34
10.8266	0.3281
10.8597	0.3052
10.8928	0.3155
10.9258	0.3628
10.9589	0.3971
10.992	0.4072
11.025	0.4099
11.0581	0.358
11.0912	0.3374
11.1243	0.3736
11.1573	0.3986
11.1904	0.4252
11.2235	0.4543
11.2565	0.4458
11.2896	0.4059
11.3227	0.4358
11.3557	0.4891
11.3888	0.5137
11.4219	0.5346
11.455	0.5365
11.488	0.5294
11.5211	0.528
11.5542	0.527
11.5872	0.5225
11.6203	0.5158
11.6534	0.5317
11.6864	0.5573
11.7195	0.56
11.7526	0.563
11.7857	0.5682
11.8187	0.585
11.8518	0.5977
11.8849	0.6039
11.9179	0.6157
11.951	0.6057
11.9841	0.573
12.0171	0.5762
12.0502	0.6051
12.0833	0.62
12.1164	0.6369
12.1494	0.639
12.1825	0.641
12.2156	0.6418
12.2486	0.641
12.2817	0.641
12.3148	0.641
12.3478	0.633
12.3809	0.6086
12.414	0.601
12.4471	0.601
12.4801	0.6025
12.5132	0.622
12.5463	0.634
12.5793	0.6451
12.6124	0.653
12.6455	0.6578
12.6785	0.6664
12.7116	0.6713
12.7447	0.679
12.7778	0.6853
12.8108	0.689
12.8439	0.687
12.877	0.685
12.91	0.69
12.9431	0.689
12.9762	0.689
13.0092	0.6961
13.0423	0.7033
13.0754	0.704
13.1085	0.7063
13.1415	0.71
13.1746	0.707
13.2077	0.71
13.2407	0.707
13.2738	0.7107
13.3069	0.714
13.3399	0.714
13.373	0.7123
13.4061	0.7141
13.4392	0.715
13.4722	0.714
13.5053	0.715
13.5384	0.7123
13.5714	0.704
13.6045	0.6826
13.6376	0.684
13.6706	0.694
13.7037	0.708
13.7368	0.707
13.7699	0.71
13.8029	0.7126
13.836	0.714
13.8691	0.714
13.9021	0.714
13.9352	0.71
13.9683	0.704
14.0013	0.705
14.0344	0.702
14.0675	0.6892
14.1006	0.686
14.1336	0.6726
14.1667	0.6614
14.1998	0.6449
14.2328	0.6082
14.2659	0.5772
14.299	0.561
14.332	0.5414
14.3651	0.5431
14.3982	0.5572
14.4313	0.5735
14.4643	0.5931
14.4974	0.6058
14.5305	0.6178
14.5635	0.619
14.5966	0.6233
14.6297	0.628
14.6627	0.6303
14.6958	0.6402
14.7289	0.642
14.762	0.644
14.795	0.646
14.8281	0.644
14.8612	0.6435
14.8942	0.6304
14.9273	0.6133
14.9604	0.5992
