Infrared Spectrum: 3Beta-ACETOXY-17Beta-TOLUENESULFONOXY-5-ANDROSTENE
Formula: C28 H38 O5 S
CAS: 1259-22-9
State: SOLID (NUJOL MULL)
Class: COBLENTZ III
Instrument: PERKIN-ELMER 21 (GRATING)
Instrument parameters: FILTER AT ABOUT 10 MICRONS
Resolution: 2
Origin: ABBOTT LABORATORIES
1/CM	TRANSMITTANCE
667	0.5619
676	0.4646
685	0.2116
694	0.6395
703	0.6645
712	0.6582
721	0.6113
730	0.6486
739	0.6797
748	0.7032
757	0.6921
766	0.6656
775	0.6416
784	0.5596
793	0.4339
802	0.4388
811	0.3632
820	0.4336
829	0.5842
838	0.4119
847	0.1405
856	0.3012
865	0.6403
874	0.5172
883	0.2586
892	0.4995
901	0.5449
910	0.3219
919	0.5361
928	0.2459
937	0.2487
946	0.3153
955	0.438
964	0.6013
973	0.5911
982	0.5875
991	0.5766
1000	0.5677
1009	0.5122
1018	0.3945
1027	0.3156
1036	0.4772
1045	0.5907
1054	0.6485
1063	0.653
1072	0.6286
1081	0.5956
1090	0.4266
1099	0.6347
1108	0.6071
1117	0.5838
1126	0.5465
1135	0.5433
1144	0.4726
1153	0.3648
1162	0.1354
1171	0.3865
1180	0.4752
1189	0.592
1198	0.6034
1207	0.5317
1216	0.5388
1225	0.4696
1234	0.3793
1243	0.2322
1252	0.1275
1261	0.2734
1270	0.4492
1279	0.5132
1288	0.5598
1297	0.5462
1306	0.564
1315	0.4863
1324	0.3515
1333	0.2363
1342	0.281
1351	0.3255
1360	0.2942
1369	0.2054
1378	0.4304
1387	0.6366
1396	0.6495
1405	0.64
1414	0.5951
1423	0.5159
1432	0.2941
1441	0.1791
1450	0.0855
1459	0.1068
1468	0.3459
1477	0.554
1486	0.611
1495	0.7011
1504	0.7277
1513	0.7288
1522	0.7294
1531	0.7296
1540	0.7294
1549	0.7286
1558	0.7263
1567	0.7106
1576	0.6921
1585	0.6627
1594	0.5883
1603	0.7208
1612	0.7199
1621	0.7126
1630	0.7001
1639	0.6843
1648	0.6662
1657	0.658
1666	0.6567
1675	0.6557
1684	0.644
1693	0.5824
1702	0.5463
1711	0.3186
1720	0.1673
1729	0.4428
1738	0.6622
1747	0.6931
1756	0.7091
1765	0.7248
1774	0.731
1783	0.7348
1792	0.7387
1801	0.7348
1810	0.7345
1819	0.7407
1828	0.7396
1837	0.7375
1846	0.7349
1855	0.7317
1864	0.7286
1873	0.7251
1882	0.7216
1891	0.718
1900	0.7142
1909	0.7106
1918	0.7081
1927	0.7116
1936	0.713
1945	0.7122
1954	0.711
1963	0.7097
1972	0.7083
1981	0.7069
1990	0.7055
1999	0.7039
2008	0.7024
2017	0.7008
2026	0.6991
2035	0.697
2044	0.6949
2053	0.6927
2062	0.69
2071	0.6866
2080	0.6831
2089	0.6804
2098	0.6779
2107	0.6754
2116	0.6729
2125	0.6706
2134	0.6684
2143	0.6662
2152	0.664
2161	0.6624
2170	0.661
2179	0.6597
2188	0.6593
2197	0.659
2206	0.6583
2215	0.6574
2224	0.6555
2233	0.6527
2242	0.6498
2251	0.6477
2260	0.6455
2269	0.6435
2278	0.6414
2287	0.6393
2296	0.6373
2305	0.6352
2314	0.633
2323	0.6305
2332	0.6281
2341	0.6256
2350	0.6226
2359	0.6194
2368	0.6162
2377	0.6151
2386	0.6144
2395	0.6138
2404	0.6132
2413	0.6128
2422	0.6122
2431	0.6115
2440	0.6109
2449	0.6095
2458	0.6077
2467	0.6059
2476	0.6038
2485	0.6017
2494	0.5988
2503	0.5958
2512	0.5927
2521	0.589
2530	0.5849
2539	0.5803
2548	0.5753
2557	0.57
2566	0.5643
2575	0.5588
2584	0.5535
2593	0.5484
2602	0.544
2611	0.5402
2620	0.5366
2629	0.5347
2638	0.5333
2647	0.5323
2656	0.5324
2665	0.5326
2674	0.5328
2683	0.5331
2692	0.5334
2701	0.5335
2710	0.5334
2719	0.5331
2728	0.5319
2737	0.527
2746	0.5195
2755	0.507
2764	0.489
2773	0.4703
2782	0.4481
2791	0.4219
2800	0.3838
2809	0.3055
2818	0.1199
2827	0.0417
2836	0.0244
2845	0.0121
2854	0.009
2863	0.0088
2872	0.0093
2881	0.01
2890	0.0106
2899	0.011
2908	0.0114
2917	0.0124
2926	0.0137
2935	0.0157
2944	0.0306
2953	0.0615
2962	0.0741
2971	0.0849
2980	0.1527
2989	0.2306
2998	0.3019
3007	0.3232
3016	0.35
3025	0.3735
3034	0.3918
3043	0.4057
3052	0.4151
3061	0.4222
3070	0.4265
3079	0.4307
3088	0.4351
3097	0.4382
3106	0.4409
3115	0.4434
3124	0.4451
3133	0.4467
3142	0.4477
3151	0.4481
3160	0.4483
3169	0.4486
3178	0.4488
3187	0.4492
3196	0.4496
3205	0.4499
3214	0.45
3223	0.45
3232	0.4501
3241	0.4501
3250	0.45
3259	0.45
3268	0.4499
3277	0.4498
3286	0.4489
3295	0.4476
3304	0.4461
3313	0.4441
3322	0.4419
3331	0.4397
3340	0.4381
3349	0.4375
3358	0.4371
3367	0.4367
3376	0.4364
3385	0.4362
3394	0.436
3403	0.4358
3412	0.4356
3421	0.4355
3430	0.4353
3439	0.4351
3448	0.435
3457	0.4349
3466	0.4348
3475	0.4346
3484	0.4345
3493	0.4343
3502	0.4342
3511	0.4341
3520	0.4339
3529	0.4337
3538	0.4335
3547	0.4333
3556	0.4331
3565	0.4329
3574	0.4327
3583	0.4325
3592	0.4321
3601	0.4316
3610	0.4311
3619	0.4306
3628	0.4301
3637	0.4295
3646	0.4284
3655	0.4272
3664	0.4262
3673	0.425
3682	0.4238
3691	0.4227
3700	0.4215
3709	0.4203
3718	0.4191
3727	0.4179
3736	0.4168
3745	0.4155
3754	0.4144
3763	0.4132
3772	0.412
3781	0.4107
3790	0.4094
3799	0.4081
3808	0.4069
3817	0.4055
3826	0.4044
3835	0.4035
3844	0.4024
3853	0.4014
3862	0.4004
3871	0.3994
3880	0.3984
3889	0.3972
3898	0.3961
3907	0.395
3916	0.3938
3925	0.3926
3934	0.3915
3943	0.3904
3952	0.3892
3961	0.3882
3970	0.387
3979	0.3859
3988	0.3848
3997	0.3837
