Infrared Spectrum: NEOPENTYLGLYCOL
Formula: C5 H12 O2l
CAS: 126-30-7
Class: COBLENTZ
Instrument: Not specified, most likely a prism, grating, or hybrid spectrometer.
Sampling: TRANSMISSION
Resolution: 4
MICROMETERS	TRANSMITTANCE
2.068	0.878
2.1018	0.88
2.1356	0.881
2.1694	0.883
2.2032	0.885
2.237	0.886
2.2708	0.893
2.3046	0.896
2.3384	0.896
2.3722	0.898
2.406	0.9
2.4398	0.9
2.4736	0.902
2.5074	0.903
2.5412	0.903
2.575	0.903
2.6088	0.903
2.6426	0.903
2.6764	0.903
2.7102	0.902
2.744	0.9
2.7778	0.883
2.8116	0.795
2.8454	0.695
2.8792	0.548
2.913	0.378
2.9468	0.31
2.9806	0.256
3.0144	0.214
3.0482	0.167
3.082	0.195
3.1158	0.344
3.1496	0.498
3.1834	0.665
3.2172	0.75
3.251	0.792
3.2848	0.834
3.3186	0.853
3.3524	0.842
3.3862	0.5
3.42	0.398
3.4538	0.466
3.4876	0.537
3.5214	0.592
3.5552	0.785
3.589	0.829
3.6228	0.856
3.6566	0.876
3.6904	0.888
3.7242	0.89
3.758	0.908
3.7918	0.92
3.8256	0.925
3.8594	0.93
3.8932	0.932
3.927	0.937
3.9608	0.951
3.9946	0.959
4.0284	0.964
4.0622	0.966
4.096	0.966
4.1298	0.966
4.1636	0.971
4.1974	0.972
4.2312	0.972
4.265	0.972
4.2988	0.972
4.3326	0.972
4.3664	0.978
4.4002	0.978
4.434	0.983
4.4678	0.986
4.5016	0.988
4.5354	0.989
4.5692	0.991
4.603	0.991
4.6368	0.991
4.6706	0.991
4.7044	0.989
4.7382	0.988
4.772	0.986
4.8058	0.986
4.8396	0.984
4.8734	0.983
4.9072	0.983
4.941	0.983
4.9748	0.984
5.0086	0.986
5.0424	0.988
5.0762	0.989
5.11	0.989
5.1438	0.989
5.1776	0.989
5.2114	0.991
5.2452	0.993
5.279	0.994
5.3128	0.996
5.3466	0.996
5.38041	0.998
5.41421	0.998
5.44801	0.998
5.48181	0.998
5.51561	0.998
5.54941	0.998
5.58321	0.998
5.61701	0.998
5.65081	0.996
5.68461	0.996
5.71841	0.994
5.75221	0.991
5.78601	0.989
5.81981	0.988
5.85361	0.986
5.88741	0.983
5.92121	0.978
5.95501	0.969
5.98881	0.956
6.02261	0.945
6.05641	0.929
6.09021	0.913
6.12401	0.907
6.15781	0.907
6.19161	0.92
6.22541	0.935
6.25921	0.949
6.29301	0.957
6.32681	0.961
6.36061	0.964
6.39441	0.964
6.42821	0.964
6.46201	0.964
6.49581	0.962
6.52961	0.961
6.56341	0.957
6.59721	0.951
6.63101	0.944
6.66481	0.932
6.69861	0.878
6.73241	0.687
6.76621	0.584
6.80001	0.733
6.83381	0.734
6.86761	0.753
6.90141	0.758
6.93521	0.756
6.96901	0.741
7.00281	0.701
7.03661	0.682
7.07041	0.662
7.10421	0.667
7.13801	0.672
7.17181	0.523
7.20561	0.648
7.23941	0.753
7.27321	0.797
7.30701	0.8
7.34081	0.797
7.37461	0.822
7.40841	0.866
7.44221	0.881
7.47601	0.883
7.50981	0.893
7.54361	0.903
7.57741	0.912
7.61121	0.913
7.64501	0.913
7.67881	0.913
7.71261	0.9
7.74641	0.871
7.78021	0.832
7.81401	0.8
7.84781	0.809
7.88161	0.854
7.91541	0.89
7.94921	0.905
7.98301	0.923
8.01681	0.925
8.05061	0.927
8.08441	0.92
8.11821	0.898
8.15201	0.847
8.18581	0.876
8.21961	0.902
8.25341	0.915
8.28721	0.917
8.32101	0.913
8.35481	0.9
8.38861	0.868
8.42241	0.824
8.45621	0.834
8.49001	0.846
8.52381	0.849
8.55761	0.815
8.59141	0.807
8.62521	0.846
8.65901	0.878
8.69281	0.898
8.72661	0.915
8.76041	0.929
8.79421	0.935
8.82801	0.935
8.86181	0.935
8.89561	0.934
8.92941	0.932
8.96321	0.93
8.99701	0.927
9.03081	0.923
9.06461	0.92
9.09841	0.915
9.13221	0.912
9.16601	0.905
9.19981	0.893
9.23361	0.871
9.26741	0.832
9.30121	0.787
9.33501	0.704
9.36881	0.576
9.40261	0.337
9.43641	0.195
9.47021	0.165
9.50401	0.265
9.53781	0.324
9.57161	0.256
9.60541	0.163
9.63921	0.158
9.67301	0.165
9.70681	0.268
9.74061	0.435
9.77441	0.489
9.80821	0.614
9.84201	0.714
9.87581	0.768
9.90961	0.804
9.94341	0.829
9.97721	0.844
10.011	0.856
10.0448	0.851
10.0786	0.793
10.1124	0.699
10.1462	0.777
10.18	0.846
10.2138	0.893
10.2476	0.927
10.2814	0.945
10.3152	0.959
10.349	0.964
10.3828	0.967
10.4166	0.971
10.4504	0.971
10.4842	0.971
10.518	0.966
10.5518	0.944
10.5856	0.902
10.6194	0.934
10.6532	0.956
10.687	0.962
10.7208	0.962
10.7546	0.949
10.7884	0.898
10.8222	0.842
10.856	0.886
10.8898	0.949
10.9236	0.959
10.9574	0.964
10.9912	0.966
11.025	0.957
11.0588	0.922
11.0926	0.895
11.1264	0.9
11.1602	0.868
11.194	0.802
11.2278	0.861
11.2616	0.922
11.2954	0.954
11.3292	0.969
11.363	0.981
11.3968	0.984
11.4306	0.984
11.4644	0.983
11.4982	0.984
11.532	0.984
11.5658	0.986
11.5996	0.986
11.6334	0.986
11.6672	0.986
11.701	0.986
11.7348	0.986
11.7686	0.986
11.8024	0.986
11.8362	0.986
11.87	0.984
11.9038	0.984
11.9376	0.984
11.9714	0.981
12.0052	0.979
12.039	0.978
12.0728	0.976
12.1066	0.972
12.1404	0.971
12.1742	0.967
12.208	0.966
12.2418	0.964
12.2756	0.961
12.3094	0.959
12.3432	0.961
12.377	0.957
12.4108	0.952
12.4446	0.951
12.4784	0.951
12.5122	0.952
12.546	0.949
12.5798	0.945
12.6136	0.942
12.6474	0.94
12.6812	0.937
12.715	0.935
12.7488	0.932
12.7826	0.925
12.8164	0.922
12.8502	0.917
12.884	0.912
12.9178	0.905
12.9516	0.898
12.9854	0.886
13.0192	0.875
13.053	0.868
13.0868	0.864
13.1206	0.863
13.1544	0.863
13.1882	0.863
13.222	0.858
13.2558	0.851
13.2896	0.842
13.3234	0.832
13.3572	0.827
13.391	0.822
13.4248	0.812
13.4586	0.802
13.4924	0.795
13.5262	0.785
13.56	0.777
13.5938	0.766
13.6276	0.753
13.6614	0.746
13.6952	0.728
13.729	0.714
13.7628	0.702
13.7966	0.697
13.8304	0.687
13.8642	0.682
13.898	0.677
13.9318	0.67
13.9656	0.667
13.9994	0.662
14.0332	0.658
14.067	0.658
14.1008	0.658
14.1346	0.66
14.1684	0.662
14.2022	0.663
14.236	0.665
14.2698	0.667
14.3036	0.668
14.3374	0.67
14.3712	0.673
14.405	0.675
14.4388	0.68
14.4726	0.685
14.5064	0.69
14.5402	0.695
14.574	0.699
14.6078	0.702
14.6416	0.704
14.6754	0.706
14.7092	0.706
14.743	0.709
14.7768	0.711
14.8106	0.714
14.8444	0.714
14.8782	0.716
14.912	0.717
14.9458	0.726
14.9796	0.736
15.0134	0.736
15.0472	0.731
15.081	0.733
15.1148	0.733
15.1486	0.734
15.1824	0.736
15.2162	0.739
15.25	0.738
