Infrared Spectrum: GRISEOFULVIN
Formula: C17 H17 Cl O6
CAS: 126-07-8
State: SOLID (KBr DISC) VS KBr
Melting point: 220 C
Class: COBLENTZ III
Instrument: PERKIN-ELMER 21 (GRATING)
Instrument parameters: FILTER AT ABOUT 10 MICRONS
Sampling: TRANSMISSION
Resolution: 2
1/CM	TRANSMITTANCE
4000	0.8781
3991	0.8782
3982	0.8784
3973	0.8786
3964	0.8787
3955	0.879
3946	0.8791
3937	0.8793
3928	0.8794
3919	0.8797
3910	0.8802
3901	0.8807
3892	0.8812
3883	0.8817
3874	0.8821
3865	0.8825
3856	0.8831
3847	0.8836
3838	0.8841
3829	0.8846
3820	0.8854
3811	0.8862
3802	0.8871
3793	0.888
3784	0.8889
3775	0.8898
3766	0.8907
3757	0.8915
3748	0.8925
3739	0.8933
3730	0.8942
3721	0.8951
3712	0.896
3703	0.8968
3694	0.8975
3685	0.8982
3676	0.899
3667	0.8997
3658	0.9
3649	0.9004
3640	0.9007
3631	0.8994
3622	0.8961
3613	0.8883
3604	0.8793
3595	0.8704
3586	0.8641
3577	0.8596
3568	0.855
3559	0.8504
3550	0.8462
3541	0.8421
3532	0.8381
3523	0.8339
3514	0.8291
3505	0.8241
3496	0.8191
3487	0.814
3478	0.8089
3469	0.8038
3460	0.7987
3451	0.7937
3442	0.7891
3433	0.7846
3424	0.7811
3415	0.778
3406	0.7764
3397	0.7749
3388	0.7749
3379	0.7758
3370	0.7795
3361	0.7865
3352	0.7946
3343	0.8033
3334	0.8115
3325	0.8183
3316	0.8241
3307	0.8282
3298	0.8324
3289	0.8366
3280	0.841
3271	0.8471
3262	0.8532
3253	0.8557
3244	0.8577
3235	0.8597
3226	0.8617
3217	0.8642
3208	0.8668
3199	0.8695
3190	0.8721
3181	0.8748
3172	0.8775
3163	0.8803
3154	0.883
3145	0.8852
3136	0.8873
3127	0.8894
3118	0.8915
3109	0.8928
3100	0.8943
3091	0.8957
3082	0.8965
3073	0.8971
3064	0.8975
3055	0.8978
3046	0.8971
3037	0.8959
3028	0.8898
3019	0.8777
3010	0.8398
3001	0.8194
2992	0.7968
2983	0.7784
2974	0.7599
2965	0.7412
2956	0.7294
2947	0.7025
2938	0.6761
2929	0.6746
2920	0.6796
2911	0.6925
2902	0.7083
2893	0.7301
2884	0.7604
2875	0.7842
2866	0.7997
2857	0.8051
2848	0.8076
2839	0.8104
2830	0.814
2821	0.8213
2812	0.83
2803	0.8427
2794	0.8552
2785	0.866
2776	0.8768
2767	0.8846
2758	0.8908
2749	0.8958
2740	0.8974
2731	0.8989
2722	0.9005
2713	0.9021
2704	0.9037
2695	0.9052
2686	0.9066
2677	0.908
2668	0.9095
2659	0.911
2650	0.913
2641	0.9153
2632	0.9175
2623	0.9197
2614	0.9218
2605	0.9239
2596	0.9261
2587	0.927
2578	0.9242
2569	0.9189
2560	0.9134
2551	0.91
2542	0.9094
2533	0.9087
2524	0.9125
2515	0.9173
2506	0.9218
2497	0.9262
2488	0.9305
2479	0.9332
2470	0.9318
2461	0.9306
2452	0.9293
2443	0.9287
2434	0.9282
2425	0.9278
2416	0.9274
2407	0.929
2398	0.9307
2389	0.9324
2380	0.9339
2371	0.9353
2362	0.9357
2353	0.9353
2344	0.9348
2335	0.9343
2326	0.9344
2317	0.9361
2308	0.9378
2299	0.94
2290	0.9434
2281	0.9468
2272	0.9485
2263	0.9495
2254	0.9502
2245	0.9501
2236	0.95
2227	0.9495
2218	0.9486
2209	0.9477
2200	0.9468
2191	0.9459
2182	0.9451
2173	0.9453
2164	0.9464
2155	0.9475
2146	0.9487
2137	0.9502
2128	0.9518
2119	0.9533
2110	0.9545
2101	0.9556
2092	0.9567
2083	0.958
2074	0.9598
2065	0.9615
2056	0.9633
2047	0.9651
2038	0.9664
2029	0.9671
2020	0.9667
2011	0.9639
2002	0.962
1993	0.9616
1984	0.9612
1975	0.9608
1966	0.9607
1957	0.9608
1948	0.96
1939	0.9552
1930	0.9527
1921	0.952
1912	0.957
1903	0.9587
1894	0.9583
1885	0.9556
1876	0.9538
1867	0.953
1858	0.9553
1849	0.958
1840	0.9598
1831	0.9588
1822	0.9535
1813	0.9483
1804	0.9378
1795	0.9227
1786	0.8967
1777	0.8658
1768	0.853
1759	0.8501
1750	0.8178
1741	0.7382
1732	0.5717
1723	0.3614
1714	0.1361
1705	0.0863
1696	0.4597
1687	0.5847
1678	0.4586
1669	0.25
1660	0.1159
1651	0.2589
1642	0.4433
1633	0.3323
1624	0.0748
1615	0.0334
1606	0.0683
1597	0.0884
1588	0.045
1579	0.1183
1570	0.2784
1561	0.4403
1552	0.6041
1543	0.6815
1534	0.7405
1525	0.7551
1516	0.6253
1507	0.3254
1498	0.5454
1489	0.7043
1480	0.5914
1471	0.2773
1462	0.2229
1453	0.3506
1444	0.5343
1435	0.4947
1426	0.388
1417	0.5884
1408	0.4807
1399	0.3949
1390	0.649
1381	0.5474
1372	0.6761
1363	0.3462
1354	0.0641
1345	0.1408
1336	0.1879
1327	0.4168
1318	0.61
1309	0.7311
1300	0.7801
1291	0.7522
1282	0.7736
1273	0.5699
1264	0.8089
1255	0.8232
1246	0.6718
1237	0.3738
1228	0.2427
1219	0.0373
1210	0.0467
1201	0.2843
1192	0.5874
1183	0.325
1174	0.3339
1165	0.5645
1156	0.635
1147	0.5983
1138	0.1843
1129	0.3134
1120	0.4852
1111	0.5694
1102	0.2363
1093	0.3182
1084	0.4942
1075	0.7081
1066	0.6203
1057	0.4574
1048	0.3456
1039	0.6739
1030	0.7705
1021	0.8174
1012	0.8316
1003	0.7632
994	0.3098
985	0.5924
976	0.6815
967	0.3955
958	0.4124
949	0.7351
940	0.8211
931	0.8602
922	0.8736
913	0.8558
904	0.8514
895	0.8238
886	0.4141
877	0.7574
868	0.8373
859	0.8588
850	0.8863
841	0.8731
832	0.8365
823	0.5462
814	0.6965
805	0.7485
796	0.4925
787	0.7618
778	0.8471
769	0.8039
760	0.8906
751	0.9054
742	0.9042
733	0.8571
724	0.8828
715	0.902
706	0.7885
697	0.8932
688	0.8405
679	0.6178
