Infrared Spectrum: L-Fenchone
Formula: C 10 H 16 O
CAS: 126-21-6
State: gas
Origin: EPA-IR VAPOR PHASE LIBRARY
1/CM	ABSORBANCE
501.5	0.001603
513.074	0.003013
524.648	0.002453
536.222	0.0007326
547.796	0.000106
559.37	6.1e-05
570.944	0.000103
582.518	0.000137
594.092	0.0004413
605.666	0.000242
617.24	6.5e-05
628.814	1e-05
640.388	0.0002671
651.962	0.0011382
663.536	0.0011068
675.11	0.0002291
686.684	0.000127
698.258	0.0002104
709.832	0.0004134
721.406	0.00037625
732.98	0.0002099
744.554	0.0002347
756.128	0.0002597
767.702	0.000302505
779.276	0.00039681
790.85	0.0004623
802.423	0.0011347
813.997	0.002993
825.571	0.004743
837.145	0.003253
848.719	0.0011918
860.293	0.0006413
871.867	0.0008028
883.441	0.0012795
895.015	0.001503
906.589	0.002603
918.163	0.006883
929.737	0.009983
941.311	0.009433
952.885	0.008063
964.459	0.005153
976.033	0.005483
987.607	0.010203
999.181	0.013583
1010.76	0.020033
1022.33	0.020433
1033.9	0.009733
1045.48	0.003743
1057.05	0.002313
1068.63	0.002363
1080.2	0.002113
1091.77	0.003393
1103.35	0.004793
1114.92	0.003503
1126.49	0.001773
1138.07	0.001433
1149.64	0.002203
1161.22	0.002623
1172.79	0.001903
1184.36	0.0011054
1195.94	0.001663
1207.51	0.002363
1219.09	0.002463
1230.66	0.002393
1242.23	0.002233
1253.81	0.002333
1265.38	0.002423
1276.96	0.003253
1288.53	0.004533
1300.1	0.003863
1311.68	0.003643
1323.25	0.004053
1334.83	0.003993
1346.4	0.003473
1357.97	0.005363
1369.55	0.009333
1381.12	0.014883
1392.7	0.012723
1404.27	0.003683
1415.84	0.002253
1427.42	0.003213
1438.99	0.006833
1450.57	0.014203
1462.14	0.019543
1473.71	0.017033
1485.29	0.011253
1496.86	0.006403
1508.44	0.002603
1520.01	0.001563
1531.58	0.001393
1543.16	0.001393
1554.73	0.0012433
1566.31	0.0011142
1577.88	0.0011555
1589.45	0.001353
1601.03	0.001393
1612.6	0.001433
1624.18	0.001473
1635.75	0.001483
1647.32	0.001603
1658.9	0.001883
1670.47	0.001843
1682.05	0.001763
1693.62	0.002393
1705.19	0.004243
1716.77	0.007883
1728.34	0.019683
1739.92	0.058413
1751.49	0.099753
1763.06	0.076553
1774.64	0.028633
1786.21	0.008853
1797.79	0.004173
1809.36	0.003173
1820.93	0.002793
1832.51	0.002533
1844.08	0.002263
1855.66	0.001733
1867.23	0.0011818
1878.8	0.0009694
1890.38	0.0009053
1901.95	0.0009573
1913.53	0.001007
1925.1	0.0009431
1936.67	0.0009557
1948.25	0.0008689
1959.82	0.0007655
1971.4	0.0007341
1982.97	0.0007143
1994.54	0.0006812
2006.12	0.0006665
2017.69	0.000672
2029.27	0.0007634
2040.84	0.0007837
2052.41	0.0007003
2063.99	0.0006139
2075.56	0.0005251
2087.14	0.0005294
2098.71	0.0005018
2110.28	0.0005554
2121.86	0.0005828
2133.43	0.0005714
2145.01	0.0005602
2156.58	0.0005781
2168.15	0.0006383
2179.73	0.0006247
2191.3	0.0006115
2202.88	0.0006069
2214.45	0.0005679
2226.02	0.0005632
2237.6	0.0005889
2249.17	0.0006295
2260.74	0.0006481
2272.32	0.0007021
2283.89	0.0006304
2295.47	0.0006085
2307.04	0.0005952
2318.61	0.0006165
2330.19	0.0005892
2341.76	0.0005863
2353.34	0.0005417
2364.91	0.0005261
2376.48	0.0005521
2388.06	0.0006547
2399.63	0.000699
2411.21	0.0006753
2422.78	0.0006583
2434.35	0.0006023
2445.93	0.0006066
2457.5	0.0006206
2469.08	0.000628
2480.65	0.0005774
2492.22	0.0005213
2503.8	0.0005337
2515.37	0.0005594
2526.95	0.0005895
2538.52	0.000595
2550.09	0.0006221
2561.67	0.0006334
2573.24	0.0006508
2584.82	0.0006614
2596.39	0.0006897
2607.96	0.0007062
2619.54	0.000752
2631.11	0.0006923
2642.69	0.0006846
2654.26	0.000728
2665.83	0.0007821
2677.41	0.0008661
2688.98	0.0009227
2700.56	0.0009943
2712.13	0.001061
2723.7	0.0012375
2735.28	0.001543
2746.85	0.001783
2758.43	0.001673
2770	0.001713
2781.57	0.001793
2793.15	0.002003
2804.72	0.002263
2816.3	0.002693
2827.87	0.003253
2839.44	0.004223
2851.02	0.006623
2862.59	0.015843
2874.17	0.035893
2885.74	0.044713
2897.31	0.038623
2908.89	0.034273
2920.46	0.042693
2932.04	0.066443
2943.61	0.087903
2955.18	0.103733
2966.76	0.112643
2978.33	0.100723
2989.91	0.056053
3001.48	0.019033
3013.05	0.006563
3024.63	0.003983
3036.2	0.003233
3047.78	0.003063
3059.35	0.002913
3070.92	0.002633
3082.5	0.002393
3094.07	0.002243
3105.65	0.002113
3117.22	0.002073
3128.79	0.002133
3140.37	0.002243
3151.94	0.002203
3163.52	0.002053
3175.09	0.001753
3186.66	0.001413
3198.24	0.0011349
3209.81	0.0009596
3221.39	0.000913
3232.96	0.0008734
3244.53	0.0008291
3256.11	0.0007659
3267.68	0.0008084
3279.26	0.0008047
3290.83	0.0007987
3302.4	0.0006546
3313.98	0.0006057
3325.55	0.0006463
3337.13	0.0006118
3348.7	0.0006032
3360.27	0.0004995
3371.85	0.0005874
3383.42	0.000608
3395	0.0007043
3406.57	0.0008586
3418.14	0.0007331
3429.72	0.0006848
3441.29	0.0006585
3452.86	0.0008083
3464.44	0.0011745
3476.01	0.001763
3487.59	0.002203
3499.16	0.001823
3510.73	0.0012008
3522.31	0.0008809
3533.88	0.0007409
3545.46	0.0007426
3557.03	0.0005958
3568.6	0.0005995
3580.18	0.0004776
3591.75	0.0005183
3603.33	0.0004922
3614.9	0.0005521
3626.47	0.0005106
3638.05	0.0004986
3649.62	0.0005418
3661.2	0.0004964
3672.77	0.0005764
3684.34	0.0004961
3695.92	0.000569
3707.49	0.000574
3719.07	0.0006116
3730.64	0.0006285
3742.21	0.0005927
3753.79	0.0006061
3765.36	0.000649
3776.94	0.0008192
3788.51	0.0007566
3800.08	0.0006726
3811.66	0.0006381
3823.23	0.0006817
3834.81	0.000778
3846.38	0.0006698
3857.95	0.0006433
3869.53	0.0007996
3881.1	0.0008189
3892.68	0.0008599
3904.25	0.0007648
3915.82	0.0007733
3927.4	0.0007288
3938.97	0.0007721
3950.55	0.0007357
3962.12	0.0008065
3973.69	0.0007532
3985.27	0.0007022
3996.84	0.0007493
