Infrared Spectrum: PHOSPHORIC ACID, TRIS(2,3-DIBROMOPROPYL) ESTER
Formula: C9 H15 Br6 O4 P
CAS: 126-72-7
State: LIQUID (NEAT)
Class: COBLENTZ III
Instrument: PERKIN-ELMER 521 (GRATING)
Instrument parameters: GRATING CHANGES AT 2000, 630 CM^-^1
Sampling: TRANSMISSION
Path length: SMEAR, KBr CRYSTALS
Resolution: 4
Origin: STANDARD OIL OF OHIO
1/CM	TRANSMITTANCE
288.085	0.112
297.569	0.134
307.054	0.158
316.538	0.185
326.022	0.217
335.507	0.269
344.991	0.317
354.475	0.349
363.959	0.378
373.444	0.432
382.928	0.483
392.412	0.543
401.897	0.565
411.381	0.578
420.865	0.581
430.35	0.572
439.834	0.586
449.318	0.568
458.802	0.527
468.287	0.524
477.771	0.543
487.255	0.542
496.74	0.511
506.224	0.501
515.708	0.499
525.193	0.506
534.677	0.498
544.161	0.424
553.646	0.314
563.13	0.281
572.614	0.251
582.098	0.274
591.583	0.294
601.067	0.459
610.551	0.622
620.036	0.709
629.52	0.698
639.004	0.576
648.489	0.475
657.973	0.479
667.457	0.525
676.942	0.616
686.426	0.676
695.91	0.68
705.394	0.771
714.879	0.799
724.363	0.813
733.847	0.81
743.332	0.788
752.816	0.768
762.3	0.734
771.785	0.682
781.269	0.621
790.753	0.595
800.237	0.639
809.722	0.68
819.206	0.595
828.69	0.485
838.175	0.425
847.659	0.316
857.143	0.239
866.628	0.224
876.112	0.215
885.596	0.206
895.081	0.246
904.565	0.427
914.049	0.483
923.533	0.323
933.018	0.238
942.502	0.285
951.986	0.459
961.471	0.376
970.955	0.224
980.439	0.11
989.924	0.083
999.408	0.079
1008.89	0.081
1018.38	0.081
1027.86	0.075
1037.35	0.071
1046.83	0.075
1056.31	0.083
1065.8	0.124
1075.28	0.148
1084.77	0.149
1094.25	0.153
1103.74	0.155
1113.22	0.224
1122.7	0.328
1132.19	0.427
1141.67	0.262
1151.16	0.362
1160.64	0.502
1170.13	0.431
1179.61	0.432
1189.09	0.43
1198.58	0.506
1208.06	0.531
1217.55	0.399
1227.03	0.201
1236.52	0.297
1246	0.399
1255.48	0.186
1264.97	0.128
1274.45	0.12
1283.94	0.109
1293.42	0.135
1302.91	0.302
1312.39	0.449
1321.87	0.514
1331.36	0.532
1340.84	0.626
1350.33	0.715
1359.81	0.722
1369.3	0.685
1378.78	0.545
1388.26	0.629
1397.75	0.699
1407.23	0.695
1416.72	0.456
1426.2	0.465
1435.69	0.499
1445.17	0.398
1454.65	0.316
1464.14	0.599
1473.62	0.748
1483.11	0.778
1492.59	0.792
1502.08	0.762
1511.56	0.795
1521.04	0.812
1530.53	0.816
1540.01	0.814
1549.5	0.816
1558.98	0.817
1568.47	0.817
1577.95	0.813
1587.43	0.811
1596.92	0.8
1606.4	0.794
1615.89	0.797
1625.37	0.797
1634.86	0.804
1644.34	0.811
1653.82	0.817
1663.31	0.818
1672.79	0.82
1682.28	0.82
1691.76	0.816
1701.25	0.813
1710.73	0.782
1720.22	0.774
1729.7	0.795
1739.18	0.813
1748.67	0.817
1758.15	0.814
1767.64	0.81
1777.12	0.809
1786.61	0.803
1796.09	0.799
1805.57	0.8
1815.06	0.797
1824.54	0.792
1834.03	0.787
1843.51	0.785
1853	0.786
1862.48	0.791
1871.96	0.786
1881.45	0.782
1890.93	0.776
1900.42	0.773
1909.9	0.773
1919.39	0.773
1928.87	0.778
1938.35	0.781
1947.84	0.785
1957.32	0.784
1966.81	0.785
1976.29	0.787
1985.78	0.793
1995.26	0.795
2004.74	0.8075
2014.23	0.812
2023.71	0.8125
2033.2	0.813
2042.68	0.814
2052.17	0.813
2061.65	0.813
2071.13	0.813
2080.62	0.813
2090.1	0.816
2099.59	0.8134
2109.07	0.818
2118.56	0.818
2128.04	0.818
2137.52	0.817
2147.01	0.817
2156.49	0.817
2165.98	0.817
2175.46	0.8184
2184.95	0.817
2194.43	0.817
2203.91	0.817
2213.4	0.814
2222.88	0.8133
2232.37	0.813
2241.85	0.8107
2251.34	0.805
2260.82	0.804
2270.3	0.801
2279.79	0.8
2289.27	0.8033
2298.76	0.8047
2308.24	0.803
2317.73	0.8
2327.21	0.801
2336.69	0.805
2346.18	0.8032
2355.66	0.7948
2365.15	0.8035
2374.63	0.81
2384.12	0.812
2393.6	0.812
2403.09	0.8108
2412.57	0.81
2422.05	0.812
2431.54	0.811
2441.02	0.8086
2450.51	0.8032
2459.99	0.8122
2469.48	0.814
2478.96	0.816
2488.44	0.817
2497.93	0.8182
2507.41	0.818
2516.9	0.816
2526.38	0.816
2535.87	0.817
2545.35	0.816
2554.83	0.8161
2564.32	0.817
2573.8	0.8161
2583.29	0.82
2592.77	0.82
2602.26	0.82
2611.74	0.819
2621.22	0.82
2630.71	0.8189
2640.19	0.817
2649.68	0.814
2659.16	0.813
2668.65	0.811
2678.13	0.8141
2687.61	0.816
2697.1	0.817
2706.58	0.816
2716.07	0.814
2725.55	0.813
2735.04	0.811
2744.52	0.804
2754	0.801
2763.49	0.801
2772.97	0.807
2782.46	0.812
2791.94	0.811
2801.43	0.809
2810.91	0.8031
2820.39	0.7883
2829.88	0.7722
2839.36	0.7581
2848.85	0.7421
2858.33	0.7391
2867.82	0.7184
2877.3	0.6734
2886.78	0.6321
2896.27	0.6688
2905.75	0.717
2915.24	0.7081
2924.72	0.6804
2934.21	0.5687
2943.69	0.4742
2953.17	0.4937
2962.66	0.4893
2972.14	0.4962
2981.63	0.521
2991.11	0.5908
3000.6	0.6377
3010.08	0.6426
3019.56	0.6326
3029.05	0.6084
3038.53	0.6069
3048.02	0.6639
3057.5	0.7266
3066.99	0.7545
3076.47	0.7773
3085.96	0.7918
3095.44	0.7977
3104.92	0.8022
3114.41	0.8137
3123.89	0.8075
3133.38	0.8097
3142.86	0.8117
3152.35	0.8117
3161.83	0.81
3171.31	0.8103
3180.8	0.812
3190.28	0.811
3199.77	0.8113
3209.25	0.807
3218.74	0.81
3228.22	0.807
3237.7	0.81
3247.19	0.809
3256.67	0.809
3266.16	0.806
3275.64	0.804
3285.13	0.804
3294.61	0.803
3304.09	0.801
3313.58	0.8
3323.06	0.798
3332.55	0.795
3342.03	0.7934
3351.52	0.792
3361	0.7864
3370.48	0.784
3379.97	0.7799
3389.45	0.7769
3398.94	0.7745
3408.42	0.7675
3417.91	0.7655
3427.39	0.7615
3436.87	0.76
3446.36	0.759
3455.84	0.757
3465.33	0.756
3474.81	0.756
3484.3	0.756
3493.78	0.7595
3503.26	0.7659
3512.75	0.7715
3522.23	0.7755
3531.72	0.7784
3541.2	0.78
3550.69	0.7796
3560.17	0.775
3569.65	0.785
3579.14	0.7887
3588.62	0.7958
3598.11	0.795
3607.59	0.7898
3617.08	0.7868
3626.56	0.7744
3636.04	0.7756
3645.53	0.761
3655.01	0.7812
3664.5	0.795
3673.98	0.8017
3683.47	0.809
3692.95	0.813
3702.43	0.8104
3711.92	0.8106
3721.4	0.8117
3730.89	0.8084
3740.37	0.803
3749.86	0.8113
3759.34	0.814
3768.83	0.814
3778.31	0.814
3787.79	0.813
3797.28	0.8117
3806.76	0.8067
3816.25	0.797
3825.73	0.803
3835.22	0.7988
3844.7	0.7925
3854.18	0.7924
3863.67	0.7966
3873.15	0.795
3882.64	0.7908
3892.12	0.786
