Infrared Spectrum: 5,5-Dimethylcyclohexane-1,3-dione
Formula: C 8 H 12 O 2
CAS: 126-81-8
State: gas
Instrument: HP-GC/MS/IRD
Origin: NIST Mass Spectrometry Data Center
1/CM	ABSORBANCE
550	0.0003696
562	0.0004433
574	0.0003476
586	0.0003432
598	0.0002178
610	0.000165
622	7.26e-05
634	0.0001188
646	6.05e-05
658	0.0001067
670	0.000165
682	0.0001177
694	7.37e-05
706	1.1e-06
718	4.29e-05
730	0.0001188
742	0.0001155
754	0.0001716
766	0.0001111
778	0.0001265
790	0.0001056
802	0.0002035
814	0.0002409
826	0.000264
838	0.0002101
850	0.0001859
862	0.0001881
874	0.000165
886	0.0001595
898	0.0001463
910	0.0001364
922	0.0001958
934	0.0001573
946	0.0001188
958	0.0001287
970	0.0001265
982	0.0001485
994	0.0001551
1006	0.0001958
1018	0.0002189
1030	0.0002519
1042	0.0003652
1054	0.0003003
1066	0.0002332
1078	0.0002244
1090	0.0002442
1102	0.0002717
1114	0.0002893
1126	0.0005104
1138	0.0007854
1150	0.0009141
1162	0.0009603
1174	0.0008668
1186	0.0009306
1198	0.0011836
1210	0.0015609
1222	0.0023221
1234	0.0035266
1246	0.003058
1258	0.0016335
1270	0.0008701
1282	0.0007667
1294	0.0009614
1306	0.0013651
1318	0.001573
1330	0.000946
1342	0.0003927
1354	0.0003729
1366	0.0006754
1378	0.0012474
1390	0.0013145
1402	0.0010307
1414	0.0007546
1426	0.0006765
1438	0.000451
1450	0.0005258
1462	0.000704
1474	0.000561
1486	0.000297
1498	0.0001738
1510	0.000154
1522	0.0001177
1534	0.0001331
1546	0.0001199
1558	0.0001199
1570	0.0001331
1582	0.0001441
1594	0.0001606
1606	0.0002255
1618	0.0003355
1630	0.0006105
1642	0.0008393
1654	0.0006754
1666	0.000704
1678	0.0012012
1690	0.0018117
1702	0.0025949
1714	0.0057662
1726	0.0104687
1738	0.009867
1750	0.005709
1762	0.0028347
1774	0.0012958
1786	0.0008008
1798	0.0006072
1810	0.0004477
1822	0.0003256
1834	0.0002024
1846	0.0001705
1858	0.0001188
1870	0.0001056
1882	9.24e-05
1894	8.47e-05
1906	7.92e-05
1918	6.16e-05
1930	7.7e-05
1942	6.38e-05
1954	5.72e-05
1966	6.05e-05
1978	3.63e-05
1990	6.05e-05
2002	4.29e-05
2014	7.37e-05
2026	6.05e-05
2038	5.39e-05
2050	7.26e-05
2062	6.27e-05
2074	5.61e-05
2086	5.39e-05
2098	6.27e-05
2110	5.28e-05
2122	8.8e-05
2134	8.25e-05
2146	7.26e-05
2158	4.62e-05
2170	5.5e-05
2182	4.73e-05
2194	3.74e-05
2206	7.26e-05
2218	6.16e-05
2230	6.16e-05
2242	5.17e-05
2254	4.62e-05
2266	5.83e-05
2278	4.07e-05
2290	4.18e-05
2302	4.73e-05
2314	4.29e-05
2326	4.29e-05
2338	3.08e-05
2350	3.52e-05
2362	4.18e-05
2374	6.49e-05
2386	4.4e-05
2398	4.84e-05
2410	4.4e-05
2422	2.97e-05
2434	4.07e-05
2446	1.98e-05
2458	6.6e-05
2470	3.63e-05
2482	6.27e-05
2494	5.28e-05
2506	2.86e-05
2518	2.09e-05
2530	1.76e-05
2542	4.29e-05
2554	2.64e-05
2566	0
2578	3.08e-05
2590	4.07e-05
2602	2.75e-05
2614	3.74e-05
2626	3.3e-05
2638	5.06e-05
2650	1.54e-05
2662	2.09e-05
2674	5.72e-05
2686	4.07e-05
2698	5.5e-05
2710	4.95e-05
2722	5.17e-05
2734	6.16e-05
2746	9.46e-05
2758	9.02e-05
2770	8.36e-05
2782	0.0001045
2794	0.0001078
2806	0.0001441
2818	0.0001991
2830	0.0002585
2842	0.000297
2854	0.0003652
2866	0.0006193
2878	0.0011561
2890	0.0015158
2902	0.0014773
2914	0.0010494
2926	0.0010571
2938	0.0014278
2950	0.0020504
2962	0.0041569
2974	0.0038632
2986	0.0012232
2998	0.0003674
3010	0.0002244
3022	0.0001716
3034	0.0001331
3046	8.36e-05
3058	9.79e-05
3070	8.69e-05
3082	6.49e-05
3094	7.81e-05
3106	4.18e-05
3118	3.74e-05
3130	6.71e-05
3142	8.14e-05
3154	7.48e-05
3166	5.39e-05
3178	4.84e-05
3190	6.93e-05
3202	8.25e-05
3214	7.92e-05
3226	8.14e-05
3238	9.24e-05
3250	4.29e-05
3262	4.95e-05
3274	5.39e-05
3286	6.27e-05
3298	4.4e-05
3310	6.27e-05
3322	7.92e-05
3334	6.05e-05
3346	8.14e-05
3358	6.16e-05
3370	0.0001012
3382	6.93e-05
3394	3.3e-05
3406	9.13e-05
3418	7.7e-05
3430	0.0001254
3442	0.0001749
3454	0.0001914
3466	0.000198
3478	0.0001771
3490	0.0001254
3502	6.6e-05
3514	5.83e-05
3526	5.17e-05
3538	5.83e-05
3550	5.17e-05
3562	2.75e-05
3574	5.06e-05
3586	4.62e-05
3598	9.02e-05
3610	0.0001408
3622	0.0001628
3634	9.13e-05
3646	4.4e-06
3658	0
3670	6.27e-05
3682	4.29e-05
3694	1.87e-05
3706	1.1e-06
3718	8.91e-05
3730	7.26e-05
3742	3.74e-05
3754	7.15e-05
3766	5.28e-05
3778	3.74e-05
3790	6.05e-05
3802	6.6e-05
3814	5.72e-05
3826	5.61e-05
3838	5.06e-05
