Infrared Spectrum: 1-Bromo-2,2-dimethoxypropane
Formula: C 5 H 11 Br O 2
CAS: 126-38-5
State: gas
Origin: EPA-IR VAPOR PHASE LIBRARY
1/CM	ABSORBANCE
549.9	0.0066
559.547	0.0067
569.193	0.00529
578.84	0.00602
588.486	0.00835
598.133	0.00881
607.779	0.00563
617.426	0.00312
627.072	0.0027051
636.719	0.0028812
646.365	0.00331
656.012	0.00559
665.658	0.01459
675.305	0.03764
684.951	0.04822
694.598	0.02311
704.245	0.00715
713.891	0.00518
723.538	0.0079
733.184	0.01639
742.831	0.01918
752.477	0.01147
762.124	0.00535
771.77	0.00369
781.417	0.00352
791.063	0.00475
800.71	0.00811
810.356	0.01515
820.003	0.0264
829.649	0.03111
839.296	0.02025
848.943	0.01005
858.589	0.01175
868.236	0.02544
877.882	0.03924
887.529	0.03273
897.175	0.01705
906.822	0.01234
916.468	0.01223
926.115	0.01129
935.761	0.00864
945.408	0.0064
955.054	0.00549
964.701	0.00545
974.347	0.00583
983.994	0.00638
993.64	0.00761
1003.29	0.01001
1012.93	0.01564
1022.58	0.02983
1032.23	0.06591
1041.87	0.12811
1051.52	0.19002
1061.17	0.19111
1070.81	0.1616
1080.46	0.16667
1090.11	0.18284
1099.75	0.20968
1109.4	0.22709
1119.05	0.18438
1128.69	0.11539
1138.34	0.07701
1147.99	0.06979
1157.63	0.07897
1167.28	0.09152
1176.92	0.08426
1186.57	0.06843
1196.22	0.07246
1205.86	0.10542
1215.51	0.12877
1225.16	0.10094
1234.8	0.06663
1244.45	0.071
1254.1	0.08033
1263.74	0.06506
1273.39	0.04171
1283.04	0.02482
1292.68	0.01571
1302.33	0.01127
1311.98	0.00872
1321.62	0.00761
1331.27	0.00759
1340.92	0.00808
1350.56	0.00979
1360.21	0.0166
1369.86	0.03532
1379.5	0.05585
1389.15	0.0465
1398.79	0.02187
1408.44	0.01398
1418.09	0.02404
1427.73	0.03259
1437.38	0.02783
1447.03	0.02398
1456.67	0.02492
1466.32	0.02343
1475.97	0.01866
1485.61	0.01294
1495.26	0.0089
1504.91	0.00682
1514.55	0.00571
1524.2	0.00517
1533.85	0.00485
1543.49	0.00479
1553.14	0.00509
1562.79	0.00528
1572.43	0.00514
1582.08	0.00468
1591.73	0.00421
1601.37	0.00406
1611.02	0.00412
1620.67	0.004
1630.31	0.00379
1639.96	0.00362
1649.6	0.00346
1659.25	0.00316
1668.9	0.0027341
1678.54	0.0022827
1688.19	0.00212349
1697.84	0.00217016
1707.48	0.0022113
1717.13	0.00214201
1726.78	0.00216875
1736.42	0.0023073
1746.07	0.0025436
1755.72	0.0026032
1765.36	0.002502
1775.01	0.0024815
1784.66	0.0026932
1794.3	0.0027421
1803.95	0.0027836
1813.6	0.0026062
1823.24	0.0025056
1832.89	0.0024651
1842.54	0.0023938
1852.18	0.0022501
1861.83	0.00217374
1871.47	0.0021802
1881.12	0.0022136
1890.77	0.00242
1900.41	0.002616
1910.06	0.0028649
1919.71	0.00309
1929.35	0.0031
1939	0.0028919
1948.65	0.0025343
1958.29	0.002458
1967.94	0.0026187
1977.59	0.0028024
1987.23	0.0029785
1996.88	0.0028257
2006.53	0.0025463
2016.17	0.0023192
2025.82	0.0022299
2035.47	0.002207
2045.11	0.0022896
2054.76	0.0023844
2064.41	0.0026335
2074.05	0.00321
2083.7	0.00369
2093.35	0.00379
2102.99	0.00353
2112.64	0.00319
2122.28	0.0029492
2131.93	0.0027377
2141.58	0.0025165
2151.22	0.0023544
2160.87	0.00211739
2170.52	0.00182
2180.16	0.001666
2189.81	0.001578
2199.46	0.001578
2209.1	0.00152
2218.75	0.001372
2228.4	0.001282
2238.04	0.001247
2247.69	0.001347
2257.34	0.001373
2266.98	0.00138
2276.63	0.001342
2286.28	0.001401
2295.92	0.001463
2305.57	0.001507
2315.22	0.001493
2324.86	0.001535
2334.51	0.001411
2344.16	0.001385
2353.8	0.001331
2363.45	0.001203
2373.09	0.001134
2382.74	0.00098
2392.39	0.00096
2402.03	0.00095
2411.68	0.00101
2421.33	0.001
2430.97	0.001
2440.62	0.00097
2450.27	0.0009
2459.91	0.00085
2469.56	0.0009
2479.21	0.00092
2488.85	0.00091
2498.5	0.00089
2508.15	0.00086
2517.79	0.00083
2527.44	0.00085
2537.09	0.00082
2546.73	0.00098
2556.38	0.00103
2566.03	0.001091
2575.67	0.001184
2585.32	0.001403
2594.96	0.00154
2604.61	0.00157
2614.26	0.001622
2623.9	0.001649
2633.55	0.001762
2643.2	0.001784
2652.84	0.00181
2662.49	0.001658
2672.14	0.001448
2681.78	0.001432
2691.43	0.001288
2701.08	0.001306
2710.72	0.001319
2720.37	0.001429
2730.02	0.001553
2739.66	0.001742
2749.31	0.00197
2758.96	0.002182
2768.6	0.0025301
2778.25	0.00327
2787.9	0.00432
2797.54	0.00598
2807.19	0.00882
2816.84	0.01423
2826.48	0.02831
2836.13	0.05202
2845.77	0.05279
2855.42	0.02978
2865.07	0.02053
2874.71	0.02192
2884.36	0.02768
2894.01	0.03581
2903.65	0.04492
2913.3	0.05189
2922.95	0.05714
2932.59	0.07179
2942.24	0.10156
2951.89	0.11708
2961.53	0.10203
2971.18	0.0824
2980.83	0.07573
2990.47	0.08167
3000.12	0.08637
3009.77	0.07032
3019.41	0.04035
3029.06	0.02411
3038.71	0.01934
3048.35	0.01529
3058	0.01204
3067.64	0.01047
3077.29	0.00953
3086.94	0.00834
3096.58	0.00714
3106.23	0.00601
3115.88	0.00491
3125.52	0.00374
3135.17	0.0029812
3144.82	0.0024288
3154.46	0.001776
3164.11	0.001374
3173.76	0.00105
3183.4	0.00093
3193.05	0.00087
3202.7	0.00063
3212.34	0.00085
3221.99	0.00032
3231.64	0.00051
3241.28	0.00037
3250.93	0.0002
3260.58	0.00026
3270.22	9e-05
3279.87	0.00021
3289.52	0.00015
3299.16	0.00012
3308.81	7e-05
3318.45	0.00049
3328.1	0.00028
3337.75	0.00026
3347.39	0.00025
3357.04	0.00048
3366.69	0.00039
3376.33	0.00024
3385.98	0.00039
3395.63	0.00048
3405.27	0.00028
3414.92	0.00048
3424.57	0.00039
3434.21	0.00042
3443.86	0.00035
3453.51	0.00038
3463.15	0.00048
3472.8	0.00055
3482.45	0.00053
3492.09	0.00069
3501.74	0.00051
3511.39	0.00063
3521.03	0.00051
3530.68	0.00056
3540.33	0.00051
3549.97	0.00053
3559.62	0.00056
3569.26	0.00055
3578.91	0.00067
3588.56	0.0007
3598.2	0.00066
3607.85	0.00058
3617.5	0.00059
3627.14	0.00065
3636.79	0.00073
3646.44	0.00066
3656.08	0.00083
3665.73	0.00083
3675.38	0.00087
3685.02	0.0007
3694.67	0.0008
3704.32	0.00081
3713.96	0.00084
3723.61	0.00087
3733.26	0.00081
3742.9	0.00079
3752.55	0.00064
3762.2	0.00082
3771.84	0.00063
3781.49	0.00065
3791.13	0.00057
3800.78	0.00084
3810.43	0.0007
3820.07	0.00086
3829.72	0.00065
3839.37	0.00085
3849.01	0.00086
3858.66	0.00091
3868.31	0.001135
3877.95	0.001
3887.6	0.001118
3897.25	0.001154
3906.89	0.001181
3916.54	0.00106
3926.19	0.001086
3935.83	0.001119
3945.48	0.001199
3955.13	0.001158
3964.77	0.001471
3974.42	0.001513
3984.07	0.001597
3993.71	0.001768
