Infrared Spectrum: Demeton-S
Formula: C 8 H 19 O 3 P S 2
CAS: 126-75-0
State: gas
Instrument: HP-GC/MS/IRD
Origin: NIST Mass Spectrometry Data Center
1/CM	ABSORBANCE
550	0.004774
562	0.012254
574	0.0176
586	0.019943
598	0.027522
610	0.026246
622	0.009977
634	0.003575
646	0.00209
658	0.001386
670	0.000968
682	0.002926
694	0.005731
706	0.003113
718	0.00264
730	0.006237
742	0.015092
754	0.021494
766	0.017776
778	0.014872
790	0.01364
802	0.009108
814	0.004334
826	0.002145
838	0.001441
850	0.001265
862	0.001056
874	0.0011
886	0.00176
898	0.003278
910	0.00594
922	0.012089
934	0.026059
946	0.043516
958	0.049016
970	0.039028
982	0.022616
994	0.019019
1006	0.033759
1018	0.075581
1030	0.11
1042	0.093005
1054	0.073678
1066	0.048334
1078	0.026862
1090	0.021098
1102	0.017787
1114	0.011627
1126	0.009383
1138	0.008745
1150	0.008602
1162	0.007821
1174	0.006831
1186	0.005335
1198	0.004873
1210	0.004895
1222	0.003971
1234	0.006204
1246	0.01562
1258	0.033077
1270	0.035244
1282	0.031988
1294	0.020306
1306	0.009647
1318	0.004433
1330	0.002255
1342	0.001584
1354	0.001771
1366	0.003113
1378	0.004972
1390	0.008492
1402	0.007623
1414	0.00506
1426	0.005555
1438	0.005236
1450	0.004961
1462	0.003982
1474	0.00286
1486	0.002189
1498	0.001331
1510	0.000825
1522	0.000484
1534	0.000308
1546	0.000165
1558	6.6e-05
1570	5.5e-05
1582	0
1594	2.2e-05
1606	3.3e-05
1618	4.4e-05
1630	7.7e-05
1642	9.9e-05
1654	0.000165
1666	0.000231
1678	0.000374
1690	0.000539
1702	0.000572
1714	0.00055
1726	0.000594
1738	0.000627
1750	0.000748
1762	0.000902
1774	0.001078
1786	0.001188
1798	0.001221
1810	0.001243
1822	0.001199
1834	0.001188
1846	0.0011
1858	0.000946
1870	0.000781
1882	0.000627
1894	0.00055
1906	0.000495
1918	0.000473
1930	0.000484
1942	0.000451
1954	0.000418
1966	0.000451
1978	0.000484
1990	0.000506
2002	0.000539
2014	0.000528
2026	0.000561
2038	0.000583
2050	0.000605
2062	0.000627
2074	0.00066
2086	0.000704
2098	0.000748
2110	0.00077
2122	0.00077
2134	0.000814
2146	0.000825
2158	0.000825
2170	0.000869
2182	0.000891
2194	0.000891
2206	0.000902
2218	0.000902
2230	0.000891
2242	0.000902
2254	0.000891
2266	0.000935
2278	0.000913
2290	0.000913
2302	0.000891
2314	0.000891
2326	0.000913
2338	0.000924
2350	0.000968
2362	0.000913
2374	0.000902
2386	0.000957
2398	0.000935
2410	0.00099
2422	0.001067
2434	0.001056
2446	0.001045
2458	0.001012
2470	0.000979
2482	0.000968
2494	0.000946
2506	0.000935
2518	0.000946
2530	0.000924
2542	0.000957
2554	0.000913
2566	0.000891
2578	0.000935
2590	0.000935
2602	0.000924
2614	0.000979
2626	0.00099
2638	0.000979
2650	0.00099
2662	0.001001
2674	0.001045
2686	0.001111
2698	0.001221
2710	0.001331
2722	0.001397
2734	0.001551
2746	0.001485
2758	0.001507
2770	0.001606
2782	0.001771
2794	0.00176
2806	0.002024
2818	0.002475
2830	0.003025
2842	0.003729
2854	0.004433
2866	0.00583
2878	0.008613
2890	0.010274
2902	0.011462
2914	0.015466
2926	0.019041
2938	0.027665
2950	0.023364
2962	0.020042
2974	0.025674
2986	0.030239
2998	0.021241
3010	0.01243
3022	0.007865
3034	0.004994
3046	0.003487
3058	0.002706
3070	0.002178
3082	0.001881
3094	0.001815
3106	0.001672
3118	0.001617
3130	0.001595
3142	0.001529
3154	0.001474
3166	0.001452
3178	0.001419
3190	0.001397
3202	0.001331
3214	0.001276
3226	0.001254
3238	0.001199
3250	0.001188
3262	0.001133
3274	0.001078
3286	0.00099
3298	0.001034
3310	0.001001
3322	0.001056
3334	0.001012
3346	0.000968
3358	0.000957
3370	0.000935
3382	0.000968
3394	0.000946
3406	0.001001
3418	0.000924
3430	0.000924
3442	0.00088
3454	0.000946
3466	0.000891
3478	0.000924
3490	0.000869
3502	0.00088
3514	0.000935
3526	0.000979
3538	0.000913
3550	0.000913
3562	0.000957
3574	0.00099
3586	0.000946
3598	0.000968
3610	0.000924
3622	0.000946
3634	0.000946
3646	0.001012
3658	0.000968
3670	0.000957
3682	0.000935
3694	0.001023
3706	0.001034
3718	0.001023
3730	0.001078
3742	0.001012
3754	0.001034
3766	0.001034
3778	0.001045
3790	0.000979
3802	0.001012
3814	0.001012
3826	0.001034
3838	0.001023
