Infrared Spectrum: 4,7-Dimethyl-5-decyn-4,7-diol
Formula: C 12 H 22 O 2
CAS: 126-87-4
State: gas
Instrument: HP-GC/MS/IRD
Origin: NIST Mass Spectrometry Data Center
1/CM	ABSORBANCE
550	0.0040052
562	0.0010336
574	0.0007524
586	0.0006631
598	0.0007087
610	0.0004693
622	0.0004408
634	0.0004161
646	0.000456
658	0.0003591
670	0.0002489
682	0.0001938
694	0.0001672
706	8.55e-05
718	8.93e-05
730	0.000247
742	0.0004921
754	0.0004978
766	0.0002926
778	0.0003097
790	0.000418
802	0.0005111
814	0.0004104
826	0.0003116
838	0.0004446
850	0.0007258
862	0.0009006
874	0.0011115
886	0.0015485
898	0.0020843
910	0.0024928
922	0.0029431
934	0.0043263
946	0.0041591
958	0.0020387
970	0.0012217
982	0.0010127
994	0.0012312
1006	0.0022591
1018	0.0034124
1030	0.0037316
1042	0.0033003
1054	0.002945
1066	0.0023655
1078	0.0024966
1090	0.0027626
1102	0.0032148
1114	0.0045258
1126	0.0066215
1138	0.0077463
1150	0.0072371
1162	0.0061123
1174	0.0046037
1186	0.0042826
1198	0.004655
1210	0.0043092
1222	0.0036822
1234	0.0033972
1246	0.0033687
1258	0.0036651
1270	0.004085
1282	0.0044479
1294	0.0046246
1306	0.0050578
1318	0.006688
1330	0.0083372
1342	0.0081168
1354	0.006707
1366	0.0061028
1378	0.005776
1390	0.0033383
1402	0.0018468
1414	0.0014535
1426	0.0015371
1438	0.002128
1450	0.0027797
1462	0.0030267
1474	0.0021698
1486	0.0009861
1498	0.0006251
1510	0.0005358
1522	0.0004503
1534	0.000342
1546	0.0003021
1558	0.0002717
1570	0.0001995
1582	0.0001501
1594	0.0001387
1606	0.0001311
1618	0.0001577
1630	0.0001368
1642	0.0001311
1654	0.0001672
1666	0.0001026
1678	9.12e-05
1690	7.6e-05
1702	0.0001102
1714	0.0001064
1726	2.28e-05
1738	4.18e-05
1750	8.17e-05
1762	5.51e-05
1774	8.17e-05
1786	8.17e-05
1798	9.69e-05
1810	5.51e-05
1822	8.55e-05
1834	8.36e-05
1846	8.93e-05
1858	8.36e-05
1870	9.5e-05
1882	6.27e-05
1894	4.94e-05
1906	6.27e-05
1918	5.89e-05
1930	4.75e-05
1942	5.51e-05
1954	8.74e-05
1966	6.08e-05
1978	6.46e-05
1990	8.17e-05
2002	5.32e-05
2014	7.98e-05
2026	9.31e-05
2038	6.08e-05
2050	8.36e-05
2062	0.0001007
2074	8.36e-05
2086	9.88e-05
2098	8.55e-05
2110	8.17e-05
2122	9.31e-05
2134	7.79e-05
2146	9.5e-05
2158	9.88e-05
2170	0.0001178
2182	0.0001121
2194	0.0001273
2206	0.0001178
2218	0.0001368
2230	0.000114
2242	0.0001406
2254	0.0001083
2266	0.0001197
2278	0.0001387
2290	0.0001083
2302	0.0001083
2314	8.17e-05
2326	7.98e-05
2338	8.55e-05
2350	8.55e-05
2362	2.47e-05
2374	9.31e-05
2386	0.0001273
2398	0.0001273
2410	0.0001387
2422	0.0001216
2434	0.0001159
2446	9.31e-05
2458	7.41e-05
2470	7.41e-05
2482	6.84e-05
2494	6.65e-05
2506	6.27e-05
2518	7.41e-05
2530	7.79e-05
2542	7.6e-05
2554	6.65e-05
2566	6.46e-05
2578	7.03e-05
2590	8.74e-05
2602	9.31e-05
2614	9.88e-05
2626	8.93e-05
2638	9.69e-05
2650	0.0001083
2662	0.0001235
2674	0.0001045
2686	0.0001482
2698	0.000133
2710	0.0001501
2722	0.0002242
2734	0.000285
2746	0.0003648
2758	0.000285
2770	0.0003363
2782	0.0003667
2794	0.0004845
2806	0.0006422
2818	0.0008797
2830	0.0011457
2842	0.0017974
2854	0.0026619
2866	0.0038836
2878	0.0067507
2890	0.0072827
2902	0.0060173
2914	0.0082137
2926	0.0111264
2938	0.0158061
2950	0.01444
2962	0.0162089
2974	0.0181279
2986	0.0154147
2998	0.0074309
3010	0.0027531
3022	0.0016188
3034	0.0011552
3046	0.0008455
3058	0.0005985
3070	0.0004693
3082	0.0004332
3094	0.000361
3106	0.0003439
3118	0.0002869
3130	0.0002736
3142	0.0002584
3154	0.0002223
3166	0.0002318
3178	0.0001919
3190	0.0002204
3202	0.0002147
3214	0.0001786
3226	0.000133
3238	0.0001045
3250	7.03e-05
3262	5.89e-05
3274	3.99e-05
3286	8.55e-05
3298	2.09e-05
3310	7.98e-05
3322	4.37e-05
3334	4.56e-05
3346	3.42e-05
3358	8.55e-05
3370	5.32e-05
3382	0.0001083
3394	0.0001064
3406	6.65e-05
3418	4.18e-05
3430	4.56e-05
3442	4.56e-05
3454	6.27e-05
3466	3.8e-06
3478	6.46e-05
3490	7.6e-05
3502	6.84e-05
3514	5.51e-05
3526	4.56e-05
3538	1.9e-05
3550	5.32e-05
3562	3.61e-05
3574	6.84e-05
3586	0.0001254
3598	0.0001387
3610	0.0003173
3622	0.0008493
3634	0.0028576
3646	0.0030191
3658	0.0008056
3670	0.0002413
3682	0.0001102
3694	0.0001121
3706	6.27e-05
3718	3.99e-05
3730	3.99e-05
3742	8.74e-05
3754	5.7e-05
3766	1.9e-06
3778	7.6e-05
3790	8.93e-05
3802	5.89e-05
3814	5.51e-05
3826	7.03e-05
3838	2.28e-05
