Infrared Spectrum: Butyl phosphate
Formula: C 12 H 27 O 4 P
CAS: 126-73-8
State: gas
Instrument: HP-GC/MS/IRD
Origin: NIST Mass Spectrometry Data Center
1/CM	ABSORBANCE
550	0.0016148
562	0.0018392
574	0.0009504
586	0.0005764
598	0.0003432
610	0.0002112
622	0.00022
634	9.68e-05
646	0.0001496
658	0.0001936
670	0.0002508
682	0.0003344
694	0.0003872
706	0.0006028
718	0.0011352
730	0.00176
742	0.0017732
754	0.001518
766	0.0014036
778	0.0014432
790	0.0016192
802	0.0024508
814	0.0031724
826	0.0030712
838	0.0031768
850	0.0032428
862	0.002992
874	0.0025256
886	0.0033836
898	0.0048268
910	0.0054076
922	0.0035948
934	0.00297
946	0.0042284
958	0.0066836
970	0.0107712
982	0.0157388
994	0.0152328
1006	0.0167376
1018	0.0299112
1030	0.044
1042	0.031438
1054	0.022902
1066	0.0198924
1078	0.011902
1090	0.0073128
1102	0.0048708
1114	0.003784
1126	0.0031988
1138	0.002618
1150	0.002156
1162	0.0016192
1174	0.0010736
1186	0.0007348
1198	0.0006556
1210	0.0006996
1222	0.0010912
1234	0.001672
1246	0.0021384
1258	0.0032472
1270	0.0061952
1282	0.0086372
1294	0.0085008
1306	0.0069872
1318	0.0030756
1330	0.0016192
1342	0.001122
1354	0.0008844
1366	0.0008536
1378	0.0012056
1390	0.0018832
1402	0.0012012
1414	0.0007216
1426	0.0008096
1438	0.0012408
1450	0.0015884
1462	0.0022308
1474	0.0021252
1486	0.001298
1498	0.0007436
1510	0.0004488
1522	0.0003476
1534	0.000308
1546	0.00022
1558	0.0001936
1570	0.0001496
1582	0.0001672
1594	0.000176
1606	0.00011
1618	0.0001232
1630	0.00011
1642	8.36e-05
1654	9.68e-05
1666	5.72e-05
1678	0.0001056
1690	0.0001012
1702	5.28e-05
1714	9.68e-05
1726	7.92e-05
1738	0.0001672
1750	0.0001628
1762	0.0001892
1774	0.0002156
1786	0.0002112
1798	0.0002288
1810	0.0002024
1822	0.0002244
1834	0.0002464
1846	0.0002112
1858	0.0001892
1870	0.00022
1882	0.0002464
1894	0.0002156
1906	0.0002244
1918	0.000198
1930	0.0001804
1942	0.0001936
1954	0.0001056
1966	0.0001012
1978	9.68e-05
1990	7.92e-05
2002	8.8e-05
2014	5.72e-05
2026	6.16e-05
2038	9.24e-05
2050	2.64e-05
2062	3.96e-05
2074	4.84e-05
2086	8.8e-06
2098	1.76e-05
2110	2.64e-05
2122	7.48e-05
2134	6.16e-05
2146	9.24e-05
2158	4.4e-06
2170	8.36e-05
2182	3.08e-05
2194	9.24e-05
2206	4.4e-05
2218	3.52e-05
2230	2.2e-05
2242	3.08e-05
2254	1.32e-05
2266	2.2e-05
2278	9.24e-05
2290	7.92e-05
2302	0.0001144
2314	8.36e-05
2326	3.96e-05
2338	6.16e-05
2350	7.04e-05
2362	8.36e-05
2374	7.48e-05
2386	7.04e-05
2398	0.0001012
2410	9.68e-05
2422	9.68e-05
2434	0.0001144
2446	9.68e-05
2458	0.0001012
2470	6.6e-05
2482	0.00011
2494	7.04e-05
2506	0.00011
2518	9.68e-05
2530	0.0001012
2542	0.0001364
2554	0.0001056
2566	0.0001232
2578	0.0001364
2590	0.0001672
2602	0.0001452
2614	0.0001276
2626	0.0001848
2638	0.0002112
2650	0.000154
2662	0.0002332
2674	0.0002728
2686	0.0002464
2698	0.0002948
2710	0.0003344
2722	0.0003388
2734	0.0004488
2746	0.0005192
2758	0.0006116
2770	0.0005544
2782	0.0006028
2794	0.0006204
2806	0.0006336
2818	0.0008668
2830	0.0011132
2842	0.0016852
2854	0.0026708
2866	0.003784
2878	0.006116
2890	0.0070004
2902	0.007238
2914	0.0086064
2926	0.0092796
2938	0.01166
2950	0.0135344
2962	0.0170412
2974	0.0175912
2986	0.0084348
2998	0.003872
3010	0.0021384
3022	0.0014652
3034	0.0011308
3046	0.000814
3058	0.0006292
3070	0.0005588
3082	0.00055
3094	0.0004048
3106	0.00044
3118	0.0003916
3130	0.000396
3142	0.0003432
3154	0.0002772
3166	0.0003476
3178	0.0002596
3190	0.000286
3202	0.0003036
3214	0.000308
3226	0.0002068
3238	0.0002244
3250	0.0002112
3262	0.000198
3274	0.0001672
3286	0.0001012
3298	0.000132
3310	1.76e-05
3322	0.0001276
3334	0.000154
3346	8.36e-05
3358	0.0001496
3370	0.0001716
3382	7.92e-05
3394	8.36e-05
3406	0.0002464
3418	0.0001628
3430	8.8e-05
3442	0.0001144
3454	0.0001056
3466	2.2e-05
3478	0.0001056
3490	0.000154
3502	0.0001012
3514	9.68e-05
3526	7.48e-05
3538	5.72e-05
3550	0
3562	0.0001408
3574	0
3586	6.6e-05
3598	0.0001496
3610	7.48e-05
3622	0.0001188
3634	9.24e-05
3646	0.0001056
3658	0.000176
3670	0.0001276
3682	0.0002244
3694	0.00011
3706	0.0001804
3718	0.0001804
3730	0.0001056
3742	6.16e-05
3754	0.000154
3766	0.0001276
3778	0.000198
3790	0.000198
3802	0.00022
3814	0.0002772
3826	0.0001452
3838	0.0002156
