Infrared Spectrum: Pyridine, 2-benzyl-, hydrochloride
Formula: C12 H12 Cl N
CAS: 126309-07-7
State: SOLID (KBr DISC, 0.8% WT.)
Class: COBLENTZ III
Instrument: PERKIN-ELMER 157
Sampling: TRANSMISSION
Resolution: 2
Origin: BRITISH PETROLEUM CO. LTD., ENGLAND
1/CM	TRANSMITTANCE
667	0.7879
676	0.7632
685	0.6671
694	0.2885
703	0.0684
712	0.6618
721	0.6047
730	0.1987
739	0.2232
748	0.1038
757	0.1277
766	0.0926
775	0.101
784	0.5397
793	0.7197
802	0.7523
811	0.683
820	0.6186
829	0.6736
838	0.5286
847	0.711
856	0.6963
865	0.731
874	0.7197
883	0.7004
892	0.6736
901	0.6158
910	0.6734
919	0.6367
928	0.5667
937	0.5733
946	0.5441
955	0.4396
964	0.5247
973	0.6245
982	0.6153
991	0.5303
1000	0.4007
1009	0.4058
1018	0.4687
1027	0.3004
1036	0.5105
1045	0.6045
1054	0.6175
1063	0.5617
1072	0.519
1081	0.4193
1090	0.3226
1099	0.5545
1108	0.5578
1117	0.582
1126	0.5628
1135	0.5227
1144	0.2564
1153	0.1019
1162	0.3871
1171	0.4956
1180	0.5311
1189	0.5286
1198	0.5509
1207	0.5433
1216	0.4087
1225	0.4366
1234	0.4444
1243	0.4354
1252	0.5374
1261	0.5399
1270	0.4689
1279	0.3294
1288	0.3694
1297	0.1673
1306	0.2683
1315	0.4358
1324	0.3955
1333	0.5272
1342	0.5518
1351	0.4991
1360	0.4823
1369	0.4489
1378	0.2146
1387	0.3716
1396	0.3779
1405	0.3035
1414	0.2708
1423	0.1858
1432	0.2471
1441	0.1548
1450	0.1226
1459	0.0799
1468	0.3813
1477	0.369
1486	0.1378
1495	0.4156
1504	0.4221
1513	0.3548
1522	0.2267
1531	0.1578
1540	0.4036
1549	0.4309
1558	0.4085
1567	0.3595
1576	0.264
1585	0.2254
1594	0.0793
1603	0.0256
1612	0.0385
1621	0.0547
1630	0.1828
1639	0.2831
1648	0.3402
1657	0.3739
1666	0.4084
1675	0.4602
1684	0.4812
1693	0.4839
1702	0.4824
1711	0.4703
1720	0.4588
1729	0.4536
1738	0.4723
1747	0.475
1756	0.473
1765	0.4476
1774	0.445
1783	0.4339
1792	0.4249
1801	0.4147
1810	0.4096
1819	0.3953
1828	0.3845
1837	0.3394
1846	0.3227
1855	0.3595
1864	0.3606
1873	0.3396
1882	0.3104
1891	0.2966
1900	0.2657
1909	0.2423
1918	0.2575
1927	0.2846
1936	0.2687
1945	0.2448
1954	0.2236
1963	0.1788
1972	0.1726
1981	0.2322
1990	0.2459
1999	0.2362
2008	0.2158
2017	0.1869
2026	0.1688
2035	0.1698
2044	0.2092
2053	0.2567
2062	0.2627
2071	0.267
2080	0.2687
2089	0.2697
2098	0.2698
2107	0.2696
2116	0.2691
2125	0.2681
2134	0.2655
2143	0.2618
2152	0.2602
2161	0.2593
2170	0.2588
2179	0.2579
2188	0.256
2197	0.2512
2206	0.2427
2215	0.2347
2224	0.2324
2233	0.2291
2242	0.2223
2251	0.2108
2260	0.2017
2269	0.1919
2278	0.1807
2287	0.1622
2296	0.1493
2305	0.1398
2314	0.1296
2323	0.1182
2332	0.1069
2341	0.0975
2350	0.0898
2359	0.0831
2368	0.0765
2377	0.0698
2386	0.0628
2395	0.0557
2404	0.048
2413	0.0402
2422	0.0338
2431	0.0316
2440	0.0282
2449	0.0147
2458	0.0138
2467	0.0132
2476	0.0128
2485	0.0126
2494	0.0123
2503	0.012
2512	0.0119
2521	0.0118
2530	0.0117
2539	0.0116
2548	0.0117
2557	0.0119
2566	0.0121
2575	0.0123
2584	0.0131
2593	0.0149
2602	0.0196
2611	0.0253
2620	0.0287
2629	0.0303
2638	0.0309
2647	0.0315
2656	0.032
2665	0.0321
2674	0.0323
2683	0.0323
2692	0.0323
2701	0.0323
2710	0.0323
2719	0.0324
2728	0.0325
2737	0.0326
2746	0.0328
2755	0.0442
2764	0.0481
2773	0.0546
2782	0.0579
2791	0.0605
2800	0.0631
2809	0.0655
2818	0.0674
2827	0.0708
2836	0.0792
2845	0.0807
2854	0.0812
2863	0.0814
2872	0.0815
2881	0.0816
2890	0.0816
2899	0.0816
2908	0.0815
2917	0.0809
2926	0.08
2935	0.0781
2944	0.0747
2953	0.0704
2962	0.0611
2971	0.0531
2980	0.0517
2989	0.0534
2998	0.0568
3007	0.0611
3016	0.0655
3025	0.0695
3034	0.0744
3043	0.08
3052	0.0859
3061	0.0919
3070	0.0999
3079	0.1044
3088	0.104
3097	0.1015
3106	0.098
3115	0.0962
3124	0.0957
3133	0.0953
3142	0.0926
3151	0.0879
3160	0.084
3169	0.0792
3178	0.0753
3187	0.0728
3196	0.0709
3205	0.0687
3214	0.0663
3223	0.0639
3232	0.061
3241	0.0579
3250	0.0545
3259	0.0506
3268	0.0459
3277	0.041
3286	0.0366
3295	0.0348
3304	0.0342
3313	0.0338
3322	0.0335
3331	0.0332
3340	0.0329
3349	0.0328
3358	0.0327
3367	0.0327
3376	0.033
3385	0.0332
3394	0.0336
3403	0.0357
3412	0.0385
3421	0.0413
3430	0.044
3439	0.0469
3448	0.0502
3457	0.0534
3466	0.0573
3475	0.0614
3484	0.0648
3493	0.0681
3502	0.0713
3511	0.0753
3520	0.0804
3529	0.0872
3538	0.0961
3547	0.1014
3556	0.1035
3565	0.1041
3574	0.1047
3583	0.109
3592	0.1142
3601	0.1158
3610	0.1171
3619	0.1186
3628	0.1191
3637	0.1196
3646	0.12
3655	0.1197
3664	0.1195
3673	0.1192
3682	0.1187
3691	0.1181
3700	0.1176
3709	0.1169
3718	0.1156
3727	0.1144
3736	0.1131
3745	0.1118
3754	0.1106
3763	0.1093
3772	0.1081
3781	0.1069
3790	0.1057
3799	0.1045
3808	0.1034
3817	0.1022
3826	0.1011
3835	0.1001
3844	0.0991
3853	0.0981
3862	0.0973
3871	0.0969
3880	0.0964
3889	0.096
3898	0.0956
3907	0.0951
3916	0.0947
3925	0.0944
3934	0.0941
3943	0.0939
3952	0.0936
3961	0.0933
3970	0.093
3979	0.0927
3988	0.0924
3997	0.0923
