Infrared Spectrum: 2,3-Dichlorothiophene-5-sulphonyl chloride
Formula: C 4 H Cl 3 O 2 S 2
CAS: 126714-85-0
State: gas
Origin: EPA-IR VAPOR PHASE LIBRARY
1/CM	ABSORBANCE
549.8	0.027138
559.445	0.036318
569.09	0.124668
578.734	0.198358
588.379	0.089668
598.024	0.169368
607.669	0.404738
617.313	0.121038
626.958	0.018628
636.603	0.009308
646.248	0.005948
655.893	0.004828
665.537	0.005698
675.182	0.007048
684.827	0.006458
694.472	0.017758
704.116	0.062638
713.761	0.022718
723.406	0.005088
733.051	0.004558
742.695	0.005318
752.34	0.005128
761.985	0.003568
771.63	0.002568
781.275	0.002228
790.919	0.002158
800.564	0.002728
810.209	0.002248
819.854	0.004278
829.498	0.004828
839.143	0.009588
848.788	0.022918
858.433	0.030728
868.078	0.033388
877.722	0.019858
887.367	0.007498
897.012	0.004228
906.657	0.005758
916.301	0.005278
925.946	0.003748
935.591	0.003548
945.236	0.003018
954.88	0.003058
964.525	0.003828
974.17	0.004488
983.815	0.007088
993.46	0.011418
1003.1	0.025828
1012.75	0.077938
1022.39	0.137168
1032.04	0.090708
1041.68	0.043608
1051.33	0.024678
1060.97	0.010058
1070.62	0.006048
1080.26	0.004478
1089.91	0.005578
1099.55	0.006478
1109.2	0.006248
1118.84	0.007058
1128.49	0.008228
1138.13	0.015228
1147.78	0.037198
1157.42	0.054558
1167.07	0.079368
1176.71	0.215958
1186.36	0.278748
1196	0.095598
1205.64	0.036618
1215.29	0.037058
1224.93	0.022578
1234.58	0.008478
1244.22	0.006308
1253.87	0.005378
1263.51	0.005718
1273.16	0.006448
1282.8	0.009268
1292.45	0.012928
1302.09	0.015508
1311.74	0.027358
1321.38	0.072078
1331.03	0.080008
1340.67	0.026028
1350.32	0.017628
1359.96	0.018458
1369.61	0.028998
1379.25	0.072728
1388.9	0.193028
1398.54	0.344418
1408.18	0.283058
1417.83	0.107678
1427.47	0.027458
1437.12	0.016488
1446.76	0.009368
1456.41	0.004638
1466.05	0.003238
1475.7	0.002518
1485.34	0.002788
1494.99	0.003998
1504.63	0.008828
1514.28	0.013668
1523.92	0.007008
1533.57	0.003738
1543.21	0.002088
1552.86	0.001688
1562.5	0.002298
1572.15	0.002708
1581.79	0.002268
1591.44	0.001718
1601.08	0.001838
1610.73	0.0016533
1620.37	0.001908
1630.01	0.002708
1639.66	0.002498
1649.3	0.002328
1658.95	0.002598
1668.59	0.002528
1678.24	0.002918
1687.88	0.003968
1697.53	0.004808
1707.17	0.004168
1716.82	0.003218
1726.46	0.003748
1736.11	0.002808
1745.75	0.002158
1755.4	0.0016062
1765.04	0.0014035
1774.69	0.001426
1784.33	0.0014521
1793.98	0.0012822
1803.62	0.0013299
1813.27	0.0011731
1822.91	0.0011827
1832.55	0.0010268
1842.2	0.0010342
1851.84	0.001489
1861.49	0.0012869
1871.13	0.0011672
1880.78	0.0016705
1890.42	0.001738
1900.07	0.001858
1909.71	0.001758
1919.36	0.001617
1929	0.0014354
1938.65	0.0010617
1948.29	0.0011951
1957.94	0.001191
1967.58	0.0011527
1977.23	0.000993
1986.87	0.0011493
1996.52	0.0010685
2006.16	0.0011605
2015.81	0.0011443
2025.45	0.0014671
2035.1	0.0015109
2044.74	0.0016015
2054.38	0.0015597
2064.03	0.0013497
2073.67	0.0015576
2083.32	0.001838
2092.96	0.0016235
2102.61	0.001748
2112.25	0.001169
2121.9	0.0014629
2131.54	0.0012277
2141.19	0.0010177
2150.83	0.0011036
2160.48	0.0009296
2170.12	0.001451
2179.77	0.0013656
2189.41	0.0012322
2199.06	0.0012477
2208.7	0.0013332
2218.35	0.0013427
2227.99	0.0009198
2237.64	0.0011492
2247.28	0.0011371
2256.92	0.0010275
2266.57	0.0010207
2276.21	0.0011128
2285.86	0.0009729
2295.5	0.0010938
2305.15	0.001181
2314.79	0.0009619
2324.44	0.0011969
2334.08	0.0010616
2343.73	0.0012841
2353.37	0.001968
2363.02	0.001848
2372.66	0.001898
2382.31	0.001858
2391.95	0.001748
2401.6	0.002488
2411.24	0.003248
2420.89	0.003418
2430.53	0.002658
2440.18	0.0012725
2449.82	0.0013631
2459.47	0.0014933
2469.11	0.0010258
2478.75	0.0011743
2488.4	0.0009302
2498.04	0.0010497
2507.69	0.0010821
2517.33	0.0011559
2526.98	0.0013865
2536.62	0.0016027
2546.27	0.0016645
2555.91	0.002358
2565.56	0.002418
2575.2	0.002488
2584.85	0.003088
2594.49	0.001818
2604.14	0.001394
2613.78	0.000989
2623.43	0.0011703
2633.07	0.0010359
2642.72	0.0008627
2652.36	0.0008342
2662.01	0.001878
2671.65	0.0012891
2681.29	0.0013207
2690.94	0.0010942
2700.58	0.0011608
2710.23	0.0009507
2719.87	0.0014019
2729.52	0.0010325
2739.16	0.000447
2748.81	0.0009237
2758.45	0.0006718
2768.1	0.0008945
2777.74	0.000374
2787.39	0.0011915
2797.03	0.0015193
2806.68	0.0014439
2816.32	0.0009367
2825.97	0.0010939
2835.61	0.00072661
2845.26	0.0012736
2854.9	0.000477
2864.55	0.0008712
2874.19	0.0011825
2883.84	0.000545
2893.48	0.00075327
2903.12	0.000369
2912.77	0.0010946
2922.41	0.0009131
2932.06	0.00069941
2941.7	0.000513
2951.35	0.0010344
2960.99	0.0010743
2970.64	0.00074691
2980.28	0.000582
2989.93	0.00072453
2999.57	0.0009449
3009.22	0.000309
3018.86	0.0011388
3028.51	0.0013144
3038.15	0.000483
3047.8	0.0008612
3057.44	0.0010063
3067.09	0.0014354
3076.73	0.0006508
3086.38	0.002308
3096.02	0.004328
3105.67	0.010248
3115.31	0.008308
3124.95	0.001645
3134.6	0.0011026
3144.24	0.0013369
3153.89	0.0010216
3163.53	0.0011407
3173.18	0.0010531
3182.82	0.0013031
3192.47	0.001698
3202.11	0.0008516
3211.76	0.000334
3221.4	0.0015766
3231.05	0.0010816
3240.69	0.0012495
3250.34	0.0010236
3259.98	0.000399
3269.63	0.00033
3279.27	0.000482
3288.92	0.0014841
3298.56	0.0006724
3308.21	0.000363
3317.85	0.001768
3327.49	0.0009116
3337.14	0.0011103
3346.78	0.0011013
3356.43	0.000491
3366.07	0.0009608
3375.72	0.0009631
3385.36	0.0008949
3395.01	0.0008429
3404.65	0.0014598
3414.3	0.0011834
3423.94	0.0012882
3433.59	0.0016349
3443.23	0.00046
3452.88	0.0010186
3462.52	0.0015875
3472.17	0.0013005
3481.81	0.000245
3491.46	0.0008943
3501.1	0.000519
3510.75	0.0010429
3520.39	0.0009227
3530.04	0.0009854
3539.68	0.0011501
3549.32	0.0014541
3558.97	0.0016045
3568.61	0.00116
3578.26	0.0008013
3587.9	0.0006227
3597.55	0.0013787
3607.19	0.0008055
3616.84	0.0015303
3626.48	0.0010534
3636.13	0.0012922
3645.77	0.000371
3655.42	0.00048
3665.06	0.00017
3674.71	0.000407
3684.35	0.0014301
3694	0.0011327
3703.64	0.0005987
3713.29	0.0013613
3722.93	0.001698
3732.58	0.0006296
3742.22	0.0011198
3751.86	0.0007114
3761.51	0.0013701
3771.15	0.0007983
3780.8	0.000507
3790.44	0.0012536
3800.09	0.0007
3809.73	0.0010826
3819.38	0.000572
3829.02	0.0010826
3838.67	0.000697064
3848.31	0.0005926
3857.96	0.0012589
3867.6	0.0011886
3877.25	0.0010384
3886.89	0.0014035
3896.54	0.0011539
3906.18	0.000571
3915.83	0.0010737
3925.47	0.0009671
3935.12	0.0013862
3944.76	0.00076922
3954.41	0.00071986
3964.05	0.001748
3973.69	0.0016286
3983.34	0.000832
3992.98	0.001357
