Infrared Spectrum: 2-Fluoro-4-(trifluoromethyl)benzoyl chloride
Formula: C 8 H 3 Cl F 4 O
CAS: 126917-10-0
State: gas
Origin: EPA-IR VAPOR PHASE LIBRARY
1/CM	ABSORBANCE
549.8	0.005459
559.445	0.006229
569.09	0.006439
578.734	0.008039
588.379	0.007729
598.024	0.006029
607.669	0.005109
617.313	0.003149
626.958	0.002749
636.603	0.003229
646.248	0.002979
655.893	0.004889
665.537	0.009609
675.182	0.019699
684.827	0.017009
694.472	0.006649
704.116	0.003379
713.761	0.002329
723.406	0.002139
733.051	0.003679
742.695	0.018309
752.34	0.019709
761.985	0.003119
771.63	0.003139
781.275	0.002649
790.919	0.004179
800.564	0.007099
810.209	0.012209
819.854	0.024769
829.498	0.049169
839.143	0.073429
848.788	0.065409
858.433	0.039219
868.078	0.034459
877.722	0.031619
887.367	0.029149
897.012	0.017649
906.657	0.016909
916.301	0.045599
925.946	0.104269
935.591	0.056619
945.236	0.020559
954.88	0.010219
964.525	0.006449
974.17	0.003869
983.815	0.003529
993.46	0.003749
1003.1	0.002679
1012.75	0.002349
1022.39	0.001847
1032.04	0.002699
1041.68	0.003759
1051.33	0.008619
1060.97	0.034549
1070.62	0.051069
1080.26	0.014179
1089.91	0.008379
1099.55	0.008499
1109.2	0.007619
1118.84	0.016809
1128.49	0.027829
1138.13	0.043869
1147.78	0.085749
1157.42	0.159849
1167.07	0.143819
1176.71	0.138019
1186.36	0.143979
1196	0.095029
1205.64	0.050529
1215.29	0.047409
1224.93	0.050369
1234.58	0.012719
1244.22	0.006989
1253.87	0.007939
1263.51	0.010659
1273.16	0.010059
1282.8	0.010539
1292.45	0.020629
1302.09	0.032459
1311.74	0.033939
1321.38	0.086729
1331.03	0.205599
1340.67	0.092579
1350.32	0.019509
1359.96	0.009059
1369.61	0.006399
1379.25	0.005499
1388.9	0.006879
1398.54	0.012249
1408.18	0.025929
1417.83	0.049839
1427.47	0.079789
1437.12	0.053319
1446.76	0.016889
1456.41	0.006869
1466.05	0.005019
1475.7	0.005119
1485.34	0.009259
1494.99	0.018739
1504.63	0.020659
1514.28	0.008939
1523.92	0.004149
1533.57	0.003049
1543.21	0.002379
1552.86	0.003019
1562.5	0.005059
1572.15	0.009429
1581.79	0.011169
1591.44	0.007449
1601.08	0.004249
1610.73	0.005639
1620.37	0.008459
1630.01	0.007719
1639.66	0.004239
1649.3	0.003159
1658.95	0.002889
1668.59	0.003179
1678.24	0.003439
1687.88	0.003709
1697.53	0.004189
1707.17	0.004819
1716.82	0.006109
1726.46	0.008529
1736.11	0.011239
1745.75	0.014089
1755.4	0.020089
1765.04	0.031449
1774.69	0.041149
1784.33	0.046269
1793.98	0.067779
1803.62	0.080039
1813.27	0.045169
1822.91	0.022179
1832.55	0.012209
1842.2	0.006549
1851.84	0.003449
1861.49	0.002599
1871.13	0.002109
1880.78	0.0018252
1890.42	0.0017759
1900.07	0.0018155
1909.71	0.002049
1919.36	0.002199
1929	0.002019
1938.65	0.0012558
1948.29	0.0011481
1957.94	0.001069
1967.58	0.0010602
1977.23	0.001075
1986.87	0.001037
1996.52	0.0009786
2006.16	0.0011156
2015.81	0.0008216
2025.45	0.0009493
2035.1	0.0012004
2044.74	0.0012541
2054.38	0.0012309
2064.03	0.0011701
2073.67	0.0014411
2083.32	0.0014374
2092.96	0.0011111
2102.61	0.0010064
2112.25	0.0011454
2121.9	0.0010848
2131.54	0.0011411
2141.19	0.001409
2150.83	0.0011154
2160.48	0.0010839
2170.12	0.0010682
2179.77	0.000806
2189.41	0.00092362
2199.06	0.00090527
2208.7	0.0010372
2218.35	0.001207
2227.99	0.0012863
2237.64	0.0014292
2247.28	0.0014912
2256.92	0.00139
2266.57	0.0014774
2276.21	0.0011722
2285.86	0.0013457
2295.5	0.0012218
2305.15	0.001331
2314.79	0.0013315
2324.44	0.0017155
2334.08	0.0015436
2343.73	0.0014597
2353.37	0.001656
2363.02	0.0012395
2372.66	0.0015387
2382.31	0.0012728
2391.95	0.0014619
2401.6	0.0014937
2411.24	0.0012069
2420.89	0.0010745
2430.53	0.0010125
2440.18	0.0012157
2449.82	0.001443
2459.47	0.0012139
2469.11	0.0009639
2478.75	0.0012197
2488.4	0.0008752
2498.04	0.0012992
2507.69	0.00084022
2517.33	0.0012255
2526.98	0.0011482
2536.62	0.0010723
2546.27	0.0010067
2555.91	0.0010164
2565.56	0.0013916
2575.2	0.0011379
2584.85	0.000704
2594.49	0.0009779
2604.14	0.000849678
2613.78	0.0008189
2623.43	0.0010323
2633.07	0.0010434
2642.72	0.0010296
2652.36	0.0011973
2662.01	0.0013814
2671.65	0.0008781
2681.29	0.000848439
2690.94	0.000616
2700.58	0.0010157
2710.23	0.000727
2719.87	0.0011164
2729.52	0.0012393
2739.16	0.0011351
2748.81	0.0010921
2758.45	0.0011507
2768.1	0.0009999
2777.74	0.0009832
2787.39	0.0009677
2797.03	0.00087695
2806.68	0.0011328
2816.32	0.0007743
2825.97	0.0011302
2835.61	0.000578
2845.26	0.0010711
2854.9	0.0010683
2864.55	0.000854518
2874.19	0.0009623
2883.84	0.0010421
2893.48	0.000518
2903.12	0.0012064
2912.77	0.00091403
2922.41	0.0011146
2932.06	0.00087109
2941.7	0.0010489
2951.35	0.0013731
2960.99	0.001143
2970.64	0.00088691
2980.28	0.001097
2989.93	0.0009602
2999.57	0.0014468
3009.22	0.0009932
3018.86	0.00088822
3028.51	0.0010443
3038.15	0.000773
3047.8	0.00094771
3057.44	0.0010007
3067.09	0.0013593
3076.73	0.002019
3086.38	0.001522
3096.02	0.002029
3105.67	0.00125
3115.31	0.0012555
3124.95	0.00089356
3134.6	0.00088488
3144.24	0.000653
3153.89	0.000666
3163.53	0.000494
3173.18	0.000754
3182.82	0.000453
3192.47	0.00028
3202.11	0.0007688
3211.76	0.0008105
3221.4	0.00067
3231.05	0.000717
3240.69	0.00089973
3250.34	0.0013318
3259.98	0.00090488
3269.63	0.000493
3279.27	0.00027
3288.92	0.0010265
3298.56	0.00086538
3308.21	0.000554
3317.85	0.0007952
3327.49	0.0013635
3337.14	0.0007895
3346.78	0.000515
3356.43	0.000489
3366.07	0.000579
3375.72	0.00053
3385.36	0.000673
3395.01	0.00093561
3404.65	0.000422
3414.3	0.000515
3423.94	0.0008176
3433.59	0.001406
3443.23	0.000986
3452.88	0.000609
3462.52	0.000742
3472.17	0.0009554
3481.81	0.00089761
3491.46	0.0009873
3501.1	0.0010899
3510.75	0.001417
3520.39	0.0012646
3530.04	0.0010016
3539.68	0.0012331
3549.32	0.0015957
3558.97	0.0010933
3568.61	0.001448
3578.26	0.0015554
3587.9	0.0010916
3597.55	0.0011884
3607.19	0.0016258
3616.84	0.00094607
3626.48	0.0010711
3636.13	0.00035
3645.77	0.000345
3655.42	0.000724
3665.06	0.00067
3674.71	0.0010005
3684.35	0.0007677
3694	0.0010372
3703.64	0.000367
3713.29	0.0011227
3722.93	0.000743
3732.58	0.0010053
3742.22	0.000452
3751.86	0.000666
3761.51	0.0008769
3771.15	0.0009775
3780.8	0.000515
3790.44	0.000605
3800.09	0.0010253
3809.73	0.000724
3819.38	0.000519
3829.02	0.000653
3838.67	0.001136
3848.31	0.000759
3857.96	0.000622
3867.6	0.000345
3877.25	0.000465
3886.89	0.000714
3896.54	0.00087539
3906.18	0.001017
3915.83	0.0008192
3925.47	0.00087067
3935.12	0.0012953
3944.76	0.000391
3954.41	0.0010777
3964.05	0.000703
3973.69	0.00068
3983.34	0.0010086
3992.98	0.00062
