Infrared Spectrum: 2-Phenyl-3-butyn-2-ol
Formula: C 10 H 10 O
CAS: 127-66-2
State: gas
Instrument: HP-GC/MS/IRD
Origin: NIST Mass Spectrometry Data Center
1/CM	ABSORBANCE
550	0.0007112
562	0.0016184
574	0.0037744
586	0.0036862
598	0.003269
610	0.003948
622	0.0063658
634	0.0134176
646	0.0100506
658	0.010955
670	0.006216
682	0.0054712
694	0.009422
706	0.0076818
718	0.003115
730	0.001547
742	0.0020328
754	0.0044786
766	0.00497
778	0.0019684
790	0.0005628
802	0.0001652
814	1.12e-05
826	0.0001344
838	0.0002716
850	0.0005796
862	0.0015288
874	0.0026726
886	0.0023548
898	0.0018816
910	0.0026474
922	0.004221
934	0.0048328
946	0.0025746
958	0.0007966
970	0.0004018
982	0.000364
994	0.0005978
1006	0.0013972
1018	0.0039102
1030	0.0066346
1042	0.0057722
1054	0.0051954
1066	0.0064316
1078	0.0080248
1090	0.007483
1102	0.0049112
1114	0.003304
1126	0.0029652
1138	0.0034398
1150	0.0039074
1162	0.0040908
1174	0.0042084
1186	0.0038738
1198	0.0034202
1210	0.0044072
1222	0.0054432
1234	0.0049616
1246	0.0051548
1258	0.0070686
1270	0.0061936
1282	0.0047236
1294	0.005166
1306	0.0067354
1318	0.00749
1330	0.005943
1342	0.0041776
1354	0.0031556
1366	0.003255
1378	0.0033082
1390	0.0016926
1402	0.0008582
1414	0.0008162
1426	0.001225
1438	0.0025648
1450	0.0032424
1462	0.0019754
1474	0.0013692
1486	0.0022834
1498	0.0022484
1510	0.000798
1522	0.0002884
1534	0.0002086
1546	0.0001554
1558	0.0001372
1570	9.94e-05
1582	0.0003318
1594	0.0008274
1606	0.0008274
1618	0.0002646
1630	2.8e-05
1642	1.12e-05
1654	1.54e-05
1666	0.0001092
1678	0.0001792
1690	7.14e-05
1702	4.9e-05
1714	4.34e-05
1726	5.46e-05
1738	0.0001204
1750	0.0001708
1762	0.0001176
1774	0.0001162
1786	0.0002632
1798	0.0004942
1810	0.0003458
1822	0.0001246
1834	5.88e-05
1846	6.02e-05
1858	0.0001302
1870	0.000301
1882	0.0004256
1894	0.00035
1906	0.0001526
1918	0.0001022
1930	0.000224
1942	0.0004298
1954	0.0004984
1966	0.000266
1978	6.72e-05
1990	3.64e-05
2002	3.5e-05
2014	2.8e-06
2026	1.54e-05
2038	1.4e-05
2050	2.24e-05
2062	6.3e-05
2074	3.64e-05
2086	4.34e-05
2098	4.62e-05
2110	7e-05
2122	7.42e-05
2134	5.18e-05
2146	3.22e-05
2158	1.26e-05
2170	2.24e-05
2182	3.36e-05
2194	4.06e-05
2206	2.8e-05
2218	2.38e-05
2230	5.6e-05
2242	3.92e-05
2254	5.88e-05
2266	5.88e-05
2278	5.32e-05
2290	6.16e-05
2302	3.78e-05
2314	0.0001162
2326	0.0001386
2338	0.0001176
2350	7.42e-05
2362	0.0001064
2374	8.96e-05
2386	6.58e-05
2398	6.3e-05
2410	8.68e-05
2422	8.96e-05
2434	8.82e-05
2446	4.76e-05
2458	7.42e-05
2470	4.62e-05
2482	3.36e-05
2494	2.66e-05
2506	3.78e-05
2518	4.9e-05
2530	4.48e-05
2542	1.96e-05
2554	1.54e-05
2566	1.96e-05
2578	3.08e-05
2590	4.48e-05
2602	7.84e-05
2614	8.26e-05
2626	6.72e-05
2638	6.02e-05
2650	6.16e-05
2662	8.82e-05
2674	0.0001148
2686	8.12e-05
2698	6.72e-05
2710	1.82e-05
2722	5.18e-05
2734	3.08e-05
2746	4.48e-05
2758	6.72e-05
2770	5.46e-05
2782	3.36e-05
2794	3.64e-05
2806	7.14e-05
2818	0.0001344
2830	0.000105
2842	0.0001134
2854	0.0002268
2866	0.0004704
2878	0.0006188
2890	0.0005586
2902	0.0004564
2914	0.0005726
2926	0.0011578
2938	0.0021742
2950	0.0017486
2962	0.0009772
2974	0.0014742
2986	0.0049042
2998	0.0065618
3010	0.0030926
3022	0.0021084
3034	0.0031164
3046	0.0034342
3058	0.0038262
3070	0.005866
3082	0.0047642
3094	0.0028714
3106	0.0017192
3118	0.0007966
3130	0.000294
3142	0.0002212
3154	0.0001386
3166	0.0001582
3178	0.0001372
3190	6.44e-05
3202	0.0001078
3214	0.000105
3226	0.0001302
3238	0.0001232
3250	0.0001778
3262	0.0003542
3274	0.0007504
3286	0.0014742
3298	0.0032452
3310	0.0055188
3322	0.0094374
3334	0.0068404
3346	0.001449
3358	0.0005586
3370	0.0003346
3382	0.0001848
3394	0.0001596
3406	0.0001372
3418	6.72e-05
3430	8.4e-05
3442	6.16e-05
3454	2.94e-05
3466	6.72e-05
3478	6.02e-05
3490	6.02e-05
3502	6.86e-05
3514	6.02e-05
3526	7e-05
3538	3.22e-05
3550	4.76e-05
3562	2.66e-05
3574	5.74e-05
3586	0.000126
3598	0.0002548
3610	0.0005516
3622	0.0018704
3634	0.0041902
3646	0.003059
3658	0.0009632
3670	0.0003556
3682	0.000182
3694	0.000112
3706	9.24e-05
3718	8.26e-05
3730	4.34e-05
3742	5.04e-05
3754	9.8e-05
3766	3.22e-05
3778	6.72e-05
3790	4.2e-06
3802	1.12e-05
3814	1.26e-05
3826	1.68e-05
3838	0
