Infrared Spectrum: 3-BUTEN-2-ONE, 3-METHYL-4-(2,6,6-TRIMETHYL-2-CYCLOHEXEN-1-YL)-
Formula: C14 H22 O
CAS: 127-51-5
State: (NEAT)
Class: COBLENTZ III
Instrument: UNICAM SP-200
Sampling: TRANSMISSION
Resolution: 4
Origin: BUSH BOAKE ALLEN LTD. VIA SCIENTIFIC DOC. CENTRE LTD.
1/CM	TRANSMITTANCE
637.409	0.532
648.513	0.566
659.617	0.6439
670.72	0.677
681.824	0.708
692.928	0.737
704.032	0.759
715.136	0.716
726.239	0.725
737.343	0.735
748.447	0.691
759.551	0.787
770.655	0.813
781.759	0.822
792.862	0.794
803.966	0.64
815.07	0.4061
826.174	0.57
837.278	0.433
848.381	0.6759
859.485	0.767
870.589	0.782
881.693	0.702
892.797	0.491
903.9	0.612
915.004	0.612
926.108	0.737
937.212	0.664
948.316	0.591
959.419	0.3411
970.523	0.145
981.627	0.383
992.731	0.538
1003.83	0.502
1014.94	0.399
1026.04	0.531
1037.15	0.574
1048.25	0.635
1059.35	0.674
1070.46	0.5901
1081.56	0.513
1092.67	0.496
1103.77	0.1681
1114.87	0.356
1125.98	0.423
1137.08	0.234
1148.18	0.593
1159.29	0.633
1170.39	0.555
1181.5	0.33
1192.6	0.15
1203.7	0.088
1214.81	0.3139
1225.91	0.461
1237.01	0.61
1248.12	0.645
1259.22	0.484
1270.33	0.589
1281.43	0.481
1292.53	0.602
1303.64	0.556
1314.74	0.469
1325.85	0.593
1336.95	0.432
1348.05	0.13
1359.16	0.165
1370.26	0.056
1381.36	0.088
1392.47	0.3001
1403.57	0.449
1414.68	0.335
1425.78	0.225
1436.88	0.12
1447.99	0.075
1459.09	0.07
1470.19	0.205
1481.3	0.453
1492.4	0.605
1503.51	0.676
1514.61	0.697
1525.71	0.711
1536.82	0.722
1547.92	0.725
1559.03	0.723
1570.13	0.702
1581.23	0.661
1592.34	0.572
1603.44	0.385
1614.54	0.193
1625.65	0.171
1636.75	0.335
1647.86	0.389
1658.96	0.223
1670.06	0.186
1681.17	0.056
1692.27	0.023
1703.37	0.25
1714.48	0.484
1725.58	0.617
1736.69	0.673
1747.79	0.716
1758.89	0.739
1770	0.762
1781.1	0.775
1792.21	0.789
1803.31	0.798
1814.41	0.801
1825.52	0.808
1836.62	0.808
1847.72	0.809
1858.83	0.808
1869.93	0.811
1881.04	0.81
1892.14	0.81
1903.24	0.809
1914.35	0.805
1925.45	0.804
1936.55	0.803
1947.66	0.807
1958.76	0.812
1969.87	0.813
1980.97	0.812
1992.07	0.813
2003.18	0.814
2014.28	0.815
2025.39	0.816
2036.49	0.817
2047.59	0.817
2058.7	0.8135
2069.8	0.8079
2080.9	0.8019
2092.01	0.8001
2103.11	0.8036
2114.22	0.8132
2125.32	0.8166
2136.42	0.8171
2147.53	0.8174
2158.63	0.815
2169.73	0.816
2180.84	0.816
2191.94	0.817
2203.05	0.818
2214.15	0.8187
2225.25	0.818
2236.36	0.817
2247.46	0.8158
2258.57	0.815
2269.67	0.815
2280.77	0.815
2291.88	0.815
2302.98	0.814
2314.08	0.815
2325.19	0.815
2336.29	0.8157
2347.4	0.8168
2358.5	0.818
2369.6	0.819
2380.71	0.8187
2391.81	0.8154
2402.91	0.8054
2414.02	0.8012
2425.12	0.799
2436.23	0.7998
2447.33	0.801
2458.43	0.7991
2469.54	0.7953
2480.64	0.7911
2491.75	0.7914
2502.85	0.7969
2513.95	0.799
2525.06	0.799
2536.16	0.7986
2547.26	0.797
2558.37	0.7921
2569.47	0.79
2580.58	0.79
2591.68	0.792
2602.78	0.794
2613.89	0.793
2624.99	0.7846
2636.09	0.775
2647.2	0.7595
2658.3	0.754
2669.41	0.751
2680.51	0.751
2691.61	0.754
2702.72	0.7467
2713.82	0.7251
2724.93	0.709
2736.03	0.7147
2747.13	0.7241
2758.24	0.725
2769.34	0.7249
2780.44	0.7059
2791.55	0.6676
2802.65	0.6091
2813.76	0.5278
2824.86	0.3852
2835.96	0.2342
2847.07	0.1347
2858.17	0.1014
2869.27	0.0793
2880.38	0.0716
2891.48	0.0673
2902.59	0.0596
2913.69	0.0499
2924.79	0.0393
2935.9	0.0323
2947	0.0298
2958.11	0.0265
2969.21	0.0223
2980.31	0.0532
2991.42	0.1661
3002.52	0.2624
3013.62	0.303
3024.73	0.3432
3035.83	0.4215
3046.94	0.5671
3058.04	0.6183
3069.14	0.6566
3080.25	0.6757
3091.35	0.6886
3102.45	0.6984
3113.56	0.7029
3124.66	0.7088
3135.77	0.7148
3146.87	0.7204
3157.97	0.7248
3169.08	0.7294
3180.18	0.732
3191.29	0.734
3202.39	0.735
3213.49	0.737
3224.6	0.739
3235.7	0.7425
3246.8	0.746
3257.91	0.751
3269.01	0.755
3280.12	0.7565
3291.22	0.758
3302.32	0.7595
3313.43	0.762
3324.53	0.761
3335.63	0.758
3346.74	0.758
3357.84	0.759
3368.95	0.7594
3380.05	0.7487
3391.15	0.737
3402.26	0.7381
3413.36	0.7422
3424.47	0.7641
3435.57	0.7676
3446.67	0.7691
3457.78	0.7727
3468.88	0.7762
3479.98	0.7787
3491.09	0.7802
3502.19	0.781
3513.3	0.782
3524.4	0.782
3535.5	0.783
3546.61	0.782
3557.71	0.7822
3568.81	0.784
3579.92	0.7818
3591.02	0.7792
3602.13	0.78
3613.23	0.781
3624.33	0.7813
3635.44	0.7838
3646.54	0.784
3657.65	0.785
3668.75	0.7863
3679.85	0.787
3690.96	0.788
3702.06	0.788
3713.16	0.788
3724.27	0.789
3735.37	0.789
3746.48	0.789
3757.58	0.7894
3768.68	0.7909
3779.79	0.791
3790.89	0.7891
3801.99	0.788
3813.1	0.787
3824.2	0.787
3835.31	0.787
3846.41	0.7865
3857.51	0.785
3868.62	0.784
3879.72	0.782
3890.83	0.781
3901.93	0.781
3913.03	0.7795
3924.14	0.778
3935.24	0.777
3946.34	0.777
3957.45	0.776
3968.55	0.775
3979.66	0.774
3990.76	0.7729
4001.86	0.7694
4012.97	0.769
4024.07	0.7696
4035.17	0.7711
4046.28	0.77
4057.38	0.771
4068.49	0.77
4079.59	0.7689
4090.69	0.7643
4101.8	0.763
4112.9	0.762
4124.01	0.761
4135.11	0.761
4146.21	0.759
4157.32	0.758
4168.42	0.7568
4179.52	0.756
4190.63	0.753
4201.73	0.7513
4212.84	0.7498
4223.94	0.749
4235.04	0.747
4246.15	0.7478
4257.25	0.752
4268.35	0.7492
4279.46	0.747
4290.56	0.7462
4301.67	0.745
4312.77	0.744
4323.87	0.742
4334.98	0.742
4346.08	0.74
4357.19	0.7381
4368.29	0.7349
4379.39	0.7281
4390.5	0.7192
4401.6	0.716
4412.7	0.718
4423.81	0.7171
4434.91	0.7164
4446.02	0.719
4457.12	0.721
4468.22	0.723
4479.33	0.725
4490.43	0.727
4501.53	0.729
4512.64	0.735
4523.74	0.7565
4534.85	0.759
4545.95	0.7635
4557.05	0.765
4568.16	0.7721
4579.26	0.7751
4590.37	0.78
4601.47	0.781
4612.57	0.782
4623.68	0.784
4634.78	0.784
4645.88	0.784
4656.99	0.783
4668.09	0.782
4679.2	0.782
4690.3	0.783
4701.4	0.784
4712.51	0.784
4723.61	0.782
4734.71	0.782
4745.82	0.783
4756.92	0.7832
4768.03	0.7823
4779.13	0.782
4790.23	0.7813
4801.34	0.7832
4812.44	0.784
4823.55	0.784
4834.65	0.783
4845.75	0.7842
4856.86	0.7842
4867.96	0.784
4879.06	0.783
4890.17	0.783
4901.27	0.784
4912.38	0.7813
4923.48	0.7848
4934.58	0.786
4945.69	0.787
4956.79	0.785
4967.89	0.786
4979	0.786
4990.1	0.785
5001.21	0.786
5012.31	0.785
