Infrared Spectrum: Trimethadione
Formula: C 6 H 9 N O 3
CAS: 127-48-0
State: gas
Instrument: HP-GC/MS/IRD
Origin: NIST Mass Spectrometry Data Center
1/CM	ABSORBANCE
550	0.00164
562	0.0015785
574	0.0019475
586	0.000492
598	0
610	0.0013735
622	0.0050225
634	0.005125
646	0.001763
658	0.0006765
670	0.000246
682	0.001394
694	0.0024395
706	0.001148
718	6.15e-05
730	0.0001435
742	0.000902
754	0.002542
766	0.004592
778	0.0055965
790	0.0025625
802	0.000492
814	0.000205
826	0.0002665
838	0.000287
850	0.0002255
862	0.0003075
874	0.0004715
886	0.0007175
898	0.001107
910	0.0016605
922	0.001394
934	0.00082
946	0.001066
958	0.001763
970	0.0037105
982	0.0111725
994	0.017384
1006	0.011275
1018	0.0049815
1030	0.00779
1042	0.0154775
1054	0.016072
1066	0.008979
1078	0.013448
1090	0.0347885
1102	0.036654
1114	0.011398
1126	0.0037925
1138	0.0037925
1150	0.0041
1162	0.003526
1174	0.0055145
1186	0.013038
1198	0.021238
1210	0.015293
1222	0.006027
1234	0.0035055
1246	0.0058015
1258	0.0118695
1270	0.0179785
1282	0.0225295
1294	0.0225295
1306	0.017589
1318	0.011685
1330	0.006642
1342	0.0053095
1354	0.0071545
1366	0.012259
1378	0.022345
1390	0.0377815
1402	0.038745
1414	0.0227345
1426	0.0235135
1438	0.0447515
1450	0.0486465
1462	0.028126
1474	0.015744
1486	0.008241
1498	0.005822
1510	0.006314
1522	0.0060065
1534	0.004141
1546	0.0027265
1558	0.0023165
1570	0.002009
1582	0.00164
1594	0.0014145
1606	0.0013735
1618	0.001353
1630	0.0011685
1642	0.00123
1654	0.0017425
1666	0.0024395
1678	0.0030545
1690	0.0032185
1702	0.0035465
1714	0.005617
1726	0.011685
1738	0.038622
1750	0.135771
1762	0.205
1774	0.123718
1786	0.035711
1798	0.0135095
1810	0.0143295
1822	0.0469655
1834	0.0846445
1846	0.057687
1858	0.0131405
1870	0.004592
1882	0.002911
1894	0.002214
1906	0.0014965
1918	0.001066
1930	0.0009635
1942	0.001189
1954	0.0016605
1966	0.0020705
1978	0.0018655
1990	0.001312
2002	0.0009225
2014	0.000738
2026	0.0005945
2038	0.0004305
2050	0.0003895
2062	0.0003895
2074	0.0004715
2086	0.000451
2098	0.0003895
2110	0.000328
2122	0.0004715
2134	0.0006355
2146	0.0006765
2158	0.000574
2170	0.0006355
2182	0.0010045
2194	0.000984
2206	0.0005125
2218	0.0002255
2230	0.0001845
2242	0.000164
2254	0.0002255
2266	0.0003485
2278	0.0004715
2290	0.000574
2302	0.0004715
2314	0.0003075
2326	0.000246
2338	0.0001845
2350	0.000205
2362	0.0002665
2374	0.0003895
2386	0.0004715
2398	0.00041
2410	0.0003075
2422	0.000246
2434	0.000328
2446	0.000492
2458	0.0005125
2470	0.0004715
2482	0.0004305
2494	0.0003895
2506	0.000246
2518	0.000164
2530	0.000164
2542	0.0001435
2554	0.0001025
2566	0.000164
2578	0.000164
2590	0.0001025
2602	6.15e-05
2614	4.1e-05
2626	4.1e-05
2638	0.0001025
2650	0.000164
2662	0.000205
2674	0.000205
2686	0.0001845
2698	0.0001435
2710	0.0001845
2722	0.000164
2734	0.000164
2746	0.0001025
2758	8.2e-05
2770	6.15e-05
2782	0.0001025
2794	0.0001435
2806	0.0002665
2818	0.0004305
2830	0.000574
2842	0.000615
2854	0.0007175
2866	0.00123
2878	0.0019885
2890	0.0022755
2902	0.002501
2914	0.002993
2926	0.003772
2938	0.005863
2950	0.007913
2962	0.0068675
2974	0.006068
2986	0.0119105
2998	0.0127715
3010	0.005002
3022	0.00123
3034	0.0006355
3046	0.000615
3058	0.0006355
3070	0.0006765
3082	0.000656
3094	0.000615
3106	0.000492
3118	0.00041
3130	0.0003895
3142	0.000328
3154	0.000287
3166	0.000246
3178	0.0002255
3190	0.000287
3202	0.0003075
3214	0.000205
3226	0.0002255
3238	0.000123
3250	8.2e-05
3262	6.15e-05
3274	6.15e-05
3286	8.2e-05
3298	8.2e-05
3310	0.0001025
3322	8.2e-05
3334	0
3346	2.05e-05
3358	4.1e-05
3370	0
3382	2.05e-05
3394	4.1e-05
3406	4.1e-05
3418	8.2e-05
3430	0.000123
3442	0.000123
3454	0.000123
3466	0.000123
3478	0.0002255
3490	0.000451
3502	0.000697
3514	0.0007995
3526	0.0006765
3538	0.0005125
3550	0.0004715
3562	0.000533
3574	0.0009635
3586	0.0013325
3598	0.0010045
3610	0.000451
3622	0.0003075
3634	0.0003485
3646	0.000615
3658	0.00082
3670	0.000697
3682	0.0003895
3694	0.000246
3706	0.0001845
3718	0.000123
3730	0.000123
3742	0.0001025
3754	8.2e-05
3766	0.0001025
3778	0.0001435
3790	0.000123
3802	0.0001435
3814	0.000123
3826	0.0001435
3838	0.000123
