Infrared Spectrum: N'-(4-METHYL-2-PYRIMIDYL) SULFANILAMIDE
Formula: C11 H12 N4 O2 S
CAS: 127-79-7
State: SOLID (MINERAL OIL MULL)
Melting point: 234-238 C
Class: COBLENTZ III
Instrument: PERKIN-ELMER 21 (GRATING)
Resolution: 2
Origin: THE SQUIBB INSTITUTE FOR MEDICAL RESEARCH
1/CM	TRANSMITTANCE
662	0.6504
671	0.7387
680	0.3799
689	0.7157
698	0.7616
707	0.7505
716	0.7067
725	0.6884
734	0.6305
743	0.567
752	0.5447
761	0.6923
770	0.7399
779	0.7166
788	0.6744
797	0.5206
806	0.5118
815	0.5352
824	0.5675
833	0.5501
842	0.6151
851	0.7074
860	0.6943
869	0.6405
878	0.5165
887	0.3977
896	0.433
905	0.6585
914	0.7527
923	0.784
932	0.7852
941	0.7768
950	0.7461
959	0.5954
968	0.5188
977	0.6957
986	0.7906
995	0.7812
1004	0.7445
1013	0.7921
1022	0.7796
1031	0.7386
1040	0.6827
1049	0.6651
1058	0.7284
1067	0.7587
1076	0.7348
1085	0.5306
1094	0.2172
1103	0.6804
1112	0.6386
1121	0.7101
1130	0.6188
1139	0.4261
1148	0.1683
1157	0.0348
1166	0.1696
1175	0.6707
1184	0.7493
1193	0.4653
1202	0.7623
1211	0.8348
1220	0.85
1229	0.8387
1238	0.8058
1247	0.6694
1256	0.834
1265	0.8181
1274	0.7913
1283	0.7587
1292	0.678
1301	0.4452
1310	0.5593
1319	0.4648
1328	0.1633
1337	0.2114
1346	0.2928
1355	0.583
1364	0.5569
1373	0.3261
1382	0.4418
1391	0.5722
1400	0.475
1409	0.2679
1418	0.3489
1427	0.5646
1436	0.4942
1445	0.3585
1454	0.2629
1463	0.3087
1472	0.3615
1481	0.4242
1490	0.2751
1499	0.1782
1508	0.2555
1517	0.5734
1526	0.6277
1535	0.6154
1544	0.5708
1553	0.5413
1562	0.3918
1571	0.2007
1580	0.1865
1589	0.4088
1598	0.1923
1607	0.096
1616	0.4277
1625	0.584
1634	0.2825
1643	0.3507
1652	0.3013
1661	0.8175
1670	0.852
1679	0.915
1688	0.9336
1697	0.9399
1706	0.9429
1715	0.9446
1724	0.9455
1733	0.9463
1742	0.947
1751	0.9469
1760	0.9463
1769	0.9467
1778	0.9472
1787	0.9478
1796	0.9483
1805	0.9488
1814	0.9487
1823	0.9485
1832	0.948
1841	0.9475
1850	0.9468
1859	0.9449
1868	0.9431
1877	0.9402
1886	0.9372
1895	0.9354
1904	0.9346
1913	0.9349
1922	0.9363
1931	0.9372
1940	0.937
1949	0.9354
1958	0.9334
1967	0.9305
1976	0.9279
1985	0.9256
1994	0.9234
2003	0.9213
2012	0.9197
2021	0.9183
2030	0.9167
2039	0.9152
2048	0.9141
2057	0.913
2066	0.9119
2075	0.9107
2084	0.9096
2093	0.9085
2102	0.9074
2111	0.9065
2120	0.9056
2129	0.9026
2138	0.8979
2147	0.8937
2156	0.891
2165	0.8896
2174	0.8881
2183	0.8863
2192	0.8834
2201	0.8805
2210	0.8776
2219	0.8746
2228	0.8714
2237	0.8682
2246	0.8652
2255	0.8619
2264	0.8583
2273	0.8547
2282	0.8512
2291	0.8469
2300	0.8399
2309	0.8356
2318	0.8319
2327	0.8297
2336	0.8268
2345	0.824
2354	0.8223
2363	0.8211
2372	0.8199
2381	0.8187
2390	0.8176
2399	0.8167
2408	0.8158
2417	0.8146
2426	0.811
2435	0.8073
2444	0.8029
2453	0.7983
2462	0.7925
2471	0.7851
2480	0.7784
2489	0.7718
2498	0.766
2507	0.7607
2516	0.7554
2525	0.7502
2534	0.7448
2543	0.7396
2552	0.7326
2561	0.7233
2570	0.7131
2579	0.6992
2588	0.6806
2597	0.6657
2606	0.6541
2615	0.6436
2624	0.6341
2633	0.6236
2642	0.6026
2651	0.5894
2660	0.5779
2669	0.5686
2678	0.5593
2687	0.5504
2696	0.5431
2705	0.5358
2714	0.5285
2723	0.5214
2732	0.5142
2741	0.5072
2750	0.5003
2759	0.4926
2768	0.4828
2777	0.4731
2786	0.4653
2795	0.4581
2804	0.4501
2813	0.4081
2822	0.3602
2831	0.3083
2840	0.2627
2849	0.2177
2858	0.1729
2867	0.1602
2876	0.1609
2885	0.163
2894	0.1662
2903	0.1703
2912	0.1742
2921	0.1779
2930	0.1818
2939	0.1878
2948	0.2041
2957	0.2668
2966	0.2945
2975	0.3124
2984	0.3698
2993	0.4373
3002	0.503
3011	0.5219
3020	0.5235
3029	0.5252
3038	0.5272
3047	0.5295
3056	0.5325
3065	0.5365
3074	0.542
3083	0.557
3092	0.5766
3101	0.5857
3110	0.5904
3119	0.5954
3128	0.6002
3137	0.6089
3146	0.6659
3155	0.7022
3164	0.7255
3173	0.7307
3182	0.7327
3191	0.7332
3200	0.7331
3209	0.7322
3218	0.731
3227	0.7297
3236	0.7287
3245	0.7294
3254	0.7328
3263	0.7371
3272	0.7418
3281	0.747
3290	0.7521
3299	0.7574
3308	0.7532
3317	0.7513
3326	0.7466
3335	0.7195
3344	0.6728
3353	0.6264
3362	0.5802
3371	0.5344
3380	0.4887
3389	0.4433
3398	0.4006
3407	0.4115
3416	0.5648
3425	0.7153
3434	0.7633
3443	0.7529
3452	0.7155
3461	0.6773
3470	0.6394
3479	0.6017
3488	0.5642
3497	0.5268
3506	0.4896
3515	0.4844
3524	0.5553
3533	0.7636
3542	0.8223
3551	0.824
3560	0.824
3569	0.8236
3578	0.8229
3587	0.8221
3596	0.821
3605	0.8197
3614	0.818
3623	0.8162
3632	0.814
3641	0.8116
3650	0.8093
3659	0.8074
3668	0.8057
3677	0.8038
3686	0.8021
3695	0.8003
3704	0.7987
3713	0.7972
3722	0.7956
3731	0.7941
3740	0.7926
3749	0.791
3758	0.7893
3767	0.7877
3776	0.786
3785	0.7844
3794	0.7827
3803	0.7811
3812	0.7794
3821	0.7777
3830	0.7761
3839	0.7745
3848	0.7733
3857	0.7721
3866	0.771
3875	0.7698
3884	0.7686
3893	0.7675
3902	0.7663
3911	0.7652
3920	0.7641
3929	0.7629
3938	0.7618
3947	0.7609
3956	0.7599
3965	0.759
3974	0.758
3983	0.757
3992	0.7561
