Infrared Spectrum: 1,3-Dichlorotetrafluoroacetone
Formula: C 3 Cl 2 F 4 O
CAS: 127-21-9
State: gas
Instrument: HP-GC/MS/IRD
Origin: NIST Mass Spectrometry Data Center
1/CM	ABSORBANCE
550	0.0007414
562	0.000198
574	0.0002222
586	0.0004686
598	0.0008316
610	0.00165
622	0.0019888
634	0.000968
646	0.0004752
658	0.0004466
670	0.0006094
682	0.0018414
694	0.0030426
706	0.0026752
718	0.0028358
730	0.002508
742	0.0019734
754	0.0012078
766	0.0010362
778	0.0015708
790	0.0036718
802	0.006633
814	0.0066572
826	0.0046266
838	0.0038874
850	0.0048906
862	0.0059818
874	0.006237
886	0.0033198
898	0.0011726
910	0.0005478
922	0.0005566
934	0.0008514
946	0.0013794
958	0.003267
970	0.0062436
982	0.007843
994	0.0057332
1006	0.0035926
1018	0.003322
1030	0.0043164
1042	0.0058696
1054	0.00913
1066	0.011187
1078	0.0083468
1090	0.0052338
1102	0.0041294
1114	0.0046266
1126	0.0075746
1138	0.0124872
1150	0.0158708
1162	0.0178112
1174	0.020471
1186	0.0218504
1198	0.016467
1210	0.008921
1222	0.0054714
1234	0.0054406
1246	0.0064152
1258	0.0054516
1270	0.0027192
1282	0.0011022
1294	0.0006116
1306	0.0005104
1318	0.0003872
1330	0.000396
1342	0.0003828
1354	0.0002882
1366	0.0002772
1378	0.0002288
1390	0.0002068
1402	0.0001804
1414	0.0001716
1426	0.0001606
1438	0.0001496
1450	0.0001364
1462	0.0001298
1474	0.0001386
1486	0.0001408
1498	0.0001298
1510	0.0001386
1522	0.000165
1534	0.0001364
1546	0.0002046
1558	0.0002134
1570	0.0002222
1582	0.0002552
1594	0.0002442
1606	0.0002574
1618	0.0002596
1630	0.0002508
1642	0.0002706
1654	0.000308
1666	0.0002508
1678	0.0002816
1690	0.0003234
1702	0.0003124
1714	0.0002992
1726	0.0003344
1738	0.0004224
1750	0.0005588
1762	0.0009218
1774	0.0020416
1786	0.0048774
1798	0.006281
1810	0.0028094
1822	0.0008668
1834	0.0004796
1846	0.000352
1858	0.000308
1870	0.0002816
1882	0.0002574
1894	0.0002816
1906	0.0002706
1918	0.0002684
1930	0.0002442
1942	0.0002398
1954	0.0002552
1966	0.0002288
1978	0.0002222
1990	0.0002332
2002	0.0001936
2014	0.00022
2026	0.0001892
2038	0.000253
2050	0.0002464
2062	0.0002068
2074	0.000231
2086	0.0002244
2098	0.0002354
2110	0.0002442
2122	0.0001914
2134	0.0002618
2146	0.0002596
2158	0.000264
2170	0.0003058
2182	0.000275
2194	0.0003608
2206	0.0003322
2218	0.0003344
2230	0.0003124
2242	0.0002772
2254	0.000297
2266	0.000275
2278	0.0002662
2290	0.0003388
2302	0.0003256
2314	0.00033
2326	0.0003454
2338	0.000352
2350	0.0002948
2362	0.0002772
2374	0.0002838
2386	0.0002882
2398	0.0002662
2410	0.000308
2422	0.000264
2434	0.0002486
2446	0.0002574
2458	0.0002002
2470	0.0002178
2482	0.000242
2494	0.0002376
2506	0.0002024
2518	0.0002178
2530	0.0001452
2542	0.000198
2554	0.000154
2566	0.0001496
2578	0.0001144
2590	0.0001672
2602	0.0001848
2614	0.0002442
2626	0.0002024
2638	0.0001694
2650	0.000187
2662	0.0002288
2674	0.000231
2686	0.0002068
2698	0.0001628
2710	0.0001716
2722	0.000143
2734	0.0001936
2746	0.0001606
2758	0.000209
2770	0.0001738
2782	0.0001804
2794	0.0002266
2806	0.0002288
2818	0.0001298
2830	0.0001892
2842	0.0001562
2854	0.00022
2866	0.000187
2878	0.0001518
2890	0.0001474
2902	0.000187
2914	5.5e-05
2926	0.000242
2938	0.0001408
2950	0.0002354
2962	0.0001672
2974	0.000264
2986	0.000132
2998	0.0001452
3010	0.0002266
3022	0.0002772
3034	0.0002882
3046	0.0002728
3058	0.0003058
3070	0.0002706
3082	0.0001562
3094	0.0001562
3106	0.0002288
3118	0.0001892
3130	0.0001694
3142	0.0003014
3154	0.000275
3166	0.0001716
3178	0.0002662
3190	0.0001848
3202	0.0001782
3214	0.0002178
3226	0.0001738
3238	0.0001628
3250	0.0002596
3262	0.0001936
3274	0.0003212
3286	0.0002288
3298	0.0002464
3310	0.0003036
3322	0.0002596
3334	0.0002068
3346	0.0002552
3358	0.000319
3370	0.0003652
3382	0.0002662
3394	0.0002882
3406	0.000319
3418	0.0003828
3430	0.0003454
3442	0.000198
3454	0.0003652
3466	0.0003036
3478	0.0003124
3490	0.0003762
3502	0.0003916
3514	0.0003784
3526	0.0003894
3538	0.0005214
3550	0.0005918
3562	0.0005588
3574	0.0006028
3586	0.0005126
3598	0.0004202
3610	0.0003608
3622	0.0003036
3634	0.0004004
3646	0.0004686
3658	0.0004004
3670	0.0004136
3682	0.0002816
3694	0.0003366
3706	0.000341
3718	0.0003564
3730	0.00022
3742	0.0003146
3754	0.0003498
3766	0.0003982
3778	0.0003894
3790	0.0003322
3802	0.0004862
3814	0.0003608
3826	0.0002948
3838	0.000374
