Infrared Spectrum: 1-(2,6,6-TRIMETHYL-1-CYCLOHEXEN-1-YL)-1-PENTEN-3-ONE
Formula: C14 H22 O
CAS: 127-43-5
State: LIQUID
Boiling point: 133 C AT 9 mmHg
Class: COBLENTZ
Instrument: Not specified, most likely a prism, grating, or hybrid spectrometer.
Sampling: TRANSMISSION
Path length: 0.0025 CM
Resolution: 4
Origin: INFRACORD
MICROMETERS	TRANSMITTANCE
2.524	0.92
2.55943	0.915
2.59485	0.915
2.63028	0.915
2.6657	0.904
2.70113	0.862
2.73655	0.802
2.77198	0.706
2.8074	0.624
2.84283	0.603
2.87826	0.607
2.91368	0.631
2.94911	0.646
2.98453	0.657
3.01996	0.669
3.05538	0.674
3.09081	0.675
3.12623	0.694
3.16166	0.694
3.19709	0.695
3.23251	0.665
3.26794	0.579
3.30336	0.375
3.33879	0.081
3.37421	0.029
3.40964	0.048
3.44507	0.139
3.48049	0.328
3.51592	0.608
3.55134	0.733
3.58677	0.782
3.62219	0.789
3.65762	0.789
3.69304	0.794
3.72847	0.805
3.7639	0.824
3.79932	0.839
3.83475	0.842
3.87017	0.846
3.9056	0.848
3.94102	0.854
3.97645	0.861
4.01187	0.869
4.0473	0.875
4.08273	0.879
4.11815	0.879
4.15358	0.879
4.189	0.879
4.22443	0.88
4.25985	0.882
4.29528	0.891
4.3307	0.893
4.36613	0.897
4.40156	0.898
4.43698	0.9
4.47241	0.904
4.50783	0.907
4.54326	0.908
4.57868	0.908
4.61411	0.908
4.64953	0.91
4.68496	0.912
4.72039	0.912
4.75581	0.912
4.79124	0.912
4.82666	0.913
4.86209	0.912
4.89751	0.912
4.93294	0.912
4.96837	0.912
5.00379	0.911
5.03922	0.913
5.07464	0.912
5.11007	0.912
5.14549	0.912
5.18092	0.912
5.21634	0.913
5.25177	0.913
5.2872	0.913
5.32262	0.913
5.35805	0.913
5.39347	0.895
5.4289	0.887
5.46432	0.881
5.49975	0.874
5.53517	0.839
5.5706	0.777
5.60603	0.705
5.64145	0.577
5.67688	0.443
5.7123	0.323
5.74773	0.256
5.78315	0.239
5.81858	0.202
5.854	0.175
5.88943	0.124
5.92486	0.086
5.96028	0.063
5.99571	0.029
6.03113	0.092
6.06656	0.267
6.10198	0.337
6.13741	0.234
6.17283	0.223
6.20826	0.227
6.24369	0.236
6.27911	0.305
6.31454	0.402
6.34996	0.545
6.38539	0.694
6.42081	0.752
6.45624	0.789
6.49166	0.797
6.52709	0.803
6.56252	0.813
6.59794	0.813
6.63337	0.822
6.66879	0.817
6.70422	0.784
6.73964	0.636
6.77507	0.482
6.8105	0.252
6.84592	0.144
6.88135	0.14
6.91677	0.216
6.9522	0.315
6.98762	0.383
7.02305	0.427
7.05847	0.426
7.0939	0.401
7.12933	0.428
7.16475	0.454
7.20018	0.382
7.2356	0.229
7.27103	0.184
7.30645	0.2
7.34188	0.159
7.3773	0.168
7.41273	0.228
7.44816	0.317
7.48358	0.364
7.51901	0.407
7.55443	0.422
7.58986	0.422
7.62528	0.424
7.66071	0.456
7.69613	0.468
7.73156	0.468
7.76699	0.468
7.80241	0.444
7.83784	0.403
7.87326	0.396
7.90869	0.383
7.94411	0.32
7.97954	0.282
8.01496	0.34
8.05039	0.404
8.08582	0.42
8.12124	0.436
8.15667	0.44
8.19209	0.415
8.22752	0.332
8.26294	0.26
8.29837	0.213
8.3338	0.16
8.36922	0.121
8.40465	0.132
8.44007	0.197
8.4755	0.233
8.51092	0.239
8.54635	0.256
8.58177	0.319
8.6172	0.371
8.65263	0.389
8.68805	0.389
8.72348	0.382
8.7589	0.371
8.79433	0.371
8.82975	0.359
8.86518	0.3
8.9006	0.289
8.93603	0.273
8.97146	0.259
9.00688	0.359
9.04231	0.443
9.07773	0.482
9.11316	0.502
9.14858	0.532
9.18401	0.544
9.21943	0.536
9.25486	0.485
9.29029	0.431
9.32571	0.371
9.36114	0.352
9.39656	0.357
9.43199	0.411
9.46741	0.433
9.50284	0.417
9.53826	0.352
9.57369	0.317
9.60912	0.293
9.64454	0.28
9.67997	0.291
9.71539	0.307
9.75082	0.324
9.78624	0.383
9.82167	0.434
9.8571	0.457
9.89252	0.463
9.92795	0.454
9.96337	0.411
9.9988	0.334
10.0342	0.288
10.0696	0.256
10.1051	0.221
10.1405	0.201
10.1759	0.204
10.2114	0.256
10.2468	0.331
10.2822	0.433
10.3176	0.482
10.3531	0.508
10.3885	0.526
10.4239	0.549
10.4593	0.589
10.4948	0.613
10.5302	0.616
10.5656	0.617
10.601	0.616
10.6365	0.616
10.6719	0.634
10.7073	0.657
10.7427	0.66
10.7782	0.661
10.8136	0.661
10.849	0.661
10.8844	0.66
10.9199	0.616
10.9553	0.585
10.9907	0.575
11.0261	0.569
11.0616	0.549
11.097	0.534
11.1324	0.547
11.1678	0.591
11.2033	0.61
11.2387	0.615
11.2741	0.615
11.3095	0.614
11.345	0.611
11.3804	0.61
11.4158	0.61
11.4512	0.6
11.4867	0.568
11.5221	0.551
11.5575	0.547
11.5929	0.547
11.6284	0.547
11.6638	0.547
11.6992	0.547
11.7347	0.556
11.7701	0.589
11.8055	0.628
11.8409	0.65
11.8764	0.669
11.9118	0.672
11.9472	0.673
11.9826	0.673
12.0181	0.674
12.0535	0.682
12.0889	0.704
12.1243	0.71
12.1598	0.717
12.1952	0.721
12.2306	0.723
12.266	0.723
12.3015	0.723
12.3369	0.723
12.3723	0.721
12.4077	0.721
12.4432	0.724
12.4786	0.733
12.514	0.742
12.5494	0.742
12.5849	0.742
12.6203	0.743
12.6557	0.749
12.6911	0.756
12.7266	0.763
12.762	0.768
12.7974	0.769
12.8328	0.771
12.8683	0.772
12.9037	0.772
12.9391	0.773
12.9745	0.776
13.01	0.783
13.0454	0.788
13.0808	0.791
13.1162	0.792
13.1517	0.792
13.1871	0.792
13.2225	0.792
13.258	0.792
13.2934	0.792
13.3288	0.792
13.3642	0.792
13.3997	0.792
13.4351	0.792
13.4705	0.792
13.5059	0.791
13.5414	0.784
13.5768	0.773
13.6122	0.77
13.6476	0.769
13.6831	0.766
13.7185	0.765
13.7539	0.765
13.7893	0.765
13.8248	0.765
13.8602	0.765
13.8956	0.765
13.931	0.765
13.9665	0.764
14.0019	0.763
14.0373	0.762
14.0727	0.753
14.1082	0.74
14.1436	0.728
14.179	0.713
14.2144	0.697
14.2499	0.682
14.2853	0.674
14.3207	0.671
14.3561	0.666
14.3916	0.665
14.427	0.66
14.4624	0.659
14.4978	0.656
14.5333	0.655
14.5687	0.655
14.6041	0.654
14.6395	0.654
14.675	0.654
14.7104	0.652
14.7458	0.648
14.7813	0.648
14.8167	0.647
14.8521	0.647
14.8875	0.646
14.923	0.646
14.9584	0.646
