Infrared Spectrum: l-.beta.-Pinene
Formula: C 10 H 16
CAS: 127-91-3
State: gas
Instrument: HP-GC/MS/IRD
Origin: NIST Mass Spectrometry Data Center
1/CM	ABSORBANCE
550	0.0003108
562	0.0002688
574	0.000231
586	0.0004788
598	0.0007224
610	0.000357
622	0.0001932
634	0.0001386
646	0.000126
658	8.82e-05
670	5.46e-05
682	4.62e-05
694	8.82e-05
706	0.0001008
718	0.0001596
730	0.0001428
742	0.0002016
754	0.000378
766	0.000567
778	0.0003738
790	0.0003444
802	0.0003024
814	0.000294
826	0.0003192
838	0.0008106
850	0.0016716
862	0.0034356
874	0.0073038
886	0.0071106
898	0.00273
910	0.0010332
922	0.0008022
934	0.0006762
946	0.0005376
958	0.000525
970	0.000504
982	0.000357
994	0.0002016
1006	0.00021
1018	0.0001974
1030	0.0002058
1042	0.0004284
1054	0.00063
1066	0.00042
1078	0.0002394
1090	0.0004452
1102	0.0007434
1114	0.000756
1126	0.00063
1138	0.000777
1150	0.0006384
1162	0.0003402
1174	0.0003696
1186	0.0006972
1198	0.000987
1210	0.0009576
1222	0.0007518
1234	0.000777
1246	0.0008064
1258	0.0008358
1270	0.0006258
1282	0.000567
1294	0.000609
1306	0.0006594
1318	0.0006132
1330	0.000441
1342	0.0004452
1354	0.0008862
1366	0.0018984
1378	0.0029526
1390	0.003024
1402	0.0016632
1414	0.0009072
1426	0.0014238
1438	0.0024486
1450	0.003171
1462	0.0039732
1474	0.0035868
1486	0.0021252
1498	0.0009492
1510	0.0004746
1522	0.000357
1534	0.0002814
1546	0.0002436
1558	0.0002226
1570	0.0002856
1582	0.0003696
1594	0.0004788
1606	0.0007686
1618	0.0016842
1630	0.0037506
1642	0.0049518
1654	0.0030786
1666	0.0011256
1678	0.0005502
1690	0.0003444
1702	0.0002394
1714	0.0002058
1726	0.0002184
1738	0.0002604
1750	0.0004452
1762	0.0007014
1774	0.000588
1786	0.0002898
1798	0.000147
1810	8.82e-05
1822	8.82e-05
1834	6.3e-05
1846	6.72e-05
1858	6.72e-05
1870	5.04e-05
1882	3.78e-05
1894	5.46e-05
1906	3.78e-05
1918	4.2e-05
1930	3.36e-05
1942	4.62e-05
1954	4.2e-05
1966	3.78e-05
1978	2.52e-05
1990	3.36e-05
2002	6.3e-05
2014	4.2e-05
2026	7.98e-05
2038	4.62e-05
2050	6.3e-05
2062	6.3e-05
2074	7.14e-05
2086	6.3e-05
2098	9.24e-05
2110	6.3e-05
2122	7.56e-05
2134	7.56e-05
2146	7.14e-05
2158	6.72e-05
2170	9.24e-05
2182	6.3e-05
2194	5.88e-05
2206	5.88e-05
2218	6.3e-05
2230	4.2e-05
2242	4.62e-05
2254	5.46e-05
2266	4.2e-05
2278	5.46e-05
2290	5.46e-05
2302	5.88e-05
2314	5.04e-05
2326	4.62e-05
2338	5.88e-05
2350	4.62e-05
2362	3.36e-05
2374	3.36e-05
2386	2.94e-05
2398	4.62e-05
2410	5.88e-05
2422	4.2e-05
2434	3.78e-05
2446	4.62e-05
2458	2.1e-05
2470	2.1e-05
2482	2.94e-05
2494	4.62e-05
2506	6.72e-05
2518	7.14e-05
2530	7.56e-05
2542	7.56e-05
2554	9.66e-05
2566	0.000105
2578	6.72e-05
2590	6.3e-05
2602	7.14e-05
2614	6.3e-05
2626	7.98e-05
2638	0.0001176
2650	0.0001848
2662	0.0002436
2674	0.0002016
2686	0.0001512
2698	0.0001428
2710	0.0002142
2722	0.0003444
2734	0.000462
2746	0.0004032
2758	0.000399
2770	0.0004872
2782	0.0004872
2794	0.000567
2806	0.0006972
2818	0.0008946
2830	0.001218
2842	0.0020622
2854	0.003717
2866	0.0076524
2878	0.0124614
2890	0.0133182
2902	0.0160314
2914	0.0295302
2926	0.0410172
2938	0.037674
2950	0.03003
2962	0.0218694
2974	0.0169176
2986	0.017241
2998	0.0144312
3010	0.0061992
3022	0.0023814
3034	0.0016884
3046	0.0016002
3058	0.002352
3070	0.0042882
3082	0.0039816
3094	0.0015624
3106	0.0007644
3118	0.0006384
3130	0.0005544
3142	0.000462
3154	0.0003864
3166	0.0003402
3178	0.000294
3190	0.000189
3202	0.0001596
3214	0.0001218
3226	0.0001176
3238	6.72e-05
3250	5.46e-05
3262	7.56e-05
3274	8.4e-05
3286	9.66e-05
3298	5.88e-05
3310	0.000105
3322	7.56e-05
3334	6.3e-05
3346	0.000126
3358	0.0001176
3370	0.000126
3382	6.72e-05
3394	9.24e-05
3406	0.0001008
3418	6.72e-05
3430	0.0001092
3442	7.98e-05
3454	7.98e-05
3466	0.000126
3478	7.56e-05
3490	4.2e-05
3502	8.4e-06
3514	6.72e-05
3526	6.3e-05
3538	6.72e-05
3550	7.98e-05
3562	5.04e-05
3574	5.04e-05
3586	5.46e-05
3598	6.72e-05
3610	2.94e-05
3622	4.2e-05
3634	4.2e-05
3646	5.88e-05
3658	6.3e-05
3670	5.88e-05
3682	6.3e-05
3694	4.2e-05
3706	7.14e-05
3718	7.98e-05
3730	9.24e-05
3742	0.0001134
3754	0.0001008
3766	9.66e-05
3778	0.0001176
3790	0.0001218
3802	0.0001344
3814	0.0001428
3826	0.0001932
3838	0.0001764
