Infrared Spectrum: 4-Chloro-3-nitrophenyl isothiocyanate
Formula: C 7 H 3 Cl N 2 O 2 S
CAS: 127142-66-9
State: gas
Origin: EPA-IR VAPOR PHASE LIBRARY
1/CM	ABSORBANCE
549.8	0.009064
559.445	0.007184
569.09	0.007384
578.734	0.008724
588.379	0.008774
598.024	0.008404
607.669	0.008204
617.313	0.007154
626.958	0.006234
636.603	0.004684
646.248	0.003854
655.893	0.005084
665.537	0.013924
675.182	0.024134
684.827	0.013814
694.472	0.011354
704.116	0.010054
713.761	0.006884
723.406	0.005454
733.051	0.006474
742.695	0.010124
752.34	0.025914
761.985	0.052544
771.63	0.033314
781.275	0.011854
790.919	0.007094
800.564	0.008184
810.209	0.021894
819.854	0.049544
829.498	0.030494
839.143	0.011654
848.788	0.017924
858.433	0.024024
868.078	0.019054
877.722	0.028414
887.367	0.024754
897.012	0.008444
906.657	0.003964
916.301	0.004014
925.946	0.003024
935.591	0.002494
945.236	0.002814
954.88	0.003864
964.525	0.007054
974.17	0.016574
983.815	0.028894
993.46	0.017084
1003.1	0.006704
1012.75	0.004364
1022.39	0.004384
1032.04	0.008154
1041.68	0.029434
1051.33	0.070744
1060.97	0.035054
1070.62	0.009864
1080.26	0.006214
1089.91	0.007354
1099.55	0.007434
1109.2	0.009494
1118.84	0.020364
1128.49	0.037774
1138.13	0.026954
1147.78	0.013744
1157.42	0.005984
1167.07	0.005424
1176.71	0.004914
1186.36	0.004904
1196	0.004354
1205.64	0.003804
1215.29	0.003884
1224.93	0.004584
1234.58	0.005194
1244.22	0.005404
1253.87	0.006934
1263.51	0.012264
1273.16	0.024924
1282.8	0.026874
1292.45	0.014724
1302.09	0.012784
1311.74	0.015664
1321.38	0.022574
1331.03	0.040074
1340.67	0.076944
1350.32	0.116064
1359.96	0.099704
1369.61	0.049994
1379.25	0.023454
1388.9	0.014414
1398.54	0.014994
1408.18	0.019894
1417.83	0.016314
1427.47	0.014174
1437.12	0.015684
1446.76	0.018784
1456.41	0.030764
1466.05	0.083434
1475.7	0.157474
1485.34	0.072414
1494.99	0.030864
1504.63	0.032004
1514.28	0.043094
1523.92	0.062914
1533.57	0.089254
1543.21	0.129994
1552.86	0.198034
1562.5	0.221244
1572.15	0.158934
1581.79	0.111744
1591.44	0.074234
1601.08	0.049684
1610.73	0.023634
1620.37	0.012334
1630.01	0.009914
1639.66	0.009234
1649.3	0.007294
1658.95	0.004744
1668.59	0.003884
1678.24	0.003684
1687.88	0.003704
1697.53	0.004224
1707.17	0.004664
1716.82	0.004224
1726.46	0.004054
1736.11	0.004544
1745.75	0.005394
1755.4	0.006144
1765.04	0.006324
1774.69	0.005684
1784.33	0.005114
1793.98	0.004974
1803.62	0.004804
1813.27	0.004904
1822.91	0.005814
1832.55	0.008294
1842.2	0.010314
1851.84	0.009374
1861.49	0.009414
1871.13	0.010724
1880.78	0.013724
1890.42	0.018914
1900.07	0.025954
1909.71	0.033874
1919.36	0.045724
1929	0.064944
1938.65	0.094614
1948.29	0.136284
1957.94	0.182674
1967.58	0.229794
1977.23	0.289464
1986.87	0.357004
1996.52	0.416684
2006.16	0.487444
2015.81	0.684634
2025.45	0.781004
2035.1	0.493404
2044.74	0.301594
2054.38	0.284534
2064.03	0.367194
2073.67	0.440534
2083.32	0.386194
2092.96	0.266464
2102.61	0.179494
2112.25	0.147524
2121.9	0.138964
2131.54	0.126034
2141.19	0.096254
2150.83	0.062134
2160.48	0.042014
2170.12	0.030994
2179.77	0.024234
2189.41	0.019964
2199.06	0.017644
2208.7	0.017564
2218.35	0.016994
2227.99	0.012644
2237.64	0.010214
2247.28	0.010544
2256.92	0.012104
2266.57	0.011404
2276.21	0.007824
2285.86	0.005384
2295.5	0.004294
2305.15	0.003814
2314.79	0.004044
2324.44	0.004464
2334.08	0.005164
2343.73	0.006154
2353.37	0.006564
2363.02	0.005964
2372.66	0.005094
2382.31	0.005264
2391.95	0.005944
2401.6	0.006214
2411.24	0.005514
2420.89	0.004424
2430.53	0.003844
2440.18	0.003874
2449.82	0.004244
2459.47	0.004284
2469.11	0.003634
2478.75	0.003314
2488.4	0.003794
2498.04	0.004694
2507.69	0.005344
2517.33	0.005504
2526.98	0.005344
2536.62	0.005514
2546.27	0.005964
2555.91	0.006434
2565.56	0.006394
2575.2	0.006444
2584.85	0.007134
2594.49	0.008264
2604.14	0.009724
2613.78	0.010584
2623.43	0.010724
2633.07	0.010204
2642.72	0.008604
2652.36	0.006564
2662.01	0.005234
2671.65	0.004584
2681.29	0.004554
2690.94	0.004444
2700.58	0.004204
2710.23	0.003814
2719.87	0.003314
2729.52	0.003164
2739.16	0.003434
2748.81	0.003484
2758.45	0.003664
2768.1	0.004124
2777.74	0.004994
2787.39	0.005684
2797.03	0.005284
2806.68	0.004434
2816.32	0.004254
2825.97	0.004434
2835.61	0.004444
2845.26	0.004484
2854.9	0.004404
2864.55	0.004304
2874.19	0.004964
2883.84	0.005554
2893.48	0.005614
2903.12	0.005834
2912.77	0.005534
2922.41	0.005044
2932.06	0.004554
2941.7	0.003834
2951.35	0.003154
2960.99	0.002904
2970.64	0.002634
2980.28	0.002614
2989.93	0.002584
2999.57	0.002694
3009.22	0.002644
3018.86	0.002384
3028.51	0.002004
3038.15	0.002004
3047.8	0.002064
3057.44	0.002104
3067.09	0.002374
3076.73	0.004014
3086.38	0.004694
3096.02	0.003214
3105.67	0.002354
3115.31	0.0014182
3124.95	0.0011602
3134.6	0.00071629
3144.24	0.000604
3153.89	0.000512
3163.53	0.00053
3173.18	0.000327
3182.82	0.000395
3192.47	0.000277
3202.11	0.00032
3211.76	0.000368
3221.4	0.000182
3231.05	0.000169
3240.69	0.000286
3250.34	0.000188
3259.98	0.00014
3269.63	0.000198
3279.27	8.9e-05
3288.92	0.0002
3298.56	0.00011
3308.21	0.000182
3317.85	4.3e-05
3327.49	0.000242
3337.14	0.000218
3346.78	0.000184
3356.43	0.000188
3366.07	0.000211
3375.72	0.000348
3385.36	0.000367
3395.01	0.000236
3404.65	0.000484
3414.3	0.000482
3423.94	0.000352
3433.59	0.000312
3443.23	0.000292
3452.88	0.000276
3462.52	0.000491
3472.17	0.000284
3481.81	0.000431
3491.46	0.000548
3501.1	0.000325
3510.75	0.000561
3520.39	0.000444
3530.04	0.000374
3539.68	0.000561
3549.32	0.000445
3558.97	0.000318
3568.61	0.000539
3578.26	0.0005643
3587.9	0.000315
3597.55	0.000443
3607.19	0.0006319
3616.84	0.000365
3626.48	0.000494
3636.13	0.000554
3645.77	0.000539
3655.42	0.000396
3665.06	0.0005889
3674.71	0.0006101
3684.35	0.000409
3694	0.000513
3703.64	0.0006739
3713.29	0.000483
3722.93	0.000499
3732.58	0.00074281
3742.22	0.00068407
3751.86	0.0009345
3761.51	0.0010862
3771.15	0.0008774
3780.8	0.00070585
3790.44	0.00071516
3800.09	0.0009653
3809.73	0.0008946
3819.38	0.0007823
3829.02	0.0009663
3838.67	0.0011339
3848.31	0.0009515
3857.96	0.001269
3867.6	0.0012998
3877.25	0.001455
3886.89	0.001638
3896.54	0.0016472
3906.18	0.001814
3915.83	0.001914
3925.47	0.002114
3935.12	0.002274
3944.76	0.002304
3954.41	0.002324
3964.05	0.002644
3973.69	0.002774
3983.34	0.002754
3992.98	0.002584
