Infrared Spectrum: 2,3,4-Trichlorophenyl isothiocyanate
Formula: C 7 H 2 Cl 3 N S
CAS: 127142-69-2
State: gas
Origin: EPA-IR VAPOR PHASE LIBRARY
1/CM	ABSORBANCE
549.8	0.01277
559.445	0.02354
569.09	0.01825
578.734	0.015
588.379	0.0128
598.024	0.01122
607.669	0.00753
617.313	0.00379
626.958	0.00299
636.603	0.00208
646.248	0.00219
655.893	0.00318
665.537	0.00212
675.182	0.00214
684.827	0.00248
694.472	0.001517
704.116	0.0009026
713.761	0.0008009
723.406	0.0012598
733.051	0.00295
742.695	0.00741
752.34	0.00953
761.985	0.02758
771.63	0.0526
781.275	0.02873
790.919	0.01563
800.564	0.04027
810.209	0.08294
819.854	0.03197
829.498	0.00743
839.143	0.00536
848.788	0.00336
858.433	0.00176
868.078	0.00171
877.722	0.00214
887.367	0.0023
897.012	0.00465
906.657	0.00397
916.301	0.00315
925.946	0.00271
935.591	0.00313
945.236	0.00343
954.88	0.00444
964.525	0.00674
974.17	0.0156
983.815	0.03759
993.46	0.03121
1003.1	0.01123
1012.75	0.0071
1022.39	0.00524
1032.04	0.00278
1041.68	0.0023
1051.33	0.0014622
1060.97	0.0014635
1070.62	0.00153
1080.26	0.00218
1089.91	0.00507
1099.55	0.00816
1109.2	0.00311
1118.84	0.00172
1128.49	0.00251
1138.13	0.00662
1147.78	0.0182
1157.42	0.01245
1167.07	0.0219
1176.71	0.07234
1186.36	0.02657
1196	0.00422
1205.64	0.00232
1215.29	0.00365
1224.93	0.00433
1234.58	0.00463
1244.22	0.00337
1253.87	0.00184
1263.51	0.0031
1273.16	0.00527
1282.8	0.00834
1292.45	0.00531
1302.09	0.00201
1311.74	0.00201
1321.38	0.00211
1331.03	0.0023
1340.67	0.00388
1350.32	0.00861
1359.96	0.0283
1369.61	0.04877
1379.25	0.0243
1388.9	0.00592
1398.54	0.00363
1408.18	0.00529
1417.83	0.01104
1427.47	0.03288
1437.12	0.11928
1446.76	0.19384
1456.41	0.05138
1466.05	0.00967
1475.7	0.00632
1485.34	0.00459
1494.99	0.00383
1504.63	0.0046
1514.28	0.00445
1523.92	0.0043
1533.57	0.00586
1543.21	0.009
1552.86	0.00976
1562.5	0.02044
1572.15	0.03311
1581.79	0.01513
1591.44	0.00442
1601.08	0.00329
1610.73	0.00363
1620.37	0.00405
1630.01	0.00251
1639.66	0.0014675
1649.3	0.0012795
1658.95	0.0013305
1668.59	0.0013898
1678.24	0.00165
1687.88	0.00174
1697.53	0.00173
1707.17	0.00188
1716.82	0.00194
1726.46	0.002
1736.11	0.00238
1745.75	0.00277
1755.4	0.00255
1765.04	0.00267
1774.69	0.00317
1784.33	0.00365
1793.98	0.00369
1803.62	0.00331
1813.27	0.00309
1822.91	0.00315
1832.55	0.00372
1842.2	0.00433
1851.84	0.00476
1861.49	0.00579
1871.13	0.00796
1880.78	0.00834
1890.42	0.00979
1900.07	0.01394
1909.71	0.0172
1919.36	0.02104
1929	0.02948
1938.65	0.04385
1948.29	0.06531
1957.94	0.09451
1967.58	0.12495
1977.23	0.14654
1986.87	0.17657
1996.52	0.2225
2006.16	0.27879
2015.81	0.3426
2025.45	0.4417
2035.1	0.61689
2044.74	0.65639
2054.38	0.44405
2064.03	0.2902
2073.67	0.24061
2083.32	0.25497
2092.96	0.28308
2102.61	0.27948
2112.25	0.23042
2121.9	0.16511
2131.54	0.11946
2141.19	0.08568
2150.83	0.05765
2160.48	0.04337
2170.12	0.03374
2179.77	0.02461
2189.41	0.0183
2199.06	0.01362
2208.7	0.01056
2218.35	0.00875
2227.99	0.00793
2237.64	0.0078
2247.28	0.00876
2256.92	0.01147
2266.57	0.01459
2276.21	0.01264
2285.86	0.00733
2295.5	0.00466
2305.15	0.0037
2314.79	0.00301
2324.44	0.00292
2334.08	0.00302
2343.73	0.00359
2353.37	0.00435
2363.02	0.00564
2372.66	0.00703
2382.31	0.00649
2391.95	0.00478
2401.6	0.00394
2411.24	0.00389
2420.89	0.0043
2430.53	0.00449
2440.18	0.00383
2449.82	0.00319
2459.47	0.00314
2469.11	0.00338
2478.75	0.00346
2488.4	0.00362
2498.04	0.004
2507.69	0.00451
2517.33	0.00483
2526.98	0.00508
2536.62	0.00451
2546.27	0.00407
2555.91	0.00476
2565.56	0.00501
2575.2	0.00402
2584.85	0.00324
2594.49	0.00305
2604.14	0.00296
2613.78	0.00311
2623.43	0.00364
2633.07	0.00433
2642.72	0.00576
2652.36	0.00754
2662.01	0.00919
2671.65	0.00862
2681.29	0.00569
2690.94	0.00351
2700.58	0.00282
2710.23	0.00263
2719.87	0.00293
2729.52	0.00275
2739.16	0.00192
2748.81	0.0015251
2758.45	0.00176
2768.1	0.00196
2777.74	0.00224
2787.39	0.00212
2797.03	0.00213
2806.68	0.00245
2816.32	0.00265
2825.97	0.00265
2835.61	0.00315
2845.26	0.00318
2854.9	0.00318
2864.55	0.00271
2874.19	0.00216
2883.84	0.0019
2893.48	0.00168
2903.12	0.00172
2912.77	0.00179
2922.41	0.00175
2932.06	0.00165
2941.7	0.00159
2951.35	0.0014521
2960.99	0.0012399
2970.64	0.0012473
2980.28	0.0013611
2989.93	0.0014823
2999.57	0.00164
3009.22	0.00169
3018.86	0.0017
3028.51	0.00184
3038.15	0.0014344
3047.8	0.0010737
3057.44	0.0011904
3067.09	0.0012875
3076.73	0.001424
3086.38	0.0009505
3096.02	0.000964
3105.67	0.0006757
3115.31	0.00062628
3124.95	0.00061463
3134.6	0.000412
3144.24	0.000343
3153.89	0.000204
3163.53	0.000319
3173.18	0.00012
3182.82	0.000153
3192.47	0.000336
3202.11	6.9e-05
3211.76	5e-05
3221.4	0.000357
3231.05	0.00021
3240.69	0.000222
3250.34	0.000136
3259.98	0.00033
3269.63	0.000256
3279.27	0.000272
3288.92	0.000255
3298.56	0.000248
3308.21	0.000264
3317.85	0.000277
3327.49	0.000385
3337.14	0.000147
3346.78	0.0002
3356.43	0.000299
3366.07	0.000345
3375.72	0.000366
3385.36	0.000344
3395.01	0.0004348
3404.65	0.000267
3414.3	0.000361
3423.94	0.000394
3433.59	0.000294
3443.23	0.000392
3452.88	0.000406
3462.52	0.000432
3472.17	0.00054915
3481.81	0.0006013
3491.46	0.0005113
3501.1	0.0004551
3510.75	0.00057749
3520.39	0.00056558
3530.04	0.0004985
3539.68	0.000313
3549.32	0.000402
3558.97	0.000294
3568.61	0.000412
3578.26	0.000415
3587.9	0.000423
3597.55	0.00060896
3607.19	0.00052052
3616.84	0.0006335
3626.48	0.00054054
3636.13	0.000483
3645.77	0.000348
3655.42	0.00060881
3665.06	0.0006671
3674.71	0.0007083
3684.35	0.0006306
3694	0.00037
3703.64	0.000396
3713.29	0.0006371
3722.93	0.0006516
3732.58	0.0004371
3742.22	0.000406
3751.86	0.0006952
3761.51	0.0006774
3771.15	0.00057457
3780.8	0.00058551
3790.44	0.000832
3800.09	0.0007209
3809.73	0.0008102
3819.38	0.0007037
3829.02	0.0009433
3838.67	0.00085
3848.31	0.0008167
3857.96	0.0010431
3867.6	0.0010504
3877.25	0.0011202
3886.89	0.0012564
3896.54	0.0012809
3906.18	0.0012248
3915.83	0.0013032
3925.47	0.00175
3935.12	0.00175
3944.76	0.00176
3954.41	0.00176
3964.05	0.00175
3973.69	0.00189
3983.34	0.00197
3992.98	0.00221
