Infrared Spectrum: Ferrocene carboxylic acid
Formula: C11 H10 O2 Fe
CAS: 1271-42-7
State: SOLID (SPLIT MULL), FLUOROLUBE FOR 3800-1330 CM^-^1, NUJOL FOR 1330-400 CM^-^1
Class: COBLENTZ II
Instrument: BECKMAN IR-9 (GRATING)
Instrument parameters: ORDER CHANGES: 670, 1200, 2000 CM^-^1
Sampling: TRANSMISSION
Resolution: 2
Origin: DOW CHEMICAL COMPANY
1/CM	TRANSMITTANCE
3798	0.6276
3789	0.6293
3780	0.6308
3771	0.6329
3762	0.635
3753	0.637
3744	0.6418
3735	0.6412
3726	0.6418
3717	0.6428
3708	0.6449
3699	0.6475
3690	0.6503
3681	0.6525
3672	0.6543
3663	0.656
3654	0.6575
3645	0.6597
3636	0.6621
3627	0.6639
3618	0.6648
3609	0.6654
3600	0.6622
3591	0.6586
3582	0.6642
3573	0.6689
3564	0.6724
3555	0.674
3546	0.6751
3537	0.6764
3528	0.6775
3519	0.6783
3510	0.679
3501	0.6796
3492	0.6808
3483	0.6821
3474	0.6835
3465	0.6847
3456	0.6858
3447	0.6871
3438	0.6885
3429	0.6899
3420	0.6918
3411	0.6937
3402	0.6958
3393	0.6978
3384	0.7
3375	0.7015
3366	0.7028
3357	0.7039
3348	0.7049
3339	0.7056
3330	0.7061
3321	0.7065
3312	0.7069
3303	0.7031
3294	0.6999
3285	0.7018
3276	0.7028
3267	0.7031
3258	0.7028
3249	0.7
3240	0.6972
3231	0.6931
3222	0.6887
3213	0.6843
3204	0.6795
3195	0.6746
3186	0.669
3177	0.6626
3168	0.6564
3159	0.65
3150	0.6434
3141	0.6333
3132	0.6274
3123	0.5974
3114	0.5855
3105	0.5945
3096	0.5941
3087	0.5764
3078	0.5737
3069	0.581
3060	0.5772
3051	0.5776
3042	0.5825
3033	0.5794
3024	0.5722
3015	0.5726
3006	0.5758
2997	0.5745
2988	0.5724
2979	0.5696
2970	0.5665
2961	0.5645
2952	0.5646
2943	0.5682
2934	0.5782
2925	0.5851
2916	0.5837
2907	0.572
2898	0.5594
2889	0.5557
2880	0.5565
2871	0.5601
2862	0.566
2853	0.5743
2844	0.5841
2835	0.5933
2826	0.6004
2817	0.607
2808	0.6135
2799	0.6196
2790	0.6251
2781	0.6262
2772	0.6252
2763	0.6241
2754	0.6281
2745	0.6354
2736	0.6433
2727	0.6531
2718	0.6618
2709	0.6642
2700	0.6604
2691	0.6539
2682	0.6424
2673	0.6405
2664	0.6376
2655	0.6249
2646	0.6115
2637	0.6083
2628	0.6148
2619	0.6342
2610	0.6534
2601	0.6705
2592	0.6787
2583	0.6806
2574	0.6672
2565	0.6141
2556	0.6173
2547	0.6485
2538	0.6575
2529	0.6656
2520	0.6733
2511	0.6801
2502	0.6872
2493	0.6957
2484	0.7041
2475	0.7134
2466	0.7181
2457	0.7164
2448	0.718
2439	0.7218
2430	0.7261
2421	0.7312
2412	0.7369
2403	0.741
2394	0.7451
2385	0.7492
2376	0.7532
2367	0.7547
2358	0.7547
2349	0.7558
2340	0.7574
2331	0.7591
2322	0.7621
2313	0.7661
2304	0.7706
2295	0.7771
2286	0.7815
2277	0.7837
2268	0.7874
2259	0.7901
2250	0.7921
2241	0.7971
2232	0.8037
2223	0.8108
2214	0.8168
2205	0.8193
2196	0.8213
2187	0.8245
2178	0.8283
2169	0.8327
2160	0.8371
2151	0.8418
2142	0.8457
2133	0.848
2124	0.8486
2115	0.8509
2106	0.8541
2097	0.8574
2088	0.8602
2079	0.8628
2070	0.8655
2061	0.8686
2052	0.8721
2043	0.8727
2034	0.8704
2025	0.868
2016	0.8693
2007	0.8721
1998	0.8757
1989	0.8805
1980	0.8851
1971	0.8878
1962	0.8895
1953	0.8907
1944	0.8917
1935	0.8918
1926	0.8901
1917	0.8863
1908	0.8816
1899	0.8731
1890	0.8731
1881	0.8786
1872	0.8862
1863	0.8918
1854	0.8963
1845	0.8991
1836	0.8994
1827	0.8961
1818	0.8877
1809	0.8864
1800	0.8886
1791	0.8928
1782	0.8973
1773	0.9018
1764	0.9049
1755	0.9075
1746	0.9078
1737	0.9018
1728	0.8921
1719	0.8771
1710	0.8325
1701	0.8651
1692	0.8053
1683	0.59
1674	0.2599
1665	0.1015
1656	0.1154
1647	0.3784
1638	0.5505
1629	0.6696
1620	0.7346
1611	0.7676
1602	0.7914
1593	0.8107
1584	0.8268
1575	0.8278
1566	0.8381
1557	0.8617
1548	0.8665
1539	0.8678
1530	0.867
1521	0.8675
1512	0.8736
1503	0.8671
1494	0.8371
1485	0.6072
1476	0.2949
1467	0.5239
1458	0.7247
1449	0.799
1440	0.839
1431	0.8404
1422	0.8011
1413	0.746
1404	0.6328
1395	0.7406
1386	0.7871
1377	0.79
1368	0.7921
1359	0.7767
1350	0.6957
1341	0.7286
1332	0.7534
1323	0.756
1314	0.7281
1305	0.6442
1296	0.4257
1287	0.3312
1278	0.4631
1269	0.6518
1260	0.6874
1251	0.7411
1242	0.7591
1233	0.7683
1224	0.7426
1215	0.7651
1206	0.7789
1197	0.7615
1188	0.7714
1179	0.7671
1170	0.6761
1161	0.4046
1152	0.6932
1143	0.7575
1134	0.7742
1125	0.7798
1116	0.7768
1107	0.765
1098	0.778
1089	0.7778
1080	0.7745
1071	0.7561
1062	0.7361
1053	0.6943
1044	0.7588
1035	0.6611
1026	0.6765
1017	0.7528
1008	0.6467
999	0.755
990	0.7674
981	0.7625
972	0.7494
963	0.7299
954	0.6998
945	0.6615
936	0.6497
927	0.6946
918	0.6281
909	0.7241
900	0.7597
891	0.7768
882	0.7764
873	0.7832
864	0.7804
855	0.7632
846	0.7397
837	0.5346
828	0.6678
819	0.7739
810	0.7768
801	0.7994
792	0.8101
783	0.7924
774	0.8234
765	0.8305
756	0.8221
747	0.6893
738	0.7991
729	0.7972
720	0.8215
711	0.8508
702	0.8634
693	0.8703
684	0.8707
675	0.8551
666	0.8268
657	0.8308
648	0.8382
639	0.8442
630	0.8478
621	0.8497
612	0.8475
603	0.8333
594	0.8064
585	0.8489
576	0.8338
567	0.7747
558	0.7614
549	0.8437
540	0.8436
531	0.8325
522	0.8106
513	0.5701
504	0.7283
495	0.7001
486	0.5993
477	0.6905
468	0.7608
459	0.7498
450	0.7394
441	0.7008
432	0.6692
423	0.6651
414	0.6714
405	0.6978
