Infrared Spectrum: BENZOYL FERROCENE
Formula: C17 H14 Fe O
CAS: 1272-44-2
State: SOLID (MINERAL OIL MULL)
Melting point: 107.8-108.3 C
Class: COBLENTZ
Instrument: Not specified, most likely a prism, grating, or hybrid spectrometer.
Sampling: TRANSMISSION
Resolution: 4
Origin: WYANDOTTE CHEMICALS CORP., WYANDOTTE, MICHIGAN, USA
MICROMETERS	TRANSMITTANCE
2.027	0.402
2.06782	0.412
2.10864	0.422
2.14945	0.431
2.19027	0.431
2.23109	0.436
2.27191	0.443
2.31272	0.455
2.35354	0.462
2.39436	0.472
2.43518	0.482
2.47599	0.493
2.51681	0.489
2.55763	0.513
2.59845	0.542
2.63926	0.549
2.68008	0.568
2.7209	0.577
2.76172	0.599
2.80253	0.602
2.84335	0.613
2.88417	0.613
2.92499	0.606
2.9658	0.611
3.00662	0.614
3.04744	0.625
3.08826	0.638
3.12907	0.631
3.16989	0.626
3.21071	0.614
3.25153	0.506
3.29234	0.518
3.33316	0.484
3.37398	0.136
3.4148	0.027
3.45561	0.041
3.49643	0.071
3.53725	0.152
3.57807	0.498
3.61888	0.58
3.6597	0.578
3.70052	0.561
3.74134	0.585
3.78215	0.582
3.82297	0.59
3.86379	0.601
3.90461	0.607
3.94542	0.623
3.98624	0.631
4.02706	0.635
4.06788	0.642
4.10869	0.638
4.14951	0.642
4.19033	0.652
4.23115	0.655
4.27196	0.631
4.31278	0.65
4.3536	0.671
4.39442	0.703
4.43523	0.712
4.47605	0.702
4.51687	0.696
4.55769	0.707
4.5985	0.724
4.63932	0.736
4.68014	0.739
4.72096	0.741
4.76177	0.753
4.80259	0.76
4.84341	0.772
4.88423	0.77
4.92505	0.772
4.96586	0.779
5.00668	0.792
5.0475	0.792
5.08832	0.779
5.12913	0.784
5.16995	0.797
5.21077	0.799
5.25159	0.797
5.2924	0.799
5.33322	0.82
5.37404	0.825
5.41486	0.849
5.45567	0.833
5.49649	0.833
5.53731	0.844
5.57813	0.827
5.61894	0.804
5.65976	0.777
5.70058	0.785
5.7414	0.77
5.78221	0.761
5.82303	0.767
5.86385	0.741
5.90467	0.739
5.94548	0.726
5.9863	0.696
6.02712	0.611
6.06794	0.448
6.10875	0.02
6.14957	0.065
6.19039	0.239
6.23121	0.202
6.27202	0.416
6.31284	0.291
6.35366	0.428
6.39448	0.551
6.43529	0.614
6.47611	0.63
6.51693	0.594
6.55775	0.638
6.59856	0.691
6.63938	0.702
6.6802	0.669
6.72102	0.631
6.76183	0.486
6.80265	0.19
6.84347	0.099
6.88429	0.097
6.9251	0.123
6.96592	0.38
7.00674	0.611
7.04756	0.535
7.08837	0.457
7.12919	0.633
7.17001	0.506
7.21083	0.44
7.25164	0.143
7.29246	0.351
7.33328	0.577
7.3741	0.518
7.41491	0.645
7.45573	0.676
7.49655	0.488
7.53737	0.604
7.57818	0.453
7.619	0.4
7.65982	0.53
7.70064	0.424
7.74145	0.039
7.78227	0.155
7.82309	0.409
7.86391	0.532
7.90473	0.582
7.94554	0.65
7.98636	0.7
8.02718	0.715
8.068	0.741
8.10881	0.775
8.14963	0.791
8.19045	0.789
8.23127	0.732
8.27208	0.787
8.3129	0.833
8.35372	0.851
8.39454	0.845
8.43535	0.717
8.47617	0.654
8.51699	0.523
8.55781	0.332
8.59862	0.366
8.63944	0.66
8.68026	0.765
8.72108	0.803
8.76189	0.83
8.80271	0.869
8.84353	0.892
8.88435	0.895
8.92516	0.89
8.96598	0.881
9.0068	0.732
9.04762	0.719
9.08843	0.847
9.12925	0.883
9.17007	0.864
9.21089	0.835
9.2517	0.69
9.29252	0.698
9.33334	0.804
9.37416	0.796
9.41497	0.52
9.45579	0.243
9.49661	0.544
9.53743	0.541
9.57824	0.767
9.61906	0.84
9.65988	0.842
9.7007	0.597
9.74151	0.202
9.78233	0.448
9.82315	0.731
9.86397	0.782
9.90478	0.738
9.9456	0.434
9.98642	0.291
10.0272	0.621
10.0681	0.801
10.1089	0.844
10.1497	0.859
10.1905	0.864
10.2313	0.835
10.2721	0.712
10.313	0.821
10.3538	0.864
10.3946	0.88
10.4354	0.881
10.4762	0.828
10.517	0.52
10.5579	0.422
10.5987	0.722
10.6395	0.815
10.6803	0.765
10.7211	0.72
10.762	0.847
10.8028	0.898
10.8436	0.919
10.8844	0.924
10.9252	0.929
10.966	0.933
11.0069	0.936
11.0477	0.941
11.0885	0.938
11.1293	0.922
11.1701	0.902
11.2109	0.871
11.2518	0.857
11.2926	0.902
11.3334	0.902
11.3742	0.828
11.415	0.611
11.4559	0.636
11.4967	0.775
11.5375	0.823
11.5783	0.799
11.6191	0.592
11.6599	0.455
11.7008	0.369
11.7416	0.371
11.7824	0.368
11.8232	0.458
11.864	0.599
11.9048	0.568
11.9457	0.686
11.9865	0.672
12.0273	0.452
12.0681	0.458
12.1089	0.195
12.1497	0.15
12.1906	0.224
12.2314	0.231
12.2722	0.39
12.313	0.606
12.3538	0.66
12.3947	0.664
12.4355	0.587
12.4763	0.445
12.5171	0.472
12.5579	0.69
12.5987	0.763
12.6396	0.804
12.6804	0.835
12.7212	0.854
12.762	0.859
12.8028	0.852
12.8436	0.842
12.8845	0.84
12.9253	0.837
12.9661	0.837
13.0069	0.842
13.0477	0.849
13.0886	0.849
13.1294	0.847
13.1702	0.844
13.211	0.845
13.2518	0.842
13.2926	0.837
13.3335	0.832
13.3743	0.828
13.4151	0.82
13.4559	0.809
13.4967	0.791
13.5375	0.775
13.5784	0.753
13.6192	0.731
13.66	0.693
13.7008	0.613
13.7416	0.493
13.7825	0.229
13.8233	0.075
13.8641	0.068
13.9049	0.169
13.9457	0.378
13.9865	0.57
14.0274	0.693
14.0682	0.739
14.109	0.765
14.1498	0.779
14.1906	0.775
14.2314	0.753
14.2723	0.705
14.3131	0.594
14.3539	0.464
14.3947	0.253
14.4355	0.178
14.4763	0.265
14.5172	0.429
14.558	0.587
14.5988	0.66
14.6396	0.705
14.6804	0.734
14.7213	0.741
14.7621	0.731
14.8029	0.688
14.8437	0.601
14.8845	0.527
14.9253	0.541
14.9662	0.601
15.007	0.614
15.0478	0.606
15.0886	0.635
15.1294	0.678
15.1702	0.7
15.2111	0.7
15.2519	0.691
15.2927	0.674
15.3335	0.667
15.3743	0.652
15.4152	0.645
15.456	0.628
15.4968	0.618
15.5376	0.613
15.5784	0.601
15.6192	0.592
15.6601	0.587
15.7009	0.561
15.7417	0.547
15.7825	0.539
15.8233	0.522
15.8641	0.517
15.905	0.508
15.9458	0.491
15.9866	0.484
