Infrared Spectrum: CHLORO MERCURI FERROCENE
Formula: C10 H9 Cl Fe Hg
CAS: 1273-75-2
State: SOLID (MINERAL OIL MULL)
Class: COBLENTZ
Instrument: Not specified, most likely a prism, grating, or hybrid spectrometer.
Sampling: TRANSMISSION
Resolution: 4
Origin: WYANDOTTE CHEMICALS CORP., WYANDOTTE, MICHIGAN, USA
MICROMETERS	TRANSMITTANCE
2.04	0.212
2.07985	0.224
2.1197	0.239
2.15955	0.244
2.19939	0.246
2.23924	0.249
2.27909	0.262
2.31894	0.267
2.35879	0.271
2.39864	0.276
2.43849	0.284
2.47833	0.284
2.51818	0.279
2.55803	0.314
2.59788	0.321
2.63773	0.324
2.67758	0.329
2.71742	0.337
2.75727	0.346
2.79712	0.349
2.83697	0.344
2.87682	0.347
2.91667	0.352
2.95652	0.354
2.99636	0.354
3.03621	0.361
3.07606	0.369
3.11591	0.372
3.15576	0.369
3.19561	0.364
3.23546	0.331
3.2753	0.279
3.31515	0.336
3.355	0.206
3.39485	0.053
3.4347	0.043
3.47455	0.119
3.51439	0.101
3.55424	0.317
3.59409	0.507
3.63394	0.532
3.67379	0.532
3.71364	0.529
3.75349	0.529
3.79333	0.552
3.83318	0.562
3.87303	0.564
3.91288	0.582
3.95273	0.58
3.99258	0.59
4.03243	0.592
4.07227	0.599
4.11212	0.603
4.15197	0.608
4.19182	0.61
4.23167	0.613
4.27152	0.6
4.31136	0.597
4.35121	0.605
4.39106	0.62
4.43091	0.66
4.47076	0.663
4.51061	0.657
4.55046	0.655
4.5903	0.658
4.63015	0.66
4.67	0.672
4.70985	0.683
4.7497	0.702
4.78955	0.708
4.8294	0.713
4.86924	0.713
4.90909	0.712
4.94894	0.715
4.98879	0.72
5.02864	0.735
5.06849	0.735
5.10833	0.74
5.14818	0.752
5.18803	0.75
5.22788	0.752
5.26773	0.755
5.30758	0.757
5.34743	0.762
5.38727	0.765
5.42712	0.775
5.46697	0.773
5.50682	0.773
5.54667	0.773
5.58652	0.77
5.62637	0.753
5.66621	0.7
5.70606	0.703
5.74591	0.702
5.78576	0.67
5.82561	0.648
5.86546	0.652
5.9053	0.672
5.94515	0.662
5.985	0.66
6.02485	0.645
6.0647	0.632
6.10455	0.643
6.1444	0.677
6.18424	0.733
6.22409	0.757
6.26394	0.773
6.30379	0.797
6.34364	0.811
6.38349	0.805
6.42334	0.815
6.46318	0.788
6.50303	0.78
6.54288	0.783
6.58273	0.792
6.62258	0.788
6.66243	0.788
6.70227	0.757
6.74212	0.703
6.78197	0.57
6.82182	0.341
6.86167	0.366
6.90152	0.45
6.94137	0.56
6.98121	0.677
7.02106	0.737
7.06091	0.673
7.10076	0.45
7.14061	0.595
7.18046	0.705
7.22031	0.685
7.26015	0.515
7.3	0.464
7.33985	0.647
7.3797	0.742
7.41955	0.732
7.4594	0.722
7.49924	0.767
7.53909	0.795
7.57894	0.806
7.61879	0.798
7.65864	0.725
7.69849	0.772
7.73834	0.8
7.77818	0.816
7.81803	0.818
7.85788	0.815
7.89773	0.808
7.93758	0.798
7.97743	0.79
8.01728	0.806
8.05712	0.818
8.09697	0.825
8.13682	0.841
8.17667	0.851
8.21652	0.853
8.25637	0.856
8.29621	0.858
8.33606	0.851
8.37591	0.828
8.41576	0.773
8.45561	0.782
8.49546	0.831
8.53531	0.851
8.57515	0.858
8.615	0.855
8.65485	0.831
8.6947	0.665
8.73455	0.42
8.7744	0.52
8.81425	0.668
8.85409	0.743
8.89394	0.795
8.93379	0.823
8.97364	0.833
9.01349	0.825
9.05334	0.437
9.09318	0.48
9.13303	0.695
9.17288	0.777
9.21273	0.798
9.25258	0.797
9.29243	0.8
9.33228	0.795
9.37212	0.788
9.41197	0.782
9.45182	0.762
9.49167	0.738
9.53152	0.738
9.57137	0.687
9.61122	0.745
9.65106	0.782
9.69091	0.793
9.73076	0.772
9.77061	0.675
9.81046	0.339
9.85031	0.296
9.89015	0.339
9.93	0.56
9.96985	0.547
10.0097	0.352
10.0495	0.311
10.0894	0.46
10.1292	0.653
10.1691	0.738
10.2089	0.787
10.2488	0.815
10.2886	0.823
10.3285	0.833
10.3683	0.843
10.4082	0.856
10.448	0.861
10.4879	0.86
10.5277	0.87
10.5676	0.871
10.6074	0.878
10.6473	0.885
10.6871	0.871
10.727	0.878
10.7668	0.878
10.8067	0.878
10.8465	0.866
10.8864	0.881
10.9262	0.871
10.9661	0.876
11.0059	0.88
11.0458	0.881
11.0856	0.883
11.1255	0.878
11.1653	0.863
11.2052	0.845
11.245	0.805
11.2849	0.773
11.3247	0.718
11.3645	0.7
11.4044	0.698
11.4442	0.618
11.4841	0.457
11.5239	0.59
11.5638	0.75
11.6036	0.801
11.6435	0.825
11.6833	0.826
11.7232	0.783
11.763	0.763
11.8029	0.755
11.8427	0.7
11.8826	0.648
11.9224	0.647
11.9623	0.692
12.0021	0.597
12.042	0.442
12.0818	0.457
12.1217	0.409
12.1615	0.211
12.2014	0.121
12.2412	0.109
12.2811	0.151
12.3209	0.232
12.3608	0.262
12.4006	0.261
12.4405	0.314
12.4803	0.357
12.5202	0.382
12.56	0.43
12.5999	0.474
12.6397	0.525
12.6796	0.603
12.7194	0.678
12.7592	0.75
12.7991	0.798
12.8389	0.826
12.8788	0.851
12.9186	0.861
12.9585	0.863
12.9983	0.868
13.0382	0.868
13.078	0.873
13.1179	0.88
13.1577	0.883
13.1976	0.888
13.2374	0.885
13.2773	0.886
13.3171	0.89
13.357	0.895
13.3968	0.903
13.4367	0.903
13.4765	0.901
13.5164	0.901
13.5562	0.896
13.5961	0.896
13.6359	0.893
13.6758	0.891
13.7156	0.891
13.7555	0.886
13.7953	0.878
13.8352	0.88
13.875	0.888
13.9149	0.891
13.9547	0.89
13.9946	0.896
14.0344	0.91
14.0742	0.928
14.1141	0.938
14.1539	0.946
14.1938	0.948
14.2336	0.94
14.2735	0.946
14.3133	0.945
14.3532	0.941
14.393	0.938
14.4329	0.931
14.4727	0.92
14.5126	0.908
14.5524	0.895
14.5923	0.89
14.6321	0.885
14.672	0.876
14.7118	0.88
14.7517	0.853
14.7915	0.85
14.8314	0.828
14.8712	0.816
14.9111	0.816
14.9509	0.813
14.9908	0.805
15.0306	0.79
15.0705	0.753
15.1103	0.677
15.1502	0.682
15.19	0.717
15.2299	0.747
15.2697	0.755
15.3096	0.748
15.3494	0.735
15.3892	0.712
15.4291	0.705
15.4689	0.69
15.5088	0.668
15.5486	0.652
15.5885	0.638
15.6283	0.637
15.6682	0.643
15.708	0.632
15.7479	0.625
15.7877	0.605
15.8276	0.585
15.8674	0.574
15.9073	0.565
15.9471	0.56
15.987	0.54
