Infrared Spectrum: OSMOCENE
Formula: C10 H10 Os
CAS: 1273-81-0
State: SOLID (MINERAL OIL MULL)
Melting point: 226-227 C
Class: COBLENTZ
Instrument: Not specified, most likely a prism, grating, or hybrid spectrometer.
Sampling: TRANSMISSION
Resolution: 4
Origin: WYANDOTTE CHEMICALS CORP., WYANDOTTE, MICHIGAN, USA
MICROMETERS	TRANSMITTANCE
2.02	0.226
2.06078	0.24
2.10155	0.252
2.14233	0.247
2.18311	0.257
2.22388	0.26
2.26466	0.277
2.30544	0.284
2.34621	0.281
2.38699	0.286
2.42777	0.303
2.46854	0.303
2.50932	0.274
2.5501	0.316
2.59087	0.339
2.63165	0.347
2.67243	0.354
2.7132	0.359
2.75398	0.367
2.79476	0.379
2.83553	0.374
2.87631	0.379
2.91709	0.383
2.95786	0.391
2.99864	0.398
3.03942	0.403
3.08019	0.403
3.12097	0.402
3.16175	0.379
3.20252	0.361
3.2433	0.248
3.28408	0.34
3.32485	0.304
3.36563	0.112
3.40641	0.042
3.44718	0.112
3.48796	0.144
3.52874	0.277
3.56951	0.548
3.61029	0.575
3.65107	0.589
3.69184	0.577
3.73262	0.582
3.7734	0.591
3.81417	0.597
3.85495	0.603
3.89573	0.608
3.9365	0.621
3.97728	0.621
4.01806	0.633
4.05883	0.637
4.09961	0.635
4.14039	0.62
4.18116	0.647
4.22194	0.659
4.26272	0.633
4.30349	0.643
4.34427	0.654
4.38505	0.672
4.42582	0.698
4.4666	0.691
4.50738	0.679
4.54815	0.657
4.58893	0.689
4.62971	0.71
4.67048	0.712
4.71126	0.724
4.75204	0.737
4.79281	0.732
4.83359	0.744
4.87437	0.752
4.91514	0.741
4.95592	0.742
4.9967	0.754
5.03747	0.776
5.07825	0.768
5.11903	0.775
5.1598	0.776
5.20058	0.781
5.24136	0.773
5.28213	0.783
5.32291	0.781
5.36369	0.783
5.40446	0.788
5.44524	0.785
5.48602	0.78
5.52679	0.712
5.56757	0.681
5.60835	0.633
5.64912	0.632
5.6899	0.686
5.73068	0.701
5.77145	0.664
5.81223	0.597
5.85301	0.603
5.89378	0.601
5.93456	0.628
5.97534	0.647
6.01611	0.676
6.05689	0.7
6.09767	0.701
6.13844	0.732
6.17922	0.729
6.22	0.73
6.26077	0.766
6.30155	0.783
6.34233	0.798
6.3831	0.81
6.42388	0.824
6.46466	0.816
6.50543	0.821
6.54621	0.819
6.58699	0.812
6.62776	0.79
6.66854	0.78
6.70932	0.771
6.75009	0.678
6.79087	0.463
6.83165	0.429
6.87242	0.504
6.9132	0.599
6.95398	0.695
6.99475	0.751
7.03553	0.732
7.07631	0.701
7.11708	0.403
7.15786	0.311
7.19864	0.701
7.23941	0.592
7.28019	0.66
7.32096	0.727
7.36174	0.79
7.40252	0.814
7.44329	0.72
7.48407	0.752
7.52485	0.833
7.56562	0.843
7.6064	0.844
7.64718	0.843
7.68795	0.85
7.72873	0.863
7.76951	0.863
7.81028	0.862
7.85106	0.863
7.89184	0.853
7.93261	0.816
7.97339	0.666
8.01417	0.633
8.05494	0.735
8.09572	0.792
8.1365	0.856
8.17727	0.875
8.21805	0.88
8.25883	0.885
8.2996	0.892
8.34038	0.894
8.38116	0.841
8.42193	0.833
8.46271	0.882
8.50349	0.902
8.54426	0.897
8.58504	0.908
8.62582	0.913
8.66659	0.913
8.70737	0.931
8.74815	0.94
8.78892	0.947
8.8297	0.943
8.87048	0.938
8.91125	0.942
8.95203	0.942
8.99281	0.945
9.03358	0.906
9.07436	0.526
9.11514	0.129
9.15591	0.47
9.19669	0.625
9.23747	0.751
9.27824	0.787
9.31902	0.802
9.3598	0.751
9.40057	0.621
9.44135	0.686
9.48213	0.66
9.5229	0.546
9.56368	0.672
9.60446	0.809
9.64523	0.833
9.68601	0.839
9.72679	0.826
9.76756	0.831
9.80834	0.834
9.84912	0.817
9.88989	0.718
9.93067	0.563
9.97145	0.207
10.0122	0.039
10.053	0.163
10.0938	0.148
10.1346	0.238
10.1753	0.565
10.2161	0.717
10.2569	0.78
10.2977	0.8
10.3384	0.834
10.3792	0.855
10.42	0.867
10.4608	0.872
10.5015	0.879
10.5423	0.88
10.5831	0.887
10.6239	0.894
10.6647	0.892
10.7054	0.889
10.7462	0.89
10.787	0.896
10.8278	0.899
10.8685	0.899
10.9093	0.894
10.9501	0.882
10.9909	0.853
11.0316	0.856
11.0724	0.836
11.1132	0.827
11.154	0.831
11.1947	0.81
11.2355	0.848
11.2763	0.863
11.3171	0.807
11.3579	0.686
11.3986	0.417
11.4394	0.189
11.4802	0.371
11.521	0.608
11.5617	0.744
11.6025	0.824
11.6433	0.86
11.6841	0.858
11.7248	0.855
11.7656	0.816
11.8064	0.698
11.8472	0.671
11.888	0.635
11.9287	0.538
11.9695	0.339
12.0103	0.202
12.0511	0.105
12.0918	0.035
12.1326	0.122
12.1734	0.173
12.2142	0.095
12.2549	0.189
12.2957	0.373
12.3365	0.545
12.3773	0.647
12.418	0.724
12.4588	0.776
12.4996	0.802
12.5404	0.831
12.5812	0.85
12.6219	0.862
12.6627	0.873
12.7035	0.873
12.7443	0.887
12.785	0.894
12.8258	0.901
12.8666	0.899
12.9074	0.897
12.9481	0.894
12.9889	0.897
13.0297	0.901
13.0705	0.901
13.1112	0.911
13.152	0.918
13.1928	0.918
13.2336	0.921
13.2744	0.923
13.3151	0.931
13.3559	0.936
13.3967	0.928
13.4375	0.928
13.4782	0.943
13.519	0.925
13.5598	0.919
13.6006	0.918
13.6413	0.921
13.6821	0.919
13.7229	0.906
13.7637	0.892
13.8045	0.894
13.8452	0.896
13.886	0.89
13.9268	0.87
13.9676	0.868
14.0083	0.867
14.0491	0.863
14.0899	0.877
14.1307	0.899
14.1714	0.909
14.2122	0.923
14.253	0.94
14.2938	0.952
14.3345	0.948
14.3753	0.955
14.4161	0.955
14.4569	0.942
14.4977	0.933
14.5384	0.93
14.5792	0.933
14.62	0.933
14.6608	0.925
14.7015	0.919
14.7423	0.911
14.7831	0.904
14.8239	0.899
14.8646	0.901
14.9054	0.897
14.9462	0.885
14.987	0.87
15.0278	0.829
15.0685	0.783
15.1093	0.802
15.1501	0.839
15.1909	0.855
15.2316	0.848
15.2724	0.826
15.3132	0.809
15.354	0.8
15.3947	0.79
15.4355	0.77
15.4763	0.756
15.5171	0.744
15.5578	0.732
15.5986	0.724
15.6394	0.712
15.6802	0.695
15.721	0.688
15.7617	0.676
15.8025	0.659
15.8433	0.643
15.8841	0.628
15.9248	0.618
15.9656	0.594
