Infrared Spectrum: 1,1'-FERROCENE DICARBOXYLIC ACID, DIMETHYL ESTER
Formula: C14 H14 Fe O4
CAS: 1273-95-6
State: SOLID (MINERAL OIL MULL)
Melting point: 113.5-114.0 C
Class: COBLENTZ
Instrument: Not specified, most likely a prism, grating, or hybrid spectrometer.
Sampling: TRANSMISSION
Resolution: 4
Origin: WYANDOTTE CHEMICALS CORP., WYANDOTTE, MICHIGAN, USA
MICROMETERS	TRANSMITTANCE
2.014	0.661
2.05489	0.67
2.09579	0.671
2.13668	0.67
2.17758	0.678
2.21847	0.68
2.25936	0.676
2.30026	0.683
2.34115	0.699
2.38205	0.704
2.42294	0.7
2.46383	0.697
2.50473	0.707
2.54562	0.714
2.58652	0.711
2.62741	0.723
2.66831	0.717
2.7092	0.714
2.75009	0.707
2.79099	0.707
2.83188	0.709
2.87278	0.714
2.91367	0.702
2.95456	0.683
2.99546	0.704
3.03635	0.705
3.07725	0.7
3.11814	0.699
3.15903	0.687
3.19993	0.644
3.24082	0.694
3.28172	0.675
3.32261	0.535
3.3635	0.326
3.4044	0.37
3.44529	0.478
3.48619	0.492
3.52708	0.714
3.56798	0.752
3.60887	0.755
3.64976	0.758
3.69066	0.765
3.73155	0.774
3.77245	0.777
3.81334	0.774
3.85423	0.777
3.89513	0.779
3.93602	0.798
3.97692	0.798
4.01781	0.791
4.0587	0.8
4.0996	0.8
4.14049	0.8
4.18139	0.8
4.22228	0.808
4.26317	0.81
4.30407	0.813
4.34496	0.815
4.38586	0.82
4.42675	0.82
4.46765	0.82
4.50854	0.822
4.54943	0.839
4.59033	0.834
4.63122	0.829
4.67212	0.83
4.71301	0.842
4.7539	0.839
4.7948	0.82
4.83569	0.837
4.87659	0.837
4.91748	0.834
4.95837	0.835
4.99927	0.854
5.04016	0.856
5.08106	0.858
5.12195	0.868
5.16284	0.863
5.20374	0.851
5.24463	0.866
5.28553	0.866
5.32642	0.863
5.36732	0.866
5.40821	0.864
5.4491	0.871
5.49	0.846
5.53089	0.854
5.57179	0.852
5.61268	0.856
5.65357	0.858
5.69447	0.808
5.73536	0.786
5.77626	0.6
5.81715	0.181
5.85804	0.153
5.89894	0.309
5.93983	0.482
5.98073	0.517
6.02162	0.582
6.06251	0.634
6.10341	0.67
6.1443	0.711
6.1852	0.735
6.22609	0.765
6.26699	0.784
6.30788	0.8
6.34877	0.777
6.38967	0.779
6.43056	0.772
6.47146	0.782
6.51235	0.782
6.55324	0.8
6.59414	0.822
6.63503	0.818
6.67593	0.788
6.71682	0.598
6.75771	0.229
6.79861	0.326
6.8395	0.487
6.8804	0.579
6.92129	0.581
6.96218	0.627
7.00308	0.747
7.04397	0.758
7.08487	0.705
7.12576	0.627
7.16666	0.716
7.20755	0.552
7.24844	0.413
7.28934	0.557
7.33023	0.702
7.37113	0.601
7.41202	0.717
7.45291	0.781
7.49381	0.786
7.5347	0.772
7.5756	0.748
7.61649	0.688
7.65738	0.579
7.69828	0.347
7.73917	0.2
7.78007	0.167
7.82096	0.206
7.86185	0.321
7.90275	0.499
7.94364	0.611
7.98454	0.656
8.02543	0.69
8.06633	0.719
8.10722	0.743
8.14811	0.728
8.18901	0.741
8.2299	0.748
8.2708	0.685
8.31169	0.425
8.35258	0.29
8.39348	0.529
8.43437	0.69
8.47527	0.755
8.51616	0.788
8.55705	0.774
8.59795	0.738
8.63884	0.605
8.67974	0.235
8.72063	0.153
8.76152	0.266
8.80242	0.374
8.84331	0.499
8.88421	0.572
8.9251	0.618
8.966	0.663
9.00689	0.707
9.04778	0.717
9.08868	0.728
9.12957	0.741
9.17047	0.745
9.21136	0.748
9.25225	0.752
9.29315	0.753
9.33404	0.724
9.37494	0.627
9.41583	0.635
9.45672	0.75
9.49762	0.779
9.53851	0.784
9.57941	0.748
9.6203	0.552
9.66119	0.622
9.70209	0.528
9.74298	0.623
9.78388	0.712
9.82477	0.753
9.86567	0.793
9.90656	0.808
9.94745	0.82
9.98835	0.83
10.0292	0.844
10.0701	0.841
10.111	0.847
10.1519	0.832
10.1928	0.811
10.2337	0.75
10.2746	0.594
10.3155	0.529
10.3564	0.451
10.3973	0.512
10.4382	0.632
10.4791	0.702
10.52	0.75
10.5609	0.784
10.6018	0.81
10.6427	0.859
10.6835	0.83
10.7244	0.844
10.7653	0.858
10.8062	0.859
10.8471	0.861
10.888	0.859
10.9289	0.805
10.9698	0.803
11.0107	0.839
11.0516	0.825
11.0925	0.694
11.1334	0.758
11.1743	0.685
11.2152	0.747
11.2561	0.832
11.297	0.861
11.3379	0.851
11.3787	0.834
11.4196	0.794
11.4605	0.784
11.5014	0.852
11.5423	0.866
11.5832	0.871
11.6241	0.852
11.665	0.758
11.7059	0.721
11.7468	0.788
11.7877	0.823
11.8286	0.772
11.8695	0.712
11.9104	0.656
11.9513	0.745
11.9922	0.779
12.0331	0.841
12.0739	0.852
12.1148	0.796
12.1557	0.7
12.1966	0.822
12.2375	0.875
12.2784	0.905
12.3193	0.902
12.3602	0.907
12.4011	0.916
12.442	0.912
12.4829	0.902
12.5238	0.914
12.5647	0.926
12.6056	0.926
12.6465	0.873
12.6874	0.673
12.7283	0.694
12.7691	0.675
12.81	0.526
12.8509	0.647
12.8918	0.758
12.9327	0.822
12.9736	0.861
13.0145	0.885
13.0554	0.885
13.0963	0.885
13.1372	0.883
13.1781	0.887
13.219	0.892
13.2599	0.902
13.3008	0.9
13.3417	0.9
13.3826	0.905
13.4235	0.902
13.4643	0.909
13.5052	0.904
13.5461	0.907
13.587	0.914
13.6279	0.909
13.6688	0.916
13.7097	0.917
13.7506	0.923
13.7915	0.928
13.8324	0.919
13.8733	0.917
13.9142	0.919
13.9551	0.924
13.996	0.935
14.0369	0.926
14.0778	0.935
14.1187	0.933
14.1595	0.935
14.2004	0.919
14.2413	0.924
14.2822	0.928
14.3231	0.923
14.364	0.916
14.4049	0.912
14.4458	0.907
14.4867	0.897
14.5276	0.905
14.5685	0.899
14.6094	0.899
14.6503	0.89
14.6912	0.887
14.7321	0.878
14.773	0.878
14.8138	0.863
14.8547	0.868
14.8956	0.861
14.9365	0.851
14.9774	0.835
15.0183	0.791
15.0592	0.723
15.1001	0.675
15.141	0.688
15.1819	0.738
15.2228	0.77
15.2637	0.805
15.3046	0.798
15.3455	0.8
15.3864	0.791
15.4273	0.789
15.4682	0.789
15.509	0.777
15.5499	0.779
15.5908	0.777
15.6317	0.767
15.6726	0.762
15.7135	0.755
15.7544	0.74
15.7953	0.728
15.8362	0.711
15.8771	0.716
15.918	0.709
15.9589	0.697
