Infrared Spectrum: 1,1'-DI-n-BUTYL FERROCENE
Formula: C18 H26 Fe
CAS: 1274-08-4
State: LIQUID
Class: COBLENTZ
Instrument: Not specified, most likely a prism, grating, or hybrid spectrometer.
Sampling: TRANSMISSION
Path length: 0.003 CM
Resolution: 4
Origin: WYANDOTTE CHEMICALS CORP., WYANDOTTE, MICHIGAN, USA
MICROMETERS	TRANSMITTANCE
2.041	0.929
2.08186	0.936
2.12271	0.926
2.16357	0.909
2.20442	0.9
2.24528	0.866
2.28614	0.887
2.32699	0.882
2.36785	0.887
2.4087	0.897
2.44956	0.888
2.49042	0.873
2.53127	0.897
2.57213	0.923
2.61298	0.919
2.65384	0.929
2.69469	0.938
2.73555	0.924
2.77641	0.904
2.81726	0.887
2.85812	0.88
2.89897	0.87
2.93983	0.854
2.98069	0.847
3.02154	0.846
3.0624	0.851
3.10325	0.851
3.14411	0.842
3.18497	0.832
3.22582	0.716
3.26668	0.48
3.30753	0.741
3.34839	0.415
3.38925	0.041
3.4301	0.066
3.47096	0.157
3.51181	0.094
3.55267	0.473
3.59353	0.743
3.63438	0.818
3.67524	0.813
3.71609	0.849
3.75695	0.856
3.7978	0.876
3.83866	0.899
3.87952	0.905
3.92037	0.911
3.96123	0.919
4.00208	0.921
4.04294	0.929
4.0838	0.928
4.12465	0.919
4.16551	0.916
4.20636	0.912
4.24722	0.924
4.28808	0.945
4.32893	0.945
4.36979	0.948
4.41064	0.941
4.4515	0.938
4.49236	0.933
4.53321	0.931
4.57407	0.923
4.61492	0.933
4.65578	0.947
4.69664	0.953
4.73749	0.955
4.77835	0.96
4.8192	0.953
4.86006	0.952
4.90092	0.935
4.94177	0.957
4.98263	0.955
5.02348	0.964
5.06434	0.967
5.10519	0.96
5.14605	0.957
5.18691	0.967
5.22776	0.964
5.26862	0.964
5.30947	0.958
5.35033	0.962
5.39119	0.967
5.43204	0.964
5.4729	0.969
5.51375	0.97
5.55461	0.965
5.59547	0.957
5.63632	0.945
5.67718	0.94
5.71803	0.87
5.75889	0.832
5.79975	0.764
5.8406	0.767
5.88146	0.774
5.92231	0.776
5.96317	0.721
6.00403	0.731
6.04488	0.723
6.08574	0.702
6.12659	0.687
6.16745	0.747
6.2083	0.806
6.24916	0.87
6.29002	0.895
6.33087	0.911
6.37173	0.905
6.41258	0.892
6.45344	0.885
6.4943	0.871
6.53515	0.863
6.57601	0.866
6.61686	0.856
6.65772	0.829
6.69858	0.791
6.73943	0.605
6.78029	0.213
6.82114	0.201
6.862	0.297
6.90286	0.364
6.94371	0.405
6.98457	0.615
7.02542	0.75
7.06628	0.788
7.10714	0.784
7.14799	0.738
7.18885	0.705
7.2297	0.509
7.27056	0.494
7.31141	0.676
7.35227	0.647
7.39313	0.697
7.43398	0.711
7.47484	0.705
7.51569	0.747
7.55655	0.61
7.59741	0.678
7.63826	0.755
7.67912	0.668
7.71997	0.661
7.76083	0.702
7.80169	0.719
7.84254	0.764
7.8834	0.782
7.92425	0.777
7.96511	0.678
8.00597	0.705
8.04682	0.758
8.08768	0.707
8.12853	0.574
8.16939	0.57
8.21025	0.747
8.2511	0.796
8.29196	0.813
8.33281	0.825
8.37367	0.82
8.41453	0.827
8.45538	0.822
8.49624	0.844
8.53709	0.873
8.57795	0.871
8.6188	0.866
8.65966	0.88
8.70052	0.892
8.74137	0.904
8.78223	0.905
8.82308	0.905
8.86394	0.89
8.9048	0.87
8.94565	0.837
8.98651	0.784
9.02736	0.67
9.06822	0.627
9.10908	0.663
9.14993	0.675
9.19079	0.714
9.23164	0.74
9.2725	0.738
9.31336	0.714
9.35421	0.699
9.39507	0.671
9.43592	0.567
9.47678	0.466
9.51764	0.488
9.55849	0.463
9.59935	0.218
9.6402	0.251
9.68106	0.446
9.72191	0.502
9.76277	0.218
9.80363	0.205
9.84448	0.451
9.88534	0.611
9.92619	0.668
9.96705	0.705
10.0079	0.721
10.0488	0.735
10.0896	0.719
10.1305	0.716
10.1713	0.728
10.2122	0.741
10.253	0.741
10.2939	0.738
10.3348	0.764
10.3756	0.765
10.4165	0.757
10.4573	0.779
10.4982	0.803
10.539	0.823
10.5799	0.827
10.6207	0.825
10.6616	0.803
10.7025	0.779
10.7433	0.743
10.7842	0.651
10.825	0.488
10.8659	0.43
10.9067	0.456
10.9476	0.555
10.9884	0.68
11.0293	0.748
11.0702	0.767
11.111	0.765
11.1519	0.745
11.1927	0.729
11.2336	0.755
11.2744	0.77
11.3153	0.762
11.3562	0.743
11.397	0.699
11.4379	0.659
11.4787	0.62
11.5196	0.632
11.5604	0.683
11.6013	0.717
11.6421	0.709
11.683	0.652
11.7239	0.569
11.7647	0.505
11.8056	0.487
11.8464	0.519
11.8873	0.545
11.9281	0.576
11.969	0.565
12.0098	0.504
12.0507	0.396
12.0916	0.29
12.1324	0.203
12.1733	0.145
12.2141	0.121
12.255	0.138
12.2958	0.188
12.3367	0.244
12.3776	0.23
12.4184	0.179
12.4593	0.153
12.5001	0.179
12.541	0.266
12.5818	0.429
12.6227	0.555
12.6635	0.629
12.7044	0.671
12.7453	0.69
12.7861	0.702
12.827	0.712
12.8678	0.729
12.9087	0.757
12.9495	0.767
12.9904	0.777
13.0312	0.774
13.0721	0.779
13.113	0.765
13.1538	0.752
13.1947	0.719
13.2355	0.671
13.2764	0.613
13.3172	0.562
13.3581	0.564
13.3989	0.615
13.4398	0.678
13.4807	0.724
13.5215	0.753
13.5624	0.765
13.6032	0.76
13.6441	0.753
13.6849	0.709
13.7258	0.685
13.7667	0.666
13.8075	0.692
13.8484	0.736
13.8892	0.77
13.9301	0.782
13.9709	0.8
14.0118	0.806
14.0526	0.803
14.0935	0.806
14.1344	0.81
14.1752	0.817
14.2161	0.823
14.2569	0.818
14.2978	0.823
14.3386	0.827
14.3795	0.829
14.4203	0.825
14.4612	0.825
14.5021	0.817
14.5429	0.811
14.5838	0.801
14.6246	0.801
14.6655	0.793
14.7063	0.8
14.7472	0.789
14.7881	0.794
14.8289	0.791
14.8698	0.791
14.9106	0.789
14.9515	0.789
14.9923	0.781
15.0332	0.764
15.074	0.721
15.1149	0.695
15.1558	0.7
15.1966	0.724
15.2375	0.75
15.2783	0.762
15.3192	0.769
15.36	0.77
15.4009	0.765
15.4417	0.77
15.4826	0.764
15.5235	0.762
15.5643	0.762
15.6052	0.758
15.646	0.753
15.6869	0.75
15.7277	0.745
15.7686	0.748
15.8094	0.75
15.8503	0.743
15.8912	0.741
15.932	0.735
15.9729	0.738
