Infrared Spectrum: 2H-BENZO[A]QUINOLIZINE-3-CARBOXAMIDE,N,N-DIETHYL-1,3,4,6,7,11B-HEXAHYDRO-2-HYDROXY-9,10-DIMETHOXY-,METHYL ESTER CARBONATE
Formula: C22 H32 N2 O6
CAS: 127851-81-4
State: SOLUTION (7% IN CHCl3)
Class: COBLENTZ
Instrument: PERKIN-ELMER 21 (GRATING)
Instrument parameters: FILTER CHANGE AT 10 MICRON
Sampling: TRANSMISSION
Path length: 0.010 CM
Resolution: 2
Origin: ABBOTT LABORATORIES
MICROMETERS	TRANSMITTANCE
2.553	0.92
2.58185	0.921
2.61069	0.924
2.63954	0.932
2.66839	0.932
2.69723	0.932
2.72608	0.931
2.75493	0.914
2.78377	0.917
2.81262	0.923
2.84146	0.923
2.87031	0.92
2.89916	0.913
2.928	0.908
2.95685	0.912
2.9857	0.914
3.01454	0.915
3.04339	0.917
3.07224	0.917
3.10108	0.915
3.12993	0.913
3.15878	0.911
3.18762	0.907
3.21647	0.905
3.24531	0.902
3.27416	0.896
3.30301	0.842
3.33185	0.716
3.3607	0.435
3.38955	0.436
3.41839	0.442
3.44724	0.473
3.47609	0.623
3.50493	0.694
3.53378	0.662
3.56263	0.665
3.59147	0.723
3.62032	0.747
3.64917	0.805
3.67801	0.85
3.70686	0.855
3.7357	0.867
3.76455	0.878
3.7934	0.883
3.82224	0.889
3.85109	0.891
3.87994	0.891
3.90878	0.894
3.93763	0.895
3.96648	0.895
3.99532	0.893
4.02417	0.887
4.05302	0.877
4.08186	0.875
4.11071	0.878
4.13955	0.887
4.1684	0.909
4.19725	0.944
4.22609	0.949
4.25494	0.937
4.28379	0.931
4.31263	0.925
4.34148	0.923
4.37033	0.921
4.39917	0.919
4.42802	0.918
4.45687	0.918
4.48571	0.918
4.51456	0.918
4.54341	0.918
4.57225	0.919
4.6011	0.918
4.62994	0.914
4.65879	0.913
4.68764	0.914
4.71648	0.912
4.74533	0.913
4.77418	0.915
4.80302	0.915
4.83187	0.914
4.86072	0.917
4.88956	0.908
4.91841	0.906
4.94726	0.906
4.9761	0.908
5.00495	0.912
5.03379	0.912
5.06264	0.913
5.09149	0.917
5.12033	0.917
5.14918	0.917
5.17803	0.917
5.20687	0.915
5.23572	0.915
5.26457	0.912
5.29341	0.907
5.32226	0.908
5.35111	0.907
5.37995	0.908
5.4088	0.907
5.43764	0.907
5.46649	0.907
5.49534	0.907
5.52418	0.894
5.55303	0.895
5.58188	0.897
5.61072	0.896
5.63957	0.89
5.66842	0.882
5.69726	0.844
5.72611	0.722
5.75496	0.43
5.7838	0.187
5.81265	0.248
5.8415	0.368
5.87034	0.623
5.89919	0.73
5.92803	0.778
5.95688	0.802
5.98573	0.816
6.01457	0.804
6.04342	0.746
6.07227	0.631
6.10111	0.251
6.12996	0.143
6.15881	0.121
6.18765	0.18
6.2165	0.396
6.24535	0.563
6.27419	0.707
6.30304	0.746
6.33188	0.793
6.36073	0.813
6.38958	0.834
6.41842	0.847
6.44727	0.85
6.47612	0.853
6.50496	0.853
6.53381	0.83
6.56266	0.688
6.5915	0.504
6.62035	0.286
6.6492	0.254
6.67804	0.401
6.70689	0.609
6.73574	0.663
6.76458	0.605
6.79343	0.544
6.82227	0.548
6.85112	0.312
6.87997	0.242
6.90881	0.299
6.93766	0.312
6.96651	0.329
6.99535	0.353
7.0242	0.375
7.05305	0.53
7.08189	0.638
7.11074	0.665
7.13959	0.67
7.16843	0.734
7.19728	0.735
7.22612	0.695
7.25497	0.576
7.28382	0.408
7.31266	0.288
7.34151	0.289
7.37036	0.322
7.3992	0.442
7.42805	0.457
7.4569	0.437
7.48574	0.543
7.51459	0.584
7.54344	0.508
7.57228	0.534
7.60113	0.555
7.62998	0.497
7.65882	0.533
7.68767	0.622
7.71651	0.659
7.74536	0.669
7.77421	0.675
7.80305	0.674
7.8319	0.582
7.86075	0.504
7.88959	0.459
7.91844	0.364
7.94729	0.259
7.97613	0.123
8.00498	0.067
8.03383	0.066
8.06267	0.05
8.09152	0.043
8.12036	0.07
8.14921	0.115
8.17806	0.152
8.2069	0.198
8.23575	0.234
8.2646	0.275
8.29344	0.311
8.32229	0.352
8.35114	0.388
8.37998	0.424
8.40883	0.572
8.43768	0.683
8.46652	0.691
8.49537	0.729
8.52422	0.774
8.55306	0.778
8.58191	0.777
8.61075	0.742
8.6396	0.671
8.66845	0.501
8.69729	0.42
8.72614	0.463
8.75499	0.502
8.78383	0.435
8.81268	0.341
8.84153	0.243
8.87037	0.227
8.89922	0.401
8.92807	0.572
8.95691	0.65
8.98576	0.71
9.0146	0.713
9.04345	0.68
9.0723	0.626
9.10114	0.531
9.12999	0.39
9.15884	0.343
9.18768	0.372
9.21653	0.534
9.24538	0.618
9.27422	0.667
9.30307	0.694
9.33192	0.712
9.36076	0.698
9.38961	0.671
9.41846	0.657
9.4473	0.617
9.47615	0.509
9.50499	0.445
9.53384	0.48
9.56269	0.582
9.59153	0.662
9.62038	0.674
9.64923	0.669
9.67807	0.664
9.70692	0.658
9.73577	0.651
9.76461	0.627
9.79346	0.59
9.82231	0.512
9.85115	0.445
9.88	0.342
9.90884	0.319
9.93769	0.372
9.96654	0.455
9.99538	0.526
10.0242	0.579
10.0531	0.588
10.0819	0.605
10.1108	0.662
10.1396	0.73
10.1685	0.784
10.1973	0.799
10.2262	0.818
10.255	0.819
10.2838	0.818
10.3127	0.807
10.3415	0.782
10.3704	0.766
10.3992	0.751
10.4281	0.742
10.4569	0.753
10.4858	0.781
10.5146	0.811
10.5435	0.816
10.5723	0.811
10.6012	0.776
10.63	0.758
10.6589	0.788
10.6877	0.819
10.7165	0.86
10.7454	0.884
10.7742	0.902
10.8031	0.907
10.8319	0.907
10.8608	0.906
10.8896	0.906
10.9185	0.903
10.9473	0.899
10.9762	0.888
11.005	0.883
11.0339	0.881
11.0627	0.873
11.0915	0.864
11.1204	0.864
11.1492	0.866
11.1781	0.868
11.2069	0.862
11.2358	0.847
11.2646	0.837
11.2935	0.826
11.3223	0.813
11.3512	0.816
11.38	0.819
11.4089	0.824
11.4377	0.829
11.4666	0.823
11.4954	0.782
11.5242	0.743
11.5531	0.681
11.5819	0.632
11.6108	0.608
11.6396	0.643
11.6685	0.692
11.6973	0.722
11.7262	0.721
11.755	0.705
11.7839	0.686
11.8127	0.715
11.8416	0.776
11.8704	0.818
11.8992	0.844
11.9281	0.853
11.9569	0.861
11.9858	0.867
12.0146	0.877
12.0435	0.883
12.0723	0.889
12.1012	0.891
12.13	0.891
12.1589	0.878
12.1877	0.834
12.2166	0.751
12.2454	0.699
12.2743	0.685
12.3031	0.73
12.3319	0.8
12.3608	0.86
12.3896	0.902
12.4185	0.944
12.4473	0.959
12.4762	0.969
12.505	0.975
12.5339	0.978
12.5627	0.979
12.5916	0.979
12.6204	0.979
12.6493	0.983
12.6781	0.981
12.707	0.979
12.7358	0.979
12.7646	0.978
12.7935	0.977
12.8223	0.975
12.8512	0.974
12.88	0.974
12.9089	0.973
12.9377	0.974
12.9666	0.974
12.9954	0.973
13.0243	0.968
13.0531	0.967
13.082	0.966
13.1108	0.963
13.1396	0.963
13.1685	0.963
13.1973	0.963
13.2262	0.963
13.255	0.965
13.2839	0.965
13.3127	0.963
13.3416	0.965
13.3704	0.963
13.3993	0.963
13.4281	0.963
13.457	0.962
13.4858	0.962
13.5147	0.963
13.5435	0.962
13.5723	0.962
13.6012	0.962
13.63	0.961
13.6589	0.962
13.6877	0.963
13.7166	0.963
13.7454	0.961
13.7743	0.963
