Infrared Spectrum: BENZOIC ACID, 2-{3-[2-(DIETHYLAMINO)ETHYL]-3-METHYLTRIAZENO}-, METHYL ESTER
Formula: C15 H24 N4 O2
CAS: 127909-49-3
State: LIQUID (NEAT)
Class: COBLENTZ III
Instrument: PERKIN-ELMER 521 (GRATING)
Instrument parameters: FILTERS AT 3150, 2500, 2000, 1150, 700, 410 CM ^-^1, GRATING CHANGES AT 2000, 630 CM^-^1
Sampling: TRANSMISSION
Path length: CAPILLARY
Resolution: 4
Origin: SOUTHERN RES. INSTITUTE
1/CM	TRANSMITTANCE
248.649	0.727
257.915	0.747
267.182	0.774
276.448	0.819
285.715	0.848
294.981	0.856
304.247	0.859
313.514	0.854
322.78	0.844
332.047	0.841
341.313	0.848
350.579	0.84
359.846	0.812
369.112	0.821
378.379	0.837
387.645	0.839
396.911	0.853
406.178	0.871
415.444	0.89
424.711	0.899
433.977	0.904
443.244	0.904
452.51	0.897
461.776	0.887
471.043	0.891
480.309	0.914
489.576	0.928
498.842	0.919
508.108	0.89
517.375	0.839
526.641	0.825
535.908	0.834
545.174	0.84
554.44	0.861
563.707	0.876
572.973	0.892
582.24	0.829
591.506	0.616
600.772	0.634
610.039	0.784
619.305	0.869
628.572	0.9
637.838	0.779
647.104	0.757
656.371	0.843
665.637	0.9
674.904	0.838
684.17	0.667
693.436	0.774
702.703	0.826
711.969	0.58
721.236	0.592
730.502	0.635
739.769	0.663
749.035	0.693
758.301	0.47
767.568	0.369
776.834	0.485
786.101	0.634
795.367	0.702
804.633	0.748
813.9	0.784
823.166	0.69
832.433	0.707
841.699	0.863
850.965	0.852
860.232	0.863
869.498	0.88
878.765	0.856
888.031	0.88
897.297	0.862
906.564	0.842
915.83	0.831
925.097	0.839
934.363	0.859
943.629	0.803
952.896	0.704
962.162	0.682
971.429	0.648
980.695	0.757
989.961	0.748
999.228	0.728
1008.49	0.739
1017.76	0.672
1027.03	0.612
1036.29	0.464
1045.56	0.435
1054.83	0.449
1064.09	0.304
1073.36	0.294
1082.63	0.321
1091.89	0.341
1101.16	0.406
1110.42	0.43
1119.69	0.348
1128.96	0.332
1138.22	0.443
1147.49	0.395
1156.76	0.334
1166.02	0.42
1175.29	0.529
1184.56	0.484
1193.82	0.409
1203.09	0.363
1212.36	0.404
1221.62	0.459
1230.89	0.414
1240.15	0.308
1249.42	0.242
1258.69	0.293
1267.95	0.348
1277.22	0.332
1286.49	0.264
1295.75	0.236
1305.02	0.288
1314.29	0.307
1323.55	0.325
1332.82	0.349
1342.08	0.279
1351.35	0.243
1360.62	0.255
1369.88	0.294
1379.15	0.315
1388.42	0.317
1397.68	0.306
1406.95	0.336
1416.22	0.369
1425.48	0.279
1434.75	0.262
1444.02	0.241
1453.28	0.258
1462.55	0.281
1471.81	0.271
1481.08	0.314
1490.35	0.43
1499.61	0.597
1508.88	0.668
1518.15	0.709
1527.41	0.749
1536.68	0.774
1545.95	0.788
1555.21	0.793
1564.48	0.779
1573.75	0.662
1583.01	0.658
1592.28	0.549
1601.54	0.641
1610.81	0.763
1620.08	0.784
1629.34	0.775
1638.61	0.774
1647.88	0.771
1657.14	0.751
1666.41	0.727
1675.68	0.676
1684.94	0.605
1694.21	0.504
1703.47	0.369
1712.74	0.273
1722.01	0.212
1731.27	0.209
1740.54	0.351
1749.81	0.527
1759.07	0.691
1768.34	0.759
1777.61	0.812
1786.87	0.846
1796.14	0.863
1805.41	0.869
1814.67	0.873
1823.94	0.886
1833.2	0.901
1842.47	0.907
1851.74	0.917
1861	0.925
1870.27	0.929
1879.54	0.925
1888.8	0.909
1898.07	0.902
1907.34	0.892
1916.6	0.88
1925.87	0.88
1935.13	0.882
1944.4	0.887
1953.67	0.893
1962.93	0.904
1972.2	0.92
1981.47	0.925
1990.73	0.929
2000	0.927
2009.27	0.921
2018.53	0.918
2027.8	0.916
2037.07	0.909
2046.33	0.905
2055.6	0.903
2064.86	0.901
2074.13	0.898
2083.4	0.897
2092.66	0.897
2101.93	0.897
2111.2	0.899
2120.46	0.9
2129.73	0.901
2139	0.901
2148.26	0.9
2157.53	0.897
2166.79	0.895
2176.06	0.892
2185.33	0.885
2194.59	0.885
2203.86	0.88
2213.13	0.876
2222.39	0.873
2231.66	0.872
2240.93	0.866
2250.19	0.86
2259.46	0.856
2268.73	0.854
2277.99	0.853
2287.26	0.851
2296.52	0.849
2305.79	0.839
2315.06	0.831
2324.32	0.829
2333.59	0.822
2342.86	0.817
2352.12	0.808
2361.39	0.8
2370.66	0.797
2379.92	0.795
2389.19	0.795
2398.46	0.793
2407.72	0.794
2416.99	0.795
2426.25	0.799
2435.52	0.8
2444.79	0.802
2454.05	0.801
2463.32	0.804
2472.59	0.81
2481.85	0.812
2491.12	0.81
2500.39	0.808
2509.65	0.8
2518.92	0.795
2528.18	0.794
2537.45	0.794
2546.72	0.792
2555.98	0.791
2565.25	0.786
2574.52	0.783
2583.78	0.787
2593.05	0.79
2602.32	0.79
2611.58	0.79
2620.85	0.792
2630.12	0.788
2639.38	0.778
2648.65	0.775
2657.91	0.771
2667.18	0.762
2676.45	0.759
2685.71	0.754
2694.98	0.741
2704.25	0.713
2713.51	0.682
2722.78	0.664
2732.05	0.66
2741.31	0.641
2750.58	0.603
2759.84	0.577
2769.11	0.567
2778.38	0.528
2787.64	0.458
2796.91	0.389
2806.18	0.37
2815.44	0.382
2824.71	0.4
2833.98	0.422
2843.24	0.446
2852.51	0.477
2861.78	0.48
2871.04	0.433
2880.31	0.416
2889.57	0.414
2898.84	0.392
2908.11	0.368
2917.37	0.355
2926.64	0.325
2935.91	0.307
2945.17	0.299
2954.44	0.296
2963.71	0.266
2972.97	0.252
2982.24	0.313
2991.51	0.407
3000.77	0.491
3010.04	0.552
3019.3	0.595
3028.57	0.629
3037.84	0.66
3047.1	0.674
3056.37	0.651
3065.64	0.641
3074.9	0.68
3084.17	0.742
3093.44	0.773
3102.7	0.807
3111.97	0.821
3121.23	0.826
3130.5	0.823
3139.77	0.821
3149.03	0.822
3158.3	0.825
3167.57	0.828
3176.83	0.83
3186.1	0.832
3195.37	0.835
3204.63	0.836
3213.9	0.839
3223.17	0.841
3232.43	0.843
3241.7	0.846
3250.96	0.845
3260.23	0.843
3269.5	0.843
3278.76	0.842
3288.03	0.84
3297.3	0.838
3306.56	0.836
3315.83	0.832
3325.1	0.829
3334.36	0.826
3343.63	0.824
3352.89	0.822
3362.16	0.819
3371.43	0.815
3380.69	0.812
3389.96	0.807
3399.23	0.802
3408.49	0.797
3417.76	0.792
3427.03	0.784
3436.29	0.782
3445.56	0.784
3454.83	0.792
3464.09	0.806
3473.36	0.812
3482.62	0.816
3491.89	0.819
3501.16	0.822
3510.42	0.824
3519.69	0.824
3528.96	0.822
3538.22	0.822
3547.49	0.822
3556.76	0.823
3566.02	0.822
3575.29	0.819
3584.56	0.817
3593.82	0.815
3603.09	0.815
3612.35	0.815
3621.62	0.817
3630.89	0.821
3640.15	0.828
3649.42	0.829
3658.69	0.831
3667.95	0.838
3677.22	0.839
3686.49	0.843
3695.75	0.853
3705.02	0.858
3714.28	0.858
3723.55	0.856
3732.82	0.853
3742.08	0.851
3751.35	0.847
3760.62	0.849
3769.88	0.855
3779.15	0.858
3788.42	0.859
3797.68	0.856
