Infrared Spectrum: 3,4,9,10-Perylenetetracarboxylic dianhydride
Formula: C24 H8 O6
CAS: 128-69-8
State: SOLID (SPLIT MULL), FLUOROLUBE FOR 3800-1330 CM^-^1, NUJOL FOR 1330-460 CM^-^1
Class: COBLENTZ III
Instrument: DOW KBr FOREPRISM-GRATING
Instrument parameters: BLAZED AT 3.5, 12.0, 20.0 MICRON AND CHANGED AT 5.0, 7.5, 14.9 MICRON
Sampling: TRANSMISSION
Resolution: 2
Origin: DOW CHEMICAL COMPANY
1/CM	TRANSMITTANCE
462	0.7905
471	0.8011
480	0.8061
489	0.8086
498	0.8025
507	0.7922
516	0.8216
525	0.8256
534	0.8292
543	0.8327
552	0.8342
561	0.8364
570	0.8262
579	0.796
588	0.8466
597	0.8493
606	0.809
615	0.829
624	0.8371
633	0.8514
642	0.7855
651	0.8518
660	0.8518
669	0.8486
678	0.8366
687	0.823
696	0.8086
705	0.824
714	0.8161
723	0.7756
732	0.7308
741	0.5547
750	0.7806
759	0.7251
768	0.7411
777	0.8005
786	0.8261
795	0.7082
804	0.769
813	0.4034
822	0.823
831	0.8267
840	0.8181
849	0.7925
858	0.6744
867	0.6828
876	0.7771
885	0.7939
894	0.7865
903	0.7849
912	0.7844
921	0.781
930	0.7701
939	0.6217
948	0.7806
957	0.7811
966	0.7657
975	0.7488
984	0.7508
993	0.7318
1002	0.6352
1011	0.5104
1020	0.3634
1029	0.3793
1038	0.7101
1047	0.7428
1056	0.7521
1065	0.7581
1074	0.7599
1083	0.7574
1092	0.7515
1101	0.7361
1110	0.7042
1119	0.5975
1128	0.5619
1137	0.6162
1146	0.5075
1155	0.5351
1164	0.6898
1173	0.7269
1182	0.7285
1191	0.7522
1200	0.7571
1209	0.7512
1218	0.7487
1227	0.6721
1236	0.4283
1245	0.6876
1254	0.7555
1263	0.7231
1272	0.7248
1281	0.6775
1290	0.5551
1299	0.1722
1308	0.3991
1317	0.6203
1326	0.7556
1335	0.7111
1344	0.6776
1353	0.7297
1362	0.7364
1371	0.6968
1380	0.6933
1389	0.7255
1398	0.7075
1407	0.4769
1416	0.7576
1425	0.7422
1434	0.7349
1443	0.7428
1452	0.7483
1461	0.7421
1470	0.7325
1479	0.7168
1488	0.7039
1497	0.6747
1506	0.5485
1515	0.7158
1524	0.7146
1533	0.7042
1542	0.6805
1551	0.6458
1560	0.5859
1569	0.5057
1578	0.4119
1587	0.321
1596	0.1455
1605	0.6751
1614	0.6946
1623	0.7386
1632	0.7169
1641	0.6995
1650	0.6751
1659	0.6434
1668	0.6015
1677	0.5603
1686	0.5102
1695	0.4676
1704	0.4316
1713	0.3954
1722	0.3234
1731	0.2167
1740	0.1553
1749	0.2162
1758	0.141
1767	0.1053
1776	0.0922
1785	0.3341
1794	0.6022
1803	0.7744
1812	0.8773
1821	0.8768
1830	0.8678
1839	0.8685
1848	0.8538
1857	0.8407
1866	0.8328
1875	0.8313
1884	0.833
1893	0.826
1902	0.8165
1911	0.8037
1920	0.7957
1929	0.7928
1938	0.7839
1947	0.7775
1956	0.7825
1965	0.7808
1974	0.7775
1983	0.7737
1992	0.7683
2001	0.7764
2010	0.781
2019	0.7783
2028	0.7738
2037	0.7686
2046	0.7625
2055	0.7571
2064	0.7521
2073	0.7472
2082	0.7428
2091	0.7385
2100	0.7341
2109	0.7296
2118	0.7251
2127	0.7206
2136	0.7165
2145	0.7125
2154	0.7087
2163	0.705
2172	0.7024
2181	0.7031
2190	0.7003
2199	0.6944
2208	0.6891
2217	0.6848
2226	0.6805
2235	0.6755
2244	0.6706
2253	0.6656
2262	0.6603
2271	0.6551
2280	0.6499
2289	0.646
2298	0.6422
2307	0.6387
2316	0.6358
2325	0.6328
2334	0.6298
2343	0.6268
2352	0.6244
2361	0.6226
2370	0.6209
2379	0.6192
2388	0.6176
2397	0.6159
2406	0.6142
2415	0.6126
2424	0.6101
2433	0.6065
2442	0.6029
2451	0.5992
2460	0.5959
2469	0.5927
2478	0.5896
2487	0.5864
2496	0.5837
2505	0.581
2514	0.5787
2523	0.5762
2532	0.5739
2541	0.5714
2550	0.569
2559	0.5666
2568	0.5642
2577	0.562
2586	0.5599
2595	0.558
2604	0.556
2613	0.5543
2622	0.5525
2631	0.5501
2640	0.5477
2649	0.5452
2658	0.5429
2667	0.541
2676	0.5394
2685	0.5372
2694	0.5351
2703	0.5329
2712	0.5308
2721	0.5286
2730	0.5264
2739	0.5242
2748	0.5218
2757	0.5192
2766	0.5167
2775	0.5142
2784	0.511
2793	0.5079
2802	0.5048
2811	0.5015
2820	0.4976
2829	0.4933
2838	0.4864
2847	0.477
2856	0.47
2865	0.4683
2874	0.468
2883	0.4678
2892	0.466
2901	0.4606
2910	0.4522
2919	0.4422
2928	0.4409
2937	0.4455
2946	0.4458
2955	0.4456
2964	0.4489
2973	0.4509
2982	0.4498
2991	0.4479
3000	0.4456
3009	0.4414
3018	0.4348
3027	0.4277
3036	0.4276
3045	0.4199
3054	0.4121
3063	0.4138
3072	0.415
3081	0.4134
3090	0.403
3099	0.406
3108	0.408
3117	0.3974
3126	0.41
3135	0.4351
3144	0.4348
3153	0.4321
3162	0.4291
3171	0.4262
3180	0.4234
3189	0.4205
3198	0.4178
3207	0.4152
3216	0.4126
3225	0.4104
3234	0.4084
3243	0.4066
3252	0.4048
3261	0.4029
3270	0.4009
3279	0.3991
3288	0.3973
3297	0.3954
3306	0.3934
3315	0.3916
3324	0.3898
3333	0.3882
3342	0.3864
3351	0.3849
3360	0.3832
3369	0.3816
3378	0.3797
3387	0.3776
3396	0.3756
3405	0.3734
3414	0.3714
3423	0.3694
3432	0.368
3441	0.3666
3450	0.3653
3459	0.3641
3468	0.3632
3477	0.3625
3486	0.3618
3495	0.3609
3504	0.36
3513	0.359
3522	0.358
3531	0.3574
3540	0.3568
3549	0.3562
3558	0.3557
3567	0.3552
3576	0.3548
3585	0.3544
3594	0.3543
3603	0.3541
3612	0.354
3621	0.3536
3630	0.3532
3639	0.3528
3648	0.3525
3657	0.352
3666	0.3516
3675	0.351
3684	0.3503
3693	0.3493
3702	0.3445
3711	0.345
3720	0.3422
3729	0.3394
3738	0.3366
3747	0.3339
3756	0.3312
3765	0.3284
3774	0.326
3783	0.3238
3792	0.3218
