Infrared Spectrum: 3Alpha-HYDROXY-5Beta-PREGNAN-20-ONE
Formula: C21 H34 O2
CAS: 128-20-1
State: SOLID (KBr DISC)
Class: COBLENTZ III
Instrument: BECKMAN IR-7
Sampling: TRANSMISSION
Resolution: 4
Origin: THE WORCESTER FOUNDATION FOR EXPERIMENTAL BIOLOGY, Neal L. McNiven
1/CM	TRANSMITTANCE
593.444	0.535
602.185	0.495
610.926	0.49
619.667	0.532
628.408	0.582
637.149	0.603
645.889	0.663
654.63	0.699
663.371	0.724
672.112	0.7529
680.853	0.782
689.594	0.793
698.335	0.811
707.076	0.811
715.817	0.841
724.558	0.882
733.298	0.892
742.039	0.897
750.78	0.914
759.521	0.926
768.262	0.937
777.003	0.942
785.744	0.947
794.485	0.953
803.226	0.966
811.967	0.944
820.708	0.957
829.448	0.947
838.189	0.892
846.93	0.934
855.671	0.912
864.412	0.965
873.153	0.967
881.894	0.962
890.635	0.948
899.376	0.853
908.117	0.897
916.858	0.859
925.598	0.867
934.339	0.901
943.08	0.765
951.821	0.855
960.562	0.881
969.303	0.868
978.044	0.856
986.785	0.86
995.526	0.83
1004.27	0.795
1013.01	0.5961
1021.75	0.695
1030.49	0.595
1039.23	0.312
1047.97	0.534
1056.71	0.734
1065.45	0.4691
1074.19	0.682
1082.93	0.703
1091.68	0.703
1100.42	0.776
1109.16	0.727
1117.9	0.774
1126.64	0.784
1135.38	0.814
1144.12	0.693
1152.86	0.608
1161.6	0.598
1170.34	0.567
1179.08	0.624
1187.83	0.6481
1196.57	0.6819
1205.31	0.774
1214.05	0.663
1222.79	0.753
1231.53	0.626
1240.27	0.696
1249.01	0.749
1257.75	0.769
1266.49	0.714
1275.23	0.783
1283.98	0.769
1292.72	0.721
1301.46	0.702
1310.2	0.687
1318.94	0.708
1327.68	0.677
1336.42	0.585
1345.16	0.487
1353.9	0.322
1362.64	0.407
1371.38	0.56
1380.13	0.524
1388.87	0.609
1397.61	0.732
1406.35	0.707
1415.09	0.669
1423.83	0.664
1432.57	0.622
1441.31	0.437
1450.05	0.384
1458.79	0.542
1467.53	0.53
1476.28	0.721
1485.02	0.837
1493.76	0.87
1502.5	0.884
1511.24	0.893
1519.98	0.9
1528.72	0.902
1537.46	0.905
1546.2	0.908
1554.94	0.909
1563.68	0.912
1572.43	0.912
1581.17	0.91
1589.91	0.907
1598.65	0.898
1607.39	0.891
1616.13	0.881
1624.87	0.874
1633.61	0.863
1642.35	0.85
1651.09	0.827
1659.83	0.811
1668.58	0.802
1677.32	0.759
1686.06	0.587
1694.8	0.222
1703.54	0.118
1712.28	0.4829
1721.02	0.736
1729.76	0.764
1738.5	0.771
1747.24	0.835
1755.98	0.883
1764.73	0.909
1773.47	0.916
1782.21	0.928
1790.95	0.933
1799.69	0.937
1808.43	0.939
1817.17	0.939
1825.91	0.941
1834.65	0.942
1843.39	0.944
1852.13	0.947
1860.88	0.947
1869.62	0.947
1878.36	0.947
1887.1	0.947
1895.84	0.947
1904.58	0.945
1913.32	0.944
1922.06	0.944
1930.8	0.944
1939.54	0.943
1948.28	0.944
1957.03	0.94
1965.77	0.944
1974.51	0.943
1983.25	0.944
1991.99	0.944
2000.73	0.944
2009.47	0.944
2018.21	0.944
2026.95	0.944
2035.69	0.944
2044.43	0.943
2053.18	0.9425
2061.92	0.942
2070.66	0.942
2079.4	0.942
2088.14	0.942
2096.88	0.942
2105.62	0.943
2114.36	0.9437
2123.1	0.944
2131.84	0.944
2140.58	0.944
2149.33	0.944
2158.07	0.944
2166.81	0.943
2175.55	0.942
2184.29	0.941
2193.03	0.9379
2201.77	0.9328
2210.51	0.9269
2219.25	0.9258
2227.99	0.9238
2236.73	0.9217
2245.48	0.9197
2254.22	0.918
2262.96	0.916
2271.7	0.9156
2280.44	0.9146
2289.18	0.914
2297.92	0.913
2306.66	0.913
2315.4	0.9114
2324.14	0.9067
2332.88	0.9043
2341.63	0.903
2350.37	0.9047
2359.11	0.905
2367.85	0.905
2376.59	0.905
2385.33	0.905
2394.07	0.905
2402.81	0.904
2411.55	0.902
2420.29	0.901
2429.03	0.9
2437.78	0.898
2446.52	0.897
2455.26	0.895
2464	0.894
2472.74	0.892
2481.48	0.8907
2490.22	0.889
2498.96	0.887
2507.7	0.8856
2516.44	0.884
2525.18	0.883
2533.93	0.881
2542.67	0.8784
2551.41	0.8748
2560.15	0.8717
2568.89	0.8686
2577.63	0.8608
2586.37	0.8592
2595.11	0.858
2603.85	0.8525
2612.59	0.8453
2621.33	0.8402
2630.08	0.8341
2638.82	0.828
2647.56	0.823
2656.3	0.8189
2665.04	0.8179
2673.78	0.816
2682.52	0.815
2691.26	0.814
2700	0.8138
2708.74	0.813
2717.48	0.811
2726.23	0.8106
2734.97	0.8086
2743.71	0.8076
2752.45	0.8045
2761.19	0.8005
2769.93	0.7949
2778.67	0.7871
2787.41	0.7654
2796.15	0.7335
2804.89	0.6717
2813.63	0.6173
2822.37	0.5523
2831.12	0.384
2839.86	0.2072
2848.6	0.1338
2857.34	0.1448
2866.08	0.1875
2874.82	0.2179
2883.56	0.273
2892.3	0.2404
2901.04	0.1748
2909.78	0.1065
2918.52	0.0445
2927.27	0.0449
2936.01	0.0866
2944.75	0.118
2953.49	0.1824
2962.23	0.3055
2970.97	0.4374
2979.71	0.5575
2988.45	0.6376
2997.19	0.6962
3005.93	0.7366
3014.67	0.7616
3023.42	0.7749
3032.16	0.779
3040.9	0.781
3049.64	0.7803
3058.38	0.7782
3067.12	0.7742
3075.86	0.7691
3084.6	0.7622
3093.34	0.7542
3102.08	0.7451
3110.82	0.735
3119.57	0.7239
3128.31	0.7127
3137.05	0.6997
3145.79	0.6864
3154.53	0.673
3163.27	0.6569
3172.01	0.6407
3180.75	0.6221
3189.49	0.6036
3198.23	0.5824
3206.97	0.5625
3215.72	0.5457
3224.46	0.5291
3233.2	0.5124
3241.94	0.4956
3250.68	0.48
3259.42	0.4638
3268.16	0.4493
3276.9	0.4386
3285.64	0.4315
3294.38	0.4272
3303.12	0.427
3311.87	0.4297
3320.61	0.4339
3329.35	0.4379
3338.09	0.441
3346.83	0.445
3355.57	0.4481
3364.31	0.4522
3373.05	0.4555
3381.79	0.4613
3390.53	0.4696
3399.27	0.4842
3408.02	0.4981
3416.76	0.5106
3425.5	0.5261
3434.24	0.5461
3442.98	0.5749
3451.72	0.5978
3460.46	0.618
3469.2	0.6394
3477.94	0.6581
3486.68	0.6771
3495.42	0.6906
3504.17	0.7018
3512.91	0.7149
3521.65	0.729
3530.39	0.744
3539.13	0.7592
3547.87	0.7734
3556.61	0.7867
3565.35	0.7988
3574.09	0.8099
3582.83	0.8201
3591.57	0.8291
3600.32	0.8352
3609.06	0.8411
3617.8	0.8422
3626.54	0.8454
3635.28	0.8492
3644.02	0.8523
3652.76	0.856
3661.5	0.858
3670.24	0.8594
3678.98	0.86
3687.72	0.861
3696.47	0.8625
3705.21	0.863
3713.95	0.863
3722.69	0.8614
3731.43	0.86
3740.17	0.86
3748.91	0.859
3757.65	0.858
3766.39	0.856
3775.13	0.855
3783.87	0.855
3792.62	0.854
3801.36	0.853
3810.1	0.852
3818.84	0.851
3827.58	0.8509
3836.32	0.85
3845.06	0.849
3853.8	0.848
3862.54	0.847
3871.28	0.8467
3880.02	0.8457
3888.77	0.8427
3897.51	0.841
3906.25	0.841
3914.99	0.841
3923.73	0.841
3932.47	0.842
3941.21	0.8414
3949.95	0.841
3958.69	0.841
3967.43	0.841
3976.17	0.841
3984.92	0.841
3993.66	0.841
