Infrared Spectrum: 1,4,5,8-Naphthalenetetracarboxylic acid
Formula: C14 H8 O8
CAS: 128-97-2
State: SOLID (SPLIT MULL)
Class: COBLENTZ III
Instrument: PERKIN-ELMER 521 (GRATING)
Instrument parameters: FILTERS AT 3150, 2500, 2000, 1150, 700, 410. GRATING CHANGES: 2000, 630
Resolution: 2
Origin: DOW CORNING CORP.
1/CM	TRANSMITTANCE
249	0.8717
258	0.8868
267	0.9007
276	0.9065
285	0.9109
294	0.9154
303	0.9197
312	0.9233
321	0.9204
330	0.9105
339	0.9004
348	0.9252
357	0.9222
366	0.9304
375	0.9263
384	0.9212
393	0.9117
402	0.8608
411	0.7599
420	0.8787
429	0.8662
438	0.8964
447	0.8926
456	0.8965
465	0.9237
474	0.9298
483	0.94
492	0.9411
501	0.9392
510	0.9356
519	0.9305
528	0.9245
537	0.8891
546	0.8453
555	0.9233
564	0.921
573	0.9145
582	0.8802
591	0.8982
600	0.9072
609	0.898
618	0.8599
627	0.8248
636	0.8791
645	0.8756
654	0.9414
663	1.003
672	0.9607
681	0.9105
690	0.9837
699	0.9893
708	0.9811
717	0.9379
726	0.8825
735	0.9495
744	0.8985
753	0.5757
762	0.6881
771	0.8783
780	0.856
789	0.915
798	0.8738
807	0.7335
816	0.7943
825	0.6345
834	0.7699
843	0.7578
852	0.7343
861	0.7393
870	0.793
879	0.8277
888	0.8701
897	0.9219
906	0.9252
915	0.9192
924	0.9122
933	0.9371
942	0.9371
951	0.935
960	0.9184
969	0.8839
978	0.9267
987	0.9333
996	0.9261
1005	0.9119
1014	0.8906
1023	0.8713
1032	0.8308
1041	0.7952
1050	0.7603
1059	0.6341
1068	0.4602
1077	0.6193
1086	0.7967
1095	0.6301
1104	0.871
1113	0.8383
1122	0.7644
1131	0.842
1140	0.807
1149	0.6897
1158	0.3921
1167	0.249
1176	0.7871
1185	0.7937
1194	0.588
1203	0.7752
1212	0.7274
1221	0.4712
1230	0.5112
1239	0.4164
1248	0.3839
1257	0.4871
1266	0.7319
1275	0.7783
1284	0.7568
1293	0.6907
1302	0.7063
1311	0.6365
1320	0.8213
1329	0.817
1338	0.809
1347	0.819
1356	0.8454
1365	0.8371
1374	0.7931
1383	0.727
1392	0.7013
1401	0.7947
1410	0.848
1419	0.848
1428	0.8343
1437	0.7621
1446	0.7806
1455	0.8336
1464	0.8512
1473	0.8475
1482	0.8652
1491	0.8571
1500	0.8469
1509	0.8332
1518	0.7882
1527	0.8277
1536	0.8373
1545	0.8407
1554	0.837
1563	0.843
1572	0.8268
1581	0.8062
1590	0.7914
1599	0.7136
1608	0.8071
1617	0.812
1626	0.8136
1635	0.8109
1644	0.8084
1653	0.8007
1662	0.802
1671	0.7837
1680	0.7488
1689	0.7075
1698	0.6573
1707	0.5978
1716	0.5323
1725	0.3348
1734	0.3317
1743	0.4874
1752	0.491
1761	0.5761
1770	0.7388
1779	0.7912
1788	0.8353
1797	0.8744
1806	0.8835
1815	0.8859
1824	0.8857
1833	0.8851
1842	0.8852
1851	0.8954
1860	0.8956
1869	0.8954
1878	0.8951
1887	0.8943
1896	0.8927
1905	0.8906
1914	0.8864
1923	0.8842
1932	0.8832
1941	0.8827
1950	0.8844
1959	0.887
1968	0.8884
1977	0.8838
1986	0.8835
1995	0.8816
2004	0.8799
2013	0.8791
2022	0.8785
2031	0.8778
2040	0.8774
2049	0.8764
2058	0.8754
2067	0.8744
2076	0.8737
2085	0.873
2094	0.8723
2103	0.8715
2112	0.8706
2121	0.8693
2130	0.8675
2139	0.8658
2148	0.8642
2157	0.8626
2166	0.8609
2175	0.859
2184	0.8571
2193	0.8547
2202	0.8523
2211	0.85
2220	0.848
2229	0.846
2238	0.8442
2247	0.8433
2256	0.8425
2265	0.8416
2274	0.841
2283	0.8403
2292	0.8395
2301	0.8383
2310	0.8371
2319	0.8362
2328	0.8353
2337	0.8345
2346	0.8336
2355	0.8329
2364	0.8323
2373	0.8317
2382	0.8314
2391	0.8311
2400	0.8309
2409	0.8303
2418	0.8296
2427	0.8288
2436	0.8281
2445	0.8251
2454	0.8222
2463	0.8177
2472	0.8151
2481	0.8138
2490	0.8126
2499	0.8114
2508	0.8119
2517	0.8123
2526	0.8125
2535	0.8125
2544	0.8115
2553	0.8105
2562	0.8094
2571	0.8083
2580	0.8066
2589	0.8048
2598	0.8031
2607	0.8002
2616	0.7967
2625	0.7932
2634	0.7924
2643	0.7933
2652	0.7949
2661	0.7968
2670	0.7968
2679	0.7961
2688	0.7955
2697	0.7947
2706	0.7935
2715	0.7922
2724	0.7884
2733	0.7843
2742	0.7812
2751	0.7789
2760	0.7771
2769	0.7759
2778	0.7747
2787	0.7738
2796	0.7732
2805	0.7726
2814	0.7711
2823	0.7678
2832	0.7645
2841	0.76
2850	0.7551
2859	0.7501
2868	0.7449
2877	0.7396
2886	0.7343
2895	0.7284
2904	0.7227
2913	0.7169
2922	0.711
2931	0.705
2940	0.6992
2949	0.6928
2958	0.6863
2967	0.6791
2976	0.6754
2985	0.6771
2994	0.6761
3003	0.6722
3012	0.6659
3021	0.6584
3030	0.651
3039	0.6434
3048	0.6359
3057	0.6281
3066	0.6215
3075	0.6157
3084	0.609
3093	0.6044
3102	0.6072
3111	0.6107
3120	0.6153
3129	0.6204
3138	0.6218
3147	0.6197
3156	0.6237
3165	0.6286
3174	0.6347
3183	0.6418
3192	0.6512
3201	0.6616
3210	0.6737
3219	0.6862
3228	0.6965
3237	0.7086
3246	0.7176
3255	0.7244
3264	0.7311
3273	0.7368
3282	0.7435
3291	0.7511
3300	0.7579
3309	0.758
3318	0.7583
3327	0.759
3336	0.7593
3345	0.7596
3354	0.7601
3363	0.7606
3372	0.7612
3381	0.7614
3390	0.7617
3399	0.7621
3408	0.7626
3417	0.763
3426	0.7635
3435	0.7639
3444	0.7643
3453	0.7647
3462	0.7649
3471	0.7648
3480	0.7647
3489	0.7646
3498	0.7651
3507	0.7656
3516	0.7649
3525	0.7641
3534	0.7636
3543	0.7636
3552	0.7635
3561	0.7638
3570	0.7643
3579	0.7658
3588	0.7677
3597	0.7656
3606	0.7631
3615	0.7632
3624	0.7626
3633	0.7622
3642	0.7643
3651	0.7665
3660	0.7621
3669	0.7725
3678	0.7681
3687	0.7661
3696	0.7696
3705	0.768
3714	0.7706
3723	0.7686
3732	0.7695
3741	0.7643
3750	0.762
3759	0.7626
3768	0.7636
3777	0.7641
3786	0.7642
3795	0.7642
3804	0.7635
3813	0.7601
3822	0.7568
