Infrared Spectrum: SUCCINIMIDE, N-BROMO-
Formula: C4 H4 Br N O2
CAS: 128-08-5
State: SOLID (OIL MULL)
Class: COBLENTZ III
Instrument: BAIRD (GRATING)
Instrument parameters: NaCl PRISM
Sampling: TRANSMISSION
Resolution: 2
Origin: WYANDOTTE CHEMICALS CORP.
1/CM	TRANSMITTANCE
4000	0.5725
3991	0.5736
3982	0.5748
3973	0.5762
3964	0.5777
3955	0.5793
3946	0.5807
3937	0.5823
3928	0.5845
3919	0.5875
3910	0.5905
3901	0.5936
3892	0.5953
3883	0.596
3874	0.597
3865	0.5979
3856	0.5987
3847	0.5994
3838	0.6001
3829	0.6009
3820	0.6017
3811	0.6023
3802	0.6032
3793	0.6048
3784	0.6067
3775	0.6087
3766	0.6106
3757	0.6125
3748	0.6146
3739	0.6168
3730	0.619
3721	0.6212
3712	0.6232
3703	0.6253
3694	0.6274
3685	0.6294
3676	0.6314
3667	0.6318
3658	0.6323
3649	0.6328
3640	0.6333
3631	0.6337
3622	0.6337
3613	0.6337
3604	0.6338
3595	0.6337
3586	0.6332
3577	0.6328
3568	0.6323
3559	0.6319
3550	0.6314
3541	0.6309
3532	0.6301
3523	0.6283
3514	0.6266
3505	0.6248
3496	0.623
3487	0.6212
3478	0.6194
3469	0.6172
3460	0.6136
3451	0.6098
3442	0.6059
3433	0.6012
3424	0.5966
3415	0.5919
3406	0.585
3397	0.5785
3388	0.5769
3379	0.5781
3370	0.5793
3361	0.5805
3352	0.5817
3343	0.5829
3334	0.5839
3325	0.5848
3316	0.5857
3307	0.5866
3298	0.5876
3289	0.5885
3280	0.5899
3271	0.5914
3262	0.5928
3253	0.5942
3244	0.5957
3235	0.5972
3226	0.5986
3217	0.6007
3208	0.6026
3199	0.6046
3190	0.6067
3181	0.6087
3172	0.6108
3163	0.6129
3154	0.615
3145	0.6173
3136	0.6194
3127	0.6216
3118	0.6244
3109	0.6285
3100	0.631
3091	0.6332
3082	0.6341
3073	0.6342
3064	0.6338
3055	0.632
3046	0.6302
3037	0.6262
3028	0.6216
3019	0.6102
3010	0.5951
3001	0.576
2992	0.5335
2983	0.4898
2974	0.4105
2965	0.3307
2956	0.2505
2947	0.1956
2938	0.1789
2929	0.1521
2920	0.1215
2911	0.1201
2902	0.1239
2893	0.1778
2884	0.24
2875	0.3027
2866	0.3359
2857	0.332
2848	0.3068
2839	0.2884
2830	0.4228
2821	0.6291
2812	0.646
2803	0.6597
2794	0.6775
2785	0.6905
2776	0.7025
2767	0.7147
2758	0.7232
2749	0.7292
2740	0.7315
2731	0.7318
2722	0.7321
2713	0.7324
2704	0.7326
2695	0.7336
2686	0.7349
2677	0.7378
2668	0.7411
2659	0.7461
2650	0.7507
2641	0.7545
2632	0.7575
2623	0.7598
2614	0.7619
2605	0.7643
2596	0.7665
2587	0.7689
2578	0.7711
2569	0.7733
2560	0.7751
2551	0.7769
2542	0.7788
2533	0.7808
2524	0.7828
2515	0.785
2506	0.7875
2497	0.7896
2488	0.791
2479	0.79
2470	0.786
2461	0.7797
2452	0.7768
2443	0.7778
2434	0.7871
2425	0.7947
2416	0.8022
2407	0.808
2398	0.8114
2389	0.8136
2380	0.8158
2371	0.8161
2362	0.8156
2353	0.8128
2344	0.8081
2335	0.8061
2326	0.808
2317	0.8108
2308	0.8148
2299	0.8204
2290	0.8286
2281	0.8431
2272	0.8548
2263	0.8599
2254	0.8611
2245	0.8624
2236	0.8637
2227	0.865
2218	0.8663
2209	0.8677
2200	0.8691
2191	0.8706
2182	0.8721
2173	0.8737
2164	0.8759
2155	0.878
2146	0.8801
2137	0.8831
2128	0.8866
2119	0.8901
2110	0.8944
2101	0.899
2092	0.9035
2083	0.9077
2074	0.9101
2065	0.9121
2056	0.9128
2047	0.9124
2038	0.9115
2029	0.9108
2020	0.9107
2011	0.9117
2002	0.9132
1993	0.916
1984	0.9182
1975	0.9153
1966	0.9089
1957	0.9031
1948	0.9018
1939	0.8978
1930	0.8755
1921	0.88
1912	0.8975
1903	0.9192
1894	0.9268
1885	0.9165
1876	0.9151
1867	0.9127
1858	0.9075
1849	0.9031
1840	0.8992
1831	0.8954
1822	0.876
1813	0.7678
1804	0.6812
1795	0.7292
1786	0.7758
1777	0.6335
1768	0.4636
1759	0.6903
1750	0.5458
1741	0.36
1732	0.1725
1723	0.0654
1714	0.03
1705	0.0312
1696	0.0955
1687	0.4192
1678	0.4931
1669	0.5658
1660	0.616
1651	0.6618
1642	0.703
1633	0.7325
1624	0.7496
1615	0.7662
1606	0.7819
1597	0.7965
1588	0.8131
1579	0.8345
1570	0.8563
1561	0.864
1552	0.8648
1543	0.8949
1534	0.9031
1525	0.9115
1516	0.8981
1507	0.8678
1498	0.8718
1489	0.835
1480	0.6625
1471	0.6103
1462	0.6496
1453	0.7256
1444	0.8025
1435	0.6232
1426	0.7844
1417	0.8565
1408	0.8723
1399	0.8733
1390	0.7865
1381	0.713
1372	0.7751
1363	0.8155
1354	0.8202
1345	0.8099
1336	0.4498
1327	0.1182
1318	0.459
1309	0.7417
1300	0.7112
1291	0.8248
1282	0.878
1273	0.9017
1264	0.8928
1255	0.5329
1246	0.7571
1237	0.7987
1228	0.7547
1219	0.7239
1210	0.7065
1201	0.5776
1192	0.2842
1183	0.0659
1174	0.0427
1165	0.1737
1156	0.4924
1147	0.6517
1138	0.6826
1129	0.7299
1120	0.7628
1111	0.7982
1102	0.822
1093	0.8408
1084	0.8559
1075	0.8665
1066	0.8749
1057	0.8824
1048	0.8839
1039	0.8812
1030	0.89
1021	0.8946
1012	0.841
1003	0.8758
994	0.9445
985	0.9668
976	0.975
967	0.976
958	0.9789
949	0.9951
940	0.9952
931	0.8568
922	0.9666
913	0.9875
904	1.0045
895	1.0077
886	1.008
877	1.0078
868	1.0075
859	1.0074
850	1.0071
841	1.0068
832	1.0013
823	0.8903
814	0.6422
805	0.9084
796	1.0018
787	1.007
778	1.0068
769	1.0067
760	1.0066
751	1.0066
742	1.0065
733	1.003
724	0.9921
715	0.9914
706	1.0003
697	0.9916
688	0.9768
679	0.956
670	0.9236
661	0.7647
652	0.5801
643	0.6169
634	0.611
