Infrared Spectrum: ANTHRAQUINONE, 1,4-BIS(4,4'-DITOLUIDINO)-
Formula: C28 H22 N2 O2
CAS: 128-80-3
State: SOLID (1.1 mg / 300 mg KBr DISC)
Melting point: 212 C
Class: COBLENTZ II
Instrument: PERKIN-ELMER 180 (GRATING)
Instrument parameters: GRATINGS: 2000, 1000, 500, 250 CM^-^1; FILTER CHANGE: 2970, 2000, 1485, 1000, 743, 500, 372, 250, 186 CM^-^1.
Sampling: TRANSMISSION
Resolution: 2
Origin: K. K. DEB-NCI FREDERICK CANCER RESEARCH CENTER
1/CM	TRANSMITTANCE
382	0.8076
391	0.808
400	0.81
409	0.8191
418	0.8324
427	0.816
436	0.7922
445	0.8384
454	0.853
463	0.8489
472	0.7119
481	0.8569
490	0.843
499	0.7242
508	0.7084
517	0.8443
526	0.8439
535	0.8256
544	0.7988
553	0.7641
562	0.6658
571	0.7423
580	0.8554
589	0.8577
598	0.849
607	0.8256
616	0.7872
625	0.7917
634	0.7743
643	0.7705
652	0.8288
661	0.8351
670	0.83
679	0.7703
688	0.8637
697	0.8646
706	0.8305
715	0.8084
724	0.3224
733	0.7434
742	0.8433
751	0.8688
760	0.8622
769	0.8684
778	0.8535
787	0.8569
796	0.7731
805	0.7683
814	0.4312
823	0.7148
832	0.816
841	0.8587
850	0.815
859	0.8168
868	0.8826
877	0.882
886	0.794
895	0.8812
904	0.8847
913	0.8667
922	0.8845
931	0.8782
940	0.8703
949	0.8791
958	0.8656
967	0.8329
976	0.844
985	0.8618
994	0.8562
1003	0.8471
1012	0.8309
1021	0.7853
1030	0.5331
1039	0.8227
1048	0.8304
1057	0.8274
1066	0.6933
1075	0.521
1084	0.8159
1093	0.813
1102	0.7902
1111	0.7503
1120	0.7453
1129	0.725
1138	0.6687
1147	0.5302
1156	0.5146
1165	0.2949
1174	0.4276
1183	0.7008
1192	0.809
1201	0.8137
1210	0.747
1219	0.7094
1228	0.6546
1237	0.5392
1246	0.3043
1255	0.2484
1264	0.2088
1273	0.2864
1282	0.364
1291	0.4189
1300	0.3874
1309	0.5819
1318	0.6866
1327	0.7603
1336	0.8016
1345	0.7849
1354	0.6594
1363	0.4486
1372	0.6981
1381	0.7335
1390	0.7629
1399	0.6688
1408	0.7407
1417	0.7504
1426	0.7604
1435	0.7695
1444	0.7584
1453	0.7371
1462	0.7075
1471	0.7527
1480	0.7247
1489	0.666
1498	0.5066
1507	0.2842
1516	0.1016
1525	0.4188
1534	0.6929
1543	0.6719
1552	0.4773
1561	0.1852
1570	0.4245
1579	0.1583
1588	0.3443
1597	0.1714
1606	0.4207
1615	0.5189
1624	0.7337
1633	0.7488
1642	0.7432
1651	0.8001
1660	0.832
1669	0.844
1678	0.8477
1687	0.8474
1696	0.8449
1705	0.8462
1714	0.8487
1723	0.8524
1732	0.8581
1741	0.8639
1750	0.868
1759	0.8701
1768	0.8714
1777	0.871
1786	0.8696
1795	0.8689
1804	0.8705
1813	0.8756
1822	0.8773
1831	0.8763
1840	0.8735
1849	0.8697
1858	0.8658
1867	0.8601
1876	0.8502
1885	0.8623
1894	0.8676
1903	0.8669
1912	0.8653
1921	0.8628
1930	0.8598
1939	0.8577
1948	0.857
1957	0.8599
1966	0.8617
1975	0.8611
1984	0.8658
1993	0.8656
2002	0.8647
2011	0.8641
2020	0.8635
2029	0.8628
2038	0.8621
2047	0.8614
2056	0.8605
2065	0.8596
2074	0.8587
2083	0.8578
2092	0.8569
2101	0.8559
2110	0.8549
2119	0.8539
2128	0.8529
2137	0.8529
2146	0.8531
2155	0.8532
2164	0.8532
2173	0.8523
2182	0.8506
2191	0.8492
2200	0.8489
2209	0.8487
2218	0.8493
2227	0.8499
2236	0.8501
2245	0.8486
2254	0.8471
2263	0.8456
2272	0.8443
2281	0.8429
2290	0.8416
2299	0.8404
2308	0.8394
2317	0.8384
2326	0.8378
2335	0.8372
2344	0.8367
2353	0.836
2362	0.8352
2371	0.8342
2380	0.8332
2389	0.8316
2398	0.8297
2407	0.8277
2416	0.8258
2425	0.8239
2434	0.822
2443	0.8208
2452	0.82
2461	0.8192
2470	0.8182
2479	0.8167
2488	0.8152
2497	0.8136
2506	0.812
2515	0.8104
2524	0.8092
2533	0.8079
2542	0.8067
2551	0.8054
2560	0.8042
2569	0.8032
2578	0.8022
2587	0.8013
2596	0.8007
2605	0.8
2614	0.7998
2623	0.8
2632	0.8003
2641	0.8015
2650	0.8029
2659	0.8031
2668	0.8028
2677	0.8015
2686	0.7999
2695	0.7977
2704	0.7948
2713	0.7919
2722	0.7892
2731	0.7865
2740	0.785
2749	0.7835
2758	0.7828
2767	0.7821
2776	0.7815
2785	0.7807
2794	0.7796
2803	0.778
2812	0.7757
2821	0.7718
2830	0.7666
2839	0.758
2848	0.7454
2857	0.7299
2866	0.73
2875	0.7351
2884	0.7334
2893	0.7249
2902	0.7082
2911	0.6809
2920	0.6781
2929	0.7077
2938	0.7201
2947	0.7239
2956	0.7262
2965	0.7264
2974	0.7196
2983	0.7149
2992	0.7109
3001	0.7036
3010	0.6942
3019	0.6743
3028	0.6819
3037	0.7056
3046	0.6976
3055	0.6928
3064	0.7018
3073	0.7051
3082	0.7242
3091	0.729
3100	0.731
3109	0.7312
3118	0.7322
3127	0.7287
3136	0.73
3145	0.7308
3154	0.7302
3163	0.729
3172	0.7276
3181	0.7265
3190	0.7257
3199	0.7249
3208	0.7241
3217	0.7232
3226	0.7222
3235	0.7211
3244	0.7201
3253	0.719
3262	0.7179
3271	0.7166
3280	0.7153
3289	0.714
3298	0.7127
3307	0.7106
3316	0.7082
3325	0.7058
3334	0.7035
3343	0.6996
3352	0.6953
3361	0.691
3370	0.687
3379	0.6835
3388	0.68
3397	0.6765
3406	0.6741
3415	0.6723
3424	0.6717
3433	0.6713
3442	0.6713
3451	0.6722
3460	0.6731
3469	0.674
3478	0.6749
3487	0.6758
3496	0.6767
3505	0.6777
3514	0.6786
3523	0.6805
3532	0.6826
3541	0.6847
3550	0.6872
3559	0.6901
3568	0.6931
3577	0.696
3586	0.6981
3595	0.7
3604	0.7019
3613	0.7037
3622	0.7046
3631	0.7051
3640	0.7056
3649	0.7059
3658	0.7054
3667	0.7049
3676	0.7044
3685	0.704
3694	0.7036
3703	0.7031
3712	0.7023
3721	0.7013
3730	0.7003
3739	0.6993
3748	0.698
3757	0.6967
3766	0.6954
3775	0.6937
3784	0.6921
