Infrared Spectrum: 4-BROMO-1-METHYLAMINO ANTHRAQUINONE
Formula: C15 H10 Br N O2
CAS: 128-93-8
State: SOLID (NUJOL MULL)
Melting point: 191 C DECOMPOSES
Class: COBLENTZ
Instrument: Not specified, most likely a prism, grating, or hybrid spectrometer.
Sampling: TRANSMISSION
Resolution: 4
Origin: WYANDOTTE CHEMICALS CORP., WYANDOTTE, MICHIGAN, USA
MICROMETERS	TRANSMITTANCE
2.015	0.229
2.05495	0.229
2.09489	0.23
2.13484	0.224
2.17478	0.222
2.21473	0.219
2.25467	0.219
2.29462	0.212
2.33457	0.212
2.37451	0.212
2.41446	0.214
2.4544	0.215
2.49435	0.215
2.53429	0.225
2.57424	0.225
2.61419	0.232
2.65413	0.234
2.69408	0.242
2.73402	0.24
2.77397	0.225
2.81391	0.22
2.85386	0.207
2.89381	0.202
2.93375	0.2
2.9737	0.194
3.01364	0.189
3.05359	0.182
3.09353	0.181
3.13348	0.181
3.17343	0.179
3.21337	0.171
3.25332	0.149
3.29326	0.081
3.33321	0.029
3.37315	0.026
3.4131	0.026
3.45305	0.029
3.49299	0.081
3.53294	0.156
3.57288	0.2
3.61283	0.214
3.65277	0.217
3.69272	0.22
3.73267	0.222
3.77261	0.234
3.81256	0.237
3.8525	0.245
3.89245	0.254
3.93239	0.265
3.97234	0.274
4.01229	0.277
4.05223	0.279
4.09218	0.279
4.13212	0.284
4.17207	0.284
4.21201	0.284
4.25196	0.29
4.29191	0.313
4.33185	0.327
4.3718	0.332
4.41174	0.332
4.45169	0.328
4.49163	0.333
4.53158	0.335
4.57153	0.338
4.61147	0.345
4.65142	0.348
4.69136	0.352
4.73131	0.362
4.77125	0.372
4.8112	0.378
4.85115	0.385
4.89109	0.388
4.93104	0.393
4.97098	0.4
5.01093	0.41
5.05087	0.413
5.09082	0.421
5.13077	0.43
5.17071	0.436
5.21066	0.44
5.2506	0.458
5.29055	0.48
5.33049	0.486
5.37044	0.5
5.41039	0.506
5.45033	0.529
5.49028	0.553
5.53022	0.573
5.57017	0.591
5.61011	0.596
5.65006	0.607
5.69001	0.634
5.72995	0.681
5.7699	0.707
5.80984	0.742
5.84979	0.807
5.88973	0.852
5.92968	0.694
5.96963	0.24
6.00957	0.387
6.04952	0.408
6.08946	0.172
6.12941	0.259
6.16935	0.137
6.2093	0.114
6.24925	0.151
6.28919	0.192
6.32914	0.227
6.36908	0.247
6.40903	0.264
6.44897	0.357
6.48892	0.4
6.52887	0.259
6.56881	0.202
6.60876	0.184
6.6487	0.204
6.68865	0.2
6.72859	0.127
6.76854	0.073
6.80849	0.084
6.84843	0.162
6.88838	0.245
6.92832	0.247
6.96827	0.378
7.00821	0.476
7.04816	0.363
7.08811	0.406
7.12805	0.335
7.168	0.22
7.20794	0.176
7.24789	0.27
7.28783	0.204
7.32778	0.131
7.36773	0.209
7.40767	0.345
7.44762	0.475
7.48756	0.571
7.52751	0.568
7.56745	0.46
7.6074	0.245
7.64735	0.194
7.68729	0.239
7.72724	0.388
7.76718	0.41
7.80713	0.295
7.84707	0.084
7.88702	0.053
7.92697	0.069
7.96691	0.099
8.00686	0.126
8.0468	0.141
8.08675	0.167
8.12669	0.215
8.16664	0.254
8.20659	0.297
8.24653	0.372
8.28648	0.388
8.32642	0.187
8.36637	0.159
8.40631	0.232
8.44626	0.302
8.48621	0.308
8.52615	0.312
8.5661	0.257
8.60604	0.269
8.64599	0.318
8.68593	0.378
8.72588	0.443
8.76583	0.518
8.80577	0.589
8.84572	0.486
8.88566	0.179
8.92561	0.152
8.96555	0.204
9.0055	0.272
9.04545	0.302
9.08539	0.308
9.12534	0.337
9.16528	0.338
9.20523	0.37
9.24517	0.413
9.28512	0.443
9.32507	0.468
9.36501	0.495
9.40496	0.509
9.4449	0.523
9.48485	0.541
9.52479	0.556
9.56474	0.576
9.60469	0.593
9.64463	0.616
9.68458	0.636
9.72452	0.661
9.76447	0.689
9.80441	0.737
9.84436	0.77
9.88431	0.792
9.92425	0.637
9.9642	0.262
10.0041	0.161
10.0441	0.204
10.084	0.28
10.124	0.343
10.1639	0.398
10.2039	0.436
10.2438	0.463
10.2838	0.486
10.3237	0.526
10.3637	0.541
10.4036	0.513
10.4435	0.546
10.4835	0.584
10.5234	0.604
10.5634	0.619
10.6033	0.631
10.6433	0.641
10.6832	0.656
10.7232	0.672
10.7631	0.677
10.8031	0.687
10.843	0.686
10.8829	0.677
10.9229	0.677
10.9628	0.699
11.0028	0.725
11.0427	0.739
11.0827	0.749
11.1226	0.762
11.1626	0.764
11.2025	0.767
11.2425	0.774
11.2824	0.794
11.3224	0.8
11.3623	0.812
11.4022	0.817
11.4422	0.822
11.4821	0.823
11.5221	0.825
11.562	0.815
11.602	0.813
11.6419	0.823
11.6819	0.828
11.7218	0.83
11.7618	0.83
11.8017	0.832
11.8416	0.83
11.8816	0.825
11.9215	0.803
11.9615	0.755
12.0014	0.651
12.0414	0.401
12.0813	0.264
12.1213	0.385
12.1612	0.661
12.2012	0.762
12.2411	0.76
12.281	0.593
12.321	0.602
12.3609	0.72
12.4009	0.729
12.4408	0.614
12.4808	0.451
12.5207	0.446
12.5607	0.554
12.6006	0.529
12.6406	0.372
12.6805	0.491
12.7205	0.754
12.7604	0.803
12.8003	0.82
12.8403	0.838
12.8802	0.853
12.9202	0.858
12.9601	0.862
13.0001	0.863
13.04	0.863
13.08	0.852
13.1199	0.847
13.1599	0.822
13.1998	0.789
13.2397	0.77
13.2797	0.752
13.3196	0.74
13.3596	0.735
13.3995	0.735
13.4395	0.73
13.4794	0.724
13.5194	0.692
13.5593	0.624
13.5993	0.511
13.6392	0.355
13.6791	0.232
13.7191	0.343
13.759	0.568
13.799	0.531
13.8389	0.362
13.8789	0.166
13.9188	0.102
13.9588	0.132
13.9987	0.23
14.0387	0.445
14.0786	0.49
14.1186	0.521
14.1585	0.624
14.1984	0.742
14.2384	0.817
14.2783	0.87
14.3183	0.91
14.3582	0.928
14.3982	0.95
14.4381	0.96
14.4781	0.97
14.518	0.968
14.558	0.95
14.5979	0.893
14.6378	0.81
14.6778	0.692
14.7177	0.601
14.7577	0.559
14.7976	0.558
14.8376	0.581
14.8775	0.624
14.9175	0.654
14.9574	0.664
14.9974	0.651
15.0373	0.616
15.0772	0.612
15.1172	0.629
15.1571	0.652
15.1971	0.661
15.237	0.674
15.277	0.681
15.3169	0.689
15.3569	0.689
15.3968	0.687
15.4368	0.681
15.4767	0.671
15.5167	0.662
15.5566	0.652
15.5965	0.621
15.6365	0.589
15.6764	0.531
15.7164	0.498
15.7563	0.455
15.7963	0.435
15.8362	0.425
15.8762	0.423
15.9161	0.405
15.9561	0.393
15.996	0.38
