Infrared Spectrum: ANTHRARUFIN, 4,8-DINITRO
Formula: C14 H6 N2 O8
CAS: 128-91-6
State: SOLID (PELLET)
Class: COBLENTZ
Instrument: Not specified, most likely a prism, grating, or hybrid spectrometer.
Sampling: TRANSMISSION
Resolution: 4
Origin: TENNESSEE EASTMAN COMPANY, RESEARCH LABORATORIES
MICROMETERS	TRANSMITTANCE
2.013	0.53
2.05292	0.539
2.09284	0.55
2.13276	0.565
2.17268	0.577
2.2126	0.59
2.25252	0.61
2.29244	0.627
2.33236	0.64
2.37228	0.652
2.4122	0.673
2.45212	0.698
2.49204	0.72
2.53196	0.743
2.57188	0.757
2.6118	0.78
2.65172	0.808
2.69164	0.821
2.73156	0.833
2.77148	0.838
2.8114	0.838
2.85132	0.831
2.89124	0.813
2.93116	0.793
2.97108	0.785
3.011	0.782
3.05092	0.767
3.09084	0.742
3.13076	0.713
3.17068	0.685
3.2106	0.648
3.25052	0.48
3.29044	0.627
3.33036	0.655
3.37028	0.702
3.4102	0.712
3.45012	0.747
3.49004	0.772
3.52996	0.806
3.56988	0.811
3.6098	0.82
3.64972	0.818
3.68964	0.818
3.72956	0.83
3.76948	0.833
3.8094	0.836
3.84932	0.843
3.88924	0.843
3.92916	0.855
3.96908	0.861
4.009	0.875
4.04892	0.883
4.08884	0.886
4.12876	0.891
4.16868	0.9
4.2086	0.901
4.24852	0.908
4.28844	0.933
4.32836	0.945
4.36828	0.933
4.4082	0.92
4.44812	0.921
4.48804	0.92
4.52796	0.92
4.56788	0.921
4.6078	0.92
4.64772	0.916
4.68764	0.916
4.72756	0.915
4.76748	0.911
4.8074	0.91
4.84732	0.911
4.88724	0.911
4.92716	0.911
4.96708	0.911
5.007	0.911
5.04692	0.91
5.08684	0.901
5.12676	0.831
5.16668	0.888
5.2066	0.893
5.24652	0.9
5.28644	0.9
5.32636	0.9
5.36628	0.898
5.4062	0.898
5.44612	0.89
5.48604	0.878
5.52595	0.88
5.56587	0.881
5.60579	0.88
5.64571	0.875
5.68563	0.868
5.72555	0.86
5.76547	0.858
5.80539	1.006
5.84531	0.97
5.88523	0.95
5.92515	0.936
5.96507	0.903
6.00499	0.808
6.04491	0.613
6.08483	0.299
6.12475	0.129
6.16467	0.267
6.20459	0.336
6.24451	0.179
6.28443	0.515
6.32435	0.517
6.36427	0.414
6.40419	0.327
6.44411	0.069
6.48403	0.098
6.52395	0.257
6.56387	0.527
6.60379	0.642
6.64371	0.687
6.68363	0.687
6.72355	0.653
6.76347	0.602
6.80339	0.364
6.84331	0.232
6.88323	0.144
6.92315	0.149
6.96307	0.221
7.00299	0.294
7.04291	0.419
7.08283	0.479
7.12275	0.54
7.16267	0.527
7.20259	0.334
7.24251	0.081
7.28243	0.076
7.32235	0.086
7.36227	0.294
7.40219	0.434
7.44211	0.495
7.48203	0.592
7.52195	0.628
7.56187	0.62
7.60179	0.535
7.64171	0.311
7.68163	0.056
7.72155	0.043
7.76147	0.111
7.80139	0.168
7.84131	0.224
7.88123	0.301
7.92115	0.369
7.96107	0.405
8.00099	0.42
8.04091	0.342
8.08083	0.158
8.12075	0.054
8.16067	0.041
8.20059	0.144
8.24051	0.41
8.28043	0.557
8.32035	0.637
8.36027	0.677
8.40019	0.688
8.44011	0.69
8.48003	0.685
8.51995	0.497
8.55987	0.141
8.59979	0.317
8.63971	0.462
8.67963	0.322
8.71955	0.467
8.75947	0.6
8.79939	0.692
8.83931	0.715
8.87923	0.72
8.91915	0.725
8.95907	0.71
8.99899	0.597
9.03891	0.351
9.07883	0.464
9.11875	0.628
9.15867	0.687
9.19859	0.68
9.23851	0.713
9.27843	0.752
9.31835	0.755
9.35827	0.757
9.39819	0.772
9.43811	0.788
9.47803	0.8
9.51795	0.806
9.55787	0.811
9.59779	0.818
9.63771	0.821
9.67763	0.823
9.71755	0.823
9.75747	0.823
9.79739	0.826
9.83731	0.83
9.87723	0.835
9.91715	0.841
9.95707	0.845
9.99699	0.848
10.0369	0.851
10.0768	0.851
10.1167	0.853
10.1567	0.853
10.1966	0.828
10.2365	0.811
10.2764	0.831
10.3163	0.838
10.3563	0.845
10.3962	0.845
10.4361	0.845
10.476	0.843
10.5159	0.843
10.5559	0.843
10.5958	0.838
10.6357	0.785
10.6756	0.747
10.7155	0.801
10.7555	0.833
10.7954	0.846
10.8353	0.851
10.8752	0.853
10.9151	0.856
10.9551	0.86
10.995	0.861
11.0349	0.861
11.0748	0.861
11.1147	0.861
11.1547	0.861
11.1946	0.863
11.2345	0.863
11.2744	0.865
11.3143	0.865
11.3543	0.865
11.3942	0.865
11.4341	0.865
11.474	0.861
11.5139	0.833
11.5539	0.752
11.5938	0.55
11.6337	0.302
11.6736	0.252
11.7135	0.386
11.7535	0.425
11.7934	0.435
11.8333	0.529
11.8732	0.64
11.9131	0.723
11.9531	0.753
11.993	0.778
12.0329	0.81
12.0728	0.823
12.1127	0.83
12.1527	0.831
12.1926	0.831
12.2325	0.831
12.2724	0.831
12.3123	0.828
12.3523	0.82
12.3922	0.813
12.4321	0.797
12.472	0.78
12.5119	0.755
12.5519	0.74
12.5918	0.693
12.6317	0.642
12.6716	0.52
12.7115	0.349
12.7515	0.217
12.7914	0.231
12.8313	0.394
12.8712	0.55
12.9111	0.702
12.9511	0.758
12.991	0.782
13.0309	0.785
13.0708	0.778
13.1107	0.753
13.1507	0.748
13.1906	0.747
13.2305	0.74
13.2704	0.715
13.3103	0.68
13.3503	0.652
13.3902	0.63
13.4301	0.603
13.47	0.579
13.5099	0.55
13.5499	0.535
13.5898	0.515
13.6297	0.502
13.6696	0.505
13.7095	0.514
13.7495	0.537
13.7894	0.554
13.8293	0.564
13.8692	0.572
13.9091	0.585
13.9491	0.602
13.989	0.613
14.0289	0.623
14.0688	0.632
14.1087	0.647
14.1487	0.655
14.1886	0.662
14.2285	0.67
14.2684	0.677
14.3083	0.683
14.3483	0.69
14.3882	0.697
14.4281	0.7
14.468	0.702
14.5079	0.702
14.5479	0.702
14.5878	0.703
14.6277	0.703
14.6676	0.703
14.7075	0.703
14.7475	0.703
14.7874	0.703
14.8273	0.703
14.8672	0.7
14.9071	0.683
14.9471	0.663
14.987	0.613
15.0269	0.53
15.0668	0.469
15.1067	0.427
15.1467	0.427
15.1866	0.445
15.2265	0.51
15.2664	0.55
15.3063	0.57
15.3463	0.585
15.3862	0.592
15.4261	0.594
15.466	0.594
15.5059	0.594
15.5459	0.594
15.5858	0.592
15.6257	0.592
15.6656	0.592
15.7055	0.587
15.7455	0.579
15.7854	0.572
15.8253	0.569
15.8652	0.562
15.9051	0.555
15.9451	0.552
15.985	0.55
16.0249	0.55
