Infrared Spectrum: 2,6-Di-t-butyl-p-cresol
Formula: C 15 H 24 O
CAS: 128-37-0
State: gas
Instrument: HP-GC/MS/IRD
Origin: NIST Mass Spectrometry Data Center
1/CM	ABSORBANCE
550	0.0013065
562	0.0017487
574	0.0032763
586	0.0014673
598	0.0009447
610	0.00201
622	0.0040401
634	0.0013869
646	0.0003417
658	0.0001005
670	0
682	6.03e-05
694	0.0001005
706	0.0002211
718	0.000402
730	0.0005628
742	0.0015879
754	0.0058491
766	0.0165021
778	0.0126429
790	0.0024924
802	0.0024522
814	0.0016281
826	0.0006633
838	0.0016683
850	0.0100902
862	0.0146328
874	0.0073365
886	0.0079395
898	0.003015
910	0.0019899
922	0.0029145
934	0.0036381
946	0.0025527
958	0.0016482
970	0.0017487
982	0.0025326
994	0.0033165
1006	0.0034974
1018	0.0044019
1030	0.0039597
1042	0.0027738
1054	0.0027537
1066	0.0024522
1078	0.0023115
1090	0.0028743
1102	0.0051255
1114	0.013266
1126	0.0140901
1138	0.0157182
1150	0.0338082
1162	0.053064
1174	0.0392151
1186	0.031758
1198	0.0336675
1210	0.0418683
1222	0.050652
1234	0.0508128
1246	0.0453657
1258	0.0325017
1270	0.0157182
1282	0.0102309
1294	0.0132258
1306	0.0216678
1318	0.017286
1330	0.0087033
1342	0.0073767
1354	0.0133866
1366	0.0340695
1378	0.0253461
1390	0.0255672
1402	0.0325419
1414	0.0304917
1426	0.056079
1438	0.0748926
1450	0.0570438
1462	0.031356
1474	0.0280596
1486	0.0258084
1498	0.0121404
1510	0.0070953
1522	0.0052662
1534	0.0039798
1546	0.0033165
1558	0.0026733
1570	0.0022914
1582	0.0025929
1594	0.003819
1606	0.0037386
1618	0.0018894
1630	0.0014673
1642	0.0013869
1654	0.0012663
1666	0.0008844
1678	0.0007638
1690	0.0007437
1702	0.0008241
1714	0.0011055
1726	0.0020703
1738	0.0043416
1750	0.0030753
1762	0.0014271
1774	0.0013467
1786	0.0008442
1798	0.0005427
1810	0.0004221
1822	0.0003216
1834	0.0002814
1846	0.0002613
1858	0.0002412
1870	0.0002613
1882	0.0003819
1894	0.0004623
1906	0.0004221
1918	0.0004221
1930	0.0005025
1942	0.0004824
1954	0.0003819
1966	0.0004221
1978	0.0005427
1990	0.0005628
2002	0.0004824
2014	0.0003015
2026	0.0002412
2038	0.000201
2050	0.0001608
2062	8.04e-05
2074	6.03e-05
2086	2.01e-05
2098	0
2110	8.04e-05
2122	0.0001206
2134	0.0001407
2146	0.000201
2158	0.000201
2170	0.0002814
2182	0.0002211
2194	0.0001407
2206	0.0001608
2218	0.0001206
2230	6.03e-05
2242	0.0001005
2254	4.02e-05
2266	2.01e-05
2278	0.0001407
2290	0.0003216
2302	0.0003417
2314	0.0003819
2326	0.0003417
2338	0.0001809
2350	0.0002613
2362	0.0003618
2374	0.0005829
2386	0.0007839
2398	0.0007638
2410	0.0007035
2422	0.0006231
2434	0.0005628
2446	0.0005628
2458	0.0005628
2470	0.0004824
2482	0.0003618
2494	0.0003216
2506	0.0002814
2518	0.0003015
2530	0.0003216
2542	0.0004422
2554	0.0006633
2566	0.0006432
2578	0.0005829
2590	0.0005025
2602	0.0004824
2614	0.0005628
2626	0.0005829
2638	0.000603
2650	0.0008442
2662	0.0008844
2674	0.0008844
2686	0.0009849
2698	0.0011658
2710	0.0016683
2722	0.0025728
2734	0.0031155
2746	0.0033969
2758	0.0028743
2770	0.0027738
2782	0.0034572
2794	0.0041808
2806	0.005025
2818	0.0067737
2830	0.0087636
2842	0.0122007
2854	0.0207633
2866	0.0444009
2878	0.0728223
2890	0.073767
2902	0.0734655
2914	0.0943695
2926	0.112942
2938	0.106369
2950	0.130228
2962	0.189322
2974	0.184297
2986	0.0825708
2998	0.0435969
3010	0.0338283
3022	0.0203412
3034	0.0139695
3046	0.011658
3058	0.0121203
3070	0.0158187
3082	0.0143715
3094	0.0073164
3106	0.0044019
3118	0.0033366
3130	0.0027537
3142	0.002412
3154	0.0022512
3166	0.0020502
3178	0.0018894
3190	0.0017085
3202	0.0015075
3214	0.0013266
3226	0.0010653
3238	0.0009246
3250	0.0007638
3262	0.0006633
3274	0.0007035
3286	0.0007035
3298	0.0007437
3310	0.0006834
3322	0.0005226
3334	0.0003618
3346	0.0002814
3358	0.0002412
3370	0.0003819
3382	0.0003618
3394	0.000402
3406	0.0004824
3418	0.0006432
3430	0.0006432
3442	0.0005427
3454	0.0003618
3466	0.0001206
3478	0.0001407
3490	8.04e-05
3502	4.02e-05
3514	2.01e-05
3526	0.0001206
3538	0.0001206
3550	0.0001005
3562	0.0001206
3574	0.000402
3586	0.0007236
3598	0.0012462
3610	0.0021708
3622	0.0037587
3634	0.0074973
3646	0.01809
3658	0.0479385
3670	0.0693249
3682	0.0372453
3694	0.0148941
3706	0.0064722
3718	0.0033567
3730	0.0018894
3742	0.0010653
3754	0.0005829
3766	0.0003216
3778	0.0002613
3790	0.0002613
3802	0.0004824
3814	0.0004422
3826	0.0005025
3838	0.0005628
