Infrared Spectrum: SUCCINIMIDE, N-CHLORO-
Formula: C4 H4 Cl N O2
CAS: 128-09-6
State: SOLID (MINERAL OIL MULL)
Class: COBLENTZ III
Instrument: PERKIN-ELMER 521 (GRATING)
Instrument parameters: FILTERS AT 3150, 2500, 2000, 1150, 700, 410; GRATING CHANGES AT 2000, 630 CM^-^1
Sampling: TRANSMISSION
Resolution: 4
Origin: DOW CORNING CORP.
1/CM	TRANSMITTANCE
247.57	0.752
256.777	0.8128
265.984	0.835
275.192	0.87
284.399	0.901
293.606	0.919
302.813	0.944
312.02	0.943
321.227	0.924
330.435	0.798
339.642	0.941
348.849	0.984
358.056	0.995
367.263	1.001
376.471	1.002
385.678	1.001
394.885	1.001
404.092	0.998
413.299	0.993
422.506	0.983
431.714	0.997
440.921	1.002
450.128	0.994
459.335	0.988
468.542	0.987
477.75	0.986
486.957	0.986
496.164	0.986
505.371	0.984
514.578	0.977
523.786	0.954
532.993	0.966
542.2	0.904
551.407	0.917
560.614	0.921
569.821	0.8679
579.029	0.953
588.236	0.947
597.443	0.939
606.65	0.928
615.857	0.9
625.065	0.747
634.272	0.6491
643.479	0.527
652.686	0.3989
661.893	0.6859
671.1	0.842
680.308	0.904
689.515	0.91
698.722	0.917
707.929	0.919
717.136	0.903
726.344	0.918
735.551	0.943
744.758	0.947
753.965	0.948
763.172	0.946
772.379	0.943
781.587	0.94
790.794	0.918
800.001	0.881
809.208	0.7621
818.415	0.667
827.623	0.9099
836.83	0.932
846.037	0.936
855.244	0.941
864.451	0.941
873.659	0.939
882.866	0.936
892.073	0.893
901.28	0.932
910.487	0.928
919.694	0.928
928.902	0.915
938.109	0.906
947.316	0.892
956.523	0.722
965.73	0.886
974.938	0.908
984.145	0.904
993.352	0.893
1002.56	0.8561
1011.77	0.9
1020.97	0.9
1030.18	0.9
1039.39	0.89
1048.6	0.889
1057.8	0.879
1067.01	0.868
1076.22	0.857
1085.42	0.843
1094.63	0.834
1103.84	0.817
1113.05	0.79
1122.25	0.74
1131.46	0.662
1140.67	0.546
1149.87	0.276
1159.08	0.11
1168.29	0.136
1177.5	0.2449
1186.7	0.4649
1195.91	0.6829
1205.12	0.794
1214.32	0.796
1223.53	0.762
1232.74	0.78
1241.95	0.676
1251.15	0.755
1260.36	0.861
1269.57	0.859
1278.77	0.832
1287.98	0.776
1297.19	0.697
1306.4	0.675
1315.6	0.558
1324.81	0.298
1334.02	0.679
1343.22	0.787
1352.43	0.817
1361.64	0.759
1370.85	0.69
1380.05	0.7739
1389.26	0.857
1398.47	0.859
1407.68	0.853
1416.88	0.765
1426.09	0.69
1435.3	0.777
1444.5	0.676
1453.71	0.592
1462.92	0.607
1472.13	0.806
1481.33	0.85
1490.54	0.85
1499.75	0.848
1508.95	0.856
1518.16	0.857
1527.37	0.856
1536.58	0.853
1545.78	0.821
1554.99	0.85
1564.2	0.852
1573.4	0.848
1582.61	0.842
1591.82	0.835
1601.03	0.825
1610.23	0.816
1619.44	0.798
1628.65	0.777
1637.85	0.748
1647.06	0.729
1656.27	0.69
1665.48	0.651
1674.68	0.582
1683.89	0.469
1693.1	0.338
1702.31	0.178
1711.51	0.046
1720.72	0.052
1729.93	0.075
1739.13	0.1599
1748.34	0.316
1757.55	0.53
1766.76	0.618
1775.96	0.632
1785.17	0.69
1794.38	0.752
1803.58	0.729
1812.79	0.697
1822	0.7359
1831.21	0.837
1840.41	0.867
1849.62	0.877
1858.83	0.882
1868.03	0.886
1877.24	0.889
1886.45	0.892
1895.66	0.892
1904.86	0.892
1914.07	0.889
1923.28	0.888
1932.48	0.892
1941.69	0.89
1950.9	0.885
1960.11	0.882
1969.31	0.874
1978.52	0.861
1987.73	0.872
1996.93	0.903
2006.14	0.933
2015.35	0.935
2024.56	0.933
2033.76	0.9342
2042.97	0.935
2052.18	0.9357
2061.39	0.936
2070.59	0.937
2079.8	0.9368
2089.01	0.935
2098.21	0.935
2107.42	0.9333
2116.63	0.933
2125.84	0.9332
2135.04	0.932
2144.25	0.932
2153.46	0.932
2162.66	0.932
2171.87	0.9309
2181.08	0.928
2190.29	0.926
2199.49	0.9278
2208.7	0.925
2217.91	0.924
2227.11	0.9196
2236.32	0.9178
2245.53	0.917
2254.74	0.9196
2263.94	0.9194
2273.15	0.9186
2282.36	0.917
2291.56	0.915
2300.77	0.917
2309.98	0.918
2319.19	0.919
2328.39	0.921
2337.6	0.919
2346.81	0.918
2356.02	0.9149
2365.22	0.9074
2374.43	0.9038
2383.64	0.903
2392.84	0.9
2402.05	0.899
2411.26	0.897
2420.47	0.897
2429.67	0.8967
2438.88	0.896
2448.09	0.895
2457.29	0.892
2466.5	0.8775
2475.71	0.879
2484.92	0.8855
2494.12	0.8901
2503.33	0.895
2512.54	0.89
2521.74	0.8894
2530.95	0.8888
2540.16	0.888
2549.37	0.885
2558.57	0.883
2567.78	0.883
2576.99	0.883
2586.19	0.883
2595.4	0.882
2604.61	0.881
2613.82	0.881
2623.02	0.8767
2632.23	0.874
2641.44	0.873
2650.65	0.872
2659.85	0.8704
2669.06	0.866
2678.27	0.868
2687.47	0.871
2696.68	0.8687
2705.89	0.864
2715.1	0.86
2724.3	0.861
2733.51	0.863
2742.72	0.864
2751.92	0.863
2761.13	0.859
2770.34	0.856
2779.55	0.8503
2788.75	0.838
2797.96	0.827
2807.17	0.8059
2816.37	0.7853
2825.58	0.7456
2834.79	0.6235
2844	0.4125
2853.2	0.2697
2862.41	0.3286
2871.62	0.3559
2880.82	0.4167
2890.03	0.3616
2899.24	0.2757
2908.45	0.1707
2917.65	0.1057
2926.86	0.0841
2936.07	0.1659
2945.27	0.1958
2954.48	0.1795
2963.69	0.2942
2972.9	0.4129
2982.1	0.6147
2991.31	0.6796
3000.52	0.7044
3009.73	0.7546
3018.93	0.7707
3028.14	0.7824
3037.35	0.7912
3046.55	0.794
3055.76	0.7953
3064.97	0.798
3074.18	0.799
3083.38	0.799
3092.59	0.799
3101.8	0.799
3111	0.7985
3120.21	0.798
3129.42	0.796
3138.63	0.794
3147.83	0.792
3157.04	0.791
3166.25	0.791
3175.45	0.7912
3184.66	0.7934
3193.87	0.7942
3203.08	0.795
3212.28	0.796
3221.49	0.796
3230.7	0.796
3239.9	0.798
3249.11	0.798
3258.32	0.798
3267.53	0.798
3276.73	0.798
3285.94	0.797
3295.15	0.796
3304.36	0.796
3313.56	0.795
3322.77	0.795
3331.98	0.795
3341.18	0.7943
3350.39	0.794
3359.6	0.794
3368.81	0.792
3378.01	0.792
3387.22	0.791
3396.43	0.791
3405.63	0.792
3414.84	0.791
3424.05	0.7875
3433.26	0.785
3442.46	0.785
3451.67	0.784
3460.88	0.7819
3470.08	0.7717
3479.29	0.7511
3488.5	0.7556
3497.71	0.7757
3506.91	0.7886
3516.12	0.7935
3525.33	0.792
3534.53	0.7924
3543.74	0.7926
3552.95	0.795
3562.16	0.7954
3571.36	0.7942
3580.57	0.792
3589.78	0.795
3598.98	0.795
3608.19	0.796
3617.4	0.7969
3626.61	0.795
3635.81	0.796
3645.02	0.796
3654.23	0.796
3663.44	0.796
3672.64	0.796
3681.85	0.796
3691.06	0.795
3700.26	0.795
3709.47	0.7942
3718.68	0.794
3727.89	0.794
3737.09	0.794
3746.3	0.794
3755.51	0.792
3764.71	0.791
3773.92	0.791
3783.13	0.7921
3792.34	0.794
