Infrared Spectrum: NARCOTINE ALKALOID
Formula: C22 H23 N O7
CAS: 128-62-1
State: SOLID (1.6 mg / 250 mg KBr DISC)
Melting point: 176 C
Class: COBLENTZ III
Instrument: PERKIN-ELMER 21 (GRATING)
Instrument parameters: FILTER AT ABOUT 10 MICRONS
Sampling: TRANSMISSION
Resolution: 2
Origin: BUREAU OF CUSTOMS
1/CM	TRANSMITTANCE
4000	0.8963
3991	0.8963
3982	0.8964
3973	0.8965
3964	0.8965
3955	0.8966
3946	0.8966
3937	0.8966
3928	0.8967
3919	0.8967
3910	0.8967
3901	0.8966
3892	0.8966
3883	0.8966
3874	0.8966
3865	0.8971
3856	0.8975
3847	0.898
3838	0.8988
3829	0.9
3820	0.9013
3811	0.9031
3802	0.9052
3793	0.9071
3784	0.9073
3775	0.9073
3766	0.9067
3757	0.906
3748	0.9052
3739	0.904
3730	0.9027
3721	0.9006
3712	0.8984
3703	0.8964
3694	0.8943
3685	0.8923
3676	0.8903
3667	0.8883
3658	0.8857
3649	0.883
3640	0.8803
3631	0.8774
3622	0.8739
3613	0.8703
3604	0.8667
3595	0.8627
3586	0.8575
3577	0.8525
3568	0.8474
3559	0.8423
3550	0.8371
3541	0.8309
3532	0.8228
3523	0.816
3514	0.8111
3505	0.8068
3496	0.8037
3487	0.8017
3478	0.7999
3469	0.7991
3460	0.7986
3451	0.7982
3442	0.7978
3433	0.7975
3424	0.8003
3415	0.8048
3406	0.8091
3397	0.8135
3388	0.8185
3379	0.8238
3370	0.8291
3361	0.8344
3352	0.8397
3343	0.845
3334	0.8496
3325	0.853
3316	0.8563
3307	0.8597
3298	0.863
3289	0.8654
3280	0.8678
3271	0.8701
3262	0.8725
3253	0.8749
3244	0.8768
3235	0.8788
3226	0.8806
3217	0.8825
3208	0.8841
3199	0.8856
3190	0.8871
3181	0.8878
3172	0.8885
3163	0.8892
3154	0.8894
3145	0.8894
3136	0.8895
3127	0.8895
3118	0.8891
3109	0.8881
3100	0.885
3091	0.8791
3082	0.8761
3073	0.8766
3064	0.8768
3055	0.8758
3046	0.8689
3037	0.8398
3028	0.8075
3019	0.7751
3010	0.7595
3001	0.7565
2992	0.7385
2983	0.6983
2974	0.6578
2965	0.6303
2956	0.6303
2947	0.64
2938	0.6599
2929	0.6811
2920	0.6834
2911	0.6832
2902	0.6826
2893	0.6851
2884	0.695
2875	0.6987
2866	0.6987
2857	0.7092
2848	0.7396
2839	0.7535
2830	0.7219
2821	0.6949
2812	0.701
2803	0.7325
2794	0.7644
2785	0.7965
2776	0.8288
2767	0.8439
2758	0.8527
2749	0.8633
2740	0.8728
2731	0.8755
2722	0.8757
2713	0.8758
2704	0.8786
2695	0.883
2686	0.8873
2677	0.8915
2668	0.8955
2659	0.8993
2650	0.9028
2641	0.9066
2632	0.9097
2623	0.9118
2614	0.9133
2605	0.9128
2596	0.9114
2587	0.9104
2578	0.9096
2569	0.9099
2560	0.9102
2551	0.9113
2542	0.9124
2533	0.9135
2524	0.9148
2515	0.916
2506	0.9171
2497	0.9184
2488	0.9197
2479	0.921
2470	0.9221
2461	0.9228
2452	0.9239
2443	0.9248
2434	0.9258
2425	0.9267
2416	0.9275
2407	0.9282
2398	0.9273
2389	0.9188
2380	0.9131
2371	0.9098
2362	0.9068
2353	0.905
2344	0.9059
2335	0.9102
2326	0.9159
2317	0.9228
2308	0.9271
2299	0.9288
2290	0.9296
2281	0.9303
2272	0.9312
2263	0.9331
2254	0.9348
2245	0.9362
2236	0.9366
2227	0.9358
2218	0.9343
2209	0.9327
2200	0.9312
2191	0.9302
2182	0.9298
2173	0.93
2164	0.9345
2155	0.9385
2146	0.9398
2137	0.9409
2128	0.9408
2119	0.94
2110	0.9387
2101	0.9363
2092	0.9344
2083	0.9328
2074	0.9324
2065	0.9328
2056	0.9333
2047	0.9348
2038	0.9352
2029	0.9334
2020	0.9323
2011	0.9312
2002	0.9312
1993	0.9313
1984	0.9309
1975	0.9305
1966	0.9307
1957	0.9315
1948	0.9338
1939	0.9356
1930	0.9373
1921	0.9382
1912	0.9385
1903	0.9377
1894	0.9286
1885	0.9232
1876	0.9247
1867	0.9271
1858	0.9271
1849	0.9228
1840	0.9135
1831	0.8999
1822	0.8759
1813	0.8171
1804	0.7376
1795	0.5527
1786	0.3596
1777	0.1644
1768	0.1365
1759	0.4968
1750	0.7101
1741	0.7765
1732	0.7856
1723	0.8107
1714	0.8351
1705	0.8523
1696	0.8625
1687	0.8675
1678	0.8675
1669	0.863
1660	0.8438
1651	0.7928
1642	0.6411
1633	0.6215
1624	0.7282
1615	0.7535
1606	0.8068
1597	0.8536
1588	0.8686
1579	0.8735
1570	0.8728
1561	0.866
1552	0.8563
1543	0.8375
1534	0.7649
1525	0.6055
1516	0.2462
1507	0.3509
1498	0.4342
1489	0.317
1480	0.4829
1471	0.4574
1462	0.5536
1453	0.6457
1444	0.5853
1435	0.5794
1426	0.7465
1417	0.7068
1408	0.6708
1399	0.5348
1390	0.5993
1381	0.6812
1372	0.5698
1363	0.7157
1354	0.7653
1345	0.7805
1336	0.7011
1327	0.6628
1318	0.5047
1309	0.6286
1300	0.5609
1291	0.2705
1282	0.1812
1273	0.3227
1264	0.3826
1255	0.643
1246	0.7198
1237	0.6465
1228	0.5547
1219	0.6083
1210	0.552
1201	0.6038
1192	0.6812
1183	0.7415
1174	0.7491
1165	0.8101
1156	0.8314
1147	0.8131
1138	0.7731
1129	0.6242
1120	0.558
1111	0.6991
1102	0.4869
1093	0.3575
1084	0.4702
1075	0.6468
1066	0.5012
1057	0.5181
1048	0.2825
1039	0.209
1030	0.4273
1021	0.4647
1012	0.2424
1003	0.4108
994	0.6599
985	0.5886
976	0.6685
967	0.7507
958	0.8138
949	0.781
940	0.6424
931	0.7461
922	0.8244
913	0.8448
904	0.7243
895	0.7969
886	0.7315
877	0.8462
868	0.831
859	0.8354
850	0.7668
841	0.7842
832	0.8482
823	0.8378
814	0.7181
805	0.8018
796	0.7707
787	0.7405
778	0.8571
769	0.8493
760	0.8401
751	0.825
742	0.8439
733	0.7928
724	0.7756
715	0.768
706	0.7878
697	0.7511
688	0.808
679	0.8039
670	0.7918
661	0.7957
652	0.7848
