Infrared Spectrum: 3Beta-HYDROXY-5Beta-PREGNAN-20-ONE
Formula: C21 H34 O2
CAS: 128-21-2
State: SOLID (KBr DISC)
Class: COBLENTZ III
Instrument: BECKMAN IR-7
Sampling: TRANSMISSION
Resolution: 4
Origin: THE WORCESTER FOUNDATION FOR EXPERIMENTAL BIOLOGY, Neal L. McNiven
1/CM	TRANSMITTANCE
598.54	0.434
607.299	0.423
616.058	0.456
624.817	0.509
633.577	0.553
642.336	0.592
651.095	0.638
659.854	0.644
668.613	0.6361
677.372	0.677
686.131	0.721
694.89	0.76
703.65	0.757
712.409	0.76
721.168	0.759
729.927	0.78
738.686	0.793
747.445	0.825
756.204	0.847
764.963	0.856
773.723	0.886
782.482	0.873
791.241	0.85
800	0.886
808.759	0.872
817.518	0.883
826.277	0.838
835.036	0.855
843.796	0.812
852.555	0.902
861.314	0.901
870.073	0.871
878.832	0.75
887.591	0.792
896.35	0.838
905.109	0.758
913.869	0.802
922.628	0.808
931.387	0.802
940.146	0.7371
948.905	0.649
957.664	0.613
966.423	0.624
975.182	0.65
983.942	0.632
992.701	0.632
1001.46	0.604
1010.22	0.604
1018.98	0.544
1027.74	0.3292
1036.5	0.318
1045.26	0.4899
1054.01	0.541
1062.77	0.57
1071.53	0.565
1080.29	0.573
1089.05	0.595
1097.81	0.57
1106.57	0.584
1115.33	0.573
1124.09	0.582
1132.85	0.61
1141.61	0.581
1150.36	0.505
1159.12	0.475
1167.88	0.492
1176.64	0.548
1185.4	0.573
1194.16	0.552
1202.92	0.666
1211.68	0.596
1220.44	0.647
1229.2	0.513
1237.96	0.552
1246.72	0.647
1255.47	0.663
1264.23	0.67
1272.99	0.662
1281.75	0.64
1290.51	0.649
1299.27	0.67
1308.03	0.645
1316.79	0.582
1325.55	0.62
1334.31	0.521
1343.07	0.498
1351.82	0.372
1360.58	0.445
1369.34	0.5091
1378.1	0.467
1386.86	0.554
1395.62	0.642
1404.38	0.624
1413.14	0.572
1421.9	0.534
1430.66	0.499
1439.42	0.46
1448.18	0.39
1456.93	0.567
1465.69	0.564
1474.45	0.671
1483.21	0.785
1491.97	0.816
1500.73	0.823
1509.49	0.835
1518.25	0.844
1527.01	0.859
1535.77	0.861
1544.53	0.872
1553.28	0.869
1562.04	0.868
1570.8	0.864
1579.56	0.844
1588.32	0.834
1597.08	0.825
1605.84	0.816
1614.6	0.792
1623.36	0.78
1632.12	0.775
1640.88	0.773
1649.64	0.773
1658.39	0.77
1667.15	0.762
1675.91	0.731
1684.67	0.5811
1693.43	0.304
1702.19	0.17
1710.95	0.6159
1719.71	0.778
1728.47	0.788
1737.23	0.807
1745.99	0.832
1754.74	0.869
1763.5	0.883
1772.26	0.901
1781.02	0.908
1789.78	0.913
1798.54	0.922
1807.3	0.925
1816.06	0.925
1824.82	0.924
1833.58	0.923
1842.34	0.925
1851.1	0.926
1859.85	0.928
1868.61	0.93
1877.37	0.93
1886.13	0.93
1894.89	0.929
1903.65	0.928
1912.41	0.925
1921.17	0.925
1929.93	0.925
1938.69	0.923
1947.45	0.922
1956.2	0.92
1964.96	0.92
1973.72	0.92
1982.48	0.92
1991.24	0.92
2000	0.92
2008.76	0.92
2017.52	0.919
2026.28	0.919
2035.04	0.9189
2043.8	0.918
2052.55	0.917
2061.31	0.917
2070.07	0.917
2078.83	0.917
2087.59	0.917
2096.35	0.916
2105.11	0.916
2113.87	0.915
2122.63	0.915
2131.39	0.914
2140.15	0.914
2148.91	0.914
2157.66	0.913
2166.42	0.912
2175.18	0.911
2183.94	0.909
2192.7	0.9082
2201.46	0.9061
2210.22	0.904
2218.98	0.9011
2227.74	0.9
2236.5	0.899
2245.26	0.898
2254.01	0.8969
2262.77	0.895
2271.53	0.895
2280.29	0.8948
2289.05	0.8937
2297.81	0.893
2306.57	0.8927
2315.33	0.892
2324.09	0.892
2332.85	0.8906
2341.61	0.89
2350.37	0.8885
2359.12	0.888
2367.88	0.887
2376.64	0.885
2385.4	0.8843
2394.16	0.8823
2402.92	0.882
2411.68	0.8802
2420.44	0.8792
2429.2	0.878
2437.96	0.8761
2446.72	0.8741
2455.47	0.873
2464.23	0.87
2472.99	0.8679
2481.75	0.8659
2490.51	0.864
2499.27	0.8636
2508.03	0.8598
2516.79	0.856
2525.55	0.8527
2534.31	0.8487
2543.07	0.8456
2551.83	0.8446
2560.58	0.8416
2569.34	0.8395
2578.1	0.837
2586.86	0.834
2595.62	0.8324
2604.38	0.8304
2613.14	0.8283
2621.9	0.8263
2630.66	0.8243
2639.42	0.8098
2648.18	0.8003
2656.93	0.7963
2665.69	0.794
2674.45	0.792
2683.21	0.79
2691.97	0.789
2700.73	0.7889
2709.49	0.7879
2718.25	0.7869
2727.01	0.786
2735.77	0.785
2744.53	0.784
2753.28	0.7837
2762.04	0.7813
2770.8	0.7763
2779.56	0.7722
2788.32	0.7636
2797.08	0.7298
2805.84	0.6882
2814.6	0.641
2823.36	0.5925
2832.12	0.5075
2840.88	0.3446
2849.64	0.2423
2858.39	0.2153
2867.15	0.209
2875.91	0.2281
2884.67	0.232
2893.43	0.1729
2902.19	0.1215
2910.95	0.0774
2919.71	0.059
2928.47	0.0914
2937.23	0.1692
2945.99	0.2244
2954.74	0.2542
2963.5	0.3538
2972.26	0.4465
2981.02	0.544
2989.78	0.5782
2998.54	0.6234
3007.3	0.6742
3016.06	0.7029
3024.82	0.7179
3033.58	0.728
3042.34	0.733
3051.1	0.733
3059.85	0.733
3068.61	0.7303
3077.37	0.7229
3086.13	0.7145
3094.89	0.7066
3103.65	0.7012
3112.41	0.6971
3121.17	0.6894
3129.93	0.6792
3138.69	0.6691
3147.45	0.659
3156.2	0.6488
3164.96	0.6365
3173.72	0.6224
3182.48	0.6055
3191.24	0.594
3200	0.5776
3208.76	0.559
3217.52	0.5401
3226.28	0.5236
3235.04	0.5128
3243.8	0.4994
3252.56	0.4693
3261.31	0.447
3270.07	0.4287
3278.83	0.4079
3287.59	0.3785
3296.35	0.3703
3305.11	0.3532
3313.87	0.341
3322.63	0.3315
3331.39	0.3175
3340.15	0.3103
3348.91	0.3042
3357.66	0.3001
3366.42	0.298
3375.18	0.3
3383.94	0.3054
3392.7	0.3204
3401.46	0.3286
3410.22	0.3401
3418.98	0.3588
3427.74	0.37
3436.5	0.3826
3445.26	0.3989
3454.02	0.4141
3462.77	0.4267
3471.53	0.4418
3480.29	0.4544
3489.05	0.4765
3497.81	0.4975
3506.57	0.5118
3515.33	0.5236
3524.09	0.5449
3532.85	0.5605
3541.61	0.5747
3550.37	0.5886
3559.12	0.6086
3567.88	0.6435
3576.64	0.6637
3585.4	0.6717
3594.16	0.6928
3602.92	0.72
3611.68	0.7401
3620.44	0.7481
3629.2	0.7577
3637.96	0.7748
3646.72	0.7886
3655.47	0.7937
3664.23	0.7983
3672.99	0.8006
3681.75	0.8067
3690.51	0.8104
3699.27	0.812
3708.03	0.813
3716.79	0.8165
3725.55	0.8205
3734.31	0.821
3743.07	0.8216
3751.83	0.822
3760.58	0.822
3769.34	0.821
3778.1	0.821
3786.86	0.821
3795.62	0.82
3804.38	0.819
3813.14	0.818
3821.9	0.816
3830.66	0.816
3839.42	0.814
3848.18	0.813
3856.93	0.8119
3865.69	0.81
3874.45	0.81
3883.21	0.8088
3891.97	0.808
3900.73	0.8067
3909.49	0.806
3918.25	0.805
3927.01	0.805
3935.77	0.805
3944.53	0.804
3953.29	0.8035
3962.04	0.803
3970.8	0.8024
3979.56	0.802
3988.32	0.802
3997.08	0.802
4005.84	0.802
