Infrared Spectrum: Isoviolanthrone
Formula: C34 H16 O2
CAS: 128-64-3
State: SOLID (SPLIT MULL), FLUOROLUBE FOR 3800-1330 CM^-^1, NUJOL FOR 1330-450 CM^-^1
Melting point: 260 C DECOMPOSES
Class: COBLENTZ III
Instrument: DOW KBr FOREPRISM-GRATING
Instrument parameters: BLAZED AT 3.5, 12.0, 20.0 MICRON AND CHANGED AT 5.0, 7.5, 14.9 MICRON
Sampling: TRANSMISSION
Resolution: 2
Origin: DOW CHEMICAL COMPANY
1/CM	TRANSMITTANCE
452	0.9244
461	0.9197
470	0.9067
479	0.8568
488	0.8856
497	0.9521
506	0.9528
515	0.9543
524	0.9575
533	0.9592
542	0.9601
551	0.96
560	0.96
569	0.9577
578	0.9271
587	0.9155
596	0.957
605	0.9578
614	0.9386
623	0.9037
632	0.9484
641	0.8136
650	0.9445
659	0.9218
668	0.9065
677	0.904
686	0.8702
695	0.7618
704	0.4605
713	0.7703
722	0.7415
731	0.7915
740	0.7503
749	0.2834
758	0.7136
767	0.8288
776	0.8243
785	0.7558
794	0.8196
803	0.2229
812	0.8801
821	0.869
830	0.6794
839	0.7274
848	0.7121
857	0.6319
866	0.8493
875	0.8355
884	0.8235
893	0.8392
902	0.8349
911	0.826
920	0.8142
929	0.8011
938	0.7928
947	0.7653
956	0.7389
965	0.7288
974	0.7021
983	0.5078
992	0.753
1001	0.7772
1010	0.7622
1019	0.7311
1028	0.7031
1037	0.6576
1046	0.7418
1055	0.7355
1064	0.6991
1073	0.5139
1082	0.7238
1091	0.7231
1100	0.7126
1109	0.7206
1118	0.7071
1127	0.6875
1136	0.6561
1145	0.6614
1154	0.6368
1163	0.6135
1172	0.5551
1181	0.626
1190	0.5899
1199	0.5808
1208	0.4517
1217	0.6451
1226	0.6354
1235	0.6088
1244	0.5725
1253	0.5695
1262	0.5431
1271	0.4812
1280	0.2838
1289	0.2665
1298	0.4319
1307	0.3982
1316	0.2289
1325	0.1155
1334	0.5721
1343	0.6545
1352	0.6975
1361	0.7241
1370	0.7048
1379	0.5766
1388	0.7061
1397	0.7561
1406	0.7384
1415	0.734
1424	0.7311
1433	0.7221
1442	0.7098
1451	0.6437
1460	0.6749
1469	0.6432
1478	0.539
1487	0.6618
1496	0.6488
1505	0.3996
1514	0.666
1523	0.7028
1532	0.691
1541	0.641
1550	0.5588
1559	0.4235
1568	0.3034
1577	0.4748
1586	0.3024
1595	0.3509
1604	0.6308
1613	0.606
1622	0.4764
1631	0.3152
1640	0.2001
1649	0.2177
1658	0.6378
1667	0.8256
1676	0.8171
1685	0.7972
1694	0.7798
1703	0.7731
1712	0.7695
1721	0.7661
1730	0.7608
1739	0.7568
1748	0.7524
1757	0.7474
1766	0.7419
1775	0.7371
1784	0.7312
1793	0.7255
1802	0.7207
1811	0.716
1820	0.7107
1829	0.7051
1838	0.6994
1847	0.6925
1856	0.6862
1865	0.6799
1874	0.6699
1883	0.6737
1892	0.6745
1901	0.6691
1910	0.6635
1919	0.6565
1928	0.6512
1937	0.6484
1946	0.6496
1955	0.6515
1964	0.6503
1973	0.6467
1982	0.6422
1991	0.6188
2000	0.6316
2009	0.6294
2018	0.6281
2027	0.624
2036	0.6188
2045	0.6141
2054	0.6096
2063	0.6053
2072	0.6008
2081	0.596
2090	0.5912
2099	0.5871
2108	0.5833
2117	0.5795
2126	0.5755
2135	0.5712
2144	0.5668
2153	0.5622
2162	0.5571
2171	0.5521
2180	0.5474
2189	0.5428
2198	0.5383
2207	0.5344
2216	0.5305
2225	0.5266
2234	0.5225
2243	0.5177
2252	0.513
2261	0.5088
2270	0.5048
2279	0.5007
2288	0.4977
2297	0.4948
2306	0.4919
2315	0.4908
2324	0.4899
2333	0.4888
2342	0.4875
2351	0.4855
2360	0.4834
2369	0.4812
2378	0.4792
2387	0.4773
2396	0.4753
2405	0.4726
2414	0.47
2423	0.4673
2432	0.4647
2441	0.4622
2450	0.4596
2459	0.4571
2468	0.4555
2477	0.4538
2486	0.4522
2495	0.4506
2504	0.4489
2513	0.4466
2522	0.4445
2531	0.4422
2540	0.44
2549	0.4377
2558	0.4354
2567	0.433
2576	0.4306
2585	0.4285
2594	0.4266
2603	0.4247
2612	0.4228
2621	0.421
2630	0.4197
2639	0.4182
2648	0.4168
2657	0.4147
2666	0.4123
2675	0.4101
2684	0.408
2693	0.4059
2702	0.4039
2711	0.4018
2720	0.3998
2729	0.3977
2738	0.3955
2747	0.3929
2756	0.3903
2765	0.3878
2774	0.3853
2783	0.3829
2792	0.3807
2801	0.3782
2810	0.3753
2819	0.3724
2828	0.368
2837	0.3626
2846	0.358
2855	0.3542
2864	0.3509
2873	0.3496
2882	0.3489
2891	0.348
2900	0.3441
2909	0.3368
2918	0.3318
2927	0.3302
2936	0.33
2945	0.3309
2954	0.3316
2963	0.3321
2972	0.3321
2981	0.3316
2990	0.33
2999	0.327
3008	0.3232
3017	0.3185
3026	0.3134
3035	0.3082
3044	0.3032
3053	0.2998
3062	0.3
3071	0.3032
3080	0.3067
3089	0.3084
3098	0.3089
3107	0.3089
3116	0.3075
3125	0.3061
3134	0.3042
3143	0.3021
3152	0.2996
3161	0.2971
3170	0.2954
3179	0.2937
3188	0.292
3197	0.2904
3206	0.2884
3215	0.2863
3224	0.2843
3233	0.2822
3242	0.2806
3251	0.2789
3260	0.2773
3269	0.2757
3278	0.2743
3287	0.273
3296	0.2718
3305	0.2705
3314	0.2695
3323	0.2684
3332	0.2674
3341	0.266
3350	0.2646
3359	0.263
3368	0.2616
3377	0.26
3386	0.2584
3395	0.2567
3404	0.2545
3413	0.2523
3422	0.2501
3431	0.2478
3440	0.2458
3449	0.2441
3458	0.2425
3467	0.2411
3476	0.2399
3485	0.2389
3494	0.2388
3503	0.2387
3512	0.2384
3521	0.238
3530	0.2376
3539	0.2371
3548	0.2367
3557	0.2361
3566	0.2358
3575	0.2355
3584	0.2353
3593	0.2351
3602	0.2349
3611	0.2346
3620	0.2349
3629	0.2353
3638	0.2359
3647	0.2363
3656	0.239
3665	0.2385
3674	0.2344
3683	0.2307
3692	0.2292
3701	0.2284
3710	0.2284
3719	0.2278
3728	0.2271
3737	0.2263
3746	0.2254
3755	0.2233
3764	0.2212
3773	0.2191
3782	0.217
