Infrared Spectrum: 1-AMINO-2-BROMO-4-p-TOLUIDINOANTHRAQUINONE
Formula: C21 H15 Br N2 O2
CAS: 128-83-6
State: SOLID (KBr PELLET)
Class: COBLENTZ
Instrument: Not specified, most likely a prism, grating, or hybrid spectrometer.
Sampling: TRANSMISSION
Resolution: 4
Origin: CORN PRODUCTS COMPANY
MICROMETERS	TRANSMITTANCE
2.027	0.468
2.06078	0.473
2.09457	0.475
2.12835	0.49
2.16214	0.495
2.19592	0.502
2.2297	0.516
2.26349	0.524
2.29727	0.531
2.33106	0.534
2.36484	0.544
2.39862	0.555
2.43241	0.561
2.46619	0.567
2.49997	0.57
2.53376	0.575
2.56754	0.584
2.60133	0.589
2.63511	0.594
2.66889	0.601
2.70268	0.606
2.73646	0.609
2.77025	0.607
2.80403	0.57
2.83781	0.539
2.8716	0.505
2.90538	0.461
2.93917	0.354
2.97295	0.297
3.00673	0.421
3.04052	0.471
3.0743	0.517
3.10809	0.516
3.14187	0.526
3.17565	0.544
3.20944	0.567
3.24322	0.584
3.27701	0.589
3.31079	0.584
3.34457	0.582
3.37836	0.594
3.41214	0.612
3.44592	0.617
3.47971	0.619
3.51349	0.623
3.54728	0.628
3.58106	0.646
3.61484	0.651
3.64863	0.657
3.68241	0.662
3.7162	0.668
3.74998	0.672
3.78376	0.679
3.81755	0.684
3.85133	0.687
3.88512	0.689
3.9189	0.691
3.95268	0.692
3.98647	0.696
4.02025	0.699
4.05404	0.704
4.08782	0.706
4.1216	0.707
4.15539	0.711
4.18917	0.713
4.22295	0.714
4.25674	0.714
4.29052	0.716
4.32431	0.718
4.35809	0.721
4.39187	0.724
4.42566	0.726
4.45944	0.73
4.49323	0.733
4.52701	0.736
4.56079	0.735
4.59458	0.736
4.62836	0.74
4.66215	0.74
4.69593	0.74
4.72971	0.74
4.7635	0.741
4.79728	0.741
4.83107	0.741
4.86485	0.741
4.89863	0.743
4.93242	0.745
4.9662	0.747
4.99998	0.748
5.03377	0.748
5.06755	0.748
5.10134	0.75
5.13512	0.752
5.1689	0.752
5.20269	0.752
5.23647	0.753
5.27026	0.753
5.30404	0.753
5.33782	0.755
5.37161	0.757
5.40539	0.762
5.43918	0.767
5.47296	0.767
5.50674	0.767
5.54053	0.767
5.57431	0.767
5.6081	0.765
5.64188	0.764
5.67566	0.765
5.70945	0.762
5.74323	0.76
5.77702	0.76
5.8108	0.76
5.84458	0.76
5.87837	0.755
5.91215	0.74
5.94593	0.731
5.97972	0.709
6.0135	0.682
6.04729	0.67
6.08107	0.619
6.11485	0.526
6.14864	0.444
6.18242	0.327
6.21621	0.354
6.24999	0.261
6.28377	0.196
6.31756	0.168
6.35134	0.096
6.38513	0.069
6.41891	0.079
6.45269	0.198
6.48648	0.278
6.52026	0.353
6.55405	0.222
6.58783	0.146
6.62161	0.135
6.6554	0.402
6.68918	0.48
6.72296	0.536
6.75675	0.544
6.79053	0.517
6.82432	0.492
6.8581	0.468
6.89188	0.438
6.92567	0.528
6.95945	0.565
6.99324	0.584
7.02702	0.567
7.0608	0.497
7.09459	0.415
7.12837	0.426
7.16216	0.536
7.19594	0.58
7.22972	0.575
7.26351	0.573
7.29729	0.555
7.33108	0.509
7.36486	0.538
7.39864	0.575
7.43243	0.58
7.46621	0.5
7.49999	0.383
7.53378	0.451
7.56756	0.511
7.60135	0.507
7.63513	0.483
7.66891	0.426
7.7027	0.349
7.73648	0.285
7.77027	0.202
7.80405	0.146
7.83783	0.113
7.87162	0.101
7.9054	0.112
7.93919	0.154
7.97297	0.219
8.00675	0.264
8.04054	0.281
8.07432	0.292
8.10811	0.297
8.14189	0.344
8.17567	0.385
8.20946	0.436
8.24324	0.461
8.27703	0.465
8.31081	0.478
8.34459	0.517
8.37838	0.548
8.41216	0.558
8.44594	0.573
8.47973	0.577
8.51351	0.578
8.5473	0.575
8.58108	0.567
8.61486	0.539
8.64865	0.55
8.68243	0.59
8.71622	0.624
8.75	0.634
8.78378	0.641
8.81757	0.64
8.85135	0.621
8.88514	0.604
8.91892	0.568
8.9527	0.538
8.98649	0.521
9.02027	0.512
9.05406	0.516
9.08784	0.514
9.12162	0.511
9.15541	0.517
9.18919	0.524
9.22297	0.524
9.25676	0.517
9.29054	0.517
9.32433	0.528
9.35811	0.533
9.39189	0.546
9.42568	0.55
9.45946	0.543
9.49325	0.544
9.52703	0.55
9.56081	0.587
9.5946	0.619
9.62838	0.634
9.66217	0.626
9.69595	0.505
9.72973	0.427
9.76352	0.471
9.7973	0.524
9.83109	0.543
9.86487	0.589
9.89865	0.607
9.93244	0.624
9.96622	0.634
10	0.64
10.0338	0.641
10.0676	0.641
10.1014	0.64
10.1351	0.634
10.1689	0.634
10.2027	0.651
10.2365	0.653
10.2703	0.653
10.3041	0.651
10.3378	0.65
10.3716	0.648
10.4054	0.645
10.4392	0.643
10.473	0.64
10.5068	0.631
10.5405	0.629
10.5743	0.64
10.6081	0.651
10.6419	0.66
10.6757	0.663
10.7095	0.668
10.7433	0.67
10.777	0.67
10.8108	0.674
10.8446	0.677
10.8784	0.675
10.9122	0.665
10.946	0.611
10.9797	0.556
11.0135	0.572
11.0473	0.606
11.0811	0.626
11.1149	0.645
11.1487	0.653
11.1824	0.657
11.2162	0.658
11.25	0.662
11.2838	0.66
11.3176	0.653
11.3514	0.64
11.3851	0.633
11.4189	0.636
11.4527	0.66
11.4865	0.672
11.5203	0.672
11.5541	0.674
11.5878	0.66
11.6216	0.617
11.6554	0.561
11.6892	0.543
11.723	0.582
11.7568	0.611
11.7906	0.629
11.8243	0.64
11.8581	0.638
11.8919	0.634
11.9257	0.633
11.9595	0.633
11.9933	0.638
12.027	0.64
12.0608	0.641
12.0946	0.64
12.1284	0.616
12.1622	0.567
12.196	0.548
12.2297	0.551
12.2635	0.578
12.2973	0.614
12.3311	0.636
12.3649	0.668
12.3987	0.675
12.4324	0.691
12.4662	0.692
12.5	0.665
12.5338	0.65
12.5676	0.648
12.6014	0.66
12.6352	0.67
12.6689	0.672
12.7027	0.675
12.7365	0.689
12.7703	0.699
12.8041	0.701
12.8379	0.702
12.8716	0.704
12.9054	0.699
12.9392	0.696
12.973	0.692
13.0068	0.699
13.0406	0.702
13.0743	0.706
13.1081	0.707
13.1419	0.707
13.1757	0.706
13.2095	0.701
13.2433	0.701
13.277	0.699
13.3108	0.697
13.3446	0.694
13.3784	0.684
13.4122	0.663
13.446	0.641
13.4797	0.57
13.5135	0.492
13.5473	0.376
13.5811	0.358
13.6149	0.414
13.6487	0.436
13.6825	0.402
13.7162	0.329
13.75	0.3
13.7838	0.286
13.8176	0.351
13.8514	0.492
13.8852	0.587
13.9189	0.621
13.9527	0.636
13.9865	0.64
14.0203	0.623
14.0541	0.582
14.0879	0.573
14.1216	0.601
14.1554	0.638
14.1892	0.655
14.223	0.68
14.2568	0.689
14.2906	0.697
14.3243	0.701
14.3581	0.704
14.3919	0.704
14.4257	0.706
14.4595	0.704
14.4933	0.706
14.5271	0.704
14.5608	0.704
14.5946	0.704
14.6284	0.702
14.6622	0.699
14.696	0.697
14.7298	0.692
14.7635	0.685
14.7973	0.67
14.8311	0.665
14.8649	0.658
14.8987	0.653
14.9325	0.648
14.9662	0.643
15	0.617
15.0338	0.59
15.0676	0.553
15.1014	0.544
15.1352	0.544
15.1689	0.563
15.2027	0.601
15.2365	0.623
15.2703	0.636
15.3041	0.645
15.3379	0.651
15.3716	0.657
15.4054	0.66
15.4392	0.662
15.473	0.662
