Infrared Spectrum: 2-Norpinene-2-ethanol, 6,6-dimethyl-, acetate
Formula: C13 H20 O2
CAS: 128-51-8
State: LIQUID (NEAT)
Class: COBLENTZ III
Instrument: BECKMAN IR-12 (GRATING)
Instrument parameters: GRATING
Sampling: TRANSMISSION
Path length: CAPILLARY
Resolution: 2
Origin: COLGATE-PALMOLIVE COMPANY (KELLENBACH)
1/CM	TRANSMITTANCE
401	0.759
410	0.7853
419	0.8081
428	0.8032
437	0.8524
446	0.8175
455	0.8331
464	0.8733
473	0.908
482	0.9297
491	0.937
500	0.9326
509	0.9363
518	0.9314
527	0.923
536	0.9251
545	0.9201
554	0.9125
563	0.9108
572	0.905
581	0.9013
590	0.8567
599	0.7204
608	0.7576
617	0.8207
626	0.8303
635	0.8309
644	0.8397
653	0.8592
662	0.8719
671	0.8641
680	0.862
689	0.8671
698	0.8715
707	0.8732
716	0.8833
725	0.888
734	0.8898
743	0.8877
752	0.8792
761	0.8356
770	0.8278
779	0.8051
788	0.7083
797	0.735
806	0.7404
815	0.7684
824	0.8143
833	0.8254
842	0.8221
851	0.8412
860	0.8419
869	0.8457
878	0.8446
887	0.6972
896	0.7788
905	0.8161
914	0.8021
923	0.8155
932	0.8113
941	0.7986
950	0.7838
959	0.7235
968	0.7677
977	0.7198
986	0.7412
995	0.7505
1004	0.7496
1013	0.7292
1022	0.5217
1031	0.2949
1040	0.3059
1049	0.3839
1058	0.4286
1067	0.5663
1076	0.5977
1085	0.6583
1094	0.7161
1103	0.7339
1112	0.7847
1121	0.7691
1130	0.7185
1139	0.8075
1148	0.8089
1157	0.7648
1166	0.6977
1175	0.7364
1184	0.7068
1193	0.6989
1202	0.5153
1211	0.437
1220	0.2999
1229	0.1561
1238	0.077
1247	0.0994
1256	0.2074
1265	0.2961
1274	0.4419
1283	0.5333
1292	0.6383
1301	0.6635
1310	0.7051
1319	0.7473
1328	0.7415
1337	0.7433
1346	0.7213
1355	0.6326
1364	0.3239
1373	0.4728
1382	0.3883
1391	0.5306
1400	0.6777
1409	0.7101
1418	0.6677
1427	0.5776
1436	0.5173
1445	0.5585
1454	0.5429
1463	0.5617
1472	0.5003
1481	0.7176
1490	0.7646
1499	0.787
1508	0.7957
1517	0.807
1526	0.8095
1535	0.8167
1544	0.8146
1553	0.8208
1562	0.8163
1571	0.8212
1580	0.8277
1589	0.8313
1598	0.8305
1607	0.825
1616	0.8167
1625	0.8066
1634	0.7982
1643	0.7866
1652	0.76
1661	0.7617
1670	0.7702
1679	0.7631
1688	0.7458
1697	0.7154
1706	0.6847
1715	0.6503
1724	0.4793
1733	0.1724
1742	0.0455
1751	0.1758
1760	0.438
1769	0.6517
1778	0.7039
1787	0.753
1796	0.7746
1805	0.7959
1814	0.8087
1823	0.8205
1832	0.8277
1841	0.8316
1850	0.831
1859	0.8346
1868	0.8363
1877	0.8377
1886	0.8391
1895	0.8402
1904	0.8415
1913	0.8431
1922	0.8446
1931	0.8457
1940	0.8469
1949	0.8478
1958	0.8483
1967	0.8488
1976	0.8487
1985	0.8484
1994	0.8475
2003	0.8462
2012	0.8456
2021	0.845
2030	0.8444
2039	0.8437
2048	0.8426
2057	0.8407
2066	0.8387
2075	0.8377
2084	0.8375
2093	0.8372
2102	0.8375
2111	0.8378
2120	0.8383
2129	0.8392
2138	0.8407
2147	0.8415
2156	0.8408
2165	0.8399
2174	0.8416
2183	0.8434
2192	0.8447
2201	0.8447
2210	0.8449
2219	0.8453
2228	0.8457
2237	0.8458
2246	0.8459
2255	0.8459
2264	0.8458
2273	0.8451
2282	0.8444
2291	0.8437
2300	0.8422
2309	0.8405
2318	0.8388
2327	0.8353
2336	0.827
2345	0.8221
2354	0.823
2363	0.819
2372	0.8143
2381	0.8237
2390	0.8361
2399	0.8395
2408	0.8398
2417	0.8393
2426	0.8387
2435	0.8376
2444	0.8364
2453	0.835
2462	0.8336
2471	0.8323
2480	0.8319
2489	0.8315
2498	0.8333
2507	0.8351
2516	0.8355
2525	0.8354
2534	0.8342
2543	0.8366
2552	0.8368
2561	0.8361
2570	0.8353
2579	0.8345
2588	0.8336
2597	0.8326
2606	0.8316
2615	0.8305
2624	0.8289
2633	0.8271
2642	0.8237
2651	0.819
2660	0.8157
2669	0.8185
2678	0.8212
2687	0.8232
2696	0.8239
2705	0.8206
2714	0.8109
2723	0.8024
2732	0.8044
2741	0.8078
2750	0.8102
2759	0.8075
2768	0.8042
2777	0.8007
2786	0.7966
2795	0.7872
2804	0.7667
2813	0.7361
2822	0.6683
2831	0.4676
2840	0.5172
2849	0.5792
2858	0.5081
2867	0.4256
2876	0.3433
2885	0.2966
2894	0.2905
2903	0.2321
2912	0.1684
2921	0.1655
2930	0.1912
2939	0.2116
2948	0.2279
2957	0.2646
2966	0.31
2975	0.3117
2984	0.2794
2993	0.332
3002	0.4664
3011	0.6007
3020	0.6342
3029	0.6278
3038	0.6821
3047	0.7283
3056	0.7531
3065	0.7675
3074	0.7759
3083	0.7817
3092	0.7858
3101	0.7889
3110	0.7907
3119	0.7924
3128	0.794
3137	0.7953
3146	0.7962
3155	0.7972
3164	0.7984
3173	0.7996
3182	0.801
3191	0.8022
3200	0.8026
3209	0.8029
3218	0.8024
3227	0.8018
3236	0.8011
3245	0.8004
3254	0.7997
3263	0.7991
3272	0.7987
3281	0.7983
3290	0.7976
3299	0.7968
3308	0.7959
3317	0.7951
3326	0.7942
3335	0.7934
3344	0.7926
3353	0.7917
3362	0.7911
3371	0.7906
3380	0.7903
3389	0.7898
3398	0.7894
3407	0.7882
3416	0.7869
3425	0.7852
3434	0.7825
3443	0.7798
3452	0.7749
3461	0.7675
3470	0.76
3479	0.7625
3488	0.7756
3497	0.7864
3506	0.7891
3515	0.7908
3524	0.7914
3533	0.7915
3542	0.7913
3551	0.791
3560	0.7914
3569	0.7919
3578	0.7924
3587	0.7925
3596	0.7923
3605	0.7921
3614	0.7919
3623	0.7917
3632	0.7916
3641	0.7915
3650	0.7914
3659	0.791
3668	0.7906
3677	0.7904
3686	0.7913
3695	0.7926
3704	0.7982
3713	0.7984
3722	0.7972
3731	0.7959
3740	0.7947
3749	0.794
3758	0.7941
3767	0.7958
3776	0.7985
3785	0.799
3794	0.7983
3803	0.7976
3812	0.7959
3821	0.7942
3830	0.7925
3839	0.7909
3848	0.7893
3857	0.7883
3866	0.7875
3875	0.7868
3884	0.787
3893	0.7872
3902	0.7884
3911	0.7896
3920	0.79
3929	0.7896
3938	0.7887
3947	0.7877
3956	0.787
3965	0.7864
3974	0.7859
3983	0.7855
3992	0.7857
