Infrared Spectrum: P-PHENYLENEDIAMINE, N,N'-BIS(P-BIPHENYLYL)-
Formula: C30 H24 N2
CAS: 128049-24-1
State: SOLID (KBr DISC)
Class: COBLENTZ
Instrument: Not specified, most likely a prism, grating, or hybrid spectrometer.
Sampling: TRANSMISSION
Resolution: 4
Origin: TENNESSEE EASTMAN COMPANY, RESEARCH LABORATORIES
MICROMETERS	TRANSMITTANCE
2.027	0.991
2.06697	0.993
2.10695	0.993
2.14692	0.993
2.18689	0.993
2.22687	0.993
2.26684	0.991
2.30681	0.991
2.34679	0.99
2.38676	0.99
2.42673	0.99
2.46671	0.988
2.50668	0.98
2.54665	0.975
2.58663	0.97
2.6266	0.965
2.66657	0.965
2.70655	0.96
2.74652	0.951
2.78649	0.94
2.82647	0.915
2.86644	0.88
2.90641	0.84
2.94639	0.785
2.98636	0.611
3.02633	0.598
3.06631	0.73
3.10628	0.77
3.14625	0.78
3.18623	0.793
3.2262	0.803
3.26617	0.803
3.30615	0.748
3.34612	0.72
3.38609	0.773
3.42607	0.771
3.46604	0.77
3.50601	0.798
3.54599	0.816
3.58596	0.856
3.62593	0.868
3.66591	0.878
3.70588	0.885
3.74585	0.891
3.78583	0.9
3.8258	0.906
3.86577	0.915
3.90575	0.92
3.94572	0.923
3.98569	0.923
4.02567	0.923
4.06564	0.925
4.10561	0.933
4.14559	0.945
4.18556	0.948
4.22553	0.955
4.26551	0.951
4.30548	0.95
4.34545	0.955
4.38543	0.96
4.4254	0.971
4.46537	0.976
4.50535	0.98
4.54532	0.981
4.58529	0.985
4.62527	0.985
4.66524	0.985
4.70521	0.985
4.74519	0.981
4.78516	0.981
4.82513	0.98
4.86511	0.981
4.90508	0.981
4.94505	0.98
4.98503	0.98
5.025	0.98
5.06497	0.981
5.10495	0.97
5.14492	0.951
5.18489	0.948
5.22487	0.943
5.26484	0.928
5.30481	0.921
5.34479	0.923
5.38476	0.931
5.42473	0.94
5.46471	0.95
5.50468	0.951
5.54465	0.951
5.58463	0.948
5.6246	0.946
5.66457	0.943
5.70455	0.933
5.74452	0.903
5.78449	0.893
5.82447	0.888
5.86444	0.888
5.90441	0.883
5.94439	0.876
5.98436	0.861
6.02433	0.845
6.06431	0.828
6.10428	0.828
6.14425	0.801
6.18423	0.725
6.2242	0.365
6.26417	0.483
6.30415	0.603
6.34412	0.603
6.38409	0.623
6.42407	0.676
6.46404	0.658
6.50401	0.463
6.54399	0.148
6.58396	0.135
6.62393	0.19
6.66391	0.476
6.70388	0.455
6.74385	0.316
6.78383	0.608
6.8238	0.761
6.86377	0.766
6.90375	0.743
6.94372	0.741
6.98369	0.803
7.02367	0.773
7.06364	0.79
7.10361	0.828
7.14359	0.825
7.18356	0.806
7.22353	0.731
7.26351	0.748
7.30348	0.786
7.34345	0.815
7.38342	0.82
7.4234	0.82
7.46337	0.803
7.50334	0.66
7.54332	0.426
7.58329	0.22
7.62326	0.171
7.66324	0.295
7.70321	0.486
7.74318	0.616
7.78316	0.671
7.82313	0.75
7.8631	0.755
7.90308	0.703
7.94305	0.78
7.98302	0.826
8.023	0.83
8.06297	0.83
8.10294	0.801
8.14292	0.685
8.18289	0.52
8.22286	0.676
8.26284	0.791
8.30281	0.83
8.34278	0.785
8.38276	0.696
8.42273	0.605
8.4627	0.641
8.50268	0.711
8.54265	0.771
8.58262	0.773
8.6226	0.771
8.66257	0.771
8.70254	0.775
8.74252	0.763
8.78249	0.73
8.82246	0.695
8.86244	0.701
8.90241	0.71
8.94238	0.71
8.98236	0.698
9.02233	0.716
9.0623	0.765
9.10228	0.78
9.14225	0.803
9.18222	0.816
9.2222	0.825
9.26217	0.808
9.30214	0.8
9.34212	0.813
9.38209	0.83
9.42206	0.838
9.46204	0.841
9.50201	0.843
9.54198	0.843
9.58196	0.843
9.62193	0.836
9.6619	0.838
9.70188	0.841
9.74185	0.843
9.78182	0.845
9.8218	0.843
9.86177	0.848
9.90174	0.85
9.94172	0.801
9.98169	0.808
10.0217	0.841
10.0616	0.846
10.1016	0.85
10.1416	0.851
10.1816	0.853
10.2215	0.86
10.2615	0.863
10.3015	0.861
10.3415	0.861
10.3814	0.861
10.4214	0.863
10.4614	0.866
10.5013	0.868
10.5413	0.868
10.5813	0.87
10.6213	0.87
10.6612	0.871
10.7012	0.873
10.7412	0.876
10.7812	0.88
10.8211	0.881
10.8611	0.885
10.9011	0.885
10.9411	0.885
10.981	0.868
11.021	0.848
11.061	0.86
11.1009	0.878
11.1409	0.883
11.1809	0.886
11.2209	0.888
11.2608	0.888
11.3008	0.881
11.3408	0.861
11.3808	0.828
11.4207	0.826
11.4607	0.831
11.5007	0.85
11.5407	0.861
11.5806	0.87
11.6206	0.875
11.6606	0.873
11.7005	0.87
11.7405	0.841
11.7805	0.798
11.8205	0.723
11.8604	0.7
11.9004	0.705
11.9404	0.716
11.9804	0.705
12.0203	0.601
12.0603	0.505
12.1003	0.44
12.1403	0.358
12.1802	0.313
12.2202	0.288
12.2602	0.298
12.3001	0.413
12.3401	0.566
12.3801	0.66
12.4201	0.738
12.46	0.78
12.5	0.816
12.54	0.841
12.58	0.853
12.6199	0.865
12.6599	0.87
12.6999	0.875
12.7398	0.875
12.7798	0.875
12.8198	0.868
12.8598	0.856
12.8997	0.836
12.9397	0.81
12.9797	0.763
13.0197	0.666
13.0596	0.601
13.0996	0.491
13.1396	0.33
13.1796	0.268
13.2195	0.4
13.2595	0.63
13.2995	0.758
13.3394	0.821
13.3794	0.838
13.4194	0.845
13.4594	0.845
13.4993	0.838
13.5393	0.813
13.5793	0.755
13.6193	0.656
13.6592	0.623
13.6992	0.661
13.7392	0.755
13.7792	0.811
13.8191	0.841
13.8591	0.86
13.8991	0.868
13.939	0.873
13.979	0.87
14.019	0.853
14.059	0.82
14.0989	0.795
14.1389	0.775
14.1789	0.755
14.2189	0.723
14.2588	0.663
14.2988	0.576
14.3388	0.483
14.3788	0.385
14.4187	0.351
14.4587	0.381
14.4987	0.476
14.5386	0.62
14.5786	0.738
14.6186	0.828
14.6586	0.866
14.6985	0.895
14.7385	0.908
14.7785	0.918
14.8185	0.925
14.8584	0.93
14.8984	0.931
14.9384	0.94
14.9784	0.943
15.0183	0.946
15.0583	0.948
15.0983	0.951
15.1382	0.956
15.1782	0.971
15.2182	0.98
15.2582	0.986
15.2981	0.991
15.3381	0.995
15.3781	1
15.4181	1
15.458	1
15.498	1.001
15.538	1.001
15.578	1.001
15.6179	1
15.6579	0.998
15.6979	0.996
15.7378	0.995
15.7778	0.993
15.8178	0.991
15.8578	0.99
15.8977	0.99
15.9377	0.988
15.9777	0.986
