Infrared Spectrum: 3,4-DIBENZAMIDO-NITRO-BENZENE
Formula: C20 H15 N3 O4
CAS: 128049-26-3
State: SOLID (1.0% KBr PELLET)
Class: COBLENTZ
Instrument: Not specified, most likely a prism, grating, or hybrid spectrometer.
Sampling: TRANSMISSION
Path length: 0.0355 CM
Resolution: 4
Origin: ANDERSON PHYSICAL LABORATORY
1/CM	TRANSMITTANCE
669.476	0.47
677.903	0.4042
686.33	0.265
694.757	0.1811
703.184	0.242
711.611	0.3289
720.038	0.544
728.465	0.7
736.892	0.61
745.319	0.449
753.746	0.767
762.173	0.776
770.6	0.8179
779.027	0.832
787.454	0.7581
795.881	0.631
804.307	0.787
812.734	0.79
821.161	0.565
829.588	0.682
838.015	0.691
846.442	0.824
854.869	0.854
863.296	0.848
871.723	0.7941
880.15	0.5691
888.577	0.737
897.004	0.701
905.431	0.695
913.858	0.707
922.285	0.754
930.712	0.7879
939.139	0.844
947.566	0.842
955.993	0.7691
964.42	0.83
972.847	0.832
981.274	0.848
989.701	0.838
998.128	0.755
1006.55	0.838
1014.98	0.826
1023.41	0.6942
1031.84	0.8049
1040.26	0.832
1048.69	0.826
1057.12	0.802
1065.54	0.749
1073.97	0.587
1082.4	0.655
1090.82	0.683
1099.25	0.5441
1107.68	0.5799
1116.11	0.6669
1124.53	0.73
1132.96	0.692
1141.39	0.7219
1149.81	0.788
1158.24	0.724
1166.67	0.766
1175.09	0.748
1183.52	0.658
1191.95	0.707
1200.38	0.724
1208.8	0.709
1217.23	0.691
1225.66	0.647
1234.08	0.565
1242.51	0.41
1250.94	0.272
1259.36	0.325
1267.79	0.361
1276.22	0.1972
1284.64	0.116
1293.07	0.178
1301.5	0.203
1309.93	0.176
1318.35	0.184
1326.78	0.08
1335.21	0.115
1343.63	0.098
1352.06	0.1789
1360.49	0.4329
1368.91	0.5919
1377.34	0.623
1385.77	0.613
1394.2	0.578
1402.62	0.478
1411.05	0.412
1419.48	0.395
1427.9	0.35
1436.33	0.512
1444.76	0.4571
1453.18	0.413
1461.61	0.2921
1470.04	0.185
1478.46	0.178
1486.89	0.194
1495.32	0.103
1503.75	0.049
1512.17	0.047
1520.6	0.122
1529.03	0.169
1537.45	0.184
1545.88	0.196
1554.31	0.229
1562.73	0.383
1571.16	0.467
1579.59	0.361
1588.02	0.305
1596.44	0.253
1604.87	0.4099
1613.3	0.35
1621.72	0.4969
1630.15	0.487
1638.58	0.199
1647	0.254
1655.43	0.262
1663.86	0.274
1672.29	0.406
1680.71	0.493
1689.14	0.385
1697.57	0.5498
1705.99	0.733
1714.42	0.793
1722.85	0.817
1731.27	0.838
1739.7	0.854
1748.13	0.862
1756.55	0.862
1764.98	0.857
1773.41	0.856
1781.84	0.863
1790.26	0.863
1798.69	0.865
1807.12	0.862
1815.54	0.857
1823.97	0.871
1832.4	0.877
1840.82	0.883
1849.25	0.884
1857.68	0.884
1866.11	0.884
1874.53	0.883
1882.96	0.878
1891.39	0.866
1899.81	0.859
1908.24	0.856
1916.67	0.862
1925.09	0.863
1933.52	0.86
1941.95	0.862
1950.38	0.862
1958.8	0.856
1967.23	0.851
1975.66	0.853
1984.08	0.853
1992.51	0.854
2000.94	0.8682
2009.36	0.869
2017.79	0.868
2026.22	0.866
2034.64	0.863
2043.07	0.863
2051.5	0.8622
2059.93	0.86
2068.35	0.86
2076.78	0.86
2085.21	0.86
2093.63	0.8589
2102.06	0.857
2110.49	0.8565
2118.91	0.8532
2127.34	0.853
2135.77	0.851
2144.2	0.851
2152.62	0.85
2161.05	0.8498
2169.48	0.8464
2177.9	0.8444
2186.33	0.844
2194.76	0.842
2203.18	0.842
2211.61	0.8414
2220.04	0.841
2228.47	0.8378
2236.89	0.8356
2245.32	0.8338
2253.75	0.833
2262.17	0.8329
2270.6	0.832
2279.03	0.8281
2287.45	0.827
2295.88	0.8236
2304.31	0.82
2312.73	0.818
2321.16	0.818
2329.59	0.818
2338.02	0.818
2346.44	0.82
2354.87	0.82
2363.3	0.82
2371.72	0.82
2380.15	0.82
2388.58	0.82
2397	0.8178
2405.43	0.8137
2413.86	0.8113
2422.29	0.8091
2430.71	0.8088
2439.14	0.808
2447.57	0.806
2455.99	0.806
2464.42	0.805
2472.85	0.803
2481.27	0.8023
2489.7	0.8
2498.13	0.799
2506.56	0.795
2514.98	0.7908
2523.41	0.787
2531.84	0.785
2540.26	0.783
2548.69	0.779
2557.12	0.776
2565.54	0.7714
2573.97	0.77
2582.4	0.7674
2590.82	0.767
2599.25	0.767
2607.68	0.767
2616.11	0.767
2624.53	0.769
2632.96	0.769
2641.39	0.7664
2649.81	0.766
2658.24	0.7629
2666.67	0.7607
2675.09	0.76
2683.52	0.76
2691.95	0.7579
2700.38	0.7547
2708.8	0.7514
2717.23	0.751
2725.66	0.7489
2734.08	0.7439
2742.51	0.7372
2750.94	0.7256
2759.36	0.7208
2767.79	0.7186
2776.22	0.7154
2784.65	0.713
2793.07	0.7117
2801.5	0.7084
2809.93	0.7011
2818.35	0.6971
2826.78	0.695
2835.21	0.694
2843.63	0.694
2852.06	0.692
2860.49	0.6906
2868.91	0.6886
2877.34	0.6853
2885.77	0.6792
2894.2	0.6733
2902.62	0.6632
2911.05	0.6559
2919.48	0.6432
2927.9	0.6374
2936.33	0.6306
2944.76	0.6238
2953.18	0.6191
2961.61	0.6101
2970.04	0.5986
2978.47	0.5878
2986.89	0.58
2995.32	0.5666
3003.75	0.5575
3012.17	0.548
3020.6	0.539
3029.03	0.5345
3037.45	0.531
3045.88	0.5224
3054.31	0.5049
3062.74	0.4985
3071.16	0.496
3079.59	0.4985
3088.02	0.5001
3096.44	0.5083
3104.87	0.5192
3113.3	0.5254
3121.72	0.5302
3130.15	0.5327
3138.58	0.5278
3147	0.5232
3155.43	0.5137
3163.86	0.5047
3172.29	0.4908
3180.71	0.4795
3189.14	0.4722
3197.57	0.4493
3205.99	0.4378
3214.42	0.4024
3222.85	0.3839
3231.27	0.3541
3239.7	0.3294
3248.13	0.3121
3256.56	0.3082
3264.98	0.3132
3273.41	0.3209
3281.84	0.3416
3290.26	0.3504
3298.69	0.3689
3307.12	0.3904
3315.54	0.4316
3323.97	0.4453
3332.4	0.4907
3340.83	0.5136
3349.25	0.5322
3357.68	0.5529
3366.11	0.5697
3374.53	0.577
3382.96	0.5868
3391.39	0.5934
3399.81	0.5954
3408.24	0.5987
3416.67	0.601
3425.09	0.6054
3433.52	0.6118
3441.95	0.619
3450.38	0.6219
3458.8	0.6222
3467.23	0.623
3475.66	0.6245
3484.08	0.6309
3492.51	0.6349
3500.94	0.641
3509.36	0.6437
3517.79	0.646
3526.22	0.6505
3534.65	0.654
3543.07	0.6558
3551.5	0.661
3559.93	0.6673
3568.35	0.6751
3576.78	0.6798
3585.21	0.682
3593.63	0.6889
3602.06	0.692
3610.49	0.6948
3618.92	0.6971
3627.34	0.6986
3635.77	0.7006
3644.2	0.701
3652.62	0.701
3661.05	0.701
3669.48	0.7021
3677.9	0.703
3686.33	0.7031
3694.76	0.704
3703.18	0.704
3711.61	0.7032
3720.04	0.7009
3728.47	0.6993
3736.89	0.698
3745.32	0.698
3753.75	0.698
3762.17	0.698
3770.6	0.698
3779.03	0.6952
3787.45	0.695
3795.88	0.694
3804.31	0.692
3812.74	0.692
3821.16	0.6923
3829.59	0.694
3838.02	0.694
3846.44	0.6922
3854.87	0.692
3863.3	0.6902
3871.72	0.6883
3880.15	0.688
3888.58	0.686
3897	0.6841
3905.43	0.683
3913.86	0.683
3922.29	0.683
3930.71	0.683
3939.14	0.683
3947.57	0.683
3955.99	0.683
3964.42	0.683
3972.85	0.685
3981.27	0.686
