Infrared Spectrum: RUTHENOCENE
Formula: C10 H10 Ru
CAS: 1287-13-4
State: SOLID (MINERAL OIL MULL)
Class: COBLENTZ
Instrument: Not specified, most likely a prism, grating, or hybrid spectrometer.
Sampling: TRANSMISSION
Resolution: 4
Origin: WYANDOTTE CHEMICALS CORP., WYANDOTTE, MICHIGAN, USA
MICROMETERS	TRANSMITTANCE
2.02	0.161
2.0608	0.172
2.10159	0.175
2.14239	0.17
2.18319	0.165
2.22399	0.161
2.26478	0.177
2.30558	0.172
2.34638	0.161
2.38717	0.165
2.42797	0.17
2.46877	0.161
2.50956	0.149
2.55036	0.177
2.59116	0.18
2.63196	0.185
2.67275	0.189
2.71355	0.19
2.75435	0.197
2.79514	0.195
2.83594	0.19
2.87674	0.189
2.91754	0.19
2.95833	0.192
2.99913	0.194
3.03993	0.199
3.08072	0.19
3.12152	0.19
3.16232	0.166
3.20312	0.149
3.24391	0.1
3.28471	0.131
3.32551	0.11
3.3663	0.035
3.4071	0.011
3.4479	0.03
3.48869	0.045
3.52949	0.16
3.57029	0.287
3.61109	0.308
3.65188	0.298
3.69268	0.291
3.73348	0.289
3.77427	0.289
3.81507	0.294
3.85587	0.299
3.89667	0.306
3.93746	0.308
3.97826	0.308
4.01906	0.308
4.05985	0.308
4.10065	0.301
4.14145	0.31
4.18225	0.315
4.22304	0.313
4.26384	0.306
4.30464	0.313
4.34543	0.327
4.38623	0.335
4.42703	0.347
4.46782	0.342
4.50862	0.321
4.54942	0.328
4.59022	0.344
4.63101	0.357
4.67181	0.364
4.71261	0.367
4.7534	0.369
4.7942	0.369
4.835	0.386
4.8758	0.39
4.91659	0.388
4.95739	0.39
4.99819	0.398
5.03898	0.403
5.07978	0.4
5.12058	0.412
5.16138	0.412
5.20217	0.42
5.24297	0.429
5.28377	0.436
5.32456	0.432
5.36536	0.437
5.40616	0.441
5.44695	0.448
5.48775	0.453
5.52855	0.432
5.56935	0.374
5.61014	0.35
5.65094	0.381
5.69174	0.367
5.73253	0.357
5.77333	0.367
5.81413	0.361
5.85493	0.347
5.89572	0.35
5.93652	0.35
5.97732	0.337
6.01811	0.33
6.05891	0.35
6.09971	0.391
6.14051	0.391
6.1813	0.444
6.2221	0.499
6.2629	0.509
6.30369	0.516
6.34449	0.522
6.38529	0.531
6.42608	0.534
6.46688	0.531
6.50768	0.536
6.54848	0.536
6.58927	0.538
6.63007	0.524
6.67087	0.497
6.71166	0.468
6.75246	0.393
6.79326	0.248
6.83406	0.194
6.87485	0.253
6.91565	0.356
6.95645	0.477
6.99724	0.57
7.03804	0.584
7.07884	0.369
7.11964	0.081
7.16043	0.219
7.20123	0.431
7.24203	0.345
7.28282	0.32
7.32362	0.449
7.36442	0.543
7.40521	0.596
7.44601	0.538
7.48681	0.538
7.52761	0.611
7.5684	0.638
7.6092	0.635
7.65	0.635
7.69079	0.638
7.73159	0.649
7.77239	0.654
7.81319	0.666
7.85398	0.669
7.89478	0.667
7.93558	0.649
7.97637	0.439
8.01717	0.482
8.05797	0.621
8.09876	0.664
8.13956	0.678
8.18036	0.688
8.22116	0.695
8.26195	0.696
8.30275	0.701
8.34355	0.703
8.38434	0.693
8.42514	0.703
8.46594	0.718
8.50674	0.732
8.54753	0.729
8.58833	0.729
8.62913	0.739
8.66992	0.744
8.71072	0.758
8.75152	0.775
8.79232	0.79
8.83311	0.819
8.87391	0.833
8.91471	0.851
8.9555	0.879
8.9963	0.916
9.0371	0.894
9.07789	0.386
9.11869	0.166
9.15949	0.354
9.20029	0.516
9.24108	0.599
9.28188	0.63
9.32268	0.655
9.36347	0.66
9.40427	0.555
9.44507	0.582
9.48587	0.609
9.52666	0.459
9.56746	0.49
9.60826	0.659
9.64905	0.722
9.68985	0.749
9.73065	0.77
9.77145	0.79
9.81224	0.804
9.85304	0.802
9.89384	0.73
9.93463	0.441
9.97543	0.093
10.0162	0.013
10.057	0.028
10.0978	0.039
10.1386	0.143
10.1794	0.376
10.2202	0.524
10.261	0.596
10.3018	0.632
10.3426	0.672
10.3834	0.703
10.4242	0.718
10.465	0.742
10.5058	0.759
10.5466	0.778
10.5874	0.787
10.6282	0.802
10.669	0.816
10.7098	0.824
10.7506	0.831
10.7914	0.836
10.8322	0.843
10.873	0.856
10.9138	0.858
10.9546	0.86
10.9954	0.853
11.0362	0.821
11.077	0.79
11.1177	0.756
11.1585	0.727
11.1993	0.729
11.2401	0.788
11.2809	0.856
11.3217	0.884
11.3625	0.894
11.4033	0.897
11.4441	0.875
11.4849	0.824
11.5257	0.688
11.5665	0.456
11.6073	0.24
11.6481	0.235
11.6889	0.398
11.7297	0.568
11.7705	0.701
11.8113	0.775
11.8521	0.816
11.8929	0.856
11.9337	0.873
11.9745	0.858
12.0153	0.824
12.0561	0.751
12.0969	0.798
12.1377	0.795
12.1785	0.623
12.2193	0.344
12.2601	0.129
12.3009	0.083
12.3417	0.081
12.3825	0.03
12.4233	0.023
12.4641	0.025
12.5048	0.047
12.5456	0.146
12.5864	0.24
12.6272	0.315
12.668	0.367
12.7088	0.42
12.7496	0.465
12.7904	0.512
12.8312	0.533
12.872	0.562
12.9128	0.596
12.9536	0.611
12.9944	0.637
13.0352	0.669
13.076	0.688
13.1168	0.706
13.1576	0.729
13.1984	0.749
13.2392	0.761
13.28	0.776
13.3208	0.788
13.3616	0.802
13.4024	0.814
13.4432	0.822
13.484	0.816
13.5248	0.821
13.5656	0.824
13.6064	0.826
13.6472	0.833
13.688	0.843
13.7288	0.838
13.7696	0.843
13.8104	0.846
13.8512	0.839
13.892	0.827
13.9327	0.809
13.9735	0.793
14.0143	0.787
14.0551	0.788
14.0959	0.798
14.1367	0.816
14.1775	0.833
14.2183	0.858
14.2591	0.872
14.2999	0.884
14.3407	0.894
14.3815	0.911
14.4223	0.914
14.4631	0.913
14.5039	0.911
14.5447	0.908
14.5855	0.899
14.6263	0.887
14.6671	0.88
14.7079	0.872
14.7487	0.868
14.7895	0.853
14.8303	0.839
14.8711	0.827
14.9119	0.822
14.9527	0.817
14.9935	0.804
15.0343	0.768
15.0751	0.693
15.1159	0.643
15.1567	0.659
15.1975	0.696
15.2383	0.718
15.2791	0.717
15.3198	0.701
15.3606	0.684
15.4014	0.671
15.4422	0.652
15.483	0.638
15.5238	0.623
15.5646	0.608
15.6054	0.599
15.6462	0.58
15.687	0.568
15.7278	0.553
15.7686	0.531
15.8094	0.526
15.8502	0.502
15.891	0.485
15.9318	0.468
15.9726	0.449
