Infrared Spectrum: ANTHRAQUINONE, 1-CHLORO-5-NITRO
Formula: C14 H6 Cl N O4
CAS: 129-40-8
State: SOLID (PELLET)
Class: COBLENTZ
Instrument: Not specified, most likely a prism, grating, or hybrid spectrometer.
Sampling: TRANSMISSION
Resolution: 4
Origin: TENNESSEE EASTMAN COMPANY, RESEARCH LABORATORIES
MICROMETERS	TRANSMITTANCE
2.04	0.998
2.08	0.998
2.12	0.979
2.16	0.956
2.2	0.934
2.24	0.919
2.27999	0.913
2.31999	0.909
2.35999	0.906
2.39999	0.904
2.43999	0.903
2.47999	0.901
2.51999	0.901
2.55999	0.906
2.59999	0.909
2.63999	0.916
2.67999	0.923
2.71999	0.928
2.75998	0.928
2.79998	0.923
2.83998	0.899
2.87998	0.879
2.91998	0.826
2.95998	0.795
2.99998	0.792
3.03998	0.806
3.07998	0.831
3.11998	0.844
3.15998	0.851
3.19998	0.857
3.23997	0.842
3.27997	0.623
3.31997	0.782
3.35997	0.799
3.39997	0.826
3.43997	0.821
3.47997	0.819
3.51997	0.839
3.55997	0.866
3.59997	0.877
3.63997	0.879
3.67996	0.876
3.71996	0.879
3.75996	0.882
3.79996	0.881
3.83996	0.877
3.87996	0.876
3.91996	0.881
3.95996	0.889
3.99996	0.894
4.03996	0.896
4.07996	0.901
4.11996	0.903
4.15995	0.901
4.19995	0.901
4.23995	0.901
4.27995	0.921
4.31995	0.946
4.35995	0.948
4.39995	0.923
4.43995	0.914
4.47995	0.911
4.51995	0.911
4.55995	0.913
4.59994	0.913
4.63994	0.911
4.67994	0.911
4.71994	0.909
4.75994	0.896
4.79994	0.901
4.83994	0.901
4.87994	0.901
4.91994	0.901
4.95994	0.901
4.99994	0.899
5.03994	0.889
5.07993	0.876
5.11993	0.887
5.15993	0.882
5.19993	0.849
5.23993	0.872
5.27993	0.884
5.31993	0.882
5.35993	0.874
5.39993	0.886
5.43993	0.891
5.47993	0.892
5.51993	0.892
5.55992	0.891
5.59992	0.884
5.63992	0.872
5.67992	0.864
5.71992	0.852
5.75992	0.844
5.79992	0.802
5.83992	0.79
5.87992	0.78
5.91992	0.586
5.95992	0.209
5.99991	0.078
6.03991	0.418
6.07991	0.501
6.11991	0.565
6.15991	0.66
6.19991	0.668
6.23991	0.678
6.27991	0.491
6.31991	0.505
6.35991	0.212
6.39991	0.451
6.43991	0.222
6.4799	0.09
6.5199	0.132
6.5599	0.401
6.5999	0.555
6.6399	0.62
6.6799	0.657
6.7199	0.675
6.7599	0.685
6.7999	0.682
6.8399	0.573
6.8799	0.571
6.9199	0.612
6.95989	0.603
6.99989	0.628
7.03989	0.707
7.07989	0.74
7.11989	0.74
7.15989	0.72
7.19989	0.622
7.23989	0.449
7.27989	0.374
7.31989	0.431
7.35989	0.565
7.39988	0.653
7.43988	0.672
7.47988	0.643
7.51988	0.473
7.55988	0.16
7.59988	0.068
7.63988	0.081
7.67988	0.183
7.71988	0.289
7.75988	0.299
7.79988	0.334
7.83988	0.301
7.87987	0.098
7.91987	0.048
7.95987	0.117
7.99987	0.302
8.03987	0.433
8.07987	0.493
8.11987	0.526
8.15987	0.533
8.19987	0.404
8.23987	0.478
8.27987	0.525
8.31987	0.566
8.35986	0.571
8.39986	0.575
8.43986	0.506
8.47986	0.51
8.51986	0.531
8.55986	0.453
8.59986	0.454
8.63986	0.538
8.67986	0.563
8.71986	0.581
8.75986	0.513
8.79985	0.282
8.83985	0.341
8.87985	0.486
8.91985	0.54
8.95985	0.566
8.99985	0.581
9.03985	0.591
9.07985	0.598
9.11985	0.6
9.15985	0.591
9.19985	0.501
9.23985	0.578
9.27984	0.605
9.31984	0.617
9.35984	0.622
9.39984	0.625
9.43984	0.63
9.47984	0.635
9.51984	0.635
9.55984	0.637
9.59984	0.638
9.63984	0.638
9.67984	0.637
9.71983	0.638
9.75983	0.638
9.79983	0.633
9.83983	0.63
9.87983	0.63
9.91983	0.628
9.95983	0.59
9.99983	0.438
10.0398	0.28
10.0798	0.342
10.1198	0.463
10.1598	0.538
10.1998	0.573
10.2398	0.61
10.2798	0.63
10.3198	0.642
10.3598	0.642
10.3998	0.642
10.4398	0.643
10.4798	0.65
10.5198	0.653
10.5598	0.655
10.5998	0.655
10.6398	0.645
10.6798	0.643
10.7198	0.653
10.7598	0.663
10.7998	0.667
10.8398	0.65
10.8798	0.635
10.9198	0.662
10.9598	0.673
10.9998	0.68
11.0398	0.682
11.0798	0.683
11.1198	0.683
11.1598	0.68
11.1998	0.675
11.2398	0.672
11.2798	0.667
11.3198	0.663
11.3598	0.64
11.3998	0.513
11.4398	0.414
11.4798	0.565
11.5198	0.633
11.5598	0.653
11.5998	0.67
11.6398	0.677
11.6798	0.682
11.7198	0.687
11.7598	0.685
11.7998	0.658
11.8398	0.65
11.8798	0.68
11.9198	0.69
11.9598	0.692
11.9998	0.69
12.0398	0.68
12.0798	0.64
12.1198	0.54
12.1598	0.294
12.1998	0.207
12.2398	0.222
12.2798	0.292
12.3198	0.302
12.3598	0.285
12.3998	0.424
12.4398	0.523
12.4798	0.578
12.5198	0.596
12.5598	0.617
12.5998	0.638
12.6398	0.643
12.6798	0.645
12.7198	0.637
12.7598	0.608
12.7998	0.585
12.8398	0.595
12.8798	0.64
12.9198	0.658
12.9598	0.663
12.9998	0.668
13.0398	0.67
13.0798	0.625
13.1198	0.538
13.1598	0.5
13.1998	0.555
13.2398	0.581
13.2798	0.586
13.3198	0.61
13.3598	0.632
13.3998	0.64
13.4398	0.645
13.4798	0.647
13.5198	0.647
13.5598	0.645
13.5998	0.638
13.6398	0.627
13.6797	0.612
13.7197	0.59
13.7597	0.583
13.7997	0.588
13.8397	0.602
13.8797	0.607
13.9197	0.6
13.9597	0.58
13.9997	0.54
14.0397	0.428
14.0797	0.329
14.1197	0.245
14.1597	0.2
14.1997	0.193
14.2397	0.239
14.2797	0.257
14.3197	0.249
14.3597	0.214
14.3997	0.202
14.4397	0.244
14.4797	0.332
14.5197	0.406
14.5597	0.459
14.5997	0.501
14.6397	0.518
14.6797	0.528
14.7197	0.535
14.7597	0.538
14.7997	0.54
14.8397	0.546
14.8797	0.553
14.9197	0.555
14.9597	0.553
14.9997	0.551
15.0397	0.548
15.0797	0.551
15.1197	0.553
15.1597	0.553
15.1997	0.551
15.2397	0.551
15.2797	0.548
15.3197	0.545
15.3597	0.541
15.3997	0.538
15.4397	0.531
15.4797	0.526
15.5197	0.523
15.5597	0.518
15.5997	0.518
15.6397	0.513
15.6797	0.51
15.7197	0.506
15.7597	0.503
15.7997	0.5
15.8397	0.491
15.8797	0.484
15.9197	0.483
15.9597	0.476
15.9997	0.469
