Infrared Spectrum: P,P'-BENZYLIDENE BIS(N,N-DIMETHYLANILINE)
Formula: C23 H26 N2
CAS: 129-73-7
State: SOLID (MULL)
Class: COBLENTZ
Instrument: Not specified, most likely a prism, grating, or hybrid spectrometer.
Sampling: TRANSMISSION
Resolution: 4
Origin: WYANDOTTE CHEMICALS CORP., WYANDOTTE, MICHIGAN, USA
MICROMETERS	TRANSMITTANCE
2.011	0.316
2.04979	0.301
2.08858	0.282
2.12738	0.273
2.16617	0.254
2.20496	0.252
2.24375	0.249
2.28254	0.251
2.32133	0.246
2.36013	0.246
2.39892	0.254
2.43771	0.267
2.4765	0.265
2.51529	0.267
2.55408	0.269
2.59288	0.283
2.63167	0.298
2.67046	0.303
2.70925	0.314
2.74804	0.312
2.78683	0.322
2.82563	0.329
2.86442	0.322
2.90321	0.325
2.942	0.329
2.98079	0.325
3.01958	0.33
3.05838	0.329
3.09717	0.332
3.13596	0.327
3.17475	0.316
3.21354	0.286
3.25233	0.215
3.29113	0.139
3.32992	0.076
3.36871	0.024
3.4075	0.012
3.44629	0.022
3.48508	0.019
3.52388	0.042
3.56267	0.089
3.60146	0.129
3.64025	0.23
3.67904	0.324
3.71783	0.377
3.75663	0.397
3.79542	0.413
3.83421	0.431
3.873	0.448
3.91179	0.463
3.95058	0.476
3.98938	0.492
4.02817	0.5
4.06696	0.52
4.10575	0.525
4.14454	0.531
4.18333	0.541
4.22213	0.542
4.26092	0.517
4.29971	0.528
4.3385	0.544
4.37729	0.57
4.41608	0.585
4.45488	0.594
4.49367	0.598
4.53246	0.607
4.57125	0.614
4.61004	0.619
4.64883	0.633
4.68763	0.64
4.72642	0.646
4.76521	0.659
4.804	0.649
4.84279	0.656
4.88158	0.659
4.92038	0.669
4.95917	0.692
4.99796	0.698
5.03675	0.705
5.07554	0.717
5.11433	0.721
5.15313	0.714
5.19192	0.711
5.23071	0.719
5.2695	0.714
5.30829	0.692
5.34708	0.664
5.38588	0.658
5.42467	0.708
5.46346	0.752
5.50225	0.758
5.54104	0.763
5.57983	0.768
5.61863	0.787
5.65742	0.782
5.69621	0.758
5.735	0.764
5.77379	0.8
5.81258	0.816
5.85138	0.818
5.89017	0.846
5.92896	0.858
5.96775	0.863
6.00654	0.865
6.04533	0.857
6.08413	0.75
6.12292	0.351
6.16171	0.074
6.2005	0.111
6.23929	0.364
6.27808	0.517
6.31688	0.559
6.35567	0.45
6.39446	0.473
6.43325	0.478
6.47204	0.35
6.51083	0.123
6.54963	0.09
6.58842	0.053
6.62721	0.092
6.666	0.082
6.70479	0.077
6.74358	0.05
6.78238	0.043
6.82117	0.043
6.85996	0.04
6.89875	0.042
6.93754	0.116
6.97633	0.236
7.01513	0.379
7.05392	0.481
7.09271	0.507
7.1315	0.517
7.17029	0.471
7.20908	0.272
7.24788	0.149
7.28667	0.141
7.32546	0.069
7.36425	0.022
7.40304	0.024
7.44183	0.045
7.48063	0.076
7.51942	0.129
7.55821	0.194
7.597	0.296
7.63579	0.303
7.67459	0.306
7.71338	0.379
7.75217	0.455
7.79096	0.494
7.82975	0.515
7.86854	0.523
7.90734	0.476
7.94613	0.277
7.98492	0.311
8.02371	0.358
8.0625	0.299
8.10129	0.199
8.14009	0.079
8.17888	0.081
8.21767	0.155
8.25646	0.126
8.29525	0.087
8.33404	0.188
8.37284	0.2
8.41163	0.191
8.45042	0.236
8.48921	0.256
8.528	0.223
8.56679	0.128
8.60559	0.123
8.64438	0.139
8.68317	0.194
8.72196	0.265
8.76075	0.329
8.79954	0.348
8.83834	0.32
8.87713	0.278
8.91592	0.35
8.95471	0.455
8.9935	0.508
9.03229	0.551
9.07109	0.572
9.10988	0.583
9.14867	0.581
9.18746	0.58
9.22625	0.575
9.26504	0.416
9.30384	0.341
9.34263	0.303
9.38142	0.209
9.42021	0.196
9.459	0.32
9.49779	0.461
9.53659	0.555
9.57538	0.606
9.61417	0.664
9.65296	0.651
9.69175	0.562
9.73054	0.619
9.76934	0.692
9.80813	0.74
9.84692	0.763
9.88571	0.766
9.9245	0.764
9.96329	0.792
10.0021	0.816
10.0409	0.815
10.0797	0.839
10.1185	0.836
10.1573	0.846
10.196	0.833
10.2348	0.813
10.2736	0.755
10.3124	0.695
10.3512	0.768
10.39	0.769
10.4288	0.719
10.4676	0.573
10.5064	0.33
10.5452	0.175
10.584	0.196
10.6228	0.307
10.6615	0.473
10.7003	0.586
10.7391	0.565
10.7779	0.576
10.8167	0.705
10.8555	0.769
10.8943	0.768
10.9331	0.698
10.9719	0.756
11.0107	0.849
11.0495	0.889
11.0883	0.909
11.127	0.92
11.1658	0.931
11.2046	0.94
11.2434	0.948
11.2822	0.962
11.321	0.977
11.3598	0.982
11.3986	0.975
11.4374	0.962
11.4762	0.936
11.515	0.844
11.5538	0.703
11.5925	0.79
11.6313	0.878
11.6701	0.933
11.7089	0.87
11.7477	0.854
11.7865	0.909
11.8253	0.938
11.8641	0.931
11.9029	0.894
11.9417	0.797
11.9805	0.641
12.0193	0.382
12.058	0.269
12.0968	0.324
12.1356	0.528
12.1744	0.67
12.2132	0.724
12.252	0.643
12.2908	0.457
12.3296	0.363
12.3684	0.447
12.4072	0.486
12.446	0.348
12.4848	0.147
12.5235	0.149
12.5623	0.327
12.6011	0.471
12.6399	0.424
12.6787	0.2
12.7175	0.069
12.7563	0.194
12.7951	0.395
12.8339	0.599
12.8727	0.719
12.9115	0.789
12.9503	0.828
12.989	0.803
13.0278	0.677
13.0666	0.421
13.1054	0.414
13.1442	0.636
13.183	0.769
13.2218	0.865
13.2606	0.909
13.2994	0.871
13.3382	0.748
13.377	0.755
13.4158	0.847
13.4545	0.897
13.4933	0.907
13.5321	0.894
13.5709	0.897
13.6097	0.901
13.6485	0.873
13.6873	0.774
13.7261	0.573
13.7649	0.325
13.8037	0.183
13.8425	0.299
13.8813	0.452
13.92	0.512
13.9588	0.51
13.9976	0.599
14.0364	0.719
14.0752	0.811
14.114	0.839
14.1528	0.786
14.1916	0.701
14.2304	0.5
14.2692	0.288
14.308	0.115
14.3468	0.082
14.3855	0.082
14.4243	0.153
14.4631	0.277
14.5019	0.479
14.5407	0.599
14.5795	0.688
14.6183	0.756
14.6571	0.811
14.6959	0.821
14.7347	0.826
14.7735	0.834
14.8123	0.837
14.851	0.839
14.8898	0.855
14.9286	0.87
14.9674	0.875
15.0062	0.85
15.045	0.8
15.0838	0.795
15.1226	0.811
15.1614	0.837
15.2002	0.858
15.239	0.865
15.2778	0.863
15.3165	0.86
15.3553	0.857
15.3941	0.857
15.4329	0.854
15.4717	0.842
15.5105	0.816
15.5493	0.797
15.5881	0.769
15.6269	0.748
15.6657	0.737
15.7045	0.714
15.7433	0.698
15.782	0.682
15.8208	0.67
15.8596	0.661
15.8984	0.643
15.9372	0.627
15.976	0.599
