Infrared Spectrum: 2-METHYL-1-NITROANTHRAQUINONE
Formula: C15 H9 N O4
CAS: 129-15-7
State: SOLID (KBr PELLET)
Class: COBLENTZ
Instrument: Not specified, most likely a prism, grating, or hybrid spectrometer.
Sampling: TRANSMISSION
Resolution: 4
Origin: CORN PRODUCTS COMPANY
MICROMETERS	TRANSMITTANCE
2.02	0.739
2.05382	0.741
2.08765	0.741
2.12147	0.744
2.1553	0.747
2.18912	0.749
2.22295	0.756
2.25677	0.759
2.2906	0.763
2.32442	0.768
2.35825	0.768
2.39207	0.769
2.4259	0.773
2.45972	0.776
2.49355	0.78
2.52737	0.783
2.5612	0.783
2.59502	0.785
2.62885	0.786
2.66267	0.788
2.6965	0.79
2.73032	0.793
2.76415	0.781
2.79797	0.759
2.8318	0.715
2.86562	0.685
2.89945	0.649
2.93327	0.634
2.9671	0.637
3.00092	0.663
3.03474	0.68
3.06857	0.722
3.10239	0.739
3.13622	0.752
3.17004	0.763
3.20387	0.768
3.23769	0.763
3.27152	0.752
3.30534	0.759
3.33917	0.774
3.37299	0.79
3.40682	0.791
3.44064	0.791
3.47447	0.79
3.50829	0.795
3.54212	0.8
3.57594	0.803
3.60977	0.805
3.64359	0.805
3.67742	0.807
3.71124	0.808
3.74507	0.808
3.77889	0.808
3.81272	0.81
3.84654	0.812
3.88037	0.815
3.91419	0.818
3.94801	0.82
3.98184	0.822
4.01566	0.822
4.04949	0.824
4.08331	0.824
4.11714	0.824
4.15096	0.825
4.18479	0.827
4.21861	0.829
4.25244	0.829
4.28626	0.829
4.32009	0.829
4.35391	0.829
4.38774	0.829
4.42156	0.83
4.45539	0.83
4.48921	0.83
4.52304	0.83
4.55686	0.83
4.59069	0.829
4.62451	0.829
4.65834	0.829
4.69216	0.83
4.72599	0.83
4.75981	0.83
4.79364	0.829
4.82746	0.829
4.86129	0.83
4.89511	0.83
4.92893	0.829
4.96276	0.827
4.99658	0.827
5.03041	0.824
5.06423	0.82
5.09806	0.818
5.13188	0.82
5.16571	0.83
5.19953	0.83
5.23336	0.829
5.26718	0.829
5.30101	0.829
5.33483	0.829
5.36866	0.83
5.40248	0.829
5.43631	0.83
5.47013	0.829
5.50396	0.83
5.53778	0.83
5.57161	0.829
5.60543	0.827
5.63926	0.817
5.67308	0.812
5.70691	0.813
5.74073	0.803
5.77456	0.788
5.80838	0.774
5.84221	0.754
5.87603	0.507
5.90985	0.25
5.94368	0.353
5.9775	0.664
6.01133	0.69
6.04515	0.697
6.07898	0.708
6.1128	0.71
6.14663	0.707
6.18045	0.565
6.21428	0.446
6.2481	0.294
6.28193	0.539
6.31575	0.59
6.34958	0.568
6.3834	0.536
6.41723	0.492
6.45105	0.314
6.48488	0.131
6.5187	0.39
6.55253	0.578
6.58635	0.664
6.62018	0.714
6.654	0.722
6.68783	0.727
6.72165	0.727
6.75548	0.717
6.7893	0.707
6.82312	0.707
6.85695	0.705
6.89077	0.695
6.9246	0.688
6.95842	0.7
6.99225	0.69
7.02607	0.654
7.0599	0.615
7.09372	0.659
7.12755	0.708
7.16137	0.714
7.1952	0.649
7.22902	0.512
7.26285	0.448
7.29667	0.642
7.3305	0.649
7.36432	0.659
7.39815	0.671
7.43197	0.627
7.4658	0.39
7.49962	0.155
7.53345	0.191
7.56727	0.36
7.6011	0.538
7.63492	0.51
7.66875	0.192
7.70257	0.104
7.7364	0.111
7.77022	0.255
7.80404	0.467
7.83787	0.597
7.87169	0.627
7.90552	0.624
7.93934	0.565
7.97317	0.686
8.00699	0.732
8.04082	0.749
8.07464	0.759
8.10847	0.764
8.14229	0.768
8.17612	0.758
8.20994	0.742
8.24377	0.742
8.27759	0.759
8.31142	0.771
8.34524	0.774
8.37907	0.776
8.41289	0.769
8.44672	0.769
8.48054	0.773
8.51437	0.759
8.54819	0.671
8.58202	0.626
8.61584	0.678
8.64967	0.641
8.68349	0.68
8.71731	0.746
8.75114	0.756
8.78496	0.766
8.81879	0.768
8.85261	0.771
8.88644	0.773
8.92026	0.774
8.95409	0.773
8.98791	0.774
9.02174	0.778
9.05556	0.786
9.08939	0.788
9.12321	0.79
9.15704	0.795
9.19086	0.8
9.22469	0.8
9.25851	0.805
9.29234	0.805
9.32616	0.803
9.35999	0.803
9.39381	0.802
9.42764	0.8
9.46146	0.773
9.49529	0.756
9.52911	0.764
9.56294	0.773
9.59676	0.771
9.63059	0.773
9.66441	0.788
9.69823	0.796
9.73206	0.805
9.76588	0.803
9.79971	0.8
9.83353	0.802
9.86736	0.796
9.90118	0.791
9.93501	0.786
9.96883	0.773
10.0027	0.737
10.0365	0.675
10.0703	0.551
10.1041	0.583
10.138	0.646
10.1718	0.688
10.2056	0.725
10.2394	0.756
10.2733	0.768
10.3071	0.769
10.3409	0.761
10.3747	0.747
10.4086	0.764
10.4424	0.776
10.4762	0.79
10.51	0.793
10.5439	0.803
10.5777	0.808
10.6115	0.808
10.6453	0.803
10.6792	0.803
10.713	0.808
10.7468	0.808
10.7806	0.807
10.8145	0.807
10.8483	0.81
10.8821	0.812
10.9159	0.812
10.9498	0.81
10.9836	0.808
11.0174	0.805
11.0512	0.796
11.0851	0.796
11.1189	0.803
11.1527	0.807
11.1865	0.808
11.2204	0.808
11.2542	0.785
11.288	0.729
11.3218	0.749
11.3557	0.769
11.3895	0.778
11.4233	0.786
11.4571	0.791
11.491	0.8
11.5248	0.802
11.5586	0.798
11.5924	0.783
11.6262	0.715
11.6601	0.598
11.6939	0.615
11.7277	0.703
11.7615	0.771
11.7954	0.788
11.8292	0.8
11.863	0.803
11.8968	0.803
11.9307	0.8
11.9645	0.781
11.9983	0.741
12.0321	0.742
12.066	0.78
12.0998	0.785
12.1336	0.788
12.1674	0.766
12.2013	0.666
12.2351	0.712
12.2689	0.768
12.3027	0.791
12.3366	0.795
12.3704	0.802
12.4042	0.803
12.438	0.802
12.4719	0.793
12.5057	0.744
12.5395	0.698
12.5733	0.742
12.6072	0.769
12.641	0.785
12.6748	0.791
12.7086	0.795
12.7425	0.798
12.7763	0.8
12.8101	0.798
12.8439	0.791
12.8778	0.778
12.9116	0.666
12.9454	0.576
12.9792	0.67
13.0131	0.744
13.0469	0.768
13.0807	0.781
13.1145	0.783
13.1484	0.786
13.1822	0.788
13.216	0.786
13.2498	0.78
13.2837	0.766
13.3175	0.734
13.3513	0.659
13.3851	0.558
13.419	0.548
13.4528	0.644
13.4866	0.673
13.5204	0.68
13.5543	0.68
13.5881	0.714
13.6219	0.744
13.6557	0.763
13.6896	0.768
13.7234	0.766
13.7572	0.764
13.791	0.759
13.8249	0.737
13.8587	0.725
13.8925	0.651
13.9263	0.51
13.9602	0.365
13.994	0.243
14.0278	0.17
14.0616	0.194
14.0955	0.323
14.1293	0.451
14.1631	0.536
14.1969	0.556
14.2308	0.566
14.2646	0.604
14.2984	0.648
14.3322	0.693
14.3661	0.727
14.3999	0.746
14.4337	0.752
14.4675	0.763
14.5014	0.769
14.5352	0.771
14.569	0.774
14.6028	0.776
14.6367	0.776
14.6705	0.776
14.7043	0.774
14.7381	0.768
14.772	0.764
14.8058	0.769
14.8396	0.774
14.8734	0.781
14.9073	0.78
14.9411	0.78
14.9749	0.78
15.0087	0.781
15.0426	0.781
15.0764	0.78
15.1102	0.769
15.144	0.761
15.1779	0.747
15.2117	0.739
15.2455	0.73
15.2793	0.727
15.3132	0.727
15.347	0.722
15.3808	0.693
