Infrared Spectrum: CYPROHEPTADINE
Formula: C21 H21 N
CAS: 129-03-3
State: SOLUTION 10% (CS2 FOR 2-6.2 AND 7.2-15 microns, AND C2Cl4 FOR 6.2-7.2 microns)
Melting point: 111-112 C
Class: COBLENTZ III
Instrument: PERKIN-ELMER 21 (GRATING)
Instrument parameters: FILTER AT ABOUT 10 MICRONS
Sampling: TRANSMISSION
Path length: 0.1 CM
Resolution: 2
1/CM	TRANSMITTANCE
4000	0.9624
3991	0.9635
3982	0.9646
3973	0.9649
3964	0.965
3955	0.9651
3946	0.9651
3937	0.9647
3928	0.9642
3919	0.9636
3910	0.9636
3901	0.964
3892	0.9644
3883	0.9647
3874	0.9651
3865	0.9656
3856	0.9662
3847	0.9668
3838	0.9674
3829	0.968
3820	0.9686
3811	0.9692
3802	0.9699
3793	0.9705
3784	0.971
3775	0.9716
3766	0.9721
3757	0.9728
3748	0.9734
3739	0.9739
3730	0.9745
3721	0.975
3712	0.9756
3703	0.9762
3694	0.9768
3685	0.9773
3676	0.9778
3667	0.9785
3658	0.9791
3649	0.9797
3640	0.9803
3631	0.9804
3622	0.9804
3613	0.9804
3604	0.9803
3595	0.9801
3586	0.98
3577	0.9811
3568	0.9828
3559	0.9847
3550	0.9867
3541	0.9886
3532	0.9894
3523	0.9897
3514	0.9898
3505	0.9892
3496	0.9885
3487	0.9877
3478	0.9867
3469	0.986
3460	0.9851
3451	0.9843
3442	0.9835
3433	0.9832
3424	0.9834
3415	0.9836
3406	0.9837
3397	0.9848
3388	0.9866
3379	0.987
3370	0.9875
3361	0.988
3352	0.9884
3343	0.9887
3334	0.989
3325	0.9888
3316	0.9884
3307	0.9883
3298	0.9881
3289	0.988
3280	0.9878
3271	0.9878
3262	0.9877
3253	0.9875
3244	0.9871
3235	0.9867
3226	0.9864
3217	0.9859
3208	0.9851
3199	0.9842
3190	0.9827
3181	0.9813
3172	0.9791
3163	0.9768
3154	0.9746
3145	0.9718
3136	0.9675
3127	0.9601
3118	0.9504
3109	0.9389
3100	0.9204
3091	0.7797
3082	0.704
3073	0.7201
3064	0.7421
3055	0.7508
3046	0.7036
3037	0.6621
3028	0.6971
3019	0.7442
3010	0.7826
3001	0.773
2992	0.6986
2983	0.624
2974	0.5988
2965	0.547
2956	0.4837
2947	0.4689
2938	0.4842
2929	0.5005
2920	0.506
2911	0.5058
2902	0.5354
2893	0.5801
2884	0.6252
2875	0.6705
2866	0.7135
2857	0.7104
2848	0.6458
2839	0.6557
2830	0.6983
2821	0.7418
2812	0.7401
2803	0.6212
2794	0.5019
2785	0.4262
2776	0.4836
2767	0.5601
2758	0.6369
2749	0.6908
2740	0.7003
2731	0.7442
2722	0.7915
2713	0.8391
2704	0.8554
2695	0.8446
2686	0.8435
2677	0.8661
2668	0.8702
2659	0.8898
2650	0.9175
2641	0.9312
2632	0.9405
2623	0.9491
2614	0.9556
2605	0.9599
2596	0.9653
2587	0.9775
2578	0.9806
2569	0.9824
2560	0.9867
2551	0.9921
2542	0.9975
2533	0.9968
2524	0.9958
2515	0.9947
2506	0.9938
2497	0.9927
2488	0.9934
2479	0.9978
2470	1.0032
2461	1.0066
2452	1.0071
2443	1.0061
2434	1.0047
2425	1.0044
2416	1.0068
2407	1.0123
2398	1.0141
2389	1.013
2380	1.0118
2371	1.0107
2362	1.0096
2353	1.0085
2344	1.0073
2335	1.0062
2326	1.005
2317	1.0039
2308	1.0025
2299	1.0014
2290	1.0002
2281	0.999
2272	0.9978
2263	0.9971
2254	1.0031
2245	1.0081
2236	1.0112
2227	1.0128
2218	1.0134
2209	1.0128
2200	1.0107
2191	1.0077
2182	1.0057
2173	1.0042
2164	1.007
2155	1.0118
2146	1.014
2137	1.0147
2128	1.0112
2119	1.0071
2110	1.0091
2101	1.0118
2092	1.0111
2083	1.008
2074	1.006
2065	1.0032
2056	1.0028
2047	1.0038
2038	1.0038
2029	1.0028
2020	1.0009
2011	0.9987
2002	0.9981
1993	1.0002
1984	1.003
1975	1.0025
1966	0.9962
1957	0.9728
1948	0.9401
1939	0.9618
1930	0.9705
1921	0.9297
1912	0.9477
1903	0.9787
1894	0.9808
1885	0.9808
1876	0.9888
1867	0.9886
1858	0.9761
1849	0.9767
1840	0.98
1831	0.9696
1822	0.9649
1813	0.9766
1804	0.9748
1795	0.977
1786	0.9799
1777	0.9781
1768	0.9613
1759	0.9616
1750	0.9695
1741	0.9627
1732	0.9762
1723	0.9765
1714	0.9671
1705	0.9661
1696	0.964
1687	0.959
1678	0.939
1669	0.935
1660	0.9292
1651	0.9215
1642	0.926
1633	0.9351
1624	0.9352
1615	0.9339
1606	0.9287
1597	0.8943
1588	0.9315
1579	0.9389
1570	0.9305
1561	0.924
1552	0.9311
1543	0.9402
1534	0.9495
1525	0.9755
1516	0.967
1507	0.9184
1498	0.7588
1489	0.6471
1480	0.7751
1471	0.5055
1462	0.64
1453	0.6293
1444	0.6137
1435	0.6164
1426	0.7951
1417	0.8662
1408	0.8797
1399	0.9171
1390	0.8965
1381	0.6267
1372	0.7507
1363	0.8867
1354	0.8913
1345	0.8957
1336	0.8724
1327	0.8343
1318	0.8639
1309	0.8271
1300	0.6645
1291	0.611
1282	0.5319
1273	0.826
1264	0.8888
1255	0.8413
1246	0.8004
1237	0.895
1228	0.8914
1219	0.8343
1210	0.9042
1201	0.9159
1192	0.9184
1183	0.8771
1174	0.801
1165	0.8321
1156	0.7624
1147	0.7705
1138	0.4567
1129	0.5852
1120	0.8667
1111	0.831
1102	0.8407
1093	0.8825
1084	0.9125
1075	0.8403
1066	0.6578
1057	0.8731
1048	0.8893
1039	0.8175
1030	0.8759
1021	0.7482
1012	0.6715
1003	0.824
994	0.6186
985	0.8551
976	0.8913
967	0.8255
958	0.8587
949	0.7405
940	0.8796
931	0.9368
922	0.9417
913	0.9327
904	0.9397
895	0.9359
886	0.8689
877	0.7953
868	0.9078
859	0.8944
850	0.8481
841	0.9168
832	0.9408
823	0.9251
814	0.8899
805	0.7845
796	0.3776
787	0.724
778	0.5443
769	0.611
760	0.3516
751	0.38
742	0.5667
733	0.8882
724	0.8456
715	0.8718
706	0.92
697	0.9458
688	0.958
679	0.9509
