Infrared Spectrum: 1-CHLORO-2-METHYLANTHRAQUINONE
Formula: C15 H9 Cl O2
CAS: 129-35-1
State: SOLID (KBr PELLET)
Class: COBLENTZ
Instrument: Not specified, most likely a prism, grating, or hybrid spectrometer.
Sampling: TRANSMISSION
Resolution: 4
Origin: CORN PRODUCTS COMPANY
MICROMETERS	TRANSMITTANCE
2	0.679
2.03384	0.684
2.06767	0.691
2.10151	0.695
2.13535	0.698
2.16918	0.703
2.20302	0.706
2.23686	0.71
2.27069	0.717
2.30453	0.722
2.33837	0.727
2.3722	0.729
2.40604	0.727
2.43988	0.729
2.47371	0.732
2.50755	0.739
2.54139	0.741
2.57522	0.741
2.60906	0.744
2.6429	0.749
2.67673	0.752
2.71057	0.756
2.74441	0.754
2.77824	0.747
2.81208	0.727
2.84592	0.7
2.87975	0.676
2.91359	0.642
2.94743	0.632
2.98126	0.632
3.0151	0.64
3.04894	0.65
3.08277	0.676
3.11661	0.7
3.15045	0.712
3.18428	0.722
3.21812	0.73
3.25196	0.734
3.28579	0.727
3.31963	0.727
3.35347	0.729
3.3873	0.737
3.42114	0.741
3.45498	0.742
3.48881	0.746
3.52265	0.758
3.55649	0.759
3.59032	0.761
3.62416	0.771
3.658	0.778
3.69183	0.78
3.72567	0.78
3.75951	0.781
3.79334	0.783
3.82718	0.787
3.86102	0.788
3.89485	0.788
3.92869	0.788
3.96253	0.793
3.99636	0.793
4.0302	0.797
4.06404	0.797
4.09787	0.797
4.13171	0.798
4.16555	0.8
4.19938	0.802
4.23322	0.802
4.26706	0.802
4.30089	0.802
4.33473	0.802
4.36857	0.802
4.4024	0.802
4.43624	0.802
4.47008	0.804
4.50391	0.805
4.53775	0.807
4.57159	0.809
4.60542	0.809
4.63926	0.809
4.6731	0.809
4.70693	0.809
4.74077	0.809
4.77461	0.81
4.80844	0.81
4.84228	0.81
4.87612	0.814
4.90995	0.812
4.94379	0.81
4.97763	0.81
5.01146	0.81
5.0453	0.81
5.07914	0.809
5.11297	0.809
5.14681	0.807
5.18065	0.807
5.21448	0.809
5.24832	0.81
5.28216	0.812
5.31599	0.812
5.34983	0.812
5.38367	0.812
5.4175	0.814
5.45134	0.814
5.48518	0.816
5.51901	0.817
5.55285	0.819
5.58669	0.817
5.62052	0.814
5.65436	0.81
5.6882	0.807
5.72203	0.804
5.75587	0.802
5.78971	0.795
5.82354	0.781
5.85738	0.764
5.89122	0.747
5.92505	0.587
5.95889	0.112
5.99273	0.296
6.02656	0.606
6.0604	0.662
6.09424	0.698
6.12807	0.705
6.16191	0.71
6.19575	0.708
6.22958	0.689
6.26342	0.546
6.29726	0.398
6.33109	0.451
6.36493	0.628
6.39877	0.637
6.4326	0.56
6.46644	0.671
6.50028	0.72
6.53411	0.754
6.56795	0.768
6.60179	0.771
6.63562	0.78
6.66946	0.788
6.7033	0.79
6.73713	0.787
6.77097	0.764
6.80481	0.768
6.83864	0.763
6.87248	0.751
6.90632	0.73
6.94015	0.739
6.97399	0.735
7.00783	0.737
7.04166	0.761
7.0755	0.77
7.10934	0.771
7.14317	0.771
7.17701	0.764
7.21085	0.737
7.24468	0.65
7.27852	0.625
7.31236	0.72
7.34619	0.742
7.38003	0.742
7.41387	0.746
7.4477	0.73
7.48154	0.662
7.51538	0.466
7.54921	0.214
7.58305	0.172
7.61689	0.172
7.65072	0.236
7.68456	0.41
7.7184	0.49
7.75223	0.466
7.78607	0.454
7.81991	0.439
7.85374	0.344
7.88758	0.212
7.92142	0.303
7.95525	0.516
7.98909	0.58
8.02293	0.633
8.05676	0.684
8.0906	0.715
8.12444	0.735
8.15827	0.746
8.19211	0.751
8.22595	0.752
8.25978	0.737
8.29362	0.725
8.32746	0.727
8.36129	0.734
8.39513	0.737
8.42897	0.742
8.4628	0.739
8.49664	0.746
8.53048	0.751
8.56431	0.737
8.59815	0.676
8.63199	0.643
8.66582	0.669
8.69966	0.705
8.7335	0.722
8.76733	0.725
8.80117	0.717
8.83501	0.536
8.86884	0.449
8.90268	0.623
8.93652	0.708
8.97035	0.739
9.00419	0.759
9.03803	0.763
9.07186	0.771
9.1057	0.77
9.13954	0.764
9.17337	0.766
9.20721	0.77
9.24105	0.775
9.27488	0.776
9.30872	0.776
9.34256	0.776
9.37639	0.776
9.41023	0.776
9.44407	0.776
9.4779	0.776
9.51174	0.776
9.54558	0.773
9.57941	0.759
9.61325	0.712
9.64709	0.695
9.68092	0.7
9.71476	0.696
9.7486	0.683
9.78243	0.684
9.81627	0.708
9.85011	0.729
9.88394	0.735
9.91778	0.739
9.95162	0.741
9.98545	0.741
10.0193	0.741
10.0531	0.741
10.087	0.737
10.1208	0.732
10.1546	0.725
10.1885	0.654
10.2223	0.579
10.2561	0.587
10.29	0.632
10.3238	0.664
10.3577	0.7
10.3915	0.734
10.4253	0.747
10.4592	0.739
10.493	0.72
10.5268	0.713
10.5607	0.717
10.5945	0.744
10.6284	0.764
10.6622	0.776
10.696	0.78
10.7299	0.781
10.7637	0.781
10.7975	0.781
10.8314	0.781
10.8652	0.781
10.899	0.781
10.9329	0.781
10.9667	0.781
11.0006	0.781
11.0344	0.781
11.0682	0.781
11.1021	0.781
11.1359	0.78
11.1697	0.78
11.2036	0.78
11.2374	0.78
11.2712	0.78
11.3051	0.781
11.3389	0.781
11.3728	0.781
11.4066	0.781
11.4404	0.783
11.4743	0.783
11.5081	0.783
11.5419	0.783
11.5758	0.781
11.6096	0.778
11.6435	0.756
11.6773	0.742
11.7111	0.732
11.745	0.691
11.7788	0.666
11.8126	0.666
11.8465	0.7
11.8803	0.752
11.9141	0.771
11.948	0.78
11.9818	0.781
12.0157	0.781
12.0495	0.781
12.0833	0.781
12.1172	0.783
12.151	0.783
12.1848	0.783
12.2187	0.781
12.2525	0.77
12.2863	0.737
12.3202	0.722
12.354	0.735
12.3879	0.754
12.4217	0.77
12.4555	0.775
12.4894	0.776
12.5232	0.778
12.557	0.775
12.5909	0.771
12.6247	0.758
12.6586	0.747
12.6924	0.746
12.7262	0.756
12.7601	0.78
12.7939	0.781
12.8277	0.781
12.8616	0.781
12.8954	0.781
12.9292	0.781
12.9631	0.781
12.9969	0.781
13.0308	0.781
13.0646	0.78
13.0984	0.775
13.1323	0.739
13.1661	0.671
13.1999	0.628
13.2338	0.649
13.2676	0.695
13.3014	0.722
13.3353	0.735
13.3691	0.744
13.403	0.746
13.4368	0.737
13.4706	0.724
13.5045	0.715
13.5383	0.718
13.5721	0.725
13.606	0.734
13.6398	0.734
13.6737	0.732
13.7075	0.706
13.7413	0.659
13.7752	0.599
13.809	0.575
13.8428	0.601
13.8767	0.63
13.9105	0.632
13.9443	0.604
13.9782	0.56
14.012	0.499
14.0459	0.4
14.0797	0.304
14.1135	0.274
14.1474	0.27
14.1812	0.333
14.215	0.517
14.2489	0.628
14.2827	0.671
14.3165	0.696
14.3504	0.713
14.3842	0.73
14.4181	0.742
14.4519	0.751
14.4857	0.756
14.5196	0.759
14.5534	0.759
14.5872	0.761
14.6211	0.766
14.6549	0.766
14.6888	0.764
14.7226	0.763
14.7564	0.763
14.7903	0.763
14.8241	0.763
14.8579	0.761
14.8918	0.761
14.9256	0.761
14.9594	0.761
14.9933	0.761
15.0271	0.761
15.061	0.761
15.0948	0.758
15.1286	0.752
15.1625	0.749
15.1963	0.746
15.2301	0.746
15.264	0.747
15.2978	0.747
15.3316	0.744
15.3655	0.739
15.3993	0.715
15.4332	0.678
15.467	0.66
15.5008	0.684
