Infrared Spectrum: Pyrene
Formula: C 16 H 10
CAS: 129-00-0
State: gas
Instrument: HP-GC/MS/IRD
Origin: NIST Mass Spectrometry Data Center
1/CM	ABSORBANCE
550	0.0002958
562	8.84e-05
574	0.0001462
586	9.18e-05
598	6.12e-05
610	9.86e-05
622	5.95e-05
634	0.0001411
646	0.0001479
658	0.0002448
670	0.0001734
682	0.0002499
694	0.0015164
706	0.0077826
718	0.0037519
730	0.0017136
742	0.0033218
754	0.0007752
766	0.0001343
778	0.0001411
790	0.0001853
802	0.0003111
814	0.0009724
826	0.0056729
838	0.017
850	0.0058378
862	0.0009979
874	0.0002669
886	0.0002057
898	0.0001972
910	0.000102
922	0.0001309
934	0.0001054
946	0.0002227
958	0.0004726
970	0.0003434
982	0.0002533
994	0.0004505
1006	0.0003451
1018	0.0001071
1030	9.01e-05
1042	0.0002023
1054	0.0004182
1066	0.0002108
1078	0.0002312
1090	0.0007616
1102	0.0006358
1114	0.0002397
1126	0.000153
1138	0.0001377
1150	0.0001071
1162	0.0001292
1174	0.0012036
1186	0.0018683
1198	0.0002363
1210	0.0001479
1222	8.84e-05
1234	0.0003876
1246	0.0003978
1258	0.000136
1270	0.0001547
1282	0.0001411
1294	0.0001989
1306	0.0003876
1318	9.35e-05
1330	4.93e-05
1342	1.19e-05
1354	5.44e-05
1366	1.19e-05
1378	1.7e-05
1390	1.36e-05
1402	0.0001734
1414	0.0003587
1426	0.0010812
1438	0.0011101
1450	0.0005576
1462	0.0003587
1474	0.0002652
1486	0.0003893
1498	0.0004845
1510	0.0004573
1522	0.0001088
1534	0.0002992
1546	8.84e-05
1558	3.4e-05
1570	0.0003162
1582	0.0006681
1594	0.0013328
1606	0.0009418
1618	0.0002652
1630	0.0004199
1642	0.0004743
1654	0.0004828
1666	0.0003502
1678	0.0002397
1690	0.0002533
1702	0.0001666
1714	9.69e-05
1726	0.0002244
1738	0.000425
1750	0.0005508
1762	0.0002516
1774	0.0004318
1786	0.0012053
1798	0.0004947
1810	0.000136
1822	5.95e-05
1834	0.0001887
1846	0.0003621
1858	0.0005474
1870	0.0001802
1882	0.0001241
1894	0.0002482
1906	0.0008466
1918	0.0011356
1930	0.0008585
1942	0.0001768
1954	6.97e-05
1966	5.95e-05
1978	6.29e-05
1990	6.97e-05
2002	5.44e-05
2014	4.42e-05
2026	4.76e-05
2038	6.29e-05
2050	7.31e-05
2062	6.12e-05
2074	3.74e-05
2086	5.1e-05
2098	5.61e-05
2110	4.76e-05
2122	7.65e-05
2134	7.99e-05
2146	5.27e-05
2158	6.12e-05
2170	7.31e-05
2182	6.46e-05
2194	6.12e-05
2206	5.78e-05
2218	7.14e-05
2230	8.84e-05
2242	9.69e-05
2254	7.48e-05
2266	8.33e-05
2278	0.0001122
2290	8.84e-05
2302	5.27e-05
2314	2.55e-05
2326	7.65e-05
2338	7.14e-05
2350	0.000102
2362	3.23e-05
2374	3.4e-06
2386	5.61e-05
2398	5.61e-05
2410	5.27e-05
2422	7.65e-05
2434	4.25e-05
2446	5.44e-05
2458	5.61e-05
2470	5.27e-05
2482	5.95e-05
2494	0.0001003
2506	7.31e-05
2518	6.63e-05
2530	4.59e-05
2542	5.95e-05
2554	4.08e-05
2566	2.89e-05
2578	2.04e-05
2590	4.59e-05
2602	5.61e-05
2614	5.78e-05
2626	3.06e-05
2638	5.61e-05
2650	5.27e-05
2662	7.82e-05
2674	4.25e-05
2686	1.7e-05
2698	2.21e-05
2710	1.53e-05
2722	1.19e-05
2734	4.08e-05
2746	4.08e-05
2758	2.38e-05
2770	2.72e-05
2782	2.21e-05
2794	3.23e-05
2806	5.1e-05
2818	5.44e-05
2830	8.5e-05
2842	0.000102
2854	3.74e-05
2866	7.14e-05
2878	8.84e-05
2890	0.0001428
2902	0.000136
2914	0.0001173
2926	0.0002244
2938	0.0002074
2950	0.000255
2962	0.0003315
2974	0.0004437
2986	0.0005899
2998	0.0006154
3010	0.0006494
3022	0.0013498
3034	0.0049334
3046	0.012682
3058	0.0112319
3070	0.0039287
3082	0.0021318
3094	0.0015708
3106	0.0011577
3118	0.0006086
3130	0.0002958
3142	0.0002635
3154	0.0002448
3166	0.0001853
3178	9.01e-05
3190	0.0001156
3202	0.0001037
3214	8.16e-05
3226	0.0001003
3238	7.99e-05
3250	3.91e-05
3262	4.59e-05
3274	0.0001088
3286	5.27e-05
3298	5.78e-05
3310	4.76e-05
3322	4.93e-05
3334	1.36e-05
3346	4.93e-05
3358	5.78e-05
3370	4.93e-05
3382	7.31e-05
3394	6.97e-05
3406	5.61e-05
3418	7.14e-05
3430	5.95e-05
3442	3.4e-05
3454	5.27e-05
3466	7.31e-05
3478	6.12e-05
3490	3.06e-05
3502	5.1e-05
3514	3.4e-05
3526	7.99e-05
3538	4.76e-05
3550	9.52e-05
3562	8.84e-05
3574	5.27e-05
3586	4.76e-05
3598	9.01e-05
3610	2.21e-05
3622	5.1e-05
3634	8.16e-05
3646	3.4e-05
3658	4.25e-05
3670	1.36e-05
3682	7.31e-05
3694	8.84e-05
3706	7.14e-05
3718	8.84e-05
3730	7.82e-05
3742	9.69e-05
3754	0.0001479
3766	0.0001122
3778	0.0001632
3790	0.0001462
3802	0.0001224
3814	0.0001649
3826	0.00017
3838	0.0001717
