Infrared Spectrum: 1,1' BIS-(HYDROXYMETHYL) FERROCENE
Formula: C12 H14 Fe O2
CAS: 1291-48-1
State: SOLID (MINERAL OIL MULL)
Melting point: 105-107 C
Class: COBLENTZ
Instrument: Not specified, most likely a prism, grating, or hybrid spectrometer.
Sampling: TRANSMISSION
Resolution: 4
Origin: WYANDOTTE CHEMICALS CORP., WYANDOTTE, MICHIGAN, USA
MICROMETERS	TRANSMITTANCE
2.014	0.458
2.05481	0.477
2.09563	0.49
2.13644	0.49
2.17726	0.492
2.21807	0.504
2.25889	0.512
2.2997	0.562
2.34052	0.55
2.38133	0.558
2.42215	0.555
2.46296	0.543
2.50378	0.568
2.54459	0.601
2.5854	0.601
2.62622	0.625
2.66703	0.632
2.70785	0.633
2.74866	0.633
2.78948	0.625
2.83029	0.587
2.87111	0.492
2.91192	0.345
2.95274	0.175
2.99355	0.049
3.03437	0.017
3.07518	0.028
3.11599	0.066
3.15681	0.132
3.19762	0.178
3.23844	0.245
3.27925	0.274
3.32007	0.126
3.36088	0.01
3.4017	0.042
3.44251	0.064
3.48333	0.098
3.52414	0.344
3.56496	0.458
3.60577	0.524
3.64658	0.558
3.6874	0.553
3.72821	0.55
3.76903	0.575
3.80984	0.594
3.85066	0.63
3.89147	0.671
3.93229	0.696
3.9731	0.698
4.01392	0.703
4.05473	0.7
4.09554	0.698
4.13636	0.688
4.17717	0.693
4.21799	0.705
4.2588	0.695
4.29962	0.706
4.34043	0.72
4.38125	0.78
4.42206	0.776
4.46288	0.792
4.50369	0.798
4.54451	0.804
4.58532	0.798
4.62613	0.819
4.66695	0.814
4.70776	0.833
4.74858	0.834
4.78939	0.841
4.83021	0.851
4.87102	0.841
4.91184	0.846
4.95265	0.855
4.99347	0.863
5.03428	0.867
5.0751	0.862
5.11591	0.851
5.15672	0.853
5.19754	0.877
5.23835	0.877
5.27917	0.877
5.31998	0.88
5.3608	0.887
5.40161	0.892
5.44243	0.89
5.48324	0.894
5.52406	0.899
5.56487	0.901
5.60569	0.841
5.6465	0.821
5.68731	0.805
5.72813	0.771
5.76894	0.788
5.80976	0.737
5.85057	0.729
5.89139	0.747
5.9322	0.761
5.97302	0.754
6.01383	0.73
6.05465	0.727
6.09546	0.78
6.13628	0.805
6.17709	0.824
6.2179	0.839
6.25872	0.844
6.29953	0.86
6.34035	0.848
6.38116	0.838
6.42198	0.798
6.46279	0.792
6.50361	0.727
6.54442	0.657
6.58524	0.551
6.62605	0.449
6.66687	0.492
6.70768	0.54
6.74849	0.386
6.78931	0.274
6.83012	0.235
6.87094	0.223
6.91175	0.361
6.95257	0.529
6.99338	0.608
7.0342	0.654
7.07501	0.626
7.11583	0.466
7.15664	0.526
7.19745	0.538
7.23827	0.272
7.27908	0.446
7.3199	0.599
7.36071	0.473
7.40153	0.449
7.44234	0.57
7.48316	0.31
7.52397	0.536
7.56479	0.667
7.6056	0.698
7.64642	0.708
7.68723	0.691
7.72804	0.676
7.76886	0.691
7.80967	0.691
7.85049	0.7
7.8913	0.693
7.93212	0.645
7.97293	0.516
8.01375	0.427
8.05456	0.11
8.09538	0.352
8.13619	0.572
8.17701	0.65
8.21782	0.681
8.25863	0.688
8.29945	0.601
8.34026	0.402
8.38108	0.62
8.42189	0.592
8.46271	0.567
8.50352	0.705
8.54434	0.749
8.58515	0.771
8.62597	0.781
8.66678	0.783
8.7076	0.79
8.74841	0.807
8.78922	0.836
8.83004	0.851
8.87085	0.851
8.91167	0.851
8.95248	0.848
8.9933	0.853
9.03411	0.841
9.07493	0.822
9.11574	0.809
9.15656	0.81
9.19737	0.788
9.23819	0.775
9.279	0.751
9.31981	0.7
9.36063	0.638
9.40144	0.475
9.44226	0.252
9.48307	0.071
9.52389	0.057
9.5647	0.204
9.60552	0.144
9.64633	0.281
9.68715	0.308
9.72796	0.199
9.76878	0.183
9.80959	0.086
9.8504	0.31
9.89122	0.519
9.93203	0.609
9.97285	0.623
10.0137	0.509
10.0545	0.308
10.0953	0.056
10.1361	0.006
10.1769	0.01
10.2177	0.085
10.2586	0.224
10.2994	0.347
10.3402	0.413
10.381	0.516
10.4218	0.599
10.4626	0.645
10.5034	0.664
10.5443	0.655
10.5851	0.62
10.6259	0.591
10.6667	0.686
10.7075	0.732
10.7483	0.713
10.7891	0.551
10.83	0.282
10.8708	0.47
10.9116	0.344
10.9524	0.505
10.9932	0.674
11.034	0.737
11.0748	0.758
11.1157	0.78
11.1565	0.793
11.1973	0.79
11.2381	0.805
11.2789	0.817
11.3197	0.814
11.3605	0.781
11.4014	0.78
11.4422	0.706
11.483	0.608
11.5238	0.703
11.5646	0.759
11.6054	0.741
11.6462	0.601
11.6871	0.354
11.7279	0.357
11.7687	0.623
11.8095	0.638
11.8503	0.432
11.8911	0.403
11.9319	0.41
11.9728	0.466
12.0136	0.548
12.0544	0.33
12.0952	0.366
12.136	0.611
12.1768	0.642
12.2177	0.49
12.2585	0.465
12.2993	0.327
12.3401	0.153
12.3809	0.19
12.4217	0.25
12.4625	0.132
12.5034	0.134
12.5442	0.333
12.585	0.471
12.6258	0.551
12.6666	0.604
12.7074	0.643
12.7482	0.659
12.7891	0.659
12.8299	0.664
12.8707	0.657
12.9115	0.659
12.9523	0.657
12.9931	0.654
13.0339	0.638
13.0748	0.642
13.1156	0.63
13.1564	0.613
13.1972	0.611
13.238	0.589
13.2788	0.574
13.3196	0.546
13.3605	0.5
13.4013	0.441
13.4421	0.349
13.4829	0.226
13.5237	0.173
13.5645	0.233
13.6053	0.391
13.6462	0.505
13.687	0.562
13.7278	0.577
13.7686	0.56
13.8094	0.574
13.8502	0.55
13.8911	0.543
13.9319	0.519
13.9727	0.507
14.0135	0.488
14.0543	0.482
14.0951	0.463
14.1359	0.446
14.1768	0.419
14.2176	0.391
14.2584	0.362
14.2992	0.349
14.34	0.339
14.3808	0.374
14.4216	0.417
14.4625	0.442
14.5033	0.441
14.5441	0.422
14.5849	0.398
14.6257	0.378
14.6665	0.359
14.7073	0.34
14.7482	0.333
14.789	0.328
14.8298	0.321
14.8706	0.32
14.9114	0.306
14.9522	0.306
14.993	0.311
15.0339	0.31
15.0747	0.303
15.1155	0.293
15.1563	0.301
15.1971	0.315
15.2379	0.344
15.2787	0.364
15.3196	0.373
15.3604	0.378
15.4012	0.391
15.442	0.402
15.4828	0.412
15.5236	0.42
15.5644	0.419
15.6053	0.427
15.6461	0.436
15.6869	0.437
15.7277	0.449
15.7685	0.439
15.8093	0.444
15.8502	0.441
15.891	0.441
15.9318	0.449
15.9726	0.446
