Infrared Spectrum: Oxadiazole, 1,2,4-, 3-chloromethyl-5-(5-nitrofuran-2-yl)-
Formula: C7 H4 Cl N3 O4
CAS: 129206-53-7
State: LIQUID (NEAT)
Class: COBLENTZ III
Instrument: PERKIN-ELMER 21 (GRATING)
Instrument parameters: FILTER CHANGE AT 10 MICRON
Sampling: TRANSMISSION
Path length: CAPILLARY
Resolution: 2
Origin: ABBOTT LABORATORIES - WASHBURN
1/CM	TRANSMITTANCE
653	0.6315
662	0.786
671	0.8129
680	0.8312
689	0.844
698	0.8459
707	0.8524
716	0.8479
725	0.715
734	0.7622
743	0.4753
752	0.5436
761	0.7474
770	0.8074
779	0.8225
788	0.8198
797	0.8466
806	0.7593
815	0.4768
824	0.6281
833	0.76
842	0.8893
851	0.9207
860	0.9311
869	0.9307
878	0.9259
887	0.905
896	0.88
905	0.8354
914	0.8032
923	0.8926
932	0.9201
941	0.9209
950	0.9026
959	0.8544
968	0.6505
977	0.8867
986	0.9005
995	0.7469
1004	0.855
1013	0.6779
1022	0.5425
1031	0.8055
1040	0.8768
1049	0.8869
1058	0.8858
1067	0.8784
1076	0.8829
1085	0.8817
1094	0.8715
1103	0.8656
1112	0.8547
1121	0.8268
1130	0.8164
1139	0.8504
1148	0.8482
1157	0.8281
1166	0.8544
1175	0.8669
1184	0.7986
1193	0.8625
1202	0.8877
1211	0.8759
1220	0.8492
1229	0.8048
1238	0.7813
1247	0.6736
1256	0.7386
1265	0.668
1274	0.5927
1283	0.5473
1292	0.5988
1301	0.7234
1310	0.7282
1319	0.6256
1328	0.5929
1337	0.5324
1346	0.1412
1355	0.1521
1364	0.2324
1373	0.5026
1382	0.4392
1391	0.6241
1400	0.6929
1409	0.7175
1418	0.7377
1427	0.6007
1436	0.6363
1445	0.5964
1454	0.7064
1463	0.7619
1472	0.6978
1481	0.7064
1490	0.795
1499	0.7696
1508	0.5876
1517	0.3714
1526	0.3666
1535	0.4123
1544	0.5229
1553	0.6363
1562	0.5106
1571	0.3959
1580	0.7394
1589	0.8191
1598	0.8371
1607	0.8161
1616	0.7778
1625	0.6102
1634	0.5945
1643	0.5261
1652	0.7809
1661	0.804
1670	0.8374
1679	0.8424
1688	0.8426
1697	0.8425
1706	0.8517
1715	0.8566
1724	0.8488
1733	0.8448
1742	0.8517
1751	0.8687
1760	0.882
1769	0.8908
1778	0.8946
1787	0.897
1796	0.9007
1805	0.9058
1814	0.9089
1823	0.9114
1832	0.9126
1841	0.9182
1850	0.9195
1859	0.9169
1868	0.9147
1877	0.9168
1886	0.9185
1895	0.9186
1904	0.9189
1913	0.9179
1922	0.9168
1931	0.9165
1940	0.9163
1949	0.9159
1958	0.9152
1967	0.913
1976	0.9109
1985	0.9077
1994	0.9043
2003	0.9043
2012	0.9044
2021	0.9047
2030	0.9053
2039	0.9059
2048	0.9067
2057	0.9075
2066	0.9082
2075	0.909
2084	0.9091
2093	0.9089
2102	0.9088
2111	0.9087
2120	0.9077
2129	0.9066
2138	0.9056
2147	0.9048
2156	0.9058
2165	0.9063
2174	0.9062
2183	0.9061
2192	0.9058
2201	0.905
2210	0.9044
2219	0.9035
2228	0.9023
2237	0.901
2246	0.8997
2255	0.8984
2264	0.8972
2273	0.896
2282	0.8947
2291	0.8919
2300	0.8876
2309	0.8836
2318	0.8797
2327	0.8778
2336	0.8788
2345	0.8806
2354	0.8817
2363	0.8829
2372	0.8852
2381	0.887
2390	0.8853
2399	0.8823
2408	0.8812
2417	0.8826
2426	0.8843
2435	0.886
2444	0.8862
2453	0.8842
2462	0.8814
2471	0.878
2480	0.8741
2489	0.8725
2498	0.8711
2507	0.8702
2516	0.8693
2525	0.8686
2534	0.8677
2543	0.8669
2552	0.8661
2561	0.8652
2570	0.8642
2579	0.8632
2588	0.8621
2597	0.8609
2606	0.8596
2615	0.8585
2624	0.8576
2633	0.8567
2642	0.8554
2651	0.854
2660	0.852
2669	0.85
2678	0.848
2687	0.846
2696	0.8438
2705	0.8416
2714	0.8394
2723	0.8372
2732	0.835
2741	0.8328
2750	0.8306
2759	0.8299
2768	0.8299
2777	0.8311
2786	0.8317
2795	0.8302
2804	0.8274
2813	0.8237
2822	0.8195
2831	0.814
2840	0.8084
2849	0.8029
2858	0.798
2867	0.7934
2876	0.7908
2885	0.7893
2894	0.7886
2903	0.7877
2912	0.7839
2921	0.7775
2930	0.7715
2939	0.771
2948	0.774
2957	0.7773
2966	0.7797
2975	0.7825
2984	0.7858
2993	0.7904
3002	0.7966
3011	0.8025
3020	0.8043
3029	0.8043
3038	0.8054
3047	0.8082
3056	0.8124
3065	0.8138
3074	0.8128
3083	0.81
3092	0.8054
3101	0.7994
3110	0.791
3119	0.7789
3128	0.7484
3137	0.7221
3146	0.7123
3155	0.7079
3164	0.7083
3173	0.7245
3182	0.7548
3191	0.785
3200	0.8158
3209	0.832
3218	0.8395
3227	0.8459
3236	0.8509
3245	0.8555
3254	0.8593
3263	0.8605
3272	0.8611
3281	0.8608
3290	0.8583
3299	0.8556
3308	0.8528
3317	0.8502
3326	0.8481
3335	0.846
3344	0.8443
3353	0.8427
3362	0.8412
3371	0.8401
3380	0.839
3389	0.8385
3398	0.8391
3407	0.8397
3416	0.8403
3425	0.8408
3434	0.8409
3443	0.8412
3452	0.8414
3461	0.8416
3470	0.8418
3479	0.8425
3488	0.8433
3497	0.8442
3506	0.8452
3515	0.8462
3524	0.8472
3533	0.8482
3542	0.8493
3551	0.8502
3560	0.8514
3569	0.8529
3578	0.8543
3587	0.8558
3596	0.8573
3605	0.8587
3614	0.8601
3623	0.8611
3632	0.8621
3641	0.8631
3650	0.864
3659	0.865
3668	0.8655
3677	0.8657
3686	0.8657
3695	0.8659
3704	0.8661
3713	0.866
3722	0.8655
3731	0.8649
3740	0.8643
3749	0.8637
3758	0.8632
3767	0.863
3776	0.8628
3785	0.8626
3794	0.8623
3803	0.8621
3812	0.862
3821	0.8629
3830	0.8642
3839	0.866
3848	0.8678
3857	0.8687
3866	0.8679
3875	0.867
3884	0.8659
3893	0.8646
3902	0.8633
3911	0.8625
3920	0.8616
3929	0.8607
3938	0.8599
3947	0.859
3956	0.8581
3965	0.8573
3974	0.8564
3983	0.8556
3992	0.8547
