Infrared Spectrum: ANILINE, 4-tert-BUTYL-3-METHYL-
Formula: C11 H17 N
CAS: 129373-05-3
State: LIQUID (NEAT)
Class: COBLENTZ III
Instrument: BECKMAN IR-4 (HYBRID PRISM-GRATING)
Instrument parameters: NaCl PRISM
Sampling: TRANSMISSION
Path length: CAPILLARY
Resolution: 2
Origin: MONSANTO (J. FREEMAN)
1/CM	TRANSMITTANCE
626	0.4002
635	0.3844
644	0.3615
653	0.3509
662	0.3917
671	0.3941
680	0.3823
689	0.3775
698	0.3829
707	0.3936
716	0.4098
725	0.4514
734	0.5413
743	0.4644
752	0.4577
761	0.4749
770	0.4955
779	0.5195
788	0.533
797	0.4948
806	0.29
815	0.1836
824	0.3145
833	0.4793
842	0.5493
851	0.3771
860	0.284
869	0.3671
878	0.525
887	0.6402
896	0.6967
905	0.7256
914	0.7371
923	0.7028
932	0.7143
941	0.7258
950	0.6899
959	0.7026
968	0.7824
977	0.7832
986	0.7767
995	0.7382
1004	0.5933
1013	0.6772
1022	0.5655
1031	0.6783
1040	0.7128
1049	0.7915
1058	0.8128
1067	0.8126
1076	0.6852
1085	0.7572
1094	0.8026
1103	0.8047
1112	0.8013
1121	0.7894
1130	0.7044
1139	0.4339
1148	0.593
1157	0.7553
1166	0.7576
1175	0.7231
1184	0.5413
1193	0.5325
1202	0.4903
1211	0.5953
1220	0.6683
1229	0.7031
1238	0.7032
1247	0.5954
1256	0.2925
1265	0.2273
1274	0.1842
1283	0.4099
1292	0.3669
1301	0.2639
1310	0.5384
1319	0.4807
1328	0.4881
1337	0.688
1346	0.7777
1355	0.7887
1364	0.6671
1373	0.3268
1382	0.5218
1391	0.4666
1400	0.5362
1409	0.5682
1418	0.654
1427	0.634
1436	0.4925
1445	0.4642
1454	0.4143
1463	0.3811
1472	0.3393
1481	0.3106
1490	0.3029
1499	0.2769
1508	0.1579
1517	0.1543
1526	0.305
1535	0.392
1544	0.5342
1553	0.5819
1562	0.6524
1571	0.6419
1580	0.4501
1589	0.3604
1598	0.4702
1607	0.392
1616	0.1933
1625	0.1189
1634	0.1172
1643	0.1457
1652	0.2596
1661	0.3682
1670	0.5162
1679	0.642
1688	0.7308
1697	0.7752
1706	0.8017
1715	0.8199
1724	0.836
1733	0.851
1742	0.862
1751	0.8676
1760	0.8708
1769	0.8756
1778	0.8848
1787	0.8904
1796	0.8963
1805	0.8974
1814	0.8953
1823	0.8948
1832	0.8946
1841	0.8937
1850	0.8907
1859	0.8837
1868	0.8733
1877	0.8599
1886	0.8449
1895	0.8366
1904	0.8464
1913	0.8617
1922	0.8727
1931	0.8778
1940	0.8799
1949	0.8864
1958	0.8902
1967	0.8927
1976	0.8945
1985	0.8957
1994	0.8968
2003	0.8974
2012	0.8979
2021	0.8982
2030	0.8986
2039	0.8988
2048	0.8992
2057	0.9001
2066	0.9009
2075	0.9053
2084	0.9108
2093	0.9138
2102	0.9135
2111	0.9122
2120	0.91
2129	0.9087
2138	0.9083
2147	0.9094
2156	0.9092
2165	0.9067
2174	0.9083
2183	0.9146
2192	0.9162
2201	0.9156
2210	0.9146
2219	0.913
2228	0.9128
2237	0.9131
2246	0.9139
2255	0.9149
2264	0.9159
2273	0.917
2282	0.9171
2291	0.9162
2300	0.9141
2309	0.9118
2318	0.9121
2327	0.9128
2336	0.9141
2345	0.9154
2354	0.9166
2363	0.9175
2372	0.9183
2381	0.919
2390	0.9191
2399	0.9192
2408	0.9191
2417	0.9189
2426	0.9186
2435	0.9185
2444	0.9196
2453	0.9207
2462	0.9215
2471	0.9216
2480	0.9212
2489	0.9204
2498	0.9201
2507	0.9205
2516	0.9209
2525	0.9216
2534	0.9222
2543	0.9224
2552	0.9223
2561	0.9216
2570	0.9196
2579	0.9142
2588	0.9079
2597	0.902
2606	0.8987
2615	0.8965
2624	0.8962
2633	0.8973
2642	0.8988
2651	0.901
2660	0.9033
2669	0.9053
2678	0.9073
2687	0.9079
2696	0.9056
2705	0.9021
2714	0.8975
2723	0.8911
2732	0.8796
2741	0.8666
2750	0.8526
2759	0.8424
2768	0.8397
2777	0.8392
2786	0.8401
2795	0.8429
2804	0.8466
2813	0.8496
2822	0.85
2831	0.8475
2840	0.8388
2849	0.8294
2858	0.8168
2867	0.7946
2876	0.7629
2885	0.7114
2894	0.5542
2903	0.407
2912	0.3507
2921	0.3004
2930	0.2724
2939	0.2535
2948	0.2354
2957	0.2188
2966	0.2044
2975	0.1892
2984	0.1287
2993	0.1286
3002	0.1475
3011	0.1746
3020	0.2019
3029	0.228
3038	0.2713
3047	0.3198
3056	0.3681
3065	0.416
3074	0.4638
3083	0.5013
3092	0.5374
3101	0.5888
3110	0.6071
3119	0.6566
3128	0.6846
3137	0.702
3146	0.7142
3155	0.7236
3164	0.7301
3173	0.7344
3182	0.735
3191	0.7346
3200	0.7324
3209	0.7106
3218	0.6849
3227	0.6594
3236	0.6339
3245	0.6087
3254	0.5835
3263	0.5585
3272	0.5497
3281	0.5596
3290	0.5697
3299	0.5799
3308	0.5899
3317	0.5993
3326	0.5976
3335	0.5592
3344	0.5134
3353	0.4677
3362	0.4223
3371	0.3771
3380	0.3328
3389	0.3195
3398	0.3195
3407	0.3279
3416	0.35
3425	0.3719
3434	0.3937
3443	0.4154
3452	0.418
3461	0.4177
3470	0.4171
3479	0.4169
3488	0.4177
3497	0.4437
3506	0.4829
3515	0.5218
3524	0.5606
3533	0.5991
3542	0.6375
3551	0.6757
3560	0.7136
3569	0.7732
3578	0.7919
3587	0.8018
3596	0.8077
3605	0.8136
3614	0.8195
3623	0.8247
3632	0.8297
3641	0.8331
3650	0.836
3659	0.8388
3668	0.8409
3677	0.8427
3686	0.8445
3695	0.8459
3704	0.8474
3713	0.8488
3722	0.8502
3731	0.8516
3740	0.8528
3749	0.8539
3758	0.855
3767	0.856
3776	0.8571
3785	0.8581
3794	0.8591
3803	0.86
3812	0.861
3821	0.8619
3830	0.8628
3839	0.8636
3848	0.8645
3857	0.8653
3866	0.8659
3875	0.8664
3884	0.867
3893	0.8675
3902	0.8681
3911	0.8684
3920	0.8682
3929	0.8682
3938	0.868
3947	0.868
3956	0.8678
3965	0.8673
3974	0.8665
3983	0.8658
3992	0.8649
