Infrared Spectrum: 3,5-Difluorobenzoyl chloride
Formula: C 7 H 3 Cl F 2 O
CAS: 129714-97-2
State: gas
Origin: EPA-IR VAPOR PHASE LIBRARY
1/CM	ABSORBANCE
549.8	0.00244
559.445	0.00246
569.09	0.0051
578.735	0.00781
588.38	0.00463
598.025	0.00234
607.67	0.0019809
617.315	0.00248
626.96	0.00289
636.605	0.00342
646.251	0.00644
655.896	0.00712
665.541	0.00406
675.186	0.00299
684.831	0.00514
694.476	0.01321
704.121	0.02061
713.766	0.01231
723.411	0.012
733.056	0.0196
742.701	0.02249
752.346	0.03701
761.991	0.12569
771.636	0.19357
781.281	0.08202
790.926	0.02764
800.571	0.01794
810.216	0.01202
819.861	0.00622
829.507	0.00526
839.152	0.00702
848.797	0.00954
858.442	0.01945
868.087	0.0364
877.732	0.03312
887.377	0.01697
897.022	0.0063
906.667	0.00362
916.312	0.00316
925.957	0.00279
935.602	0.00295
945.247	0.00358
954.892	0.00557
964.537	0.01309
974.182	0.03047
983.827	0.06673
993.472	0.07226
1003.12	0.03623
1012.76	0.022
1022.41	0.00986
1032.05	0.00562
1041.7	0.00493
1051.34	0.00422
1060.99	0.00396
1070.63	0.00435
1080.28	0.00439
1089.92	0.00552
1099.57	0.00906
1109.21	0.01743
1118.86	0.0717
1128.5	0.16644
1138.15	0.11712
1147.79	0.0231
1157.44	0.00838
1167.08	0.00597
1176.73	0.00459
1186.37	0.0041
1196.02	0.00307
1205.66	0.00352
1215.31	0.00408
1224.95	0.00312
1234.6	0.00293
1244.24	0.00327
1253.89	0.00326
1263.53	0.00356
1273.18	0.00476
1282.82	0.00754
1292.47	0.01804
1302.11	0.04325
1311.76	0.09216
1321.4	0.14947
1331.05	0.09954
1340.69	0.02581
1350.34	0.01274
1359.98	0.01127
1369.63	0.00832
1379.27	0.00744
1388.92	0.0074
1398.56	0.00796
1408.21	0.00745
1417.85	0.00899
1427.5	0.0298
1437.14	0.07803
1446.79	0.07722
1456.43	0.03566
1466.08	0.02724
1475.73	0.01558
1485.37	0.00827
1495.02	0.00569
1504.66	0.00576
1514.31	0.00797
1523.95	0.00857
1533.6	0.00713
1543.24	0.00778
1552.89	0.00937
1562.53	0.01321
1572.18	0.02016
1581.82	0.03227
1591.47	0.06057
1601.11	0.09008
1610.76	0.08339
1620.4	0.04507
1630.05	0.01919
1639.69	0.01514
1649.34	0.01014
1658.98	0.0079
1668.63	0.00729
1678.27	0.00455
1687.92	0.00342
1697.56	0.00383
1707.21	0.00533
1716.85	0.00831
1726.5	0.0129
1736.14	0.0185
1745.79	0.02876
1755.43	0.04628
1765.08	0.06769
1774.72	0.08095
1784.37	0.09354
1794.01	0.0875
1803.66	0.04359
1813.3	0.0173
1822.95	0.01375
1832.59	0.00903
1842.24	0.00426
1851.88	0.00272
1861.53	0.00244
1871.17	0.00239
1880.82	0.00257
1890.46	0.00316
1900.11	0.00342
1909.75	0.00277
1919.4	0.00226
1929.04	0.00215
1938.69	0.0019212
1948.33	0.0016434
1957.98	0.0015693
1967.62	0.0014665
1977.27	0.001526
1986.91	0.0015332
1996.56	0.0016044
2006.2	0.0015902
2015.85	0.0015024
2025.49	0.0013579
2035.14	0.00121047
2044.78	0.00116975
2054.43	0.0011674
2064.07	0.00114721
2073.72	0.00116208
2083.36	0.0013401
2093.01	0.0015094
2102.65	0.0018098
2112.3	0.0022
2121.94	0.00246
2131.59	0.00231
2141.23	0.001811
2150.88	0.0012889
2160.52	0.00113545
2170.17	0.0010717
2179.81	0.0010781
2189.46	0.0010364
2199.1	0.0010246
2208.75	0.00116923
2218.39	0.0010396
2228.04	0.00121185
2237.68	0.0014017
2247.33	0.0016149
2256.97	0.0017915
2266.62	0.0013778
2276.26	0.000985
2285.91	0.000965
2295.55	0.00111569
2305.2	0.0012724
2314.84	0.0013984
2324.49	0.0012964
2334.13	0.00121113
2343.78	0.0012165
2353.42	0.001006
2363.07	0.00086
2372.72	0.000897
2382.36	0.000911
2392.01	0.00086
2401.65	0.000873
2411.3	0.000866
2420.94	0.0012501
2430.59	0.0017487
2440.23	0.0019341
2449.88	0.0019481
2459.52	0.0013863
2469.17	0.000994
2478.81	0.000915
2488.46	0.000774
2498.1	0.000829
2507.75	0.000873
2517.39	0.0010343
2527.04	0.000981
2536.68	0.000833
2546.33	0.000813
2555.97	0.000933
2565.62	0.0012653
2575.26	0.0014397
2584.91	0.0013921
2594.55	0.0012304
2604.2	0.00113775
2613.84	0.001092
2623.49	0.00113241
2633.13	0.0013539
2642.78	0.0014138
2652.42	0.0010914
2662.07	0.000666
2671.71	0.000605
2681.36	0.000564
2691	0.000545
2700.65	0.000382
2710.29	0.000563
2719.94	0.000649
2729.58	0.000836
2739.23	0.000961
2748.87	0.000793
2758.52	0.00064
2768.16	0.000568
2777.81	0.000454
2787.45	0.000396
2797.1	0.000319
2806.74	0.000343
2816.39	0.000379
2826.03	0.000243
2835.68	0.000155
2845.32	0.000179
2854.97	0.000123
2864.61	0.000146
2874.26	0.000234
2883.9	0.000251
2893.55	0.000386
2903.19	0.00051
2912.84	0.00075
2922.48	0.00066
2932.13	0.000537
2941.77	0.000371
2951.42	0.000249
2961.06	0.000172
2970.71	0.000246
2980.35	6e-05
2990	0.0001
2999.64	4e-05
3009.29	0.000158
3018.93	9e-05
3028.58	0.000125
3038.22	0.000238
3047.87	0.00064
3057.51	0.0010967
3067.16	0.0015375
3076.8	0.0013726
3086.45	0.002093
3096.09	0.00472
3105.74	0.00603
3115.38	0.00297
3125.03	0.000607
3134.67	0.000369
3144.32	0.000158
3153.96	0.000182
3163.61	0.000281
3173.25	0.00013
3182.9	0.000383
3192.54	0.000337
3202.19	0.000318
3211.83	0.000439
3221.48	0.000448
3231.12	0.00033
3240.77	0.000379
3250.41	0.000526
3260.06	0.000408
3269.7	0.000399
3279.35	0.000299
3289	0.000326
3298.64	0.000391
3308.29	0.00043
3317.93	0.000357
3327.58	0.000443
3337.22	0.000388
3346.87	0.000489
3356.51	0.00046
3366.16	0.000561
3375.8	0.000558
3385.45	0.000529
3395.09	0.00057
3404.74	0.000524
3414.38	0.000562
3424.03	0.000418
3433.67	0.000574
3443.32	0.000638
3452.96	0.000605
3462.61	0.000783
3472.25	0.000753
3481.9	0.000861
3491.54	0.000848
3501.19	0.0013194
3510.83	0.0015976
3520.48	0.0020737
3530.12	0.00241
3539.77	0.0019938
3549.41	0.0016591
3559.06	0.0013736
3568.7	0.0012804
3578.35	0.00115629
3587.99	0.000958
3597.64	0.000922
3607.28	0.000816
3616.93	0.000807
3626.57	0.00065
3636.22	0.000734
3645.86	0.000667
3655.51	0.000679
3665.15	0.000732
3674.8	0.000542
3684.44	0.000754
3694.09	0.00073
3703.73	0.000615
3713.38	0.000568
3723.02	0.000662
3732.67	0.000603
3742.31	0.000524
3751.96	0.000602
3761.6	0.000683
3771.25	0.000648
3780.89	0.000723
3790.54	0.00056
3800.18	0.000658
3809.83	0.00057
3819.47	0.000507
3829.12	0.000626
3838.76	0.000503
3848.41	0.000574
3858.05	0.000529
3867.7	0.000685
3877.34	0.000515
3886.99	0.000532
3896.63	0.000471
3906.28	0.000474
3915.92	0.00062
3925.57	0.00055
3935.21	0.000511
3944.86	0.000381
3954.5	0.00044
3964.15	0.000541
3973.79	0.000662
3983.44	0.000425
3993.08	0.00045
