Infrared Spectrum: 5-Chloro-7-iodo-8-quinolinol
Formula: C9 H5 Cl I N O
CAS: 130-26-7
State: SOLID (SPLIT MULL vs. SCREEN), FLUOROLUBE FOR 3800-1330 CM^-^1, NUJOL FOR 1330-400 CM^-^1
Class: COBLENTZ III
Instrument: BECKMAN IR-9 (GRATING)
Instrument parameters: ORDER CHANGES: 670, 1200, 2000 CM^-^1
Sampling: TRANSMISSION
Resolution: 2
Origin: DOW CHEMICAL COMPANY
1/CM	TRANSMITTANCE
3800	0.7488
3791	0.7541
3782	0.7607
3773	0.7671
3764	0.7738
3755	0.7808
3746	0.7883
3737	0.7958
3728	0.8032
3719	0.8106
3710	0.818
3701	0.8249
3692	0.8315
3683	0.8381
3674	0.8447
3665	0.8516
3656	0.8587
3647	0.8658
3638	0.8728
3629	0.8793
3620	0.8855
3611	0.8916
3602	0.8981
3593	0.9056
3584	0.9128
3575	0.9196
3566	0.9259
3557	0.9317
3548	0.9375
3539	0.9438
3530	0.9496
3521	0.9549
3512	0.9603
3503	0.9651
3494	0.97
3485	0.9744
3476	0.9786
3467	0.9828
3458	0.9874
3449	0.9912
3440	0.9938
3431	0.9947
3422	0.9957
3413	0.9959
3404	0.9961
3395	0.9962
3386	0.996
3377	0.9956
3368	0.9942
3359	0.991
3350	0.9828
3341	0.9711
3332	0.9512
3323	0.93
3314	0.9086
3305	0.8731
3296	0.84
3287	0.7965
3278	0.7607
3269	0.7281
3260	0.6925
3251	0.6589
3242	0.6248
3233	0.5948
3224	0.5698
3215	0.5532
3206	0.5398
3197	0.5272
3188	0.5152
3179	0.503
3170	0.4921
3161	0.4827
3152	0.4762
3143	0.472
3134	0.4667
3125	0.4618
3116	0.4552
3107	0.4477
3098	0.4346
3089	0.4191
3080	0.3924
3071	0.3989
3062	0.4375
3053	0.4591
3044	0.4738
3035	0.4883
3026	0.5018
3017	0.5151
3008	0.5271
2999	0.5387
2990	0.5499
2981	0.5604
2972	0.5706
2963	0.5797
2954	0.5897
2945	0.6008
2936	0.6204
2927	0.6368
2918	0.6475
2909	0.6439
2900	0.6428
2891	0.6485
2882	0.6545
2873	0.6518
2864	0.6495
2855	0.6554
2846	0.6626
2837	0.6665
2828	0.6697
2819	0.6768
2810	0.685
2801	0.693
2792	0.6974
2783	0.6975
2774	0.7004
2765	0.7068
2756	0.7176
2747	0.7285
2738	0.7375
2729	0.7437
2720	0.7432
2711	0.7415
2702	0.7428
2693	0.7481
2684	0.7568
2675	0.7661
2666	0.774
2657	0.7794
2648	0.7815
2639	0.7806
2630	0.7764
2621	0.7749
2612	0.7825
2603	0.7846
2594	0.783
2585	0.7806
2576	0.7786
2567	0.7784
2558	0.7799
2549	0.7825
2540	0.7847
2531	0.7835
2522	0.7808
2513	0.7761
2504	0.7687
2495	0.7688
2486	0.7733
2477	0.7792
2468	0.784
2459	0.7854
2450	0.7843
2441	0.7833
2432	0.7845
2423	0.7883
2414	0.7936
2405	0.7999
2396	0.8068
2387	0.8136
2378	0.8199
2369	0.8262
2360	0.8309
2351	0.8341
2342	0.8366
2333	0.8406
2324	0.8457
2315	0.841
2306	0.8373
2297	0.836
2288	0.8344
2279	0.8328
2270	0.8328
2261	0.8338
2252	0.8356
2243	0.842
2234	0.8513
2225	0.8605
2216	0.87
2207	0.8743
2198	0.8665
2189	0.8621
2180	0.8612
2171	0.8607
2162	0.8623
2153	0.8639
2144	0.8658
2135	0.8606
2126	0.8548
2117	0.8516
2108	0.8518
2099	0.8599
2090	0.8703
2081	0.8705
2072	0.8664
2063	0.8578
2054	0.8431
2045	0.849
2036	0.8583
2027	0.866
2018	0.8741
2009	0.8804
2000	0.876
1991	0.8815
1982	0.8909
1973	0.8595
1964	0.8542
1955	0.8794
1946	0.8688
1937	0.8513
1928	0.854
1919	0.8665
1910	0.8552
1901	0.8353
1892	0.8559
1883	0.8574
1874	0.8552
1865	0.8608
1856	0.8593
1847	0.859
1838	0.8649
1829	0.8714
1820	0.8766
1811	0.8794
1802	0.8805
1793	0.8766
1784	0.8763
1775	0.8792
1766	0.8771
1757	0.8698
1748	0.8391
1739	0.8321
1730	0.8377
1721	0.8437
1712	0.8525
1703	0.8565
1694	0.8536
1685	0.8638
1676	0.8739
1667	0.8802
1658	0.874
1649	0.8635
1640	0.8554
1631	0.8434
1622	0.816
1613	0.7618
1604	0.6818
1595	0.7425
1586	0.6253
1577	0.4664
1568	0.5926
1559	0.6568
1550	0.7641
1541	0.7961
1532	0.8423
1523	0.8685
1514	0.8512
1505	0.7671
1496	0.3532
1487	0.1919
1478	0.411
1469	0.4707
1460	0.3309
1451	0.4488
1442	0.547
1433	0.5442
1424	0.4824
1415	0.2385
1406	0.1277
1397	0.0456
1388	0.0989
1379	0.2031
1370	0.1483
1361	0.28
1352	0.2238
1343	0.0974
1334	0.0427
1325	0.082
1316	0.2538
1307	0.3832
1298	0.4989
1289	0.5031
1280	0.3373
1271	0.224
1262	0.4678
1253	0.5268
1244	0.4787
1235	0.4522
1226	0.4295
1217	0.3396
1208	0.0764
1199	0.169
1190	0.3886
1181	0.525
1172	0.5901
1163	0.617
1154	0.6149
1145	0.5039
1136	0.5216
1127	0.696
1118	0.7233
1109	0.7328
1100	0.7267
1091	0.6968
1082	0.7085
1073	0.724
1064	0.7238
1055	0.6555
1046	0.5085
1037	0.7193
1028	0.7407
1019	0.7678
1010	0.7775
1001	0.7782
992	0.7572
983	0.7271
974	0.7026
965	0.5518
956	0.1743
947	0.6106
938	0.6725
929	0.6108
920	0.611
911	0.6662
902	0.7071
893	0.6692
884	0.4725
875	0.3778
866	0.5946
857	0.586
848	0.5653
839	0.6625
830	0.6526
821	0.5924
812	0.2662
803	0.5016
794	0.4409
785	0.3686
776	0.6997
767	0.6961
758	0.6712
749	0.6038
740	0.4802
731	0.2958
722	0.3557
713	0.6451
704	0.7321
695	0.7991
686	0.8186
677	0.8128
668	0.7733
659	0.4936
650	0.3637
641	0.753
632	0.7801
623	0.7639
614	0.7499
605	0.771
596	0.7701
587	0.7885
578	0.7568
569	0.7044
560	0.7558
551	0.726
542	0.8467
533	0.8506
524	0.837
515	0.8114
506	0.7342
497	0.7855
488	0.8048
479	0.8106
470	0.7953
461	0.7844
452	0.7811
443	0.7822
434	0.7918
425	0.8068
416	0.8208
407	0.8305
