Infrared Spectrum: THIORIDAZINE HYDROCHLORIDE
Formula: C21 H27 Cl N2 S2
CAS: 130-61-0
State: SOLID (KCl DISC)
Melting point: 158-160 C
Class: COBLENTZ
Instrument: PERKIN-ELMER 21 (GRATING)
Instrument parameters: FILTER AT ABOUT 10 MICRONS
Sampling: TRANSMISSION
Resolution: 2
1/CM	TRANSMITTANCE
4000	0.8872
3991	0.8873
3982	0.8868
3973	0.8875
3964	0.8876
3955	0.8874
3946	0.8874
3937	0.8882
3928	0.8885
3919	0.8889
3910	0.8896
3901	0.8903
3892	0.8907
3883	0.8913
3874	0.892
3865	0.893
3856	0.894
3847	0.8949
3838	0.8962
3829	0.8975
3820	0.8984
3811	0.899
3802	0.8993
3793	0.8995
3784	0.8998
3775	0.8997
3766	0.8999
3757	0.9001
3748	0.9004
3739	0.9003
3730	0.9001
3721	0.901
3712	0.9008
3703	0.901
3694	0.9012
3685	0.9011
3676	0.9015
3667	0.9017
3658	0.9022
3649	0.9023
3640	0.9024
3631	0.9032
3622	0.9033
3613	0.9037
3604	0.9016
3595	0.8996
3586	0.8966
3577	0.8913
3568	0.8859
3559	0.8794
3550	0.8705
3541	0.8619
3532	0.8534
3523	0.8447
3514	0.8361
3505	0.8275
3496	0.8187
3487	0.8096
3478	0.8018
3469	0.7934
3460	0.7851
3451	0.7766
3442	0.7682
3433	0.7606
3424	0.7526
3415	0.746
3406	0.7408
3397	0.7359
3388	0.7313
3379	0.7272
3370	0.7227
3361	0.7192
3352	0.7174
3343	0.7156
3334	0.7164
3325	0.7202
3316	0.7242
3307	0.7279
3298	0.7319
3289	0.7396
3280	0.7492
3271	0.7584
3262	0.7677
3253	0.7781
3244	0.7889
3235	0.7995
3226	0.8096
3217	0.8188
3208	0.828
3199	0.8367
3190	0.8426
3181	0.8488
3172	0.8549
3163	0.8608
3154	0.8667
3145	0.8722
3136	0.8778
3127	0.883
3118	0.8883
3109	0.8921
3100	0.8943
3091	0.8954
3082	0.8966
3073	0.8971
3064	0.8968
3055	0.896
3046	0.8885
3037	0.8755
3028	0.8697
3019	0.8671
3010	0.8669
3001	0.8693
2992	0.8719
2983	0.8717
2974	0.8675
2965	0.8597
2956	0.8109
2947	0.7375
2938	0.6909
2929	0.6765
2920	0.6646
2911	0.6556
2902	0.6504
2893	0.6453
2884	0.6529
2875	0.6621
2866	0.6731
2857	0.6833
2848	0.6845
2839	0.6841
2830	0.6921
2821	0.7092
2812	0.733
2803	0.7566
2794	0.7766
2785	0.7959
2776	0.8059
2767	0.8112
2758	0.8131
2749	0.8148
2740	0.8162
2731	0.8176
2722	0.8187
2713	0.8184
2704	0.8181
2695	0.8176
2686	0.8191
2677	0.8146
2668	0.8081
2659	0.7767
2650	0.7647
2641	0.758
2632	0.7516
2623	0.7457
2614	0.7392
2605	0.7318
2596	0.7227
2587	0.711
2578	0.6939
2569	0.6714
2560	0.6567
2551	0.649
2542	0.6422
2533	0.635
2524	0.6273
2515	0.6179
2506	0.6056
2497	0.5889
2488	0.5611
2479	0.5395
2470	0.5166
2461	0.4876
2452	0.4553
2443	0.4198
2434	0.3646
2425	0.2988
2416	0.2771
2407	0.2687
2398	0.2699
2389	0.282
2380	0.2996
2371	0.3195
2362	0.332
2353	0.3355
2344	0.3403
2335	0.3485
2326	0.3617
2317	0.3825
2308	0.4203
2299	0.4835
2290	0.5139
2281	0.5373
2272	0.5572
2263	0.5741
2254	0.5917
2245	0.6079
2236	0.6233
2227	0.6388
2218	0.6535
2209	0.666
2200	0.6784
2191	0.6913
2182	0.7038
2173	0.7165
2164	0.7259
2155	0.7358
2146	0.7449
2137	0.7544
2128	0.763
2119	0.7716
2110	0.7797
2101	0.7856
2092	0.7899
2083	0.794
2074	0.7983
2065	0.8016
2056	0.8046
2047	0.8074
2038	0.8102
2029	0.813
2020	0.816
2011	0.8192
2002	0.8215
1993	0.8218
1984	0.8209
1975	0.8208
1966	0.8269
1957	0.8306
1948	0.8343
1939	0.8371
1930	0.8369
1921	0.8366
1912	0.8384
1903	0.8404
1894	0.8425
1885	0.8449
1876	0.8471
1867	0.8466
1858	0.845
1849	0.8434
1840	0.8469
1831	0.8517
1822	0.8573
1813	0.8617
1804	0.8638
1795	0.8631
1786	0.8636
1777	0.8656
1768	0.8683
1759	0.8722
1750	0.8752
1741	0.8773
1732	0.8793
1723	0.8785
1714	0.8771
1705	0.8758
1696	0.8746
1687	0.8719
1678	0.8677
1669	0.862
1660	0.8569
1651	0.8543
1642	0.855
1633	0.8586
1624	0.8627
1615	0.8677
1606	0.8784
1597	0.88
1588	0.7799
1579	0.6885
1570	0.5312
1561	0.4978
1552	0.5599
1543	0.6273
1534	0.7734
1525	0.828
1516	0.8514
1507	0.8797
1498	0.9127
1489	0.8618
1480	0.589
1471	0.4482
1462	0.1911
1453	0.1399
1444	0.2591
1435	0.2936
1426	0.3785
1417	0.4187
1408	0.4418
1399	0.3
1390	0.4639
1381	0.5168
1372	0.5818
1363	0.636
1354	0.6961
1345	0.7139
1336	0.7214
1327	0.6559
1318	0.5913
1309	0.6686
1300	0.5858
1291	0.5828
1282	0.5782
1273	0.4466
1264	0.6835
1255	0.7181
1246	0.3846
1237	0.4933
1228	0.4169
1219	0.4963
1210	0.592
1201	0.5732
1192	0.6982
1183	0.6997
1174	0.7487
1165	0.6982
1156	0.7526
1147	0.6607
1138	0.7062
1129	0.6412
1120	0.699
1111	0.681
1102	0.5637
1093	0.6459
1084	0.7186
1075	0.7324
1066	0.8024
1057	0.7548
1048	0.6921
1039	0.6854
1030	0.683
1021	0.7673
1012	0.7864
1003	0.8516
994	0.8622
985	0.8563
976	0.6588
967	0.7352
958	0.7642
949	0.6271
940	0.7648
931	0.5691
922	0.7156
913	0.8182
904	0.7766
895	0.843
886	0.8778
877	0.8978
868	0.9001
859	0.8736
850	0.7748
841	0.8902
832	0.5838
823	0.831
814	0.8869
805	0.8297
796	0.4156
787	0.8097
778	0.896
769	0.8962
760	0.6367
751	0.286
742	0.6498
733	0.752
724	0.804
715	0.8643
706	0.8866
697	0.898
688	0.9122
679	0.8356
670	0.9079
