Infrared Spectrum: 1,4-Naphthaquinone
Formula: C 10 H 6 O 2
CAS: 130-15-4
State: gas
Instrument: HP-GC/MS/IRD
Origin: NIST Mass Spectrometry Data Center
1/CM	ABSORBANCE
550	0.001596
562	0.001524
574	0.000292
586	0.000248
598	0.000344
610	0.000208
622	8.8e-05
634	5.2e-05
646	5.2e-05
658	4e-05
670	7.6e-05
682	0.000284
694	0.000396
706	0.00026
718	0.000364
730	0.00056
742	0.002808
754	0.009584
766	0.01032
778	0.0028
790	0.00044
802	0.0002
814	0.00014
826	0.00024
838	0.001224
850	0.00328
862	0.001976
874	0.000576
886	0.000232
898	0.000136
910	0.000192
922	0.000304
934	0.000256
946	8.4e-05
958	0.000196
970	0.000412
982	0.00038
994	0.001016
1006	0.004076
1018	0.004652
1030	0.001332
1042	0.002036
1054	0.00336
1066	0.001396
1078	0.000604
1090	0.000532
1102	0.00068
1114	0.001068
1126	0.0016
1138	0.00258
1150	0.001196
1162	0.000244
1174	0.000208
1186	0.000272
1198	0.000276
1210	0.00044
1222	0.000692
1234	0.00072
1246	0.000812
1258	0.000968
1270	0.00248
1282	0.0126
1294	0.024932
1306	0.016572
1318	0.014956
1330	0.006588
1342	0.001032
1354	0.000676
1366	0.0008
1378	0.000564
1390	0.000312
1402	0.000264
1414	0.000224
1426	0.000264
1438	0.000312
1450	0.00034
1462	0.000252
1474	0.00022
1486	0.000332
1498	0.000428
1510	0.000296
1522	0.00024
1534	0.00032
1546	0.000556
1558	0.000592
1570	0.000876
1582	0.002036
1594	0.00584
1606	0.007024
1618	0.002652
1630	0.001084
1642	0.001836
1654	0.003916
1666	0.01004
1678	0.036044
1690	0.03542
1702	0.005212
1714	0.001332
1726	0.001288
1738	0.001556
1750	0.001412
1762	0.001424
1774	0.000792
1786	0.000328
1798	0.000312
1810	0.000304
1822	0.000252
1834	0.00028
1846	0.000296
1858	0.000308
1870	0.000284
1882	0.000268
1894	0.00018
1906	7.2e-05
1918	8.4e-05
1930	0.000116
1942	0.00022
1954	0.00036
1966	0.000404
1978	0.000392
1990	0.000252
2002	5.2e-05
2014	2e-05
2026	2.8e-05
2038	6.4e-05
2050	8.4e-05
2062	7.2e-05
2074	3.6e-05
2086	8e-06
2098	3.6e-05
2110	2.4e-05
2122	3.6e-05
2134	3.6e-05
2146	6.4e-05
2158	4.8e-05
2170	1.6e-05
2182	2.8e-05
2194	2.8e-05
2206	2.4e-05
2218	4e-06
2230	1.2e-05
2242	4e-05
2254	1.6e-05
2266	8.4e-05
2278	0.000108
2290	6.4e-05
2302	6.8e-05
2314	4e-05
2326	6.8e-05
2338	4e-05
2350	2.4e-05
2362	3.6e-05
2374	4.4e-05
2386	2.4e-05
2398	3.2e-05
2410	4.8e-05
2422	9.2e-05
2434	8e-05
2446	4e-05
2458	4.8e-05
2470	6e-05
2482	5.2e-05
2494	5.6e-05
2506	6.8e-05
2518	6e-05
2530	6e-05
2542	6.4e-05
2554	4e-05
2566	4e-05
2578	7.6e-05
2590	0.000104
2602	0.000116
2614	0.000152
2626	0.00012
2638	0.0001
2650	0.000112
2662	0.00016
2674	0.000112
2686	0.000108
2698	9.2e-05
2710	9.6e-05
2722	8e-05
2734	9.2e-05
2746	9.6e-05
2758	6.4e-05
2770	7.2e-05
2782	8.4e-05
2794	8e-05
2806	6.8e-05
2818	0.000108
2830	0.00014
2842	0.000108
2854	0.00012
2866	0.000192
2878	0.000224
2890	0.000208
2902	0.000172
2914	0.000148
2926	0.000108
2938	9.6e-05
2950	9.6e-05
2962	8e-05
2974	0.000104
2986	8.8e-05
2998	0.000184
3010	0.000288
3022	0.000296
3034	0.00046
3046	0.00076
3058	0.001296
3070	0.002472
3082	0.0027
3094	0.00094
3106	0.00024
3118	0.000152
3130	0.00016
3142	0.00018
3154	0.00018
3166	0.000156
3178	0.000148
3190	0.000132
3202	0.000112
3214	7.2e-05
3226	6e-05
3238	6.8e-05
3250	0.000136
3262	0.000164
3274	0.000196
3286	0.000244
3298	0.000184
3310	0.00012
3322	0.000256
3334	0.000624
3346	0.000996
3358	0.000768
3370	0.000332
3382	0.000168
3394	0.0001
3406	5.2e-05
3418	9.6e-05
3430	6.4e-05
3442	7.2e-05
3454	5.6e-05
3466	2.8e-05
3478	4e-05
3490	6e-05
3502	1.6e-05
3514	6e-05
3526	7.2e-05
3538	7.2e-05
3550	4e-05
3562	0
3574	4e-06
3586	2.8e-05
3598	3.6e-05
3610	2e-05
3622	2e-05
3634	4.4e-05
3646	3.2e-05
3658	2.8e-05
3670	0
3682	1.6e-05
3694	3.2e-05
3706	4e-05
3718	5.2e-05
3730	3.2e-05
3742	8e-06
3754	4e-05
3766	2.4e-05
3778	4.8e-05
3790	5.6e-05
3802	3.6e-05
3814	8.4e-05
3826	0.000132
3838	8.8e-05
