Infrared Spectrum: 4-Fluoro-2-(trifluoromethyl)phenol
Formula: C 7 H 4 F 4 O
CAS: 130047-19-7
State: gas
Origin: EPA-IR VAPOR PHASE LIBRARY
1/CM	ABSORBANCE
549.8	0.0232758
559.445	0.0150958
569.09	0.0164158
578.734	0.0244058
588.379	0.0250658
598.024	0.0156158
607.669	0.0122058
617.313	0.0130758
626.958	0.0102758
636.603	0.0083158
646.248	0.0093758
655.893	0.0221558
665.537	0.0600358
675.182	0.0550358
684.827	0.0170758
694.472	0.0105558
704.116	0.0096458
713.761	0.0108558
723.406	0.0182058
733.051	0.0659558
742.695	0.129916
752.34	0.0748258
761.985	0.0382558
771.63	0.0921658
781.275	0.193326
790.919	0.194446
800.564	0.0918958
810.209	0.0707258
819.854	0.0984558
829.498	0.101486
839.143	0.0478958
848.788	0.0200058
858.433	0.0262358
868.078	0.0725258
877.722	0.145916
887.367	0.105126
897.012	0.0979458
906.657	0.214256
916.301	0.171846
925.946	0.0390358
935.591	0.0248258
945.236	0.0175858
954.88	0.0117058
964.525	0.0093958
974.17	0.0079158
983.815	0.0085958
993.46	0.0111658
1003.1	0.0126558
1012.75	0.0144258
1022.39	0.0186458
1032.04	0.0436658
1041.68	0.156616
1051.33	0.199276
1060.97	0.0711858
1070.62	0.0423758
1080.26	0.0499458
1089.91	0.0735158
1099.55	0.113116
1109.2	0.242876
1118.84	0.472216
1128.49	0.633366
1138.13	0.834756
1147.78	1.01473
1157.42	0.882776
1167.07	0.876436
1176.71	0.748346
1186.36	0.582376
1196	0.487336
1205.64	0.374906
1215.29	0.216306
1224.93	0.106476
1234.58	0.101056
1244.22	0.152406
1253.87	0.214246
1263.51	0.312596
1273.16	0.642026
1282.8	0.586726
1292.45	0.182116
1302.09	0.161816
1311.74	0.250486
1321.38	0.405846
1331.03	0.655206
1340.67	0.712966
1350.32	0.314826
1359.96	0.0741558
1369.61	0.0369058
1379.25	0.0263858
1388.9	0.0245258
1398.54	0.0272558
1408.18	0.0352158
1417.83	0.0515558
1427.47	0.120076
1437.12	0.263936
1446.76	0.317556
1456.41	0.180606
1466.05	0.0908858
1475.7	0.139826
1485.34	0.348396
1494.99	0.710796
1504.63	0.864356
1514.28	0.533646
1523.92	0.133456
1533.57	0.0359958
1543.21	0.0208558
1552.86	0.0163058
1562.5	0.0136658
1572.15	0.0127358
1581.79	0.0122458
1591.44	0.0137958
1601.08	0.0183658
1610.73	0.0220958
1620.37	0.0256758
1630.01	0.0302858
1639.66	0.0260858
1649.3	0.0191458
1658.95	0.0142558
1668.59	0.0090158
1678.24	0.0069658
1687.88	0.0063658
1697.53	0.0071758
1707.17	0.0077758
1716.82	0.0081158
1726.46	0.0098458
1736.11	0.0128058
1745.75	0.0170858
1755.4	0.0174958
1765.04	0.0130358
1774.69	0.0080958
1784.33	0.0054858
1793.98	0.0047758
1803.62	0.0037058
1813.27	0.0039058
1822.91	0.0037258
1832.55	0.0035658
1842.2	0.0040658
1851.84	0.0045558
1861.49	0.0048358
1871.13	0.0076158
1880.78	0.0123258
1890.42	0.0109258
1900.07	0.0062758
1909.71	0.0049058
1919.36	0.0045358
1929	0.0040858
1938.65	0.0035958
1948.29	0.0033558
1957.94	0.0032658
1967.58	0.0030658
1977.23	0.0026758
1986.87	0.0027558
1996.52	0.0029858
2006.16	0.0030158
2015.81	0.0032858
2025.45	0.0042958
2035.1	0.0058958
2044.74	0.0067758
2054.38	0.0069058
2064.03	0.0062558
2073.67	0.0054258
2083.32	0.0049958
2092.96	0.0048358
2102.61	0.0046058
2112.25	0.0043558
2121.9	0.0031658
2131.54	0.0021258
2141.19	0.0016458
2150.83	0.0013758
2160.48	0.0021658
2170.12	0.0021958
2179.77	0.0021458
2189.41	0.0025558
2199.06	0.0028958
2208.7	0.0033758
2218.35	0.0041458
2227.99	0.0052958
2237.64	0.0052958
2247.28	0.0046058
2256.92	0.0039758
2266.57	0.0036458
2276.21	0.0042258
2285.86	0.0050158
2295.5	0.0053658
2305.15	0.0049058
2314.79	0.0051358
2324.44	0.0048758
2334.08	0.0046058
2343.73	0.0041558
2353.37	0.0041358
2363.02	0.0037658
2372.66	0.0041558
2382.31	0.0045658
2391.95	0.0048358
2401.6	0.0053158
2411.24	0.0059858
2420.89	0.0060758
2430.53	0.0057958
2440.18	0.0063558
2449.82	0.0069258
2459.47	0.0062458
2469.11	0.0051958
2478.75	0.0043758
2488.4	0.0039858
2498.04	0.0041958
2507.69	0.0045458
2517.33	0.0045058
2526.98	0.0039058
2536.62	0.0036858
2546.27	0.0036858
2555.91	0.0028558
2565.56	0.0019058
2575.2	0.0010527
2584.85	0.0013758
2594.49	0.0023758
2604.14	0.0031858
2613.78	0.0036458
2623.43	0.0031058
2633.07	0.0023058
2642.72	0.0019158
2652.36	0.0023058
2662.01	0.0028758
2671.65	0.0036058
2681.29	0.0030758
2690.94	0.0021058
2700.58	0.0008456
2710.23	0.000995
2719.87	0.0011158
2729.52	0.0007191
2739.16	0.0011158
2748.81	0.0018458
2758.45	0.0020058
2768.1	0.0025758
2777.74	0.0028258
2787.39	0.0024658
2797.03	0.0018358
2806.68	0.0015958
2816.32	0.0012758
2825.97	0.0009597
2835.61	0.0009076
2845.26	0.0008687
2854.9	0.0004863
2864.55	0.0008189
2874.19	0.0007786
2883.84	0.0011758
2893.48	0.0011458
2903.12	0.0016358
2912.77	0.0017558
2922.41	0.0013058
2932.06	0.0019258
2941.7	0.0017858
2951.35	0.0021558
2960.99	0.0020058
2970.64	0.0016558
2980.28	0.0009317
2989.93	0.0004851
2999.57	0.0005877
3009.22	0.0010312
3018.86	0.0013958
3028.51	0.0027558
3038.15	0.0041758
3047.8	0.0072558
3057.44	0.0095558
3067.09	0.0096058
3076.73	0.0072358
3086.38	0.0097858
3096.02	0.0096858
3105.67	0.0033758
3115.31	0.0014258
3124.95	0.0006489
3134.6	0.000504
3144.24	0.0007234
3153.89	0.0009972
3163.53	0.000169
3173.18	0.0004191
3182.82	0.0004173
3192.47	0.000463
3202.11	0.00010807
3211.76	0.0003725
3221.4	0.0007306
3231.05	0.0002848
3240.69	0.0008326
3250.34	0.0005258
3259.98	0.0010958
3269.63	0.0010658
3279.27	0.0008428
3288.92	0.0012058
3298.56	0.0008699
3308.21	0.0010009
3317.85	0.0011458
3327.49	0.0014758
3337.14	0.0016958
3346.78	0.0025558
3356.43	0.0032958
3366.07	0.0028558
3375.72	0.0031858
3385.36	0.0033458
3395.01	0.0030158
3404.65	0.0027558
3414.3	0.0021858
3423.94	0.0017658
3433.59	0.0020358
3443.23	0.0018658
3452.88	0.0016258
3462.52	0.0013558
3472.17	0.0020058
3481.81	0.0012558
3491.46	0.0012758
3501.1	0.0014858
3510.75	0.0015458
3520.39	0.0010518
3530.04	0.0017558
3539.68	0.0015858
3549.32	0.0017758
3558.97	0.0016558
3568.61	0.0021358
3578.26	0.0023058
3587.9	0.0024758
3597.55	0.0049658
3607.19	0.0073058
3616.84	0.0140458
3626.48	0.0354958
3636.13	0.104556
3645.77	0.301906
3655.42	0.426026
3665.06	0.226056
3674.71	0.0475858
3684.35	0.0185958
3694	0.0107958
3703.64	0.0062858
3713.29	0.0037958
3722.93	0.0025058
3732.58	0.0023158
3742.22	0.0027258
3751.86	0.0024958
3761.51	0.0019958
3771.15	0.0019658
3780.8	0.0018358
3790.44	0.0017058
3800.09	0.0020058
3809.73	0.0028958
3819.38	0.0030558
3829.02	0.0043958
3838.67	0.0052558
3848.31	0.0049758
3857.96	0.0046858
3867.6	0.0031958
3877.25	0.0029258
3886.89	0.0033658
3896.54	0.0030458
3906.18	0.0034758
3915.83	0.0027158
3925.47	0.0034458
3935.12	0.0029258
3944.76	0.0037558
3954.41	0.0034158
3964.05	0.0034758
3973.69	0.0023558
3983.34	0.0025358
3992.98	0.0018258
