Infrared Spectrum: Adipic acid, bis(3,3,5-trimethylhexyl) ester
Formula: C24 H46 O4
CAS: 13007-41-5
State: SOLUTION, 10% AND 2% (CCl4 FOR 2.7-7.5, CS2 FOR 7.5-26 MICRON) VS SOLVENT
Class: COBLENTZ III
Instrument: DOW KBr FOREPRISM-GRATING
Instrument parameters: BLAZED AT 3.5, 12.0, 20.0 MICRON AND CHANGED AT 5.0, 7.5, 14.9 MICRON
Sampling: TRANSMISSION
Path length: 0.011 CM, 0.011 CM
Resolution: 2
Origin: DOW CHEMICAL COMPANY
1/CM	TRANSMITTANCE
3800	0.8605
3791	0.8614
3782	0.8625
3773	0.8631
3764	0.8637
3755	0.8642
3746	0.8648
3737	0.8655
3728	0.8662
3719	0.8668
3710	0.8675
3701	0.8681
3692	0.8687
3683	0.8692
3674	0.8702
3665	0.8714
3656	0.8725
3647	0.8738
3638	0.8746
3629	0.8754
3620	0.8762
3611	0.877
3602	0.8777
3593	0.8788
3584	0.8804
3575	0.8812
3566	0.8814
3557	0.8812
3548	0.8809
3539	0.8813
3530	0.882
3521	0.8837
3512	0.8852
3503	0.8862
3494	0.8878
3485	0.8886
3476	0.8862
3467	0.8778
3458	0.8704
3449	0.8661
3440	0.8697
3431	0.8804
3422	0.8886
3413	0.8924
3404	0.8953
3395	0.897
3386	0.8981
3377	0.8986
3368	0.8991
3359	0.8996
3350	0.9003
3341	0.901
3332	0.9014
3323	0.9017
3314	0.902
3305	0.9024
3296	0.9032
3287	0.9034
3278	0.903
3269	0.9021
3260	0.9009
3251	0.8981
3242	0.8953
3233	0.8921
3224	0.8896
3215	0.888
3206	0.8867
3197	0.8854
3188	0.8845
3179	0.8845
3170	0.8846
3161	0.8857
3152	0.887
3143	0.8886
3134	0.8901
3125	0.8907
3116	0.8911
3107	0.891
3098	0.8903
3089	0.8887
3080	0.8868
3071	0.8834
3062	0.8783
3053	0.8709
3044	0.8595
3035	0.8436
3026	0.824
3017	0.7757
3008	0.6565
2999	0.49
2990	0.2244
2981	0.0929
2972	0.0267
2963	0.0163
2954	0.019
2945	0.0411
2936	0.0667
2927	0.1084
2918	0.1251
2909	0.1214
2900	0.1534
2891	0.2226
2882	0.2409
2873	0.1651
2864	0.3409
2855	0.4228
2846	0.4569
2837	0.6294
2828	0.7012
2819	0.7568
2810	0.7799
2801	0.8072
2792	0.8254
2783	0.8354
2774	0.8446
2765	0.8491
2756	0.846
2747	0.8377
2738	0.8391
2729	0.8413
2720	0.8368
2711	0.8337
2702	0.8381
2693	0.8432
2684	0.8477
2675	0.8521
2666	0.8559
2657	0.8574
2648	0.859
2639	0.8608
2630	0.8627
2621	0.8645
2612	0.8664
2603	0.8682
2594	0.87
2585	0.8718
2576	0.8735
2567	0.8748
2558	0.8763
2549	0.8777
2540	0.8788
2531	0.8796
2522	0.8805
2513	0.8813
2504	0.8821
2495	0.8824
2486	0.8827
2477	0.883
2468	0.8831
2459	0.883
2450	0.883
2441	0.8827
2432	0.8818
2423	0.8806
2414	0.8793
2405	0.8774
2396	0.8751
2387	0.8737
2378	0.8739
2369	0.8745
2360	0.8753
2351	0.8761
2342	0.8775
2333	0.8785
2324	0.8763
2315	0.8721
2306	0.871
2297	0.8716
2288	0.8721
2279	0.8725
2270	0.8731
2261	0.8741
2252	0.875
2243	0.876
2234	0.8773
2225	0.8785
2216	0.8797
2207	0.8811
2198	0.8832
2189	0.8859
2180	0.8921
2171	0.8871
2162	0.8864
2153	0.8859
2144	0.8858
2135	0.8855
2126	0.882
2117	0.8802
2108	0.8798
2099	0.8794
2090	0.8792
2081	0.8786
2072	0.8781
2063	0.8775
2054	0.8777
2045	0.8778
2036	0.8778
2027	0.8778
2018	0.8775
2009	0.8733
2000	0.8736
1991	0.875
1982	0.8765
1973	0.8778
1964	0.8788
1955	0.8797
1946	0.8808
1937	0.8818
1928	0.8813
1919	0.8806
1910	0.8807
1901	0.8809
1892	0.8795
1883	0.878
1874	0.8778
1865	0.8778
1856	0.8775
1847	0.8762
1838	0.8733
1829	0.8699
1820	0.8628
1811	0.8542
1802	0.8445
1793	0.8321
1784	0.8148
1775	0.7939
1766	0.7514
1757	0.6495
1748	0.345
1739	0.0237
1730	0.0036
1721	0.0467
1712	0.4462
1703	0.606
1694	0.6833
1685	0.738
1676	0.7848
1667	0.81
1658	0.8236
1649	0.8335
1640	0.8423
1631	0.8508
1622	0.857
1613	0.8625
1604	0.8683
1595	0.8707
1586	0.8718
1577	0.8723
1568	0.8724
1559	0.8721
1550	0.8727
1541	0.8731
1532	0.8675
1523	0.8601
1514	0.8491
1505	0.8307
1496	0.8008
1487	0.6857
1478	0.2394
1469	0.2287
1460	0.3151
1451	0.4675
1442	0.5699
1433	0.5654
1424	0.5852
1415	0.5908
1406	0.6896
1397	0.3218
1388	0.4589
1379	0.4179
1370	0.1854
1361	0.3184
1352	0.4173
1343	0.5024
1334	0.542
1325	0.5966
1316	0.5589
1307	0.5178
1298	0.5238
1289	0.4752
1280	0.4179
1271	0.4232
1262	0.3359
1253	0.2882
1244	0.238
1235	0.239
1226	0.274
1217	0.2833
1208	0.2727
1199	0.2096
1190	0.1779
1181	0.1458
1172	0.1188
1163	0.1318
1154	0.2238
1145	0.217
1136	0.1931
1127	0.37
1118	0.5539
1109	0.6288
1100	0.663
1091	0.6665
1082	0.5346
1073	0.5051
1064	0.5198
1055	0.5003
1046	0.5355
1037	0.6392
1028	0.7151
1019	0.7278
1010	0.6855
1001	0.6938
992	0.68
983	0.6638
974	0.6562
965	0.6186
956	0.628
947	0.7085
938	0.7335
929	0.7572
920	0.7571
911	0.7788
902	0.8025
893	0.8158
884	0.8181
875	0.8205
866	0.8244
857	0.8346
848	0.8502
839	0.8378
830	0.8307
821	0.8347
812	0.8517
803	0.8584
794	0.849
785	0.8401
776	0.8307
767	0.8249
758	0.8161
749	0.8099
740	0.815
731	0.8363
722	0.8501
713	0.8556
704	0.8563
695	0.8609
686	0.8697
677	0.8738
668	0.8767
659	0.8828
650	0.8659
641	0.865
632	0.8641
623	0.8548
614	0.8427
605	0.8364
596	0.8373
587	0.8356
578	0.8328
569	0.8371
560	0.846
551	0.8482
542	0.8466
533	0.84
524	0.834
515	0.836
506	0.8401
497	0.8378
488	0.8371
479	0.8355
470	0.8338
461	0.8317
452	0.8296
443	0.8274
434	0.8274
425	0.8282
416	0.8297
407	0.8312
398	0.8328
