Infrared Spectrum: Propanedinitrile, 2-dicyclopropylmethylene-,
Formula: C10 H10 N2
CAS: 13017-60-2
State: SOLUTION 7% (CS2 FOR 7.5-15 microns, AND CCl4 FOR 2.5-7.5 microns)
Class: COBLENTZ III
Instrument: PERKIN-ELMER 21 (GRATING)
Instrument parameters: FILTER AT ABOUT 10 MICRONS
Path length: 0.01 CM
Resolution: 2
Origin: ABBOTT LABORATORIES
1/CM	TRANSMITTANCE
667	0.9563
676	0.9468
685	0.941
694	0.9342
703	0.9451
712	0.9484
721	0.9433
730	0.931
739	0.9178
748	0.9135
757	0.8951
766	0.865
775	0.7637
784	0.7705
793	0.7847
802	0.6899
811	0.6822
820	0.6874
829	0.7474
838	0.729
847	0.6837
856	0.581
865	0.5266
874	0.6359
883	0.7344
892	0.6633
901	0.71
910	0.8038
919	0.8208
928	0.8088
937	0.7669
946	0.6485
955	0.412
964	0.3747
973	0.4912
982	0.6976
991	0.6404
1000	0.6506
1009	0.5489
1018	0.5638
1027	0.274
1036	0.5523
1045	0.6981
1054	0.6073
1063	0.6555
1072	0.8028
1081	0.8008
1090	0.7469
1099	0.8285
1108	0.866
1117	0.8783
1126	0.8874
1135	0.8793
1144	0.8779
1153	0.8568
1162	0.8252
1171	0.793
1180	0.8548
1189	0.8054
1198	0.7093
1207	0.8029
1216	0.8782
1225	0.89
1234	0.8886
1243	0.8726
1252	0.8455
1261	0.7323
1270	0.6147
1279	0.8648
1288	0.9044
1297	0.9142
1306	0.9135
1315	0.9105
1324	0.9065
1333	0.8638
1342	0.8653
1351	0.8441
1360	0.8057
1369	0.7699
1378	0.6841
1387	0.6911
1396	0.7438
1405	0.7141
1414	0.7417
1423	0.6691
1432	0.6973
1441	0.7668
1450	0.7241
1459	0.7797
1468	0.8434
1477	0.8626
1486	0.8696
1495	0.8735
1504	0.8744
1513	0.8686
1522	0.838
1531	0.7458
1540	0.6249
1549	0.3903
1558	0.2072
1567	0.3231
1576	0.5411
1585	0.7567
1594	0.8182
1603	0.8198
1612	0.8405
1621	0.8555
1630	0.874
1639	0.88
1648	0.8802
1657	0.8769
1666	0.8744
1675	0.8731
1684	0.8724
1693	0.8751
1702	0.8832
1711	0.886
1720	0.8872
1729	0.8872
1738	0.8877
1747	0.8892
1756	0.8903
1765	0.8913
1774	0.891
1783	0.8884
1792	0.8856
1801	0.8841
1810	0.8845
1819	0.8861
1828	0.8879
1837	0.8897
1846	0.8909
1855	0.8894
1864	0.8856
1873	0.8817
1882	0.8786
1891	0.8792
1900	0.8819
1909	0.8858
1918	0.8894
1927	0.8912
1936	0.8915
1945	0.8914
1954	0.8907
1963	0.8908
1972	0.8912
1981	0.892
1990	0.893
1999	0.896
2008	0.9027
2017	0.9015
2026	0.8991
2035	0.8954
2044	0.8915
2053	0.8876
2062	0.8839
2071	0.8828
2080	0.8831
2089	0.8842
2098	0.8864
2107	0.8885
2116	0.889
2125	0.8893
2134	0.8891
2143	0.8886
2152	0.8877
2161	0.8862
2170	0.8826
2179	0.8721
2188	0.8504
2197	0.7297
2206	0.5139
2215	0.3866
2224	0.5788
2233	0.8363
2242	0.8737
2251	0.8832
2260	0.889
2269	0.8917
2278	0.8929
2287	0.8928
2296	0.8924
2305	0.892
2314	0.8909
2323	0.8894
2332	0.8877
2341	0.8863
2350	0.8863
2359	0.8889
2368	0.8924
2377	0.8946
2386	0.8957
2395	0.8963
2404	0.8968
2413	0.8968
2422	0.8967
2431	0.8967
2440	0.8967
2449	0.897
2458	0.8972
2467	0.8974
2476	0.8974
2485	0.8974
2494	0.898
2503	0.899
2512	0.9005
2521	0.9026
2530	0.9039
2539	0.9047
2548	0.9045
2557	0.9043
2566	0.9041
2575	0.9037
2584	0.9029
2593	0.902
2602	0.9008
2611	0.9001
2620	0.8997
2629	0.9016
2638	0.9035
2647	0.9038
2656	0.9041
2665	0.9035
2674	0.9022
2683	0.9012
2692	0.9009
2701	0.9007
2710	0.901
2719	0.9016
2728	0.9022
2737	0.9028
2746	0.9028
2755	0.9022
2764	0.9015
2773	0.8987
2782	0.8954
2791	0.8924
2800	0.89
2809	0.8897
2818	0.8894
2827	0.8899
2836	0.8906
2845	0.8916
2854	0.8927
2863	0.8923
2872	0.8917
2881	0.891
2890	0.8898
2899	0.8886
2908	0.8855
2917	0.8822
2926	0.8781
2935	0.8734
2944	0.8669
2953	0.8583
2962	0.8388
2971	0.8146
2980	0.7906
2989	0.7667
2998	0.7564
3007	0.7641
3016	0.8067
3025	0.8423
3034	0.8507
3043	0.8534
3052	0.8527
3061	0.8513
3070	0.8509
3079	0.8513
3088	0.8545
3097	0.8644
3106	0.8917
3115	0.8978
3124	0.8997
3133	0.8998
3142	0.8995
3151	0.899
3160	0.8985
3169	0.8979
3178	0.8973
3187	0.8967
3196	0.8959
3205	0.8953
3214	0.8946
3223	0.8941
3232	0.8935
3241	0.8929
3250	0.8923
3259	0.8919
3268	0.8914
3277	0.891
3286	0.8906
3295	0.8902
3304	0.8897
3313	0.8893
3322	0.8889
3331	0.8889
3340	0.8889
3349	0.8889
3358	0.8889
3367	0.8888
3376	0.8891
3385	0.8897
3394	0.8903
3403	0.8909
3412	0.8915
3421	0.8921
3430	0.8926
3439	0.8929
3448	0.8932
3457	0.8936
3466	0.8939
3475	0.8943
3484	0.8945
3493	0.8946
3502	0.8948
3511	0.8948
3520	0.895
3529	0.8951
3538	0.8949
3547	0.8944
3556	0.894
3565	0.8935
3574	0.8931
3583	0.8927
3592	0.8922
3601	0.8918
3610	0.8914
3619	0.891
3628	0.8905
3637	0.8901
3646	0.8897
3655	0.8892
3664	0.8891
3673	0.8889
3682	0.8886
3691	0.8885
3700	0.8883
3709	0.8882
3718	0.8879
3727	0.8879
3736	0.8879
3745	0.8878
3754	0.8878
3763	0.8878
3772	0.8878
3781	0.8878
3790	0.8878
3799	0.8878
3808	0.8878
3817	0.888
3826	0.8882
3835	0.8885
3844	0.8888
3853	0.8891
3862	0.8893
3871	0.8896
3880	0.8898
3889	0.8901
3898	0.8902
3907	0.8904
3916	0.8905
3925	0.8907
3934	0.8908
3943	0.891
3952	0.8912
3961	0.8913
3970	0.8915
3979	0.8916
3988	0.8918
3997	0.8919
