Infrared Spectrum: Ammonium compounds, substituted, trimethyl-purin-6-yl chloride
Formula: C8 H12 Cl N5
CAS: 13020-83-2
State: SOLID (SPLIT MULL), FLUOROLUBE FOR 3800-1330 CM^-^1, NUJOL FOR 1330-400 CM^-^1
Class: COBLENTZ III
Instrument: DOW KBr FOREPRISM-GRATING
Instrument parameters: BLAZED AT 3.5, 12.0, 20.0 MICRON AND CHANGED AT 5.0, 7.5, 14.9 MICRON
Sampling: TRANSMISSION
Resolution: 2
Origin: DOW CHEMICAL COMPANY
1/CM	TRANSMITTANCE
3800	0.4596
3791	0.4596
3782	0.4608
3773	0.4644
3764	0.4675
3755	0.4704
3746	0.4733
3737	0.4762
3728	0.4793
3719	0.4822
3710	0.4851
3701	0.4877
3692	0.4907
3683	0.4917
3674	0.4924
3665	0.493
3656	0.4938
3647	0.4953
3638	0.4968
3629	0.4983
3620	0.4998
3611	0.5012
3602	0.5027
3593	0.5041
3584	0.5056
3575	0.507
3566	0.5086
3557	0.51
3548	0.5116
3539	0.5132
3530	0.5149
3521	0.5165
3512	0.5182
3503	0.5198
3494	0.5214
3485	0.523
3476	0.5246
3467	0.526
3458	0.5281
3449	0.5302
3440	0.5324
3431	0.5345
3422	0.5366
3413	0.5387
3404	0.5409
3395	0.5431
3386	0.5452
3377	0.5474
3368	0.5501
3359	0.5529
3350	0.5557
3341	0.5585
3332	0.5615
3323	0.5644
3314	0.5674
3305	0.5705
3296	0.5737
3287	0.5777
3278	0.5824
3269	0.5876
3260	0.5926
3251	0.5972
3242	0.6007
3233	0.6021
3224	0.6032
3215	0.6057
3206	0.6101
3197	0.6144
3188	0.6188
3179	0.6233
3170	0.6287
3161	0.6342
3152	0.64
3143	0.6418
3134	0.6408
3125	0.6397
3116	0.6379
3107	0.6116
3098	0.5898
3089	0.5992
3080	0.6054
3071	0.6076
3062	0.5977
3053	0.4231
3044	0.2527
3035	0.1851
3026	0.2429
3017	0.3774
3008	0.4224
2999	0.4192
2990	0.4296
2981	0.4712
2972	0.4278
2963	0.3716
2954	0.3538
2945	0.3332
2936	0.2873
2927	0.2298
2918	0.1737
2909	0.2473
2900	0.2764
2891	0.2314
2882	0.209
2873	0.1843
2864	0.1693
2855	0.1602
2846	0.3001
2837	0.4267
2828	0.4421
2819	0.3646
2810	0.3427
2801	0.3191
2792	0.2868
2783	0.2387
2774	0.1979
2765	0.1594
2756	0.1289
2747	0.1248
2738	0.1198
2729	0.0996
2720	0.0799
2711	0.1034
2702	0.1101
2693	0.1208
2684	0.1601
2675	0.0806
2666	0.0579
2657	0.0395
2648	0.0292
2639	0.0401
2630	0.0658
2621	0.0892
2612	0.1061
2603	0.1163
2594	0.1295
2585	0.1451
2576	0.1698
2567	0.1928
2558	0.2318
2549	0.2694
2540	0.2157
2531	0.0988
2522	0.1003
2513	0.1379
2504	0.1756
2495	0.2068
2486	0.2322
2477	0.2672
2468	0.2943
2459	0.3091
2450	0.3268
2441	0.349
2432	0.3659
2423	0.3799
2414	0.3853
2405	0.3742
2396	0.3757
2387	0.3874
2378	0.4056
2369	0.4238
2360	0.4294
2351	0.4359
2342	0.4429
2333	0.4512
2324	0.4612
2315	0.4749
2306	0.4946
2297	0.5062
2288	0.5156
2279	0.5293
2270	0.5409
2261	0.5502
2252	0.551
2243	0.5392
2234	0.5396
2225	0.5588
2216	0.5734
2207	0.584
2198	0.5936
2189	0.6018
2180	0.6098
2171	0.6175
2162	0.6246
2153	0.6316
2144	0.6382
2135	0.644
2126	0.6499
2117	0.6554
2108	0.6608
2099	0.6662
2090	0.6718
2081	0.6775
2072	0.6861
2063	0.6954
2054	0.6989
2045	0.6999
2036	0.7028
2027	0.7115
2018	0.7189
2009	0.7235
2000	0.7017
1991	0.6999
1982	0.7067
1973	0.7121
1964	0.7148
1955	0.7068
1946	0.7174
1937	0.7192
1928	0.7183
1919	0.719
1910	0.7099
1901	0.6608
1892	0.5837
1883	0.6127
1874	0.6568
1865	0.6899
1856	0.7076
1847	0.7218
1838	0.731
1829	0.7284
1820	0.7258
1811	0.7272
1802	0.7297
1793	0.7324
1784	0.7354
1775	0.7331
1766	0.7249
1757	0.706
1748	0.6814
1739	0.6551
1730	0.6233
1721	0.5186
1712	0.456
1703	0.5196
1694	0.6083
1685	0.678
1676	0.704
1667	0.7268
1658	0.7293
1649	0.7575
1640	0.7941
1631	0.8032
1622	0.2625
1613	0.162
1604	0.4096
1595	0.5517
1586	0.5823
1577	0.1889
1568	0.1245
1559	0.4314
1550	0.5341
1541	0.6436
1532	0.6825
1523	0.7185
1514	0.7439
1505	0.7412
1496	0.3547
1487	0.2419
1478	0.4388
1469	0.2939
1460	0.5533
1451	0.588
1442	0.3945
1433	0.5449
1424	0.5012
1415	0.6365
1406	0.4685
1397	0.149
1388	0.571
1379	0.6183
1370	0.6778
1361	0.704
1352	0.6536
1343	0.593
1334	0.1963
1325	0.1837
1316	0.4889
1307	0.5297
1298	0.5719
1289	0.59
1280	0.3821
1271	0.1777
1262	0.3379
1253	0.4708
1244	0.4509
1235	0.6049
1226	0.5301
1217	0.5362
1208	0.6362
1199	0.6628
1190	0.6768
1181	0.5814
1172	0.6075
1163	0.6878
1154	0.688
1145	0.6933
1136	0.6792
1127	0.4229
1118	0.5918
1109	0.7049
1100	0.7272
1091	0.7353
1082	0.7448
1073	0.7474
1064	0.7526
1055	0.765
1046	0.7719
1037	0.7598
1028	0.6965
1019	0.6625
1010	0.7442
1001	0.7591
992	0.7639
983	0.7601
974	0.7481
965	0.7003
956	0.2915
947	0.4735
938	0.608
929	0.4793
920	0.1025
911	0.6255
902	0.6872
893	0.6587
884	0.5123
875	0.2966
866	0.1935
857	0.5852
848	0.7047
839	0.7611
830	0.7833
821	0.7858
812	0.6795
803	0.7745
794	0.8234
785	0.833
776	0.8328
767	0.8353
758	0.8373
749	0.8334
740	0.8136
731	0.7974
722	0.7712
713	0.8332
704	0.8648
695	0.8788
686	0.8482
677	0.7868
668	0.8753
659	0.8909
650	0.8437
641	0.2435
632	0.6821
623	0.7918
614	0.8757
605	0.886
596	0.8883
587	0.8882
578	0.8088
569	0.8718
560	0.8875
551	0.8677
542	0.8861
533	0.7657
524	0.862
515	0.8721
506	0.8821
497	0.8852
488	0.8853
479	0.8845
470	0.8828
461	0.8825
452	0.8811
443	0.8804
434	0.8744
425	0.8353
416	0.8401
407	0.8489
398	0.8518
389	0.8563
