Infrared Spectrum: 3-(1-Naphthyl)acrylic acid
Formula: C 13 H 10 O 2
CAS: 13026-12-5
State: gas
Origin: EPA-IR VAPOR PHASE LIBRARY
1/CM	ABSORBANCE
549.8	0.003361
559.445	0.004001
569.09	0.003901
578.735	0.005651
588.38	0.005381
598.025	0.001961
607.67	0.0012193
617.315	0.001331
626.96	0.001411
636.605	0.0012122
646.251	0.001541
655.896	0.001771
665.541	0.0011129
675.186	0.0007128
684.831	0.0005336
694.476	0.0005162
704.121	0.0011339
713.766	0.001691
723.411	0.001991
733.056	0.001321
742.701	0.0011444
752.346	0.001351
761.991	0.002951
771.636	0.006451
781.281	0.004211
790.926	0.004061
800.571	0.003301
810.216	0.001261
819.861	0.0005439
829.507	0.000605
839.152	0.0007027
848.797	0.0009204
858.442	0.0009614
868.087	0.0010514
877.732	0.0011107
887.377	0.0009505
897.022	0.0009773
906.667	0.0007655
916.312	0.0008465
925.957	0.000616
935.602	0.000934
945.247	0.001361
954.892	0.001331
964.537	0.001581
974.182	0.002501
983.827	0.002291
993.472	0.001531
1003.12	0.0010247
1012.76	0.0010243
1022.41	0.000893
1032.05	0.0010071
1041.7	0.0009192
1051.34	0.000991
1060.99	0.0011108
1070.63	0.001671
1080.28	0.003371
1089.92	0.003271
1099.57	0.004441
1109.21	0.010441
1118.86	0.020571
1128.5	0.011831
1138.15	0.007201
1147.79	0.007741
1157.44	0.008391
1167.08	0.005221
1176.73	0.002781
1186.37	0.001681
1196.02	0.0012342
1205.66	0.001301
1215.31	0.001331
1224.95	0.001521
1234.6	0.001941
1244.24	0.002131
1253.89	0.002371
1263.53	0.002411
1273.18	0.002321
1282.82	0.002481
1292.47	0.002831
1302.11	0.002521
1311.76	0.001891
1321.4	0.001601
1331.05	0.001851
1340.69	0.002761
1350.34	0.004391
1359.98	0.005141
1369.63	0.003771
1379.27	0.001861
1388.92	0.001781
1398.56	0.002411
1408.21	0.0011028
1417.85	0.0006747
1427.5	0.0006971
1437.14	0.0006915
1446.79	0.000622
1456.43	0.00033963
1466.08	0.0003798
1475.73	0.00034062
1485.37	0.00031655
1495.02	0.0004701
1504.66	0.0008038
1514.31	0.0007948
1523.95	0.0004452
1533.6	0.00024721
1543.24	0.0002093
1552.89	0.00032102
1562.53	0.00037
1572.18	0.0004834
1581.82	0.0006538
1591.47	0.0008414
1601.11	0.0007915
1610.76	0.0012181
1620.4	0.001941
1630.05	0.003681
1639.69	0.006331
1649.34	0.002821
1658.98	0.0008568
1668.63	0.0006765
1678.27	0.000748
1687.92	0.0008317
1697.56	0.0010762
1707.21	0.001461
1716.85	0.002181
1726.5	0.003601
1736.14	0.007211
1745.79	0.015451
1755.43	0.023561
1765.08	0.013271
1774.72	0.006651
1784.37	0.004191
1794.01	0.002511
1803.66	0.001711
1813.3	0.0011384
1822.95	0.000889
1832.59	0.0007612
1842.24	0.0004673
1851.88	0.00048
1861.53	0.0004642
1871.17	0.0004012
1880.82	0.0003659
1890.46	0.0004
1900.11	0.0004002
1909.75	0.0004552
1919.4	0.000429
1929.04	0.0004383
1938.69	0.0004514
1948.33	0.0003371
1957.98	0.000225
1967.62	0.0001532
1977.27	0.0001599
1986.91	0.000112
1996.56	0.0001518
2006.2	0.0001596
2015.85	0.000128
2025.49	0.000124
2035.14	0.0001693
2044.78	0.0002134
2054.43	0.0002075
2064.07	0.0001992
2073.72	0.000146
2083.36	0.000121
2093.01	0.000102
2102.65	8.9e-05
2112.3	4.9e-05
2121.94	8.3e-05
2131.59	8.2e-05
2141.23	5.8e-05
2150.88	5.4e-05
2160.52	5.6e-05
2170.17	0.000135
2179.81	9.9e-05
2189.46	9.4e-05
2199.1	0.0001737
2208.75	0.000151
2218.39	0.000123
2228.04	0.000260403
2237.68	0.0002034
2247.33	0.0001928
2256.97	0.000115
2266.62	0.00012
2276.26	0.0001927
2285.91	0.0001515
2295.55	0.000137
2305.2	0.000143
2314.84	0.000134
2324.49	0.000125
2334.13	6.8e-05
2343.78	8.1e-05
2353.42	6.3e-05
2363.07	9e-05
2372.72	0.000109
2382.36	9.3e-05
2392.01	0.000115
2401.65	0.000126
2411.3	0.000129
2420.94	0.0001588
2430.59	0.0001793
2440.23	0.00011
2449.88	0.0001904
2459.52	0.000121
2469.17	0.0001802
2478.81	0.0002296
2488.46	0.000114
2498.1	0.000109
2507.75	0.0001672
2517.39	0.0001649
2527.04	0.0001695
2536.68	0.0001513
2546.33	0.0001955
2555.97	0.0001
2565.62	0.000178
2575.26	0.000137
2584.91	0.000141
2594.55	0.0001798
2604.2	0.0002
2613.84	0.0001885
2623.49	0.0001528
2633.13	0.000126
2642.78	0.0001539
2652.42	9.7e-05
2662.07	0.0001
2671.71	0.0001712
2681.36	0.0001584
2691	0.000169
2700.65	0.0002186
2710.29	0.0001843
2719.94	0.0002042
2729.58	0.0002101
2739.23	0.0002247
2748.87	0.00026613
2758.52	0.000257577
2768.16	0.0001948
2777.81	0.0001682
2787.45	0.0001784
2797.1	0.0001536
2806.74	0.000135
2816.39	0.00030464
2826.03	0.0002061
2835.68	0.00029079
2845.32	0.0002284
2854.97	0.000145
2864.61	0.0002369
2874.26	0.0002318
2883.9	0.0001857
2893.55	0.000296
2903.19	0.00029708
2912.84	0.00034878
2922.48	0.00027137
2932.13	0.00031969
2941.77	0.0003563
2951.42	0.0004626
2961.06	0.0003728
2970.71	0.0004319
2980.35	0.0004894
2990	0.0005064
2999.64	0.0005818
3009.29	0.0007114
3018.93	0.0007614
3028.58	0.0009805
3038.22	0.001201
3047.87	0.002341
3057.51	0.003511
3067.16	0.003941
3076.8	0.002651
3086.45	0.002051
3096.09	0.001491
3105.74	0.0009354
3115.38	0.0004264
3125.03	0.0003574
3134.67	0.0004327
3144.32	0.000256074
3153.96	0.00028739
3163.61	0.0002172
3173.25	0.00029293
3182.9	0.00033492
3192.54	0.00030713
3202.19	0.0002711
3211.83	0.00027614
3221.48	0.00027874
3231.12	0.00029511
3240.77	0.0003522
3250.41	0.0003665
3260.06	0.00024694
3269.7	0.000256118
3279.35	0.00026451
3289	0.000231
3298.64	0.00030715
3308.29	0.0002316
3317.93	0.000121
3327.58	0.00034443
3337.22	0.00032533
3346.87	0.0002174
3356.51	0.00029493
3366.16	0.00030748
3375.8	0.00028414
3385.45	0.000191
3395.09	0.0003606
3404.74	0.0004206
3414.38	0.00024864
3424.03	0.00030261
3433.67	0.00032858
3443.32	0.00033031
3452.96	0.0003806
3462.61	0.000438
3472.25	0.0004774
3481.9	0.0005027
3491.54	0.0004599
3501.19	0.0004317
3510.83	0.0005118
3520.48	0.0004533
3530.12	0.00033496
3539.77	0.00034694
3549.41	0.0004419
3559.06	0.0007197
3568.7	0.001701
3578.35	0.008891
3587.99	0.007261
3597.64	0.001291
3607.28	0.0006117
3616.93	0.0005329
3626.57	0.0005453
3636.22	0.0004141
3645.86	0.0004943
3655.51	0.0004585
3665.15	0.0004455
3674.8	0.00031891
3684.44	0.00030752
3694.09	0.0004459
3703.73	0.0004312
3713.38	0.0003976
3723.02	0.0003772
3732.67	0.00032385
3742.31	0.0005083
3751.96	0.00032426
3761.6	0.0004634
3771.25	0.0004384
3780.89	0.0004732
3790.54	0.00033882
3800.18	0.0003609
3809.83	0.0003332
3819.47	0.0004213
3829.12	0.0003931
3838.76	0.0002033
3848.41	0.00034257
3858.05	0.00032375
3867.7	0.00033775
3877.34	0.000368
3886.99	0.0003991
3896.63	0.0004324
3906.28	0.00032751
3915.92	0.00029594
3925.57	0.0004888
3935.21	0.00033599
3944.86	0.0004
3954.5	0.0003863
3964.15	0.00028122
3973.79	0.00031707
3983.44	0.00028855
3993.08	0.0001966
