Infrared Spectrum: p-Methoxybenzylidene p-cyanoaniline
Formula: C 15 H 12 N 2 O
CAS: 13036-19-6
State: gas
Origin: EPA-IR VAPOR PHASE LIBRARY
1/CM	ABSORBANCE
549.8	0.01344
559.445	0.01398
569.09	0.01324
578.734	0.00882
588.379	0.00394
598.024	0.00187
607.669	0.00181
617.313	0.00141
626.958	0.00134
636.603	0.00212
646.248	0.00131
655.893	0.0009551
665.537	0.0010535
675.182	0.0012
684.827	0.00152
694.472	0.00221
704.116	0.00356
713.761	0.00433
723.406	0.0028
733.051	0.0015
742.695	0.00154
752.34	0.00162
761.985	0.00179
771.63	0.00221
781.275	0.00227
790.919	0.00297
800.564	0.00514
810.209	0.00786
819.854	0.01534
829.498	0.02824
839.143	0.03601
848.788	0.02263
858.433	0.01277
868.078	0.00978
877.722	0.0129
887.367	0.02103
897.012	0.0108
906.657	0.00427
916.301	0.00272
925.946	0.00216
935.591	0.00223
945.236	0.00257
954.88	0.003
964.525	0.00384
974.17	0.00527
983.815	0.00461
993.46	0.00441
1003.1	0.00582
1012.75	0.00954
1022.39	0.01363
1032.04	0.02288
1041.68	0.0226
1051.33	0.01056
1060.97	0.00586
1070.62	0.00401
1080.26	0.00409
1089.91	0.00428
1099.55	0.00688
1109.2	0.00967
1118.84	0.00578
1128.49	0.00556
1138.13	0.0072
1147.78	0.01453
1157.42	0.07232
1167.07	0.14381
1176.71	0.02617
1186.36	0.02565
1196	0.03395
1205.64	0.01599
1215.29	0.01517
1224.93	0.01985
1234.58	0.03474
1244.22	0.07723
1253.87	0.12502
1263.51	0.06755
1273.16	0.02683
1282.8	0.02329
1292.45	0.03128
1302.09	0.0445
1311.74	0.02857
1321.38	0.01152
1331.03	0.00807
1340.67	0.00712
1350.32	0.00618
1359.96	0.00549
1369.61	0.00559
1379.25	0.00476
1388.9	0.00416
1398.54	0.00468
1408.18	0.00748
1417.83	0.0177
1427.47	0.01438
1437.12	0.00782
1446.76	0.01174
1456.41	0.01044
1466.05	0.01502
1475.7	0.01451
1485.34	0.01802
1494.99	0.03297
1504.63	0.05737
1514.28	0.1028
1523.92	0.03054
1533.57	0.01264
1543.21	0.01062
1552.86	0.01274
1562.5	0.02099
1572.15	0.05147
1581.79	0.0741
1591.44	0.1234
1601.08	0.15363
1610.73	0.06368
1620.37	0.03651
1630.01	0.06743
1639.66	0.06562
1649.3	0.0253
1658.95	0.01647
1668.59	0.01178
1678.24	0.00763
1687.88	0.00501
1697.53	0.00364
1707.17	0.00304
1716.82	0.0029
1726.46	0.00293
1736.11	0.00254
1745.75	0.00235
1755.4	0.00258
1765.04	0.00306
1774.69	0.00311
1784.33	0.0024
1793.98	0.00181
1803.62	0.00159
1813.27	0.00146
1822.91	0.00142
1832.55	0.00142
1842.2	0.00147
1851.84	0.00167
1861.49	0.00169
1871.13	0.0019
1880.78	0.00236
1890.42	0.00281
1900.07	0.0029
1909.71	0.00246
1919.36	0.00194
1929	0.00186
1938.65	0.00221
1948.29	0.00202
1957.94	0.00171
1967.58	0.00168
1977.23	0.00152
1986.87	0.00143
1996.52	0.00161
2006.16	0.00229
2015.81	0.00254
2025.45	0.00267
2035.1	0.00277
2044.74	0.00285
2054.38	0.00301
2064.03	0.00284
2073.67	0.00274
2083.32	0.00239
2092.96	0.00168
2102.61	0.00118
2112.25	0.0009335
2121.9	0.0008539
2131.54	0.0009137
2141.19	0.0008482
2150.83	0.0007736
2160.48	0.0007309
2170.12	0.0007401
2179.77	0.0009083
2189.41	0.0008426
2199.06	0.0010151
2208.7	0.00156
2218.35	0.00379
2227.99	0.01663
2237.64	0.00985
2247.28	0.00162
2256.92	0.00116
2266.57	0.00123
2276.21	0.00134
2285.86	0.00147
2295.5	0.00118
2305.15	0.0010084
2314.79	0.0010113
2324.44	0.00124
2334.08	0.00115
2343.73	0.0009252
2353.37	0.0010142
2363.02	0.0010948
2372.66	0.0010952
2382.31	0.00151
2391.95	0.00146
2401.6	0.00138
2411.24	0.00138
2420.89	0.00137
2430.53	0.00128
2440.18	0.00147
2449.82	0.00145
2459.47	0.00153
2469.11	0.00168
2478.75	0.00173
2488.4	0.00172
2498.04	0.00186
2507.69	0.00198
2517.33	0.0021
2526.98	0.00223
2536.62	0.00255
2546.27	0.0028
2555.91	0.00301
2565.56	0.00236
2575.2	0.00182
2584.85	0.00156
2594.49	0.00147
2604.14	0.00148
2613.78	0.0013
2623.43	0.0010846
2633.07	0.0010428
2642.72	0.0010012
2652.36	0.0008366
2662.01	0.0007275
2671.65	0.0007264
2681.29	0.000751
2690.94	0.0007774
2700.58	0.000927
2710.23	0.0009048
2719.87	0.0009671
2729.52	0.00117
2739.16	0.00155
2748.81	0.00172
2758.45	0.00176
2768.1	0.00173
2777.74	0.00183
2787.39	0.00192
2797.03	0.00227
2806.68	0.00241
2816.32	0.00285
2825.97	0.00414
2835.61	0.00613
2845.26	0.01325
2854.9	0.01271
2864.55	0.00973
2874.19	0.00884
2883.84	0.00829
2893.48	0.00722
2903.12	0.0068
2912.77	0.00796
2922.41	0.00809
2932.06	0.0084
2941.7	0.01251
2951.35	0.0135
2960.99	0.01151
2970.64	0.00897
2980.28	0.00674
2989.93	0.0061
2999.57	0.00783
3009.22	0.01307
3018.86	0.0111
3028.51	0.00677
3038.15	0.0085
3047.8	0.00713
3057.44	0.00436
3067.09	0.00474
3076.73	0.00785
3086.38	0.00668
3096.02	0.0054
3105.67	0.00423
3115.31	0.00308
3124.95	0.00197
3134.6	0.00139
3144.24	0.0012
3153.89	0.0011093
3163.53	0.0008772
3173.18	0.0008526
3182.82	0.0010718
3192.47	0.00116
3202.11	0.00115
3211.76	0.0009098
3221.4	0.0008199
3231.05	0.0007525
3240.69	0.0008626
3250.34	0.0010604
3259.98	0.00117
3269.63	0.0008097
3279.27	0.0004564
3288.92	0.0003635
3298.56	0.0003979
3308.21	0.0004478
3317.85	0.0004455
3327.49	0.0004204
3337.14	0.0002864
3346.78	0.0003028
3356.43	0.00017934
3366.07	0.0003183
3375.72	0.0002464
3385.36	0.0003923
3395.01	0.0006181
3404.65	0.0005608
3414.3	0.0005304
3423.94	0.0005197
3433.59	0.0004827
3443.23	0.0003527
3452.88	0.0002501
3462.52	0.0002946
3472.17	0.00012102
3481.81	0.00014951
3491.46	0.00011602
3501.1	0.0002822
3510.75	0.0002683
3520.39	0.0004619
3530.04	0.0002632
3539.68	0.0003515
3549.32	0.00018977
3558.97	0.0003151
3568.61	0.0002695
3578.26	0.00016387
3587.9	0.0003404
3597.55	0.00010235
3607.19	0.0002566
3616.84	0.0002772
3626.48	0.0002817
3636.13	0.0002267
3645.77	6.78e-05
3655.42	0.00012455
3665.06	4.85e-05
3674.71	0.0002337
3684.35	0.0004022
3694	0.0004198
3703.64	0.0003219
3713.29	0.0005184
3722.93	0.0003552
3732.58	0.0003897
3742.22	0.000394
3751.86	0.00019571
3761.51	0.0002449
3771.15	0.00016087
3780.8	0.00020041
3790.44	0.00020747
3800.09	0.000218
3809.73	0.0003853
3819.38	0.000586
3829.02	0.0004272
3838.67	0.0001028
3848.31	0.0004476
3857.96	0.00018256
3867.6	0.0003836
3877.25	0.0004707
3886.89	0.0002133
3896.54	0.0004295
3906.18	0.00019225
3915.83	0.0002245
3925.47	0.00018673
3935.12	0.0002398
3944.76	0.0002116
3954.41	0.000391
3964.05	0.0002961
3973.69	0.0002887
3983.34	0.0004344
3992.98	0.0002895
