Infrared Spectrum: RHODANINE, 5-BENZYLIDENE-3-PHENYL
Formula: C16 H11 N O S2
CAS: 13037-56-4
State: SOLID (KBr PELLET)
Melting point: 188-190 C
Class: COBLENTZ
Instrument: Not specified, most likely a prism, grating, or hybrid spectrometer.
Sampling: TRANSMISSION
Resolution: 4
Origin: TENNESSEE EASTMAN COMPANY, RESEARCH LABORATORIES
MICROMETERS	TRANSMITTANCE
2.055	0.71
2.09607	0.719
2.13715	0.726
2.17822	0.732
2.21929	0.741
2.26037	0.746
2.30144	0.751
2.34251	0.755
2.38359	0.758
2.42466	0.761
2.46574	0.763
2.50681	0.772
2.54788	0.777
2.58896	0.78
2.63003	0.787
2.6711	0.789
2.71218	0.789
2.75325	0.785
2.79432	0.756
2.8354	0.729
2.87647	0.712
2.91754	0.692
2.95862	0.698
2.99969	0.75
3.04077	0.765
3.08184	0.787
3.12291	0.797
3.16399	0.801
3.20506	0.816
3.24613	0.807
3.28721	0.738
3.32828	0.799
3.36935	0.841
3.41043	0.841
3.4515	0.85
3.49257	0.865
3.53365	0.872
3.57472	0.875
3.6158	0.877
3.65687	0.88
3.69794	0.887
3.73902	0.889
3.78009	0.899
3.82116	0.897
3.86224	0.899
3.90331	0.897
3.94438	0.904
3.98546	0.911
4.02653	0.911
4.0676	0.911
4.10868	0.916
4.14975	0.92
4.19082	0.921
4.2319	0.921
4.27297	0.923
4.31405	0.925
4.35512	0.93
4.39619	0.935
4.43727	0.938
4.47834	0.943
4.51941	0.942
4.56049	0.943
4.60156	0.948
4.64263	0.95
4.68371	0.952
4.72478	0.952
4.76585	0.952
4.80693	0.952
4.848	0.952
4.88908	0.955
4.93015	0.957
4.97122	0.959
5.0123	0.969
5.05337	0.957
5.09444	0.948
5.13552	0.943
5.17659	0.952
5.21766	0.959
5.25874	0.95
5.29981	0.95
5.34088	0.95
5.38196	0.95
5.42303	0.955
5.46411	0.955
5.50518	0.948
5.54625	0.931
5.58733	0.935
5.6284	0.942
5.66947	0.94
5.71055	0.918
5.75162	0.714
5.79269	0.064
5.83377	0.21
5.87484	0.518
5.91591	0.784
5.95699	0.858
5.99806	0.872
6.03913	0.88
6.08021	0.887
6.12128	0.887
6.16236	0.86
6.20343	0.591
6.2445	0.391
6.28558	0.773
6.32665	0.722
6.36772	0.887
6.4088	0.938
6.44987	0.942
6.49094	0.947
6.53202	0.943
6.57309	0.908
6.61416	0.807
6.65524	0.494
6.69631	0.768
6.73739	0.872
6.77846	0.943
6.81953	0.886
6.86061	0.743
6.90168	0.829
6.94275	0.945
6.98383	0.955
7.0249	0.962
7.06597	0.967
7.10705	0.971
7.14812	0.965
7.18919	0.938
7.23027	0.877
7.27134	0.824
7.31242	0.656
7.35349	0.219
7.39456	0.423
7.43564	0.712
7.47671	0.846
7.51778	0.889
7.55886	0.879
7.59993	0.835
7.641	0.862
7.68208	0.816
7.72315	0.695
7.76422	0.63
7.8053	0.683
7.84637	0.664
7.88744	0.326
7.92852	0.083
7.96959	0.035
8.01067	0.051
8.05174	0.176
8.09281	0.352
8.13389	0.484
8.17496	0.596
8.21603	0.777
8.25711	0.852
8.29818	0.877
8.33925	0.906
8.38033	0.841
8.4214	0.758
8.46247	0.624
8.50355	0.469
8.54462	0.418
8.5857	0.282
8.62677	0.248
8.66784	0.532
8.70892	0.801
8.74999	0.892
8.79106	0.928
8.83214	0.938
8.87321	0.948
8.91428	0.962
8.95536	0.971
8.99643	0.967
9.0375	0.969
9.07858	0.971
9.11965	0.976
9.16073	0.981
9.2018	0.977
9.24287	0.971
9.28395	0.899
9.32502	0.879
9.36609	0.933
9.40717	0.954
9.44824	0.955
9.48931	0.955
9.53039	0.955
9.57146	0.928
9.61253	0.843
9.65361	0.867
9.69468	0.816
9.73575	0.821
9.77683	0.925
9.8179	0.962
9.85898	0.971
9.90005	0.972
9.94112	0.971
9.9822	0.962
10.0233	0.974
10.0643	0.981
10.1054	0.979
10.1465	0.979
10.1876	0.981
10.2286	0.984
10.2697	0.981
10.3108	0.981
10.3519	0.981
10.3929	0.981
10.434	0.988
10.4751	0.988
10.5162	0.988
10.5572	0.988
10.5983	0.986
10.6394	0.959
10.6804	0.836
10.7215	0.811
10.7626	0.904
10.8037	0.942
10.8447	0.959
10.8858	0.969
10.9269	0.974
10.968	0.981
11.009	0.979
11.0501	0.977
11.0912	0.979
11.1323	0.984
11.1733	0.988
11.2144	0.986
11.2555	0.988
11.2965	0.982
11.3376	0.96
11.3787	0.965
11.4198	0.981
11.4608	0.989
11.5019	0.994
11.543	0.996
11.5841	0.996
11.6251	0.996
11.6662	0.996
11.7073	0.996
11.7484	0.981
11.7894	0.981
11.8305	0.982
11.8716	0.982
11.9127	0.969
11.9537	0.959
11.9948	0.938
12.0359	0.846
12.0769	0.722
12.118	0.736
12.1591	0.79
12.2002	0.826
12.2412	0.869
12.2823	0.889
12.3234	0.923
12.3645	0.945
12.4055	0.964
12.4466	0.971
12.4877	0.974
12.5288	0.976
12.5698	0.977
12.6109	0.977
12.652	0.977
12.6931	0.977
12.7341	0.977
12.7752	0.974
12.8163	0.971
12.8573	0.967
12.8984	0.964
12.9395	0.938
12.9806	0.877
13.0216	0.738
13.0627	0.562
13.1038	0.454
13.1449	0.52
13.1859	0.681
13.227	0.807
13.2681	0.874
13.3092	0.901
13.3502	0.911
13.3913	0.909
13.4324	0.884
13.4734	0.833
13.5145	0.715
13.5556	0.573
13.5967	0.506
13.6377	0.51
13.6788	0.608
13.7199	0.773
13.761	0.887
13.802	0.938
13.8431	0.962
13.8842	0.976
13.9253	0.982
13.9663	0.988
14.0074	0.991
14.0485	0.994
14.0896	0.994
14.1306	0.991
14.1717	0.989
14.2128	0.977
14.2538	0.952
14.2949	0.892
14.336	0.804
14.3771	0.693
14.4181	0.578
14.4592	0.522
14.5003	0.52
14.5414	0.564
14.5824	0.581
14.6235	0.525
14.6646	0.447
14.7057	0.448
14.7467	0.527
14.7878	0.651
14.8289	0.705
14.8699	0.732
14.911	0.736
14.9521	0.758
14.9932	0.819
15.0342	0.914
15.0753	0.954
15.1164	0.964
15.1575	0.971
15.1985	0.972
15.2396	0.971
15.2807	0.971
15.3218	0.971
15.3628	0.969
15.4039	0.969
15.445	0.964
15.4861	0.959
15.5271	0.954
15.5682	0.945
15.6093	0.925
15.6503	0.914
15.6914	0.894
15.7325	0.858
15.7736	0.823
15.8146	0.782
15.8557	0.777
15.8968	0.775
15.9379	0.775
15.9789	0.775
16.02	0.775
