Infrared Spectrum: SUCROSE MONOPALMITATE
Formula: C28 H52 O12
CAS: 13039-41-3
State: SOLID (MINERAL OIL MULL)
Class: COBLENTZ
Instrument: PERKIN-ELMER
Sampling: TRANSMISSION
Resolution: 4
MICROMETERS	TRANSMITTANCE
2.043	0.952
2.07976	0.952
2.11652	0.952
2.15327	0.947
2.19003	0.947
2.22679	0.958
2.26355	0.958
2.30031	0.957
2.33707	0.926
2.37382	0.915
2.41058	0.918
2.44734	0.923
2.4841	0.918
2.52086	0.914
2.55761	0.921
2.59437	0.93
2.63113	0.932
2.66789	0.932
2.70465	0.923
2.74141	0.907
2.77816	0.786
2.81492	0.541
2.85168	0.346
2.88844	0.191
2.9252	0.136
2.96195	0.111
2.99871	0.102
3.03547	0.096
3.07223	0.107
3.10899	0.133
3.14575	0.18
3.1825	0.262
3.21926	0.361
3.25602	0.475
3.29278	0.538
3.32954	0.567
3.36629	0.404
3.40305	0.251
3.43981	0.202
3.47657	0.173
3.51333	0.161
3.55008	0.335
3.58684	0.575
3.6236	0.674
3.66036	0.71
3.69712	0.737
3.73388	0.76
3.77063	0.783
3.80739	0.814
3.84415	0.825
3.88091	0.848
3.91767	0.866
3.95442	0.875
3.99118	0.888
4.02794	0.892
4.0647	0.903
4.10146	0.914
4.13822	0.924
4.17497	0.935
4.21173	0.935
4.24849	0.94
4.28525	0.946
4.32201	0.947
4.35876	0.95
4.39552	0.949
4.43228	0.949
4.46904	0.944
4.5058	0.949
4.54256	0.944
4.57931	0.947
4.61607	0.941
4.65283	0.943
4.68959	0.943
4.72635	0.937
4.7631	0.941
4.79986	0.944
4.83662	0.95
4.87338	0.947
4.91014	0.946
4.9469	0.95
4.98365	0.953
5.02041	0.957
5.05717	0.961
5.09393	0.963
5.13069	0.958
5.16744	0.96
5.2042	0.949
5.24096	0.949
5.27772	0.955
5.31448	0.96
5.35124	0.958
5.38799	0.958
5.42475	0.957
5.46151	0.947
5.49827	0.947
5.53503	0.941
5.57178	0.932
5.60854	0.915
5.6453	0.898
5.68206	0.779
5.71882	0.552
5.75557	0.371
5.79233	0.354
5.82909	0.372
5.86585	0.562
5.90261	0.679
5.93937	0.757
5.97612	0.771
6.01288	0.757
6.04964	0.748
6.0864	0.743
6.12316	0.753
6.15991	0.783
6.19667	0.817
6.23343	0.838
6.27019	0.858
6.30695	0.872
6.34371	0.881
6.38046	0.883
6.41722	0.895
6.45398	0.88
6.49074	0.872
6.5275	0.858
6.56425	0.848
6.60101	0.84
6.63777	0.822
6.67453	0.768
6.71129	0.717
6.74805	0.636
6.7848	0.576
6.82156	0.331
6.85832	0.279
6.89508	0.279
6.93184	0.317
6.96859	0.354
7.00535	0.38
7.04211	0.389
7.07887	0.384
7.11563	0.394
7.15239	0.412
7.18914	0.409
7.2259	0.381
7.26266	0.332
7.29942	0.338
7.33618	0.366
7.37293	0.391
7.40969	0.412
7.44645	0.421
7.48321	0.427
7.51997	0.424
7.55673	0.426
7.59348	0.426
7.63024	0.432
7.667	0.44
7.70376	0.449
7.74052	0.461
7.77727	0.452
7.81403	0.44
7.85079	0.424
7.88755	0.414
7.92431	0.414
7.96106	0.417
7.99782	0.418
8.03458	0.429
8.07134	0.438
8.1081	0.44
8.14486	0.446
8.18161	0.452
8.21837	0.457
8.25513	0.444
8.29189	0.429
8.32865	0.423
8.3654	0.411
8.40216	0.397
8.43892	0.378
8.47568	0.366
8.51244	0.357
8.5492	0.357
8.58595	0.354
8.62271	0.342
8.65947	0.315
8.69623	0.317
8.73299	0.291
8.76974	0.254
8.8065	0.237
8.84326	0.234
8.88002	0.242
8.91678	0.239
8.95354	0.226
8.99029	0.223
9.02705	0.226
9.06381	0.225
9.10057	0.226
9.13733	0.213
9.17408	0.208
9.21084	0.188
9.2476	0.167
9.28436	0.144
9.32112	0.134
9.35788	0.133
9.39463	0.125
9.43139	0.118
9.46815	0.108
9.50491	0.101
9.54167	0.09
9.57842	0.076
9.61518	0.085
9.65194	0.118
9.6887	0.15
9.72546	0.18
9.76222	0.199
9.79897	0.21
9.83573	0.219
9.87249	0.219
9.90925	0.219
9.94601	0.208
9.98276	0.2
10.0195	0.179
10.0563	0.179
10.093	0.173
10.1298	0.197
10.1666	0.23
10.2033	0.289
10.2401	0.381
10.2768	0.466
10.3136	0.523
10.3503	0.564
10.3871	0.59
10.4239	0.595
10.4606	0.592
10.4974	0.565
10.5341	0.535
10.5709	0.501
10.6077	0.484
10.6444	0.476
10.6812	0.47
10.7179	0.466
10.7547	0.458
10.7914	0.464
10.8282	0.467
10.865	0.481
10.9017	0.516
10.9385	0.549
10.9752	0.593
11.012	0.611
11.0488	0.63
11.0855	0.653
11.1223	0.661
11.159	0.667
11.1958	0.671
11.2325	0.667
11.2693	0.639
11.3061	0.607
11.3428	0.555
11.3796	0.521
11.4163	0.513
11.4531	0.524
11.4898	0.564
11.5266	0.601
11.5634	0.616
11.6001	0.628
11.6369	0.636
11.6736	0.641
11.7104	0.644
11.7472	0.641
11.7839	0.642
11.8207	0.645
11.8574	0.647
11.8942	0.651
11.9309	0.647
11.9677	0.647
12.0045	0.638
12.0412	0.638
12.078	0.648
12.1147	0.664
12.1515	0.679
12.1883	0.697
12.225	0.7
12.2618	0.702
12.2985	0.705
12.3353	0.7
12.372	0.693
12.4088	0.687
12.4456	0.679
12.4823	0.671
12.5191	0.673
12.5558	0.674
12.5926	0.673
12.6294	0.67
12.6661	0.671
12.7029	0.668
12.7396	0.662
12.7764	0.657
12.8131	0.651
12.8499	0.645
12.8867	0.638
12.9234	0.641
12.9602	0.633
12.9969	0.636
13.0337	0.624
13.0705	0.621
13.1072	0.613
13.144	0.613
13.1807	0.602
13.2175	0.598
13.2542	0.593
13.291	0.584
13.3278	0.573
13.3645	0.573
13.4013	0.567
13.438	0.561
13.4748	0.556
13.5115	0.55
13.5483	0.541
13.5851	0.532
13.6218	0.529
13.6586	0.527
13.6953	0.516
13.7321	0.504
13.7689	0.49
13.8056	0.486
13.8424	0.478
13.8791	0.464
13.9159	0.461
13.9526	0.466
13.9894	0.467
14.0262	0.476
14.0629	0.475
14.0997	0.481
14.1364	0.476
14.1732	0.475
14.21	0.473
14.2467	0.478
14.2835	0.476
14.3202	0.476
14.357	0.48
14.3937	0.473
14.4305	0.472
14.4673	0.47
14.504	0.47
14.5408	0.463
14.5775	0.463
14.6143	0.463
14.6511	0.464
14.6878	0.463
14.7246	0.46
14.7613	0.46
14.7981	0.46
14.8348	0.458
14.8716	0.457
14.9084	0.464
14.9451	0.453
14.9819	0.452
15.0186	0.46
15.0554	0.455
15.0921	0.449
15.1289	0.444
15.1657	0.446
15.2024	0.446
15.2392	0.44
15.2759	0.435
15.3127	0.438
15.3495	0.437
15.3862	0.437
15.423	0.429
15.4597	0.42
15.4965	0.421
15.5332	0.418
