Infrared Spectrum: Phenyl propargyl ether
Formula: C 9 H 8 O
CAS: 13045-88-0
State: gas
Origin: EPA-IR VAPOR PHASE LIBRARY
1/CM	ABSORBANCE
549.8	0.005195
559.445	0.005105
569.09	0.004875
578.734	0.006895
588.379	0.009785
598.024	0.012865
607.669	0.016575
617.313	0.031925
626.958	0.061355
636.603	0.077045
646.248	0.057065
655.893	0.054145
665.537	0.081165
675.182	0.072995
684.827	0.059135
694.472	0.045205
704.116	0.027055
713.761	0.014945
723.406	0.013425
733.051	0.025335
742.695	0.048935
752.34	0.067465
761.985	0.051625
771.63	0.035625
781.275	0.023885
790.919	0.013365
800.564	0.008735
810.209	0.007775
819.854	0.008605
829.498	0.008115
839.143	0.005665
848.788	0.004175
858.433	0.004565
868.078	0.005875
877.722	0.007855
887.367	0.008525
897.012	0.007955
906.657	0.009635
916.301	0.013795
925.946	0.017375
935.591	0.015245
945.236	0.011115
954.88	0.009045
964.525	0.010175
974.17	0.013155
983.815	0.020295
993.46	0.031435
1003.1	0.042765
1012.75	0.060775
1022.39	0.096425
1032.04	0.132235
1041.68	0.124495
1051.33	0.069045
1060.97	0.026275
1070.62	0.020265
1080.26	0.015595
1089.91	0.010685
1099.55	0.007535
1109.2	0.004525
1118.84	0.005615
1128.49	0.004565
1138.13	0.005395
1147.78	0.012655
1157.42	0.025475
1167.07	0.042905
1176.71	0.040175
1186.36	0.033885
1196	0.071105
1205.64	0.173175
1215.29	0.229135
1224.93	0.195255
1234.58	0.161505
1244.22	0.125365
1253.87	0.082065
1263.51	0.077905
1273.16	0.071385
1282.8	0.060605
1292.45	0.055945
1302.09	0.045475
1311.74	0.028935
1321.38	0.020175
1331.03	0.021645
1340.67	0.021765
1350.32	0.019155
1359.96	0.024675
1369.61	0.032265
1379.25	0.026675
1388.9	0.011835
1398.54	0.006655
1408.18	0.006195
1417.83	0.006655
1427.47	0.007485
1437.12	0.009765
1446.76	0.015955
1456.41	0.023845
1466.05	0.028045
1475.7	0.039345
1485.34	0.115585
1494.99	0.166345
1504.63	0.098275
1514.28	0.019805
1523.92	0.009755
1533.57	0.007705
1543.21	0.008035
1552.86	0.010415
1562.5	0.015285
1572.15	0.027305
1581.79	0.057715
1591.44	0.109805
1601.08	0.106015
1610.73	0.046215
1620.37	0.015215
1630.01	0.008195
1639.66	0.005545
1649.3	0.004415
1658.95	0.003545
1668.59	0.003295
1678.24	0.003305
1687.88	0.003805
1697.53	0.004005
1707.17	0.003555
1716.82	0.002925
1726.46	0.002585
1736.11	0.002385
1745.75	0.002685
1755.4	0.003635
1765.04	0.004215
1774.69	0.003705
1784.33	0.002645
1793.98	0.002395
1803.62	0.002295
1813.27	0.002605
1822.91	0.003395
1832.55	0.003735
1842.2	0.003725
1851.84	0.003295
1861.49	0.002855
1871.13	0.002095
1880.78	0.001585
1890.42	0.001625
1900.07	0.002425
1909.71	0.003815
1919.36	0.004685
1929	0.005315
1938.65	0.005225
1948.29	0.004355
1957.94	0.002945
1967.58	0.002995
1977.23	0.003695
1986.87	0.004785
1996.52	0.005005
2006.16	0.004345
2015.81	0.003825
2025.45	0.003815
2035.1	0.003995
2044.74	0.004155
2054.38	0.004415
2064.03	0.004305
2073.67	0.003875
2083.32	0.002945
2092.96	0.002235
2102.61	0.002245
2112.25	0.002435
2121.9	0.002705
2131.54	0.002465
2141.19	0.001645
2150.83	0.0009012
2160.48	0.000655
2170.12	0.0008588
2179.77	0.0006805
2189.41	0.0008787
2199.06	0.00094
2208.7	0.0010056
2218.35	0.0009846
2227.99	0.001043
2237.64	0.001135
2247.28	0.001205
2256.92	0.001405
2266.57	0.001785
2276.21	0.001715
2285.86	0.001295
2295.5	0.001205
2305.15	0.001365
2314.79	0.001635
2324.44	0.001325
2334.08	0.001165
2343.73	0.001325
2353.37	0.001295
2363.02	0.001525
2372.66	0.001905
2382.31	0.002035
2391.95	0.001605
2401.6	0.001565
2411.24	0.001725
2420.89	0.001985
2430.53	0.002065
2440.18	0.002055
2449.82	0.001975
2459.47	0.001745
2469.11	0.001855
2478.75	0.001605
2488.4	0.001605
2498.04	0.001515
2507.69	0.001785
2517.33	0.001525
2526.98	0.001495
2536.62	0.001655
2546.27	0.001345
2555.91	0.001435
2565.56	0.001535
2575.2	0.001535
2584.85	0.001455
2594.49	0.001415
2604.14	0.001455
2613.78	0.0010255
2623.43	0.001255
2633.07	0.001145
2642.72	0.0011139
2652.36	0.001185
2662.01	0.001275
2671.65	0.001115
2681.29	0.0010665
2690.94	0.001305
2700.58	0.001325
2710.23	0.001205
2719.87	0.001595
2729.52	0.001275
2739.16	0.0010302
2748.81	0.0009236
2758.45	0.0010431
2768.1	0.0010089
2777.74	0.001215
2787.39	0.001365
2797.03	0.001175
2806.68	0.001805
2816.32	0.002045
2825.97	0.002285
2835.61	0.003015
2845.26	0.003605
2854.9	0.005595
2864.55	0.009235
2874.19	0.012955
2883.84	0.013685
2893.48	0.011515
2903.12	0.011775
2912.77	0.015455
2922.41	0.017965
2932.06	0.017465
2941.7	0.013295
2951.35	0.011115
2960.99	0.014595
2970.64	0.015565
2980.28	0.008745
2989.93	0.003935
2999.57	0.003445
3009.22	0.005015
3018.86	0.009145
3028.51	0.015955
3038.15	0.024745
3047.8	0.029505
3057.44	0.027365
3067.09	0.029805
3076.73	0.034715
3086.38	0.030315
3096.02	0.021115
3105.67	0.016065
3115.31	0.008705
3124.95	0.003455
3134.6	0.001505
3144.24	0.001335
3153.89	0.0010322
3163.53	0.0007553
3173.18	0.0007183
3182.82	0.0008479
3192.47	0.0006922
3202.11	0.0008244
3211.76	0.0005054
3221.4	0.0007882
3231.05	0.0009366
3240.69	0.001125
3250.34	0.001435
3259.98	0.002615
3269.63	0.003725
3279.27	0.006755
3288.92	0.011075
3298.56	0.020055
3308.21	0.030735
3317.85	0.048795
3327.49	0.061305
3337.14	0.044335
3346.78	0.011175
3356.43	0.005245
3366.07	0.003115
3375.72	0.002025
3385.36	0.001495
3395.01	0.001165
3404.65	0.0004857
3414.3	0.0006459
3423.94	0.0008047
3433.59	0.0003324
3443.23	0.0006637
3452.88	0.0006315
3462.52	0.0003196
3472.17	0.0005036
3481.81	0.0003945
3491.46	0.0004051
3501.1	0.0004032
3510.75	0.0004949
3520.39	0.0002172
3530.04	0.0003671
3539.68	0.0003556
3549.32	2e-06
3558.97	0.00019118
3568.61	0.0003267
3578.26	0.0007966
3587.9	0.00051
3597.55	0.0005789
3607.19	0.0004344
3616.84	0.0002603
3626.48	0.0008832
3636.13	0.0004271
3645.77	0.0006087
3655.42	0.0004787
3665.06	0.0004998
3674.71	0.0004788
3684.35	0.0006582
3694	0.0006484
3703.64	0.000241
3713.29	0.0004478
3722.93	0.0006359
3732.58	0.0004651
3742.22	0.0006682
3751.86	0.00047
3761.51	0.0006312
3771.15	0.000120362
3780.8	0.00018719
3790.44	0.0003042
3800.09	0.0005141
3809.73	0.0004722
3819.38	0.0005528
3829.02	0.0005484
3838.67	0.0004621
3848.31	0.0005432
3857.96	0.0007172
3867.6	0.0005959
3877.25	0.0005277
3886.89	0.0006499
3896.54	0.0008111
3906.18	0.0006788
3915.83	0.001205
3925.47	0.001355
3935.12	0.001415
3944.76	0.001825
3954.41	0.0010571
3964.05	0.001285
3973.69	0.001725
3983.34	0.0010278
3992.98	0.0007684
