Infrared Spectrum: m-Toluic acid hydrazide
Formula: C 8 H 10 N 2 O
CAS: 13050-47-0
State: gas
Origin: EPA-IR VAPOR PHASE LIBRARY
1/CM	ABSORBANCE
549.8	0.0010917
559.445	0.0010225
569.09	0.0009872
578.734	0.0008936
588.379	0.0006208
598.024	0.0007421
607.669	0.0007154
617.313	0.0009309
626.958	0.0006383
636.603	0.000929
646.248	0.0007593
655.893	0.0009253
665.537	0.0009157
675.182	0.001784
684.827	0.002204
694.472	0.001994
704.116	0.001804
713.761	0.001774
723.406	0.002404
733.051	0.003764
742.695	0.004494
752.34	0.002694
761.985	0.001694
771.63	0.001434
781.275	0.001754
790.919	0.002104
800.564	0.002734
810.209	0.002654
819.854	0.001844
829.498	0.001194
839.143	0.001354
848.788	0.001644
858.433	0.001674
868.078	0.001944
877.722	0.002704
887.367	0.003134
897.012	0.003344
906.657	0.003024
916.301	0.002564
925.946	0.002204
935.591	0.003274
945.236	0.005594
954.88	0.006114
964.525	0.003954
974.17	0.002204
983.815	0.001444
993.46	0.001234
1003.1	0.0010593
1012.75	0.0007902
1022.39	0.0006271
1032.04	0.0008338
1041.68	0.0006983
1051.33	0.0006025
1060.97	0.0003475
1070.62	0.0007686
1080.26	0.001304
1089.91	0.0009171
1099.55	0.0008667
1109.2	0.000626
1118.84	0.0005571
1128.49	0.0009138
1138.13	0.0005684
1147.78	0.0005406
1157.42	0.0005861
1167.07	0.0003212
1176.71	0.0005614
1186.36	0.0004911
1196	0.001164
1205.64	0.001834
1215.29	0.002794
1224.93	0.002414
1234.58	0.001554
1244.22	0.001304
1253.87	0.001624
1263.51	0.003544
1273.16	0.006094
1282.8	0.008864
1292.45	0.008674
1302.09	0.005444
1311.74	0.002764
1321.38	0.001784
1331.03	0.001344
1340.67	0.001304
1350.32	0.001164
1359.96	0.001184
1369.61	0.001114
1379.25	0.001144
1388.9	0.001324
1398.54	0.001724
1408.18	0.002854
1417.83	0.004764
1427.47	0.007074
1437.12	0.009864
1446.76	0.011874
1456.41	0.011294
1466.05	0.009344
1475.7	0.007684
1485.34	0.006374
1494.99	0.005234
1504.63	0.003814
1514.28	0.002574
1523.92	0.001794
1533.57	0.001574
1543.21	0.001294
1552.86	0.001174
1562.5	0.001364
1572.15	0.001894
1581.79	0.003004
1591.44	0.003284
1601.08	0.003194
1610.73	0.003544
1620.37	0.004234
1630.01	0.005124
1639.66	0.005114
1649.3	0.003944
1658.95	0.003134
1668.59	0.003684
1678.24	0.005244
1687.88	0.010144
1697.53	0.018314
1707.17	0.017964
1716.82	0.007824
1726.46	0.004374
1736.11	0.002874
1745.75	0.001624
1755.4	0.0010717
1765.04	0.0007056
1774.69	0.0006576
1784.33	0.0006305
1793.98	0.0005317
1803.62	0.0005804
1813.27	0.000405
1822.91	0.0003717
1832.55	0.0004396
1842.2	0.0004009
1851.84	0.0004361
1861.49	0.0003878
1871.13	0.0003541
1880.78	0.0003206
1890.42	0.0003569
1900.07	0.0003277
1909.71	0.0003041
1919.36	0.0002832
1929	0.0002732
1938.65	0.0003218
1948.29	0.0002839
1957.94	0.0003739
1967.58	0.0002728
1977.23	0.00017155
1986.87	0.00015138
1996.52	7.31e-05
2006.16	0
2015.81	0.0001825
2025.45	0.0002328
2035.1	0.00012254
2044.74	0.00011881
2054.38	7.21e-05
2064.03	0.00017812
2073.67	0.00020345
2083.32	8.04e-05
2092.96	8.94e-05
2102.61	0.00019275
2112.25	0.00011613
2121.9	4.18e-05
2131.54	0.000112839
2141.19	0.00019761
2150.83	0.00011674
2160.48	0.00012075
2170.12	0.0001811
2179.77	0.00018994
2189.41	9.719e-05
2199.06	0.00012907
2208.7	0.00015822
2218.35	0.00011539
2227.99	0.0002287
2237.64	0.00018916
2247.28	0.00017367
2256.92	0.0002149
2266.57	0.0001978
2276.21	0.00012773
2285.86	0.00012192
2295.5	0.0002207
2305.15	0.00015413
2314.79	0.00012257
2324.44	0.00012161
2334.08	0.00011916
2343.73	9.59e-05
2353.37	0.00019304
2363.02	0.00019194
2372.66	0.00011752
2382.31	0.00020354
2391.95	0.00018397
2401.6	0.00018073
2411.24	0.0001817
2420.89	0.0001361
2430.53	3.85e-05
2440.18	0.0002817
2449.82	0.00010176
2459.47	0.00013123
2469.11	0.00012617
2478.75	8.27e-05
2488.4	0.00017929
2498.04	0.00015154
2507.69	0.0002066
2517.33	0.00018649
2526.98	0.0002648
2536.62	9.27e-05
2546.27	0.00019699
2555.91	0.0002832
2565.56	0.0002306
2575.2	0.00019834
2584.85	0.00016315
2594.49	0.0003193
2604.14	0.000282
2613.78	7.17e-05
2623.43	0.0002081
2633.07	0.0002143
2642.72	0.000229
2652.36	0.00019622
2662.01	6.31e-05
2671.65	0.00017421
2681.29	0.0002929
2690.94	0.0002103
2700.58	0.0003119
2710.23	0.0002343
2719.87	0.0002536
2729.52	0.00016591
2739.16	0.0002922
2748.81	0.0004206
2758.45	0.0002853
2768.1	0.0002191
2777.74	0.000108685
2787.39	0.00029
2797.03	0.0004006
2806.68	0.000305
2816.32	0.0002215
2825.97	0.0002348
2835.61	0.0004765
2845.26	0.0004883
2854.9	0.0006577
2864.55	0.0009452
2874.19	0.001174
2883.84	0.001214
2893.48	0.000934
2903.12	0.001344
2912.77	0.001384
2922.41	0.001944
2932.06	0.002484
2941.7	0.002164
2951.35	0.001564
2960.99	0.00107
2970.64	0.0008158
2980.28	0.0008826
2989.93	0.001174
2999.57	0.001324
3009.22	0.001444
3018.86	0.001714
3028.51	0.002134
3038.15	0.002714
3047.8	0.002574
3057.44	0.002534
3067.09	0.002354
3076.73	0.001534
3086.38	0.001184
3096.02	0.0009677
3105.67	0.0008537
3115.31	0.0005349
3124.95	0.0004565
3134.6	0.0004267
3144.24	0.0002773
3153.89	0.0002707
3163.53	0.0002106
3173.18	0.0003947
3182.82	0.0003061
3192.47	0.0004554
3202.11	0.0005328
3211.76	0.0003062
3221.4	0.0004465
3231.05	0.0005242
3240.69	0.0003046
3250.34	0.0002601
3259.98	0.0003234
3269.63	0.0003685
3279.27	0.0003491
3288.92	0.0004018
3298.56	0.0003741
3308.21	0.0005674
3317.85	0.000587
3327.49	0.000446
3337.14	0.0004402
3346.78	0.0005827
3356.43	0.0004864
3366.07	0.0005017
3375.72	0.0005596
3385.36	0.000389
3395.01	0.0004922
3404.65	0.0004531
3414.3	0.0005486
3423.94	0.0007405
3433.59	0.0006262
3443.23	0.001194
3452.88	0.001604
3462.52	0.002344
3472.17	0.003134
3481.81	0.002514
3491.46	0.001344
3501.1	0.0007426
3510.75	0.0003975
3520.39	0.0006588
3530.04	0.0003414
3539.68	0.0004985
3549.32	0.0004591
3558.97	0.0002808
3568.61	0.0003892
3578.26	0.0005116
3587.9	0.0006055
3597.55	8.99e-05
3607.19	0.0003092
3616.84	0.0003689
3626.48	0.0004373
3636.13	0.0003008
3645.77	0.0002314
3655.42	0.0002348
3665.06	0.0003928
3674.71	0.0003042
3684.35	0.0003043
3694	0.0002531
3703.64	0.0003101
3713.29	0.0002556
3722.93	0.0003231
3732.58	0.00015424
3742.22	0.0004478
3751.86	0.00020143
3761.51	0.0003974
3771.15	0.0004268
3780.8	0.0002607
3790.44	0.00017884
3800.09	0.0002354
3809.73	0.00015057
3819.38	0.0004183
3829.02	0.0002356
3838.67	0.000359
3848.31	0.0005025
3857.96	0.0004176
3867.6	0.0003521
3877.25	0.0005506
3886.89	0.0003156
3896.54	0.0003101
3906.18	0.0004709
3915.83	0.0003202
3925.47	0.0004893
3935.12	0.0003979
3944.76	0.00013679
3954.41	0.0003207
3964.05	0.0002712
3973.69	0.0004771
3983.34	0.000458
3992.98	0.0003138
