Infrared Spectrum: 3-Chloro-4-fluorothiobenzamide
Formula: C 7 H 5 Cl F N S
CAS: 130560-97-3
State: gas
Origin: EPA-IR VAPOR PHASE LIBRARY
1/CM	ABSORBANCE
549.8	0.0055
559.445	0.00509
569.09	0.00603
578.734	0.00825
588.379	0.00858
598.024	0.0065
607.669	0.00429
617.313	0.00386
626.958	0.00255
636.603	0.0036
646.248	0.0049
655.893	0.00608
665.537	0.0055
675.182	0.00496
684.827	0.00466
694.472	0.00509
704.116	0.0093
713.761	0.01544
723.406	0.02219
733.051	0.01927
742.695	0.01269
752.34	0.01031
761.985	0.0085
771.63	0.00646
781.275	0.00676
790.919	0.00773
800.564	0.00948
810.209	0.0172
819.854	0.02627
829.498	0.02677
839.143	0.01874
848.788	0.01285
858.433	0.00984
868.078	0.01131
877.722	0.01606
887.367	0.01895
897.012	0.01465
906.657	0.0107
916.301	0.0092
925.946	0.00939
935.591	0.01027
945.236	0.01046
954.88	0.0089
964.525	0.00807
974.17	0.00745
983.815	0.00672
993.46	0.00601
1003.1	0.0053
1012.75	0.00453
1022.39	0.00633
1032.04	0.00462
1041.68	0.00503
1051.33	0.01091
1060.97	0.01908
1070.62	0.01567
1080.26	0.00898
1089.91	0.00558
1099.55	0.00626
1109.2	0.00847
1118.84	0.00949
1128.49	0.00879
1138.13	0.00941
1147.78	0.00907
1157.42	0.00741
1167.07	0.00733
1176.71	0.00708
1186.36	0.00634
1196	0.00705
1205.64	0.00671
1215.29	0.00401
1224.93	0.00566
1234.58	0.01118
1244.22	0.02284
1253.87	0.04204
1263.51	0.06743
1273.16	0.06377
1282.8	0.02828
1292.45	0.02027
1302.09	0.0278
1311.74	0.05178
1321.38	0.08258
1331.03	0.08124
1340.67	0.04882
1350.32	0.02231
1359.96	0.01343
1369.61	0.01109
1379.25	0.01589
1388.9	0.02621
1398.54	0.02709
1408.18	0.01637
1417.83	0.00875
1427.47	0.00633
1437.12	0.00515
1446.76	0.00502
1456.41	0.00571
1466.05	0.00906
1475.7	0.01938
1485.34	0.04046
1494.99	0.08352
1504.63	0.07317
1514.28	0.02042
1523.92	0.00821
1533.57	0.00667
1543.21	0.00684
1552.86	0.00716
1562.5	0.00999
1572.15	0.01912
1581.79	0.03425
1591.44	0.06028
1601.08	0.06484
1610.73	0.03252
1620.37	0.01533
1630.01	0.00903
1639.66	0.00561
1649.3	0.00389
1658.95	0.00274
1668.59	0.0019768
1678.24	0.0019239
1687.88	0.0018304
1697.53	0.0017803
1707.17	0.001795
1716.82	0.0017046
1726.46	0.0018806
1736.11	0.0019023
1745.75	0.00249
1755.4	0.0027
1765.04	0.00294
1774.69	0.0031
1784.33	0.00221
1793.98	0.0019807
1803.62	0.0015646
1813.27	0.0016798
1822.91	0.0019092
1832.55	0.0017802
1842.2	0.001692
1851.84	0.001606
1861.49	0.0018102
1871.13	0.00234
1880.78	0.00223
1890.42	0.00239
1900.07	0.0022
1909.71	0.0019983
1919.36	0.0016636
1929	0.0015173
1938.65	0.0016122
1948.29	0.0015657
1957.94	0.0016165
1967.58	0.0017177
1977.23	0.0019685
1986.87	0.0019264
1996.52	0.0021168
2006.16	0.0018716
2015.81	0.0016764
2025.45	0.0015499
2035.1	0.0014439
2044.74	0.0014779
2054.38	0.0015653
2064.03	0.001352
2073.67	0.00168
2083.32	0.0014776
2092.96	0.0015699
2102.61	0.0015123
2112.25	0.0016457
2121.9	0.0013881
2131.54	0.0013808
2141.19	0.0015926
2150.83	0.0013948
2160.48	0.0017428
2170.12	0.0015001
2179.77	0.0014452
2189.41	0.0013144
2199.06	0.0013785
2208.7	0.0016296
2218.35	0.0018398
2227.99	0.0027
2237.64	0.00335
2247.28	0.00273
2256.92	0.0016656
2266.57	0.0016537
2276.21	0.00117518
2285.86	0.0016043
2295.5	0.00119004
2305.15	0.0012636
2314.79	0.0014564
2324.44	0.0014834
2334.08	0.0017374
2343.73	0.0014945
2353.37	0.00120096
2363.02	0.0014105
2372.66	0.0017689
2382.31	0.0013881
2391.95	0.0016836
2401.6	0.0017596
2411.24	0.0012318
2420.89	0.0016808
2430.53	0.001383
2440.18	0.0015462
2449.82	0.0014786
2459.47	0.0016874
2469.11	0.00118318
2478.75	0.0014376
2488.4	0.0017525
2498.04	0.0016752
2507.69	0.0018489
2517.33	0.0021045
2526.98	0.00221
2536.62	0.001951
2546.27	0.0018388
2555.91	0.00215
2565.56	0.0017022
2575.2	0.0015312
2584.85	0.0017349
2594.49	0.0015227
2604.14	0.0016021
2613.78	0.0015503
2623.43	0.0016583
2633.07	0.001297
2642.72	0.0017325
2652.36	0.0016125
2662.01	0.00118542
2671.65	0.0017981
2681.29	0.0013968
2690.94	0.0010636
2700.58	0.001633
2710.23	0.0014454
2719.87	0.0017442
2729.52	0.0014137
2739.16	0.0015357
2748.81	0.0016444
2758.45	0.0016683
2768.1	0.0020678
2777.74	0.0010759
2787.39	0.0010962
2797.03	0.00112224
2806.68	0.0016906
2816.32	0.0015156
2825.97	0.000849
2835.61	0.0012612
2845.26	0.0019495
2854.9	0.0014528
2864.55	0.0010641
2874.19	0.0014423
2883.84	0.00093
2893.48	0.0012207
2903.12	0.0016446
2912.77	0.0017787
2922.41	0.0014224
2932.06	0.0015676
2941.7	0.0020663
2951.35	0.00119586
2960.99	0.0012443
2970.64	0.0014341
2980.28	0.0015494
2989.93	0.00114368
2999.57	0.000744
3009.22	0.000856
3018.86	0.00121989
3028.51	0.0014907
3038.15	0.0014581
3047.8	0.0021087
3057.44	0.0021199
3067.09	0.00263
3076.73	0.00287
3086.38	0.00249
3096.02	0.0019938
3105.67	0.0016155
3115.31	0.001595
3124.95	0.0012554
3134.6	0.000968
3144.24	0.0014258
3153.89	0.0010925
3163.53	0.0018619
3173.18	0.0015231
3182.82	0.0013357
3192.47	0.0016737
3202.11	0.0010925
3211.76	0.000841
3221.4	0.0014122
3231.05	0.000588
3240.69	0.0012273
3250.34	0.000818
3259.98	0.0012204
3269.63	0.0013859
3279.27	0.000897
3288.92	0.001057
3298.56	0.000608
3308.21	0.000985
3317.85	0.000922
3327.49	0.0011068
3337.14	0.000649
3346.78	0.0012754
3356.43	0.0023
3366.07	0.00262
3375.72	0.00281
3385.36	0.00582
3395.01	0.00942
3404.65	0.01519
3414.3	0.01265
3423.94	0.00617
3433.59	0.00365
3443.23	0.00254
3452.88	0.0018621
3462.52	0.0019636
3472.17	0.0020791
3481.81	0.00221
3491.46	0.00381
3501.1	0.00464
3510.75	0.00766
3520.39	0.01104
3530.04	0.01178
3539.68	0.00463
3549.32	0.00274
3558.97	0.0015542
3568.61	0.0017183
3578.26	0.00117133
3587.9	0.000998
3597.55	0.0016671
3607.19	0.001016
3616.84	0.000969
3626.48	0.00121926
3636.13	0.0013515
3645.77	0.00083
3655.42	0.00063
3665.06	0.00117934
3674.71	0.0016841
3684.35	0.0010284
3694	0.000497
3703.64	0.0012278
3713.29	0.0013494
3722.93	0.000978
3732.58	0.000601
3742.22	0.0018054
3751.86	0.0015937
3761.51	0.00113239
3771.15	0.000883
3780.8	0.0009
3790.44	0.00120815
3800.09	0.0013769
3809.73	0.0010865
3819.38	0.001072
3829.02	0.000934
3838.67	0.0010407
3848.31	0.0014205
3857.96	0.000791
3867.6	0.000618
3877.25	0.0012517
3886.89	0.0016179
3896.54	0.0014057
3906.18	0.001664
3915.83	0.000838
3925.47	0.0015427
3935.12	0.000845
3944.76	0.0013083
3954.41	0.0016648
3964.05	0.000487
3973.69	0.0015547
3983.34	0.00212
3992.98	0.00068
