Infrared Spectrum: Calcium hydroxide
Formula: Ca ( O H ) 2
CAS: 1305-62-0
State: solid
Instrument: Bruker Tensor 37 FTIR
Resolution: 0.96450084
Origin: Pacific Northwest National Laboratory Under IARPA Contract
1/cm	Reflectance
7498.99	0.824586
7481.63	0.845353
7464.27	0.830933
7446.91	0.832642
7429.55	0.81993
7412.19	0.825396
7394.84	0.822531
7377.48	0.740627
7360.12	0.821343
7342.76	0.799961
7325.4	0.768806
7308.04	0.70312
7290.68	0.41447
7273.32	0.71253
7255.96	0.806172
7238.6	0.829299
7221.24	0.842812
7203.88	0.84767
7186.52	0.850622
7169.16	0.853517
7151.8	0.849938
7134.44	0.854897
7117.08	0.853937
7099.72	0.854967
7082.36	0.864313
7065	0.859783
7047.64	0.862415
7030.28	0.85952
7012.92	0.857051
6995.56	0.862029
6978.2	0.860734
6960.84	0.86255
6943.48	0.860772
6926.12	0.863049
6908.76	0.862869
6891.4	0.862458
6874.04	0.862164
6856.68	0.860254
6839.32	0.859945
6821.96	0.860489
6804.6	0.858247
6787.24	0.861207
6769.88	0.859467
6752.52	0.857987
6735.16	0.858361
6717.8	0.855141
6700.44	0.851663
6683.08	0.853469
6665.72	0.848938
6648.36	0.845502
6631	0.845167
6613.64	0.842044
6596.28	0.838593
6578.92	0.836285
6561.56	0.833497
6544.2	0.83096
6526.85	0.828178
6509.49	0.824242
6492.13	0.82138
6474.77	0.816656
6457.41	0.814511
6440.05	0.810901
6422.69	0.806119
6405.33	0.801289
6387.97	0.795828
6370.61	0.791178
6353.25	0.785097
6335.89	0.77949
6318.53	0.773947
6301.17	0.767926
6283.81	0.765178
6266.45	0.761645
6249.09	0.757755
6231.73	0.755481
6214.37	0.754274
6197.01	0.753213
6179.65	0.753267
6162.29	0.75001
6144.93	0.739242
6127.57	0.7188
6110.21	0.70284
6092.85	0.69049
6075.49	0.68426
6058.13	0.68691
6040.77	0.68973
6023.41	0.68842
6006.05	0.68326
5988.69	0.68631
5971.33	0.68183
5953.97	0.65666
5936.61	0.63248
5919.25	0.60552
5901.89	0.58081
5884.53	0.57218
5867.17	0.56063
5849.81	0.50366
5832.45	0.48199
5815.09	0.56412
5797.73	0.59892
5780.37	0.59014
5763.01	0.54005
5745.65	0.35681
5728.29	0.29263
5710.93	0.30105
5693.57	0.29206
5676.21	0.34219
5658.86	0.42624
5641.5	0.46651
5624.14	0.47971
5606.78	0.3359
5589.42	0.30834
5572.06	0.02907
5554.7	0.20447
5537.34	0.30919
5519.98	0.30402
5502.62	0.37778
5485.26	0.39797
5467.9	0.39109
5450.54	0.37292
5433.18	0.32834
5415.82	0.32536
5398.46	0.29189
5381.1	0.32321
5363.74	0.38481
5346.38	0.40562
5329.02	0.41358
5311.66	0.41477
5294.3	0.40678
5276.94	0.41253
5259.58	0.42306
5242.22	0.40403
5224.86	0.40993
5207.5	0.41464
5190.14	0.41528
5172.78	0.43362
5155.42	0.47152
5138.06	0.48498
5120.7	0.49438
5103.34	0.50361
5085.98	0.4962
5068.62	0.5093
5051.26	0.48589
5033.9	0.48199
5016.54	0.46317
4999.18	0.45757
4981.82	0.52403
4964.46	0.54438
4947.1	0.55617
4929.74	0.56021
4912.38	0.55989
4895.02	0.55778
4877.66	0.55335
4860.3	0.54654
4842.94	0.5405
4825.58	0.52857
4808.22	0.52823
4790.86	0.52338
4773.51	0.51404
4756.15	0.50332
4738.79	0.49221
4721.43	0.47916
4704.07	0.46673
4686.71	0.4548
4669.35	0.43953
4651.99	0.38498
4634.63	0.39177
4617.27	0.3797
4599.91	0.35245
4582.55	0.30717
4565.19	0.28148
4547.83	0.2554
4530.47	0.14561
4513.11	0.10669
4495.75	0.07875
4478.39	0.07178
4461.03	0.06737
4443.67	0.07073
4426.31	0.13401
4408.95	0.16387
4391.59	0.15493
4374.23	0.13622
4356.87	0.13048
4339.51	0.126
4322.15	0.10025
4304.79	0.0874
4287.43	0.0874
4270.07	0.09609
4252.71	0.10458
4235.35	0.11322
4217.99	0.10872
4200.63	0.08285
4183.27	0.05446
4165.91	0.07292
4148.55	0.0576
4131.19	0.04566
4113.83	0.02877
4096.47	0.0242
4079.11	0.02095
4061.75	0.02407
4044.39	0.838071
4027.03	0.836397
4009.67	0.838334
3992.31	0.835829
3974.95	0.822308
3957.59	0.834005
3940.23	0.817484
3922.87	0.79917
3905.52	0.827112
3888.16	0.794108
3870.8	0.767576
3853.44	0.656712
3836.08	0.532363
3818.72	0.761832
3801.36	0.818165
3784	0.841918
3766.64	0.847044
3749.28	0.852439
3731.92	0.857468
3714.56	0.857614
3697.2	0.854257
3679.84	0.858122
3662.48	0.858365
3645.12	0.85383
3627.76	0.862329
3610.4	0.859874
3593.04	0.862928
3575.68	0.862494
3558.32	0.858453
3540.96	0.860277
3523.6	0.863196
3506.24	0.863277
3488.88	0.860486
3471.52	0.862614
3454.16	0.862363
3436.8	0.864824
3419.44	0.861568
3402.08	0.864667
3384.72	0.861091
3367.36	0.862708
3350	0.861928
3332.64	0.86507
3315.28	0.862352
3297.92	0.858876
3280.56	0.858133
3263.2	0.85436
3245.84	0.854428
3228.48	0.854032
3211.12	0.851296
3193.76	0.84831
3176.4	0.846334
3159.04	0.843948
3141.68	0.841384
3124.32	0.838738
3106.96	0.836448
3089.6	0.834207
3072.24	0.830742
3054.88	0.826896
3037.53	0.825455
3020.17	0.819952
3002.81	0.817392
2985.45	0.815286
2968.09	0.808615
2950.73	0.803597
2933.37	0.798355
2916.01	0.793547
2898.65	0.787233
2881.29	0.781747
2863.93	0.776283
2846.57	0.771428
2829.21	0.769322
2811.85	0.767967
2794.49	0.76505
2777.13	0.761724
2759.77	0.760676
2742.41	0.75952
2725.05	0.759553
2707.69	0.754742
2690.33	0.741585
2672.97	0.722319
2655.61	0.708572
2638.25	0.698523
2620.89	0.693853
2603.53	0.697589
2586.17	0.698868
2568.81	0.695992
2551.45	0.693256
2534.09	0.695544
2516.73	0.685224
2499.37	0.656609
2482.01	0.637287
2464.65	0.607028
2447.29	0.589368
2429.93	0.582112
2412.57	0.560772
2395.21	0.497108
2377.85	0.518644
2360.49	0.593431
2343.13	0.610764
2325.77	0.592263
2308.41	0.510425
2291.05	0.346011
2273.69	0.287736
2256.33	0.321216
2238.97	0.296515
2221.61	0.386711
2204.25	0.453373
2186.89	0.485761
2169.53	0.388336
2152.18	0.387729
2134.82	0.218543
2117.46	0.0543812
2100.1	0.260802
2082.74	0.317649
2065.38	0.291033
2048.02	0.397115
2030.66	0.395611
2013.3	0.385674
1995.94	0.359693
1978.58	0.33218
1961.22	0.323654
1943.86	0.300026
1926.5	0.33939
1909.14	0.393062
1891.78	0.407257
1874.42	0.414112
1857.06	0.413645
1839.7	0.407023
1822.34	0.417931
1804.98	0.425132
1787.62	0.408527
1770.26	0.412104
1752.9	0.424151
1735.54	0.41711
1718.18	0.455642
1700.82	0.478065
1683.46	0.490897
1666.1	0.500881
1648.74	0.508856
1631.38	0.513162
1614.02	0.50754
1596.66	0.488516
1579.3	0.486032
1561.94	0.442671
1544.58	0.498247
1527.22	0.533745
1509.86	0.551937
1492.5	0.559782
1475.14	0.560912
1457.78	0.559324
1440.42	0.557046
1423.06	0.55204
1405.7	0.545213
1388.34	0.539274
1370.98	0.525116
1353.62	0.528104
1336.26	0.521212
1318.9	0.511714
1301.54	0.501534
1284.19	0.48888
1266.83	0.476898
1249.47	0.465215
1232.11	0.453859
1214.75	0.433042
1197.39	0.330284
1180.03	0.389018
1162.67	0.376615
1145.31	0.338083
1127.95	0.292368
1110.59	0.27892
1093.23	0.222447
1075.87	0.132997
1058.51	0.098667
1041.15	0.0741053
1023.79	0.0720787
1006.43	0.0662231
989.068	0.0826038
971.709	0.155243
954.349	0.163779
936.989	0.150246
919.629	0.132035
902.269	0.131484
884.91	0.121081
867.55	0.0930168
850.19	0.0880952
832.83	0.0893933
815.47	0.0984708
798.111	0.106904
780.751	0.113693
763.391	0.103038
746.031	0.0748617
728.671	0.059966
711.312	0.0676987
693.952	0.051869
676.592	0.0393174
659.232	0.0192104
641.872	0.0206766
624.513	0.0196867
607.153	0.0212276
