Infrared Spectrum: 2,5-PYRAZINEDICARBOXYLIC ACID, DIMETHYL ESTER
Formula: C8 H8 N2 O4
CAS: 13051-89-3
State: SOLID (OIL MULL)
Melting point: 168.4-169 C
Class: COBLENTZ III
Instrument: BAIRD (GRATING)
Instrument parameters: NaCl PRISM
Sampling: TRANSMISSION
Resolution: 2
Origin: WYANDOTTE CHEMICALS CORP.
1/CM	TRANSMITTANCE
4000	0.7205
3991	0.7211
3982	0.7217
3973	0.7221
3964	0.7228
3955	0.7233
3946	0.7238
3937	0.7249
3928	0.7261
3919	0.7276
3910	0.7297
3901	0.7317
3892	0.7336
3883	0.7351
3874	0.7364
3865	0.7375
3856	0.7383
3847	0.7389
3838	0.7395
3829	0.7408
3820	0.7424
3811	0.7442
3802	0.7461
3793	0.7478
3784	0.7496
3775	0.7511
3766	0.7528
3757	0.7543
3748	0.7558
3739	0.7571
3730	0.7582
3721	0.7593
3712	0.7601
3703	0.7612
3694	0.7622
3685	0.7633
3676	0.7644
3667	0.7651
3658	0.7654
3649	0.7653
3640	0.7653
3631	0.7615
3622	0.76
3613	0.7594
3604	0.7589
3595	0.7598
3586	0.7608
3577	0.7619
3568	0.7631
3559	0.7635
3550	0.7638
3541	0.7632
3532	0.7624
3523	0.7611
3514	0.76
3505	0.7587
3496	0.7565
3487	0.7545
3478	0.7514
3469	0.7475
3460	0.7408
3451	0.7343
3442	0.728
3433	0.7225
3424	0.7183
3415	0.7154
3406	0.7151
3397	0.716
3388	0.719
3379	0.7251
3370	0.7304
3361	0.735
3352	0.7389
3343	0.7415
3334	0.7439
3325	0.7456
3316	0.7468
3307	0.7475
3298	0.7485
3289	0.7493
3280	0.7499
3271	0.7506
3262	0.7512
3253	0.7504
3244	0.7444
3235	0.7386
3226	0.738
3217	0.7389
3208	0.7405
3199	0.7419
3190	0.7432
3181	0.7434
3172	0.7421
3163	0.7392
3154	0.7364
3145	0.7336
3136	0.7308
3127	0.7281
3118	0.7257
3109	0.7215
3100	0.6312
3091	0.542
3082	0.5445
3073	0.5723
3064	0.6003
3055	0.6262
3046	0.6286
3037	0.575
3028	0.5152
3019	0.4551
3010	0.3945
3001	0.3337
2992	0.2724
2983	0.2107
2974	0.1487
2965	0.0864
2956	0.0597
2947	0.0574
2938	0.0565
2929	0.0616
2920	0.0702
2911	0.0821
2902	0.1067
2893	0.1386
2884	0.1587
2875	0.1548
2866	0.1475
2857	0.2074
2848	0.3218
2839	0.4373
2830	0.5534
2821	0.671
2812	0.7301
2803	0.7571
2794	0.7676
2785	0.7771
2776	0.785
2767	0.79
2758	0.7917
2749	0.7921
2740	0.7928
2731	0.7932
2722	0.7933
2713	0.7936
2704	0.7944
2695	0.7951
2686	0.7968
2677	0.8001
2668	0.8072
2659	0.815
2650	0.8168
2641	0.8178
2632	0.8188
2623	0.8198
2614	0.821
2605	0.8221
2596	0.8243
2587	0.8225
2578	0.8221
2569	0.8243
2560	0.8297
2551	0.8406
2542	0.8432
2533	0.8411
2524	0.8404
2515	0.85
2506	0.86
2497	0.8665
2488	0.8678
2479	0.8651
2470	0.8615
2461	0.8584
2452	0.8571
2443	0.8578
2434	0.86
2425	0.8644
2416	0.8704
2407	0.8761
2398	0.8789
2389	0.8785
2380	0.874
2371	0.8673
2362	0.8621
2353	0.8596
2344	0.8587
2335	0.8596
2326	0.8641
2317	0.8731
2308	0.8871
2299	0.901
2290	0.9144
2281	0.9228
2272	0.9256
2263	0.9197
2254	0.9143
2245	0.9123
2236	0.9125
2227	0.913
2218	0.9178
2209	0.925
2200	0.9309
2191	0.9354
2182	0.9385
2173	0.9411
2164	0.9434
2155	0.9451
2146	0.9461
2137	0.9454
2128	0.9397
2119	0.9337
2110	0.9331
2101	0.9384
2092	0.9466
2083	0.9488
2074	0.9459
2065	0.9425
2056	0.9433
2047	0.9456
2038	0.9498
2029	0.9528
2020	0.955
2011	0.9559
2002	0.9543
1993	0.9509
1984	0.9459
1975	0.9543
1966	0.9658
1957	0.9698
1948	0.9712
1939	0.9513
1930	0.9244
1921	0.8871
1912	0.8971
1903	0.9252
1894	0.9575
1885	0.9765
1876	0.9795
1867	0.978
1858	0.987
1849	0.9758
1840	0.9694
1831	0.9731
1822	0.9555
1813	0.9287
1804	0.9006
1795	0.8585
1786	0.8074
1777	0.7694
1768	0.6974
1759	0.5364
1750	0.3677
1741	0.1973
1732	0.0581
1723	0.0669
1714	0.1322
1705	0.2476
1696	0.3591
1687	0.4206
1678	0.5091
1669	0.5875
1660	0.6328
1651	0.673
1642	0.7037
1633	0.7361
1624	0.7672
1615	0.7905
1606	0.8001
1597	0.7689
1588	0.8087
1579	0.8216
1570	0.8156
1561	0.7828
1552	0.7749
1543	0.8062
1534	0.8206
1525	0.8217
1516	0.815
1507	0.7965
1498	0.7585
1489	0.6029
1480	0.2059
1471	0.2691
1462	0.2109
1453	0.2408
1444	0.1454
1435	0.3722
1426	0.665
1417	0.7058
1408	0.7015
1399	0.6297
1390	0.3771
1381	0.2034
1372	0.1525
1363	0.0949
1354	0.124
1345	0.2756
1336	0.6849
1327	0.7587
1318	0.7298
1309	0.5453
1300	0.3087
1291	0.0808
1282	0.0517
1273	0.2011
1264	0.3564
1255	0.5367
1246	0.6676
1237	0.7088
1228	0.7238
1219	0.6665
1210	0.2995
1201	0.3409
1192	0.4402
1183	0.3177
1174	0.4573
1165	0.3084
1156	0.1026
1147	0.0654
1138	0.1301
1129	0.2937
1120	0.4649
1111	0.5642
1102	0.6386
1093	0.6653
1084	0.7117
1075	0.7385
1066	0.7325
1057	0.7568
1048	0.7976
1039	0.7788
1030	0.4288
1021	0.0832
1012	0.4132
1003	0.6248
994	0.7087
985	0.7443
976	0.7411
967	0.6706
958	0.2195
949	0.6543
940	0.7538
931	0.7864
922	0.8064
913	0.8178
904	0.8233
895	0.8391
886	0.843
877	0.8541
868	0.8587
859	0.873
850	0.8724
841	0.8659
832	0.8444
823	0.2203
814	0.7467
805	0.8505
796	0.8754
787	0.8799
778	0.8675
769	0.8178
760	0.1634
751	0.7839
742	0.8824
733	0.8838
724	0.8814
715	0.8978
706	0.9232
697	0.9265
688	0.9121
679	0.9018
670	0.8821
661	0.8041
652	0.8207
643	0.7757
634	0.7491
