Infrared Spectrum: THIOPHENE, 2-ACETAMIDO
Formula: C6 H7 N O S
CAS: 13053-81-1
Class: COBLENTZ
Instrument: Not specified, most likely a prism, grating, or hybrid spectrometer.
Sampling: TRANSMISSION
Resolution: 4
Origin: TENNESSEE EASTMAN COMPANY, RESEARCH LABORATORIES
MICROMETERS	TRANSMITTANCE
2.013	0.923
2.05302	0.918
2.09304	0.909
2.13306	0.901
2.17308	0.884
2.2131	0.871
2.25311	0.859
2.29313	0.854
2.33315	0.853
2.37317	0.849
2.41319	0.846
2.45321	0.843
2.49323	0.836
2.53325	0.829
2.57327	0.828
2.61329	0.828
2.65331	0.826
2.69332	0.816
2.73334	0.749
2.77336	0.701
2.81338	0.656
2.8534	0.621
2.89342	0.612
2.93344	0.637
2.97346	0.654
3.01348	0.595
3.0535	0.325
3.09352	0.302
3.13353	0.409
3.17355	0.554
3.21357	0.467
3.25359	0.492
3.29361	0.684
3.33363	0.754
3.37365	0.734
3.41367	0.776
3.45369	0.757
3.49371	0.821
3.53373	0.806
3.57374	0.813
3.61376	0.848
3.65378	0.849
3.6938	0.854
3.73382	0.854
3.77384	0.859
3.81386	0.871
3.85388	0.878
3.8939	0.881
3.93392	0.886
3.97394	0.886
4.01395	0.893
4.05397	0.899
4.09399	0.899
4.13401	0.899
4.17403	0.903
4.21405	0.924
4.25407	0.909
4.29409	0.904
4.33411	0.904
4.37413	0.918
4.41415	0.923
4.45416	0.926
4.49418	0.926
4.5342	0.929
4.57422	0.933
4.61424	0.934
4.65426	0.938
4.69428	0.938
4.7343	0.938
4.77432	0.939
4.81434	0.946
4.85435	0.946
4.89437	0.946
4.93439	0.949
4.97441	0.953
5.01443	0.951
5.05445	0.948
5.09447	0.951
5.13449	0.953
5.17451	0.953
5.21453	0.953
5.25455	0.959
5.29456	0.961
5.33458	0.963
5.3746	0.959
5.41462	0.953
5.45464	0.953
5.49466	0.954
5.53468	0.954
5.5747	0.944
5.61472	0.919
5.65474	0.943
5.69476	0.941
5.73477	0.933
5.77479	0.923
5.81481	0.919
5.85483	0.914
5.89485	0.883
5.93487	0.772
5.97489	0.579
6.01491	0.275
6.05493	0.143
6.09495	0.302
6.13497	0.602
6.17498	0.692
6.215	0.626
6.25502	0.265
6.29504	0.123
6.33506	0.305
6.37508	0.373
6.4151	0.594
6.45512	0.674
6.49514	0.692
6.53516	0.787
6.57518	0.706
6.61519	0.611
6.65521	0.652
6.69523	0.677
6.73525	0.681
6.77527	0.697
6.81529	0.679
6.85531	0.509
6.89533	0.398
6.93535	0.624
6.97537	0.701
7.01539	0.762
7.0554	0.809
7.09542	0.831
7.13544	0.831
7.17546	0.808
7.21548	0.706
7.2555	0.475
7.29552	0.562
7.33554	0.756
7.37556	0.756
7.41558	0.505
7.4556	0.792
7.49561	0.829
7.53563	0.776
7.57565	0.679
7.61567	0.37
7.65569	0.245
7.69571	0.651
7.73573	0.819
7.77575	0.839
7.81577	0.901
7.85579	0.923
7.89581	0.928
7.93582	0.931
7.97584	0.933
8.01586	0.938
8.05588	0.938
8.0959	0.848
8.13592	0.901
8.17594	0.929
8.21596	0.926
8.25598	0.948
8.296	0.948
8.33602	0.971
8.37603	0.971
8.41605	0.971
8.45607	0.964
8.49609	0.964
8.53611	0.964
8.57613	0.969
8.61615	0.971
8.65617	0.973
8.69619	0.973
8.73621	0.978
8.77623	0.978
8.81624	0.978
8.85626	0.976
8.89628	0.976
8.9363	0.978
8.97632	0.978
9.01634	0.974
9.05636	0.973
9.09638	0.974
9.1364	0.973
9.17642	0.951
9.21644	0.906
9.25645	0.838
9.29647	0.951
9.33649	0.961
9.37651	0.964
9.41653	0.963
9.45655	0.946
9.49657	0.904
9.53659	0.761
9.57661	0.687
9.61663	0.843
9.65665	0.893
9.69666	0.923
9.73668	0.893
9.7767	0.794
9.81672	0.711
9.85674	0.806
9.89676	0.884
9.93678	0.936
9.9768	0.948
10.0168	0.958
10.0568	0.963
10.0969	0.969
10.1369	0.968
10.1769	0.886
10.2169	0.656
10.2569	0.881
10.297	0.941
10.337	0.971
10.377	0.984
10.417	0.988
10.457	0.993
10.497	0.986
10.5371	0.978
10.5771	0.978
10.6171	0.976
10.6571	0.976
10.6971	0.976
10.7372	0.978
10.7772	0.978
10.8172	0.978
10.8572	0.978
10.8972	0.978
10.9373	0.979
10.9773	0.979
11.0173	0.979
11.0573	0.978
11.0973	0.969
11.1374	0.948
11.1774	0.944
11.2174	0.963
11.2574	0.969
11.2974	0.973
11.3374	0.971
11.3775	0.973
11.4175	0.973
11.4575	0.973
11.4975	0.973
11.5375	0.973
11.5776	0.968
11.6176	0.953
11.6576	0.856
11.6976	0.764
11.7376	0.834
11.7777	0.884
11.8177	0.931
11.8577	0.946
11.8977	0.951
11.9377	0.951
11.9778	0.951
12.0178	0.948
12.0578	0.949
12.0978	0.928
12.1378	0.894
12.1778	0.884
12.2179	0.893
12.2579	0.871
12.2979	0.806
12.3379	0.659
12.3779	0.54
12.418	0.525
12.458	0.499
12.498	0.649
12.538	0.843
12.578	0.916
12.6181	0.936
12.6581	0.943
12.6981	0.941
12.7381	0.941
12.7781	0.938
12.8182	0.924
12.8582	0.913
12.8982	0.901
12.9382	0.873
12.9782	0.854
13.0182	0.813
13.0583	0.766
13.0983	0.696
13.1383	0.634
13.1783	0.617
13.2183	0.617
13.2584	0.609
13.2984	0.579
13.3384	0.56
13.3784	0.564
13.4184	0.584
13.4585	0.622
13.4985	0.656
13.5385	0.691
13.5785	0.721
13.6185	0.751
13.6586	0.772
13.6986	0.794
13.7386	0.813
13.7786	0.828
13.8186	0.833
13.8586	0.836
13.8987	0.821
13.9387	0.764
13.9787	0.687
14.0187	0.632
14.0587	0.636
14.0988	0.692
14.1388	0.751
14.1788	0.799
14.2188	0.828
14.2588	0.846
14.2989	0.853
14.3389	0.856
14.3789	0.856
14.4189	0.854
14.4589	0.846
14.499	0.826
14.539	0.779
14.579	0.729
14.619	0.689
14.659	0.652
14.699	0.579
14.7391	0.497
14.7791	0.439
14.8191	0.415
14.8591	0.42
14.8991	0.465
14.9392	0.601
14.9792	0.811
15.0192	0.914
15.0592	0.941
15.0992	0.941
15.1393	0.936
15.1793	0.929
15.2193	0.929
15.2593	0.929
15.2993	0.931
15.3394	0.933
15.3794	0.933
15.4194	0.931
15.4594	0.929
15.4994	0.928
15.5395	0.919
15.5795	0.918
15.6195	0.911
15.6595	0.899
15.6995	0.889
15.7395	0.874
15.7796	0.861
15.8196	0.846
15.8596	0.838
15.8996	0.828
15.9396	0.814
15.9797	0.809
