Infrared Spectrum: 3',4'-Methylenedioxyacetanilide
Formula: C 9 H 9 N O 3
CAS: 13067-19-1
State: gas
Origin: EPA-IR VAPOR PHASE LIBRARY
1/CM	ABSORBANCE
551.7	0.00175
563.274	0.00168
574.848	0.00175
586.421	0.00181
597.995	0.00213
609.569	0.00289
621.143	0.00258
632.717	0.00179
644.291	0.00128
655.864	0.00127
667.438	0.00142
679.012	0.00125
690.586	0.0009695
702.16	0.0008288
713.734	0.00114
725.307	0.0010413
736.881	0.0007512
748.455	0.0008918
760.029	0.00146
771.603	0.0028
783.177	0.00487
794.75	0.00604
806.324	0.00689
817.898	0.00743
829.472	0.00502
841.046	0.00447
852.619	0.00482
864.193	0.00449
875.767	0.00281
887.341	0.00211
898.915	0.00257
910.489	0.00374
922.062	0.00653
933.636	0.00971
945.21	0.01036
956.784	0.00733
968.358	0.00487
979.932	0.00545
991.505	0.00669
1003.08	0.00577
1014.65	0.00647
1026.23	0.01005
1037.8	0.01797
1049.37	0.02319
1060.95	0.01538
1072.52	0.0076
1084.1	0.00541
1095.67	0.00608
1107.24	0.00659
1118.82	0.00591
1130.39	0.00688
1141.97	0.00418
1153.54	0.00297
1165.11	0.00406
1176.69	0.00996
1188.26	0.02997
1199.83	0.03666
1211.41	0.03829
1222.98	0.0436
1234.56	0.04158
1246.13	0.02905
1257.7	0.01712
1269.28	0.0139
1280.85	0.01372
1292.42	0.01125
1304	0.0116
1315.57	0.00993
1327.15	0.0092
1338.72	0.01103
1350.29	0.00765
1361.87	0.01171
1373.44	0.01473
1385.02	0.00956
1396.59	0.00787
1408.16	0.00925
1419.74	0.01556
1431.31	0.02018
1442.88	0.01987
1454.46	0.01743
1466.03	0.0198
1477.61	0.04573
1489.18	0.09155
1500.75	0.06232
1512.33	0.04504
1523.9	0.02611
1535.48	0.01449
1547.05	0.00806
1558.62	0.00569
1570.2	0.00459
1581.77	0.00389
1593.34	0.00375
1604.92	0.00489
1616.49	0.00639
1628.07	0.00629
1639.64	0.00464
1651.21	0.00312
1662.79	0.00331
1674.36	0.00405
1685.93	0.00574
1697.51	0.01021
1709.08	0.02322
1720.66	0.04661
1732.23	0.03463
1743.8	0.017
1755.38	0.00945
1766.95	0.00521
1778.53	0.00318
1790.1	0.00237
1801.67	0.00195
1813.25	0.00161
1824.82	0.00144
1836.39	0.00147
1847.97	0.00138
1859.54	0.00135
1871.12	0.00139
1882.69	0.00137
1894.26	0.0011083
1905.84	0.0009629
1917.41	0.0008619
1928.99	0.0007757
1940.56	0.0007323
1952.13	0.0007128
1963.71	0.000628
1975.28	0.0006528
1986.85	0.0006552
1998.43	0.0006809
2010	0.0006436
2021.58	0.0006635
2033.15	0.0006694
2044.72	0.0007426
2056.3	0.0006758
2067.87	0.0005987
2079.44	0.0005992
2091.02	0.0006097
2102.59	0.0005424
2114.17	0.0005024
2125.74	0.0005234
2137.31	0.0005755
2148.89	0.000537
2160.46	0.0004882
2172.04	0.0004963
2183.61	0.0004848
2195.18	0.0005648
2206.76	0.0005134
2218.33	0.0005476
2229.9	0.0005118
2241.48	0.0004738
2253.05	0.0004804
2264.63	0.0004708
2276.2	0.0005532
2287.77	0.000558
2299.35	0.0005586
2310.92	0.000559
2322.5	0.0004796
2334.07	0.0004097
2345.64	0.0004534
2357.22	0.00049
2368.79	0.0005241
2380.36	0.0004757
2391.94	0.0005434
2403.51	0.0005313
2415.09	0.0005904
2426.66	0.0005551
2438.23	0.0004966
2449.81	0.0005232
2461.38	0.0005239
2472.96	0.0004296
2484.53	0.0003527
2496.1	0.0003161
2507.68	0.0003726
2519.25	0.0003727
2530.82	0.0004412
2542.4	0.0005052
2553.97	0.0004988
2565.55	0.0004992
2577.12	0.0005269
2588.69	0.000523
2600.27	0.0004958
2611.84	0.0004735
2623.41	0.0004798
2634.99	0.0005442
2646.56	0.0005629
2658.14	0.0005231
2669.71	0.0005044
2681.28	0.0005024
2692.86	0.0005214
2704.43	0.0005762
2716.01	0.000629
2727.58	0.0006759
2739.15	0.0008065
2750.73	0.0009828
2762.3	0.00171
2773.87	0.0028
2785.45	0.00171
2797.02	0.00118
2808.6	0.00126
2820.17	0.00148
2831.74	0.00193
2843.32	0.00258
2854.89	0.00375
2866.47	0.00606
2878.04	0.00835
2889.61	0.00752
2901.19	0.00656
2912.76	0.00713
2924.33	0.0071
2935.91	0.00661
2947.48	0.00581
2959.06	0.00478
2970.63	0.00358
2982.2	0.00297
2993.78	0.00295
3005.35	0.00327
3016.92	0.00425
3028.5	0.00377
3040.07	0.00324
3051.65	0.00292
3063.22	0.00211
3074.79	0.00189
3086.37	0.00161
3097.94	0.0015
3109.52	0.00124
3121.09	0.0010007
3132.66	0.0007084
3144.24	0.000506
3155.81	0.0003612
3167.38	0.0003064
3178.96	0.0003719
3190.53	0.0002853
3202.11	0.00022261
3213.68	0.00019983
3225.25	0.0002852
3236.83	0.0002356
3248.4	0.0002686
3259.98	0.0003564
3271.55	0.00021494
3283.12	0.00018036
3294.7	0.00021807
3306.27	0.0002437
3317.84	0.00020411
3329.42	0.0002536
3340.99	0.0002021
3352.57	0.0002709
3364.14	0.0002871
3375.71	0.0003928
3387.29	0.0004765
3398.86	0.0008438
3410.43	0.00122
3422.01	0.00172
3433.58	0.00174
3445.16	0.00182
3456.73	0.0024
3468.3	0.00282
3479.88	0.00187
3491.45	0.0008422
3503.03	0.0003999
3514.6	0.00022264
3526.17	0.00020298
3537.75	0.00020648
3549.32	0.00022536
3560.89	0.0002406
3572.47	0.00014216
3584.04	0.00019971
3595.62	0.00018601
3607.19	0.00019926
3618.76	0.0003474
3630.34	0.00016842
3641.91	0.000114
3653.49	0.0001862
3665.06	0.0003424
3676.63	0.00020124
3688.21	0.00016036
3699.78	0
3711.35	0.00020073
3722.93	0.0002145
3734.5	0.0002663
3746.08	0.00020017
3757.65	0.00021522
3769.22	0.00020091
3780.8	0.0002765
3792.37	0.00022766
3803.94	0.00016705
3815.52	0.00019919
3827.09	0.00017696
3838.67	0.00021924
3850.24	0.00022534
3861.81	0.0002451
3873.39	0.0002397
3884.96	0.0002513
3896.54	0.0002334
3908.11	0.0002347
3919.68	0.0003666
3931.26	0.0002808
3942.83	0.000337
3954.4	0.000411
3965.98	0.0002939
3977.55	0.0003017
3989.13	0.0003793
4000.7	0.0002984
