Infrared Spectrum: DICHLOROMALONITRILE
Formula: C3 Cl2 N2
CAS: 13063-43-9
State: SOLUTION (10% IN CCl4 FOR 5000-1350 CM^-^1, 10% IN CS2 FOR 1350-625 CM^-^1)
Class: COBLENTZ
Instrument: Not specified, most likely a prism, grating, or hybrid spectrometer.
Sampling: TRANSMISSION
Path length: 0.01 CM, 0.01 CM
Resolution: 4
Origin: DOW CHEMICAL COMPANY
MICROMETERS	TRANSMITTANCE
2.029	0.869
2.06812	0.872
2.10723	0.873
2.14635	0.872
2.18546	0.875
2.22458	0.877
2.2637	0.878
2.30281	0.878
2.34193	0.88
2.38105	0.886
2.42016	0.89
2.45928	0.886
2.49839	0.89
2.53751	0.89
2.57663	0.888
2.61574	0.891
2.65486	0.89
2.69397	0.886
2.73309	0.88
2.77221	0.87
2.81132	0.869
2.85044	0.865
2.88956	0.864
2.92867	0.864
2.96779	0.861
3.0069	0.856
3.04602	0.852
3.08514	0.848
3.12425	0.849
3.16337	0.856
3.20248	0.857
3.2416	0.859
3.28072	0.859
3.31983	0.862
3.35895	0.859
3.39807	0.867
3.43718	0.872
3.4763	0.87
3.51541	0.877
3.55453	0.885
3.59365	0.886
3.63276	0.89
3.67188	0.893
3.711	0.899
3.75011	0.907
3.78923	0.927
3.82834	0.928
3.86746	0.928
3.90658	0.914
3.94569	0.914
3.98481	0.912
4.02392	0.919
4.06304	0.912
4.10216	0.901
4.14127	0.906
4.18039	0.896
4.21951	0.891
4.25862	0.893
4.29774	0.891
4.33685	0.843
4.37597	0.61
4.41509	0.819
4.4542	0.915
4.49332	0.917
4.53243	0.925
4.57155	0.93
4.61067	0.932
4.64978	0.94
4.6889	0.94
4.72802	0.933
4.76713	0.94
4.80625	0.941
4.84536	0.938
4.88448	0.935
4.9236	0.94
4.96271	0.936
5.00183	0.94
5.04094	0.936
5.08006	0.946
5.11918	0.948
5.15829	0.946
5.19741	0.943
5.23653	0.94
5.27564	0.943
5.31476	0.935
5.35387	0.94
5.39299	0.936
5.43211	0.938
5.47122	0.936
5.51034	0.938
5.54945	0.938
5.58857	0.938
5.62769	0.933
5.6668	0.924
5.70592	0.915
5.74504	0.915
5.78415	0.919
5.82327	0.915
5.86238	0.919
5.9015	0.919
5.94062	0.915
5.97973	0.919
6.01885	0.917
6.05797	0.915
6.09708	0.89
6.1362	0.861
6.17531	0.804
6.21443	0.723
6.25355	0.659
6.29266	0.63
6.33178	0.589
6.37089	0.544
6.41001	0.504
6.44913	0.555
6.48824	0.618
6.52736	0.651
6.56648	0.72
6.60559	0.794
6.64471	0.848
6.68382	0.883
6.72294	0.888
6.76206	0.894
6.80117	0.891
6.84029	0.901
6.8794	0.899
6.91852	0.899
6.95764	0.903
6.99675	0.898
7.03587	0.903
7.07499	0.906
7.1141	0.925
7.15322	0.928
7.19233	0.935
7.23145	0.938
7.27057	0.94
7.30968	0.94
7.3488	0.943
7.38791	0.945
7.42703	0.948
7.46615	0.948
7.50526	0.945
7.54438	0.94
7.5835	0.94
7.62261	0.94
7.66173	0.943
7.70084	0.943
7.73996	0.927
7.77908	0.92
7.81819	0.924
7.85731	0.928
7.89642	0.93
7.93554	0.93
7.97466	0.924
8.01377	0.922
8.05289	0.925
8.09201	0.924
8.13112	0.92
8.17024	0.919
8.20935	0.915
8.24847	0.919
8.28759	0.919
8.3267	0.919
8.36582	0.92
8.40493	0.92
8.44405	0.919
8.48317	0.917
8.52228	0.917
8.5614	0.907
8.60052	0.894
8.63963	0.89
8.67875	0.898
8.71786	0.901
8.75698	0.901
8.7961	0.898
8.83521	0.89
8.87433	0.886
8.91345	0.885
8.95256	0.882
8.99168	0.873
9.03079	0.851
9.06991	0.788
9.10903	0.684
9.14814	0.505
9.18726	0.184
9.22637	0.271
9.26549	0.66
9.30461	0.785
9.34372	0.827
9.38284	0.84
9.42196	0.844
9.46107	0.859
9.50019	0.872
9.5393	0.877
9.57842	0.882
9.61754	0.885
9.65665	0.886
9.69577	0.886
9.73488	0.886
9.774	0.885
9.81312	0.87
9.85223	0.851
9.89135	0.781
9.93047	0.71
9.96958	0.655
10.0087	0.633
10.0478	0.707
10.0869	0.759
10.126	0.804
10.1652	0.846
10.2043	0.867
10.2434	0.864
10.2825	0.84
10.3216	0.767
10.3607	0.654
10.3999	0.516
10.439	0.405
10.4781	0.253
10.5172	0.142
10.5563	0.252
10.5954	0.46
10.6346	0.652
10.6737	0.715
10.7128	0.689
10.7519	0.588
10.791	0.5
10.8301	0.528
10.8693	0.625
10.9084	0.728
10.9475	0.78
10.9866	0.815
11.0257	0.828
11.0648	0.84
11.104	0.843
11.1431	0.848
11.1822	0.848
11.2213	0.828
11.2604	0.815
11.2995	0.799
11.3386	0.778
11.3778	0.762
11.4169	0.744
11.456	0.72
11.4951	0.701
11.5342	0.693
11.5733	0.688
11.6125	0.683
11.6516	0.684
11.6907	0.699
11.7298	0.717
11.7689	0.747
11.808	0.764
11.8472	0.778
11.8863	0.791
11.9254	0.796
11.9645	0.799
12.0036	0.793
12.0427	0.788
12.0819	0.786
12.121	0.783
12.1601	0.777
12.1992	0.77
12.2383	0.76
12.2774	0.749
12.3166	0.736
12.3557	0.714
12.3948	0.688
12.4339	0.647
12.473	0.589
12.5121	0.508
12.5512	0.394
12.5904	0.216
12.6295	0.064
12.6686	0.004
12.7077	0
12.7468	0
12.7859	0
12.8251	0.037
12.8642	0.121
12.9033	0.273
12.9424	0.416
12.9815	0.546
13.0206	0.615
13.0598	0.642
13.0989	0.659
13.138	0.676
13.1771	0.71
13.2162	0.741
13.2553	0.757
13.2945	0.768
13.3336	0.78
13.3727	0.788
13.4118	0.793
13.4509	0.798
13.49	0.801
13.5292	0.801
13.5683	0.798
13.6074	0.796
13.6465	0.791
13.6856	0.786
13.7247	0.78
13.7638	0.778
13.803	0.777
13.8421	0.775
13.8812	0.772
13.9203	0.77
13.9594	0.767
13.9985	0.762
14.0377	0.759
14.0768	0.754
14.1159	0.749
14.155	0.743
14.1941	0.738
14.2332	0.733
14.2724	0.725
14.3115	0.72
14.3506	0.715
14.3897	0.707
14.4288	0.702
14.4679	0.697
14.5071	0.691
14.5462	0.688
14.5853	0.681
14.6244	0.673
14.6635	0.66
14.7026	0.651
14.7418	0.636
14.7809	0.628
14.82	0.617
14.8591	0.605
14.8982	0.599
14.9373	0.592
14.9765	0.588
15.0156	0.579
15.0547	0.565
15.0938	0.555
15.1329	0.549
15.172	0.542
15.2111	0.534
15.2503	0.528
15.2894	0.523
15.3285	0.518
15.3676	0.508
15.4067	0.504
15.4458	0.5
15.485	0.495
15.5241	0.487
15.5632	0.478
15.6023	0.473
15.6414	0.466
15.6805	0.46
15.7197	0.455
15.7588	0.449
15.7979	0.442
15.837	0.436
15.8761	0.441
