Infrared Spectrum: Propanol, 2-amino-1-(4-hydroxyphenyl)-, hydrochloride
Formula: C9 H14 Cl N O2
CAS: 13062-82-3
State: SOLID (SPLIT MULL), FLUOROLUBE FOR 3800-1330 CM^-^1, NUJOL FOR 1330-500 CM^-^1
Melting point: 185 C
Class: COBLENTZ III
Instrument: DOW KBr FOREPRISM-GRATING
Instrument parameters: BLAZED AT 3.5, 12.0, 20.0 MICRON AND CHANGED AT 5.0, 7.5, 14.9 MICRON
Sampling: TRANSMISSION
Resolution: 2
Origin: DOW CHEMICAL COMPANY
1/CM	TRANSMITTANCE
3800	0.7385
3791	0.7411
3782	0.7443
3773	0.7472
3764	0.7498
3755	0.7522
3746	0.7548
3737	0.7568
3728	0.7591
3719	0.7611
3710	0.7634
3701	0.7656
3692	0.7678
3683	0.7699
3674	0.7721
3665	0.774
3656	0.776
3647	0.7778
3638	0.7799
3629	0.7821
3620	0.7847
3611	0.7865
3602	0.7876
3593	0.7887
3584	0.7891
3575	0.7894
3566	0.7896
3557	0.7888
3548	0.7872
3539	0.785
3530	0.7814
3521	0.7751
3512	0.7664
3503	0.7565
3494	0.7437
3485	0.7294
3476	0.7165
3467	0.7022
3458	0.691
3449	0.6781
3440	0.6558
3431	0.618
3422	0.581
3413	0.5519
3404	0.4976
3395	0.4434
3386	0.3896
3377	0.2967
3368	0.2367
3359	0.1767
3350	0.1168
3341	0.0922
3332	0.1252
3323	0.1599
3314	0.1826
3305	0.1753
3296	0.1344
3287	0.0929
3278	0.0638
3269	0.0625
3260	0.0972
3251	0.1336
3242	0.17
3233	0.2064
3224	0.2428
3215	0.2792
3206	0.3156
3197	0.3518
3188	0.3882
3179	0.3907
3170	0.3325
3161	0.2682
3152	0.2039
3143	0.1396
3134	0.1207
3125	0.1362
3116	0.1528
3107	0.1563
3098	0.2102
3089	0.2545
3080	0.262
3071	0.2574
3062	0.24
3053	0.1967
3044	0.1379
3035	0.1083
3026	0.098
3017	0.0936
3008	0.0976
2999	0.1152
2990	0.1214
2981	0.1059
2972	0.1099
2963	0.0978
2954	0.0752
2945	0.0665
2936	0.0673
2927	0.0976
2918	0.1381
2909	0.1871
2900	0.2345
2891	0.267
2882	0.2932
2873	0.3212
2864	0.3554
2855	0.3849
2846	0.395
2837	0.3891
2828	0.3803
2819	0.3771
2810	0.3841
2801	0.4286
2792	0.4706
2783	0.4912
2774	0.4976
2765	0.5026
2756	0.5249
2747	0.5504
2738	0.5601
2729	0.5602
2720	0.5334
2711	0.5016
2702	0.5419
2693	0.5687
2684	0.585
2675	0.5939
2666	0.5924
2657	0.5678
2648	0.5336
2639	0.5904
2630	0.6142
2621	0.6166
2612	0.5729
2603	0.5665
2594	0.5773
2585	0.5999
2576	0.637
2567	0.6508
2558	0.6399
2549	0.6318
2540	0.6081
2531	0.6608
2522	0.68
2513	0.6822
2504	0.6316
2495	0.5817
2486	0.6055
2477	0.6446
2468	0.6786
2459	0.6917
2450	0.6974
2441	0.7026
2432	0.7075
2423	0.7115
2414	0.7155
2405	0.7186
2396	0.7218
2387	0.7249
2378	0.7267
2369	0.7283
2360	0.7301
2351	0.7319
2342	0.734
2333	0.7361
2324	0.7382
2315	0.7398
2306	0.7412
2297	0.743
2288	0.7451
2279	0.75
2270	0.7549
2261	0.7597
2252	0.7651
2243	0.7708
2234	0.7755
2225	0.7758
2216	0.7762
2207	0.7767
2198	0.7771
2189	0.7819
2180	0.7871
2171	0.7925
2162	0.7971
2153	0.8011
2144	0.8053
2135	0.8091
2126	0.8126
2117	0.8158
2108	0.8183
2099	0.8121
2090	0.7983
2081	0.7951
2072	0.7951
2063	0.7934
2054	0.7756
2045	0.7558
2036	0.7406
2027	0.7295
2018	0.7258
2009	0.7332
2000	0.7401
1991	0.7575
1982	0.7803
1973	0.8
1964	0.8134
1955	0.8235
1946	0.8205
1937	0.8307
1928	0.8391
1919	0.8448
1910	0.8483
1901	0.8498
1892	0.822
1883	0.801
1874	0.8401
1865	0.8546
1856	0.8593
1847	0.8623
1838	0.8612
1829	0.8593
1820	0.8593
1811	0.8583
1802	0.86
1793	0.8616
1784	0.8611
1775	0.8577
1766	0.8488
1757	0.851
1748	0.8575
1739	0.8605
1730	0.8604
1721	0.8573
1712	0.854
1703	0.8518
1694	0.8445
1685	0.8121
1676	0.8118
1667	0.8025
1658	0.7939
1649	0.7994
1640	0.8096
1631	0.7625
1622	0.6936
1613	0.3157
1604	0.3279
1595	0.3312
1586	0.6372
1577	0.7193
1568	0.7612
1559	0.7901
1550	0.8075
1541	0.8175
1532	0.8154
1523	0.7661
1514	0.2137
1505	0.2302
1496	0.5348
1487	0.7
1478	0.7392
1469	0.7599
1460	0.7169
1451	0.6131
1442	0.4317
1433	0.602
1424	0.6631
1415	0.6255
1406	0.6456
1397	0.6853
1388	0.527
1379	0.7365
1370	0.637
1361	0.5545
1352	0.549
1343	0.6182
1334	0.5895
1325	0.5452
1316	0.3582
1307	0.5904
1298	0.6649
1289	0.499
1280	0.5356
1271	0.5634
1262	0.2941
1253	0.3712
1244	0.5125
1235	0.5279
1226	0.2725
1217	0.2177
1208	0.057
1199	0.2394
1190	0.4009
1181	0.5371
1172	0.5783
1163	0.4451
1154	0.5712
1145	0.3946
1136	0.5092
1127	0.6418
1118	0.6807
1109	0.7074
1100	0.5798
1091	0.7132
1082	0.4604
1073	0.7048
1064	0.7238
1055	0.605
1046	0.0769
1037	0.3589
1028	0.6685
1019	0.7481
1010	0.7604
1001	0.7899
992	0.6599
983	0.6851
974	0.2904
965	0.6978
956	0.7832
947	0.8087
938	0.8228
929	0.8133
920	0.8104
911	0.8441
902	0.8539
893	0.8571
884	0.8557
875	0.8627
866	0.864
857	0.8274
848	0.7157
839	0.8046
830	0.417
821	0.8115
812	0.6928
803	0.5878
794	0.7964
785	0.3168
776	0.7942
767	0.8477
758	0.8525
749	0.8528
740	0.8341
731	0.8089
722	0.7737
713	0.7426
704	0.7854
695	0.8236
686	0.8259
677	0.8125
668	0.7715
659	0.411
650	0.7467
641	0.7726
632	0.6797
623	0.6691
614	0.5619
605	0.4338
596	0.404
587	0.407
578	0.5712
569	0.3386
560	0.5402
551	0.6054
542	0.6521
533	0.6772
524	0.3377
515	0.5666
506	0.7583
497	0.7738
488	0.7808
479	0.7872
470	0.7907
