Infrared Spectrum: 3-Bromo-5-fluorobenzotrifluoride
Formula: C 7 H 3 Br F 4
CAS: 130723-13-6
State: gas
Origin: EPA-IR VAPOR PHASE LIBRARY
1/CM	ABSORBANCE
549.8	0.0009516
559.445	0.0008445
569.09	0.0009068
578.735	0.0010654
588.38	0.0009879
598.025	0.0011187
607.67	0.000524
617.315	0.0011036
626.96	0.00229
636.605	0.0015319
646.251	0.0009075
655.896	0.0012833
665.541	0.0012248
675.186	0.00238
684.831	0.00832
694.476	0.02472
704.121	0.01346
713.766	0.0021
723.411	0.0012572
733.056	0.0007735
742.701	0.0007747
752.346	0.00083
761.991	0.0008208
771.636	0.0009663
781.281	0.0013716
790.926	0.00433
800.571	0.01475
810.216	0.01315
819.861	0.00256
829.507	0.0014384
839.152	0.0012274
848.797	0.00182
858.442	0.00777
868.087	0.01957
877.732	0.01629
887.377	0.00521
897.022	0.00328
906.667	0.00578
916.312	0.02025
925.957	0.03404
935.602	0.01287
945.247	0.00226
954.892	0.0016089
964.537	0.0015165
974.182	0.0013193
983.827	0.0013637
993.472	0.0015416
1003.12	0.00174
1012.76	0.0013474
1022.41	0.001337
1032.05	0.0012083
1041.7	0.0012362
1051.34	0.0014239
1060.99	0.00226
1070.63	0.00419
1080.28	0.00847
1089.92	0.00798
1099.57	0.00623
1109.21	0.00443
1118.86	0.00565
1128.5	0.00898
1138.15	0.02349
1147.79	0.06779
1157.44	0.10137
1167.08	0.04897
1176.73	0.0667
1186.37	0.07242
1196.02	0.02591
1205.66	0.01813
1215.31	0.02758
1224.95	0.0149
1234.6	0.0055
1244.24	0.00441
1253.89	0.00394
1263.53	0.00311
1273.18	0.00295
1282.82	0.00365
1292.47	0.00569
1302.11	0.01343
1311.76	0.05155
1321.4	0.1526
1331.05	0.1044
1340.69	0.01691
1350.34	0.00645
1359.98	0.00393
1369.63	0.00367
1379.27	0.00399
1388.92	0.00375
1398.56	0.00467
1408.21	0.01098
1417.85	0.01455
1427.5	0.01413
1437.14	0.02532
1446.79	0.03425
1456.43	0.02955
1466.08	0.01054
1475.73	0.00349
1485.37	0.00245
1495.02	0.00233
1504.66	0.00233
1514.31	0.00198
1523.95	0.00196
1533.6	0.00164
1543.24	0.00174
1552.89	0.00283
1562.53	0.00551
1572.18	0.00952
1581.82	0.01892
1591.47	0.03071
1601.11	0.01925
1610.76	0.01138
1620.4	0.00681
1630.05	0.00303
1639.69	0.00168
1649.34	0.0013152
1658.98	0.0012655
1668.63	0.0011403
1678.27	0.0010118
1687.92	0.0009704
1697.56	0.0008543
1707.21	0.0008865
1716.85	0.0010665
1726.5	0.0014498
1736.14	0.00207
1745.79	0.00328
1755.43	0.00256
1765.08	0.0015165
1774.72	0.0012568
1784.37	0.0010491
1794.01	0.0008483
1803.66	0.0008556
1813.3	0.0007633
1822.95	0.00070133
1832.59	0.0007852
1842.24	0.00081
1851.88	0.0008279
1861.53	0.00069805
1871.17	0.0007421
1880.82	0.00070609
1890.46	0.00066215
1900.11	0.0006163
1909.75	0.00074
1919.4	0.000636033
1929.04	0.00071464
1938.69	0.00064123
1948.33	0.00062663
1957.98	0.0007557
1967.62	0.00070529
1977.27	0.0007688
1986.91	0.0007385
1996.56	0.00068521
2006.2	0.0007806
2015.85	0.00071478
2025.49	0.0008112
2035.14	0.00066437
2044.78	0.000585
2054.43	0.000631833
2064.07	0.0005769
2073.72	0.00065588
2083.36	0.00062119
2093.01	0.00062895
2102.65	0.00067211
2112.3	0.0007451
2121.94	0.0009927
2131.59	0.0010735
2141.23	0.001073
2150.88	0.0008615
2160.52	0.00063524
2170.17	0.000584
2179.81	0.0005445
2189.46	0.0006135
2199.1	0.000511
2208.75	0.0005704
2218.39	0.00062595
2228.04	0.00068359
2237.68	0.00064077
2247.33	0.00069332
2256.97	0.00068362
2266.62	0.00071457
2276.26	0.0007477
2285.91	0.0007726
2295.55	0.0007635
2305.2	0.0007333
2314.84	0.0005488
2324.49	0.00067893
2334.13	0.00072352
2343.78	0.0007554
2353.42	0.0008029
2363.07	0.0008116
2372.72	0.0007287
2382.36	0.0008225
2392.01	0.0007395
2401.65	0.000636025
2411.3	0.00062099
2420.94	0.00066123
2430.59	0.00070262
2440.23	0.0006029
2449.88	0.000513
2459.52	0.000487
2469.17	0.0005516
2478.81	0.0005662
2488.46	0.0005527
2498.1	0.000525
2507.75	0.000497
2517.39	0.0005654
2527.04	0.0005696
2536.68	0.00066085
2546.33	0.000521
2555.97	0.000507
2565.62	0.000444
2575.26	0.000353
2584.91	0.000395
2594.55	0.000373
2604.2	0.000395
2613.84	0.000362
2623.49	0.000447
2633.13	0.000445
2642.78	0.000388
2652.42	0.000372
2662.07	0.000391
2671.71	0.00043
2681.36	0.000298
2691	0.000325
2700.65	0.00027
2710.29	0.000255
2719.94	0.000271
2729.58	0.000128
2739.23	0.000339
2748.87	0.00019
2758.52	0.000284
2768.16	0.000261
2777.81	0.000235
2787.45	9e-05
2797.1	0.000214
2806.74	0.000236
2816.39	0.000154
2826.03	0.000242
2835.68	0.000172
2845.32	0.000185
2854.97	5e-05
2864.61	0.000216
2874.26	0.000179
2883.9	0.000291
2893.55	0.000406
2903.19	0.000291
2912.84	0.000418
2922.48	0.000288
2932.13	0.000275
2941.77	0.00027
2951.42	0.000129
2961.06	0.000168
2970.71	8.9e-05
2980.35	0.000146
2990	0.00018
2999.64	0.000153
3009.29	0.000199
3018.93	0.000144
3028.58	0.000176
3038.22	0.000288
3047.87	0.00038
3057.51	0.000366
3067.16	0.000453
3076.8	0.000428
3086.45	0.0007315
3096.09	0.00168
3105.74	0.0007998
3115.38	0.00034
3125.03	0.000217
3134.67	0.00015
3144.32	0.000244
3153.96	0.0003
3163.61	0.000227
3173.25	0.000401
3182.9	0.000284
3192.54	0.000336
3202.19	0.0003
3211.83	0.000249
3221.48	0.0005332
3231.12	0.000475
3240.77	0.000369
3250.41	0.000288
3260.06	0.00042
3269.7	0.000295
3279.35	0.000372
3289	0.000342
3298.64	0.000269
3308.29	0.000391
3317.93	0.000371
3327.58	0.000328
3337.22	0.000306
3346.87	0.000352
3356.51	0.000365
3366.16	0.000408
3375.8	0.000546
3385.45	0.000505
3395.09	0.000495
3404.74	0.0005511
3414.38	0.000437
3424.03	0.000453
3433.67	0.0005837
3443.32	0.000437
3452.96	0.0005934
3462.61	0.0006107
3472.25	0.000746
3481.9	0.000455
3491.54	0.000463
3501.19	0.0005926
3510.83	0.000475
3520.48	0.0005393
3530.12	0.0005
3539.77	0.00071096
3549.41	0.000433
3559.06	0.0005
3568.7	0.0005434
3578.35	0.000630562
3587.99	0.00069066
3597.64	0.000385
3607.28	0.0005781
3616.93	0.000496
3626.57	0.0005985
3636.22	0.0005371
3645.86	0.000508
3655.51	0.0005807
3665.15	0.0005624
3674.8	0.000484
3684.44	0.0005418
3694.09	0.000477
3703.73	0.0007857
3713.38	0.000451
3723.02	0.000512
3732.67	0.000514
3742.31	0.000423
3751.96	0.000488
3761.6	0.00039
3771.25	0.000525
3780.89	0.00041
3790.54	0.000609
3800.18	0.00031
3809.83	0.000457
3819.47	0.000515
3829.12	0.000445
3838.76	0.000293
3848.41	0.000463
3858.05	0.000371
3867.7	0.000352
3877.34	0.0005526
3886.99	0.0005335
3896.63	0.000451
3906.28	0.0006119
3915.92	0.000388
3925.57	0.000475
3935.21	0.000435
3944.86	0.000403
3954.5	0.000266
3964.15	0.0005873
3973.79	0.00047
3983.44	0.000408
3993.08	0.000468
