Infrared Spectrum: 3-Chlorophenethylamine
Formula: C 8 H 10 Cl N
CAS: 13078-79-0
State: gas
Origin: EPA-IR VAPOR PHASE LIBRARY
1/CM	ABSORBANCE
549.8	0.0034022
559.445	0.0033322
569.09	0.0037522
578.734	0.0040022
588.379	0.0048122
598.024	0.0058822
607.669	0.0061022
617.313	0.0052622
626.958	0.0055622
636.603	0.0060222
646.248	0.0067222
655.893	0.0083122
665.537	0.0122022
675.182	0.0236322
684.827	0.0351822
694.472	0.0375922
704.116	0.0288422
713.761	0.0202522
723.406	0.0201722
733.051	0.0245922
742.695	0.0321922
752.34	0.0435922
761.985	0.0578622
771.63	0.0664222
781.275	0.0564522
790.919	0.0351822
800.564	0.0233622
810.209	0.0209922
819.854	0.0188922
829.498	0.0143522
839.143	0.0117622
848.788	0.0112622
858.433	0.0128722
868.078	0.0144222
877.722	0.0149922
887.367	0.0138722
897.012	0.0097022
906.657	0.0065522
916.301	0.0059822
925.946	0.0061822
935.591	0.0053422
945.236	0.0047022
954.88	0.0045722
964.525	0.0048922
974.17	0.0055822
983.815	0.0069122
993.46	0.0086422
1003.1	0.0089922
1012.75	0.0069722
1022.39	0.0066522
1032.04	0.0068122
1041.68	0.0079622
1051.33	0.0115422
1060.97	0.0193622
1070.62	0.0312122
1080.26	0.0343922
1089.91	0.0286122
1099.55	0.0187622
1109.2	0.0098122
1118.84	0.0049622
1128.49	0.0036822
1138.13	0.0031422
1147.78	0.0030422
1157.42	0.0027222
1167.07	0.0029122
1176.71	0.0032122
1186.36	0.0054422
1196	0.0090722
1205.64	0.0111622
1215.29	0.0086422
1224.93	0.0058222
1234.58	0.0041022
1244.22	0.0030322
1253.87	0.0031022
1263.51	0.0032622
1273.16	0.0035222
1282.8	0.0039422
1292.45	0.0042422
1302.09	0.0042422
1311.74	0.0037922
1321.38	0.0041222
1331.03	0.0050222
1340.67	0.0056422
1350.32	0.0066922
1359.96	0.0078422
1369.61	0.0087322
1379.25	0.0098422
1388.9	0.0095422
1398.54	0.0084322
1408.18	0.0090922
1417.83	0.0133622
1427.47	0.0179422
1437.12	0.0161722
1446.76	0.0119722
1456.41	0.0126722
1466.05	0.0227822
1475.7	0.0325622
1485.34	0.0232022
1494.99	0.0106222
1504.63	0.0061822
1514.28	0.0041522
1523.92	0.0035222
1533.57	0.0041422
1543.21	0.0060322
1552.86	0.0108222
1562.5	0.0216222
1572.15	0.0319822
1581.79	0.0329422
1591.44	0.0404022
1601.08	0.0376222
1610.73	0.0190922
1620.37	0.0139622
1630.01	0.0117522
1639.66	0.0078322
1649.3	0.0050822
1658.95	0.0039622
1668.59	0.0036422
1678.24	0.0028522
1687.88	0.0019222
1697.53	0.0016022
1707.17	0.0014922
1716.82	0.0016322
1726.46	0.0019222
1736.11	0.0022922
1745.75	0.0025122
1755.4	0.0024722
1765.04	0.0024322
1774.69	0.0024022
1784.33	0.0024422
1793.98	0.0022322
1803.62	0.0017222
1813.27	0.0014922
1822.91	0.0014722
1832.55	0.0015622
1842.2	0.0018922
1851.84	0.0026822
1861.49	0.0026622
1871.13	0.0014822
1880.78	0.0008768
1890.42	0.0007372
1900.07	0.0007201
1909.71	0.0010043
1919.36	0.0016722
1929	0.0020422
1938.65	0.0014922
1948.29	0.0007204
1957.94	0.0005212
1967.58	0.0004536
1977.23	0.0003559
1986.87	0.0003755
1996.52	0.0002574
2006.16	0.000294
2015.81	0.0003025
2025.45	0.0002438
2035.1	0.0003431
2044.74	0.0002875
2054.38	0.0003454
2064.03	0.0003535
2073.67	0.0004111
2083.32	0.0003046
2092.96	0.0002912
2102.61	0.000272
2112.25	0.0002042
2121.9	0.0002174
2131.54	0.0002885
2141.19	0.0002392
2150.83	0.000175
2160.48	0.0003034
2170.12	0.000313
2179.77	0.0003222
2189.41	0.0002977
2199.06	0.0003423
2208.7	0.0003501
2218.35	0.0002571
2227.99	0.0002937
2237.64	0.0003134
2247.28	0.000411
2256.92	0.0003633
2266.57	0.0003185
2276.21	0.0003295
2285.86	0.0003448
2295.5	0.0002928
2305.15	0.0001995
2314.79	0.0003482
2324.44	0.0004342
2334.08	0.0005019
2343.73	0.0005325
2353.37	0.0003311
2363.02	0.0003922
2372.66	0.0004805
2382.31	0.0004079
2391.95	0.0004271
2401.6	0.000432
2411.24	0.0003601
2420.89	0.0002663
2430.53	0.0002347
2440.18	0.000259
2449.82	0.0003335
2459.47	0.0003688
2469.11	0.0002957
2478.75	0.0004298
2488.4	0.0003639
2498.04	0.0003503
2507.69	0.0004085
2517.33	0.0004153
2526.98	0.0003653
2536.62	0.0005069
2546.27	0.0006104
2555.91	0.00055
2565.56	0.0004974
2575.2	0.0005626
2584.85	0.0005862
2594.49	0.0007154
2604.14	0.0007388
2613.78	0.0006084
2623.43	0.0007833
2633.07	0.000879
2642.72	0.0011222
2652.36	0.0011522
2662.01	0.0013422
2671.65	0.0012422
2681.29	0.0013522
2690.94	0.0014222
2700.58	0.0015922
2710.23	0.0017122
2719.87	0.0017822
2729.52	0.0020622
2739.16	0.0022822
2748.81	0.0024122
2758.45	0.0023822
2768.1	0.0022822
2777.74	0.0023522
2787.39	0.0024022
2797.03	0.0026722
2806.68	0.0033222
2816.32	0.0040522
2825.97	0.0056722
2835.61	0.0088522
2845.26	0.0146222
2854.9	0.0215622
2864.55	0.0240122
2874.19	0.0219422
2883.84	0.0187822
2893.48	0.0165722
2903.12	0.0180422
2912.77	0.0249322
2922.41	0.0336522
2932.06	0.0401922
2941.7	0.0443622
2951.35	0.0375322
2960.99	0.0217622
2970.64	0.0110922
2980.28	0.0065922
2989.93	0.0045422
2999.57	0.0039722
3009.22	0.0045722
3018.86	0.0061322
3028.51	0.0073622
3038.15	0.0080222
3047.8	0.0087522
3057.44	0.0112322
3067.09	0.0133422
3076.73	0.0128922
3086.38	0.0097022
3096.02	0.0058822
3105.67	0.0029222
3115.31	0.0011522
3124.95	0.0008209
3134.6	0.0005763
3144.24	0.0004868
3153.89	0.0005969
3163.53	0.0005479
3173.18	0.0005084
3182.82	0.0004182
3192.47	0.0002606
3202.11	0.0004438
3211.76	0.0004671
3221.4	0.0003525
3231.05	0.0002678
3240.69	0.0002323
3250.34	0.0003473
3259.98	0.0003791
3269.63	0.00011565
3279.27	6.48e-05
3288.92	0.0001839
3298.56	0.0003821
3308.21	0.0001739
3317.85	0.000311
3327.49	0.0004292
3337.14	0.000749
3346.78	0.000946
3356.43	0.0008234
3366.07	0.000531
3375.72	0.0003282
3385.36	0.0005042
3395.01	0.000508
3404.65	0.0007728
3414.3	0.0009489
3423.94	0.0007306
3433.59	0.0004394
3443.23	0.0002354
3452.88	0.0004328
3462.52	0.0004773
3472.17	0.0004497
3481.81	0.0004055
3491.46	0.0002451
3501.1	0.00016408
3510.75	0.000411
3520.39	0.0001169
3530.04	0.0001861
3539.68	0.0002327
3549.32	0.0003127
3558.97	0.0003174
3568.61	0.0003397
3578.26	0.0002572
3587.9	0.0003152
3597.55	0.00011245
3607.19	0.000266
3616.84	0.0002223
3626.48	0.0001871
3636.13	0.0002537
3645.77	0
3655.42	0.000256
3665.06	7.4721e-05
3674.71	0.0002864
3684.35	0.0002941
3694	0.0001583
3703.64	0.0003078
3713.29	0.0003669
3722.93	0.0004091
3732.58	0.0002565
3742.22	0.0003049
3751.86	0.0001976
3761.51	0.0003318
3771.15	0.0002826
3780.8	0.0002335
3790.44	0.00010335
3800.09	0.000187
3809.73	0.0002137
3819.38	0.00014048
3829.02	0.0002762
3838.67	0.00015931
3848.31	0.0003724
3857.96	9.401e-05
3867.6	0.0002337
3877.25	0.0002389
3886.89	0.0002113
3896.54	0.0001924
3906.18	0.0003177
3915.83	0.00012836
3925.47	0.0003204
3935.12	9.063e-05
3944.76	0.00012088
3954.41	0.0001646
3964.05	0.0002943
3973.69	0.0003722
3983.34	0.0002894
3992.98	0.0002526
