Infrared Spectrum: 3,5-Bis(trifluoromethyl)thiophenol
Formula: C 8 H 4 F 6 S
CAS: 130783-02-7
State: gas
Origin: EPA-IR VAPOR PHASE LIBRARY
1/CM	ABSORBANCE
549.8	0.000372
559.445	0.001063
569.09	0.002533
578.734	0.001583
588.379	0.002473
598.024	0.001993
607.669	0.002933
617.313	0.001913
626.958	0.0014906
636.603	0.0016628
646.248	0.002263
655.893	0.003043
665.537	0.004493
675.182	0.029023
684.827	0.081653
694.472	0.029783
704.116	0.032853
713.761	0.042123
723.406	0.016483
733.051	0.003223
742.695	0.003003
752.34	0.003273
761.985	0.002523
771.63	0.003203
781.275	0.003343
790.919	0.003283
800.564	0.005543
810.209	0.010383
819.854	0.034253
829.498	0.035773
839.143	0.029673
848.788	0.027223
858.433	0.008043
868.078	0.007093
877.722	0.022193
887.367	0.037803
897.012	0.033223
906.657	0.013703
916.301	0.005913
925.946	0.004413
935.591	0.002573
945.236	0.002723
954.88	0.003463
964.525	0.002233
974.17	0.002313
983.815	0.003873
993.46	0.003073
1003.1	0.005583
1012.75	0.005233
1022.39	0.003513
1032.04	0.002403
1041.68	0.002673
1051.33	0.002933
1060.97	0.003833
1070.62	0.006173
1080.26	0.010653
1089.91	0.017793
1099.55	0.039213
1109.2	0.058183
1118.84	0.051333
1128.49	0.083533
1138.13	0.122723
1147.78	0.378693
1157.42	0.626603
1167.07	0.234163
1176.71	0.232553
1186.36	0.415923
1196	0.266783
1205.64	0.075043
1215.29	0.050283
1224.93	0.036133
1234.58	0.027733
1244.22	0.028243
1253.87	0.039423
1263.51	0.098393
1273.16	0.495093
1282.8	0.718463
1292.45	0.104693
1302.09	0.030573
1311.74	0.019293
1321.38	0.019953
1331.03	0.038833
1340.67	0.142803
1350.32	0.353513
1359.96	0.173603
1369.61	0.026283
1379.25	0.010783
1388.9	0.008923
1398.54	0.008903
1408.18	0.006043
1417.83	0.007303
1427.47	0.007703
1437.12	0.005583
1446.76	0.008453
1456.41	0.010173
1466.05	0.006313
1475.7	0.004123
1485.34	0.003563
1494.99	0.003303
1504.63	0.003123
1514.28	0.003343
1523.92	0.002643
1533.57	0.003013
1543.21	0.003393
1552.86	0.004113
1562.5	0.003723
1572.15	0.003873
1581.79	0.005523
1591.44	0.008463
1601.08	0.010923
1610.73	0.011143
1620.37	0.010003
1630.01	0.004223
1639.66	0.003453
1649.3	0.003243
1658.95	0.002703
1668.59	0.002233
1678.24	0.002063
1687.88	0.002303
1697.53	0.002353
1707.17	0.002853
1716.82	0.003533
1726.46	0.002923
1736.11	0.002213
1745.75	0.002803
1755.4	0.002943
1765.04	0.003393
1774.69	0.004383
1784.33	0.006673
1793.98	0.007563
1803.62	0.007503
1813.27	0.005533
1822.91	0.004223
1832.55	0.002913
1842.2	0.002333
1851.84	0.002223
1861.49	0.001923
1871.13	0.002253
1880.78	0.002143
1890.42	0.002273
1900.07	0.002083
1909.71	0.001813
1919.36	0.001843
1929	0.001723
1938.65	0.0016747
1948.29	0.002333
1957.94	0.002343
1967.58	0.002003
1977.23	0.002363
1986.87	0.002793
1996.52	0.002433
2006.16	0.002143
2015.81	0.002233
2025.45	0.002263
2035.1	0.002083
2044.74	0.0017043
2054.38	0.0015622
2064.03	0.0016089
2073.67	0.0016739
2083.32	0.0014062
2092.96	0.00167
2102.61	0.002033
2112.25	0.0016696
2121.9	0.0016703
2131.54	0.0016166
2141.19	0.0011308
2150.83	0.0015854
2160.48	0.0015888
2170.12	0.001723
2179.77	0.002023
2189.41	0.002553
2199.06	0.002333
2208.7	0.001923
2218.35	0.001863
2227.99	0.0016406
2237.64	0.002313
2247.28	0.002623
2256.92	0.003193
2266.57	0.002533
2276.21	0.002973
2285.86	0.003293
2295.5	0.003543
2305.15	0.003113
2314.79	0.002273
2324.44	0.002423
2334.08	0.002293
2343.73	0.002403
2353.37	0.002563
2363.02	0.002233
2372.66	0.002263
2382.31	0.002183
2391.95	0.002313
2401.6	0.001943
2411.24	0.002093
2420.89	0.0016923
2430.53	0.002223
2440.18	0.0017039
2449.82	0.0016125
2459.47	0.001863
2469.11	0.0012796
2478.75	0.0015675
2488.4	0.0017083
2498.04	0.0015755
2507.69	0.0014578
2517.33	0.001733
2526.98	0.001833
2536.62	0.001803
2546.27	0.002183
2555.91	0.0015613
2565.56	0.0015574
2575.2	0.0014426
2584.85	0.0016689
2594.49	0.0014478
2604.14	0.0015515
2613.78	0.001853
2623.43	0.002293
2633.07	0.001883
2642.72	0.000887
2652.36	0.0010612
2662.01	0.0012839
2671.65	0.001073
2681.29	0.0012761
2690.94	0.0013255
2700.58	0.001279
2710.23	0.0011299
2719.87	0.00076271
2729.52	0.0014314
2739.16	0.0009642
2748.81	0.0008658
2758.45	0.0014353
2768.1	0.0011895
2777.74	0.0010235
2787.39	0.0009704
2797.03	0.0010248
2806.68	0.0010928
2816.32	0.0011859
2825.97	0.001733
2835.61	0.000599
2845.26	0.0013686
2854.9	0.0015194
2864.55	0.001803
2874.19	0.0014051
2883.84	0.0016723
2893.48	0.0014065
2903.12	0.0016404
2912.77	0.001723
2922.41	0.002233
2932.06	0.001723
2941.7	0.0015837
2951.35	0.001372
2960.99	0.0015848
2970.64	0.002453
2980.28	0.0013932
2989.93	0.0013603
2999.57	0.0015255
3009.22	0.001753
3018.86	0.0015139
3028.51	0.0012591
3038.15	0.001933
3047.8	0.002453
3057.44	0.001783
3067.09	0.0014393
3076.73	0.001873
3086.38	0.002133
3096.02	0.002153
3105.67	0.001843
3115.31	0.001014
3124.95	0.0011259
3134.6	0.001565
3144.24	0.0009184
3153.89	0.0014399
3163.53	0.0008266
3173.18	0.0016358
3182.82	0.000869
3192.47	0.0008408
3202.11	0.001346
3211.76	0.0013506
3221.4	0.0010234
3231.05	0.0009556
3240.69	0.0012127
3250.34	0.000501
3259.98	0.0011957
3269.63	0.0006353
3279.27	0.0010544
3288.92	0.000413
3298.56	0.0012609
3308.21	0.000257
3317.85	0.000403
3327.49	0.000552
3337.14	0.0011936
3346.78	0.0008365
3356.43	0.0011367
3366.07	0.0013908
3375.72	0.0014537
3385.36	0.00078679
3395.01	0.00078308
3404.65	0.0010746
3414.3	0.0008979
3423.94	0.0014868
3433.59	0.0011387
3443.23	0.0011867
3452.88	0.0013951
3462.52	0.001076
3472.17	0.001793
3481.81	0.001723
3491.46	0.0013248
3501.1	0.0009808
3510.75	0.0009711
3520.39	0.000413
3530.04	0.0008201
3539.68	0.0012075
3549.32	0.0009539
3558.97	0.001062
3568.61	0.0014201
3578.26	0.0008197
3587.9	0.0014711
3597.55	0.0014542
3607.19	0.002033
3616.84	0.0009642
3626.48	0.0009547
3636.13	0.000956
3645.77	0.0010225
3655.42	0.0008733
3665.06	0.001713
3674.71	0.0012348
3684.35	0.0012601
3694	0.00073122
3703.64	0.000598
3713.29	0.0012234
3722.93	0.002003
3732.58	0.0015056
3742.22	0.00078381
3751.86	0.0011205
3761.51	0.0012133
3771.15	0.0012164
3780.8	0.0011783
3790.44	0.001783
3800.09	0.001983
3809.73	0.00072505
3819.38	0.001123
3829.02	0.000904
3838.67	0.00080293
3848.31	0.0008997
3857.96	0.0010494
3867.6	0.000977
3877.25	0.0009706
3886.89	0.000425
3896.54	0.0014431
3906.18	0.0012363
3915.83	0.0013328
3925.47	0.0012091
3935.12	0.0014497
3944.76	0.001307
3954.41	0.0012939
3964.05	0.0016265
3973.69	0.0010798
3983.34	0.000366
3992.98	0.0014756
