Infrared Spectrum: Terbufos
Formula: C 9 H 21 O 2 P S 3
CAS: 13071-79-9
State: gas
Instrument: HP-GC/MS/IRD
Origin: NIST Mass Spectrometry Data Center
1/CM	ABSORBANCE
550	0.003348
562	0.0005724
574	0.0004158
586	0.0002862
598	3.78e-05
610	0.0003672
622	0.0014148
634	0.0044982
646	0.0136566
658	0.0243324
670	0.0131976
682	0.0058266
694	0.0029484
706	0.0018306
718	0.0024894
730	0.00378
742	0.0029862
754	0.0032238
766	0.0060048
778	0.0096012
790	0.0128574
802	0.0136836
814	0.0115938
826	0.0071442
838	0.0037314
850	0.0015876
862	0.0009828
874	0.0009234
886	0.0011826
898	0.0017496
910	0.0030888
922	0.0062694
934	0.0139644
946	0.0271512
958	0.0281178
970	0.0161676
982	0.0089316
994	0.0098442
1006	0.020412
1018	0.0440046
1030	0.0534114
1042	0.0425466
1054	0.030456
1066	0.0175392
1078	0.010962
1090	0.0095742
1102	0.0075708
1114	0.005184
1126	0.0047844
1138	0.0058482
1150	0.0077274
1162	0.0089316
1174	0.0085428
1186	0.006588
1198	0.0052218
1210	0.0026568
1222	0.0011718
1234	0.0005508
1246	0.0003186
1258	0.000378
1270	0.000432
1282	0.0004536
1294	0.000486
1306	0.0005238
1318	0.0003888
1330	0.0003996
1342	0.0006912
1354	0.0016848
1366	0.004401
1378	0.0050166
1390	0.0068364
1402	0.0045468
1414	0.002106
1426	0.001728
1438	0.002025
1450	0.002862
1462	0.0036774
1474	0.0035964
1486	0.0020088
1498	0.0008964
1510	0.000486
1522	0.00027
1534	0.0001782
1546	9.72e-05
1558	3.78e-05
1570	2.7e-05
1582	1.08e-05
1594	3.24e-05
1606	4.86e-05
1618	5.4e-05
1630	3.24e-05
1642	1.62e-05
1654	1.08e-05
1666	9.18e-05
1678	0.0001674
1690	0.0002106
1702	0.0002754
1714	0.0003078
1726	0.0003024
1738	0.0002646
1750	0.0002538
1762	0.00027
1774	0.000297
1786	0.000405
1798	0.0005022
1810	0.0005724
1822	0.0005994
1834	0.00054
1846	0.0004104
1858	0.000297
1870	0.000189
1882	0.0001674
1894	9.72e-05
1906	8.1e-05
1918	9.18e-05
1930	0.0001188
1942	9.72e-05
1954	5.94e-05
1966	5.94e-05
1978	4.32e-05
1990	2.7e-05
2002	1.62e-05
2014	2.7e-05
2026	3.78e-05
2038	6.48e-05
2050	5.4e-05
2062	7.02e-05
2074	5.94e-05
2086	9.18e-05
2098	0.0001026
2110	0.0001134
2122	9.18e-05
2134	9.72e-05
2146	9.18e-05
2158	0.000108
2170	0.0001296
2182	0.000135
2194	0.0001296
2206	9.72e-05
2218	0.000108
2230	4.86e-05
2242	6.48e-05
2254	8.1e-05
2266	9.18e-05
2278	7.02e-05
2290	9.18e-05
2302	0.0001188
2314	0.0001026
2326	0.0001242
2338	0.000108
2350	0.000108
2362	8.64e-05
2374	9.18e-05
2386	0.0001242
2398	0.0001296
2410	0.0001134
2422	9.18e-05
2434	7.56e-05
2446	0.0001188
2458	0.0001296
2470	0.0001134
2482	0.0001242
2494	8.64e-05
2506	5.94e-05
2518	5.94e-05
2530	4.86e-05
2542	5.94e-05
2554	0.0001026
2566	0.0001242
2578	0.0001404
2590	0.0001674
2602	0.0002052
2614	0.000162
2626	0.0001512
2638	0.000108
2650	0.0001782
2662	0.0001458
2674	0.000162
2686	0.0001944
2698	0.000189
2710	0.000243
2722	0.0003942
2734	0.0004104
2746	0.0004104
2758	0.0004644
2770	0.0005076
2782	0.0006048
2794	0.000594
2806	0.000702
2818	0.0008424
2830	0.0010422
2842	0.0014256
2854	0.0022734
2866	0.0043308
2878	0.0061614
2890	0.0065232
2902	0.0086454
2914	0.0097254
2926	0.0104814
2938	0.0146556
2950	0.0149202
2962	0.0165132
2974	0.0195588
2986	0.01701
2998	0.0097146
3010	0.0049032
3022	0.0028566
3034	0.0016686
3046	0.00108
3058	0.0008478
3070	0.0006156
3082	0.0005562
3094	0.0004536
3106	0.000459
3118	0.0004266
3130	0.000432
3142	0.0004104
3154	0.0003672
3166	0.0003942
3178	0.000432
3190	0.0004212
3202	0.0004374
3214	0.000405
3226	0.000324
3238	0.0003294
3250	0.00027
3262	0.0002322
3274	0.0002052
3286	0.0002052
3298	0.000162
3310	0.0001242
3322	0.0001458
3334	0.0001458
3346	0.0001404
3358	0.0001782
3370	0.0001728
3382	0.0002052
3394	0.0001296
3406	0.0001512
3418	0.0001512
3430	9.18e-05
3442	8.1e-05
3454	7.56e-05
3466	2.7e-05
3478	0.0001404
3490	8.64e-05
3502	8.1e-05
3514	7.02e-05
3526	0.0001026
3538	0.000108
3550	0.0001188
3562	5.94e-05
3574	9.72e-05
3586	0.000135
3598	5.4e-05
3610	7.56e-05
3622	0.0001026
3634	4.32e-05
3646	8.1e-05
3658	5.4e-05
3670	9.72e-05
3682	0.000108
3694	0.0001188
3706	0.0001296
3718	0.0001296
3730	0.0001026
3742	4.86e-05
3754	0.0001188
3766	0.0001242
3778	0.0001458
3790	9.18e-05
3802	0.0001026
3814	0.0001134
3826	6.48e-05
3838	0.0001674
