Infrared Spectrum: DL-Anabasine
Formula: C 10 H 14 N 2
CAS: 13078-04-1
State: gas
Origin: EPA-IR VAPOR PHASE LIBRARY
1/CM	ABSORBANCE
549.8	0.003885
559.445	0.0014953
569.09	0.0016328
578.734	0.002755
588.379	0.0016562
598.024	0.002095
607.669	0.003155
617.313	0.004285
626.958	0.002375
636.603	0.002765
646.248	0.002965
655.893	0.004045
665.537	0.005225
675.182	0.005265
684.827	0.006535
694.472	0.011795
704.116	0.021155
713.761	0.027715
723.406	0.023065
733.051	0.018845
742.695	0.019935
752.34	0.018945
761.985	0.012585
771.63	0.008845
781.275	0.008885
790.919	0.011905
800.564	0.011845
810.209	0.008815
819.854	0.005525
829.498	0.004205
839.143	0.005855
848.788	0.006795
858.433	0.003915
868.078	0.002815
877.722	0.002525
887.367	0.003215
897.012	0.002685
906.657	0.003515
916.301	0.003205
925.946	0.003315
935.591	0.002285
945.236	0.002005
954.88	0.0014957
964.525	0.0017707
974.17	0.002005
983.815	0.002935
993.46	0.005275
1003.1	0.007215
1012.75	0.013145
1022.39	0.014935
1032.04	0.008115
1041.68	0.005655
1051.33	0.006835
1060.97	0.005595
1070.62	0.003615
1080.26	0.003545
1089.91	0.009285
1099.55	0.015595
1109.2	0.021945
1118.84	0.017175
1128.49	0.009425
1138.13	0.007525
1147.78	0.005815
1157.42	0.004545
1167.07	0.006115
1176.71	0.007685
1186.36	0.006815
1196	0.008115
1205.64	0.007375
1215.29	0.005185
1224.93	0.004415
1234.58	0.003395
1244.22	0.002895
1253.87	0.004965
1263.51	0.004155
1273.16	0.003795
1282.8	0.003415
1292.45	0.005695
1302.09	0.010455
1311.74	0.017305
1321.38	0.021405
1331.03	0.015185
1340.67	0.009575
1350.32	0.008545
1359.96	0.008935
1369.61	0.010925
1379.25	0.007755
1388.9	0.004225
1398.54	0.005115
1408.18	0.009965
1417.83	0.021205
1427.47	0.025855
1437.12	0.021875
1446.76	0.021255
1456.41	0.017405
1466.05	0.012465
1475.7	0.011775
1485.34	0.008145
1494.99	0.003715
1504.63	0.002455
1514.28	0.002015
1523.92	0.0017321
1533.57	0.002285
1543.21	0.002475
1552.86	0.003495
1562.5	0.006045
1572.15	0.009375
1581.79	0.008235
1591.44	0.004555
1601.08	0.002405
1610.73	0.001975
1620.37	0.0015712
1630.01	0.0013118
1639.66	0.0017126
1649.3	0.0015941
1658.95	0.0014708
1668.59	0.001409
1678.24	0.0013866
1687.88	0.001287
1697.53	0.001629
1707.17	0.0014806
1716.82	0.0014546
1726.46	0.0015703
1736.11	0.0014913
1745.75	0.0017812
1755.4	0.0013464
1765.04	0.0010419
1774.69	0.0011835
1784.33	0.0010205
1793.98	0.0011116
1803.62	0.0013308
1813.27	0.0013096
1822.91	0.0014807
1832.55	0.001429
1842.2	0.0016525
1851.84	0.0016852
1861.49	0.001945
1871.13	0.002235
1880.78	0.002215
1890.42	0.002085
1900.07	0.002615
1909.71	0.002395
1919.36	0.0019115
1929	0.001995
1938.65	0.0017851
1948.29	0.0016601
1957.94	0.0015747
1967.58	0.0015186
1977.23	0.0013303
1986.87	0.0012019
1996.52	0.0011058
2006.16	0.0010364
2015.81	0.0010425
2025.45	0.0010622
2035.1	0.0011748
2044.74	0.0010965
2054.38	0.00101379
2064.03	0.00092578
2073.67	0.00098052
2083.32	0.00101389
2092.96	0.0011627
2102.61	0.0010195
2112.25	0.00095297
2121.9	0.0011317
2131.54	0.00094636
2141.19	0.0012114
2150.83	0.0011968
2160.48	0.00091033
2170.12	0.0011221
2179.77	0.0011687
2189.41	0.0011928
2199.06	0.0013114
2208.7	0.0013156
2218.35	0.0011271
2227.99	0.0010552
2237.64	0.0013006
2247.28	0.0013381
2256.92	0.0012704
2266.57	0.0011507
2276.21	0.0014153
2285.86	0.001201
2295.5	0.0014788
2305.15	0.0010556
2314.79	0.0011356
2324.44	0.001263
2334.08	0.0015258
2343.73	0.0012372
2353.37	0.0011429
2363.02	0.0014467
2372.66	0.0014995
2382.31	0.0013717
2391.95	0.0011519
2401.6	0.0011067
2411.24	0.0015458
2420.89	0.00099792
2430.53	0.0011694
2440.18	0.0014648
2449.82	0.0015221
2459.47	0.001149
2469.11	0.0017156
2478.75	0.0016396
2488.4	0.0012702
2498.04	0.0014693
2507.69	0.001521
2517.33	0.0014322
2526.98	0.0013243
2536.62	0.0016991
2546.27	0.002005
2555.91	0.0015826
2565.56	0.002115
2575.2	0.002375
2584.85	0.002565
2594.49	0.002595
2604.14	0.003075
2613.78	0.002925
2623.43	0.002785
2633.07	0.002915
2642.72	0.002735
2652.36	0.003375
2662.01	0.003785
2671.65	0.004075
2681.29	0.004185
2690.94	0.005335
2700.58	0.006095
2710.23	0.006825
2719.87	0.006935
2729.52	0.006705
2739.16	0.006205
2748.81	0.005665
2758.45	0.007635
2768.1	0.010635
2777.74	0.015805
2787.39	0.021765
2797.03	0.025485
2806.68	0.025775
2816.32	0.024105
2825.97	0.018765
2835.61	0.013655
2845.26	0.015205
2854.9	0.024495
2864.55	0.029585
2874.19	0.020725
2883.84	0.014145
2893.48	0.013555
2903.12	0.016925
2912.77	0.026805
2922.41	0.046675
2932.06	0.079835
2941.7	0.116155
2951.35	0.094325
2960.99	0.040375
2970.64	0.012625
2980.28	0.007285
2989.93	0.007575
2999.57	0.007895
3009.22	0.008595
3018.86	0.009815
3028.51	0.013255
3038.15	0.015575
3047.8	0.017955
3057.44	0.017215
3067.09	0.010675
3076.73	0.008545
3086.38	0.009745
3096.02	0.006295
3105.67	0.002765
3115.31	0.0018475
3124.95	0.0013949
3134.6	0.0018049
3144.24	0.0017456
3153.89	0.001925
3163.53	0.0013359
3173.18	0.0011995
3182.82	0.0016439
3192.47	0.000778
3202.11	0.0010199
3211.76	0.000803
3221.4	0.00093848
3231.05	0.00136
3240.69	0.000602
3250.34	0.00095365
3259.98	0.0008739
3269.63	0.00092961
3279.27	0.000534
3288.92	0.000804
3298.56	0.000811
3308.21	0.0012578
3317.85	0.000595
3327.49	0.00091182
3337.14	0.000815
3346.78	0.0011328
3356.43	0.000549
3366.07	0.000893
3375.72	0.000595
3385.36	0.00071
3395.01	0.00093695
3404.65	0.0008963
3414.3	0.0010675
3423.94	0.000448
3433.59	0.0011818
3443.23	0.000704
3452.88	0
3462.52	0.000693
3472.17	0.0011595
3481.81	0.00094497
3491.46	0.000555
3501.1	0.0010771
3510.75	0.0008225
3520.39	0.000525
3530.04	0.0008856
3539.68	0.0010445
3549.32	0.0012673
3558.97	0.000416
3568.61	0.000265
3578.26	0.00055
3587.9	0.00086
3597.55	0.0011154
3607.19	0.000752
3616.84	0.000607
3626.48	0.00065
3636.13	0.000772
3645.77	0.000799
3655.42	0.0011003
3665.06	0.001664
3674.71	0.0013727
3684.35	0.001274
3694	0.000256
3703.64	0.00099599
3713.29	0.000838
3722.93	0.00075
3732.58	0.000797
3742.22	0.000668
3751.86	0.00099104
3761.51	0.000569
3771.15	0.00099588
3780.8	0.000813
3790.44	0.00093022
3800.09	0.0013112
3809.73	0.000667
3819.38	0.000601
3829.02	0.0011111
3838.67	0.00098122
3848.31	0.0008641
3857.96	0.0018859
3867.6	0.0010154
3877.25	0.0010152
3886.89	0.0009592
3896.54	0.0008577
3906.18	0.000678
3915.83	0.000823
3925.47	0.0010323
3935.12	0.0009347
3944.76	0.00066
3954.41	0.001141
3964.05	0.002085
3973.69	0.000814
3983.34	0.000666
3992.98	0.0012622
