Infrared Spectrum: 2-THIAZOLIDINECARBOXAMIDE, 2-METHYL-
Formula: C5 H10 N2 O S
CAS: 13084-22-5
State: SOLID (1 mg / 650 mg KBr DISC)
Class: COBLENTZ III
Instrument: PERKIN-ELMER 221 (GRATING)
Instrument parameters: FILTER AT 980 CM ^-^1, GRATING FOR 4000-1428 CM ^-^1, NaCl PRISM FOR 1428-650 CM^-^1
Sampling: TRANSMISSION
Resolution: 4
Origin: SOUTHERN RES. INSTITUTE
1/CM	TRANSMITTANCE
604.716	0.55
613.87	0.556
623.024	0.567
632.178	0.619
641.332	0.662
650.486	0.712
659.64	0.753
668.794	0.787
677.948	0.809
687.102	0.807
696.256	0.784
705.409	0.82
714.563	0.82
723.717	0.806
732.871	0.794
742.025	0.805
751.179	0.809
760.333	0.796
769.487	0.77
778.641	0.724
787.795	0.69
796.949	0.665
806.103	0.593
815.257	0.541
824.411	0.493
833.565	0.428
842.719	0.481
851.873	0.695
861.027	0.773
870.181	0.731
879.335	0.736
888.489	0.817
897.643	0.836
906.796	0.841
915.95	0.833
925.104	0.79
934.258	0.742
943.412	0.779
952.566	0.835
961.72	0.85
970.874	0.847
980.028	0.841
989.182	0.838
998.336	0.827
1007.49	0.774
1016.64	0.727
1025.8	0.803
1034.95	0.777
1044.11	0.698
1053.26	0.759
1062.41	0.615
1071.57	0.528
1080.72	0.588
1089.88	0.707
1099.03	0.713
1108.18	0.535
1117.34	0.774
1126.49	0.798
1135.65	0.786
1144.8	0.739
1153.95	0.579
1163.11	0.564
1172.26	0.72
1181.42	0.569
1190.57	0.67
1199.72	0.78
1208.88	0.775
1218.03	0.733
1227.18	0.746
1236.34	0.781
1245.49	0.774
1254.65	0.772
1263.8	0.726
1272.95	0.554
1282.11	0.76
1291.26	0.786
1300.42	0.787
1309.57	0.77
1318.72	0.689
1327.88	0.686
1337.03	0.737
1346.19	0.685
1355.34	0.574
1364.49	0.516
1373.65	0.467
1382.8	0.572
1391.96	0.66
1401.11	0.726
1410.26	0.761
1419.42	0.745
1428.57	0.704
1437.73	0.6
1446.88	0.657
1456.03	0.713
1465.19	0.615
1474.34	0.54
1483.5	0.663
1492.65	0.775
1501.8	0.777
1510.96	0.774
1520.11	0.752
1529.27	0.727
1538.42	0.668
1547.57	0.571
1556.73	0.526
1565.88	0.478
1575.04	0.485
1584.19	0.555
1593.34	0.628
1602.5	0.66
1611.65	0.669
1620.8	0.652
1629.96	0.612
1639.11	0.553
1648.27	0.488
1657.42	0.318
1666.57	0.111
1675.73	0.049
1684.88	0.111
1694.04	0.231
1703.19	0.498
1712.34	0.639
1721.5	0.702
1730.65	0.768
1739.81	0.798
1748.96	0.813
1758.11	0.822
1767.27	0.831
1776.42	0.839
1785.58	0.851
1794.73	0.857
1803.88	0.864
1813.04	0.868
1822.19	0.873
1831.35	0.876
1840.5	0.879
1849.65	0.879
1858.81	0.878
1867.96	0.875
1877.12	0.875
1886.27	0.876
1895.42	0.878
1904.58	0.877
1913.73	0.876
1922.89	0.877
1932.04	0.877
1941.19	0.875
1950.35	0.873
1959.5	0.873
1968.66	0.872
1977.81	0.872
1986.96	0.873
1996.12	0.872
2005.27	0.872
2014.42	0.872
2023.58	0.871
2032.73	0.871
2041.89	0.872
2051.04	0.871
2060.19	0.87
2069.35	0.87
2078.5	0.87
2087.66	0.869
2096.81	0.869
2105.96	0.869
2115.12	0.869
2124.27	0.867
2133.43	0.867
2142.58	0.867
2151.73	0.867
2160.89	0.867
2170.04	0.867
2179.2	0.868
2188.35	0.868
2197.5	0.869
2206.66	0.87
2215.81	0.869
2224.97	0.869
2234.12	0.869
2243.27	0.869
2252.43	0.867
2261.58	0.866
2270.74	0.866
2279.89	0.864
2289.04	0.863
2298.2	0.863
2307.35	0.862
2316.51	0.86
2325.66	0.86
2334.81	0.86
2343.97	0.86
2353.12	0.86
2362.28	0.857
2371.43	0.859
2380.58	0.863
2389.74	0.863
2398.89	0.863
2408.04	0.862
2417.2	0.861
2426.35	0.86
2435.51	0.859
2444.66	0.859
2453.81	0.858
2462.97	0.858
2472.12	0.858
2481.28	0.858
2490.43	0.858
2499.58	0.858
2508.74	0.857
2517.89	0.855
2527.05	0.855
2536.2	0.854
2545.35	0.854
2554.51	0.854
2563.66	0.854
2572.82	0.854
2581.97	0.854
2591.12	0.854
2600.28	0.853
2609.43	0.851
2618.59	0.848
2627.74	0.845
2636.89	0.841
2646.05	0.844
2655.2	0.846
2664.36	0.846
2673.51	0.845
2682.66	0.843
2691.82	0.841
2700.97	0.835
2710.13	0.831
2719.28	0.825
2728.43	0.823
2737.59	0.822
2746.74	0.822
2755.9	0.823
2765.05	0.825
2774.2	0.828
2783.36	0.827
2792.51	0.824
2801.67	0.822
2810.82	0.821
2819.97	0.817
2829.13	0.805
2838.28	0.789
2847.43	0.774
2856.59	0.74
2865.74	0.711
2874.9	0.686
2884.05	0.743
2893.2	0.738
2902.36	0.726
2911.51	0.706
2920.67	0.638
2929.82	0.608
2938.97	0.593
2948.13	0.638
2957.28	0.675
2966.44	0.6
2975.59	0.647
2984.74	0.652
2993.9	0.666
3003.05	0.747
3012.21	0.746
3021.36	0.738
3030.51	0.73
3039.67	0.72
3048.82	0.712
3057.98	0.707
3067.13	0.689
3076.28	0.678
3085.44	0.663
3094.59	0.635
3103.75	0.619
3112.9	0.6
3122.05	0.574
3131.21	0.562
3140.36	0.547
3149.52	0.522
3158.67	0.498
3167.82	0.467
3176.98	0.448
3186.13	0.452
3195.29	0.468
3204.44	0.485
3213.59	0.502
3222.75	0.504
3231.9	0.499
3241.05	0.488
3250.21	0.485
3259.36	0.485
3268.52	0.486
3277.67	0.485
3286.82	0.469
3295.98	0.366
3305.13	0.269
3314.29	0.438
3323.44	0.537
3332.59	0.597
3341.75	0.641
3350.9	0.659
3360.06	0.669
3369.21	0.668
3378.36	0.665
3387.52	0.628
3396.67	0.565
3405.83	0.524
3414.98	0.462
3424.13	0.39
3433.29	0.379
3442.44	0.422
3451.6	0.491
3460.75	0.631
3469.9	0.675
3479.06	0.718
3488.21	0.743
3497.37	0.765
3506.52	0.776
3515.67	0.781
3524.83	0.787
3533.98	0.794
3543.14	0.8
3552.29	0.809
3561.44	0.813
3570.6	0.817
3579.75	0.824
3588.91	0.822
3598.06	0.833
3607.21	0.835
3616.37	0.838
3625.52	0.846
3634.67	0.849
3643.83	0.847
3652.98	0.844
3662.14	0.851
3671.29	0.849
3680.44	0.847
3689.6	0.849
3698.75	0.85
3707.91	0.85
3717.06	0.849
3726.21	0.845
3735.37	0.843
3744.52	0.843
3753.68	0.846
3762.83	0.85
3771.98	0.852
3781.14	0.846
3790.29	0.844
3799.45	0.842
3808.6	0.843
3817.75	0.844
3826.91	0.845
3836.06	0.846
3845.22	0.846
3854.37	0.842
3863.52	0.839
3872.68	0.84
3881.83	0.847
3890.99	0.849
3900.14	0.848
3909.29	0.847
3918.45	0.847
3927.6	0.847
3936.76	0.847
3945.91	0.847
3955.06	0.848
3964.22	0.848
3973.37	0.848
3982.53	0.848
3991.68	0.848
4000.83	0.847
