Infrared Spectrum: 2-Naphthyl propionate
Formula: C 13 H 12 O 2
CAS: 13080-43-8
State: gas
Origin: EPA-IR VAPOR PHASE LIBRARY
1/CM	ABSORBANCE
549.8	0.00424
559.445	0.00438
569.09	0.00563
578.734	0.00746
588.379	0.00883
598.024	0.01085
607.669	0.0105
617.313	0.02041
626.958	0.02505
636.603	0.01803
646.248	0.01171
655.893	0.00698
665.537	0.00514
675.182	0.00537
684.827	0.00669
694.472	0.00673
704.116	0.00812
713.761	0.01563
723.406	0.03835
733.051	0.07834
742.695	0.10478
752.34	0.0795
761.985	0.03807
771.63	0.02012
781.275	0.02029
790.919	0.04476
800.564	0.08324
810.209	0.06945
819.854	0.03754
829.498	0.0303
839.143	0.0347
848.788	0.03922
858.433	0.04229
868.078	0.04336
877.722	0.05585
887.367	0.08879
897.012	0.08594
906.657	0.05918
916.301	0.03178
925.946	0.02375
935.591	0.0272
945.236	0.03397
954.88	0.0592
964.525	0.06725
974.17	0.0833
983.815	0.14663
993.46	0.12455
1003.1	0.08009
1012.75	0.0587
1022.39	0.04473
1032.04	0.04697
1041.68	0.07117
1051.33	0.11674
1060.97	0.141
1070.62	0.13711
1080.26	0.1236
1089.91	0.10787
1099.55	0.12289
1109.2	0.17495
1118.84	0.29949
1128.49	0.44988
1138.13	0.58587
1147.78	0.72399
1157.42	0.95228
1167.07	0.63076
1176.71	0.47477
1186.36	0.47657
1196	0.41696
1205.64	0.43629
1215.29	0.29972
1224.93	0.16369
1234.58	0.20823
1244.22	0.26479
1253.87	0.12709
1263.51	0.10745
1273.16	0.09288
1282.8	0.0704
1292.45	0.0514
1302.09	0.04085
1311.74	0.0441
1321.38	0.06981
1331.03	0.1013
1340.67	0.13192
1350.32	0.16063
1359.96	0.13814
1369.61	0.08547
1379.25	0.06736
1388.9	0.05348
1398.54	0.04079
1408.18	0.03626
1417.83	0.03571
1427.47	0.0422
1437.12	0.05293
1446.76	0.05848
1456.41	0.09679
1466.05	0.15169
1475.7	0.0839
1485.34	0.0531
1494.99	0.05803
1504.63	0.11069
1514.28	0.11645
1523.92	0.02933
1533.57	0.02064
1543.21	0.01736
1552.86	0.01646
1562.5	0.02046
1572.15	0.02995
1581.79	0.04685
1591.44	0.07834
1601.08	0.11101
1610.73	0.05042
1620.37	0.05378
1630.01	0.08481
1639.66	0.0545
1649.3	0.02911
1658.95	0.02261
1668.59	0.02145
1678.24	0.02223
1687.88	0.02185
1697.53	0.02047
1707.17	0.02001
1716.82	0.02289
1726.46	0.0331
1736.11	0.0533
1745.75	0.08611
1755.4	0.13775
1765.04	0.24002
1774.69	0.37962
1784.33	0.36291
1793.98	0.20239
1803.62	0.09321
1813.27	0.05056
1822.91	0.03319
1832.55	0.02473
1842.2	0.01923
1851.84	0.01512
1861.49	0.01343
1871.13	0.01392
1880.78	0.01673
1890.42	0.01892
1900.07	0.01578
1909.71	0.01463
1919.36	0.01305
1929	0.01298
1938.65	0.01541
1948.29	0.01051
1957.94	0.00737
1967.58	0.00701
1977.23	0.00678
1986.87	0.00682
1996.52	0.00681
2006.16	0.00732
2015.81	0.00783
2025.45	0.00787
2035.1	0.00773
2044.74	0.00788
2054.38	0.00748
2064.03	0.00648
2073.67	0.00614
2083.32	0.00594
2092.96	0.00522
2102.61	0.00488
2112.25	0.00501
2121.9	0.00451
2131.54	0.00394
2141.19	0.00394
2150.83	0.00407
2160.48	0.0042
2170.12	0.00417
2179.77	0.00343
2189.41	0.0034
2199.06	0.00341
2208.7	0.00342
2218.35	0.00342
2227.99	0.00379
2237.64	0.00412
2247.28	0.00413
2256.92	0.00416
2266.57	0.00479
2276.21	0.00581
2285.86	0.00514
2295.5	0.00451
2305.15	0.00516
2314.79	0.00577
2324.44	0.0051
2334.08	0.00415
2343.73	0.00428
2353.37	0.00469
2363.02	0.00468
2372.66	0.00445
2382.31	0.00376
2391.95	0.00373
2401.6	0.00389
2411.24	0.00353
2420.89	0.00354
2430.53	0.00317
2440.18	0.00259
2449.82	0.00264
2459.47	0.00265
2469.11	0.00244
2478.75	0.00235
2488.4	0.00227
2498.04	0.00245
2507.69	0.00266
2517.33	0.00242
2526.98	0.00224
2536.62	0.00197
2546.27	0.00188
2555.91	0.00167
2565.56	0.00173
2575.2	0.00199
2584.85	0.0022
2594.49	0.00224
2604.14	0.00211
2613.78	0.00194
2623.43	0.00235
2633.07	0.00198
2642.72	0.00177
2652.36	0.00161
2662.01	0.00145
2671.65	0.00146
2681.29	0.00146
2690.94	0.00159
2700.58	0.00171
2710.23	0.00169
2719.87	0.00178
2729.52	0.0017
2739.16	0.00218
2748.81	0.00281
2758.45	0.00286
2768.1	0.00288
2777.74	0.00286
2787.39	0.00261
2797.03	0.00302
2806.68	0.0034
2816.32	0.00391
2825.97	0.00443
2835.61	0.00544
2845.26	0.0066
2854.9	0.00712
2864.55	0.00889
2874.19	0.01219
2883.84	0.01805
2893.48	0.02917
2903.12	0.02836
2912.77	0.02515
2922.41	0.02794
2932.06	0.0357
2941.7	0.0472
2951.35	0.07534
2960.99	0.06197
2970.64	0.04981
2980.28	0.06788
2989.93	0.10168
2999.57	0.06706
3009.22	0.04803
3018.86	0.04393
3028.51	0.04869
3038.15	0.04787
3047.8	0.05682
3057.44	0.11605
3067.09	0.14933
3076.73	0.09679
3086.38	0.04957
3096.02	0.03056
3105.67	0.01676
3115.31	0.00817
3124.95	0.0056
3134.6	0.00487
3144.24	0.00414
3153.89	0.00367
3163.53	0.00324
3173.18	0.00339
3182.82	0.00344
3192.47	0.00241
3202.11	0.00234
3211.76	0.00198
3221.4	0.0017
3231.05	0.00145
3240.69	0.00127
3250.34	0.0011542
3259.98	0.0010031
3269.63	0.0007142
3279.27	0.0007931
3288.92	0.0005208
3298.56	0.0004663
3308.21	0.0005357
3317.85	0.0003665
3327.49	0.00034971
3337.14	0
3346.78	3.2e-05
3356.43	0.00031037
3366.07	0.00030762
3375.72	0.00031394
3385.36	0.00031679
3395.01	0.0003547
3404.65	0.0002133
3414.3	0.00033776
3423.94	0.00024119
3433.59	0.0008231
3443.23	0.0001588
3452.88	0.0006524
3462.52	0.0007371
3472.17	0.0008358
3481.81	0.000801
3491.46	0.00134
3501.1	0.00147
3510.75	0.00256
3520.39	0.00365
3530.04	0.00499
3539.68	0.00484
3549.32	0.00351
3558.97	0.00221
3568.61	0.00165
3578.26	0.0010888
3587.9	0.0009771
3597.55	0.0008658
3607.19	0.0011116
3616.84	0.0007079
3626.48	0.0004192
3636.13	0.0004862
3645.77	0.0011084
3655.42	0.0011261
3665.06	0.0009722
3674.71	0.0006781
3684.35	0.0008543
3694	0.0006761
3703.64	0.0006412
3713.29	0.0005542
3722.93	0.0004687
3732.58	0.0009488
3742.22	0.0003914
3751.86	0.0008352
3761.51	0.0006683
3771.15	0.0007212
3780.8	0.0006462
3790.44	0.0009278
3800.09	0.0009345
3809.73	0.001139
3819.38	0.0009051
3829.02	0.0009985
3838.67	0.0009878
3848.31	0.0006694
3857.96	0.0009004
3867.6	0.000731
3877.25	0.0007248
3886.89	0.0005915
3896.54	0.0009705
3906.18	0.0008889
3915.83	0.00134
3925.47	0.00152
3935.12	0.00131
3944.76	0.00159
3954.41	0.00148
3964.05	0.00227
3973.69	0.00224
3983.34	0.00193
3992.98	0.00225
