Infrared Spectrum: 5-Norbornen-2-ol
Formula: C7 H10 O
CAS: 13080-90-5
State: SOLUTION (20% IN CCl4 FOR 4000-1300, 10% IN CS2 FOR 1300-480 CM^-^1)
Class: COBLENTZ III
Instrument: CARY 90 (GRATING)
Instrument parameters: ORDER CHANGES: 3000, 2000, 1200 CM^-^1
Path length: 0.0092 CM, AND 0.0096 CM
Resolution: 2
Origin: WESTERN REGIONAL RES. USDA
1/CM	TRANSMITTANCE
486	0.569
495	0.5643
504	0.5562
513	0.5711
522	0.6223
531	0.6173
540	0.5937
549	0.5972
558	0.6158
567	0.6138
576	0.6099
585	0.6058
594	0.6032
603	0.6008
612	0.5991
621	0.5975
630	0.5949
639	0.591
648	0.5845
657	0.5726
666	0.4396
675	0.4939
684	0.5849
693	0.5777
702	0.0932
711	0.239
720	0.0534
729	0.185
738	0.4595
747	0.6184
756	0.3881
765	0.6674
774	0.6185
783	0.639
792	0.5003
801	0.6604
810	0.726
819	0.7347
828	0.6044
837	0.1846
846	0.5906
855	0.6466
864	0.7082
873	0.7702
882	0.7695
891	0.7602
900	0.6974
909	0.4845
918	0.5527
927	0.6108
936	0.6344
945	0.6106
954	0.6071
963	0.5747
972	0.6416
981	0.452
990	0.2578
999	0.49
1008	0.681
1017	0.6685
1026	0.6052
1035	0.399
1044	0.1291
1053	0.0361
1062	0.057
1071	0.3272
1080	0.5957
1089	0.6365
1098	0.4116
1107	0.4719
1116	0.1078
1125	0.3841
1134	0.469
1143	0.3635
1152	0.3473
1161	0.3149
1170	0.4708
1179	0.5868
1188	0.6528
1197	0.6918
1206	0.6853
1215	0.6391
1224	0.5382
1233	0.3963
1242	0.4147
1251	0.3024
1260	0.2977
1269	0.3072
1278	0.3955
1287	0.3916
1296	0.4018
1305	0.4545
1314	0.4546
1323	0.3662
1332	0.3548
1341	0.2126
1350	0.2811
1359	0.4662
1368	0.5794
1377	0.5896
1386	0.5151
1395	0.3216
1404	0.2926
1413	0.4237
1422	0.5274
1431	0.586
1440	0.4777
1449	0.5036
1458	0.5246
1467	0.6625
1476	0.759
1485	0.7892
1494	0.808
1503	0.8214
1512	0.8325
1521	0.8408
1530	0.8482
1539	0.8536
1548	0.8534
1557	0.8453
1566	0.8236
1575	0.7066
1584	0.8027
1593	0.8426
1602	0.841
1611	0.8285
1620	0.8043
1629	0.7733
1638	0.7537
1647	0.7804
1656	0.8118
1665	0.8289
1674	0.8348
1683	0.8408
1692	0.8429
1701	0.838
1710	0.8064
1719	0.7733
1728	0.7659
1737	0.7702
1746	0.7919
1755	0.82
1764	0.8382
1773	0.8522
1782	0.862
1791	0.8672
1800	0.8677
1809	0.8665
1818	0.8645
1827	0.8612
1836	0.8613
1845	0.8637
1854	0.8684
1863	0.8723
1872	0.8704
1881	0.8701
1890	0.8708
1899	0.8714
1908	0.872
1917	0.8724
1926	0.8727
1935	0.873
1944	0.8745
1953	0.8759
1962	0.8773
1971	0.8783
1980	0.8791
1989	0.8795
1998	0.8789
2007	0.877
2016	0.8758
2025	0.8743
2034	0.8713
2043	0.8684
2052	0.8664
2061	0.8679
2070	0.8708
2079	0.8698
2088	0.868
2097	0.8662
2106	0.8632
2115	0.8645
2124	0.8707
2133	0.8804
2142	0.8849
2151	0.8843
2160	0.8814
2169	0.8781
2178	0.8745
2187	0.8719
2196	0.8695
2205	0.8714
2214	0.8735
2223	0.8761
2232	0.8779
2241	0.8795
2250	0.8812
2259	0.8829
2268	0.8846
2277	0.886
2286	0.8869
2295	0.8877
2304	0.8879
2313	0.8877
2322	0.8868
2331	0.8858
2340	0.8849
2349	0.8833
2358	0.8816
2367	0.8799
2376	0.8787
2385	0.8785
2394	0.8783
2403	0.8781
2412	0.8778
2421	0.8774
2430	0.8771
2439	0.8767
2448	0.8764
2457	0.8757
2466	0.8748
2475	0.8738
2484	0.8729
2493	0.872
2502	0.8709
2511	0.8697
2520	0.8685
2529	0.8673
2538	0.8662
2547	0.8649
2556	0.8632
2565	0.8615
2574	0.8597
2583	0.8579
2592	0.8562
2601	0.8541
2610	0.852
2619	0.8498
2628	0.8477
2637	0.8455
2646	0.8434
2655	0.8411
2664	0.8389
2673	0.8366
2682	0.8343
2691	0.832
2700	0.8303
2709	0.8286
2718	0.8269
2727	0.8256
2736	0.8264
2745	0.8272
2754	0.8287
2763	0.8311
2772	0.8314
2781	0.8288
2790	0.8248
2799	0.8201
2808	0.815
2817	0.8066
2826	0.7909
2835	0.7699
2844	0.7319
2853	0.6947
2862	0.4738
2871	0.2056
2880	0.2246
2889	0.3552
2898	0.3504
2907	0.259
2916	0.2752
2925	0.296
2934	0.2189
2943	0.068
2952	0.054
2961	0.0937
2970	0.0724
2979	0.0131
2988	0.0142
2997	0.0974
3006	0.3722
3015	0.513
3024	0.619
3033	0.699
3042	0.7182
3051	0.6501
3060	0.5205
3069	0.3909
3078	0.4025
3087	0.5681
3096	0.7173
3105	0.7686
3114	0.7781
3123	0.7672
3132	0.7448
3141	0.7081
3150	0.6669
3159	0.6878
3168	0.6938
3177	0.6862
3186	0.6446
3195	0.5976
3204	0.5763
3213	0.5557
3222	0.5319
3231	0.5028
3240	0.4667
3249	0.429
3258	0.3932
3267	0.3555
3276	0.3007
3285	0.2769
3294	0.2572
3303	0.2378
3312	0.2185
3321	0.2018
3330	0.187
3339	0.1756
3348	0.1658
3357	0.1626
3366	0.1611
3375	0.1622
3384	0.1648
3393	0.171
3402	0.1781
3411	0.1863
3420	0.1953
3429	0.205
3438	0.2169
3447	0.2298
3456	0.2445
3465	0.2611
3474	0.284
3483	0.3075
3492	0.3354
3501	0.3748
3510	0.4234
3519	0.4777
3528	0.5214
3537	0.5577
3546	0.5941
3555	0.6304
3564	0.6668
3573	0.6953
3582	0.6813
3591	0.6192
3600	0.5622
3609	0.6503
3618	0.7154
3627	0.6521
3636	0.7028
3645	0.8208
3654	0.862
3663	0.8732
3672	0.8798
3681	0.8843
3690	0.8879
3699	0.8911
3708	0.8928
3717	0.8945
3726	0.8952
3735	0.8956
3744	0.8947
3753	0.8937
3762	0.8975
3771	0.8991
3780	0.8998
3789	0.9004
3798	0.901
3807	0.9015
3816	0.9021
3825	0.9017
3834	0.9012
3843	0.9006
3852	0.9001
3861	0.8994
3870	0.8987
3879	0.898
3888	0.8973
3897	0.897
3906	0.897
3915	0.8969
3924	0.8969
3933	0.8976
3942	0.8983
3951	0.8999
3960	0.9021
3969	0.9042
3978	0.906
3987	0.9064
3996	0.9069
