Infrared Spectrum: Di-t-butyl phosphite
Formula: C 8 H 19 O 3 P
CAS: 13086-84-5
State: gas
Origin: EPA-IR VAPOR PHASE LIBRARY
1/CM	ABSORBANCE
501.5	0.0012645
513.074	0.0009614
524.648	0.0010275
536.222	0.0012396
547.796	0.0012539
559.37	0.0014011
570.944	0.0012055
582.518	0.0009398
594.092	0.0006636
605.666	0.0007048
617.24	0.0007627
628.814	0.0007725
640.388	0.000844
651.962	0.0008226
663.536	0.0008784
675.11	0.0009886
686.684	0.0010296
698.258	0.0010039
709.832	0.0008329
721.406	0.0008204
732.98	0.0007387
744.554	0.0006816
756.128	0.0007466
767.702	0.000687
779.276	0.0007043
790.85	0.0007272
802.423	0.0009307
813.997	0.0009786
825.571	0.0009974
837.145	0.0008735
848.719	0.0009441
860.293	0.0009886
871.867	0.0010105
883.441	0.001395
895.015	0.00152
906.589	0.00173
918.163	0.00214
929.737	0.00235
941.311	0.00308
952.885	0.00582
964.459	0.01301
976.033	0.01919
987.607	0.0134
999.181	0.00732
1010.76	0.00502
1022.33	0.00417
1033.9	0.00363
1045.48	0.00312
1057.05	0.00245
1068.63	0.00256
1080.2	0.00218
1091.77	0.00149
1103.35	0.0011604
1114.92	0.0011742
1126.49	0.001262
1138.07	0.0011898
1149.64	0.0013957
1161.22	0.002
1172.79	0.00293
1184.36	0.00297
1195.94	0.00247
1207.51	0.00214
1219.09	0.00192
1230.66	0.00205
1242.23	0.00249
1253.81	0.00229
1265.38	0.00336
1276.96	0.00575
1288.53	0.0051
1300.1	0.00257
1311.68	0.0013273
1323.25	0.0009727
1334.83	0.0008328
1346.4	0.0009253
1357.97	0.0013313
1369.55	0.00236
1381.12	0.00235
1392.7	0.00199
1404.27	0.00153
1415.84	0.0008879
1427.42	0.0008141
1438.99	0.000833
1450.57	0.0009095
1462.14	0.0009973
1473.71	0.0011217
1485.29	0.0009893
1496.86	0.0006686
1508.44	0.000596
1520.01	0.0005439
1531.58	0.0005257
1543.16	0.0005208
1554.73	0.0005576
1566.31	0.0005365
1577.88	0.0005884
1589.45	0.0005933
1601.03	0.0006243
1612.6	0.0006328
1624.18	0.0006255
1635.75	0.0006459
1647.32	0.0007209
1658.9	0.0006963
1670.47	0.0006816
1682.05	0.0006628
1693.62	0.0006197
1705.19	0.0006323
1716.77	0.0006704
1728.34	0.0006499
1739.92	0.000615
1751.49	0.0005889
1763.06	0.0006028
1774.64	0.0005781
1786.21	0.0005824
1797.79	0.0005791
1809.36	0.0005306
1820.93	0.0005501
1832.51	0.0005267
1844.08	0.00050698
1855.66	0.0005483
1867.23	0.0005408
1878.8	0.0005435
1890.38	0.0005103
1901.95	0.00049073
1913.53	0.00050282
1925.1	0.00048127
1936.67	0.00050454
1948.25	0.00049363
1959.82	0.0005193
1971.4	0.00045935
1982.97	0.00044146
1994.54	0.00047366
2006.12	0.00050507
2017.69	0.00044261
2029.27	0.0004607
2040.84	0.00047822
2052.41	0.0004598
2063.99	0.00044759
2075.56	0.00042667
2087.14	0.000417527
2098.71	0.00046662
2110.28	0.00043467
2121.86	0.00045296
2133.43	0.00042418
2145.01	0.00045742
2156.58	0.00042674
2168.15	0.00043073
2179.73	0.00043026
2191.3	0.00045546
2202.88	0.000399
2214.45	0.000387
2226.02	0.00040879
2237.6	0.00043189
2249.17	0.00044954
2260.74	0.00047338
2272.32	0.00043259
2283.89	0.00045132
2295.47	0.0004147
2307.04	0.00044785
2318.61	0.00049239
2330.19	0.00049383
2341.76	0.00046916
2353.34	0.00047254
2364.91	0.00049423
2376.48	0.0005209
2388.06	0.000699
2399.63	0.0009957
2411.21	0.00151
2422.78	0.00177
2434.35	0.0010857
2445.93	0.0006596
2457.5	0.0005337
2469.08	0.00046808
2480.65	0.0003846
2492.22	0.00040788
2503.8	0.0003922
2515.37	0.0003927
2526.95	0.0003481
2538.52	0.000419578
2550.09	0.0003713
2561.67	0.0003696
2573.24	0.0003473
2584.82	0.000409785
2596.39	0.000386
2607.96	0.000415819
2619.54	0.000334
2631.11	0.0003613
2642.69	0.0003265
2654.26	0.0003779
2665.83	0.0003132
2677.41	0.000306
2688.98	0.0003123
2700.56	0.000325
2712.13	0.000288
2723.7	0.0003318
2735.28	0.0003239
2746.85	0.0003769
2758.43	0.0003331
2770	0.000262
2781.57	0.0003502
2793.15	0.000409298
2804.72	0.000307
2816.3	0.00040205
2827.87	0.0003952
2839.44	0.00046552
2851.02	0.0004594
2862.59	0.0006232
2874.17	0.0007759
2885.74	0.0008826
2897.31	0.0010663
2908.89	0.0012413
2920.46	0.0013843
2932.04	0.00172
2943.61	0.00208
2955.18	0.00191
2966.76	0.00225
2978.33	0.00394
2989.91	0.00483
3001.48	0.00233
3013.05	0.0009639
3024.63	0.0005643
3036.2	0.00043976
3047.78	0.0003265
3059.35	0.0004209
3070.92	0.0003582
3082.5	0.0003521
3094.07	0.00040709
3105.65	0.0003499
3117.22	0.000266
3128.79	0.0003386
3140.37	0.000306
3151.94	0.000259
3163.52	0.000231
3175.09	0.000183
3186.66	0.00018
3198.24	0.000236
3209.81	0.000289
3221.39	0.000244
3232.96	0.000275
3244.53	0.000293
3256.11	0.000201
3267.68	0.00024
3279.26	0.000256
3290.83	0.000254
3302.4	0.0003114
3313.98	0.000182
3325.55	0.00027
3337.13	0.000212
3348.7	0.000211
3360.27	0.000231
3371.85	0.000151
3383.42	0.000285
3395	0.000139
3406.57	0.000144
3418.14	0.000258
3429.72	0.000242
3441.29	0.000248
3452.86	0.000183
3464.44	0.000237
3476.01	0.000193
3487.59	0.000225
3499.16	0.000293
3510.73	0.000145
3522.31	0.000148
3533.88	0.000233
3545.46	0.000254
3557.03	0.000241
3568.6	0.000129
3580.18	0.00018
3591.75	0.000147
3603.33	0.000264
3614.9	0.000185
3626.47	0.000258
3638.05	0.000219
3649.62	0.00029
3661.2	0.0003254
3672.77	0.000127
3684.34	0.000281
3695.92	0.000187
3707.49	0.000194
3719.07	0.00017
3730.64	0.000203
3742.21	0.000276
3753.79	0.000235
3765.36	0.000177
3776.94	0.000158
3788.51	0.000302
3800.08	0.000224
3811.66	0.000265
3823.23	0.000172
3834.81	0.000189
3846.38	0.000236
3857.95	0.000233
3869.53	0.000274
3881.1	0.00024
3892.68	0.000186
3904.25	0.000244
3915.82	0.00029
3927.4	0.000156
3938.97	0.000178
3950.55	0.000159
3962.12	0.0001
3973.69	0.000108
3985.27	0.000136
3996.84	0.000224
