Infrared Spectrum: CHROMIUM OXIDE
Formula: Cr2 O3
CAS: 1308-38-9
State: SOLID (0.3 mg / 300 mg CsI DISC)
Class: COBLENTZ
Instrument: Not specified, most likely a grating spectrometer.
Sampling: TRANSMISSION
Resolution: 4
Origin: DESOTO CHEMICAL COATINGS, INC.
1/CM	TRANSMITTANCE
197.333	0.752
208	0.753
218.666	0.762
229.333	0.77
240	0.773
250.666	0.778
261.333	0.777
272	0.773
282.666	0.769
293.333	0.762
304	0.76
314.667	0.752
325.333	0.75
336	0.752
346.667	0.749
357.333	0.746
368	0.745
378.667	0.744
389.333	0.742
400	0.752
410.667	0.748
421.333	0.7888
432	0.821
442.667	0.798
453.333	0.844
464	0.862
474.667	0.873
485.334	0.882
496	0.893
506.667	0.889
517.334	0.892
528	0.885
538.667	0.849
549.334	0.83
560	0.653
570.667	0.389
581.334	0.252
592	0.5798
602.667	0.724
613.334	0.544
624	0.196
634.667	0.153
645.334	0.2199
656.001	0.3259
666.667	0.46
677.334	0.508
688.001	0.5439
698.667	0.7219
709.334	0.8159
720.001	0.878
730.667	0.9
741.334	0.912
752.001	0.917
762.667	0.925
773.334	0.926
784.001	0.928
794.667	0.926
805.334	0.932
816.001	0.936
826.667	0.937
837.334	0.938
848.001	0.937
858.668	0.938
869.334	0.941
880.001	0.94
890.668	0.938
901.334	0.938
912.001	0.936
922.668	0.937
933.334	0.936
944.001	0.932
954.668	0.933
965.334	0.93
976.001	0.928
986.668	0.928
997.334	0.925
1008	0.924
1018.67	0.922
1029.33	0.916
1040	0.916
1050.67	0.913
1061.33	0.914
1072	0.912
1082.67	0.91
1093.33	0.91
1104	0.909
1114.67	0.91
1125.33	0.908
1136	0.909
1146.67	0.909
1157.33	0.91
1168	0.912
1178.67	0.914
1189.33	0.912
1200	0.916
1210.67	0.913
1221.33	0.913
1232	0.91
1242.67	0.91
1253.33	0.91
1264	0.912
1274.67	0.913
1285.34	0.912
1296	0.912
1306.67	0.913
1317.34	0.91
1328	0.91
1338.67	0.909
1349.34	0.909
1360	0.906
1370.67	0.905
1381.34	0.904
1392	0.906
1402.67	0.9
1413.34	0.901
1424	0.901
1434.67	0.904
1445.34	0.901
1456	0.9
1466.67	0.9
1477.34	0.901
1488	0.9
1498.67	0.901
1509.34	0.9
1520	0.897
1530.67	0.896
1541.34	0.893
1552	0.89
1562.67	0.888
1573.34	0.886
1584	0.88
1594.67	0.872
1605.34	0.856
1616	0.845
1626.67	0.842
1637.34	0.853
1648	0.865
1658.67	0.869
1669.34	0.87
1680	0.872
1690.67	0.869
1701.34	0.87
1712	0.873
1722.67	0.873
1733.34	0.876
1744	0.878
1754.67	0.878
1765.34	0.878
1776	0.878
1786.67	0.878
1797.34	0.876
1808	0.874
1818.67	0.876
1829.34	0.874
1840	0.873
1850.67	0.873
1861.34	0.869
1872	0.866
1882.67	0.866
1893.34	0.864
1904	0.864
1914.67	0.864
1925.34	0.862
1936	0.861
1946.67	0.858
1957.34	0.858
1968	0.856
1978.67	0.854
1989.34	0.853
2000	0.852
2010.67	0.849
2021.34	0.846
2032	0.844
2042.67	0.8419
2053.34	0.841
2064	0.838
2074.67	0.834
2085.34	0.836
2096	0.834
2106.67	0.833
2117.34	0.8338
2128	0.832
2138.67	0.8322
2149.34	0.832
2160	0.8315
2170.67	0.829
2181.34	0.829
2192	0.8287
2202.67	0.8274
2213.34	0.826
2224	0.825
2234.67	0.824
2245.34	0.821
2256	0.82
2266.67	0.818
2277.34	0.8176
2288	0.816
2298.67	0.814
2309.34	0.8125
2320	0.811
2330.67	0.81
2341.34	0.809
2352	0.8085
2362.67	0.8045
2373.34	0.7989
2384	0.797
2394.67	0.8
2405.34	0.8
2416	0.7992
2426.67	0.8
2437.34	0.797
2448	0.796
2458.67	0.794
2469.34	0.7933
2480	0.7906
2490.67	0.79
2501.34	0.789
2512	0.788
2522.67	0.786
2533.34	0.785
2544	0.785
2554.67	0.784
2565.34	0.781
2576	0.782
2586.67	0.781
2597.34	0.781
2608	0.7782
2618.67	0.7771
2629.34	0.7741
2640	0.772
2650.67	0.77
2661.34	0.769
2672	0.769
2682.67	0.769
2693.34	0.768
2704	0.769
2714.67	0.768
2725.34	0.766
2736	0.7649
2746.67	0.762
2757.34	0.761
2768	0.7597
2778.67	0.754
2789.34	0.753
2800	0.752
2810.67	0.75
2821.34	0.749
2832	0.748
2842.67	0.7457
2853.34	0.744
2864	0.7417
2874.67	0.7407
2885.34	0.7394
2896	0.7377
2906.67	0.7336
2917.34	0.73
2928	0.729
2938.67	0.729
2949.34	0.729
2960	0.729
2970.67	0.729
2981.34	0.728
2992	0.728
3002.67	0.728
3013.34	0.726
3024	0.7255
3034.67	0.724
3045.34	0.722
3056	0.72
3066.67	0.7174
3077.34	0.716
3088.01	0.712
3098.67	0.713
3109.34	0.713
3120.01	0.712
3130.67	0.71
3141.34	0.709
3152.01	0.705
3162.67	0.701
3173.34	0.6985
3184.01	0.6962
3194.67	0.694
3205.34	0.6922
3216.01	0.69
3226.67	0.689
3237.34	0.6863
3248.01	0.685
3258.67	0.684
3269.34	0.678
3280.01	0.676
3290.67	0.673
3301.34	0.669
3312.01	0.665
3322.67	0.662
3333.34	0.657
3344.01	0.649
3354.67	0.6419
3365.34	0.634
3376.01	0.6288
3386.67	0.6208
3397.34	0.6118
3408.01	0.6058
3418.67	0.598
3429.34	0.5939
3440.01	0.59
3450.67	0.588
3461.34	0.586
3472.01	0.586
3482.67	0.588
3493.34	0.588
3504.01	0.589
3514.67	0.59
3525.34	0.594
3536.01	0.597
3546.67	0.6003
3557.34	0.605
3568.01	0.612
3578.67	0.6167
3589.34	0.62
3600.01	0.6214
3610.67	0.629
3621.34	0.633
3632.01	0.638
3642.67	0.64
3653.34	0.64
3664.01	0.638
3674.67	0.637
3685.34	0.6365
3696.01	0.6391
3706.67	0.6374
3717.34	0.6334
3728.01	0.6308
3738.67	0.6294
3749.34	0.629
3760.01	0.629
3770.67	0.629
3781.34	0.628
3792.01	0.6253
3802.67	0.622
3813.34	0.621
3824.01	0.621
3834.67	0.62
3845.34	0.617
3856.01	0.616
3866.67	0.616
3877.34	0.6132
3888.01	0.612
3898.67	0.612
3909.34	0.612
3920.01	0.61
3930.67	0.609
3941.34	0.6051
3952.01	0.604
3962.67	0.602
3973.34	0.601
3984.01	0.6
