Infrared Spectrum: Diallyldiethoxysilane
Formula: C10 H20 O2 Si
CAS: 13081-67-9
State: LIQUID (NEAT)
Class: COBLENTZ III
Instrument: DOW KBr FOREPRISM-GRATING
Instrument parameters: BLAZED AT 3.5, 12.0, 20.0 MICRON AND CHANGED AT 5.0, 7.5, 14.9 MICRON
Sampling: TRANSMISSION
Path length: CAPILLARY
Resolution: 2
Origin: DOW CHEMICAL COMPANY
1/CM	TRANSMITTANCE
3812	0.8334
3803	0.8335
3794	0.8337
3785	0.834
3776	0.8341
3767	0.8337
3758	0.8334
3749	0.833
3740	0.8328
3731	0.8328
3722	0.8327
3713	0.8315
3704	0.8263
3695	0.8198
3686	0.82
3677	0.8213
3668	0.8216
3659	0.8205
3650	0.8191
3641	0.8174
3632	0.8157
3623	0.8146
3614	0.8138
3605	0.813
3596	0.8121
3587	0.8112
3578	0.8103
3569	0.8091
3560	0.808
3551	0.8065
3542	0.8051
3533	0.8036
3524	0.8021
3515	0.8007
3506	0.7994
3497	0.798
3488	0.7968
3479	0.7954
3470	0.7944
3461	0.7937
3452	0.7931
3443	0.7925
3434	0.7925
3425	0.7925
3416	0.7928
3407	0.7934
3398	0.7947
3389	0.796
3380	0.798
3371	0.8018
3362	0.8049
3353	0.8078
3344	0.8105
3335	0.8125
3326	0.8147
3317	0.8167
3308	0.8184
3299	0.8198
3290	0.8213
3281	0.8225
3272	0.8237
3263	0.8247
3254	0.8258
3245	0.826
3236	0.8263
3227	0.8266
3218	0.8268
3209	0.8273
3200	0.8278
3191	0.828
3182	0.8273
3173	0.8265
3164	0.8255
3155	0.8243
3146	0.8224
3137	0.8202
3128	0.8169
3119	0.8122
3110	0.8011
3101	0.6948
3092	0.5164
3083	0.5853
3074	0.651
3065	0.6833
3056	0.7542
3047	0.7608
3038	0.7501
3029	0.7288
3020	0.6531
3011	0.563
3002	0.4835
2993	0.3081
2984	0.1707
2975	0.2778
2966	0.4495
2957	0.5837
2948	0.5172
2939	0.4191
2930	0.353
2921	0.3868
2912	0.421
2903	0.4174
2894	0.3607
2885	0.3889
2876	0.5082
2867	0.5979
2858	0.6775
2849	0.7187
2840	0.7494
2831	0.7786
2822	0.7856
2813	0.7936
2804	0.8034
2795	0.8111
2786	0.8108
2777	0.7996
2768	0.8075
2759	0.8139
2750	0.8064
2741	0.8015
2732	0.8139
2723	0.8257
2714	0.8353
2705	0.8378
2696	0.8397
2687	0.8413
2678	0.8421
2669	0.8428
2660	0.8437
2651	0.8437
2642	0.8435
2633	0.8435
2624	0.8438
2615	0.8443
2606	0.8462
2597	0.8482
2588	0.8495
2579	0.8493
2570	0.849
2561	0.8482
2552	0.8497
2543	0.8534
2534	0.855
2525	0.8556
2516	0.8563
2507	0.8568
2498	0.8571
2489	0.8575
2480	0.8573
2471	0.857
2462	0.8573
2453	0.8585
2444	0.8598
2435	0.8611
2426	0.8618
2417	0.8625
2408	0.8632
2399	0.8638
2390	0.8647
2381	0.8655
2372	0.8662
2363	0.8663
2354	0.8665
2345	0.8666
2336	0.8652
2327	0.8617
2318	0.8613
2309	0.8611
2300	0.8597
2291	0.858
2282	0.8563
2273	0.8549
2264	0.8552
2255	0.8554
2246	0.8559
2237	0.8563
2228	0.8567
2219	0.8565
2210	0.856
2201	0.8554
2192	0.8553
2183	0.8556
2174	0.8559
2165	0.8561
2156	0.8562
2147	0.8563
2138	0.8562
2129	0.8557
2120	0.8553
2111	0.8557
2102	0.8565
2093	0.8574
2084	0.8583
2075	0.8589
2066	0.859
2057	0.8592
2048	0.8593
2039	0.8596
2030	0.8599
2021	0.8597
2012	0.8592
2003	0.8573
1994	0.8515
1985	0.8474
1976	0.8438
1967	0.8428
1958	0.8468
1949	0.8501
1940	0.8497
1931	0.8467
1922	0.8445
1913	0.842
1904	0.8389
1895	0.8362
1886	0.8354
1877	0.8374
1868	0.8361
1859	0.8342
1850	0.8324
1841	0.8311
1832	0.8296
1823	0.8228
1814	0.8078
1805	0.7961
1796	0.7948
1787	0.8126
1778	0.8311
1769	0.8382
1760	0.8411
1751	0.8413
1742	0.8403
1733	0.8358
1724	0.8346
1715	0.8368
1706	0.8268
1697	0.8134
1688	0.8327
1679	0.8359
1670	0.8342
1661	0.8223
1652	0.8065
1643	0.7375
1634	0.1258
1625	0.6558
1616	0.7753
1607	0.7915
1598	0.8184
1589	0.8299
1580	0.8361
1571	0.8408
1562	0.8432
1553	0.8437
1544	0.8433
1535	0.8418
1526	0.8398
1517	0.8347
1508	0.8277
1499	0.8187
1490	0.8031
1481	0.769
1472	0.7911
1463	0.7585
1454	0.7415
1445	0.6875
1436	0.7315
1427	0.6525
1418	0.5355
1409	0.7053
1400	0.5325
1391	0.3389
1382	0.6212
1373	0.7162
1364	0.7501
1355	0.788
1346	0.8043
1337	0.8128
1328	0.7994
1319	0.794
1310	0.7837
1301	0.7467
1292	0.7106
1283	0.763
1274	0.779
1265	0.7807
1256	0.7758
1247	0.7661
1238	0.7525
1229	0.7522
1220	0.7378
1211	0.6886
1202	0.5893
1193	0.4204
1184	0.3974
1175	0.2587
1166	0.1085
1157	0.1681
1148	0.3279
1139	0.3671
1130	0.2689
1121	0.1196
1112	0.0482
1103	0.0456
1094	0.0682
1085	0.0376
1076	0.052
1067	0.1114
1058	0.1602
1049	0.1914
1040	0.1753
1031	0.1727
1022	0.1494
1013	0.2214
1004	0.4129
995	0.4056
986	0.428
977	0.6252
968	0.5976
959	0.4052
950	0.2876
941	0.3343
932	0.2192
923	0.3788
914	0.541
905	0.3192
896	0.1012
887	0.3784
878	0.6162
869	0.7137
860	0.7358
851	0.7372
842	0.7307
833	0.7008
824	0.5605
815	0.355
806	0.31
797	0.2384
788	0.2301
779	0.2641
770	0.3295
761	0.3949
752	0.4603
743	0.5471
734	0.5997
725	0.6012
716	0.6262
707	0.6767
698	0.7048
689	0.708
680	0.6846
671	0.6708
662	0.7103
653	0.7224
644	0.7157
635	0.6612
626	0.5152
617	0.3579
608	0.3547
599	0.437
590	0.6167
581	0.6896
572	0.641
563	0.6353
554	0.7044
545	0.7368
536	0.7518
527	0.7576
518	0.7601
509	0.7593
500	0.7564
491	0.7496
482	0.7368
473	0.7186
464	0.6996
