Infrared Spectrum: 6-CHLORO-4-NITRO-BENZO-1,2,3-TRIAZOLE
Formula: C6 H3 Cl N4 O2
CAS: 13091-80-0
State: SOLID (KBr PRESSING)
Melting point: 244-245 C
Class: COBLENTZ
Instrument: Not specified, most likely a prism, grating, or hybrid spectrometer.
Sampling: TRANSMISSION
Resolution: 4
Origin: EASTMAN KODAK COMPANY, RESEARCH LABORATORIES, ROCHESTER, N.Y.
MICROMETERS	TRANSMITTANCE
2.026	0.59
2.06104	0.599
2.09608	0.611
2.13112	0.611
2.16616	0.613
2.2012	0.628
2.23624	0.635
2.27128	0.641
2.30632	0.648
2.34136	0.653
2.3764	0.662
2.41144	0.675
2.44648	0.682
2.48152	0.684
2.51656	0.689
2.55161	0.695
2.58665	0.705
2.62169	0.709
2.65673	0.719
2.69177	0.722
2.72681	0.717
2.76185	0.696
2.79689	0.665
2.83193	0.623
2.86697	0.601
2.90201	0.592
2.93705	0.594
2.97209	0.62
3.00713	0.644
3.04217	0.648
3.07721	0.639
3.11225	0.599
3.14729	0.55
3.18233	0.475
3.21737	0.311
3.25241	0.256
3.28745	0.292
3.32249	0.27
3.35753	0.257
3.39257	0.24
3.42761	0.238
3.46265	0.252
3.49769	0.254
3.53274	0.254
3.56778	0.238
3.60282	0.233
3.63786	0.243
3.6729	0.261
3.70794	0.29
3.74298	0.287
3.77802	0.31
3.81306	0.325
3.8481	0.35
3.88314	0.39
3.91818	0.416
3.95322	0.442
3.98826	0.456
4.0233	0.493
4.05834	0.534
4.09338	0.555
4.12842	0.592
4.16346	0.618
4.1985	0.635
4.23354	0.651
4.26858	0.67
4.30362	0.705
4.33866	0.729
4.3737	0.742
4.40874	0.749
4.44378	0.754
4.47882	0.771
4.51386	0.78
4.54891	0.79
4.58395	0.794
4.61899	0.801
4.65403	0.806
4.68907	0.811
4.72411	0.813
4.75915	0.815
4.79419	0.817
4.82923	0.824
4.86427	0.831
4.89931	0.841
4.93435	0.841
4.96939	0.843
5.00443	0.85
5.03947	0.848
5.07451	0.841
5.10955	0.834
5.14459	0.841
5.17963	0.836
5.21467	0.832
5.24971	0.817
5.28475	0.813
5.31979	0.81
5.35483	0.804
5.38987	0.796
5.42491	0.792
5.45995	0.771
5.49499	0.756
5.53004	0.7
5.56508	0.71
5.60012	0.731
5.63516	0.75
5.6702	0.756
5.70524	0.752
5.74028	0.756
5.77532	0.764
5.81036	0.759
5.8454	0.775
5.88044	0.789
5.91548	0.806
5.95052	0.822
5.98556	0.818
6.0206	0.803
6.05564	0.794
6.09068	0.674
6.12572	0.742
6.16076	0.768
6.1958	0.796
6.23084	0.797
6.26588	0.747
6.30092	0.63
6.33596	0.77
6.371	0.783
6.40604	0.653
6.44108	0.146
6.47612	0.118
6.51116	0.233
6.54621	0.411
6.58125	0.608
6.61629	0.672
6.65133	0.695
6.68637	0.672
6.72141	0.404
6.75645	0.222
6.79149	0.343
6.82653	0.541
6.86157	0.606
6.89661	0.512
6.93165	0.501
6.96669	0.533
7.00173	0.595
7.03677	0.662
7.07181	0.627
7.10685	0.627
7.14189	0.662
7.17693	0.731
7.21197	0.747
7.24701	0.675
7.28205	0.533
7.31709	0.35
7.35213	0.355
7.38717	0.55
7.42221	0.414
7.45725	0.153
7.49229	0.045
7.52734	0.09
7.56238	0.449
7.59742	0.611
7.63246	0.71
7.6675	0.724
7.70254	0.609
7.73758	0.297
7.77262	0.135
7.80766	0.062
7.8427	0.062
7.87774	0.175
7.91278	0.324
7.94782	0.445
7.98286	0.5
8.0179	0.541
8.05294	0.569
8.08798	0.63
8.12302	0.651
8.15806	0.571
8.1931	0.21
8.22814	0.08
8.26318	0.13
8.29822	0.311
8.33326	0.383
8.3683	0.503
8.40334	0.614
8.43838	0.686
8.47342	0.721
8.50846	0.74
8.54351	0.761
8.57855	0.778
8.61359	0.792
8.64863	0.796
8.68367	0.799
8.71871	0.804
8.75375	0.81
8.78879	0.824
8.82383	0.829
8.85887	0.831
8.89391	0.827
8.92895	0.824
8.96399	0.824
8.99903	0.804
9.03407	0.749
9.06911	0.541
9.10415	0.344
9.13919	0.299
9.17423	0.353
9.20927	0.32
9.24431	0.371
9.27935	0.513
9.31439	0.609
9.34943	0.67
9.38447	0.703
9.41951	0.733
9.45455	0.764
9.48959	0.787
9.52464	0.808
9.55968	0.824
9.59472	0.841
9.62976	0.851
9.6648	0.85
9.69984	0.843
9.73488	0.843
9.76992	0.844
9.80496	0.841
9.84	0.829
9.87504	0.813
9.91008	0.785
9.94512	0.735
9.98016	0.623
10.0152	0.414
10.0502	0.202
10.0853	0.088
10.1203	0.062
10.1554	0.101
10.1904	0.216
10.2254	0.296
10.2605	0.329
10.2955	0.32
10.3306	0.271
10.3656	0.247
10.4006	0.289
10.4357	0.383
10.4707	0.479
10.5058	0.533
10.5408	0.576
10.5758	0.614
10.6109	0.637
10.6459	0.653
10.681	0.663
10.716	0.675
10.751	0.682
10.7861	0.686
10.8211	0.681
10.8562	0.66
10.8912	0.559
10.9262	0.527
10.9613	0.649
10.9963	0.684
11.0314	0.644
11.0664	0.29
11.1015	0.196
11.1365	0.167
11.1715	0.139
11.2066	0.256
11.2416	0.412
11.2767	0.5
11.3117	0.554
11.3467	0.567
11.3818	0.578
11.4168	0.588
11.4519	0.606
11.4869	0.613
11.5219	0.625
11.557	0.634
11.592	0.644
11.6271	0.651
11.6621	0.662
11.6971	0.67
11.7322	0.679
11.7672	0.682
11.8023	0.686
11.8373	0.693
11.8723	0.707
11.9074	0.705
11.9424	0.682
11.9775	0.677
12.0125	0.686
12.0475	0.707
12.0826	0.728
12.1176	0.738
12.1527	0.743
12.1877	0.743
12.2227	0.644
12.2578	0.39
12.2928	0.472
12.3279	0.503
12.3629	0.268
12.3979	0.433
12.433	0.555
12.468	0.663
12.5031	0.717
12.5381	0.752
12.5731	0.777
12.6082	0.79
12.6432	0.804
12.6783	0.81
12.7133	0.815
12.7483	0.825
12.7834	0.832
12.8184	0.836
12.8535	0.837
12.8885	0.834
12.9235	0.783
12.9586	0.505
12.9936	0.221
13.0287	0.524
13.0637	0.682
13.0988	0.735
13.1338	0.754
13.1688	0.754
13.2039	0.736
13.2389	0.705
13.274	0.663
13.309	0.614
13.344	0.581
13.3791	0.552
13.4141	0.524
13.4492	0.529
13.4842	0.567
13.5192	0.576
13.5543	0.601
13.5893	0.729
13.6244	0.785
13.6594	0.824
13.6944	0.836
13.7295	0.853
13.7645	0.862
13.7996	0.867
13.8346	0.874
13.8696	0.876
13.9047	0.878
13.9397	0.891
13.9748	0.888
14.0098	0.885
14.0448	0.886
14.0799	0.891
14.1149	0.89
14.15	0.885
14.185	0.888
14.22	0.878
14.2551	0.865
14.2901	0.857
14.3252	0.851
14.3602	0.855
14.3952	0.858
14.4303	0.867
14.4653	0.886
14.5004	0.897
14.5354	0.897
14.5704	0.886
14.6055	0.876
14.6405	0.851
14.6756	0.759
14.7106	0.604
14.7456	0.522
14.7807	0.552
14.8157	0.691
14.8508	0.768
14.8858	0.808
14.9208	0.815
14.9559	0.81
14.9909	0.803
15.026	0.817
15.061	0.834
15.0961	0.841
15.1311	0.846
15.1661	0.848
15.2012	0.844
15.2362	0.841
15.2713	0.844
15.3063	0.844
15.3413	0.846
15.3764	0.846
15.4114	0.844
15.4465	0.843
15.4815	0.843
15.5165	0.839
15.5516	0.834
15.5866	0.824
15.6217	0.829
15.6567	0.822
15.6917	0.82
15.7268	0.817
15.7618	0.806
15.7969	0.803
15.8319	0.797
15.8669	0.79
15.902	0.778
15.937	0.764
15.9721	0.761
16.0071	0.757
