Infrared Spectrum: 3-ANILINORHODANINE
Formula: C9 H8 N2 O S2
CAS: 13097-10-4
State: SOLID (SPLIT MULL)
Melting point: 133 C
Class: COBLENTZ III
Instrument: BECKMAN IR-9 (GRATING)
Instrument parameters: ORDER CHANGES AT 670, 1200, 2000 CM^-^1
Sampling: TRANSMISSION
Resolution: 4
Origin: DOW CHEMICAL COMPANY
1/CM	TRANSMITTANCE
399.123	0.704
407.89	0.694
416.657	0.704
425.424	0.73
434.192	0.795
442.959	0.85
451.726	0.888
460.493	0.912
469.26	0.933
478.027	0.946
486.794	0.937
495.562	0.687
504.329	0.961
513.096	0.825
521.863	0.872
530.63	0.954
539.397	0.895
548.165	0.973
556.932	0.954
565.699	0.993
574.466	0.993
583.233	0.991
592	0.983
600.767	0.975
609.535	0.959
618.302	0.926
627.069	0.932
635.836	0.81
644.603	0.697
653.37	0.828
662.137	0.908
670.905	0.932
679.672	0.957
688.439	0.965
697.206	0.856
705.973	0.957
714.74	0.943
723.508	0.859
732.275	0.761
741.042	0.814
749.809	0.823
758.576	0.4501
767.343	0.897
776.11	0.926
784.878	0.904
793.645	0.947
802.412	0.954
811.179	0.955
819.946	0.947
828.713	0.933
837.48	0.95
846.248	0.94
855.015	0.892
863.782	0.939
872.549	0.954
881.316	0.878
890.083	0.839
898.85	0.883
907.618	0.939
916.385	0.917
925.152	0.787
933.919	0.924
942.686	0.939
951.453	0.943
960.221	0.936
968.988	0.933
977.755	0.929
986.522	0.928
995.289	0.936
1004.06	0.935
1012.82	0.926
1021.59	0.907
1030.36	0.761
1039.12	0.5271
1047.89	0.861
1056.66	0.9
1065.43	0.899
1074.19	0.903
1082.96	0.843
1091.73	0.886
1100.49	0.878
1109.26	0.846
1118.03	0.752
1126.8	0.846
1135.56	0.817
1144.33	0.867
1153.1	0.857
1161.86	0.835
1170.63	0.828
1179.4	0.723
1188.17	0.74
1196.93	0.709
1205.7	0.542
1214.47	0.2151
1223.23	0.073
1232	0.081
1240.77	0.193
1249.54	0.3131
1258.3	0.679
1267.07	0.805
1275.84	0.813
1284.61	0.813
1293.37	0.881
1302.14	0.899
1310.91	0.871
1319.67	0.899
1328.44	0.895
1337.21	0.888
1345.98	0.737
1354.74	0.683
1363.51	0.766
1372.28	0.87
1381.04	0.8139
1389.81	0.872
1398.58	0.906
1407.35	0.904
1416.11	0.9
1424.88	0.9
1433.65	0.892
1442.41	0.853
1451.18	0.7731
1459.95	0.871
1468.72	0.859
1477.48	0.831
1486.25	0.78
1495.02	0.4609
1503.78	0.871
1512.55	0.7219
1521.32	0.849
1530.09	0.933
1538.85	0.936
1547.62	0.922
1556.39	0.911
1565.15	0.903
1573.92	0.872
1582.69	0.81
1591.46	0.7329
1600.22	0.4859
1608.99	0.848
1617.76	0.893
1626.52	0.896
1635.29	0.888
1644.06	0.87
1652.83	0.854
1661.59	0.848
1670.36	0.839
1679.13	0.828
1687.89	0.828
1696.66	0.817
1705.43	0.792
1714.2	0.754
1722.96	0.711
1731.73	0.642
1740.5	0.5059
1749.26	0.2759
1758.03	0.139
1766.8	0.5672
1775.57	0.935
1784.33	0.968
1793.1	0.972
1801.87	0.955
1810.63	0.939
1819.4	0.929
1828.17	0.918
1836.94	0.91
1845.7	0.893
1854.47	0.895
1863.24	0.89
1872	0.881
1880.77	0.883
1889.54	0.881
1898.31	0.881
1907.07	0.874
1915.84	0.868
1924.61	0.867
1933.37	0.852
1942.14	0.845
1950.91	0.846
1959.68	0.838
1968.44	0.843
1977.21	0.845
1985.98	0.839
1994.74	0.832
2003.51	0.83
2012.28	0.828
2021.05	0.827
2029.81	0.823
2038.58	0.82
2047.35	0.816
2056.11	0.812
2064.88	0.808
2073.65	0.802
2082.42	0.799
2091.18	0.795
2099.95	0.79
2108.72	0.787
2117.48	0.78
2126.25	0.7741
2135.02	0.7701
2143.79	0.766
2152.55	0.7621
2161.32	0.759
2170.09	0.756
2178.85	0.7521
2187.62	0.7481
2196.39	0.7411
2205.16	0.7371
2213.92	0.734
2222.69	0.7271
2231.46	0.7221
2240.22	0.7151
2248.99	0.7042
2257.76	0.6961
2266.53	0.703
2275.29	0.698
2284.06	0.696
2292.83	0.6912
2301.59	0.689
2310.36	0.6861
2319.13	0.685
2327.9	0.685
2336.66	0.686
2345.43	0.687
2354.2	0.687
2362.96	0.6899
2371.73	0.691
2380.5	0.6852
2389.27	0.6711
2398.03	0.6641
2406.8	0.661
2415.57	0.658
2424.33	0.66
2433.1	0.66
2441.87	0.657
2450.64	0.654
2459.4	0.651
2468.17	0.65
2476.94	0.649
2485.7	0.646
2494.47	0.645
2503.24	0.643
2512.01	0.642
2520.77	0.6392
2529.54	0.6363
2538.31	0.635
2547.07	0.632
2555.84	0.6294
2564.61	0.628
2573.38	0.6254
2582.14	0.624
2590.91	0.6212
2599.68	0.6184
2608.44	0.617
2617.21	0.6144
2625.98	0.6114
2634.75	0.6092
2643.51	0.6062
2652.28	0.603
2661.05	0.5992
2669.81	0.596
2678.58	0.5922
2687.35	0.5894
2696.12	0.5872
2704.88	0.5824
2713.65	0.5785
2722.42	0.575
2731.18	0.573
2739.95	0.5675
2748.72	0.5622
2757.49	0.5582
2766.25	0.558
2775.02	0.556
2783.79	0.5522
2792.55	0.549
2801.32	0.545
2810.09	0.541
2818.86	0.537
2827.62	0.5333
2836.39	0.5268
2845.16	0.5223
2853.92	0.517
2862.69	0.5123
2871.46	0.506
2880.23	0.502
2888.99	0.498
2897.76	0.494
2906.53	0.4769
2915.29	0.428
2924.06	0.3405
2932.83	0.481
2941.6	0.4879
2950.36	0.4617
2959.13	0.4587
2967.9	0.4363
2976.66	0.3904
2985.43	0.49
2994.2	0.4681
3002.97	0.4219
3011.73	0.4467
3020.5	0.4639
3029.27	0.4776
3038.03	0.4804
3046.8	0.4847
3055.57	0.4687
3064.34	0.465
3073.1	0.468
3081.87	0.4654
3090.64	0.4514
3099.4	0.4377
3108.17	0.4216
3116.94	0.437
3125.71	0.4377
3134.47	0.4324
3143.24	0.4247
3152.01	0.4081
3160.77	0.3957
3169.54	0.374
3178.31	0.3522
3187.08	0.3289
3195.84	0.2946
3204.61	0.2413
3213.38	0.2102
3222.14	0.2749
3230.91	0.4126
3239.68	0.4553
3248.45	0.4718
3257.21	0.4796
3265.98	0.482
3274.75	0.482
3283.51	0.482
3292.28	0.4808
3301.05	0.48
3309.82	0.4778
3318.58	0.476
3327.35	0.4694
3336.12	0.466
3344.88	0.4628
3353.65	0.459
3362.42	0.4574
3371.19	0.4501
3379.95	0.446
3388.72	0.443
3397.49	0.4404
3406.26	0.439
3415.02	0.436
3423.79	0.433
3432.56	0.43
3441.32	0.428
3450.09	0.4255
3458.86	0.4229
3467.63	0.421
3476.39	0.4185
3485.16	0.4105
3493.93	0.411
3502.69	0.412
3511.46	0.412
3520.23	0.411
3529	0.41
3537.76	0.407
3546.53	0.404
3555.3	0.402
3564.06	0.4
3572.83	0.398
3581.6	0.395
3590.37	0.392
3599.13	0.3885
3607.9	0.386
3616.67	0.385
3625.43	0.3825
3634.2	0.3785
3642.97	0.377
3651.74	0.372
3660.5	0.37
3669.27	0.37
3678.04	0.37
3686.8	0.37
3695.57	0.37
3704.34	0.37
3713.11	0.37
3721.87	0.368
3730.64	0.367
3739.41	0.367
3748.17	0.367
3756.94	0.364
3765.71	0.361
3774.48	0.359
3783.24	0.3581
3792.01	0.356
