Infrared Spectrum: Pyrite
Formula: Fe S 2
CAS: 1309-36-0
State: solid
Instrument: Bruker Tensor 37 FTIR
Resolution: 0.96450084
Origin: Pacific Northwest National Laboratory Under IARPA Contract
1/cm	Reflectance
7498.99	0.243433
7481.63	0.244351
7464.27	0.243794
7446.91	0.241299
7429.55	0.241733
7412.19	0.245163
7394.84	0.244688
7377.48	0.245257
7360.12	0.244668
7342.76	0.2459
7325.4	0.24434
7308.04	0.245181
7290.68	0.245195
7273.32	0.243584
7255.96	0.243381
7238.6	0.243946
7221.24	0.243833
7203.88	0.244285
7186.52	0.243916
7169.16	0.244704
7151.8	0.245056
7134.44	0.244253
7117.08	0.244625
7099.72	0.244821
7082.36	0.244351
7065	0.244634
7047.64	0.244679
7030.28	0.246155
7012.92	0.245132
6995.56	0.244645
6978.2	0.246493
6960.84	0.245287
6943.48	0.246094
6926.12	0.245418
6908.76	0.246891
6891.4	0.246735
6874.04	0.247907
6856.68	0.24599
6839.32	0.246488
6821.96	0.246952
6804.6	0.247175
6787.24	0.247349
6769.88	0.247245
6752.52	0.246342
6735.16	0.246842
6717.8	0.246921
6700.44	0.247344
6683.08	0.247345
6665.72	0.247458
6648.36	0.247523
6631	0.247473
6613.64	0.247158
6596.28	0.247095
6578.92	0.248322
6561.56	0.247167
6544.2	0.247315
6526.85	0.247506
6509.49	0.247929
6492.13	0.24762
6474.77	0.247593
6457.41	0.247736
6440.05	0.2476
6422.69	0.247542
6405.33	0.248111
6387.97	0.247497
6370.61	0.247132
6353.25	0.246683
6335.89	0.24633
6318.53	0.246164
6301.17	0.246431
6283.81	0.246743
6266.45	0.247259
6249.09	0.247354
6231.73	0.247131
6214.37	0.247709
6197.01	0.247556
6179.65	0.247867
6162.29	0.248225
6144.93	0.24837
6127.57	0.248358
6110.21	0.248492
6092.85	0.248439
6075.49	0.248482
6058.13	0.248637
6040.77	0.248591
6023.41	0.248582
6006.05	0.248716
5988.69	0.248711
5971.33	0.24878
5953.97	0.248646
5936.61	0.24851
5919.25	0.248511
5901.89	0.248804
5884.53	0.248328
5867.17	0.248288
5849.81	0.248294
5832.45	0.24837
5815.09	0.248347
5797.73	0.248292
5780.37	0.248256
5763.01	0.248019
5745.65	0.248262
5728.29	0.248016
5710.93	0.248112
5693.57	0.248482
5676.21	0.248566
5658.86	0.248658
5641.5	0.249041
5624.14	0.248374
5606.78	0.246993
5589.42	0.244031
5572.06	0.239962
5554.7	0.235788
5537.34	0.232399
5519.98	0.229891
5502.62	0.228557
5485.26	0.226658
5467.9	0.225255
5450.54	0.223004
5433.18	0.222614
5415.82	0.222383
5398.46	0.222487
5381.1	0.222657
5363.74	0.223815
5346.38	0.225098
5329.02	0.2262
5311.66	0.227762
5294.3	0.229063
5276.94	0.229611
5259.58	0.231011
5242.22	0.232047
5224.86	0.233272
5207.5	0.233472
5190.14	0.235111
5172.78	0.235829
5155.42	0.238217
5138.06	0.239967
5120.7	0.241146
5103.34	0.242257
5085.98	0.243163
5068.62	0.242863
5051.26	0.242796
5033.9	0.243172
5016.54	0.243262
4999.18	0.243252
4981.82	0.244532
4964.46	0.245962
4947.1	0.246792
4929.74	0.247099
4912.38	0.247566
4895.02	0.248002
4877.66	0.248033
4860.3	0.248397
4842.94	0.248869
4825.58	0.249095
4808.22	0.250231
4790.86	0.251076
4773.51	0.251418
4756.15	0.251885
4738.79	0.252125
4721.43	0.252277
4704.07	0.252529
4686.71	0.251825
4669.35	0.250455
4651.99	0.249346
4634.63	0.249875
4617.27	0.249285
4599.91	0.247265
4582.55	0.245343
4565.19	0.246044
4547.83	0.249287
4530.47	0.256223
4513.11	0.262094
4495.75	0.262675
4478.39	0.258546
4461.03	0.25521
4443.67	0.256227
4426.31	0.256222
4408.95	0.25762
4391.59	0.260338
4374.23	0.263656
4356.87	0.268594
4339.51	0.272754
4322.15	0.269237
4304.79	0.26784
4287.43	0.262628
4270.07	0.257684
4252.71	0.262097
4235.35	0.274949
4217.99	0.275851
4200.63	0.278787
4183.27	0.270876
4165.91	0.280491
4148.55	0.278394
4131.19	0.276162
4113.83	0.276127
4096.47	0.276826
4079.11	0.277946
4061.75	0.279967
4044.39	0.273984
4027.03	0.275621
4009.67	0.276486
3992.31	0.277421
3974.95	0.269563
3957.59	0.274578
3940.23	0.274073
3922.87	0.272857
3905.52	0.272187
3888.16	0.281047
3870.8	0.278652
3853.44	0.276083
3836.08	0.274822
3818.72	0.273821
3801.36	0.276281
3784	0.275823
3766.64	0.27118
3749.28	0.275705
3731.92	0.273064
3714.56	0.276534
3697.2	0.275699
3679.84	0.2772
3662.48	0.275352
3645.12	0.276125
3627.76	0.275714
3610.4	0.276473
3593.04	0.275689
3575.68	0.276904
3558.32	0.277974
3540.96	0.277369
3523.6	0.277125
3506.24	0.276304
3488.88	0.275997
3471.52	0.27771
3454.16	0.279713
3436.8	0.275285
3419.44	0.277928
3402.08	0.276462
3384.72	0.275387
3367.36	0.276999
3350	0.277548
3332.64	0.277449
3315.28	0.277115
3297.92	0.278663
3280.56	0.276818
3263.2	0.276627
3245.84	0.276115
3228.48	0.277131
3211.12	0.277802
3193.76	0.276188
3176.4	0.275099
3159.04	0.277397
3141.68	0.276624
3124.32	0.277828
3106.96	0.277833
3089.6	0.277083
3072.24	0.276342
3054.88	0.276248
3037.53	0.276253
3020.17	0.276698
3002.81	0.275542
2985.45	0.276385
2968.09	0.276006
2950.73	0.276259
2933.37	0.276583
2916.01	0.276021
2898.65	0.274446
2881.29	0.274751
2863.93	0.275621
2846.57	0.275054
2829.21	0.27372
2811.85	0.275334
2794.49	0.275696
2777.13	0.274989
2759.77	0.275634
2742.41	0.275498
2725.05	0.275242
2707.69	0.275662
2690.33	0.276034
2672.97	0.275559
2655.61	0.275945
2638.25	0.275934
2620.89	0.275478
2603.53	0.275611
2586.17	0.275884
2568.81	0.27556
2551.45	0.275394
2534.09	0.275358
2516.73	0.275366
2499.37	0.274963
2482.01	0.274618
2464.65	0.274639
2447.29	0.274539
2429.93	0.274235
2412.57	0.274101
2395.21	0.274506
2377.85	0.273607
2360.49	0.272958
2343.13	0.273103
2325.77	0.272903
2308.41	0.272246
2291.05	0.272612
2273.69	0.272287
2256.33	0.271852
2238.97	0.272353
2221.61	0.272503
2204.25	0.272581
2186.89	0.27214
2169.53	0.271376
2152.18	0.269115
2134.82	0.2657
2117.46	0.260716
2100.1	0.255311
2082.74	0.251107
2065.38	0.24795
2048.02	0.246602
2030.66	0.244958
2013.3	0.243248
1995.94	0.240877
1978.58	0.240101
1961.22	0.240329
1943.86	0.239676
1926.5	0.239233
1909.14	0.239905
1891.78	0.241355
1874.42	0.242267
1857.06	0.243779
1839.7	0.243759
1822.34	0.244611
1804.98	0.244997
1787.62	0.24591
1770.26	0.246255
1752.9	0.246881
1735.54	0.247032
1718.18	0.248357
1700.82	0.249672
1683.46	0.25161
1666.1	0.252259
1648.74	0.252415
1631.38	0.252568
1614.02	0.250748
1596.66	0.250155
1579.3	0.249268
1561.94	0.248281
1544.58	0.247648
1527.22	0.24888
1509.86	0.249181
1492.5	0.249313
1475.14	0.24815
1457.78	0.247736
1440.42	0.246827
1423.06	0.245576
1405.7	0.244876
1388.34	0.243907
1370.98	0.24266
1353.62	0.242924
1336.26	0.242009
1318.9	0.240959
1301.54	0.239835
1284.19	0.237821
1266.83	0.236412
1249.47	0.234313
1232.11	0.230422
1214.75	0.226316
1197.39	0.223804
1180.03	0.222042
1162.67	0.218561
1145.31	0.213124
1127.95	0.210125
1110.59	0.207647
1093.23	0.210669
1075.87	0.217468
1058.51	0.216727
1041.15	0.2111
1023.79	0.20415
1006.43	0.199679
989.068	0.195747
971.709	0.192431
954.349	0.188598
936.989	0.185788
919.629	0.181911
902.269	0.178269
884.91	0.173492
867.55	0.166573
850.19	0.162983
832.83	0.157568
815.47	0.153516
798.111	0.154458
780.751	0.161923
763.391	0.156388
746.031	0.150581
728.671	0.138649
711.312	0.136863
693.952	0.127535
676.592	0.11826
659.232	0.112279
641.872	0.106462
624.513	0.100312
607.153	0.0922895
