Infrared Spectrum: ANTIMONY TRIOXIDE
Formula: Sb2 O3
CAS: 1309-64-4
State: SOLID (NUJOL MULL)
Class: COBLENTZ
Instrument: Not specified, most likely a prism, grating, or hybrid spectrometer.
Sampling: TRANSMISSION
Resolution: 4
Origin: MELLON INSTITUTE
MICROMETERS	TRANSMITTANCE
2.016	0.5
2.05699	0.507
2.09799	0.512
2.13898	0.519
2.17998	0.528
2.22097	0.535
2.26196	0.542
2.30296	0.549
2.34395	0.555
2.38495	0.562
2.42594	0.573
2.46694	0.581
2.50793	0.592
2.54892	0.602
2.58992	0.612
2.63091	0.621
2.67191	0.629
2.7129	0.638
2.75389	0.645
2.79489	0.65
2.83588	0.655
2.87688	0.662
2.91787	0.669
2.95887	0.674
2.99986	0.674
3.04085	0.674
3.08185	0.678
3.12284	0.681
3.16384	0.691
3.20483	0.702
3.24582	0.71
3.28682	0.712
3.32781	0.686
3.36881	0.371
3.4098	0.34
3.45079	0.418
3.49179	0.475
3.53278	0.7
3.57378	0.746
3.61477	0.767
3.65577	0.777
3.69676	0.786
3.73775	0.791
3.77875	0.798
3.81974	0.803
3.86074	0.807
3.90173	0.81
3.94272	0.812
3.98372	0.814
4.02471	0.815
4.06571	0.817
4.1067	0.819
4.1477	0.819
4.18869	0.82
4.22968	0.819
4.27068	0.82
4.31167	0.822
4.35267	0.824
4.39366	0.826
4.43465	0.827
4.47565	0.829
4.51664	0.829
4.55764	0.833
4.59863	0.834
4.63962	0.836
4.68062	0.839
4.72161	0.843
4.76261	0.843
4.8036	0.848
4.8446	0.85
4.88559	0.851
4.92658	0.855
4.96758	0.858
5.00857	0.862
5.04957	0.864
5.09056	0.867
5.13155	0.87
5.17255	0.874
5.21354	0.876
5.25454	0.882
5.29553	0.884
5.33652	0.886
5.37752	0.889
5.41851	0.893
5.45951	0.893
5.5005	0.898
5.5415	0.901
5.58249	0.905
5.62348	0.908
5.66448	0.912
5.70547	0.915
5.74647	0.919
5.78746	0.922
5.82845	0.925
5.86945	0.929
5.91044	0.932
5.95144	0.934
5.99243	0.939
6.03343	0.941
6.07442	0.944
6.11541	0.946
6.15641	0.948
6.1974	0.951
6.2384	0.953
6.27939	0.955
6.32038	0.956
6.36138	0.956
6.40237	0.956
6.44337	0.956
6.48436	0.956
6.52535	0.958
6.56635	0.956
6.60734	0.956
6.64834	0.955
6.68933	0.95
6.73033	0.934
6.77132	0.846
6.81231	0.769
6.85331	0.781
6.8943	0.843
6.9353	0.898
6.97629	0.924
7.01728	0.939
7.05828	0.95
7.09927	0.953
7.14027	0.946
7.18126	0.912
7.22226	0.855
7.26325	0.903
7.30424	0.927
7.34524	0.941
7.38623	0.943
7.42723	0.948
7.46822	0.955
7.50921	0.96
7.55021	0.963
7.5912	0.963
7.6322	0.963
7.67319	0.967
7.71418	0.967
7.75518	0.969
7.79617	0.969
7.83717	0.969
7.87816	0.97
7.91916	0.969
7.96015	0.969
8.00114	0.969
8.04214	0.969
8.08313	0.969
8.12413	0.97
8.16512	0.97
8.20611	0.97
8.24711	0.97
8.2881	0.969
8.3291	0.97
8.37009	0.97
8.41109	0.97
8.45208	0.972
8.49307	0.972
8.53407	0.972
8.57506	0.972
8.61606	0.972
8.65705	0.974
8.69804	0.974
8.73904	0.972
8.78003	0.972
8.82103	0.974
8.86202	0.974
8.90301	0.974
8.94401	0.974
8.985	0.974
9.026	0.974
9.06699	0.975
9.10799	0.975
9.14898	0.974
9.18997	0.975
9.23097	0.975
9.27196	0.974
9.31296	0.974
9.35395	0.975
9.39494	0.975
9.43594	0.975
9.47693	0.975
9.51793	0.977
9.55892	0.981
9.59991	0.981
9.64091	0.982
9.6819	0.982
9.7229	0.982
9.76389	0.982
9.80489	0.982
9.84588	0.982
9.88687	0.982
9.92787	0.982
9.96886	0.982
10.0099	0.981
10.0509	0.981
10.0918	0.981
10.1328	0.977
10.1738	0.975
10.2148	0.974
10.2558	0.972
10.2968	0.97
10.3378	0.967
10.3788	0.963
10.4198	0.962
10.4608	0.962
10.5018	0.958
10.5428	0.956
10.5838	0.955
10.6248	0.956
10.6658	0.958
10.7068	0.962
10.7478	0.963
10.7887	0.967
10.8297	0.97
10.8707	0.974
10.9117	0.975
10.9527	0.981
10.9937	0.982
11.0347	0.984
11.0757	0.984
11.1167	0.986
11.1577	0.987
11.1987	0.991
11.2397	0.994
11.2807	0.994
11.3217	0.996
11.3627	0.996
11.4037	1
11.4447	1
11.4856	1.001
11.5266	1.001
11.5676	1.001
11.6086	1.001
11.6496	1.001
11.6906	1.001
11.7316	1.001
11.7726	1.001
11.8136	1.001
11.8546	1.001
11.8956	1.001
11.9366	1
11.9776	1
12.0186	1
12.0596	0.998
12.1006	0.998
12.1416	0.998
12.1825	0.996
12.2235	0.996
12.2645	0.994
12.3055	0.993
12.3465	0.991
12.3875	0.986
12.4285	0.981
12.4695	0.974
12.5105	0.962
12.5515	0.946
12.5925	0.927
12.6335	0.901
12.6745	0.869
12.7155	0.82
12.7565	0.783
12.7975	0.743
12.8385	0.716
12.8794	0.681
12.9204	0.648
12.9614	0.611
13.0024	0.581
13.0434	0.552
13.0844	0.516
13.1254	0.476
13.1664	0.442
13.2074	0.414
13.2484	0.39
13.2894	0.363
13.3304	0.333
13.3714	0.313
13.4124	0.301
13.4534	0.292
13.4944	0.29
13.5354	0.294
13.5763	0.302
13.6173	0.323
13.6583	0.34
13.6993	0.366
13.7403	0.402
13.7813	0.438
13.8223	0.478
13.8633	0.53
13.9043	0.588
13.9453	0.621
13.9863	0.647
14.0273	0.66
14.0683	0.669
14.1093	0.672
14.1503	0.676
14.1913	0.676
14.2323	0.671
14.2732	0.66
14.3142	0.65
14.3552	0.64
14.3962	0.635
14.4372	0.635
14.4782	0.633
14.5192	0.636
14.5602	0.638
14.6012	0.64
14.6422	0.641
14.6832	0.645
14.7242	0.647
14.7652	0.645
14.8062	0.643
14.8472	0.64
14.8882	0.636
14.9292	0.633
14.9701	0.629
15.0111	0.626
15.0521	0.623
15.0931	0.619
15.1341	0.616
15.1751	0.614
15.2161	0.611
15.2571	0.607
15.2981	0.605
15.3391	0.602
15.3801	0.6
15.4211	0.6
15.4621	0.597
15.5031	0.595
15.5441	0.592
15.5851	0.588
15.6261	0.585
15.667	0.583
15.708	0.581
15.749	0.58
15.79	0.578
15.831	0.58
15.872	0.578
15.913	0.58
15.954	0.581
15.995	0.581
