Infrared Spectrum: INDIAN RED OXIDE
Formula: O3 Fe2
CAS: 1309-37-1
State: SOLID (0.3 mg / 300 mg CsI DISC)
Class: COBLENTZ III
Instrument: BECKMAN IR-12 (GRATING)
Sampling: TRANSMISSION
Resolution: 4
Origin: DESOTO CHEMICAL COATINGS, INC.
1/CM	TRANSMITTANCE
283.752	0.963
293.058	0.945
302.364	0.91
311.669	0.883
320.975	0.7544
330.281	0.3922
339.587	0.187
348.892	0.158
358.198	0.3088
367.504	0.4909
376.81	0.565
386.115	0.5101
395.421	0.5459
404.727	0.711
414.033	0.772
423.338	0.782
432.644	0.75
441.95	0.5632
451.256	0.3801
460.561	0.2301
469.867	0.156
479.173	0.144
488.479	0.3199
497.784	0.502
507.09	0.564
516.396	0.4731
525.702	0.2521
535.007	0.1281
544.313	0.071
553.619	0.068
562.925	0.089
572.23	0.139
581.536	0.213
590.842	0.249
600.148	0.274
609.453	0.304
618.759	0.329
628.065	0.3709
637.371	0.4609
646.676	0.604
655.982	0.702
665.288	0.777
674.594	0.804
683.9	0.837
693.205	0.853
702.511	0.863
711.817	0.876
721.123	0.904
730.428	0.916
739.734	0.926
749.04	0.934
758.346	0.945
767.651	0.947
776.957	0.951
786.263	0.949
795.569	0.947
804.874	0.953
814.18	0.957
823.486	0.959
832.792	0.962
842.097	0.959
851.403	0.958
860.709	0.959
870.015	0.954
879.32	0.951
888.626	0.947
897.932	0.946
907.238	0.941
916.543	0.942
925.849	0.939
935.155	0.943
944.461	0.943
953.766	0.941
963.072	0.947
972.378	0.947
981.684	0.947
990.989	0.947
1000.3	0.953
1009.6	0.947
1018.91	0.943
1028.21	0.935
1037.52	0.932
1046.82	0.93
1056.13	0.93
1065.44	0.928
1074.74	0.928
1084.05	0.928
1093.35	0.922
1102.66	0.922
1111.96	0.922
1121.27	0.923
1130.58	0.924
1139.88	0.924
1149.19	0.927
1158.49	0.931
1167.8	0.93
1177.1	0.931
1186.41	0.935
1195.72	0.935
1205.02	0.934
1214.33	0.935
1223.63	0.939
1232.94	0.936
1242.24	0.939
1251.55	0.943
1260.86	0.943
1270.16	0.943
1279.47	0.945
1288.77	0.939
1298.08	0.942
1307.39	0.939
1316.69	0.938
1326	0.934
1335.3	0.934
1344.61	0.936
1353.91	0.934
1363.22	0.932
1372.53	0.93
1381.83	0.931
1391.14	0.93
1400.44	0.93
1409.75	0.927
1419.05	0.924
1428.36	0.924
1437.67	0.924
1446.97	0.923
1456.28	0.923
1465.58	0.923
1474.89	0.922
1484.19	0.922
1493.5	0.922
1502.81	0.918
1512.11	0.916
1521.42	0.915
1530.72	0.914
1540.03	0.914
1549.33	0.914
1558.64	0.911
1567.95	0.908
1577.25	0.904
1586.56	0.902
1595.86	0.891
1605.17	0.879
1614.48	0.868
1623.78	0.869
1633.09	0.875
1642.39	0.884
1651.7	0.89
1661	0.892
1670.31	0.898
1679.62	0.898
1688.92	0.9
1698.23	0.898
1707.53	0.9
1716.84	0.9
1726.14	0.899
1735.45	0.899
1744.76	0.898
1754.06	0.899
1763.37	0.898
1772.67	0.898
1781.98	0.898
1791.28	0.894
1800.59	0.892
1809.9	0.891
1819.2	0.894
1828.51	0.892
1837.81	0.892
1847.12	0.892
1856.42	0.892
1865.73	0.891
1875.04	0.887
1884.34	0.886
1893.65	0.884
1902.95	0.883
1912.26	0.882
1921.57	0.882
1930.87	0.879
1940.18	0.876
1949.48	0.876
1958.79	0.873
1968.09	0.872
1977.4	0.869
1986.71	0.868
1996.01	0.867
2005.32	0.863
2014.62	0.8605
2023.93	0.8571
2033.23	0.8565
2042.54	0.855
2051.85	0.855
2061.15	0.853
2070.46	0.851
2079.76	0.848
2089.07	0.8446
2098.37	0.843
2107.68	0.841
2116.99	0.841
2126.29	0.84
2135.6	0.84
2144.9	0.8396
2154.21	0.839
2163.51	0.8366
2172.82	0.8351
2182.13	0.833
2191.43	0.833
2200.74	0.835
2210.04	0.835
2219.35	0.8326
2228.66	0.8271
2237.96	0.8263
2247.27	0.8242
2256.57	0.823
2265.88	0.821
2275.18	0.8207
2284.49	0.8175
2293.8	0.815
2303.1	0.8168
2312.41	0.8121
2321.71	0.808
2331.02	0.808
2340.32	0.8064
2349.63	0.802
2358.94	0.802
2368.24	0.8035
2377.55	0.802
2386.85	0.8007
2396.16	0.7985
2405.46	0.797
2414.77	0.793
2424.08	0.7932
2433.38	0.793
2442.69	0.792
2451.99	0.79
2461.3	0.788
2470.6	0.7853
2479.91	0.784
2489.22	0.7826
2498.52	0.7808
2507.83	0.778
2517.13	0.778
2526.44	0.7763
2535.75	0.774
2545.05	0.773
2554.36	0.773
2563.66	0.7723
2572.97	0.7717
2582.27	0.768
2591.58	0.768
2600.89	0.7644
2610.19	0.762
2619.5	0.7614
2628.8	0.761
2638.11	0.7604
2647.41	0.7539
2656.72	0.752
2666.03	0.75
2675.33	0.7494
2684.64	0.7459
2693.94	0.7424
2703.25	0.741
2712.55	0.741
2721.86	0.739
2731.17	0.738
2740.47	0.7369
2749.78	0.734
2759.08	0.733
2768.39	0.731
2777.69	0.73
2787	0.729
2796.31	0.725
2805.61	0.722
2814.92	0.721
2824.22	0.7185
2833.53	0.717
2842.83	0.7126
2852.14	0.71
2861.45	0.7061
2870.75	0.705
2880.06	0.702
2889.36	0.701
2898.67	0.6976
2907.98	0.6941
2917.28	0.6906
2926.59	0.689
2935.89	0.6851
2945.2	0.686
2954.5	0.684
2963.81	0.6821
2973.12	0.682
2982.42	0.682
2991.73	0.68
3001.03	0.679
3010.34	0.678
3019.64	0.676
3028.95	0.674
3038.26	0.672
3047.56	0.671
3056.87	0.6702
3066.17	0.666
3075.48	0.6632
3084.78	0.66
3094.09	0.659
3103.4	0.6547
3112.7	0.65
3122.01	0.6477
3131.31	0.646
3140.62	0.6437
3149.92	0.6404
3159.23	0.6387
3168.54	0.6342
3177.84	0.631
3187.15	0.631
3196.45	0.6292
3205.76	0.6215
3215.07	0.6208
3224.37	0.62
3233.68	0.617
3242.98	0.616
3252.29	0.615
3261.59	0.6113
3270.9	0.604
3280.21	0.6016
3289.51	0.5986
3298.82	0.5923
3308.12	0.5904
3317.43	0.5856
3326.73	0.5768
3336.04	0.5736
3345.35	0.5648
3354.65	0.5617
3363.96	0.5565
3373.26	0.55
3382.57	0.5449
3391.87	0.5364
3401.18	0.5329
3410.49	0.5275
3419.79	0.5217
3429.1	0.5164
3438.4	0.5086
3447.71	0.5044
3457.01	0.502
3466.32	0.5032
3475.63	0.505
3484.93	0.5056
3494.24	0.508
3503.54	0.5096
3512.85	0.513
3522.16	0.5151
3531.46	0.517
3540.77	0.5215
3550.07	0.525
3559.38	0.5271
3568.68	0.532
3577.99	0.5346
3587.3	0.54
3596.6	0.542
3605.91	0.545
3615.21	0.545
3624.52	0.548
3633.82	0.55
3643.13	0.552
3652.44	0.552
3661.74	0.552
3671.05	0.5495
3680.35	0.548
3689.66	0.5471
3698.96	0.545
3708.27	0.5431
3717.58	0.541
3726.88	0.5391
3736.19	0.537
3745.49	0.536
3754.8	0.533
3764.1	0.532
3773.41	0.529
3782.72	0.5272
3792.02	0.526
3801.33	0.5232
3810.63	0.521
3819.94	0.52
3829.25	0.5171
3838.55	0.5152
3847.86	0.5131
3857.16	0.5113
3866.47	0.5081
3875.77	0.5057
3885.08	0.504
3894.39	0.502
3903.69	0.501
3913	0.498
3922.3	0.495
3931.61	0.4937
3940.91	0.4902
3950.22	0.4884
3959.53	0.4852
3968.83	0.4844
3978.14	0.4822
3987.44	0.481
