Infrared Spectrum: N,N'-Diethyl-1,6-hexanediamine
Formula: C10 H24 N2
CAS: 13093-05-5
State: LIQUID (NEAT)
Boiling point: 103 C AT 7 mmHg
Class: COBLENTZ III
Instrument: BECKMAN IR-9 (GRATING)
Instrument parameters: ORDER CHANGES: 670, 1200, 2000 CM^-^1
Sampling: TRANSMISSION
Path length: CAPILLARY
Resolution: 2
Origin: DOW CHEMICAL COMPANY
1/CM	TRANSMITTANCE
3810	0.8521
3801	0.8518
3792	0.8517
3783	0.8512
3774	0.8503
3765	0.8503
3756	0.8507
3747	0.8509
3738	0.8512
3729	0.8515
3720	0.8491
3711	0.8413
3702	0.838
3693	0.8377
3684	0.8382
3675	0.8382
3666	0.8383
3657	0.8383
3648	0.8382
3639	0.838
3630	0.8364
3621	0.8346
3612	0.8327
3603	0.8299
3594	0.827
3585	0.8236
3576	0.8195
3567	0.8153
3558	0.8108
3549	0.8064
3540	0.8018
3531	0.7975
3522	0.793
3513	0.7886
3504	0.7837
3495	0.7784
3486	0.7736
3477	0.7696
3468	0.7655
3459	0.761
3450	0.7562
3441	0.7511
3432	0.7478
3423	0.7451
3414	0.7421
3405	0.7392
3396	0.7365
3387	0.734
3378	0.7305
3369	0.7235
3360	0.7136
3351	0.6992
3342	0.6874
3333	0.6721
3324	0.6471
3315	0.6276
3306	0.6152
3297	0.6105
3288	0.6084
3279	0.6187
3270	0.6328
3261	0.646
3252	0.6588
3243	0.6715
3234	0.6831
3225	0.6945
3216	0.7046
3207	0.7134
3198	0.7225
3189	0.7317
3180	0.7391
3171	0.7434
3162	0.7476
3153	0.7504
3144	0.7528
3135	0.7544
3126	0.7556
3117	0.7561
3108	0.7565
3099	0.7568
3090	0.7568
3081	0.7568
3072	0.7528
3063	0.7475
3054	0.7401
3045	0.731
3036	0.7211
3027	0.7062
3018	0.6891
3009	0.6607
3000	0.5733
2991	0.4692
2982	0.1739
2973	0.0956
2964	0.1371
2955	0.1145
2946	0.0258
2937	0.0287
2928	0.058
2919	0.0881
2910	0.1183
2901	0.1484
2892	0.1639
2883	0.1581
2874	0.1285
2865	0.0996
2856	0.1677
2847	0.2074
2838	0.1584
2829	0.1071
2820	0.1046
2811	0.1382
2802	0.1891
2793	0.2901
2784	0.3982
2775	0.4666
2766	0.501
2757	0.51
2748	0.5135
2739	0.5594
2730	0.6119
2721	0.6468
2712	0.6584
2703	0.6645
2694	0.673
2685	0.6912
2676	0.7036
2667	0.7065
2658	0.7135
2649	0.7371
2640	0.7549
2631	0.7687
2622	0.7795
2613	0.7862
2604	0.7905
2595	0.7934
2586	0.798
2577	0.8044
2568	0.8125
2559	0.819
2550	0.825
2541	0.8281
2532	0.831
2523	0.8335
2514	0.836
2505	0.8385
2496	0.8407
2487	0.8417
2478	0.8428
2469	0.8438
2460	0.8448
2451	0.8457
2442	0.8468
2433	0.8481
2424	0.8494
2415	0.85
2406	0.8504
2397	0.8488
2388	0.8431
2379	0.8396
2370	0.839
2361	0.8392
2352	0.8404
2343	0.8406
2334	0.8402
2325	0.8396
2316	0.839
2307	0.8374
2298	0.8375
2289	0.8424
2280	0.8444
2271	0.8455
2262	0.8463
2253	0.8468
2244	0.8466
2235	0.8464
2226	0.8488
2217	0.8523
2208	0.8535
2199	0.8547
2190	0.8556
2181	0.8565
2172	0.8571
2163	0.8573
2154	0.8578
2145	0.8601
2136	0.8628
2127	0.8646
2118	0.8653
2109	0.866
2100	0.8667
2091	0.8668
2082	0.8671
2073	0.8673
2064	0.8675
2055	0.8678
2046	0.8681
2037	0.8681
2028	0.8671
2019	0.8662
2010	0.864
2001	0.8613
1992	0.8595
1983	0.8594
1974	0.8586
1965	0.852
1956	0.8546
1947	0.8553
1938	0.8545
1929	0.8536
1920	0.8534
1911	0.8548
1902	0.8553
1893	0.855
1884	0.8533
1875	0.8523
1866	0.8528
1857	0.8541
1848	0.8557
1839	0.8573
1830	0.8584
1821	0.8594
1812	0.8605
1803	0.8612
1794	0.8618
1785	0.8624
1776	0.8628
1767	0.8632
1758	0.8633
1749	0.8625
1740	0.8612
1731	0.8596
1722	0.8571
1713	0.8532
1704	0.8473
1695	0.8415
1686	0.8364
1677	0.8324
1668	0.8293
1659	0.8277
1650	0.8277
1641	0.828
1632	0.8287
1623	0.8296
1614	0.8302
1605	0.8304
1596	0.8314
1587	0.8324
1578	0.8328
1569	0.8325
1560	0.8317
1551	0.8292
1542	0.8245
1533	0.8172
1524	0.8078
1515	0.794
1506	0.7731
1497	0.7235
1488	0.5706
1479	0.4824
1470	0.4141
1461	0.3064
1452	0.3556
1443	0.3914
1434	0.5785
1425	0.7168
1416	0.7537
1407	0.7569
1398	0.7357
1389	0.5904
1380	0.4614
1371	0.479
1362	0.6536
1353	0.6356
1344	0.6588
1335	0.5907
1326	0.7321
1317	0.7381
1308	0.711
1299	0.7014
1290	0.7044
1281	0.731
1272	0.7357
1263	0.7461
1254	0.7662
1245	0.7687
1236	0.7754
1227	0.7647
1218	0.7478
1209	0.7384
1200	0.7204
1191	0.7195
1182	0.7126
1173	0.6912
1164	0.6002
1155	0.4882
1146	0.3366
1137	0.2206
1128	0.2532
1119	0.3516
1110	0.489
1101	0.6134
1092	0.6822
1083	0.6815
1074	0.6756
1065	0.675
1056	0.7033
1047	0.7417
1038	0.7428
1029	0.7408
1020	0.746
1011	0.7576
1002	0.7631
993	0.7736
984	0.7908
975	0.804
966	0.8084
957	0.8022
948	0.7921
939	0.7792
930	0.7654
921	0.7568
912	0.7585
903	0.7657
894	0.771
885	0.773
876	0.7708
867	0.7638
858	0.7492
849	0.7232
840	0.695
831	0.6735
822	0.6501
813	0.6253
804	0.5831
795	0.5542
786	0.5294
777	0.4997
768	0.4755
759	0.439
750	0.3772
741	0.3487
732	0.3532
723	0.3922
714	0.4438
705	0.4878
696	0.5375
687	0.6007
678	0.6544
669	0.7172
660	0.7518
651	0.7694
642	0.7815
633	0.79
624	0.7957
615	0.8
606	0.8026
597	0.8034
588	0.8015
579	0.7962
570	0.7825
561	0.7672
552	0.7608
543	0.7574
534	0.7525
525	0.7438
516	0.7297
507	0.7183
498	0.7118
489	0.7084
480	0.7051
471	0.6962
462	0.6815
453	0.6641
444	0.6205
435	0.5723
426	0.5389
417	0.5286
408	0.5348
