Infrared Spectrum: Phthalic acid, bis(1-methylheptyl) ester
Formula: C24 H38 O4
CAS: 131-15-7
State: SOLUTION (10% CCl4 FOR 2.7-7.5, 10% CS2 FOR 7.5-26 MICRON) VS SOLVENT
Class: COBLENTZ III
Instrument: DOW KBr FOREPRISM-GRATING
Instrument parameters: BLAZED AT 3.5, 12.0, 20.0 MICRON AND CHANGED AT 5.0, 7.5, 14.9 MICRON
Sampling: TRANSMISSION
Path length: 0.011 CM, 0.011 CM
Resolution: 2
Origin: DOW CHEMICAL COMPANY
1/CM	TRANSMITTANCE
3796	0.8616
3787	0.8617
3778	0.8618
3769	0.8618
3760	0.8615
3751	0.8614
3742	0.8615
3733	0.8616
3724	0.862
3715	0.8625
3706	0.8636
3697	0.8647
3688	0.8653
3679	0.8639
3670	0.8608
3661	0.8615
3652	0.8621
3643	0.8625
3634	0.8636
3625	0.865
3616	0.8665
3607	0.868
3598	0.8694
3589	0.8711
3580	0.8734
3571	0.877
3562	0.8778
3553	0.8778
3544	0.8785
3535	0.8795
3526	0.8806
3517	0.8818
3508	0.8831
3499	0.8848
3490	0.8864
3481	0.8877
3472	0.8887
3463	0.889
3454	0.8842
3445	0.8765
3436	0.8716
3427	0.8681
3418	0.8668
3409	0.8683
3400	0.8742
3391	0.8811
3382	0.8881
3373	0.8921
3364	0.8943
3355	0.896
3346	0.8974
3337	0.8982
3328	0.899
3319	0.8995
3310	0.8999
3301	0.9003
3292	0.9004
3283	0.9005
3274	0.9006
3265	0.9006
3256	0.9002
3247	0.8993
3238	0.8981
3229	0.8963
3220	0.8931
3211	0.8899
3202	0.8865
3193	0.8816
3184	0.8771
3175	0.8774
3166	0.8789
3157	0.8797
3148	0.8798
3139	0.8799
3130	0.8802
3121	0.8805
3112	0.8778
3103	0.872
3094	0.8657
3085	0.853
3076	0.7983
3067	0.7799
3058	0.7849
3049	0.7993
3040	0.818
3031	0.8115
3022	0.8003
3013	0.7815
3004	0.7488
2995	0.5114
2986	0.2783
2977	0.1883
2968	0.0996
2959	0.0804
2950	0.0943
2941	0.0642
2932	0.0362
2923	0.0486
2914	0.118
2905	0.2272
2896	0.3364
2887	0.4219
2878	0.3691
2869	0.1904
2860	0.1667
2851	0.3732
2842	0.576
2833	0.6525
2824	0.7064
2815	0.7361
2806	0.7678
2797	0.7912
2788	0.8095
2779	0.8243
2770	0.8346
2761	0.8402
2752	0.8418
2743	0.8381
2734	0.8315
2725	0.8306
2716	0.8339
2707	0.841
2698	0.848
2689	0.8521
2680	0.8528
2671	0.8521
2662	0.8524
2653	0.8534
2644	0.8544
2635	0.855
2626	0.8557
2617	0.8563
2608	0.8568
2599	0.8567
2590	0.8564
2581	0.8567
2572	0.8577
2563	0.8592
2554	0.8615
2545	0.8637
2536	0.8651
2527	0.8664
2518	0.8678
2509	0.8691
2500	0.8705
2491	0.8725
2482	0.8747
2473	0.8768
2464	0.8784
2455	0.8778
2446	0.8751
2437	0.8718
2428	0.8687
2419	0.8661
2410	0.8656
2401	0.8656
2392	0.8658
2383	0.8668
2374	0.8678
2365	0.8687
2356	0.8695
2347	0.8698
2338	0.8701
2329	0.8699
2320	0.8694
2311	0.8687
2302	0.8687
2293	0.8688
2284	0.8691
2275	0.8695
2266	0.87
2257	0.8707
2248	0.8715
2239	0.8723
2230	0.873
2221	0.8738
2212	0.8748
2203	0.8758
2194	0.8766
2185	0.884
2176	0.8836
2167	0.8784
2158	0.8761
2149	0.8752
2140	0.8748
2131	0.875
2122	0.8765
2113	0.8789
2104	0.8797
2095	0.88
2086	0.8806
2077	0.8812
2068	0.8816
2059	0.8818
2050	0.8818
2041	0.8802
2032	0.8787
2023	0.8786
2014	0.8798
2005	0.8804
1996	0.881
1987	0.8796
1978	0.8752
1969	0.8605
1960	0.864
1951	0.8704
1942	0.8573
1933	0.8555
1924	0.8675
1915	0.8691
1906	0.8701
1897	0.8711
1888	0.8718
1879	0.8728
1870	0.8707
1861	0.8657
1852	0.8673
1843	0.8611
1834	0.8461
1825	0.8502
1816	0.8532
1807	0.852
1798	0.8433
1789	0.8293
1780	0.8107
1771	0.7828
1762	0.7325
1753	0.6032
1744	0.2105
1735	0.0169
1726	0.0042
1717	0.0087
1708	0.2841
1699	0.5477
1690	0.6165
1681	0.6785
1672	0.7435
1663	0.7822
1654	0.8045
1645	0.8176
1636	0.8244
1627	0.8257
1618	0.8253
1609	0.7861
1600	0.6668
1591	0.7781
1582	0.6209
1573	0.7774
1564	0.8194
1555	0.8457
1546	0.8487
1537	0.8452
1528	0.8395
1519	0.8303
1510	0.8126
1501	0.791
1492	0.5979
1483	0.7112
1474	0.3326
1465	0.336
1456	0.421
1447	0.5831
1438	0.6701
1429	0.7486
1420	0.7738
1411	0.7749
1402	0.768
1393	0.6728
1384	0.3207
1375	0.5695
1366	0.5586
1357	0.405
1348	0.5012
1339	0.5794
1330	0.5952
1321	0.5103
1312	0.3672
1303	0.1414
1294	0.0487
1285	0.0092
1276	0.0063
1267	0.0079
1258	0.0343
1249	0.2696
1240	0.481
1231	0.5675
1222	0.6301
1213	0.6874
1204	0.6711
1195	0.6731
1186	0.73
1177	0.7419
1168	0.6235
1159	0.5841
1150	0.4074
1141	0.1834
1132	0.1314
1123	0.0858
1114	0.0502
1105	0.4401
1096	0.6017
1087	0.5721
1078	0.2678
1069	0.0874
1060	0.3076
1051	0.4298
1042	0.35
1033	0.4476
1024	0.5631
1015	0.7126
1006	0.7211
997	0.7501
988	0.7785
979	0.7797
970	0.7468
961	0.7604
952	0.7792
943	0.8377
934	0.7992
925	0.7317
916	0.7037
907	0.7784
898	0.8049
889	0.771
880	0.7861
871	0.7731
862	0.7358
853	0.6745
844	0.7031
835	0.7804
826	0.8307
817	0.8534
808	0.8388
799	0.7448
790	0.7276
781	0.7254
772	0.7153
763	0.6562
754	0.4899
745	0.2798
736	0.5244
727	0.6107
718	0.7503
709	0.5124
700	0.7738
691	0.7698
682	0.8477
673	0.8778
664	0.8818
655	0.7946
646	0.7937
637	0.8467
628	0.858
619	0.8504
610	0.8418
601	0.8418
592	0.8449
583	0.8144
574	0.8034
565	0.7968
556	0.8149
547	0.8299
538	0.8257
529	0.8168
520	0.8185
511	0.8225
502	0.8203
493	0.8143
484	0.8058
475	0.8092
466	0.8065
457	0.8038
448	0.8037
439	0.8039
430	0.8034
421	0.8035
412	0.8047
403	0.8075
