Infrared Spectrum: 4-PHENYLAZO-1-NAPHTHYL-AMINE
Formula: C16 H13 N3
CAS: 131-22-6
State: SOLID (OIL MULL)
Melting point: 123-125 C
Class: COBLENTZ
Instrument: Not specified, most likely a prism, grating, or hybrid spectrometer.
Sampling: TRANSMISSION
Resolution: 4
Origin: WYANDOTTE CHEMICALS CORP., WYANDOTTE, MICHIGAN, USA
MICROMETERS	TRANSMITTANCE
2.051	0.158
2.09081	0.143
2.13063	0.138
2.17044	0.136
2.21026	0.138
2.25007	0.141
2.28989	0.143
2.3297	0.148
2.36951	0.153
2.40933	0.165
2.44914	0.165
2.48896	0.168
2.52877	0.175
2.56859	0.181
2.6084	0.186
2.64822	0.195
2.68803	0.203
2.72784	0.213
2.76766	0.221
2.80747	0.233
2.84729	0.2
2.8871	0.161
2.92692	0.19
2.96673	0.148
3.00654	0.116
3.04636	0.158
3.08617	0.11
3.12599	0.15
3.1658	0.201
3.20562	0.221
3.24543	0.201
3.28525	0.186
3.32506	0.066
3.36487	0.031
3.40469	0.051
3.4445	0.078
3.48432	0.155
3.52413	0.408
3.56395	0.448
3.60376	0.456
3.64357	0.46
3.68339	0.453
3.7232	0.473
3.76302	0.483
3.80283	0.495
3.84265	0.503
3.88246	0.516
3.92228	0.533
3.96209	0.538
4.0019	0.548
4.04172	0.555
4.08153	0.568
4.12135	0.581
4.16116	0.59
4.20098	0.603
4.24079	0.596
4.2806	0.6
4.32042	0.61
4.36023	0.633
4.40005	0.648
4.43986	0.655
4.47968	0.661
4.51949	0.665
4.55931	0.683
4.59912	0.693
4.63893	0.701
4.67875	0.711
4.71856	0.723
4.75838	0.728
4.79819	0.746
4.83801	0.755
4.87782	0.768
4.91763	0.766
4.95745	0.778
4.99726	0.791
5.03708	0.8
5.07689	0.808
5.11671	0.811
5.15652	0.793
5.19634	0.793
5.23615	0.816
5.27596	0.818
5.31578	0.808
5.35559	0.811
5.39541	0.861
5.43522	0.873
5.47504	0.88
5.51485	0.88
5.55466	0.88
5.59448	0.883
5.63429	0.908
5.67411	0.925
5.71392	0.928
5.75374	0.95
5.79355	0.956
5.83336	0.948
5.87318	0.956
5.91299	0.945
5.95281	0.923
5.99262	0.841
6.03244	0.476
6.07225	0.118
6.11207	0.138
6.15188	0.276
6.19169	0.448
6.23151	0.215
6.27132	0.06
6.31114	0.066
6.35095	0.27
6.39077	0.565
6.43058	0.643
6.47039	0.71
6.51021	0.486
6.55002	0.176
6.58984	0.445
6.62965	0.646
6.66947	0.575
6.70928	0.51
6.7491	0.16
6.78891	0.143
6.82872	0.368
6.86854	0.443
6.90835	0.565
6.94817	0.591
6.98798	0.54
7.0278	0.618
7.06761	0.196
7.10742	0.098
7.14724	0.341
7.18705	0.241
7.22687	0.255
7.26668	0.425
7.3065	0.523
7.34631	0.571
7.38613	0.428
7.42594	0.065
7.46575	0.025
7.50557	0.038
7.54538	0.15
7.5852	0.196
7.62501	0.346
7.66483	0.475
7.70464	0.588
7.74445	0.683
7.78427	0.698
7.82408	0.588
7.8639	0.223
7.90371	0.121
7.94353	0.346
7.98334	0.555
8.02316	0.505
8.06297	0.158
8.10278	0.085
8.1426	0.163
8.18241	0.371
8.22223	0.543
8.26204	0.618
8.30186	0.57
8.34167	0.358
8.38148	0.168
8.4213	0.378
8.46111	0.198
8.50093	0.178
8.54074	0.138
8.58056	0.113
8.62037	0.193
8.66018	0.495
8.7	0.543
8.73981	0.168
8.77963	0.288
8.81944	0.411
8.85926	0.378
8.89907	0.328
8.93889	0.411
8.9787	0.538
9.01851	0.605
9.05833	0.665
9.09814	0.703
9.13796	0.728
9.17777	0.733
9.21759	0.691
9.2574	0.673
9.29721	0.688
9.33703	0.698
9.37684	0.703
9.41666	0.69
9.45647	0.521
9.49629	0.478
9.5361	0.6
9.57592	0.668
9.61573	0.675
9.65554	0.618
9.69536	0.611
9.73517	0.64
9.77499	0.716
9.8148	0.778
9.85462	0.796
9.89443	0.795
9.93424	0.736
9.97406	0.728
10.0139	0.793
10.0537	0.828
10.0935	0.838
10.1333	0.843
10.1731	0.845
10.2129	0.833
10.2528	0.833
10.2926	0.838
10.3324	0.828
10.3722	0.801
10.412	0.833
10.4518	0.838
10.4916	0.813
10.5315	0.821
10.5713	0.826
10.6111	0.796
10.6509	0.681
10.6907	0.783
10.7305	0.838
10.7703	0.853
10.8102	0.856
10.85	0.831
10.8898	0.668
10.9296	0.555
10.9694	0.478
11.0092	0.723
11.049	0.803
11.0889	0.83
11.1287	0.838
11.1685	0.846
11.2083	0.855
11.2481	0.861
11.2879	0.866
11.3277	0.87
11.3676	0.873
11.4074	0.871
11.4472	0.868
11.487	0.863
11.5268	0.851
11.5666	0.816
11.6064	0.798
11.6463	0.801
11.6861	0.748
11.7259	0.711
11.7657	0.72
11.8055	0.691
11.8453	0.596
11.8851	0.57
11.925	0.561
11.9648	0.593
12.0046	0.578
12.0444	0.508
12.0842	0.416
12.124	0.3
12.1638	0.318
12.2037	0.463
12.2435	0.635
12.2833	0.701
12.3231	0.741
12.3629	0.756
12.4027	0.761
12.4425	0.751
12.4824	0.756
12.5222	0.778
12.562	0.785
12.6018	0.796
12.6416	0.796
12.6814	0.791
12.7213	0.753
12.7611	0.693
12.8009	0.501
12.8407	0.44
12.8805	0.44
12.9203	0.555
12.9601	0.63
13	0.631
13.0398	0.513
13.0796	0.386
13.1194	0.316
13.1592	0.258
13.199	0.196
13.2388	0.11
13.2787	0.035
13.3185	0.02
13.3583	0.038
13.3981	0.096
13.4379	0.221
13.4777	0.328
13.5175	0.405
13.5574	0.475
13.5972	0.53
13.637	0.565
13.6768	0.585
13.7166	0.6
13.7564	0.61
13.7962	0.63
13.8361	0.641
13.8759	0.661
13.9157	0.69
13.9555	0.69
13.9953	0.691
14.0351	0.701
14.0749	0.701
14.1148	0.705
14.1546	0.706
14.1944	0.703
14.2342	0.701
14.274	0.7
14.3138	0.693
14.3536	0.686
14.3935	0.666
14.4333	0.636
14.4731	0.598
14.5129	0.543
14.5527	0.475
14.5925	0.358
14.6323	0.24
14.6722	0.158
14.712	0.135
14.7518	0.158
14.7916	0.236
14.8314	0.32
14.8712	0.385
14.911	0.43
14.9509	0.448
14.9907	0.458
15.0305	0.445
15.0703	0.438
15.1101	0.433
15.1499	0.45
15.1897	0.465
15.2296	0.481
15.2694	0.49
15.3092	0.5
15.349	0.5
15.3888	0.5
15.4286	0.486
15.4684	0.476
15.5083	0.466
15.5481	0.46
15.5879	0.463
15.6277	0.473
15.6675	0.476
15.7073	0.473
15.7471	0.475
15.787	0.471
15.8268	0.465
15.8666	0.455
15.9064	0.446
15.9462	0.44
15.986	0.43
