Infrared Spectrum: 1-Nitroso-2-naphthol
Formula: C 10 H 7 N O 2
CAS: 131-91-9
State: gas
Instrument: HP-GC/MS/IRD
Origin: NIST Mass Spectrometry Data Center
1/CM	ABSORBANCE
550	0.00068
562	9.52e-05
574	0.0002312
586	9.18e-05
598	0.0004012
610	0.0006732
622	0.0004352
634	0.0004454
646	0.001003
658	0.0012784
670	0.0016218
682	0.0026384
694	0.0013906
706	0.0015164
718	0.00238
730	0.0025228
742	0.0086292
754	0.0148954
766	0.0064158
778	0.0044132
790	0.0032674
802	0.0017646
814	0.0024344
826	0.0056338
838	0.0142188
850	0.022559
862	0.0156842
874	0.008228
886	0.0033796
898	0.0016116
910	0.001207
922	0.0014348
934	0.0018088
946	0.0026996
958	0.0042874
970	0.0094282
982	0.0084558
994	0.0026044
1006	0.001462
1018	0.0018122
1030	0.002907
1042	0.0039338
1054	0.006392
1066	0.0167518
1078	0.0252994
1090	0.018105
1102	0.0103258
1114	0.011594
1126	0.0067796
1138	0.0047294
1150	0.0036516
1162	0.0033558
1174	0.0029376
1186	0.0032028
1198	0.004777
1210	0.0083878
1222	0.006494
1234	0.0045764
1246	0.0073372
1258	0.0106964
1270	0.005848
1282	0.0035938
1294	0.0038862
1306	0.0048722
1318	0.006171
1330	0.0078336
1342	0.0061676
1354	0.0044914
1366	0.0030872
1378	0.0036652
1390	0.0059024
1402	0.007412
1414	0.005219
1426	0.0045424
1438	0.0048008
1450	0.0051102
1462	0.0051612
1474	0.0049742
1486	0.0052768
1498	0.006766
1510	0.0118354
1522	0.022406
1534	0.034
1546	0.0251498
1558	0.0166056
1570	0.0124134
1582	0.0091902
1594	0.00901
1606	0.0102238
1618	0.0178704
1630	0.0297432
1642	0.0224672
1654	0.0118116
1666	0.0082008
1678	0.0046886
1690	0.0040596
1702	0.0031722
1714	0.0020502
1726	0.001547
1738	0.0013226
1750	0.0010608
1762	0.0008194
1774	0.000527
1786	0.0004046
1798	0.0004896
1810	0.0008772
1822	0.0010642
1834	0.0006426
1846	0.000561
1858	0.0005984
1870	0.0003774
1882	0.0003128
1894	0.0004488
1906	0.0004488
1918	0.000408
1930	0.000748
1942	0.0006256
1954	0.00085
1966	0.0007956
1978	0.000204
1990	4.76e-05
2002	3.06e-05
2014	5.78e-05
2026	7.82e-05
2038	0.0001666
2050	0.0002618
2062	0.0002516
2074	0.0002074
2086	0.0001802
2098	8.5e-05
2110	6.8e-05
2122	5.1e-05
2134	9.18e-05
2146	0.00017
2158	0.00017
2170	0.00017
2182	0.0001462
2194	0.0001292
2206	0.0001054
2218	7.82e-05
2230	5.78e-05
2242	9.18e-05
2254	0.0001156
2266	0.0001768
2278	0.0002176
2290	0.0002278
2302	0.0003196
2314	0.0003842
2326	0.0004148
2338	0.0003196
2350	0.0002618
2362	0.000323
2374	0.0003026
2386	0.0002244
2398	0.000221
2410	0.0002992
2422	0.0003366
2434	0.0003128
2446	0.0003468
2458	0.000391
2470	0.000459
2482	0.0004454
2494	0.0004624
2506	0.0004726
2518	0.0003944
2530	0.0003604
2542	0.0004454
2554	0.0005066
2566	0.0004998
2578	0.0005814
2590	0.000646
2602	0.000697
2614	0.0007174
2626	0.0007174
2638	0.0007616
2650	0.0008194
2662	0.0008534
2674	0.0008704
2686	0.0009724
2698	0.0009928
2710	0.0010642
2722	0.0010982
2734	0.00119
2746	0.0012512
2758	0.001275
2770	0.0013226
2782	0.0014212
2794	0.0013634
2806	0.0013804
2818	0.0012954
2830	0.0013022
2842	0.0012478
2854	0.0012104
2866	0.0012614
2878	0.0012308
2890	0.001207
2902	0.0011662
2914	0.0010506
2926	0.0010642
2938	0.0009962
2950	0.0009554
2962	0.000969
2974	0.000969
2986	0.0010166
2998	0.0011118
3010	0.001394
3022	0.0021454
3034	0.003893
3046	0.0054604
3058	0.0056032
3070	0.0065824
3082	0.0051578
3094	0.0027098
3106	0.0019448
3118	0.001768
3130	0.0015232
3142	0.0010608
3154	0.0008636
3166	0.0008126
3178	0.0007888
3190	0.000697
3202	0.0006324
3214	0.0006086
3226	0.0006188
3238	0.0006732
3250	0.0006698
3262	0.0006902
3274	0.0006018
3286	0.0005236
3298	0.0004658
3310	0.0004114
3322	0.0003808
3334	0.0002958
3346	0.0002414
3358	0.0002686
3370	0.0001836
3382	0.0001598
3394	0.0001938
3406	0.0001632
3418	0.000119
3430	0.000102
3442	0.0001088
3454	0.0001836
3466	8.16e-05
3478	0.0001156
3490	0.0001156
3502	0.0001258
3514	0.0001768
3526	0.000102
3538	0.0001224
3550	9.86e-05
3562	0.0001224
3574	0.0001768
3586	0.0001802
3598	0.000238
3610	0.0004114
3622	0.0004386
3634	0.0002176
3646	0.0001802
3658	0.0001836
3670	0.0001938
3682	0.000204
3694	0.0001836
3706	0.00017
3718	0.0002176
3730	0.0002142
3742	0.0002414
3754	0.0002176
3766	0.0002856
3778	0.0002618
3790	0.0002244
3802	0.0002482
3814	0.0002516
3826	0.0003298
3838	0.0001972
