Infrared Spectrum: DESERPIDINE
Formula: C32 H38 N2 O8
CAS: 131-01-1
State: SOLUTION (7% IN CHCl3)
Class: COBLENTZ
Instrument: PERKIN-ELMER
Sampling: TRANSMISSION
Path length: 0.010 CM
Resolution: 4
Origin: ABBOTT LABORATORIES - WASHBURN
MICROMETERS	TRANSMITTANCE
2.04	1.003
2.06667	1.001
2.09334	1
2.12	1
2.14667	1.0125
2.17334	1.0026
2.20001	1.003
2.22668	1.001
2.25334	0.993
2.28001	0.988
2.30668	0.983
2.33335	0.9809
2.36002	0.9889
2.38668	0.9889
2.41335	0.9828
2.44002	0.981
2.46669	0.986
2.49336	0.984
2.52002	0.986
2.54669	0.988
2.57336	0.998
2.60003	0.994
2.6267	0.9941
2.65336	0.998
2.68003	0.994
2.7067	0.986
2.73337	0.996
2.76004	0.9864
2.7867	0.9674
2.81337	0.9489
2.84004	0.8419
2.86671	0.84
2.89338	0.8949
2.92004	0.899
2.94671	0.8988
2.97338	0.9171
3.00005	0.9291
3.02672	0.9371
3.05338	0.942
3.08005	0.949
3.10672	0.951
3.13339	0.947
3.16006	0.9421
3.18672	0.9367
3.21339	0.9067
3.24006	0.8668
3.26673	0.806
3.2934	0.712
3.32007	0.6627
3.34673	0.4851
3.3734	0.4859
3.40007	0.5569
3.42674	0.6387
3.45341	0.665
3.48007	0.6969
3.50674	0.8138
3.53341	0.8882
3.56008	0.9335
3.58675	0.944
3.61341	0.941
3.64008	0.942
3.66675	0.944
3.69342	0.956
3.72009	0.951
3.74675	0.9459
3.77342	0.9541
3.80009	0.9631
3.82676	0.9661
3.85343	0.966
3.88009	0.966
3.90676	0.969
3.93343	0.9641
3.9601	0.9522
3.98677	0.951
4.01343	0.9511
4.0401	0.951
4.06677	0.952
4.09344	0.957
4.12011	0.956
4.14677	0.9689
4.17344	0.9782
4.20011	0.983
4.22678	0.981
4.25345	0.978
4.28011	0.979
4.30678	0.9811
4.33345	0.974
4.36012	0.9879
4.38679	0.984
4.41345	0.981
4.44012	0.983
4.46679	0.986
4.49346	0.989
4.52013	0.9841
4.54679	0.981
4.57346	0.9829
4.60013	0.976
4.6268	0.976
4.65347	0.978
4.68013	0.979
4.7068	0.983
4.73347	0.9791
4.76014	0.9811
4.78681	0.9811
4.81347	0.984
4.84014	0.981
4.86681	0.981
4.89348	0.981
4.92015	0.981
4.94681	0.983
4.97348	0.984
5.00015	0.979
5.02682	0.9741
5.05349	0.9762
5.08015	0.9744
5.10682	0.976
5.13349	0.9805
5.16016	0.9796
5.18683	0.978
5.21349	0.976
5.24016	0.98
5.26683	0.979
5.2935	0.978
5.32017	0.981
5.34683	0.981
5.3735	0.9775
5.40017	0.978
5.42684	0.976
5.45351	0.9779
5.48017	0.968
5.50684	0.9632
5.53351	0.9574
5.56018	0.954
5.58685	0.9467
5.61352	0.9307
5.64018	0.9078
5.66685	0.858
5.69352	0.6392
5.72019	0.4147
5.74686	0.2852
5.77352	0.2556
5.80019	0.232
5.82686	0.2452
5.85353	0.4021
5.8802	0.6343
5.90686	0.7673
5.93353	0.8322
5.9602	0.8647
5.98687	0.8797
6.01354	0.8936
6.0402	0.9
6.06687	0.9
6.09354	0.8962
6.12021	0.8855
6.14688	0.8612
6.17354	0.8326
6.20021	0.6738
6.22688	0.5086
6.25355	0.393
6.28022	0.5842
6.30688	0.7441
6.33355	0.8203
6.36022	0.8705
6.38689	0.89
6.41356	0.9018
6.44022	0.9137
6.46689	0.915
6.49356	0.91
6.52023	0.912
6.5469	0.9052
6.57356	0.8761
6.60023	0.7104
6.6269	0.4265
6.65357	0.5837
6.68024	0.7192
6.7069	0.772
6.73357	0.794
6.76024	0.7495
6.78691	0.4552
6.81358	0.2423
6.84024	0.2525
6.86691	0.3924
6.89358	0.4756
6.92025	0.502
6.94692	0.5023
6.97358	0.6229
7.00025	0.7
7.02692	0.5285
7.05359	0.2929
7.08026	0.4951
7.10692	0.6901
7.13359	0.7833
7.16026	0.7871
7.18693	0.757
7.2136	0.6811
7.24026	0.6594
7.26693	0.633
7.2936	0.6253
7.32027	0.5974
7.34694	0.5549
7.3736	0.4829
7.40027	0.4622
7.42694	0.4553
7.45361	0.3498
7.48028	0.2014
7.50694	0.1307
7.53361	0.1394
7.56028	0.3017
7.58695	0.4284
7.61362	0.4829
7.64028	0.5443
7.66695	0.5025
7.69362	0.4945
7.72029	0.5837
7.74696	0.5951
7.77362	0.5148
7.80029	0.5262
7.82696	0.5519
7.85363	0.492
7.8803	0.492
7.90697	0.4612
7.93363	0.4151
7.9603	0.3526
7.98697	0.2972
8.01364	0.2805
8.04031	0.2977
8.06697	0.2896
8.09364	0.2556
8.12031	0.1773
8.14698	0.161
8.17365	0.157
8.20031	0.164
8.22698	0.173
8.25365	0.1788
8.28032	0.1825
8.30699	0.2024
8.33365	0.2506
8.36032	0.3935
8.38699	0.4492
8.41366	0.4024
8.44033	0.3213
8.46699	0.2931
8.49366	0.3135
8.52033	0.3204
8.547	0.3786
8.57367	0.4928
8.60033	0.5062
8.627	0.4619
8.65367	0.3941
8.68034	0.397
8.70701	0.464
8.73367	0.4494
8.76034	0.3678
8.78701	0.2696
8.81368	0.1531
8.84035	0.0912
8.86701	0.036
8.89368	0.0791
8.92035	0.1768
8.94702	0.2368
8.97369	0.2783
9.00035	0.2992
9.02702	0.3023
9.05369	0.3172
9.08036	0.329
9.10703	0.3339
9.13369	0.3368
9.16036	0.4035
9.18703	0.5019
9.2137	0.6421
9.24037	0.7229
9.26703	0.779
9.2937	0.8121
9.32037	0.8264
9.34704	0.8418
9.37371	0.8506
9.40037	0.8463
9.42704	0.823
9.45371	0.8134
9.48038	0.8051
9.50705	0.8212
9.53371	0.825
9.56038	0.8064
9.58705	0.7738
9.61372	0.7313
9.64039	0.7317
9.66705	0.7467
9.69372	0.7484
9.72039	0.7243
9.74706	0.712
9.77373	0.7335
9.80039	0.7721
9.82706	0.7965
9.85373	0.7837
9.8804	0.7079
9.90707	0.6245
9.93373	0.5635
9.9604	0.556
9.98707	0.5444
10.0137	0.532
10.0404	0.5434
10.0671	0.559
10.0937	0.5459
10.1204	0.5311
10.1471	0.5488
10.1737	0.5694
10.2004	0.5276
10.2271	0.4636
10.2538	0.4758
10.2804	0.5613
10.3071	0.6565
10.3338	0.7343
10.3604	0.8052
10.3871	0.8332
10.4138	0.8302
10.4404	0.8153
10.4671	0.8306
10.4938	0.8574
10.5204	0.8936
10.5471	0.9042
10.5738	0.9147
10.6004	0.9144
10.6271	0.8935
10.6538	0.8631
10.6804	0.8412
10.7071	0.836
10.7338	0.846
10.7604	0.853
10.7871	0.858
10.8138	0.86
10.8404	0.863
10.8671	0.8668
10.8938	0.872
10.9205	0.8702
10.9471	0.8621
10.9738	0.8561
11.0005	0.8777
11.0271	0.9032
11.0538	0.9029
11.0805	0.8921
11.1071	0.8725
11.1338	0.8764
11.1605	0.8927
11.1871	0.9056
11.2138	0.916
11.2405	0.9244
11.2671	0.9323
11.2938	0.9302
11.3205	0.9045
11.3471	0.8731
11.3738	0.8314
11.4005	0.8271
11.4271	0.8509
11.4538	0.8743
11.4805	0.8862
11.5071	0.8716
11.5338	0.8359
11.5605	0.803
11.5872	0.7873
11.6138	0.8165
11.6405	0.8518
11.6672	0.8813
11.6938	0.9006
11.7205	0.905
11.7472	0.9018
11.7738	0.897
11.8005	0.8969
11.8272	0.9085
11.8538	0.914
11.8805	0.926
11.9072	0.9335
11.9338	0.939
11.9605	0.9347
11.9872	0.9229
12.0138	0.9156
12.0405	0.9127
12.0672	0.9176
12.0938	0.9295
12.1205	0.9413
12.1472	0.9397
12.1738	0.9338
12.2005	0.9322
12.2272	0.939
12.2539	0.9392
12.2805	0.941
12.3072	0.9393
12.3339	0.941
12.3605	0.936
12.3872	0.939
12.4139	0.9382
12.4405	0.9465
12.4672	0.9498
12.4939	0.9547
12.5205	0.957
