Infrared Spectrum: Benzophenone, 2,2'-dihydroxy-4,4'-dimethoxy-
Formula: C15 H14 O5
CAS: 131-54-4
State: SOLID (0.8 mg / 300 mg KBr DISC)
Class: COBLENTZ III
Instrument: PERKIN-ELMER 180 (GRATING)
Instrument parameters: GRATINGS: 2000, 1000, 500, 250 CM^-^1; FILTER CHANGE: 2970, 2000, 1485, 1000, 743, 500, 372, 250, 186 CM^-^1.
Sampling: TRANSMISSION
Path length: SCALE ATTENUATION REDUCED 30%
Resolution: 2
Origin: K. K. DEB-NCI FREDERICK CANCER RESEARCH CENTER
1/CM	TRANSMITTANCE
404	0.7871
413	0.8252
422	0.8438
431	0.8402
440	0.7943
449	0.7233
458	0.7866
467	0.8493
476	0.851
485	0.8408
494	0.8582
503	0.8506
512	0.7991
521	0.7686
530	0.844
539	0.8454
548	0.8378
557	0.8185
566	0.7154
575	0.8138
584	0.7724
593	0.494
602	0.7981
611	0.8137
620	0.7901
629	0.8158
638	0.7703
647	0.7634
656	0.7963
665	0.6519
674	0.7501
683	0.6457
692	0.7118
701	0.6973
710	0.7286
719	0.76
728	0.7244
737	0.7847
746	0.8098
755	0.8075
764	0.7701
773	0.6123
782	0.4539
791	0.5866
800	0.6796
809	0.6017
818	0.7058
827	0.7717
836	0.7303
845	0.4868
854	0.7206
863	0.8249
872	0.8471
881	0.8492
890	0.8413
899	0.7976
908	0.6167
917	0.6267
926	0.8335
935	0.8438
944	0.8338
953	0.7955
962	0.4729
971	0.6919
980	0.835
989	0.812
998	0.8363
1007	0.8083
1016	0.7395
1025	0.5107
1034	0.5373
1043	0.8237
1052	0.8366
1061	0.8343
1070	0.8273
1079	0.8131
1088	0.787
1097	0.7528
1106	0.5826
1115	0.439
1124	0.458
1133	0.6456
1142	0.7436
1151	0.7336
1160	0.668
1169	0.4976
1178	0.5639
1187	0.6529
1196	0.6029
1205	0.3529
1214	0.4091
1223	0.3746
1232	0.2466
1241	0.1952
1250	0.198
1259	0.2431
1268	0.4859
1277	0.6181
1286	0.6572
1295	0.676
1304	0.6458
1313	0.6943
1322	0.7263
1331	0.6752
1340	0.5972
1349	0.3651
1358	0.2072
1367	0.3369
1376	0.4876
1385	0.5593
1394	0.5424
1403	0.6565
1412	0.7289
1421	0.7361
1430	0.648
1439	0.5864
1448	0.5739
1457	0.6099
1466	0.5851
1475	0.625
1484	0.6285
1493	0.567
1502	0.384
1511	0.4514
1520	0.6694
1529	0.6996
1538	0.6929
1547	0.6754
1556	0.6257
1565	0.4923
1574	0.3512
1583	0.2833
1592	0.2708
1601	0.3524
1610	0.2591
1619	0.2064
1628	0.2642
1637	0.3682
1646	0.4214
1655	0.6257
1664	0.7337
1673	0.773
1682	0.7978
1691	0.8092
1700	0.8211
1709	0.8331
1718	0.8429
1727	0.8515
1736	0.8591
1745	0.8666
1754	0.8688
1763	0.8717
1772	0.8791
1781	0.8843
1790	0.8839
1799	0.8832
1808	0.8823
1817	0.8827
1826	0.8785
1835	0.8779
1844	0.8815
1853	0.8858
1862	0.8842
1871	0.8818
1880	0.8824
1889	0.8821
1898	0.8775
1907	0.8771
1916	0.8789
1925	0.8754
1934	0.8658
1943	0.8758
1952	0.8796
1961	0.8782
1970	0.8757
1979	0.876
1988	0.8811
1997	0.8825
2006	0.8791
2015	0.8764
2024	0.873
2033	0.8695
2042	0.8678
2051	0.8647
2060	0.8699
2069	0.8696
2078	0.8694
2087	0.8721
2096	0.8743
2105	0.8759
2114	0.8747
2123	0.8731
2132	0.8725
2141	0.8742
2150	0.8743
2159	0.8712
2168	0.867
2177	0.8652
2186	0.8655
2195	0.8662
2204	0.8674
2213	0.8682
2222	0.869
2231	0.8689
2240	0.8687
2249	0.8683
2258	0.8675
2267	0.8665
2276	0.8647
2285	0.8629
2294	0.8611
2303	0.8588
2312	0.8563
2321	0.8538
2330	0.851
2339	0.848
2348	0.8456
2357	0.8443
2366	0.8443
2375	0.8443
2384	0.8444
2393	0.8418
2402	0.8387
2411	0.8389
2420	0.8404
2429	0.8409
2438	0.8395
2447	0.8356
2456	0.8315
2465	0.83
2474	0.83
2483	0.8319
2492	0.8328
2501	0.8304
2510	0.8275
2519	0.8245
2528	0.8216
2537	0.8189
2546	0.8167
2555	0.8138
2564	0.8105
2573	0.8071
2582	0.8035
2591	0.7993
2600	0.7952
2609	0.7893
2618	0.7832
2627	0.7756
2636	0.7746
2645	0.7796
2654	0.7853
2663	0.7905
2672	0.791
2681	0.7898
2690	0.7877
2699	0.785
2708	0.7818
2717	0.7782
2726	0.7744
2735	0.7701
2744	0.766
2753	0.7635
2762	0.7633
2771	0.7638
2780	0.7641
2789	0.7636
2798	0.7621
2807	0.7591
2816	0.7525
2825	0.7398
2834	0.7164
2843	0.7053
2852	0.7119
2861	0.715
2870	0.7213
2879	0.7219
2888	0.7106
2897	0.6978
2906	0.6954
2915	0.6845
2924	0.6746
2933	0.6679
2942	0.6528
2951	0.6612
2960	0.6658
2969	0.6546
2978	0.6349
2987	0.6688
2996	0.6697
3005	0.6277
3014	0.673
3023	0.7039
3032	0.7014
3041	0.6994
3050	0.6979
3059	0.6968
3068	0.6891
3077	0.6808
3086	0.6814
3095	0.6903
3104	0.6973
3113	0.7032
3122	0.7073
3131	0.7107
3140	0.7134
3149	0.7146
3158	0.7159
3167	0.7171
3176	0.7184
3185	0.7196
3194	0.7211
3203	0.7231
3212	0.7251
3221	0.7271
3230	0.7291
3239	0.7313
3248	0.7335
3257	0.7362
3266	0.7395
3275	0.7423
3284	0.7447
3293	0.7456
3302	0.7465
3311	0.7467
3320	0.7469
3329	0.7463
3338	0.7456
3347	0.7444
3356	0.743
3365	0.7414
3374	0.7397
3383	0.738
3392	0.7363
3401	0.7346
3410	0.7345
3419	0.7352
3428	0.7353
3437	0.7388
3446	0.7414
3455	0.7438
3464	0.7462
3473	0.7486
3482	0.7511
3491	0.7536
3500	0.7561
3509	0.7587
3518	0.7613
3527	0.7639
3536	0.7665
3545	0.769
3554	0.7707
3563	0.772
3572	0.7727
3581	0.7734
3590	0.7749
3599	0.7785
3608	0.7826
3617	0.7865
3626	0.7901
3635	0.7919
3644	0.7933
3653	0.7939
3662	0.7936
3671	0.793
3680	0.7925
3689	0.792
3698	0.7916
3707	0.7917
3716	0.7919
3725	0.7921
3734	0.7921
3743	0.792
3752	0.792
3761	0.7916
3770	0.7913
3779	0.7906
3788	0.7897
