Infrared Spectrum: ACRYLAMIDE, N-[2-(DIMETHYLAMINO)ETHYL]-2,3-DIPHENYL-, MONOHYDROCHLORIDE
Formula: C13 H10 O3
CAS: 131-56-6
State: SOLID (1 mg / 300 mg KBr DISC)
Class: COBLENTZ II
Instrument: PERKIN-ELMER 180 (GRATING)
Instrument parameters: GRATINGS: 2000, 1000, 500, 250 CM^-^1; FILTER CHANGE: 2970, 2000, 1485, 1000, 743, 500, 372, 250, 186 CM^-^1.
Sampling: TRANSMISSION
Resolution: 2
Origin: K. K. DEB-NCI FREDERICK CANCER RESEARCH CENTER
1/CM	TRANSMITTANCE
400	0.8489
409	0.842
418	0.8669
427	0.802
436	0.9589
445	0.961
454	0.9495
463	0.8545
472	0.9556
481	0.9557
490	0.9482
499	0.9318
508	0.8947
517	0.7833
526	0.9086
535	0.8603
544	0.9186
553	0.9143
562	0.9083
571	0.8923
580	0.8596
589	0.7227
598	0.8743
607	0.8402
616	0.7296
625	0.4047
634	0.7056
643	0.8693
652	0.8445
661	0.8226
670	0.792
679	0.7512
688	0.6406
697	0.3042
706	0.5392
715	0.746
724	0.6968
733	0.7126
742	0.6176
751	0.5738
760	0.6356
769	0.6064
778	0.5123
787	0.6115
796	0.7958
805	0.8361
814	0.8006
823	0.873
832	0.8673
841	0.8514
850	0.5501
859	0.6888
868	0.7308
877	0.8862
886	0.8897
895	0.8777
904	0.843
913	0.6759
922	0.8469
931	0.8624
940	0.7846
949	0.8199
958	0.8608
967	0.8315
976	0.741
985	0.762
994	0.8537
1003	0.8412
1012	0.8351
1021	0.8203
1030	0.7907
1039	0.793
1048	0.8058
1057	0.7872
1066	0.77
1075	0.7313
1084	0.7463
1093	0.7247
1102	0.6885
1111	0.5849
1120	0.3386
1129	0.6189
1138	0.7292
1147	0.636
1156	0.4829
1165	0.3348
1174	0.5059
1183	0.4239
1192	0.6944
1201	0.6129
1210	0.4552
1219	0.2975
1228	0.5453
1237	0.6535
1246	0.5849
1255	0.5123
1264	0.4458
1273	0.2274
1282	0.1097
1291	0.1586
1300	0.267
1309	0.4347
1318	0.1426
1327	0.1806
1336	0.3493
1345	0.5742
1354	0.5043
1363	0.4007
1372	0.6494
1381	0.6735
1390	0.6615
1399	0.7059
1408	0.7279
1417	0.7025
1426	0.6824
1435	0.6218
1444	0.4076
1453	0.4072
1462	0.4443
1471	0.4695
1480	0.4555
1489	0.2475
1498	0.3547
1507	0.3001
1516	0.4434
1525	0.618
1534	0.5741
1543	0.5043
1552	0.3846
1561	0.3298
1570	0.4782
1579	0.4744
1588	0.3607
1597	0.3273
1606	0.4475
1615	0.3977
1624	0.2255
1633	0.1901
1642	0.415
1651	0.6019
1660	0.7035
1669	0.7873
1678	0.8675
1687	0.896
1696	0.9034
1705	0.9132
1714	0.9205
1723	0.9339
1732	0.9353
1741	0.9346
1750	0.9335
1759	0.9326
1768	0.9421
1777	0.9492
1786	0.9432
1795	0.9404
1804	0.9474
1813	0.9505
1822	0.9429
1831	0.9274
1840	0.9263
1849	0.9265
1858	0.9247
1867	0.9228
1876	0.921
1885	0.9106
1894	0.8878
1903	0.9087
1912	0.9023
1921	0.9018
1930	0.9076
1939	0.9107
1948	0.9062
1957	0.8967
1966	0.8847
1975	0.8987
1984	0.9013
1993	0.9028
2002	0.8999
2011	0.8978
2020	0.8958
2029	0.8931
2038	0.8903
2047	0.8873
2056	0.8852
2065	0.8842
2074	0.8838
2083	0.8835
2092	0.8819
2101	0.8802
2110	0.8772
2119	0.874
2128	0.8709
2137	0.8679
2146	0.865
2155	0.862
2164	0.8599
2173	0.8577
2182	0.8557
2191	0.8535
2200	0.8514
2209	0.8495
2218	0.8482
2227	0.8465
2236	0.8449
2245	0.8425
2254	0.8401
2263	0.8377
2272	0.8351
2281	0.8325
2290	0.8298
2299	0.8267
2308	0.8229
2317	0.8183
2326	0.8129
2335	0.808
2344	0.8037
2353	0.7995
2362	0.7959
2371	0.7923
2380	0.7886
2389	0.7862
2398	0.7854
2407	0.786
2416	0.7829
2425	0.7775
2434	0.7709
2443	0.7651
2452	0.7665
2461	0.7692
2470	0.7679
2479	0.7622
2488	0.7557
2497	0.7485
2506	0.7403
2515	0.7325
2524	0.7235
2533	0.7128
2542	0.7108
2551	0.7107
2560	0.7113
2569	0.7076
2578	0.6925
2587	0.6794
2596	0.6784
2605	0.6864
2614	0.6953
2623	0.6939
2632	0.6906
2641	0.6855
2650	0.6795
2659	0.6759
2668	0.6749
2677	0.6669
2686	0.6574
2695	0.6508
2704	0.6462
2713	0.6447
2722	0.6487
2731	0.6601
2740	0.6666
2749	0.6615
2758	0.6574
2767	0.6559
2776	0.6569
2785	0.6546
2794	0.6485
2803	0.6412
2812	0.6326
2821	0.6252
2830	0.62
2839	0.6151
2848	0.6091
2857	0.6022
2866	0.5961
2875	0.5893
2884	0.5826
2893	0.5762
2902	0.5698
2911	0.5634
2920	0.5586
2929	0.5558
2938	0.5553
2947	0.5538
2956	0.5476
2965	0.5422
2974	0.541
2983	0.5391
2992	0.5306
3001	0.5158
3010	0.5012
3019	0.4953
3028	0.4923
3037	0.4878
3046	0.4718
3055	0.442
3064	0.4327
3073	0.44
3082	0.4313
3091	0.4214
3100	0.4102
3109	0.398
3118	0.3848
3127	0.37
3136	0.3533
3145	0.3392
3154	0.327
3163	0.3155
3172	0.302
3181	0.2974
3190	0.2979
3199	0.304
3208	0.3148
3217	0.3287
3226	0.3432
3235	0.36
3244	0.3768
3253	0.3933
3262	0.4096
3271	0.4228
3280	0.4374
3289	0.4532
3298	0.4704
3307	0.4885
3316	0.5103
3325	0.5349
3334	0.5533
3343	0.5742
3352	0.5962
3361	0.6127
3370	0.628
3379	0.6434
3388	0.6583
3397	0.6707
3406	0.6822
3415	0.6931
3424	0.7014
3433	0.7084
3442	0.7153
3451	0.7187
3460	0.722
3469	0.7236
3478	0.725
3487	0.7256
3496	0.7257
3505	0.7258
3514	0.7258
3523	0.7253
3532	0.7247
3541	0.724
3550	0.7234
3559	0.7224
3568	0.7215
3577	0.7204
3586	0.7194
3595	0.7184
3604	0.7174
3613	0.7164
3622	0.7154
3631	0.7143
3640	0.7133
3649	0.7122
3658	0.711
3667	0.7099
3676	0.7087
3685	0.7075
3694	0.7059
3703	0.7042
3712	0.7025
3721	0.7008
3730	0.6992
3739	0.6973
3748	0.6955
3757	0.6937
3766	0.6914
3775	0.6884
3784	0.6855
3793	0.6825
