Infrared Spectrum: 1,2-Benzenedioic acid, diisooctyl ester
Formula: C24 H38 O4
CAS: 131-20-4
State: SOLUTION (10% CCl4 FOR 2.7-7.5, 10% CS2 FOR 7.5-26 MICRON) VS SOLVENT
Class: COBLENTZ
Instrument: DOW KBr FOREPRISM-GRATING
Instrument parameters: BLAZED AT 3.5, 12.0, 20.0 MICRON AND CHANGED AT 5.0, 7.5, 14.9 MICRON
Sampling: TRANSMISSION
Path length: 0.011 CM, 0.011 CM
Resolution: 2
Origin: DOW CHEMICAL COMPANY
1/CM	TRANSMITTANCE
3794	0.8467
3785	0.8467
3776	0.8467
3767	0.8466
3758	0.8467
3749	0.8468
3740	0.8471
3731	0.8474
3722	0.8477
3713	0.8482
3704	0.8488
3695	0.8491
3686	0.8492
3677	0.8493
3668	0.8496
3659	0.8501
3650	0.8508
3641	0.8514
3632	0.8521
3623	0.8527
3614	0.8538
3605	0.855
3596	0.8563
3587	0.8578
3578	0.8596
3569	0.8613
3560	0.8625
3551	0.8638
3542	0.8651
3533	0.8665
3524	0.868
3515	0.8694
3506	0.8703
3497	0.871
3488	0.8716
3479	0.8714
3470	0.8709
3461	0.8695
3452	0.8646
3443	0.8607
3434	0.8565
3425	0.8531
3416	0.855
3407	0.86
3398	0.8647
3389	0.8688
3380	0.8725
3371	0.8758
3362	0.8781
3353	0.8803
3344	0.8825
3335	0.8846
3326	0.8861
3317	0.8874
3308	0.8888
3299	0.8893
3290	0.8895
3281	0.8896
3272	0.8898
3263	0.8898
3254	0.8892
3245	0.8883
3236	0.8859
3227	0.8837
3218	0.8812
3209	0.8787
3200	0.8767
3191	0.8746
3182	0.8721
3173	0.87
3164	0.8681
3155	0.8665
3146	0.8659
3137	0.8663
3128	0.8675
3119	0.8678
3110	0.8671
3101	0.865
3092	0.8611
3083	0.8485
3074	0.7976
3065	0.7811
3056	0.7872
3047	0.808
3038	0.8128
3029	0.809
3020	0.8011
3011	0.7761
3002	0.7033
2993	0.5247
2984	0.343
2975	0.1613
2966	0.0262
2957	0.0147
2948	0.0469
2939	0.1223
2930	0.1031
2921	0.1096
2912	0.142
2903	0.1604
2894	0.2109
2885	0.2709
2876	0.156
2867	0.2035
2858	0.3097
2849	0.4158
2840	0.5219
2831	0.6483
2822	0.6888
2813	0.7325
2804	0.7626
2795	0.7851
2786	0.8021
2777	0.8136
2768	0.8175
2759	0.82
2750	0.8214
2741	0.822
2732	0.8205
2723	0.8167
2714	0.8149
2705	0.8195
2696	0.828
2687	0.8318
2678	0.8348
2669	0.8365
2660	0.8381
2651	0.8396
2642	0.84
2633	0.8401
2624	0.8402
2615	0.8403
2606	0.8406
2597	0.8408
2588	0.8412
2579	0.8417
2570	0.8423
2561	0.8432
2552	0.8441
2543	0.8455
2534	0.847
2525	0.8484
2516	0.8499
2507	0.8518
2498	0.8541
2489	0.8558
2480	0.8571
2471	0.8584
2462	0.8591
2453	0.8593
2444	0.8591
2435	0.8567
2426	0.8541
2417	0.8517
2408	0.8511
2399	0.85
2390	0.8491
2381	0.8487
2372	0.8486
2363	0.8484
2354	0.8483
2345	0.8484
2336	0.8487
2327	0.8489
2318	0.8491
2309	0.8493
2300	0.8497
2291	0.8504
2282	0.851
2273	0.8514
2264	0.8518
2255	0.8521
2246	0.8525
2237	0.8533
2228	0.8542
2219	0.8556
2210	0.8575
2201	0.8591
2192	0.8602
2183	0.865
2174	0.8709
2165	0.8639
2156	0.8624
2147	0.8621
2138	0.8614
2129	0.8591
2120	0.856
2111	0.8541
2102	0.8537
2093	0.8554
2084	0.8578
2075	0.8595
2066	0.8604
2057	0.8613
2048	0.862
2039	0.8625
2030	0.8632
2021	0.8628
2012	0.8621
2003	0.8613
1994	0.8586
1985	0.8551
1976	0.8554
1967	0.8412
1958	0.8482
1949	0.8496
1940	0.8333
1931	0.8318
1922	0.8427
1913	0.8461
1904	0.8471
1895	0.848
1886	0.8486
1877	0.8463
1868	0.8417
1859	0.8406
1850	0.8409
1841	0.8318
1832	0.8231
1823	0.8217
1814	0.82
1805	0.8175
1796	0.8118
1787	0.7991
1778	0.7772
1769	0.7345
1760	0.6498
1751	0.5055
1742	0.1295
1733	0.0071
1724	0.0009
1715	0.0432
1706	0.4362
1697	0.5872
1688	0.6464
1679	0.7184
1670	0.7633
1661	0.7853
1652	0.8005
1643	0.8081
1634	0.8125
1625	0.8145
1616	0.815
1607	0.7407
1598	0.6861
1589	0.7668
1580	0.5891
1571	0.7805
1562	0.803
1553	0.8154
1544	0.8201
1535	0.8198
1526	0.8133
1517	0.8115
1508	0.7978
1499	0.7649
1490	0.6018
1481	0.6141
1472	0.2919
1463	0.3006
1454	0.3939
1445	0.6065
1436	0.6668
1427	0.7408
1418	0.7562
1409	0.746
1400	0.6407
1391	0.3343
1382	0.4066
1373	0.4602
1364	0.583
1355	0.621
1346	0.6329
1337	0.611
1328	0.5549
1319	0.4717
1310	0.348
1301	0.1702
1292	0.0431
1283	0.0058
1274	0.0034
1265	0.0091
1256	0.0511
1247	0.242
1238	0.3938
1229	0.579
1220	0.6365
1211	0.6843
1202	0.7162
1193	0.7353
1184	0.7424
1175	0.7339
1166	0.6194
1157	0.5619
1148	0.4389
1139	0.1502
1130	0.0914
1121	0.0584
1112	0.2391
1103	0.5329
1094	0.646
1085	0.4493
1076	0.1471
1067	0.2184
1058	0.5296
1049	0.6015
1040	0.405
1031	0.6347
1022	0.7089
1013	0.7404
1004	0.7439
995	0.7365
986	0.7037
977	0.6558
968	0.5631
959	0.5503
950	0.5801
941	0.66
932	0.7435
923	0.7647
914	0.7824
905	0.791
896	0.7945
887	0.7976
878	0.7788
869	0.779
860	0.7821
851	0.7912
842	0.7921
833	0.7808
824	0.7846
815	0.7856
806	0.7847
797	0.7181
788	0.6896
779	0.6822
770	0.6688
761	0.6382
752	0.471
743	0.2576
734	0.4786
725	0.6997
716	0.7375
707	0.5746
698	0.6475
689	0.7391
680	0.8157
671	0.8303
662	0.8315
653	0.7785
644	0.7645
635	0.808
626	0.8224
617	0.8237
608	0.8224
599	0.8128
590	0.8058
581	0.7931
572	0.7711
563	0.7618
554	0.763
545	0.7701
536	0.7725
527	0.7744
518	0.7753
509	0.7762
500	0.7774
491	0.7785
482	0.7794
473	0.7793
464	0.7792
455	0.7789
446	0.7783
437	0.7778
428	0.7771
419	0.7765
410	0.7761
401	0.7757
