Infrared Spectrum: METHYLDIPHENYLVINYLSILANE
Formula: C15 H16 Si
CAS: 13107-13-6
State: SOLUTION (10% IN CCl4 FOR 3800-1290, 5% IN CS2 FOR 1300-670, AND 10% IN CCl4 FOR 670-250 CM^-^1)
Class: COBLENTZ III
Instrument: PERKIN-ELMER 521 (GRATING)
Instrument parameters: FILTERS AT 3150, 2500, 2000, 1150, 700, 410. GRATING CHANGES: 2000, 630 CM^-^1
Sampling: TRANSMISSION
Path length: 0.011 CM, 0.011 CM, AND 0.020 CM
Resolution: 2
Origin: DOW CORNING CORP.
1/CM	TRANSMITTANCE
248.826	0.899
258.216	0.897
267.605	0.879
276.995	0.877
286.385	0.868
295.774	0.896
305.164	0.904
314.554	0.9
323.944	0.897
333.333	0.865
342.723	0.773
352.113	0.712
361.502	0.78
370.892	0.85
380.282	0.848
389.671	0.81
399.061	0.706
408.451	0.63
417.841	0.638
427.23	0.608
436.62	0.585
446.01	0.715
455.399	0.696
464.789	0.426
474.179	0.245
483.568	0.149
492.958	0.405
502.348	0.624
511.738	0.65
521.127	0.532
530.517	0.277
539.907	0.205
549.296	0.298
558.686	0.615
568.076	0.773
577.465	0.826
586.855	0.853
596.245	0.85
605.635	0.843
615.024	0.799
624.414	0.689
633.804	0.234
643.193	0.651
652.583	0.762
661.973	0.763
671.362	0.759
680.752	0.742
690.142	0.375
699.531	0.221
708.921	0.562
718.311	0.427
727.701	0.15
737.09	0.298
746.48	0.617
755.87	0.778
765.259	0.785
774.649	0.695
784.039	0.145
793.428	0.214
802.818	0.547
812.208	0.775
821.598	0.842
830.987	0.854
840.377	0.868
849.767	0.879
859.156	0.893
868.546	0.909
877.936	0.921
887.325	0.928
896.715	0.926
906.105	0.918
915.495	0.912
924.884	0.912
934.274	0.892
943.664	0.853
953.053	0.524
962.443	0.692
971.833	0.871
981.222	0.881
990.612	0.872
1000	0.656
1009.39	0.558
1018.78	0.864
1028.17	0.874
1037.56	0.917
1046.95	0.92
1056.34	0.916
1065.73	0.897
1075.12	0.904
1084.51	0.878
1093.9	0.833
1103.29	0.4619
1112.68	0.314
1122.07	0.645
1131.46	0.84
1140.85	0.871
1150.24	0.868
1159.63	0.867
1169.02	0.868
1178.41	0.854
1187.8	0.827
1197.19	0.872
1206.58	0.893
1215.96	0.896
1225.35	0.891
1234.74	0.865
1244.13	0.7189
1253.52	0.6281
1262.91	0.742
1272.3	0.803
1281.69	0.819
1291.08	0.815
1300.47	0.75
1309.86	0.769
1319.25	0.765
1328.64	0.754
1338.03	0.792
1347.42	0.831
1356.81	0.822
1366.2	0.806
1375.59	0.758
1384.98	0.773
1394.37	0.723
1403.76	0.35
1413.15	0.543
1422.54	0.607
1431.93	0.2331
1441.32	0.74
1450.71	0.799
1460.1	0.815
1469.49	0.82
1478.88	0.819
1488.27	0.6419
1497.66	0.837
1507.05	0.863
1516.44	0.871
1525.82	0.869
1535.21	0.864
1544.6	0.862
1553.99	0.857
1563.38	0.858
1572.77	0.832
1582.16	0.833
1591.55	0.659
1600.94	0.765
1610.33	0.848
1619.72	0.85
1629.11	0.856
1638.5	0.854
1647.89	0.837
1657.28	0.839
1666.67	0.855
1676.06	0.858
1685.45	0.86
1694.84	0.858
1704.23	0.861
1713.62	0.862
1723.01	0.867
1732.4	0.872
1741.79	0.868
1751.18	0.864
1760.57	0.854
1769.96	0.834
1779.35	0.85
1788.74	0.864
1798.13	0.862
1807.52	0.856
1816.91	0.819
1826.3	0.785
1835.68	0.834
1845.07	0.851
1854.46	0.865
1863.85	0.864
1873.24	0.858
1882.63	0.82
1892.02	0.79
1901.41	0.796
1910.8	0.812
1920.19	0.828
1929.58	0.841
1938.97	0.858
1948.36	0.853
1957.75	0.796
1967.14	0.818
1976.53	0.822
1985.92	0.857
1995.31	0.869
2004.7	0.8715
2014.09	0.8916
2023.48	0.8976
2032.87	0.898
2042.26	0.899
2051.65	0.8998
2061.04	0.9
2070.43	0.9
2079.82	0.9
2089.21	0.9
2098.6	0.8989
2107.99	0.898
2117.38	0.9
2126.77	0.899
2136.16	0.898
2145.54	0.899
2154.93	0.9009
2164.32	0.904
2173.71	0.9034
2183.1	0.902
2192.49	0.8993
2201.88	0.9
2211.27	0.906
2220.66	0.897
2230.05	0.897
2239.44	0.9
2248.83	0.9019
2258.22	0.902
2267.61	0.899
2277	0.8992
2286.39	0.902
2295.78	0.9033
2305.17	0.904
2314.56	0.9025
2323.95	0.9055
2333.34	0.912
2342.73	0.913
2352.12	0.9043
2361.51	0.9155
2370.9	0.9102
2380.29	0.9041
2389.68	0.9051
2399.07	0.903
2408.46	0.902
2417.85	0.9032
2427.24	0.9042
2436.63	0.905
2446.02	0.904
2455.4	0.903
2464.79	0.903
2474.18	0.903
2483.57	0.903
2492.96	0.903
2502.35	0.902
2511.74	0.902
2521.13	0.902
2530.52	0.902
2539.91	0.902
2549.3	0.902
2558.69	0.9
2568.08	0.9
2577.47	0.899
2586.86	0.8917
2596.25	0.8952
2605.64	0.898
2615.03	0.898
2624.42	0.898
2633.81	0.898
2643.2	0.898
2652.59	0.898
2661.98	0.898
2671.37	0.8973
2680.76	0.8952
2690.15	0.8912
2699.54	0.888
2708.93	0.8909
2718.32	0.897
2727.71	0.898
2737.1	0.898
2746.49	0.898
2755.88	0.898
2765.27	0.897
2774.65	0.8943
2784.04	0.889
2793.43	0.8751
2802.82	0.8705
2812.21	0.869
2821.6	0.869
2830.99	0.871
2840.38	0.8712
2849.77	0.867
2859.16	0.8689
2868.55	0.87
2877.94	0.855
2887.33	0.8387
2896.72	0.8127
2906.11	0.7988
2915.5	0.7984
2924.89	0.8143
2934.28	0.7983
2943.67	0.6627
2953.06	0.5735
2962.45	0.5214
2971.84	0.556
2981.23	0.6506
2990.62	0.7293
3000.01	0.5629
3009.4	0.511
3018.79	0.4916
3028.18	0.5048
3037.57	0.6238
3046.96	0.4198
3056.35	0.2826
3065.74	0.4225
3075.13	0.2851
3084.51	0.66
3093.9	0.6447
3103.29	0.775
3112.68	0.8405
3122.07	0.841
3131.46	0.8303
3140.85	0.792
3150.24	0.8497
3159.63	0.8537
3169.02	0.854
3178.41	0.8513
3187.8	0.8559
3197.19	0.8769
3206.58	0.882
3215.97	0.884
3225.36	0.886
3234.75	0.8892
3244.14	0.893
3253.53	0.893
3262.92	0.895
3272.31	0.896
3281.7	0.897
3291.09	0.898
3300.48	0.898
3309.87	0.898
3319.26	0.898
3328.65	0.898
3338.04	0.898
3347.43	0.898
3356.82	0.898
3366.21	0.898
3375.6	0.898
3384.99	0.897
3394.37	0.897
3403.76	0.896
3413.15	0.896
3422.54	0.896
3431.93	0.897
3441.32	0.898
3450.71	0.8986
3460.1	0.899
3469.49	0.899
3478.88	0.899
3488.27	0.899
3497.66	0.9
3507.05	0.9
3516.44	0.9
3525.83	0.9
3535.22	0.9
3544.61	0.9
3554	0.902
3563.39	0.903
3572.78	0.903
3582.17	0.902
3591.56	0.9011
3600.95	0.899
3610.34	0.8964
3619.73	0.8966
3629.12	0.8963
3638.51	0.892
3647.9	0.8928
3657.29	0.895
3666.68	0.895
3676.07	0.891
3685.46	0.8779
3694.85	0.8722
3704.23	0.8831
3713.62	0.8844
3723.01	0.8915
3732.4	0.898
3741.79	0.898
3751.18	0.8961
3760.57	0.891
3769.96	0.892
3779.35	0.893
3788.74	0.895
