Infrared Spectrum: 4-Iodophenylhydrazine
Formula: C 6 H 7 I N 2
CAS: 13116-27-3
State: gas
Origin: EPA-IR VAPOR PHASE LIBRARY
1/CM	ABSORBANCE
549.9	0.005927
559.547	0.006337
569.193	0.006237
578.84	0.005977
588.486	0.005907
598.133	0.004607
607.779	0.003837
617.426	0.003127
627.072	0.002887
636.719	0.002637
646.365	0.002627
656.012	0.003007
665.658	0.003117
675.305	0.003747
684.951	0.003997
694.598	0.003927
704.245	0.003637
713.891	0.003667
723.538	0.003837
733.184	0.003697
742.831	0.003617
752.477	0.003357
762.124	0.003477
771.77	0.003707
781.417	0.004667
791.063	0.006647
800.71	0.008787
810.356	0.010877
820.003	0.009707
829.649	0.006767
839.296	0.004587
848.943	0.004297
858.589	0.005407
868.236	0.007987
877.882	0.009397
887.529	0.007377
897.175	0.005377
906.822	0.004307
916.468	0.003677
926.115	0.003567
935.761	0.003147
945.408	0.002767
955.054	0.002727
964.701	0.002947
974.347	0.002087
983.994	0.002327
993.64	0.005507
1003.29	0.007087
1012.93	0.003867
1022.58	0.002227
1032.23	0.001707
1041.87	0.001697
1051.52	0.003267
1061.17	0.005557
1070.81	0.003537
1080.46	0.002257
1090.11	0.002177
1099.75	0.002157
1109.4	0.002437
1119.05	0.002517
1128.69	0.001887
1138.34	0.001857
1147.99	0.0012386
1157.63	0.0012009
1167.28	0.001757
1176.92	0.004727
1186.57	0.003347
1196.22	0.0007937
1205.86	0.00045
1215.51	0.000393
1225.16	0.0011803
1234.8	0.002657
1244.45	0.005957
1254.1	0.007477
1263.74	0.005527
1273.39	0.007427
1283.04	0.008937
1292.68	0.007547
1302.33	0.007097
1311.98	0.005567
1321.62	0.003657
1331.27	0.002697
1340.92	0.002117
1350.56	0.001697
1360.21	0.0015725
1369.86	0.001587
1379.5	0.001757
1389.15	0.001937
1398.79	0.0015549
1408.44	0.001657
1418.09	0.001957
1427.73	0.002147
1437.38	0.002377
1447.03	0.002987
1456.67	0.004137
1466.32	0.006577
1475.97	0.016097
1485.61	0.030557
1495.26	0.014357
1504.91	0.005177
1514.55	0.004027
1524.2	0.002227
1533.85	0.001907
1543.49	0.002057
1553.14	0.002127
1562.79	0.002687
1572.43	0.004137
1582.08	0.007797
1591.73	0.010637
1601.37	0.006597
1611.02	0.004147
1620.67	0.003857
1630.31	0.003647
1639.96	0.003167
1649.6	0.002497
1659.25	0.001837
1668.9	0.0014086
1678.54	0.0012521
1688.19	0.0010193
1697.84	0.0009331
1707.48	0.0009261
1717.13	0.0009331
1726.78	0.0010011
1736.42	0.0011175
1746.07	0.0010672
1755.72	0.000977
1765.36	0.0008457
1775.01	0.0007799
1784.66	0.0009115
1794.3	0.0009134
1803.95	0.0008756
1813.6	0.0008804
1823.24	0.0008619
1832.89	0.0009204
1842.54	0.0010106
1852.18	0.0012194
1861.83	0.0014004
1871.47	0.0013596
1881.12	0.0011367
1890.77	0.0008572
1900.41	0.0007788
1910.06	0.0008587
1919.71	0.0007872
1929.35	0.0007391
1939	0.0006852
1948.65	0.0007851
1958.29	0.0007036
1967.94	0.0006804
1977.59	0.00064002
1987.23	0.00067491
1996.88	0.0005363
2006.53	0.0005402
2016.17	0.00059904
2025.82	0.0006412
2035.47	0.00063705
2045.11	0.0007126
2054.76	0.0006873
2064.41	0.0007552
2074.05	0.0007131
2083.7	0.00064115
2093.35	0.00067377
2102.99	0.00064661
2112.64	0.0007247
2122.28	0.0007362
2131.93	0.0007276
2141.58	0.0007604
2151.22	0.0007683
2160.87	0.0007026
2170.52	0.0007412
2180.16	0.0007149
2189.81	0.00066909
2199.46	0.0007069
2209.1	0.0007141
2218.75	0.0007579
2228.4	0.0007272
2238.04	0.0007235
2247.69	0.0007372
2257.34	0.0007192
2266.98	0.0007837
2276.63	0.0007752
2286.28	0.0008038
2295.92	0.0008474
2305.57	0.0008738
2315.22	0.0008438
2324.86	0.0008226
2334.51	0.0007853
2344.16	0.000826
2353.8	0.0008904
2363.45	0.0008334
2373.09	0.0009123
2382.74	0.000743
2392.39	0.00067097
2402.03	0.000709
2411.68	0.0006946
2421.33	0.0007209
2430.97	0.0007307
2440.62	0.0007324
2450.27	0.0008015
2459.91	0.000771
2469.56	0.0008098
2479.21	0.0007367
2488.85	0.0008238
2498.5	0.0007917
2508.15	0.0007469
2517.79	0.0009149
2527.44	0.0009155
2537.09	0.0009653
2546.73	0.0010026
2556.38	0.0010473
2566.03	0.0009663
2575.67	0.0009217
2585.32	0.0008572
2594.96	0.0008268
2604.61	0.0008768
2614.26	0.0007568
2623.9	0.0008147
2633.55	0.0008135
2643.2	0.0007724
2652.84	0.0008111
2662.49	0.0008502
2672.14	0.0007088
2681.78	0.0007998
2691.43	0.0007989
2701.08	0.000865
2710.72	0.0008558
2720.37	0.0007868
2730.02	0.0008078
2739.66	0.0008997
2749.31	0.0008115
2758.96	0.000869
2768.6	0.0007587
2778.25	0.0007779
2787.9	0.0009492
2797.54	0.0009708
2807.19	0.0009845
2816.84	0.0009123
2826.48	0.0010659
2836.13	0.0010087
2845.77	0.0008953
2855.42	0.0009161
2865.07	0.0008982
2874.71	0.0009979
2884.36	0.0008976
2894.01	0.0008489
2903.65	0.0009718
2913.3	0.0008438
2922.95	0.000891
2932.59	0.0007779
2942.24	0.0007662
2951.89	0.0009046
2961.53	0.0008845
2971.18	0.0008453
2980.83	0.0007944
2990.47	0.001046
3000.12	0.0011324
3009.77	0.001787
3019.41	0.002587
3029.06	0.002677
3038.71	0.002317
3048.35	0.002127
3058	0.002447
3067.64	0.003177
3077.29	0.002937
3086.94	0.002507
3096.58	0.002047
3106.23	0.0012705
3115.88	0.00084
3125.52	0.0007244
3135.17	0.0007321
3144.82	0.0008713
3154.46	0.0007969
3164.11	0.00066576
3173.76	0.000466
3183.4	0.000469
3193.05	0.000359
3202.7	0.0005349
3212.34	0.000452
3221.99	0.00041
3231.64	0.000421
3241.28	0.000349
3250.93	0.0004917
3260.58	0.00063367
3270.22	0.0006195
3279.87	0.0005459
3289.52	0.0007732
3299.16	0.0007688
3308.81	0.0007994
3318.45	0.0009091
3328.1	0.000442
3337.75	0.000469
3347.39	0.0005384
3357.04	0.0005362
3366.69	0.001053
3376.33	0.0010651
3385.98	0.0008714
3395.63	0.0008069
3405.27	0.0011748
3414.92	0.001877
3424.57	0.002667
3434.21	0.002237
3443.86	0.0010817
3453.51	0.0005358
3463.15	0.000359
3472.8	0.000615
3482.45	0.000237
3492.09	0.000389
3501.74	0.000295
3511.39	0.000456
3521.03	0.0005507
3530.68	0.000213
3540.33	0.000238
3549.97	0.000343
3559.62	0.000256
3569.26	0.000408
3578.91	0.000403
3588.56	0.000328
3598.2	0.000196
3607.85	0.000224
3617.5	0.0004845
3627.14	0.000315
3636.79	0.000451
3646.44	0.000409
3656.08	0.000251
3665.73	0.000348
3675.38	0.00059446
3685.02	0.0004851
3694.67	0.000378
3704.32	0.000386
3713.96	0.000474
3723.61	0.0005605
3733.26	0.000445
3742.9	0.0005248
3752.55	0.0005553
3762.2	0.000401
3771.84	0.000432
3781.49	0.000519
3791.13	0.000469
3800.78	0.000307
3810.43	0.000249
3820.07	0.0005605
3829.72	0.000393
3839.37	0.0004857
3849.01	0.00057219
3858.66	0.000412
3868.31	0.00059288
3877.95	0.0006878
3887.6	0.000678
3897.25	0.0005002
3906.89	0.00045
3916.54	0.0004801
3926.19	0.000585031
3935.83	0.00057027
3945.48	0.0007077
3955.13	0.00065967
3964.77	0.0005405
3974.42	0.0008002
3984.07	0.00064632
3993.71	0.0006932
