Infrared Spectrum: CIS-1,2,3-TRICHLOROPROPENE
Formula: C3 H3 Cl3
CAS: 13116-57-9
Class: COBLENTZ
Instrument: Not specified, most likely a prism, grating, or hybrid spectrometer.
Sampling: TRANSMISSION
Path length: 0.0025 CM
Resolution: 4
Origin: W.T. BOLLETER
MICROMETERS	TRANSMITTANCE
14.543	0.012
14.613	0.017
14.683	0.035
14.7531	0.049
14.8231	0.06
14.8931	0.049
14.9631	0.035
15.0331	0.021
15.1032	0.015
15.1732	0.023
15.2432	0.033
15.3132	0.039
15.3833	0.037
15.4533	0.031
15.5233	0.017
15.5933	0.01
15.6633	0.008
15.7334	0.008
15.8034	0.008
15.8734	0.008
15.9434	0.01
16.0134	0.026
16.0835	0.049
16.1535	0.103
16.2235	0.184
16.2935	0.264
16.3635	0.339
16.4336	0.394
16.5036	0.424
16.5736	0.444
16.6436	0.447
16.7136	0.438
16.7837	0.429
16.8537	0.429
16.9237	0.445
16.9937	0.458
17.0638	0.47
17.1338	0.472
17.2038	0.461
17.2738	0.426
17.3438	0.38
17.4139	0.319
17.4839	0.236
17.5539	0.147
17.6239	0.081
17.6939	0.037
17.764	0.023
17.834	0.014
17.904	0.012
17.974	0.014
18.044	0.019
18.1141	0.026
18.1841	0.049
18.2541	0.108
18.3241	0.195
18.3941	0.293
18.4642	0.371
18.5342	0.435
18.6042	0.481
18.6742	0.529
18.7443	0.557
18.8143	0.584
18.8843	0.611
18.9543	0.635
19.0243	0.66
19.0944	0.68
19.1644	0.698
19.2344	0.706
19.3044	0.715
19.3744	0.721
19.4445	0.724
19.5145	0.726
19.5845	0.717
19.6545	0.701
19.7245	0.685
19.7946	0.664
19.8646	0.648
19.9346	0.623
20.0046	0.571
20.0747	0.509
20.1447	0.445
20.2147	0.349
20.2847	0.245
20.3547	0.161
20.4248	0.154
20.4948	0.186
20.5648	0.28
20.6348	0.369
20.7048	0.458
20.7749	0.538
20.8449	0.577
20.9149	0.6
20.9849	0.619
21.0549	0.63
21.125	0.635
21.195	0.632
21.265	0.616
21.335	0.598
21.405	0.564
21.4751	0.527
21.5451	0.493
21.6151	0.431
21.6851	0.355
21.7552	0.252
21.8252	0.166
21.8952	0.101
21.9652	0.062
22.0352	0.037
22.1053	0.037
22.1753	0.053
22.2453	0.095
22.3153	0.11
22.3853	0.127
22.4554	0.15
22.5254	0.181
22.5954	0.223
22.6654	0.296
22.7354	0.373
22.8055	0.449
22.8755	0.523
22.9455	0.58
23.0155	0.621
23.0855	0.651
23.1556	0.68
23.2256	0.701
23.2956	0.712
23.3656	0.721
23.4357	0.728
23.5057	0.731
23.5757	0.737
23.6457	0.738
23.7157	0.747
23.7858	0.756
23.8558	0.769
23.9258	0.777
23.9958	0.788
24.0658	0.801
24.1359	0.806
24.2059	0.813
24.2759	0.818
24.3459	0.824
24.4159	0.829
24.486	0.834
24.556	0.838
24.626	0.838
24.696	0.84
24.7661	0.841
24.8361	0.861
24.9061	0.884
24.9761	0.886
25.0461	0.882
25.1162	0.88
25.1862	0.879
25.2562	0.868
25.3262	0.866
25.3962	0.861
25.4663	0.856
25.5363	0.852
25.6063	0.847
25.6763	0.849
25.7463	0.85
25.8164	0.856
25.8864	0.857
25.9564	0.859
26.0264	0.863
26.0964	0.863
26.1665	0.865
26.2365	0.866
26.3065	0.866
26.3765	0.865
26.4466	0.87
26.5166	0.872
26.5866	0.875
26.6566	0.877
26.7266	0.877
26.7967	0.882
26.8667	0.88
26.9367	0.88
27.0067	0.875
27.0767	0.879
27.1468	0.88
27.2168	0.88
27.2868	0.87
27.3568	0.868
27.4268	0.863
27.4969	0.866
27.5669	0.868
27.6369	0.87
27.7069	0.87
27.7769	0.873
27.847	0.873
27.917	0.872
27.987	0.87
28.057	0.872
28.1271	0.868
28.1971	0.868
28.2671	0.87
28.3371	0.866
28.4071	0.865
28.4772	0.865
28.5472	0.866
28.6172	0.863
28.6872	0.865
28.7572	0.866
28.8273	0.87
28.8973	0.868
28.9673	0.868
29.0373	0.868
29.1073	0.865
29.1774	0.865
29.2474	0.863
29.3174	0.854
29.3874	0.852
29.4575	0.852
29.5275	0.852
29.5975	0.85
29.6675	0.849
29.7375	0.84
29.8076	0.831
29.8776	0.818
29.9476	0.808
30.0176	0.795
30.0876	0.785
30.1577	0.77
30.2277	0.754
30.2977	0.74
30.3677	0.719
30.4377	0.696
30.5078	0.655
30.5778	0.611
30.6478	0.561
30.7178	0.515
30.7878	0.486
30.8579	0.438
30.9279	0.394
30.9979	0.339
31.0679	0.285
31.138	0.248
31.208	0.213
31.278	0.175
31.348	0.147
31.418	0.134
31.4881	0.136
31.5581	0.14
31.6281	0.154
31.6981	0.186
31.7681	0.22
31.8382	0.261
31.9082	0.31
31.9782	0.358
32.0482	0.406
32.1182	0.458
32.1883	0.49
32.2583	0.522
32.3283	0.55
32.3983	0.577
32.4683	0.595
32.5384	0.625
32.6084	0.648
32.6784	0.664
32.7484	0.676
32.8185	0.692
32.8885	0.701
32.9585	0.717
33.0285	0.719
33.0985	0.715
33.1686	0.714
33.2386	0.717
33.3086	0.719
33.3786	0.722
33.4486	0.726
33.5187	0.737
33.5887	0.737
33.6587	0.746
33.7287	0.742
33.7987	0.738
33.8688	0.746
33.9388	0.747
34.0088	0.742
34.0788	0.737
34.1489	0.737
34.2189	0.73
34.2889	0.722
34.3589	0.71
34.4289	0.701
34.499	0.689
34.569	0.671
34.639	0.646
34.709	0.63
34.779	0.609
34.8491	0.596
34.9191	0.57
34.9891	0.55
35.0591	0.527
35.1291	0.511
35.1992	0.5
35.2692	0.472
35.3392	0.458
35.4092	0.447
35.4792	0.438
35.5493	0.42
35.6193	0.412
35.6893	0.41
35.7593	0.404
35.8294	0.406
35.8994	0.41
35.9694	0.412
36.0394	0.413
36.1094	0.419
36.1795	0.428
36.2495	0.435
36.3195	0.442
36.3895	0.449
36.4595	0.454
36.5296	0.458
36.5996	0.468
36.6696	0.47
36.7396	0.472
36.8096	0.477
36.8797	0.484
36.9497	0.488
37.0197	0.49
37.0897	0.49
37.1597	0.493
37.2298	0.497
37.2998	0.497
37.3698	0.497
37.4398	0.497
37.5099	0.497
37.5799	0.497
37.6499	0.497
37.7199	0.495
37.7899	0.492
37.86	0.49
37.93	0.486
38	0.484
