Infrared Spectrum: Aniline, 2-tert-butyl-6-methyl-
Formula: C11 H17 N
CAS: 13117-94-7
State: LIQUID (NEAT)
Class: COBLENTZ III
Instrument: BECKMAN IR-4 (HYBRID PRISM-GRATING)
Instrument parameters: NaCl PRISM
Sampling: TRANSMISSION
Path length: CAPILLARY
Resolution: 2
Origin: MONSANTO (J. FREEMAN)
1/CM	TRANSMITTANCE
626	0.6302
635	0.5928
644	0.5733
653	0.5535
662	0.5465
671	0.5611
680	0.596
689	0.6217
698	0.6439
707	0.6609
716	0.6692
725	0.6399
734	0.4498
743	0.1285
752	0.308
761	0.5043
770	0.4124
779	0.4124
788	0.6887
797	0.7564
806	0.7705
815	0.7788
824	0.7816
833	0.747
842	0.7677
851	0.8401
860	0.8471
869	0.8467
878	0.7954
887	0.8321
896	0.8294
905	0.8451
914	0.8543
923	0.8426
932	0.7971
941	0.8392
950	0.798
959	0.8134
968	0.8581
977	0.8621
986	0.8464
995	0.7613
1004	0.7161
1013	0.8059
1022	0.7249
1031	0.7488
1040	0.8383
1049	0.8573
1058	0.8439
1067	0.7922
1076	0.6164
1085	0.4633
1094	0.4879
1103	0.5475
1112	0.6675
1121	0.834
1130	0.8863
1139	0.9048
1148	0.9037
1157	0.8802
1166	0.8942
1175	0.8977
1184	0.8727
1193	0.7258
1202	0.5884
1211	0.8186
1220	0.8406
1229	0.8294
1238	0.7422
1247	0.5386
1256	0.4113
1265	0.425
1274	0.3816
1283	0.3986
1292	0.734
1301	0.8152
1310	0.7604
1319	0.8168
1328	0.862
1337	0.8962
1346	0.8978
1355	0.8846
1364	0.7961
1373	0.4999
1382	0.5109
1391	0.7045
1400	0.6231
1409	0.597
1418	0.6469
1427	0.511
1436	0.1562
1445	0.2498
1454	0.3118
1463	0.2671
1472	0.2381
1481	0.2932
1490	0.2005
1499	0.4494
1508	0.6236
1517	0.7558
1526	0.7969
1535	0.8356
1544	0.8412
1553	0.8401
1562	0.8333
1571	0.8195
1580	0.7939
1589	0.7464
1598	0.6166
1607	0.4616
1616	0.3025
1625	0.1516
1634	0.1911
1643	0.3182
1652	0.4438
1661	0.5811
1670	0.6968
1679	0.7628
1688	0.8113
1697	0.8512
1706	0.8849
1715	0.9118
1724	0.9307
1733	0.9412
1742	0.9467
1751	0.9494
1760	0.9485
1769	0.9445
1778	0.937
1787	0.9263
1796	0.9137
1805	0.9124
1814	0.9172
1823	0.923
1832	0.9213
1841	0.9065
1850	0.8943
1859	0.9025
1868	0.9166
1877	0.9262
1886	0.9217
1895	0.9039
1904	0.8961
1913	0.9025
1922	0.9181
1931	0.9315
1940	0.9405
1949	0.9451
1958	0.9482
1967	0.9497
1976	0.9509
1985	0.9522
1994	0.9528
2003	0.9532
2012	0.9535
2021	0.9537
2030	0.9539
2039	0.954
2048	0.9541
2057	0.9542
2066	0.9543
2075	0.9544
2084	0.9544
2093	0.9545
2102	0.9544
2111	0.9542
2120	0.954
2129	0.9538
2138	0.9536
2147	0.9536
2156	0.9537
2165	0.9538
2174	0.9539
2183	0.954
2192	0.9541
2201	0.9542
2210	0.9543
2219	0.9544
2228	0.9545
2237	0.9546
2246	0.9546
2255	0.9544
2264	0.9541
2273	0.9537
2282	0.9534
2291	0.9531
2300	0.9527
2309	0.9525
2318	0.9524
2327	0.9522
2336	0.952
2345	0.9517
2354	0.9514
2363	0.9511
2372	0.9508
2381	0.9505
2390	0.9503
2399	0.9501
2408	0.9499
2417	0.9497
2426	0.9495
2435	0.9492
2444	0.9493
2453	0.9495
2462	0.9497
2471	0.9499
2480	0.95
2489	0.9499
2498	0.9498
2507	0.9498
2516	0.9497
2525	0.9495
2534	0.9485
2543	0.9461
2552	0.9424
2561	0.9376
2570	0.933
2579	0.9329
2588	0.9345
2597	0.9356
2606	0.9359
2615	0.9345
2624	0.9343
2633	0.9366
2642	0.9397
2651	0.9407
2660	0.9406
2669	0.9405
2678	0.9402
2687	0.9385
2696	0.9359
2705	0.9332
2714	0.9275
2723	0.9185
2732	0.9083
2741	0.8995
2750	0.8964
2759	0.8961
2768	0.9002
2777	0.9057
2786	0.9069
2795	0.9062
2804	0.9032
2813	0.8961
2822	0.8835
2831	0.8634
2840	0.8342
2849	0.7582
2858	0.6725
2867	0.5875
2876	0.503
2885	0.4206
2894	0.391
2903	0.375
2912	0.3588
2921	0.3404
2930	0.318
2939	0.2993
2948	0.2799
2957	0.2387
2966	0.1912
2975	0.1797
2984	0.1922
2993	0.2715
3002	0.3505
3011	0.4289
3020	0.5069
3029	0.6075
3038	0.6247
3047	0.6373
3056	0.6485
3065	0.6568
3074	0.6621
3083	0.668
3092	0.6755
3101	0.7685
3110	0.7887
3119	0.8229
3128	0.8642
3137	0.8804
3146	0.8838
3155	0.8858
3164	0.8871
3173	0.8878
3182	0.8882
3191	0.8886
3200	0.8889
3209	0.8896
3218	0.8904
3227	0.8912
3236	0.8923
3245	0.8945
3254	0.8969
3263	0.8994
3272	0.8999
3281	0.8996
3290	0.8981
3299	0.8951
3308	0.8916
3317	0.8878
3326	0.8829
3335	0.8763
3344	0.8666
3353	0.8396
3362	0.7968
3371	0.7542
3380	0.7119
3389	0.6698
3398	0.6279
3407	0.5862
3416	0.5396
3425	0.539
3434	0.5791
3443	0.6417
3452	0.704
3461	0.7371
3470	0.7333
3479	0.7096
3488	0.6824
3497	0.6554
3506	0.6284
3515	0.6015
3524	0.5777
3533	0.5743
3542	0.6544
3551	0.7738
3560	0.7934
3569	0.8192
3578	0.838
3587	0.8523
3596	0.8727
3605	0.8828
3614	0.8889
3623	0.8933
3632	0.8953
3641	0.8971
3650	0.8989
3659	0.9001
3668	0.9013
3677	0.9024
3686	0.9035
3695	0.9044
3704	0.905
3713	0.9054
3722	0.9058
3731	0.9062
3740	0.9062
3749	0.9062
3758	0.9061
3767	0.906
3776	0.9059
3785	0.9055
3794	0.9051
3803	0.9048
3812	0.9044
3821	0.904
3830	0.9037
3839	0.9031
3848	0.9024
3857	0.9018
3866	0.9011
3875	0.9005
3884	0.8999
3893	0.8992
3902	0.8986
3911	0.8977
3920	0.8967
3929	0.8958
3938	0.8949
3947	0.8939
3956	0.8931
3965	0.8926
3974	0.892
3983	0.8915
3992	0.891
