Infrared Spectrum: TRANS-1,2,3-TRICHLOROPROPENE
Formula: C3 H3 Cl3
CAS: 13116-58-0
Class: COBLENTZ
Instrument: Not specified, most likely a prism, grating, or hybrid spectrometer.
Sampling: TRANSMISSION
Path length: 0.0025 CM
Resolution: 4
Origin: W.T. BOLLETER
MICROMETERS	TRANSMITTANCE
14.525	0.016
14.595	0.028
14.6649	0.051
14.7349	0.087
14.8049	0.121
14.8749	0.153
14.9448	0.201
15.0148	0.273
15.0848	0.332
15.1547	0.398
15.2247	0.45
15.2947	0.485
15.3646	0.519
15.4346	0.548
15.5046	0.567
15.5746	0.587
15.6445	0.6
15.7145	0.601
15.7845	0.596
15.8544	0.583
15.9244	0.592
15.9944	0.632
16.0643	0.685
16.1343	0.721
16.2043	0.739
16.2743	0.746
16.3442	0.746
16.4142	0.737
16.4842	0.728
16.5541	0.714
16.6241	0.701
16.6941	0.698
16.764	0.7
16.834	0.707
16.904	0.708
16.974	0.71
17.0439	0.717
17.1139	0.725
17.1839	0.737
17.2538	0.746
17.3238	0.757
17.3938	0.762
17.4638	0.769
17.5337	0.776
17.6037	0.782
17.6737	0.785
17.7436	0.791
17.8136	0.791
17.8836	0.791
17.9535	0.789
18.0235	0.782
18.0935	0.776
18.1635	0.771
18.2334	0.767
18.3034	0.76
18.3734	0.751
18.4433	0.744
18.5133	0.733
18.5833	0.721
18.6532	0.707
18.7232	0.687
18.7932	0.664
18.8632	0.637
18.9331	0.601
19.0031	0.564
19.0731	0.508
19.143	0.448
19.213	0.36
19.283	0.275
19.3529	0.176
19.4229	0.108
19.4929	0.064
19.5629	0.026
19.6328	0.023
19.7028	0.025
19.7728	0.026
19.8427	0.041
19.9127	0.087
19.9827	0.133
20.0526	0.203
20.1226	0.278
20.1926	0.355
20.2626	0.412
20.3325	0.464
20.4025	0.503
20.4725	0.53
20.5424	0.544
20.6124	0.55
20.6824	0.555
20.7524	0.558
20.8223	0.573
20.8923	0.596
20.9623	0.616
21.0322	0.644
21.1022	0.667
21.1722	0.691
21.2421	0.707
21.3121	0.721
21.3821	0.726
21.4521	0.735
21.522	0.741
21.592	0.742
21.662	0.742
21.7319	0.746
21.8019	0.742
21.8719	0.741
21.9418	0.737
22.0118	0.741
22.0818	0.742
22.1518	0.748
22.2217	0.751
22.2917	0.758
22.3617	0.764
22.4316	0.767
22.5016	0.771
22.5716	0.771
22.6415	0.773
22.7115	0.776
22.7815	0.778
22.8515	0.776
22.9214	0.78
22.9914	0.78
23.0614	0.782
23.1313	0.782
23.2013	0.783
23.2713	0.782
23.3412	0.785
23.4112	0.783
23.4812	0.782
23.5512	0.785
23.6211	0.785
23.6911	0.787
23.7611	0.785
23.831	0.785
23.901	0.783
23.971	0.783
24.041	0.78
24.1109	0.776
24.1809	0.771
24.2509	0.762
24.3208	0.75
24.3908	0.739
24.4608	0.717
24.5307	0.698
24.6007	0.66
24.6707	0.621
24.7407	0.587
24.8106	0.548
24.8806	0.537
24.9506	0.5
25.0205	0.441
25.0905	0.376
25.1605	0.307
25.2304	0.251
25.3004	0.201
25.3704	0.153
25.4404	0.137
25.5103	0.128
25.5803	0.128
25.6503	0.15
25.7202	0.18
25.7902	0.241
25.8602	0.319
25.9301	0.378
26.0001	0.45
26.0701	0.512
26.1401	0.557
26.21	0.608
26.28	0.65
26.35	0.689
26.4199	0.71
26.4899	0.75
26.5599	0.767
26.6299	0.782
26.6998	0.794
26.7698	0.807
26.8398	0.825
26.9097	0.832
26.9797	0.846
27.0497	0.855
27.1196	0.86
27.1896	0.866
27.2596	0.869
27.3296	0.873
27.3995	0.875
27.4695	0.882
27.5395	0.883
27.6094	0.885
27.6794	0.887
27.7494	0.887
27.8193	0.887
27.8893	0.889
27.9593	0.887
28.0293	0.889
28.0992	0.889
28.1692	0.891
28.2392	0.891
28.3091	0.891
28.3791	0.891
28.4491	0.889
28.519	0.889
28.589	0.889
28.659	0.887
28.729	0.883
28.7989	0.882
28.8689	0.88
28.9389	0.876
29.0088	0.873
29.0788	0.869
29.1488	0.864
29.2188	0.858
29.2887	0.851
29.3587	0.846
29.4287	0.833
29.4986	0.826
29.5686	0.816
29.6386	0.801
29.7085	0.789
29.7785	0.769
29.8485	0.751
29.9185	0.728
29.9884	0.701
30.0584	0.658
30.1284	0.614
30.1983	0.578
30.2683	0.51
30.3383	0.451
30.4082	0.382
30.4782	0.307
30.5482	0.228
30.6182	0.167
30.6881	0.125
30.7581	0.089
30.8281	0.082
30.898	0.073
30.968	0.071
31.038	0.075
31.1079	0.08
31.1779	0.091
31.2479	0.121
31.3179	0.191
31.3878	0.239
31.4578	0.3
31.5278	0.376
31.5977	0.41
31.6677	0.46
31.7377	0.501
31.8076	0.526
31.8776	0.551
31.9476	0.573
32.0176	0.592
32.0875	0.61
32.1575	0.625
32.2275	0.637
32.2974	0.641
32.3674	0.644
32.4374	0.651
32.5074	0.655
32.5773	0.658
32.6473	0.666
32.7173	0.671
32.7872	0.671
32.8572	0.673
32.9272	0.675
32.9971	0.673
33.0671	0.673
33.1371	0.671
33.2071	0.671
33.277	0.669
33.347	0.667
33.417	0.664
33.4869	0.662
33.5569	0.662
33.6269	0.66
33.6968	0.658
33.7668	0.658
33.8368	0.657
33.9068	0.655
33.9767	0.653
34.0467	0.65
34.1167	0.642
34.1866	0.637
34.2566	0.632
34.3266	0.626
34.3965	0.623
34.4665	0.619
34.5365	0.617
34.6065	0.614
34.6764	0.61
34.7464	0.608
34.8164	0.605
34.8863	0.601
34.9563	0.594
35.0263	0.592
35.0962	0.591
35.1662	0.587
35.2362	0.583
35.3062	0.585
35.3761	0.583
35.4461	0.58
35.5161	0.58
35.586	0.575
35.656	0.573
35.726	0.567
35.796	0.566
35.8659	0.566
35.9359	0.564
36.0059	0.56
36.0758	0.557
36.1458	0.555
36.2158	0.555
36.2857	0.553
36.3557	0.553
36.4257	0.553
36.4957	0.553
36.5656	0.551
36.6356	0.55
36.7056	0.55
36.7755	0.548
36.8455	0.55
36.9155	0.553
36.9854	0.555
37.0554	0.551
37.1254	0.548
37.1954	0.55
37.2653	0.548
37.3353	0.551
37.4053	0.551
37.4752	0.553
37.5452	0.558
37.6152	0.562
37.6851	0.564
37.7551	0.571
37.8251	0.578
37.8951	0.58
37.965	0.582
38.035	0.587
