Infrared Spectrum: N-METHYL-p-METHOXYBENZYLIDINIMINE
Formula: C9 H11 N O
CAS: 13114-23-3
Class: COBLENTZ
Instrument: PERKIN-ELMER
Sampling: TRANSMISSION
Path length: CAPILLARY
Resolution: 4
Origin: ABBOTT LABORATORIES - WASHBURN
MICROMETERS	TRANSMITTANCE
2.013	0.856
2.04589	0.859
2.07879	0.863
2.11168	0.863
2.14458	0.8611
2.17747	0.8639
2.21037	0.8592
2.24326	0.859
2.27616	0.861
2.30905	0.858
2.34195	0.853
2.37484	0.8631
2.40774	0.864
2.44063	0.863
2.47353	0.866
2.50642	0.863
2.53932	0.863
2.57221	0.863
2.60511	0.867
2.638	0.866
2.6709	0.871
2.70379	0.8711
2.73669	0.867
2.76958	0.861
2.80248	0.863
2.83537	0.8544
2.86827	0.8441
2.90116	0.8459
2.93406	0.839
2.96695	0.838
2.99985	0.834
3.03274	0.8341
3.06564	0.8261
3.09853	0.831
3.13143	0.828
3.16432	0.8309
3.19722	0.826
3.23011	0.8109
3.26301	0.79
3.2959	0.759
3.3288	0.7191
3.36169	0.6522
3.39459	0.5376
3.42748	0.5516
3.46038	0.551
3.49327	0.561
3.52617	0.4937
3.55906	0.6813
3.59196	0.759
3.62485	0.742
3.65775	0.8046
3.69064	0.8229
3.72354	0.841
3.75643	0.8489
3.78933	0.851
3.82222	0.849
3.85512	0.848
3.88801	0.844
3.92091	0.8341
3.9538	0.836
3.9867	0.844
4.01959	0.848
4.05249	0.848
4.08538	0.8526
4.11828	0.861
4.15117	0.863
4.18407	0.863
4.21696	0.851
4.24986	0.858
4.28275	0.859
4.31565	0.8562
4.34854	0.858
4.38144	0.861
4.41433	0.858
4.44723	0.8611
4.48012	0.869
4.51302	0.866
4.54591	0.866
4.57881	0.8709
4.6117	0.8739
4.64459	0.872
4.67749	0.871
4.71038	0.8633
4.74328	0.859
4.77617	0.8629
4.80907	0.854
4.84196	0.851
4.87486	0.848
4.90775	0.8391
4.94065	0.825
4.97354	0.8424
5.00644	0.848
5.03933	0.8539
5.07223	0.864
5.10512	0.8633
5.13802	0.8556
5.17091	0.846
5.20381	0.849
5.2367	0.8524
5.2696	0.8453
5.30249	0.8463
5.33539	0.853
5.36828	0.859
5.40118	0.861
5.43407	0.8584
5.46697	0.8601
5.49986	0.8621
5.53276	0.8579
5.56565	0.861
5.59855	0.8538
5.63144	0.849
5.66434	0.854
5.69723	0.853
5.73013	0.8532
5.76302	0.848
5.79592	0.8366
5.82881	0.8219
5.86171	0.8038
5.8946	0.7889
5.9275	0.7745
5.96039	0.7696
5.99329	0.7481
6.02618	0.5363
6.05908	0.2447
6.09197	0.481
6.12487	0.6139
6.15776	0.6405
6.19066	0.3942
6.22355	0.1095
6.25645	0.3968
6.28934	0.6181
6.32224	0.471
6.35513	0.5523
6.38803	0.7026
6.42092	0.7413
6.45382	0.7547
6.48671	0.7608
6.51961	0.775
6.5525	0.7504
6.5854	0.5726
6.61829	0.1185
6.65119	0.3478
6.68408	0.5583
6.71698	0.6826
6.74987	0.7208
6.78277	0.7136
6.81566	0.5347
6.84856	0.4349
6.88145	0.4481
6.91435	0.5209
6.94724	0.513
6.98014	0.5796
7.01303	0.6661
7.04593	0.6419
7.07882	0.6317
7.11172	0.7067
7.14461	0.547
7.17751	0.6164
7.2104	0.7329
7.24329	0.7452
7.27619	0.7098
7.30908	0.6786
7.34198	0.7046
7.37487	0.724
7.40777	0.7288
7.44066	0.7366
7.47356	0.7497
7.50645	0.76
7.53935	0.7629
7.57224	0.7477
7.60514	0.6895
7.63803	0.4737
7.67093	0.2372
7.70382	0.3198
7.73672	0.5273
7.76961	0.6546
7.80251	0.6823
7.8354	0.6868
7.8683	0.664
7.90119	0.5753
7.93409	0.3173
7.96698	0.1193
7.99988	0.0653
8.03277	0.0561
8.06567	0.0984
8.09856	0.2696
8.13146	0.4314
8.16435	0.5555
8.19725	0.6365
8.23014	0.6706
8.26304	0.7019
8.29593	0.7263
8.32883	0.7375
8.36172	0.744
8.39462	0.7402
8.42751	0.7174
8.46041	0.5981
8.4933	0.4728
8.5262	0.4634
8.55909	0.4338
8.59199	0.1943
8.62488	0.2792
8.65778	0.548
8.69067	0.6646
8.72357	0.704
8.75646	0.7345
8.78936	0.7466
8.82225	0.7535
8.85515	0.757
8.88804	0.7518
8.92094	0.7386
8.95383	0.7303
8.98673	0.726
9.01962	0.6652
9.05252	0.5938
9.08541	0.628
9.11831	0.7049
9.1512	0.7374
9.1841	0.7546
9.21699	0.7645
9.24989	0.7688
9.28278	0.7727
9.31568	0.773
9.34857	0.7767
9.38147	0.7729
9.41436	0.768
9.44726	0.7603
9.48015	0.75
9.51305	0.7295
9.54594	0.7036
9.57884	0.6399
9.61173	0.5466
9.64463	0.4244
9.67752	0.2949
9.71042	0.2587
9.74331	0.2856
9.77621	0.3902
9.8091	0.5013
9.84199	0.5721
9.87489	0.6336
9.90778	0.6257
9.94068	0.627
9.97357	0.559
10.0065	0.4725
10.0394	0.5708
10.0723	0.704
10.1052	0.7583
10.138	0.7796
10.1709	0.804
10.2038	0.8099
10.2367	0.8154
10.2696	0.806
10.3025	0.7919
10.3354	0.7615
10.3683	0.7226
10.4012	0.7002
10.4341	0.681
10.467	0.6908
10.4999	0.7202
10.5328	0.7661
10.5657	0.8025
10.5986	0.8159
10.6315	0.821
10.6644	0.8175
10.6973	0.8097
10.7302	0.7929
10.7631	0.783
10.7959	0.7879
10.8288	0.8023
10.8617	0.8201
10.8946	0.8272
10.9275	0.8335
10.9604	0.8398
10.9933	0.846
11.0262	0.844
11.0591	0.846
11.092	0.848
11.1249	0.848
11.1578	0.849
11.1907	0.846
11.2236	0.8466
11.2565	0.841
11.2894	0.841
11.3223	0.833
11.3552	0.833
11.3881	0.8278
11.421	0.82
11.4538	0.8012
11.4867	0.7806
11.5196	0.7057
11.5525	0.6372
11.5854	0.6211
11.6183	0.67
11.6512	0.7039
11.6841	0.7263
11.717	0.7312
11.7499	0.7319
11.7828	0.727
11.8157	0.6994
11.8486	0.6525
11.8815	0.5995
11.9144	0.5179
11.9473	0.4409
11.9802	0.3398
12.0131	0.2869
12.046	0.265
12.0789	0.2744
12.1117	0.3426
12.1446	0.4223
12.1775	0.5134
12.2104	0.5699
12.2433	0.592
12.2762	0.6025
12.3091	0.607
12.342	0.607
12.3749	0.6105
12.4078	0.6417
12.4407	0.6713
12.4736	0.6959
12.5065	0.7183
12.5394	0.7398
12.5723	0.7498
12.6052	0.7612
12.6381	0.7665
12.671	0.772
12.7039	0.769
12.7367	0.7705
12.7696	0.7726
12.8025	0.7668
12.8354	0.7502
12.8683	0.7231
12.9012	0.677
12.9341	0.6571
12.967	0.6735
12.9999	0.7001
13.0328	0.7284
13.0657	0.7446
13.0986	0.7552
13.1315	0.764
13.1644	0.768
13.1973	0.765
13.2302	0.7677
13.2631	0.7677
13.296	0.772
13.3289	0.773
13.3618	0.775
13.3946	0.777
13.4275	0.772
13.4604	0.773
13.4933	0.77
13.5262	0.768
13.5591	0.775
13.592	0.777
13.6249	0.7725
13.6578	0.768
13.6907	0.767
13.7236	0.7635
13.7565	0.757
13.7894	0.7589
13.8223	0.755
13.8552	0.755
13.8881	0.754
13.921	0.75
13.9539	0.749
13.9868	0.744
14.0197	0.745
14.0525	0.747
14.0854	0.746
14.1183	0.7487
14.1512	0.744
14.1841	0.742
14.217	0.7422
14.2499	0.7374
14.2828	0.734
14.3157	0.7344
14.3486	0.729
14.3815	0.729
14.4144	0.7274
14.4473	0.726
14.4802	0.726
14.5131	0.7213
14.546	0.7162
14.5789	0.7095
14.6118	0.7116
14.6447	0.7115
14.6776	0.706
14.7104	0.702
14.7433	0.7017
14.7762	0.6984
14.8091	0.688
14.842	0.686
14.8749	0.681
14.9078	0.679
14.9407	0.6715
14.9736	0.678
15.0065	0.6719
