Infrared Spectrum: Phenol-d6
Formula: C 6 D 6 O
CAS: 13127-88-3
State: gas
Instrument: HP-GC/MS/IRD
Origin: NIST Mass Spectrometry Data Center
1/CM	ABSORBANCE
550	0.0087024
562	0.0069328
574	0.0035112
586	0.0018312
598	0.0011928
610	0.0013664
622	0.0023632
634	0.001288
646	0.0006216
658	0.0003416
670	0.0001624
682	0.000112
694	0.0001232
706	0.0001064
718	0.0003136
730	0.0014784
742	0.0065296
754	0.008736
766	0.0055552
778	0.0013496
790	0.0008456
802	0.0018088
814	0.0018928
826	0.0023968
838	0.0016128
850	0.0009352
862	0.0004536
874	0.000728
886	0.0017416
898	0.0024808
910	0.0021728
922	0.0009072
934	0.0005936
946	0.0010416
958	0.0013384
970	0.0013048
982	0.0009408
994	0.0010472
1006	0.0035784
1018	0.0046648
1030	0.0038752
1042	0.0012936
1054	0.00112
1066	0.0010248
1078	0.0005768
1090	0.0003976
1102	0.0007504
1114	0.001204
1126	0.0018928
1138	0.0036456
1150	0.0150696
1162	0.0413952
1174	0.056
1186	0.0437136
1198	0.0161392
1210	0.00756
1222	0.0049
1234	0.0029624
1246	0.0022792
1258	0.00182
1270	0.002604
1282	0.0057344
1294	0.0075544
1306	0.0068208
1318	0.0033488
1330	0.0035728
1342	0.0069496
1354	0.0170688
1366	0.0227304
1378	0.0249816
1390	0.0224336
1402	0.0207984
1414	0.0107016
1426	0.0030352
1438	0.0012936
1450	0.0008736
1462	0.0009296
1474	0.0008792
1486	0.000616
1498	0.000588
1510	0.0007448
1522	0.001204
1534	0.0034272
1546	0.0109368
1558	0.0242704
1570	0.0299376
1582	0.0187824
1594	0.0077728
1606	0.0032984
1618	0.0012544
1630	0.0008848
1642	0.000588
1654	0.0004928
1666	0.0006832
1678	0.0007728
1690	0.0007056
1702	0.0004368
1714	0.0002968
1726	0.0002016
1738	0.0001736
1750	0.0001568
1762	0.0001624
1774	0.0002016
1786	0.0002072
1798	0.0001848
1810	0.0001176
1822	5.04e-05
1834	7.28e-05
1846	6.16e-05
1858	6.72e-05
1870	8.4e-05
1882	5.6e-05
1894	6.72e-05
1906	0.0001288
1918	0.0002688
1930	0.0002744
1942	0.0001792
1954	7.84e-05
1966	5.6e-05
1978	9.52e-05
1990	0.0001792
2002	0.0002184
2014	0.0001904
2026	0.0001624
2038	0.0001344
2050	0.0001512
2062	0.00014
2074	0.0001008
2086	7.84e-05
2098	8.4e-05
2110	0.0001008
2122	0.0001288
2134	0.000168
2146	0.0001736
2158	0.000168
2170	0.0001792
2182	0.0002072
2194	0.0002184
2206	0.0002856
2218	0.0004536
2230	0.0008848
2242	0.0020608
2254	0.0034944
2266	0.0057344
2278	0.0072688
2290	0.0074088
2302	0.0049672
2314	0.0018704
2326	0.0008568
2338	0.0007336
2350	0.0006384
2362	0.0007224
2374	0.0008008
2386	0.0007952
2398	0.0006888
2410	0.0005768
2422	0.0003976
2434	0.0002968
2446	0.0002688
2458	0.0002184
2470	0.0002352
2482	0.0001848
2494	0.0001624
2506	0.0001904
2518	0.0001344
2530	0.0002352
2542	0.0003416
2554	0.0005432
2566	0.0006384
2578	0.00056
2590	0.000336
2602	0.0002128
2614	0.0001288
2626	8.96e-05
2638	0.0001064
2650	0.0001064
2662	0.0001512
2674	0.0005544
2686	0.0016856
2698	0.0017472
2710	0.0011872
2722	0.0003192
2734	0.0002464
2746	0.0002128
2758	0.000168
2770	0.00014
2782	8.4e-05
2794	7.84e-05
2806	6.72e-05
2818	0.0001008
2830	0.000112
2842	0.0001456
2854	0.0002128
2866	0.0002296
2878	0.000196
2890	0.0001736
2902	5.6e-05
2914	2.24e-05
2926	5.04e-05
2938	7.84e-05
2950	0
2962	5.04e-05
2974	4.48e-05
2986	6.72e-05
2998	5.04e-05
3010	7.84e-05
3022	7.28e-05
3034	0.0001176
3046	0.00014
3058	0.0002072
3070	0.000196
3082	0.0002352
3094	0.000168
3106	0.0001736
3118	0.0001288
3130	0.0001792
3142	0.0001456
3154	0.000168
3166	0.0001456
3178	0.0001568
3190	8.4e-05
3202	0.000196
3214	0.000224
3226	0.0003304
3238	0.000308
3250	0.0002688
3262	0.0001736
3274	0.0001232
3286	0.000168
3298	9.52e-05
3310	0.0001736
3322	0.0001792
3334	0.00028
3346	0.0004312
3358	0.0003864
3370	0.0004144
3382	0.0004704
3394	0.0003864
3406	0.0003976
3418	0.0004368
3430	0.000392
3442	0.0004704
3454	0.0003584
3466	0.0003136
3478	0.0003304
3490	0.000308
3502	0.0002968
3514	0.0002968
3526	0.0002744
3538	0.0003024
3550	0.0002968
3562	0.0002744
3574	0.0003864
3586	0.0004032
3598	0.0005544
3610	0.0008288
3622	0.00196
3634	0.00756
3646	0.0167776
3658	0.0159992
3670	0.008092
3682	0.0014616
3694	0.0005544
3706	0.0004312
3718	0.0003416
3730	0.000308
3742	0.0003192
3754	0.0003024
3766	0.0003528
3778	0.0003808
3790	0.0004256
3802	0.0004704
3814	0.0004704
3826	0.0005264
3838	0.000532
