Infrared Spectrum: ISO-OCTYL[2-(3-METHYLPYRAZYL)] MERCAPTO ACETATE
Formula: C15 H24 N2 O2 S
CAS: 131346-17-3
State: LIQUID
Class: COBLENTZ
Instrument: Not specified, most likely a prism, grating, or hybrid spectrometer.
Sampling: TRANSMISSION
Path length: 0.0015 CM
Resolution: 4
Origin: WYANDOTTE CHEMICALS CORP., WYANDOTTE, MICHIGAN, USA
MICROMETERS	TRANSMITTANCE
2.041	0.976
2.08176	0.976
2.12251	0.965
2.16327	0.962
2.20402	0.925
2.24478	0.899
2.28554	0.923
2.32629	0.926
2.36705	0.931
2.40781	0.935
2.44856	0.948
2.48932	0.95
2.53007	0.94
2.57083	0.954
2.61159	0.967
2.65234	0.959
2.6931	0.964
2.73386	0.952
2.77461	0.954
2.81537	0.94
2.85612	0.916
2.89688	0.882
2.93764	0.865
2.97839	0.887
3.01915	0.889
3.0599	0.89
3.10066	0.88
3.14142	0.853
3.18217	0.851
3.22293	0.807
3.26369	0.671
3.30444	0.591
3.3452	0.202
3.38595	0.023
3.42671	0.039
3.46747	0.102
3.50822	0.141
3.54898	0.614
3.58973	0.805
3.63049	0.86
3.67125	0.853
3.712	0.882
3.75276	0.909
3.79352	0.914
3.83427	0.921
3.87503	0.931
3.91578	0.948
3.95654	0.959
3.9973	0.962
4.03805	0.965
4.07881	0.964
4.11957	0.964
4.16032	0.952
4.20108	0.954
4.24183	0.938
4.28259	0.909
4.32335	0.916
4.3641	0.926
4.40486	0.962
4.44561	0.964
4.48637	0.971
4.52713	0.976
4.56788	0.976
4.60864	0.979
4.6494	0.979
4.69015	0.976
4.73091	0.981
4.77166	0.981
4.81242	0.979
4.85318	0.979
4.89393	0.976
4.93469	0.964
4.97545	0.967
5.0162	0.969
5.05696	0.969
5.09771	0.969
5.13847	0.969
5.17923	0.965
5.21998	0.948
5.26074	0.935
5.30149	0.921
5.34225	0.952
5.38301	0.942
5.42376	0.936
5.46452	0.913
5.50528	0.894
5.54603	0.85
5.58679	0.795
5.62754	0.672
5.6683	0.458
5.70906	0.049
5.74981	0.025
5.79057	0.045
5.83133	0.323
5.87208	0.483
5.91284	0.642
5.95359	0.722
5.99435	0.754
6.03511	0.758
6.07586	0.798
6.11662	0.797
6.15737	0.824
6.19813	0.833
6.23889	0.839
6.27964	0.829
6.3204	0.78
6.36116	0.737
6.40191	0.746
6.44267	0.732
6.48342	0.604
6.52418	0.403
6.56494	0.267
6.60569	0.434
6.64645	0.603
6.6872	0.543
6.72796	0.403
6.76872	0.131
6.80947	0.098
6.85023	0.109
6.89099	0.219
6.93174	0.226
6.9725	0.26
7.01325	0.315
7.05401	0.253
7.09477	0.202
7.13552	0.151
7.17628	0.11
7.21704	0.017
7.25779	0.047
7.29855	0.08
7.3393	0.047
7.38006	0.093
7.42082	0.255
7.46157	0.415
7.50233	0.442
7.54308	0.381
7.58384	0.277
7.6246	0.129
7.66535	0.03
7.70611	0.017
7.74687	0.027
7.78762	0.032
7.82838	0.028
7.86913	0.027
7.90989	0.025
7.95065	0.039
7.9914	0.076
8.03216	0.155
8.07292	0.218
8.11367	0.258
8.15443	0.265
8.19518	0.183
8.23594	0.178
8.2767	0.207
8.31745	0.158
8.35821	0.134
8.39896	0.095
8.43972	0.037
8.48048	0.02
8.52123	0.018
8.56199	0.02
8.60275	0.018
8.6435	0.017
8.68426	0.022
8.72501	0.027
8.76577	0.039
8.80653	0.057
8.84728	0.098
8.88804	0.153
8.92879	0.199
8.96955	0.175
9.01031	0.1
9.05106	0.047
9.09182	0.025
9.13258	0.054
9.17333	0.209
9.21409	0.391
9.25484	0.451
9.2956	0.374
9.33636	0.183
9.37711	0.204
9.41787	0.374
9.45863	0.431
9.49938	0.442
9.54014	0.407
9.58089	0.354
9.62165	0.323
9.66241	0.296
9.70316	0.313
9.74392	0.356
9.78467	0.369
9.82543	0.34
9.86619	0.367
9.90694	0.402
9.9477	0.385
9.98846	0.352
10.0292	0.316
10.07	0.289
10.1107	0.279
10.1515	0.27
10.1922	0.252
10.233	0.224
10.2737	0.216
10.3145	0.258
10.3553	0.32
10.396	0.393
10.4368	0.471
10.4775	0.526
10.5183	0.57
10.559	0.599
10.5998	0.63
10.6406	0.649
10.6813	0.662
10.7221	0.674
10.7628	0.689
10.8036	0.689
10.8443	0.686
10.8851	0.678
10.9258	0.678
10.9666	0.681
11.0074	0.664
11.0481	0.652
11.0889	0.643
11.1296	0.62
11.1704	0.601
11.2111	0.594
11.2519	0.591
11.2927	0.582
11.3334	0.596
11.3742	0.623
11.4149	0.638
11.4557	0.643
11.4964	0.632
11.5372	0.614
11.5779	0.579
11.6187	0.541
11.6595	0.5
11.7002	0.453
11.741	0.374
11.7817	0.308
11.8225	0.301
11.8632	0.335
11.904	0.373
11.9448	0.448
11.9855	0.604
12.0263	0.696
12.067	0.744
12.1078	0.778
12.1485	0.79
12.1893	0.802
12.23	0.804
12.2708	0.802
12.3116	0.809
12.3523	0.804
12.3931	0.804
12.4338	0.807
12.4746	0.798
12.5153	0.79
12.5561	0.771
12.5969	0.756
12.6376	0.73
12.6784	0.713
12.7191	0.696
12.7599	0.691
12.8006	0.686
12.8414	0.686
12.8821	0.693
12.9229	0.706
12.9637	0.717
13.0044	0.73
13.0452	0.735
13.0859	0.747
13.1267	0.752
13.1674	0.759
13.2082	0.756
13.249	0.771
13.2897	0.775
13.3305	0.78
13.3712	0.773
13.412	0.742
13.4527	0.715
13.4935	0.735
13.5342	0.776
13.575	0.809
13.6158	0.817
13.6565	0.829
13.6973	0.826
13.738	0.827
13.7788	0.834
13.8195	0.839
13.8603	0.839
13.901	0.836
13.9418	0.838
13.9826	0.831
14.0233	0.821
14.0641	0.809
14.1048	0.8
14.1456	0.78
14.1863	0.771
14.2271	0.763
14.2679	0.751
14.3086	0.737
14.3494	0.727
14.3901	0.712
14.4309	0.71
14.4716	0.701
14.5124	0.72
14.5531	0.732
14.5939	0.741
14.6347	0.749
14.6754	0.756
14.7162	0.758
14.7569	0.756
14.7977	0.744
14.8384	0.732
14.8792	0.741
14.92	0.761
14.9607	0.773
15.0015	0.776
15.0422	0.776
15.083	0.81
15.1237	0.843
15.1645	0.85
15.2052	0.844
15.246	0.836
15.2868	0.834
15.3275	0.834
15.3683	0.834
15.409	0.821
15.4498	0.819
15.4905	0.812
15.5313	0.817
15.5721	0.814
15.6128	0.81
15.6536	0.804
15.6943	0.802
15.7351	0.795
15.7758	0.788
15.8166	0.78
15.8573	0.776
15.8981	0.773
15.9389	0.77
15.9796	0.756
