Infrared Spectrum: 2-(N-n-HEXYLAMINO)-3,6-DIMETHYL PYRAZINE
Formula: C12 H21 N3
CAS: 13134-55-9
State: LIQUID
Class: COBLENTZ
Instrument: Not specified, most likely a prism, grating, or hybrid spectrometer.
Sampling: TRANSMISSION
Path length: 0.0015 CM
Resolution: 4
Origin: WYANDOTTE CHEMICALS CORP., WYANDOTTE, MICHIGAN, USA
MICROMETERS	TRANSMITTANCE
2.034	0.988
2.07491	0.989
2.11583	0.989
2.15674	0.981
2.19766	0.94
2.23857	0.921
2.27949	0.94
2.3204	0.955
2.36132	0.953
2.40223	0.952
2.44315	0.957
2.48406	0.962
2.52498	0.962
2.56589	0.974
2.60681	0.967
2.64772	0.979
2.68864	0.981
2.72955	0.953
2.77047	0.948
2.81138	0.907
2.8523	0.837
2.89321	0.576
2.93413	0.485
2.97504	0.391
3.01595	0.299
3.05687	0.328
3.09778	0.586
3.1387	0.723
3.17961	0.758
3.22053	0.733
3.26144	0.702
3.30236	0.591
3.34327	0.3
3.38419	0.066
3.4251	0.073
3.46602	0.179
3.50693	0.128
3.54785	0.562
3.58876	0.752
3.62968	0.825
3.67059	0.817
3.71151	0.847
3.75242	0.852
3.79334	0.885
3.83425	0.897
3.87517	0.9
3.91608	0.904
3.957	0.909
3.99791	0.917
4.03882	0.923
4.07974	0.902
4.12065	0.895
4.16157	0.9
4.20248	0.919
4.2434	0.907
4.28431	0.882
4.32523	0.876
4.36614	0.894
4.40706	0.923
4.44797	0.933
4.48889	0.95
4.5298	0.95
4.57072	0.948
4.61163	0.943
4.65255	0.952
4.69346	0.95
4.73438	0.948
4.77529	0.952
4.81621	0.95
4.85712	0.943
4.89804	0.943
4.93895	0.95
4.97986	0.95
5.02078	0.958
5.06169	0.948
5.10261	0.957
5.14352	0.96
5.18444	0.957
5.22535	0.972
5.26627	0.967
5.30718	0.957
5.3481	0.948
5.38901	0.957
5.42993	0.952
5.47084	0.962
5.51176	0.958
5.55267	0.953
5.59359	0.941
5.6345	0.94
5.67542	0.95
5.71633	0.935
5.75725	0.924
5.79816	0.897
5.83908	0.87
5.87999	0.858
5.9209	0.842
5.96182	0.835
6.00273	0.806
6.04365	0.779
6.08456	0.741
6.12548	0.699
6.16639	0.634
6.20731	0.417
6.24822	0.119
6.28914	0.117
6.33005	0.365
6.37097	0.328
6.41188	0.063
6.4528	0.095
6.49371	0.107
6.53463	0.087
6.57554	0.085
6.61646	0.082
6.65737	0.073
6.69829	0.126
6.7392	0.148
6.78012	0.135
6.82103	0.111
6.86194	0.114
6.90286	0.087
6.94377	0.136
6.98469	0.239
7.0256	0.379
7.06652	0.34
7.10743	0.23
7.14835	0.191
7.18926	0.271
7.23018	0.234
7.27109	0.121
7.31201	0.099
7.35292	0.114
7.39384	0.164
7.43475	0.258
7.47567	0.317
7.51658	0.447
7.5575	0.492
7.59841	0.396
7.63933	0.304
7.68024	0.105
7.72116	0.092
7.76207	0.276
7.80299	0.478
7.8439	0.524
7.88481	0.401
7.92573	0.401
7.96664	0.531
8.00756	0.617
8.04847	0.62
8.08939	0.56
8.1303	0.519
8.17122	0.557
8.21213	0.57
8.25305	0.548
8.29396	0.423
8.33488	0.394
8.37579	0.329
8.41671	0.121
8.45762	0.165
8.49854	0.21
8.53945	0.143
8.58037	0.172
8.62128	0.382
8.6622	0.56
8.70311	0.649
8.74403	0.647
8.78494	0.652
8.82585	0.682
8.86677	0.685
8.90768	0.67
8.9486	0.712
8.98951	0.769
9.03043	0.782
9.07134	0.784
9.11226	0.77
9.15317	0.738
9.19409	0.699
9.235	0.675
9.27592	0.676
9.31683	0.7
9.35775	0.724
9.39866	0.745
9.43958	0.752
9.48049	0.758
9.52141	0.743
9.56232	0.717
9.60324	0.67
9.64415	0.632
9.68507	0.596
9.72598	0.553
9.76689	0.579
9.80781	0.641
9.84872	0.652
9.88964	0.581
9.93055	0.502
9.97147	0.5
10.0124	0.553
10.0533	0.601
10.0942	0.641
10.1351	0.678
10.176	0.692
10.217	0.702
10.2579	0.709
10.2988	0.699
10.3397	0.68
10.3806	0.652
10.4215	0.601
10.4624	0.55
10.5034	0.504
10.5443	0.514
10.5852	0.579
10.6261	0.649
10.667	0.7
10.7079	0.729
10.7488	0.747
10.7898	0.76
10.8307	0.77
10.8716	0.788
10.9125	0.794
10.9534	0.8
10.9943	0.805
11.0353	0.806
11.0762	0.801
11.1171	0.793
11.158	0.777
11.1989	0.755
11.2398	0.741
11.2807	0.743
11.3217	0.753
11.3626	0.762
11.4035	0.765
11.4444	0.753
11.4853	0.741
11.5262	0.721
11.5671	0.688
11.6081	0.654
11.649	0.601
11.6899	0.529
11.7308	0.47
11.7717	0.452
11.8126	0.451
11.8535	0.492
11.8945	0.567
11.9354	0.629
11.9763	0.69
12.0172	0.726
12.0581	0.738
12.099	0.741
12.14	0.745
12.1809	0.74
12.2218	0.745
12.2627	0.743
12.3036	0.745
12.3445	0.741
12.3854	0.735
12.4264	0.714
12.4673	0.7
12.5082	0.7
12.5491	0.683
12.59	0.671
12.6309	0.663
12.6718	0.67
12.7128	0.685
12.7537	0.692
12.7946	0.683
12.8355	0.671
12.8764	0.659
12.9173	0.656
12.9582	0.671
12.9992	0.664
13.0401	0.654
13.081	0.69
13.1219	0.712
13.1628	0.726
13.2037	0.717
13.2447	0.723
13.2856	0.723
13.3265	0.735
13.3674	0.747
13.4083	0.75
13.4492	0.747
13.4901	0.752
13.5311	0.74
13.572	0.728
13.6129	0.707
13.6538	0.675
13.6947	0.652
13.7356	0.627
13.7765	0.606
13.8175	0.605
13.8584	0.622
13.8993	0.658
13.9402	0.692
13.9811	0.716
14.022	0.729
14.0629	0.738
14.1039	0.747
14.1448	0.748
14.1857	0.755
14.2266	0.757
14.2675	0.762
14.3084	0.769
14.3494	0.764
14.3903	0.765
14.4312	0.762
14.4721	0.767
14.513	0.764
14.5539	0.762
14.5948	0.762
14.6358	0.757
14.6767	0.75
14.7176	0.758
14.7585	0.755
14.7994	0.758
14.8403	0.743
14.8812	0.748
14.9222	0.747
14.9631	0.741
15.004	0.736
15.0449	0.717
15.0858	0.717
15.1267	0.736
15.1676	0.741
15.2086	0.731
15.2495	0.733
15.2904	0.726
15.3313	0.733
15.3722	0.723
15.4131	0.719
15.4541	0.717
15.495	0.716
15.5359	0.717
15.5768	0.719
15.6177	0.712
15.6586	0.709
15.6995	0.707
15.7405	0.709
15.7814	0.7
15.8223	0.699
15.8632	0.694
15.9041	0.69
15.945	0.682
15.9859	0.678
