Infrared Spectrum: 1,2,3,4-Tetrahydrodibenzofuran
Formula: C 12 H 12 O
CAS: 13130-19-3
State: gas
Origin: EPA-IR VAPOR PHASE LIBRARY
1/CM	ABSORBANCE
549.8	0.0003897
559.445	0.0004541
569.09	0.0006584
578.734	0.0004896
588.379	0.0007257
598.024	0.0024052
607.669	0.0016852
617.313	0.0013552
626.958	0.0011852
636.603	0.0004905
646.248	0.0002725
655.893	0.0004554
665.537	0.0010248
675.182	0.0021952
684.827	0.0017252
694.472	0.0009721
704.116	0.0016652
713.761	0.0027352
723.406	0.0100452
733.051	0.0321652
742.695	0.0517852
752.34	0.0229352
761.985	0.0039352
771.63	0.0011352
781.275	0.0005155
790.919	0.000603
800.564	0.0009923
810.209	0.0043752
819.854	0.0061252
829.498	0.0022552
839.143	0.0017852
848.788	0.0056952
858.433	0.0085552
868.078	0.0074552
877.722	0.0068452
887.367	0.0035152
897.012	0.0014352
906.657	0.0014052
916.301	0.0019952
925.946	0.0016152
935.591	0.0015152
945.236	0.0019152
954.88	0.0018252
964.525	0.0012252
974.17	0.0009223
983.815	0.0014552
993.46	0.0025552
1003.1	0.0058652
1012.75	0.0050952
1022.39	0.0014952
1032.04	0.0009186
1041.68	0.0009907
1051.33	0.0012652
1060.97	0.0010247
1070.62	0.0020552
1080.26	0.0014552
1089.91	0.0022152
1099.55	0.0038252
1109.2	0.0082952
1118.84	0.0233952
1128.49	0.0276752
1138.13	0.0123252
1147.78	0.0070952
1157.42	0.0046952
1167.07	0.0065752
1176.71	0.0129052
1186.36	0.0294152
1196	0.0285152
1205.64	0.0116552
1215.29	0.0082352
1224.93	0.0090252
1234.58	0.0060552
1244.22	0.0046552
1253.87	0.0104552
1263.51	0.0109552
1273.16	0.0149852
1282.8	0.0118652
1292.45	0.0084752
1302.09	0.0080752
1311.74	0.0032152
1321.38	0.0027252
1331.03	0.0027652
1340.67	0.0034952
1350.32	0.0041052
1359.96	0.0040352
1369.61	0.0031852
1379.25	0.0018852
1388.9	0.0023152
1398.54	0.0028452
1408.18	0.0036952
1417.83	0.0039852
1427.47	0.0040352
1437.12	0.0112552
1446.76	0.0351352
1456.41	0.0394952
1466.05	0.0141452
1475.7	0.0090252
1485.34	0.0054552
1494.99	0.0023052
1504.63	0.0014052
1514.28	0.0008276
1523.92	0.0008429
1533.57	0.000874
1543.21	0.0006914
1552.86	0.0006656
1562.5	0.0010508
1572.15	0.0020452
1581.79	0.0029252
1591.44	0.0024352
1601.08	0.0017852
1610.73	0.0024152
1620.37	0.0027852
1630.01	0.0041552
1639.66	0.0062052
1649.3	0.0047452
1658.95	0.0028152
1668.59	0.0016052
1678.24	0.0009064
1687.88	0.000796
1697.53	0.0006921
1707.17	0.0007025
1716.82	0.0005789
1726.46	0.0004822
1736.11	0.000589
1745.75	0.0009952
1755.4	0.0017952
1765.04	0.0019152
1774.69	0.0010852
1784.33	0.000614
1793.98	0.0010508
1803.62	0.0012652
1813.27	0.0008432
1822.91	0.0008151
1832.55	0.0009964
1842.2	0.0012052
1851.84	0.0008164
1861.49	0.0009204
1871.13	0.0015052
1880.78	0.0017852
1890.42	0.0011352
1900.07	0.0007387
1909.71	0.0013652
1919.36	0.0019352
1929	0.00091
1938.65	0.0004232
1948.29	0.0005027
1957.94	0.0004696
1967.58	0.0004941
1977.23	0.0004824
1986.87	0.0004864
1996.52	0.0004306
2006.16	0.0005616
2015.81	0.0003329
2025.45	0.0003686
2035.1	0.0004396
2044.74	0.0004614
2054.38	0.0004251
2064.03	0.000357
2073.67	0.0004427
2083.32	0.0003167
2092.96	0.0002932
2102.61	0.0003055
2112.25	0.0003408
2121.9	0.0004201
2131.54	0.0003586
2141.19	0.0003802
2150.83	0.0004486
2160.48	0.0003881
2170.12	0.0003743
2179.77	0.0003711
2189.41	0.0003809
2199.06	0.0003507
2208.7	0.0003895
2218.35	0.0003036
2227.99	0.0003778
2237.64	0.0004076
2247.28	0.0004407
2256.92	0.0005048
2266.57	0.0005788
2276.21	0.000702
2285.86	0.0008096
2295.5	0.000819
2305.15	0.0006974
2314.79	0.000686
2324.44	0.0005373
2334.08	0.0005702
2343.73	0.0005451
2353.37	0.0004639
2363.02	0.0004689
2372.66	0.0004716
2382.31	0.0004603
2391.95	0.0004875
2401.6	0.0005366
2411.24	0.0004279
2420.89	0.0003761
2430.53	0.0003955
2440.18	0.0004515
2449.82	0.0005484
2459.47	0.0007251
2469.11	0.0007533
2478.75	0.0006771
2488.4	0.0006444
2498.04	0.0005428
2507.69	0.0005004
2517.33	0.0005514
2526.98	0.0004941
2536.62	0.0004636
2546.27	0.0005063
2555.91	0.0006451
2565.56	0.0005075
2575.2	0.0006159
2584.85	0.0005696
2594.49	0.0006433
2604.14	0.0006091
2613.78	0.000663
2623.43	0.0006994
2633.07	0.0007658
2642.72	0.0008819
2652.36	0.0015052
2662.01	0.0017352
2671.65	0.0014952
2681.29	0.0013552
2690.94	0.0011352
2700.58	0.0009541
2710.23	0.0008666
2719.87	0.0008262
2729.52	0.0009891
2739.16	0.0010652
2748.81	0.0010524
2758.45	0.0009938
2768.1	0.0011052
2777.74	0.0013752
2787.39	0.0014852
2797.03	0.0016552
2806.68	0.0016152
2816.32	0.0018252
2825.97	0.0023152
2835.61	0.0039952
2845.26	0.0104952
2854.9	0.0247052
2864.55	0.0327652
2874.19	0.0235852
2883.84	0.0130752
2893.48	0.0137952
2903.12	0.0173852
2912.77	0.0206452
2922.41	0.0307752
2932.06	0.0541552
2941.7	0.0814752
2951.35	0.0850552
2960.99	0.0298452
2970.64	0.0055352
2980.28	0.0027752
2989.93	0.0020552
2999.57	0.0018252
3009.22	0.0021752
3018.86	0.0029552
3028.51	0.0047252
3038.15	0.0068252
3047.8	0.0089252
3057.44	0.0112452
3067.09	0.0150652
3076.73	0.0149052
3086.38	0.0094152
3096.02	0.0062452
3105.67	0.0025552
3115.31	0.0013752
3124.95	0.0007106
3134.6	0.0004746
3144.24	0.0003781
3153.89	0.0004454
3163.53	0.000395
3173.18	0.00031
3182.82	0.0004076
3192.47	0.0004275
3202.11	0.0006365
3211.76	0.0005494
3221.4	0.0007831
3231.05	0.0005841
3240.69	0.0005023
3250.34	0.0005407
3259.98	0.0004699
3269.63	0.0003251
3279.27	0.0003965
3288.92	0.0002209
3298.56	0.00027
3308.21	9.561e-05
3317.85	8.351e-05
3327.49	0.0002158
3337.14	0.0002244
3346.78	0.000222
3356.43	7.176e-05
3366.07	0.000282
3375.72	0.00012615
3385.36	0.00014815
3395.01	0.0001847
3404.65	0.0001679
3414.3	0.0003299
3423.94	0.0003881
3433.59	0.00013986
3443.23	6.813e-05
3452.88	0.00012493
3462.52	0.0002105
3472.17	0.0003283
3481.81	0.0002499
3491.46	0.000288
3501.1	0.0001737
3510.75	0.0002613
3520.39	0.0002747
3530.04	0.0003016
3539.68	0.0002634
3549.32	0.0003817
3558.97	0.0001695
3568.61	0.0001942
3578.26	0.0003215
3587.9	0.0003034
3597.55	0.0002778
3607.19	0.0003848
3616.84	0.0002708
3626.48	0.0002705
3636.13	0.0003156
3645.77	0.0003939
3655.42	0.0002269
3665.06	0.0002714
3674.71	0.0003405
3684.35	0.0003967
3694	0.0003559
3703.64	0.00014617
3713.29	0.0003265
3722.93	0.00010487
3732.58	0.0003595
3742.22	0.0006135
3751.86	0.0003483
3761.51	0.0005589
3771.15	0.0004788
3780.8	0.0003278
3790.44	0.0003041
3800.09	0.0006208
3809.73	0.0003189
3819.38	0.0003001
3829.02	0.0004622
3838.67	0.000311
3848.31	0.0002368
3857.96	0.0003633
3867.6	0.0003762
3877.25	0.0003658
3886.89	0.0003442
3896.54	0.0003678
3906.18	0.0005821
3915.83	0.0004219
3925.47	0.0004176
3935.12	0.0006956
3944.76	0.000451
3954.41	0.0004282
3964.05	0.0004873
3973.69	0.0004468
3983.34	0.0003269
3992.98	0.000341
