Infrared Spectrum: 2-(N-n-HEXYLANILINO)-3-(n-HEPTYL) PYRAZINE
Formula: C23 H35 N3
CAS: 131346-16-2
State: LIQUID
Class: COBLENTZ
Instrument: Not specified, most likely a prism, grating, or hybrid spectrometer.
Sampling: TRANSMISSION
Path length: 0.0015 CM
Resolution: 4
Origin: WYANDOTTE CHEMICALS CORP., WYANDOTTE, MICHIGAN, USA
MICROMETERS	TRANSMITTANCE
2.041	0.982
2.08191	0.974
2.12283	0.97
2.16374	0.974
2.20466	0.921
2.24557	0.911
2.28649	0.917
2.3274	0.921
2.36832	0.919
2.40923	0.916
2.45015	0.938
2.49106	0.948
2.53198	0.947
2.57289	0.976
2.61381	0.948
2.65472	0.984
2.69564	0.964
2.73655	0.952
2.77747	0.969
2.81838	0.952
2.8593	0.941
2.90021	0.924
2.94113	0.914
2.98204	0.904
3.02296	0.904
3.06387	0.904
3.10479	0.897
3.1457	0.88
3.18662	0.871
3.22753	0.748
3.26845	0.499
3.30936	0.577
3.35028	0.241
3.39119	0.092
3.43211	0.109
3.47302	0.152
3.51394	0.162
3.55485	0.608
3.59577	0.747
3.63668	0.81
3.6776	0.806
3.71851	0.827
3.75943	0.827
3.80034	0.859
3.84126	0.871
3.88217	0.878
3.92309	0.885
3.964	0.902
4.00492	0.911
4.04583	0.916
4.08674	0.909
4.12766	0.907
4.16857	0.899
4.20949	0.905
4.2504	0.9
4.29132	0.892
4.33223	0.902
4.37315	0.921
4.41406	0.948
4.45498	0.935
4.49589	0.938
4.53681	0.941
4.57772	0.948
4.61864	0.941
4.65955	0.943
4.70047	0.943
4.74138	0.948
4.7823	0.948
4.82321	0.945
4.86413	0.95
4.90504	0.952
4.94596	0.952
4.98687	0.95
5.02779	0.947
5.0687	0.947
5.10962	0.948
5.15053	0.936
5.19145	0.907
5.23236	0.888
5.27328	0.909
5.31419	0.902
5.35511	0.899
5.39602	0.909
5.43694	0.909
5.47785	0.931
5.51877	0.936
5.55968	0.923
5.6006	0.89
5.64151	0.871
5.68243	0.909
5.72334	0.905
5.76426	0.883
5.80517	0.83
5.84609	0.822
5.887	0.806
5.92792	0.782
5.96883	0.791
6.00975	0.784
6.05066	0.769
6.09158	0.762
6.13249	0.699
6.1734	0.514
6.21432	0.16
6.25523	0.3
6.29615	0.391
6.33706	0.598
6.37798	0.582
6.41889	0.637
6.45981	0.641
6.50072	0.418
6.54164	0.223
6.58255	0.338
6.62347	0.22
6.66438	0.097
6.7053	0.242
6.74621	0.338
6.78713	0.109
6.82804	0.104
6.86896	0.119
6.90987	0.182
6.95079	0.241
6.9917	0.27
7.03262	0.169
7.07353	0.078
7.11445	0.08
7.15536	0.114
7.19628	0.203
7.23719	0.169
7.27811	0.162
7.31902	0.191
7.35994	0.222
7.40085	0.225
7.44177	0.247
7.48268	0.311
7.5236	0.382
7.56451	0.434
7.60543	0.427
7.64634	0.394
7.68726	0.336
7.72817	0.268
7.76909	0.295
7.81	0.365
7.85092	0.398
7.89183	0.321
7.93275	0.234
7.97366	0.2
8.01458	0.217
8.05549	0.287
8.09641	0.355
8.13732	0.4
8.17823	0.386
8.21915	0.381
8.26006	0.42
8.30098	0.382
8.34189	0.295
8.38281	0.242
8.42372	0.205
8.46464	0.148
8.50555	0.129
8.54647	0.136
8.58738	0.182
8.6283	0.198
8.66921	0.16
8.71013	0.201
8.75104	0.246
8.79196	0.297
8.83287	0.396
8.87379	0.475
8.9147	0.509
8.95562	0.533
8.99653	0.577
9.03745	0.6
9.07836	0.521
9.11928	0.502
9.16019	0.49
9.20111	0.463
9.24202	0.425
9.28294	0.388
9.32385	0.456
9.36477	0.553
9.40568	0.57
9.4466	0.569
9.48751	0.62
9.52843	0.659
9.56934	0.671
9.61026	0.668
9.65117	0.641
9.69209	0.581
9.733	0.558
9.77392	0.613
9.81483	0.666
9.85575	0.711
9.89666	0.726
9.93758	0.733
9.97849	0.728
10.0194	0.717
10.0603	0.711
10.1012	0.75
10.1422	0.784
10.1831	0.793
10.224	0.796
10.2649	0.803
10.3058	0.801
10.3467	0.81
10.3876	0.8
10.4286	0.786
10.4695	0.786
10.5104	0.793
10.5513	0.793
10.5922	0.791
10.6331	0.793
10.674	0.798
10.715	0.782
10.7559	0.76
10.7968	0.723
10.8377	0.678
10.8786	0.676
10.9195	0.699
10.9604	0.705
11.0014	0.702
11.0423	0.709
11.0832	0.714
11.1241	0.712
11.165	0.7
11.2059	0.687
11.2469	0.668
11.2878	0.658
11.3287	0.642
11.3696	0.639
11.4105	0.647
11.4514	0.666
11.4923	0.676
11.5333	0.682
11.5742	0.67
11.6151	0.652
11.656	0.639
11.6969	0.601
11.7378	0.567
11.7787	0.509
11.8197	0.458
11.8606	0.411
11.9015	0.388
11.9424	0.393
11.9833	0.437
12.0242	0.523
12.0652	0.6
12.1061	0.652
12.147	0.695
12.1879	0.731
12.2288	0.752
12.2697	0.769
12.3106	0.769
12.3516	0.776
12.3925	0.774
12.4334	0.779
12.4743	0.769
12.5152	0.765
12.5561	0.76
12.597	0.752
12.638	0.747
12.6789	0.738
12.7198	0.721
12.7607	0.712
12.8016	0.707
12.8425	0.702
12.8834	0.668
12.9244	0.611
12.9653	0.533
13.0062	0.466
13.0471	0.394
13.088	0.338
13.1289	0.292
13.1699	0.258
13.2108	0.242
13.2517	0.229
13.2926	0.234
13.3335	0.254
13.3744	0.288
13.4153	0.35
13.4563	0.422
13.4972	0.49
13.5381	0.541
13.579	0.569
13.6199	0.588
13.6608	0.581
13.7017	0.56
13.7427	0.517
13.7836	0.482
13.8245	0.452
13.8654	0.446
13.9063	0.48
13.9472	0.529
13.9882	0.562
14.0291	0.588
14.07	0.591
14.1109	0.579
14.1518	0.543
14.1927	0.49
14.2336	0.415
14.2746	0.324
14.3155	0.251
14.3564	0.21
14.3973	0.194
14.4382	0.196
14.4791	0.225
14.52	0.295
14.561	0.393
14.6019	0.497
14.6428	0.605
14.6837	0.67
14.7246	0.704
14.7655	0.736
14.8064	0.748
14.8474	0.758
14.8883	0.767
14.9292	0.772
14.9701	0.77
15.011	0.75
15.0519	0.729
15.0929	0.736
15.1338	0.76
15.1747	0.776
15.2156	0.774
15.2565	0.77
15.2974	0.764
15.3383	0.764
15.3793	0.755
15.4202	0.752
15.4611	0.748
15.502	0.747
15.5429	0.747
15.5838	0.733
15.6247	0.728
15.6657	0.719
15.7066	0.717
15.7475	0.7
15.7884	0.692
15.8293	0.685
15.8702	0.676
15.9112	0.67
15.9521	0.663
15.993	0.651
