Infrared Spectrum: 5-ETHOXY-2-HYDROXY-m-XYLENE-Alpha^1,Alpha^3-DIOL
Formula: C10 H14 O4
CAS: 131378-52-4
State: SOLID (MINERAL OIL MULL)
Class: COBLENTZ
Instrument: Not specified, most likely a prism, grating, or hybrid spectrometer.
Sampling: TRANSMISSION
Resolution: 4
Origin: DOW CHEMICAL COMPANY
MICROMETERS	TRANSMITTANCE
2.025	0.79
2.06202	0.79
2.09904	0.791
2.13606	0.794
2.17307	0.797
2.21009	0.797
2.24711	0.793
2.28413	0.788
2.32115	0.79
2.35817	0.796
2.39519	0.797
2.4322	0.8
2.46922	0.807
2.50624	0.814
2.54326	0.82
2.58028	0.819
2.6173	0.82
2.65432	0.826
2.69133	0.826
2.72835	0.823
2.76537	0.811
2.80239	0.779
2.83941	0.704
2.87643	0.531
2.91345	0.333
2.95046	0.263
2.98748	0.264
3.0245	0.229
3.06152	0.287
3.09854	0.304
3.13556	0.339
3.17258	0.451
3.20959	0.528
3.24661	0.575
3.28363	0.607
3.32065	0.617
3.35767	0.451
3.39469	0.162
3.43171	0.099
3.46872	0.197
3.50574	0.266
3.54276	0.589
3.57978	0.702
3.6168	0.751
3.65382	0.762
3.69084	0.765
3.72785	0.77
3.76487	0.779
3.80189	0.791
3.83891	0.799
3.87593	0.816
3.91295	0.828
3.94997	0.833
3.98698	0.842
4.024	0.849
4.06102	0.848
4.09804	0.842
4.13506	0.856
4.17208	0.86
4.2091	0.857
4.24611	0.851
4.28313	0.865
4.32015	0.875
4.35717	0.877
4.39419	0.879
4.43121	0.882
4.46823	0.883
4.50524	0.88
4.54226	0.879
4.57928	0.883
4.6163	0.882
4.65332	0.883
4.69034	0.88
4.72735	0.879
4.76437	0.883
4.80139	0.888
4.83841	0.889
4.87543	0.888
4.91245	0.883
4.94947	0.886
4.98648	0.888
5.0235	0.886
5.06052	0.889
5.09754	0.888
5.13456	0.88
5.17158	0.891
5.2086	0.897
5.24561	0.897
5.28263	0.891
5.31965	0.898
5.35667	0.897
5.39369	0.897
5.43071	0.892
5.46773	0.892
5.50474	0.895
5.54176	0.897
5.57878	0.888
5.6158	0.888
5.65282	0.888
5.68984	0.886
5.72686	0.88
5.76387	0.871
5.80089	0.866
5.83791	0.862
5.87493	0.866
5.91195	0.866
5.94897	0.86
5.98599	0.86
6.023	0.859
6.06002	0.852
6.09704	0.842
6.13406	0.802
6.17108	0.791
6.2081	0.802
6.24512	0.833
6.28213	0.854
6.31915	0.859
6.35617	0.859
6.39319	0.848
6.43021	0.837
6.46723	0.822
6.50425	0.817
6.54126	0.799
6.57828	0.765
6.6153	0.719
6.65232	0.635
6.68934	0.45
6.72636	0.281
6.76338	0.301
6.80039	0.225
6.83741	0.231
6.87443	0.261
6.91145	0.385
6.94847	0.502
6.98549	0.568
7.02251	0.542
7.05952	0.496
7.09654	0.49
7.13356	0.471
7.17058	0.453
7.2076	0.47
7.24462	0.45
7.28164	0.445
7.31865	0.366
7.35567	0.315
7.39269	0.401
7.42971	0.427
7.46673	0.471
7.50375	0.563
7.54077	0.603
7.57778	0.594
7.6148	0.562
7.65182	0.637
7.68884	0.721
7.72586	0.741
7.76288	0.747
7.7999	0.73
7.83691	0.699
7.87393	0.666
7.91095	0.609
7.94797	0.577
7.98499	0.519
8.02201	0.467
8.05903	0.48
8.09604	0.462
8.13306	0.352
8.17008	0.222
8.2071	0.169
8.24412	0.245
8.28114	0.393
8.31816	0.485
8.35517	0.531
8.39219	0.56
8.42921	0.588
8.46623	0.64
8.50325	0.647
8.54027	0.626
8.57729	0.535
8.6143	0.339
8.65132	0.267
8.68834	0.416
8.72536	0.577
8.76238	0.653
8.7994	0.705
8.83642	0.742
8.87343	0.732
8.91045	0.627
8.94747	0.563
8.98449	0.621
9.02151	0.765
9.05853	0.774
9.09555	0.79
9.13256	0.784
9.16958	0.771
9.2066	0.747
9.24362	0.663
9.28064	0.52
9.31766	0.292
9.35468	0.229
9.39169	0.303
9.42871	0.32
9.46573	0.295
9.50275	0.411
9.53977	0.581
9.57679	0.644
9.61381	0.687
9.65082	0.699
9.68784	0.652
9.72486	0.542
9.76188	0.434
9.7989	0.375
9.83592	0.457
9.87293	0.627
9.90995	0.664
9.94697	0.632
9.98399	0.54
10.021	0.433
10.058	0.48
10.095	0.572
10.1321	0.621
10.1691	0.611
10.2061	0.627
10.2431	0.698
10.2801	0.704
10.3172	0.678
10.3542	0.707
10.3912	0.742
10.4282	0.768
10.4652	0.764
10.5023	0.722
10.5393	0.638
10.5763	0.557
10.6133	0.554
10.6503	0.656
10.6873	0.77
10.7244	0.802
10.7614	0.823
10.7984	0.831
10.8354	0.837
10.8724	0.834
10.9095	0.836
10.9465	0.842
10.9835	0.84
11.0205	0.836
11.0575	0.828
11.0945	0.816
11.1316	0.777
11.1686	0.739
11.2056	0.695
11.2426	0.715
11.2796	0.758
11.3167	0.777
11.3537	0.774
11.3907	0.754
11.4277	0.693
11.4647	0.563
11.5018	0.497
11.5388	0.522
11.5758	0.534
11.6128	0.479
11.6498	0.457
11.6868	0.537
11.7239	0.641
11.7609	0.716
11.7979	0.745
11.8349	0.759
11.8719	0.764
11.909	0.765
11.946	0.764
11.983	0.761
12.02	0.754
12.057	0.747
12.094	0.733
12.1311	0.721
12.1681	0.713
12.2051	0.713
12.2421	0.721
12.2791	0.733
12.3162	0.733
12.3532	0.724
12.3902	0.709
12.4272	0.681
12.4642	0.63
12.5013	0.581
12.5383	0.537
12.5753	0.532
12.6123	0.554
12.6493	0.58
12.6863	0.6
12.7234	0.609
12.7604	0.62
12.7974	0.626
12.8344	0.629
12.8714	0.632
12.9085	0.632
12.9455	0.63
12.9825	0.629
13.0195	0.626
13.0565	0.623
13.0935	0.618
13.1306	0.614
13.1676	0.611
13.2046	0.603
13.2416	0.597
13.2786	0.586
13.3157	0.572
13.3527	0.549
13.3897	0.52
13.4267	0.5
13.4637	0.497
13.5008	0.502
13.5378	0.505
13.5748	0.508
13.6118	0.505
13.6488	0.502
13.6858	0.497
13.7229	0.491
13.7599	0.488
13.7969	0.485
13.8339	0.483
13.8709	0.488
13.908	0.496
13.945	0.502
13.982	0.511
14.019	0.522
14.056	0.528
14.0931	0.534
14.1301	0.539
14.1671	0.543
14.2041	0.548
14.2411	0.551
14.2781	0.551
14.3152	0.552
14.3522	0.554
14.3892	0.557
14.4262	0.557
14.4632	0.555
14.5003	0.552
14.5373	0.551
14.5743	0.549
14.6113	0.546
14.6483	0.54
14.6853	0.537
14.7224	0.532
14.7594	0.525
14.7964	0.52
14.8334	0.508
14.8704	0.494
14.9075	0.483
14.9445	0.479
14.9815	0.477
15.0185	0.477
15.0555	0.468
15.0926	0.46
15.1296	0.456
15.1666	0.453
15.2036	0.45
15.2406	0.444
15.2776	0.441
15.3147	0.433
15.3517	0.428
15.3887	0.424
15.4257	0.416
15.4627	0.405
15.4998	0.396
15.5368	0.39
15.5738	0.381
15.6108	0.373
15.6478	0.369
15.6848	0.364
15.7219	0.356
15.7589	0.35
15.7959	0.346
15.8329	0.339
15.8699	0.339
15.907	0.35
