Infrared Spectrum: 2-(n-PENTYL)-6-(5-NONYL) PYRAZINE
Formula: C18 H32 N2
CAS: 131346-15-1
State: LIQUID
Class: COBLENTZ
Instrument: Not specified, most likely a prism, grating, or hybrid spectrometer.
Sampling: TRANSMISSION
Path length: 0.003 CM
Resolution: 4
Origin: WYANDOTTE CHEMICALS CORP., WYANDOTTE, MICHIGAN, USA
MICROMETERS	TRANSMITTANCE
2.068	0.988
2.10878	0.974
2.14955	0.982
2.19033	0.955
2.23111	0.888
2.27188	0.9
2.31266	0.9
2.35344	0.917
2.39421	0.916
2.43499	0.933
2.47577	0.936
2.51654	0.952
2.55732	0.955
2.5981	0.95
2.63887	0.967
2.67965	0.957
2.72043	0.955
2.7612	0.948
2.80198	0.941
2.84275	0.929
2.88353	0.921
2.92431	0.914
2.96508	0.904
3.00586	0.89
3.04664	0.897
3.08741	0.89
3.12819	0.868
3.16897	0.859
3.20974	0.851
3.25052	0.804
3.2913	0.46
3.33207	0.453
3.37285	0.025
3.41363	0.047
3.4544	0.059
3.49518	0.051
3.53596	0.309
3.57673	0.674
3.61751	0.775
3.65829	0.794
3.69906	0.806
3.73984	0.827
3.78062	0.833
3.82139	0.868
3.86217	0.875
3.90295	0.885
3.94372	0.892
3.9845	0.907
4.02528	0.919
4.06605	0.922
4.10683	0.912
4.14761	0.912
4.18838	0.922
4.22916	0.917
4.26993	0.928
4.31071	0.929
4.35149	0.938
4.39226	0.929
4.43304	0.931
4.47382	0.929
4.51459	0.922
4.55537	0.94
4.59615	0.938
4.63692	0.94
4.6777	0.94
4.71848	0.946
4.75925	0.943
4.80003	0.948
4.84081	0.952
4.88158	0.943
4.92236	0.946
4.96314	0.946
5.00391	0.95
5.04469	0.957
5.08547	0.967
5.12624	0.967
5.16702	0.972
5.2078	0.962
5.24857	0.945
5.28935	0.943
5.33013	0.94
5.3709	0.936
5.41168	0.948
5.45246	0.946
5.49323	0.926
5.53401	0.907
5.57479	0.934
5.61556	0.936
5.65634	0.933
5.69712	0.922
5.73789	0.914
5.77867	0.849
5.81944	0.873
5.86022	0.875
5.901	0.821
5.94177	0.83
5.98255	0.856
6.02333	0.863
6.0641	0.864
6.10488	0.864
6.14566	0.871
6.18643	0.864
6.22721	0.852
6.26799	0.782
6.30876	0.676
6.34954	0.794
6.39032	0.803
6.43109	0.714
6.47187	0.354
6.51265	0.224
6.55342	0.707
6.5942	0.775
6.63498	0.777
6.67575	0.751
6.71653	0.66
6.75731	0.404
6.79808	0.094
6.83886	0.126
6.87964	0.198
6.92041	0.27
6.96119	0.352
7.00197	0.275
7.04274	0.078
7.08352	0.282
7.1243	0.551
7.16507	0.616
7.20585	0.494
7.24662	0.26
7.2874	0.532
7.32818	0.631
7.36895	0.659
7.40973	0.642
7.45051	0.631
7.49128	0.702
7.53206	0.753
7.57284	0.75
7.61361	0.707
7.65439	0.686
7.69517	0.664
7.73594	0.636
7.77672	0.616
7.8175	0.595
7.85827	0.547
7.89905	0.529
7.93983	0.498
7.9806	0.47
8.02138	0.53
8.06216	0.517
8.10293	0.419
8.14371	0.351
8.18449	0.464
8.22526	0.59
8.26604	0.628
8.30682	0.686
8.34759	0.69
8.38837	0.684
8.42915	0.702
8.46992	0.712
8.5107	0.587
8.55148	0.333
8.59225	0.188
8.63303	0.226
8.6738	0.349
8.71458	0.539
8.75536	0.595
8.79613	0.577
8.83691	0.642
8.87769	0.712
8.91846	0.69
8.95924	0.609
9.00002	0.556
9.04079	0.58
9.08157	0.571
9.12235	0.57
9.16312	0.537
9.2039	0.525
9.24468	0.556
9.28545	0.601
9.32623	0.631
9.36701	0.66
9.40778	0.683
9.44856	0.705
9.48934	0.736
9.53011	0.744
9.57089	0.755
9.61167	0.748
9.65244	0.739
9.69322	0.732
9.734	0.695
9.77477	0.561
9.81555	0.205
9.85633	0.212
9.8971	0.621
9.93788	0.719
9.97866	0.763
10.0194	0.791
10.0602	0.797
10.101	0.797
10.1418	0.782
10.1825	0.773
10.2233	0.755
10.2641	0.739
10.3049	0.717
10.3456	0.698
10.3864	0.69
10.4272	0.679
10.468	0.707
10.5088	0.739
10.5495	0.761
10.5903	0.785
10.6311	0.789
10.6719	0.785
10.7126	0.797
10.7534	0.808
10.7942	0.821
10.835	0.808
10.8757	0.779
10.9165	0.76
10.9573	0.755
10.9981	0.765
11.0388	0.77
11.0796	0.761
11.1204	0.736
11.1612	0.717
11.202	0.691
11.2427	0.645
11.2835	0.583
11.3243	0.494
11.3651	0.458
11.4058	0.611
11.4466	0.715
11.4874	0.787
11.5282	0.828
11.5689	0.856
11.6097	0.869
11.6505	0.89
11.6913	0.885
11.732	0.888
11.7728	0.885
11.8136	0.873
11.8544	0.859
11.8952	0.859
11.9359	0.866
11.9767	0.876
12.0175	0.888
12.0583	0.895
12.099	0.888
12.1398	0.886
12.1806	0.873
12.2214	0.856
12.2621	0.861
12.3029	0.856
12.3437	0.842
12.3845	0.825
12.4252	0.823
12.466	0.809
12.5068	0.818
12.5476	0.811
12.5884	0.797
12.6291	0.78
12.6699	0.772
12.7107	0.75
12.7515	0.743
12.7922	0.748
12.833	0.727
12.8738	0.698
12.9146	0.652
12.9553	0.625
12.9961	0.614
13.0369	0.645
13.0777	0.691
13.1185	0.727
13.1592	0.741
13.2	0.738
13.2408	0.719
13.2816	0.696
13.3223	0.681
13.3631	0.662
13.4039	0.659
13.4447	0.647
13.4854	0.635
13.5262	0.614
13.567	0.589
13.6078	0.553
13.6485	0.518
13.6893	0.489
13.7301	0.486
13.7709	0.523
13.8117	0.585
13.8524	0.647
13.8932	0.7
13.934	0.738
13.9748	0.756
14.0155	0.76
14.0563	0.767
14.0971	0.76
14.1379	0.76
14.1786	0.761
14.2194	0.767
14.2602	0.765
14.301	0.772
14.3417	0.772
14.3825	0.768
14.4233	0.767
14.4641	0.767
14.5049	0.758
14.5456	0.755
14.5864	0.748
14.6272	0.753
14.668	0.734
14.7087	0.743
14.7495	0.738
14.7903	0.731
14.8311	0.724
14.8718	0.722
14.9126	0.71
14.9534	0.708
14.9942	0.708
15.035	0.674
15.0757	0.601
15.1165	0.577
15.1573	0.616
15.1981	0.643
15.2388	0.666
15.2796	0.664
15.3204	0.667
15.3612	0.655
15.4019	0.648
15.4427	0.647
15.4835	0.635
15.5243	0.633
15.565	0.633
15.6058	0.628
15.6466	0.618
15.6874	0.599
15.7282	0.599
15.7689	0.595
15.8097	0.589
15.8505	0.58
15.8913	0.568
15.932	0.568
15.9728	0.559
