Infrared Spectrum: 5(6)ARSONO-8-HYDROXY QUINOLINE
Formula: C9 H8 N O4 As
CAS: 131378-56-8
State: SOLID (MULL)
Class: COBLENTZ
Instrument: Not specified, most likely a prism, grating, or hybrid spectrometer.
Sampling: TRANSMISSION
Resolution: 4
Origin: WYANDOTTE CHEMICALS CORP., WYANDOTTE, MICHIGAN, USA
MICROMETERS	TRANSMITTANCE
2.048	0.555
2.08686	0.557
2.12572	0.57
2.16458	0.573
2.20344	0.557
2.2423	0.554
2.28116	0.575
2.32002	0.596
2.35888	0.596
2.39775	0.594
2.43661	0.599
2.47547	0.612
2.51433	0.622
2.55319	0.645
2.59205	0.64
2.63091	0.656
2.66977	0.679
2.70863	0.662
2.74749	0.67
2.78635	0.662
2.82521	0.667
2.86407	0.649
2.90293	0.651
2.94179	0.643
2.98065	0.628
3.01951	0.627
3.05837	0.56
3.09724	0.499
3.1361	0.448
3.17496	0.397
3.21382	0.316
3.25268	0.262
3.29154	0.231
3.3304	0.105
3.36926	0.045
3.40812	0.045
3.44698	0.051
3.48584	0.058
3.5247	0.115
3.56356	0.157
3.60242	0.152
3.64128	0.165
3.68014	0.162
3.719	0.153
3.75787	0.163
3.79673	0.175
3.83559	0.163
3.87445	0.176
3.91331	0.17
3.95217	0.181
3.99103	0.184
4.02989	0.186
4.06875	0.186
4.10761	0.191
4.14647	0.184
4.18533	0.173
4.22419	0.175
4.26305	0.163
4.30191	0.188
4.34077	0.21
4.37963	0.207
4.4185	0.205
4.45736	0.223
4.49622	0.241
4.53508	0.26
4.57394	0.282
4.6128	0.314
4.65166	0.327
4.69052	0.34
4.72938	0.358
4.76824	0.358
4.8071	0.32
4.84596	0.335
4.88482	0.379
4.92368	0.405
4.96254	0.429
5.0014	0.437
5.04026	0.442
5.07912	0.416
5.11799	0.431
5.15685	0.465
5.19571	0.482
5.23457	0.512
5.27343	0.542
5.31229	0.533
5.35115	0.533
5.39001	0.562
5.42887	0.567
5.46773	0.591
5.50659	0.607
5.54545	0.619
5.58431	0.63
5.62317	0.649
5.66203	0.64
5.70089	0.638
5.73975	0.661
5.77862	0.646
5.81748	0.64
5.85634	0.648
5.8952	0.649
5.93406	0.677
5.97292	0.688
6.01178	0.661
6.05064	0.572
6.0895	0.307
6.12836	0.45
6.16722	0.379
6.20608	0.181
6.24494	0.324
6.2838	0.444
6.32266	0.346
6.36152	0.225
6.40038	0.277
6.43924	0.329
6.47811	0.411
6.51697	0.423
6.55583	0.403
6.59469	0.418
6.63355	0.445
6.67241	0.484
6.71127	0.444
6.75013	0.26
6.78899	0.188
6.82785	0.222
6.86671	0.322
6.90557	0.423
6.94443	0.551
6.98329	0.512
7.02215	0.447
7.06101	0.529
7.09987	0.447
7.13874	0.354
7.1776	0.332
7.21646	0.249
7.25532	0.307
7.29418	0.486
7.33304	0.614
7.3719	0.606
7.41076	0.513
7.44962	0.427
7.48848	0.241
7.52734	0.17
7.5662	0.217
7.60506	0.162
7.64392	0.239
7.68278	0.353
7.72164	0.432
7.7605	0.473
7.79937	0.461
7.83823	0.457
7.87709	0.52
7.91595	0.523
7.95481	0.5
7.99367	0.529
8.03253	0.585
8.07139	0.614
8.11025	0.481
8.14911	0.481
8.18797	0.585
8.22683	0.517
8.26569	0.388
8.30455	0.482
8.34341	0.559
8.38227	0.615
8.42113	0.662
8.45999	0.687
8.49886	0.664
8.53772	0.675
8.57658	0.706
8.61544	0.742
8.6543	0.758
8.69316	0.794
8.73202	0.653
8.77088	0.769
8.80974	0.805
8.8486	0.82
8.88746	0.846
8.92632	0.862
8.96518	0.87
9.00404	0.863
9.0429	0.696
9.08176	0.687
9.12062	0.805
9.15949	0.807
9.19835	0.763
9.23721	0.73
9.27607	0.696
9.31493	0.573
9.35379	0.489
9.39265	0.581
9.43151	0.653
9.47037	0.711
9.50923	0.73
9.54809	0.766
9.58695	0.805
9.62581	0.811
9.66467	0.821
9.70353	0.871
9.74239	0.896
9.78125	0.914
9.82012	0.92
9.85898	0.936
9.89784	0.944
9.9367	0.943
9.97556	0.94
10.0144	0.94
10.0533	0.927
10.0921	0.837
10.131	0.844
10.1699	0.901
10.2087	0.896
10.2476	0.884
10.2864	0.846
10.3253	0.868
10.3642	0.863
10.403	0.842
10.4419	0.824
10.4807	0.805
10.5196	0.766
10.5585	0.714
10.5973	0.606
10.6362	0.572
10.675	0.607
10.7139	0.659
10.7528	0.661
10.7916	0.661
10.8305	0.643
10.8694	0.612
10.9082	0.593
10.9471	0.562
10.9859	0.528
11.0248	0.481
11.0637	0.431
11.1025	0.364
11.1414	0.316
11.1802	0.249
11.2191	0.21
11.258	0.2
11.2968	0.197
11.3357	0.178
11.3745	0.137
11.4134	0.126
11.4523	0.119
11.4911	0.094
11.53	0.085
11.5688	0.095
11.6077	0.084
11.6466	0.079
11.6854	0.082
11.7243	0.089
11.7631	0.095
11.802	0.098
11.8409	0.116
11.8797	0.137
11.9186	0.166
11.9574	0.188
11.9963	0.2
12.0352	0.209
12.074	0.209
12.1129	0.197
12.1517	0.155
12.1906	0.119
12.2295	0.121
12.2683	0.137
12.3072	0.139
12.3461	0.153
12.3849	0.178
12.4238	0.209
12.4626	0.249
12.5015	0.241
12.5404	0.192
12.5792	0.199
12.6181	0.226
12.6569	0.231
12.6958	0.204
12.7347	0.175
12.7735	0.194
12.8124	0.213
12.8512	0.243
12.8901	0.257
12.929	0.259
12.9678	0.265
13.0067	0.265
13.0455	0.27
13.0844	0.283
13.1233	0.293
13.1621	0.296
13.201	0.301
13.2398	0.277
13.2787	0.235
13.3176	0.155
13.3564	0.129
13.3953	0.145
13.4341	0.178
13.473	0.21
13.5119	0.273
13.5507	0.325
13.5896	0.374
13.6285	0.435
13.6673	0.466
13.7062	0.515
13.745	0.544
13.7839	0.573
13.8228	0.599
13.8616	0.617
13.9005	0.632
13.9393	0.661
13.9782	0.695
14.0171	0.716
14.0559	0.729
14.0948	0.719
14.1336	0.662
14.1725	0.557
14.2114	0.479
14.2502	0.492
14.2891	0.567
14.3279	0.62
14.3668	0.67
14.4057	0.701
14.4445	0.729
14.4834	0.739
14.5222	0.761
14.5611	0.776
14.6	0.777
14.6388	0.799
14.6777	0.81
14.7165	0.813
14.7554	0.811
14.7943	0.815
14.8331	0.815
14.872	0.816
14.9109	0.823
14.9497	0.826
14.9886	0.815
15.0274	0.784
15.0663	0.726
15.1052	0.717
15.144	0.734
15.1829	0.773
15.2217	0.795
15.2606	0.799
15.2995	0.799
15.3383	0.8
15.3772	0.799
15.416	0.799
15.4549	0.786
15.4938	0.776
15.5326	0.761
15.5715	0.763
15.6103	0.752
15.6492	0.758
15.6881	0.74
15.7269	0.721
15.7658	0.705
15.8046	0.698
15.8435	0.688
15.8824	0.674
15.9212	0.649
15.9601	0.625
15.9989	0.615
