Infrared Spectrum: YTTRIUM OXIDE
Formula: Y2 O3
CAS: 1314-36-9
State: SOLID (CsI PELLET)
Class: COBLENTZ
Instrument: Not specified, most likely a grating spectrometer.
Sampling: TRANSMISSION
Resolution: 4
Origin: DESOTO CHEMICAL COATINGS, INC.
1/CM	TRANSMITTANCE
198.67	0.862
209.313	0.848
219.956	0.847
230.599	0.854
241.242	0.851
251.885	0.81
262.528	0.816
273.171	0.814
283.814	0.792
294.457	0.759
305.1	0.691
315.743	0.3442
326.386	0.585
337.029	0.58
347.672	0.195
358.315	0.546
368.958	0.562
379.602	0.2551
390.245	0.082
400.888	0.078
411.531	0.117
422.174	0.131
432.817	0.173
443.46	0.223
454.103	0.278
464.746	0.268
475.389	0.266
486.032	0.312
496.675	0.33
507.318	0.332
517.961	0.343
528.604	0.4019
539.247	0.498
549.89	0.513
560.533	0.356
571.176	0.308
581.819	0.335
592.462	0.411
603.105	0.524
613.748	0.592
624.391	0.633
635.034	0.636
645.677	0.633
656.32	0.644
666.963	0.663
677.606	0.681
688.249	0.696
698.892	0.712
709.535	0.725
720.178	0.736
730.822	0.748
741.465	0.755
752.108	0.766
762.751	0.77
773.394	0.776
784.037	0.782
794.68	0.78
805.323	0.783
815.966	0.787
826.609	0.79
837.252	0.795
847.895	0.802
858.538	0.81
869.181	0.815
879.824	0.822
890.467	0.835
901.11	0.838
911.753	0.84
922.396	0.843
933.039	0.848
943.682	0.846
954.325	0.848
964.968	0.85
975.611	0.848
986.254	0.838
996.897	0.83
1007.54	0.818
1018.18	0.802
1028.83	0.788
1039.47	0.786
1050.11	0.782
1060.76	0.783
1071.4	0.786
1082.04	0.783
1092.68	0.78
1103.33	0.778
1113.97	0.78
1124.61	0.782
1135.26	0.787
1145.9	0.794
1156.54	0.795
1167.19	0.791
1177.83	0.796
1188.47	0.799
1199.11	0.803
1209.76	0.806
1220.4	0.8
1231.04	0.782
1241.69	0.783
1252.33	0.795
1262.97	0.799
1273.62	0.802
1284.26	0.807
1294.9	0.808
1305.55	0.814
1316.19	0.816
1326.83	0.812
1337.47	0.81
1348.12	0.802
1358.76	0.783
1369.4	0.751
1380.05	0.763
1390.69	0.772
1401.33	0.775
1411.98	0.778
1422.62	0.783
1433.26	0.784
1443.9	0.796
1454.55	0.802
1465.19	0.804
1475.83	0.812
1486.48	0.816
1497.12	0.82
1507.76	0.822
1518.41	0.831
1529.05	0.824
1539.69	0.831
1550.33	0.832
1560.98	0.834
1571.62	0.835
1582.26	0.839
1592.91	0.839
1603.55	0.839
1614.19	0.84
1624.84	0.847
1635.48	0.86
1646.12	0.864
1656.77	0.863
1667.41	0.863
1678.05	0.86
1688.69	0.859
1699.34	0.858
1709.98	0.856
1720.62	0.846
1731.27	0.85
1741.91	0.852
1752.55	0.858
1763.2	0.867
1773.84	0.868
1784.48	0.877
1795.12	0.875
1805.77	0.875
1816.41	0.874
1827.05	0.872
1837.7	0.872
1848.34	0.867
1858.98	0.866
1869.63	0.863
1880.27	0.863
1890.91	0.863
1901.55	0.858
1912.2	0.86
1922.84	0.86
1933.48	0.852
1944.13	0.854
1954.77	0.85
1965.41	0.852
1976.06	0.848
1986.7	0.848
1997.34	0.84
2007.99	0.839
2018.63	0.839
2029.27	0.838
2039.91	0.8349
2050.56	0.834
2061.2	0.832
2071.84	0.832
2082.49	0.8337
2093.13	0.832
2103.77	0.832
2114.42	0.83
2125.06	0.828
2135.7	0.827
2146.34	0.826
2156.99	0.8237
2167.63	0.8214
2178.27	0.8187
2188.92	0.815
2199.56	0.8133
2210.2	0.8117
2220.85	0.808
2231.49	0.8066
2242.13	0.8036
2252.77	0.8
2263.42	0.7986
2274.06	0.798
2284.7	0.795
2295.35	0.794
2305.99	0.791
2316.63	0.789
2327.28	0.7865
2337.92	0.7784
2348.56	0.7714
2359.21	0.768
2369.85	0.771
2380.49	0.7674
2391.13	0.7653
2401.78	0.7677
2412.42	0.7686
2423.06	0.7677
2433.71	0.7633
2444.35	0.7593
2454.99	0.758
2465.64	0.7552
2476.28	0.7542
2486.92	0.754
2497.56	0.7484
2508.21	0.7453
2518.85	0.743
2529.49	0.7392
2540.14	0.739
2550.78	0.739
2561.42	0.736
2572.07	0.7331
2582.71	0.732
2593.35	0.728
2603.99	0.727
2614.64	0.725
2625.28	0.7209
2635.92	0.7189
2646.57	0.717
2657.21	0.715
2667.85	0.712
2678.5	0.709
2689.14	0.7088
2699.78	0.7048
2710.43	0.701
2721.07	0.7
2731.71	0.6966
2742.35	0.6928
2753	0.692
2763.64	0.691
2774.28	0.6887
2784.93	0.6843
2795.57	0.684
2806.21	0.6823
2816.86	0.679
2827.5	0.6779
2838.14	0.675
2848.78	0.6702
2859.43	0.6646
2870.07	0.656
2880.71	0.653
2891.36	0.652
2902	0.65
2912.64	0.6445
2923.29	0.6379
2933.93	0.6263
2944.57	0.6229
2955.21	0.6246
2965.86	0.628
2976.5	0.628
2987.14	0.629
2997.79	0.629
3008.43	0.6283
3019.07	0.6273
3029.72	0.627
3040.36	0.6233
3051	0.618
3061.65	0.618
3072.29	0.6184
3082.93	0.617
3093.57	0.614
3104.22	0.6122
3114.86	0.609
3125.5	0.6051
3136.15	0.602
3146.79	0.6
3157.43	0.5982
3168.08	0.594
3178.72	0.592
3189.36	0.589
3200	0.586
3210.65	0.582
3221.29	0.5799
3231.93	0.5759
3242.58	0.569
3253.22	0.57
3263.86	0.566
3274.51	0.5637
3285.15	0.561
3295.79	0.5578
3306.43	0.554
3317.08	0.5516
3327.72	0.5488
3338.36	0.545
3349.01	0.5395
3359.65	0.537
3370.29	0.5337
3380.94	0.532
3391.58	0.529
3402.22	0.526
3412.87	0.524
3423.51	0.5216
3434.15	0.52
3444.79	0.516
3455.44	0.513
3466.08	0.513
3476.72	0.513
3487.37	0.512
3498.01	0.511
3508.65	0.509
3519.3	0.508
3529.94	0.508
3540.58	0.508
3551.22	0.5068
3561.87	0.506
3572.51	0.506
3583.15	0.5073
3593.8	0.51
3604.44	0.5083
3615.08	0.5087
3625.73	0.5087
3636.37	0.51
3647.01	0.509
3657.65	0.509
3668.3	0.5092
3678.94	0.508
3689.58	0.508
3700.23	0.506
3710.87	0.505
3721.51	0.5011
3732.16	0.4982
3742.8	0.4941
3753.44	0.4939
3764.09	0.493
3774.73	0.49
3785.37	0.49
3796.01	0.487
3806.66	0.486
3817.3	0.485
3827.94	0.479
3838.59	0.479
3849.23	0.478
3859.87	0.4768
3870.52	0.4728
3881.16	0.469
3891.8	0.467
3902.44	0.466
3913.09	0.4646
3923.73	0.463
3934.37	0.4645
3945.02	0.462
3955.66	0.459
3966.3	0.459
3976.95	0.4577
3987.59	0.453
