Infrared Spectrum: cis-1,2-Cyclohexanedicarboxylic anhydride
Formula: C 8 H 10 O 3
CAS: 13149-00-3
State: gas
Origin: EPA-IR VAPOR PHASE LIBRARY
1/CM	ABSORBANCE
549.9	0.01119
559.547	0.0158
569.193	0.01728
578.84	0.01323
588.486	0.00849
598.133	0.00835
607.779	0.00784
617.426	0.005
627.072	0.0036604
636.719	0.003254
646.365	0.00303
656.012	0.003254
665.658	0.003346
675.305	0.0041333
684.951	0.00552
694.598	0.00863
704.245	0.01208
713.891	0.01079
723.538	0.00765
733.184	0.01158
742.831	0.01536
752.477	0.01319
762.124	0.00864
771.77	0.00998
781.417	0.01192
791.063	0.0119
800.71	0.0102
810.356	0.0074
820.003	0.00467
829.649	0.0057
839.296	0.00829
848.943	0.01004
858.589	0.01135
868.236	0.0206
877.882	0.04863
887.529	0.08656
897.175	0.15892
906.822	0.23255
916.468	0.2126
926.115	0.10671
935.761	0.05044
945.408	0.03067
955.054	0.03976
964.701	0.07826
974.347	0.09599
983.994	0.07295
993.64	0.05009
1003.29	0.03952
1012.93	0.0464
1022.58	0.06858
1032.23	0.06822
1041.87	0.03693
1051.52	0.026
1061.17	0.02678
1070.81	0.02664
1080.46	0.02577
1090.11	0.03878
1099.75	0.05831
1109.4	0.05337
1119.05	0.0286
1128.69	0.01637
1138.34	0.01582
1147.99	0.0167
1157.63	0.01725
1167.28	0.02241
1176.92	0.03458
1186.57	0.04724
1196.22	0.06747
1205.86	0.09948
1215.51	0.11946
1225.16	0.10925
1234.8	0.07946
1244.45	0.05078
1254.1	0.03096
1263.74	0.02179
1273.39	0.01808
1283.04	0.01455
1292.68	0.01384
1302.33	0.01545
1311.98	0.01867
1321.62	0.02458
1331.27	0.02345
1340.92	0.01579
1350.56	0.01163
1360.21	0.01017
1369.86	0.00782
1379.5	0.006
1389.15	0.00544
1398.79	0.00524
1408.44	0.00533
1418.09	0.00573
1427.73	0.00749
1437.38	0.01345
1447.03	0.02519
1456.67	0.03278
1466.32	0.02374
1475.97	0.01311
1485.61	0.0078
1495.26	0.00561
1504.91	0.00462
1514.55	0.0040628
1524.2	0.0038528
1533.85	0.0037722
1543.49	0.0035068
1553.14	0.003326
1562.79	0.003129
1572.43	0.003087
1582.08	0.003154
1591.73	0.003267
1601.37	0.003245
1611.02	0.003321
1620.67	0.00352472
1630.31	0.0037587
1639.96	0.0039513
1649.6	0.0044667
1659.25	0.00512
1668.9	0.0057
1678.54	0.00553
1688.19	0.00547
1697.84	0.00599
1707.48	0.007
1717.13	0.00899
1726.78	0.01215
1736.42	0.0165
1746.07	0.02228
1755.72	0.03171
1765.36	0.04831
1775.01	0.08124
1784.66	0.16434
1794.3	0.35335
1803.95	0.55223
1813.6	0.51092
1823.24	0.25633
1832.89	0.09642
1842.54	0.05724
1852.18	0.06092
1861.83	0.08458
1871.47	0.099
1881.12	0.08113
1890.77	0.0476
1900.41	0.02375
1910.06	0.01357
1919.71	0.01005
1929.35	0.00882
1939	0.00805
1948.65	0.00706
1958.29	0.00583
1967.94	0.0053
1977.59	0.00497
1987.23	0.00504
1996.88	0.00529
2006.53	0.00537
2016.17	0.00501
2025.82	0.0044727
2035.47	0.0039421
2045.11	0.003746
2054.76	0.0037932
2064.41	0.0038839
2074.05	0.0039775
2083.7	0.004144
2093.35	0.00454
2102.99	0.00496
2112.64	0.00543
2122.28	0.0056
2131.93	0.0054
2141.58	0.00501
2151.22	0.00463
2160.87	0.0044334
2170.52	0.00456
2180.16	0.00463
2189.81	0.00473
2199.46	0.0046
2209.1	0.0041551
2218.75	0.003807
2228.4	0.00361716
2238.04	0.0036716
2247.69	0.0034972
2257.34	0.003325
2266.98	0.003129
2276.63	0.002927
2286.28	0.002881
2295.92	0.002798
2305.57	0.002756
2315.22	0.002709
2324.86	0.002778
2334.51	0.002745
2344.16	0.002666
2353.8	0.00264
2363.45	0.00253
2373.09	0.002637
2382.74	0.002672
2392.39	0.002754
2402.03	0.002794
2411.68	0.00287
2421.33	0.002837
2430.97	0.002693
2440.62	0.002689
2450.27	0.002534
2459.91	0.0023
2469.56	0.00226
2479.21	0.00218
2488.85	0.00225
2498.5	0.00228
2508.15	0.00223
2517.79	0.00215
2527.44	0.00209
2537.09	0.00204
2546.73	0.0021
2556.38	0.00206
2566.03	0.00193
2575.67	0.00193
2585.32	0.00186
2594.96	0.00185
2604.61	0.00183
2614.26	0.0018
2623.9	0.00184
2633.55	0.00184
2643.2	0.00212
2652.84	0.00251
2662.49	0.002788
2672.14	0.00285
2681.78	0.002623
2691.43	0.00243
2701.08	0.00227
2710.72	0.00211
2720.37	0.00206
2730.02	0.00201
2739.66	0.00192
2749.31	0.0019
2758.96	0.00191
2768.6	0.00197
2778.25	0.00219
2787.9	0.00261
2797.54	0.003085
2807.19	0.003404
2816.84	0.0036418
2826.48	0.003801
2836.13	0.0041086
2845.77	0.0062
2855.42	0.01565
2865.07	0.03495
2874.71	0.04606
2884.36	0.03792
2894.01	0.03122
2903.65	0.02848
2913.3	0.02858
2922.95	0.03873
2932.59	0.06428
2942.24	0.10358
2951.89	0.14347
2961.53	0.13116
2971.18	0.07191
2980.83	0.02903
2990.47	0.0095
3000.12	0.0051
3009.77	0.003414
3019.41	0.002584
3029.06	0.00238
3038.71	0.00217
3048.35	0.00162
3058	0.00145
3067.64	0.00141
3077.29	0.00132
3086.94	0.0013
3096.58	0.00102
3106.23	0.00069
3115.88	0.0004
3125.52	0.0005
3135.17	0.00031
3144.82	5e-05
3154.46	0.00022
3164.11	0.00012
3173.76	0.00013
3183.4	0
3193.05	0.00011
3202.7	0.00012
3212.34	0.00021
3221.99	0.00017
3231.64	0.00011
3241.28	0.00024
3250.93	0.0003
3260.58	0.0002
3270.22	0.00046
3279.87	0.00023
3289.52	0.00023
3299.16	0.00012
3308.81	5e-05
3318.45	0.00054
3328.1	0.00039
3337.75	0.00034
3347.39	0.00034
3357.04	0.00045
3366.69	0.00052
3376.33	0.00064
3385.98	0.00066
3395.63	0.00083
3405.27	0.00081
3414.92	0.00067
3424.57	0.00062
3434.21	0.0008
3443.86	0.00074
3453.51	0.00081
3463.15	0.0011
3472.8	0.00107
3482.45	0.00092
3492.09	0.00108
3501.74	0.00107
3511.39	0.00117
3521.03	0.00143
3530.68	0.00143
3540.33	0.00157
3549.97	0.00161
3559.62	0.00183
3569.26	0.00196
3578.91	0.00228
3588.56	0.002674
3598.2	0.003307
3607.85	0.00342
3617.5	0.00393
3627.14	0.0044773
3636.79	0.00541
3646.44	0.00684
3656.08	0.00745
3665.73	0.00643
3675.38	0.00512
3685.02	0.0039174
3694.67	0.003093
3704.32	0.00277
3713.96	0.002663
3723.61	0.002566
3733.26	0.00243
3742.9	0.00245
3752.55	0.00242
3762.2	0.00214
3771.84	0.00214
3781.49	0.00222
3791.13	0.00221
3800.78	0.00227
3810.43	0.00211
3820.07	0.00207
3829.72	0.00211
3839.37	0.0022
3849.01	0.00219
3858.66	0.00219
3868.31	0.00217
3877.95	0.00208
3887.6	0.00229
3897.25	0.00238
3906.89	0.00221
3916.54	0.00234
3926.19	0.00245
3935.83	0.00235
3945.48	0.0024
3955.13	0.00231
3964.77	0.00237
3974.42	0.00237
3984.07	0.00247
3993.71	0.00226
