Infrared Spectrum: 4,4'-METHYLENE DI-CARBANILIDE
Formula: C27 H24 N4 O2
CAS: 13140-83-5
State: SOLID (KBr PELLET)
Melting point: ABOVE 300 C
Class: COBLENTZ
Instrument: Not specified, most likely a prism, grating, or hybrid spectrometer.
Sampling: TRANSMISSION
Resolution: 4
Origin: TENNESSEE EASTMAN COMPANY, RESEARCH LABORATORIES
MICROMETERS	TRANSMITTANCE
2.034	0.894
2.0749	0.901
2.11579	0.904
2.15669	0.909
2.19759	0.912
2.23849	0.916
2.27938	0.918
2.32028	0.919
2.36118	0.921
2.40207	0.921
2.44297	0.923
2.48387	0.923
2.52476	0.923
2.56566	0.923
2.60656	0.923
2.64746	0.924
2.68835	0.916
2.72925	0.764
2.77015	0.65
2.81104	0.575
2.85194	0.5
2.89284	0.431
2.93373	0.346
2.97463	0.261
3.01553	0.122
3.05643	0.213
3.09732	0.416
3.13822	0.569
3.17912	0.653
3.22001	0.667
3.26091	0.648
3.30181	0.691
3.3427	0.829
3.3836	0.827
3.4245	0.796
3.4654	0.88
3.50629	0.878
3.54719	0.902
3.58809	0.907
3.62898	0.911
3.66988	0.928
3.71078	0.94
3.75167	0.947
3.79257	0.95
3.83347	0.952
3.87437	0.952
3.91526	0.948
3.95616	0.95
3.99706	0.953
4.03795	0.96
4.07885	0.967
4.11975	0.97
4.16065	0.972
4.20154	0.972
4.24244	0.97
4.28334	0.957
4.32423	0.953
4.36513	0.962
4.40603	0.962
4.44692	0.965
4.48782	0.972
4.52872	0.976
4.56962	0.976
4.61051	0.976
4.65141	0.974
4.69231	0.97
4.7332	0.97
4.7741	0.97
4.815	0.97
4.85589	0.972
4.89679	0.972
4.93769	0.972
4.97859	0.974
5.01948	0.977
5.06038	0.974
5.10128	0.957
5.14217	0.94
5.18307	0.95
5.22397	0.952
5.26486	0.94
5.30576	0.948
5.34666	0.948
5.38756	0.948
5.42845	0.957
5.46935	0.957
5.51025	0.95
5.55114	0.928
5.59204	0.918
5.63294	0.919
5.67383	0.921
5.71473	0.895
5.75563	0.854
5.79653	0.773
5.83742	0.646
5.87832	0.549
5.91922	0.426
5.96011	0.252
6.00101	0.143
6.04191	0.092
6.0828	0.027
6.1237	0.095
6.1646	0.226
6.2055	0.129
6.24639	0.02
6.28729	0.121
6.32819	0.348
6.36908	0.049
6.40998	0.022
6.45088	0.023
6.49178	0.058
6.53267	0.11
6.57357	0.08
6.61447	0.116
6.65536	0.133
6.69626	0.377
6.73716	0.551
6.77805	0.684
6.81895	0.725
6.85985	0.621
6.90075	0.186
6.94164	0.469
6.98254	0.639
7.02344	0.638
7.06433	0.341
7.10523	0.578
7.14613	0.732
7.18702	0.771
7.22792	0.784
7.26882	0.798
7.30972	0.8
7.35061	0.773
7.39151	0.733
7.43241	0.675
7.4733	0.612
7.5142	0.539
7.5551	0.358
7.59599	0.163
7.63689	0.15
7.67779	0.22
7.71869	0.296
7.75958	0.472
7.80048	0.568
7.84138	0.588
7.88227	0.592
7.92317	0.542
7.96407	0.477
8.00496	0.303
8.04586	0.156
8.08676	0.087
8.12766	0.112
8.16855	0.228
8.20945	0.337
8.25035	0.366
8.29124	0.377
8.33214	0.409
8.37304	0.496
8.41394	0.549
8.45483	0.522
8.49573	0.547
8.53663	0.696
8.57752	0.726
8.61842	0.706
8.65932	0.718
8.70021	0.773
8.74111	0.783
8.78201	0.786
8.82291	0.779
8.8638	0.769
8.9047	0.749
8.9456	0.718
8.98649	0.682
9.02739	0.684
9.06829	0.733
9.10918	0.759
9.15008	0.776
9.19098	0.773
9.23188	0.738
9.27277	0.728
9.31367	0.759
9.35457	0.767
9.39546	0.766
9.43636	0.745
9.47726	0.716
9.51815	0.737
9.55905	0.784
9.59995	0.807
9.64085	0.812
9.68174	0.783
9.72264	0.767
9.76354	0.774
9.80443	0.718
9.84533	0.803
9.88623	0.827
9.92712	0.841
9.96802	0.844
10.0089	0.848
10.0498	0.854
10.0907	0.868
10.1316	0.868
10.1725	0.866
10.2134	0.87
10.2543	0.877
10.2952	0.88
10.3361	0.868
10.377	0.856
10.4179	0.858
10.4588	0.882
10.4997	0.887
10.5406	0.887
10.5815	0.889
10.6224	0.899
10.6633	0.906
10.7042	0.911
10.7451	0.911
10.786	0.911
10.8269	0.909
10.8678	0.882
10.9087	0.831
10.9496	0.812
10.9904	0.837
11.0313	0.846
11.0722	0.827
11.1131	0.783
11.154	0.762
11.1949	0.8
11.2358	0.848
11.2767	0.877
11.3176	0.89
11.3585	0.902
11.3994	0.907
11.4403	0.906
11.4812	0.887
11.5221	0.849
11.563	0.824
11.6039	0.771
11.6448	0.699
11.6857	0.723
11.7266	0.771
11.7675	0.796
11.8084	0.805
11.8493	0.805
11.8902	0.786
11.9311	0.759
11.972	0.738
12.0129	0.73
12.0538	0.72
12.0947	0.708
12.1356	0.701
12.1765	0.697
12.2174	0.689
12.2583	0.682
12.2992	0.689
12.34	0.708
12.3809	0.715
12.4218	0.713
12.4627	0.691
12.5036	0.697
12.5445	0.721
12.5854	0.728
12.6263	0.725
12.6672	0.691
12.7081	0.617
12.749	0.564
12.7899	0.587
12.8308	0.633
12.8717	0.648
12.9126	0.624
12.9535	0.578
12.9944	0.546
13.0353	0.532
13.0762	0.505
13.1171	0.453
13.158	0.392
13.1989	0.336
13.2398	0.317
13.2807	0.327
13.3216	0.358
13.3625	0.382
13.4034	0.394
13.4443	0.394
13.4852	0.389
13.5261	0.395
13.567	0.426
13.6079	0.474
13.6488	0.564
13.6897	0.616
13.7305	0.643
13.7714	0.65
13.8123	0.65
13.8532	0.639
13.8941	0.595
13.935	0.546
13.9759	0.535
14.0168	0.559
14.0577	0.585
14.0986	0.592
14.1395	0.592
14.1804	0.578
14.2213	0.551
14.2622	0.518
14.3031	0.482
14.344	0.433
14.3849	0.375
14.4258	0.329
14.4667	0.32
14.5076	0.358
14.5485	0.436
14.5894	0.494
14.6303	0.544
14.6712	0.568
14.7121	0.573
14.753	0.576
14.7939	0.576
14.8348	0.575
14.8757	0.569
14.9166	0.563
14.9575	0.561
14.9984	0.558
15.0393	0.547
15.0801	0.532
15.121	0.518
15.1619	0.515
15.2028	0.51
15.2437	0.506
15.2846	0.503
15.3255	0.501
15.3664	0.501
15.4073	0.5
15.4482	0.5
15.4891	0.5
15.53	0.503
15.5709	0.505
15.6118	0.511
15.6527	0.518
15.6936	0.523
15.7345	0.532
15.7754	0.539
15.8163	0.546
15.8572	0.552
15.8981	0.561
15.939	0.568
15.9799	0.573
