Infrared Spectrum: 2,6-Dimethyldecane
Formula: C 12 H 26
CAS: 13150-81-7
State: gas
Instrument: HP-GC/MS/IRD
Origin: NIST Mass Spectrometry Data Center
1/CM	ABSORBANCE
550	4e-05
562	4e-05
574	0.000156
586	0.000124
598	5.2e-05
610	0.00012
622	0.00014
634	0
646	2e-05
658	0.000108
670	7.2e-05
682	3.2e-05
694	0.000104
706	0.000208
718	0.000348
730	0.000488
742	0.000496
754	0.000336
766	0.000228
778	0.000308
790	0.000196
802	0.0002
814	0.000188
826	0.000216
838	0.000196
850	0.000244
862	0.00016
874	0.00016
886	0.000228
898	0.000316
910	0.000436
922	0.0005
934	0.000428
946	0.000284
958	0.00026
970	0.000252
982	0.000212
994	0.00018
1006	0.000172
1018	0.000172
1030	0.0002
1042	0.000296
1054	0.000308
1066	0.000268
1078	0.000244
1090	0.00022
1102	0.000236
1114	0.000228
1126	0.00036
1138	0.000524
1150	0.00072
1162	0.000888
1174	0.000764
1186	0.000464
1198	0.00046
1210	0.00044
1222	0.000472
1234	0.000456
1246	0.000484
1258	0.000488
1270	0.000488
1282	0.000592
1294	0.000664
1306	0.000748
1318	0.000868
1330	0.001176
1342	0.001484
1354	0.001732
1366	0.002548
1378	0.003672
1390	0.003236
1402	0.00128
1414	0.000888
1426	0.000964
1438	0.001608
1450	0.003172
1462	0.00504
1474	0.00418
1486	0.00178
1498	0.000888
1510	0.00054
1522	0.000372
1534	0.000288
1546	0.00024
1558	0.000212
1570	0.000192
1582	0.00016
1594	0.000188
1606	0.000136
1618	0.000168
1630	0.000132
1642	0.000132
1654	0.00016
1666	0.000148
1678	0.000152
1690	0.000128
1702	0.000136
1714	0.000112
1726	8e-05
1738	9.2e-05
1750	6.8e-05
1762	7.6e-05
1774	5.6e-05
1786	4.8e-05
1798	6e-05
1810	6.4e-05
1822	4.8e-05
1834	2.8e-05
1846	4e-05
1858	2.4e-05
1870	4.4e-05
1882	3.2e-05
1894	1.6e-05
1906	3.6e-05
1918	1.6e-05
1930	3.2e-05
1942	8e-06
1954	2e-05
1966	2e-05
1978	1.6e-05
1990	2.8e-05
2002	2.8e-05
2014	2.4e-05
2026	2.8e-05
2038	2.4e-05
2050	2.8e-05
2062	3.2e-05
2074	2.4e-05
2086	3.2e-05
2098	8e-06
2110	1.2e-05
2122	8e-06
2134	1.6e-05
2146	3.2e-05
2158	2e-05
2170	3.6e-05
2182	3.6e-05
2194	3.6e-05
2206	4e-05
2218	8e-06
2230	3.6e-05
2242	3.2e-05
2254	4.4e-05
2266	4.4e-05
2278	6.4e-05
2290	5.6e-05
2302	7.2e-05
2314	4.4e-05
2326	8.4e-05
2338	8e-05
2350	8.4e-05
2362	8.8e-05
2374	0.000104
2386	9.2e-05
2398	8.8e-05
2410	9.2e-05
2422	9.2e-05
2434	9.6e-05
2446	7.6e-05
2458	8.8e-05
2470	8e-05
2482	0.0001
2494	0.000116
2506	0.0001
2518	0.000144
2530	0.000148
2542	0.000184
2554	0.0002
2566	0.000212
2578	0.000272
2590	0.0003
2602	0.000352
2614	0.000388
2626	0.000372
2638	0.000432
2650	0.00042
2662	0.000452
2674	0.00048
2686	0.000488
2698	0.000536
2710	0.000568
2722	0.000672
2734	0.000784
2746	0.000848
2758	0.000788
2770	0.000864
2782	0.001008
2794	0.001252
2806	0.001632
2818	0.002192
2830	0.003096
2842	0.00548
2854	0.010732
2866	0.014932
2878	0.0184
2890	0.017312
2902	0.019916
2914	0.0267
2926	0.035068
2938	0.036876
2950	0.030228
2962	0.039484
2974	0.027
2986	0.008872
2998	0.0043
3010	0.002596
3022	0.001844
3034	0.001456
3046	0.001236
3058	0.001052
3070	0.000936
3082	0.0009
3094	0.00074
3106	0.000696
3118	0.00062
3130	0.00054
3142	0.000508
3154	0.000504
3166	0.00048
3178	0.000452
3190	0.000392
3202	0.0003
3214	0.000248
3226	0.000192
3238	9.2e-05
3250	0.000124
3262	7.6e-05
3274	8e-05
3286	0.000112
3298	0.000124
3310	8e-05
3322	9.6e-05
3334	9.6e-05
3346	0.000124
3358	0.000104
3370	0.0001
3382	6e-05
3394	6.4e-05
3406	6.8e-05
3418	6e-05
3430	2e-05
3442	2.8e-05
3454	4.4e-05
3466	9.2e-05
3478	4e-05
3490	1.6e-05
3502	4e-05
3514	2.4e-05
3526	4e-06
3538	4e-05
3550	2e-05
3562	3.2e-05
3574	3.6e-05
3586	5.6e-05
3598	5.2e-05
3610	2.8e-05
3622	6.4e-05
3634	5.2e-05
3646	4.4e-05
3658	8e-06
3670	6.4e-05
3682	8.4e-05
3694	5.2e-05
3706	8e-05
3718	0.0001
3730	6.8e-05
3742	6.8e-05
3754	8.4e-05
3766	8.4e-05
3778	9.6e-05
3790	0.000104
3802	0.000136
3814	0.000108
3826	0.000108
3838	0.000128
