Infrared Spectrum: 4-Methyl-1-heptene
Formula: C 8 H 16
CAS: 13151-05-8
State: gas
Instrument: HP-GC/MS/IRD
Origin: NIST Mass Spectrometry Data Center
1/CM	ABSORBANCE
550	0.0002828
562	9.8e-05
574	8.12e-05
586	0.0001036
598	0.0001148
610	0.0004088
622	0.0006272
634	0.0006216
646	0.0003864
658	0.0002044
670	0.0002128
682	0.0001512
694	4.48e-05
706	5.88e-05
718	8.12e-05
730	0.000252
742	0.0003892
754	0.0002884
766	7.84e-05
778	2.24e-05
790	5.04e-05
802	0.0001372
814	0.00014
826	0.0003192
838	0.0003864
850	0.0004872
862	0.0006552
874	0.0008176
886	0.0013916
898	0.0032004
910	0.0062048
922	0.0054628
934	0.0023996
946	0.0013272
958	0.0013216
970	0.001456
982	0.0022512
994	0.0028728
1006	0.00196
1018	0.001008
1030	0.0007308
1042	0.0006412
1054	0.000588
1066	0.0004592
1078	0.0003248
1090	0.0002604
1102	0.0002828
1114	0.0003416
1126	0.000392
1138	0.0005992
1150	0.0007728
1162	0.0005908
1174	0.0002884
1186	0.0001316
1198	0.0001484
1210	0.0002436
1222	0.000308
1234	0.000294
1246	0.0003528
1258	0.0003556
1270	0.0003836
1282	0.0004368
1294	0.0004312
1306	0.0004452
1318	0.0004844
1330	0.0007
1342	0.0009744
1354	0.00112
1366	0.0015428
1378	0.0023492
1390	0.0023268
1402	0.0013244
1414	0.001134
1426	0.0014392
1438	0.0023828
1450	0.0035392
1462	0.0039172
1474	0.0029288
1486	0.0014448
1498	0.0006636
1510	0.0004172
1522	0.0003192
1534	0.0002828
1546	0.0002716
1558	0.0002324
1570	0.000224
1582	0.0002212
1594	0.0002324
1606	0.0003892
1618	0.0007952
1630	0.001918
1642	0.0024276
1654	0.0011144
1666	0.0003388
1678	0.0001764
1690	0.0001316
1702	0.0001092
1714	7e-05
1726	3.08e-05
1738	5.04e-05
1750	4.48e-05
1762	4.76e-05
1774	3.36e-05
1786	4.76e-05
1798	0.0001008
1810	0.0002212
1822	0.0005796
1834	0.000672
1846	0.0003304
1858	9.8e-05
1870	5.88e-05
1882	5.32e-05
1894	5.6e-05
1906	3.64e-05
1918	2.8e-05
1930	1.68e-05
1942	1.12e-05
1954	2.52e-05
1966	5.6e-05
1978	6.72e-05
1990	4.48e-05
2002	1.12e-05
2014	5.6e-06
2026	1.96e-05
2038	3.36e-05
2050	3.92e-05
2062	3.36e-05
2074	2.52e-05
2086	2.8e-05
2098	3.08e-05
2110	1.12e-05
2122	2.8e-05
2134	2.52e-05
2146	5.04e-05
2158	2.24e-05
2170	4.76e-05
2182	4.48e-05
2194	4.48e-05
2206	3.92e-05
2218	2.52e-05
2230	2.52e-05
2242	4.76e-05
2254	1.4e-05
2266	3.08e-05
2278	2.8e-05
2290	4.2e-05
2302	4.76e-05
2314	3.92e-05
2326	5.32e-05
2338	7.28e-05
2350	7e-05
2362	8.68e-05
2374	8.12e-05
2386	8.4e-05
2398	6.44e-05
2410	5.32e-05
2422	5.6e-05
2434	4.2e-05
2446	3.36e-05
2458	4.48e-05
2470	3.64e-05
2482	4.76e-05
2494	6.16e-05
2506	6.16e-05
2518	5.32e-05
2530	8.68e-05
2542	9.24e-05
2554	0.0001148
2566	0.00014
2578	0.0001708
2590	0.000182
2602	0.0001904
2614	0.0001932
2626	0.0002212
2638	0.0002296
2650	0.0002464
2662	0.0002744
2674	0.0002968
2686	0.0003164
2698	0.0003108
2710	0.0003556
2722	0.0004284
2734	0.0005572
2746	0.0005992
2758	0.0005432
2770	0.0005992
2782	0.000714
2794	0.0008876
2806	0.0011928
2818	0.0016548
2830	0.0026376
2842	0.00448
2854	0.0067592
2866	0.0092624
2878	0.0129416
2890	0.014616
2902	0.0166124
2914	0.02107
2926	0.0230916
2938	0.0218484
2950	0.0208124
2962	0.0267036
2974	0.0246792
2986	0.0119616
2998	0.0059976
3010	0.0042364
3022	0.0029344
3034	0.0021364
3046	0.0019376
3058	0.0022512
3070	0.0033208
3082	0.0046928
3094	0.0033208
3106	0.0012908
3118	0.0007924
3130	0.00063
3142	0.0005404
3154	0.0004956
3166	0.0004368
3178	0.0003836
3190	0.0003444
3202	0.0002464
3214	0.0002044
3226	0.0001512
3238	0.0001176
3250	0.0001092
3262	9.52e-05
3274	0.0001232
3286	8.12e-05
3298	0.0001092
3310	9.8e-05
3322	6.16e-05
3334	5.32e-05
3346	8.96e-05
3358	7.84e-05
3370	3.92e-05
3382	5.6e-05
3394	3.92e-05
3406	5.88e-05
3418	4.2e-05
3430	5.32e-05
3442	3.64e-05
3454	4.2e-05
3466	5.04e-05
3478	5.04e-05
3490	2.24e-05
3502	3.08e-05
3514	5.32e-05
3526	2.52e-05
3538	2.52e-05
3550	5.6e-06
3562	3.92e-05
3574	1.96e-05
3586	4.48e-05
3598	2.24e-05
3610	4.76e-05
3622	6.16e-05
3634	7.84e-05
3646	7.56e-05
3658	5.88e-05
3670	8.4e-05
3682	7.28e-05
3694	7.56e-05
3706	7.28e-05
3718	6.16e-05
3730	5.6e-05
3742	0.0001008
3754	0.0001148
3766	9.24e-05
3778	0.0001148
3790	0.0001036
3802	7.28e-05
3814	8.12e-05
3826	9.52e-05
3838	7.56e-05
