Infrared Spectrum: 3-Methyldecane
Formula: C 11 H 24
CAS: 13151-34-3
State: gas
Instrument: HP-GC/MS/IRD
Origin: NIST Mass Spectrometry Data Center
1/CM	ABSORBANCE
550	0.0002223
562	9.12e-05
574	0.0001596
586	5.7e-05
598	1.71e-05
610	9.12e-05
622	0.0001368
634	5.7e-05
646	0.0001254
658	9.69e-05
670	0.0001482
682	0.0002052
694	0.0003477
706	0.0004674
718	0.0006897
730	0.0006897
742	0.0006498
754	0.0005415
766	0.0005814
778	0.0006783
790	0.0004788
802	0.0003648
814	0.0002907
826	0.0002337
838	0.0002565
850	0.0002679
862	0.0002508
874	0.0002451
886	0.0002565
898	0.000342
910	0.0003192
922	0.0003306
934	0.0003249
946	0.0004047
958	0.000513
970	0.0007068
982	0.0006897
994	0.0005814
1006	0.0005415
1018	0.0005244
1030	0.0004617
1042	0.0003021
1054	0.0002793
1066	0.0002679
1078	0.0002964
1090	0.0002793
1102	0.0002622
1114	0.0002907
1126	0.0003819
1138	0.0004389
1150	0.00057
1162	0.0004503
1174	0.000342
1186	0.0003363
1198	0.0003021
1210	0.0003648
1222	0.0003534
1234	0.0004047
1246	0.0004959
1258	0.0005871
1270	0.0006897
1282	0.0007638
1294	0.0009063
1306	0.0010089
1318	0.000969
1330	0.0011229
1342	0.0015276
1354	0.0018639
1366	0.0022116
1378	0.0033744
1390	0.0028728
1402	0.0013623
1414	0.0010716
1426	0.0012597
1438	0.0021546
1450	0.0042066
1462	0.0063669
1474	0.004731
1486	0.0020634
1498	0.0010659
1510	0.0006897
1522	0.000513
1534	0.0004047
1546	0.0003363
1558	0.0003363
1570	0.0002337
1582	0.0002052
1594	0.0002109
1606	0.0001995
1618	0.0001995
1630	0.0001824
1642	0.000171
1654	0.0001881
1666	0.0002109
1678	0.000171
1690	0.0001482
1702	0.0001425
1714	0.000114
1726	8.55e-05
1738	8.55e-05
1750	7.41e-05
1762	7.41e-05
1774	7.98e-05
1786	6.27e-05
1798	6.84e-05
1810	5.7e-05
1822	5.7e-05
1834	5.7e-05
1846	4.56e-05
1858	3.42e-05
1870	5.7e-05
1882	2.28e-05
1894	2.28e-05
1906	2.28e-05
1918	1.14e-05
1930	1.71e-05
1942	5.7e-06
1954	1.71e-05
1966	0
1978	2.85e-05
1990	2.85e-05
2002	1.71e-05
2014	2.28e-05
2026	6.27e-05
2038	6.84e-05
2050	4.56e-05
2062	6.27e-05
2074	3.42e-05
2086	5.13e-05
2098	2.28e-05
2110	2.85e-05
2122	1.14e-05
2134	3.42e-05
2146	3.99e-05
2158	3.99e-05
2170	2.28e-05
2182	3.99e-05
2194	4.56e-05
2206	2.28e-05
2218	6.27e-05
2230	4.56e-05
2242	5.7e-05
2254	4.56e-05
2266	5.13e-05
2278	5.7e-05
2290	7.41e-05
2302	7.41e-05
2314	0.0001083
2326	9.69e-05
2338	0.0001197
2350	0.0001083
2362	0.0001254
2374	0.0001083
2386	0.0001083
2398	0.0001026
2410	0.000114
2422	0.0001254
2434	0.0001311
2446	0.0001083
2458	0.0001254
2470	7.98e-05
2482	0.0001197
2494	0.000114
2506	0.0001311
2518	0.0001425
2530	0.0001881
2542	0.0002109
2554	0.0002508
2566	0.000285
2578	0.0003192
2590	0.0003819
2602	0.0004104
2614	0.0004275
2626	0.000456
2638	0.0005016
2650	0.0005472
2662	0.0006156
2674	0.0006726
2686	0.0007011
2698	0.0007011
2710	0.0007239
2722	0.0007923
2734	0.0009348
2746	0.0010431
2758	0.0010374
2770	0.0011343
2782	0.0013167
2794	0.0016815
2806	0.0021603
2818	0.0029013
2830	0.0040983
2842	0.0070794
2854	0.0152418
2866	0.022743
2878	0.0232617
2890	0.0212439
2902	0.0227145
2914	0.0344508
2926	0.052782
2938	0.053865
2950	0.0373977
2962	0.0388797
2974	0.0338067
2986	0.0133152
2998	0.0062643
3010	0.0038418
3022	0.0026904
3034	0.0021546
3046	0.0017727
3058	0.0015504
3070	0.0013053
3082	0.0011913
3094	0.0010773
3106	0.0009519
3118	0.0008265
3130	0.0007467
3142	0.0006783
3154	0.0006384
3166	0.0005871
3178	0.0005358
3190	0.0004389
3202	0.0003876
3214	0.0002736
3226	0.0002451
3238	0.0002052
3250	0.0001824
3262	0.0001254
3274	0.0001539
3286	0.0001368
3298	0.0001653
3310	0.0001311
3322	0.0001482
3334	0.0001083
3346	0.0001311
3358	0.0001425
3370	0.0001482
3382	0.0001254
3394	0.0001368
3406	8.55e-05
3418	7.41e-05
3430	5.13e-05
3442	8.55e-05
3454	3.99e-05
3466	4.56e-05
3478	5.13e-05
3490	6.27e-05
3502	2.85e-05
3514	4.56e-05
3526	6.27e-05
3538	6.84e-05
3550	3.42e-05
3562	7.41e-05
3574	7.41e-05
3586	6.84e-05
3598	6.84e-05
3610	9.12e-05
3622	0.0001425
3634	0.0001254
3646	0.0001368
3658	0.0001197
3670	0.0001539
3682	0.0001425
3694	0.0001368
3706	0.0001254
3718	0.0001425
3730	0.0001311
3742	0.0001197
3754	0.0001311
3766	0.0001311
3778	0.0001767
3790	0.0001083
3802	0.0001482
3814	0.0001482
3826	0.0001767
3838	0.0001881
