Infrared Spectrum: cis-5-Methyl-2-hexene
Formula: C 7 H 14
CAS: 13151-17-2
State: gas
Instrument: HP-GC/MS/IRD
Origin: NIST Mass Spectrometry Data Center
1/CM	ABSORBANCE
550	0.0005066
562	0.0004216
574	0.000952
586	0.0010948
598	0.0005236
610	0.000238
622	0.0003196
634	0.0007718
646	0.0012138
658	0.0022338
670	0.003774
682	0.0051034
694	0.004539
706	0.0025398
718	0.0010506
730	0.0003604
742	0.0002244
754	1.7e-05
766	0.0001156
778	0.0002312
790	0.0003298
802	0.000476
814	0.0007276
826	0.000799
838	0.0005338
850	0.0004352
862	0.0004794
874	0.0003808
886	0.000306
898	0.0003604
910	0.0006018
922	0.0009452
934	0.0011356
946	0.000901
958	0.000476
970	0.0002958
982	0.000289
994	0.0004318
1006	0.000544
1018	0.000544
1030	0.000459
1042	0.0004386
1054	0.0004216
1066	0.0003434
1078	0.0003298
1090	0.0004352
1102	0.000544
1114	0.0005304
1126	0.0004454
1138	0.0004318
1150	0.00068
1162	0.001122
1174	0.0010846
1186	0.0004726
1198	0.0002482
1210	0.000289
1222	0.0004284
1234	0.0005372
1246	0.0004658
1258	0.0004726
1270	0.0007208
1282	0.0007038
1294	0.00051
1306	0.0004964
1318	0.000765
1330	0.001479
1342	0.0017306
1354	0.0019312
1366	0.0031994
1378	0.0044438
1390	0.0041242
1402	0.0032266
1414	0.0025228
1426	0.0019618
1438	0.0023868
1450	0.003468
1462	0.0042432
1474	0.003825
1486	0.0023222
1498	0.0012206
1510	0.000799
1522	0.0006256
1534	0.0006188
1546	0.0005304
1558	0.0004386
1570	0.0003264
1582	0.0003468
1594	0.000289
1606	0.0003774
1618	0.0004556
1630	0.0006732
1642	0.0009452
1654	0.001139
1666	0.0008976
1678	0.00051
1690	0.0002992
1702	0.0002414
1714	0.0002312
1726	0.0001972
1738	0.0001258
1750	0.000102
1762	8.16e-05
1774	0.000102
1786	6.8e-05
1798	8.5e-05
1810	0.0001224
1822	8.5e-05
1834	0.000102
1846	8.84e-05
1858	9.18e-05
1870	7.82e-05
1882	4.76e-05
1894	7.48e-05
1906	8.5e-05
1918	7.14e-05
1930	4.42e-05
1942	7.14e-05
1954	6.8e-05
1966	6.12e-05
1978	0.0001258
1990	0.0001394
2002	0.0001462
2014	0.000102
2026	9.18e-05
2038	9.52e-05
2050	5.1e-05
2062	3.4e-05
2074	7.14e-05
2086	1.7e-05
2098	2.04e-05
2110	1.02e-05
2122	3.74e-05
2134	5.78e-05
2146	2.04e-05
2158	3.06e-05
2170	4.76e-05
2182	5.44e-05
2194	3.06e-05
2206	4.76e-05
2218	1.36e-05
2230	1.02e-05
2242	2.04e-05
2254	3.4e-05
2266	5.78e-05
2278	5.44e-05
2290	5.44e-05
2302	7.14e-05
2314	7.14e-05
2326	4.08e-05
2338	6.46e-05
2350	7.48e-05
2362	0.0001054
2374	7.48e-05
2386	6.8e-05
2398	8.5e-05
2410	0.000102
2422	0.0001088
2434	0.000102
2446	0.0001088
2458	0.0001394
2470	0.0001224
2482	0.0001564
2494	0.0001224
2506	0.0001394
2518	0.000153
2530	0.0001836
2542	0.0001972
2554	0.0001462
2566	0.0001428
2578	0.0002278
2590	0.000238
2602	0.0002822
2614	0.0002686
2626	0.0002686
2638	0.0003468
2650	0.00034
2662	0.0002992
2674	0.0002788
2686	0.0002992
2698	0.0003434
2710	0.0004488
2722	0.0006188
2734	0.0007446
2746	0.000748
2758	0.0007242
2770	0.0008092
2782	0.000901
2794	0.0010574
2806	0.0014484
2818	0.001904
2830	0.0028866
2842	0.0043928
2854	0.006596
2866	0.0104244
2878	0.0142154
2890	0.0162588
2902	0.017493
2914	0.0189108
2926	0.0208624
2938	0.0224842
2950	0.0264554
2962	0.034
2974	0.0271898
2986	0.012546
2998	0.0075888
3010	0.008891
3022	0.0111928
3034	0.009554
3046	0.005457
3058	0.0031416
3070	0.0022032
3082	0.0016898
3094	0.0013464
3106	0.0010472
3118	0.000765
3130	0.0007174
3142	0.0006494
3154	0.0005916
3166	0.0005814
3178	0.0005576
3190	0.0005032
3202	0.000391
3214	0.0003536
3226	0.0002244
3238	0.0002074
3250	0.0001768
3262	0.0001802
3274	0.0001462
3286	0.0001224
3298	0.0001564
3310	0.0002244
3322	0.0001462
3334	0.0002618
3346	0.0001768
3358	8.84e-05
3370	7.48e-05
3382	0.000153
3394	0.0001462
3406	0.0001122
3418	6.8e-05
3430	0.0001156
3442	0.0001054
3454	6.8e-05
3466	7.48e-05
3478	0.0001088
3490	0.000119
3502	8.16e-05
3514	0.0001428
3526	4.42e-05
3538	6.12e-05
3550	0.0001088
3562	4.08e-05
3574	5.78e-05
3586	7.82e-05
3598	1.7e-05
3610	0.0001156
3622	5.1e-05
3634	7.82e-05
3646	7.48e-05
3658	0
3670	6.8e-06
3682	5.44e-05
3694	8.16e-05
3706	9.18e-05
3718	7.14e-05
3730	3.06e-05
3742	6.8e-06
3754	0.000102
3766	7.48e-05
3778	5.1e-05
3790	0.0001428
3802	0.0001734
3814	9.18e-05
3826	0.0001394
3838	9.18e-05
