Infrared Spectrum: 5-Bromo-2-chlorobenzhydrazide
Formula: C 7 H 6 Br Cl N 2 O
CAS: 131634-71-4
State: gas
Origin: EPA-IR VAPOR PHASE LIBRARY
1/CM	ABSORBANCE
549.8	0.0018
559.445	0.00179
569.09	0.00225
578.735	0.0019
588.38	0.00153
598.025	0.0013204
607.67	0.0011157
617.315	0.0010454
626.96	0.0009305
636.605	0.0008107
646.251	0.0009646
655.896	0.0012003
665.541	0.0011927
675.186	0.0010026
684.831	0.0009723
694.476	0.0010051
704.121	0.0009639
713.766	0.00078
723.411	0.0007728
733.056	0.0008066
742.701	0.0010673
752.346	0.00258
761.991	0.00235
771.636	0.00155
781.281	0.0013087
790.926	0.0012843
800.571	0.00207
810.216	0.0058
819.861	0.00541
829.507	0.00214
839.152	0.00188
848.797	0.00214
858.442	0.00262
868.087	0.00308
877.732	0.00355
887.377	0.00365
897.022	0.00292
906.667	0.00223
916.312	0.00259
925.957	0.00435
935.602	0.00683
945.247	0.00708
954.892	0.00385
964.537	0.00205
974.182	0.0012116
983.827	0.0009405
993.472	0.0009297
1003.12	0.0008971
1012.76	0.0012166
1022.41	0.00197
1032.05	0.00394
1041.7	0.00637
1051.34	0.00965
1060.99	0.00735
1070.63	0.00358
1080.28	0.00648
1089.92	0.00668
1099.57	0.00345
1109.21	0.0024
1118.86	0.00176
1128.5	0.0013084
1138.15	0.00178
1147.79	0.0010615
1157.44	0.0009493
1167.08	0.0011615
1176.73	0.00144
1186.37	0.001348
1196.02	0.0011901
1205.66	0.0010398
1215.31	0.001247
1224.95	0.00168
1234.6	0.00241
1244.24	0.00337
1253.89	0.00398
1263.53	0.00562
1273.18	0.01123
1282.82	0.01472
1292.47	0.00721
1302.11	0.00293
1311.76	0.00183
1321.4	0.00165
1331.05	0.00168
1340.69	0.00165
1350.34	0.00143
1359.98	0.00163
1369.63	0.00287
1379.27	0.00387
1388.92	0.00268
1398.56	0.00216
1408.21	0.00241
1417.85	0.00358
1427.5	0.00649
1437.14	0.01241
1446.79	0.01725
1456.43	0.01583
1466.08	0.01138
1475.73	0.00962
1485.37	0.00873
1495.02	0.00732
1504.66	0.00571
1514.31	0.00411
1523.95	0.00305
1533.6	0.00241
1543.24	0.00228
1552.89	0.00229
1562.53	0.00172
1572.18	0.0016
1581.82	0.00177
1591.47	0.00181
1601.11	0.00231
1610.76	0.0033
1620.4	0.00475
1630.05	0.00595
1639.69	0.00559
1649.34	0.00426
1658.98	0.00383
1668.63	0.00492
1678.27	0.00726
1687.92	0.0112
1697.56	0.01626
1707.21	0.01696
1716.85	0.01589
1726.5	0.00927
1736.14	0.00417
1745.79	0.00234
1755.43	0.00179
1765.08	0.00153
1774.72	0.0012625
1784.37	0.0009345
1794.01	0.0007715
1803.66	0.000738
1813.3	0.0006466
1822.95	0.0005423
1832.59	0.0004783
1842.24	0.000513
1851.88	0.00044254
1861.53	0.00038564
1871.17	0.000351009
1880.82	0.0004555
1890.46	0.0006474
1900.11	0.0005112
1909.75	0.0003103
1919.4	0.0002674
1929.04	0.0002593
1938.69	0.000223
1948.33	0.000188
1957.98	0.000196
1967.62	0.000201
1977.27	0.000162
1986.91	0.0002
1996.56	0.000162
2006.2	0.000166
2015.85	0.000153
2025.49	0.000172
2035.14	0.000161
2044.78	0.000185
2054.43	0.000176
2064.07	0.000196
2073.72	0.000176
2083.36	0.000143
2093.01	0.00015
2102.65	0.000139
2112.3	0.000167
2121.94	0.000161
2131.59	0.000166
2141.23	0.000183
2150.88	0.000159
2160.52	0.000196
2170.17	0.000217
2179.81	0.000228
2189.46	0.000162
2199.1	0.000231
2208.75	0.000183
2218.39	0.000195
2228.04	0.000189
2237.68	0.00018
2247.33	0.000182
2256.97	0.000242
2266.62	0.000227
2276.26	0.0002837
2285.91	0.0002656
2295.55	0.0002629
2305.2	0.000172
2314.84	0.0002916
2324.49	0.0003151
2334.13	0.0003393
2343.78	0.0003318
2353.42	0.0002959
2363.07	0.0003777
2372.72	0.000235
2382.36	0.000216
2392.01	0.000208
2401.65	0.00018
2411.3	0.000157
2420.94	0.00014
2430.59	0.000165
2440.23	0.000157
2449.88	0.000193
2459.52	0.000189
2469.17	0.000121
2478.81	0.000191
2488.46	0.000171
2498.1	0.000182
2507.75	0.0002522
2517.39	0.000235
2527.04	0.000171
2536.68	0.000187
2546.33	0.00019
2555.97	0.000151
2565.62	0.00013
2575.26	0.000177
2584.91	0.000169
2594.55	0.000189
2604.2	0.000168
2613.84	0.000212
2623.49	0.00018
2633.13	0.000154
2642.78	0.000209
2652.42	0.000223
2662.07	0.000231
2671.71	0.000195
2681.36	0.000165
2691	0.000169
2700.65	0.000242
2710.29	0.000196
2719.94	0.0002691
2729.58	0.00018
2739.23	0.000214
2748.87	0.000218
2758.52	0.000189
2768.16	0.0002559
2777.81	0.000235
2787.45	0.0003225
2797.1	0.000249
2806.74	0.000209
2816.39	0.000224
2826.03	0.000182
2835.68	0.000135
2845.32	0.000102
2854.97	0.0002981
2864.61	0.00041015
2874.26	0.00034561
2883.9	0.00019
2893.55	0.00019
2903.19	0.000202
2912.84	0.000225
2922.48	0.000115
2932.13	0.000234
2941.77	0.0002789
2951.42	0.0002936
2961.06	0.000243
2970.71	0.000191
2980.35	0.000118
2990	0.000165
2999.64	0.000215
3009.29	0.000205
3018.93	3.2e-05
3028.58	0.00018
3038.22	9.4e-05
3047.87	0.000159
3057.51	0.0002683
3067.16	0.00041232
3076.8	0.0005118
3086.45	0.0003019
3096.09	0.00040751
3105.74	0.000218
3115.38	0.0003022
3125.03	0.000132
3134.67	2.8e-05
3144.32	0.000105
3153.96	0.000192
3163.61	0.000233
3173.25	0.000111
3182.9	0.000102
3192.54	0.000242
3202.19	0.0002939
3211.83	0.0002734
3221.48	0.0002646
3231.12	0.0003181
3240.77	0.000131
3250.41	5.3e-05
3260.06	0.000179
3269.7	9.5e-05
3279.35	0.000121
3289	0.000217
3298.64	0.000137
3308.29	0.000218
3317.93	0.000161
3327.58	0.000182
3337.22	0.00041275
3346.87	0.0005496
3356.51	0.00042997
3366.16	0.0004896
3375.8	0.0002537
3385.45	0.0003766
3395.09	0.00041848
3404.74	0.0005428
3414.38	0.00039897
3424.03	0.0007867
3433.67	0.0013258
3443.32	0.00206
3452.96	0.00314
3462.61	0.00417
3472.25	0.00393
3481.9	0.0028
3491.54	0.00173
3501.19	0.000937
3510.83	0.0006233
3520.48	0.0003152
3530.12	0.000198
3539.77	0.000173
3549.41	0.0003009
3559.06	0.000123
3568.7	0.00034554
3578.35	0.000172
3587.99	0.000236
3597.64	0.000131
3607.28	0.000119
3616.93	6.4e-05
3626.57	9.4e-05
3636.22	0.000115
3645.86	0.00019
3655.51	8e-05
3665.15	7e-05
3674.8	0.000119
3684.44	0.000126
3694.09	4.3e-05
3703.73	0.000172
3713.38	0.000107
3723.02	0.00014
3732.67	0.0002554
3742.31	0.0003061
3751.96	0.0002723
3761.6	0.000167
3771.25	0.000225
3780.89	7.1e-05
3790.54	0.000107
3800.18	0.000182
3809.83	0.000109
3819.47	0.000168
3829.12	0.000246
3838.76	0.0002698
3848.41	0.000176
3858.05	9.6e-05
3867.7	0.000177
3877.34	0.0004616
3886.99	0.00021
3896.63	0.000185
3906.28	0.000171
3915.92	7.6e-05
3925.57	0.000107
3935.21	0.00023
3944.86	0.000191
3954.5	0.000164
3964.15	0.000152
3973.79	0.000231
3983.44	0.000119
3993.08	0.00012
