Infrared Spectrum: HYPOXANTHINE, 7,9-DIBENZYL
Formula: C19 H16 N4 O
CAS: 1317-09-5
State: SOLID (1 mg / 650 mg KBr DISC)
Class: COBLENTZ III
Instrument: PERKIN-ELMER 521 (GRATING)
Instrument parameters: FILTER CHANGE AT 3150, 2500, 2000, 1150, 700, 410 CM^-^1, GRATING CHANGES AT 2000, 630 CM^-^1
Sampling: TRANSMISSION
Resolution: 4
Origin: SOUTHERN RESEARCH INSTITUTE
1/CM	TRANSMITTANCE
243.107	0.282
252.153	0.313
261.198	0.394
270.244	0.454
279.289	0.515
288.335	0.575
297.38	0.625
306.426	0.664
315.471	0.684
324.517	0.715
333.562	0.747
342.608	0.756
351.654	0.791
360.699	0.826
369.745	0.865
378.79	0.878
387.836	0.888
396.881	0.872
405.927	0.87
414.972	0.905
424.018	0.924
433.063	0.922
442.109	0.912
451.154	0.885
460.2	0.882
469.246	0.901
478.291	0.934
487.337	0.935
496.382	0.934
505.428	0.928
514.473	0.878
523.519	0.897
532.564	0.927
541.61	0.895
550.655	0.843
559.701	0.908
568.747	0.921
577.792	0.927
586.838	0.929
595.883	0.923
604.929	0.912
613.974	0.893
623.02	0.831
632.065	0.877
641.111	0.806
650.156	0.752
659.202	0.936
668.248	0.915
677.293	0.906
686.339	0.675
695.384	0.611
704.43	0.676
713.475	0.796
722.521	0.882
731.566	0.858
740.612	0.789
749.657	0.843
758.703	0.935
767.748	0.911
776.794	0.985
785.84	0.887
794.885	0.793
803.931	0.931
812.976	0.892
822.022	0.855
831.067	0.939
840.113	0.974
849.158	0.975
858.204	0.975
867.249	0.973
876.295	0.969
885.341	0.96
894.386	0.956
903.432	0.947
912.477	0.939
921.523	0.934
930.568	0.93
939.614	0.925
948.659	0.914
957.705	0.898
966.75	0.906
975.796	0.929
984.842	0.918
993.887	0.931
1002.93	0.934
1011.98	0.93
1021.02	0.915
1030.07	0.892
1039.11	0.914
1048.16	0.899
1057.21	0.908
1066.25	0.885
1075.3	0.849
1084.34	0.925
1093.39	0.925
1102.43	0.923
1111.48	0.92
1120.52	0.913
1129.57	0.904
1138.62	0.891
1147.66	0.845
1156.71	0.787
1165.75	0.693
1174.8	0.728
1183.84	0.765
1192.89	0.793
1201.93	0.767
1210.98	0.799
1220.03	0.86
1229.07	0.879
1238.12	0.88
1247.16	0.84
1256.21	0.721
1265.25	0.786
1274.3	0.831
1283.34	0.766
1292.39	0.547
1301.44	0.47
1310.48	0.669
1319.53	0.813
1328.57	0.86
1337.62	0.852
1346.66	0.747
1355.71	0.75
1364.75	0.695
1373.8	0.767
1382.85	0.713
1391.89	0.858
1400.94	0.848
1409.98	0.756
1419.03	0.79
1428.07	0.679
1437.12	0.735
1446.16	0.677
1455.21	0.624
1464.26	0.844
1473.3	0.834
1482.35	0.529
1491.39	0.383
1500.44	0.579
1509.48	0.769
1518.53	0.826
1527.57	0.794
1536.62	0.625
1545.67	0.408
1554.71	0.47
1563.76	0.497
1572.8	0.484
1581.85	0.698
1590.89	0.745
1599.94	0.614
1608.98	0.358
1618.03	0.156
1627.08	0.198
1636.12	0.475
1645.17	0.762
1654.21	0.852
1663.26	0.906
1672.3	0.935
1681.35	0.947
1690.39	0.953
1699.44	0.948
1708.48	0.956
1717.53	0.966
1726.58	0.969
1735.62	0.971
1744.67	0.974
1753.71	0.978
1762.76	0.977
1771.8	0.972
1780.85	0.97
1789.89	0.969
1798.94	0.966
1807.99	0.959
1817.03	0.955
1826.08	0.953
1835.12	0.954
1844.17	0.956
1853.21	0.955
1862.26	0.955
1871.3	0.956
1880.35	0.955
1889.4	0.954
1898.44	0.955
1907.49	0.956
1916.53	0.957
1925.58	0.961
1934.62	0.962
1943.67	0.961
1952.71	0.956
1961.76	0.957
1970.81	0.96
1979.85	0.965
1988.9	0.965
1997.94	0.963
2006.99	0.958
2016.03	0.958
2025.08	0.958
2034.12	0.959
2043.17	0.956
2052.22	0.954
2061.26	0.953
2070.31	0.952
2079.35	0.949
2088.4	0.946
2097.44	0.945
2106.49	0.946
2115.53	0.949
2124.58	0.95
2133.63	0.949
2142.67	0.947
2151.72	0.945
2160.76	0.945
2169.81	0.943
2178.85	0.943
2187.9	0.942
2196.94	0.937
2205.99	0.937
2215.04	0.937
2224.08	0.938
2233.13	0.936
2242.17	0.934
2251.22	0.933
2260.26	0.932
2269.31	0.932
2278.35	0.932
2287.4	0.93
2296.45	0.93
2305.49	0.927
2314.54	0.924
2323.58	0.921
2332.63	0.921
2341.67	0.919
2350.72	0.918
2359.76	0.919
2368.81	0.92
2377.86	0.921
2386.9	0.921
2395.95	0.921
2404.99	0.921
2414.04	0.92
2423.08	0.919
2432.13	0.918
2441.17	0.918
2450.22	0.917
2459.27	0.916
2468.31	0.913
2477.36	0.912
2486.4	0.911
2495.45	0.91
2504.49	0.908
2513.54	0.908
2522.58	0.908
2531.63	0.907
2540.67	0.906
2549.72	0.905
2558.77	0.903
2567.81	0.901
2576.86	0.899
2585.9	0.897
2594.95	0.895
2603.99	0.894
2613.04	0.892
2622.08	0.89
2631.13	0.889
2640.18	0.889
2649.22	0.888
2658.27	0.886
2667.31	0.883
2676.36	0.88
2685.4	0.878
2694.45	0.873
2703.49	0.867
2712.54	0.856
2721.59	0.848
2730.63	0.842
2739.68	0.836
2748.72	0.832
2757.77	0.831
2766.81	0.835
2775.86	0.839
2784.9	0.841
2793.95	0.831
2803	0.826
2812.04	0.823
2821.09	0.82
2830.13	0.815
2839.18	0.808
2848.22	0.784
2857.27	0.778
2866.31	0.762
2875.36	0.745
2884.41	0.729
2893.45	0.717
2902.5	0.71
2911.54	0.7
2920.59	0.689
2929.63	0.679
2938.68	0.67
2947.72	0.661
2956.77	0.667
2965.82	0.674
2974.86	0.675
2983.91	0.672
2992.95	0.67
3002	0.676
3011.04	0.7
3020.09	0.725
3029.13	0.729
3038.18	0.745
3047.23	0.765
3056.27	0.784
3065.32	0.799
3074.36	0.834
3083.41	0.838
3092.45	0.838
3101.5	0.85
3110.54	0.857
3119.59	0.863
3128.64	0.868
3137.68	0.87
3146.73	0.875
3155.77	0.881
3164.82	0.881
3173.86	0.879
3182.91	0.877
3191.95	0.875
3201	0.872
3210.05	0.87
3219.09	0.869
3228.14	0.862
3237.18	0.861
3246.23	0.859
3255.27	0.857
3264.32	0.852
3273.36	0.85
3282.41	0.848
3291.45	0.845
3300.5	0.845
3309.55	0.841
3318.59	0.835
3327.64	0.832
3336.68	0.824
3345.73	0.817
3354.77	0.808
3363.82	0.8
3372.86	0.793
3381.91	0.785
3390.96	0.78
3400	0.774
3409.05	0.771
3418.09	0.768
3427.14	0.766
3436.18	0.765
3445.23	0.765
3454.27	0.766
3463.32	0.768
3472.37	0.771
3481.41	0.773
3490.46	0.777
3499.5	0.781
3508.55	0.784
3517.59	0.789
3526.64	0.794
3535.68	0.8
3544.73	0.808
3553.78	0.814
3562.82	0.818
3571.87	0.824
3580.91	0.828
3589.96	0.832
3599	0.842
3608.05	0.848
3617.09	0.851
3626.14	0.855
3635.19	0.86
3644.23	0.862
3653.28	0.865
3662.32	0.867
3671.37	0.866
3680.41	0.866
3689.46	0.869
3698.5	0.87
3707.55	0.872
3716.6	0.871
3725.64	0.87
3734.69	0.867
3743.73	0.862
3752.78	0.859
3761.82	0.868
3770.87	0.871
3779.91	0.873
3788.96	0.875
3798.01	0.874
3807.05	0.868
