Infrared Spectrum: Phosphamidon
Formula: C 10 H 19 Cl N O 5 P
CAS: 13171-21-6
State: gas
Instrument: HP-GC/MS/IRD
Origin: NIST Mass Spectrometry Data Center
1/CM	ABSORBANCE
550	0.0029835
562	0.0029565
574	0.002619
586	0.001431
598	0.0007155
610	0.001296
622	0.002106
634	0.000756
646	0.001215
658	0.0021465
670	0.0005535
682	2.7e-05
694	9.45e-05
706	0.0008235
718	0.001971
730	0.0024975
742	0.002916
754	0.0054405
766	0.004347
778	0.006048
790	0.008613
802	0.010422
814	0.0169965
826	0.012852
838	0.0185085
850	0.0371115
862	0.040446
874	0.0121095
886	0.0053325
898	0.0042255
910	0.004941
922	0.009018
934	0.0219105
946	0.0378675
958	0.0293895
970	0.0142695
982	0.0183195
994	0.032319
1006	0.024354
1018	0.0190755
1030	0.0326835
1042	0.0776925
1054	0.135
1066	0.104679
1078	0.064827
1090	0.035343
1102	0.0228825
1114	0.0167805
1126	0.012636
1138	0.009855
1150	0.009045
1162	0.012258
1174	0.016389
1186	0.017199
1198	0.0173475
1210	0.0229635
1222	0.038529
1234	0.031725
1246	0.01701
1258	0.014202
1270	0.020304
1282	0.030564
1294	0.036477
1306	0.0381105
1318	0.038421
1330	0.017145
1342	0.0092475
1354	0.008775
1366	0.009693
1378	0.0135405
1390	0.0172665
1402	0.0137025
1414	0.019953
1426	0.022167
1438	0.017172
1450	0.0153225
1462	0.0145395
1474	0.0113265
1486	0.0063315
1498	0.003969
1510	0.0029295
1522	0.002457
1534	0.0023085
1546	0.002214
1558	0.002241
1570	0.00243
1582	0.002673
1594	0.0030105
1606	0.0038475
1618	0.0057105
1630	0.009315
1642	0.0185085
1654	0.0449145
1666	0.0805815
1678	0.049437
1690	0.0158625
1702	0.006858
1714	0.003699
1726	0.002187
1738	0.0014445
1750	0.0010395
1762	0.000891
1774	0.0007695
1786	0.0006885
1798	0.0006885
1810	0.0006885
1822	0.000567
1834	0.0004455
1846	0.0004185
1858	0.000405
1870	0.000486
1882	0.0005265
1894	0.0006345
1906	0.000756
1918	0.0007965
1930	0.000702
1942	0.00054
1954	0.000378
1966	0.0002025
1978	0.000108
1990	0.000108
2002	9.45e-05
2014	0.000135
2026	0.000216
2038	0.000243
2050	0.0001755
2062	0.0001485
2074	0.0002025
2086	0.000243
2098	0.000162
2110	0.000135
2122	6.75e-05
2134	5.4e-05
2146	6.75e-05
2158	2.7e-05
2170	1.35e-05
2182	0
2194	0
2206	4.05e-05
2218	9.45e-05
2230	8.1e-05
2242	0.000135
2254	0.000135
2266	0.0001485
2278	0.0001485
2290	0.000135
2302	0.000135
2314	0.000135
2326	0.000135
2338	0.000108
2350	6.75e-05
2362	5.4e-05
2374	6.75e-05
2386	5.4e-05
2398	8.1e-05
2410	0.000108
2422	0.0001485
2434	0.0001485
2446	0.000189
2458	0.0001215
2470	6.75e-05
2482	5.4e-05
2494	1.35e-05
2506	0
2518	1.35e-05
2530	2.7e-05
2542	0
2554	1.35e-05
2566	4.05e-05
2578	0
2590	0
2602	8.1e-05
2614	0.000108
2626	0.000135
2638	0.000108
2650	0.000135
2662	0.000135
2674	9.45e-05
2686	0.0002025
2698	0.000297
2710	0.00027
2722	0.00027
2734	0.0003645
2746	0.000459
2758	0.000486
2770	0.0004185
2782	0.0005265
2794	0.0007155
2806	0.000972
2818	0.001377
2830	0.001944
2842	0.002808
2854	0.0049545
2866	0.0089235
2878	0.008046
2890	0.0088695
2902	0.008424
2914	0.008883
2926	0.0110565
2938	0.0164835
2950	0.018765
2962	0.023382
2974	0.0243
2986	0.020007
2998	0.0150255
3010	0.0094635
3022	0.0064935
3034	0.004752
3046	0.0033615
3058	0.0027675
3070	0.002484
3082	0.0022545
3094	0.002025
3106	0.00162
3118	0.0013635
3130	0.0010935
3142	0.0009045
3154	0.0007155
3166	0.000621
3178	0.0004995
3190	0.0003915
3202	0.000297
3214	0.000297
3226	0.000216
3238	0.0002025
3250	0.000135
3262	0.0002295
3274	0.0002295
3286	0.0003375
3298	0.0004725
3310	0.0006345
3322	0.0006615
3334	0.0005535
3346	0.0004185
3358	0.000297
3370	0.000216
3382	0.000189
3394	0.000162
3406	0.000189
3418	0.0001755
3430	0.0001215
3442	0.000135
3454	0.0001755
3466	0.0001215
3478	0.000108
3490	0.000162
3502	0.0001215
3514	0.000108
3526	0.0001485
3538	0.000162
3550	0.000162
3562	0.000108
3574	6.75e-05
3586	0.000162
3598	9.45e-05
3610	0.0001485
3622	0.000189
3634	0.000135
3646	0.000135
3658	0.000135
3670	0.000189
3682	0.000135
3694	0.0002025
3706	0.0001755
3718	0.000162
3730	0.0001755
3742	0.000162
3754	0.000189
3766	0.0002025
3778	0.000216
3790	0.000189
3802	0.0001755
3814	0.0002025
3826	0.0002025
3838	0.0002295
