Infrared Spectrum: Butyl oleate
Formula: C22 H42 O2
CAS: 13171-24-9
State: SOLUTION (10% CCl4 FOR 2.7-7.5, 10% CS2 FOR 7.5-26 MICRON) VS SOLVENT
Class: COBLENTZ III
Instrument: DOW KBr FOREPRISM-GRATING
Instrument parameters: BLAZED AT 3.5, 12.0, 20.0 MICRON AND CHANGED AT 5.0, 7.5, 14.9 MICRON
Sampling: TRANSMISSION
Path length: .11mm
Resolution: 2
Origin: DOW CHEMICAL COMPANY
1/CM	TRANSMITTANCE
3792	0.8552
3783	0.8551
3774	0.8549
3765	0.8547
3756	0.8546
3747	0.8549
3738	0.8554
3729	0.8557
3720	0.8561
3711	0.8559
3702	0.8558
3693	0.8556
3684	0.8555
3675	0.8554
3666	0.8553
3657	0.8553
3648	0.8553
3639	0.8553
3630	0.8554
3621	0.8556
3612	0.8557
3603	0.8564
3594	0.8573
3585	0.8597
3576	0.8636
3567	0.8686
3558	0.87
3549	0.87
3540	0.8703
3531	0.8705
3522	0.8708
3513	0.8723
3504	0.8738
3495	0.8756
3486	0.8773
3477	0.8787
3468	0.8788
3459	0.8766
3450	0.8728
3441	0.8699
3432	0.8692
3423	0.8715
3414	0.8755
3405	0.8789
3396	0.8809
3387	0.8828
3378	0.8847
3369	0.886
3360	0.8874
3351	0.8887
3342	0.8895
3333	0.8899
3324	0.8904
3315	0.8909
3306	0.8913
3297	0.8911
3288	0.8909
3279	0.8908
3270	0.8904
3261	0.8893
3252	0.8883
3243	0.8873
3234	0.8859
3225	0.8841
3216	0.8825
3207	0.8811
3198	0.8786
3189	0.8764
3180	0.8744
3171	0.8741
3162	0.8738
3153	0.8728
3144	0.872
3135	0.871
3126	0.8699
3117	0.8688
3108	0.8659
3099	0.8624
3090	0.8583
3081	0.8537
3072	0.8449
3063	0.8323
3054	0.8232
3045	0.8136
3036	0.7976
3027	0.7761
3018	0.7178
3009	0.5376
3000	0.4564
2991	0.5093
2982	0.3923
2973	0.2229
2964	0.0535
2955	0.0338
2946	0.0366
2937	0.0259
2928	0.0072
2919	0.0067
2910	0.0419
2901	0.1098
2892	0.1777
2883	0.2438
2874	0.1305
2865	0.1329
2856	0.0309
2847	0.1499
2838	0.3325
2829	0.519
2820	0.6084
2811	0.688
2802	0.7281
2793	0.7565
2784	0.7762
2775	0.7912
2766	0.8022
2757	0.8089
2748	0.8121
2739	0.8125
2730	0.8101
2721	0.8088
2712	0.8115
2703	0.8158
2694	0.8194
2685	0.8174
2676	0.8155
2667	0.8138
2658	0.8151
2649	0.8172
2640	0.8209
2631	0.8246
2622	0.8282
2613	0.832
2604	0.836
2595	0.8398
2586	0.8432
2577	0.8455
2568	0.8478
2559	0.8503
2550	0.8527
2541	0.855
2532	0.8565
2523	0.8578
2514	0.8593
2505	0.8607
2496	0.8621
2487	0.8628
2478	0.8635
2469	0.8641
2460	0.8647
2451	0.8652
2442	0.8657
2433	0.8659
2424	0.8662
2415	0.8664
2406	0.8666
2397	0.8661
2388	0.8655
2379	0.8648
2370	0.8642
2361	0.8637
2352	0.8634
2343	0.8631
2334	0.8625
2325	0.8614
2316	0.8603
2307	0.8597
2298	0.8591
2289	0.8593
2280	0.8597
2271	0.86
2262	0.8604
2253	0.8613
2244	0.8621
2235	0.863
2226	0.864
2217	0.865
2208	0.8658
2199	0.8667
2190	0.8677
2181	0.8724
2172	0.8723
2163	0.8699
2154	0.8707
2145	0.8707
2136	0.8708
2127	0.8707
2118	0.8696
2109	0.8684
2100	0.8671
2091	0.866
2082	0.8644
2073	0.8625
2064	0.8609
2055	0.8606
2046	0.8612
2037	0.8618
2028	0.8618
2019	0.8625
2010	0.8632
2001	0.8634
1992	0.863
1983	0.8608
1974	0.8613
1965	0.8617
1956	0.8621
1947	0.8623
1938	0.8624
1929	0.8625
1920	0.8624
1911	0.8623
1902	0.8621
1893	0.8618
1884	0.8615
1875	0.8615
1866	0.8615
1857	0.8608
1848	0.8598
1839	0.8583
1830	0.8561
1821	0.8523
1812	0.8478
1803	0.8404
1794	0.8281
1785	0.8138
1776	0.795
1767	0.77
1758	0.736
1749	0.5651
1740	0.0482
1731	0.0104
1722	0.1934
1713	0.5283
1704	0.622
1695	0.6935
1686	0.7419
1677	0.7801
1668	0.8014
1659	0.8098
1650	0.8032
1641	0.8223
1632	0.8378
1623	0.8468
1614	0.8523
1605	0.8558
1596	0.8575
1587	0.8584
1578	0.8541
1569	0.851
1560	0.8494
1551	0.8491
1542	0.8481
1533	0.8441
1524	0.8404
1515	0.8324
1506	0.8186
1497	0.8011
1488	0.7725
1479	0.6353
1470	0.2217
1461	0.2797
1452	0.3804
1443	0.4989
1434	0.5631
1425	0.6242
1416	0.6824
1407	0.6921
1398	0.6258
1389	0.5598
1380	0.5462
1371	0.5537
1362	0.5134
1353	0.5091
1344	0.5598
1335	0.5887
1326	0.599
1317	0.5674
1308	0.5402
1299	0.5333
1290	0.5516
1281	0.5238
1272	0.4859
1263	0.4596
1254	0.4222
1245	0.368
1236	0.398
1227	0.4355
1218	0.4481
1209	0.4354
1200	0.3896
1191	0.3131
1182	0.2298
1173	0.2075
1164	0.2544
1155	0.3457
1146	0.437
1137	0.5539
1128	0.5822
1119	0.5138
1110	0.5987
1101	0.6278
1092	0.5851
1083	0.5996
1074	0.6199
1065	0.5952
1056	0.668
1047	0.7349
1038	0.731
1029	0.6968
1020	0.6661
1011	0.6962
1002	0.719
993	0.7367
984	0.7326
975	0.7207
966	0.6295
957	0.7161
948	0.7201
939	0.7469
930	0.7799
921	0.79
912	0.7967
903	0.801
894	0.8064
885	0.8056
876	0.8041
867	0.8038
858	0.8144
849	0.8172
840	0.7951
831	0.8028
822	0.8128
813	0.8106
804	0.8134
795	0.8149
786	0.8126
777	0.8036
768	0.7875
759	0.7737
750	0.7553
741	0.6544
732	0.6176
723	0.5754
714	0.6505
705	0.7058
696	0.7301
687	0.7468
678	0.7678
669	0.8147
660	0.8352
651	0.8361
642	0.8371
633	0.8385
624	0.8381
615	0.8307
606	0.8203
597	0.8119
588	0.8081
579	0.8076
570	0.8125
561	0.8196
552	0.8275
543	0.8314
534	0.8239
525	0.8144
516	0.8115
507	0.8136
498	0.8171
489	0.8198
480	0.8214
471	0.8228
462	0.8236
453	0.8238
444	0.8228
435	0.8221
426	0.8223
417	0.8218
408	0.8201
399	0.8209
