Infrared Spectrum: LEAD OXIDE
Formula: Pb O
CAS: 1317-36-8
State: SOLID (0.8 mg / 300 mg CsI DISC)
Class: COBLENTZ
Instrument: Not specified, most likely a grating spectrometer.
Sampling: TRANSMISSION
Resolution: 4
Origin: DESOTO CHEMICAL COATINGS, INC.
1/CM	TRANSMITTANCE
198.67	0.617
209.313	0.618
219.956	0.613
230.599	0.586
241.242	0.542
251.885	0.47
262.528	0.3601
273.171	0.271
283.814	0.216
294.457	0.162
305.1	0.163
315.743	0.19
326.386	0.232
337.029	0.3
347.672	0.344
358.315	0.352
368.958	0.39
379.601	0.465
390.245	0.534
400.888	0.603
411.531	0.658
422.174	0.69
432.817	0.728
443.46	0.742
454.103	0.739
464.746	0.715
475.389	0.687
486.032	0.688
496.675	0.75
507.318	0.781
517.961	0.803
528.604	0.836
539.247	0.869
549.89	0.896
560.533	0.902
571.176	0.913
581.819	0.922
592.462	0.936
603.105	0.942
613.748	0.949
624.391	0.953
635.034	0.961
645.677	0.961
656.32	0.954
666.963	0.953
677.606	0.949
688.249	0.941
698.892	0.949
709.535	0.95
720.178	0.953
730.821	0.953
741.464	0.957
752.107	0.96
762.751	0.962
773.394	0.964
784.037	0.962
794.68	0.965
805.323	0.962
815.966	0.961
826.609	0.964
837.252	0.962
847.895	0.964
858.538	0.954
869.181	0.954
879.824	0.957
890.467	0.957
901.11	0.953
911.753	0.952
922.396	0.952
933.039	0.952
943.682	0.948
954.325	0.944
964.968	0.942
975.611	0.94
986.254	0.936
996.897	0.932
1007.54	0.93
1018.18	0.924
1028.83	0.92
1039.47	0.91
1050.11	0.909
1060.76	0.905
1071.4	0.91
1082.04	0.904
1092.68	0.901
1103.33	0.902
1113.97	0.901
1124.61	0.898
1135.26	0.896
1145.9	0.896
1156.54	0.897
1167.19	0.894
1177.83	0.89
1188.47	0.89
1199.11	0.89
1209.76	0.89
1220.4	0.882
1231.04	0.88
1241.69	0.881
1252.33	0.878
1262.97	0.869
1273.62	0.863
1284.26	0.855
1294.9	0.848
1305.54	0.84
1316.19	0.835
1326.83	0.827
1337.47	0.823
1348.12	0.82
1358.76	0.817
1369.4	0.813
1380.05	0.809
1390.69	0.803
1401.33	0.784
1411.98	0.776
1422.62	0.769
1433.26	0.767
1443.9	0.767
1454.55	0.769
1465.19	0.773
1475.83	0.779
1486.48	0.775
1497.12	0.777
1507.76	0.776
1518.41	0.773
1529.05	0.776
1539.69	0.776
1550.33	0.776
1560.98	0.777
1571.62	0.779
1582.26	0.781
1592.91	0.771
1603.55	0.761
1614.19	0.742
1624.84	0.738
1635.48	0.743
1646.12	0.752
1656.76	0.759
1667.41	0.764
1678.05	0.769
1688.69	0.768
1699.34	0.771
1709.98	0.771
1720.62	0.772
1731.27	0.772
1741.91	0.772
1752.55	0.769
1763.2	0.768
1773.84	0.769
1784.48	0.769
1795.12	0.763
1805.77	0.76
1816.41	0.756
1827.05	0.753
1837.7	0.752
1848.34	0.752
1858.98	0.753
1869.63	0.751
1880.27	0.746
1890.91	0.739
1901.55	0.74
1912.2	0.739
1922.84	0.734
1933.48	0.731
1944.13	0.73
1954.77	0.73
1965.41	0.731
1976.06	0.728
1986.7	0.723
1997.34	0.72
2007.98	0.72
2018.63	0.718
2029.27	0.715
2039.91	0.714
2050.56	0.712
2061.2	0.711
2071.84	0.71
2082.49	0.7079
2093.13	0.7
2103.77	0.7
2114.42	0.699
2125.06	0.7
2135.7	0.699
2146.34	0.699
2156.99	0.699
2167.63	0.6948
2178.27	0.692
2188.92	0.692
2199.56	0.6908
2210.2	0.688
2220.85	0.686
2231.49	0.684
2242.13	0.682
2252.77	0.679
2263.42	0.678
2274.06	0.678
2284.7	0.6774
2295.35	0.672
2305.99	0.6706
2316.63	0.666
2327.28	0.6612
2337.92	0.6586
2348.56	0.654
2359.2	0.6506
2369.85	0.6476
2380.49	0.6451
2391.13	0.646
2401.78	0.65
2412.42	0.648
2423.06	0.647
2433.71	0.646
2444.35	0.644
2454.99	0.6435
2465.64	0.642
2476.28	0.64
2486.92	0.639
2497.56	0.6369
2508.21	0.634
2518.85	0.6328
2529.49	0.631
2540.14	0.631
2550.78	0.631
2561.42	0.63
2572.07	0.6273
2582.71	0.6236
2593.35	0.623
2603.99	0.6213
2614.64	0.6183
2625.28	0.6133
2635.92	0.611
2646.57	0.611
2657.21	0.6092
2667.85	0.607
2678.5	0.605
2689.14	0.603
2699.78	0.6012
2710.42	0.599
2721.07	0.597
2731.71	0.594
2742.35	0.5901
2753	0.589
2763.64	0.5872
2774.28	0.585
2784.93	0.583
2795.57	0.5811
2806.21	0.581
2816.85	0.5781
2827.5	0.573
2838.14	0.571
2848.78	0.57
2859.43	0.567
2870.07	0.566
2880.71	0.565
2891.36	0.563
2902	0.5609
2912.64	0.5568
2923.29	0.549
2933.93	0.547
2944.57	0.5501
2955.21	0.549
2965.86	0.549
2976.5	0.547
2987.14	0.545
2997.79	0.5428
3008.43	0.5406
3019.07	0.539
3029.72	0.541
3040.36	0.541
3051	0.538
3061.64	0.5363
3072.29	0.534
3082.93	0.5325
3093.57	0.5292
3104.22	0.5267
3114.86	0.526
3125.5	0.5244
3136.15	0.521
3146.79	0.5187
3157.43	0.517
3168.07	0.5123
3178.72	0.5096
3189.36	0.505
3200	0.5026
3210.65	0.501
3221.29	0.5
3231.93	0.498
3242.58	0.4926
3253.22	0.489
3263.86	0.4851
3274.51	0.484
3285.15	0.4815
3295.79	0.481
3306.43	0.476
3317.08	0.4714
3327.72	0.4628
3338.36	0.457
3349.01	0.4494
3359.65	0.4462
3370.29	0.4348
3380.94	0.4248
3391.58	0.4174
3402.22	0.4071
3412.86	0.4004
3423.51	0.393
3434.15	0.383
3444.79	0.3753
3455.44	0.373
3466.08	0.3713
3476.72	0.368
3487.37	0.3705
3498.01	0.371
3508.65	0.373
3519.29	0.376
3529.94	0.3778
3540.58	0.385
3551.22	0.389
3561.87	0.3928
3572.51	0.3995
3583.15	0.4058
3593.8	0.4139
3604.44	0.418
3615.08	0.4209
3625.73	0.4318
3636.37	0.4376
3647.01	0.446
3657.65	0.448
3668.3	0.448
3678.94	0.449
3689.58	0.448
3700.23	0.446
3710.87	0.442
3721.51	0.44
3732.16	0.441
3742.8	0.442
3753.44	0.442
3764.08	0.442
3774.73	0.44
3785.37	0.437
3796.01	0.438
3806.66	0.438
3817.3	0.437
3827.94	0.4364
3838.59	0.43
3849.23	0.43
3859.87	0.4288
3870.51	0.428
3881.16	0.428
3891.8	0.426
3902.44	0.4258
3913.09	0.4218
3923.73	0.421
3934.37	0.421
3945.02	0.421
3955.66	0.421
3966.3	0.42
3976.95	0.4203
3987.59	0.42
