Infrared Spectrum: 9H-Purinium bromide, 3,9-dibenzyl-6-dimethylamino-
Formula: C21 H22 Br N5
CAS: 1317-12-0
State: SOLID (1 mg / 650 mg KBr DISC)
Class: COBLENTZ III
Instrument: PERKIN-ELMER 521 (GRATING)
Instrument parameters: FILTERS AT 3130, 2475, 2000, 1150, 700, 410. GRATING CHANGES: 2000, 620 CM^-^1
Sampling: TRANSMISSION
Resolution: 2
Origin: SOUTHERN RESEARCH INSTITUTE
1/CM	TRANSMITTANCE
254	0.3077
263	0.3762
272	0.4412
281	0.5154
290	0.5747
299	0.6339
308	0.704
317	0.7232
326	0.7417
335	0.7628
344	0.7702
353	0.7741
362	0.8127
371	0.8494
380	0.8781
389	0.8842
398	0.8991
407	0.9054
416	0.9097
425	0.9137
434	0.9181
443	0.9142
452	0.8966
461	0.8832
470	0.9165
479	0.9068
488	0.9323
497	0.9239
506	0.8377
515	0.9101
524	0.9118
533	0.901
542	0.937
551	0.932
560	0.8869
569	0.8856
578	0.9342
587	0.9305
596	0.9273
605	0.9241
614	0.8863
623	0.8467
632	0.811
641	0.8561
650	0.8395
659	0.7499
668	0.8608
677	0.753
686	0.8137
695	0.6721
704	0.5746
713	0.4445
722	0.5713
731	0.7569
740	0.8765
749	0.9391
758	0.8683
767	0.6624
776	0.8535
785	0.9456
794	0.9699
803	0.9696
812	0.9633
821	0.9559
830	0.9409
839	0.893
848	0.8863
857	0.9359
866	0.9638
875	0.9609
884	0.956
893	0.9488
902	0.9394
911	0.9412
920	0.9088
929	0.8775
938	0.9258
947	0.9254
956	0.9081
965	0.8942
974	0.8951
983	0.8929
992	0.8393
1001	0.8675
1010	0.9069
1019	0.8785
1028	0.8343
1037	0.877
1046	0.8483
1055	0.7878
1064	0.6412
1073	0.7298
1082	0.8062
1091	0.8815
1100	0.8814
1109	0.8713
1118	0.8417
1127	0.7608
1136	0.7715
1145	0.6982
1154	0.5434
1163	0.5417
1172	0.6907
1181	0.7339
1190	0.6745
1199	0.5018
1208	0.7127
1217	0.7581
1226	0.7242
1235	0.7447
1244	0.728
1253	0.8066
1262	0.7402
1271	0.7122
1280	0.8259
1289	0.846
1298	0.8346
1307	0.7339
1316	0.8336
1325	0.8418
1334	0.7952
1343	0.7809
1352	0.7655
1361	0.7126
1370	0.6244
1379	0.6089
1388	0.5386
1397	0.4415
1406	0.4407
1415	0.4268
1424	0.6958
1433	0.7323
1442	0.692
1451	0.5264
1460	0.6816
1469	0.7834
1478	0.7385
1487	0.7659
1496	0.6658
1505	0.8712
1514	0.8599
1523	0.8345
1532	0.7563
1541	0.6638
1550	0.4326
1559	0.6603
1568	0.7174
1577	0.6612
1586	0.6009
1595	0.5387
1604	0.4308
1613	0.2219
1622	0.0972
1631	0.1007
1640	0.2047
1649	0.4971
1658	0.6797
1667	0.8193
1676	0.8927
1685	0.9235
1694	0.9292
1703	0.947
1712	0.9612
1721	0.9661
1730	0.9685
1739	0.9705
1748	0.9725
1757	0.9713
1766	0.9684
1775	0.9633
1784	0.957
1793	0.9505
1802	0.947
1811	0.9439
1820	0.9421
1829	0.9406
1838	0.9391
1847	0.9372
1856	0.9342
1865	0.9322
1874	0.9374
1883	0.9418
1892	0.9396
1901	0.9351
1910	0.9315
1919	0.9294
1928	0.9283
1937	0.9278
1946	0.9276
1955	0.9273
1964	0.9226
1973	0.9192
1982	0.9209
1991	0.9251
2000	0.9272
2009	0.9284
2018	0.9281
2027	0.9274
2036	0.9261
2045	0.924
2054	0.9218
2063	0.9195
2072	0.9173
2081	0.916
2090	0.9147
2099	0.9135
2108	0.9123
2117	0.9111
2126	0.9101
2135	0.9091
2144	0.9081
2153	0.9068
2162	0.9054
2171	0.904
2180	0.9026
2189	0.901
2198	0.8995
2207	0.898
2216	0.8965
2225	0.8951
2234	0.8937
2243	0.8923
2252	0.8909
2261	0.8896
2270	0.8883
2279	0.8871
2288	0.8851
2297	0.8823
2306	0.8795
2315	0.8768
2324	0.8772
2333	0.8778
2342	0.878
2351	0.878
2360	0.8777
2369	0.8769
2378	0.8759
2387	0.8747
2396	0.8735
2405	0.8715
2414	0.869
2423	0.8672
2432	0.8664
2441	0.8677
2450	0.8661
2459	0.8619
2468	0.8585
2477	0.8591
2486	0.8598
2495	0.8564
2504	0.8528
2513	0.8497
2522	0.8466
2531	0.8442
2540	0.8419
2549	0.8398
2558	0.8378
2567	0.8358
2576	0.8345
2585	0.8333
2594	0.8321
2603	0.8306
2612	0.8288
2621	0.827
2630	0.8252
2639	0.8234
2648	0.822
2657	0.8208
2666	0.8197
2675	0.8185
2684	0.8174
2693	0.8165
2702	0.8156
2711	0.8147
2720	0.8138
2729	0.8121
2738	0.8094
2747	0.8067
2756	0.8032
2765	0.7978
2774	0.7924
2783	0.7862
2792	0.7795
2801	0.7732
2810	0.7676
2819	0.7617
2828	0.7544
2837	0.7458
2846	0.7341
2855	0.7199
2864	0.7141
2873	0.7117
2882	0.7114
2891	0.7074
2900	0.6959
2909	0.6754
2918	0.6499
2927	0.6482
2936	0.6499
2945	0.6424
2954	0.6164
2963	0.6151
2972	0.668
2981	0.7226
2990	0.7247
2999	0.7195
3008	0.7186
3017	0.7117
3026	0.6848
3035	0.6977
3044	0.7083
3053	0.7201
3062	0.7341
3071	0.7498
3080	0.7575
3089	0.777
3098	0.7822
3107	0.7848
3116	0.7864
3125	0.7866
3134	0.7845
3143	0.7756
3152	0.7866
3161	0.7884
3170	0.7869
3179	0.7852
3188	0.7831
3197	0.7805
3206	0.7778
3215	0.7749
3224	0.7723
3233	0.7697
3242	0.7671
3251	0.7646
3260	0.7621
3269	0.7597
3278	0.7572
3287	0.7547
3296	0.7515
3305	0.7481
3314	0.7439
3323	0.7384
3332	0.7329
3341	0.727
3350	0.7211
3359	0.7152
3368	0.7092
3377	0.7032
3386	0.6976
3395	0.6925
3404	0.6874
3413	0.6855
3422	0.6842
3431	0.6834
3440	0.6846
3449	0.6858
3458	0.6873
3467	0.6906
3476	0.6939
3485	0.6972
3494	0.7015
3503	0.7058
3512	0.7102
3521	0.7146
3530	0.719
3539	0.7234
3548	0.7278
3557	0.732
3566	0.7361
3575	0.7402
3584	0.7442
3593	0.7478
3602	0.7514
3611	0.7549
3620	0.7578
3629	0.7602
3638	0.7627
3647	0.7648
3656	0.7659
3665	0.7669
3674	0.7672
3683	0.7665
3692	0.7659
3701	0.7665
3710	0.7677
3719	0.7683
3728	0.7687
3737	0.7682
3746	0.7672
3755	0.7663
3764	0.7653
3773	0.7643
3782	0.7631
3791	0.7619
3800	0.761
3809	0.7602
