Infrared Spectrum: p-phenylenebis(trimethylSilane)
Formula: C12 H22 Si2
CAS: 13183-70-5
State: SOLUTION (11% CCl4 FOR 3800-1300, 2% CS2 FOR 1300-650, AND 11% CCl4 FOR 650-250)
Melting point: 88 C
Class: COBLENTZ III
Instrument: PERKIN-ELMER 521 (GRATING)
Instrument parameters: FILTERS AT 3150, 2500, 2000, 1150, 700, 410. GRATING CHANGES: 2000, 630
Path length: 0.011 CM, 0.011 CM, AND 0.021 CM
Resolution: 2
Origin: DOW CORNING CORP.
1/CM	TRANSMITTANCE
250	0.6698
259	0.6606
268	0.6051
277	0.609
286	0.7374
295	0.8451
304	0.859
313	0.8587
322	0.8611
331	0.8731
340	0.8882
349	0.8914
358	0.8894
367	0.8905
376	0.8791
385	0.855
394	0.8718
403	0.8726
412	0.8704
421	0.8641
430	0.849
439	0.8085
448	0.7
457	0.1277
466	0.447
475	0.7439
484	0.7266
493	0.2859
502	0.1497
511	0.6826
520	0.7945
529	0.8281
538	0.8442
547	0.8506
556	0.8506
565	0.8486
574	0.8486
583	0.8594
592	0.8631
601	0.8509
610	0.7821
619	0.6768
628	0.3519
637	0.0492
646	0.4861
655	0.8745
664	0.878
673	0.8836
682	0.8344
691	0.6897
700	0.816
709	0.8537
718	0.8467
727	0.8213
736	0.7418
745	0.4347
754	0.4673
763	0.7926
772	0.8271
781	0.8245
790	0.7719
799	0.6484
808	0.673
817	0.605
826	0.2632
835	0.0149
844	0.1402
853	0.433
862	0.6954
871	0.7745
880	0.8277
889	0.8646
898	0.8786
907	0.893
916	0.904
925	0.9108
934	0.9154
943	0.9173
952	0.918
961	0.9183
970	0.9187
979	0.9124
988	0.9036
997	0.8927
1006	0.8853
1015	0.88
1024	0.8798
1033	0.8813
1042	0.8722
1051	0.8638
1060	0.8579
1069	0.8523
1078	0.8474
1087	0.8686
1096	0.8752
1105	0.866
1114	0.8351
1123	0.6344
1132	0.4551
1141	0.878
1150	0.9045
1159	0.9056
1168	0.8997
1177	0.8897
1186	0.8723
1195	0.8917
1204	0.8939
1213	0.8855
1222	0.8581
1231	0.8065
1240	0.5314
1249	0.1183
1258	0.6795
1267	0.8656
1276	0.8919
1285	0.8922
1294	0.8902
1303	0.7594
1312	0.7477
1321	0.7364
1330	0.747
1339	0.7565
1348	0.6576
1357	0.7931
1366	0.7667
1375	0.3954
1384	0.623
1393	0.6852
1402	0.5157
1411	0.6192
1420	0.7068
1429	0.7159
1438	0.7039
1447	0.7406
1456	0.7775
1465	0.8414
1474	0.8602
1483	0.839
1492	0.8636
1501	0.8632
1510	0.8598
1519	0.858
1528	0.8515
1537	0.8329
1546	0.8599
1555	0.8622
1564	0.8603
1573	0.8404
1582	0.857
1591	0.8762
1600	0.8761
1609	0.8797
1618	0.8818
1627	0.8814
1636	0.88
1645	0.8639
1654	0.8474
1663	0.8713
1672	0.8923
1681	0.8944
1690	0.895
1699	0.8948
1708	0.9
1717	0.8968
1726	0.9059
1735	0.904
1744	0.8964
1753	0.8925
1762	0.9035
1771	0.9094
1780	0.9097
1789	0.9066
1798	0.9025
1807	0.8922
1816	0.858
1825	0.8949
1834	0.9034
1843	0.9013
1852	0.8909
1861	0.8708
1870	0.8662
1879	0.8696
1888	0.8895
1897	0.8921
1906	0.8733
1915	0.8028
1924	0.8694
1933	0.8652
1942	0.8673
1951	0.8873
1960	0.8956
1969	0.8924
1978	0.9069
1987	0.9063
1996	0.9064
2005	0.9013
2014	0.9073
2023	0.9101
2032	0.9098
2041	0.9084
2050	0.9072
2059	0.9057
2068	0.902
2077	0.8966
2086	0.8896
2095	0.8836
2104	0.8898
2113	0.8985
2122	0.904
2131	0.9051
2140	0.9055
2149	0.9057
2158	0.9054
2167	0.9047
2176	0.9049
2185	0.9058
2194	0.9061
2203	0.9027
2212	0.8983
2221	0.8976
2230	0.8993
2239	0.8994
2248	0.8983
2257	0.9031
2266	0.9069
2275	0.9077
2284	0.9074
2293	0.9071
2302	0.9045
2311	0.9033
2320	0.9071
2329	0.911
2338	0.9125
2347	0.9125
2356	0.9106
2365	0.9073
2374	0.9054
2383	0.9059
2392	0.9066
2401	0.9075
2410	0.9092
2419	0.9093
2428	0.9093
2437	0.9099
2446	0.9056
2455	0.8996
2464	0.8942
2473	0.8898
2482	0.8881
2491	0.893
2500	0.8988
2509	0.9018
2518	0.9041
2527	0.904
2536	0.9037
2545	0.9032
2554	0.9026
2563	0.9019
2572	0.9006
2581	0.8986
2590	0.8968
2599	0.8952
2608	0.895
2617	0.8987
2626	0.902
2635	0.8985
2644	0.8903
2653	0.8881
2662	0.8886
2671	0.89
2680	0.8906
2689	0.8911
2698	0.8904
2707	0.8866
2716	0.8794
2725	0.8802
2734	0.8822
2743	0.8851
2752	0.8741
2761	0.867
2770	0.8577
2779	0.8397
2788	0.8181
2797	0.8069
2806	0.8029
2815	0.8021
2824	0.802
2833	0.7914
2842	0.7757
2851	0.7636
2860	0.7592
2869	0.756
2878	0.7317
2887	0.6726
2896	0.5372
2905	0.4084
2914	0.4914
2923	0.608
2932	0.5808
2941	0.5363
2950	0.3614
2959	0.1283
2968	0.014
2977	0.2144
2986	0.47
2995	0.5933
3004	0.5351
3013	0.5299
3022	0.744
3031	0.6766
3040	0.5564
3049	0.4361
3058	0.3159
3067	0.6442
3076	0.7637
3085	0.7984
3094	0.8009
3103	0.825
3112	0.841
3121	0.8506
3130	0.8571
3139	0.862
3148	0.8666
3157	0.8706
3166	0.874
3175	0.8774
3184	0.8829
3193	0.8881
3202	0.8929
3211	0.8979
3220	0.9022
3229	0.9052
3238	0.9074
3247	0.9084
3256	0.9093
3265	0.91
3274	0.9085
3283	0.904
3292	0.9045
3301	0.9084
3310	0.912
3319	0.9141
3328	0.9141
3337	0.914
3346	0.914
3355	0.914
3364	0.9139
3373	0.9136
3382	0.9133
3391	0.9133
3400	0.9136
3409	0.9138
3418	0.914
3427	0.9142
3436	0.9145
3445	0.9147
3454	0.9149
3463	0.9152
3472	0.9154
3481	0.9151
3490	0.9149
3499	0.9145
3508	0.9142
3517	0.9137
3526	0.9133
3535	0.9129
3544	0.9127
3553	0.9125
3562	0.9127
3571	0.9124
3580	0.9093
3589	0.9105
3598	0.9129
3607	0.9066
3616	0.9081
3625	0.9042
3634	0.8956
3643	0.8881
3652	0.884
3661	0.8839
3670	0.8882
3679	0.8948
3688	0.9027
3697	0.896
3706	0.876
3715	0.8715
3724	0.891
3733	0.891
3742	0.8825
3751	0.8861
3760	0.8986
3769	0.9064
3778	0.9038
3787	0.9115
3796	0.9074
3805	0.8993
3814	0.9002
3823	0.9049
