Infrared Spectrum: 3,5-Dibromo-4-methylaniline
Formula: C 7 H 7 Br 2 N
CAS: 13194-73-5
State: gas
Origin: EPA-IR VAPOR PHASE LIBRARY
1/CM	ABSORBANCE
549.9	0.01117
559.547	0.01155
569.193	0.01356
578.84	0.01428
588.486	0.01166
598.133	0.0095
607.779	0.00919
617.426	0.01006
627.072	0.01302
636.719	0.01755
646.365	0.03021
656.012	0.05713
665.658	0.06331
675.305	0.05184
684.951	0.04048
694.598	0.03033
704.245	0.02769
713.891	0.02458
723.538	0.02748
733.184	0.08356
742.831	0.08769
752.477	0.02169
762.124	0.01304
771.77	0.01208
781.417	0.01217
791.063	0.01201
800.71	0.01142
810.356	0.01274
820.003	0.01572
829.649	0.02577
839.296	0.04642
848.943	0.03659
858.589	0.01926
868.236	0.0115
877.882	0.00911
887.529	0.00986
897.175	0.01338
906.822	0.02452
916.468	0.03934
926.115	0.0209
935.761	0.00758
945.408	0.00915
955.054	0.01245
964.701	0.01908
974.347	0.0323
983.994	0.03961
993.64	0.0272
1003.29	0.01959
1012.93	0.01463
1022.58	0.01303
1032.23	0.01758
1041.87	0.03487
1051.52	0.03226
1061.17	0.01396
1070.81	0.0092
1080.46	0.00861
1090.11	0.00958
1099.75	0.00974
1109.4	0.00749
1119.05	0.00567
1128.69	0.00456
1138.34	0.00333
1147.99	0.0026788
1157.63	0.00288
1167.28	0.00347
1176.92	0.00526
1186.57	0.00577
1196.22	0.00366
1205.86	0.00513
1215.51	0.00367
1225.16	0.00314
1234.8	0.00538
1244.45	0.01264
1254.1	0.03231
1263.74	0.05146
1273.39	0.04925
1283.04	0.01962
1292.68	0.0056
1302.33	0.00443
1311.98	0.00426
1321.62	0.00396
1331.27	0.00418
1340.92	0.00527
1350.56	0.00767
1360.21	0.00789
1369.86	0.00755
1379.5	0.01253
1389.15	0.0218
1398.79	0.03703
1408.44	0.04575
1418.09	0.03321
1427.73	0.02558
1437.38	0.02046
1447.03	0.02931
1456.67	0.0689
1466.32	0.1042
1475.97	0.06299
1485.61	0.02523
1495.26	0.01363
1504.91	0.01152
1514.55	0.01335
1524.2	0.01833
1533.85	0.03393
1543.49	0.07187
1553.14	0.08484
1562.79	0.04592
1572.43	0.02941
1582.08	0.04877
1591.73	0.10502
1601.37	0.12112
1611.02	0.09896
1620.67	0.14095
1630.31	0.11508
1639.96	0.05063
1649.6	0.02487
1659.25	0.016
1668.9	0.0138
1678.54	0.01429
1688.19	0.01218
1697.84	0.00923
1707.48	0.00657
1717.13	0.00449
1726.78	0.00389
1736.42	0.00344
1746.07	0.00291
1755.72	0.0025612
1765.36	0.0023768
1775.01	0.0024736
1784.66	0.002472
1794.3	0.0022968
1803.95	0.0022086
1813.6	0.0021492
1823.24	0.0020427
1832.89	0.0022213
1842.54	0.0022115
1852.18	0.0024552
1861.83	0.0023816
1871.47	0.0022551
1881.12	0.0023134
1890.77	0.0024272
1900.41	0.0022994
1910.06	0.0022659
1919.71	0.002554
1929.35	0.00304
1939	0.0032
1948.65	0.00279
1958.29	0.0026677
1967.94	0.0024017
1977.59	0.002112
1987.23	0.0020613
1996.88	0.0021282
2006.53	0.0023245
2016.17	0.0025931
2025.82	0.0025573
2035.47	0.0022846
2045.11	0.0021912
2054.76	0.002298
2064.41	0.0024563
2074.05	0.0021275
2083.7	0.0020781
2093.35	0.0020194
2102.99	0.0019765
2112.64	0.00183029
2122.28	0.0018706
2131.93	0.0019061
2141.58	0.0019468
2151.22	0.0019018
2160.87	0.0019829
2170.52	0.0020796
2180.16	0.0021518
2189.81	0.002139
2199.46	0.0018869
2209.1	0.0016508
2218.75	0.001569
2228.4	0.001496
2238.04	0.001584
2247.69	0.0016937
2257.34	0.0018684
2266.98	0.00176548
2276.63	0.00179104
2286.28	0.0018437
2295.92	0.0019104
2305.57	0.0018552
2315.22	0.0016735
2324.86	0.001526
2334.51	0.00162
2344.16	0.00154
2353.8	0.001667
2363.45	0.0016798
2373.09	0.00175088
2382.74	0.00178041
2392.39	0.001635
2402.03	0.001458
2411.68	0.001529
2421.33	0.001554
2430.97	0.001521
2440.62	0.001561
2450.27	0.001526
2459.91	0.001549
2469.56	0.001477
2479.21	0.001471
2488.85	0.001442
2498.5	0.00149
2508.15	0.0016958
2517.79	0.0018982
2527.44	0.0022078
2537.09	0.002419
2546.73	0.002156
2556.38	0.0016926
2566.03	0.001342
2575.67	0.00142
2585.32	0.001603
2594.96	0.0016617
2604.61	0.001504
2614.26	0.001501
2623.9	0.001428
2633.55	0.001475
2643.2	0.00142
2652.84	0.001487
2662.49	0.001565
2672.14	0.0016964
2681.78	0.0016948
2691.43	0.0017157
2701.08	0.001956
2710.72	0.0020502
2720.37	0.0023421
2730.02	0.0024287
2739.66	0.0025181
2749.31	0.0023594
2758.96	0.0019237
2768.6	0.001405
2778.25	0.001318
2787.9	0.001571
2797.54	0.00180425
2807.19	0.002137
2816.84	0.0022025
2826.48	0.0020199
2836.13	0.002009
2845.77	0.0022566
2855.42	0.00322
2865.07	0.00448
2874.71	0.00499
2884.36	0.00451
2894.01	0.00418
2903.65	0.00432
2913.3	0.00525
2922.95	0.00781
2932.59	0.01276
2942.24	0.01433
2951.89	0.00997
2961.53	0.00643
2971.18	0.00441
2980.83	0.00339
2990.47	0.00285
3000.12	0.00297
3009.77	0.00292
3019.41	0.00362
3029.06	0.00457
3038.71	0.00599
3048.35	0.00704
3058	0.00664
3067.64	0.00715
3077.29	0.00614
3086.94	0.00341
3096.58	0.0018577
3106.23	0.001017
3115.88	0.00068
3125.52	0.00031
3135.17	0.00041
3144.82	0.00028
3154.46	0.00034
3164.11	0.00017
3173.76	0.00033
3183.4	0.0006
3193.05	0.00067
3202.7	0.001073
3212.34	0.001389
3221.99	0.00183614
3231.64	0.0021485
3241.28	0.00182097
3250.93	0.001008
3260.58	0.0006
3270.22	0.00055
3279.87	0.00041
3289.52	5e-05
3299.16	6e-05
3308.81	3e-05
3318.45	0.00021
3328.1	6e-05
3337.75	6e-05
3347.39	0.00032
3357.04	0.00027
3366.69	0.000886
3376.33	0.0019148
3385.98	0.00376
3395.63	0.00788
3405.27	0.01478
3414.92	0.0176
3424.57	0.0165
3434.21	0.01021
3443.86	0.00292
3453.51	0.0017189
3463.15	0.002352
3472.8	0.00379
3482.45	0.00664
3492.09	0.01051
3501.74	0.00875
3511.39	0.00874
3521.03	0.00786
3530.68	0.0020174
3540.33	0.001074
3549.97	0.000828
3559.62	0.0008
3569.26	0.00072
3578.91	0.00061
3588.56	0.00081
3598.2	0.00065
3607.85	0.00084
3617.5	0.00062
3627.14	0.000765
3636.79	0.000789
3646.44	0.000841
3656.08	0.000773
3665.73	0.000817
3675.38	0.000829
3685.02	0.001004
3694.67	0.000762
3704.32	0.000866
3713.96	0.000958
3723.61	0.001019
3733.26	0.001016
3742.9	0.000975
3752.55	0.001086
3762.2	0.001166
3771.84	0.001225
3781.49	0.001297
3791.13	0.001077
3800.78	0.001243
3810.43	0.001482
3820.07	0.001314
3829.72	0.001303
3839.37	0.0016716
3849.01	0.0027239
3858.66	0.00274
3868.31	0.00180114
3877.95	0.001353
3887.6	0.001407
3897.25	0.001584
3906.89	0.001498
3916.54	0.001412
3926.19	0.00139
3935.83	0.0016784
3945.48	0.0020007
3955.13	0.001527
3964.77	0.001227
3974.42	0.001359
3984.07	0.001362
3993.71	0.001378
