Infrared Spectrum: 4-Fluoro-2-iodotoluene
Formula: C 7 H 6 F I
CAS: 13194-67-7
State: gas
Origin: EPA-IR VAPOR PHASE LIBRARY
1/CM	ABSORBANCE
549.9	0.00388
559.547	0.00351
569.193	0.0016939
578.84	0.001146
588.486	0.00077
598.133	0.000485
607.779	0.0006
617.426	0.000908
627.072	0.000928
636.719	0.0012585
646.365	0.0017201
656.012	0.00474
665.658	0.00792
675.305	0.00491
684.951	0.00422
694.598	0.00231
704.245	0.0017509
713.891	0.00259
723.538	0.00587
733.184	0.02268
742.831	0.02128
752.477	0.00345
762.124	0.0019634
771.77	0.0019368
781.417	0.00258
791.063	0.00924
800.71	0.02436
810.356	0.02583
820.003	0.01125
829.649	0.0043
839.296	0.00589
848.943	0.02377
858.589	0.06306
868.236	0.05532
877.882	0.03165
887.529	0.01787
897.175	0.00726
906.822	0.00375
916.468	0.00308
926.115	0.00232
935.761	0.0018212
945.408	0.0015673
955.054	0.0016379
964.701	0.0019251
974.347	0.00276
983.994	0.0049
993.64	0.00669
1003.29	0.00532
1012.93	0.0075
1022.58	0.01832
1032.23	0.0232
1041.87	0.0085
1051.52	0.00306
1061.17	0.0022845
1070.81	0.0020308
1080.46	0.0019782
1090.11	0.0017803
1099.75	0.0019132
1109.4	0.0020554
1119.05	0.002056
1128.69	0.00328
1138.34	0.00294
1147.99	0.0018608
1157.63	0.00269
1167.28	0.00759
1176.92	0.01456
1186.57	0.01403
1196.22	0.00948
1205.86	0.01113
1215.51	0.02571
1225.16	0.06045
1234.8	0.05909
1244.45	0.0178
1254.1	0.01703
1263.74	0.03423
1273.39	0.03419
1283.04	0.01578
1292.68	0.004
1302.33	0.00236
1311.98	0.0023038
1321.62	0.00244
1331.27	0.00231
1340.92	0.00262
1350.56	0.00405
1360.21	0.00525
1369.86	0.00568
1379.5	0.0084
1389.15	0.00902
1398.79	0.00652
1408.44	0.00802
1418.09	0.01113
1427.73	0.01028
1437.38	0.01226
1447.03	0.01612
1456.67	0.0193
1466.32	0.03773
1475.97	0.10022
1485.61	0.13343
1495.26	0.07059
1504.91	0.01735
1514.55	0.0066
1524.2	0.00536
1533.85	0.00549
1543.49	0.00632
1553.14	0.00799
1562.79	0.01283
1572.43	0.03259
1582.08	0.07736
1591.73	0.08798
1601.37	0.0449
1611.02	0.02124
1620.67	0.01403
1630.31	0.00766
1639.96	0.00406
1649.6	0.00298
1659.25	0.00272
1668.9	0.0022604
1678.54	0.0018822
1688.19	0.001802
1697.84	0.0021312
1707.48	0.00266
1717.13	0.00378
1726.78	0.00431
1736.42	0.0037
1746.07	0.0023005
1755.72	0.0015023
1765.36	0.0012837
1775.01	0.001159
1784.66	0.001133
1794.3	0.001179
1803.95	0.001188
1813.6	0.001159
1823.24	0.001144
1832.89	0.0012909
1842.54	0.0015334
1852.18	0.0021099
1861.83	0.00341
1871.47	0.00353
1881.12	0.002266
1890.77	0.0015883
1900.41	0.00135493
1910.06	0.0012517
1919.71	0.0012463
1929.35	0.00131683
1939	0.00138973
1948.65	0.0015308
1958.29	0.0018673
1967.94	0.0018517
1977.59	0.0014551
1987.23	0.0012126
1996.88	0.001187
2006.53	0.0012597
2016.17	0.001221
2025.82	0.001146
2035.47	0.0012588
2045.11	0.00130825
2054.76	0.0013054
2064.41	0.001251
2074.05	0.00136761
2083.7	0.0014297
2093.35	0.00140261
2102.99	0.0012714
2112.64	0.001182
2122.28	0.001208
2131.93	0.001162
2141.58	0.001106
2151.22	0.001117
2160.87	0.000999
2170.52	0.000906
2180.16	0.000821
2189.81	0.000829
2199.46	0.000853
2209.1	0.000956
2218.75	0.000944
2228.4	0.000893
2238.04	0.000885
2247.69	0.000912
2257.34	0.000989
2266.98	0.001008
2276.63	0.00103
2286.28	0.001138
2295.92	0.0012486
2305.57	0.0012199
2315.22	0.001104
2324.86	0.001193
2334.51	0.0012765
2344.16	0.0012537
2353.8	0.0012411
2363.45	0.001163
2373.09	0.001138
2382.74	0.001102
2392.39	0.001209
2402.03	0.00133205
2411.68	0.00132995
2421.33	0.0012518
2430.97	0.0014226
2440.62	0.0017084
2450.27	0.0018832
2459.91	0.0017788
2469.56	0.0015503
2479.21	0.0014892
2488.85	0.0015019
2498.5	0.00139098
2508.15	0.0012762
2517.79	0.001179
2527.44	0.001088
2537.09	0.001003
2546.73	0.000921
2556.38	0.000811
2566.03	0.000934
2575.67	0.000907
2585.32	0.000874
2594.96	0.001027
2604.61	0.001063
2614.26	0.00104
2623.9	0.000907
2633.55	0.00072
2643.2	0.000807
2652.84	0.000826
2662.49	0.000825
2672.14	0.000759
2681.78	0.000802
2691.43	0.000833
2701.08	0.000907
2710.72	0.000975
2720.37	0.00102
2730.02	0.000917
2739.66	0.00113
2749.31	0.00136387
2758.96	0.001198
2768.6	0.000921
2778.25	0.000775
2787.9	0.000746
2797.54	0.000857
2807.19	0.000914
2816.84	0.00130188
2826.48	0.001594
2836.13	0.0018464
2845.77	0.0023077
2855.42	0.00284
2865.07	0.00399
2874.71	0.00481
2884.36	0.00415
2894.01	0.00346
2903.65	0.00356
2913.3	0.00444
2922.95	0.00722
2932.59	0.01141
2942.24	0.01092
2951.89	0.00803
2961.53	0.00859
2971.18	0.00861
2980.83	0.00966
2990.47	0.00875
3000.12	0.0055
3009.77	0.00376
3019.41	0.00469
3029.06	0.00695
3038.71	0.00685
3048.35	0.00461
3058	0.00553
3067.64	0.00724
3077.29	0.0069
3086.94	0.00507
3096.58	0.00271
3106.23	0.001572
3115.88	0.000932
3125.52	0.00054
3135.17	0.000505
3144.82	0.000343
3154.46	0.00028
3164.11	0.00024
3173.76	0.000366
3183.4	0.00023
3193.05	0.00028
3202.7	0.00019
3212.34	9e-05
3221.99	4e-05
3231.64	0.00029
3241.28	0.00025
3250.93	0.00012
3260.58	0.00018
3270.22	9e-05
3279.87	3e-05
3289.52	0.00012
3299.16	0.00031
3308.81	0.00024
3318.45	0.00025
3328.1	0.00016
3337.75	9e-05
3347.39	0.000358
3357.04	0.00025
3366.69	0.00015
3376.33	0.000329
3385.98	0.000344
3395.63	0.000401
3405.27	0.000359
3414.92	0.000377
3424.57	0.000321
3434.21	0.000401
3443.86	0.000398
3453.51	0.000501
3463.15	0.000325
3472.8	0.00025
3482.45	0.000517
3492.09	0.000352
3501.74	0.000467
3511.39	0.000371
3521.03	0.000566
3530.68	0.000485
3540.33	0.000336
3549.97	0.000409
3559.62	0.000532
3569.26	0.000411
3578.91	0.000731
3588.56	0.000546
3598.2	0.000505
3607.85	0.000416
3617.5	0.000578
3627.14	0.000511
3636.79	0.000759
3646.44	0.000745
3656.08	0.000574
3665.73	0.000425
3675.38	0.000481
3685.02	0.00073
3694.67	0.000655
3704.32	0.000749
3713.96	0.000816
3723.61	0.000682
3733.26	0.000627
3742.9	0.000745
3752.55	0.000736
3762.2	0.000885
3771.84	0.000667
3781.49	0.000701
3791.13	0.000767
3800.78	0.000571
3810.43	0.00075
3820.07	0.000846
3829.72	0.000625
3839.37	0.000737
3849.01	0.000576
3858.66	0.000662
3868.31	0.000787
3877.95	0.000652
3887.6	0.000668
3897.25	0.000721
3906.89	0.0008
3916.54	0.000775
3926.19	0.000803
3935.83	0.000932
3945.48	0.000783
3955.13	0.000846
3964.77	0.000811
3974.42	0.000766
3984.07	0.000785
3993.71	0.000793
