Infrared Spectrum: DL-Goitrin
Formula: C 5 H 7 N O S
CAS: 13190-34-6
State: gas
Origin: EPA-IR VAPOR PHASE LIBRARY
1/CM	ABSORBANCE
549.8	0.003258
559.445	0.002028
569.09	0.0010258
578.734	0.002048
588.379	0.001508
598.024	0.002418
607.669	0.002428
617.313	0.001678
626.958	0.001448
636.603	0.001958
646.248	0.001988
655.893	0.002178
665.537	0.001968
675.182	0.001918
684.827	0.001558
694.472	0.001728
704.116	0.001838
713.761	0.001608
723.406	0.001898
733.051	0.001458
742.695	0.001338
752.34	0.0009891
761.985	0.001368
771.63	0.001558
781.275	0.001828
790.919	0.001588
800.564	0.001768
810.209	0.001688
819.854	0.002048
829.498	0.002168
839.143	0.002488
848.788	0.002658
858.433	0.002928
868.078	0.003308
877.722	0.003198
887.367	0.002838
897.012	0.004808
906.657	0.007418
916.301	0.010598
925.946	0.013388
935.591	0.014248
945.236	0.012928
954.88	0.010418
964.525	0.009088
974.17	0.010238
983.815	0.010948
993.46	0.010748
1003.1	0.009408
1012.75	0.008268
1022.39	0.007898
1032.04	0.009698
1041.68	0.013678
1051.33	0.012528
1060.97	0.008018
1070.62	0.004478
1080.26	0.004068
1089.91	0.003838
1099.55	0.003828
1109.2	0.003908
1118.84	0.005038
1128.49	0.004988
1138.13	0.009148
1147.78	0.017058
1157.42	0.035138
1167.07	0.057348
1176.71	0.057168
1186.36	0.031938
1196	0.015408
1205.64	0.009928
1215.29	0.009848
1224.93	0.016758
1234.58	0.025618
1244.22	0.024068
1253.87	0.015968
1263.51	0.011168
1273.16	0.011698
1282.8	0.016238
1292.45	0.021378
1302.09	0.021938
1311.74	0.017918
1321.38	0.014308
1331.03	0.013978
1340.67	0.018438
1350.32	0.020478
1359.96	0.015438
1369.61	0.008458
1379.25	0.005258
1388.9	0.004078
1398.54	0.004268
1408.18	0.005448
1417.83	0.008008
1427.47	0.011618
1437.12	0.017348
1446.76	0.031958
1456.41	0.055938
1466.05	0.061268
1475.7	0.042868
1485.34	0.027058
1494.99	0.023898
1504.63	0.018578
1514.28	0.008838
1523.92	0.004718
1533.57	0.003038
1543.21	0.001928
1552.86	0.001668
1562.5	0.001568
1572.15	0.001268
1581.79	0.001478
1591.44	0.001468
1601.08	0.001288
1610.73	0.001358
1620.37	0.001378
1630.01	0.001598
1639.66	0.001648
1649.3	0.001748
1658.95	0.001578
1668.59	0.0012654
1678.24	0.0012256
1687.88	0.001137
1697.53	0.0010975
1707.17	0.001158
1716.82	0.0009732
1726.46	0.0010838
1736.11	0.001298
1745.75	0.001378
1755.4	0.001438
1765.04	0.001052
1774.69	0.0009539
1784.33	0.0008839
1793.98	0.0009019
1803.62	0.0008313
1813.27	0.0009687
1822.91	0.0009363
1832.55	0.0008133
1842.2	0.0009806
1851.84	0.0010947
1861.49	0.0012625
1871.13	0.001618
1880.78	0.001548
1890.42	0.001528
1900.07	0.0012452
1909.71	0.001308
1919.36	0.001224
1929	0.0012207
1938.65	0.001398
1948.29	0.001638
1957.94	0.001878
1967.58	0.002078
1977.23	0.002548
1986.87	0.003268
1996.52	0.004058
2006.16	0.005368
2015.81	0.007408
2025.45	0.010088
2035.1	0.013308
2044.74	0.016188
2054.38	0.017338
2064.03	0.016638
2073.67	0.013808
2083.32	0.009578
2092.96	0.006678
2102.61	0.005198
2112.25	0.004658
2121.9	0.004538
2131.54	0.004278
2141.19	0.003568
2150.83	0.002908
2160.48	0.002408
2170.12	0.002068
2179.77	0.001968
2189.41	0.002188
2199.06	0.002168
2208.7	0.002258
2218.35	0.002068
2227.99	0.001918
2237.64	0.001798
2247.28	0.001598
2256.92	0.001488
2266.57	0.0012192
2276.21	0.0011945
2285.86	0.001094
2295.5	0.0010373
2305.15	0.0009601
2314.79	0.000791
2324.44	0.0007969
2334.08	0.0009813
2343.73	0.0007184
2353.37	0.0009173
2363.02	0.0008
2372.66	0.0006322
2382.31	0.0004128
2391.95	0.0007793
2401.6	0.0008762
2411.24	0.0009009
2420.89	0.0009338
2430.53	0.0006136
2440.18	0.0006847
2449.82	0.0008298
2459.47	0.0008577
2469.11	0.0007886
2478.75	0.0007689
2488.4	0.0008971
2498.04	0.000908
2507.69	0.0008362
2517.33	0.0007931
2526.98	0.0008315
2536.62	0.000832
2546.27	0.0006286
2555.91	0.0005367
2565.56	0.0008023
2575.2	0.0004734
2584.85	0.0005713
2594.49	0.0007085
2604.14	0.0006999
2613.78	0.0006858
2623.43	0.0006009
2633.07	0.0007618
2642.72	0.0007073
2652.36	0.0006817
2662.01	0.0005862
2671.65	0.0008027
2681.29	0.0006544
2690.94	0.0007996
2700.58	0.0008283
2710.23	0.0006389
2719.87	0.0008681
2729.52	0.0008078
2739.16	0.0008186
2748.81	0.0010695
2758.45	0.0009078
2768.1	0.0008347
2777.74	0.0008761
2787.39	0.000956
2797.03	0.0010531
2806.68	0.0010542
2816.32	0.0012248
2825.97	0.0012442
2835.61	0.001378
2845.26	0.001418
2854.9	0.001938
2864.55	0.002328
2874.19	0.004048
2883.84	0.006118
2893.48	0.006938
2903.12	0.005788
2912.77	0.005118
2922.41	0.004538
2932.06	0.005438
2941.7	0.005798
2951.35	0.006098
2960.99	0.005998
2970.64	0.005088
2980.28	0.004028
2989.93	0.003978
2999.57	0.003498
3009.22	0.002808
3018.86	0.002548
3028.51	0.002298
3038.15	0.001448
3047.8	0.0012445
3057.44	0.0008521
3067.09	0.0009132
3076.73	0.001348
3086.38	0.001998
3096.02	0.002678
3105.67	0.002098
3115.31	0.001448
3124.95	0.000797
3134.6	0.0007003
3144.24	0.0004339
3153.89	0.0004923
3163.53	0.0005297
3173.18	0.0007686
3182.82	0.0007642
3192.47	0.0004013
3202.11	0.0006422
3211.76	0.0006327
3221.4	0.0001943
3231.05	0.0006161
3240.69	0.0008989
3250.34	0.0007012
3259.98	0.0007076
3269.63	0.0006741
3279.27	0.00033542
3288.92	2.7e-05
3298.56	0.0003831
3308.21	0.0004404
3317.85	0.00033126
3327.49	0.0006538
3337.14	0.0005285
3346.78	0.0008538
3356.43	0.0007341
3366.07	0.0001845
3375.72	0.0004162
3385.36	0.0004215
3395.01	0.0008343
3404.65	0.0005979
3414.3	0.0004205
3423.94	0.0008385
3433.59	0.0008247
3443.23	0.0011831
3452.88	0.001338
3462.52	0.002198
3472.17	0.003998
3481.81	0.008128
3491.46	0.010218
3501.1	0.009198
3510.75	0.004638
3520.39	0.002048
3530.04	0.0008862
3539.68	0.0007069
3549.32	0.0008148
3558.97	0.0004897
3568.61	0.0004194
3578.26	0.0007835
3587.9	0.0005813
3597.55	0.0007131
3607.19	0.0006285
3616.84	0.0004718
3626.48	0.0008487
3636.13	0.0009083
3645.77	0.001054
3655.42	0.0011236
3665.06	0.0009996
3674.71	0.0008434
3684.35	0.0010882
3694	0.0005233
3703.64	0.0005517
3713.29	0.00029908
3722.93	0.0004497
3732.58	0.0006497
3742.22	0.000395
3751.86	0.000252
3761.51	0.0003748
3771.15	0.00033689
3780.8	0.00014
3790.44	0.00026055
3800.09	0.0004631
3809.73	0.0005188
3819.38	0.0003979
3829.02	0.0006548
3838.67	0.000814
3848.31	0.0007029
3857.96	0.0004907
3867.6	0.0009859
3877.25	0.0004762
3886.89	0.0007718
3896.54	0.0008227
3906.18	0.000243
3915.83	0.0007438
3925.47	0.0007181
3935.12	0.0008194
3944.76	0.0009142
3954.41	0.0005753
3964.05	0.0010447
3973.69	0.0006781
3983.34	0.000582
3992.98	0.0007244
