Infrared Spectrum: 2,5-Dibromo-3-methylthiophene
Formula: C 5 H 4 Br 2 S
CAS: 13191-36-1
State: gas
Origin: EPA-IR VAPOR PHASE LIBRARY
1/CM	ABSORBANCE
549.9	0.00915
559.547	0.00874
569.193	0.00682
578.84	0.01067
588.486	0.0082
598.133	0.003138
607.779	0.001521
617.426	0.001512
627.072	0.001796
636.719	0.001942
646.365	0.00362
656.012	0.00469
665.658	0.0055
675.305	0.00418
684.951	0.00811
694.598	0.00726
704.245	0.0026115
713.891	0.0027962
723.538	0.00852
733.184	0.01507
742.831	0.00473
752.477	0.003266
762.124	0.00355
771.77	0.00352
781.417	0.00467
791.063	0.00515
800.71	0.01263
810.356	0.04819
820.003	0.09482
829.649	0.0537
839.296	0.01745
848.943	0.00718
858.589	0.00505
868.236	0.00537
877.882	0.00632
887.529	0.00782
897.175	0.01877
906.822	0.07927
916.468	0.09603
926.115	0.01946
935.761	0.00754
945.408	0.00931
955.054	0.01282
964.701	0.02412
974.347	0.05139
983.994	0.09053
993.64	0.05541
1003.29	0.05819
1012.93	0.09409
1022.58	0.13104
1032.23	0.08186
1041.87	0.03593
1051.52	0.03613
1061.17	0.02621
1070.81	0.01729
1080.46	0.01321
1090.11	0.0078
1099.75	0.00698
1109.4	0.00515
1119.05	0.00372
1128.69	0.0030945
1138.34	0.0030538
1147.99	0.0033291
1157.63	0.00427
1167.28	0.00558
1176.92	0.02295
1186.57	0.08106
1196.22	0.01967
1205.86	0.00614
1215.51	0.004
1225.16	0.0031499
1234.8	0.0028895
1244.45	0.0029022
1254.1	0.0027843
1263.74	0.0030986
1273.39	0.00357
1283.04	0.00483
1292.68	0.00621
1302.33	0.0062
1311.98	0.00656
1321.62	0.01011
1331.27	0.01588
1340.92	0.01645
1350.56	0.01075
1360.21	0.00903
1369.86	0.0117
1379.5	0.01941
1389.15	0.02609
1398.79	0.03309
1408.44	0.05862
1418.09	0.07217
1427.73	0.04726
1437.38	0.02239
1447.03	0.01651
1456.67	0.01604
1466.32	0.01523
1475.97	0.01306
1485.61	0.01235
1495.26	0.0134
1504.91	0.01504
1514.55	0.01747
1524.2	0.02103
1533.85	0.03043
1543.49	0.05922
1553.14	0.06681
1562.79	0.02339
1572.43	0.01025
1582.08	0.00758
1591.73	0.00653
1601.37	0.00649
1611.02	0.00711
1620.67	0.0093
1630.31	0.01391
1639.96	0.01359
1649.6	0.00701
1659.25	0.0032969
1668.9	0.002475
1678.54	0.00214
1688.19	0.001914
1697.84	0.001824
1707.48	0.001816
1717.13	0.001889
1726.78	0.002234
1736.42	0.0025028
1746.07	0.002241
1755.72	0.002067
1765.36	0.001866
1775.01	0.00183
1784.66	0.001837
1794.3	0.001854
1803.95	0.001764
1813.6	0.001752
1823.24	0.001738
1832.89	0.0018
1842.54	0.001927
1852.18	0.002111
1861.83	0.0023288
1871.47	0.0027306
1881.12	0.002663
1890.77	0.0023322
1900.41	0.002132
1910.06	0.001864
1919.71	0.001827
1929.35	0.001924
1939	0.002037
1948.65	0.001937
1958.29	0.001865
1967.94	0.00187
1977.59	0.001686
1987.23	0.001586
1996.88	0.001605
2006.53	0.001556
2016.17	0.001516
2025.82	0.001476
2035.47	0.001462
2045.11	0.001455
2054.76	0.00154
2064.41	0.001711
2074.05	0.001747
2083.7	0.001703
2093.35	0.001767
2102.99	0.00182
2112.64	0.001646
2122.28	0.001531
2131.93	0.001553
2141.58	0.001782
2151.22	0.002047
2160.87	0.001961
2170.52	0.001758
2180.16	0.001502
2189.81	0.001521
2199.46	0.001521
2209.1	0.001538
2218.75	0.001422
2228.4	0.001383
2238.04	0.001435
2247.69	0.001539
2257.34	0.001508
2266.98	0.001476
2276.63	0.001592
2286.28	0.001773
2295.92	0.002096
2305.57	0.002033
2315.22	0.001846
2324.86	0.001861
2334.51	0.0018
2344.16	0.001876
2353.8	0.002141
2363.45	0.0026326
2373.09	0.0027052
2382.74	0.0023422
2392.39	0.00242658
2402.03	0.0025612
2411.68	0.0025385
2421.33	0.0025238
2430.97	0.0026775
2440.62	0.0027632
2450.27	0.0023297
2459.91	0.002054
2469.56	0.00195
2479.21	0.001873
2488.85	0.001817
2498.5	0.001749
2508.15	0.001683
2517.79	0.001692
2527.44	0.00162
2537.09	0.001426
2546.73	0.001422
2556.38	0.001448
2566.03	0.00161
2575.67	0.001617
2585.32	0.001399
2594.96	0.001416
2604.61	0.00134
2614.26	0.00119
2623.9	0.00114
2633.55	0.00112
2643.2	0.00112
2652.84	0.00105
2662.49	0.00103
2672.14	0.00107
2681.78	0.00111
2691.43	0.00121
2701.08	0.00126
2710.72	0.001531
2720.37	0.001767
2730.02	0.002228
2739.66	0.0031756
2749.31	0.00403
2758.96	0.0032097
2768.6	0.002196
2778.25	0.001938
2787.9	0.0023124
2797.54	0.0029815
2807.19	0.00385
2816.84	0.00462
2826.48	0.00532
2836.13	0.00581
2845.77	0.0074
2855.42	0.01055
2865.07	0.01627
2874.71	0.02198
2884.36	0.02117
2894.01	0.01808
2903.65	0.01954
2913.3	0.02768
2922.95	0.04574
2932.59	0.06404
2942.24	0.0561
2951.89	0.03365
2961.53	0.02102
2971.18	0.01443
2980.83	0.01026
2990.47	0.01069
3000.12	0.01348
3009.77	0.01607
3019.41	0.0177
3029.06	0.0184
3038.71	0.01538
3048.35	0.01028
3058	0.00722
3067.64	0.0065
3077.29	0.00647
3086.94	0.00584
3096.58	0.00481
3106.23	0.0030386
3115.88	0.002164
3125.52	0.00136
3135.17	0.00096
3144.82	0.00074
3154.46	0.00055
3164.11	0.00041
3173.76	0.00033
3183.4	0.00043
3193.05	0.00026
3202.7	0.00031
3212.34	0.00022
3221.99	0.0002
3231.64	0.0003
3241.28	7e-05
3250.93	0.00016
3260.58	0.00014
3270.22	6e-05
3279.87	0.00011
3289.52	0.00019
3299.16	0.00024
3308.81	0.00014
3318.45	0.00024
3328.1	4e-05
3337.75	0.00028
3347.39	0.00032
3357.04	0.00016
3366.69	0.00029
3376.33	0.00036
3385.98	0.00025
3395.63	0.00025
3405.27	0.00041
3414.92	0.00048
3424.57	0.00031
3434.21	0.00031
3443.86	0.00039
3453.51	0.00044
3463.15	0.00043
3472.8	0.00058
3482.45	0.00056
3492.09	0.00059
3501.74	0.00062
3511.39	0.00055
3521.03	0.0007
3530.68	0.00059
3540.33	0.00086
3549.97	0.00066
3559.62	0.00076
3569.26	0.00064
3578.91	0.00075
3588.56	0.00072
3598.2	0.00073
3607.85	0.00078
3617.5	0.00067
3627.14	0.00091
3636.79	0.00083
3646.44	0.00071
3656.08	0.00078
3665.73	0.00074
3675.38	0.00089
3685.02	0.00083
3694.67	0.00081
3704.32	0.00086
3713.96	0.00079
3723.61	0.0009
3733.26	0.00105
3742.9	0.00091
3752.55	0.00118
3762.2	0.00129
3771.84	0.001588
3781.49	0.00147
3791.13	0.00124
3800.78	0.00105
3810.43	0.00102
3820.07	0.00107
3829.72	0.00108
3839.37	0.00096
3849.01	0.00115
3858.66	0.00108
3868.31	0.00121
3877.95	0.00101
3887.6	0.00107
3897.25	0.00136
3906.89	0.00131
3916.54	0.00132
3926.19	0.00119
3935.83	0.00135
3945.48	0.0013
3955.13	0.00134
3964.77	0.00129
3974.42	0.00134
3984.07	0.00121
3993.71	0.00129
