Infrared Spectrum: .alpha.,.alpha.-p-Tribromoacetophenone
Formula: C 8 H 5 Br 3 O
CAS: 13195-79-4
State: gas
Origin: EPA-IR VAPOR PHASE LIBRARY
1/CM	ABSORBANCE
549.9	0.0083
559.547	0.01416
569.193	0.02167
578.84	0.02401
588.486	0.0266
598.133	0.02135
607.779	0.01518
617.426	0.01126
627.072	0.00959
636.719	0.01065
646.365	0.01755
656.012	0.01552
665.658	0.00725
675.305	0.00585
684.951	0.00637
694.598	0.01049
704.245	0.01259
713.891	0.01526
723.538	0.01776
733.184	0.01225
742.831	0.01149
752.477	0.01815
762.124	0.02519
771.77	0.01236
781.417	0.01455
791.063	0.008
800.71	0.00657
810.356	0.00577
820.003	0.0081
829.649	0.01428
839.296	0.04055
848.943	0.02181
858.589	0.00489
868.236	0.00312
877.882	0.00235
887.529	0.00233
897.175	0.00229
906.822	0.00229
916.468	0.00229
926.115	0.0021708
935.761	0.00246
945.408	0.00307
955.054	0.00545
964.701	0.01572
974.347	0.04095
983.994	0.02329
993.64	0.01263
1003.29	0.02814
1012.93	0.04776
1022.58	0.00867
1032.23	0.01123
1041.87	0.00581
1051.52	0.00493
1061.17	0.01073
1070.81	0.05273
1080.46	0.03233
1090.11	0.01017
1099.75	0.00513
1109.4	0.00459
1119.05	0.00499
1128.69	0.00656
1138.34	0.00878
1147.99	0.00936
1157.63	0.01647
1167.28	0.02281
1176.92	0.03311
1186.57	0.03524
1196.22	0.01603
1205.86	0.00997
1215.51	0.01136
1225.16	0.01367
1234.8	0.01586
1244.45	0.03345
1254.1	0.06826
1263.74	0.07538
1273.39	0.03786
1283.04	0.01752
1292.68	0.01104
1302.33	0.00834
1311.98	0.00861
1321.62	0.00518
1331.27	0.00436
1340.92	0.00446
1350.56	0.00438
1360.21	0.00372
1369.86	0.00409
1379.5	0.00486
1389.15	0.0107
1398.79	0.01902
1408.44	0.00712
1418.09	0.0028
1427.73	0.002025
1437.38	0.0021333
1447.03	0.00221
1456.67	0.00239
1466.32	0.00341
1475.97	0.00927
1485.61	0.02264
1495.26	0.00549
1504.91	0.0023
1514.55	0.0021517
1524.2	0.00239
1533.85	0.003
1543.49	0.00398
1553.14	0.00774
1562.79	0.01819
1572.43	0.02644
1582.08	0.06242
1591.73	0.06128
1601.37	0.01085
1611.02	0.00526
1620.67	0.00342
1630.31	0.00282
1639.96	0.003
1649.6	0.00371
1659.25	0.00534
1668.9	0.00674
1678.54	0.01214
1688.19	0.0416
1697.84	0.07035
1707.48	0.0349
1717.13	0.05126
1726.78	0.03455
1736.42	0.01094
1746.07	0.00626
1755.72	0.00484
1765.36	0.00407
1775.01	0.00361
1784.66	0.00341
1794.3	0.00239
1803.95	0.0016959
1813.6	0.0014113
1823.24	0.00121881
1832.89	0.00119608
1842.54	0.0011339
1852.18	0.001021
1861.83	0.000917
1871.47	0.000908
1881.12	0.0011435
1890.77	0.0014669
1900.41	0.0016875
1910.06	0.001826
1919.71	0.001697
1929.35	0.0014853
1939	0.0013582
1948.65	0.001068
1958.29	0.000859
1967.94	0.000764
1977.59	0.000716
1987.23	0.000663
1996.88	0.000645
2006.53	0.000669
2016.17	0.000723
2025.82	0.000782
2035.47	0.000669
2045.11	0.000669
2054.76	0.000569
2064.41	0.000556
2074.05	0.000446
2083.7	0.000475
2093.35	0.00045
2102.99	0.000416
2112.64	0.000397
2122.28	0.000402
2131.93	0.000453
2141.58	0.000494
2151.22	0.000508
2160.87	0.000458
2170.52	0.000428
2180.16	0.000454
2189.81	0.000466
2199.46	0.000467
2209.1	0.000445
2218.75	0.000511
2228.4	0.000536
2238.04	0.00059
2247.69	0.000578
2257.34	0.0006
2266.98	0.000622
2276.63	0.000664
2286.28	0.000831
2295.92	0.000998
2305.57	0.001027
2315.22	0.000997
2324.86	0.00084
2334.51	0.000804
2344.16	0.000875
2353.8	0.00089
2363.45	0.000811
2373.09	0.000799
2382.74	0.000659
2392.39	0.000566
2402.03	0.000505
2411.68	0.000551
2421.33	0.000566
2430.97	0.000535
2440.62	0.000538
2450.27	0.000521
2459.91	0.000541
2469.56	0.000492
2479.21	0.000547
2488.85	0.000618
2498.5	0.000718
2508.15	0.000861
2517.79	0.001047
2527.44	0.001076
2537.09	0.00117751
2546.73	0.0013601
2556.38	0.00117703
2566.03	0.000959
2575.67	0.000908
2585.32	0.000771
2594.96	0.000777
2604.61	0.000529
2614.26	0.00041
2623.9	0.00036
2633.55	0.000352
2643.2	0.000249
2652.84	0.000369
2662.49	0.00036
2672.14	0.000371
2681.78	0.000313
2691.43	0.000391
2701.08	0.000425
2710.72	0.000354
2720.37	0.000361
2730.02	0.000427
2739.66	0.000475
2749.31	0.000478
2758.96	0.000471
2768.6	0.000533
2778.25	0.000485
2787.9	0.000359
2797.54	0.000232
2807.19	0.00018
2816.84	0.000329
2826.48	0.000412
2836.13	0.000424
2845.77	0.000433
2855.42	0.000407
2865.07	0.000225
2874.71	0.000234
2884.36	0.000298
2894.01	3e-05
2903.65	0.00016
2913.3	0.000187
2922.95	0.00019
2932.59	5e-05
2942.24	0.00023
2951.89	0.000291
2961.53	0.00026
2971.18	0.000288
2980.83	0.000401
2990.47	0.000523
3000.12	0.000585
3009.77	0.000845
3019.41	0.0019305
3029.06	0.00247
3038.71	0.00265
3048.35	0.001058
3058	0.001161
3067.64	0.0015447
3077.29	0.0013662
3086.94	0.00225
3096.58	0.002092
3106.23	0.000988
3115.88	0.000682
3125.52	0.000638
3135.17	0.000459
3144.82	0.000334
3154.46	0.000305
3164.11	0.00014
3173.76	0.000338
3183.4	0.000208
3193.05	9e-05
3202.7	0.00013
3212.34	0.000225
3221.99	0.0001
3231.64	5e-05
3241.28	2e-05
3250.93	0.00012
3260.58	0.000265
3270.22	0.00017
3279.87	0.000279
3289.52	0.000312
3299.16	0.000409
3308.81	0.000402
3318.45	0.000328
3328.1	0.000293
3337.75	0.000367
3347.39	0.000448
3357.04	0.000797
3366.69	0.00121908
3376.33	0.00122993
3385.98	0.000795
3395.63	0.000669
3405.27	0.000841
3414.92	0.00121002
3424.57	0.00123002
3434.21	0.000658
3443.86	0.000753
3453.51	0.000564
3463.15	0.000408
3472.8	0.000549
3482.45	0.00049
3492.09	0.000487
3501.74	0.000557
3511.39	0.000453
3521.03	0.000547
3530.68	0.000663
3540.33	0.00075
3549.97	0.000672
3559.62	0.000686
3569.26	0.000676
3578.91	0.000667
3588.56	0.000672
3598.2	0.00069
3607.85	0.00084
3617.5	0.000784
3627.14	0.000742
3636.79	0.000682
3646.44	0.000757
3656.08	0.000861
3665.73	0.000831
3675.38	0.000863
3685.02	0.000845
3694.67	0.000725
3704.32	0.000807
3713.96	0.00099
3723.61	0.000982
3733.26	0.000934
3742.9	0.000904
3752.55	0.000752
3762.2	0.000858
3771.84	0.000906
3781.49	0.000744
3791.13	0.000874
3800.78	0.000863
3810.43	0.000927
3820.07	0.00094
3829.72	0.00095
3839.37	0.000773
3849.01	0.000901
3858.66	0.000779
3868.31	0.000873
3877.95	0.000805
3887.6	0.000822
3897.25	0.000886
3906.89	0.000862
3916.54	0.000848
3926.19	0.000884
3935.83	0.000703
3945.48	0.000755
3955.13	0.0007
3964.77	0.000704
3974.42	0.000795
3984.07	0.000835
3993.71	0.00081
