Infrared Spectrum: CYCLOPENTANECARBOXAMIDE, 2,3-DIHYDROXY-4-(HYDROXYMETHYL)-2,3-DIACETATE
Formula: C11 H17 N O6
CAS: 13190-79-9
State: SOLID (1 mg / 650 mg KBr DISC)
Class: COBLENTZ III
Instrument: PERKIN-ELMER 521 (GRATING)
Instrument parameters: FILTERS AT 3150, 2500, 2000, 1150, 700, 410 CM ^-^1, GRATING CHANGES AT 2000, 630 CM^-^1
Sampling: TRANSMISSION
Resolution: 4
Origin: SOUTHERN RES. INSTITUTE
1/CM	TRANSMITTANCE
243.45	0.26
252.761	0.274
262.072	0.336
271.382	0.399
280.693	0.454
290.004	0.5
299.315	0.533
308.626	0.577
317.937	0.584
327.247	0.604
336.558	0.653
345.869	0.679
355.18	0.709
364.491	0.738
373.802	0.751
383.112	0.759
392.423	0.766
401.734	0.774
411.045	0.775
420.356	0.77
429.666	0.755
438.977	0.757
448.288	0.76
457.599	0.745
466.91	0.731
476.221	0.753
485.531	0.77
494.842	0.767
504.153	0.77
513.464	0.77
522.775	0.76
532.086	0.756
541.396	0.733
550.707	0.733
560.018	0.75
569.329	0.744
578.64	0.729
587.95	0.689
597.261	0.637
606.572	0.659
615.883	0.656
625.194	0.669
634.505	0.681
643.815	0.672
653.126	0.634
662.437	0.741
671.748	0.822
681.059	0.837
690.37	0.835
699.68	0.827
708.991	0.824
718.302	0.837
727.613	0.85
736.924	0.875
746.234	0.9
755.545	0.903
764.856	0.896
774.167	0.895
783.478	0.891
792.789	0.886
802.099	0.859
811.41	0.854
820.721	0.869
830.032	0.88
839.343	0.9
848.654	0.902
857.964	0.9
867.275	0.893
876.586	0.882
885.897	0.871
895.208	0.832
904.518	0.824
913.829	0.832
923.14	0.767
932.451	0.723
941.762	0.739
951.073	0.8
960.383	0.817
969.694	0.798
979.005	0.807
988.316	0.788
997.627	0.77
1006.94	0.672
1016.25	0.607
1025.56	0.514
1034.87	0.524
1044.18	0.503
1053.49	0.517
1062.8	0.497
1072.11	0.577
1081.42	0.57
1090.73	0.583
1100.05	0.712
1109.36	0.758
1118.67	0.747
1127.98	0.765
1137.29	0.804
1146.6	0.817
1155.91	0.806
1165.22	0.771
1174.53	0.78
1183.84	0.761
1193.15	0.711
1202.46	0.566
1211.78	0.429
1221.09	0.262
1230.4	0.224
1239.71	0.182
1249.02	0.179
1258.33	0.153
1267.64	0.226
1276.95	0.405
1286.26	0.54
1295.57	0.592
1304.88	0.667
1314.19	0.711
1323.51	0.696
1332.82	0.702
1342.13	0.701
1351.44	0.623
1360.75	0.503
1370.06	0.364
1379.37	0.472
1388.68	0.658
1397.99	0.679
1407.3	0.647
1416.61	0.56
1425.92	0.516
1435.24	0.543
1444.55	0.649
1453.86	0.601
1463.17	0.686
1472.48	0.766
1481.79	0.811
1491.1	0.842
1500.41	0.854
1509.72	0.867
1519.03	0.871
1528.34	0.875
1537.65	0.875
1546.97	0.875
1556.28	0.872
1565.59	0.866
1574.9	0.853
1584.21	0.83
1593.52	0.788
1602.83	0.738
1612.14	0.672
1621.45	0.571
1630.76	0.595
1640.07	0.618
1649.38	0.542
1658.7	0.364
1668.01	0.23
1677.32	0.194
1686.63	0.318
1695.94	0.597
1705.25	0.635
1714.56	0.417
1723.87	0.167
1733.18	0.178
1742.49	0.134
1751.8	0.264
1761.11	0.584
1770.43	0.694
1779.74	0.733
1789.05	0.765
1798.36	0.784
1807.67	0.807
1816.98	0.82
1826.29	0.84
1835.6	0.854
1844.91	0.864
1854.22	0.871
1863.53	0.877
1872.84	0.88
1882.15	0.883
1891.47	0.89
1900.78	0.892
1910.09	0.894
1919.4	0.895
1928.71	0.896
1938.02	0.897
1947.33	0.898
1956.64	0.9
1965.95	0.902
1975.26	0.902
1984.57	0.902
1993.88	0.899
2003.2	0.898
2012.51	0.9
2021.82	0.903
2031.13	0.905
2040.44	0.905
2049.75	0.906
2059.06	0.907
2068.37	0.907
2077.68	0.907
2086.99	0.907
2096.3	0.907
2105.61	0.906
2114.93	0.906
2124.24	0.905
2133.55	0.904
2142.86	0.905
2152.17	0.905
2161.48	0.906
2170.79	0.908
2180.1	0.908
2189.41	0.91
2198.72	0.91
2208.03	0.908
2217.34	0.908
2226.66	0.908
2235.97	0.908
2245.28	0.908
2254.59	0.908
2263.9	0.908
2273.21	0.908
2282.52	0.908
2291.83	0.908
2301.14	0.908
2310.45	0.908
2319.76	0.908
2329.07	0.908
2338.39	0.908
2347.7	0.908
2357.01	0.908
2366.32	0.908
2375.63	0.909
2384.94	0.909
2394.25	0.908
2403.56	0.908
2412.87	0.908
2422.18	0.907
2431.49	0.906
2440.8	0.906
2450.12	0.905
2459.43	0.905
2468.74	0.905
2478.05	0.905
2487.36	0.905
2496.67	0.905
2505.98	0.905
2515.29	0.905
2524.6	0.905
2533.91	0.905
2543.22	0.905
2552.53	0.905
2561.85	0.904
2571.16	0.903
2580.47	0.903
2589.78	0.902
2599.09	0.902
2608.4	0.902
2617.71	0.901
2627.02	0.9
2636.33	0.899
2645.64	0.898
2654.95	0.898
2664.26	0.896
2673.57	0.896
2682.89	0.895
2692.2	0.893
2701.51	0.889
2710.82	0.887
2720.13	0.887
2729.44	0.887
2738.75	0.886
2748.06	0.886
2757.37	0.884
2766.68	0.879
2775.99	0.877
2785.3	0.868
2794.62	0.863
2803.93	0.859
2813.24	0.856
2822.55	0.856
2831.86	0.855
2841.17	0.851
2850.48	0.833
2859.79	0.811
2869.1	0.761
2878.41	0.756
2887.72	0.781
2897.03	0.773
2906.35	0.746
2915.66	0.747
2924.97	0.749
2934.28	0.729
2943.59	0.728
2952.9	0.755
2962.21	0.784
2971.52	0.808
2980.83	0.82
2990.14	0.824
2999.45	0.826
3008.76	0.84
3018.08	0.841
3027.39	0.84
3036.7	0.841
3046.01	0.844
3055.32	0.84
3064.63	0.834
3073.94	0.826
3083.25	0.816
3092.56	0.803
3101.87	0.792
3111.18	0.782
3120.49	0.771
3129.81	0.773
3139.12	0.761
3148.43	0.716
3157.74	0.694
3167.05	0.655
3176.36	0.611
3185.67	0.563
3194.98	0.529
3204.29	0.53
3213.6	0.54
3222.91	0.56
3232.22	0.591
3241.54	0.614
3250.85	0.625
3260.16	0.625
3269.47	0.617
3278.78	0.611
3288.09	0.597
3297.4	0.587
3306.71	0.579
3316.02	0.576
3325.33	0.568
3334.64	0.554
3343.95	0.54
3353.27	0.516
3362.58	0.487
3371.89	0.459
3381.2	0.422
3390.51	0.381
3399.82	0.358
3409.13	0.346
3418.44	0.349
3427.75	0.36
3437.06	0.381
3446.37	0.402
3455.68	0.406
3464.99	0.41
3474.31	0.424
3483.62	0.451
3492.93	0.486
3502.24	0.523
3511.55	0.557
3520.86	0.586
3530.17	0.618
3539.48	0.646
3548.79	0.678
3558.1	0.695
3567.41	0.708
3576.72	0.732
3586.04	0.758
3595.35	0.77
3604.66	0.786
3613.97	0.807
3623.28	0.815
3632.59	0.831
3641.9	0.834
3651.21	0.841
3660.52	0.846
3669.83	0.846
3679.14	0.847
3688.45	0.85
3697.77	0.856
3707.08	0.862
3716.39	0.864
3725.7	0.865
3735.01	0.863
3744.32	0.863
3753.63	0.864
3762.94	0.868
3772.25	0.869
3781.56	0.869
3790.87	0.869
3800.18	0.867
