Infrared Spectrum: 3-OXABICYCLO[3.2.1.]OCTANE-2,4-DIONE, 6,7-DIHYDROXY-, 6,7-DIACETATE
Formula: C11 H12 O7
CAS: 13190-77-7
State: SOLID (1 mg / 650 mg KBr DISC)
Class: COBLENTZ III
Instrument: PERKIN-ELMER 521 (GRATING)
Instrument parameters: FILTERS AT 3150, 2500, 2000, 1150, 700, 410 CM ^-^1, GRATING CHANGES AT 2000, 630 CM^-^1
Sampling: TRANSMISSION
Resolution: 4
Origin: SOUTHERN RES. INSTITUTE
1/CM	TRANSMITTANCE
248.429	0.328
257.709	0.402
266.989	0.465
276.269	0.523
285.548	0.577
294.828	0.634
304.108	0.656
313.388	0.662
322.668	0.699
331.948	0.726
341.228	0.746
350.507	0.766
359.787	0.766
369.067	0.787
378.347	0.795
387.627	0.773
396.907	0.771
406.187	0.746
415.467	0.813
424.746	0.81
434.026	0.773
443.306	0.829
452.586	0.827
461.866	0.835
471.146	0.843
480.426	0.845
489.705	0.846
498.985	0.847
508.265	0.847
517.545	0.846
526.825	0.842
536.105	0.834
545.385	0.8
554.664	0.823
563.944	0.837
573.224	0.834
582.504	0.829
591.784	0.78
601.064	0.675
610.344	0.813
619.624	0.827
628.903	0.815
638.183	0.753
647.463	0.782
656.743	0.825
666.023	0.846
675.303	0.848
684.583	0.853
693.862	0.854
703.142	0.833
712.422	0.841
721.702	0.861
730.982	0.857
740.262	0.836
749.542	0.849
758.821	0.841
768.101	0.861
777.381	0.859
786.661	0.855
795.941	0.853
805.221	0.858
814.501	0.854
823.781	0.856
833.06	0.85
842.34	0.845
851.62	0.833
860.9	0.829
870.18	0.804
879.46	0.763
888.74	0.824
898.019	0.832
907.299	0.824
916.579	0.801
925.859	0.732
935.139	0.657
944.419	0.562
953.699	0.795
962.978	0.777
972.258	0.739
981.538	0.588
990.818	0.311
1000.1	0.369
1009.38	0.557
1018.66	0.699
1027.94	0.536
1037.22	0.676
1046.5	0.699
1055.78	0.625
1065.06	0.395
1074.34	0.582
1083.62	0.648
1092.9	0.68
1102.18	0.779
1111.46	0.797
1120.74	0.807
1130.02	0.812
1139.3	0.811
1148.58	0.8
1157.86	0.786
1167.14	0.76
1176.42	0.722
1185.7	0.629
1194.98	0.339
1204.25	0.576
1213.53	0.445
1222.81	0.25
1232.09	0.282
1241.37	0.415
1250.65	0.43
1259.93	0.565
1269.21	0.677
1278.49	0.689
1287.77	0.757
1297.05	0.777
1306.33	0.762
1315.61	0.79
1324.89	0.777
1334.17	0.807
1343.45	0.803
1352.73	0.745
1362.01	0.6
1371.29	0.638
1380.57	0.648
1389.85	0.75
1399.13	0.773
1408.41	0.79
1417.69	0.783
1426.97	0.764
1436.25	0.771
1445.53	0.788
1454.81	0.761
1464.09	0.78
1473.37	0.827
1482.65	0.836
1491.93	0.841
1501.21	0.841
1510.49	0.841
1519.77	0.842
1529.05	0.842
1538.33	0.844
1547.61	0.845
1556.89	0.847
1566.17	0.849
1575.45	0.847
1584.73	0.844
1594.01	0.84
1603.29	0.837
1612.57	0.834
1621.85	0.829
1631.13	0.825
1640.41	0.82
1649.69	0.824
1658.97	0.831
1668.25	0.833
1677.53	0.828
1686.81	0.814
1696.09	0.781
1705.37	0.737
1714.65	0.706
1723.93	0.64
1733.21	0.367
1742.49	0.254
1751.77	0.45
1761.05	0.531
1770.33	0.206
1779.61	0.364
1788.89	0.539
1798.17	0.636
1807.45	0.549
1816.73	0.432
1826.01	0.672
1835.29	0.758
1844.57	0.793
1853.85	0.806
1863.13	0.816
1872.41	0.827
1881.68	0.836
1890.96	0.842
1900.24	0.849
1909.52	0.852
1918.8	0.854
1928.08	0.855
1937.36	0.856
1946.64	0.856
1955.92	0.858
1965.2	0.858
1974.48	0.86
1983.76	0.861
1993.04	0.859
2002.32	0.858
2011.6	0.859
2020.88	0.86
2030.16	0.86
2039.44	0.86
2048.72	0.86
2058	0.861
2067.28	0.861
2076.56	0.86
2085.84	0.86
2095.12	0.859
2104.4	0.858
2113.68	0.858
2122.96	0.858
2132.24	0.859
2141.52	0.861
2150.8	0.861
2160.08	0.861
2169.36	0.861
2178.64	0.861
2187.92	0.861
2197.2	0.861
2206.48	0.861
2215.76	0.862
2225.04	0.862
2234.32	0.861
2243.6	0.861
2252.88	0.862
2262.16	0.862
2271.44	0.865
2280.72	0.864
2290	0.862
2299.28	0.861
2308.56	0.86
2317.84	0.859
2327.12	0.858
2336.4	0.858
2345.68	0.861
2354.96	0.856
2364.24	0.855
2373.52	0.861
2382.8	0.861
2392.08	0.862
2401.36	0.862
2410.64	0.86
2419.92	0.86
2429.2	0.859
2438.48	0.86
2447.76	0.861
2457.04	0.86
2466.32	0.86
2475.6	0.858
2484.88	0.858
2494.16	0.857
2503.44	0.857
2512.72	0.856
2522	0.856
2531.28	0.856
2540.56	0.856
2549.84	0.855
2559.11	0.855
2568.39	0.855
2577.67	0.855
2586.95	0.855
2596.23	0.855
2605.51	0.855
2614.79	0.854
2624.07	0.854
2633.35	0.854
2642.63	0.854
2651.91	0.854
2661.19	0.854
2670.47	0.854
2679.75	0.854
2689.03	0.854
2698.31	0.854
2707.59	0.854
2716.87	0.854
2726.15	0.854
2735.43	0.853
2744.71	0.853
2753.99	0.852
2763.27	0.852
2772.55	0.851
2781.83	0.851
2791.11	0.851
2800.39	0.851
2809.67	0.85
2818.95	0.848
2828.23	0.847
2837.51	0.841
2846.79	0.839
2856.07	0.837
2865.35	0.835
2874.63	0.834
2883.91	0.83
2893.19	0.827
2902.47	0.826
2911.75	0.825
2921.03	0.82
2930.31	0.817
2939.59	0.817
2948.87	0.818
2958.15	0.817
2967.43	0.8
2976.71	0.797
2985.99	0.76
2995.27	0.768
3004.55	0.815
3013.83	0.814
3023.11	0.816
3032.39	0.817
3041.67	0.818
3050.95	0.82
3060.23	0.821
3069.51	0.821
3078.79	0.821
3088.07	0.821
3097.35	0.821
3106.63	0.822
3115.91	0.823
3125.19	0.824
3134.47	0.825
3143.75	0.824
3153.03	0.822
3162.31	0.821
3171.59	0.821
3180.87	0.821
3190.15	0.82
3199.43	0.82
3208.71	0.819
3217.99	0.817
3227.27	0.817
3236.54	0.815
3245.82	0.814
3255.1	0.813
3264.38	0.812
3273.66	0.811
3282.94	0.81
3292.22	0.809
3301.5	0.808
3310.78	0.807
3320.06	0.805
3329.34	0.798
3338.62	0.795
3347.9	0.792
3357.18	0.788
3366.46	0.784
3375.74	0.779
3385.02	0.773
3394.3	0.768
3403.58	0.766
3412.86	0.764
3422.14	0.762
3431.42	0.761
3440.7	0.764
3449.98	0.765
3459.26	0.764
3468.54	0.761
3477.82	0.764
3487.1	0.773
3496.38	0.777
3505.66	0.78
3514.94	0.784
3524.22	0.788
3533.5	0.793
3542.78	0.797
3552.06	0.8
3561.34	0.802
3570.62	0.81
3579.9	0.816
3589.18	0.823
3598.46	0.83
3607.74	0.834
3617.02	0.84
3626.3	0.844
3635.58	0.847
3644.86	0.85
3654.14	0.851
3663.42	0.851
3672.7	0.851
3681.98	0.851
3691.26	0.853
3700.54	0.854
3709.82	0.854
3719.1	0.854
3728.38	0.855
3737.66	0.855
3746.94	0.857
3756.22	0.858
3765.5	0.858
3774.78	0.858
3784.06	0.858
3793.34	0.857
