Infrared Spectrum: 2-Amino-5-iodotoluene
Formula: C 7 H 8 I N
CAS: 13194-68-8
State: gas
Instrument: HP-GC/MS/IRD
Origin: NIST Mass Spectrometry Data Center
1/CM	ABSORBANCE
550	0.0014896
562	0.0015568
574	0.0016268
586	0.0016744
598	0.0022596
610	0.003528
622	0.0046284
634	0.0020748
646	0.0022792
658	0.0027776
670	0.0028112
682	0.0029904
694	0.0028784
706	0.002394
718	0.0022428
730	0.002044
742	0.001624
754	0.0011452
766	0.0009408
778	0.001372
790	0.003388
802	0.0061852
814	0.0046844
826	0.0021196
838	0.001526
850	0.0020972
862	0.0043428
874	0.0043092
886	0.0016996
898	0.0005936
910	0.0002744
922	0.0001792
934	0.0001232
946	0.0001344
958	0.000252
970	0.0003332
982	0.0006328
994	0.00077
1006	0.0002268
1018	0.000126
1030	0.0002296
1042	0.0009156
1054	0.0017332
1066	0.0013328
1078	0.0011956
1090	0.0009324
1102	0.0006692
1114	0.000616
1126	0.000602
1138	0.0011032
1150	0.003528
1162	0.0021756
1174	0.0006412
1186	0.0022708
1198	0.0026012
1210	0.000294
1222	0.000112
1234	0.0006888
1246	0.0019852
1258	0.0071708
1270	0.0147
1282	0.0072772
1294	0.0030268
1306	0.0021784
1318	0.000364
1330	4.48e-05
1342	1.68e-05
1354	0.0001176
1366	0.0001512
1378	0.0006384
1390	0.002912
1402	0.0041496
1414	0.0019264
1426	0.0013076
1438	0.0015344
1450	0.0024556
1462	0.0049896
1474	0.0092792
1486	0.027104
1498	0.0149156
1510	0.0028756
1522	0.0012236
1534	0.000798
1546	0.0007756
1558	0.0012572
1570	0.0020412
1582	0.0020916
1594	0.0023772
1606	0.0043568
1618	0.0099456
1630	0.0111552
1642	0.0046788
1654	0.0016296
1666	0.000742
1678	0.0004676
1690	0.0003472
1702	0.000322
1714	0.0003584
1726	0.00049
1738	0.0005348
1750	0.0002828
1762	5.32e-05
1774	0
1786	4.48e-05
1798	8.4e-05
1810	8.4e-05
1822	3.92e-05
1834	8.96e-05
1846	0.0003612
1858	0.0004144
1870	0.0002044
1882	0.0001008
1894	8.96e-05
1906	0.0001036
1918	7.84e-05
1930	6.44e-05
1942	5.6e-05
1954	4.48e-05
1966	3.92e-05
1978	4.48e-05
1990	6.72e-05
2002	0.0001148
2014	0.00014
2026	0.000182
2038	0.0001288
2050	9.8e-05
2062	0.0001036
2074	0.0001036
2086	0.0001092
2098	0.000112
2110	0.0001204
2122	0.0001456
2134	0.0001484
2146	0.00014
2158	0.0001344
2170	0.0001512
2182	0.000112
2194	0.0001652
2206	0.0001764
2218	0.0001764
2230	0.000182
2242	0.0001988
2254	0.0001876
2266	0.00014
2278	0.0001316
2290	0.0001512
2302	0.0001344
2314	0.0002016
2326	0.0001932
2338	0.000182
2350	0.0001512
2362	0.0002212
2374	0.0001904
2386	0.000168
2398	0.0001456
2410	0.0001456
2422	0.000182
2434	0.000182
2446	0.0001932
2458	0.0002268
2470	0.000182
2482	0.0001456
2494	0.0001344
2506	0.000126
2518	0.00014
2530	0.000238
2542	0.0002492
2554	0.0001904
2566	0.000238
2578	0.0002632
2590	0.0001708
2602	0.0001344
2614	0.000126
2626	0.0001484
2638	0.000126
2650	0.0001148
2662	0.0001624
2674	0.0001428
2686	0.0001456
2698	0.0001512
2710	0.0001652
2722	0.0002212
2734	0.0002632
2746	0.0003808
2758	0.0002856
2770	0.0002324
2782	0.00028
2794	0.0002912
2806	0.000266
2818	0.0003416
2830	0.0004592
2842	0.0007532
2854	0.0012712
2866	0.001988
2878	0.0027944
2890	0.0026544
2902	0.002604
2914	0.0027048
2926	0.0035504
2938	0.0038248
2950	0.0026628
2962	0.001848
2974	0.0019264
2986	0.0020972
2998	0.0015736
3010	0.001848
3022	0.0029176
3034	0.0022232
3046	0.0017556
3058	0.0015764
3070	0.0015008
3082	0.0014672
3094	0.0010528
3106	0.000574
3118	0.0003724
3130	0.0002996
3142	0.0002632
3154	0.0002268
3166	0.0002072
3178	0.0002044
3190	0.0002548
3202	0.0002968
3214	0.0002828
3226	0.000322
3238	0.0003444
3250	0.0002464
3262	0.0001988
3274	0.0001596
3286	0.0001596
3298	0.0001344
3310	0.000182
3322	0.0001036
3334	0.000168
3346	0.0001176
3358	0.0001792
3370	0.0002688
3382	0.000406
3394	0.0008372
3406	0.0022624
3418	0.0026264
3430	0.001078
3442	0.0005236
3454	0.0003668
3466	0.0005628
3478	0.0010528
3490	0.0017948
3502	0.0018788
3514	0.0011424
3526	0.0005544
3538	0.0002968
3550	0.0002128
3562	0.00014
3574	0.000196
3586	0.0001456
3598	0.0001316
3610	0.0001932
3622	0.0001456
3634	0.00014
3646	0.0001848
3658	0.0001484
3670	0.0001624
3682	0.0001288
3694	0.0001904
3706	0.000196
3718	0.0001232
3730	0.0001876
3742	0.0002436
3754	0.0001736
3766	0.0001568
3778	0.0002828
3790	0.0002128
3802	0.0001792
3814	0.0001932
3826	0.0001568
3838	0.0002212
