Infrared Spectrum: BASIC LEAD CARBONATE
Formula: C2 H2 O8 Pb3
CAS: 1319-46-6
State: SOLID (MINERAL OIL MULL OF CS2 INSOLUBLES)
Class: COBLENTZ
Instrument: Not specified, most likely a prism, grating, or hybrid spectrometer.
Sampling: TRANSMISSION
Resolution: 4
Origin: DOW CHEMICAL COMPANY
1/CM	TRANSMITTANCE
454.373	0.906
463.499	0.909
472.624	0.918
481.75	0.927
490.875	0.941
500.001	0.955
509.126	0.971
518.252	0.989
527.377	0.994
536.503	1.007
545.628	1.014
554.754	1.015
563.879	1.015
573.005	1.021
582.13	1.026
591.256	1.028
600.381	1.028
609.507	1.028
618.632	1.026
627.758	1.023
636.883	1.023
646.009	1.021
655.134	1.014
664.26	0.996
673.385	0.945
682.511	0.467
691.636	0.693
700.762	0.883
709.887	0.923
719.013	0.932
728.138	0.932
737.264	0.934
746.389	0.934
755.515	0.923
764.64	0.911
773.766	0.904
782.891	0.904
792.017	0.907
801.142	0.922
810.268	0.927
819.393	0.932
828.519	0.923
837.644	0.902
846.77	0.874
855.895	0.851
865.021	0.861
874.146	0.856
883.272	0.84
892.397	0.828
901.523	0.842
910.648	0.865
919.774	0.881
928.899	0.876
938.025	0.854
947.15	0.844
956.276	0.861
965.401	0.895
974.527	0.925
983.652	0.948
992.778	0.959
1001.9	0.968
1011.03	0.968
1020.15	0.973
1029.28	0.976
1038.41	0.971
1047.53	0.8951
1056.66	0.985
1065.78	0.991
1074.91	0.991
1084.03	0.992
1093.16	0.992
1102.28	0.994
1111.41	1.005
1120.53	1.015
1129.66	1.008
1138.79	1.003
1147.91	1.001
1157.04	1.001
1166.16	0.991
1175.29	1.003
1184.41	1.01
1193.54	1.01
1202.66	1.008
1211.79	1.005
1220.92	1.003
1230.04	0.994
1239.17	0.985
1248.29	0.978
1257.42	0.968
1266.54	0.955
1275.67	0.939
1284.79	0.922
1293.92	0.899
1303.04	0.867
1312.17	0.842
1321.3	0.803
1330.42	0.757
1339.55	0.665
1348.67	0.562
1357.8	0.474
1366.92	0.391
1376.05	0.3071
1385.17	0.261
1394.3	0.21
1403.43	0.141
1412.55	0.116
1421.68	0.111
1430.8	0.106
1439.93	0.104
1449.05	0.111
1458.18	0.132
1467.3	0.168
1476.43	0.3549
1485.56	0.509
1494.68	0.66
1503.81	0.743
1512.93	0.808
1522.06	0.851
1531.18	0.877
1540.31	0.899
1549.43	0.913
1558.56	0.929
1567.68	0.948
1576.81	0.961
1585.94	0.971
1595.06	0.973
1604.19	0.98
1613.31	0.989
1622.44	1
1631.56	1.007
1640.69	1.023
1649.81	1.037
1658.94	1.026
1668.07	1.019
1677.19	1.017
1686.32	1.014
1695.44	1.014
1704.57	1.015
1713.69	1.019
1722.82	1.014
1731.94	0.991
1741.07	0.98
1750.19	0.994
1759.32	1.005
1768.45	1.021
1777.57	1.024
1786.7	1.023
1795.82	1.024
1804.95	1.024
1814.07	1.024
1823.2	1.023
1832.32	1.023
1841.45	1.023
1850.58	1.023
1859.7	1.023
1868.83	1.023
1877.95	1.023
1887.08	1.024
1896.2	1.023
1905.33	1.021
1914.45	1.023
1923.58	1.023
1932.7	1.023
1941.83	1.023
1950.96	1.023
1960.08	1.023
1969.21	1.021
1978.33	1.021
1987.46	1.019
1996.58	1.019
2005.71	1.018
2014.83	1.017
2023.96	1.0145
2033.09	1.012
2042.21	1.01
2051.34	1.01
2060.46	1.01
2069.59	1.01
2078.71	1.01
2087.84	1.007
2096.96	1.007
2106.09	1.007
2115.21	1.005
2124.34	1.005
2133.47	1.003
2142.59	1.0021
2151.72	0.9993
2160.84	0.998
2169.97	0.998
2179.09	0.996
2188.22	0.996
2197.34	0.994
2206.47	0.9928
2215.6	0.992
2224.72	0.991
2233.85	0.989
2242.97	0.989
2252.1	0.985
2261.22	0.984
2270.35	0.984
2279.47	0.982
2288.6	0.982
2297.73	0.98
2306.85	0.978
2315.98	0.9754
2325.1	0.973
2334.23	0.971
2343.35	0.968
2352.48	0.964
2361.6	0.9614
2370.73	0.959
2379.85	0.955
2388.98	0.953
2398.11	0.952
2407.23	0.952
2416.36	0.95
2425.48	0.946
2434.61	0.946
2443.73	0.946
2452.86	0.948
2461.98	0.948
2471.11	0.948
2480.24	0.948
2489.36	0.948
2498.49	0.9466
2507.61	0.946
2516.74	0.945
2525.86	0.9436
2534.99	0.941
2544.11	0.939
2553.24	0.9365
2562.36	0.934
2571.49	0.9305
2580.62	0.9275
2589.74	0.925
2598.87	0.9208
2607.99	0.9165
2617.12	0.9135
2626.24	0.909
2635.37	0.907
2644.49	0.9062
2653.62	0.9005
2662.75	0.899
2671.87	0.8954
2681	0.893
2690.12	0.895
2699.25	0.8934
2708.37	0.8904
2717.5	0.886
2726.62	0.881
2735.75	0.886
2744.87	0.886
2754	0.883
2763.13	0.879
2772.25	0.8727
2781.38	0.8637
2790.5	0.8535
2799.63	0.8375
2808.75	0.8243
2817.88	0.795
2827	0.7609
2836.13	0.6879
2845.26	0.4734
2854.38	0.1898
2863.51	0.1649
2872.63	0.2393
2881.76	0.3073
2890.88	0.3206
2900.01	0.2158
2909.13	0.119
2918.26	0.0387
2927.38	0.021
2936.51	0.0375
2945.64	0.103
2954.76	0.1112
2963.89	0.1144
2973.01	0.2651
2982.14	0.5264
2991.26	0.6837
3000.39	0.7508
3009.51	0.7866
3018.64	0.8078
3027.77	0.8169
3036.89	0.8299
3046.02	0.8329
3055.14	0.837
3064.27	0.84
3073.39	0.846
3082.52	0.8469
3091.64	0.847
3100.77	0.849
3109.9	0.849
3119.02	0.849
3128.15	0.849
3137.27	0.849
3146.4	0.849
3155.52	0.847
3164.65	0.846
3173.77	0.844
3182.9	0.844
3192.02	0.844
3201.15	0.844
3210.28	0.844
3219.4	0.842
3228.53	0.844
3237.65	0.842
3246.78	0.842
3255.9	0.842
3265.03	0.842
3274.15	0.842
3283.28	0.838
3292.41	0.838
3301.53	0.837
3310.66	0.8332
3319.78	0.833
3328.91	0.8309
3338.03	0.828
3347.16	0.826
3356.28	0.826
3365.41	0.826
3374.53	0.826
3383.66	0.824
3392.79	0.826
3401.91	0.824
3411.04	0.8188
3420.16	0.8168
3429.29	0.8136
3438.41	0.808
3447.54	0.807
3456.66	0.8048
3465.79	0.7998
3474.92	0.7958
3484.04	0.791
3493.17	0.7849
3502.29	0.7759
3511.42	0.7655
3520.54	0.7479
3529.67	0.7095
3538.79	0.6839
3547.92	0.6853
3557.04	0.7224
3566.17	0.765
3575.3	0.78
3584.42	0.7923
3593.55	0.8125
3602.67	0.8213
3611.8	0.828
3620.92	0.828
3630.05	0.828
3639.17	0.826
3648.3	0.824
3657.43	0.824
3666.55	0.826
3675.68	0.8256
3684.8	0.8238
3693.93	0.821
3703.05	0.821
3712.18	0.819
3721.3	0.819
3730.43	0.817
3739.55	0.815
3748.68	0.812
3757.81	0.81
3766.93	0.808
3776.06	0.807
3785.18	0.805
3794.31	0.8025
