Infrared Spectrum: DIPHENYL O-XENYL PHOSPHATE
Formula: C24 H19 O4 P
CAS: 132-29-6
State: SOLUTION (10% CCl4 FOR 2.5-7.5, 10% CS2 FOR 7.5-16 MICRON)
Class: COBLENTZ
Instrument: Not specified, most likely a prism, grating, or hybrid spectrometer.
Sampling: TRANSMISSION
Path length: 0.01 CM, 0.01 CM
Resolution: 4
Origin: DOW CHEMICAL COMPANY
MICROMETERS	TRANSMITTANCE
2.022	0.895
2.06111	0.889
2.10022	0.881
2.13933	0.887
2.17844	0.889
2.21755	0.89
2.25666	0.882
2.29577	0.887
2.33488	0.887
2.37399	0.886
2.4131	0.869
2.45221	0.881
2.49132	0.894
2.53043	0.898
2.56954	0.897
2.60865	0.897
2.64776	0.898
2.68687	0.898
2.72598	0.89
2.76509	0.894
2.8042	0.881
2.84331	0.881
2.88242	0.879
2.92153	0.879
2.96064	0.878
2.99975	0.884
3.03885	0.886
3.07796	0.884
3.11707	0.879
3.15618	0.866
3.19529	0.797
3.2344	0.662
3.27351	0.654
3.31262	0.812
3.35173	0.886
3.39084	0.898
3.42995	0.903
3.46906	0.903
3.50817	0.911
3.54728	0.911
3.58639	0.908
3.6255	0.908
3.66461	0.91
3.70372	0.911
3.74283	0.911
3.78194	0.908
3.82105	0.903
3.86016	0.903
3.89927	0.905
3.93838	0.908
3.97749	0.91
4.0166	0.908
4.05571	0.906
4.09482	0.902
4.13393	0.898
4.17304	0.89
4.21215	0.887
4.25126	0.892
4.29037	0.894
4.32948	0.894
4.36859	0.889
4.4077	0.902
4.44681	0.91
4.48592	0.911
4.52503	0.916
4.56414	0.918
4.60325	0.921
4.64236	0.924
4.68147	0.919
4.72058	0.921
4.75969	0.922
4.7988	0.919
4.83791	0.918
4.87702	0.914
4.91613	0.913
4.95524	0.9
4.99435	0.894
5.03346	0.882
5.07256	0.855
5.11167	0.823
5.15078	0.82
5.18989	0.85
5.229	0.86
5.26811	0.855
5.30722	0.853
5.34633	0.866
5.38544	0.874
5.42455	0.895
5.46366	0.892
5.50277	0.874
5.54188	0.869
5.58099	0.881
5.6201	0.873
5.65921	0.886
5.69832	0.876
5.73743	0.869
5.77654	0.858
5.81565	0.86
5.85476	0.873
5.89387	0.873
5.93298	0.873
5.97209	0.879
6.0112	0.881
6.05031	0.878
6.08942	0.863
6.12853	0.833
6.16764	0.73
6.20675	0.52
6.24586	0.229
6.28497	0.321
6.32408	0.487
6.36319	0.52
6.4023	0.487
6.44141	0.459
6.48052	0.524
6.51963	0.573
6.55874	0.585
6.59785	0.545
6.63696	0.337
6.67607	0.099
6.71518	0.088
6.75429	0.272
6.7934	0.688
6.83251	0.661
6.87162	0.72
6.91073	0.613
6.94984	0.46
6.98895	0.76
7.02806	0.831
7.06717	0.853
7.10627	0.857
7.14538	0.855
7.18449	0.86
7.2236	0.869
7.26271	0.873
7.30182	0.869
7.34093	0.865
7.38004	0.847
7.41915	0.754
7.45826	0.666
7.49737	0.56
7.53648	0.333
7.57559	0.123
7.6147	0.099
7.65381	0.11
7.69292	0.207
7.73203	0.436
7.77114	0.585
7.81025	0.637
7.84936	0.638
7.88847	0.582
7.92758	0.542
7.96669	0.568
8.0058	0.582
8.04491	0.495
8.08402	0.426
8.12313	0.415
8.16224	0.476
8.20135	0.494
8.24046	0.434
8.27957	0.298
8.31868	0.11
8.35779	0.022
8.3969	0.014
8.43601	0.019
8.47512	0.105
8.51423	0.197
8.55334	0.16
8.59245	0.13
8.63156	0.321
8.67067	0.576
8.70978	0.711
8.74889	0.759
8.788	0.783
8.82711	0.788
8.86622	0.759
8.90533	0.664
8.94444	0.465
8.98355	0.38
9.02266	0.537
9.06177	0.699
9.10088	0.773
9.13998	0.802
9.17909	0.805
9.2182	0.8
9.25731	0.773
9.29642	0.67
9.33553	0.585
9.37464	0.658
9.41375	0.739
9.45286	0.678
9.49197	0.539
9.53108	0.502
9.57019	0.658
9.6093	0.699
9.64841	0.662
9.68752	0.544
9.72663	0.332
9.76574	0.426
9.80485	0.568
9.84396	0.486
9.88307	0.182
9.92218	0.218
9.96129	0.454
10.0004	0.443
10.0395	0.426
10.0786	0.423
10.1177	0.359
10.1568	0.243
10.1959	0.139
10.2351	0.052
10.2742	0.02
10.3133	0.008
10.3524	0.003
10.3915	0.003
10.4306	0.001
10.4697	0.003
10.5088	0.008
10.5479	0.03
10.587	0.08
10.6262	0.147
10.6653	0.207
10.7044	0.243
10.7435	0.284
10.7826	0.396
10.8217	0.494
10.8608	0.566
10.8999	0.585
10.939	0.569
10.9781	0.605
11.0173	0.646
11.0564	0.619
11.0955	0.561
11.1346	0.584
11.1737	0.685
11.2128	0.73
11.2519	0.747
11.291	0.754
11.3301	0.751
11.3692	0.743
11.4084	0.731
11.4475	0.723
11.4866	0.712
11.5257	0.696
11.5648	0.682
11.6039	0.672
11.643	0.67
11.6821	0.672
11.7212	0.683
11.7603	0.699
11.7995	0.723
11.8386	0.746
11.8777	0.759
11.9168	0.775
11.9559	0.781
11.995	0.784
12.0341	0.791
12.0732	0.786
12.1123	0.775
12.1514	0.77
12.1905	0.775
12.2297	0.786
12.2688	0.789
12.3079	0.784
12.347	0.775
12.3861	0.765
12.4252	0.743
12.4643	0.722
12.5034	0.691
12.5425	0.63
12.5816	0.542
12.6208	0.41
12.6599	0.303
12.699	0.213
12.7381	0.202
12.7772	0.2
12.8163	0.205
12.8554	0.2
12.8945	0.182
12.9336	0.165
12.9727	0.123
13.0119	0.104
13.051	0.107
13.0901	0.121
13.1292	0.125
13.1683	0.089
13.2074	0.052
13.2465	0.024
13.2856	0.02
13.3247	0.065
13.3638	0.176
13.403	0.304
13.4421	0.431
13.4812	0.478
13.5203	0.495
13.5594	0.486
13.5985	0.447
13.6376	0.399
13.6767	0.372
13.7158	0.398
13.7549	0.467
13.7941	0.539
13.8332	0.59
13.8723	0.613
13.9114	0.619
13.9505	0.611
13.9896	0.598
14.0287	0.577
14.0678	0.563
14.1069	0.537
14.146	0.497
14.1852	0.439
14.2243	0.333
14.2634	0.237
14.3025	0.163
14.3416	0.15
14.3807	0.199
14.4198	0.229
14.4589	0.235
14.498	0.182
14.5371	0.144
14.5762	0.157
14.6154	0.227
14.6545	0.33
14.6936	0.436
14.7327	0.475
14.7718	0.499
14.8109	0.512
14.85	0.516
14.8891	0.518
14.9282	0.518
14.9673	0.518
15.0065	0.518
15.0456	0.51
15.0847	0.5
15.1238	0.489
15.1629	0.481
15.202	0.476
15.2411	0.467
15.2802	0.459
15.3193	0.454
15.3584	0.451
15.3976	0.447
15.4367	0.447
15.4758	0.447
15.5149	0.447
15.554	0.447
15.5931	0.441
15.6322	0.441
15.6713	0.441
15.7104	0.439
15.7495	0.438
15.7887	0.436
15.8278	0.436
15.8669	0.438
15.906	0.439
