Infrared Spectrum: Naphthol-as-bo
Formula: C 21 H 15 N O 2
CAS: 132-68-3
State: gas
Origin: EPA-IR VAPOR PHASE LIBRARY
1/CM	ABSORBANCE
549.8	0.0010108
559.445	0.0010889
569.09	0.0008793
578.734	0.0007567
588.379	0.0012398
598.024	0.0013684
607.669	0.0009497
617.313	0.0012118
626.958	0.0012799
636.603	0.0009975
646.248	0.0007659
655.893	0.0010183
665.537	0.0009925
675.182	0.0008055
684.827	0.0009765
694.472	0.0009849
704.116	0.0010386
713.761	0.0011537
723.406	0.00147
733.051	0.00233
742.695	0.00358
752.34	0.00176
761.985	0.00326
771.63	0.0035
781.275	0.0029
790.919	0.00303
800.564	0.00176
810.209	0.0011039
819.854	0.0009581
829.498	0.0009158
839.143	0.0008804
848.788	0.0011894
858.433	0.0011662
868.078	0.00233
877.722	0.00198
887.367	0.0013153
897.012	0.0010629
906.657	0.0010529
916.301	0.0009894
925.946	0.0008899
935.591	0.0010004
945.236	0.001061
954.88	0.0008582
964.525	0.0008247
974.17	0.0008096
983.815	0.0007369
993.46	0.0007679
1003.1	0.0007888
1012.75	0.0010177
1022.39	0.0009232
1032.04	0.0008949
1041.68	0.0007346
1051.33	0.0006206
1060.97	0.0008839
1070.62	0.0008519
1080.26	0.0006893
1089.91	0.0009863
1099.55	0.0007759
1109.2	0.0005694
1118.84	0.0009711
1128.49	0.00156
1138.13	0.0027
1147.78	0.00242
1157.42	0.0012021
1167.07	0.00206
1176.71	0.00223
1186.36	0.00222
1196	0.00389
1205.64	0.00678
1215.29	0.00397
1224.93	0.00261
1234.58	0.00213
1244.22	0.00263
1253.87	0.0022
1263.51	0.00246
1273.16	0.00345
1282.8	0.00565
1292.45	0.00491
1302.09	0.00505
1311.74	0.00496
1321.38	0.00338
1331.03	0.00313
1340.67	0.00427
1350.32	0.00351
1359.96	0.0024
1369.61	0.00178
1379.25	0.00177
1388.9	0.00205
1398.54	0.00288
1408.18	0.00242
1417.83	0.0019
1427.47	0.0022
1437.12	0.00293
1446.76	0.0041
1456.41	0.00408
1466.05	0.00407
1475.7	0.00469
1485.34	0.0076
1494.99	0.01001
1504.63	0.00811
1514.28	0.00776
1523.92	0.00842
1533.57	0.00705
1543.21	0.00412
1552.86	0.00279
1562.5	0.00217
1572.15	0.00236
1581.79	0.00209
1591.44	0.00193
1601.08	0.00208
1610.73	0.00158
1620.37	0.00193
1630.01	0.00254
1639.66	0.00238
1649.3	0.00244
1658.95	0.00357
1668.59	0.00566
1678.24	0.00853
1687.88	0.00626
1697.53	0.00298
1707.17	0.00185
1716.82	0.0012436
1726.46	0.0011382
1736.11	0.0008354
1745.75	0.0007756
1755.4	0.0006017
1765.04	0.0005654
1774.69	0.0005957
1784.33	0.000575
1793.98	0.0005983
1803.62	0.0006479
1813.27	0.0006084
1822.91	0.0005948
1832.55	0.0005666
1842.2	0.0005473
1851.84	0.0005696
1861.49	0.0005529
1871.13	0.0005099
1880.78	0.0005429
1890.42	0.0005511
1900.07	0.0005947
1909.71	0.0006546
1919.36	0.0006386
1929	0.0006528
1938.65	0.0006989
1948.29	0.0005631
1957.94	0.0005151
1967.58	0.0004819
1977.23	0.0005274
1986.87	0.0004771
1996.52	0.00045077
2006.16	0.0004806
2015.81	0.00046117
2025.45	0.00046476
2035.1	0.0004992
2044.74	0.0004769
2054.38	0.00046237
2064.03	0.0004489
2073.67	0.00045976
2083.32	0.0004842
2092.96	0.00045796
2102.61	0.000508
2112.25	0.0004728
2121.9	0.0005053
2131.54	0.00045378
2141.19	0.0004844
2150.83	0.0004715
2160.48	0.0004714
2170.12	0.00044489
2179.77	0.00043876
2189.41	0.00043118
2199.06	0.00044405
2208.7	0.000474
2218.35	0.0005131
2227.99	0.00040959
2237.64	0.00045993
2247.28	0.0004768
2256.92	0.0004763
2266.57	0.0004776
2276.21	0.0004677
2285.86	0.00044793
2295.5	0.00043269
2305.15	0.00044144
2314.79	0.00046217
2324.44	0.00040595
2334.08	0.00040945
2343.73	0.00046964
2353.37	0.0004268
2363.02	0.00039271
2372.66	0.00045514
2382.31	0.0004933
2391.95	0.0004904
2401.6	0.0004924
2411.24	0.0005135
2420.89	0.00046157
2430.53	0.0005033
2440.18	0.0005023
2449.82	0.0005391
2459.47	0.0005071
2469.11	0.0004914
2478.75	0.0005078
2488.4	0.0005005
2498.04	0.0005335
2507.69	0.0005216
2517.33	0.000562
2526.98	0.0005158
2536.62	0.0004946
2546.27	0.0004923
2555.91	0.0004905
2565.56	0.0005086
2575.2	0.0004822
2584.85	0.000572
2594.49	0.0005399
2604.14	0.0004816
2613.78	0.0005056
2623.43	0.0005333
2633.07	0.0005194
2642.72	0.0005544
2652.36	0.0004988
2662.01	0.0005331
2671.65	0.0005636
2681.29	0.0005854
2690.94	0.0005502
2700.58	0.0005858
2710.23	0.0005726
2719.87	0.0005172
2729.52	0.0005604
2739.16	0.0005713
2748.81	0.0005336
2758.45	0.0006231
2768.1	0.0005887
2777.74	0.0005424
2787.39	0.0006029
2797.03	0.000583
2806.68	0.0006163
2816.32	0.0006441
2825.97	0.0005716
2835.61	0.0005474
2845.26	0.0005178
2854.9	0.000591
2864.55	0.0005684
2874.19	0.000578
2883.84	0.0006274
2893.48	0.0006256
2903.12	0.0006504
2912.77	0.0006345
2922.41	0.0006295
2932.06	0.0006713
2941.7	0.0006453
2951.35	0.0007815
2960.99	0.0007831
2970.64	0.0008218
2980.28	0.0008027
2989.93	0.0008633
2999.57	0.0010161
3009.22	0.0012032
3018.86	0.0013584
3028.51	0.0013565
3038.15	0.00155
3047.8	0.00198
3057.44	0.00329
3067.09	0.00426
3076.73	0.00277
3086.38	0.00213
3096.02	0.00181
3105.67	0.0016
3115.31	0.00145
3124.95	0.00142
3134.6	0.00154
3144.24	0.00158
3153.89	0.00157
3163.53	0.00159
3173.18	0.00158
3182.82	0.00161
3192.47	0.00154
3202.11	0.00151
3211.76	0.00152
3221.4	0.00159
3231.05	0.00154
3240.69	0.0015
3250.34	0.00143
3259.98	0.00157
3269.63	0.00143
3279.27	0.00143
3288.92	0.00143
3298.56	0.0014
3308.21	0.0013566
3317.85	0.0013543
3327.49	0.0012703
3337.14	0.0013151
3346.78	0.001269
3356.43	0.0011836
3366.07	0.0011431
3375.72	0.0011845
3385.36	0.0011221
3395.01	0.0012011
3404.65	0.0011757
3414.3	0.0010339
3423.94	0.0009189
3433.59	0.0009797
3443.23	0.0009409
3452.88	0.0008992
3462.52	0.0009794
3472.17	0.0009983
3481.81	0.0008745
3491.46	0.0007964
3501.1	0.0006782
3510.75	0.000743
3520.39	0.0006189
3530.04	0.0005404
3539.68	0.000376188
3549.32	0.000373645
3558.97	0.00042528
3568.61	0.000377377
3578.26	0.00041177
3587.9	0.000293
3597.55	0.0003457
3607.19	0.0003328
3616.84	0.000371712
3626.48	0.0002892
3636.13	0.0002996
3645.77	0.000237
3655.42	0.000246
3665.06	0.0003316
3674.71	0.000243
3684.35	0.00038075
3694	0.0002727
3703.64	0.000242
3713.29	0.000134
3722.93	0.000218
3732.58	0.000183
3742.22	0.000207
3751.86	0.000176
3761.51	0.0003093
3771.15	0.000237
3780.8	0.00041195
3790.44	0.0003111
3800.09	0.000233
3809.73	0.0003509
3819.38	0.0003015
3829.02	0.000248
3838.67	0.000222
3848.31	0.000186
3857.96	0.0003496
3867.6	0.0003055
3877.25	0.0002744
3886.89	0.0002714
3896.54	0.000239
3906.18	0.0002759
3915.83	0.0002848
3925.47	0.000239
3935.12	0.00036459
3944.76	0.000245
3954.41	0.0002854
3964.05	0.000224
3973.69	0.000341
3983.34	0.000322
3992.98	0.0003312
