Infrared Spectrum: PIPERIDINE, 4-DIPHENYLMETHOXY-1-METHYL-, HYDROCHLORIDE
Formula: C19 H24 Cl N O
CAS: 132-18-3
State: SOLID (KCl DISC) VS KCl
Melting point: 206 C
Class: COBLENTZ III
Instrument: PERKIN-ELMER 21 (GRATING)
Instrument parameters: FILTER AT ABOUT 10 MICRONS
Sampling: TRANSMISSION
Resolution: 2
1/CM	TRANSMITTANCE
4000	0.9151
3991	0.9155
3982	0.9159
3973	0.9164
3964	0.917
3955	0.9174
3946	0.9179
3937	0.9184
3928	0.9188
3919	0.9193
3910	0.9198
3901	0.9203
3892	0.9208
3883	0.9216
3874	0.9222
3865	0.9228
3856	0.9236
3847	0.9242
3838	0.9249
3829	0.9255
3820	0.9262
3811	0.9268
3802	0.927
3793	0.9271
3784	0.9272
3775	0.9273
3766	0.9274
3757	0.9274
3748	0.9276
3739	0.9272
3730	0.9269
3721	0.9267
3712	0.9262
3703	0.926
3694	0.9257
3685	0.925
3676	0.9241
3667	0.9231
3658	0.9223
3649	0.9211
3640	0.92
3631	0.9187
3622	0.9174
3613	0.9157
3604	0.9137
3595	0.9109
3586	0.9071
3577	0.9006
3568	0.8936
3559	0.8865
3550	0.8779
3541	0.8678
3532	0.8565
3523	0.8453
3514	0.8339
3505	0.8227
3496	0.8115
3487	0.8001
3478	0.7888
3469	0.7773
3460	0.7696
3451	0.7656
3442	0.763
3433	0.7612
3424	0.7604
3415	0.7597
3406	0.7598
3397	0.7615
3388	0.7645
3379	0.7704
3370	0.7763
3361	0.7828
3352	0.79
3343	0.7972
3334	0.8054
3325	0.8136
3316	0.8233
3307	0.8352
3298	0.844
3289	0.8501
3280	0.8561
3271	0.8621
3262	0.8678
3253	0.8735
3244	0.8791
3235	0.8847
3226	0.8904
3217	0.8946
3208	0.8987
3199	0.9028
3190	0.9072
3181	0.9116
3172	0.9161
3163	0.9203
3154	0.9231
3145	0.9257
3136	0.9283
3127	0.9299
3118	0.9306
3109	0.9295
3100	0.9282
3091	0.9268
3082	0.9229
3073	0.9154
3064	0.9064
3055	0.8994
3046	0.8929
3037	0.8903
3028	0.8888
3019	0.888
3010	0.8869
3001	0.8852
2992	0.8829
2983	0.873
2974	0.8593
2965	0.8503
2956	0.8456
2947	0.8429
2938	0.8406
2929	0.8383
2920	0.8359
2911	0.831
2902	0.8175
2893	0.8115
2884	0.8098
2875	0.8115
2866	0.8299
2857	0.8514
2848	0.8616
2839	0.8718
2830	0.8806
2821	0.8888
2812	0.8957
2803	0.9016
2794	0.9071
2785	0.9113
2776	0.9153
2767	0.9172
2758	0.9188
2749	0.9183
2740	0.9172
2731	0.9149
2722	0.9121
2713	0.9081
2704	0.904
2695	0.8991
2686	0.8942
2677	0.8867
2668	0.8784
2659	0.8678
2650	0.8571
2641	0.8465
2632	0.8381
2623	0.8307
2614	0.8231
2605	0.8154
2596	0.8115
2587	0.8088
2578	0.8071
2569	0.8056
2560	0.8051
2551	0.8046
2542	0.8033
2533	0.8017
2524	0.798
2515	0.7938
2506	0.7889
2497	0.7836
2488	0.7774
2479	0.7684
2470	0.756
2461	0.7394
2452	0.723
2443	0.7003
2434	0.6905
2425	0.6838
2416	0.6773
2407	0.6726
2398	0.653
2389	0.6421
2380	0.6347
2371	0.6309
2362	0.6274
2353	0.6215
2344	0.6134
2335	0.6017
2326	0.5797
2317	0.563
2308	0.5559
2299	0.554
2290	0.5612
2281	0.5737
2272	0.5877
2263	0.6006
2254	0.6138
2245	0.6269
2236	0.6394
2227	0.651
2218	0.6613
2209	0.6724
2200	0.6909
2191	0.7065
2182	0.7212
2173	0.7317
2164	0.7418
2155	0.7519
2146	0.7606
2137	0.7692
2128	0.7778
2119	0.7865
2110	0.7943
2101	0.8012
2092	0.8081
2083	0.8136
2074	0.8192
2065	0.8242
2056	0.829
2047	0.834
2038	0.8382
2029	0.8423
2020	0.846
2011	0.8499
2002	0.8533
1993	0.8543
1984	0.8544
1975	0.8578
1966	0.8618
1957	0.866
1948	0.8713
1939	0.8755
1930	0.878
1921	0.877
1912	0.8754
1903	0.8766
1894	0.8819
1885	0.8868
1876	0.8898
1867	0.8908
1858	0.891
1849	0.8908
1840	0.891
1831	0.8925
1822	0.8937
1813	0.8967
1804	0.8992
1795	0.9011
1786	0.9017
1777	0.9018
1768	0.9029
1759	0.9051
1750	0.9074
1741	0.9088
1732	0.9102
1723	0.9108
1714	0.9107
1705	0.9091
1696	0.9048
1687	0.9001
1678	0.8958
1669	0.8931
1660	0.8911
1651	0.8892
1642	0.8881
1633	0.8877
1624	0.8923
1615	0.8972
1606	0.8672
1597	0.8697
1588	0.8788
1579	0.8971
1570	0.9123
1561	0.9165
1552	0.9195
1543	0.9225
1534	0.926
1525	0.9299
1516	0.9315
1507	0.9199
1498	0.7654
1489	0.791
1480	0.7425
1471	0.6765
1462	0.6546
1453	0.6088
1444	0.7036
1435	0.7281
1426	0.7522
1417	0.7976
1408	0.8148
1399	0.8099
1390	0.7774
1381	0.7847
1372	0.7926
1363	0.7778
1354	0.7688
1345	0.8184
1336	0.8269
1327	0.8652
1318	0.8408
1309	0.8122
1300	0.8316
1291	0.8018
1282	0.8327
1273	0.8394
1264	0.7828
1255	0.8104
1246	0.8591
1237	0.8849
1228	0.9007
1219	0.9111
1210	0.9134
1201	0.8853
1192	0.8142
1183	0.7958
1174	0.8272
1165	0.8616
1156	0.8787
1147	0.8983
1138	0.8995
1129	0.8335
1120	0.8161
1111	0.6443
1102	0.6888
1093	0.5899
1084	0.681
1075	0.4415
1066	0.6084
1057	0.5489
1048	0.668
1039	0.7539
1030	0.7603
1021	0.7533
1012	0.8117
1003	0.7375
994	0.8193
985	0.8544
976	0.8639
967	0.8692
958	0.7612
949	0.7593
940	0.8606
931	0.8398
922	0.8637
913	0.8662
904	0.8956
895	0.9055
886	0.909
877	0.8683
868	0.8929
859	0.8652
850	0.8993
841	0.9168
832	0.9013
823	0.9144
814	0.9278
805	0.9264
796	0.9279
787	0.9308
778	0.8392
769	0.5383
760	0.7159
751	0.5481
742	0.7987
733	0.8759
724	0.8897
715	0.4758
706	0.6957
697	0.6553
688	0.8201
679	0.7884
670	0.8322
