Infrared Spectrum: CHLORPHENIRAMINE
Formula: C16 H19 Cl N2
CAS: 132-22-9
State: SOLUTION (1.3% IN CS2 FOR 2-15, 1.3% IN C2Cl4 FOR 6.1-7.2 MICRONS)
Boiling point: 142 C AT 1.0 mmHg
Class: COBLENTZ III
Instrument: PERKIN-ELMER 21 (GRATING)
Instrument parameters: FILTER CHANGE AT 10 MICRON
Sampling: TRANSMISSION
Path length: 0.010 CM, 0.010 CM
Resolution: 2
MICROMETERS	TRANSMITTANCE
2.015	0.928
2.04829	0.931
2.08159	0.931
2.11488	0.931
2.14818	0.933
2.18147	0.938
2.21476	0.939
2.24806	0.939
2.28135	0.939
2.31464	0.936
2.34794	0.934
2.38123	0.933
2.41453	0.931
2.44782	0.926
2.48111	0.927
2.51441	0.931
2.5477	0.935
2.581	0.939
2.61429	0.941
2.64758	0.942
2.68088	0.944
2.71417	0.945
2.74747	0.947
2.78076	0.951
2.81405	0.95
2.84735	0.953
2.88064	0.953
2.91393	0.948
2.94723	0.948
2.98052	0.944
3.01382	0.939
3.04711	0.939
3.0804	0.94
3.1137	0.945
3.14699	0.941
3.18029	0.936
3.21358	0.927
3.24687	0.864
3.28017	0.832
3.31346	0.807
3.34676	0.652
3.38005	0.504
3.41334	0.499
3.44664	0.594
3.47993	0.633
3.51322	0.65
3.54652	0.606
3.57981	0.524
3.61311	0.457
3.6464	0.618
3.67969	0.739
3.71299	0.819
3.74628	0.873
3.77958	0.901
3.81287	0.914
3.84616	0.919
3.87946	0.928
3.91275	0.935
3.94604	0.942
3.97934	0.944
4.01263	0.94
4.04593	0.941
4.07922	0.947
4.11251	0.951
4.14581	0.956
4.1791	0.963
4.2124	0.967
4.24569	0.975
4.27898	0.975
4.31228	0.98
4.34557	0.983
4.37887	0.984
4.41216	0.985
4.44545	0.977
4.47875	0.969
4.51204	0.966
4.54533	0.972
4.57863	0.975
4.61192	0.98
4.64522	0.984
4.67851	0.99
4.7118	0.997
4.7451	1.002
4.77839	0.983
4.81169	0.97
4.84498	0.965
4.87827	0.961
4.91157	0.96
4.94486	0.965
4.97816	0.966
5.01145	0.964
5.04474	0.963
5.07804	0.946
5.11133	0.953
5.14462	0.945
5.17792	0.951
5.21121	0.95
5.24451	0.935
5.2778	0.921
5.31109	0.929
5.34439	0.938
5.37768	0.939
5.41098	0.944
5.44427	0.938
5.47756	0.947
5.51086	0.948
5.54415	0.952
5.57744	0.953
5.61074	0.939
5.64403	0.934
5.67733	0.932
5.71062	0.936
5.74391	0.933
5.77721	0.931
5.8105	0.936
5.8438	0.936
5.87709	0.933
5.91038	0.928
5.94368	0.934
5.97697	0.923
6.01027	0.916
6.04356	0.909
6.07685	0.895
6.11015	0.892
6.14344	0.892
6.17673	0.896
6.21003	0.873
6.24332	0.693
6.27662	0.36
6.30991	0.573
6.3432	0.677
6.3765	0.705
6.40979	0.814
6.44309	0.889
6.47638	0.919
6.50967	0.931
6.54297	0.934
6.57626	0.932
6.60956	0.917
6.64285	0.846
6.67614	0.4
6.70944	0.386
6.74273	0.583
6.77602	0.479
6.80932	0.375
6.84261	0.409
6.87591	0.589
6.9092	0.633
6.94249	0.625
6.97579	0.4
7.00908	0.604
7.04238	0.818
7.07567	0.749
7.10896	0.745
7.14226	0.854
7.17555	0.883
7.20885	0.841
7.24214	0.788
7.27543	0.755
7.30873	0.782
7.34202	0.821
7.37531	0.831
7.40861	0.812
7.4419	0.789
7.4752	0.809
7.50849	0.827
7.54178	0.843
7.57508	0.846
7.60837	0.834
7.64167	0.81
7.67496	0.804
7.70825	0.796
7.74155	0.77
7.77484	0.731
7.80813	0.724
7.84143	0.722
7.87472	0.725
7.90802	0.682
7.94131	0.705
7.9746	0.747
8.0079	0.772
8.04119	0.796
8.07449	0.806
8.10778	0.807
8.14107	0.77
8.17437	0.712
8.20766	0.697
8.24096	0.745
8.27425	0.793
8.30754	0.801
8.34084	0.787
8.37413	0.777
8.40742	0.782
8.44072	0.79
8.47401	0.79
8.50731	0.77
8.5406	0.739
8.57389	0.718
8.60719	0.738
8.64048	0.749
8.67378	0.662
8.70707	0.56
8.74036	0.538
8.77366	0.555
8.80695	0.637
8.84025	0.745
8.87354	0.772
8.90683	0.783
8.94013	0.789
8.97342	0.785
9.00671	0.762
9.04001	0.674
9.0733	0.589
9.1066	0.575
9.13989	0.397
9.17318	0.313
9.20648	0.469
9.23977	0.623
9.27307	0.697
9.30636	0.707
9.33965	0.7
9.37295	0.7
9.40624	0.708
9.43953	0.717
9.47283	0.689
9.50612	0.637
9.53942	0.59
9.57271	0.524
9.606	0.511
9.6393	0.568
9.67259	0.598
9.70589	0.56
9.73918	0.605
9.77247	0.657
9.80577	0.697
9.83906	0.485
9.87236	0.392
9.90565	0.656
9.93894	0.747
9.97224	0.794
10.0055	0.818
10.0388	0.807
10.0721	0.68
10.1054	0.727
10.1387	0.816
10.172	0.847
10.2053	0.854
10.2386	0.868
10.2719	0.87
10.3052	0.87
10.3385	0.871
10.3718	0.875
10.4051	0.866
10.4384	0.853
10.4716	0.845
10.5049	0.838
10.5382	0.816
10.5715	0.794
10.6048	0.795
10.6381	0.814
10.6714	0.819
10.7047	0.839
10.738	0.86
10.7713	0.875
10.8046	0.878
10.8379	0.889
10.8712	0.887
10.9045	0.885
10.9378	0.889
10.9711	0.888
11.0043	0.882
11.0376	0.876
11.0709	0.87
11.1042	0.869
11.1375	0.87
11.1708	0.871
11.2041	0.871
11.2374	0.865
11.2707	0.848
11.304	0.844
11.3373	0.844
11.3706	0.843
11.4039	0.84
11.4372	0.843
11.4705	0.844
11.5038	0.838
11.537	0.838
11.5703	0.84
11.6036	0.84
11.6369	0.84
11.6702	0.841
11.7035	0.84
11.7368	0.841
11.7701	0.838
11.8034	0.835
11.8367	0.828
11.87	0.8
11.9033	0.762
11.9366	0.724
11.9699	0.677
12.0032	0.648
12.0365	0.618
12.0698	0.567
12.103	0.498
12.1363	0.426
12.1696	0.412
12.2029	0.407
12.2362	0.441
12.2695	0.493
12.3028	0.539
12.3361	0.567
12.3694	0.583
12.4027	0.587
12.436	0.59
12.4693	0.596
12.5026	0.618
12.5359	0.652
12.5692	0.694
12.6025	0.719
12.6357	0.74
12.669	0.749
12.7023	0.746
12.7356	0.725
12.7689	0.674
12.8022	0.611
12.8355	0.539
12.8688	0.511
12.9021	0.526
12.9354	0.562
12.9687	0.609
13.002	0.656
13.0353	0.683
13.0686	0.701
13.1019	0.709
13.1352	0.703
13.1684	0.682
13.2017	0.665
13.235	0.644
13.2683	0.577
13.3016	0.544
13.3349	0.525
13.3682	0.476
13.4015	0.331
13.4348	0.223
13.4681	0.319
13.5014	0.538
13.5347	0.684
13.568	0.733
13.6013	0.769
13.6346	0.785
13.6679	0.8
13.7012	0.806
13.7344	0.808
13.7677	0.81
13.801	0.808
13.8343	0.801
13.8676	0.787
13.9009	0.771
13.9342	0.702
13.9675	0.657
14.0008	0.652
14.0341	0.737
14.0674	0.771
14.1007	0.793
14.134	0.802
14.1673	0.804
14.2006	0.806
14.2339	0.804
14.2671	0.803
14.3004	0.789
14.3337	0.783
14.367	0.783
14.4003	0.778
14.4336	0.78
14.4669	0.785
14.5002	0.79
14.5335	0.791
14.5668	0.785
14.6001	0.783
14.6334	0.783
14.6667	0.783
14.7	0.781
14.7333	0.782
14.7666	0.785
14.7998	0.785
14.8331	0.781
14.8664	0.776
14.8997	0.77
14.933	0.765
14.9663	0.783
