Infrared Spectrum: 4-Methylphenethyl isothiocyanate
Formula: C 10 H 11 N S
CAS: 13203-39-9
State: gas
Origin: EPA-IR VAPOR PHASE LIBRARY
1/CM	ABSORBANCE
549.8	0.00848
559.445	0.00602
569.09	0.00429
578.734	0.00391
588.379	0.00338
598.024	0.00288
607.669	0.00207
617.313	0.00186
626.958	0.00143
636.603	0.00153
646.248	0.00195
655.893	0.00236
665.537	0.00231
675.182	0.00217
684.827	0.00282
694.472	0.00437
704.116	0.00373
713.761	0.00266
723.406	0.00181
733.051	0.0011127
742.695	0.0009027
752.34	0.00155
761.985	0.00216
771.63	0.00244
781.275	0.00324
790.919	0.00609
800.564	0.01049
810.209	0.00874
819.854	0.00448
829.498	0.00229
839.143	0.00167
848.788	0.0011853
858.433	0.0008994
868.078	0.0009665
877.722	0.0010735
887.367	0.00216
897.012	0.00288
906.657	0.00265
916.301	0.00191
925.946	0.00196
935.591	0.00208
945.236	0.00199
954.88	0.00157
964.525	0.00141
974.17	0.00154
983.815	0.00136
993.46	0.00143
1003.1	0.00158
1012.75	0.00288
1022.39	0.00467
1032.04	0.00261
1041.68	0.0018
1051.33	0.00206
1060.97	0.00203
1070.62	0.00142
1080.26	0.00198
1089.91	0.0019
1099.55	0.00251
1109.2	0.00306
1118.84	0.00388
1128.49	0.0026
1138.13	0.0023
1147.78	0.00148
1157.42	0.00176
1167.07	0.00139
1176.71	0.00216
1186.36	0.00228
1196	0.0028
1205.64	0.00327
1215.29	0.00382
1224.93	0.00317
1234.58	0.00348
1244.22	0.0033
1253.87	0.00278
1263.51	0.00264
1273.16	0.00339
1282.8	0.0047
1292.45	0.00436
1302.09	0.00394
1311.74	0.00476
1321.38	0.00632
1331.03	0.01004
1340.67	0.02001
1350.32	0.02795
1359.96	0.0168
1369.61	0.00755
1379.25	0.00479
1388.9	0.00354
1398.54	0.00286
1408.18	0.00298
1417.83	0.00354
1427.47	0.00422
1437.12	0.00567
1446.76	0.00888
1456.41	0.01176
1466.05	0.01049
1475.7	0.00439
1485.34	0.00345
1494.99	0.00412
1504.63	0.00731
1514.28	0.01392
1523.92	0.00924
1533.57	0.00289
1543.21	0.00176
1552.86	0.00139
1562.5	0.001164
1572.15	0.0012055
1581.79	0.0011997
1591.44	0.0011252
1601.08	0.0011649
1610.73	0.00143
1620.37	0.00157
1630.01	0.00152
1639.66	0.001278
1649.3	0.000819
1658.95	0.0008633
1668.59	0.000731
1678.24	0.0006152
1687.88	0.0005715
1697.53	0.0005319
1707.17	0.0005254
1716.82	0.0005958
1726.46	0.0006323
1736.11	0.0007508
1745.75	0.0008306
1755.4	0.0008962
1765.04	0.0010265
1774.69	0.0012361
1784.33	0.00156
1793.98	0.0011589
1803.62	0.0008393
1813.27	0.0008566
1822.91	0.0008612
1832.55	0.0009941
1842.2	0.0011281
1851.84	0.00132
1861.49	0.00154
1871.13	0.00203
1880.78	0.00272
1890.42	0.00344
1900.07	0.00375
1909.71	0.00392
1919.36	0.00454
1929	0.00553
1938.65	0.00701
1948.29	0.00895
1957.94	0.01145
1967.58	0.01511
1977.23	0.02005
1986.87	0.0266
1996.52	0.03515
2006.16	0.04709
2015.81	0.06444
2025.45	0.08854
2035.1	0.11705
2044.74	0.14165
2054.38	0.1566
2064.03	0.15668
2073.67	0.13803
2083.32	0.10755
2092.96	0.08
2102.61	0.06061
2112.25	0.0461
2121.9	0.03587
2131.54	0.03058
2141.19	0.02802
2150.83	0.02554
2160.48	0.02299
2170.12	0.02144
2179.77	0.02175
2189.41	0.02288
2199.06	0.02286
2208.7	0.01964
2218.35	0.01447
2227.99	0.00981
2237.64	0.00731
2247.28	0.00569
2256.92	0.00457
2266.57	0.00365
2276.21	0.00308
2285.86	0.00287
2295.5	0.00251
2305.15	0.00222
2314.79	0.00178
2324.44	0.00152
2334.08	0.00134
2343.73	0.0012638
2353.37	0.0010625
2363.02	0.0010316
2372.66	0.0009286
2382.31	0.0008624
2391.95	0.0008861
2401.6	0.00071
2411.24	0.0007081
2420.89	0.0007115
2430.53	0.0007003
2440.18	0.0006341
2449.82	0.000522
2459.47	0.0006767
2469.11	0.0005393
2478.75	0.0005964
2488.4	0.0006539
2498.04	0.0006767
2507.69	0.0007514
2517.33	0.0006173
2526.98	0.0006441
2536.62	0.0007593
2546.27	0.0007771
2555.91	0.0008078
2565.56	0.000962
2575.2	0.0008647
2584.85	0.00101
2594.49	0.0008518
2604.14	0.0008705
2613.78	0.000693
2623.43	0.0008032
2633.07	0.0008373
2642.72	0.0007543
2652.36	0.0007237
2662.01	0.0007356
2671.65	0.0009755
2681.29	0.0009718
2690.94	0.00132
2700.58	0.00166
2710.23	0.00196
2719.87	0.00256
2729.52	0.00312
2739.16	0.00335
2748.81	0.00313
2758.45	0.00233
2768.1	0.002
2777.74	0.00151
2787.39	0.00144
2797.03	0.0012446
2806.68	0.00145
2816.32	0.00154
2825.97	0.00175
2835.61	0.00204
2845.26	0.00287
2854.9	0.00425
2864.55	0.00598
2874.19	0.00864
2883.84	0.01101
2893.48	0.00987
2903.12	0.00797
2912.77	0.00921
2922.41	0.01374
2932.06	0.01926
2941.7	0.02094
2951.35	0.02104
2960.99	0.01794
2970.64	0.01071
2980.28	0.00753
2989.93	0.00718
2999.57	0.00779
3009.22	0.00952
3018.86	0.0124
3028.51	0.01508
3038.15	0.00966
3047.8	0.00857
3057.44	0.00787
3067.09	0.00597
3076.73	0.00407
3086.38	0.00321
3096.02	0.00273
3105.67	0.00207
3115.31	0.00139
3124.95	0.0012311
3134.6	0.0010787
3144.24	0.0009657
3153.89	0.0005323
3163.53	0.00037618
3173.18	0.00035133
3182.82	0.0003351
3192.47	0.0004402
3202.11	0.0001896
3211.76	9.3e-05
3221.4	0.0002489
3231.05	0.0002435
3240.69	0.0002302
3250.34	0.000153
3259.98	0.000138
3269.63	0.0002191
3279.27	0.0002487
3288.92	0.000215
3298.56	5.6e-05
3308.21	0.0002211
3317.85	1.9e-05
3327.49	0.00029995
3337.14	0.0004187
3346.78	0.0002133
3356.43	0.00013
3366.07	0.0002125
3375.72	0.00011
3385.36	0.00027498
3395.01	0.000177
3404.65	0.0002593
3414.3	0.0002656
3423.94	0.0002533
3433.59	0.0002227
3443.23	0.00037243
3452.88	0.0002265
3462.52	0.000129
3472.17	0.0002175
3481.81	0.00031875
3491.46	0.00034845
3501.1	0.000165
3510.75	0.0001826
3520.39	0.000156
3530.04	0.0001818
3539.68	9.9e-05
3549.32	0.0002034
3558.97	0.00031483
3568.61	0.00034352
3578.26	0.0002434
3587.9	0.00031539
3597.55	0.0004682
3607.19	0.0003814
3616.84	0.0002379
3626.48	0.00031053
3636.13	0.00031702
3645.77	0.0004663
3655.42	0.0002554
3665.06	0.000289305
3674.71	0.00033215
3684.35	0.00032567
3694	0.00031957
3703.64	0.00032913
3713.29	0.00031772
3722.93	0.00027227
3732.58	0.0004398
3742.22	0.0004213
3751.86	0.000501
3761.51	0.0004101
3771.15	0.00029036
3780.8	0.00031941
3790.44	0.00037665
3800.09	0.0002979
3809.73	0.0001932
3819.38	0.0002856
3829.02	0.0003983
3838.67	0.0002542
3848.31	0.0005885
3857.96	0.0005339
3867.6	0.0006207
3877.25	0.00031743
3886.89	0.0005011
3896.54	0.0003999
3906.18	0.000388
3915.83	0.0006899
3925.47	0.0005918
3935.12	0.0005443
3944.76	0.0004933
3954.41	0.0007236
3964.05	0.0006669
3973.69	0.0006422
3983.34	0.0008495
3992.98	0.0005658
