Infrared Spectrum: Alpha-(2,4,5-TRICHLOROPHENOXY)ISOBUTYRIC ACID
Formula: C10 H9 Cl3 O3
CAS: 13201-16-6
State: SOLUTION (10% CCl4 FOR 5000-1330, 10% CS2 FOR 1330-625 CM^-^1)
Melting point: 92-93 C
Class: COBLENTZ
Instrument: Not specified, most likely a prism, grating, or hybrid spectrometer.
Sampling: TRANSMISSION
Path length: 0.0123 CM, 0.0123 CM
Resolution: 4
Origin: DOW CHEMICAL COMPANY
MICROMETERS	TRANSMITTANCE
2.055	0.856
2.09608	0.856
2.13715	0.853
2.17823	0.851
2.21931	0.843
2.26038	0.838
2.30146	0.843
2.34253	0.846
2.38361	0.843
2.42469	0.846
2.46576	0.851
2.50684	0.856
2.54792	0.856
2.58899	0.858
2.63007	0.86
2.67114	0.86
2.71222	0.86
2.7533	0.856
2.79437	0.843
2.83545	0.814
2.87653	0.8
2.9176	0.785
2.95868	0.754
2.99975	0.708
3.04083	0.642
3.08191	0.565
3.12298	0.507
3.16406	0.436
3.20514	0.374
3.24621	0.342
3.28729	0.34
3.32836	0.291
3.36944	0.303
3.41052	0.337
3.45159	0.34
3.49267	0.402
3.53375	0.451
3.57482	0.497
3.6159	0.543
3.65698	0.563
3.69805	0.546
3.73913	0.531
3.7802	0.546
3.82128	0.586
3.86236	0.586
3.90343	0.55
3.94451	0.579
3.98559	0.637
4.02666	0.688
4.06774	0.715
4.10881	0.739
4.14989	0.761
4.19097	0.771
4.23204	0.78
4.27312	0.793
4.3142	0.798
4.35527	0.805
4.39635	0.812
4.43742	0.814
4.4785	0.81
4.51958	0.809
4.56065	0.812
4.60173	0.816
4.64281	0.812
4.68388	0.814
4.72496	0.821
4.76603	0.829
4.80711	0.829
4.84819	0.821
4.88926	0.812
4.93034	0.816
4.97142	0.816
5.01249	0.817
5.05357	0.819
5.09465	0.822
5.13572	0.822
5.1768	0.819
5.21787	0.812
5.25895	0.81
5.30003	0.805
5.3411	0.8
5.38218	0.795
5.42326	0.793
5.46433	0.78
5.50541	0.768
5.54648	0.751
5.58756	0.681
5.62864	0.613
5.66971	0.546
5.71079	0.487
5.75187	0.388
5.79294	0.141
5.83402	0.001
5.87509	0.115
5.91617	0.442
5.95725	0.594
5.99832	0.65
6.0394	0.684
6.08048	0.706
6.12155	0.725
6.16263	0.727
6.2037	0.729
6.24478	0.727
6.28586	0.66
6.32693	0.56
6.36801	0.633
6.40909	0.729
6.45016	0.747
6.49124	0.754
6.53232	0.761
6.57339	0.763
6.61447	0.763
6.65554	0.71
6.69662	0.637
6.7377	0.41
6.77877	0.143
6.81985	0.03
6.86093	0.045
6.902	0.32
6.94308	0.485
6.98415	0.601
7.02523	0.565
7.06631	0.502
7.10738	0.536
7.14846	0.64
7.18954	0.608
7.23061	0.483
7.27169	0.55
7.31276	0.463
7.35384	0.412
7.39492	0.219
7.43599	0.321
7.47707	0.572
7.51815	0.654
7.55922	0.681
7.6003	0.66
7.64137	0.596
7.68245	0.497
7.72353	0.361
7.7646	0.257
7.80568	0.223
7.84676	0.318
7.88783	0.434
7.92891	0.468
7.96998	0.385
8.01106	0.207
8.05214	0.315
8.09321	0.487
8.13429	0.548
8.17537	0.563
8.21644	0.56
8.25752	0.524
8.2986	0.449
8.33967	0.344
8.38075	0.275
8.42182	0.168
8.4629	0.16
8.50398	0.235
8.54505	0.231
8.58613	0.165
8.62721	0.098
8.66828	0.051
8.70936	0.051
8.75043	0.097
8.79151	0.136
8.83259	0.149
8.87366	0.149
8.91474	0.127
8.95582	0.226
8.99689	0.419
9.03797	0.562
9.07904	0.596
9.12012	0.613
9.1612	0.628
9.20227	0.574
9.24335	0.308
9.28443	0.08
9.3255	0.192
9.36658	0.495
9.40765	0.645
9.44873	0.718
9.48981	0.768
9.53088	0.788
9.57196	0.798
9.61304	0.8
9.65411	0.8
9.69519	0.802
9.73627	0.8
9.77734	0.8
9.81842	0.79
9.85949	0.761
9.90057	0.718
9.94165	0.71
9.98272	0.73
10.0238	0.737
10.0649	0.718
10.106	0.654
10.147	0.558
10.1881	0.49
10.2292	0.451
10.2703	0.396
10.3113	0.379
10.3524	0.425
10.3935	0.483
10.4346	0.538
10.4756	0.572
10.5167	0.579
10.5578	0.572
10.5989	0.543
10.6399	0.512
10.681	0.49
10.7221	0.466
10.7632	0.432
10.8042	0.412
10.8453	0.437
10.8864	0.465
10.9275	0.482
10.9686	0.499
11.0096	0.512
11.0507	0.519
11.0918	0.514
11.1329	0.488
11.1739	0.431
11.215	0.391
11.2561	0.386
11.2972	0.378
11.3382	0.366
11.3793	0.367
11.4204	0.373
11.4615	0.332
11.5025	0.366
11.5436	0.473
11.5847	0.54
11.6258	0.575
11.6669	0.599
11.7079	0.626
11.749	0.638
11.7901	0.645
11.8312	0.645
11.8722	0.633
11.9133	0.626
11.9544	0.645
11.9955	0.679
12.0365	0.706
12.0776	0.724
12.1187	0.734
12.1598	0.741
12.2008	0.744
12.2419	0.747
12.283	0.749
12.3241	0.751
12.3651	0.754
12.4062	0.758
12.4473	0.759
12.4884	0.754
12.5295	0.744
12.5705	0.727
12.6116	0.7
12.6527	0.643
12.6938	0.56
12.7348	0.495
12.7759	0.47
12.817	0.485
12.8581	0.517
12.8991	0.533
12.9402	0.543
12.9813	0.56
13.0224	0.575
13.0634	0.587
13.1045	0.597
13.1456	0.609
13.1867	0.616
13.2277	0.621
13.2688	0.623
13.3099	0.623
13.351	0.587
13.3921	0.55
13.4331	0.495
13.4742	0.468
13.5153	0.48
13.5564	0.562
13.5974	0.635
13.6385	0.695
13.6796	0.732
13.7207	0.758
13.7617	0.778
13.8028	0.79
13.8439	0.797
13.885	0.802
13.926	0.807
13.9671	0.81
14.0082	0.81
14.0493	0.814
14.0904	0.816
14.1314	0.817
14.1725	0.817
14.2136	0.814
14.2547	0.807
14.2957	0.795
14.3368	0.773
14.3779	0.741
14.419	0.718
14.46	0.686
14.5011	0.66
14.5422	0.633
14.5833	0.587
14.6243	0.521
14.6654	0.454
14.7065	0.417
14.7476	0.41
14.7886	0.446
14.8297	0.524
14.8708	0.599
14.9119	0.664
14.953	0.698
14.994	0.729
15.0351	0.749
15.0762	0.761
15.1173	0.768
15.1583	0.771
15.1994	0.771
15.2405	0.771
15.2816	0.771
15.3226	0.771
15.3637	0.771
15.4048	0.77
15.4459	0.768
15.4869	0.766
15.528	0.758
15.5691	0.749
15.6102	0.739
15.6513	0.73
15.6923	0.724
15.7334	0.718
15.7745	0.715
15.8156	0.712
15.8566	0.712
15.8977	0.71
