Infrared Spectrum: 2-Aminotridecane
Formula: C 13 H 29 N
CAS: 13205-57-7
State: gas
Instrument: HP-GC/MS/IRD
Origin: NIST Mass Spectrometry Data Center
1/CM	ABSORBANCE
550	0.0002448
562	0.0001584
574	0.0001296
586	0.0002664
598	0.000324
610	0.0004392
622	0.0004536
634	0.00054
646	0.0005688
658	0.000756
670	0.0009072
682	0.0011592
694	0.0013464
706	0.0019008
718	0.0024984
730	0.0029808
742	0.0033408
754	0.004032
766	0.0050544
778	0.0061992
790	0.0062928
802	0.0048312
814	0.0034416
826	0.0024624
838	0.0019872
850	0.0016128
862	0.0012168
874	0.0010008
886	0.0008856
898	0.0008064
910	0.000756
922	0.0006768
934	0.000684
946	0.0006192
958	0.0006336
970	0.0006048
982	0.0005976
994	0.0006408
1006	0.0006912
1018	0.0007776
1030	0.0008208
1042	0.0009432
1054	0.0008424
1066	0.0008496
1078	0.0009288
1090	0.0009936
1102	0.0010296
1114	0.0011016
1126	0.0012744
1138	0.0014832
1150	0.0013608
1162	0.0011016
1174	0.0008712
1186	0.0007344
1198	0.0006048
1210	0.000576
1222	0.0006264
1234	0.000648
1246	0.0005976
1258	0.0007128
1270	0.0007992
1282	0.000936
1294	0.001188
1306	0.0014184
1318	0.001584
1330	0.001944
1342	0.0027648
1354	0.0033624
1366	0.0035568
1378	0.0038952
1390	0.0026928
1402	0.0014976
1414	0.001224
1426	0.0014256
1438	0.0024768
1450	0.0044136
1462	0.005724
1474	0.0037728
1486	0.0017712
1498	0.0010512
1510	0.0007704
1522	0.0005976
1534	0.00054
1546	0.0005328
1558	0.0005616
1570	0.000648
1582	0.0008136
1594	0.0011088
1606	0.0017496
1618	0.0023616
1630	0.00198
1642	0.0011808
1654	0.0006696
1666	0.000396
1678	0.0002808
1690	0.0001872
1702	0.00018
1714	0.0001296
1726	0.0001152
1738	0.0001296
1750	9.36e-05
1762	7.2e-05
1774	7.92e-05
1786	8.64e-05
1798	8.64e-05
1810	7.2e-05
1822	4.32e-05
1834	7.2e-05
1846	7.2e-05
1858	7.2e-05
1870	5.76e-05
1882	6.48e-05
1894	5.04e-05
1906	2.16e-05
1918	2.16e-05
1930	5.76e-05
1942	3.6e-05
1954	1.44e-05
1966	4.32e-05
1978	3.6e-05
1990	4.32e-05
2002	3.6e-05
2014	8.64e-05
2026	7.92e-05
2038	0.000108
2050	7.2e-05
2062	5.04e-05
2074	4.32e-05
2086	2.16e-05
2098	1.44e-05
2110	2.16e-05
2122	4.32e-05
2134	4.32e-05
2146	3.6e-05
2158	2.16e-05
2170	2.16e-05
2182	2.88e-05
2194	5.04e-05
2206	4.32e-05
2218	2.88e-05
2230	4.32e-05
2242	5.04e-05
2254	5.04e-05
2266	5.04e-05
2278	3.6e-05
2290	5.04e-05
2302	6.48e-05
2314	5.04e-05
2326	5.76e-05
2338	5.04e-05
2350	5.76e-05
2362	7.2e-05
2374	7.92e-05
2386	6.48e-05
2398	0.0001008
2410	7.92e-05
2422	9.36e-05
2434	9.36e-05
2446	8.64e-05
2458	8.64e-05
2470	9.36e-05
2482	0.0001008
2494	0.0001368
2506	0.0001584
2518	0.0001944
2530	0.0002304
2542	0.0002592
2554	0.0002808
2566	0.0002808
2578	0.0003528
2590	0.0004248
2602	0.0004464
2614	0.0005688
2626	0.000612
2638	0.000684
2650	0.0007632
2662	0.0008496
2674	0.0009144
2686	0.000936
2698	0.0009144
2710	0.0009
2722	0.0009792
2734	0.001116
2746	0.0011808
2758	0.0012024
2770	0.0013032
2782	0.0015984
2794	0.0020448
2806	0.002772
2818	0.0037296
2830	0.0053928
2842	0.0091152
2854	0.0195624
2866	0.0268632
2878	0.0201096
2890	0.0176616
2902	0.0225216
2914	0.035676
2926	0.0633528
2938	0.0658944
2950	0.0365832
2962	0.0289008
2974	0.0211896
2986	0.0099648
2998	0.0049968
3010	0.0030528
3022	0.0021096
3034	0.0015912
3046	0.0011232
3058	0.0009576
3070	0.0008712
3082	0.0007416
3094	0.0006264
3106	0.0005904
3118	0.0005616
3130	0.0005184
3142	0.000504
3154	0.0005184
3166	0.000432
3178	0.0004392
3190	0.0004104
3202	0.0003888
3214	0.000324
3226	0.0002304
3238	0.0001944
3250	0.0001584
3262	0.00018
3274	0.0001872
3286	0.0002016
3298	0.0002016
3310	0.0002376
3322	0.0003168
3334	0.0003384
3346	0.0003024
3358	0.0002232
3370	0.0002016
3382	0.0001512
3394	0.0001368
3406	7.92e-05
3418	0.0001296
3430	0.000108
3442	6.48e-05
3454	5.76e-05
3466	1.44e-05
3478	1.44e-05
3490	2.88e-05
3502	5.76e-05
3514	2.88e-05
3526	6.48e-05
3538	1.44e-05
3550	7.2e-06
3562	3.6e-05
3574	0.0001224
3586	7.92e-05
3598	7.2e-05
3610	9.36e-05
3622	0.0001224
3634	7.92e-05
3646	7.92e-05
3658	0.0001296
3670	0.0001296
3682	0.0001728
3694	0.0001584
3706	0.0001512
3718	0.0001656
3730	0.0001656
3742	0.0002088
3754	0.0001584
3766	0.00018
3778	0.0001512
3790	0.000144
3802	0.0001512
3814	0.0001656
3826	0.0001512
3838	0.0002016
