Infrared Spectrum: 2-Aminoundecane
Formula: C 11 H 25 N
CAS: 13205-56-6
State: gas
Instrument: HP-GC/MS/IRD
Origin: NIST Mass Spectrometry Data Center
1/CM	ABSORBANCE
550	0.0005005
562	0.0001001
574	0.0004095
586	0.0004186
598	0.0003185
610	0.0002639
622	0.000364
634	0.0004095
646	0.000637
658	0.0007189
670	0.0010101
682	0.0012831
694	0.001638
706	0.0024206
718	0.0033397
730	0.0040677
742	0.0048685
754	0.0060242
766	0.0076349
778	0.0095732
790	0.0096551
802	0.0072345
814	0.0049686
826	0.0035581
838	0.0027118
850	0.0020748
862	0.0014742
874	0.0010556
886	0.0008827
898	0.0007462
910	0.000637
922	0.0005005
934	0.000364
946	0.0004004
958	0.0003731
970	0.0003822
982	0.0003094
994	0.0004368
1006	0.0006734
1018	0.0008827
1030	0.00091
1042	0.0008554
1054	0.0008645
1066	0.0009737
1078	0.0011011
1090	0.0012376
1102	0.0013013
1114	0.0014924
1126	0.00182
1138	0.0022841
1150	0.0021294
1162	0.001547
1174	0.0012649
1186	0.0010647
1198	0.0009555
1210	0.0008008
1222	0.0008736
1234	0.0008281
1246	0.0008463
1258	0.0008463
1270	0.0009646
1282	0.0011193
1294	0.0014105
1306	0.0017472
1318	0.0020202
1330	0.0026299
1342	0.0037947
1354	0.0045136
1366	0.0050505
1378	0.0057967
1390	0.0040313
1402	0.002093
1414	0.0015561
1426	0.0018382
1438	0.0032396
1450	0.0058058
1462	0.0075712
1474	0.0050869
1486	0.0023569
1498	0.0013286
1510	0.00091
1522	0.0007098
1534	0.0006097
1546	0.0005915
1558	0.0006461
1570	0.0007826
1582	0.0010829
1594	0.0017017
1606	0.0026663
1618	0.0036855
1630	0.0030485
1642	0.0017199
1654	0.0009828
1666	0.0005096
1678	0.0003458
1690	0.0002184
1702	0.0002002
1714	0.0001456
1726	0.0001274
1738	9.1e-05
1750	7.28e-05
1762	5.46e-05
1774	7.28e-05
1786	5.46e-05
1798	6.37e-05
1810	4.55e-05
1822	6.37e-05
1834	4.55e-05
1846	5.46e-05
1858	9.1e-06
1870	2.73e-05
1882	9.1e-06
1894	0
1906	0
1918	5.46e-05
1930	0
1942	9.1e-06
1954	1.82e-05
1966	3.64e-05
1978	3.64e-05
1990	5.46e-05
2002	6.37e-05
2014	9.1e-05
2026	9.1e-05
2038	0.0001729
2050	0.0001638
2062	0.0001274
2074	0.0001183
2086	0.0001092
2098	0.0001092
2110	9.1e-05
2122	0.0001001
2134	0.0001092
2146	0.0001183
2158	0.0001183
2170	0.0001183
2182	0.0001092
2194	0.0001092
2206	8.19e-05
2218	0.0001183
2230	0.0001092
2242	0.0001001
2254	0.0001274
2266	0.0001274
2278	0.0001365
2290	0.0001274
2302	0.0001547
2314	0.0001729
2326	0.0001729
2338	0.000182
2350	0.0001638
2362	0.0002002
2374	0.0001729
2386	0.0001729
2398	0.0001638
2410	0.0001547
2422	0.0001729
2434	0.0001456
2446	0.0001911
2458	0.0001911
2470	0.0001456
2482	0.0001365
2494	0.000182
2506	0.0002093
2518	0.0002457
2530	0.0003458
2542	0.0003458
2554	0.0004004
2566	0.0004368
2578	0.0005096
2590	0.0005733
2602	0.0006643
2614	0.0007462
2626	0.0008554
2638	0.0009646
2650	0.0010556
2662	0.0011375
2674	0.0011921
2686	0.0012103
2698	0.001183
2710	0.0011921
2722	0.0013195
2734	0.0014651
2746	0.0015652
2758	0.0016562
2770	0.0017836
2782	0.0021112
2794	0.0027937
2806	0.0036855
2818	0.0051142
2830	0.0074347
2842	0.0126035
2854	0.0255255
2866	0.0345254
2878	0.0284011
2890	0.0251979
2902	0.0309673
2914	0.0481845
2926	0.0814632
2938	0.0845936
2950	0.0512512
2962	0.043407
2974	0.0329056
2986	0.0151697
2998	0.0073801
3010	0.0044226
3022	0.0030394
3034	0.0022659
3046	0.0016835
3058	0.0013559
3070	0.0011921
3082	0.0010647
3094	0.0009373
3106	0.0008463
3118	0.0007735
3130	0.0007189
3142	0.0006825
3154	0.0006552
3166	0.000637
3178	0.0005733
3190	0.0006097
3202	0.000546
3214	0.0004368
3226	0.000364
3238	0.0002548
3250	0.000273
3262	0.0002184
3274	0.0002457
3286	0.0002275
3298	0.0002275
3310	0.0003276
3322	0.0005187
3334	0.0006097
3346	0.0004914
3358	0.0003185
3370	0.0003094
3382	0.0002821
3394	0.0003185
3406	0.0002639
3418	0.0002093
3430	0.0002184
3442	0.0002002
3454	0.0001638
3466	0.0001183
3478	0.0002002
3490	8.19e-05
3502	0.0001456
3514	0.0001183
3526	0.0001456
3538	0.0001092
3550	0.0001456
3562	0.0001456
3574	0.0001638
3586	0.0002184
3598	0.0002184
3610	0.0002548
3622	0.0002821
3634	0.000273
3646	0.0002821
3658	0.0002821
3670	0.0002912
3682	0.0003185
3694	0.0002912
3706	0.0002457
3718	0.0002548
3730	0.0002366
3742	0.0002821
3754	0.0002912
3766	0.0003003
3778	0.0002093
3790	0.0002457
3802	0.0002912
3814	0.0002548
3826	0.0002821
3838	0.0003003
