Infrared Spectrum: 2-Aminobenzhydrol
Formula: C 13 H 13 N O
CAS: 13209-38-6
State: gas
Origin: EPA-IR VAPOR PHASE LIBRARY
1/CM	ABSORBANCE
551.7	0.00598
563.274	0.00581
574.848	0.00575
586.421	0.00588
597.995	0.00747
609.569	0.01069
621.143	0.0088
632.717	0.00671
644.291	0.00753
655.864	0.00847
667.438	0.00752
679.012	0.00825
690.586	0.01275
702.16	0.0161
713.734	0.01371
725.307	0.01501
736.881	0.02241
748.455	0.02654
760.029	0.01285
771.603	0.00765
783.177	0.00603
794.75	0.00552
806.324	0.0051
817.898	0.00478
829.472	0.00449
841.046	0.00445
852.619	0.00523
864.193	0.0057
875.767	0.00594
887.341	0.00444
898.915	0.00366
910.489	0.00389
922.062	0.00387
933.636	0.00378
945.21	0.00336
956.784	0.00345
968.358	0.00408
979.932	0.00569
991.505	0.00921
1003.08	0.0139
1014.65	0.01589
1026.23	0.01318
1037.8	0.00859
1049.37	0.0055
1060.95	0.00475
1072.52	0.00421
1084.1	0.00301
1095.67	0.00225
1107.24	0.00252
1118.82	0.00275
1130.39	0.0032
1141.97	0.00436
1153.54	0.00694
1165.11	0.00893
1176.69	0.0088
1188.26	0.00627
1199.83	0.00533
1211.41	0.00551
1222.98	0.00519
1234.56	0.00544
1246.13	0.00675
1257.7	0.00863
1269.28	0.00945
1280.85	0.01001
1292.42	0.0104
1304	0.00973
1315.57	0.00868
1327.15	0.00678
1338.72	0.00625
1350.29	0.00663
1361.87	0.00611
1373.44	0.00499
1385.02	0.00397
1396.59	0.00326
1408.16	0.00305
1419.74	0.00313
1431.31	0.0037
1442.88	0.00705
1454.46	0.01359
1466.03	0.011
1477.61	0.0085
1489.18	0.0158
1500.75	0.01427
1512.33	0.00532
1523.9	0.00304
1535.48	0.00264
1547.05	0.00263
1558.62	0.00318
1570.2	0.00474
1581.77	0.00717
1593.34	0.00885
1604.92	0.0126
1616.49	0.01789
1628.07	0.01898
1639.64	0.0095
1651.21	0.00448
1662.79	0.00302
1674.36	0.00257
1685.93	0.00216
1697.51	0.00189
1709.08	0.00166
1720.66	0.0015
1732.23	0.00149
1743.8	0.00157
1755.38	0.00164
1766.95	0.00166
1778.53	0.00179
1790.1	0.00187
1801.67	0.00206
1813.25	0.00169
1824.82	0.00111
1836.39	0.0004598
1847.97	0.00104
1859.54	0.00138
1871.12	0.00158
1882.69	0.002
1894.26	0.00219
1905.84	0.00171
1917.41	0.00169
1928.99	0.00165
1940.56	0.00162
1952.13	0.00161
1963.71	0.00131
1975.28	0.00104
1986.85	0.0009706
1998.43	0.0009626
2010	0.0009623
2021.58	0.0009512
2033.15	0.0009391
2044.72	0.0008425
2056.3	0.0008339
2067.87	0.0007938
2079.44	0.000728
2091.02	0.0007032
2102.59	0.0006485
2114.17	0.0006374
2125.74	0.0005957
2137.31	0.0006209
2148.89	0.0006253
2160.46	0.0006141
2172.04	0.0006203
2183.61	0.0006933
2195.18	0.000639
2206.76	0.0006332
2218.33	0.000643
2229.9	0.0006267
2241.48	0.0005965
2253.05	0.0006176
2264.63	0.0006064
2276.2	0.0006035
2287.77	0.0006731
2299.35	0.0006476
2310.92	0.0007396
2322.5	0.0007618
2334.07	0.0007529
2345.64	0.000718
2357.22	0.0007014
2368.79	0.0006751
2380.36	0.000691
2391.94	0.0006793
2403.51	0.0006651
2415.09	0.000672
2426.66	0.0006666
2438.23	0.0006786
2449.81	0.0006475
2461.38	0.0006893
2472.96	0.0006703
2484.53	0.0006486
2496.1	0.0006352
2507.68	0.0006591
2519.25	0.0006625
2530.82	0.0006787
2542.4	0.0006691
2553.97	0.0006359
2565.55	0.0006665
2577.12	0.0007013
2588.69	0.0006568
2600.27	0.000732
2611.84	0.0007954
2623.41	0.0007301
2634.99	0.000757
2646.56	0.0007258
2658.14	0.000742
2669.71	0.0006566
2681.28	0.0006668
2692.86	0.000729
2704.43	0.000663
2716.01	0.0006581
2727.58	0.0006596
2739.15	0.0006621
2750.73	0.0006767
2762.3	0.000742
2773.87	0.0007749
2785.45	0.0008226
2797.02	0.0008341
2808.6	0.0008065
2820.17	0.0009285
2831.74	0.00106
2843.32	0.00123
2854.89	0.00171
2866.47	0.0025
2878.04	0.00343
2889.61	0.00373
2901.19	0.00301
2912.76	0.00204
2924.33	0.00141
2935.91	0.00117
2947.48	0.000971
2959.06	0.0008841
2970.63	0.0009682
2982.2	0.00112
2993.78	0.00155
3005.35	0.0029
3016.92	0.00614
3028.5	0.01106
3040.07	0.01044
3051.65	0.00863
3063.22	0.01252
3074.79	0.01453
3086.37	0.00964
3097.94	0.0053
3109.52	0.00292
3121.09	0.00166
3132.66	0.00109
3144.24	0.0008878
3155.81	0.0009701
3167.38	0.0009308
3178.96	0.0007608
3190.53	0.0008034
3202.11	0.0007556
3213.68	0.0008053
3225.25	0.0007386
3236.83	0.0007189
3248.4	0.0006328
3259.98	0.0006492
3271.55	0.0006399
3283.12	0.0005965
3294.7	0.0005628
3306.27	0.0006016
3317.84	0.0007109
3329.42	0.000689
3340.99	0.0007757
3352.57	0.00107
3364.14	0.00141
3375.71	0.002
3387.29	0.00369
3398.86	0.00524
3410.43	0.00417
3422.01	0.00244
3433.58	0.00182
3445.16	0.00167
3456.73	0.00227
3468.3	0.00347
3479.88	0.00491
3491.45	0.00536
3503.03	0.00409
3514.6	0.00261
3526.17	0.0018
3537.75	0.00141
3549.32	0.00118
3560.89	0.00116
3572.47	0.00105
3584.04	0.00104
3595.62	0.00117
3607.19	0.00142
3618.76	0.00212
3630.34	0.00372
3641.91	0.00454
3653.49	0.00285
3665.06	0.00143
3676.63	0.00105
3688.21	0.0008463
3699.78	0.0008063
3711.35	0.0007424
3722.93	0.0006722
3734.5	0.0006682
3746.08	0.0006333
3757.65	0.0005411
3769.22	0.0005576
3780.8	0.0005754
3792.37	0.0005253
3803.94	0.000556
3815.52	0.000592
3827.09	0.0005994
3838.67	0.0005604
3850.24	0.0005475
3861.81	0.0006543
3873.39	0.0006077
3884.96	0.0005917
3896.54	0.0006223
3908.11	0.0007562
3919.68	0.0006416
3931.26	0.0007198
3942.83	0.0006207
3954.4	0.0005729
3965.98	0.0005213
3977.55	0.0005378
3989.13	0.0004849
4000.7	0.0005511
