Infrared Spectrum: UREA, 1-(2-CHLOROETHYL)-1-NITROSO-3-PHENYL-
Formula: C9 H10 Cl N3 O2
CAS: 13206-67-2
State: SOLID (0.7 mg / 500 mg KBr DISC)
Class: COBLENTZ III
Instrument: PERKIN-ELMER 221 (GRATING)
Instrument parameters: FILTER AT 980 CM^-^1. GRATING 4000-1428 CM^-^1, NaCl PRISM 1428-650 CM^-^1
Sampling: TRANSMISSION
Resolution: 2
Origin: SOUTHERN RESEARCH INSTITUTE
1/CM	TRANSMITTANCE
653.794	0.657
662.469	0.6541
671.144	0.7521
679.819	0.7603
688.494	0.5642
697.169	0.7715
705.844	0.875
714.518	0.8631
723.193	0.7891
731.868	0.588
740.543	0.5855
749.218	0.7239
757.893	0.7827
766.568	0.843
775.243	0.9043
783.918	0.8239
792.593	0.8929
801.268	0.7936
809.943	0.7844
818.618	0.9089
827.292	0.923
835.967	0.922
844.642	0.9125
853.317	0.8882
861.992	0.8149
870.667	0.8148
879.342	0.9237
888.017	0.9133
896.692	0.8845
905.367	0.866
914.042	0.8428
922.717	0.8269
931.391	0.7955
940.066	0.8765
948.741	0.8122
957.416	0.7289
966.091	0.7756
974.766	0.7638
983.441	0.6605
992.116	0.5625
1000.79	0.6461
1009.47	0.5366
1018.14	0.7682
1026.82	0.663
1035.49	0.7323
1044.17	0.6528
1052.84	0.777
1061.52	0.6642
1070.19	0.6756
1078.87	0.5205
1087.54	0.5112
1096.22	0.7414
1104.89	0.817
1113.56	0.7866
1122.24	0.7761
1130.91	0.871
1139.59	0.9
1148.26	0.9032
1156.94	0.8999
1165.61	0.8982
1174.29	0.881
1182.96	0.8199
1191.64	0.866
1200.31	0.8539
1208.99	0.7498
1217.66	0.6542
1226.34	0.7144
1235.01	0.8038
1243.69	0.7881
1252.36	0.8536
1261.04	0.862
1269.71	0.8384
1278.39	0.8281
1287.06	0.8209
1295.74	0.8007
1304.41	0.741
1313.09	0.7379
1321.76	0.755
1330.44	0.7862
1339.11	0.7965
1347.79	0.87
1356.46	0.8373
1365.14	0.8377
1373.81	0.875
1382.49	0.8685
1391.16	0.8476
1399.84	0.836
1408.51	0.8283
1417.19	0.8174
1425.86	0.7727
1434.54	0.5747
1443.21	0.7079
1451.89	0.7561
1460.56	0.8129
1469.24	0.7315
1477.91	0.5642
1486.59	0.3068
1495.26	0.4063
1503.94	0.4285
1512.61	0.5778
1521.29	0.62
1529.96	0.5064
1538.64	0.4624
1547.31	0.373
1555.99	0.6672
1564.66	0.7961
1573.34	0.821
1582.01	0.839
1590.69	0.7553
1599.36	0.7122
1608.04	0.7905
1616.71	0.8138
1625.39	0.827
1634.06	0.835
1642.74	0.837
1651.41	0.8166
1660.08	0.7932
1668.76	0.7687
1677.43	0.7439
1686.11	0.6467
1694.78	0.4854
1703.46	0.3929
1712.13	0.4967
1720.81	0.4687
1729.48	0.3797
1738.16	0.6696
1746.83	0.7804
1755.51	0.8521
1764.18	0.881
1772.86	0.8861
1781.53	0.8961
1790.21	0.903
1798.88	0.909
1807.56	0.9139
1816.23	0.9178
1824.91	0.919
1833.58	0.9247
1842.26	0.925
1850.93	0.925
1859.61	0.925
1868.28	0.926
1876.96	0.926
1885.63	0.925
1894.31	0.925
1902.98	0.924
1911.66	0.924
1920.33	0.924
1929.01	0.924
1937.68	0.924
1946.36	0.924
1955.03	0.922
1963.71	0.92
1972.38	0.9149
1981.06	0.918
1989.73	0.918
1998.41	0.919
2007.08	0.918
2015.76	0.918
2024.43	0.9177
2033.11	0.919
2041.78	0.919
2050.46	0.919
2059.13	0.918
2067.81	0.918
2076.48	0.917
2085.16	0.915
2093.83	0.915
2102.51	0.915
2111.18	0.915
2119.86	0.917
2128.53	0.917
2137.21	0.9177
2145.88	0.9173
2154.56	0.9187
2163.23	0.92
2171.91	0.919
2180.58	0.919
2189.26	0.919
2197.93	0.919
2206.6	0.919
2215.28	0.918
2223.95	0.9173
2232.63	0.915
2241.3	0.914
2249.98	0.913
2258.65	0.9164
2267.33	0.918
2276	0.918
2284.68	0.918
2293.35	0.917
2302.03	0.915
2310.7	0.9123
2319.38	0.91
2328.05	0.908
2336.73	0.904
2345.4	0.904
2354.08	0.903
2362.75	0.903
2371.43	0.903
2380.1	0.907
2388.78	0.909
2397.45	0.91
2406.13	0.91
2414.8	0.909
2423.48	0.907
2432.15	0.905
2440.83	0.904
2449.5	0.904
2458.18	0.9033
2466.85	0.9047
2475.53	0.907
2484.2	0.905
2492.88	0.905
2501.55	0.907
2510.23	0.908
2518.9	0.909
2527.58	0.9083
2536.25	0.908
2544.93	0.907
2553.6	0.905
2562.28	0.904
2570.95	0.902
2579.63	0.8993
2588.3	0.899
2596.98	0.899
2605.65	0.899
2614.33	0.899
2623	0.9
2631.68	0.9
2640.35	0.9
2649.03	0.9
2657.7	0.9
2666.38	0.9
2675.05	0.8993
2683.73	0.899
2692.4	0.899
2701.08	0.899
2709.75	0.898
2718.43	0.898
2727.1	0.896
2735.78	0.896
2744.45	0.896
2753.13	0.894
2761.8	0.894
2770.47	0.894
2779.15	0.896
2787.82	0.892
2796.5	0.889
2805.17	0.889
2813.85	0.889
2822.52	0.889
2831.2	0.886
2839.87	0.8816
2848.55	0.8679
2857.22	0.855
2865.9	0.8644
2874.57	0.871
2883.25	0.8686
2891.92	0.8656
2900.6	0.8586
2909.27	0.8476
2917.95	0.8299
2926.62	0.801
2935.3	0.8314
2943.97	0.849
2952.65	0.853
2961.32	0.8374
2970	0.8391
2978.67	0.8497
2987.35	0.8627
2996.02	0.8629
3004.7	0.852
3013.37	0.8406
3022.05	0.836
3030.72	0.8393
3039.4	0.8334
3048.07	0.837
3056.75	0.8137
3065.42	0.8247
3074.1	0.8367
3082.77	0.84
3091.45	0.842
3100.12	0.8507
3108.8	0.8536
3117.47	0.85
3126.15	0.8493
3134.82	0.8443
3143.5	0.841
3152.17	0.842
3160.85	0.842
3169.52	0.8403
3178.2	0.8363
3186.87	0.8313
3195.55	0.8233
3204.22	0.8183
3212.9	0.8147
3221.57	0.81
3230.25	0.803
3238.92	0.7943
3247.6	0.7783
3256.27	0.772
3264.95	0.7623
3273.62	0.7479
3282.3	0.7234
3290.97	0.6746
3299.65	0.6065
3308.32	0.5697
3316.99	0.5834
3325.67	0.5721
3334.34	0.5442
3343.02	0.537
3351.69	0.5687
3360.37	0.62
3369.04	0.6641
3377.72	0.6871
3386.39	0.691
3395.07	0.7031
3403.74	0.7117
3412.42	0.7197
3421.09	0.7234
3429.77	0.726
3438.44	0.728
3447.12	0.73
3455.79	0.731
3464.47	0.7344
3473.14	0.736
3481.82	0.7377
3490.49	0.74
3499.17	0.742
3507.84	0.746
3516.52	0.7527
3525.19	0.7617
3533.87	0.768
3542.54	0.7777
3551.22	0.7887
3559.89	0.797
3568.57	0.799
3577.24	0.8024
3585.92	0.8097
3594.59	0.8187
3603.27	0.823
3611.94	0.8317
3620.62	0.8407
3629.29	0.845
3637.97	0.847
3646.64	0.8507
3655.32	0.856
3663.99	0.856
3672.67	0.8607
3681.34	0.862
3690.02	0.8516
3698.69	0.8497
3707.37	0.8566
3716.04	0.8617
3724.72	0.865
3733.39	0.866
3742.07	0.8636
3750.74	0.8586
3759.42	0.8573
3768.09	0.8577
3776.77	0.8617
3785.44	0.868
3794.12	0.868
3802.79	0.87
3811.47	0.87
3820.14	0.871
3828.82	0.87
3837.49	0.867
3846.17	0.866
3854.84	0.866
3863.52	0.865
3872.19	0.863
3880.86	0.863
3889.54	0.863
3898.21	0.863
3906.89	0.863
3915.56	0.863
3924.24	0.863
3932.91	0.863
3941.59	0.868
3950.26	0.8603
3958.94	0.863
3967.61	0.863
3976.29	0.863
3984.96	0.863
3993.64	0.863
4002.31	0.863
4010.99	0.863
4019.66	0.862
