Infrared Spectrum: 5-Iodo-8-quinolinol
Formula: C9 H6 I N O
CAS: 13207-63-1
State: SOLUTION (2% CCl4 FOR 3800-1330, 2% CS2 FOR 1330-400)
Class: COBLENTZ III
Instrument: BECKMAN IR-9 (GRATING)
Instrument parameters: ORDER CHANGES: 670, 1200, 2000 CM^-^1
Sampling: TRANSMISSION
Path length: 0.055 CM, 0.054 CM
Resolution: 2
Origin: DOW CHEMICAL COMPANY
1/CM	TRANSMITTANCE
3804	0.8172
3795.03	0.8229
3786.05	0.8232
3777.08	0.8238
3768.11	0.824
3759.13	0.8241
3750.16	0.8242
3741.18	0.822
3732.21	0.8199
3723.24	0.8202
3714.26	0.816
3705.29	0.8116
3696.32	0.8137
3687.34	0.8054
3678.37	0.7991
3669.4	0.7991
3660.42	0.8036
3651.45	0.8072
3642.47	0.8112
3633.5	0.8138
3624.53	0.8189
3615.55	0.8222
3606.58	0.8231
3597.61	0.8235
3588.63	0.8238
3579.66	0.8239
3570.69	0.8242
3561.71	0.8186
3552.74	0.8182
3543.76	0.8232
3534.79	0.8223
3525.82	0.8213
3516.84	0.8134
3507.87	0.8091
3498.9	0.8028
3489.92	0.7943
3480.95	0.7832
3471.98	0.7684
3463	0.7355
3454.03	0.6888
3445.06	0.6486
3436.08	0.601
3427.11	0.5125
3418.13	0.4307
3409.16	0.3368
3400.19	0.2419
3391.21	0.2438
3382.24	0.3008
3373.27	0.3955
3364.29	0.4886
3355.32	0.5808
3346.35	0.638
3337.37	0.675
3328.4	0.7093
3319.42	0.7251
3310.45	0.741
3301.48	0.7612
3292.5	0.7644
3283.53	0.7712
3274.56	0.7815
3265.58	0.7852
3256.61	0.7881
3247.64	0.787
3238.66	0.7912
3229.69	0.7917
3220.71	0.7913
3211.74	0.79
3202.77	0.7881
3193.79	0.783
3184.82	0.785
3175.85	0.7868
3166.87	0.7897
3157.9	0.7936
3148.93	0.7967
3139.95	0.7957
3130.98	0.7932
3122	0.7894
3113.03	0.7774
3104.06	0.7639
3095.08	0.7638
3086.11	0.722
3077.14	0.6575
3068.16	0.6044
3059.19	0.6358
3050.22	0.7386
3041.24	0.7943
3032.27	0.781
3023.29	0.7406
3014.32	0.7563
3005.35	0.7834
2996.37	0.8018
2987.4	0.8134
2978.43	0.822
2969.45	0.8269
2960.48	0.831
2951.51	0.8343
2942.53	0.8336
2933.56	0.8285
2924.58	0.8237
2915.61	0.8257
2906.64	0.8352
2897.66	0.8351
2888.69	0.8374
2879.72	0.8395
2870.74	0.8409
2861.77	0.8422
2852.8	0.837
2843.82	0.8408
2834.85	0.8373
2825.88	0.8421
2816.9	0.8371
2807.93	0.8403
2798.95	0.8427
2789.98	0.8413
2781.01	0.8398
2772.03	0.8417
2763.06	0.841
2754.09	0.8409
2745.11	0.8408
2736.14	0.8406
2727.17	0.8405
2718.19	0.8405
2709.22	0.8405
2700.24	0.8406
2691.27	0.8405
2682.3	0.8406
2673.32	0.8406
2664.35	0.8414
2655.38	0.848
2646.4	0.8492
2637.43	0.8446
2628.46	0.848
2619.48	0.8464
2610.51	0.8479
2601.53	0.8476
2592.56	0.8467
2583.59	0.8482
2574.61	0.8511
2565.64	0.8517
2556.67	0.8523
2547.69	0.8522
2538.72	0.8521
2529.75	0.8507
2520.77	0.8496
2511.8	0.8496
2502.82	0.8524
2493.85	0.853
2484.88	0.8527
2475.9	0.8584
2466.93	0.8553
2457.96	0.8539
2448.98	0.8582
2440.01	0.8602
2431.04	0.8512
2422.06	0.8488
2413.09	0.8525
2404.11	0.8609
2395.14	0.8608
2386.17	0.864
2377.19	0.8779
2368.22	0.8697
2359.25	0.8585
2350.27	0.8563
2341.3	0.8485
2332.33	0.8412
2323.35	0.8412
2314.38	0.8256
2305.41	0.815
2296.43	0.8133
2287.46	0.8152
2278.48	0.8272
2269.51	0.8428
2260.54	0.8503
2251.56	0.8541
2242.59	0.8582
2233.62	0.864
2224.64	0.8726
2215.67	0.8723
2206.7	0.8751
2197.72	0.8757
2188.75	0.8677
2179.77	0.8667
2170.8	0.876
2161.83	0.8732
2152.85	0.875
2143.88	0.8763
2134.91	0.8769
2125.93	0.8765
2116.96	0.8756
2107.99	0.8731
2099.01	0.8697
2090.04	0.87
2081.06	0.8717
2072.09	0.8682
2063.12	0.8599
2054.14	0.8607
2045.17	0.8521
2036.2	0.85
2027.22	0.8504
2018.25	0.8465
2009.28	0.8422
2000.3	0.8374
1991.33	0.8325
1982.35	0.8314
1973.38	0.8279
1964.41	0.8278
1955.43	0.8014
1946.46	0.8104
1937.49	0.8328
1928.51	0.826
1919.54	0.8078
1910.57	0.8258
1901.59	0.8285
1892.62	0.7915
1883.64	0.7581
1874.67	0.8085
1865.7	0.8147
1856.72	0.8211
1847.75	0.8218
1838.78	0.8261
1829.8	0.8258
1820.83	0.8306
1811.86	0.8393
1802.88	0.8318
1793.91	0.8362
1784.93	0.8407
1775.96	0.8282
1766.99	0.7898
1758.01	0.8302
1749.04	0.845
1740.07	0.838
1731.09	0.8312
1722.12	0.8475
1713.15	0.8437
1704.17	0.8207
1695.2	0.8073
1686.23	0.8263
1677.25	0.8361
1668.28	0.8502
1659.3	0.847
1650.33	0.8233
1641.36	0.8188
1632.38	0.8136
1623.41	0.7807
1614.44	0.535
1605.46	0.6454
1596.49	0.385
1587.52	0.2141
1578.54	0.1137
1569.57	0.1306
1560.59	0.0956
1551.62	0.0913
1542.65	0.1614
1533.67	0.3367
1524.7	0.3831
1515.73	0.48
1506.75	0.4858
1497.78	0.4432
1488.81	-0.0036
1479.83	0.525
1470.86	0.6208
1461.88	0.002
1452.91	0.5636
1443.94	0.6655
1434.96	0.5152
1425.99	0.1906
1417.02	0.6403
1408.04	0.1813
1399.07	0.2056
1390.1	0.3662
1381.12	0.1369
1372.15	0.3169
1363.17	0.4338
1354.2	0.4783
1345.23	0.103
1336.25	0.2673
1327.28	0.429
1318.31	0.6646
1309.33	0.8581
1300.36	0.8833
1291.39	0.8768
1282.41	0.5932
1273.44	0.1639
1264.46	0.5858
1255.49	0.7726
1246.52	0.6065
1237.54	0.651
1228.57	0.845
1219.6	0.7356
1210.62	0.6223
1201.65	0.2535
1192.68	0.3012
1183.7	0.7311
1174.73	0.7882
1165.75	0.8492
1156.78	0.8556
1147.81	0.829
1138.83	0.8335
1129.86	0.6793
1120.89	0.8752
1111.91	0.3323
1102.94	0.3148
1093.97	0.8154
1084.99	0.8077
1076.02	0.6531
1067.05	0.8153
1058.07	0.8869
1049.1	0.9313
1040.12	0.9066
1031.15	0.6089
1022.18	0.9282
1013.2	0.9558
1004.23	0.9497
995.256	0.9414
986.282	0.9598
977.309	0.9493
968.335	0.9323
959.362	0.9602
950.388	0.9589
941.414	0.9242
932.441	0.9401
923.467	0.9474
914.493	0.9052
905.52	0.9258
896.546	0.8944
887.573	0.5621
878.599	0.745
869.625	0.6442
860.652	0.5778
851.678	0.5267
842.705	0.2599
833.731	0.7549
824.757	0.0962
815.784	0.6622
806.81	0.8642
797.836	0.8421
788.863	0.0037
779.889	0.8062
770.916	0.8917
761.942	0.8404
752.968	0.917
743.995	0.924
735.021	0.9004
726.047	0.7352
717.074	0.3071
708.1	0.8064
699.127	0.8954
690.153	0.8993
681.179	0.877
672.206	0.849
663.232	0.715
654.258	0.3469
645.285	0.5767
636.311	0.7702
627.338	0.7657
618.364	0.6575
609.39	0.4636
600.417	0.2254
591.443	0.2273
582.469	0.4365
573.496	0.321
564.522	0.6546
555.549	0.7845
546.575	0.8005
537.601	0.7834
528.628	0.836
519.654	0.8754
510.68	0.859
501.707	0.6911
492.733	0.7655
483.76	0.5723
474.786	0.7644
465.812	0.7089
456.839	0.6299
447.865	0.5199
438.891	0.3852
429.918	0.187
420.944	0.0083
411.971	-0.0036
402.997	-0.0036
