Infrared Spectrum: 5-Hydroxyindole-3-acetic acid
Formula: C 10 H 9 N O 3
CAS: 1321-73-9
State: gas
Origin: EPA-IR VAPOR PHASE LIBRARY
1/CM	ABSORBANCE
501.5	0.00265
513.074	0.00187
524.648	0.0013
536.222	0.00135
547.796	0.00199
559.37	0.00274
570.944	0.00463
582.518	0.00521
594.092	0.00268
605.666	0.00254
617.24	0.0048
628.814	0.00578
640.388	0.00371
651.962	0.00332
663.536	0.00355
675.11	0.0068
686.684	0.00673
698.258	0.00419
709.832	0.00588
721.406	0.00899
732.98	0.01102
744.554	0.00939
756.128	0.00986
767.702	0.02012
779.276	0.02723
790.85	0.01693
802.423	0.00968
813.997	0.00815
825.571	0.01185
837.145	0.01118
848.719	0.0086
860.293	0.00611
871.867	0.00323
883.441	0.00198
895.015	0.00185
906.589	0.00213
918.163	0.00507
929.737	0.01508
941.311	0.01238
952.885	0.00317
964.459	0.00213
976.033	0.00289
987.607	0.00327
999.181	0.00247
1010.76	0.00198
1022.33	0.00236
1033.9	0.00442
1045.48	0.00835
1057.05	0.01134
1068.63	0.00878
1080.2	0.00729
1091.77	0.00745
1103.35	0.00532
1114.92	0.00379
1126.49	0.00384
1138.07	0.00506
1149.64	0.01433
1161.22	0.05202
1172.79	0.06864
1184.36	0.03171
1195.94	0.01545
1207.51	0.0174
1219.09	0.0189
1230.66	0.01453
1242.23	0.01157
1253.81	0.00764
1265.38	0.00479
1276.96	0.00572
1288.53	0.00848
1300.1	0.00797
1311.68	0.01062
1323.25	0.01976
1334.83	0.0156
1346.4	0.00871
1357.97	0.00452
1369.55	0.00225
1381.12	0.00252
1392.7	0.00297
1404.27	0.00384
1415.84	0.0048
1427.42	0.00605
1438.99	0.01116
1450.57	0.02435
1462.14	0.02769
1473.71	0.02543
1485.29	0.02706
1496.86	0.01629
1508.44	0.00825
1520.01	0.00386
1531.58	0.0042
1543.16	0.00749
1554.73	0.0097
1566.31	0.00843
1577.88	0.00866
1589.45	0.01115
1601.03	0.0089
1612.6	0.00557
1624.18	0.00761
1635.75	0.00618
1647.32	0.00251
1658.9	0.00213
1670.47	0.00177
1682.05	0.0013
1693.62	0.00139
1705.19	0.00158
1716.77	0.00131
1728.34	0.0007414
1739.92	0.0004657
1751.49	0.0003335
1763.06	0.0003327
1774.64	0.0003716
1786.21	0.0005063
1797.79	0.0008058
1809.36	0.0008895
1820.93	0.0009777
1832.51	0.00123
1844.08	0.0009519
1855.66	0.0004826
1867.23	0.0003223
1878.8	0.0002858
1890.38	0.0003161
1901.95	0.0003177
1913.53	0.0002852
1925.1	0.0002457
1936.67	0.0002317
1948.25	0.0002528
1959.82	0.0003206
1971.4	0.0002968
1982.97	0.0003479
1994.54	0.0003645
2006.12	0.0003953
2017.69	0.0003086
2029.27	0.0002739
2040.84	0.0002588
2052.41	0.0003174
2063.99	0.000311
2075.56	0.0002808
2087.14	0.0002698
2098.71	0.000302
2110.28	0.0002907
2121.86	0.0002906
2133.43	0.0003105
2145.01	0.0003101
2156.58	0.0002575
2168.15	0.0002488
2179.73	0.0002661
2191.3	0.0002381
2202.88	0.0002803
2214.45	0.0003133
2226.02	0.0003215
2237.6	0.0003414
2249.17	0.0003638
2260.74	0.0003695
2272.32	0.0003589
2283.89	0.0003314
2295.47	0.0003609
2307.04	0.000448
2318.61	0.0005163
2330.19	0.0005256
2341.76	0.0005199
2353.34	0.0005227
2364.91	0.0006482
2376.48	0.0009449
2388.06	0.0009702
2399.63	0.000783
2411.21	0.0006444
2422.78	0.0006293
2434.35	0.0005593
2445.93	0.0005435
2457.5	0.0006475
2469.08	0.0007579
2480.65	0.0008389
2492.22	0.0009218
2503.8	0.0008173
2515.37	0.0005746
2526.95	0.0005035
2538.52	0.0005857
2550.09	0.0006336
2561.67	0.0005842
2573.24	0.0005725
2584.82	0.000432
2596.39	0.0003724
2607.96	0.0003947
2619.54	0.0004429
2631.11	0.0005229
2642.69	0.0005928
2654.26	0.0005335
2665.83	0.0005014
2677.41	0.0004882
2688.98	0.0004984
2700.56	0.0004867
2712.13	0.0005254
2723.7	0.0005678
2735.28	0.0006838
2746.85	0.0009625
2758.43	0.0009794
2770	0.0006799
2781.57	0.00068
2793.15	0.000816
2804.72	0.000912
2816.3	0.00101
2827.87	0.00126
2839.44	0.0017
2851.02	0.00248
2862.59	0.00441
2874.17	0.00651
2885.74	0.00622
2897.31	0.00563
2908.89	0.00617
2920.46	0.00859
2932.04	0.01114
2943.61	0.01024
2955.18	0.00716
2966.76	0.00684
2978.33	0.0058
2989.91	0.0032
3001.48	0.00275
3013.05	0.0043
3024.63	0.00713
3036.2	0.00807
3047.78	0.00638
3059.35	0.00498
3070.92	0.00414
3082.5	0.00388
3094.07	0.00351
3105.65	0.00234
3117.22	0.00122
3128.79	0.0008488
3140.37	0.0006464
3151.94	0.0005368
3163.52	0.0004602
3175.09	0.0005224
3186.66	0.000509
3198.24	0.0004405
3209.81	0.0004156
3221.39	0.0003389
3232.96	0.0003161
3244.53	0.0002825
3256.11	0.0002408
3267.68	0.0002419
3279.26	0.0002198
3290.83	0.0002797
3302.4	0.0001455
3313.98	0.0002143
3325.55	0.0002398
3337.13	0.0002758
3348.7	0.0002813
3360.27	0.0003295
3371.85	0.0003423
3383.42	0.0004479
3395	0.0005275
3406.57	0.0006783
3418.14	0.0008547
3429.72	0.0009395
3441.29	0.00105
3452.86	0.00132
3464.44	0.00196
3476.01	0.00322
3487.59	0.00638
3499.16	0.01196
3510.73	0.01594
3522.31	0.01332
3533.88	0.00643
3545.46	0.00207
3557.03	0.00119
3568.6	0.0009903
3580.18	0.000856
3591.75	0.0007289
3603.33	0.0007106
3614.9	0.0009771
3626.47	0.00172
3638.05	0.00521
3649.62	0.01613
3661.2	0.01853
3672.77	0.0059
3684.34	0.0009722
3695.92	0.000527
3707.49	0.0003435
3719.07	0.0003017
3730.64	0.0003077
3742.21	0.000254
3753.79	0.0003075
3765.36	0.0004216
3776.94	0.0004039
3788.51	0.0004737
3800.08	0.0004184
3811.66	0.0004465
3823.23	0.0005034
3834.81	0.0005738
3846.38	0.0006465
3857.95	0.0006206
3869.53	0.0005237
3881.1	0.0005101
3892.68	0.0005839
3904.25	0.0005121
3915.82	0.000456
3927.4	0.0004414
3938.97	0.0003009
3950.55	0.0002653
3962.12	0.0002846
3973.69	0.0001963
3985.27	0.0002957
3996.84	0.0003804
