Infrared Spectrum: 2-Norbornanone, 3,3-dimethyl-
Formula: C9 H14 O
CAS: 13211-15-9
State: SOLUTION (10% CCl4 FOR 4000-1300, 10% CS2 FOR 1300-480 CM^-^1) VS SOLVENT
Class: COBLENTZ III
Instrument: CARY 90 (GRATING)
Instrument parameters: GRATING CHANGES: 3000, 2000, 1200 CM^-^1
Sampling: TRANSMISSION
Path length: 0.010 CM, AND 0.010 CM
Resolution: 2
Origin: WESTERN REGIONAL RES. USDA
1/CM	TRANSMITTANCE
489	0.7663
498	0.7912
507	0.8156
516	0.8361
525	0.8386
534	0.8268
543	0.8197
552	0.8288
561	0.8433
570	0.8567
579	0.8639
588	0.8637
597	0.8602
606	0.8566
615	0.8558
624	0.8541
633	0.852
642	0.8478
651	0.8448
660	0.8522
669	0.8625
678	0.8687
687	0.8698
696	0.867
705	0.8599
714	0.851
723	0.8385
732	0.8693
741	0.7784
750	0.6892
759	0.8735
768	0.8804
777	0.8819
786	0.8981
795	0.8982
804	0.8909
813	0.8094
822	0.8787
831	0.8543
840	0.9004
849	0.8979
858	0.8756
867	0.8715
876	0.8175
885	0.8454
894	0.8988
903	0.8543
912	0.7006
921	0.8787
930	0.8048
939	0.8286
948	0.6589
957	0.8599
966	0.9075
975	0.9106
984	0.9053
993	0.896
1002	0.8306
1011	0.8528
1020	0.854
1029	0.7272
1038	0.8481
1047	0.7987
1056	0.4955
1065	0.8112
1074	0.8599
1083	0.8803
1092	0.8818
1101	0.6572
1110	0.8677
1119	0.8874
1128	0.8416
1137	0.866
1146	0.7698
1155	0.6876
1164	0.8154
1173	0.8306
1182	0.8499
1191	0.8532
1200	0.8344
1209	0.8217
1218	0.8782
1227	0.8682
1236	0.8526
1245	0.9047
1254	0.8849
1263	0.8951
1272	0.8377
1281	0.8946
1290	0.7105
1299	0.8181
1308	0.8438
1317	0.8204
1326	0.8759
1335	0.8772
1344	0.8773
1353	0.875
1362	0.7521
1371	0.8363
1380	0.6839
1389	0.8145
1398	0.8933
1407	0.8739
1416	0.8582
1425	0.8562
1434	0.8322
1443	0.7675
1452	0.64
1461	0.5778
1470	0.6286
1479	0.7785
1488	0.7548
1497	0.8429
1506	0.8741
1515	0.8791
1524	0.8863
1533	0.8914
1542	0.8927
1551	0.8936
1560	0.895
1569	0.8949
1578	0.8948
1587	0.895
1596	0.8952
1605	0.8978
1614	0.8935
1623	0.8924
1632	0.8927
1641	0.8924
1650	0.8894
1659	0.8847
1668	0.8949
1677	0.89
1686	0.8704
1695	0.8505
1704	0.8297
1713	0.812
1722	0.7681
1731	0.6002
1740	0.2105
1749	0.0435
1758	0.5877
1767	0.7489
1776	0.8268
1785	0.8402
1794	0.8534
1803	0.8647
1812	0.8732
1821	0.8804
1830	0.89
1839	0.8933
1848	0.8908
1857	0.8922
1866	0.896
1875	0.8989
1884	0.9009
1893	0.9029
1902	0.9049
1911	0.9054
1920	0.9052
1929	0.9053
1938	0.9062
1947	0.9056
1956	0.9044
1965	0.9009
1974	0.8983
1983	0.8972
1992	0.9037
2001	0.913
2010	0.9132
2019	0.9126
2028	0.9118
2037	0.9106
2046	0.9091
2055	0.9119
2064	0.9187
2073	0.9211
2082	0.9233
2091	0.9245
2100	0.9257
2109	0.926
2118	0.9263
2127	0.9265
2136	0.9269
2145	0.9271
2154	0.9273
2163	0.9273
2172	0.9273
2181	0.9272
2190	0.9272
2199	0.927
2208	0.9265
2217	0.926
2226	0.9256
2235	0.9254
2244	0.927
2253	0.9292
2262	0.9276
2271	0.9255
2280	0.9247
2289	0.9246
2298	0.9251
2307	0.9256
2316	0.9262
2325	0.9268
2334	0.9289
2343	0.9315
2352	0.9348
2361	0.9338
2370	0.9316
2379	0.9283
2388	0.9282
2397	0.9289
2406	0.9308
2415	0.9356
2424	0.9376
2433	0.9358
2442	0.9299
2451	0.9306
2460	0.9392
2469	0.9422
2478	0.9408
2487	0.9352
2496	0.9347
2505	0.9346
2514	0.938
2523	0.9413
2532	0.9445
2541	0.9435
2550	0.9375
2559	0.9314
2568	0.9263
2577	0.9256
2586	0.9249
2595	0.9251
2604	0.9254
2613	0.9256
2622	0.9258
2631	0.926
2640	0.9256
2649	0.925
2658	0.9244
2667	0.9238
2676	0.9229
2685	0.9219
2694	0.9209
2703	0.9198
2712	0.9187
2721	0.9171
2730	0.9154
2739	0.9157
2748	0.9161
2757	0.9157
2766	0.9146
2775	0.9117
2784	0.9089
2793	0.9034
2802	0.8949
2811	0.8847
2820	0.8725
2829	0.8571
2838	0.8196
2847	0.6815
2856	0.5516
2865	0.502
2874	0.4262
2883	0.5001
2892	0.5363
2901	0.5286
2910	0.4345
2919	0.3301
2928	0.2135
2937	0.282
2946	0.3195
2955	0.2338
2964	0.1787
2973	0.1802
2982	0.3919
2991	0.5637
3000	0.7355
3009	0.8166
3018	0.8457
3027	0.8673
3036	0.8838
3045	0.8983
3054	0.9089
3063	0.917
3072	0.9226
3081	0.9275
3090	0.9312
3099	0.9343
3108	0.9371
3117	0.938
3126	0.939
3135	0.9391
3144	0.938
3153	0.9373
3162	0.9371
3171	0.937
3180	0.9368
3189	0.9367
3198	0.9366
3207	0.9365
3216	0.9365
3225	0.9367
3234	0.9372
3243	0.9377
3252	0.9383
3261	0.9388
3270	0.9394
3279	0.9399
3288	0.9406
3297	0.9412
3306	0.9418
3315	0.9424
3324	0.943
3333	0.9434
3342	0.9437
3351	0.9439
3360	0.9442
3369	0.9444
3378	0.9442
3387	0.9441
3396	0.9437
3405	0.9432
3414	0.9427
3423	0.942
3432	0.9407
3441	0.9394
3450	0.9361
3459	0.9318
3468	0.9259
3477	0.9213
3486	0.9299
3495	0.9372
3504	0.9404
3513	0.9418
3522	0.9431
3531	0.9441
3540	0.9451
3549	0.9451
3558	0.9444
3567	0.9437
3576	0.9435
3585	0.9433
3594	0.9431
3603	0.9428
3612	0.9429
3621	0.9431
3630	0.9434
3639	0.9436
3648	0.9438
3657	0.9441
3666	0.9443
3675	0.9446
3684	0.9452
3693	0.9457
3702	0.9462
3711	0.9467
3720	0.9473
3729	0.9478
3738	0.9483
3747	0.9487
3756	0.9492
3765	0.9497
3774	0.9503
3783	0.9508
3792	0.9514
3801	0.9519
3810	0.9518
3819	0.9516
3828	0.9514
3837	0.9512
3846	0.9508
3855	0.95
3864	0.9492
3873	0.9484
3882	0.9476
3891	0.9468
3900	0.9461
3909	0.9455
3918	0.9449
3927	0.9442
3936	0.9436
3945	0.9429
3954	0.9424
3963	0.942
3972	0.942
3981	0.9421
3990	0.9421
3999	0.9421
