Infrared Spectrum: 2,5-Dimethyl hydroquinone
Formula: C8 H10 O2
CAS: 1321-28-4
State: gas
Origin: EPA-IR VAPOR PHASE LIBRARY
1/CM	ABSORBANCE
501.5	0.0001614
513.074	0.0005216
524.648	0.0006015
536.222	0.000659
547.796	0.0008333
559.37	0.0009113
570.944	0.00122
582.518	0.00156
594.092	0.0009709
605.666	0.0004805
617.24	0.0004228
628.814	0.0004974
640.388	0.0004062
651.962	0.0005535
663.536	0.0009007
675.11	0.00304
686.684	0.00404
698.258	0.0021
709.832	0.00103
721.406	0.0004589
732.98	0.0003109
744.554	0.0002243
756.128	0.0002415
767.702	0.0002744
779.276	0.0004109
790.85	0.0007511
802.423	0.00197
813.997	0.00398
825.571	0.00513
837.145	0.00446
848.719	0.00374
860.293	0.00429
871.867	0.00515
883.441	0.00261
895.015	0.0013
906.589	0.00122
918.163	0.000963
929.737	0.000801
941.311	0.0008361
952.885	0.0011
964.459	0.00188
976.033	0.00321
987.607	0.00452
999.181	0.00375
1010.76	0.0021
1022.33	0.00129
1033.9	0.00119
1045.48	0.0009638
1057.05	0.0011
1068.63	0.00129
1080.2	0.00185
1091.77	0.00256
1103.35	0.00434
1114.92	0.00821
1126.49	0.01066
1138.07	0.01178
1149.64	0.01577
1161.22	0.02389
1172.79	0.03208
1184.36	0.02733
1195.94	0.01491
1207.51	0.00851
1219.09	0.01073
1230.66	0.01192
1242.23	0.00924
1253.81	0.00625
1265.38	0.00468
1276.96	0.00606
1288.53	0.00858
1300.1	0.00844
1311.68	0.00678
1323.25	0.00413
1334.83	0.00241
1346.4	0.00188
1357.97	0.00175
1369.55	0.00264
1381.12	0.00381
1392.7	0.00384
1404.27	0.00658
1415.84	0.01029
1427.42	0.00994
1438.99	0.00698
1450.57	0.00565
1462.14	0.00691
1473.71	0.00731
1485.29	0.0066
1496.86	0.01033
1508.44	0.01718
1520.01	0.01599
1531.58	0.00781
1543.16	0.00325
1554.73	0.00222
1566.31	0.00171
1577.88	0.00126
1589.45	0.0008814
1601.03	0.0008412
1612.6	0.0009147
1624.18	0.0009579
1635.75	0.0008448
1647.32	0.0008244
1658.9	0.00178
1670.47	0.00316
1682.05	0.00255
1693.62	0.0009446
1705.19	0.0006112
1716.77	0.0005881
1728.34	0.0005086
1739.92	0.0004243
1751.49	0.0003973
1763.06	0.0003783
1774.64	0.0003124
1786.21	0.0002049
1797.79	0.0001462
1809.36	0.0001367
1820.93	0.0001266
1832.51	9.556e-05
1844.08	0.0001116
1855.66	0.0001294
1867.23	0.0001552
1878.8	0.0001816
1890.38	0.0002227
1901.95	0.0002649
1913.53	0.0002797
1925.1	0.0002337
1936.67	0.0001851
1948.25	0.0001242
1959.82	0.0001281
1971.4	0.0001239
1982.97	0.0001261
1994.54	0.0001487
2006.12	0.0001045
2017.69	0.0001037
2029.27	6.417e-05
2040.84	0.0001006
2052.41	0.0001059
2063.99	0.0001399
2075.56	0.0001329
2087.14	0.0001404
2098.71	0.0001432
2110.28	0.000161
2121.86	0.0001973
2133.43	0.0001877
2145.01	0.0001433
2156.58	0.0001294
2168.15	8.605e-05
2179.73	9.352e-05
2191.3	0.0001057
2202.88	0.0001182
2214.45	0.0001127
2226.02	0.0001493
2237.6	0.0001978
2249.17	0.0002284
2260.74	0.0002507
2272.32	0.0002652
2283.89	0.0002532
2295.47	0.0002639
2307.04	0.0003233
2318.61	0.0003342
2330.19	0.0002755
2341.76	0.0002205
2353.34	0.000211
2364.91	0.0002326
2376.48	0.0002491
2388.06	0.0002287
2399.63	0.0002518
2411.21	0.0002802
2422.78	0.0002925
2434.35	0.0003364
2445.93	0.0003545
2457.5	0.000418
2469.08	0.0004869
2480.65	0.0005025
2492.22	0.0004181
2503.8	0.0003343
2515.37	0.0002741
2526.95	0.000203
2538.52	0.0002602
2550.09	0.0002205
2561.67	0.0001798
2573.24	0.0002062
2584.82	0.0001959
2596.39	0.0002431
2607.96	0.0001961
2619.54	0.0002229
2631.11	0.0002027
2642.69	0.0001794
2654.26	0.0001632
2665.83	0.0001589
2677.41	0.0001986
2688.98	0.0002447
2700.56	0.0002892
2712.13	0.0002651
2723.7	0.0003151
2735.28	0.0004472
2746.85	0.0005551
2758.43	0.0004177
2770	0.000307
2781.57	0.000372
2793.15	0.0004261
2804.72	0.0005433
2816.3	0.0006138
2827.87	0.0007628
2839.44	0.00106
2851.02	0.00182
2862.59	0.00328
2874.17	0.00441
2885.74	0.00407
2897.31	0.00382
2908.89	0.00458
2920.46	0.00589
2932.04	0.0079
2943.61	0.00732
2955.18	0.00461
2966.76	0.00391
2978.33	0.00402
2989.91	0.00376
3001.48	0.00367
3013.05	0.00409
3024.63	0.00394
3036.2	0.00335
3047.78	0.00256
3059.35	0.00178
3070.92	0.00122
3082.5	0.000762
3094.07	0.0006478
3105.65	0.0004782
3117.22	0.0004048
3128.79	0.0003832
3140.37	0.0003967
3151.94	0.0002815
3163.52	0.0002134
3175.09	0.0002306
3186.66	0.0001929
3198.24	0.0001972
3209.81	0.000168
3221.39	0.000198
3232.96	0.0001969
3244.53	0.0002196
3256.11	0.0001739
3267.68	0.0002045
3279.26	0.0002231
3290.83	0.0002559
3302.4	0.0002544
3313.98	0.0003351
3325.55	0.000309
3337.13	0.0003544
3348.7	0.0003216
3360.27	0.0003417
3371.85	0.0003932
3383.42	0.0004448
3395	0.000454
3406.57	0.000485
3418.14	0.000487
3429.72	0.0005383
3441.29	0.0005647
3452.86	0.0006083
3464.44	0.0005009
3476.01	0.0004956
3487.59	0.0004063
3499.16	0.0004122
3510.73	0.0003474
3522.31	0.0003551
3533.88	0.0003269
3545.46	0.0003385
3557.03	0.0003467
3568.6	0.0003541
3580.18	0.0004057
3591.75	0.0005266
3603.33	0.0006524
3614.9	0.00104
3626.47	0.00211
3638.05	0.00595
3649.62	0.0154
3661.2	0.01472
3672.77	0.0048
3684.34	0.00117
3695.92	0.0005988
3707.49	0.0004694
3719.07	0.0004022
3730.64	0.0004332
3742.21	0.0004428
3753.79	0.0004075
3765.36	0.0004695
3776.94	0.0005169
3788.51	0.0003461
3800.08	0.0004238
3811.66	0.0004483
3823.23	0.0004793
3834.81	0.0005715
3846.38	0.0005505
3857.95	0.0006185
3869.53	0.0004583
3881.1	0.0005162
3892.68	0.0005443
3904.25	0.0004904
3915.82	0.0005139
3927.4	0.000454
3938.97	0.0004458
3950.55	0.0003367
3962.12	0.0003763
3973.69	0.0003456
3985.27	0.0003177
3996.84	0.0003634
