Infrared Spectrum: Ethyl 2-Nonynoate
Formula: C 11 H 18 O 2
CAS: 1322-12-9
State: gas
Origin: EPA-IR VAPOR PHASE LIBRARY
1/CM	ABSORBANCE
549.9	0.00355
559.547	0.00392
569.193	0.00369
578.84	0.00343
588.486	0.0032027
598.133	0.0027863
607.779	0.002083
617.426	0.00185
627.072	0.001619
636.719	0.00158
646.365	0.001694
656.012	0.0017
665.658	0.001843
675.305	0.001987
684.951	0.0021133
694.598	0.0023535
704.245	0.0029818
713.891	0.00424
723.538	0.00605
733.184	0.00831
742.831	0.01204
752.477	0.01586
762.124	0.01518
771.77	0.01112
781.417	0.00795
791.063	0.00652
800.71	0.00597
810.356	0.00584
820.003	0.00559
829.649	0.00539
839.296	0.00549
848.943	0.00603
858.589	0.00677
868.236	0.00598
877.882	0.00425
887.529	0.00323
897.175	0.0028378
906.822	0.0027754
916.468	0.0027572
926.115	0.0028136
935.761	0.0029204
945.408	0.0031834
955.054	0.00342
964.701	0.00367
974.347	0.004
983.994	0.00479
993.64	0.00592
1003.29	0.00774
1012.93	0.00915
1022.58	0.0108
1032.23	0.01524
1041.87	0.02409
1051.52	0.04018
1061.17	0.07815
1070.81	0.11196
1080.46	0.09552
1090.11	0.06502
1099.75	0.05065
1109.4	0.02949
1119.05	0.01711
1128.69	0.01208
1138.34	0.01072
1147.99	0.01129
1157.63	0.01257
1167.28	0.01465
1176.92	0.0171
1186.57	0.02101
1196.22	0.02758
1205.86	0.04373
1215.51	0.08046
1225.16	0.16239
1234.8	0.3557
1244.45	0.51646
1254.1	0.29716
1263.74	0.11554
1273.39	0.05932
1283.04	0.03884
1292.68	0.03066
1302.33	0.0296
1311.98	0.02796
1321.62	0.02629
1331.27	0.02321
1340.92	0.01619
1350.56	0.01549
1360.21	0.02062
1369.86	0.02984
1379.5	0.01654
1389.15	0.01372
1398.79	0.01216
1408.44	0.01088
1418.09	0.01079
1427.73	0.01363
1437.38	0.01717
1447.03	0.01856
1456.67	0.02215
1466.32	0.02508
1475.97	0.02048
1485.61	0.01233
1495.26	0.00881
1504.91	0.00687
1514.55	0.00531
1524.2	0.00412
1533.85	0.00343
1543.49	0.0030201
1553.14	0.002906
1562.79	0.0027395
1572.43	0.0025945
1582.08	0.002668
1591.73	0.0027055
1601.37	0.0028412
1611.02	0.0031191
1620.67	0.00348
1630.31	0.00398
1639.96	0.00432
1649.6	0.0047
1659.25	0.0054
1668.9	0.00681
1678.54	0.00948
1688.19	0.01447
1697.84	0.02337
1707.48	0.04453
1717.13	0.09369
1726.78	0.17644
1736.42	0.21463
1746.07	0.12149
1755.72	0.05511
1765.36	0.02185
1775.01	0.01103
1784.66	0.00705
1794.3	0.00498
1803.95	0.00389
1813.6	0.0031559
1823.24	0.002628
1832.89	0.0023328
1842.54	0.002089
1852.18	0.002034
1861.83	0.001974
1871.47	0.001951
1881.12	0.001918
1890.77	0.001924
1900.41	0.002038
1910.06	0.00222129
1919.71	0.0024118
1929.35	0.0025422
1939	0.0024661
1948.65	0.0021601
1958.29	0.001824
1967.94	0.001643
1977.59	0.001542
1987.23	0.001516
1996.88	0.001631
2006.53	0.001734
2016.17	0.001821
2025.82	0.001945
2035.47	0.001929
2045.11	0.001984
2054.76	0.0021318
2064.41	0.00229229
2074.05	0.0024102
2083.7	0.0025374
2093.35	0.0025853
2102.99	0.0025032
2112.64	0.0024212
2122.28	0.0023742
2131.93	0.0024652
2141.58	0.0024818
2151.22	0.0027386
2160.87	0.00326
2170.52	0.00428
2180.16	0.00633
2189.81	0.00964
2199.46	0.01523
2209.1	0.0271
2218.75	0.05027
2228.4	0.07309
2238.04	0.06416
2247.69	0.03711
2257.34	0.02082
2266.98	0.01258
2276.63	0.00913
2286.28	0.008
2295.92	0.00801
2305.57	0.00825
2315.22	0.00733
2324.86	0.00558
2334.51	0.00397
2344.16	0.0030759
2353.8	0.0025932
2363.45	0.0023638
2373.09	0.00226512
2382.74	0.0021461
2392.39	0.002077
2402.03	0.002013
2411.68	0.001907
2421.33	0.001906
2430.97	0.0018
2440.62	0.001822
2450.27	0.001816
2459.91	0.001866
2469.56	0.001947
2479.21	0.00199
2488.85	0.001768
2498.5	0.00155
2508.15	0.001382
2517.79	0.001283
2527.44	0.00123
2537.09	0.001285
2546.73	0.001295
2556.38	0.001314
2566.03	0.001323
2575.67	0.001336
2585.32	0.001367
2594.96	0.001368
2604.61	0.001395
2614.26	0.001532
2623.9	0.001633
2633.55	0.001686
2643.2	0.001742
2652.84	0.001823
2662.49	0.001902
2672.14	0.00198
2681.78	0.002037
2691.43	0.001993
2701.08	0.00196
2710.72	0.001902
2720.37	0.002009
2730.02	0.0021882
2739.66	0.0023752
2749.31	0.0025138
2758.96	0.0025914
2768.6	0.0027421
2778.25	0.0030372
2787.9	0.00356
2797.54	0.0041
2807.19	0.00501
2816.84	0.00623
2826.48	0.00809
2836.13	0.01133
2845.77	0.01727
2855.42	0.02868
2865.07	0.04488
2874.71	0.05005
2884.36	0.04552
2894.01	0.03972
2903.65	0.04546
2913.3	0.06283
2922.95	0.08583
2932.59	0.12198
2942.24	0.14835
2951.89	0.11882
2961.53	0.09335
2971.18	0.08935
2980.83	0.06899
2990.47	0.05431
3000.12	0.03374
3009.77	0.02296
3019.41	0.01472
3029.06	0.00954
3038.71	0.00659
3048.35	0.00508
3058	0.00404
3067.64	0.00345
3077.29	0.0029952
3086.94	0.0026486
3096.58	0.0024257
3106.23	0.002076
3115.88	0.001737
3125.52	0.001473
3135.17	0.001219
3144.82	0.00113
3154.46	0.00117
3164.11	0.00103
3173.76	0.00084
3183.4	0.00077
3193.05	0.00073
3202.7	0.00073
3212.34	0.00039
3221.99	0.00032
3231.64	0.00038
3241.28	0.00025
3250.93	0.00014
3260.58	0.00017
3270.22	0.0003
3279.87	0.00019
3289.52	0.00036
3299.16	0.00032
3308.81	0.00046
3318.45	0.00035
3328.1	0.00037
3337.75	0.00052
3347.39	0.00029
3357.04	0.00044
3366.69	0.00059
3376.33	0.0006
3385.98	0.00062
3395.63	0.00064
3405.27	0.00091
3414.92	0.00101
3424.57	0.001418
3434.21	0.0021918
3443.86	0.0028552
3453.51	0.0027157
3463.15	0.001921
3472.8	0.001377
3482.45	0.00099
3492.09	0.00081
3501.74	0.00072
3511.39	0.0007
3521.03	0.0006
3530.68	0.00056
3540.33	0.00062
3549.97	0.0006
3559.62	0.00071
3569.26	0.00067
3578.91	0.00056
3588.56	0.00071
3598.2	0.00072
3607.85	0.00076
3617.5	0.0006
3627.14	0.00084
3636.79	0.00073
3646.44	0.00082
3656.08	0.00082
3665.73	0.00083
3675.38	0.00085
3685.02	0.00086
3694.67	0.00088
3704.32	0.00091
3713.96	0.00083
3723.61	0.00096
3733.26	0.00102
3742.9	0.00104
3752.55	0.00095
3762.2	0.0011
3771.84	0.00101
3781.49	0.00101
3791.13	0.00108
3800.78	0.00091
3810.43	0.00101
3820.07	0.00098
3829.72	0.0011
3839.37	0.00105
3849.01	0.00103
3858.66	0.00104
3868.31	0.00104
3877.95	0.00097
3887.6	0.00103
3897.25	0.00109
3906.89	0.0011
3916.54	0.00101
3926.19	0.00109
3935.83	0.00113
3945.48	0.00096
3955.13	0.00119
3964.77	0.001295
3974.42	0.001346
3984.07	0.001386
3993.71	0.001337
