Infrared Spectrum: 2,2'-Methylenebis(4-chlorophenol)
Formula: C 13 H 10 Cl 2 O 2
CAS: 1322-43-6
State: gas
Origin: EPA-IR VAPOR PHASE LIBRARY
1/CM	ABSORBANCE
549.8	0.00809
559.445	0.0058
569.09	0.00535
578.734	0.00653
588.379	0.00651
598.024	0.00367
607.669	0.00345
617.313	0.00366
626.958	0.00458
636.603	0.00522
646.248	0.01648
655.893	0.03097
665.537	0.00869
675.182	0.00315
684.827	0.00233
694.472	0.00268
704.116	0.00268
713.761	0.00361
723.406	0.00563
733.051	0.00302
742.695	0.00274
752.34	0.00299
761.985	0.0041
771.63	0.00591
781.275	0.00666
790.919	0.01204
800.564	0.02211
810.209	0.02383
819.854	0.02135
829.498	0.00905
839.143	0.00454
848.788	0.00501
858.433	0.00739
868.078	0.01271
877.722	0.01281
887.367	0.01078
897.012	0.01048
906.657	0.01178
916.301	0.00972
925.946	0.00872
935.591	0.00674
945.236	0.00611
954.88	0.00402
964.525	0.00253
974.17	0.0021
983.815	0.00213
993.46	0.00199
1003.1	0.00202
1012.75	0.00228
1022.39	0.00252
1032.04	0.00298
1041.68	0.00347
1051.33	0.00471
1060.97	0.00575
1070.62	0.00723
1080.26	0.01024
1089.91	0.01704
1099.55	0.03008
1109.2	0.04496
1118.84	0.03116
1128.49	0.0128
1138.13	0.01097
1147.78	0.01859
1157.42	0.0398
1167.07	0.03549
1176.71	0.02618
1186.36	0.02959
1196	0.03504
1205.64	0.04411
1215.29	0.03658
1224.93	0.02325
1234.58	0.02226
1244.22	0.02852
1253.87	0.03915
1263.51	0.04204
1273.16	0.02631
1282.8	0.01474
1292.45	0.01321
1302.09	0.02157
1311.74	0.02637
1321.38	0.01571
1331.03	0.00996
1340.67	0.00741
1350.32	0.00531
1359.96	0.00439
1369.61	0.00391
1379.25	0.00391
1388.9	0.00532
1398.54	0.01198
1408.18	0.02553
1417.83	0.02123
1427.47	0.01099
1437.12	0.0113
1446.76	0.01393
1456.41	0.01564
1466.05	0.02295
1475.7	0.04807
1485.34	0.09149
1494.99	0.0836
1504.63	0.02913
1514.28	0.00957
1523.92	0.00562
1533.57	0.00404
1543.21	0.00317
1552.86	0.00282
1562.5	0.0032
1572.15	0.00396
1581.79	0.00493
1591.44	0.00495
1601.08	0.00528
1610.73	0.00387
1620.37	0.00253
1630.01	0.00217
1639.66	0.0021
1649.3	0.00161
1658.95	0.0014668
1668.59	0.00147
1678.24	0.0014541
1687.88	0.001486
1697.53	0.00166
1707.17	0.00167
1716.82	0.00188
1726.46	0.00213
1736.11	0.00246
1745.75	0.00243
1755.4	0.00238
1765.04	0.00216
1774.69	0.00194
1784.33	0.001503
1793.98	0.0013358
1803.62	0.0015973
1813.27	0.0015159
1822.91	0.0015468
1832.55	0.00184
1842.2	0.00208
1851.84	0.00186
1861.49	0.00187
1871.13	0.00223
1880.78	0.00187
1890.42	0.0011729
1900.07	0.0010225
1909.71	0.0009575
1919.36	0.0009462
1929	0.0007927
1938.65	0.0008204
1948.29	0.000844
1957.94	0.0007772
1967.58	0.0008586
1977.23	0.0008495
1986.87	0.0009302
1996.52	0.0007734
2006.16	0.0008857
2015.81	0.0008851
2025.45	0.0009175
2035.1	0.0008922
2044.74	0.0009006
2054.38	0.0008313
2064.03	0.0007534
2073.67	0.0007222
2083.32	0.0007806
2092.96	0.0007098
2102.61	0.00061437
2112.25	0.00059679
2121.9	0.00068704
2131.54	0.00063206
2141.19	0.00064316
2150.83	0.00066408
2160.48	0.00065566
2170.12	0.0005632
2179.77	0.0005244
2189.41	0.000603407
2199.06	0.000549
2208.7	0.00063136
2218.35	0.00064066
2227.99	0.00065192
2237.64	0.0007375
2247.28	0.0008121
2256.92	0.0008545
2266.57	0.0009041
2276.21	0.0008226
2285.86	0.0006126
2295.5	0.0007342
2305.15	0.0008043
2314.79	0.0008258
2324.44	0.0008552
2334.08	0.0009589
2343.73	0.0009258
2353.37	0.0011478
2363.02	0.0010605
2372.66	0.0009191
2382.31	0.0009344
2391.95	0.0010572
2401.6	0.0010535
2411.24	0.0011415
2420.89	0.0010678
2430.53	0.0009397
2440.18	0.0008339
2449.82	0.000903
2459.47	0.0010573
2469.11	0.0011548
2478.75	0.0010759
2488.4	0.0011447
2498.04	0.0011633
2507.69	0.0011759
2517.33	0.0012823
2526.98	0.0009964
2536.62	0.0009089
2546.27	0.0007385
2555.91	0.00065061
2565.56	0.00069585
2575.2	0.0007332
2584.85	0.0005682
2594.49	0.0005141
2604.14	0.00069089
2613.78	0.0007455
2623.43	0.00068005
2633.07	0.000771
2642.72	0.000772
2652.36	0.00064793
2662.01	0.0005828
2671.65	0.00067332
2681.29	0.00063574
2690.94	0.0007337
2700.58	0.000472
2710.23	0.000454
2719.87	0.00064017
2729.52	0.0005546
2739.16	0.00069458
2748.81	0.000711
2758.45	0.0005459
2768.1	0.0005772
2777.74	0.0005377
2787.39	0.00067838
2797.03	0.0005859
2806.68	0.0007145
2816.32	0.0005659
2825.97	0.0009064
2835.61	0.0007325
2845.26	0.0011823
2854.9	0.0014377
2864.55	0.0015848
2874.19	0.00165
2883.84	0.00175
2893.48	0.00185
2903.12	0.002
2912.77	0.00266
2922.41	0.00314
2932.06	0.00325
2941.7	0.00306
2951.35	0.00294
2960.99	0.00245
2970.64	0.00195
2980.28	0.001417
2989.93	0.000969
2999.57	0.0011233
3009.22	0.0013466
3018.86	0.00248
3028.51	0.00427
3038.15	0.00379
3047.8	0.00241
3057.44	0.00233
3067.09	0.00248
3076.73	0.00265
3086.38	0.00238
3096.02	0.00194
3105.67	0.0014709
3115.31	0.0008402
3124.95	0.00066563
3134.6	0.000394
3144.24	0.000161
3153.89	0.00066827
3163.53	0.0005317
3173.18	0.00063096
3182.82	0.0005035
3192.47	0.000464
3202.11	0.0005267
3211.76	0.000479
3221.4	0.000466
3231.05	0.00060078
3240.69	0.0005397
3250.34	0.0005129
3259.98	0.000394
3269.63	0.000449
3279.27	0.0005269
3288.92	0.000389
3298.56	0.00066414
3308.21	0.00069883
3317.85	0.0007835
3327.49	0.0007192
3337.14	0.0008262
3346.78	0.0008383
3356.43	0.0011606
3366.07	0.0009148
3375.72	0.0011841
3385.36	0.001062
3395.01	0.0010794
3404.65	0.001121
3414.3	0.0012364
3423.94	0.0011104
3433.59	0.0014891
3443.23	0.00137
3452.88	0.0014161
3462.52	0.0018
3472.17	0.002
3481.81	0.00241
3491.46	0.00311
3501.1	0.00427
3510.75	0.00549
3520.39	0.00775
3530.04	0.01004
3539.68	0.0122
3549.32	0.01256
3558.97	0.01247
3568.61	0.01448
3578.26	0.01816
3587.9	0.01745
3597.55	0.01517
3607.19	0.01362
3616.84	0.01108
3626.48	0.0089
3636.13	0.01348
3645.77	0.03224
3655.42	0.03111
3665.06	0.00724
3674.71	0.00206
3684.35	0.0013063
3694	0.0007765
3703.64	0.0008653
3713.29	0.000487
3722.93	0.0005746
3732.58	0.00064636
3742.22	0.000268
3751.86	0.000275
3761.51	0.000323
3771.15	0.000278
3780.8	0.0005759
3790.44	0.000481
3800.09	0.000151
3809.73	0.000329
3819.38	0.000163
3829.02	0.00044
3838.67	0.000368
3848.31	0
3857.96	0.000386
3867.6	0.000445
3877.25	0.000238
3886.89	0.0007765
3896.54	0.000432
3906.18	0.0005622
3915.83	0.00034
3925.47	0.000222
3935.12	0.00067153
3944.76	0.00021
3954.41	0.000439
3964.05	0.000399
3973.69	0.000285
3983.34	0.00027
3992.98	0.00025
