Infrared Spectrum: PYRAZINE, 2,5-DIETHYL-
Formula: C8 H12 N2
CAS: 13238-84-1
State: LIQUID (NEAT)
Boiling point: 188-189 C
Class: COBLENTZ III
Instrument: BAIRD (GRATING)
Instrument parameters: NaCl PRISM
Sampling: TRANSMISSION
Path length: 0.003 CM
Resolution: 2
Origin: WYANDOTTE CHEMICALS CORP.
1/CM	TRANSMITTANCE
4000	0.922
3991	0.9233
3982	0.9247
3973	0.9261
3964	0.928
3955	0.9305
3946	0.9356
3937	0.9392
3928	0.9394
3919	0.9398
3910	0.9401
3901	0.9404
3892	0.9409
3883	0.9418
3874	0.943
3865	0.9441
3856	0.9452
3847	0.9462
3838	0.947
3829	0.9478
3820	0.9488
3811	0.9494
3802	0.9501
3793	0.9507
3784	0.951
3775	0.9513
3766	0.9516
3757	0.9518
3748	0.9521
3739	0.9525
3730	0.9527
3721	0.9525
3712	0.9523
3703	0.9521
3694	0.9518
3685	0.9516
3676	0.9513
3667	0.9508
3658	0.9503
3649	0.9498
3640	0.9491
3631	0.9484
3622	0.9477
3613	0.9468
3604	0.9457
3595	0.9446
3586	0.9435
3577	0.9423
3568	0.9412
3559	0.9399
3550	0.9378
3541	0.9358
3532	0.9339
3523	0.9318
3514	0.9297
3505	0.9275
3496	0.9254
3487	0.9231
3478	0.9206
3469	0.9181
3460	0.9156
3451	0.9131
3442	0.9105
3433	0.9078
3424	0.9054
3415	0.9028
3406	0.9
3397	0.897
3388	0.8941
3379	0.8912
3370	0.8883
3361	0.8853
3352	0.8823
3343	0.8793
3334	0.8763
3325	0.8732
3316	0.8703
3307	0.8671
3298	0.8641
3289	0.8611
3280	0.8582
3271	0.8552
3262	0.8521
3253	0.8492
3244	0.8462
3235	0.843
3226	0.8397
3217	0.8365
3208	0.8331
3199	0.8298
3190	0.8264
3181	0.823
3172	0.8195
3163	0.816
3154	0.8125
3145	0.8093
3136	0.8061
3127	0.8026
3118	0.7978
3109	0.7758
3100	0.7461
3091	0.7165
3082	0.6865
3073	0.6562
3064	0.6376
3055	0.6296
3046	0.6184
3037	0.5962
3028	0.5454
3019	0.4683
3010	0.3907
3001	0.3126
2992	0.2341
2983	0.1551
2974	0.0915
2965	0.0828
2956	0.0794
2947	0.0789
2938	0.0798
2929	0.0835
2920	0.0947
2911	0.1237
2902	0.1526
2893	0.1818
2884	0.1932
2875	0.1949
2866	0.1984
2857	0.2082
2848	0.2787
2839	0.362
2830	0.4457
2821	0.5301
2812	0.6044
2803	0.6776
2794	0.7084
2785	0.7365
2776	0.76
2767	0.7764
2758	0.7889
2749	0.7997
2740	0.8075
2731	0.8108
2722	0.8115
2713	0.8125
2704	0.8154
2695	0.8239
2686	0.8339
2677	0.8437
2668	0.8518
2659	0.8585
2650	0.8612
2641	0.8625
2632	0.8638
2623	0.8648
2614	0.8666
2605	0.8687
2596	0.8708
2587	0.8737
2578	0.8778
2569	0.8818
2560	0.8857
2551	0.8882
2542	0.889
2533	0.8899
2524	0.8908
2515	0.8914
2506	0.8916
2497	0.8918
2488	0.8921
2479	0.8921
2470	0.892
2461	0.8918
2452	0.8915
2443	0.891
2434	0.8904
2425	0.89
2416	0.8896
2407	0.8902
2398	0.8907
2389	0.8925
2380	0.895
2371	0.8975
2362	0.9005
2353	0.9035
2344	0.9064
2335	0.9091
2326	0.9115
2317	0.9137
2308	0.9152
2299	0.9163
2290	0.9171
2281	0.9178
2272	0.9177
2263	0.9157
2254	0.9154
2245	0.915
2236	0.9141
2227	0.9125
2218	0.9105
2209	0.9081
2200	0.9071
2191	0.9063
2182	0.9065
2173	0.907
2164	0.9087
2155	0.9104
2146	0.9121
2137	0.9138
2128	0.9155
2119	0.9173
2110	0.9186
2101	0.9197
2092	0.9208
2083	0.9215
2074	0.9218
2065	0.9221
2056	0.9225
2047	0.9225
2038	0.9225
2029	0.9227
2020	0.9225
2011	0.922
2002	0.9213
1993	0.9191
1984	0.9168
1975	0.9149
1966	0.9128
1957	0.9118
1948	0.9115
1939	0.9123
1930	0.9125
1921	0.9084
1912	0.9081
1903	0.9101
1894	0.9103
1885	0.9093
1876	0.9066
1867	0.9053
1858	0.9017
1849	0.8921
1840	0.8697
1831	0.8445
1822	0.834
1813	0.8528
1804	0.8728
1795	0.8894
1786	0.9009
1777	0.9054
1768	0.906
1759	0.903
1750	0.8941
1741	0.8833
1732	0.8734
1723	0.865
1714	0.8575
1705	0.8474
1696	0.8261
1687	0.8008
1678	0.7965
1669	0.8008
1660	0.8022
1651	0.8018
1642	0.8021
1633	0.8021
1624	0.8034
1615	0.8043
1606	0.7925
1597	0.7778
1588	0.7737
1579	0.7757
1570	0.7634
1561	0.7349
1552	0.6567
1543	0.5908
1534	0.6353
1525	0.6143
1516	0.4318
1507	0.2451
1498	0.0561
1489	0.0988
1480	0.1882
1471	0.1088
1462	0.118
1453	0.2045
1444	0.2547
1435	0.363
1426	0.421
1417	0.4812
1408	0.4976
1399	0.3334
1390	0.3121
1381	0.1979
1372	0.1298
1363	0.2715
1354	0.3932
1345	0.494
1336	0.4891
1327	0.4062
1318	0.3259
1309	0.4057
1300	0.4864
1291	0.5683
1282	0.6294
1273	0.6153
1264	0.6239
1255	0.4523
1246	0.3056
1237	0.5444
1228	0.6175
1219	0.6604
1210	0.6875
1201	0.7021
1192	0.6898
1183	0.558
1174	0.3518
1165	0.1335
1156	0.1332
1147	0.4316
1138	0.5849
1129	0.6568
1120	0.6686
1111	0.6703
1102	0.6725
1093	0.6735
1084	0.6262
1075	0.4041
1066	0.2535
1057	0.4054
1048	0.2445
1039	0.0589
1030	0.0895
1021	0.4598
1012	0.5492
1003	0.6294
994	0.6214
985	0.4997
976	0.4128
967	0.5206
958	0.6724
949	0.7383
940	0.7503
931	0.7278
922	0.7369
913	0.6194
904	0.2931
895	0.4651
886	0.7078
877	0.7346
868	0.8197
859	0.8445
850	0.8488
841	0.8313
832	0.8425
823	0.8415
814	0.8247
805	0.7728
796	0.7493
787	0.7087
778	0.7215
769	0.7554
760	0.7821
751	0.8028
742	0.7995
733	0.8244
724	0.8483
715	0.8475
706	0.8421
697	0.8307
688	0.8441
679	0.8453
670	0.8338
661	0.8075
652	0.8042
643	0.7853
634	0.7674
