Infrared Spectrum: Glyceryl monoricinoleate
Formula: C21 H40 O5
CAS: 1323-38-2
State: LIQUID (NEAT)
Class: COBLENTZ III
Instrument: DOW KBr FOREPRISM-GRATING
Instrument parameters: BLAZED AT 3.5, 12.0, 20.0 MICRON AND CHANGED AT 5.0, 7.5, 14.9 MICRON
Sampling: TRANSMISSION
Path length: CAPILLARY
Resolution: 2
Origin: DOW CHEMICAL COMPANY
1/CM	TRANSMITTANCE
394	0.741
403	0.7408
412	0.7395
421	0.7392
430	0.7395
439	0.7388
448	0.7368
457	0.7343
466	0.7304
475	0.7292
484	0.7292
493	0.7286
502	0.7272
511	0.7254
520	0.7247
529	0.724
538	0.7233
547	0.7235
556	0.724
565	0.7245
574	0.7251
583	0.7262
592	0.7285
601	0.7321
610	0.7353
619	0.74
628	0.7462
637	0.7482
646	0.7465
655	0.7436
664	0.7295
673	0.7146
682	0.7091
691	0.7055
700	0.7033
709	0.6951
718	0.6644
727	0.6789
736	0.7183
745	0.7412
754	0.7647
763	0.7858
772	0.8119
781	0.8134
790	0.8181
799	0.8258
808	0.8318
817	0.83
826	0.8171
835	0.7968
844	0.7708
853	0.7485
862	0.7561
871	0.7771
880	0.8036
889	0.8104
898	0.7962
907	0.779
916	0.7661
925	0.7601
934	0.7647
943	0.7725
952	0.7724
961	0.7508
970	0.7204
979	0.6905
988	0.6661
997	0.6487
1006	0.6304
1015	0.591
1024	0.5212
1033	0.4487
1042	0.4293
1051	0.4438
1060	0.4812
1069	0.5284
1078	0.551
1087	0.5562
1096	0.5427
1105	0.5153
1114	0.493
1123	0.548
1132	0.6235
1141	0.6286
1150	0.6003
1159	0.5442
1168	0.501
1177	0.4833
1186	0.4994
1195	0.5265
1204	0.5536
1213	0.5602
1222	0.557
1231	0.5464
1240	0.5295
1249	0.5391
1258	0.5519
1267	0.5587
1276	0.5642
1285	0.588
1294	0.5946
1303	0.5932
1312	0.5909
1321	0.5922
1330	0.6032
1339	0.5929
1348	0.583
1357	0.5785
1366	0.5705
1375	0.555
1384	0.5572
1393	0.5533
1402	0.5451
1411	0.5487
1420	0.5656
1429	0.5733
1438	0.5519
1447	0.5412
1456	0.4821
1465	0.4793
1474	0.6354
1483	0.7765
1492	0.8036
1501	0.7993
1510	0.7996
1519	0.8034
1528	0.7928
1537	0.7649
1546	0.7337
1555	0.7015
1564	0.6965
1573	0.7222
1582	0.7648
1591	0.8184
1600	0.8324
1609	0.8343
1618	0.8317
1627	0.8259
1636	0.8176
1645	0.8058
1654	0.8083
1663	0.8083
1672	0.7961
1681	0.7647
1690	0.7142
1699	0.5956
1708	0.4562
1717	0.398
1726	0.3853
1735	0.3616
1744	0.5659
1753	0.7964
1762	0.8557
1771	0.8746
1780	0.8847
1789	0.8905
1798	0.8948
1807	0.8978
1816	0.9003
1825	0.9017
1834	0.9025
1843	0.9033
1852	0.9038
1861	0.9036
1870	0.9011
1879	0.8996
1888	0.9049
1897	0.9109
1906	0.9057
1915	0.9071
1924	0.9056
1933	0.9015
1942	0.9061
1951	0.8867
1960	0.9125
1969	0.915
1978	0.9118
1987	0.9114
1996	0.9161
2005	0.9283
2014	0.9087
2023	0.9057
2032	0.9042
2041	0.9094
2050	0.9112
2059	0.9123
2068	0.9124
2077	0.9123
2086	0.9121
2095	0.9121
2104	0.9117
2113	0.9114
2122	0.9112
2131	0.911
2140	0.9108
2149	0.9104
2158	0.9101
2167	0.9128
2176	0.9141
2185	0.9108
2194	0.9093
2203	0.9084
2212	0.9075
2221	0.9061
2230	0.9047
2239	0.9033
2248	0.9018
2257	0.9003
2266	0.8987
2275	0.8968
2284	0.8947
2293	0.8923
2302	0.8904
2311	0.89
2320	0.8907
2329	0.8917
2338	0.8918
2347	0.8915
2356	0.8912
2365	0.8908
2374	0.8902
2383	0.8893
2392	0.8882
2401	0.8868
2410	0.8857
2419	0.8837
2428	0.8817
2437	0.8795
2446	0.8774
2455	0.8753
2464	0.8732
2473	0.8712
2482	0.8692
2491	0.8668
2500	0.8645
2509	0.8621
2518	0.8599
2527	0.8575
2536	0.8554
2545	0.8518
2554	0.8478
2563	0.8437
2572	0.8397
2581	0.8351
2590	0.8305
2599	0.8259
2608	0.8214
2617	0.8169
2626	0.8125
2635	0.8085
2644	0.8047
2653	0.8017
2662	0.7995
2671	0.7985
2680	0.7981
2689	0.7967
2698	0.7933
2707	0.7872
2716	0.7825
2725	0.7811
2734	0.7806
2743	0.7791
2752	0.7745
2761	0.7658
2770	0.7556
2779	0.7414
2788	0.7267
2797	0.708
2806	0.6825
2815	0.6507
2824	0.608
2833	0.541
2842	0.4448
2851	0.1985
2860	0.2593
2869	0.3632
2878	0.38
2887	0.3432
2896	0.2772
2905	0.2112
2914	0.1452
2923	0.0919
2932	0.1041
2941	0.2018
2950	0.2359
2959	0.3288
2968	0.4924
2977	0.6306
2986	0.6326
2995	0.6196
3004	0.6039
3013	0.6592
3022	0.7206
3031	0.7291
3040	0.7278
3049	0.7239
3058	0.716
3067	0.7062
3076	0.6965
3085	0.6869
3094	0.6772
3103	0.666
3112	0.6544
3121	0.6421
3130	0.6259
3139	0.6095
3148	0.5947
3157	0.5806
3166	0.567
3175	0.5527
3184	0.5385
3193	0.521
3202	0.5036
3211	0.4864
3220	0.4688
3229	0.4507
3238	0.4357
3247	0.4209
3256	0.4086
3265	0.3962
3274	0.3848
3283	0.3745
3292	0.3639
3301	0.3525
3310	0.3432
3319	0.3362
3328	0.3296
3337	0.3248
3346	0.3226
3355	0.3223
3364	0.3234
3373	0.3254
3382	0.328
3391	0.3324
3400	0.3375
3409	0.3443
3418	0.3524
3427	0.3625
3436	0.3725
3445	0.3824
3454	0.3942
3463	0.4072
3472	0.4249
3481	0.4472
3490	0.4687
3499	0.49
3508	0.5112
3517	0.5386
3526	0.5694
3535	0.6051
3544	0.6392
3553	0.6686
3562	0.6989
3571	0.7382
3580	0.7642
3589	0.7855
3598	0.8078
3607	0.8233
3616	0.8348
3625	0.8434
3634	0.8505
3643	0.8563
3652	0.8616
3661	0.8659
3670	0.8688
3679	0.8708
3688	0.8725
3697	0.8734
3706	0.8743
3715	0.8744
3724	0.8745
3733	0.8748
3742	0.8753
3751	0.8757
3760	0.8759
3769	0.8759
3778	0.8757
3787	0.8748
3796	0.874
