Infrared Spectrum: LACTIC ACID, n-TETRADECYL ESTER
Formula: C17 H34 O3
CAS: 1323-03-1
State: SOLID (MULL)
Class: COBLENTZ III
Instrument: PERKIN-ELMER 21 (GRATING)
Instrument parameters: NaCl PRISM
Sampling: TRANSMISSION
Resolution: 2
Origin: SMITH KLINE & FRENCH LABS.
1/CM	TRANSMITTANCE
4000	0.9394
3991	0.9395
3982	0.9395
3973	0.9395
3964	0.9395
3955	0.9397
3946	0.9401
3937	0.9405
3928	0.9409
3919	0.9412
3910	0.9417
3901	0.9424
3892	0.943
3883	0.9437
3874	0.9443
3865	0.945
3856	0.9457
3847	0.946
3838	0.9464
3829	0.9467
3820	0.9471
3811	0.9474
3802	0.9478
3793	0.9482
3784	0.9485
3775	0.9488
3766	0.9489
3757	0.9491
3748	0.9493
3739	0.9494
3730	0.9496
3721	0.9497
3712	0.9499
3703	0.9501
3694	0.9501
3685	0.95
3676	0.95
3667	0.95
3658	0.9498
3649	0.9496
3640	0.9495
3631	0.9493
3622	0.9492
3613	0.9488
3604	0.9481
3595	0.9473
3586	0.9466
3577	0.9453
3568	0.9439
3559	0.9421
3550	0.9387
3541	0.9343
3532	0.929
3523	0.9207
3514	0.9102
3505	0.8971
3496	0.8758
3487	0.8568
3478	0.8174
3469	0.7865
3460	0.7556
3451	0.7244
3442	0.693
3433	0.6621
3424	0.6347
3415	0.6245
3406	0.6172
3397	0.6112
3388	0.6055
3379	0.601
3370	0.5981
3361	0.5954
3352	0.5938
3343	0.5945
3334	0.5995
3325	0.6056
3316	0.612
3307	0.6191
3298	0.6268
3289	0.6359
3280	0.6456
3271	0.6557
3262	0.6657
3253	0.6758
3244	0.686
3235	0.6961
3226	0.7064
3217	0.7168
3208	0.7271
3199	0.7375
3190	0.7481
3181	0.7587
3172	0.7693
3163	0.78
3154	0.7907
3145	0.8015
3136	0.8124
3127	0.8233
3118	0.8341
3109	0.8436
3100	0.8497
3091	0.856
3082	0.8624
3073	0.8684
3064	0.8739
3055	0.8778
3046	0.8814
3037	0.8839
3028	0.8862
3019	0.8877
3010	0.8878
3001	0.8878
2992	0.887
2983	0.8861
2974	0.8837
2965	0.8806
2956	0.8738
2947	0.8636
2938	0.8284
2929	0.7986
2920	0.7264
2911	0.6386
2902	0.5503
2893	0.4615
2884	0.3721
2875	0.2821
2866	0.1915
2857	0.1075
2848	0.1045
2839	0.1067
2830	0.14
2821	0.1941
2812	0.248
2803	0.2568
2794	0.2297
2785	0.2132
2776	0.333
2767	0.4822
2758	0.6249
2749	0.6918
2740	0.7576
2731	0.7891
2722	0.8085
2713	0.8237
2704	0.837
2695	0.8503
2686	0.8612
2677	0.8683
2668	0.8732
2659	0.8762
2650	0.8783
2641	0.8805
2632	0.8825
2623	0.8843
2614	0.8858
2605	0.8874
2596	0.889
2587	0.8913
2578	0.8955
2569	0.8998
2560	0.9049
2551	0.9096
2542	0.9138
2533	0.9163
2524	0.9173
2515	0.915
2506	0.9144
2497	0.9159
2488	0.9193
2479	0.9228
2470	0.9264
2461	0.9286
2452	0.9306
2443	0.9315
2434	0.9316
2425	0.9314
2416	0.9318
2407	0.9324
2398	0.9339
2389	0.9361
2380	0.9373
2371	0.938
2362	0.9387
2353	0.939
2344	0.9398
2335	0.9412
2326	0.9428
2317	0.9448
2308	0.9471
2299	0.9493
2290	0.9501
2281	0.9471
2272	0.9444
2263	0.9421
2254	0.9401
2245	0.9385
2236	0.9381
2227	0.9392
2218	0.9414
2209	0.9437
2200	0.9462
2191	0.9478
2182	0.9478
2173	0.9466
2164	0.9451
2155	0.9433
2146	0.9428
2137	0.9433
2128	0.9437
2119	0.9441
2110	0.9447
2101	0.9453
2092	0.9454
2083	0.9454
2074	0.9453
2065	0.9452
2056	0.9439
2047	0.9424
2038	0.9408
2029	0.9394
2020	0.9381
2011	0.9368
2002	0.9364
1993	0.9357
1984	0.9351
1975	0.9345
1966	0.9338
1957	0.9331
1948	0.9328
1939	0.9328
1930	0.9324
1921	0.9315
1912	0.9311
1903	0.9311
1894	0.9311
1885	0.9313
1876	0.9311
1867	0.9298
1858	0.9282
1849	0.9264
1840	0.9243
1831	0.922
1822	0.9184
1813	0.9149
1804	0.9048
1795	0.8909
1786	0.8797
1777	0.8649
1768	0.8398
1759	0.806
1750	0.6162
1741	0.4
1732	0.2091
1723	0.1509
1714	0.238
1705	0.4233
1696	0.6883
1687	0.771
1678	0.8298
1669	0.862
1660	0.8785
1651	0.8881
1642	0.8933
1633	0.8918
1624	0.89
1615	0.8885
1606	0.8877
1597	0.8894
1588	0.8912
1579	0.893
1570	0.8971
1561	0.8978
1552	0.8941
1543	0.896
1534	0.8928
1525	0.8883
1516	0.8858
1507	0.8825
1498	0.8725
1489	0.8594
1480	0.8318
1471	0.7562
1462	0.5819
1453	0.386
1444	0.4405
1435	0.5481
1426	0.6569
1417	0.7221
1408	0.7369
1399	0.7258
1390	0.7172
1381	0.6962
1372	0.6676
1363	0.6301
1354	0.678
1345	0.699
1336	0.6997
1327	0.6911
1318	0.6798
1309	0.6658
1300	0.6226
1291	0.5962
1282	0.5551
1273	0.493
1264	0.417
1255	0.3824
1246	0.4183
1237	0.4394
1228	0.4155
1219	0.3295
1210	0.2904
1201	0.2718
1192	0.3032
1183	0.3977
1174	0.5368
1165	0.664
1156	0.6868
1147	0.5899
1138	0.345
1129	0.1748
1120	0.1657
1111	0.3309
1102	0.5177
1093	0.56
1084	0.5615
1075	0.5688
1066	0.594
1057	0.6137
1048	0.5682
1039	0.5
1030	0.566
1021	0.6878
1012	0.7176
1003	0.7464
994	0.7589
985	0.7564
976	0.7424
967	0.7051
958	0.7138
949	0.7378
940	0.7472
931	0.7431
922	0.759
913	0.7756
904	0.7953
895	0.796
886	0.798
877	0.7984
868	0.7928
859	0.7792
850	0.7851
841	0.7958
832	0.7988
823	0.7986
814	0.7968
805	0.7922
796	0.7885
787	0.7805
778	0.7539
769	0.7378
760	0.7053
751	0.6892
742	0.6969
733	0.6931
724	0.6488
715	0.6123
706	0.6676
697	0.6805
688	0.6731
679	0.6655
670	0.651
661	0.6393
