Infrared Spectrum: ETHYLENE, 2-BROMO-1,1-DIPHENYL-
Formula: C14 H11 Br
CAS: 13249-58-6
State: SOLUTION (10% CCl4 FOR 3800-1335, 10% CS2 FOR 1335-400 CM^-^1) VS SOLVENT
Class: COBLENTZ III
Instrument: DOW KBr FOREPRISM-GRATING
Instrument parameters: BLAZED AT 3.5, 12.0, 20.0 MICRON AND CHANGED AT 5.0, 7.5, 14.9 MICRON
Sampling: TRANSMISSION
Path length: 0.011 CM, 0.011 CM
Resolution: 2
Origin: DOW CHEMICAL COMPANY
1/CM	TRANSMITTANCE
384	0.9675
393	0.9671
402	0.9621
411	0.9563
420	0.9391
429	0.9251
438	0.9044
447	0.8814
456	0.8351
465	0.8892
474	0.9352
483	0.9474
492	0.9483
501	0.9465
510	0.9441
519	0.9399
528	0.9285
537	0.8844
546	0.7758
555	0.9091
564	0.9162
573	0.9106
582	0.9028
591	0.8921
600	0.852
609	0.3488
618	0.7538
627	0.8721
636	0.8168
645	0.8653
654	0.8645
663	0.8234
672	0.7815
681	0.7717
690	0.4226
699	0.0191
708	0.5151
717	0.7834
726	0.7851
735	0.6006
744	0.1906
753	0.516
762	0.3103
771	0.2601
780	0.6571
789	0.811
798	0.7886
807	0.5416
816	0.815
825	0.849
834	0.8361
843	0.833
852	0.8613
861	0.8614
870	0.8628
879	0.8687
888	0.8595
897	0.8287
906	0.7881
915	0.8112
924	0.8101
933	0.6034
942	0.8523
951	0.8511
960	0.8346
969	0.8425
978	0.8313
987	0.8418
996	0.8085
1005	0.8346
1014	0.8347
1023	0.7864
1032	0.804
1041	0.8642
1050	0.8698
1059	0.8634
1068	0.7624
1077	0.7297
1086	0.8771
1095	0.8807
1104	0.8794
1113	0.9005
1122	0.899
1131	0.8885
1140	0.8703
1149	0.8263
1158	0.8348
1167	0.8508
1176	0.8167
1185	0.839
1194	0.8413
1203	0.8241
1212	0.6931
1221	0.7118
1230	0.8285
1239	0.8352
1248	0.8346
1257	0.8271
1266	0.8104
1275	0.8232
1284	0.8178
1293	0.8025
1302	0.7931
1311	0.7881
1320	0.7001
1329	0.7228
1338	0.8142
1347	0.8233
1356	0.8214
1365	0.8189
1374	0.8118
1383	0.7699
1392	0.8291
1401	0.8467
1410	0.8535
1419	0.8574
1428	0.8516
1437	0.7968
1446	0.2214
1455	0.866
1464	0.8725
1473	0.867
1482	0.8284
1491	0.551
1500	0.8314
1509	0.8815
1518	0.8885
1527	0.8827
1536	0.8742
1545	0.8808
1554	0.8877
1563	0.8069
1572	0.7689
1581	0.7968
1590	0.6376
1599	0.7799
1608	0.8154
1617	0.8525
1626	0.8891
1635	0.8939
1644	0.8962
1653	0.8949
1662	0.8928
1671	0.8934
1680	0.8978
1689	0.9034
1698	0.902
1707	0.8993
1716	0.9025
1725	0.9032
1734	0.897
1743	0.8921
1752	0.8897
1761	0.9
1770	0.897
1779	0.9121
1788	0.9082
1797	0.877
1806	0.8785
1815	0.9009
1824	0.9118
1833	0.9196
1842	0.9197
1851	0.9175
1860	0.9074
1869	0.889
1878	0.8742
1887	0.8803
1896	0.8837
1905	0.9051
1914	0.9085
1923	0.9162
1932	0.9073
1941	0.8745
1950	0.8256
1959	0.8745
1968	0.8889
1977	0.9181
1986	0.9208
1995	0.9265
2004	0.8754
2013	0.8575
2022	0.8549
2031	0.8585
2040	0.8631
2049	0.8641
2058	0.8643
2067	0.8641
2076	0.8638
2085	0.8639
2094	0.8641
2103	0.8643
2112	0.8646
2121	0.8648
2130	0.8649
2139	0.865
2148	0.865
2157	0.8651
2166	0.8651
2175	0.865
2184	0.865
2193	0.865
2202	0.8651
2211	0.8652
2220	0.8652
2229	0.8651
2238	0.865
2247	0.8631
2256	0.8631
2265	0.8692
2274	0.8693
2283	0.8695
2292	0.8702
2301	0.871
2310	0.872
2319	0.8788
2328	0.8791
2337	0.8759
2346	0.8877
2355	0.8928
2364	0.886
2373	0.8758
2382	0.8684
2391	0.8668
2400	0.867
2409	0.8673
2418	0.8677
2427	0.8677
2436	0.8673
2445	0.867
2454	0.8668
2463	0.8668
2472	0.8664
2481	0.8658
2490	0.8654
2499	0.865
2508	0.8647
2517	0.8644
2526	0.8641
2535	0.8635
2544	0.8631
2553	0.8627
2562	0.8624
2571	0.862
2580	0.8618
2589	0.8623
2598	0.8625
2607	0.8628
2616	0.8637
2625	0.865
2634	0.866
2643	0.8661
2652	0.8659
2661	0.8658
2670	0.866
2679	0.8661
2688	0.8663
2697	0.8664
2706	0.8665
2715	0.8666
2724	0.8666
2733	0.8667
2742	0.8668
2751	0.8668
2760	0.8667
2769	0.8666
2778	0.8665
2787	0.8664
2796	0.866
2805	0.8654
2814	0.8649
2823	0.8636
2832	0.8623
2841	0.8606
2850	0.8591
2859	0.8588
2868	0.8582
2877	0.8571
2886	0.8561
2895	0.8543
2904	0.852
2913	0.8458
2922	0.8482
2931	0.8578
2940	0.8596
2949	0.8581
2958	0.856
2967	0.8535
2976	0.8505
2985	0.846
2994	0.8391
3003	0.819
3012	0.7856
3021	0.6425
3030	0.6266
3039	0.7001
3048	0.6562
3057	0.5512
3066	0.564
3075	0.5662
3084	0.5958
3093	0.7658
3102	0.7732
3111	0.8457
3120	0.8613
3129	0.8641
3138	0.8657
3147	0.8675
3156	0.8698
3165	0.8718
3174	0.8731
3183	0.8742
3192	0.8751
3201	0.8751
3210	0.8759
3219	0.8766
3228	0.8771
3237	0.8767
3246	0.8764
3255	0.876
3264	0.8761
3273	0.8763
3282	0.8765
3291	0.8771
3300	0.8778
3309	0.8784
3318	0.879
3327	0.8791
3336	0.8793
3345	0.8794
3354	0.8795
3363	0.8797
3372	0.88
3381	0.8805
3390	0.8812
3399	0.8817
3408	0.8824
3417	0.8828
3426	0.8836
3435	0.8841
3444	0.8845
3453	0.8846
3462	0.8848
3471	0.885
3480	0.8852
3489	0.8853
3498	0.8855
3507	0.8858
3516	0.8864
3525	0.8868
3534	0.8873
3543	0.8877
3552	0.8882
3561	0.8886
3570	0.8891
3579	0.8894
3588	0.8892
3597	0.889
3606	0.8891
3615	0.8893
3624	0.8896
3633	0.8898
3642	0.89
3651	0.89
3660	0.8901
3669	0.8902
3678	0.8903
3687	0.8903
3696	0.8906
3705	0.8908
3714	0.8911
3723	0.8913
3732	0.8917
3741	0.892
3750	0.8923
3759	0.8921
3768	0.8918
3777	0.8918
3786	0.892
3795	0.8921
