Infrared Spectrum: DI-n-BUTYL L(+)-ASPARTATE HYDROCHLORIDE
Formula: C12 H23 N O4  * H Cl
CAS: 13253-91-3
State: SOLID(MINERAL OIL MULL)
Melting point: 113.5-114 C
Class: COBLENTZ
Instrument: Not specified, most likely a prism, grating, or hybrid spectrometer.
Sampling: TRANSMISSION
Resolution: 4
Origin: ARTHUR D. LITTLE, INC.
1/CM	TRANSMITTANCE
598.956	0.668
606.497	0.67
614.037	0.674
621.578	0.685
629.118	0.704
636.659	0.715
644.2	0.718
651.74	0.718
659.281	0.717
666.821	0.727
674.362	0.782
681.903	0.797
689.443	0.803
696.984	0.803
704.525	0.801
712.065	0.792
719.606	0.788
727.146	0.782
734.687	0.744
742.228	0.776
749.768	0.762
757.309	0.644
764.849	0.644
772.39	0.795
779.931	0.813
787.471	0.812
795.012	0.806
802.552	0.788
810.093	0.75
817.634	0.724
825.174	0.692
832.715	0.689
840.255	0.655
847.796	0.765
855.337	0.798
862.877	0.783
870.418	0.762
877.958	0.754
885.499	0.68
893.04	0.647
900.58	0.721
908.121	0.767
915.662	0.739
923.202	0.59
930.743	0.434
938.283	0.535
945.824	0.641
953.365	0.695
960.905	0.751
968.446	0.759
975.986	0.757
983.527	0.735
991.068	0.732
998.608	0.724
1006.15	0.698
1013.69	0.685
1021.23	0.691
1028.77	0.73
1036.31	0.748
1043.85	0.748
1051.39	0.671
1058.93	0.606
1066.47	0.627
1074.01	0.664
1081.55	0.552
1089.1	0.299
1096.64	0.472
1104.18	0.68
1111.72	0.658
1119.26	0.582
1126.8	0.485
1134.34	0.523
1141.88	0.618
1149.42	0.612
1156.96	0.556
1164.5	0.45
1172.04	0.431
1179.58	0.298
1187.12	0.186
1194.66	0.216
1202.2	0.417
1209.75	0.494
1217.29	0.431
1224.83	0.34
1232.37	0.293
1239.91	0.245
1247.45	0.22
1254.99	0.27
1262.53	0.363
1270.07	0.459
1277.61	0.577
1285.15	0.686
1292.69	0.703
1300.23	0.706
1307.77	0.711
1315.31	0.715
1322.85	0.703
1330.39	0.703
1337.94	0.718
1345.48	0.715
1353.02	0.683
1360.56	0.614
1368.1	0.499
1375.64	0.475
1383.18	0.567
1390.72	0.567
1398.26	0.54
1405.8	0.538
1413.34	0.5
1420.88	0.576
1428.42	0.597
1435.96	0.55
1443.5	0.44
1451.04	0.34
1458.59	0.32
1466.13	0.39
1473.67	0.456
1481.21	0.366
1488.75	0.311
1496.29	0.443
1503.83	0.686
1511.37	0.742
1518.91	0.757
1526.45	0.759
1533.99	0.754
1541.53	0.75
1549.07	0.73
1556.61	0.692
1564.15	0.68
1571.69	0.7
1579.24	0.733
1586.78	0.706
1594.32	0.632
1601.86	0.614
1609.4	0.701
1616.94	0.765
1624.48	0.765
1632.02	0.759
1639.56	0.754
1647.1	0.75
1654.64	0.75
1662.18	0.744
1669.72	0.738
1677.26	0.724
1684.8	0.711
1692.34	0.662
1699.88	0.606
1707.43	0.6
1714.97	0.518
1722.51	0.413
1730.05	0.175
1737.59	0.16
1745.13	0.187
1752.67	0.242
1760.21	0.462
1767.75	0.623
1775.29	0.677
1782.83	0.72
1790.37	0.748
1797.91	0.76
1805.45	0.773
1812.99	0.78
1820.53	0.785
1828.08	0.786
1835.62	0.788
1843.16	0.789
1850.7	0.791
1858.24	0.789
1865.78	0.789
1873.32	0.789
1880.86	0.788
1888.4	0.783
1895.94	0.779
1903.48	0.776
1911.02	0.774
1918.56	0.77
1926.1	0.77
1933.64	0.767
1941.18	0.756
1948.72	0.747
1956.27	0.729
1963.81	0.712
1971.35	0.697
1978.89	0.664
1986.43	0.633
1993.97	0.626
2001.51	0.621
2009.05	0.617
2016.59	0.642
2024.13	0.7
2031.67	0.75
2039.21	0.776
2046.75	0.789
2054.29	0.795
2061.83	0.798
2069.37	0.803
2076.92	0.806
2084.46	0.807
2092	0.809
2099.54	0.809
2107.08	0.809
2114.62	0.809
2122.16	0.807
2129.7	0.806
2137.24	0.804
2144.78	0.804
2152.32	0.803
2159.86	0.803
2167.4	0.804
2174.94	0.804
2182.48	0.806
2190.02	0.806
2197.56	0.806
2205.11	0.806
2212.65	0.804
2220.19	0.804
2227.73	0.803
2235.27	0.798
2242.81	0.795
2250.35	0.792
2257.89	0.789
2265.43	0.789
2272.97	0.789
2280.51	0.789
2288.05	0.788
2295.59	0.785
2303.13	0.782
2310.67	0.779
2318.21	0.776
2325.76	0.776
2333.3	0.776
2340.84	0.776
2348.38	0.776
2355.92	0.773
2363.46	0.773
2371	0.771
2378.54	0.771
2386.08	0.768
2393.62	0.768
2401.16	0.765
2408.7	0.757
2416.24	0.742
2423.78	0.721
2431.32	0.709
2438.86	0.703
2446.4	0.701
2453.95	0.701
2461.49	0.698
2469.03	0.692
2476.57	0.68
2484.11	0.671
2491.65	0.661
2499.19	0.659
2506.73	0.655
2514.27	0.65
2521.81	0.644
2529.35	0.635
2536.89	0.626
2544.43	0.605
2551.97	0.588
2559.51	0.576
2567.05	0.553
2574.6	0.524
2582.14	0.52
2589.68	0.5
2597.22	0.444
2604.76	0.405
2612.3	0.422
2619.84	0.497
2627.38	0.511
2634.92	0.5
2642.46	0.447
2650	0.406
2657.54	0.399
2665.08	0.396
2672.62	0.403
2680.16	0.425
2687.7	0.423
2695.25	0.416
2702.79	0.4
2710.33	0.378
2717.87	0.36
2725.41	0.369
2732.95	0.381
2740.49	0.379
2748.03	0.363
2755.57	0.358
2763.11	0.36
2770.65	0.355
2778.19	0.34
2785.73	0.328
2793.27	0.319
2800.81	0.298
2808.35	0.26
2815.89	0.243
2823.44	0.237
2830.98	0.19
2838.52	0.136
2846.06	0.099
2853.6	0.092
2861.14	0.092
2868.68	0.089
2876.22	0.089
2883.76	0.086
2891.3	0.086
2898.84	0.084
2906.38	0.081
2913.92	0.081
2921.46	0.086
2929	0.092
2936.54	0.099
2944.09	0.104
2951.63	0.11
2959.17	0.118
2966.71	0.122
2974.25	0.128
2981.79	0.139
2989.33	0.146
2996.87	0.163
3004.41	0.173
3011.95	0.189
3019.49	0.204
3027.03	0.236
3034.57	0.257
3042.11	0.285
3049.65	0.317
3057.19	0.341
3064.73	0.366
3072.28	0.387
3079.82	0.397
3087.36	0.403
3094.9	0.416
3102.44	0.446
3109.98	0.468
3117.52	0.491
3125.06	0.503
3132.6	0.524
3140.14	0.549
3147.68	0.562
3155.22	0.586
3162.76	0.602
3170.3	0.615
3177.84	0.63
3185.38	0.639
3192.93	0.647
3200.47	0.655
3208.01	0.671
3215.55	0.691
3223.09	0.704
3230.63	0.717
3238.17	0.726
3245.71	0.739
3253.25	0.748
3260.79	0.756
3268.33	0.763
3275.87	0.768
3283.41	0.77
3290.95	0.773
3298.49	0.776
3306.03	0.779
3313.57	0.78
3321.12	0.782
3328.66	0.783
3336.2	0.783
3343.74	0.785
3351.28	0.786
3358.82	0.786
3366.36	0.786
3373.9	0.786
3381.44	0.788
3388.98	0.788
3396.52	0.788
3404.06	0.788
3411.6	0.789
3419.14	0.789
3426.68	0.791
3434.22	0.789
3441.77	0.788
3449.31	0.782
3456.85	0.777
3464.39	0.77
3471.93	0.763
3479.47	0.773
3487.01	0.789
3494.55	0.798
3502.09	0.8
3509.63	0.8
3517.17	0.8
3524.71	0.8
3532.25	0.8
3539.79	0.798
3547.33	0.798
