Infrared Spectrum: 3-Thiophenine, tetrahydro-N-methyl-N-nitroso-, 1,1-dioxide
Formula: C5 H10 N2 O3 S
CAS: 13256-21-8
State: SOLID (SPLIT MULL), FLUOROLUBE FOR 3800-1330 CM^-^1, NUJOL FOR 1330-400 CM^-^1
Class: COBLENTZ III
Instrument: BECKMAN IR-9 (GRATING)
Instrument parameters: ORDER CHANGES: 670, 1200, 2000 CM^-^1
Sampling: TRANSMISSION
Resolution: 2
Origin: DOW CHEMICAL COMPANY
1/CM	TRANSMITTANCE
422	0.4181
431	0.4815
440	0.594
449	0.426
458	0.6801
467	0.6462
476	0.2759
485	0.6374
494	0.7665
503	0.7957
512	0.8111
521	0.8235
530	0.8309
539	0.8344
548	0.811
557	0.7891
566	0.7371
575	0.5464
584	0.7006
593	0.8286
602	0.8537
611	0.8682
620	0.8705
629	0.8778
638	0.8778
647	0.8754
656	0.8734
665	0.8696
674	0.8605
683	0.7947
692	0.7811
701	0.7653
710	0.7154
719	0.5933
728	0.5985
737	0.7374
746	0.7532
755	0.7558
764	0.7533
773	0.7397
782	0.7698
791	0.7853
800	0.785
809	0.7125
818	0.379
827	0.6939
836	0.754
845	0.7525
854	0.7657
863	0.7684
872	0.7147
881	0.6309
890	0.5145
899	0.451
908	0.6751
917	0.7056
926	0.6758
935	0.6937
944	0.703
953	0.6894
962	0.6314
971	0.5934
980	0.6456
989	0.6346
998	0.6291
1007	0.6041
1016	0.5602
1025	0.5155
1034	0.4392
1043	0.2131
1052	0.1277
1061	0.3206
1070	0.4921
1079	0.5752
1088	0.5112
1097	0.1729
1106	0.3162
1115	0.4018
1124	0.2754
1133	0.1356
1142	0.0338
1151	0.2274
1160	0.1872
1169	0.4194
1178	0.4414
1187	0.2213
1196	0.2727
1205	0.3375
1214	0.2776
1223	0.1921
1232	0.2196
1241	0.2943
1250	0.263
1259	0.1958
1268	0.1295
1277	0.1217
1286	0.1676
1295	0.1217
1304	0.0176
1313	0.0417
1322	0.1608
1331	0.2093
1340	0.3247
1349	0.3212
1358	0.2192
1367	0.0257
1376	0.1719
1385	0.4962
1394	0.6525
1403	0.4984
1412	0.2944
1421	0.2125
1430	0.3656
1439	0.4651
1448	0.3593
1457	0.1979
1466	0.3898
1475	0.581
1484	0.7238
1493	0.7568
1502	0.779
1511	0.7721
1520	0.7872
1529	0.8101
1538	0.8146
1547	0.8165
1556	0.8167
1565	0.8151
1574	0.8136
1583	0.8143
1592	0.8115
1601	0.8075
1610	0.8039
1619	0.8025
1628	0.8034
1637	0.8007
1646	0.7978
1655	0.795
1664	0.7911
1673	0.7869
1682	0.7796
1691	0.7686
1700	0.7642
1709	0.7661
1718	0.7681
1727	0.7675
1736	0.7665
1745	0.7658
1754	0.7646
1763	0.7603
1772	0.7558
1781	0.7521
1790	0.7486
1799	0.7451
1808	0.7425
1817	0.7406
1826	0.7393
1835	0.7386
1844	0.7376
1853	0.7367
1862	0.7345
1871	0.7321
1880	0.7298
1889	0.7276
1898	0.7255
1907	0.723
1916	0.7204
1925	0.7175
1934	0.7143
1943	0.7108
1952	0.7068
1961	0.7026
1970	0.6984
1979	0.6941
1988	0.6911
1997	0.6895
2006	0.6899
2015	0.6934
2024	0.6942
2033	0.6931
2042	0.691
2051	0.6884
2060	0.6855
2069	0.6821
2078	0.6784
2087	0.6746
2096	0.6708
2105	0.6671
2114	0.6635
2123	0.6598
2132	0.6561
2141	0.653
2150	0.6499
2159	0.6468
2168	0.6437
2177	0.6405
2186	0.6373
2195	0.634
2204	0.6307
2213	0.627
2222	0.6226
2231	0.6183
2240	0.614
2249	0.6099
2258	0.606
2267	0.6023
2276	0.5992
2285	0.5959
2294	0.5933
2303	0.591
2312	0.5887
2321	0.5875
2330	0.5865
2339	0.5864
2348	0.5871
2357	0.5877
2366	0.5894
2375	0.5917
2384	0.5831
2393	0.5731
2402	0.565
2411	0.5589
2420	0.5562
2429	0.5551
2438	0.5544
2447	0.554
2456	0.5545
2465	0.555
2474	0.5556
2483	0.5562
2492	0.556
2501	0.5554
2510	0.5545
2519	0.553
2528	0.551
2537	0.5491
2546	0.5471
2555	0.5451
2564	0.5429
2573	0.5406
2582	0.5386
2591	0.5367
2600	0.5348
2609	0.5327
2618	0.5306
2627	0.5284
2636	0.5262
2645	0.5242
2654	0.5221
2663	0.5199
2672	0.5178
2681	0.5156
2690	0.513
2699	0.5102
2708	0.5075
2717	0.5052
2726	0.5029
2735	0.5006
2744	0.498
2753	0.4953
2762	0.4926
2771	0.4892
2780	0.4859
2789	0.4826
2798	0.4795
2807	0.4765
2816	0.4755
2825	0.4745
2834	0.4732
2843	0.4703
2852	0.4664
2861	0.4619
2870	0.4572
2879	0.4524
2888	0.4474
2897	0.4422
2906	0.4371
2915	0.4317
2924	0.4251
2933	0.4136
2942	0.3873
2951	0.3416
2960	0.3849
2969	0.3982
2978	0.3899
2987	0.3736
2996	0.3564
3005	0.363
3014	0.308
3023	0.4006
3032	0.4121
3041	0.4145
3050	0.4154
3059	0.4229
3068	0.4252
3077	0.4257
3086	0.4275
3095	0.4291
3104	0.4304
3113	0.4302
3122	0.43
3131	0.4296
3140	0.4287
3149	0.4274
3158	0.4259
3167	0.4243
3176	0.4227
3185	0.421
3194	0.4194
3203	0.4174
3212	0.4154
3221	0.4133
3230	0.4112
3239	0.4093
3248	0.4073
3257	0.4053
3266	0.4032
3275	0.4012
3284	0.3994
3293	0.3974
3302	0.3955
3311	0.393
3320	0.3903
3329	0.388
3338	0.3864
3347	0.3848
3356	0.3837
3365	0.3824
3374	0.3812
3383	0.38
3392	0.3786
3401	0.3772
3410	0.3759
3419	0.3746
3428	0.3734
3437	0.3723
3446	0.3712
3455	0.37
3464	0.3689
3473	0.3675
3482	0.3662
3491	0.3649
3500	0.3636
3509	0.3623
3518	0.3609
3527	0.3596
3536	0.3582
3545	0.3568
3554	0.3554
3563	0.354
3572	0.3525
3581	0.3509
3590	0.3493
3599	0.3476
3608	0.346
3617	0.3444
3626	0.3432
3635	0.3418
3644	0.3407
3653	0.3394
3662	0.3382
3671	0.337
3680	0.3359
3689	0.3348
3698	0.3337
3707	0.3324
3716	0.331
3725	0.3297
3734	0.3284
3743	0.3279
3752	0.3272
3761	0.3262
3770	0.3227
3779	0.3187
3788	0.3172
3797	0.3161
