Infrared Spectrum: trans-3-Hexene
Formula: C6 H12
CAS: 13269-52-8
State: SOLUTION (10% CCl4 FOR 3800-1330, 10% CS2 FOR 1330-460 CM^-^1)
Class: COBLENTZ III
Instrument: DOW KBr FOREPRISM-GRATING
Instrument parameters: BLAZED AT 3.5, 12.0, 20.0 MICRON AND CHANGED AT 5.0, 7.5, 14.9 MICRON
Sampling: TRANSMISSION
Path length: 0.011 CM, 0.011 CM
Resolution: 2
Origin: DOW CHEMICAL COMPANY
1/CM	TRANSMITTANCE
3800	0.9268
3791	0.9258
3782	0.922
3773	0.9215
3764	0.9204
3755	0.9204
3746	0.9204
3737	0.922
3728	0.9235
3719	0.9238
3710	0.9262
3701	0.9236
3692	0.9201
3683	0.9177
3674	0.9175
3665	0.9185
3656	0.9202
3647	0.922
3638	0.924
3629	0.9242
3620	0.924
3611	0.9215
3602	0.9164
3593	0.9194
3584	0.9224
3575	0.9031
3566	0.9116
3557	0.9192
3548	0.9211
3539	0.9211
3530	0.9219
3521	0.9204
3512	0.9203
3503	0.9203
3494	0.9203
3485	0.9202
3476	0.9199
3467	0.9195
3458	0.9186
3449	0.9166
3440	0.9148
3431	0.9156
3422	0.9159
3413	0.916
3404	0.9157
3395	0.9152
3386	0.9146
3377	0.9136
3368	0.9126
3359	0.9111
3350	0.9098
3341	0.9093
3332	0.9087
3323	0.9085
3314	0.9083
3305	0.9095
3296	0.9075
3287	0.9067
3278	0.9066
3269	0.9053
3260	0.9037
3251	0.902
3242	0.9001
3233	0.8981
3224	0.8959
3215	0.8934
3206	0.8896
3197	0.8874
3188	0.8838
3179	0.8787
3170	0.8747
3161	0.8701
3152	0.8621
3143	0.8568
3134	0.8577
3125	0.8567
3116	0.8567
3107	0.8574
3098	0.8563
3089	0.8522
3080	0.8427
3071	0.8361
3062	0.8203
3053	0.7857
3044	0.747
3035	0.6353
3026	0.4192
3017	0.4918
3008	0.503
2999	0.4244
2990	0.2221
2981	0.0436
2972	0.0101
2963	0.0063
2954	0.0498
2945	0.1109
2936	0.0529
2927	0.0752
2918	0.0865
2909	0.145
2900	0.1784
2891	0.139
2882	0.1526
2873	0.0732
2864	0.333
2855	0.1967
2846	0.2149
2837	0.4937
2828	0.6521
2819	0.7191
2810	0.7604
2801	0.793
2792	0.8113
2783	0.8181
2774	0.8341
2765	0.846
2756	0.8527
2747	0.8552
2738	0.8546
2729	0.8331
2720	0.8294
2711	0.8616
2702	0.8729
2693	0.8774
2684	0.8789
2675	0.8837
2666	0.8852
2657	0.8845
2648	0.885
2639	0.8872
2630	0.8907
2621	0.8934
2612	0.8934
2603	0.8899
2594	0.8825
2585	0.8795
2576	0.8835
2567	0.8906
2558	0.8946
2549	0.8932
2540	0.8899
2531	0.8881
2522	0.8911
2513	0.8943
2504	0.8978
2495	0.9003
2486	0.9022
2477	0.9036
2468	0.9035
2459	0.9034
2450	0.9016
2441	0.8997
2432	0.8973
2423	0.8953
2414	0.8939
2405	0.8943
2396	0.8934
2387	0.8941
2378	0.8977
2369	0.899
2360	0.9003
2351	0.9041
2342	0.9051
2333	0.905
2324	0.9089
2315	0.9064
2306	0.9025
2297	0.9007
2288	0.8973
2279	0.8946
2270	0.8928
2261	0.8926
2252	0.8925
2243	0.8921
2234	0.8917
2225	0.8921
2216	0.8914
2207	0.8914
2198	0.8914
2189	0.89
2180	0.8898
2171	0.8914
2162	0.8905
2153	0.8907
2144	0.891
2135	0.8909
2126	0.891
2117	0.891
2108	0.891
2099	0.891
2090	0.8909
2081	0.8904
2072	0.8896
2063	0.8871
2054	0.8854
2045	0.8809
2036	0.8783
2027	0.8774
2018	0.8798
2009	0.8821
2000	0.8866
1991	0.8902
1982	0.8936
1973	0.8929
1964	0.8911
1955	0.8905
1946	0.8874
1937	0.8875
1928	0.8875
1919	0.8872
1910	0.8867
1901	0.8874
1892	0.887
1883	0.8866
1874	0.8876
1865	0.8856
1856	0.883
1847	0.882
1838	0.8817
1829	0.8795
1820	0.8773
1811	0.8738
1802	0.8608
1793	0.8469
1784	0.8324
1775	0.8365
1766	0.867
1757	0.8794
1748	0.878
1739	0.8755
1730	0.8737
1721	0.872
1712	0.8703
1703	0.8687
1694	0.8689
1685	0.8688
1676	0.8689
1667	0.8643
1658	0.8673
1649	0.8759
1640	0.8782
1631	0.8792
1622	0.8786
1613	0.8802
1604	0.8788
1595	0.8414
1586	0.8339
1577	0.8171
1568	0.8204
1559	0.8251
1550	0.7703
1541	0.8226
1532	0.8213
1523	0.8097
1514	0.8182
1505	0.8032
1496	0.7899
1487	0.771
1478	0.708
1469	0.4629
1460	0.1899
1451	0.3826
1442	0.4314
1433	0.6157
1424	0.7414
1415	0.7816
1406	0.8004
1397	0.8031
1388	0.7281
1379	0.5793
1370	0.7191
1361	0.8148
1352	0.7766
1343	0.7419
1334	0.7886
1325	0.6648
1316	0.7238
1307	0.7232
1298	0.7441
1289	0.6877
1280	0.7091
1271	0.7792
1262	0.7532
1253	0.7862
1244	0.8225
1235	0.8264
1226	0.8397
1217	0.8411
1208	0.8106
1199	0.789
1190	0.8091
1181	0.8149
1172	0.8275
1163	0.8359
1154	0.8303
1145	0.8119
1136	0.8091
1127	0.7981
1118	0.8065
1109	0.797
1100	0.7246
1091	0.7137
1082	0.6449
1073	0.643
1064	0.6193
1055	0.7702
1046	0.7959
1037	0.7605
1028	0.6945
1019	0.773
1010	0.7779
1001	0.7736
992	0.7556
983	0.627
974	0.2531
965	0.0314
956	0.2584
947	0.701
938	0.7841
929	0.8214
920	0.8307
911	0.812
902	0.4848
893	0.7397
884	0.7997
875	0.7753
866	0.8084
857	0.8267
848	0.8636
839	0.8438
830	0.8278
821	0.7923
812	0.7901
803	0.7856
794	0.7576
785	0.7274
776	0.7638
767	0.8101
758	0.8487
749	0.8681
740	0.8722
731	0.8696
722	0.869
713	0.8738
704	0.8773
695	0.8834
686	0.8876
677	0.8865
668	0.8901
659	0.8743
650	0.8729
641	0.873
632	0.8767
623	0.8763
614	0.8761
605	0.8709
596	0.8652
587	0.8647
578	0.8667
569	0.8641
560	0.8594
551	0.854
542	0.8495
533	0.8463
524	0.8427
515	0.8377
506	0.8322
497	0.8226
488	0.809
479	0.7979
470	0.7953
461	0.7961
