Infrared Spectrum: N-(5-NITRO-2-FUROYL)-N'-(ISOPROPYLIDENE) HYDRAZINE
Formula: C8 H9 N3 O4
CAS: 13281-50-0
State: SOLID (NUJOL MULL)
Class: COBLENTZ
Instrument: PERKIN-ELMER
Sampling: TRANSMISSION
Resolution: 4
Origin: ABBOTT LABORATORIES - WASHBURN
MICROMETERS	TRANSMITTANCE
2.042	0.248
2.08179	0.25
2.12157	0.2598
2.16136	0.2609
2.20114	0.271
2.24093	0.273
2.28072	0.2851
2.3205	0.2859
2.36029	0.291
2.40007	0.29
2.43986	0.301
2.47965	0.313
2.51943	0.3277
2.55922	0.3337
2.59901	0.34
2.63879	0.351
2.67858	0.356
2.71836	0.3659
2.75815	0.375
2.79794	0.3798
2.83772	0.396
2.87751	0.4057
2.91729	0.4063
2.95708	0.4185
2.99687	0.325
3.03665	0.201
3.07644	0.2575
3.11622	0.3149
3.15601	0.323
3.1958	0.3118
3.23558	0.3007
3.27537	0.315
3.31515	0.2415
3.35494	0.0689
3.39473	0.014
3.43451	0.0209
3.4743	0.0448
3.51409	0.3286
3.55387	0.4148
3.59366	0.4663
3.63344	0.468
3.67323	0.4657
3.71302	0.4679
3.7528	0.4829
3.79259	0.4952
3.83237	0.5057
3.87216	0.5248
3.91195	0.528
3.95173	0.528
3.99152	0.538
4.0313	0.541
4.07109	0.5451
4.11088	0.5509
4.15066	0.551
4.19045	0.5679
4.23023	0.573
4.27002	0.5759
4.30981	0.573
4.34959	0.578
4.38938	0.591
4.42917	0.5998
4.46895	0.6027
4.50874	0.606
4.54852	0.6078
4.58831	0.618
4.6281	0.623
4.66788	0.6308
4.70767	0.6428
4.74745	0.6459
4.78724	0.648
4.82703	0.6509
4.86681	0.6558
4.9066	0.66
4.94638	0.6632
4.98617	0.6747
5.02596	0.6758
5.06574	0.68
5.10553	0.686
5.14531	0.695
5.1851	0.698
5.22489	0.7037
5.26467	0.706
5.30446	0.7082
5.34425	0.7109
5.38403	0.7152
5.42382	0.7084
5.4636	0.7
5.50339	0.7155
5.54318	0.7294
5.58296	0.7286
5.62275	0.7184
5.66253	0.716
5.70232	0.7109
5.74211	0.6978
5.78189	0.6777
5.82168	0.6193
5.86146	0.564
5.90125	0.4551
5.94104	0.2705
5.98082	0.1494
6.02061	0.1594
6.06039	0.2358
6.10018	0.18
6.13997	0.3274
6.17975	0.4944
6.21954	0.5788
6.25933	0.3531
6.29911	0.2279
6.3389	0.4545
6.37868	0.5651
6.41847	0.4827
6.45826	0.2809
6.49804	0.1119
6.53783	0.1107
6.57761	0.1519
6.6174	0.2856
6.65719	0.404
6.69697	0.4603
6.73676	0.4052
6.77654	0.1262
6.81633	0.1146
6.85612	0.1557
6.8959	0.2116
6.93569	0.2909
6.97547	0.3865
7.01526	0.4922
7.05505	0.5465
7.09483	0.4774
7.13462	0.2718
7.1744	0.255
7.21419	0.3136
7.25398	0.2855
7.29376	0.2703
7.33355	0.212
7.37334	0.1098
7.41312	0.0668
7.45291	0.166
7.49269	0.3405
7.53248	0.3858
7.57227	0.3985
7.61205	0.455
7.65184	0.3828
7.69162	0.2488
7.73141	0.147
7.7712	0.1147
7.81098	0.1283
7.85077	0.1927
7.89055	0.1468
7.93034	0.1902
7.97013	0.281
8.00991	0.2978
8.0497	0.3508
8.08948	0.3975
8.12927	0.4316
8.16906	0.4552
8.20884	0.4806
8.24863	0.5008
8.28842	0.5107
8.3282	0.4608
8.36799	0.4012
8.40777	0.4932
8.44756	0.5187
8.48735	0.5312
8.52713	0.535
8.56692	0.533
8.6067	0.5352
8.64649	0.5078
8.68628	0.5171
8.72606	0.5379
8.76585	0.5511
8.80563	0.5614
8.84542	0.5651
8.88521	0.571
8.92499	0.573
8.96478	0.578
9.00456	0.5785
9.04435	0.576
9.08414	0.5716
9.12392	0.5522
9.16371	0.535
9.2035	0.5326
9.24328	0.5098
9.28307	0.496
9.32285	0.5187
9.36264	0.5516
9.40243	0.5716
9.44221	0.5801
9.482	0.59
9.52178	0.5903
9.56157	0.5898
9.60136	0.5496
9.64114	0.3906
9.68093	0.1818
9.72071	0.2741
9.7605	0.4206
9.80029	0.5266
9.84007	0.5659
9.87986	0.5964
9.91964	0.6112
9.95943	0.625
9.99922	0.635
10.039	0.636
10.0788	0.6422
10.1186	0.6474
10.1584	0.6519
10.1981	0.6437
10.2379	0.5303
10.2777	0.4252
10.3175	0.3355
10.3573	0.2897
10.3971	0.3801
10.4369	0.4951
10.4767	0.5481
10.5164	0.585
10.5562	0.6102
10.596	0.6204
10.6358	0.635
10.6756	0.6449
10.7154	0.6526
10.7552	0.656
10.7949	0.656
10.8347	0.653
10.8745	0.656
10.9143	0.6338
10.9541	0.603
10.9939	0.6204
11.0337	0.6527
11.0734	0.6689
11.1132	0.68
11.153	0.683
11.1928	0.69
11.2326	0.688
11.2724	0.6887
11.3122	0.7
11.3519	0.7
11.3917	0.6909
11.4315	0.6395
11.4713	0.5857
11.5111	0.6281
11.5509	0.6741
11.5907	0.6868
11.6304	0.6915
11.6702	0.7051
11.71	0.708
11.7498	0.705
11.7896	0.7046
11.8294	0.71
11.8692	0.71
11.9089	0.708
11.9487	0.6972
11.9885	0.6835
12.0283	0.6691
12.0681	0.6291
12.1079	0.5025
12.1477	0.3763
12.1875	0.3464
12.2272	0.5233
12.267	0.5057
12.3068	0.2421
12.3466	0.3579
12.3864	0.5629
12.4262	0.6262
12.466	0.6601
12.5057	0.6794
12.5455	0.6875
12.5853	0.695
12.6251	0.6734
12.6649	0.5908
12.7047	0.555
12.7445	0.6169
12.7842	0.6606
12.824	0.675
12.8638	0.6796
12.9036	0.6902
12.9434	0.6893
12.9832	0.689
13.023	0.685
13.0627	0.6749
13.1025	0.6395
13.1423	0.4869
13.1821	0.3344
13.2219	0.4439
13.2617	0.5918
13.3015	0.645
13.3412	0.658
13.381	0.6556
13.4208	0.6557
13.4606	0.6405
13.5004	0.5089
13.5402	0.3517
13.58	0.5478
13.6198	0.6161
13.6595	0.6408
13.6993	0.648
13.7391	0.645
13.7789	0.643
13.8187	0.6427
13.8585	0.6412
13.8983	0.648
13.938	0.656
13.9778	0.661
14.0176	0.6643
14.0574	0.673
14.0972	0.671
14.137	0.6746
14.1768	0.6701
14.2165	0.675
14.2563	0.673
14.2961	0.6708
14.3359	0.67
14.3757	0.6687
14.4155	0.6646
14.4553	0.6568
14.495	0.658
14.5348	0.651
14.5746	0.6499
14.6144	0.646
14.6542	0.6435
14.694	0.643
14.7338	0.6419
14.7735	0.633
14.8133	0.626
14.8531	0.621
14.8929	0.6159
14.9327	0.613
14.9725	0.616
15.0123	0.6106
15.052	0.601
15.0918	0.5955
15.1316	0.59
15.1714	0.5835
15.2112	0.576
15.251	0.57
15.2908	0.561
15.3306	0.558
15.3703	0.5534
15.4101	0.548
15.4499	0.54
15.4897	0.5405
15.5295	0.5487
15.5693	0.5555
