Infrared Spectrum: 2-Hydroxyethyl-4-nitrophenyl sulfide
Formula: C 8 H 9 N O 3 S
CAS: 13287-76-8
State: gas
Origin: EPA-IR VAPOR PHASE LIBRARY
1/CM	ABSORBANCE
549.8	0.0007298
559.445	0.00128
569.09	0.0009717
578.734	0.0005036
588.379	0.0009668
598.024	0.0007041
607.669	0.0008696
617.313	0.0004631
626.958	0.0007348
636.603	0.0006799
646.248	0.0008002
655.893	0.000958
665.537	0.00197
675.182	0.00317
684.827	0.0038
694.472	0.00232
704.116	0.00177
713.761	0.002
723.406	0.00379
733.051	0.00752
742.695	0.01004
752.34	0.00597
761.985	0.00317
771.63	0.00207
781.275	0.00143
790.919	0.00111
800.564	0.0018
810.209	0.00305
819.854	0.00477
829.498	0.00853
839.143	0.01557
848.788	0.03709
858.433	0.02677
868.078	0.00485
877.722	0.00213
887.367	0.00152
897.012	0.00128
906.657	0.0018
916.301	0.00244
925.946	0.00311
935.591	0.00304
945.236	0.00279
954.88	0.00261
964.525	0.00274
974.17	0.00302
983.815	0.0039
993.46	0.00557
1003.1	0.0089
1012.75	0.01485
1022.39	0.01471
1032.04	0.02028
1041.68	0.02471
1051.33	0.02217
1060.97	0.02177
1070.62	0.01788
1080.26	0.01382
1089.91	0.01938
1099.55	0.01302
1109.2	0.00808
1118.84	0.00537
1128.49	0.00366
1138.13	0.0026
1147.78	0.00259
1157.42	0.00267
1167.07	0.00446
1176.71	0.00772
1186.36	0.00658
1196	0.0042
1205.64	0.00368
1215.29	0.00357
1224.93	0.00397
1234.58	0.00436
1244.22	0.00411
1253.87	0.00483
1263.51	0.00631
1273.16	0.00755
1282.8	0.00792
1292.45	0.00745
1302.09	0.00724
1311.74	0.00903
1321.38	0.01546
1331.03	0.03666
1340.67	0.08198
1350.32	0.07679
1359.96	0.03647
1369.61	0.02424
1379.25	0.02039
1388.9	0.01492
1398.54	0.01002
1408.18	0.00821
1417.83	0.00801
1427.47	0.00722
1437.12	0.0056
1446.76	0.00479
1456.41	0.00515
1466.05	0.00817
1475.7	0.01753
1485.34	0.01605
1494.99	0.008
1504.63	0.01063
1514.28	0.02122
1523.92	0.04263
1533.57	0.06016
1543.21	0.04941
1552.86	0.02613
1562.5	0.01544
1572.15	0.01856
1581.79	0.02888
1591.44	0.02875
1601.08	0.02199
1610.73	0.01147
1620.37	0.0051
1630.01	0.00347
1639.66	0.00311
1649.3	0.00276
1658.95	0.00233
1668.59	0.00173
1678.24	0.00126
1687.88	0.0008896
1697.53	0.0007439
1707.17	0.0005628
1716.82	0.0004394
1726.46	0.0004346
1736.11	0.0003392
1745.75	0.0004614
1755.4	0.0003973
1765.04	0.0006236
1774.69	0.0008934
1784.33	0.0011
1793.98	0.0007578
1803.62	0.0005793
1813.27	0.0006162
1822.91	0.0005247
1832.55	0.0004969
1842.2	0.0004067
1851.84	0.0003583
1861.49	0.0004256
1871.13	0.0004269
1880.78	0.0005097
1890.42	0.0007006
1900.07	0.0009684
1909.71	0.00118
1919.36	0.00111
1929	0.0008665
1938.65	0.0005099
1948.29	0.0004273
1957.94	0.0003615
1967.58	0.0003544
1977.23	0.0003536
1986.87	0.0003059
1996.52	0.000287
2006.16	0.0002978
2015.81	0.0002469
2025.45	0.0003055
2035.1	0.0003662
2044.74	0.0003336
2054.38	0.0003664
2064.03	0.0004766
2073.67	0.0003479
2083.32	0.0004508
2092.96	0.0002957
2102.61	0.0002879
2112.25	0.0003697
2121.9	0.0004319
2131.54	0.0002748
2141.19	0.0001416
2150.83	0.0001143
2160.48	0.000137
2170.12	0.0002106
2179.77	0.0001729
2189.41	0.0003554
2199.06	0.0003824
2208.7	0.0003981
2218.35	0.0004823
2227.99	0.0004172
2237.64	0.0003991
2247.28	0.0002615
2256.92	0.0002694
2266.57	0.000337
2276.21	0.0004035
2285.86	0.0004374
2295.5	0.0003257
2305.15	0.0002905
2314.79	0.0002829
2324.44	0.0003304
2334.08	0.0002322
2343.73	0.0002298
2353.37	0.0002624
2363.02	0.0003367
2372.66	0.000455
2382.31	0.0004931
2391.95	0.0005338
2401.6	0.0003839
2411.24	0.0004536
2420.89	0.0005147
2430.53	0.0005996
2440.18	0.0007588
2449.82	0.0007796
2459.47	0.0006499
2469.11	0.0006419
2478.75	0.0004857
2488.4	0.000375
2498.04	0.0005029
2507.69	0.0002802
2517.33	0.0004466
2526.98	0.0004951
2536.62	0.000609
2546.27	0.0006206
2555.91	0.000501
2565.56	0.0005052
2575.2	0.0005099
2584.85	0.0006692
2594.49	0.000626
2604.14	0.0005428
2613.78	0.0002863
2623.43	0.0003318
2633.07	0.0004689
2642.72	0.000355
2652.36	0.0006461
2662.01	0.0005837
2671.65	0.0006779
2681.29	0.0008364
2690.94	0.0008975
2700.58	0.0008293
2710.23	0.0007299
2719.87	0.0007157
2729.52	0.0006195
2739.16	0.0006338
2748.81	0.0006458
2758.45	0.0007977
2768.1	0.0008046
2777.74	0.0007677
2787.39	0.0008094
2797.03	0.0009116
2806.68	0.00113
2816.32	0.00141
2825.97	0.00151
2835.61	0.00199
2845.26	0.00263
2854.9	0.00321
2864.55	0.00457
2874.19	0.00688
2883.84	0.00848
2893.48	0.00675
2903.12	0.00572
2912.77	0.00591
2922.41	0.00804
2932.06	0.01117
2941.7	0.0113
2951.35	0.00846
2960.99	0.00705
2970.64	0.00629
2980.28	0.00456
2989.93	0.00247
2999.57	0.00155
3009.22	0.00126
3018.86	0.000745
3028.51	0.000769
3038.15	0.0006567
3047.8	0.00112
3057.44	0.00128
3067.09	0.00183
3076.73	0.00204
3086.38	0.00148
3096.02	0.0008099
3105.67	0.0005042
3115.31	0.0003816
3124.95	0.0002897
3134.6	0.0002813
3144.24	0.0004225
3153.89	0.0003654
3163.53	0.0003761
3173.18	0.0003415
3182.82	0.0004239
3192.47	0.00033
3202.11	0.0003378
3211.76	0.0002916
3221.4	6.266e-05
3231.05	0.0003022
3240.69	0.0002292
3250.34	0.0001927
3259.98	0.0002649
3269.63	0.0002347
3279.27	0.0004283
3288.92	0.0003621
3298.56	0.000287
3308.21	0.0002783
3317.85	0.0001915
3327.49	0.000328
3337.14	8.766e-05
3346.78	0.0001653
3356.43	0.0002587
3366.07	0.0003884
3375.72	0.0001903
3385.36	0.0003804
3395.01	0.000309
3404.65	0.0004908
3414.3	0.0002388
3423.94	0.0003434
3433.59	0.0003377
3443.23	0.0003462
3452.88	0.0004772
3462.52	0.0003932
3472.17	0.0004292
3481.81	0.0002589
3491.46	0.0005886
3501.1	0.0006256
3510.75	0.0003869
3520.39	0.0004964
3530.04	0.0004364
3539.68	0.0004474
3549.32	0.000538
3558.97	0.0007205
3568.61	0.0006443
3578.26	0.0008747
3587.9	0.00125
3597.55	0.00158
3607.19	0.00191
3616.84	0.00198
3626.48	0.0019
3636.13	0.00212
3645.77	0.00262
3655.42	0.00422
3665.06	0.00601
3674.71	0.00427
3684.35	0.00232
3694	0.00144
3703.64	0.0009914
3713.29	0.0009777
3722.93	0.0009476
3732.58	0.0008237
3742.22	0.0006034
3751.86	0.0004387
3761.51	0.0004343
3771.15	0.0004664
3780.8	0.0004663
3790.44	0.0004751
3800.09	0.0003731
3809.73	0.000393
3819.38	0.0002527
3829.02	0.00054
3838.67	0.0003581
3848.31	0.0002021
3857.96	0.000416
3867.6	0.0003686
3877.25	0.0003975
3886.89	0.0003854
3896.54	0.000574
3906.18	0.0003535
3915.83	0.0003976
3925.47	0.0004892
3935.12	0.0003064
3944.76	0.0004524
3954.41	0.0003433
3964.05	0.000327
3973.69	0.0002168
3983.34	0.000418
3992.98	0.0002666
