Infrared Spectrum: Benzoic acid, p-[(2-hydroxy-3-phthalimidopropyl)amino]-, ethyl ester
Formula: C20 H20 N2 O5
CAS: 132854-37-6
State: SOLID (1 mg / 650 mg KBr DISC)
Class: COBLENTZ III
Instrument: PERKIN-ELMER 521 (GRATING)
Instrument parameters: FILTERS AT 3150, 2500, 2000, 1150, 700, 410. GRATING CHANGES: 2000, 630
Sampling: TRANSMISSION
Resolution: 2
Origin: SOUTHERN RESEARCH INSTITUTE
1/CM	TRANSMITTANCE
250.891	0.3106
260.934	0.3788
270.977	0.4268
281.02	0.4749
291.063	0.5225
301.106	0.6269
311.149	0.6548
321.192	0.6682
331.235	0.6801
341.278	0.6956
351.321	0.6884
361.364	0.708
371.407	0.7506
381.45	0.7518
391.493	0.7759
401.536	0.7837
411.579	0.7927
421.622	0.7922
431.665	0.7868
441.708	0.7796
451.751	0.785
461.794	0.7862
471.837	0.7841
481.88	0.7809
491.923	0.7681
501.966	0.7311
512.009	0.7421
522.052	0.749
532.095	0.6638
542.138	0.771
552.181	0.7905
562.224	0.8058
572.267	0.8087
582.31	0.7952
592.353	0.838
602.396	0.8282
612.439	0.8107
622.482	0.7908
632.525	0.746
642.568	0.8464
652.611	0.8424
662.654	0.8673
672.697	0.8662
682.74	0.8496
692.783	0.7725
702.826	0.7396
712.869	0.439
722.912	0.435
732.955	0.8732
742.998	0.8821
753.041	0.8513
763.084	0.7322
773.127	0.8145
783.17	0.8827
793.213	0.8271
803.256	0.8758
813.299	0.8469
823.342	0.8362
833.385	0.5987
843.428	0.8522
853.471	0.8457
863.513	0.8132
873.556	0.7592
883.599	0.8439
893.642	0.8395
903.685	0.7621
913.728	0.8329
923.771	0.8414
933.814	0.8378
943.857	0.8218
953.9	0.8012
963.943	0.7786
973.986	0.8067
984.029	0.7927
994.072	0.7566
1004.12	0.6303
1014.16	0.5719
1024.2	0.5916
1034.24	0.6969
1044.29	0.6968
1054.33	0.5534
1064.37	0.7021
1074.42	0.7205
1084.46	0.6173
1094.5	0.6207
1104.55	0.4671
1114.59	0.4232
1124.63	0.5177
1134.67	0.7007
1144.72	0.6487
1154.76	0.5949
1164.8	0.4289
1174.85	0.3622
1184.89	0.6493
1194.93	0.7904
1204.98	0.7652
1215.02	0.7351
1225.06	0.6203
1235.1	0.6379
1245.15	0.5863
1255.19	0.3527
1265.23	0.3229
1275.28	0.1712
1285.32	0.3256
1295.36	0.65
1305.41	0.4686
1315.45	0.5866
1325.49	0.6163
1335.53	0.4223
1345.58	0.52
1355.62	0.462
1365.66	0.5072
1375.71	0.623
1385.75	0.4128
1395.79	0.4061
1405.84	0.5036
1415.88	0.4858
1425.92	0.3725
1435.96	0.6594
1446.01	0.725
1456.05	0.6287
1466.09	0.7026
1476.14	0.7502
1486.18	0.8412
1496.22	0.8073
1506.26	0.7901
1516.31	0.6797
1526.35	0.475
1536.39	0.5755
1546.44	0.7554
1556.48	0.7323
1566.52	0.5741
1576.57	0.4963
1586.61	0.2832
1596.65	0.0824
1606.69	0.4163
1616.74	0.7365
1626.78	0.7815
1636.82	0.7646
1646.87	0.7324
1656.91	0.6659
1666.95	0.4749
1677	0.1432
1687.04	0.414
1697.08	0.2546
1707.12	0.1058
1717.17	0.1626
1727.21	0.5014
1737.25	0.7691
1747.3	0.7984
1757.34	0.6536
1767.38	0.5543
1777.43	0.8477
1787.47	0.9127
1797.51	0.9278
1807.55	0.937
1817.6	0.9511
1827.64	0.9535
1837.68	0.9519
1847.73	0.952
1857.77	0.9581
1867.81	0.9584
1877.86	0.9565
1887.9	0.9514
1897.94	0.9444
1907.98	0.9465
1918.03	0.9513
1928.07	0.9512
1938.11	0.9508
1948.16	0.9491
1958.2	0.9467
1968.24	0.9451
1978.29	0.9443
1988.33	0.944
1998.37	0.9433
2008.41	0.9432
2018.46	0.9432
2028.5	0.9432
2038.54	0.9427
2048.59	0.9423
2058.63	0.9418
2068.67	0.9411
2078.72	0.9404
2088.76	0.9391
2098.8	0.9371
2108.84	0.934
2118.89	0.9304
2128.93	0.9279
2138.97	0.9282
2149.02	0.9274
2159.06	0.9275
2169.1	0.9266
2179.15	0.9261
2189.19	0.9259
2199.23	0.9256
2209.27	0.9247
2219.32	0.9237
2229.36	0.9226
2239.4	0.9215
2249.45	0.9208
2259.49	0.9202
2269.53	0.9196
2279.58	0.9182
2289.62	0.9167
2299.66	0.9153
2309.7	0.9138
2319.75	0.9125
2329.79	0.9112
2339.83	0.9101
2349.88	0.9091
2359.92	0.9077
2369.96	0.9063
2380.01	0.9048
2390.05	0.9031
2400.09	0.9015
2410.13	0.8998
2420.18	0.8988
2430.22	0.898
2440.26	0.8972
2450.31	0.8964
2460.35	0.8939
2470.39	0.8914
2480.44	0.8889
2490.48	0.8862
2500.52	0.8837
2510.56	0.8811
2520.61	0.8792
2530.65	0.8778
2540.69	0.8764
2550.74	0.8753
2560.78	0.874
2570.82	0.8722
2580.87	0.8718
2590.91	0.8724
2600.95	0.8715
2610.99	0.8706
2621.04	0.8706
2631.08	0.8707
2641.12	0.8714
2651.17	0.8711
2661.21	0.871
2671.25	0.8709
2681.29	0.87
2691.34	0.8686
2701.38	0.8661
2711.42	0.8632
2721.47	0.8572
2731.51	0.8517
2741.55	0.8494
2751.6	0.8476
2761.64	0.8458
2771.68	0.8455
2781.72	0.8448
2791.77	0.8434
2801.81	0.8404
2811.85	0.8358
2821.9	0.8304
2831.94	0.8213
2841.98	0.8089
2852.03	0.7947
2862.07	0.7911
2872.11	0.7907
2882.15	0.7858
2892.2	0.7305
2902.24	0.7581
2912.28	0.7434
2922.33	0.7177
2932.37	0.6882
2942.41	0.7891
2952.46	0.7921
2962.5	0.7862
2972.54	0.7054
2982.58	0.7278
2992.63	0.8355
3002.67	0.8404
3012.71	0.8364
3022.76	0.8273
3032.8	0.8285
3042.84	0.8321
3052.89	0.8136
3062.93	0.8219
3072.97	0.8269
3083.01	0.828
3093.06	0.8301
3103.1	0.8312
3113.14	0.8315
3123.19	0.8306
3133.23	0.8272
3143.27	0.8143
3153.32	0.8133
3163.36	0.8164
3173.4	0.8145
3183.44	0.8097
3193.49	0.8048
3203.53	0.8006
3213.57	0.7968
3223.62	0.7921
3233.66	0.787
3243.7	0.78
3253.75	0.7717
3263.79	0.7605
3273.83	0.749
3283.87	0.7363
3293.92	0.7207
3303.96	0.7026
3314	0.6819
3324.05	0.6558
3334.09	0.6164
3344.13	0.5541
3354.18	0.3332
3364.22	0.1996
3374.26	0.4783
3384.3	0.5944
3394.35	0.6001
3404.39	0.5964
3414.43	0.5806
3424.48	0.5527
3434.52	0.5065
3444.56	0.4747
3454.61	0.4889
3464.65	0.5551
3474.69	0.616
3484.73	0.652
3494.78	0.6782
3504.82	0.6992
3514.86	0.7151
3524.91	0.7281
3534.95	0.7425
3544.99	0.7563
3555.04	0.774
3565.08	0.7967
3575.12	0.8099
3585.16	0.8196
3595.21	0.8258
3605.25	0.8304
3615.29	0.8349
3625.34	0.8387
3635.38	0.8418
3645.42	0.8481
3655.47	0.8456
3665.51	0.8455
3675.55	0.8441
3685.59	0.8444
3695.64	0.8471
3705.68	0.85
3715.72	0.8501
3725.77	0.8484
3735.81	0.8471
3745.85	0.8458
3755.9	0.8441
3765.94	0.8425
3775.98	0.8409
3786.02	0.84
3796.07	0.8391
3806.11	0.8383
3816.15	0.8378
3826.2	0.8373
3836.24	0.8367
3846.28	0.8363
3856.33	0.8358
3866.37	0.8354
3876.41	0.8346
3886.45	0.8338
3896.5	0.833
3906.54	0.8321
3916.58	0.8313
3926.63	0.8304
3936.67	0.8295
3946.71	0.8285
3956.75	0.8272
3966.8	0.8258
3976.84	0.8244
3986.88	0.8231
3996.93	0.8222
4006.97	0.8212
