Infrared Spectrum: 4-Nitrobenzylthiocyanate
Formula: C 8 H 6 N 2 O 2 S
CAS: 13287-49-5
State: gas
Origin: EPA-IR VAPOR PHASE LIBRARY
1/CM	ABSORBANCE
549.9	0.00251
559.547	0.00231
569.193	0.00245
578.84	0.0020932
588.486	0.0019644
598.133	0.00221
607.779	0.00267
617.426	0.00457
627.072	0.00519
636.719	0.00361
646.365	0.00306
656.012	0.00354
665.658	0.00413
675.305	0.00525
684.951	0.00803
694.598	0.014
704.245	0.01779
713.891	0.01336
723.538	0.00825
733.184	0.00551
742.831	0.00473
752.477	0.0048
762.124	0.00399
771.77	0.00317
781.417	0.00444
791.063	0.01231
800.71	0.01859
810.356	0.01408
820.003	0.00868
829.649	0.00727
839.296	0.01111
848.943	0.02323
858.589	0.03368
868.236	0.01321
877.882	0.00675
887.529	0.00467
897.175	0.00381
906.822	0.00314
916.468	0.00241
926.115	0.0017775
935.761	0.0013774
945.408	0.0012641
955.054	0.0013593
964.701	0.0013049
974.347	0.00116266
983.994	0.00110185
993.64	0.00112152
1003.29	0.0019994
1012.93	0.00814
1022.58	0.00533
1032.23	0.0013984
1041.87	0.00119932
1051.52	0.00116803
1061.17	0.0012035
1070.81	0.0015216
1080.46	0.0019771
1090.11	0.00325
1099.75	0.00592
1109.4	0.00796
1119.05	0.00412
1128.69	0.0019689
1138.34	0.0016416
1147.99	0.0016989
1157.63	0.0018582
1167.28	0.00226
1176.92	0.00493
1186.57	0.00597
1196.22	0.00432
1205.86	0.00365
1215.51	0.00361
1225.16	0.00633
1234.8	0.0107
1244.45	0.01376
1254.1	0.0083
1263.74	0.00505
1273.39	0.00491
1283.04	0.00582
1292.68	0.00774
1302.33	0.00969
1311.98	0.01133
1321.62	0.01486
1331.27	0.0263
1340.92	0.0655
1350.56	0.11802
1360.21	0.06645
1369.86	0.02056
1379.5	0.01088
1389.15	0.00798
1398.79	0.00677
1408.44	0.00623
1418.09	0.00627
1427.73	0.00673
1437.38	0.00582
1447.03	0.00485
1456.67	0.00463
1466.32	0.0046
1475.97	0.00731
1485.61	0.0118
1495.26	0.01686
1504.91	0.01528
1514.55	0.01907
1524.2	0.03957
1533.85	0.07899
1543.49	0.09749
1553.14	0.065
1562.79	0.03232
1572.43	0.02
1582.08	0.01599
1591.73	0.0188
1601.37	0.02734
1611.02	0.02279
1620.67	0.01153
1630.31	0.00497
1639.96	0.00339
1649.6	0.00323
1659.25	0.00312
1668.9	0.00272
1678.54	0.0023
1688.19	0.001878
1697.84	0.001575
1707.48	0.001453
1717.13	0.0013375
1726.78	0.0012652
1736.42	0.0012673
1746.07	0.0012572
1755.72	0.0012328
1765.36	0.0013319
1775.01	0.0017323
1784.66	0.00249
1794.3	0.00235
1803.95	0.0013542
1813.6	0.0010329
1823.24	0.000957
1832.89	0.000937
1842.54	0.000893
1852.18	0.000931
1861.83	0.000986
1871.47	0.0010224
1881.12	0.00111838
1890.77	0.0013638
1900.41	0.0018242
1910.06	0.0026
1919.71	0.00321
1929.35	0.00307
1939	0.00283
1948.65	0.0033
1958.29	0.00419
1967.94	0.00509
1977.59	0.00584
1987.23	0.00716
1996.88	0.00851
2006.53	0.00969
2016.17	0.01164
2025.82	0.01397
2035.47	0.01598
2045.11	0.01692
2054.76	0.01592
2064.41	0.01292
2074.05	0.00964
2083.7	0.00673
2093.35	0.00459
2102.99	0.00331
2112.64	0.00278
2122.28	0.00256
2131.93	0.00257
2141.58	0.00291
2151.22	0.00422
2160.87	0.00693
2170.52	0.00588
2180.16	0.00333
2189.81	0.0026
2199.46	0.00234
2209.1	0.00216
2218.75	0.001913
2228.4	0.0016141
2238.04	0.0013902
2247.69	0.0011935
2257.34	0.0010722
2266.98	0.0010714
2276.63	0.0012058
2286.28	0.0013092
2295.92	0.0013366
2305.57	0.0012258
2315.22	0.00117866
2324.86	0.0010778
2334.51	0.001
2344.16	0.000902
2353.8	0.00091
2363.45	0.000891
2373.09	0.000895
2382.74	0.0009
2392.39	0.000926
2402.03	0.000943
2411.68	0.000883
2421.33	0.000929
2430.97	0.000922
2440.62	0.000951
2450.27	0.00117473
2459.91	0.0012468
2469.56	0.0010479
2479.21	0.000868
2488.85	0.00075
2498.5	0.000683
2508.15	0.000822
2517.79	0.000806
2527.44	0.000753
2537.09	0.000885
2546.73	0.000952
2556.38	0.000879
2566.03	0.000813
2575.67	0.000849
2585.32	0.000886
2594.96	0.000965
2604.61	0.000972
2614.26	0.001025
2623.9	0.000971
2633.55	0.000821
2643.2	0.000797
2652.84	0.000919
2662.49	0.000967
2672.14	0.00112704
2681.78	0.0012602
2691.43	0.0013973
2701.08	0.0014171
2710.72	0.0013093
2720.37	0.00115533
2730.02	0.000992
2739.66	0.000846
2749.31	0.000827
2758.96	0.000878
2768.6	0.000846
2778.25	0.000871
2787.9	0.000917
2797.54	0.0010415
2807.19	0.0010046
2816.84	0.00109516
2826.48	0.0012308
2836.13	0.0014628
2845.77	0.0018556
2855.42	0.0018595
2865.07	0.00211
2874.71	0.0025
2884.36	0.00259
2894.01	0.00229
2903.65	0.0018298
2913.3	0.0016637
2922.95	0.0020181
2932.59	0.00267
2942.24	0.00375
2951.89	0.00359
2961.53	0.00247
2971.18	0.0017471
2980.83	0.0014579
2990.47	0.0014524
3000.12	0.00112966
3009.77	0.000854
3019.41	0.000842
3029.06	0.0010508
3038.71	0.0018533
3048.35	0.00271
3058	0.00323
3067.64	0.00306
3077.29	0.00351
3086.94	0.00379
3096.58	0.0014265
3106.23	0.000573
3115.88	0.000431
3125.52	0.000221
3135.17	0.000219
3144.82	0.000242
3154.46	0.000187
3164.11	0.000173
3173.76	0.000133
3183.4	0.000114
3193.05	0.000257
3202.7	0.000258
3212.34	0.000381
3221.99	0.00031
3231.64	0.000199
3241.28	0.000327
3250.93	0.000126
3260.58	0.000246
3270.22	0.000241
3279.87	0.000208
3289.52	0.000123
3299.16	0.000192
3308.81	0.00022
3318.45	0.000354
3328.1	0.000101
3337.75	0.000285
3347.39	0.000343
3357.04	0.000262
3366.69	0.000194
3376.33	0.00038
3385.98	0.000194
3395.63	0.000371
3405.27	0.000263
3414.92	0.000424
3424.57	0.00045
3434.21	0.000441
3443.86	0.000445
3453.51	0.000592
3463.15	0.000524
3472.8	0.000408
3482.45	0.000647
3492.09	0.000642
3501.74	0.000662
3511.39	0.000886
3521.03	0.000942
3530.68	0.00084
3540.33	0.001021
3549.97	0.00087
3559.62	0.000678
3569.26	0.000643
3578.91	0.000533
3588.56	0.000567
3598.2	0.000618
3607.85	0.000697
3617.5	0.000565
3627.14	0.000702
3636.79	0.000563
3646.44	0.00069
3656.08	0.000739
3665.73	0.000772
3675.38	0.000893
3685.02	0.000627
3694.67	0.000634
3704.32	0.000803
3713.96	0.000714
3723.61	0.00088
3733.26	0.000831
3742.9	0.000858
3752.55	0.000771
3762.2	0.000778
3771.84	0.000771
3781.49	0.00067
3791.13	0.00069
3800.78	0.000741
3810.43	0.000659
3820.07	0.000826
3829.72	0.000753
3839.37	0.000755
3849.01	0.000795
3858.66	0.000708
3868.31	0.000899
3877.95	0.000756
3887.6	0.000883
3897.25	0.000869
3906.89	0.000819
3916.54	0.000749
3926.19	0.000711
3935.83	0.000732
3945.48	0.000845
3955.13	0.000823
3964.77	0.000759
3974.42	0.000779
3984.07	0.000805
3993.71	0.000865
