Infrared Spectrum: CELLOBIOSE
Formula: C12 H22 O11
CAS: 13299-27-9
State: SOLID (MINERAL OIL MULL)
Melting point: 239 C DECOMPOSES
Class: COBLENTZ
Instrument: Not specified, most likely a prism, grating, or hybrid spectrometer.
Sampling: TRANSMISSION
Resolution: 4
Origin: WYANDOTTE CHEMICALS CORP., WYANDOTTE, MICHIGAN, USA
MICROMETERS	TRANSMITTANCE
2.033	0.918
2.07283	0.925
2.11266	0.936
2.15249	0.94
2.19231	0.938
2.23214	0.933
2.27197	0.931
2.3118	0.938
2.35163	0.941
2.39146	0.94
2.43129	0.943
2.47112	0.948
2.51094	0.951
2.55077	0.968
2.5906	0.973
2.63043	0.986
2.67026	0.978
2.71009	0.96
2.74992	0.92
2.78975	0.704
2.82957	0.413
2.8694	0.151
2.90923	0.096
2.94906	0.078
2.98889	0.081
3.02872	0.101
3.06855	0.159
3.10838	0.189
3.1482	0.29
3.18803	0.398
3.22786	0.526
3.26769	0.564
3.30752	0.44
3.34735	0.106
3.38718	0.089
3.427	0.124
3.46683	0.154
3.50666	0.368
3.54649	0.604
3.58632	0.657
3.62615	0.677
3.66598	0.692
3.70581	0.71
3.74563	0.742
3.78546	0.752
3.82529	0.787
3.86512	0.8
3.90495	0.822
3.94478	0.825
3.98461	0.828
4.02444	0.833
4.06426	0.837
4.10409	0.843
4.14392	0.862
4.18375	0.867
4.22358	0.87
4.26341	0.88
4.30324	0.892
4.34307	0.931
4.38289	0.931
4.42272	0.921
4.46255	0.921
4.50238	0.921
4.54221	0.921
4.58204	0.925
4.62187	0.928
4.66169	0.935
4.70152	0.931
4.74135	0.936
4.78118	0.943
4.82101	0.946
4.86084	0.948
4.90067	0.95
4.9405	0.951
4.98032	0.953
5.02015	0.956
5.05998	0.958
5.09981	0.96
5.13964	0.96
5.17947	0.961
5.2193	0.963
5.25913	0.966
5.29895	0.968
5.33878	0.973
5.37861	0.978
5.41844	0.978
5.45827	0.978
5.4981	0.975
5.53793	0.966
5.57775	0.96
5.61758	0.955
5.65741	0.951
5.69724	0.95
5.73707	0.945
5.7769	0.933
5.81673	0.926
5.85656	0.921
5.89638	0.918
5.93621	0.913
5.97604	0.897
6.01587	0.878
6.0557	0.878
6.09553	0.877
6.13536	0.877
6.17519	0.878
6.21501	0.882
6.25484	0.892
6.29467	0.888
6.3345	0.88
6.37433	0.875
6.41416	0.855
6.45399	0.847
6.49382	0.799
6.53364	0.794
6.57347	0.755
6.6133	0.646
6.65313	0.501
6.69296	0.471
6.73279	0.491
6.77262	0.365
6.81244	0.3
6.85227	0.315
6.8921	0.328
6.93193	0.287
6.97176	0.267
7.01159	0.35
7.05142	0.405
7.09125	0.46
7.13107	0.541
7.1709	0.531
7.21073	0.416
7.25056	0.411
7.29039	0.401
7.33022	0.34
7.37005	0.423
7.40988	0.426
7.4497	0.377
7.48953	0.431
7.52936	0.461
7.56919	0.483
7.60902	0.355
7.64885	0.465
7.68868	0.509
7.72851	0.426
7.76833	0.325
7.80816	0.43
7.84799	0.465
7.88782	0.428
7.92765	0.435
7.96748	0.513
8.00731	0.646
8.04713	0.681
8.08696	0.669
8.12679	0.601
8.16662	0.534
8.20645	0.496
8.24628	0.488
8.28611	0.466
8.32594	0.541
8.36576	0.551
8.40559	0.591
8.44542	0.596
8.48525	0.485
8.52508	0.257
8.56491	0.224
8.60474	0.302
8.64457	0.397
8.68439	0.428
8.72422	0.411
8.76405	0.435
8.80388	0.254
8.84371	0.179
8.88354	0.199
8.92337	0.297
8.9632	0.284
9.00302	0.187
9.04285	0.129
9.08268	0.121
9.12251	0.099
9.16234	0.094
9.20217	0.073
9.242	0.079
9.28182	0.091
9.32165	0.107
9.36148	0.102
9.40131	0.079
9.44114	0.073
9.48097	0.071
9.5208	0.068
9.56063	0.064
9.60045	0.069
9.64028	0.091
9.68011	0.109
9.71994	0.119
9.75977	0.174
9.7996	0.184
9.83943	0.229
9.87926	0.299
9.91908	0.338
9.95891	0.302
9.99874	0.212
10.0386	0.184
10.0784	0.157
10.1182	0.2
10.1581	0.32
10.1979	0.378
10.2377	0.39
10.2775	0.416
10.3174	0.5
10.3572	0.569
10.397	0.614
10.4369	0.639
10.4767	0.659
10.5165	0.672
10.5563	0.684
10.5962	0.699
10.636	0.712
10.6758	0.72
10.7157	0.727
10.7555	0.735
10.7953	0.744
10.8351	0.75
10.875	0.755
10.9148	0.76
10.9546	0.765
10.9945	0.77
11.0343	0.767
11.0741	0.755
11.1139	0.691
11.1538	0.584
11.1936	0.579
11.2334	0.569
11.2733	0.578
11.3131	0.664
11.3529	0.724
11.3927	0.762
11.4326	0.779
11.4724	0.797
11.5122	0.8
11.5521	0.805
11.5919	0.807
11.6317	0.81
11.6715	0.813
11.7114	0.815
11.7512	0.807
11.791	0.81
11.8309	0.812
11.8707	0.807
11.9105	0.802
11.9503	0.795
11.9902	0.78
12.03	0.79
12.0698	0.8
12.1097	0.802
12.1495	0.799
12.1893	0.802
12.2291	0.797
12.269	0.795
12.3088	0.789
12.3486	0.777
12.3885	0.782
12.4283	0.779
12.4681	0.77
12.5079	0.767
12.5478	0.75
12.5876	0.747
12.6274	0.739
12.6673	0.73
12.7071	0.72
12.7469	0.705
12.7868	0.689
12.8266	0.681
12.8664	0.677
12.9062	0.657
12.9461	0.641
12.9859	0.627
13.0257	0.617
13.0656	0.596
13.1054	0.563
13.1452	0.548
13.185	0.514
13.2249	0.49
13.2647	0.461
13.3045	0.438
13.3444	0.415
13.3842	0.397
13.424	0.387
13.4638	0.38
13.5037	0.377
13.5435	0.38
13.5833	0.39
13.6232	0.406
13.663	0.415
13.7028	0.43
13.7426	0.45
13.7825	0.465
13.8223	0.468
13.8621	0.491
13.902	0.498
13.9418	0.513
13.9816	0.521
14.0214	0.529
14.0613	0.538
14.1011	0.541
14.1409	0.544
14.1808	0.549
14.2206	0.553
14.2604	0.558
14.3002	0.559
14.3401	0.561
14.3799	0.558
14.4197	0.556
14.4596	0.561
14.4994	0.561
14.5392	0.561
14.579	0.564
14.6189	0.561
14.6587	0.564
14.6985	0.564
14.7384	0.559
14.7782	0.559
14.818	0.558
14.8578	0.558
14.8977	0.554
14.9375	0.541
14.9773	0.538
15.0172	0.531
15.057	0.509
15.0968	0.47
15.1366	0.435
15.1765	0.438
15.2163	0.463
15.2561	0.493
15.296	0.518
15.3358	0.541
15.3756	0.553
15.4154	0.571
15.4553	0.583
15.4951	0.583
15.5349	0.571
15.5748	0.561
15.6146	0.551
15.6544	0.541
15.6942	0.544
15.7341	0.561
15.7739	0.569
15.8137	0.576
15.8536	0.586
15.8934	0.598
15.9332	0.599
15.973	0.607
