Infrared Spectrum: Dimethyl 5-nitroisophthalate
Formula: C 10 H 9 N O 6
CAS: 13290-96-5
State: gas
Origin: EPA-IR VAPOR PHASE LIBRARY
1/CM	ABSORBANCE
549.9	0.002301
559.547	0.002223
569.193	0.002246
578.84	0.002139
588.486	0.001991
598.133	0.001989
607.779	0.001835
617.426	0.001894
627.072	0.001801
636.719	0.001795
646.365	0.001987
656.012	0.002572
665.658	0.0031455
675.305	0.00282747
684.951	0.0028783
694.598	0.00398
704.245	0.00651
713.891	0.02533
723.538	0.06265
733.184	0.05433
742.831	0.01202
752.477	0.00561
762.124	0.00774
771.77	0.01197
781.417	0.00479
791.063	0.003158
800.71	0.00744
810.356	0.00681
820.003	0.0031033
829.649	0.00281209
839.296	0.0029431
848.943	0.0034525
858.589	0.0043
868.236	0.0058
877.882	0.00515
887.529	0.00596
897.175	0.00861
906.822	0.01009
916.468	0.00878
926.115	0.00991
935.761	0.00655
945.408	0.00396
955.054	0.00385
964.701	0.00607
974.347	0.00952
983.994	0.01523
993.64	0.03356
1003.29	0.05325
1012.93	0.02286
1022.58	0.00793
1032.23	0.00498
1041.87	0.00428
1051.52	0.00433
1061.17	0.00506
1070.81	0.00687
1080.46	0.01366
1090.11	0.01865
1099.75	0.02104
1109.4	0.02229
1119.05	0.01743
1128.69	0.01814
1138.34	0.03334
1147.99	0.05875
1157.63	0.04637
1167.28	0.02579
1176.92	0.02186
1186.57	0.02535
1196.22	0.03124
1205.86	0.03704
1215.51	0.05998
1225.16	0.12962
1234.8	0.27357
1244.45	0.29655
1254.1	0.20549
1263.74	0.07321
1273.39	0.03872
1283.04	0.03387
1292.68	0.06211
1302.33	0.1245
1311.98	0.12447
1321.62	0.05632
1331.27	0.0306
1340.92	0.03208
1350.56	0.04428
1360.21	0.04223
1369.86	0.02023
1379.5	0.01177
1389.15	0.01039
1398.79	0.00949
1408.44	0.00941
1418.09	0.01164
1427.73	0.01839
1437.38	0.03418
1447.03	0.03114
1456.67	0.02974
1466.32	0.02285
1475.97	0.0116
1485.61	0.00875
1495.26	0.00943
1504.91	0.0138
1514.55	0.01674
1524.2	0.01395
1533.85	0.01772
1543.49	0.04281
1553.14	0.08266
1562.79	0.04686
1572.43	0.01945
1582.08	0.01754
1591.73	0.01872
1601.37	0.01477
1611.02	0.01276
1620.67	0.01644
1630.31	0.01428
1639.96	0.00706
1649.6	0.00551
1659.25	0.00627
1668.9	0.00652
1678.54	0.00609
1688.19	0.00567
1697.84	0.00744
1707.48	0.01512
1717.13	0.02116
1726.78	0.02038
1736.42	0.03305
1746.07	0.14708
1755.72	0.2405
1765.36	0.07289
1775.01	0.01981
1784.66	0.02033
1794.3	0.01918
1803.95	0.00841
1813.6	0.00499
1823.24	0.00454
1832.89	0.00482
1842.54	0.00501
1852.18	0.00475
1861.83	0.00474
1871.47	0.00444
1881.12	0.00377
1890.77	0.0031611
1900.41	0.00282386
1910.06	0.002548
1919.71	0.002325
1929.35	0.002251
1939	0.002328
1948.65	0.0026676
1958.29	0.0030284
1967.94	0.0032546
1977.59	0.0031475
1987.23	0.0026918
1996.88	0.002537
2006.53	0.002626
2016.17	0.002544
2025.82	0.002413
2035.47	0.002409
2045.11	0.002518
2054.76	0.002532
2064.41	0.002447
2074.05	0.002414
2083.7	0.002426
2093.35	0.002497
2102.99	0.0026303
2112.64	0.002561
2122.28	0.002346
2131.93	0.002288
2141.58	0.002296
2151.22	0.002356
2160.87	0.002321
2170.52	0.002146
2180.16	0.001978
2189.81	0.001872
2199.46	0.001775
2209.1	0.00176
2218.75	0.00173
2228.4	0.0017
2238.04	0.00164
2247.69	0.00166
2257.34	0.00157
2266.98	0.00159
2276.63	0.0015
2286.28	0.00148
2295.92	0.00155
2305.57	0.00169
2315.22	0.00173
2324.86	0.00168
2334.51	0.001736
2344.16	0.0017
2353.8	0.00165
2363.45	0.00148
2373.09	0.0015
2382.74	0.00158
2392.39	0.00162
2402.03	0.00164
2411.68	0.00163
2421.33	0.00163
2430.97	0.00166
2440.62	0.00169
2450.27	0.00164
2459.91	0.00162
2469.56	0.00154
2479.21	0.0015
2488.85	0.00153
2498.5	0.00142
2508.15	0.00146
2517.79	0.00144
2527.44	0.00148
2537.09	0.00151
2546.73	0.00152
2556.38	0.00151
2566.03	0.00142
2575.67	0.00138
2585.32	0.00142
2594.96	0.00147
2604.61	0.00146
2614.26	0.00147
2623.9	0.00137
2633.55	0.00131
2643.2	0.00132
2652.84	0.00147
2662.49	0.0014
2672.14	0.0013
2681.78	0.00125
2691.43	0.00125
2701.08	0.00133
2710.72	0.00117
2720.37	0.00115
2730.02	0.00118
2739.66	0.00119
2749.31	0.0012
2758.96	0.00122
2768.6	0.00127
2778.25	0.00106
2787.9	0.00106
2797.54	0.00113
2807.19	0.00114
2816.84	0.00129
2826.48	0.00159
2836.13	0.002354
2845.77	0.00472
2855.42	0.00666
2865.07	0.00386
2874.71	0.0033948
2884.36	0.00397
2894.01	0.0051
2903.65	0.0059
2913.3	0.00603
2922.95	0.00567
2932.59	0.00527
2942.24	0.00623
2951.89	0.0124
2961.53	0.03854
2971.18	0.02498
2980.83	0.0067
2990.47	0.00551
3000.12	0.00729
3009.77	0.00845
3019.41	0.00611
3029.06	0.00573
3038.71	0.00602
3048.35	0.00412
3058	0.0029657
3067.64	0.0026842
3077.29	0.0030674
3086.94	0.00499
3096.58	0.00991
3106.23	0.00876
3115.88	0.0038
3125.52	0.00132
3135.17	0.00083
3144.82	0.00068
3154.46	0.0006
3164.11	0.0005
3173.76	0.00055
3183.4	0.00047
3193.05	0.00045
3202.7	0.00021
3212.34	0.00022
3221.99	0.0003
3231.64	0.00014
3241.28	0.00015
3250.93	0.00017
3260.58	0.00017
3270.22	0.00021
3279.87	6e-05
3289.52	0.00022
3299.16	0.00023
3308.81	0.00036
3318.45	0.00043
3328.1	0.00031
3337.75	0.00035
3347.39	0.00064
3357.04	0.00056
3366.69	0.00051
3376.33	0.00058
3385.98	0.00049
3395.63	0.00051
3405.27	0.00063
3414.92	0.00064
3424.57	0.00079
3434.21	0.00085
3443.86	0.00103
3453.51	0.00101
3463.15	0.00118
3472.8	0.001758
3482.45	0.002858
3492.09	0.0026961
3501.74	0.00158
3511.39	0.00121
3521.03	0.00119
3530.68	0.00123
3540.33	0.00112
3549.97	0.00104
3559.62	0.00107
3569.26	0.00111
3578.91	0.00112
3588.56	0.00113
3598.2	0.0012
3607.85	0.00109
3617.5	0.00109
3627.14	0.00111
3636.79	0.00117
3646.44	0.00118
3656.08	0.00111
3665.73	0.00122
3675.38	0.00126
3685.02	0.00119
3694.67	0.00129
3704.32	0.0012
3713.96	0.00125
3723.61	0.0012
3733.26	0.0012
3742.9	0.00119
3752.55	0.00119
3762.2	0.00135
3771.84	0.00124
3781.49	0.00124
3791.13	0.00135
3800.78	0.00129
3810.43	0.00148
3820.07	0.00154
3829.72	0.00147
3839.37	0.00137
3849.01	0.00136
3858.66	0.0013
3868.31	0.00137
3877.95	0.0014
3887.6	0.00139
3897.25	0.00135
3906.89	0.00138
3916.54	0.00135
3926.19	0.00139
3935.83	0.00159
3945.48	0.00144
3955.13	0.00154
3964.77	0.00152
3974.42	0.00147
3984.07	0.00146
3993.71	0.00153
