Infrared Spectrum: TRICHLORMETHIAZIDE
Formula: C8 H8 Cl3 N3 O4 S2
CAS: 133-67-5
State: SOLID (KBr DISC) VS KBr
Class: COBLENTZ III
Instrument: PERKIN-ELMER 21 (GRATING)
Instrument parameters: FILTER AT ABOUT 10 MICRONS
Sampling: TRANSMISSION
Resolution: 2
1/CM	TRANSMITTANCE
4000	0.9436
3991	0.9434
3982	0.9431
3973	0.9428
3964	0.9425
3955	0.9423
3946	0.9421
3937	0.9418
3928	0.9416
3919	0.9413
3910	0.941
3901	0.9409
3892	0.9411
3883	0.9414
3874	0.9417
3865	0.9418
3856	0.9421
3847	0.9425
3838	0.9428
3829	0.9431
3820	0.9434
3811	0.9436
3802	0.9437
3793	0.9437
3784	0.9437
3775	0.9437
3766	0.9437
3757	0.9432
3748	0.9427
3739	0.9421
3730	0.9416
3721	0.9406
3712	0.9395
3703	0.9384
3694	0.9371
3685	0.9351
3676	0.9328
3667	0.9286
3658	0.9158
3649	0.9035
3640	0.8913
3631	0.8748
3622	0.8548
3613	0.8435
3604	0.8346
3595	0.8252
3586	0.816
3577	0.809
3568	0.8019
3559	0.795
3550	0.7886
3541	0.7821
3532	0.7762
3523	0.7711
3514	0.7684
3505	0.7662
3496	0.7645
3487	0.7636
3478	0.763
3469	0.7621
3460	0.734
3451	0.6878
3442	0.6571
3433	0.6262
3424	0.5952
3415	0.564
3406	0.5327
3397	0.501
3388	0.4694
3379	0.4375
3370	0.3968
3361	0.378
3352	0.3727
3343	0.368
3334	0.3641
3325	0.3605
3316	0.3568
3307	0.3528
3298	0.3484
3289	0.3439
3280	0.3447
3271	0.3498
3262	0.3612
3253	0.3828
3244	0.4082
3235	0.4317
3226	0.4552
3217	0.4789
3208	0.5027
3199	0.5266
3190	0.5507
3181	0.5749
3172	0.5992
3163	0.6237
3154	0.6484
3145	0.6731
3136	0.6967
3127	0.7018
3118	0.7031
3109	0.7028
3100	0.6989
3091	0.6957
3082	0.6971
3073	0.7018
3064	0.7078
3055	0.7156
3046	0.7241
3037	0.7325
3028	0.7419
3019	0.7524
3010	0.7605
3001	0.7684
2992	0.7755
2983	0.7821
2974	0.7874
2965	0.7921
2956	0.7957
2947	0.7943
2938	0.7908
2929	0.7901
2920	0.7924
2911	0.8004
2902	0.8158
2893	0.833
2884	0.8412
2875	0.8449
2866	0.8475
2857	0.8501
2848	0.8537
2839	0.8574
2830	0.8628
2821	0.8708
2812	0.8803
2803	0.8884
2794	0.896
2785	0.9004
2776	0.9023
2767	0.9042
2758	0.9059
2749	0.9074
2740	0.9089
2731	0.9104
2722	0.9117
2713	0.9128
2704	0.9143
2695	0.9155
2686	0.9168
2677	0.9175
2668	0.9182
2659	0.9188
2650	0.9189
2641	0.9184
2632	0.9181
2623	0.9187
2614	0.9193
2605	0.9199
2596	0.9205
2587	0.9211
2578	0.9218
2569	0.9225
2560	0.9233
2551	0.9243
2542	0.9257
2533	0.9271
2524	0.9287
2515	0.9304
2506	0.9321
2497	0.9339
2488	0.9356
2479	0.9373
2470	0.9388
2461	0.9402
2452	0.9416
2443	0.943
2434	0.9444
2425	0.9458
2416	0.9471
2407	0.9486
2398	0.9503
2389	0.9523
2380	0.9542
2371	0.9553
2362	0.9559
2353	0.9556
2344	0.9544
2335	0.9525
2326	0.9508
2317	0.951
2308	0.954
2299	0.9566
2290	0.9582
2281	0.9588
2272	0.9585
2263	0.9582
2254	0.958
2245	0.958
2236	0.958
2227	0.958
2218	0.9597
2209	0.9616
2200	0.9631
2191	0.9642
2182	0.9648
2173	0.9643
2164	0.9628
2155	0.9613
2146	0.9613
2137	0.9616
2128	0.9621
2119	0.9627
2110	0.963
2101	0.9633
2092	0.9636
2083	0.9636
2074	0.9636
2065	0.964
2056	0.9644
2047	0.965
2038	0.9652
2029	0.9655
2020	0.9657
2011	0.9653
2002	0.9646
1993	0.9641
1984	0.9646
1975	0.9649
1966	0.9655
1957	0.9664
1948	0.9673
1939	0.9678
1930	0.9681
1921	0.9683
1912	0.9682
1903	0.9678
1894	0.9675
1885	0.9675
1876	0.9675
1867	0.9678
1858	0.968
1849	0.9685
1840	0.9684
1831	0.9649
1822	0.96
1813	0.9561
1804	0.9575
1795	0.9601
1786	0.9623
1777	0.9608
1768	0.959
1759	0.9563
1750	0.9533
1741	0.9499
1732	0.9464
1723	0.9425
1714	0.9384
1705	0.937
1696	0.9318
1687	0.9217
1678	0.918
1669	0.9054
1660	0.8887
1651	0.8563
1642	0.8302
1633	0.7521
1624	0.6519
1615	0.4328
1606	0.0466
1597	0.1479
1588	0.4664
1579	0.6253
1570	0.5826
1561	0.4815
1552	0.5122
1543	0.5906
1534	0.6724
1525	0.6412
1516	0.4018
1507	0.2843
1498	0.3209
1489	0.4341
1480	0.6056
1471	0.7088
1462	0.646
1453	0.7925
1444	0.8217
1435	0.8015
1426	0.7472
1417	0.7184
1408	0.7497
1399	0.8054
1390	0.784
1381	0.635
1372	0.5865
1363	0.3422
1354	0.103
1345	0.0647
1336	0.0751
1327	0.1378
1318	0.2928
1309	0.4428
1300	0.5717
1291	0.5449
1282	0.6195
1273	0.6112
1264	0.5817
1255	0.6739
1246	0.7058
1237	0.5555
1228	0.6906
1219	0.7097
1210	0.7192
1201	0.7326
1192	0.5424
1183	0.0837
1174	0.0352
1165	0.0633
1156	0.0889
1147	0.3738
1138	0.5836
1129	0.5003
1120	0.4819
1111	0.5935
1102	0.6775
1093	0.6471
1084	0.5884
1075	0.4527
1066	0.4794
1057	0.6374
1048	0.7326
1039	0.7605
1030	0.7821
1021	0.8111
1012	0.8238
1003	0.7201
994	0.633
985	0.7131
976	0.7408
967	0.5744
958	0.416
949	0.4575
940	0.5951
931	0.6249
922	0.6104
913	0.5887
904	0.5933
895	0.6439
886	0.6853
877	0.6878
868	0.6551
859	0.625
850	0.6775
841	0.7425
832	0.7425
823	0.7062
814	0.6355
805	0.5576
796	0.4686
787	0.5024
778	0.5308
769	0.5185
760	0.4655
751	0.4133
742	0.4328
733	0.4582
724	0.4865
715	0.5574
706	0.5362
697	0.5349
688	0.5103
679	0.4632
