Infrared Spectrum: Captan
Formula: C 9 H 8 Cl 3 N O 2 S
CAS: 133-06-2
State: gas
Instrument: HP-GC/MS/IRD
Origin: NIST Mass Spectrometry Data Center
1/CM	ABSORBANCE
550	0.0011808
562	0.000736
574	0.0006944
586	0.000128
598	0.000192
610	0.0003616
622	0.000304
634	0.0001568
646	0.000272
658	0.0006944
670	0.0014656
682	0.0033504
694	0.0025312
706	0.0012032
718	0.00152
730	0.0032352
742	0.0065152
754	0.0092384
766	0.0090912
778	0.0055776
790	0.0036704
802	0.0049856
814	0.0045824
826	0.001216
838	0.0004608
850	0.0003424
862	0.0003904
874	0.0008512
886	0.0007104
898	0.0004256
910	0.0002496
922	0.0001888
934	0.0001728
946	0.0001632
958	0.000144
970	0.000192
982	0.0003296
994	0.0006176
1006	0.0010432
1018	0.0013376
1030	0.0016672
1042	0.0024224
1054	0.0036992
1066	0.0022336
1078	0.0011488
1090	0.0016096
1102	0.0033344
1114	0.0065408
1126	0.0067296
1138	0.0037632
1150	0.002464
1162	0.0020544
1174	0.0019712
1186	0.0039872
1198	0.0050624
1210	0.0047456
1222	0.0062368
1234	0.0102112
1246	0.0193632
1258	0.017456
1270	0.0085088
1282	0.0036832
1294	0.0019232
1306	0.0016832
1318	0.0016192
1330	0.0012
1342	0.0010752
1354	0.0006976
1366	0.00032
1378	0.0002688
1390	0.0001984
1402	0.00016
1414	0.0002048
1426	0.0003744
1438	0.000944
1450	0.0012864
1462	0.0004992
1474	0.000176
1486	0.0001312
1498	8.32e-05
1510	5.76e-05
1522	8.96e-05
1534	6.08e-05
1546	7.68e-05
1558	5.76e-05
1570	7.36e-05
1582	7.68e-05
1594	6.72e-05
1606	0.0001056
1618	0.0001664
1630	0.0003488
1642	0.000496
1654	0.0003904
1666	0.0003008
1678	0.0003008
1690	0.0004704
1702	0.0006816
1714	0.0011456
1726	0.0024672
1738	0.0055808
1750	0.014928
1762	0.0314144
1774	0.0227936
1786	0.0077728
1798	0.0036576
1810	0.0029728
1822	0.0021248
1834	0.0011584
1846	0.0008
1858	0.0005376
1870	0.0003712
1882	0.0002688
1894	0.0002112
1906	0.000176
1918	0.0001664
1930	0.000144
1942	0.0001408
1954	0.000144
1966	0.000128
1978	0.0001184
1990	8.96e-05
2002	7.36e-05
2014	7.36e-05
2026	8.96e-05
2038	8.96e-05
2050	0.0001056
2062	7.36e-05
2074	9.92e-05
2086	6.08e-05
2098	4.8e-05
2110	8e-05
2122	5.12e-05
2134	7.36e-05
2146	7.36e-05
2158	6.08e-05
2170	6.08e-05
2182	7.36e-05
2194	5.76e-05
2206	6.72e-05
2218	0.0001312
2230	8.96e-05
2242	0.0001312
2254	0.0001568
2266	0.0001376
2278	0.0001664
2290	0.0001376
2302	0.0001568
2314	0.000128
2326	9.92e-05
2338	0.0001184
2350	0.0001792
2362	0.0001888
2374	0.0001824
2386	0.0001888
2398	0.0001408
2410	0.000128
2422	0.0001024
2434	0.000128
2446	0.0001056
2458	0.0001504
2470	9.6e-05
2482	0.0001024
2494	9.28e-05
2506	7.04e-05
2518	8.32e-05
2530	5.12e-05
2542	8.32e-05
2554	8.96e-05
2566	0.0001088
2578	6.08e-05
2590	0.000112
2602	7.04e-05
2614	9.92e-05
2626	0.0001024
2638	0.0001024
2650	0.0001024
2662	0.0001312
2674	0.0001184
2686	0.0001376
2698	8.64e-05
2710	0.0001024
2722	0.0001152
2734	8.32e-05
2746	0.0001504
2758	0.000128
2770	9.92e-05
2782	0.0001152
2794	0.0001664
2806	0.00016
2818	0.0002272
2830	0.0003328
2842	0.0004928
2854	0.0011808
2866	0.001664
2878	0.0010368
2890	0.0012
2902	0.001536
2914	0.001728
2926	0.0012992
2938	0.0015232
2950	0.0012832
2962	0.0014208
2974	0.0014912
2986	0.0008768
2998	0.0004832
3010	0.0003296
3022	0.0003392
3034	0.000528
3046	0.001856
3058	0.0020064
3070	0.0005568
3082	0.0003168
3094	0.0002016
3106	0.0001088
3118	8.96e-05
3130	8e-05
3142	0.0001344
3154	4.8e-05
3166	0.0001056
3178	8.64e-05
3190	1.6e-05
3202	0.0001088
3214	9.6e-05
3226	8.32e-05
3238	0
3250	4.8e-05
3262	0.0001024
3274	3.84e-05
3286	5.76e-05
3298	0.0001344
3310	9.92e-05
3322	3.84e-05
3334	0.0001184
3346	8.64e-05
3358	9.6e-05
3370	0.0001088
3382	8.32e-05
3394	6.72e-05
3406	9.28e-05
3418	0.0001312
3430	0.0001728
3442	0.000208
3454	0.0001824
3466	0.000112
3478	5.12e-05
3490	0.0001568
3502	0.0001472
3514	0.0001632
3526	0.0002112
3538	0.0003232
3550	0.0004096
3562	0.0004384
3574	0.0002848
3586	0.0001568
3598	0.00016
3610	0.0001344
3622	0.0001184
3634	0.000112
3646	8.64e-05
3658	0.0001184
3670	5.44e-05
3682	6.4e-05
3694	0.0001312
3706	9.6e-05
3718	0.0001216
3730	0.0001152
3742	0.0001376
3754	0.0001088
3766	0.0001568
3778	0.0001152
3790	7.36e-05
3802	0.0001024
3814	9.6e-06
3826	7.68e-05
3838	6.4e-05
