Infrared Spectrum: PENTACHLORO BENZENETHIOL
Formula: C6 H Cl5 S
CAS: 133-49-3
State: SOLID (OIL MULL)
Class: COBLENTZ
Instrument: Not specified, most likely a prism, grating, or hybrid spectrometer.
Sampling: TRANSMISSION
Resolution: 4
Origin: WYANDOTTE CHEMICALS CORP., WYANDOTTE, MICHIGAN, USA
MICROMETERS	TRANSMITTANCE
2.035	0.273
2.07491	0.288
2.11482	0.298
2.15473	0.301
2.19465	0.306
2.23456	0.299
2.27447	0.306
2.31438	0.329
2.35429	0.341
2.3942	0.355
2.43411	0.365
2.47403	0.373
2.51394	0.378
2.55385	0.403
2.59376	0.408
2.63367	0.435
2.67358	0.44
2.71349	0.44
2.75341	0.455
2.79332	0.458
2.83323	0.443
2.87314	0.45
2.91305	0.458
2.95296	0.467
2.99287	0.48
3.03279	0.48
3.0727	0.489
3.11261	0.487
3.15252	0.475
3.19243	0.474
3.23234	0.48
3.27225	0.443
3.31217	0.304
3.35208	0.031
3.39199	0.031
3.4319	0.035
3.47181	0.038
3.51172	0.11
3.55163	0.39
3.59155	0.517
3.63146	0.576
3.67137	0.559
3.71128	0.591
3.75119	0.591
3.7911	0.609
3.83101	0.616
3.87093	0.453
3.91084	0.524
3.95075	0.659
3.99066	0.7
4.03057	0.713
4.07048	0.718
4.11039	0.73
4.15031	0.733
4.19022	0.74
4.23013	0.737
4.27004	0.701
4.30995	0.757
4.34986	0.798
4.38977	0.82
4.42969	0.788
4.4696	0.793
4.50951	0.805
4.54942	0.809
4.58933	0.792
4.62924	0.807
4.66915	0.824
4.70907	0.834
4.74898	0.837
4.78889	0.819
4.8288	0.835
4.86871	0.855
4.90862	0.862
4.94853	0.872
4.98845	0.882
5.02836	0.894
5.06827	0.897
5.10818	0.901
5.14809	0.902
5.188	0.904
5.22791	0.911
5.26783	0.904
5.30774	0.894
5.34765	0.911
5.38756	0.921
5.42747	0.919
5.46738	0.938
5.50729	0.938
5.54721	0.929
5.58712	0.932
5.62703	0.953
5.66694	0.949
5.70685	0.951
5.74676	0.943
5.78667	0.963
5.82659	0.904
5.8665	0.921
5.90641	0.919
5.94632	0.943
5.98623	0.943
6.02614	0.917
6.06605	0.958
6.10597	0.963
6.14588	0.948
6.18579	0.946
6.2257	0.946
6.26561	0.948
6.30552	0.951
6.34543	0.922
6.38535	0.917
6.42526	0.892
6.46517	0.931
6.50508	0.909
6.54499	0.812
6.5849	0.859
6.62481	0.864
6.66473	0.82
6.70464	0.646
6.74455	0.341
6.78446	0.098
6.82437	0.113
6.86428	0.159
6.90419	0.261
6.94411	0.5
6.98402	0.711
7.02393	0.793
7.06384	0.797
7.10375	0.8
7.14366	0.745
7.18357	0.512
7.22349	0.234
7.2634	0.226
7.30331	0.375
7.34322	0.561
7.38313	0.396
7.42304	0.031
7.46295	0.036
7.50287	0.135
7.54278	0.388
7.58269	0.507
7.6226	0.53
7.66251	0.524
7.70242	0.448
7.74233	0.164
7.78225	0.378
7.82216	0.566
7.86207	0.624
7.90198	0.653
7.94189	0.735
7.9818	0.78
8.02171	0.787
8.06163	0.723
8.10154	0.502
8.14145	0.695
8.18136	0.767
8.22127	0.777
8.26118	0.78
8.30109	0.802
8.34101	0.804
8.38092	0.81
8.42083	0.827
8.46074	0.829
8.50065	0.802
8.54056	0.772
8.58047	0.767
8.62039	0.783
8.6603	0.804
8.70021	0.829
8.74012	0.857
8.78003	0.872
8.81994	0.887
8.85985	0.889
8.89977	0.877
8.93968	0.884
8.97959	0.899
9.0195	0.824
9.05941	0.762
9.09932	0.872
9.13923	0.897
9.17915	0.901
9.21906	0.877
9.25897	0.864
9.29888	0.884
9.33879	0.894
9.3787	0.892
9.41861	0.887
9.45853	0.886
9.49844	0.889
9.53835	0.889
9.57826	0.886
9.61817	0.881
9.65808	0.879
9.69799	0.881
9.73791	0.886
9.77782	0.894
9.81773	0.896
9.85764	0.901
9.89755	0.904
9.93746	0.907
9.97737	0.907
10.0173	0.906
10.0572	0.902
10.0971	0.897
10.137	0.879
10.1769	0.86
10.2168	0.847
10.2568	0.824
10.2967	0.814
10.3366	0.81
10.3765	0.802
10.4164	0.78
10.4563	0.743
10.4962	0.686
10.5361	0.629
10.576	0.587
10.616	0.604
10.6559	0.646
10.6958	0.643
10.7357	0.661
10.7756	0.718
10.8155	0.752
10.8554	0.762
10.8953	0.775
10.9352	0.815
10.9752	0.854
11.0151	0.877
11.055	0.899
11.0949	0.907
11.1348	0.912
11.1747	0.912
11.2146	0.912
11.2545	0.909
11.2945	0.917
11.3344	0.927
11.3743	0.892
11.4142	0.797
11.4541	0.8
11.494	0.845
11.5339	0.884
11.5738	0.907
11.6137	0.912
11.6537	0.911
11.6936	0.909
11.7335	0.912
11.7734	0.911
11.8133	0.887
11.8532	0.887
11.8931	0.907
11.933	0.922
11.9729	0.922
12.0129	0.926
12.0528	0.934
12.0927	0.939
12.1326	0.941
12.1725	0.941
12.2124	0.941
12.2523	0.938
12.2922	0.939
12.3321	0.922
12.3721	0.929
12.412	0.936
12.4519	0.946
12.4918	0.946
12.5317	0.949
12.5716	0.946
12.6115	0.943
12.6514	0.943
12.6914	0.943
12.7313	0.943
12.7712	0.938
12.8111	0.934
12.851	0.936
12.8909	0.936
12.9308	0.938
12.9707	0.939
13.0106	0.941
13.0506	0.939
13.0905	0.946
13.1304	0.966
13.1703	0.971
13.2102	0.974
13.2501	0.974
13.29	0.974
13.3299	0.973
13.3698	0.969
13.4098	0.966
13.4497	0.958
13.4896	0.938
13.5295	0.909
13.5694	0.886
13.6093	0.874
13.6492	0.862
13.6891	0.864
13.729	0.86
13.769	0.852
13.8089	0.824
13.8488	0.782
13.8887	0.733
13.9286	0.71
13.9685	0.723
14.0084	0.753
14.0483	0.792
14.0883	0.839
14.1282	0.871
14.1681	0.891
14.208	0.901
14.2479	0.865
14.2878	0.827
14.3277	0.788
14.3676	0.743
14.4075	0.685
14.4475	0.621
14.4874	0.505
14.5273	0.335
14.5672	0.229
14.6071	0.177
14.647	0.194
14.6869	0.214
14.7268	0.224
14.7667	0.209
14.8067	0.231
14.8466	0.303
14.8865	0.428
14.9264	0.574
14.9663	0.691
15.0062	0.743
15.0461	0.742
15.086	0.757
15.1259	0.795
15.1659	0.827
15.2058	0.837
15.2457	0.837
15.2856	0.837
15.3255	0.84
15.3654	0.84
15.4053	0.84
15.4452	0.827
15.4852	0.814
15.5251	0.8
15.565	0.798
15.6049	0.79
15.6448	0.788
15.6847	0.772
15.7246	0.76
15.7645	0.745
15.8044	0.723
15.8444	0.716
15.8843	0.701
15.9242	0.685
15.9641	0.666
16.004	0.659
