Infrared Spectrum: Folpet
Formula: C 9 H 4 Cl 3 N O 2 S
CAS: 133-07-3
State: gas
Instrument: HP-GC/MS/IRD
Origin: NIST Mass Spectrometry Data Center
1/CM	ABSORBANCE
550	0.0008018
562	0.0007676
574	0.0008892
586	0.0002432
598	6.46e-05
610	7.6e-05
622	0.000133
634	0.0001976
646	0.0002622
658	0.0003496
670	0.0004902
682	0.0012008
694	0.002356
706	0.0086184
718	0.0064562
730	0.0032262
742	0.0056126
754	0.0085538
766	0.0070262
778	0.0051946
790	0.0040014
802	0.0049628
814	0.0045448
826	0.001216
838	0.0006612
850	0.0008702
862	0.0022078
874	0.001045
886	0.0003572
898	0.0003268
910	0.0002888
922	0.0003192
934	0.0002052
946	0.0003382
958	0.0004408
970	0.000437
982	0.0008398
994	0.0024054
1006	0.006004
1018	0.0085652
1030	0.0046018
1042	0.0017632
1054	0.0008284
1066	0.0006308
1078	0.0005776
1090	0.0007942
1102	0.0007562
1114	0.0010412
1126	0.0014668
1138	0.0030362
1150	0.005092
1162	0.0056962
1174	0.001805
1186	0.0008968
1198	0.0011742
1210	0.00247
1222	0.0039672
1234	0.0091884
1246	0.0152304
1258	0.0209456
1270	0.0297958
1282	0.0068514
1294	0.0021204
1306	0.0016454
1318	0.0039406
1330	0.0062966
1342	0.00266
1354	0.0022306
1366	0.0011894
1378	0.0006384
1390	0.0004484
1402	0.0004712
1414	0.0003496
1426	0.0004332
1438	0.0003686
1450	0.0004446
1462	0.0008284
1474	0.0010412
1486	0.0003496
1498	0.0002698
1510	0.0003078
1522	0.000342
1534	0.0003762
1546	0.000361
1558	0.0003382
1570	0.0004142
1582	0.0004598
1594	0.0004294
1606	0.0008132
1618	0.0006042
1630	0.0002888
1642	0.000266
1654	0.000247
1666	0.0003154
1678	0.0003648
1690	0.000589
1702	0.0012122
1714	0.0025384
1726	0.0031046
1738	0.0032376
1750	0.005035
1762	0.019228
1774	0.0377796
1786	0.0107084
1798	0.0044916
1810	0.004085
1822	0.0011856
1834	0.000874
1846	0.000779
1858	0.0004408
1870	0.0003648
1882	0.0003078
1894	0.0002128
1906	0.0002052
1918	0.0002622
1930	0.0001976
1942	0.0002964
1954	0.0002964
1966	0.0002432
1978	0.0002926
1990	0.0001368
2002	0.0001596
2014	0.0002356
2026	0.0002546
2038	0.0002318
2050	0.0001292
2062	6.46e-05
2074	7.98e-05
2086	5.32e-05
2098	5.32e-05
2110	0.0001064
2122	0.0001254
2134	0.0001254
2146	0.0001178
2158	0.000114
2170	9.12e-05
2182	0.0001064
2194	2.28e-05
2206	6.46e-05
2218	4.56e-05
2230	8.36e-05
2242	0.0001064
2254	0.0001292
2266	0.0001748
2278	0.0001444
2290	0.0001482
2302	0.0001444
2314	0.0001216
2326	0.0001216
2338	0.000114
2350	9.88e-05
2362	6.46e-05
2374	8.36e-05
2386	7.6e-06
2398	0
2410	8.36e-05
2422	4.18e-05
2434	6.46e-05
2446	1.52e-05
2458	5.7e-05
2470	4.18e-05
2482	5.7e-05
2494	6.46e-05
2506	5.7e-05
2518	4.94e-05
2530	1.9e-05
2542	1.52e-05
2554	6.46e-05
2566	5.7e-05
2578	6.46e-05
2590	6.08e-05
2602	6.84e-05
2614	8.74e-05
2626	8.36e-05
2638	5.7e-05
2650	6.84e-05
2662	7.22e-05
2674	8.36e-05
2686	6.08e-05
2698	0.0001292
2710	0.0001026
2722	5.32e-05
2734	2.66e-05
2746	9.12e-05
2758	9.12e-05
2770	0.000114
2782	0.0001026
2794	6.46e-05
2806	6.84e-05
2818	2.66e-05
2830	7.6e-05
2842	7.22e-05
2854	7.22e-05
2866	9.88e-05
2878	3.42e-05
2890	8.74e-05
2902	0.0001102
2914	9.88e-05
2926	0.0001558
2938	0.0001102
2950	3.8e-05
2962	7.22e-05
2974	0.000114
2986	5.32e-05
2998	6.84e-05
3010	6.46e-05
3022	0.000133
3034	0.000228
3046	0.0002888
3058	0.0005776
3070	0.0005776
3082	0.000893
3094	0.0009842
3106	0.0002204
3118	9.88e-05
3130	0.0001026
3142	3.04e-05
3154	7.6e-05
3166	0.0001216
3178	4.94e-05
3190	0.0001368
3202	9.12e-05
3214	7.6e-06
3226	8.74e-05
3238	3.8e-05
3250	0.0001216
3262	3.42e-05
3274	4.18e-05
3286	9.12e-05
3298	7.6e-05
3310	0.0001026
3322	0.0001558
3334	0.0001102
3346	0.0001482
3358	0.0001406
3370	0.0001254
3382	0.0001064
3394	0.0001216
3406	7.98e-05
3418	9.88e-05
3430	0.000133
3442	0.0001254
3454	0.0002356
3466	0.0002128
3478	0.0002242
3490	0.0002242
3502	0.0001786
3514	0.0001862
3526	0.0003382
3538	0.0003572
3550	0.0004142
3562	0.000532
3574	0.0003648
3586	0.0002508
3598	0.0002508
3610	0.0001634
3622	0.0001406
3634	0.0001748
3646	8.36e-05
3658	7.98e-05
3670	0.0001178
3682	0.000152
3694	0.0001368
3706	0.000133
3718	0.000133
3730	0.00019
3742	0.0001292
3754	0.0001178
3766	0.000171
3778	0.0001748
3790	0.0001862
3802	3.8e-05
3814	0.000133
3826	5.32e-05
3838	7.98e-05
