Infrared Spectrum: ANHYDRIDE OF 4-NITRO-3-HYDROXYMERCURI-O-CRESOL
Formula: C7 H5 N O3 Hg
CAS: 133-58-4
State: SOLID (NUJOL MULL)
Class: COBLENTZ
Instrument: Not specified, most likely a prism, grating, or hybrid spectrometer.
Sampling: TRANSMISSION
Resolution: 4
MICROMETERS	TRANSMITTANCE
1.986	0.423
2.02177	0.421
2.05754	0.428
2.09331	0.44
2.12909	0.445
2.16486	0.454
2.20063	0.463
2.2364	0.463
2.27217	0.463
2.30794	0.451
2.34371	0.447
2.37948	0.449
2.41526	0.454
2.45103	0.465
2.4868	0.472
2.52257	0.482
2.55834	0.494
2.59411	0.505
2.62988	0.517
2.66566	0.52
2.70143	0.52
2.7372	0.52
2.77297	0.517
2.80874	0.515
2.84451	0.522
2.88028	0.524
2.91606	0.524
2.95183	0.526
2.9876	0.526
3.02337	0.526
3.05914	0.522
3.09491	0.515
3.13068	0.512
3.16645	0.512
3.20223	0.501
3.238	0.484
3.27377	0.468
3.30954	0.365
3.34531	0.162
3.38108	0.04
3.41685	0.015
3.45263	0.017
3.4884	0.02
3.52417	0.216
3.55994	0.444
3.59571	0.522
3.63148	0.552
3.66725	0.548
3.70302	0.561
3.7388	0.569
3.77457	0.58
3.81034	0.587
3.84611	0.592
3.88188	0.61
3.91765	0.618
3.95342	0.632
3.9892	0.643
4.02497	0.648
4.06074	0.664
4.09651	0.666
4.13228	0.66
4.16805	0.667
4.20382	0.669
4.2396	0.669
4.27537	0.678
4.31114	0.673
4.34691	0.678
4.38268	0.683
4.41845	0.692
4.45422	0.699
4.48999	0.701
4.52577	0.713
4.56154	0.709
4.59731	0.715
4.63308	0.72
4.66885	0.727
4.70462	0.725
4.74039	0.729
4.77617	0.73
4.81194	0.739
4.84771	0.741
4.88348	0.746
4.91925	0.748
4.95502	0.751
4.99079	0.755
5.02656	0.756
5.06234	0.762
5.09811	0.76
5.13388	0.769
5.16965	0.77
5.20542	0.765
5.24119	0.756
5.27696	0.758
5.31274	0.767
5.34851	0.776
5.38428	0.776
5.42005	0.783
5.45582	0.79
5.49159	0.79
5.52736	0.793
5.56314	0.798
5.59891	0.798
5.63468	0.79
5.67045	0.791
5.70622	0.802
5.74199	0.811
5.77776	0.812
5.81353	0.811
5.84931	0.807
5.88508	0.798
5.92085	0.8
5.95662	0.798
5.99239	0.795
6.02816	0.781
6.06393	0.772
6.09971	0.751
6.13548	0.751
6.17125	0.751
6.20702	0.723
6.24279	0.713
6.27856	0.699
6.31433	0.702
6.35011	0.699
6.38588	0.655
6.42165	0.687
6.45742	0.708
6.49319	0.65
6.52896	0.491
6.56473	0.279
6.6005	0.117
6.63628	0.031
6.67205	0.122
6.70782	0.25
6.74359	0.337
6.77936	0.346
6.81513	0.227
6.8509	0.096
6.88668	0.089
6.92245	0.104
6.95822	0.118
6.99399	0.174
7.02976	0.461
7.06553	0.564
7.1013	0.589
7.13707	0.501
7.17285	0.484
7.20862	0.309
7.24439	0.195
7.28016	0.176
7.31593	0.138
7.3517	0.222
7.38747	0.417
7.42325	0.377
7.45902	0.27
7.49479	0.155
7.53056	0.136
7.56633	0.169
7.6021	0.215
7.63787	0.192
7.67365	0.202
7.70942	0.227
7.74519	0.26
7.78096	0.391
7.81673	0.426
7.8525	0.312
7.88827	0.201
7.92404	0.138
7.95982	0.117
7.99559	0.236
8.03136	0.349
8.06713	0.451
8.1029	0.498
8.13867	0.54
8.17444	0.555
8.21022	0.571
8.24599	0.596
8.28176	0.599
8.31753	0.512
8.3533	0.291
8.38907	0.204
8.42484	0.342
8.46061	0.395
8.49639	0.47
8.53216	0.498
8.56793	0.5
8.6037	0.541
8.63947	0.561
8.67524	0.522
8.71101	0.562
8.74679	0.597
8.78256	0.62
8.81833	0.585
8.8541	0.582
8.88987	0.624
8.92564	0.657
8.96141	0.674
8.99719	0.692
9.03296	0.702
9.06873	0.711
9.1045	0.715
9.14027	0.722
9.17604	0.725
9.21181	0.72
9.24758	0.715
9.28336	0.727
9.31913	0.737
9.3549	0.737
9.39067	0.741
9.42644	0.741
9.46221	0.746
9.49798	0.748
9.53376	0.75
9.56953	0.75
9.6053	0.748
9.64107	0.744
9.67684	0.734
9.71261	0.704
9.74838	0.664
9.78415	0.664
9.81993	0.692
9.8557	0.704
9.89147	0.694
9.92724	0.664
9.96301	0.639
9.99878	0.627
10.0346	0.652
10.0703	0.687
10.1061	0.702
10.1419	0.72
10.1776	0.729
10.2134	0.727
10.2492	0.723
10.285	0.72
10.3207	0.704
10.3565	0.701
10.3923	0.688
10.428	0.673
10.4638	0.624
10.4996	0.55
10.5354	0.534
10.5711	0.575
10.6069	0.631
10.6427	0.676
10.6784	0.692
10.7142	0.708
10.75	0.723
10.7858	0.736
10.8215	0.746
10.8573	0.75
10.8931	0.751
10.9288	0.755
10.9646	0.763
11.0004	0.767
11.0362	0.769
11.0719	0.772
11.1077	0.774
11.1435	0.767
11.1792	0.758
11.215	0.758
11.2508	0.76
11.2866	0.763
11.3223	0.769
11.3581	0.776
11.3939	0.779
11.4296	0.783
11.4654	0.784
11.5012	0.784
11.537	0.79
11.5727	0.793
11.6085	0.793
11.6443	0.793
11.68	0.791
11.7158	0.791
11.7516	0.781
11.7874	0.77
11.8231	0.76
11.8589	0.751
11.8947	0.718
11.9304	0.653
11.9662	0.545
12.002	0.463
12.0378	0.393
12.0735	0.347
12.1093	0.232
12.1451	0.136
12.1808	0.132
12.2166	0.23
12.2524	0.368
12.2881	0.519
12.3239	0.599
12.3597	0.643
12.3955	0.68
12.4312	0.702
12.467	0.72
12.5028	0.734
12.5385	0.743
12.5743	0.751
12.6101	0.756
12.6459	0.763
12.6816	0.76
12.7174	0.763
12.7532	0.762
12.7889	0.763
12.8247	0.765
12.8605	0.762
12.8963	0.756
12.932	0.75
12.9678	0.756
13.0036	0.755
13.0393	0.758
13.0751	0.756
13.1109	0.75
13.1467	0.75
13.1824	0.75
13.2182	0.748
13.254	0.744
13.2897	0.732
13.3255	0.702
13.3613	0.657
13.3971	0.596
13.4328	0.498
13.4686	0.396
13.5044	0.409
13.5401	0.396
13.5759	0.339
13.6117	0.393
13.6475	0.505
13.6832	0.554
13.719	0.597
13.7548	0.604
13.7905	0.603
13.8263	0.599
13.8621	0.604
13.8979	0.618
13.9336	0.643
13.9694	0.666
14.0052	0.69
14.0409	0.701
14.0767	0.711
14.1125	0.72
14.1483	0.722
14.184	0.725
14.2198	0.729
14.2556	0.729
14.2913	0.725
14.3271	0.716
14.3629	0.709
14.3987	0.702
14.4344	0.704
14.4702	0.711
14.506	0.718
14.5417	0.722
14.5775	0.729
14.6133	0.73
14.6491	0.732
14.6848	0.732
14.7206	0.732
14.7564	0.73
14.7921	0.725
14.8279	0.718
14.8637	0.704
14.8995	0.683
14.9352	0.666
14.971	0.645
15.0068	0.617
15.0425	0.615
15.0783	0.631
15.1141	0.659
15.1499	0.678
15.1856	0.688
15.2214	0.69
15.2572	0.69
15.2929	0.69
15.3287	0.687
15.3645	0.687
15.4003	0.687
15.436	0.678
15.4718	0.66
