Infrared Spectrum: DIETHYL ETHYLMALONATE
Formula: C9 H16 O4
CAS: 133-13-1
State: LIQUID (UNDILUTED)
Class: COBLENTZ
Instrument: Not specified, most likely a grating spectrometer.
Sampling: TRANSMISSION
Path length: 0.00125 CM
Resolution: 4
Origin: ABBOTT LABORATORIES
MICROMETERS	TRANSMITTANCE
2.007	0.902
2.047	0.9
2.087	0.902
2.12699	0.9
2.16699	0.897
2.20699	0.89
2.24699	0.863
2.28699	0.853
2.32698	0.863
2.36698	0.866
2.40698	0.866
2.44698	0.874
2.48698	0.885
2.52697	0.897
2.56697	0.902
2.60697	0.899
2.64697	0.894
2.68696	0.874
2.72696	0.872
2.76696	0.868
2.80696	0.856
2.84696	0.825
2.88695	0.85
2.92695	0.866
2.96695	0.869
3.00695	0.866
3.04695	0.866
3.08694	0.859
3.12694	0.851
3.16694	0.843
3.20694	0.832
3.24694	0.785
3.28693	0.123
3.32693	0.162
3.36693	0.317
3.40693	0.399
3.44693	0.6
3.48692	0.728
3.52692	0.798
3.56692	0.832
3.60692	0.837
3.64691	0.851
3.68691	0.864
3.72691	0.869
3.76691	0.877
3.80691	0.869
3.8469	0.868
3.8869	0.879
3.9269	0.876
3.9669	0.866
4.0069	0.864
4.04689	0.863
4.08689	0.863
4.12689	0.866
4.16689	0.858
4.20689	0.866
4.24688	0.872
4.28688	0.871
4.32688	0.864
4.36688	0.856
4.40688	0.859
4.44687	0.863
4.48687	0.863
4.52687	0.869
4.56687	0.868
4.60687	0.858
4.64686	0.861
4.68686	0.863
4.72686	0.858
4.76686	0.85
4.80685	0.846
4.84685	0.846
4.88685	0.85
4.92685	0.853
4.96685	0.851
5.00684	0.848
5.04684	0.842
5.08684	0.845
5.12684	0.848
5.16684	0.848
5.20683	0.842
5.24683	0.827
5.28683	0.82
5.32683	0.815
5.36683	0.817
5.40682	0.819
5.44682	0.791
5.48682	0.749
5.52682	0.688
5.56682	0.617
5.60681	0.521
5.64681	0.125
5.68681	0.013
5.72681	0.013
5.76681	0.014
5.8068	0.042
5.8468	0.285
5.8868	0.402
5.9268	0.596
5.96679	0.666
6.00679	0.701
6.04679	0.739
6.08679	0.749
6.12679	0.762
6.16678	0.77
6.20678	0.789
6.24678	0.798
6.28678	0.801
6.32678	0.806
6.36677	0.807
6.40677	0.811
6.44677	0.804
6.48677	0.799
6.52677	0.793
6.56676	0.785
6.60676	0.778
6.64676	0.754
6.68676	0.7
6.72676	0.534
6.76675	0.372
6.80675	0.219
6.84675	0.164
6.88675	0.224
6.92674	0.229
6.96674	0.477
7.00674	0.583
7.04674	0.61
7.08674	0.584
7.12673	0.49
7.16673	0.351
7.20673	0.249
7.24673	0.241
7.28673	0.138
7.32672	0.096
7.36672	0.353
7.40672	0.278
7.44672	0.136
7.48672	0.13
7.52671	0.144
7.56671	0.203
7.60671	0.201
7.64671	0.104
7.68671	0.066
7.7267	0.04
7.7667	0.037
7.8067	0.043
7.8467	0.043
7.8867	0.045
7.92669	0.024
7.96669	0.017
8.00669	0.024
8.04669	0.034
8.08668	0.042
8.12668	0.029
8.16668	0.027
8.20668	0.026
8.24668	0.022
8.28667	0.019
8.32667	0.019
8.36667	0.019
8.40667	0.022
8.44667	0.019
8.48666	0.017
8.52666	0.019
8.56666	0.021
8.60666	0.026
8.64666	0.022
8.68665	0.017
8.72665	0.027
8.76665	0.07
8.80665	0.144
8.84665	0.185
8.88664	0.2
8.92664	0.161
8.96664	0.127
9.00664	0.127
9.04663	0.148
9.08663	0.138
9.12663	0.097
9.16663	0.091
9.20663	0.099
9.24662	0.169
9.28662	0.418
9.32662	0.495
9.36662	0.532
9.40662	0.509
9.44661	0.429
9.48661	0.302
9.52661	0.162
9.56661	0.157
9.60661	0.228
9.6466	0.221
9.6866	0.114
9.7266	0.076
9.7666	0.06
9.8066	0.076
9.84659	0.138
9.88659	0.286
9.92659	0.416
9.96659	0.553
10.0066	0.607
10.0466	0.684
10.0866	0.71
10.1266	0.731
10.1666	0.754
10.2066	0.755
10.2466	0.75
10.2866	0.716
10.3266	0.672
10.3666	0.651
10.4066	0.635
10.4466	0.622
10.4866	0.612
10.5266	0.607
10.5666	0.617
10.6066	0.641
10.6466	0.674
10.6865	0.701
10.7265	0.747
10.7665	0.791
10.8065	0.807
10.8465	0.827
10.8865	0.83
10.9265	0.837
10.9665	0.838
11.0065	0.835
11.0465	0.827
11.0865	0.814
11.1265	0.801
11.1665	0.786
11.2065	0.781
11.2465	0.786
11.2865	0.793
11.3265	0.793
11.3665	0.78
11.4065	0.763
11.4465	0.723
11.4865	0.657
11.5265	0.579
11.5665	0.514
11.6065	0.496
11.6465	0.495
11.6865	0.511
11.7265	0.548
11.7665	0.587
11.8065	0.656
11.8465	0.708
11.8865	0.739
11.9265	0.745
11.9665	0.741
12.0065	0.719
12.0465	0.701
12.0865	0.69
12.1265	0.687
12.1665	0.692
12.2065	0.693
12.2465	0.679
12.2865	0.662
12.3265	0.648
12.3665	0.618
12.4065	0.62
12.4465	0.625
12.4865	0.627
12.5265	0.648
12.5665	0.654
12.6065	0.659
12.6464	0.654
12.6864	0.64
12.7264	0.607
12.7664	0.581
12.8064	0.57
12.8464	0.566
12.8864	0.596
12.9264	0.628
12.9664	0.666
13.0064	0.703
13.0464	0.719
13.0864	0.747
13.1264	0.758
13.1664	0.771
13.2064	0.775
13.2464	0.776
13.2864	0.778
13.3264	0.778
13.3664	0.776
13.4064	0.776
13.4464	0.768
13.4864	0.765
13.5264	0.767
13.5664	0.763
13.6064	0.762
13.6464	0.757
13.6864	0.754
13.7264	0.75
13.7664	0.745
13.8064	0.741
13.8464	0.736
13.8864	0.732
13.9264	0.724
13.9664	0.714
14.0064	0.71
14.0464	0.701
14.0864	0.703
14.1264	0.695
14.1664	0.688
14.2064	0.682
14.2464	0.675
14.2864	0.667
14.3264	0.657
14.3664	0.656
14.4064	0.654
14.4464	0.651
14.4864	0.651
14.5264	0.653
14.5663	0.656
14.6063	0.659
14.6463	0.659
14.6863	0.657
14.7263	0.656
14.7663	0.657
14.8063	0.657
14.8463	0.657
14.8863	0.657
14.9263	0.657
14.9663	0.657
15.0063	0.654
15.0463	0.651
15.0863	0.653
15.1263	0.649
15.1663	0.648
15.2063	0.646
15.2463	0.644
15.2863	0.635
15.3263	0.63
15.3663	0.63
15.4063	0.618
15.4463	0.614
15.4863	0.604
