Infrared Spectrum: Chloramben
Formula: C 7 H 5 Cl 2 N O 2
CAS: 133-90-4
State: gas
Instrument: HP-GC/MS/IRD
Origin: NIST Mass Spectrometry Data Center
1/CM	ABSORBANCE
550	0.0075516
562	0.008381
574	0.012325
586	0.012151
598	0.0133806
610	0.0144072
622	0.0087348
634	0.0068382
646	0.0086014
658	0.0198708
670	0.0132588
682	0.004582
694	0.0043848
706	0.004234
718	0.003683
730	0.0035786
742	0.0039208
754	0.0043558
766	0.0054056
778	0.0070412
790	0.004437
802	0.0030566
814	0.0023722
826	0.002175
838	0.0044544
850	0.012209
862	0.008816
874	0.0016878
886	0.0005684
898	0.0004408
910	0.0005626
922	0.0009164
934	0.001508
946	0.0035844
958	0.0088392
970	0.0068556
982	0.0014152
994	0.0002378
1006	0.0001508
1018	0.000609
1030	0.002436
1042	0.0066816
1054	0.0059798
1066	0.0036076
1078	0.0051852
1090	0.0119712
1102	0.021054
1114	0.0262218
1126	0.0384656
1138	0.0472294
1150	0.0333094
1162	0.0163038
1174	0.0077546
1186	0.0042862
1198	0.0034278
1210	0.0065888
1222	0.01015
1234	0.0053534
1246	0.0037642
1258	0.0033118
1270	0.0056724
1282	0.0093612
1294	0.0114956
1306	0.0107184
1318	0.014906
1330	0.0202536
1342	0.0205726
1354	0.015225
1366	0.0111592
1378	0.0089784
1390	0.0050344
1402	0.0046632
1414	0.0115652
1426	0.0145116
1438	0.0084854
1450	0.0122322
1462	0.0115478
1474	0.0040078
1486	0.0021692
1498	0.0016762
1510	0.001305
1522	0.0008584
1534	0.0010092
1546	0.0021924
1558	0.0058
1570	0.0143666
1582	0.0153816
1594	0.0119944
1606	0.022649
1618	0.0327584
1630	0.0173594
1642	0.0062814
1654	0.0033234
1666	0.0024302
1678	0.0019372
1690	0.002001
1702	0.0026564
1714	0.0039324
1726	0.0074356
1738	0.0132414
1750	0.0232058
1762	0.0474498
1774	0.052838
1786	0.0236466
1798	0.0149408
1810	0.0061074
1822	0.0026912
1834	0.0012702
1846	0.0005858
1858	0.0002552
1870	0.0001334
1882	6.38e-05
1894	1.74e-05
1906	1.16e-05
1918	4.06e-05
1930	5.22e-05
1942	4.06e-05
1954	3.48e-05
1966	9.28e-05
1978	0.0001044
1990	0.0001218
2002	0.0001218
2014	1.74e-05
2026	3.48e-05
2038	1.16e-05
2050	2.9e-05
2062	7.54e-05
2074	0.000116
2086	0.0001914
2098	0.0001914
2110	0.0001624
2122	0.0001856
2134	0.0001914
2146	0.0001508
2158	0.0001566
2170	0.0001508
2182	0.0001914
2194	0.0001972
2206	0.0001682
2218	0.0002088
2230	0.0002378
2242	0.0002436
2254	0.0002668
2266	0.0002784
2278	0.0002668
2290	0.0002378
2302	0.0002668
2314	0.0003132
2326	0.0003306
2338	0.0003132
2350	0.0002958
2362	0.0003422
2374	0.0003306
2386	0.0003422
2398	0.0002784
2410	0.0002436
2422	0.000203
2434	0.0001798
2446	0.0001914
2458	0.0001798
2470	0.000174
2482	0.0001566
2494	0.0001682
2506	0.0001392
2518	0.000174
2530	0.0001972
2542	0.000232
2554	0.0002726
2566	0.0003944
2578	0.0004408
2590	0.0003538
2602	0.0002378
2614	0.0001856
2626	0.000145
2638	0.0001276
2650	0.0001566
2662	0.0001914
2674	0.0002436
2686	0.0002378
2698	0.0003074
2710	0.0003538
2722	0.0003364
2734	0.0002552
2746	0.0002088
2758	0.0001566
2770	0.0001566
2782	0.0001972
2794	0.0001972
2806	0.0001566
2818	0.0001624
2830	0.000174
2842	0.0002726
2854	0.0002784
2866	0.0003016
2878	0.00029
2890	0.0003712
2902	0.0003364
2914	0.0003132
2926	0.0002668
2938	0.0002552
2950	0.0002552
2962	0.0002842
2974	0.000348
2986	0.0003828
2998	0.0003654
3010	0.000406
3022	0.0004524
3034	0.0004814
3046	0.0004756
3058	0.0007192
3070	0.0005626
3082	0.0003828
3094	0.0005568
3106	0.0004524
3118	0.000319
3130	0.000406
3142	0.0004408
3154	0.0004872
3166	0.0004524
3178	0.000551
3190	0.000493
3202	0.0004408
3214	0.0003886
3226	0.0003828
3238	0.00029
3250	0.0002204
3262	0.000203
3274	0.000174
3286	0.000203
3298	0.0001914
3310	0.0001972
3322	0.0002088
3334	0.0002204
3346	0.0002842
3358	0.0002958
3370	0.000522
3382	0.0007946
3394	0.0017342
3406	0.004524
3418	0.0074298
3430	0.0051156
3442	0.0021808
3454	0.0012818
3466	0.001044
3478	0.001334
3490	0.0024998
3502	0.0045936
3514	0.0059392
3526	0.004843
3538	0.0035844
3550	0.0038686
3562	0.0157412
3574	0.025172
3586	0.008903
3598	0.0019256
3610	0.0012354
3622	0.0009106
3634	0.000493
3646	0.0004002
3658	0.0003596
3670	0.0003596
3682	0.0002726
3694	0.0003364
3706	0.0002726
3718	0.0003016
3730	0.0002668
3742	0.0002378
3754	0.0002668
3766	0.0002784
3778	0.0002726
3790	0.0003016
3802	0.00029
3814	0.00029
3826	0.000319
3838	0.000348
