Infrared Spectrum: 3,5-DIIODO-2-HYDROXYBENZOIC ACID
Formula: C7 H4 I2 O3
CAS: 133-91-5
State: SOLID (MINERAL OIL MULL)
Melting point: 230-232 C
Class: COBLENTZ
Instrument: Not specified, most likely a prism, grating, or hybrid spectrometer.
Sampling: TRANSMISSION
Resolution: 4
Origin: WYANDOTTE CHEMICALS CORP., WYANDOTTE, MICHIGAN, USA
MICROMETERS	TRANSMITTANCE
2.019	0.355
2.05622	0.373
2.09343	0.38
2.13065	0.39
2.16786	0.395
2.20508	0.397
2.2423	0.398
2.27951	0.404
2.31673	0.428
2.35394	0.437
2.39116	0.45
2.42838	0.454
2.46559	0.457
2.50281	0.462
2.54002	0.484
2.57724	0.496
2.61446	0.514
2.65167	0.538
2.68889	0.549
2.7261	0.556
2.76332	0.545
2.80054	0.464
2.83775	0.33
2.87497	0.291
2.91218	0.338
2.9494	0.342
2.98662	0.341
3.02383	0.3
3.06105	0.275
3.09826	0.255
3.13548	0.241
3.1727	0.218
3.20991	0.21
3.24713	0.18
3.28434	0.16
3.32156	0.14
3.35877	0.054
3.39599	0.032
3.43321	0.035
3.47042	0.043
3.50764	0.048
3.54485	0.232
3.58207	0.341
3.61929	0.397
3.6565	0.411
3.69372	0.411
3.73093	0.442
3.76815	0.465
3.80537	0.485
3.84258	0.489
3.8798	0.478
3.91701	0.501
3.95423	0.523
3.99145	0.526
4.02866	0.556
4.06588	0.59
4.10309	0.609
4.14031	0.616
4.17753	0.635
4.21474	0.641
4.25196	0.629
4.28917	0.661
4.32639	0.683
4.36361	0.722
4.40082	0.735
4.43804	0.727
4.47525	0.735
4.51247	0.749
4.54969	0.761
4.5869	0.763
4.62412	0.763
4.66133	0.777
4.69855	0.781
4.73577	0.792
4.77298	0.8
4.8102	0.797
4.84741	0.811
4.88463	0.828
4.92185	0.83
4.95906	0.838
4.99628	0.844
5.03349	0.858
5.07071	0.867
5.10793	0.867
5.14514	0.876
5.18236	0.881
5.21957	0.898
5.25679	0.904
5.29401	0.908
5.33122	0.919
5.36844	0.919
5.40565	0.929
5.44287	0.926
5.48009	0.923
5.5173	0.917
5.55452	0.919
5.59173	0.864
5.62895	0.85
5.66617	0.88
5.70338	0.87
5.7406	0.856
5.77781	0.755
5.81503	0.548
5.85225	0.323
5.88946	0.367
5.92668	0.429
5.96389	0.426
6.00111	0.453
6.03832	0.479
6.07554	0.512
6.11276	0.487
6.14997	0.468
6.18719	0.602
6.2244	0.591
6.26162	0.336
6.29884	0.526
6.33605	0.629
6.37327	0.685
6.41048	0.713
6.4477	0.724
6.48492	0.769
6.52213	0.763
6.55935	0.757
6.59656	0.722
6.63378	0.69
6.671	0.68
6.70821	0.624
6.74543	0.493
6.78264	0.264
6.81986	0.207
6.85708	0.174
6.89429	0.135
6.93151	0.137
6.96872	0.177
7.00594	0.174
7.04316	0.18
7.08037	0.309
7.11759	0.383
7.1548	0.316
7.19202	0.325
7.22924	0.328
7.26645	0.454
7.30367	0.518
7.34088	0.582
7.3781	0.552
7.41532	0.506
7.45253	0.492
7.48975	0.495
7.52696	0.509
7.56418	0.501
7.6014	0.426
7.63861	0.295
7.67583	0.264
7.71304	0.267
7.75026	0.327
7.78748	0.428
7.82469	0.386
7.86191	0.595
7.89912	0.633
7.93634	0.601
7.97356	0.465
8.01077	0.376
8.04799	0.316
8.0852	0.266
8.12242	0.174
8.15964	0.123
8.19685	0.25
8.23407	0.44
8.27128	0.543
8.3085	0.595
8.34572	0.574
8.38293	0.492
8.42015	0.352
8.45736	0.261
8.49458	0.165
8.5318	0.13
8.56901	0.172
8.60623	0.261
8.64344	0.319
8.68066	0.38
8.71787	0.476
8.75509	0.532
8.79231	0.576
8.82952	0.605
8.86674	0.629
8.90395	0.641
8.94117	0.562
8.97839	0.587
9.0156	0.615
9.05282	0.548
9.09003	0.596
9.12725	0.632
9.16447	0.651
9.20168	0.649
9.2389	0.652
9.27611	0.679
9.31333	0.702
9.35055	0.719
9.38776	0.735
9.42498	0.744
9.46219	0.757
9.49941	0.761
9.53663	0.763
9.57384	0.763
9.61106	0.766
9.64827	0.775
9.68549	0.774
9.72271	0.78
9.75992	0.783
9.79714	0.797
9.83435	0.8
9.87157	0.809
9.90879	0.817
9.946	0.819
9.98322	0.822
10.0204	0.827
10.0576	0.828
10.0949	0.833
10.1321	0.841
10.1693	0.844
10.2065	0.845
10.2437	0.844
10.2809	0.845
10.3182	0.845
10.3554	0.845
10.3926	0.847
10.4298	0.85
10.467	0.85
10.5042	0.85
10.5415	0.85
10.5787	0.85
10.6159	0.844
10.6531	0.841
10.6903	0.833
10.7275	0.817
10.7648	0.816
10.802	0.806
10.8392	0.8
10.8764	0.777
10.9136	0.764
10.9508	0.75
10.988	0.727
11.0253	0.702
11.0625	0.671
11.0997	0.651
11.1369	0.635
11.1741	0.61
11.2113	0.604
11.2486	0.601
11.2858	0.58
11.323	0.367
11.3602	0.317
11.3974	0.367
11.4346	0.397
11.4719	0.44
11.5091	0.47
11.5463	0.493
11.5835	0.51
11.6207	0.535
11.6579	0.521
11.6952	0.518
11.7324	0.56
11.7696	0.593
11.8068	0.621
11.844	0.651
11.8812	0.672
11.9184	0.69
11.9557	0.708
11.9929	0.725
12.0301	0.733
12.0673	0.738
12.1045	0.739
12.1417	0.747
12.179	0.757
12.2162	0.76
12.2534	0.752
12.2906	0.721
12.3278	0.685
12.365	0.61
12.4023	0.503
12.4395	0.45
12.4767	0.521
12.5139	0.562
12.5511	0.54
12.5883	0.451
12.6256	0.327
12.6628	0.266
12.7	0.42
12.7372	0.657
12.7744	0.721
12.8116	0.728
12.8488	0.716
12.8861	0.691
12.9233	0.671
12.9605	0.64
12.9977	0.61
13.0349	0.568
13.0721	0.524
13.1094	0.492
13.1466	0.461
13.1838	0.443
13.221	0.44
13.2582	0.451
13.2954	0.479
13.3327	0.506
13.3699	0.535
13.4071	0.571
13.4443	0.595
13.4815	0.602
13.5187	0.621
13.556	0.638
13.5932	0.651
13.6304	0.657
13.6676	0.666
13.7048	0.672
13.742	0.682
13.7792	0.685
13.8165	0.672
13.8537	0.679
13.8909	0.677
13.9281	0.688
13.9653	0.697
14.0025	0.7
14.0398	0.699
14.077	0.686
14.1142	0.693
14.1514	0.693
14.1886	0.679
14.2258	0.624
14.2631	0.56
14.3003	0.484
14.3375	0.429
14.3747	0.39
14.4119	0.372
14.4491	0.362
14.4864	0.358
14.5236	0.336
14.5608	0.317
14.598	0.305
14.6352	0.275
14.6724	0.257
14.7096	0.255
14.7469	0.299
14.7841	0.342
14.8213	0.386
14.8585	0.411
14.8957	0.434
14.9329	0.45
14.9702	0.445
15.0074	0.445
15.0446	0.425
15.0818	0.4
15.119	0.387
15.1562	0.4
15.1935	0.425
15.2307	0.445
15.2679	0.467
15.3051	0.478
15.3423	0.484
15.3795	0.492
15.4167	0.489
15.454	0.49
15.4912	0.49
15.5284	0.495
15.5656	0.5
15.6028	0.498
15.64	0.503
15.6773	0.509
15.7145	0.512
15.7517	0.514
15.7889	0.51
15.8261	0.509
15.8633	0.504
15.9006	0.501
15.9378	0.496
15.975	0.487
