Infrared Spectrum: Indole-1-carboxylic acid, ethyl ester
Formula: C11 H11 N O2
CAS: 13307-67-0
State: SOLUTION (10% CCl4 FOR 3800-1335, 10% CS2 FOR 1335-450 CM^-^1)
Boiling point: 136 C AT 0.4 mmHg
Class: COBLENTZ III
Instrument: DOW KBr FOREPRISM-GRATING
Instrument parameters: BLAZED AT 3.5, 12.0, 20.0 MICRON AND CHANGED AT 5.0, 7.5, 14.9 MICRON
Sampling: TRANSMISSION
Path length: 0.011 CM, 0.011 CM
Resolution: 2
Origin: DOW CHEMICAL COMPANY
1/CM	TRANSMITTANCE
3794	0.9147
3785	0.9144
3776	0.9143
3767	0.9141
3758	0.9139
3749	0.9137
3740	0.9134
3731	0.9152
3722	0.9154
3713	0.916
3704	0.9176
3695	0.9138
3686	0.9053
3677	0.9044
3668	0.909
3659	0.9102
3650	0.9105
3641	0.9118
3632	0.9143
3623	0.9124
3614	0.9097
3605	0.9069
3596	0.9048
3587	0.9109
3578	0.9081
3569	0.8963
3560	0.9044
3551	0.9059
3542	0.9061
3533	0.9063
3524	0.9043
3515	0.9035
3506	0.9019
3497	0.8966
3488	0.8784
3479	0.8193
3470	0.8503
3461	0.8486
3452	0.8504
3443	0.8553
3434	0.8598
3425	0.8613
3416	0.8632
3407	0.8642
3398	0.8664
3389	0.8726
3380	0.8755
3371	0.8812
3362	0.8878
3353	0.8891
3344	0.8905
3335	0.8893
3326	0.8935
3317	0.8927
3308	0.8934
3299	0.8925
3290	0.8931
3281	0.8932
3272	0.8946
3263	0.8945
3254	0.8951
3245	0.8916
3236	0.891
3227	0.8884
3218	0.8819
3209	0.8778
3200	0.8745
3191	0.8742
3182	0.8706
3173	0.8643
3164	0.8211
3155	0.7601
3146	0.8119
3137	0.8367
3128	0.7738
3119	0.7721
3110	0.7922
3101	0.8224
3092	0.8252
3083	0.7268
3074	0.6376
3065	0.6586
3056	0.5793
3047	0.7053
3038	0.6533
3029	0.757
3020	0.7665
3011	0.6675
3002	0.5562
2993	0.4261
2984	0.3514
2975	0.5345
2966	0.5964
2957	0.6815
2948	0.7392
2939	0.6659
2930	0.661
2921	0.7246
2912	0.6847
2903	0.7201
2894	0.7878
2885	0.8205
2876	0.8121
2867	0.8036
2858	0.8366
2849	0.8486
2840	0.8631
2831	0.8662
2822	0.8673
2813	0.8746
2804	0.8818
2795	0.8847
2786	0.8827
2777	0.8769
2768	0.8744
2759	0.8793
2750	0.8776
2741	0.8751
2732	0.8735
2723	0.8672
2714	0.8708
2705	0.8746
2696	0.8811
2687	0.8888
2678	0.8921
2669	0.8897
2660	0.8865
2651	0.8855
2642	0.8745
2633	0.868
2624	0.8818
2615	0.8881
2606	0.8919
2597	0.8931
2588	0.8874
2579	0.8858
2570	0.886
2561	0.8856
2552	0.8826
2543	0.8893
2534	0.8965
2525	0.9012
2516	0.9013
2507	0.8964
2498	0.8931
2489	0.8917
2480	0.8974
2471	0.9021
2462	0.9045
2453	0.9057
2444	0.9075
2435	0.9073
2426	0.8921
2417	0.8808
2408	0.8926
2399	0.8984
2390	0.8992
2381	0.904
2372	0.9082
2363	0.9061
2354	0.9106
2345	0.9121
2336	0.9056
2327	0.9078
2318	0.91
2309	0.9072
2300	0.9047
2291	0.9058
2282	0.9058
2273	0.9052
2264	0.9041
2255	0.9014
2246	0.8976
2237	0.8954
2228	0.8939
2219	0.8969
2210	0.9017
2201	0.9021
2192	0.9032
2183	0.901
2174	0.8996
2165	0.898
2156	0.9017
2147	0.9051
2138	0.904
2129	0.9011
2120	0.8995
2111	0.899
2102	0.904
2093	0.8995
2084	0.8966
2075	0.8962
2066	0.9028
2057	0.9008
2048	0.8952
2039	0.8987
2030	0.9027
2021	0.9037
2012	0.902
2003	0.8982
1994	0.8625
1985	0.8799
1976	0.8838
1967	0.8826
1958	0.8847
1949	0.8815
1940	0.8594
1931	0.8292
1922	0.8592
1913	0.8339
1904	0.7902
1895	0.8247
1886	0.8538
1877	0.8513
1868	0.8408
1859	0.8433
1850	0.8275
1841	0.8211
1832	0.8143
1823	0.7836
1814	0.7896
1805	0.7736
1796	0.7261
1787	0.6707
1778	0.6683
1769	0.5293
1760	0.2299
1751	0.0059
1742	0.0008
1733	0.0006
1724	0.1353
1715	0.2915
1706	0.4789
1697	0.5908
1688	0.6676
1679	0.7074
1670	0.731
1661	0.7606
1652	0.7602
1643	0.7235
1634	0.7257
1625	0.7663
1616	0.7678
1607	0.6771
1598	0.642
1589	0.6238
1580	0.6562
1571	0.7335
1562	0.7107
1553	0.691
1544	0.4073
1535	0.2776
1526	0.6981
1517	0.7399
1508	0.7598
1499	0.7173
1490	0.6024
1481	0.2248
1472	0.1719
1463	0.2016
1454	0.0002
1445	0.1514
1436	0.3719
1427	0.3974
1418	0.2605
1409	0.0357
1400	0.0667
1391	0.1543
1382	0.0058
1373	0.1902
1364	0.3547
1355	0.3597
1346	0
1337	0.0309
1328	0.0114
1319	0.0372
1310	0.3799
1301	0.2439
1292	0.4678
1283	0.613
1274	0.561
1265	0.6156
1256	0.3951
1247	0.0115
1238	0.0247
1229	0.3655
1220	0.5741
1211	0.0113
1202	0.4445
1193	0.6281
1184	0.4936
1175	0.0603
1166	0.2956
1157	0.4245
1148	0.3764
1139	0.7337
1130	0.7524
1121	0.4491
1112	0.3388
1103	0.6737
1094	0.3769
1085	0.4421
1076	0.0607
1067	0.65
1058	0.5002
1049	0.0343
1040	0.0955
1031	0.1709
1022	0.5905
1013	0.2803
1004	0.6136
995	0.6915
986	0.7415
977	0.7374
968	0.8301
959	0.8536
950	0.8583
941	0.8545
932	0.5945
923	0.8301
914	0.8616
905	0.872
896	0.8612
887	0.8433
878	0.6684
869	0.683
860	0.7731
851	0.7728
842	0.7788
833	0.8269
824	0.8189
815	0.8571
806	0.8554
797	0.8589
788	0.8251
779	0.6581
770	0.1862
761	0.003
752	0.3939
743	0.0071
734	0.5925
725	0.4836
716	0.3162
707	0.7852
698	0.8792
689	0.9018
680	0.9065
671	0.9124
662	0.9075
653	0.8672
644	0.8872
635	0.7333
626	0.8994
617	0.9014
608	0.869
599	0.7481
590	0.7785
581	0.8093
572	0.8912
563	0.8938
554	0.8844
545	0.8828
536	0.8771
527	0.8689
518	0.849
509	0.7816
500	0.8266
491	0.8397
482	0.8369
473	0.8282
464	0.8108
455	0.7961
