Infrared Spectrum: N-Benzylacrylamide
Formula: C 10 H 11 N O
CAS: 13304-62-6
State: gas
Origin: EPA-IR VAPOR PHASE LIBRARY
1/CM	ABSORBANCE
549.8	0.00441
559.445	0.00515
569.09	0.00532
578.734	0.00496
588.379	0.00411
598.024	0.00587
607.669	0.00478
617.313	0.00443
626.958	0.00371
636.603	0.00387
646.248	0.00364
655.893	0.00327
665.537	0.0048
675.182	0.0071
684.827	0.0118
694.472	0.01813
704.116	0.01694
713.761	0.01209
723.406	0.0114
733.051	0.01158
742.695	0.01415
752.34	0.01192
761.985	0.00715
771.63	0.00571
781.275	0.00629
790.919	0.00832
800.564	0.0087
810.209	0.00706
819.854	0.00603
829.498	0.00512
839.143	0.00427
848.788	0.00459
858.433	0.00385
868.078	0.00473
877.722	0.00412
887.367	0.0048
897.012	0.00489
906.657	0.00535
916.301	0.00522
925.946	0.00611
935.591	0.0074
945.236	0.00858
954.88	0.0099
964.525	0.01235
974.17	0.0145
983.815	0.01191
993.46	0.009
1003.1	0.00625
1012.75	0.00481
1022.39	0.00673
1032.04	0.00727
1041.68	0.00482
1051.33	0.00384
1060.97	0.0044
1070.62	0.00632
1080.26	0.00603
1089.91	0.00556
1099.55	0.00674
1109.2	0.0071
1118.84	0.00438
1128.49	0.00332
1138.13	0.00304
1147.78	0.00417
1157.42	0.00639
1167.07	0.00978
1176.71	0.02004
1186.36	0.0357
1196	0.03539
1205.64	0.02837
1215.29	0.02321
1224.93	0.01884
1234.58	0.01935
1244.22	0.02105
1253.87	0.02015
1263.51	0.01708
1273.16	0.01292
1282.8	0.00982
1292.45	0.00888
1302.09	0.00969
1311.74	0.00954
1321.38	0.00798
1331.03	0.00681
1340.67	0.00595
1350.32	0.00668
1359.96	0.00654
1369.61	0.00589
1379.25	0.00593
1388.9	0.00752
1398.54	0.01226
1408.18	0.01429
1417.83	0.01257
1427.47	0.01296
1437.12	0.01613
1446.76	0.02187
1456.41	0.0286
1466.05	0.03741
1475.7	0.05453
1485.34	0.08331
1494.99	0.10409
1504.63	0.07639
1514.28	0.03668
1523.92	0.0188
1533.57	0.01104
1543.21	0.00762
1552.86	0.00599
1562.5	0.00531
1572.15	0.00536
1581.79	0.00574
1591.44	0.00671
1601.08	0.00821
1610.73	0.01005
1620.37	0.01188
1630.01	0.0127
1639.66	0.01026
1649.3	0.00823
1658.95	0.00865
1668.59	0.01083
1678.24	0.01607
1687.88	0.03142
1697.53	0.06462
1707.17	0.08999
1716.82	0.06104
1726.46	0.02764
1736.11	0.01302
1745.75	0.00766
1755.4	0.00532
1765.04	0.0044
1774.69	0.00371
1784.33	0.00325
1793.98	0.00349
1803.62	0.00319
1813.27	0.00261
1822.91	0.00221
1832.55	0.00209
1842.2	0.00226
1851.84	0.00232
1861.49	0.00243
1871.13	0.0027
1880.78	0.00285
1890.42	0.00249
1900.07	0.00227
1909.71	0.00239
1919.36	0.00303
1929	0.00315
1938.65	0.00281
1948.29	0.00262
1957.94	0.00248
1967.58	0.002009
1977.23	0.0016798
1986.87	0.0015321
1996.52	0.0015203
2006.16	0.0014945
2015.81	0.0016465
2025.45	0.001679
2035.1	0.0014154
2044.74	0.0014463
2054.38	0.0012693
2064.03	0.0015079
2073.67	0.0014415
2083.32	0.0014889
2092.96	0.0013063
2102.61	0.0012553
2112.25	0.00108079
2121.9	0.00110251
2131.54	0.0013274
2141.19	0.0011368
2150.83	0.001224
2160.48	0.0013387
2170.12	0.0013314
2179.77	0.0011607
2189.41	0.0013592
2199.06	0.0014601
2208.7	0.0011402
2218.35	0.0015395
2227.99	0.0012075
2237.64	0.0012425
2247.28	0.0013137
2256.92	0.0014651
2266.57	0.0009757
2276.21	0.0011098
2285.86	0.0013971
2295.5	0.001333
2305.15	0.0015129
2314.79	0.0016813
2324.44	0.0013911
2334.08	0.0013894
2343.73	0.0016792
2353.37	0.0014599
2363.02	0.0014587
2372.66	0.0012811
2382.31	0.0017146
2391.95	0.0013105
2401.6	0.000872
2411.24	0.00112266
2420.89	0.0011882
2430.53	0.001148
2440.18	0.0011776
2449.82	0.00111519
2459.47	0.0013348
2469.11	0.0014217
2478.75	0.00111523
2488.4	0.0014007
2498.04	0.0013272
2507.69	0.00110153
2517.33	0.0014142
2526.98	0.0014728
2536.62	0.0015339
2546.27	0.0011632
2555.91	0.0013532
2565.56	0.001414
2575.2	0.00110637
2584.85	0.0012758
2594.49	0.00091
2604.14	0.0012492
2613.78	0.0012701
2623.43	0.00105318
2633.07	0.00112792
2642.72	0.00167
2652.36	0.001437
2662.01	0.0012417
2671.65	0.001283
2681.29	0.0015039
2690.94	0.0014492
2700.58	0.0014104
2710.23	0.001751
2719.87	0.00112854
2729.52	0.001224
2739.16	0.0012279
2748.81	0.0013534
2758.45	0.0013426
2768.1	0.001292
2777.74	0.0015323
2787.39	0.001574
2797.03	0.0013277
2806.68	0.0017129
2816.32	0.0014976
2825.97	0.0017643
2835.61	0.0015294
2845.26	0.0017936
2854.9	0.0019866
2864.55	0.00292
2874.19	0.00424
2883.84	0.00436
2893.48	0.00515
2903.12	0.0054
2912.77	0.00613
2922.41	0.00764
2932.06	0.00839
2941.7	0.00744
2951.35	0.00596
2960.99	0.00463
2970.64	0.00392
2980.28	0.00421
2989.93	0.004
2999.57	0.00438
3009.22	0.00613
3018.86	0.00959
3028.51	0.01387
3038.15	0.01431
3047.8	0.01095
3057.44	0.0098
3067.09	0.01462
3076.73	0.01475
3086.38	0.01041
3096.02	0.00958
3105.67	0.00667
3115.31	0.00439
3124.95	0.00249
3134.6	0.0017718
3144.24	0.0017173
3153.89	0.0012462
3163.53	0.0015335
3173.18	0.00103714
3182.82	0.00106509
3192.47	0.0011322
3202.11	0.001312
3211.76	0.00112187
3221.4	0.000794
3231.05	0.0017536
3240.69	0.00109066
3250.34	0.0011332
3259.98	0.0011313
3269.63	0.0013942
3279.27	0.0012498
3288.92	0.0011578
3298.56	0.000886
3308.21	0.0012229
3317.85	0.0015909
3327.49	0.001245
3337.14	0.001178
3346.78	0.0010188
3356.43	0.00168
3366.07	0.00083
3375.72	0.0015753
3385.36	0.0016547
3395.01	0.00211
3404.65	0.0018512
3414.3	0.00206
3423.94	0.0019218
3433.59	0.00333
3443.23	0.00371
3452.88	0.0057
3462.52	0.00784
3472.17	0.00715
3481.81	0.00504
3491.46	0.00316
3501.1	0.0018933
3510.75	0.0012715
3520.39	0.00104246
3530.04	0.0013541
3539.68	0.0012335
3549.32	0.00109405
3558.97	0.0009528
3568.61	0.00102855
3578.26	0.000885
3587.9	0.00109202
3597.55	0.000545
3607.19	0.000734
3616.84	0.000875
3626.48	0.00110959
3636.13	0.0010016
3645.77	0.000884
3655.42	0.0009784
3665.06	0.000786
3674.71	0
3684.35	0.0009969
3694	0.000818
3703.64	0.00162
3713.29	0.00112814
3722.93	0.00068
3732.58	0.00109331
3742.22	0.000891
3751.86	0.0009821
3761.51	0.0010135
3771.15	0.0009757
3780.8	0.000741
3790.44	0.000556
3800.09	0.000704
3809.73	0.001294
3819.38	0.00105561
3829.02	0.0010069
3838.67	0.0012046
3848.31	0.000888
3857.96	0.000909
3867.6	0.0012275
3877.25	0.0010183
3886.89	0.000889
3896.54	0.0013713
3906.18	0.00077
3915.83	0.0009582
3925.47	0.0014002
3935.12	0.001573
3944.76	0.0009482
3954.41	0.000856
3964.05	0.00102398
3973.69	0.0013201
3983.34	0.0011606
3992.98	0.0011958
