Infrared Spectrum: 3-ACETOXY-17Alpha-ETHYLESTRA-1,3,5(10),6,8-PENTAEN-17Beta-OL
Formula: C22 H26 O3
CAS: 133070-71-0
State: SOLID (KBr DISC)
Class: COBLENTZ III
Instrument: BECKMAN IR-7
Sampling: TRANSMISSION
Resolution: 4
Origin: THE WORCESTER FOUNDATION FOR EXPERIMENTAL BIOLOGY, Neal L. McNiven
1/CM	TRANSMITTANCE
637.936	1.01
646.691	0.92
655.445	1
664.2	0.845
672.954	0.9811
681.709	0.958
690.463	0.933
699.218	0.876
707.973	0.851
716.727	0.857
725.482	0.83
734.236	0.801
742.991	0.774
751.746	0.6441
760.5	0.738
769.255	0.748
778.009	0.701
786.764	0.641
795.518	0.5039
804.273	0.5551
813.028	0.326
821.782	0.602
830.537	0.719
839.291	0.731
848.046	0.695
856.8	0.669
865.555	0.542
874.31	0.646
883.064	0.645
891.819	0.598
900.573	0.391
909.328	0.36
918.083	0.591
926.837	0.633
935.592	0.602
944.346	0.531
953.101	0.43
961.855	0.44
970.61	0.424
979.365	0.418
988.119	0.306
996.874	0.411
1005.63	0.4
1014.38	0.283
1023.14	0.3799
1031.89	0.524
1040.65	0.545
1049.4	0.514
1058.16	0.539
1066.91	0.46
1075.66	0.36
1084.42	0.551
1093.17	0.552
1101.93	0.474
1110.68	0.485
1119.44	0.399
1128.19	0.439
1136.95	0.341
1145.7	0.243
1154.46	0.236
1163.21	0.359
1171.97	0.373
1180.72	0.354
1189.47	0.301
1198.23	0.179
1206.98	0.093
1215.74	0.097
1224.49	0.182
1233.25	0.269
1242	0.35
1250.76	0.395
1259.51	0.445
1268.27	0.523
1277.02	0.574
1285.77	0.531
1294.53	0.417
1303.28	0.518
1312.04	0.539
1320.79	0.597
1329.55	0.531
1338.3	0.576
1347.06	0.539
1355.81	0.411
1364.57	0.356
1373.32	0.251
1382.08	0.341
1390.83	0.499
1399.58	0.502
1408.34	0.567
1417.09	0.578
1425.85	0.529
1434.6	0.404
1443.36	0.411
1452.11	0.528
1460.87	0.442
1469.62	0.484
1478.38	0.499
1487.13	0.595
1495.88	0.608
1504.64	0.522
1513.39	0.536
1522.15	0.618
1530.9	0.66
1539.66	0.65
1548.41	0.661
1557.17	0.64
1565.92	0.494
1574.68	0.596
1583.43	0.642
1592.19	0.587
1600.94	0.445
1609.69	0.564
1618.45	0.584
1627.2	0.582
1635.96	0.615
1644.71	0.629
1653.47	0.631
1662.22	0.642
1670.98	0.635
1679.73	0.626
1688.49	0.61
1697.24	0.597
1705.99	0.56
1714.75	0.537
1723.5	0.47
1732.26	0.392
1741.01	0.24
1749.77	0.177
1758.52	0.2
1767.28	0.267
1776.03	0.399
1784.79	0.504
1793.54	0.552
1802.3	0.568
1811.05	0.586
1819.8	0.605
1828.56	0.616
1837.31	0.63
1846.07	0.628
1854.82	0.632
1863.58	0.632
1872.33	0.603
1881.09	0.6
1889.84	0.623
1898.6	0.642
1907.35	0.648
1916.1	0.647
1924.86	0.65
1933.61	0.65
1942.37	0.648
1951.12	0.643
1959.88	0.633
1968.63	0.642
1977.39	0.645
1986.14	0.645
1994.9	0.642
2003.65	0.641
2012.41	0.64
2021.16	0.64
2029.91	0.64
2038.67	0.638
2047.42	0.637
2056.18	0.6365
2064.93	0.634
2073.69	0.6334
2082.44	0.632
2091.2	0.6303
2099.95	0.629
2108.71	0.628
2117.46	0.627
2126.21	0.626
2134.97	0.6251
2143.72	0.624
2152.48	0.621
2161.23	0.62
2169.99	0.6189
2178.74	0.6169
2187.5	0.6139
2196.25	0.611
2205.01	0.608
2213.76	0.6057
2222.51	0.603
2231.27	0.6
2240.02	0.597
2248.78	0.5966
2257.53	0.595
2266.29	0.5935
2275.04	0.592
2283.8	0.5894
2292.55	0.5883
2301.31	0.587
2310.06	0.5853
2318.82	0.5832
2327.57	0.582
2336.32	0.581
2345.08	0.58
2353.83	0.579
2362.59	0.578
2371.34	0.571
2380.1	0.5671
2388.85	0.568
2397.61	0.568
2406.36	0.568
2415.12	0.568
2423.87	0.567
2432.62	0.566
2441.38	0.566
2450.13	0.565
2458.89	0.5635
2467.64	0.563
2476.4	0.5625
2485.15	0.5614
2493.91	0.5604
2502.66	0.56
2511.42	0.558
2520.17	0.5562
2528.93	0.5542
2537.68	0.5532
2546.43	0.552
2555.19	0.5501
2563.94	0.548
2572.7	0.546
2581.45	0.544
2590.21	0.543
2598.96	0.542
2607.72	0.5408
2616.47	0.539
2625.23	0.5387
2633.98	0.537
2642.73	0.5367
2651.49	0.5332
2660.24	0.531
2669	0.53
2677.75	0.529
2686.51	0.528
2695.26	0.5264
2704.02	0.526
2712.77	0.5233
2721.53	0.5178
2730.28	0.5122
2739.04	0.511
2747.79	0.5091
2756.54	0.508
2765.3	0.5051
2774.05	0.501
2782.81	0.5
2791.56	0.4959
2800.32	0.4877
2809.07	0.4737
2817.83	0.4674
2826.58	0.4551
2835.34	0.4321
2844.09	0.3661
2852.84	0.3392
2861.6	0.3172
2870.35	0.2811
2879.11	0.2688
2887.86	0.3028
2896.62	0.309
2905.37	0.2837
2914.13	0.248
2922.88	0.253
2931.64	0.2411
2940.39	0.2272
2949.15	0.2302
2957.9	0.2089
2966.65	0.2009
2975.41	0.2373
2984.16	0.2669
2992.92	0.3284
3001.67	0.3762
3010.43	0.4213
3019.18	0.4382
3027.94	0.4368
3036.69	0.4335
3045.45	0.4266
3054.2	0.4031
3062.95	0.37
3071.71	0.3893
3080.46	0.4106
3089.22	0.4255
3097.97	0.4428
3106.73	0.4526
3115.48	0.454
3124.24	0.454
3132.99	0.4533
3141.75	0.453
3150.5	0.452
3159.25	0.4502
3168.01	0.45
3176.76	0.449
3185.52	0.449
3194.27	0.448
3203.03	0.447
3211.78	0.447
3220.54	0.447
3229.29	0.446
3238.05	0.445
3246.8	0.444
3255.56	0.443
3264.31	0.442
3273.06	0.4416
3281.82	0.441
3290.57	0.4405
3299.33	0.439
3308.08	0.4384
3316.84	0.436
3325.59	0.435
3334.35	0.433
3343.1	0.432
3351.86	0.431
3360.61	0.43
3369.36	0.429
3378.12	0.428
3386.87	0.4251
3395.63	0.425
3404.38	0.425
3413.14	0.423
3421.89	0.4209
3430.65	0.4179
3439.4	0.4158
3448.16	0.415
3456.91	0.4107
3465.67	0.4087
3474.42	0.4016
3483.17	0.399
3491.93	0.397
3500.68	0.396
3509.44	0.395
3518.19	0.3874
3526.95	0.3812
3535.7	0.3741
3544.46	0.3496
3553.21	0.3284
3561.97	0.3044
3570.72	0.301
3579.47	0.3019
3588.23	0.3163
3596.98	0.3385
3605.74	0.3649
3614.49	0.3874
3623.25	0.4124
3632	0.4281
3640.76	0.4322
3649.51	0.433
3658.27	0.4342
3667.02	0.436
3675.78	0.437
3684.53	0.437
3693.28	0.436
3702.04	0.435
3710.79	0.433
3719.55	0.432
3728.3	0.432
3737.06	0.431
3745.81	0.431
3754.57	0.431
3763.32	0.43
3772.08	0.429
3780.83	0.4282
3789.58	0.4261
3798.34	0.4251
3807.09	0.425
3815.85	0.424
3824.6	0.423
3833.36	0.4219
3842.11	0.4209
3850.87	0.42
3859.62	0.4198
3868.38	0.4177
3877.13	0.417
3885.89	0.4167
3894.64	0.415
3903.39	0.415
3912.15	0.4145
3920.9	0.4135
3929.66	0.413
3938.41	0.412
3947.17	0.4104
3955.92	0.4086
3964.68	0.407
3973.43	0.405
3982.19	0.405
3990.94	0.404
