Infrared Spectrum: Diisooctyl adipate
Formula: C 22 H 42 O 4
CAS: 1330-86-5
State: gas
Origin: EPA-IR VAPOR PHASE LIBRARY
1/CM	ABSORBANCE
501.5	0.0014713
513.074	0.0012303
524.648	0.0012183
536.222	0.0012543
547.796	0.0013271
559.37	0.0013382
570.944	0.0012296
582.518	0.0014299
594.092	0.0018
605.666	0.00177
617.24	0.00184
628.814	0.00182
640.388	0.0015717
651.962	0.0015627
663.536	0.0014826
675.11	0.0014737
686.684	0.0015503
698.258	0.0018
709.832	0.00237
721.406	0.00312
732.98	0.00365
744.554	0.00374
756.128	0.00434
767.702	0.00547
779.276	0.00573
790.85	0.00457
802.423	0.00368
813.997	0.0034
825.571	0.00339
837.145	0.00344
848.719	0.00351
860.293	0.00375
871.867	0.00424
883.441	0.00445
895.015	0.00519
906.589	0.00586
918.163	0.00652
929.737	0.00739
941.311	0.00829
952.885	0.00939
964.459	0.01134
976.033	0.01306
987.607	0.01502
999.181	0.01725
1010.76	0.01955
1022.33	0.02002
1033.9	0.0192
1045.48	0.01929
1057.05	0.02118
1068.63	0.02064
1080.2	0.01848
1091.77	0.0153
1103.35	0.01646
1114.92	0.02456
1126.49	0.04251
1138.07	0.06743
1149.64	0.07976
1161.22	0.08065
1172.79	0.07537
1184.36	0.06396
1195.94	0.05576
1207.51	0.05411
1219.09	0.05698
1230.66	0.05958
1242.23	0.05578
1253.81	0.04711
1265.38	0.03819
1276.96	0.0321
1288.53	0.02808
1300.1	0.02351
1311.68	0.02096
1323.25	0.01821
1334.83	0.02017
1346.4	0.02363
1357.97	0.0225
1369.55	0.0185
1381.12	0.02137
1392.7	0.01953
1404.27	0.01058
1415.84	0.0093
1427.42	0.01202
1438.99	0.01385
1450.57	0.01921
1462.14	0.02617
1473.71	0.01953
1485.29	0.00916
1496.86	0.00527
1508.44	0.00381
1520.01	0.00314
1531.58	0.00275
1543.16	0.00242
1554.73	0.00224
1566.31	0.00218
1577.88	0.00209
1589.45	0.00209
1601.03	0.00207
1612.6	0.00205
1624.18	0.00206
1635.75	0.00215
1647.32	0.00241
1658.9	0.00273
1670.47	0.00324
1682.05	0.00417
1693.62	0.00604
1705.19	0.01007
1716.77	0.0163
1728.34	0.03058
1739.92	0.07149
1751.49	0.13919
1763.06	0.0633
1774.64	0.02553
1786.21	0.01267
1797.79	0.00732
1809.36	0.00477
1820.93	0.00339
1832.51	0.00258
1844.08	0.00211
1855.66	0.00189
1867.23	0.0017155
1878.8	0.0016305
1890.38	0.0014899
1901.95	0.0014495
1913.53	0.0014075
1925.1	0.0014062
1936.67	0.0013867
1948.25	0.0014292
1959.82	0.001407
1971.4	0.0014041
1982.97	0.0013865
1994.54	0.0013701
2006.12	0.0013842
2017.69	0.0013906
2029.27	0.0014557
2040.84	0.0014292
2052.41	0.0014038
2063.99	0.0013769
2075.56	0.0013292
2087.14	0.0012686
2098.71	0.0012158
2110.28	0.001137
2121.86	0.0010944
2133.43	0.0010723
2145.01	0.0010257
2156.58	0.0010013
2168.15	0.0009698
2179.73	0.0009154
2191.3	0.0008856
2202.88	0.0008874
2214.45	0.00085263
2226.02	0.00085571
2237.6	0.0008657
2249.17	0.00084383
2260.74	0.0008815
2272.32	0.0008752
2283.89	0.0008866
2295.47	0.0009194
2307.04	0.0009112
2318.61	0.00085694
2330.19	0.00083979
2341.76	0.0008784
2353.34	0.0008673
2364.91	0.00079582
2376.48	0.0009026
2388.06	0.000953
2399.63	0.0009083
2411.21	0.0008667
2422.78	0.0008177
2434.35	0.00075881
2445.93	0.0007402
2457.5	0.0007181
2469.08	0.000659
2480.65	0.0007074
2492.22	0.0006845
2503.8	0.0007012
2515.37	0.000738
2526.95	0.00075824
2538.52	0.00075368
2550.09	0.00083394
2561.67	0.00085647
2573.24	0.0009999
2584.82	0.0010857
2596.39	0.0011891
2607.96	0.0012241
2619.54	0.0012237
2631.11	0.0012776
2642.69	0.0013379
2654.26	0.001472
2665.83	0.001653
2677.41	0.0017304
2688.98	0.0018
2700.56	0.00185
2712.13	0.00192
2723.7	0.00211
2735.28	0.00243
2746.85	0.00279
2758.43	0.00282
2770	0.00293
2781.57	0.00327
2793.15	0.00386
2804.72	0.00465
2816.3	0.00587
2827.87	0.00782
2839.44	0.01119
2851.02	0.01873
2862.59	0.03749
2874.17	0.05196
2885.74	0.05237
2897.31	0.04649
2908.89	0.05336
2920.46	0.07665
2932.04	0.10924
2943.61	0.11457
2955.18	0.09504
2966.76	0.11517
2978.33	0.07648
2989.91	0.03286
3001.48	0.01678
3013.05	0.0104
3024.63	0.00747
3036.2	0.00567
3047.78	0.00455
3059.35	0.00377
3070.92	0.00328
3082.5	0.00293
3094.07	0.00261
3105.65	0.00229
3117.22	0.00194
3128.79	0.0017144
3140.37	0.0014884
3151.94	0.0013673
3163.52	0.0012427
3175.09	0.0011184
3186.66	0.0009851
3198.24	0.0008804
3209.81	0.0007265
3221.39	0.000637
3232.96	0.000508
3244.53	0.000468
3256.11	0.000368
3267.68	0.000325
3279.26	0.000297
3290.83	0.000217
3302.4	0.000232
3313.98	0.000255
3325.55	0.00027
3337.13	0.000262
3348.7	0.000219
3360.27	0.000206
3371.85	0.000191
3383.42	0.000211
3395	0.00025
3406.57	0.000236
3418.14	0.000235
3429.72	0.0003
3441.29	0.000339
3452.86	0.000487
3464.44	0.000759631
3476.01	0.0012381
3487.59	0.0013184
3499.16	0.00085604
3510.73	0.000539
3522.31	0.000317
3533.88	0.000278
3545.46	0.000165
3557.03	0.00012
3568.6	6.9e-05
3580.18	0.00017
3591.75	1.8e-05
3603.33	8.2e-05
3614.9	3e-05
3626.47	9.4e-05
3638.05	0.000155
3649.62	0.000112
3661.2	0.000225
3672.77	0.00016
3684.34	0.000222
3695.92	0.000242
3707.49	0.000181
3719.07	0.000134
3730.64	0.000118
3742.21	0.000122
3753.79	0.000161
3765.36	0.000142
3776.94	0.000175
3788.51	0.000222
3800.08	9.6e-05
3811.66	0.000283
3823.23	0.00018
3834.81	0.000209
3846.38	0.000202
3857.95	0.000167
3869.53	0.000189
3881.1	0.000129
3892.68	0.000255
3904.25	0.00012
3915.82	0.000312
3927.4	0.000342
3938.97	0.000327
3950.55	0.000318
3962.12	0.000317
3973.69	0.000353
3985.27	0.000403
3996.84	0.000404
