Infrared Spectrum: 2-Fluoro-6-(trifluoromethyl)benzonitrile
Formula: C 8 H 3 F 4 N
CAS: 133116-83-3
State: gas
Origin: EPA-IR VAPOR PHASE LIBRARY
1/CM	ABSORBANCE
549.8	0.002425
559.445	0.002805
569.09	0.001905
578.734	0.003175
588.379	0.002835
598.024	0.001755
607.669	0.0015047
617.313	0.0015659
626.958	0.001034
636.603	0.0016961
646.248	0.0015441
655.893	0.00146
665.537	0.002075
675.182	0.0013187
684.827	0.00073254
694.472	0.0016595
704.116	0.002455
713.761	0.008435
723.406	0.015115
733.051	0.014905
742.695	0.010635
752.34	0.003525
761.985	0.002375
771.63	0.002285
781.275	0.003415
790.919	0.010675
800.564	0.024515
810.209	0.014865
819.854	0.003815
829.498	0.0016899
839.143	0.001795
848.788	0.002005
858.433	0.0015075
868.078	0.002015
877.722	0.002425
887.367	0.002505
897.012	0.005445
906.657	0.025315
916.301	0.040745
925.946	0.013135
935.591	0.002965
945.236	0.002035
954.88	0.002315
964.525	0.001825
974.17	0.002985
983.815	0.001845
993.46	0.002255
1003.1	0.0016997
1012.75	0.001745
1022.39	0.0015904
1032.04	0.002155
1041.68	0.002505
1051.33	0.003525
1060.97	0.007125
1070.62	0.007415
1080.26	0.004075
1089.91	0.001955
1099.55	0.003655
1109.2	0.006995
1118.84	0.015365
1128.49	0.033825
1138.13	0.036195
1147.78	0.041725
1157.42	0.082005
1167.07	0.111905
1176.71	0.091355
1186.36	0.083165
1196	0.068915
1205.64	0.040235
1215.29	0.017935
1224.93	0.009055
1234.58	0.007525
1244.22	0.007115
1253.87	0.011445
1263.51	0.028095
1273.16	0.030355
1282.8	0.015755
1292.45	0.016225
1302.09	0.018695
1311.74	0.055065
1321.38	0.141915
1331.03	0.122425
1340.67	0.026125
1350.32	0.008735
1359.96	0.006065
1369.61	0.005045
1379.25	0.005245
1388.9	0.003545
1398.54	0.003165
1408.18	0.002715
1417.83	0.002145
1427.47	0.002785
1437.12	0.003775
1446.76	0.008375
1456.41	0.024475
1466.05	0.045715
1475.7	0.037265
1485.34	0.011945
1494.99	0.004715
1504.63	0.002705
1514.28	0.002045
1523.92	0.002165
1533.57	0.002565
1543.21	0.002585
1552.86	0.002305
1562.5	0.002155
1572.15	0.004535
1581.79	0.007645
1591.44	0.006595
1601.08	0.005045
1610.73	0.006305
1620.37	0.005035
1630.01	0.002865
1639.66	0.002875
1649.3	0.001815
1658.95	0.0013334
1668.59	0.0014994
1678.24	0.0011527
1687.88	0.001607
1697.53	0.001845
1707.17	0.002225
1716.82	0.001995
1726.46	0.0013538
1736.11	0.0014669
1745.75	0.0009824
1755.4	0.0012389
1765.04	0.0011298
1774.69	0.0013088
1784.33	0.0013942
1793.98	0.0014833
1803.62	0.001875
1813.27	0.001755
1822.91	0.0013966
1832.55	0.0012562
1842.2	0.0010538
1851.84	0.0012112
1861.49	0.0013907
1871.13	0.001755
1880.78	0.002135
1890.42	0.001895
1900.07	0.001044
1909.71	0.0011453
1919.36	0.0012759
1929	0.0013566
1938.65	0.0014486
1948.29	0.002125
1957.94	0.001729
1967.58	0.0013521
1977.23	0.0009845
1986.87	0.0010316
1996.52	0.0010757
2006.16	0.0010924
2015.81	0.0008639
2025.45	0.0010469
2035.1	0.0012523
2044.74	0.0011618
2054.38	0.0010582
2064.03	0.0010787
2073.67	0.0014545
2083.32	0.0012775
2092.96	0.0011174
2102.61	0.0012888
2112.25	0.0016295
2121.9	0.0012797
2131.54	0.001097
2141.19	0.0010415
2150.83	0.0009104
2160.48	0.0008935
2170.12	0.0012354
2179.77	0.0009464
2189.41	0.0014766
2199.06	0.0012363
2208.7	0.0009047
2218.35	0.000989
2227.99	0.0011278
2237.64	0.000952
2247.28	0.0011081
2256.92	0.0010561
2266.57	0.0011538
2276.21	0.0010597
2285.86	0.0012115
2295.5	0.0011894
2305.15	0.0014647
2314.79	0.0014519
2324.44	0.0012711
2334.08	0.0014496
2343.73	0.0012863
2353.37	0.0011117
2363.02	0.0012163
2372.66	0.0013356
2382.31	0.0014398
2391.95	0.0012671
2401.6	0.0011737
2411.24	0.0015172
2420.89	0.0010794
2430.53	0.0009652
2440.18	0.0010093
2449.82	0.0008347
2459.47	0.0010924
2469.11	0.000984
2478.75	0.00075929
2488.4	0.0012294
2498.04	0.0009191
2507.69	0.0010747
2517.33	0.0012379
2526.98	0.0011638
2536.62	0.0007127
2546.27	0.001171
2555.91	0.0009276
2565.56	0.000607
2575.2	0.0013506
2584.85	0.000924
2594.49	0.00074842
2604.14	0.0012825
2613.78	0.0010505
2623.43	0.00072687
2633.07	0.0012689
2642.72	0.0010571
2652.36	0.0010205
2662.01	0.0010362
2671.65	0.00079559
2681.29	0.0008161
2690.94	0.00083338
2700.58	0.00078936
2710.23	0.000611
2719.87	0.0012829
2729.52	0.0012137
2739.16	0.00079036
2748.81	0.0008538
2758.45	0.0007242
2768.1	0.0012762
2777.74	0.000792
2787.39	0.0010066
2797.03	0.0008978
2806.68	0.0007159
2816.32	0.00077225
2825.97	0.00075918
2835.61	0.0011054
2845.26	0.000593
2854.9	0.0010765
2864.55	0.000463
2874.19	0.0014167
2883.84	0.0008502
2893.48	0.00082954
2903.12	0.000309
2912.77	0.001293
2922.41	0.0008847
2932.06	0.0008514
2941.7	0.0013193
2951.35	0.00083018
2960.99	0.0009067
2970.64	0.0014218
2980.28	0.0007206
2989.93	0.000393
2999.57	0.00041
3009.22	0.000372
3018.86	0.001215
3028.51	0.00078885
3038.15	0.0015766
3047.8	0.0008935
3057.44	0.0010733
3067.09	0.000629
3076.73	0.0014846
3086.38	0.0015802
3096.02	0.001745
3105.67	0.0009468
3115.31	0.0008915
3124.95	0.0010108
3134.6	0.0006647
3144.24	0.000478
3153.89	0.001213
3163.53	0.0011548
3173.18	0.0013692
3182.82	0.001003
3192.47	0.0009685
3202.11	0.0007938
3211.76	0.0016044
3221.4	0.0010913
3231.05	0.0009561
3240.69	0.0006679
3250.34	0.000383
3259.98	0.0008771
3269.63	0.0006833
3279.27	0.0012155
3288.92	0.0014979
3298.56	0.0008653
3308.21	0.0008559
3317.85	0.000853
3327.49	0.0007218
3337.14	0.0008762
3346.78	0.0014932
3356.43	0.0010324
3366.07	0.0006731
3375.72	0.000455
3385.36	0.00079035
3395.01	0.0013762
3404.65	0.0011329
3414.3	0.0006722
3423.94	0.000743796
3433.59	0.0012157
3443.23	0.00083236
3452.88	0.00081447
3462.52	0.000873
3472.17	0.000942
3481.81	0.0012894
3491.46	0.000299
3501.1	0.0012351
3510.75	0.000606
3520.39	0.0013868
3530.04	0.000515
3539.68	0.0006482
3549.32	0.0006662
3558.97	0.0008476
3568.61	0.001303
3578.26	0.0011208
3587.9	0.0009597
3597.55	0.00078285
3607.19	0.001011
3616.84	0.0011991
3626.48	0.0016428
3636.13	0.0009634
3645.77	0.0013442
3655.42	0.0012215
3665.06	0.000996
3674.71	0.00077239
3684.35	0.000966
3694	0.0010664
3703.64	0.0006678
3713.29	0.001249
3722.93	0.0006597
3732.58	0.001553
3742.22	0.0008926
3751.86	0.001253
3761.51	0.00075501
3771.15	0.0011577
3780.8	0.00083291
3790.44	0.000415
3800.09	0.0007539
3809.73	0.002135
3819.38	0.00076257
3829.02	0.00073392
3838.67	0.001113
3848.31	0.000284
3857.96	0.00076974
3867.6	0.0008452
3877.25	0.0010789
3886.89	0.0014272
3896.54	0.001304
3906.18	0.0010426
3915.83	0.0011978
3925.47	0.000501
3935.12	0.0006703
3944.76	0.0010124
3954.41	0.0008888
3964.05	0.000266
3973.69	0.0007186
3983.34	0.0011043
3992.98	0.0010225
