Infrared Spectrum: N-[2-Amino-4-(trifluoromethyl)phenyl]pyrrolidine
Formula: C 11 H 13 F 3 N 2
CAS: 133184-80-2
State: gas
Origin: EPA-IR VAPOR PHASE LIBRARY
1/CM	ABSORBANCE
549.8	0.01031
559.445	0.01193
569.09	0.01154
578.734	0.01128
588.379	0.01178
598.024	0.01194
607.669	0.01174
617.313	0.01047
626.958	0.01072
636.603	0.01014
646.248	0.01175
655.893	0.01724
665.537	0.01877
675.182	0.01368
684.827	0.01025
694.472	0.01027
704.116	0.00906
713.761	0.00868
723.406	0.00909
733.051	0.0099
742.695	0.01423
752.34	0.00875
761.985	0.00615
771.63	0.00671
781.275	0.00687
790.919	0.00863
800.564	0.0141
810.209	0.02086
819.854	0.01643
829.498	0.00978
839.143	0.00827
848.788	0.00955
858.433	0.01627
868.078	0.02277
877.722	0.01942
887.367	0.01636
897.012	0.02933
906.657	0.03282
916.301	0.01412
925.946	0.00938
935.591	0.0087
945.236	0.01013
954.88	0.01136
964.525	0.01088
974.17	0.00675
983.815	0.00526
993.46	0.00485
1003.1	0.00508
1012.75	0.0045
1022.39	0.00473
1032.04	0.00604
1041.68	0.00843
1051.33	0.01188
1060.97	0.01973
1070.62	0.02068
1080.26	0.0243
1089.91	0.03967
1099.55	0.04019
1109.2	0.03667
1118.84	0.05834
1128.49	0.12069
1138.13	0.19863
1147.78	0.14609
1157.42	0.10408
1167.07	0.14168
1176.71	0.10422
1186.36	0.05575
1196	0.04159
1205.64	0.03678
1215.29	0.03551
1224.93	0.04703
1234.58	0.07038
1244.22	0.06773
1253.87	0.03522
1263.51	0.02117
1273.16	0.02279
1282.8	0.0328
1292.45	0.04377
1302.09	0.04793
1311.74	0.0492
1321.38	0.10157
1331.03	0.25243
1340.67	0.16936
1350.32	0.07961
1359.96	0.05184
1369.61	0.01945
1379.25	0.01114
1388.9	0.00869
1398.54	0.00894
1408.18	0.01021
1417.83	0.01504
1427.47	0.03337
1437.12	0.06192
1446.76	0.03875
1456.41	0.01737
1466.05	0.01413
1475.7	0.01052
1485.34	0.01015
1494.99	0.01211
1504.63	0.02118
1514.28	0.03082
1523.92	0.01993
1533.57	0.01327
1543.21	0.0093
1552.86	0.00837
1562.5	0.01026
1572.15	0.01257
1581.79	0.0174
1591.44	0.027
1601.08	0.03714
1610.73	0.04224
1620.37	0.0412
1630.01	0.02592
1639.66	0.01355
1649.3	0.00827
1658.95	0.00611
1668.59	0.0052
1678.24	0.00435
1687.88	0.00362
1697.53	0.00323
1707.17	0.00308
1716.82	0.00336
1726.46	0.00462
1736.11	0.00477
1745.75	0.00338
1755.4	0.00272
1765.04	0.00277
1774.69	0.00248
1784.33	0.00219
1793.98	0.00197
1803.62	0.00233
1813.27	0.00208
1822.91	0.00206
1832.55	0.00213
1842.2	0.00237
1851.84	0.0029
1861.49	0.00278
1871.13	0.00234
1880.78	0.00213
1890.42	0.00191
1900.07	0.00177
1909.71	0.00165
1919.36	0.00168
1929	0.0015365
1938.65	0.00182
1948.29	0.00167
1957.94	0.0015473
1967.58	0.0016076
1977.23	0.0014109
1986.87	0.0015612
1996.52	0.0014037
2006.16	0.0014522
2015.81	0.0015637
2025.45	0.0014847
2035.1	0.0015773
2044.74	0.0013697
2054.38	0.0014046
2064.03	0.00168
2073.67	0.0019
2083.32	0.00177
2092.96	0.0014619
2102.61	0.0015697
2112.25	0.0014314
2121.9	0.0015626
2131.54	0.0013096
2141.19	0.0015684
2150.83	0.00165
2160.48	0.001592
2170.12	0.00174
2179.77	0.0014894
2189.41	0.0014977
2199.06	0.00175
2208.7	0.00165
2218.35	0.0014684
2227.99	0.0014159
2237.64	0.00173
2247.28	0.00169
2256.92	0.00209
2266.57	0.0015705
2276.21	0.00168
2285.86	0.0015643
2295.5	0.0015775
2305.15	0.00172
2314.79	0.0015202
2324.44	0.0015177
2334.08	0.0014837
2343.73	0.00182
2353.37	0.0015691
2363.02	0.0014591
2372.66	0.001528
2382.31	0.0013619
2391.95	0.0012603
2401.6	0.0010333
2411.24	0.0012837
2420.89	0.0013396
2430.53	0.0012182
2440.18	0.0014713
2449.82	0.0011076
2459.47	0.0011674
2469.11	0.00179
2478.75	0.0012252
2488.4	0.001448
2498.04	0.00164
2507.69	0.0015186
2517.33	0.00186
2526.98	0.00178
2536.62	0.0015341
2546.27	0.0015053
2555.91	0.00173
2565.56	0.0015602
2575.2	0.0013929
2584.85	0.0016069
2594.49	0.00176
2604.14	0.00215
2613.78	0.00221
2623.43	0.0022
2633.07	0.00249
2642.72	0.00224
2652.36	0.00263
2662.01	0.00244
2671.65	0.00265
2681.29	0.0024
2690.94	0.00232
2700.58	0.00243
2710.23	0.00194
2719.87	0.00219
2729.52	0.00195
2739.16	0.00224
2748.81	0.00251
2758.45	0.00357
2768.1	0.00358
2777.74	0.0044
2787.39	0.00586
2797.03	0.00741
2806.68	0.0114
2816.32	0.01812
2825.97	0.02638
2835.61	0.02593
2845.26	0.01921
2854.9	0.01443
2864.55	0.01336
2874.19	0.01628
2883.84	0.02264
2893.48	0.01924
2903.12	0.01539
2912.77	0.01632
2922.41	0.01927
2932.06	0.02167
2941.7	0.02608
2951.35	0.02979
2960.99	0.03852
2970.64	0.04853
2980.28	0.04121
2989.93	0.02232
2999.57	0.01207
3009.22	0.00786
3018.86	0.00681
3028.51	0.00568
3038.15	0.00596
3047.8	0.00669
3057.44	0.00502
3067.09	0.00465
3076.73	0.00389
3086.38	0.00367
3096.02	0.00352
3105.67	0.00254
3115.31	0.00194
3124.95	0.00198
3134.6	0.00194
3144.24	0.0010314
3153.89	0.0011247
3163.53	0.0011446
3173.18	0.0009284
3182.82	0.0011648
3192.47	0.0009464
3202.11	0.0011767
3211.76	0.0010881
3221.4	0.0011461
3231.05	0.0013917
3240.69	0.0007806
3250.34	0.0008865
3259.98	0.0014428
3269.63	0.0007086
3279.27	0.0006094
3288.92	0.0009862
3298.56	0.0008359
3308.21	0.0005351
3317.85	0.0011031
3327.49	0.001165
3337.14	0.0016102
3346.78	0.0008977
3356.43	0.00222
3366.07	0.00481
3375.72	0.00837
3385.36	0.00689
3395.01	0.00438
3404.65	0.0029
3414.3	0.00276
3423.94	0.002
3433.59	0.0015257
3443.23	0.00237
3452.88	0.00291
3462.52	0.0047
3472.17	0.00794
3481.81	0.01016
3491.46	0.00714
3501.1	0.00466
3510.75	0.00356
3520.39	0.0025
3530.04	0.00263
3539.68	0.00203
3549.32	0.0012953
3558.97	0.00193
3568.61	0.0014765
3578.26	0.0012578
3587.9	0.001119
3597.55	0.0010479
3607.19	0.0008681
3616.84	0.00016
3626.48	0.0005464
3636.13	0.00067864
3645.77	0.0012799
3655.42	0.000762
3665.06	0.000469
3674.71	0.0013516
3684.35	0.0006053
3694	0.0007385
3703.64	0.0011111
3713.29	0.0012022
3722.93	0.0011463
3732.58	0.0008933
3742.22	0.0007738
3751.86	0.0009387
3761.51	0.0009671
3771.15	0.0009626
3780.8	0.001095
3790.44	0.000634996
3800.09	0.0007545
3809.73	0.0010857
3819.38	0.00064763
3829.02	0.00069091
3838.67	0.001004
3848.31	0.0010564
3857.96	0.0007459
3867.6	0.0013416
3877.25	0.0013744
3886.89	3e-06
3896.54	0.0011232
3906.18	0.0006168
3915.83	0.000514
3925.47	0.000245
3935.12	0.000731
3944.76	0.0005396
3954.41	0.0013102
3964.05	0.0012833
3973.69	0.0010078
3983.34	0.0015308
3992.98	0.00063171
