Infrared Spectrum: N-BENZYLCYCLOPROPYLAMINE
Formula: C10 H13 N
CAS: 13324-66-8
Class: COBLENTZ
Instrument: PERKIN-ELMER
Sampling: TRANSMISSION
Path length: CAPILLARY
Resolution: 4
Origin: ABBOTT LABORATORIES - WASHBURN
MICROMETERS	TRANSMITTANCE
2.045	0.886
2.08458	0.886
2.12415	0.891
2.16373	0.886
2.2033	0.883
2.24288	0.8801
2.28246	0.883
2.32203	0.8849
2.36161	0.88
2.40118	0.8849
2.44076	0.8811
2.48034	0.8729
2.51991	0.881
2.55949	0.8849
2.59907	0.89
2.63864	0.8899
2.67822	0.8901
2.71779	0.883
2.75737	0.8799
2.79695	0.8747
2.83652	0.866
2.8761	0.8625
2.91567	0.8529
2.95525	0.815
2.99483	0.7622
3.0344	0.7731
3.07398	0.8154
3.11355	0.8462
3.15313	0.851
3.19271	0.85
3.23228	0.5888
3.27186	0.5814
3.31144	0.481
3.35101	0.6558
3.39059	0.4692
3.43016	0.6031
3.46974	0.647
3.50932	0.5849
3.54889	0.633
3.58847	0.773
3.62804	0.836
3.66762	0.8649
3.7072	0.878
3.74677	0.881
3.78635	0.881
3.82592	0.89
3.8655	0.893
3.90508	0.895
3.94465	0.8949
3.98423	0.895
4.0238	0.893
4.06338	0.8911
4.10296	0.888
4.14253	0.886
4.18211	0.8851
4.22169	0.885
4.26126	0.885
4.30084	0.8831
4.34041	0.883
4.37999	0.881
4.41957	0.876
4.45914	0.8682
4.49872	0.866
4.53829	0.863
4.57787	0.8599
4.61745	0.856
4.65702	0.855
4.6966	0.8549
4.73617	0.8531
4.77575	0.856
4.81533	0.8511
4.8549	0.8448
4.89448	0.84
4.93405	0.851
4.97363	0.853
5.01321	0.8451
5.05278	0.8383
5.09236	0.8171
5.13194	0.7973
5.17151	0.819
5.21109	0.834
5.25066	0.836
5.29024	0.8224
5.32982	0.8126
5.36939	0.8113
5.40897	0.8262
5.44854	0.831
5.48812	0.8166
5.5277	0.8002
5.56727	0.8257
5.60685	0.825
5.64642	0.825
5.686	0.83
5.72558	0.83
5.76515	0.838
5.80473	0.843
5.84431	0.843
5.88388	0.8432
5.92346	0.8358
5.96303	0.8208
6.00261	0.8048
6.04219	0.8041
6.08176	0.8069
6.12134	0.815
6.16091	0.813
6.20049	0.7678
6.24007	0.736
6.27964	0.767
6.31922	0.7941
6.35879	0.8106
6.39837	0.815
6.43795	0.8168
6.47752	0.818
6.5171	0.815
6.55667	0.8167
6.59625	0.8173
6.63583	0.7695
6.6754	0.5478
6.71498	0.629
6.75456	0.7102
6.79413	0.6829
6.83371	0.5444
6.87328	0.4466
6.91286	0.3815
6.95244	0.4577
6.99201	0.4676
7.03159	0.6328
7.07116	0.6118
7.11074	0.7027
7.15032	0.7696
7.18989	0.778
7.22947	0.7317
7.26904	0.5552
7.30862	0.4757
7.3482	0.6251
7.38777	0.6301
7.42735	0.4457
7.46692	0.4361
7.5065	0.5488
7.54608	0.6421
7.58565	0.691
7.62523	0.7104
7.66481	0.703
7.70438	0.7283
7.74396	0.7638
7.78353	0.7774
7.82311	0.7857
7.86269	0.788
7.90226	0.787
7.94184	0.7748
7.98141	0.767
8.02099	0.76
8.06057	0.7522
8.10014	0.7395
8.13972	0.7188
8.17929	0.6884
8.21887	0.6315
8.25845	0.5394
8.29802	0.5701
8.3376	0.6541
8.37718	0.7123
8.41675	0.7578
8.45633	0.77
8.4959	0.7631
8.53548	0.7456
8.57506	0.7045
8.61463	0.6665
8.65421	0.6488
8.69378	0.6881
8.73336	0.7433
8.77294	0.7735
8.81251	0.792
8.85209	0.793
8.89166	0.7922
8.93124	0.787
8.97082	0.7641
9.01039	0.7255
9.04997	0.6793
9.08954	0.6494
9.12912	0.6259
9.1687	0.6146
9.20827	0.605
9.24785	0.633
9.28743	0.6579
9.327	0.6509
9.36658	0.6344
9.40615	0.6187
9.44573	0.6175
9.48531	0.6472
9.52488	0.6807
9.56446	0.688
9.60403	0.6609
9.64361	0.6294
9.68319	0.62
9.72276	0.5479
9.76234	0.471
9.80191	0.482
9.84149	0.4175
9.88107	0.32
9.92064	0.3877
9.96022	0.5336
9.99979	0.6407
10.0394	0.6997
10.0789	0.7332
10.1185	0.7519
10.1581	0.7579
10.1977	0.7585
10.2373	0.76
10.2768	0.763
10.3164	0.762
10.356	0.76
10.3956	0.7535
10.4351	0.735
10.4747	0.738
10.5143	0.737
10.5539	0.7367
10.5934	0.735
10.633	0.729
10.6726	0.6978
10.7122	0.6672
10.7517	0.6338
10.7913	0.5951
10.8309	0.5914
10.8705	0.6359
10.91	0.6605
10.9496	0.67
10.9892	0.6748
11.0288	0.677
11.0683	0.682
11.1079	0.6961
11.1475	0.7166
11.1871	0.7413
11.2267	0.7573
11.2662	0.762
11.3058	0.7636
11.3454	0.7701
11.385	0.772
11.4245	0.772
11.4641	0.772
11.5037	0.772
11.5433	0.767
11.5828	0.762
11.6224	0.7592
11.662	0.7507
11.7016	0.7345
11.7411	0.7226
11.7807	0.6949
11.8203	0.6731
11.8599	0.6479
11.8994	0.6101
11.939	0.5643
11.9786	0.5367
12.0182	0.5147
12.0578	0.4924
12.0973	0.4691
12.1369	0.4654
12.1765	0.4811
12.2161	0.5391
12.2556	0.5694
12.2952	0.579
12.3348	0.5793
12.3744	0.572
12.4139	0.5533
12.4535	0.5345
12.4931	0.5277
12.5327	0.5503
12.5722	0.5825
12.6118	0.5974
12.6514	0.605
12.691	0.6179
12.7305	0.618
12.7701	0.6123
12.8097	0.595
12.8493	0.5818
12.8888	0.5598
12.9284	0.546
12.968	0.5234
13.0076	0.497
13.0472	0.4559
13.0867	0.4185
13.1263	0.3819
13.1659	0.3574
13.2055	0.3323
13.245	0.321
13.2846	0.316
13.3242	0.3014
13.3638	0.289
13.4033	0.2816
13.4429	0.2704
13.4825	0.2514
13.5221	0.2235
13.5616	0.202
13.6012	0.1742
13.6408	0.169
13.6804	0.161
13.7199	0.158
13.7595	0.1621
13.7991	0.1757
13.8387	0.1917
13.8783	0.213
13.9178	0.2377
13.9574	0.2593
13.997	0.274
14.0366	0.287
14.0761	0.297
14.1157	0.299
14.1553	0.291
14.1949	0.2664
14.2344	0.2437
14.274	0.1834
14.3136	0.1455
14.3532	0.1357
14.3927	0.133
14.4323	0.1587
14.4719	0.2239
14.5115	0.3089
14.551	0.3564
14.5906	0.3975
14.6302	0.4264
14.6698	0.4482
14.7094	0.4656
14.7489	0.4796
14.7885	0.4972
14.8281	0.507
14.8677	0.5149
14.9072	0.5217
14.9468	0.5297
14.9864	0.5346
15.026	0.547
15.0655	0.554
15.1051	0.559
15.1447	0.56
15.1843	0.564
15.2238	0.57
15.2634	0.572
15.303	0.574
15.3426	0.574
15.3821	0.5764
15.4217	0.5758
