Infrared Spectrum: CYSTEINE, N-OCTYL-
Formula: C11 H23 N O2 S
CAS: 133294-14-1
State: SOLID (1 mg / 650 mg KBr DISC)
Class: COBLENTZ III
Instrument: PERKIN-ELMER 221 (GRATING)
Instrument parameters: FILTER AT 980 CM^-^1. GRATING 4000-1428 CM^-^1, NaCl PRISM 1428-650 CM^-^1
Sampling: TRANSMISSION
Resolution: 2
Origin: SOUTHERN RESEARCH INSTITUTE
1/CM	TRANSMITTANCE
668.442	0.792
677.693	0.7881
686.944	0.7523
696.195	0.7218
705.446	0.7441
714.697	0.7402
723.949	0.6176
733.2	0.7786
742.451	0.7942
751.702	0.7879
760.953	0.7526
770.204	0.6739
779.455	0.7304
788.706	0.7097
797.957	0.6737
807.208	0.7266
816.459	0.6857
825.711	0.6942
834.962	0.6998
844.213	0.5709
853.464	0.5565
862.715	0.6941
871.966	0.7511
881.217	0.772
890.468	0.7925
899.719	0.7993
908.97	0.7834
918.221	0.7634
927.472	0.7267
936.724	0.7678
945.975	0.772
955.226	0.7659
964.477	0.7284
973.728	0.6745
982.979	0.7524
992.23	0.7563
1001.48	0.7546
1010.73	0.6757
1019.98	0.6021
1029.23	0.6931
1038.49	0.6966
1047.74	0.7445
1056.99	0.7234
1066.24	0.6744
1075.49	0.6619
1084.74	0.7242
1093.99	0.7692
1103.24	0.7715
1112.49	0.768
1121.75	0.767
1131	0.7581
1140.25	0.6891
1149.5	0.7066
1158.75	0.7548
1168	0.738
1177.25	0.6833
1186.5	0.6632
1195.75	0.5089
1205.01	0.5671
1214.26	0.7124
1223.51	0.7226
1232.76	0.6948
1242.01	0.708
1251.26	0.6789
1260.51	0.6728
1269.76	0.6259
1279.01	0.4504
1288.26	0.4258
1297.52	0.45
1306.77	0.5807
1316.02	0.599
1325.27	0.5977
1334.52	0.5404
1343.77	0.4155
1353.02	0.4611
1362.27	0.3875
1371.52	0.2449
1380.78	0.1989
1390.03	0.2796
1399.28	0.3941
1408.53	0.414
1417.78	0.3272
1427.03	0.2718
1436.28	0.2781
1445.53	0.3708
1454.78	0.3835
1464.04	0.3637
1473.29	0.4818
1482.54	0.4136
1491.79	0.4412
1501.04	0.5107
1510.29	0.5395
1519.54	0.5235
1528.79	0.4831
1538.04	0.3992
1547.3	0.3126
1556.55	0.1846
1565.8	0.0995
1575.05	0.0839
1584.3	0.1164
1593.55	0.1855
1602.8	0.183
1612.05	0.2163
1621.3	0.2334
1630.56	0.3208
1639.81	0.4199
1649.06	0.5017
1658.31	0.557
1667.56	0.6017
1676.81	0.6383
1686.06	0.6772
1695.31	0.6945
1704.56	0.7041
1713.82	0.7151
1723.07	0.729
1732.32	0.7428
1741.57	0.75
1750.82	0.7576
1760.07	0.764
1769.32	0.7708
1778.57	0.774
1787.82	0.7747
1797.07	0.7862
1806.33	0.7941
1815.58	0.793
1824.83	0.795
1834.08	0.793
1843.33	0.795
1852.58	0.7956
1861.83	0.7968
1871.08	0.796
1880.33	0.796
1889.59	0.796
1898.84	0.795
1908.09	0.792
1917.34	0.7892
1926.59	0.789
1935.84	0.7806
1945.09	0.776
1954.34	0.775
1963.59	0.776
1972.85	0.776
1982.1	0.778
1991.35	0.779
2000.6	0.782
2009.85	0.782
2019.1	0.782
2028.35	0.78
2037.6	0.775
2046.85	0.774
2056.11	0.768
2065.36	0.767
2074.61	0.7649
2083.86	0.7635
2093.11	0.7585
2102.36	0.755
2111.61	0.746
2120.86	0.7375
2130.11	0.73
2139.37	0.727
2148.62	0.7255
2157.87	0.715
2167.12	0.7045
2176.37	0.6975
2185.62	0.6775
2194.87	0.6715
2204.12	0.6661
2213.37	0.6537
2222.62	0.6396
2231.88	0.6332
2241.13	0.628
2250.38	0.6211
2259.63	0.6065
2268.88	0.587
2278.13	0.5815
2287.38	0.5786
2296.63	0.5685
2305.88	0.5551
2315.14	0.5406
2324.39	0.5301
2333.64	0.5115
2342.89	0.4995
2352.14	0.4896
2361.39	0.4686
2370.64	0.4512
2379.89	0.4416
2389.14	0.4251
2398.4	0.4175
2407.65	0.416
2416.9	0.4175
2426.15	0.4229
2435.4	0.4523
2444.65	0.4689
2453.9	0.471
2463.15	0.468
2472.4	0.468
2481.66	0.472
2490.91	0.474
2500.16	0.4676
2509.41	0.462
2518.66	0.4575
2527.91	0.451
2537.16	0.45
2546.41	0.449
2555.66	0.446
2564.92	0.445
2574.17	0.445
2583.42	0.4425
2592.67	0.441
2601.92	0.4385
2611.17	0.437
2620.42	0.435
2629.67	0.435
2638.92	0.435
2648.18	0.435
2657.43	0.435
2666.68	0.4359
2675.93	0.437
2685.18	0.437
2694.43	0.435
2703.68	0.4335
2712.93	0.4295
2722.18	0.4255
2731.43	0.422
2740.69	0.421
2749.94	0.418
2759.19	0.4175
2768.44	0.4151
2777.69	0.4042
2786.94	0.3852
2796.19	0.371
2805.44	0.3605
2814.69	0.347
2823.95	0.3355
2833.2	0.3206
2842.45	0.2914
2851.7	0.1971
2860.95	0.237
2870.2	0.2963
2879.45	0.3244
2888.7	0.33
2897.95	0.3174
2907.21	0.2613
2916.46	0.1536
2925.71	0.1149
2934.96	0.182
2944.21	0.2089
2953.46	0.207
2962.71	0.2339
2971.96	0.2818
2981.21	0.29
2990.47	0.2985
2999.72	0.3139
3008.97	0.327
3018.22	0.335
3027.47	0.3458
3036.72	0.3574
3045.97	0.3779
3055.22	0.3834
3064.47	0.4095
3073.73	0.4508
3082.98	0.481
3092.23	0.5093
3101.48	0.5423
3110.73	0.5674
3119.98	0.5937
3129.23	0.6064
3138.48	0.6195
3147.73	0.6349
3156.98	0.6613
3166.24	0.6725
3175.49	0.6805
3184.74	0.6895
3193.99	0.694
3203.24	0.7045
3212.49	0.7125
3221.74	0.719
3230.99	0.7265
3240.24	0.734
3249.5	0.734
3258.75	0.734
3268	0.738
3277.25	0.739
3286.5	0.739
3295.75	0.739
3305	0.738
3314.25	0.738
3323.5	0.737
3332.76	0.7361
3342.01	0.735
3351.26	0.733
3360.51	0.733
3369.76	0.7335
3379.01	0.734
3388.26	0.734
3397.51	0.733
3406.76	0.733
3416.02	0.734
3425.27	0.734
3434.52	0.735
3443.77	0.735
3453.02	0.7375
3462.27	0.7399
3471.52	0.742
3480.77	0.743
3490.02	0.743
3499.28	0.7439
3508.53	0.7479
3517.78	0.751
3527.03	0.752
3536.28	0.755
3545.53	0.758
3554.78	0.7609
3564.03	0.764
3573.28	0.7689
3582.54	0.772
3591.79	0.7745
3601.04	0.776
3610.29	0.778
3619.54	0.7825
3628.79	0.7885
3638.04	0.793
3647.29	0.793
3656.54	0.793
3665.79	0.793
3675.05	0.793
3684.3	0.793
3693.55	0.793
3702.8	0.796
3712.05	0.8
3721.3	0.8
3730.55	0.8
3739.8	0.801
3749.05	0.801
3758.31	0.801
3767.56	0.801
3776.81	0.801
3786.06	0.801
3795.31	0.801
3804.56	0.801
3813.81	0.801
3823.06	0.801
3832.31	0.801
3841.57	0.801
3850.82	0.801
3860.07	0.803
3869.32	0.801
3878.57	0.801
3887.82	0.8006
3897.07	0.803
3906.32	0.803
3915.57	0.803
3924.83	0.804
3934.08	0.8045
3943.33	0.805
3952.58	0.805
3961.83	0.804
3971.08	0.8021
3980.33	0.801
3989.58	0.8019
3998.83	0.803
4008.09	0.801
4017.34	0.7979
4026.59	0.8019
4035.84	0.804
