Infrared Spectrum: p-Iodoacetophenone
Formula: C 8 H 7 I O
CAS: 13329-40-3
State: gas
Instrument: HP-GC/MS/IRD
Origin: NIST Mass Spectrometry Data Center
1/CM	ABSORBANCE
550	0.0005472
562	0.000756
574	0.0027864
586	0.0069048
598	0.0122328
610	0.0038952
622	0.0011016
634	0.0007344
646	0.0004464
658	7.92e-05
670	7.2e-06
682	6.48e-05
694	0.0002592
706	0.0008928
718	0.0014616
730	0.0105336
742	0.0106128
754	0.0009288
766	0.0007128
778	0.0009648
790	0.0019872
802	0.0075744
814	0.0142776
826	0.0105984
838	0.0046728
850	0.0017064
862	0.000792
874	0.00054
886	0.0005112
898	0.0005256
910	0.0004464
922	0.0007704
934	0.0030528
946	0.0135792
958	0.0140976
970	0.0048312
982	0.0033552
994	0.0073728
1006	0.0303912
1018	0.007164
1030	0.0020736
1042	0.0021816
1054	0.0052992
1066	0.0091152
1078	0.011484
1090	0.0028008
1102	0.0017424
1114	0.0016776
1126	0.0010512
1138	0.000756
1150	0.0009288
1162	0.0016272
1174	0.0036504
1186	0.0081288
1198	0.0047016
1210	0.0066168
1222	0.0106776
1234	0.0156456
1246	0.030348
1258	0.0571176
1270	0.0320472
1282	0.0086544
1294	0.0044928
1306	0.0045432
1318	0.00198
1330	0.0024552
1342	0.0045
1354	0.0129456
1366	0.0172296
1378	0.0105696
1390	0.0189216
1402	0.0100728
1414	0.0045288
1426	0.0041112
1438	0.0037008
1450	0.0029376
1462	0.0029232
1474	0.0045288
1486	0.004968
1498	0.0015984
1510	0.0012672
1522	0.0017496
1534	0.0031536
1546	0.0041184
1558	0.0083736
1570	0.0163296
1582	0.0421992
1594	0.0135144
1606	0.0029448
1618	0.0021384
1630	0.0022032
1642	0.00234
1654	0.0035496
1666	0.004968
1678	0.0074016
1690	0.0203832
1702	0.0629856
1714	0.0505728
1726	0.012168
1738	0.0042624
1750	0.0035424
1762	0.0025632
1774	0.001404
1786	0.001188
1798	0.00126
1810	0.0007416
1822	0.0004392
1834	0.0003672
1846	0.0005256
1858	0.0005832
1870	0.0004968
1882	0.0006192
1894	0.0007416
1906	0.0008136
1918	0.0007272
1930	0.0005544
1942	0.0004392
1954	0.0004104
1966	0.000288
1978	0.0002736
1990	0.0003456
2002	0.00036
2014	0.0002808
2026	0.0001512
2038	0.0001152
2050	7.2e-05
2062	6.48e-05
2074	6.48e-05
2086	5.76e-05
2098	9.36e-05
2110	6.48e-05
2122	5.76e-05
2134	7.2e-05
2146	1.44e-05
2158	0
2170	1.44e-05
2182	5.76e-05
2194	7.2e-05
2206	0.0001008
2218	9.36e-05
2230	3.6e-05
2242	2.88e-05
2254	3.6e-05
2266	9.36e-05
2278	0.000144
2290	0.0003096
2302	0.000396
2314	0.0003672
2326	0.0002304
2338	0.000108
2350	0.0001152
2362	0.0001152
2374	0.00018
2386	8.64e-05
2398	8.64e-05
2410	9.36e-05
2422	9.36e-05
2434	8.64e-05
2446	7.92e-05
2458	5.04e-05
2470	2.88e-05
2482	8.64e-05
2494	0.0001872
2506	0.0003312
2518	0.000432
2530	0.0005184
2542	0.0004104
2554	0.0002736
2566	0.0002664
2578	0.0003312
2590	0.0003528
2602	0.0001872
2614	8.64e-05
2626	0.0001368
2638	0.0001656
2650	0.00018
2662	0.0001872
2674	4.32e-05
2686	7.2e-05
2698	6.48e-05
2710	1.44e-05
2722	2.16e-05
2734	7.2e-05
2746	5.76e-05
2758	0.0001224
2770	0.0001008
2782	7.2e-05
2794	0.0001008
2806	0.0001296
2818	0.0002016
2830	0.0003168
2842	0.0004608
2854	0.00036
2866	0.0002736
2878	0.0002808
2890	0.000288
2902	0.0003672
2914	0.0004968
2926	0.0008928
2938	0.0011376
2950	0.0010512
2962	0.0012168
2974	0.0014976
2986	0.001404
2998	0.0014688
3010	0.0027936
3022	0.0029016
3034	0.0017208
3046	0.001404
3058	0.0021456
3070	0.0020808
3082	0.0032472
3094	0.0027288
3106	0.0011952
3118	0.000684
3130	0.0004752
3142	0.0003888
3154	0.0003456
3166	0.000288
3178	0.0002592
3190	0.0001224
3202	0.0001008
3214	3.6e-05
3226	9.36e-05
3238	6.48e-05
3250	0.0001296
3262	0.0001368
3274	6.48e-05
3286	8.64e-05
3298	0.0001008
3310	9.36e-05
3322	0.00018
3334	0.000108
3346	0.0001728
3358	0.0002232
3370	0.0004176
3382	0.0009576
3394	0.0013176
3406	0.0009288
3418	0.0004464
3430	0.0002232
3442	0.0002016
3454	0.0001728
3466	7.2e-05
3478	0.000108
3490	8.64e-05
3502	5.76e-05
3514	2.16e-05
3526	0
3538	4.32e-05
3550	9.36e-05
3562	7.92e-05
3574	6.48e-05
3586	2.88e-05
3598	4.32e-05
3610	9.36e-05
3622	5.04e-05
3634	0.0001008
3646	0.000144
3658	0.000144
3670	0.0001008
3682	0.0001008
3694	0.0001152
3706	0.0001872
3718	0.0002664
3730	0.000108
3742	8.64e-05
3754	8.64e-05
3766	5.04e-05
3778	5.76e-05
3790	0.0001152
3802	0.000108
3814	0.0001656
3826	0.0001512
3838	9.36e-05
