Infrared Spectrum: MANNITOL, HEXAKIS(TRICHLOROACETATE)
Formula: C18 H8 Cl18 O12
CAS: 133227-56-2
State: SOLID (MINERAL OIL MULL)
Class: COBLENTZ
Instrument: Not specified, most likely a prism, grating, or hybrid spectrometer.
Sampling: TRANSMISSION
Resolution: 4
Origin: DOW CHEMICAL COMPANY
MICROMETERS	TRANSMITTANCE
2.027	0.782
2.06822	0.784
2.10944	0.793
2.15065	0.8
2.19187	0.793
2.23309	0.77
2.27431	0.762
2.31553	0.767
2.35674	0.779
2.39796	0.791
2.43918	0.801
2.4804	0.813
2.52162	0.82
2.56283	0.822
2.60405	0.827
2.64527	0.823
2.68649	0.827
2.72771	0.818
2.76892	0.808
2.81014	0.791
2.85136	0.789
2.89258	0.789
2.9338	0.782
2.97501	0.789
3.01623	0.8
3.05745	0.801
3.09867	0.8
3.13989	0.791
3.1811	0.788
3.22232	0.772
3.26354	0.747
3.30476	0.62
3.34598	0.268
3.38719	0.049
3.42841	0.073
3.46963	0.119
3.51085	0.41
3.55207	0.788
3.59328	0.827
3.6345	0.822
3.67572	0.834
3.71694	0.835
3.75815	0.839
3.79937	0.851
3.84059	0.871
3.88181	0.882
3.92303	0.892
3.96424	0.897
4.00546	0.9
4.04668	0.897
4.0879	0.892
4.12912	0.895
4.17033	0.899
4.21155	0.909
4.25277	0.909
4.29399	0.921
4.33521	0.917
4.37642	0.917
4.41764	0.919
4.45886	0.919
4.50008	0.919
4.5413	0.916
4.58251	0.916
4.62373	0.917
4.66495	0.917
4.70617	0.921
4.74739	0.924
4.7886	0.924
4.82982	0.924
4.87104	0.923
4.91226	0.928
4.95348	0.931
4.99469	0.919
5.03591	0.933
5.07713	0.933
5.11835	0.933
5.15957	0.933
5.20078	0.929
5.242	0.924
5.28322	0.926
5.32444	0.921
5.36566	0.905
5.40687	0.905
5.44809	0.885
5.48931	0.837
5.53053	0.682
5.57175	0.348
5.61296	0.176
5.65418	0.317
5.6954	0.639
5.73662	0.76
5.77784	0.817
5.81905	0.852
5.86027	0.868
5.90149	0.878
5.94271	0.878
5.98393	0.882
6.02514	0.878
6.06636	0.887
6.10758	0.895
6.1488	0.899
6.19002	0.907
6.23123	0.909
6.27245	0.911
6.31367	0.909
6.35489	0.9
6.39611	0.899
6.43732	0.899
6.47854	0.899
6.51976	0.892
6.56098	0.883
6.6022	0.87
6.64341	0.847
6.68463	0.806
6.72585	0.707
6.76707	0.505
6.80829	0.282
6.8495	0.271
6.89072	0.417
6.93194	0.639
6.97316	0.776
7.01437	0.806
7.05559	0.822
7.09681	0.82
7.13803	0.769
7.17925	0.641
7.22046	0.454
7.26168	0.526
7.3029	0.635
7.34412	0.728
7.38534	0.741
7.42655	0.728
7.46777	0.709
7.50899	0.743
7.55021	0.729
7.59143	0.757
7.63264	0.733
7.67386	0.717
7.71508	0.675
7.7563	0.598
7.79752	0.49
7.83873	0.381
7.87995	0.454
7.92117	0.512
7.96239	0.451
8.00361	0.432
8.04482	0.36
8.08604	0.206
8.12726	0.129
8.16848	0.078
8.2097	0.088
8.25091	0.14
8.29213	0.246
8.33335	0.377
8.37457	0.495
8.41579	0.608
8.457	0.663
8.49822	0.7
8.53944	0.731
8.58066	0.755
8.62188	0.765
8.66309	0.774
8.70431	0.779
8.74553	0.794
8.78675	0.818
8.82797	0.835
8.86918	0.839
8.9104	0.841
8.95162	0.837
8.99284	0.837
9.03406	0.844
9.07527	0.846
9.11649	0.842
9.15771	0.822
9.19893	0.794
9.24015	0.728
9.28136	0.652
9.32258	0.565
9.3638	0.509
9.40502	0.461
9.44624	0.49
9.48745	0.598
9.52867	0.611
9.56989	0.594
9.61111	0.61
9.65233	0.615
9.69354	0.528
9.73476	0.531
9.77598	0.641
9.8172	0.726
9.85842	0.765
9.89963	0.782
9.94085	0.793
9.98207	0.808
10.0233	0.798
10.0645	0.769
10.1057	0.709
10.1469	0.647
10.1882	0.618
10.2294	0.613
10.2706	0.586
10.3118	0.598
10.353	0.682
10.3942	0.74
10.4355	0.769
10.4767	0.789
10.5179	0.811
10.5591	0.825
10.6003	0.818
10.6416	0.793
10.6828	0.776
10.724	0.791
10.7652	0.791
10.8064	0.755
10.8476	0.743
10.8889	0.781
10.9301	0.817
10.9713	0.839
11.0125	0.835
11.0537	0.818
11.095	0.805
11.1362	0.794
11.1774	0.767
11.2186	0.692
11.2598	0.553
11.301	0.473
11.3423	0.495
11.3835	0.601
11.4247	0.663
11.4659	0.7
11.5071	0.716
11.5484	0.712
11.5896	0.666
11.6308	0.598
11.672	0.591
11.7132	0.6
11.7544	0.601
11.7957	0.579
11.8369	0.552
11.8781	0.526
11.9193	0.5
11.9605	0.468
12.0017	0.401
12.043	0.316
12.0842	0.201
12.1254	0.136
12.1666	0.117
12.2078	0.16
12.2491	0.268
12.2903	0.372
12.3315	0.492
12.3727	0.574
12.4139	0.644
12.4551	0.699
12.4964	0.738
12.5376	0.755
12.5788	0.76
12.62	0.76
12.6612	0.743
12.7025	0.695
12.7437	0.601
12.7849	0.494
12.8261	0.441
12.8673	0.523
12.9085	0.603
12.9498	0.646
12.991	0.666
13.0322	0.671
13.0734	0.68
13.1146	0.699
13.1559	0.711
13.1971	0.709
13.2383	0.695
13.2795	0.673
13.3207	0.661
13.3619	0.652
13.4032	0.658
13.4444	0.67
13.4856	0.682
13.5268	0.697
13.568	0.704
13.6093	0.704
13.6505	0.702
13.6917	0.694
13.7329	0.685
13.7741	0.673
13.8153	0.666
13.8566	0.664
13.8978	0.67
13.939	0.676
13.9802	0.682
14.0214	0.68
14.0626	0.673
14.1039	0.659
14.1451	0.646
14.1863	0.632
14.2275	0.611
14.2687	0.588
14.31	0.555
14.3512	0.511
14.3924	0.466
14.4336	0.381
14.4748	0.29
14.516	0.205
14.5573	0.136
14.5985	0.105
14.6397	0.09
14.6809	0.114
14.7221	0.145
14.7634	0.201
14.8046	0.251
14.8458	0.3
14.887	0.347
14.9282	0.389
14.9694	0.427
15.0107	0.461
15.0519	0.47
15.0931	0.478
15.1343	0.483
15.1755	0.488
15.2168	0.487
15.258	0.492
15.2992	0.488
15.3404	0.478
15.3816	0.47
15.4228	0.463
15.4641	0.452
15.5053	0.447
15.5465	0.444
15.5877	0.439
15.6289	0.425
15.6701	0.417
15.7114	0.406
15.7526	0.394
15.7938	0.382
15.835	0.381
