Infrared Spectrum: MALONIC DILACTONE, Alpha-[2-(MORPHOLINO)ETHYL]-CIS-1(Me),3(H),4(H)-CIS-3(H)-1,8-DIHYDROXY-3-p-MENTHYL
Formula: C19 H29 N O5
CAS: 133227-53-9
State: SOLUTION (7% IN CHCl3 FOR 2.5-12.5 MICRON) VS. SOLVENT
Melting point: 145-146 C
Class: COBLENTZ
Instrument: PERKIN-ELMER 21 (GRATING)
Instrument parameters: FILTER CHANGE AT 10 MICRON
Sampling: TRANSMISSION
Path length: 0.010 CM
Resolution: 2
Origin: ABBOTT LABORATORIES
MICROMETERS	TRANSMITTANCE
2.507	0.92
2.53573	0.922
2.56447	0.923
2.5932	0.923
2.62193	0.923
2.65067	0.923
2.6794	0.923
2.70814	0.923
2.73687	0.923
2.7656	0.923
2.79434	0.923
2.82307	0.923
2.8518	0.923
2.88054	0.916
2.90927	0.912
2.938	0.912
2.96674	0.912
2.99547	0.915
3.02421	0.918
3.05294	0.921
3.08167	0.921
3.11041	0.921
3.13914	0.921
3.16787	0.921
3.19661	0.921
3.22534	0.92
3.25407	0.909
3.28281	0.878
3.31154	0.794
3.34028	0.607
3.36901	0.507
3.39774	0.484
3.42648	0.507
3.45521	0.554
3.48394	0.575
3.51268	0.608
3.54141	0.597
3.57014	0.625
3.59888	0.692
3.62761	0.757
3.65634	0.801
3.68508	0.836
3.71381	0.848
3.74255	0.862
3.77128	0.874
3.80001	0.884
3.82875	0.892
3.85748	0.898
3.88621	0.899
3.91495	0.904
3.94368	0.906
3.97241	0.906
4.00115	0.908
4.02988	0.905
4.05862	0.9
4.08735	0.899
4.11608	0.899
4.14482	0.908
4.17355	0.915
4.20228	0.915
4.23102	0.915
4.25975	0.914
4.28848	0.915
4.31722	0.914
4.34595	0.912
4.37469	0.912
4.40342	0.912
4.43215	0.912
4.46089	0.912
4.48962	0.914
4.51835	0.915
4.54709	0.917
4.57582	0.92
4.60455	0.918
4.63329	0.92
4.66202	0.92
4.69076	0.92
4.71949	0.92
4.74822	0.922
4.77696	0.922
4.80569	0.922
4.83442	0.922
4.86316	0.921
4.89189	0.921
4.92062	0.922
4.94936	0.922
4.97809	0.923
5.00683	0.923
5.03556	0.922
5.06429	0.922
5.09303	0.921
5.12176	0.917
5.15049	0.917
5.17923	0.917
5.20796	0.916
5.23669	0.914
5.26543	0.914
5.29416	0.914
5.32289	0.914
5.35163	0.914
5.38036	0.912
5.4091	0.908
5.43783	0.909
5.46656	0.905
5.4953	0.893
5.52403	0.887
5.55276	0.881
5.5815	0.856
5.61023	0.799
5.63896	0.6
5.6677	0.245
5.69643	0.093
5.72517	0.04
5.7539	0.151
5.78263	0.426
5.81137	0.479
5.8401	0.501
5.86883	0.525
5.89757	0.69
5.9263	0.744
5.95503	0.818
5.98377	0.838
6.0125	0.862
6.04124	0.868
6.06997	0.873
6.0987	0.883
6.12744	0.887
6.15617	0.89
6.1849	0.89
6.21364	0.892
6.24237	0.897
6.2711	0.906
6.29984	0.909
6.32857	0.91
6.35731	0.91
6.38604	0.91
6.41477	0.911
6.44351	0.912
6.47224	0.915
6.50097	0.916
6.52971	0.918
6.55844	0.923
6.58717	0.923
6.61591	0.921
6.64464	0.911
6.67338	0.899
6.70211	0.885
6.73084	0.869
6.75958	0.834
6.78831	0.799
6.81704	0.663
6.84578	0.559
6.87451	0.542
6.90324	0.52
6.93198	0.571
6.96071	0.675
6.98944	0.764
7.01818	0.832
7.04691	0.854
7.07565	0.857
7.10438	0.849
7.13311	0.816
7.16185	0.78
7.19058	0.614
7.21931	0.565
7.24805	0.5
7.27678	0.545
7.30551	0.646
7.33425	0.67
7.36298	0.627
7.39172	0.645
7.42045	0.677
7.44918	0.644
7.47792	0.554
7.50665	0.675
7.53538	0.687
7.56412	0.647
7.59285	0.62
7.62158	0.594
7.65032	0.603
7.67905	0.577
7.70779	0.424
7.73652	0.341
7.76525	0.301
7.79399	0.365
7.82272	0.445
7.85145	0.428
7.88019	0.428
7.90892	0.371
7.93765	0.303
7.96639	0.33
7.99512	0.379
8.02386	0.39
8.05259	0.39
8.08132	0.426
8.11006	0.43
8.13879	0.43
8.16752	0.43
8.19626	0.433
8.22499	0.434
8.25372	0.433
8.28246	0.433
8.31119	0.433
8.33993	0.433
8.36866	0.433
8.39739	0.433
8.42613	0.433
8.45486	0.434
8.48359	0.434
8.51233	0.434
8.54106	0.434
8.56979	0.284
8.59853	0.316
8.62726	0.355
8.65599	0.36
8.68473	0.337
8.71346	0.218
8.7422	0.137
8.77093	0.124
8.79966	0.1
8.8284	0.161
8.85713	0.288
8.88586	0.335
8.9146	0.335
8.94333	0.254
8.97206	0.194
9.0008	0.256
9.02953	0.366
9.05827	0.443
9.087	0.541
9.11573	0.585
9.14447	0.525
9.1732	0.471
9.20193	0.508
9.23067	0.613
9.2594	0.659
9.28813	0.657
9.31687	0.616
9.3456	0.576
9.37434	0.593
9.40307	0.707
9.4318	0.76
9.46054	0.791
9.48927	0.809
9.518	0.825
9.54674	0.826
9.57547	0.826
9.6042	0.825
9.63294	0.797
9.66167	0.756
9.69041	0.723
9.71914	0.689
9.74787	0.689
9.77661	0.725
9.80534	0.738
9.83407	0.723
9.86281	0.723
9.89154	0.731
9.92027	0.731
9.94901	0.748
9.97774	0.757
10.0065	0.714
10.0352	0.665
10.0639	0.608
10.0927	0.572
10.1214	0.553
10.1501	0.585
10.1789	0.599
10.2076	0.628
10.2363	0.682
10.2651	0.744
10.2938	0.775
10.3225	0.809
10.3513	0.822
10.38	0.825
10.4087	0.823
10.4375	0.778
10.4662	0.727
10.4949	0.704
10.5237	0.632
10.5524	0.602
10.5811	0.613
10.6099	0.614
10.6386	0.544
10.6673	0.519
10.6961	0.563
10.7248	0.619
10.7535	0.674
10.7823	0.71
10.811	0.735
10.8398	0.751
10.8685	0.76
10.8972	0.772
10.926	0.764
10.9547	0.724
10.9834	0.68
11.0122	0.713
11.0409	0.764
11.0696	0.812
11.0984	0.822
11.1271	0.823
11.1558	0.819
11.1846	0.815
11.2133	0.805
11.242	0.76
11.2708	0.662
11.2995	0.667
11.3282	0.729
11.357	0.769
11.3857	0.778
11.4144	0.776
11.4432	0.781
11.4719	0.785
11.5006	0.768
11.5294	0.742
11.5581	0.719
11.5868	0.678
11.6156	0.632
11.6443	0.601
11.673	0.625
11.7018	0.725
11.7305	0.788
11.7592	0.819
11.788	0.85
11.8167	0.862
11.8454	0.869
11.8742	0.873
11.9029	0.875
11.9316	0.867
11.9604	0.855
11.9891	0.857
12.0178	0.865
12.0466	0.875
12.0753	0.886
12.104	0.889
12.1328	0.897
12.1615	0.908
12.1902	0.912
12.219	0.916
12.2477	0.921
12.2764	0.926
12.3052	0.928
12.3339	0.931
12.3626	0.935
12.3914	0.937
12.4201	0.94
12.4488	0.942
12.4776	0.948
12.5063	0.952
