Infrared Spectrum: BIS(OLEOYLOXY)DIBUTYL TIN
Formula: C44 H84 O4 Sn
CAS: 13323-62-1
State: SOLID (BETWEEN SALTS)
Class: COBLENTZ
Instrument: BECKMAN IR-4 (HYBRID PRISM-GRATING)
Sampling: TRANSMISSION
Resolution: 4
Origin: FLUKA AG, BUCHS, SWITZERLAND
MICROMETERS	TRANSMITTANCE
2.03	0.947
2.06496	0.948
2.09991	0.948
2.13487	0.949
2.16983	0.952
2.20479	0.954
2.23974	0.939
2.2747	0.908
2.30966	0.923
2.34461	0.926
2.37957	0.929
2.41453	0.936
2.44948	0.947
2.48444	0.949
2.5194	0.953
2.55436	0.961
2.58931	0.967
2.62427	0.961
2.65923	0.971
2.69418	0.969
2.72914	0.958
2.7641	0.963
2.79905	0.961
2.83401	0.956
2.86897	0.948
2.90393	0.946
2.93888	0.939
2.97384	0.937
3.0088	0.933
3.04375	0.926
3.07871	0.909
3.11367	0.897
3.14862	0.883
3.18358	0.872
3.21854	0.847
3.2535	0.821
3.28845	0.748
3.32341	0.554
3.35837	0.287
3.39332	0.073
3.42828	0.143
3.46324	0.257
3.49819	0.291
3.53315	0.714
3.56811	0.827
3.60307	0.869
3.63802	0.871
3.67298	0.882
3.70794	0.884
3.74289	0.886
3.77785	0.904
3.81281	0.909
3.84776	0.911
3.88272	0.919
3.91768	0.923
3.95264	0.924
3.98759	0.933
4.02255	0.938
4.05751	0.943
4.09246	0.946
4.12742	0.947
4.16238	0.944
4.19733	0.944
4.23229	0.948
4.26725	0.947
4.30221	0.943
4.33716	0.939
4.37212	0.942
4.40708	0.943
4.44203	0.944
4.47699	0.947
4.51195	0.948
4.5469	0.952
4.58186	0.952
4.61682	0.947
4.65178	0.951
4.68673	0.954
4.72169	0.958
4.75665	0.959
4.7916	0.958
4.82656	0.956
4.86152	0.957
4.89647	0.961
4.93143	0.957
4.96639	0.966
5.00135	0.967
5.0363	0.966
5.07126	0.966
5.10622	0.961
5.14117	0.967
5.17613	0.964
5.21109	0.968
5.24604	0.969
5.281	0.967
5.31596	0.962
5.35092	0.973
5.38587	0.973
5.42083	0.982
5.45579	0.988
5.49074	0.979
5.5257	0.981
5.56066	0.987
5.59561	0.986
5.63057	0.972
5.66553	0.942
5.70049	0.867
5.73544	0.829
5.7704	0.859
5.80536	0.839
5.84031	0.848
5.87527	0.898
5.91023	0.897
5.94518	0.898
5.98014	0.871
6.0151	0.822
6.05006	0.794
6.08501	0.75
6.11997	0.673
6.15493	0.528
6.18988	0.369
6.22484	0.296
6.2598	0.335
6.29475	0.439
6.32971	0.545
6.36467	0.595
6.39963	0.693
6.43458	0.784
6.46954	0.866
6.5045	0.891
6.53945	0.907
6.57441	0.908
6.60937	0.892
6.64432	0.893
6.67928	0.851
6.71424	0.821
6.7492	0.702
6.78415	0.453
6.81911	0.376
6.85407	0.446
6.88902	0.481
6.92398	0.504
6.95894	0.538
6.99389	0.523
7.02885	0.469
7.06381	0.434
7.09877	0.395
7.13372	0.369
7.16868	0.36
7.20364	0.355
7.23859	0.351
7.27355	0.434
7.30851	0.483
7.34346	0.551
7.37842	0.588
7.41338	0.603
7.44834	0.669
7.48329	0.714
7.51825	0.713
7.55321	0.693
7.58816	0.675
7.62312	0.639
7.65808	0.629
7.69303	0.61
7.72799	0.604
7.76295	0.619
7.79791	0.644
7.83286	0.649
7.86782	0.649
7.90278	0.664
7.93773	0.684
7.97269	0.692
8.00765	0.73
8.0426	0.778
8.07756	0.787
8.11252	0.792
8.14748	0.807
8.18243	0.814
8.21739	0.833
8.25235	0.848
8.2873	0.853
8.32226	0.856
8.35722	0.851
8.39218	0.848
8.42713	0.833
8.46209	0.832
8.49705	0.843
8.532	0.854
8.56696	0.853
8.60192	0.842
8.63687	0.852
8.67183	0.876
8.70679	0.904
8.74175	0.919
8.7767	0.929
8.81166	0.933
8.84662	0.916
8.88157	0.897
8.91653	0.882
8.95149	0.874
8.98644	0.889
9.0214	0.899
9.05636	0.902
9.09132	0.893
9.12627	0.869
9.16123	0.841
9.19619	0.824
9.23114	0.802
9.2661	0.806
9.30106	0.831
9.33601	0.873
9.37097	0.888
9.40593	0.898
9.44089	0.894
9.47584	0.886
9.5108	0.883
9.54576	0.893
9.58071	0.901
9.61567	0.894
9.65063	0.883
9.68558	0.876
9.72054	0.874
9.7555	0.881
9.79046	0.893
9.82541	0.901
9.86037	0.912
9.89533	0.917
9.93028	0.918
9.96524	0.919
10.0002	0.922
10.0352	0.922
10.0701	0.922
10.1051	0.919
10.14	0.921
10.175	0.927
10.2099	0.933
10.2449	0.929
10.2799	0.912
10.3148	0.889
10.3498	0.872
10.3847	0.872
10.4197	0.892
10.4546	0.916
10.4896	0.928
10.5246	0.933
10.5595	0.934
10.5945	0.936
10.6294	0.941
10.6644	0.943
10.6993	0.946
10.7343	0.949
10.7693	0.952
10.8042	0.953
10.8392	0.951
10.8741	0.949
10.9091	0.948
10.944	0.949
10.979	0.949
11.014	0.949
11.0489	0.949
11.0839	0.952
11.1188	0.952
11.1538	0.951
11.1887	0.942
11.2237	0.931
11.2586	0.909
11.2936	0.882
11.3286	0.858
11.3635	0.849
11.3985	0.859
11.4334	0.869
11.4684	0.864
11.5033	0.864
11.5383	0.889
11.5733	0.918
11.6082	0.928
11.6432	0.932
11.6781	0.933
11.7131	0.928
11.748	0.922
11.783	0.927
11.818	0.939
11.8529	0.948
11.8879	0.949
11.9228	0.954
11.9578	0.954
11.9927	0.959
12.0277	0.957
12.0627	0.959
12.0976	0.954
12.1326	0.956
12.1675	0.958
12.2025	0.958
12.2374	0.954
12.2724	0.949
12.3074	0.953
12.3423	0.952
12.3773	0.951
12.4122	0.949
12.4472	0.948
12.4821	0.948
12.5171	0.946
12.5521	0.937
12.587	0.933
12.622	0.927
12.6569	0.921
12.6919	0.916
12.7268	0.908
12.7618	0.903
12.7968	0.898
12.8317	0.888
12.8667	0.882
12.9016	0.871
12.9366	0.862
12.9715	0.857
13.0065	0.854
13.0415	0.851
13.0764	0.846
13.1114	0.846
13.1463	0.842
13.1813	0.837
13.2162	0.831
13.2512	0.829
13.2862	0.813
13.3211	0.806
13.3561	0.795
13.391	0.79
13.426	0.785
13.4609	0.773
13.4959	0.765
13.5309	0.753
13.5658	0.733
13.6008	0.722
13.6357	0.704
13.6707	0.685
13.7056	0.673
13.7406	0.652
13.7756	0.64
13.8105	0.628
13.8455	0.625
13.8804	0.629
13.9154	0.634
13.9503	0.644
13.9853	0.649
14.0203	0.649
14.0552	0.652
14.0902	0.658
14.1251	0.662
14.1601	0.67
14.195	0.674
14.23	0.677
14.265	0.679
14.2999	0.678
14.3349	0.674
14.3698	0.674
14.4048	0.67
14.4397	0.665
14.4747	0.657
14.5097	0.648
14.5446	0.629
14.5796	0.618
14.6145	0.603
14.6495	0.593
14.6844	0.574
14.7194	0.548
14.7544	0.534
14.7893	0.534
14.8243	0.551
14.8592	0.571
14.8942	0.594
14.9291	0.61
14.9641	0.62
14.999	0.613
15.034	0.613
