Infrared Spectrum: Methyl 2-chloro-4-nitrobenzoate
Formula: C8 H6 Cl N O4
CAS: 13324-11-3
State: gas
Origin: EPA-IR VAPOR PHASE LIBRARY
1/CM	ABSORBANCE
549.8	0.003149
559.445	0.002269
569.09	0.001569
578.734	0.0007513
588.379	0.000864
598.024	0.0006403
607.669	0.0002353
617.313	0.0008489
626.958	0.0007741
636.603	0.0010229
646.248	0.0011148
655.893	0.002059
665.537	0.004559
675.182	0.003749
684.827	0.002349
694.472	0.002529
704.116	0.003309
713.761	0.006419
723.406	0.014739
733.051	0.031909
742.695	0.026749
752.34	0.032609
761.985	0.033509
771.63	0.012709
781.275	0.011209
790.919	0.009869
800.564	0.011789
810.209	0.033139
819.854	0.051379
829.498	0.015769
839.143	0.011969
848.788	0.009839
858.433	0.005559
868.078	0.005409
877.722	0.012699
887.367	0.027729
897.012	0.027529
906.657	0.012389
916.301	0.003969
925.946	0.002639
935.591	0.002939
945.236	0.004529
954.88	0.008499
964.525	0.010959
974.17	0.005499
983.815	0.002549
993.46	0.002179
1003.1	0.002849
1012.75	0.003009
1022.39	0.005289
1032.04	0.013859
1041.68	0.049679
1051.33	0.057139
1060.97	0.020099
1070.62	0.011299
1080.26	0.011959
1089.91	0.018729
1099.55	0.036769
1109.2	0.058109
1118.84	0.064689
1128.49	0.092359
1138.13	0.081109
1147.78	0.041169
1157.42	0.022519
1167.07	0.017189
1176.71	0.016089
1186.36	0.018429
1196	0.020789
1205.64	0.021499
1215.29	0.025869
1224.93	0.043559
1234.58	0.099399
1244.22	0.143189
1253.87	0.083919
1263.51	0.099329
1273.16	0.134999
1282.8	0.175379
1292.45	0.175529
1302.09	0.081959
1311.74	0.037939
1321.38	0.030699
1331.03	0.041279
1340.67	0.096349
1350.32	0.122669
1359.96	0.056999
1369.61	0.041419
1379.25	0.040719
1388.9	0.037109
1398.54	0.023469
1408.18	0.015889
1417.83	0.013909
1427.47	0.017989
1437.12	0.042999
1446.76	0.024229
1456.41	0.016119
1466.05	0.018199
1475.7	0.018629
1485.34	0.015889
1494.99	0.018149
1504.63	0.025249
1514.28	0.033169
1523.92	0.049489
1533.57	0.092999
1543.21	0.162869
1552.86	0.136979
1562.5	0.056319
1572.15	0.034359
1581.79	0.040569
1591.44	0.043309
1601.08	0.028929
1610.73	0.014119
1620.37	0.008209
1630.01	0.007899
1639.66	0.007539
1649.3	0.005999
1658.95	0.004759
1668.59	0.004549
1678.24	0.005389
1687.88	0.006559
1697.53	0.008219
1707.17	0.011679
1716.82	0.020219
1726.46	0.035559
1736.11	0.063919
1745.75	0.110429
1755.4	0.135099
1765.04	0.105649
1774.69	0.062149
1784.33	0.033699
1793.98	0.017349
1803.62	0.009669
1813.27	0.005689
1822.91	0.003569
1832.55	0.002719
1842.2	0.002269
1851.84	0.001979
1861.49	0.001749
1871.13	0.001619
1880.78	0.001579
1890.42	0.001569
1900.07	0.002059
1909.71	0.002839
1919.36	0.003529
1929	0.003279
1938.65	0.002239
1948.29	0.001599
1957.94	0.001299
1967.58	0.0009586
1977.23	0.0008729
1986.87	0.0009537
1996.52	0.001094
2006.16	0.001309
2015.81	0.001369
2025.45	0.0010727
2035.1	0.0010321
2044.74	0.0010655
2054.38	0.001439
2064.03	0.001719
2073.67	0.001689
2083.32	0.001619
2092.96	0.001639
2102.61	0.001609
2112.25	0.001389
2121.9	0.0009864
2131.54	0.0008637
2141.19	0.0008188
2150.83	0.0006962
2160.48	0.0006761
2170.12	0.0006145
2179.77	0.0006876
2189.41	0.0006267
2199.06	0.0006455
2208.7	0.0007753
2218.35	0.0006847
2227.99	0.0008178
2237.64	0.0008141
2247.28	0.0008331
2256.92	0.0009256
2266.57	0.0008095
2276.21	0.0007495
2285.86	0.0007017
2295.5	0.0005447
2305.15	0.0006299
2314.79	0.0005689
2324.44	0.000547
2334.08	0.000693
2343.73	0.0006301
2353.37	0.0007691
2363.02	0.0007898
2372.66	0.0008565
2382.31	0.0008085
2391.95	0.0008452
2401.6	0.0008523
2411.24	0.0008226
2420.89	0.0009019
2430.53	0.0009009
2440.18	0.0008056
2449.82	0.0007296
2459.47	0.0007999
2469.11	0.0006828
2478.75	0.00082
2488.4	0.0007456
2498.04	0.000685
2507.69	0.0006729
2517.33	0.0006219
2526.98	0.0006038
2536.62	0.0005015
2546.27	0.0007269
2555.91	0.0006745
2565.56	0.0008141
2575.2	0.0008637
2584.85	0.0007367
2594.49	0.0006767
2604.14	0.0005753
2613.78	0.0005233
2623.43	0.0005592
2633.07	0.0005293
2642.72	0.0007285
2652.36	0.0006562
2662.01	0.0007912
2671.65	0.0010248
2681.29	0.001429
2690.94	0.001609
2700.58	0.001469
2710.23	0.001349
2719.87	0.0011563
2729.52	0.0009424
2739.16	0.0007256
2748.81	0.0005597
2758.45	0.0004755
2768.1	0.0005009
2777.74	0.0005031
2787.39	0.0005871
2797.03	0.0006393
2806.68	0.0007191
2816.32	0.000955
2825.97	0.001489
2835.61	0.002409
2845.26	0.004859
2854.9	0.006409
2864.55	0.004059
2874.19	0.003969
2883.84	0.004709
2893.48	0.005369
2903.12	0.005769
2912.77	0.005379
2922.41	0.004859
2932.06	0.004909
2941.7	0.006219
2951.35	0.011679
2960.99	0.033429
2970.64	0.022269
2980.28	0.006589
2989.93	0.005259
2999.57	0.005829
3009.22	0.006609
3018.86	0.006239
3028.51	0.006109
3038.15	0.005859
3047.8	0.004699
3057.44	0.003569
3067.09	0.002849
3076.73	0.003429
3086.38	0.004789
3096.02	0.006109
3105.67	0.006569
3115.31	0.004499
3124.95	0.002069
3134.6	0.0012467
3144.24	0.0009984
3153.89	0.0007509
3163.53	0.0006259
3173.18	0.0007795
3182.82	0.0005869
3192.47	0.0006029
3202.11	0.0004342
3211.76	0.00037114
3221.4	0.000256
3231.05	0.0002748
3240.69	0.00035078
3250.34	0.0002289
3259.98	4e-06
3269.63	0.000246
3279.27	0.0002506
3288.92	0.00037956
3298.56	0.0002093
3308.21	2.2e-05
3317.85	0.000185
3327.49	0.000183
3337.14	0.0001911
3346.78	0.00012
3356.43	0.0002536
3366.07	0.000290939
3375.72	0.000151
3385.36	0.00030247
3395.01	0.000172
3404.65	9.4e-05
3414.3	0.00038001
3423.94	0.0004442
3433.59	0.0004647
3443.23	0.0004739
3452.88	0.0005826
3462.52	0.0007654
3472.17	0.0010493
3481.81	0.0012761
3491.46	0.001299
3501.1	0.001329
3510.75	0.001309
3520.39	0.0009918
3530.04	0.0007287
3539.68	0.0006501
3549.32	0.00025
3558.97	0.00037207
3568.61	0.000108
3578.26	0.000296751
3587.9	0.000177
3597.55	0.000188
3607.19	0.0001972
3616.84	0.0003295
3626.48	9.7e-05
3636.13	0.0004264
3645.77	3.4e-05
3655.42	7.7e-05
3665.06	0.000158
3674.71	0.0002126
3684.35	6e-05
3694	2.4e-05
3703.64	0.0002163
3713.29	0.0002625
3722.93	0.000188
3732.58	0.000162
3742.22	0.0002789
3751.86	0.0002528
3761.51	0.0002274
3771.15	0.00031739
3780.8	0.000177
3790.44	5.3e-05
3800.09	0.0004045
3809.73	9.2e-05
3819.38	0.0002071
3829.02	0.00032795
3838.67	8.4e-05
3848.31	0.00031525
3857.96	0.00033615
3867.6	0.0001948
3877.25	0.000102
3886.89	0.0001923
3896.54	0.00038345
3906.18	0.00031318
3915.83	0.0002622
3925.47	0.00036382
3935.12	0.00029913
3944.76	0.0002655
3954.41	0.0002503
3964.05	0.00027946
3973.69	0.0002262
3983.34	0.000129
3992.98	0.0004134
