Infrared Spectrum: Serine, N-(2-imidazolin-2-yl)-
Formula: C6 H11 N3 O3
CAS: 133318-36-2
State: SOLID (0.6 mg / 650 mg KBr DISC)
Class: COBLENTZ III
Instrument: PERKIN-ELMER 21 (GRATING)
Instrument parameters: FILTER CHANGE ABOUT 1070 CM^-^1
Sampling: TRANSMISSION
Resolution: 2
Origin: SOUTHERN RESEARCH INSTITUTE
1/CM	TRANSMITTANCE
611.544	0.8363
620.584	0.8497
629.625	0.8588
638.665	0.8651
647.706	0.8693
656.746	0.8672
665.787	0.8627
674.827	0.8511
683.868	0.8317
692.908	0.8113
701.949	0.787
710.989	0.7543
720.03	0.7125
729.07	0.7109
738.11	0.7376
747.151	0.7667
756.191	0.7832
765.232	0.7852
774.272	0.7913
783.313	0.8013
792.353	0.7987
801.394	0.7907
810.434	0.7606
819.475	0.7566
828.515	0.7569
837.556	0.7526
846.596	0.7474
855.636	0.7887
864.677	0.8166
873.717	0.8115
882.758	0.7995
891.798	0.7347
900.839	0.6583
909.879	0.7415
918.92	0.817
927.96	0.8211
937.001	0.8207
946.041	0.8185
955.082	0.8022
964.122	0.7753
973.162	0.6924
982.203	0.605
991.243	0.7523
1000.28	0.7708
1009.32	0.7197
1018.36	0.6422
1027.41	0.3232
1036.45	0.2367
1045.49	0.4851
1054.53	0.6926
1063.57	0.6952
1072.61	0.6606
1081.65	0.6365
1090.69	0.4586
1099.73	0.4218
1108.77	0.6818
1117.81	0.7658
1126.85	0.7599
1135.89	0.7308
1144.93	0.6516
1153.97	0.6111
1163.01	0.6222
1172.05	0.6496
1181.09	0.6574
1190.13	0.7191
1199.17	0.8203
1208.21	0.8198
1217.25	0.8124
1226.3	0.7924
1235.34	0.7563
1244.38	0.6712
1253.42	0.5933
1262.46	0.7271
1271.5	0.7371
1280.54	0.6984
1289.58	0.6475
1298.62	0.5594
1307.66	0.3306
1316.7	0.2218
1325.74	0.4894
1334.78	0.5056
1343.82	0.3833
1352.86	0.2413
1361.9	0.3868
1370.94	0.4621
1379.98	0.5102
1389.02	0.5664
1398.06	0.497
1407.1	0.3999
1416.15	0.3286
1425.19	0.2821
1434.23	0.2621
1443.27	0.3483
1452.31	0.4305
1461.35	0.4565
1470.39	0.5004
1479.43	0.4759
1488.47	0.4004
1497.51	0.2989
1506.55	0.2222
1515.59	0.1756
1524.63	0.243
1533.67	0.3172
1542.71	0.3784
1551.75	0.3556
1560.79	0.2592
1569.83	0.1586
1578.87	0.1192
1587.91	0.1345
1596.95	0.185
1605.99	0.2127
1615.04	0.1982
1624.08	0.1593
1633.12	0.1041
1642.16	0.0937
1651.2	0.0804
1660.24	0.0985
1669.28	0.2178
1678.32	0.2999
1687.36	0.4042
1696.4	0.4497
1705.44	0.5106
1714.48	0.6176
1723.52	0.7235
1732.56	0.77
1741.6	0.8044
1750.64	0.8274
1759.68	0.8537
1768.72	0.8661
1777.76	0.8777
1786.8	0.8859
1795.84	0.8903
1804.88	0.8935
1813.93	0.8965
1822.97	0.9018
1832.01	0.9063
1841.05	0.9094
1850.09	0.9111
1859.13	0.9112
1868.17	0.9109
1877.21	0.9108
1886.25	0.9105
1895.29	0.9094
1904.33	0.9085
1913.37	0.9078
1922.41	0.9072
1931.45	0.906
1940.49	0.9048
1949.53	0.9024
1958.57	0.9
1967.61	0.8973
1976.65	0.8949
1985.69	0.8932
1994.73	0.8915
2003.77	0.8891
2012.82	0.8867
2021.86	0.884
2030.9	0.8811
2039.94	0.8755
2048.98	0.8687
2058.02	0.8594
2067.06	0.8497
2076.1	0.8401
2085.14	0.8316
2094.18	0.8248
2103.22	0.819
2112.26	0.8143
2121.3	0.8113
2130.34	0.8157
2139.38	0.8287
2148.42	0.8448
2157.46	0.8558
2166.5	0.8652
2175.54	0.8731
2184.58	0.8787
2193.62	0.8825
2202.67	0.8842
2211.71	0.8852
2220.75	0.8857
2229.79	0.8854
2238.83	0.8844
2247.87	0.8829
2256.91	0.8801
2265.95	0.877
2274.99	0.8738
2284.03	0.8691
2293.07	0.8631
2302.11	0.8551
2311.15	0.8434
2320.19	0.8314
2329.23	0.8254
2338.27	0.8215
2347.31	0.8209
2356.35	0.8215
2365.39	0.822
2374.43	0.821
2383.47	0.8195
2392.51	0.8179
2401.56	0.8112
2410.6	0.8013
2419.64	0.7922
2428.68	0.7829
2437.72	0.7731
2446.76	0.7609
2455.8	0.7456
2464.84	0.726
2473.88	0.7082
2482.92	0.6993
2491.96	0.6952
2501	0.6932
2510.04	0.6872
2519.08	0.6743
2528.12	0.6569
2537.16	0.6403
2546.2	0.6225
2555.24	0.6034
2564.28	0.5892
2573.32	0.5606
2582.36	0.5417
2591.4	0.5217
2600.45	0.5001
2609.49	0.4791
2618.53	0.4587
2627.57	0.4373
2636.61	0.422
2645.65	0.4072
2654.69	0.408
2663.73	0.4138
2672.77	0.4193
2681.81	0.4206
2690.85	0.4207
2699.89	0.4156
2708.93	0.4049
2717.97	0.3909
2727.01	0.3736
2736.05	0.3519
2745.09	0.3348
2754.13	0.322
2763.17	0.3115
2772.21	0.3031
2781.25	0.2949
2790.3	0.2871
2799.34	0.2774
2808.38	0.2637
2817.42	0.2441
2826.46	0.2257
2835.5	0.2094
2844.54	0.1967
2853.58	0.1826
2862.62	0.1698
2871.66	0.1585
2880.7	0.1497
2889.74	0.1422
2898.78	0.1346
2907.82	0.1241
2916.86	0.1102
2925.9	0.1036
2934.94	0.1025
2943.98	0.1042
2953.02	0.1076
2962.06	0.1115
2971.1	0.1152
2980.14	0.1189
2989.19	0.1227
2998.23	0.1241
3007.27	0.1245
3016.31	0.1229
3025.35	0.1223
3034.39	0.1222
3043.43	0.1247
3052.47	0.129
3061.51	0.1338
3070.55	0.1421
3079.59	0.1511
3088.63	0.1602
3097.67	0.1675
3106.71	0.1756
3115.75	0.1834
3124.79	0.1929
3133.83	0.2025
3142.87	0.211
3151.91	0.2187
3160.95	0.2265
3169.99	0.2345
3179.03	0.2421
3188.08	0.2489
3197.12	0.256
3206.16	0.2633
3215.2	0.2716
3224.24	0.2812
3233.28	0.2907
3242.32	0.2994
3251.36	0.308
3260.4	0.3166
3269.44	0.3252
3278.48	0.3342
3287.52	0.343
3296.56	0.3527
3305.6	0.3629
3314.64	0.3717
3323.68	0.3741
3332.72	0.374
3341.76	0.3734
3350.8	0.3725
3359.84	0.3711
3368.88	0.3704
3377.92	0.37
3386.97	0.3687
3396.01	0.3695
3405.05	0.3706
3414.09	0.3719
3423.13	0.3748
3432.17	0.3809
3441.21	0.3906
3450.25	0.4045
3459.29	0.4165
3468.33	0.4295
3477.37	0.4428
3486.41	0.4561
3495.45	0.4708
3504.49	0.4883
3513.53	0.5052
3522.57	0.5222
3531.61	0.5429
3540.65	0.5655
3549.69	0.5889
3558.73	0.6131
3567.77	0.6366
3576.82	0.6589
3585.86	0.6794
3594.9	0.6984
3603.94	0.7166
3612.98	0.7382
3622.02	0.7587
3631.06	0.7785
3640.1	0.8027
3649.14	0.8314
3658.18	0.8443
3667.22	0.8539
3676.26	0.8613
3685.3	0.8664
3694.34	0.8705
3703.38	0.8752
3712.42	0.8798
3721.46	0.8842
3730.5	0.888
3739.54	0.8914
3748.58	0.8948
3757.62	0.8971
3766.66	0.8993
3775.71	0.9016
3784.75	0.9031
3793.79	0.9048
3802.83	0.9063
3811.87	0.9078
3820.91	0.9085
3829.95	0.9093
3838.99	0.91
3848.03	0.9108
3857.07	0.9114
3866.11	0.912
3875.15	0.9127
3884.19	0.9133
3893.23	0.9141
3902.27	0.9151
3911.31	0.9161
3920.35	0.9171
3929.39	0.9179
3938.43	0.9185
3947.47	0.9191
3956.51	0.9196
3965.55	0.92
3974.6	0.9203
3983.64	0.9209
3992.68	0.9221
4001.72	0.9234
4010.76	0.9248
4019.8	0.9264
4028.84	0.9283
4037.88	0.9306
4046.92	0.9377
4055.96	0.9573
4065	0.998
