Infrared Spectrum: 3,13Alpha-DIHYDROXY-13,17-SECOESTRA-1,3,5(10)-TRIEN-17-OIC ACID
Formula: C18 H24 O4
CAS: 133372-02-8
State: SOLID (KBr DISC)
Class: COBLENTZ III
Instrument: BECKMAN IR-7
Sampling: TRANSMISSION
Resolution: 4
Origin: THE WORCESTER FOUNDATION FOR EXPERIMENTAL BIOLOGY, Neal L. McNiven
1/CM	TRANSMITTANCE
605.109	1.032
613.868	1.033
622.627	1.032
631.386	1.032
640.145	1.032
648.905	1.031
657.664	1.002
666.423	0.8971
675.182	0.92
683.941	0.839
692.7	0.697
701.459	0.702
710.218	0.696
718.978	0.741
727.737	0.73
736.496	0.738
745.255	0.733
754.014	0.785
762.773	0.792
771.532	0.79
780.291	0.77
789.051	0.652
797.81	0.768
806.569	0.747
815.328	0.664
824.087	0.403
832.846	0.725
841.605	0.699
850.364	0.717
859.124	0.713
867.883	0.736
876.642	0.725
885.401	0.5591
894.16	0.71
902.919	0.68
911.678	0.641
920.437	0.659
929.197	0.6699
937.956	0.667
946.715	0.5831
955.474	0.663
964.233	0.521
972.992	0.5188
981.751	0.649
990.51	0.4881
999.27	0.606
1008.03	0.604
1016.79	0.425
1025.55	0.4081
1034.31	0.5529
1043.07	0.625
1051.82	0.591
1060.58	0.564
1069.34	0.598
1078.1	0.576
1086.86	0.527
1095.62	0.2741
1104.38	0.2869
1113.14	0.456
1121.9	0.4369
1130.66	0.601
1139.42	0.598
1148.17	0.496
1156.93	0.4138
1165.69	0.55
1174.45	0.323
1183.21	0.592
1191.97	0.58
1200.73	0.564
1209.49	0.537
1218.25	0.462
1227.01	0.32
1235.77	0.2279
1244.53	0.156
1253.28	0.102
1262.04	0.353
1270.8	0.385
1279.56	0.389
1288.32	0.1651
1297.08	0.384
1305.84	0.321
1314.6	0.266
1323.36	0.451
1332.12	0.298
1340.88	0.366
1349.63	0.363
1358.39	0.401
1367.15	0.208
1375.91	0.378
1384.67	0.3408
1393.43	0.503
1402.19	0.534
1410.95	0.548
1419.71	0.569
1428.47	0.54
1437.23	0.464
1445.98	0.469
1454.74	0.405
1463.5	0.315
1472.26	0.414
1481.02	0.504
1489.78	0.395
1498.54	0.268
1507.3	0.4139
1516.06	0.582
1524.82	0.596
1533.58	0.612
1542.34	0.614
1551.09	0.596
1559.85	0.559
1568.61	0.49
1577.37	0.245
1586.13	0.471
1594.89	0.553
1603.65	0.517
1612.41	0.442
1621.17	0.455
1629.93	0.51
1638.69	0.503
1647.44	0.474
1656.2	0.382
1664.96	0.23
1673.72	0.036
1682.48	0.054
1691.24	0.235
1700	0.353
1708.76	0.416
1717.52	0.459
1726.28	0.478
1735.04	0.528
1743.8	0.57
1752.55	0.601
1761.31	0.609
1770.07	0.609
1778.83	0.624
1787.59	0.634
1796.35	0.638
1805.11	0.64
1813.87	0.641
1822.63	0.642
1831.39	0.643
1840.15	0.646
1848.9	0.647
1857.66	0.646
1866.42	0.641
1875.18	0.638
1883.94	0.643
1892.7	0.649
1901.46	0.648
1910.22	0.646
1918.98	0.648
1927.74	0.646
1936.5	0.645
1945.26	0.643
1954.01	0.64
1962.77	0.638
1971.53	0.638
1980.29	0.635
1989.05	0.633
1997.81	0.629
2006.57	0.627
2015.33	0.6267
2024.09	0.625
2032.85	0.625
2041.61	0.624
2050.36	0.6225
2059.12	0.6215
2067.88	0.62
2076.64	0.6194
2085.4	0.618
2094.16	0.617
2102.92	0.616
2111.68	0.6143
2120.44	0.614
2129.2	0.6122
2137.96	0.612
2146.71	0.6101
2155.47	0.609
2164.23	0.608
2172.99	0.607
2181.75	0.605
2190.51	0.603
2199.27	0.601
2208.03	0.599
2216.79	0.5978
2225.55	0.596
2234.31	0.5937
2243.07	0.5917
2251.82	0.591
2260.58	0.5896
2269.34	0.588
2278.1	0.5875
2286.86	0.586
2295.62	0.586
2304.38	0.586
2313.14	0.586
2321.9	0.586
2330.66	0.585
2339.42	0.585
2348.17	0.585
2356.93	0.585
2365.69	0.585
2374.45	0.5831
2383.21	0.5792
2391.97	0.574
2400.73	0.571
2409.49	0.569
2418.25	0.5669
2427.01	0.5649
2435.77	0.5638
2444.53	0.562
2453.28	0.562
2462.04	0.5597
2470.8	0.5567
2479.56	0.5537
2488.32	0.551
2497.08	0.5496
2505.84	0.548
2514.6	0.5475
2523.36	0.546
2532.12	0.545
2540.88	0.5424
2549.63	0.54
2558.39	0.538
2567.15	0.538
2575.91	0.538
2584.67	0.5362
2593.43	0.5333
2602.19	0.5301
2610.95	0.5242
2619.71	0.519
2628.47	0.522
2637.23	0.527
2645.99	0.528
2654.74	0.5279
2663.5	0.5268
2672.26	0.525
2681.02	0.5228
2689.78	0.5175
2698.54	0.5081
2707.3	0.5017
2716.06	0.4986
2724.82	0.5018
2733.58	0.5079
2742.34	0.5115
2751.09	0.513
2759.85	0.5124
2768.61	0.5104
2777.37	0.5057
2786.13	0.501
2794.89	0.4946
2803.65	0.4867
2812.41	0.4768
2821.17	0.4588
2829.93	0.3967
2838.69	0.3465
2847.44	0.355
2856.2	0.3202
2864.96	0.2783
2873.72	0.3565
2882.48	0.3738
2891.24	0.3819
2900	0.3729
2908.76	0.3444
2917.52	0.298
2926.28	0.3099
2935.04	0.2597
2943.8	0.2697
2952.55	0.2916
2961.31	0.3462
2970.07	0.4009
2978.83	0.4094
2987.59	0.4023
2996.35	0.39
3005.11	0.4093
3013.87	0.4284
3022.63	0.4207
3031.39	0.4082
3040.15	0.397
3048.9	0.417
3057.66	0.4033
3066.42	0.3872
3075.18	0.391
3083.94	0.39
3092.7	0.3779
3101.46	0.3709
3110.22	0.3637
3118.98	0.3525
3127.74	0.3393
3136.5	0.3299
3145.26	0.3147
3154.01	0.2985
3162.77	0.2823
3171.53	0.2672
3180.29	0.2447
3189.05	0.2263
3197.81	0.2076
3206.57	0.1884
3215.33	0.169
3224.09	0.1564
3232.85	0.153
3241.61	0.1714
3250.36	0.1947
3259.12	0.2117
3267.88	0.226
3276.64	0.2373
3285.4	0.2485
3294.16	0.2586
3302.92	0.2707
3311.68	0.2819
3320.44	0.2951
3329.2	0.3082
3337.96	0.3204
3346.72	0.3407
3355.47	0.3549
3364.23	0.3666
3372.99	0.374
3381.75	0.3859
3390.51	0.395
3399.27	0.4031
3408.03	0.4098
3416.79	0.4159
3425.55	0.422
3434.31	0.4275
3443.07	0.4361
3451.82	0.439
3460.58	0.44
3469.34	0.4443
3478.1	0.4504
3486.86	0.4555
3495.62	0.4598
3504.38	0.4638
3513.14	0.4659
3521.9	0.4688
3530.66	0.4719
3539.42	0.475
3548.17	0.479
3556.93	0.4821
3565.69	0.4862
3574.45	0.4881
3583.21	0.4892
3591.97	0.493
3600.73	0.4962
3609.49	0.501
3618.25	0.5033
3627.01	0.506
3635.77	0.507
3644.53	0.508
3653.28	0.5065
3662.04	0.506
3670.8	0.506
3679.56	0.506
3688.32	0.506
3697.08	0.5067
3705.84	0.509
3714.6	0.51
3723.36	0.5118
3732.12	0.5148
3740.88	0.5169
3749.63	0.5151
3758.39	0.5101
3767.15	0.509
3775.91	0.507
3784.67	0.507
3793.43	0.507
3802.19	0.506
3810.95	0.506
3819.71	0.507
3828.47	0.508
3837.23	0.509
3845.99	0.5097
3854.74	0.509
3863.5	0.509
3872.26	0.508
3881.02	0.5075
3889.78	0.5065
3898.54	0.506
3907.3	0.5066
3916.06	0.506
3924.82	0.506
3933.58	0.506
3942.34	0.506
3951.09	0.506
3959.85	0.506
3968.61	0.506
3977.37	0.506
3986.13	0.506
3994.89	0.506
