Infrared Spectrum: COBALT BLUE
CAS: 1333-88-6
State: SOLID (0.5 mg / 300 mg CsI DISC)
Class: COBLENTZ
Instrument: Not specified, most likely a grating spectrometer.
Sampling: TRANSMISSION
Resolution: 4
Origin: DESOTO CHEMICAL COATINGS, INC.
1/CM	TRANSMITTANCE
198.67	0.926
209.313	0.932
219.956	0.929
230.599	0.912
241.242	0.818
251.885	0.858
262.528	0.884
273.171	0.9
283.814	0.905
294.457	0.909
305.1	0.9
315.743	0.894
326.386	0.882
337.029	0.877
347.672	0.858
358.315	0.845
368.959	0.84
379.602	0.828
390.245	0.802
400.888	0.794
411.531	0.789
422.174	0.766
432.817	0.73
443.46	0.66
454.103	0.597
464.746	0.541
475.389	0.461
486.032	0.2761
496.675	0.188
507.318	0.17
517.961	0.196
528.604	0.2649
539.247	0.322
549.89	0.234
560.533	0.209
571.176	0.242
581.819	0.276
592.462	0.308
603.105	0.394
613.748	0.462
624.391	0.47
635.034	0.2861
645.677	0.156
656.32	0.152
666.963	0.164
677.606	0.2
688.25	0.232
698.893	0.266
709.536	0.292
720.179	0.312
730.822	0.333
741.465	0.348
752.108	0.37
762.751	0.402
773.394	0.442
784.037	0.484
794.68	0.514
805.323	0.553
815.966	0.597
826.609	0.644
837.252	0.677
847.895	0.717
858.538	0.761
869.181	0.8
879.824	0.82
890.467	0.837
901.11	0.842
911.753	0.845
922.396	0.862
933.039	0.881
943.682	0.89
954.325	0.901
964.968	0.904
975.611	0.908
986.254	0.905
996.897	0.884
1007.54	0.833
1018.18	0.824
1028.83	0.825
1039.47	0.81
1050.11	0.845
1060.76	0.868
1071.4	0.882
1082.04	0.88
1092.68	0.874
1103.33	0.86
1113.97	0.87
1124.61	0.896
1135.26	0.914
1145.9	0.925
1156.54	0.933
1167.19	0.938
1177.83	0.944
1188.47	0.948
1199.12	0.952
1209.76	0.953
1220.4	0.956
1231.04	0.958
1241.69	0.957
1252.33	0.96
1262.97	0.961
1273.62	0.958
1284.26	0.96
1294.9	0.96
1305.55	0.961
1316.19	0.96
1326.83	0.962
1337.47	0.96
1348.12	0.961
1358.76	0.961
1369.4	0.961
1380.05	0.96
1390.69	0.956
1401.33	0.954
1411.98	0.953
1422.62	0.956
1433.26	0.956
1443.9	0.956
1454.55	0.954
1465.19	0.957
1475.83	0.957
1486.48	0.957
1497.12	0.957
1507.76	0.957
1518.41	0.956
1529.05	0.953
1539.69	0.952
1550.34	0.95
1560.98	0.949
1571.62	0.945
1582.26	0.937
1592.91	0.926
1603.55	0.914
1614.19	0.902
1624.84	0.9
1635.48	0.909
1646.12	0.916
1656.77	0.921
1667.41	0.929
1678.05	0.934
1688.69	0.94
1699.34	0.944
1709.98	0.945
1720.62	0.945
1731.27	0.949
1741.91	0.95
1752.55	0.95
1763.2	0.95
1773.84	0.95
1784.48	0.952
1795.12	0.95
1805.77	0.949
1816.41	0.953
1827.05	0.949
1837.7	0.95
1848.34	0.95
1858.98	0.952
1869.63	0.948
1880.27	0.949
1890.91	0.949
1901.56	0.946
1912.2	0.949
1922.84	0.946
1933.48	0.946
1944.13	0.942
1954.77	0.944
1965.41	0.944
1976.06	0.944
1986.7	0.942
1997.34	0.944
2007.99	0.942
2018.63	0.944
2029.27	0.945
2039.91	0.944
2050.56	0.944
2061.2	0.945
2071.84	0.944
2082.49	0.942
2093.13	0.942
2103.77	0.942
2114.42	0.942
2125.06	0.942
2135.7	0.941
2146.34	0.941
2156.99	0.944
2167.63	0.944
2178.27	0.941
2188.92	0.9419
2199.56	0.941
2210.2	0.9401
2220.85	0.94
2231.49	0.942
2242.13	0.941
2252.78	0.9378
2263.42	0.94
2274.06	0.94
2284.7	0.9396
2295.35	0.9378
2305.99	0.9372
2316.63	0.9408
2327.28	0.937
2337.92	0.936
2348.56	0.9338
2359.21	0.932
2369.85	0.93
2380.49	0.9323
2391.13	0.934
2401.78	0.932
2412.42	0.932
2423.06	0.9323
2433.71	0.93
2444.35	0.933
2454.99	0.933
2465.64	0.932
2476.28	0.9287
2486.92	0.928
2497.57	0.929
2508.21	0.929
2518.85	0.9257
2529.49	0.924
2540.14	0.925
2550.78	0.925
2561.42	0.9246
2572.07	0.924
2582.71	0.9214
2593.35	0.921
2604	0.9188
2614.64	0.9204
2625.28	0.921
2635.92	0.921
2646.57	0.92
2657.21	0.9206
2667.85	0.92
2678.5	0.917
2689.14	0.917
2699.78	0.917
2710.43	0.9191
2721.07	0.916
2731.71	0.9135
2742.35	0.912
2753	0.912
2763.64	0.914
2774.28	0.914
2784.93	0.9125
2795.57	0.91
2806.21	0.91
2816.86	0.91
2827.5	0.91
2838.14	0.91
2848.79	0.909
2859.43	0.902
2870.07	0.9031
2880.71	0.904
2891.36	0.9028
2902	0.9008
2912.64	0.9
2923.29	0.8948
2933.93	0.892
2944.57	0.893
2955.22	0.894
2965.86	0.894
2976.5	0.8924
2987.14	0.894
2997.79	0.894
3008.43	0.894
3019.07	0.894
3029.72	0.894
3040.36	0.893
3051	0.893
3061.65	0.892
3072.29	0.889
3082.93	0.8866
3093.57	0.886
3104.22	0.884
3114.86	0.885
3125.5	0.882
3136.15	0.881
3146.79	0.88
3157.43	0.88
3168.08	0.878
3178.72	0.8772
3189.36	0.8744
3200.01	0.8722
3210.65	0.8664
3221.29	0.8642
3231.93	0.862
3242.58	0.861
3253.22	0.86
3263.86	0.858
3274.51	0.8543
3285.15	0.849
3295.79	0.8411
3306.44	0.84
3317.08	0.832
3327.72	0.8281
3338.36	0.8241
3349.01	0.8171
3359.65	0.8054
3370.29	0.7982
3380.94	0.7891
3391.58	0.7781
3402.22	0.7721
3412.87	0.7651
3423.51	0.7581
3434.15	0.7501
3444.79	0.7461
3455.44	0.744
3466.08	0.741
3476.72	0.741
3487.37	0.744
3498.01	0.746
3508.65	0.75
3519.3	0.753
3529.94	0.76
3540.58	0.769
3551.23	0.7741
3561.87	0.781
3572.51	0.7892
3583.15	0.8012
3593.8	0.8081
3604.44	0.8161
3615.08	0.825
3625.73	0.825
3636.37	0.8331
3647.01	0.841
3657.66	0.842
3668.3	0.845
3678.94	0.8491
3689.58	0.8518
3700.23	0.8356
3710.87	0.8367
3721.51	0.8546
3732.16	0.8612
3742.8	0.8642
3753.44	0.865
3764.09	0.8637
3774.73	0.8624
3785.37	0.864
3796.02	0.8634
3806.66	0.861
3817.3	0.861
3827.94	0.862
3838.59	0.861
3849.23	0.862
3859.87	0.861
3870.52	0.86
3881.16	0.858
3891.8	0.858
3902.45	0.858
3913.09	0.858
3923.73	0.858
3934.37	0.8567
3945.02	0.857
3955.66	0.858
3966.3	0.8577
3976.95	0.8567
3987.59	0.854
