Infrared Spectrum: 2,4-Dimethylphenoxyacetic acid
Formula: C 10 H 12 O 3
CAS: 13334-49-1
State: gas
Origin: EPA-IR VAPOR PHASE LIBRARY
1/CM	ABSORBANCE
549.9	0.03222
559.547	0.03725
569.193	0.04342
578.84	0.05063
588.486	0.05199
598.133	0.05108
607.779	0.05644
617.426	0.06005
627.072	0.05552
636.719	0.04553
646.365	0.035
656.012	0.03004
665.658	0.02671
675.305	0.02256
684.951	0.01898
694.598	0.01613
704.245	0.0147
713.891	0.01439
723.538	0.01141
733.184	0.01005
742.831	0.01216
752.477	0.01788
762.124	0.01785
771.77	0.01728
781.417	0.0245
791.063	0.0432
800.71	0.05358
810.356	0.03834
820.003	0.0229
829.649	0.01633
839.296	0.01543
848.943	0.01714
858.589	0.01972
868.236	0.02441
877.882	0.02203
887.529	0.01488
897.175	0.01115
906.822	0.00941
916.468	0.00854
926.115	0.00851
935.761	0.00833
945.408	0.00826
955.054	0.00878
964.701	0.00994
974.347	0.01201
983.994	0.01445
993.64	0.01732
1003.29	0.0216
1012.93	0.02532
1022.58	0.03101
1032.23	0.044
1041.87	0.06461
1051.52	0.08462
1061.17	0.1012
1070.81	0.10641
1080.46	0.08345
1090.11	0.06194
1099.75	0.08036
1109.4	0.14931
1119.05	0.21404
1128.69	0.20002
1138.34	0.14623
1147.99	0.11546
1157.63	0.09818
1167.28	0.08085
1176.92	0.07017
1186.57	0.07156
1196.22	0.09478
1205.86	0.15087
1215.51	0.20176
1225.16	0.16594
1234.8	0.09797
1244.45	0.09992
1254.1	0.11227
1263.74	0.09272
1273.39	0.07244
1283.04	0.06502
1292.68	0.06552
1302.33	0.05685
1311.98	0.05207
1321.62	0.05934
1331.27	0.07316
1340.92	0.07895
1350.56	0.07326
1360.21	0.06459
1369.86	0.05264
1379.5	0.04509
1389.15	0.03977
1398.79	0.03381
1408.44	0.02999
1418.09	0.02826
1427.73	0.02879
1437.38	0.03297
1447.03	0.03957
1456.67	0.03455
1466.32	0.03002
1475.97	0.03898
1485.61	0.0733
1495.26	0.15709
1504.91	0.18663
1514.55	0.09302
1524.2	0.03811
1533.85	0.02247
1543.49	0.01671
1553.14	0.01399
1562.79	0.01207
1572.43	0.01142
1582.08	0.01227
1591.73	0.01344
1601.37	0.0148
1611.02	0.01691
1620.67	0.01366
1630.31	0.00858
1639.96	0.00679
1649.6	0.0064
1659.25	0.00633
1668.9	0.00679
1678.54	0.00728
1688.19	0.00798
1697.84	0.00899
1707.48	0.01066
1717.13	0.01368
1726.78	0.01913
1736.42	0.02879
1746.07	0.041
1755.72	0.05901
1765.36	0.09135
1775.01	0.15983
1784.66	0.17824
1794.3	0.16636
1803.95	0.22237
1813.6	0.20473
1823.24	0.10586
1832.89	0.05284
1842.54	0.03378
1852.18	0.02271
1861.83	0.01539
1871.47	0.01101
1881.12	0.00837
1890.77	0.00686
1900.41	0.00609
1910.06	0.0055412
1919.71	0.00507502
1929.35	0.004758
1939	0.004584
1948.65	0.004595
1958.29	0.004699
1967.94	0.004735
1977.59	0.004647
1987.23	0.004577
1996.88	0.004499
2006.53	0.004423
2016.17	0.004399
2025.82	0.004401
2035.47	0.004413
2045.11	0.004403
2054.76	0.004139
2064.41	0.00378
2074.05	0.00365
2083.7	0.00364
2093.35	0.00366
2102.99	0.00364
2112.64	0.00354
2122.28	0.00358
2131.93	0.00363
2141.58	0.00364
2151.22	0.00359
2160.87	0.00353
2170.52	0.00358
2180.16	0.00366
2189.81	0.00372
2199.46	0.00378
2209.1	0.00378
2218.75	0.00371
2228.4	0.00354
2238.04	0.00336
2247.69	0.00345
2257.34	0.00353
2266.98	0.00359
2276.63	0.00363
2286.28	0.00375
2295.92	0.00379
2305.57	0.0038
2315.22	0.00372
2324.86	0.0035
2334.51	0.00338
2344.16	0.0033
2353.8	0.00337
2363.45	0.0035
2373.09	0.00341
2382.74	0.00318
2392.39	0.00306
2402.03	0.00321
2411.68	0.00335
2421.33	0.00336
2430.97	0.00326
2440.62	0.00314
2450.27	0.00311
2459.91	0.00321
2469.56	0.00315
2479.21	0.00317
2488.85	0.00313
2498.5	0.00322
2508.15	0.00324
2517.79	0.00313
2527.44	0.0029
2537.09	0.00275
2546.73	0.00263
2556.38	0.00242
2566.03	0.00226
2575.67	0.00217
2585.32	0.00197
2594.96	0.0018
2604.61	0.00176
2614.26	0.0017
2623.9	0.00164
2633.55	0.00158
2643.2	0.00154
2652.84	0.0015
2662.49	0.00159
2672.14	0.0016
2681.78	0.00158
2691.43	0.00178
2701.08	0.00188
2710.72	0.0018
2720.37	0.00195
2730.02	0.00245
2739.66	0.00389
2749.31	0.00391
2758.96	0.00256
2768.6	0.00223
2778.25	0.00231
2787.9	0.00253
2797.54	0.00295
2807.19	0.0032
2816.84	0.00394
2826.48	0.0050233
2836.13	0.00704
2845.77	0.0104
2855.42	0.0166
2865.07	0.02687
2874.71	0.03487
2884.36	0.0324
2894.01	0.02977
2903.65	0.03265
2913.3	0.04287
2922.95	0.06468
2932.59	0.08604
2942.24	0.07301
2951.89	0.04911
2961.53	0.03795
2971.18	0.03192
2980.83	0.0294
2990.47	0.02828
3000.12	0.02958
3009.77	0.03693
3019.41	0.0461
3029.06	0.03925
3038.71	0.03177
3048.35	0.02738
3058	0.01978
3067.64	0.01562
3077.29	0.01208
3086.94	0.00881
3096.58	0.00659
3106.23	0.0054695
3115.88	0.004566
3125.52	0.00352
3135.17	0.00203
3144.82	0.00125
3154.46	0.00081
3164.11	0.00045
3173.76	0.00026
3183.4	0.00013
3193.05	0.00019
3202.7	3e-05
3212.34	6e-05
3221.99	0.00023
3231.64	0.00018
3241.28	0.00038
3250.93	0.00032
3260.58	0.00043
3270.22	0.0005
3279.87	0.00076
3289.52	0.00087
3299.16	0.00083
3308.81	0.00096
3318.45	0.00099
3328.1	0.00094
3337.75	0.00105
3347.39	0.0011
3357.04	0.00123
3366.69	0.00107
3376.33	0.00134
3385.98	0.00141
3395.63	0.00141
3405.27	0.00179
3414.92	0.00202
3424.57	0.00261
3434.21	0.00291
3443.86	0.0033
3453.51	0.00355
3463.15	0.004152
3472.8	0.0053969
3482.45	0.00832
3492.09	0.01452
3501.74	0.02521
3511.39	0.0392
3521.03	0.04103
3530.68	0.02797
3540.33	0.02029
3549.97	0.019
3559.62	0.02926
3569.26	0.07646
3578.91	0.09329
3588.56	0.03859
3598.2	0.0141
3607.85	0.00867
3617.5	0.00611
3627.14	0.004572
3636.79	0.0035
3646.44	0.00324
3656.08	0.00286
3665.73	0.00281
3675.38	0.00262
3685.02	0.00253
3694.67	0.00249
3704.32	0.00249
3713.96	0.00247
3723.61	0.00245
3733.26	0.00261
3742.9	0.00286
3752.55	0.00266
3762.2	0.00256
3771.84	0.00255
3781.49	0.00259
3791.13	0.00255
3800.78	0.00259
3810.43	0.00248
3820.07	0.00247
3829.72	0.00244
3839.37	0.00248
3849.01	0.00248
3858.66	0.00248
3868.31	0.00241
3877.95	0.00252
3887.6	0.00242
3897.25	0.00251
3906.89	0.00262
3916.54	0.00257
3926.19	0.00262
3935.83	0.00271
3945.48	0.00289
3955.13	0.00296
3964.77	0.00293
3974.42	0.00294
3984.07	0.00287
3993.71	0.00276
