Infrared Spectrum: PHOSPHINIC ACID, PHENYL-, ISOBUTYL ESTER
Formula: C10 H15 O2 P
CAS: 13336-52-2
State: LIQUID
Class: COBLENTZ
Instrument: PERKIN-ELMER
Sampling: TRANSMISSION
Path length: 0.0015 CM
Resolution: 4
Origin: STANDARD OIL OF OHIO
MICROMETERS	TRANSMITTANCE
1.993	0.996
2.02675	0.993
2.0605	0.991
2.09425	0.991
2.128	0.991
2.16175	0.986
2.1955	0.986
2.22925	0.988
2.263	0.981
2.29675	0.974
2.3305	0.972
2.36425	0.972
2.398	0.972
2.43175	0.967
2.4655	0.961
2.49925	0.971
2.533	0.979
2.56675	0.978
2.6005	0.979
2.63425	0.981
2.668	0.981
2.70175	0.981
2.7355	0.974
2.76925	0.956
2.803	0.903
2.83675	0.844
2.8705	0.766
2.90425	0.727
2.938	0.773
2.97175	0.852
3.0055	0.895
3.03925	0.92
3.073	0.932
3.10675	0.932
3.1405	0.925
3.17425	0.92
3.208	0.874
3.24175	0.774
3.2755	0.78
3.30925	0.766
3.343	0.323
3.37675	0.25
3.4105	0.409
3.44425	0.463
3.478	0.56
3.51175	0.785
3.5455	0.857
3.57925	0.881
3.613	0.893
3.64675	0.898
3.6805	0.903
3.71425	0.915
3.748	0.923
3.78175	0.927
3.8155	0.927
3.84925	0.928
3.883	0.93
3.91675	0.937
3.9505	0.942
3.98425	0.94
4.018	0.94
4.05175	0.935
4.0855	0.925
4.11925	0.901
4.153	0.82
4.18675	0.698
4.2205	0.675
4.25425	0.649
4.288	0.656
4.32175	0.786
4.3555	0.832
4.38925	0.873
4.423	0.9
4.45675	0.91
4.4905	0.92
4.52425	0.93
4.558	0.937
4.59175	0.942
4.6255	0.944
4.65925	0.947
4.693	0.949
4.72675	0.949
4.7605	0.95
4.79425	0.95
4.828	0.95
4.86175	0.952
4.8955	0.954
4.92925	0.95
4.963	0.944
4.99675	0.935
5.0305	0.927
5.06425	0.925
5.098	0.932
5.13175	0.937
5.1655	0.935
5.19925	0.923
5.233	0.913
5.26675	0.905
5.3005	0.915
5.33425	0.922
5.368	0.925
5.40175	0.915
5.4355	0.9
5.46925	0.903
5.503	0.917
5.53675	0.927
5.5705	0.93
5.60425	0.923
5.638	0.928
5.67175	0.937
5.7055	0.942
5.73925	0.945
5.773	0.947
5.80675	0.945
5.8405	0.94
5.87425	0.939
5.908	0.93
5.94175	0.92
5.9755	0.918
6.00925	0.917
6.043	0.915
6.07675	0.917
6.1105	0.917
6.14425	0.913
6.178	0.91
6.21175	0.901
6.2455	0.695
6.27925	0.786
6.313	0.893
6.34675	0.912
6.3805	0.92
6.41425	0.925
6.448	0.928
6.48175	0.93
6.5155	0.93
6.54925	0.932
6.583	0.928
6.61675	0.922
6.6505	0.903
6.68425	0.864
6.718	0.714
6.75175	0.483
6.7855	0.38
6.81925	0.49
6.853	0.619
6.88675	0.656
6.9205	0.397
6.95425	0.453
6.988	0.764
7.02175	0.817
7.0555	0.83
7.08925	0.808
7.123	0.702
7.15675	0.61
7.1905	0.727
7.22425	0.769
7.258	0.697
7.29175	0.622
7.3255	0.778
7.35925	0.866
7.393	0.878
7.42675	0.866
7.4605	0.854
7.49425	0.834
7.528	0.842
7.56175	0.846
7.5955	0.81
7.62925	0.8
7.663	0.8
7.69675	0.798
7.7305	0.78
7.76425	0.73
7.798	0.67
7.83175	0.629
7.8655	0.61
7.89925	0.565
7.933	0.504
7.96675	0.358
8.0005	0.186
8.03425	0.055
8.068	0.006
8.10175	0.005
8.1355	0.01
8.16925	0.069
8.203	0.169
8.23675	0.291
8.2705	0.433
8.30425	0.527
8.338	0.578
8.37175	0.615
8.4055	0.615
8.43925	0.576
8.473	0.573
8.50675	0.617
8.5405	0.642
8.57425	0.639
8.608	0.641
8.64175	0.673
8.6755	0.7
8.70925	0.708
8.743	0.693
8.77675	0.617
8.8105	0.433
8.84425	0.174
8.878	0.082
8.91175	0.199
8.9455	0.351
8.97925	0.521
9.013	0.571
9.04675	0.58
9.0805	0.585
9.11425	0.617
9.148	0.641
9.18175	0.629
9.2155	0.561
9.24925	0.487
9.283	0.331
9.31675	0.255
9.3505	0.218
9.38425	0.214
9.418	0.233
9.45175	0.24
9.4855	0.214
9.51925	0.167
9.553	0.133
9.58675	0.109
9.6205	0.086
9.65425	0.076
9.688	0.094
9.72175	0.13
9.7555	0.164
9.78925	0.223
9.823	0.263
9.85675	0.263
9.8905	0.228
9.92425	0.162
9.958	0.133
9.99175	0.125
10.0255	0.113
10.0593	0.109
10.093	0.116
10.1267	0.123
10.1605	0.12
10.1943	0.103
10.228	0.065
10.2618	0.033
10.2955	0.011
10.3293	0.008
10.363	0.005
10.3968	0.003
10.4305	0.003
10.4642	0.008
10.498	0.018
10.5318	0.04
10.5655	0.074
10.5992	0.125
10.633	0.169
10.6668	0.225
10.7005	0.277
10.7342	0.316
10.768	0.348
10.8018	0.377
10.8355	0.45
10.8693	0.534
10.903	0.566
10.9367	0.582
10.9705	0.588
11.0043	0.617
11.038	0.661
11.0717	0.708
11.1055	0.751
11.1393	0.78
11.173	0.803
11.2067	0.822
11.2405	0.832
11.2743	0.84
11.308	0.844
11.3418	0.847
11.3755	0.849
11.4093	0.847
11.443	0.839
11.4768	0.83
11.5105	0.815
11.5442	0.79
11.578	0.758
11.6118	0.719
11.6455	0.668
11.6792	0.626
11.713	0.59
11.7468	0.558
11.7805	0.539
11.8142	0.538
11.848	0.536
11.8818	0.536
11.9155	0.536
11.9493	0.534
11.983	0.532
12.0168	0.529
12.0505	0.527
12.0843	0.514
12.118	0.487
12.1517	0.48
12.1855	0.516
12.2193	0.554
12.253	0.595
12.2867	0.622
12.3205	0.648
12.3543	0.663
12.388	0.678
12.4217	0.693
12.4555	0.708
12.4893	0.722
12.523	0.732
12.5568	0.741
12.5905	0.747
12.6242	0.756
12.658	0.764
12.6918	0.774
12.7255	0.786
12.7592	0.798
12.793	0.803
12.8268	0.812
12.8605	0.817
12.8942	0.818
12.928	0.82
12.9618	0.81
12.9955	0.793
13.0292	0.759
13.063	0.703
13.0968	0.637
13.1305	0.546
13.1643	0.46
13.198	0.35
13.2317	0.248
13.2655	0.187
13.2993	0.159
13.333	0.153
13.3667	0.172
13.4005	0.263
13.4343	0.387
13.468	0.546
13.5017	0.632
13.5355	0.68
13.5693	0.712
13.603	0.722
13.6368	0.722
13.6705	0.712
13.7043	0.697
13.738	0.673
13.7718	0.649
13.8055	0.642
13.8392	0.641
13.873	0.648
13.9068	0.649
13.9405	0.634
13.9742	0.553
14.008	0.461
14.0418	0.329
14.0755	0.238
14.1092	0.228
14.143	0.25
14.1768	0.323
14.2105	0.389
14.2443	0.428
14.278	0.417
14.3117	0.355
14.3455	0.269
14.3793	0.186
14.413	0.16
14.4467	0.175
14.4805	0.279
14.5143	0.402
14.548	0.527
14.5817	0.637
14.6155	0.697
14.6493	0.736
14.683	0.754
14.7167	0.766
14.7505	0.769
14.7843	0.771
14.818	0.774
14.8518	0.78
14.8855	0.79
14.9192	0.798
14.953	0.803
14.9868	0.81
15.0205	0.825
15.0542	0.832
15.088	0.839
15.1218	0.842
15.1555	0.844
15.1892	0.846
15.223	0.846
15.2568	0.846
15.2905	0.846
15.3243	0.846
15.358	0.847
15.3918	0.847
