Infrared Spectrum: 4-NITROSO-2,6-XYLENOL
Formula: C8 H9 N O2
CAS: 13331-93-6
State: SOLID (NUJOL MULL)
Class: COBLENTZ
Instrument: Not specified, most likely a prism, grating, or hybrid spectrometer.
Sampling: TRANSMISSION
Resolution: 4
Origin: TENNESSEE EASTMAN COMPANY, RESEARCH LABORATORIES
MICROMETERS	TRANSMITTANCE
2.021	0.395
2.06209	0.395
2.10319	0.399
2.14428	0.404
2.18538	0.414
2.22647	0.418
2.26756	0.418
2.30866	0.416
2.34975	0.418
2.39085	0.426
2.43194	0.438
2.47303	0.45
2.51413	0.464
2.55522	0.474
2.59632	0.479
2.63741	0.482
2.6785	0.511
2.7196	0.525
2.76069	0.534
2.80179	0.539
2.84288	0.556
2.88397	0.587
2.92507	0.6
2.96616	0.605
3.00726	0.595
3.04835	0.554
3.08944	0.445
3.13054	0.336
3.17163	0.308
3.21273	0.313
3.25382	0.257
3.29491	0.262
3.33601	0.232
3.3771	0.039
3.4182	0.01
3.45929	0.008
3.50038	0.008
3.54148	0.201
3.58257	0.288
3.62367	0.324
3.66476	0.339
3.70585	0.361
3.74695	0.385
3.78804	0.409
3.82914	0.426
3.87023	0.44
3.91132	0.462
3.95242	0.481
3.99351	0.501
4.0346	0.518
4.0757	0.522
4.11679	0.53
4.15789	0.537
4.19898	0.54
4.24007	0.568
4.28117	0.559
4.32226	0.561
4.36336	0.571
4.40445	0.592
4.44554	0.598
4.48664	0.602
4.52773	0.617
4.56883	0.627
4.60992	0.631
4.65101	0.641
4.69211	0.646
4.7332	0.65
4.7743	0.655
4.81539	0.668
4.85648	0.67
4.89758	0.67
4.93867	0.677
4.97977	0.68
5.02086	0.687
5.06195	0.697
5.10305	0.697
5.14414	0.709
5.18524	0.715
5.22633	0.715
5.26742	0.725
5.30852	0.732
5.34961	0.74
5.39071	0.75
5.4318	0.749
5.47289	0.745
5.51399	0.764
5.55508	0.773
5.59618	0.779
5.63727	0.79
5.67836	0.796
5.71946	0.8
5.76055	0.798
5.80165	0.82
5.84274	0.822
5.88383	0.832
5.92493	0.839
5.96602	0.853
6.00712	0.866
6.04821	0.837
6.0893	0.522
6.1304	0.331
6.17149	0.621
6.21259	0.29
6.25368	0.226
6.29477	0.428
6.33587	0.5
6.37696	0.45
6.41806	0.378
6.45915	0.397
6.50024	0.424
6.54134	0.45
6.58243	0.474
6.62353	0.489
6.66462	0.52
6.70571	0.518
6.74681	0.392
6.7879	0.189
6.829	0.153
6.87009	0.177
6.91118	0.247
6.95228	0.302
6.99337	0.3
7.03447	0.288
7.07556	0.385
7.11665	0.455
7.15775	0.498
7.19884	0.406
7.23994	0.262
7.28103	0.252
7.32212	0.397
7.36322	0.527
7.40431	0.583
7.44541	0.474
7.4865	0.486
7.52759	0.542
7.56869	0.566
7.60978	0.343
7.65088	0.319
7.69197	0.313
7.73306	0.43
7.77416	0.513
7.81525	0.547
7.85635	0.588
7.89744	0.607
7.93853	0.627
7.97963	0.643
8.02072	0.653
8.06181	0.674
8.10291	0.687
8.144	0.674
8.1851	0.629
8.22619	0.682
8.26728	0.696
8.30838	0.718
8.34947	0.728
8.39057	0.704
8.43166	0.597
8.47275	0.646
8.51385	0.679
8.55494	0.696
8.59604	0.716
8.63713	0.726
8.67822	0.738
8.71932	0.755
8.76041	0.766
8.80151	0.774
8.8426	0.786
8.88369	0.793
8.92479	0.798
8.96588	0.803
9.00698	0.812
9.04807	0.815
9.08916	0.819
9.13026	0.827
9.17135	0.832
9.21245	0.837
9.25354	0.839
9.29463	0.841
9.33573	0.841
9.37682	0.819
9.41792	0.72
9.45901	0.569
9.5001	0.375
9.5412	0.37
9.58229	0.482
9.62339	0.539
9.66448	0.636
9.70557	0.701
9.74667	0.696
9.78776	0.6
9.82886	0.409
9.86995	0.339
9.91104	0.249
9.95214	0.151
9.99323	0.139
10.0343	0.232
10.0754	0.324
10.1165	0.395
10.1576	0.445
10.1987	0.482
10.2398	0.517
10.2809	0.525
10.322	0.537
10.3631	0.578
10.4042	0.614
10.4453	0.639
10.4864	0.66
10.5275	0.68
10.5685	0.658
10.6096	0.527
10.6507	0.527
10.6918	0.595
10.7329	0.633
10.774	0.638
10.8151	0.508
10.8562	0.351
10.8973	0.319
10.9384	0.3
10.9795	0.39
11.0206	0.494
11.0617	0.544
11.1028	0.598
11.1439	0.629
11.185	0.645
11.2261	0.662
11.2671	0.682
11.3082	0.689
11.3493	0.696
11.3904	0.701
11.4315	0.691
11.4726	0.679
11.5137	0.697
11.5548	0.718
11.5959	0.725
11.637	0.728
11.6781	0.726
11.7192	0.726
11.7603	0.726
11.8014	0.726
11.8425	0.726
11.8836	0.726
11.9246	0.728
11.9657	0.726
12.0068	0.726
12.0479	0.721
12.089	0.715
12.1301	0.703
12.1712	0.689
12.2123	0.674
12.2534	0.663
12.2945	0.648
12.3356	0.638
12.3767	0.636
12.4178	0.636
12.4589	0.636
12.5	0.636
12.5411	0.636
12.5822	0.624
12.6232	0.58
12.6643	0.571
12.7054	0.59
12.7465	0.583
12.7876	0.569
12.8287	0.558
12.8698	0.569
12.9109	0.619
12.952	0.639
12.9931	0.658
13.0342	0.679
13.0753	0.689
13.1164	0.696
13.1575	0.701
13.1986	0.706
13.2397	0.711
13.2808	0.713
13.3218	0.715
13.3629	0.716
13.404	0.718
13.4451	0.716
13.4862	0.716
13.5273	0.715
13.5684	0.715
13.6095	0.715
13.6506	0.711
13.6917	0.711
13.7328	0.709
13.7739	0.709
13.815	0.708
13.8561	0.706
13.8972	0.706
13.9383	0.713
13.9793	0.721
14.0204	0.726
14.0615	0.728
14.1026	0.73
14.1437	0.735
14.1848	0.735
14.2259	0.735
14.267	0.735
14.3081	0.733
14.3492	0.732
14.3903	0.726
14.4314	0.711
14.4725	0.692
14.5136	0.686
14.5547	0.68
14.5958	0.682
14.6369	0.677
14.6779	0.674
14.719	0.667
14.7601	0.662
14.8012	0.66
14.8423	0.658
14.8834	0.658
14.9245	0.66
14.9656	0.66
15.0067	0.66
15.0478	0.66
15.0889	0.66
15.13	0.66
15.1711	0.66
15.2122	0.656
15.2533	0.658
15.2944	0.656
15.3354	0.655
15.3765	0.65
15.4176	0.648
15.4587	0.643
15.4998	0.639
15.5409	0.638
15.582	0.636
15.6231	0.634
15.6642	0.631
15.7053	0.631
15.7464	0.629
15.7875	0.629
15.8286	0.629
15.8697	0.629
15.9108	0.627
15.9519	0.627
15.993	0.629
