Infrared Spectrum: 1-Undecenoic acid
Formula: C 11 H 20 O 2
CAS: 1333-28-4
State: gas
Instrument: HP-GC/MS/IRD
Origin: NIST Mass Spectrometry Data Center
1/CM	ABSORBANCE
550	0.0016814
562	0.001792
574	0.0017458
586	0.001862
598	0.0020552
610	0.0020706
622	0.0020216
634	0.0017612
646	0.0011466
658	0.000833
670	0.00056
682	0.0005306
694	0.0005404
706	0.0005306
718	0.0005852
730	0.0005418
742	0.0004326
754	0.000294
766	0.0002464
778	0.0001512
790	7e-05
802	3.22e-05
814	3.08e-05
826	5.04e-05
838	7.84e-05
850	0.0001484
862	0.0002408
874	0.0003304
886	0.0004564
898	0.0008106
910	0.0017962
922	0.0014224
934	0.0007196
946	0.0004942
958	0.0004382
970	0.0004886
982	0.0007644
994	0.0010612
1006	0.0008722
1018	0.000819
1030	0.0008904
1042	0.0011396
1054	0.0015316
1066	0.0021896
1078	0.0029946
1090	0.0039158
1102	0.004802
1114	0.0056294
1126	0.0058366
1138	0.005012
1150	0.0038346
1162	0.0030282
1174	0.0025536
1186	0.002086
1198	0.0017066
1210	0.0014406
1222	0.0011774
1234	0.0010164
1246	0.0009464
1258	0.0009576
1270	0.0009758
1282	0.0009478
1294	0.0009198
1306	0.0008876
1318	0.0008484
1330	0.0009282
1342	0.0012264
1354	0.001505
1366	0.0016548
1378	0.0016884
1390	0.0013944
1402	0.0009156
1414	0.0007714
1426	0.0008638
1438	0.001085
1450	0.0013412
1462	0.0013804
1474	0.0007434
1486	0.0002674
1498	0.0001414
1510	8.26e-05
1522	5.46e-05
1534	3.22e-05
1546	3.36e-05
1558	4.48e-05
1570	2.1e-05
1582	8.4e-06
1594	3.92e-05
1606	7.84e-05
1618	0.0002212
1630	0.0004718
1642	0.0008036
1654	0.00035
1666	0.0001722
1678	0.0001638
1690	0.0002198
1702	0.0003696
1714	0.0006216
1726	0.001197
1738	0.0023366
1750	0.0042714
1762	0.0072786
1774	0.0113624
1786	0.0094458
1798	0.0052584
1810	0.002604
1822	0.0012222
1834	0.0006566
1846	0.0003528
1858	0.0001848
1870	0.0001344
1882	8.26e-05
1894	6.58e-05
1906	6.16e-05
1918	4.34e-05
1930	2.66e-05
1942	2.8e-05
1954	3.64e-05
1966	3.08e-05
1978	4.62e-05
1990	2.8e-05
2002	1.68e-05
2014	2.94e-05
2026	2.38e-05
2038	2.66e-05
2050	9.8e-06
2062	1.54e-05
2074	2.8e-05
2086	9.8e-06
2098	4.2e-06
2110	1.12e-05
2122	2.24e-05
2134	2.94e-05
2146	2.1e-05
2158	2.94e-05
2170	2.52e-05
2182	6.44e-05
2194	3.78e-05
2206	5.18e-05
2218	5.04e-05
2230	3.22e-05
2242	3.92e-05
2254	2.66e-05
2266	2.52e-05
2278	2.94e-05
2290	3.36e-05
2302	3.08e-05
2314	3.78e-05
2326	3.92e-05
2338	1.82e-05
2350	2.1e-05
2362	2.8e-05
2374	3.22e-05
2386	1.4e-05
2398	5.6e-06
2410	2.94e-05
2422	2.38e-05
2434	2.94e-05
2446	1.82e-05
2458	1.12e-05
2470	9.8e-06
2482	1.4e-06
2494	2.66e-05
2506	2.8e-05
2518	5.46e-05
2530	4.76e-05
2542	3.08e-05
2554	3.5e-05
2566	3.78e-05
2578	3.5e-05
2590	3.22e-05
2602	2.94e-05
2614	5.46e-05
2626	6.58e-05
2638	8.26e-05
2650	0.0001176
2662	0.0001162
2674	0.0001232
2686	0.0001302
2698	0.000119
2710	0.0001428
2722	0.0001358
2734	0.000147
2746	0.0001302
2758	0.0001596
2770	0.0001764
2782	0.0002114
2794	0.00028
2806	0.0003906
2818	0.000546
2830	0.0008722
2842	0.0015092
2854	0.0033544
2866	0.0050806
2878	0.0036946
2890	0.0028196
2902	0.0036582
2914	0.0063112
2926	0.0113666
2938	0.013713
2950	0.0085428
2962	0.0043666
2974	0.002646
2986	0.0019474
2998	0.0014546
3010	0.0011648
3022	0.0007504
3034	0.0005446
3046	0.000518
3058	0.00056
3070	0.0007714
3082	0.0012376
3094	0.000896
3106	0.000357
3118	0.0001904
3130	0.0001778
3142	0.0001316
3154	0.0001078
3166	7.28e-05
3178	6.02e-05
3190	8.12e-05
3202	2.66e-05
3214	5.46e-05
3226	2.8e-05
3238	4.34e-05
3250	2.1e-05
3262	2.94e-05
3274	3.5e-05
3286	3.64e-05
3298	5.74e-05
3310	2.24e-05
3322	2.8e-05
3334	8.4e-06
3346	3.08e-05
3358	4.76e-05
3370	5.74e-05
3382	5.46e-05
3394	1.4e-06
3406	6.86e-05
3418	4.48e-05
3430	7.98e-05
3442	5.46e-05
3454	7e-05
3466	7.42e-05
3478	7.28e-05
3490	0.0001092
3502	0.0001526
3514	0.000175
3526	0.0002058
3538	0.000343
3550	0.0005922
3562	0.001582
3574	0.0046606
3586	0.00196
3598	0.0005978
3610	0.0003108
3622	0.000196
3634	0.0001666
3646	0.0001512
3658	0.0001134
3670	0.0001288
3682	0.0001148
3694	0.0001148
3706	0.0001106
3718	5.6e-05
3730	0.0001134
3742	0.000126
3754	0.000112
3766	0.0001204
3778	9.24e-05
3790	0.000105
3802	8.54e-05
3814	0.0001204
3826	0.0001106
3838	0.0001148
