Infrared Spectrum: 3,13Alpha-DIHYDROXY-13,17-SECOESTRA-1,3,5(10),6,8-PENTAEN-17-OIC ACID
Formula: C18 H20 O4
CAS: 133372-01-7
State: SOLID (KBr DISC)
Class: COBLENTZ III
Instrument: BECKMAN IR-7
Sampling: TRANSMISSION
Resolution: 4
Origin: THE WORCESTER FOUNDATION FOR EXPERIMENTAL BIOLOGY, Neal L. McNiven
1/CM	TRANSMITTANCE
602.189	1.028
610.944	1.028
619.698	1.028
628.453	1.027
637.207	1.028
645.962	1.028
654.716	1.028
663.471	1.02
672.226	1.018
680.98	1.017
689.735	1.013
698.489	1.016
707.244	0.978
715.998	0.876
724.753	0.9
733.508	0.888
742.262	0.854
751.017	0.758
759.771	0.726
768.526	0.845
777.28	0.818
786.035	0.75
794.79	0.721
803.544	0.737
812.299	0.774
821.053	0.697
829.808	0.758
838.562	0.892
847.317	0.847
856.072	0.647
864.826	0.5521
873.581	0.743
882.335	0.868
891.09	0.879
899.844	0.885
908.599	0.848
917.354	0.825
926.108	0.779
934.863	0.795
943.617	0.796
952.372	0.73
961.126	0.722
969.881	0.782
978.636	0.6
987.39	0.5089
996.145	0.827
1004.9	0.835
1013.65	0.758
1022.41	0.644
1031.16	0.726
1039.92	0.782
1048.67	0.793
1057.43	0.759
1066.18	0.661
1074.94	0.4501
1083.69	0.223
1092.44	0.664
1101.2	0.666
1109.95	0.391
1118.71	0.5999
1127.46	0.702
1136.22	0.566
1144.97	0.614
1153.73	0.59
1162.48	0.496
1171.24	0.385
1179.99	0.531
1188.75	0.558
1197.5	0.461
1206.25	0.304
1215.01	0.264
1223.76	0.32
1232.52	0.241
1241.27	0.265
1250.03	0.4939
1258.78	0.547
1267.54	0.516
1276.29	0.543
1285.05	0.503
1293.8	0.424
1302.55	0.273
1311.31	0.377
1320.06	0.376
1328.82	0.555
1337.57	0.505
1346.33	0.594
1355.08	0.531
1363.84	0.606
1372.59	0.585
1381.35	0.415
1390.1	0.238
1398.85	0.377
1407.61	0.593
1416.36	0.655
1425.12	0.523
1433.87	0.562
1442.63	0.596
1451.38	0.611
1460.14	0.603
1468.89	0.66
1477.65	0.582
1486.4	0.674
1495.16	0.739
1503.91	0.716
1512.66	0.59
1521.42	0.6261
1530.17	0.739
1538.93	0.768
1547.68	0.784
1556.44	0.787
1565.19	0.694
1573.95	0.602
1582.7	0.646
1591.46	0.534
1600.21	0.337
1608.96	0.482
1617.72	0.361
1626.47	0.4
1635.23	0.522
1643.98	0.591
1652.74	0.585
1661.49	0.499
1670.25	0.356
1679	0.201
1687.76	0.103
1696.51	0.102
1705.26	0.202
1714.02	0.319
1722.77	0.364
1731.53	0.481
1740.28	0.643
1749.04	0.755
1757.79	0.828
1766.55	0.862
1775.3	0.881
1784.06	0.891
1792.81	0.9
1801.57	0.911
1810.32	0.921
1819.07	0.928
1827.83	0.933
1836.58	0.935
1845.34	0.936
1854.09	0.934
1862.85	0.933
1871.6	0.929
1880.36	0.914
1889.11	0.905
1897.87	0.897
1906.62	0.895
1915.37	0.91
1924.13	0.918
1932.88	0.915
1941.64	0.918
1950.39	0.915
1959.15	0.912
1967.9	0.915
1976.66	0.912
1985.41	0.912
1994.17	0.911
2002.92	0.91
2011.67	0.908
2020.43	0.908
2029.18	0.907
2037.94	0.905
2046.69	0.9048
2055.45	0.903
2064.2	0.902
2072.96	0.9007
2081.71	0.8996
2090.47	0.898
2099.22	0.897
2107.98	0.8945
2116.73	0.892
2125.48	0.8894
2134.24	0.888
2142.99	0.8863
2151.75	0.884
2160.5	0.8812
2169.26	0.8782
2178.01	0.8751
2186.77	0.8722
2195.52	0.8691
2204.28	0.866
2213.03	0.863
2221.78	0.8599
2230.54	0.858
2239.29	0.8559
2248.05	0.8548
2256.8	0.8528
2265.56	0.85
2274.31	0.849
2283.07	0.8476
2291.82	0.8462
2300.58	0.845
2309.33	0.8435
2318.08	0.843
2326.84	0.842
2335.59	0.842
2344.35	0.8413
2353.1	0.8393
2361.86	0.8383
2370.61	0.8355
2379.37	0.8295
2388.12	0.8204
2396.88	0.8132
2405.63	0.808
2414.39	0.803
2423.14	0.799
2431.89	0.7959
2440.65	0.7939
2449.4	0.7887
2458.16	0.7848
2466.91	0.7788
2475.67	0.7737
2484.42	0.7687
2493.18	0.7632
2501.93	0.7572
2510.69	0.7511
2519.44	0.7445
2528.19	0.7384
2536.95	0.7328
2545.7	0.7267
2554.46	0.724
2563.21	0.721
2571.97	0.72
2580.72	0.719
2589.48	0.717
2598.23	0.7133
2606.99	0.711
2615.74	0.708
2624.49	0.707
2633.25	0.7039
2642	0.6998
2650.76	0.6949
2659.51	0.6898
2668.27	0.687
2677.02	0.685
2685.78	0.6837
2694.53	0.682
2703.29	0.681
2712.04	0.679
2720.8	0.6716
2729.55	0.6665
2738.3	0.6644
2747.06	0.6624
2755.81	0.6584
2764.57	0.6533
2773.32	0.651
2782.08	0.65
2790.83	0.6492
2799.59	0.6408
2808.34	0.6197
2817.1	0.6013
2825.85	0.5931
2834.6	0.5607
2843.36	0.5444
2852.11	0.5237
2860.87	0.5187
2869.62	0.5079
2878.38	0.4882
2887.13	0.4747
2895.89	0.4763
2904.64	0.4679
2913.4	0.4335
2922.15	0.4167
2930.9	0.4115
2939.66	0.4059
2948.41	0.3944
2957.17	0.4021
2965.92	0.4166
2974.68	0.4264
2983.43	0.4345
2992.19	0.4413
3000.94	0.4504
3009.7	0.4606
3018.45	0.462
3027.2	0.4523
3035.96	0.433
3044.71	0.4169
3053.47	0.4127
3062.22	0.4007
3070.98	0.3927
3079.73	0.388
3088.49	0.3845
3097.24	0.3707
3106	0.349
3114.75	0.3312
3123.51	0.3173
3132.26	0.3037
3141.01	0.2885
3149.77	0.2789
3158.52	0.2734
3167.28	0.2704
3176.03	0.269
3184.79	0.2697
3193.54	0.2715
3202.3	0.2758
3211.05	0.2788
3219.81	0.2829
3228.56	0.2888
3237.31	0.2949
3246.07	0.301
3254.82	0.3071
3263.58	0.3142
3272.33	0.3234
3281.09	0.3347
3289.84	0.3458
3298.6	0.356
3307.35	0.3652
3316.11	0.3757
3324.86	0.3852
3333.61	0.3957
3342.37	0.4069
3351.12	0.419
3359.88	0.4322
3368.63	0.447
3377.39	0.4648
3386.14	0.4831
3394.9	0.4979
3403.65	0.5075
3412.41	0.5148
3421.16	0.5217
3429.92	0.5211
3438.67	0.5189
3447.42	0.525
3456.18	0.543
3464.93	0.5543
3473.69	0.5684
3482.44	0.5759
3491.2	0.5907
3499.95	0.6007
3508.71	0.6075
3517.46	0.6146
3526.22	0.6221
3534.97	0.631
3543.72	0.6344
3552.48	0.6375
3561.23	0.6466
3569.99	0.6633
3578.74	0.6742
3587.5	0.6876
3596.25	0.6944
3605.01	0.6977
3613.76	0.7008
3622.52	0.7066
3631.27	0.708
3640.02	0.709
3648.78	0.7109
3657.53	0.711
3666.29	0.714
3675.04	0.719
3683.8	0.721
3692.55	0.721
3701.31	0.7188
3710.06	0.716
3718.82	0.716
3727.57	0.715
3736.33	0.7136
3745.08	0.7116
3753.83	0.711
3762.59	0.711
3771.34	0.71
3780.1	0.71
3788.85	0.7084
3797.61	0.708
3806.36	0.707
3815.12	0.707
3823.87	0.707
3832.63	0.706
3841.38	0.706
3850.13	0.7051
3858.89	0.703
3867.64	0.702
3876.4	0.7
3885.15	0.6999
3893.91	0.6959
3902.66	0.693
3911.42	0.6916
3920.17	0.689
3928.93	0.6893
3937.68	0.69
3946.43	0.69
3955.19	0.689
3963.94	0.688
3972.7	0.688
3981.45	0.688
3990.21	0.687
3998.96	0.6864
