Infrared Spectrum: P-PHENYLAZO CARBANILIC ACID, Alpha-FENCHYL ESTER
Formula: C23 H27 N3 O2
CAS: 133371-97-8
State: SOLID (1.5 mg / 100 mg KBr)
Melting point: 134 C (SHARP)
Class: COBLENTZ
Instrument: Not specified, most likely a grating spectrometer.
Sampling: TRANSMISSION
Resolution: 4
Origin: CITRUS EXPERIMENT STATION, UNIVERSITY OF FLORIDA (G. EDWARDS)
MICROMETERS	TRANSMITTANCE
2.013	0.835
2.04619	0.836
2.07938	0.835
2.11258	0.845
2.14577	0.848
2.17896	0.847
2.21215	0.847
2.24535	0.849
2.27854	0.852
2.31173	0.853
2.34492	0.859
2.37812	0.864
2.41131	0.867
2.4445	0.871
2.47769	0.876
2.51088	0.878
2.54408	0.871
2.57727	0.88
2.61046	0.901
2.64365	0.878
2.67685	0.882
2.71004	0.888
2.74323	0.884
2.77642	0.884
2.80961	0.882
2.84281	0.88
2.876	0.864
2.90919	0.849
2.94238	0.829
2.97558	0.764
3.00877	0.712
3.04196	0.771
3.07515	0.825
3.10835	0.839
3.14154	0.853
3.17473	0.864
3.20792	0.859
3.24111	0.84
3.27431	0.844
3.3075	0.853
3.34069	0.703
3.37388	0.623
3.40708	0.72
3.44027	0.764
3.47346	0.8
3.50665	0.886
3.53985	0.905
3.57304	0.91
3.60623	0.914
3.63942	0.917
3.67261	0.922
3.70581	0.928
3.739	0.928
3.77219	0.93
3.80538	0.93
3.83858	0.928
3.87177	0.926
3.90496	0.929
3.93815	0.936
3.97134	0.938
4.00454	0.938
4.03773	0.938
4.07092	0.94
4.10411	0.941
4.13731	0.941
4.1705	0.941
4.20369	0.938
4.23688	0.936
4.27008	0.934
4.30327	0.934
4.33646	0.942
4.36965	0.946
4.40284	0.95
4.43604	0.948
4.46923	0.948
4.50242	0.949
4.53561	0.95
4.56881	0.952
4.602	0.954
4.63519	0.956
4.66838	0.956
4.70158	0.956
4.73477	0.954
4.76796	0.953
4.80115	0.954
4.83434	0.956
4.86754	0.957
4.90073	0.958
4.93392	0.96
4.96711	0.961
5.00031	0.961
5.0335	0.957
5.06669	0.956
5.09988	0.953
5.13308	0.949
5.16627	0.956
5.19946	0.954
5.23265	0.95
5.26584	0.95
5.29904	0.957
5.33223	0.962
5.36542	0.964
5.39861	0.958
5.43181	0.948
5.465	0.945
5.49819	0.944
5.53138	0.941
5.56457	0.942
5.59777	0.944
5.63096	0.926
5.66415	0.909
5.69734	0.811
5.73054	0.666
5.76373	0.662
5.79692	0.605
5.83011	0.531
5.86331	0.562
5.8965	0.634
5.92969	0.827
5.96288	0.863
5.99607	0.869
6.02927	0.888
6.06246	0.89
6.09565	0.886
6.12884	0.869
6.16204	0.796
6.19523	0.639
6.22842	0.492
6.26161	0.575
6.29481	0.744
6.328	0.839
6.36119	0.811
6.39438	0.593
6.42757	0.5
6.46077	0.372
6.49396	0.393
6.52715	0.496
6.56034	0.583
6.59354	0.658
6.62673	0.703
6.65992	0.75
6.69311	0.767
6.7263	0.783
6.7595	0.73
6.79269	0.7
6.82588	0.696
6.85907	0.746
6.89227	0.742
6.92546	0.692
6.95865	0.757
6.99184	0.809
7.02504	0.773
7.05823	0.638
7.09142	0.647
7.12461	0.768
7.1578	0.791
7.191	0.788
7.22419	0.78
7.25738	0.769
7.29057	0.775
7.32377	0.813
7.35696	0.849
7.39015	0.832
7.42334	0.791
7.45654	0.716
7.48973	0.679
7.52292	0.668
7.55611	0.644
7.5893	0.606
7.6225	0.562
7.65569	0.581
7.68888	0.715
7.72207	0.803
7.75527	0.843
7.78846	0.849
7.82165	0.815
7.85484	0.784
7.88803	0.788
7.92123	0.757
7.95442	0.7
7.98761	0.658
8.0208	0.507
8.054	0.4
8.08719	0.36
8.12038	0.337
8.15357	0.304
8.18677	0.32
8.21996	0.34
8.25315	0.382
8.28634	0.462
8.31953	0.585
8.35273	0.694
8.38592	0.756
8.41911	0.781
8.4523	0.811
8.4855	0.813
8.51869	0.819
8.55188	0.813
8.58507	0.78
8.61827	0.72
8.65146	0.636
8.68465	0.67
8.71784	0.699
8.75103	0.684
8.78423	0.751
8.81742	0.816
8.85061	0.841
8.8838	0.848
8.917	0.845
8.95019	0.829
8.98338	0.792
9.01657	0.763
9.04977	0.791
9.08296	0.825
9.11615	0.831
9.14934	0.824
9.18253	0.8
9.21573	0.743
9.24892	0.634
9.28211	0.663
9.3153	0.61
9.3485	0.497
9.38169	0.389
9.41488	0.348
9.44807	0.381
9.48126	0.474
9.51446	0.603
9.54765	0.663
9.58084	0.695
9.61403	0.719
9.64723	0.735
9.68042	0.732
9.71361	0.719
9.7468	0.702
9.78	0.679
9.81319	0.66
9.84638	0.671
9.87957	0.676
9.91276	0.706
9.94596	0.751
9.97915	0.764
10.0123	0.761
10.0455	0.788
10.0787	0.789
10.1119	0.756
10.1451	0.746
10.1783	0.772
10.2115	0.797
10.2447	0.791
10.2779	0.789
10.3111	0.813
10.3443	0.837
10.3775	0.851
10.4106	0.852
10.4438	0.857
10.477	0.863
10.5102	0.869
10.5434	0.872
10.5766	0.876
10.6098	0.876
10.643	0.872
10.6762	0.88
10.7094	0.881
10.7426	0.872
10.7758	0.856
10.809	0.844
10.8421	0.847
10.8753	0.852
10.9085	0.857
10.9417	0.869
10.9749	0.875
11.0081	0.889
11.0413	0.904
11.0745	0.91
11.1077	0.918
11.1409	0.917
11.1741	0.912
11.2073	0.908
11.2405	0.904
11.2736	0.894
11.3068	0.894
11.34	0.902
11.3732	0.898
11.4064	0.893
11.4396	0.889
11.4728	0.877
11.506	0.878
11.5392	0.882
11.5724	0.897
11.6056	0.888
11.6388	0.877
11.672	0.859
11.7051	0.844
11.7383	0.819
11.7715	0.773
11.8047	0.718
11.8379	0.679
11.8711	0.684
11.9043	0.719
11.9375	0.759
11.9707	0.799
12.0039	0.827
12.0371	0.852
12.0703	0.861
12.1035	0.857
12.1366	0.855
12.1698	0.857
12.203	0.861
12.2362	0.865
12.2694	0.869
12.3026	0.873
12.3358	0.876
12.369	0.869
12.4022	0.867
12.4354	0.857
12.4686	0.856
12.5018	0.857
12.535	0.849
12.5681	0.836
12.6013	0.809
12.6345	0.791
12.6677	0.769
12.7009	0.76
12.7341	0.764
12.7673	0.769
12.8005	0.777
12.8337	0.787
12.8669	0.795
12.9001	0.776
12.9333	0.769
12.9665	0.73
12.9996	0.679
13.0328	0.628
13.066	0.583
13.0992	0.577
13.1324	0.627
13.1656	0.691
13.1988	0.734
13.232	0.764
13.2652	0.784
13.2984	0.797
13.3316	0.803
13.3648	0.808
13.398	0.817
13.4311	0.823
13.4643	0.837
13.4975	0.851
13.5307	0.861
13.5639	0.863
13.5971	0.867
13.6303	0.872
13.6635	0.875
13.6967	0.873
13.7299	0.868
13.7631	0.868
13.7963	0.864
13.8295	0.849
13.8626	0.819
13.8958	0.803
13.929	0.803
13.9622	0.813
13.9954	0.824
14.0286	0.839
14.0618	0.84
14.095	0.847
14.1282	0.848
14.1614	0.848
14.1946	0.844
14.2278	0.844
14.261	0.841
14.2941	0.831
14.3273	0.823
14.3605	0.816
14.3937	0.8
14.4269	0.785
14.4601	0.757
14.4933	0.72
14.5265	0.678
14.5597	0.646
14.5929	0.639
14.6261	0.66
14.6593	0.69
14.6925	0.728
14.7256	0.761
14.7588	0.78
14.792	0.789
14.8252	0.789
14.8584	0.784
14.8916	0.759
14.9248	0.72
14.958	0.736
14.9912	0.797
