Infrared Spectrum: Benzeneboronic acid, m-nitro-
Formula: C6 H6 B N O4
CAS: 13331-27-6
State: SOLID (SPLIT MULL), FLUOROLUBE FOR 3800-1330 CM^-^1, NUJOL FOR 1330-400 CM^-^1
Melting point: 274-275 C
Class: COBLENTZ III
Instrument: DOW KBr FOREPRISM-GRATING
Instrument parameters: BLAZED AT 3.5, 12.0, 20.0 MICRON AND CHANGED AT 5.0, 7.5, 14.9 MICRON
Sampling: TRANSMISSION
Resolution: 2
Origin: DOW CHEMICAL COMPANY
1/CM	TRANSMITTANCE
3800	0.7296
3791	0.7303
3782	0.7311
3773	0.7322
3764	0.7349
3755	0.7372
3746	0.7391
3737	0.7418
3728	0.7468
3719	0.7495
3710	0.7487
3701	0.7482
3692	0.7484
3683	0.7517
3674	0.7617
3665	0.7611
3656	0.7593
3647	0.7582
3638	0.7619
3629	0.7658
3620	0.7685
3611	0.7658
3602	0.761
3593	0.7515
3584	0.738
3575	0.7237
3566	0.6981
3557	0.6699
3548	0.6461
3539	0.6194
3530	0.5824
3521	0.4751
3512	0.388
3503	0.3138
3494	0.2021
3485	0.1975
3476	0.3077
3467	0.3527
3458	0.3808
3449	0.3934
3440	0.3954
3431	0.3946
3422	0.3866
3413	0.3514
3404	0.2968
3395	0.2423
3386	0.2058
3377	0.1845
3368	0.1712
3359	0.1831
3350	0.2184
3341	0.273
3332	0.3184
3323	0.3576
3314	0.38
3305	0.403
3296	0.4238
3287	0.443
3278	0.4595
3269	0.4775
3260	0.4964
3251	0.5146
3242	0.5326
3233	0.5496
3224	0.5659
3215	0.5796
3206	0.5919
3197	0.6027
3188	0.6132
3179	0.6232
3170	0.6328
3161	0.6404
3152	0.6469
3143	0.6526
3134	0.6587
3125	0.664
3116	0.6649
3107	0.6225
3098	0.601
3089	0.6153
3080	0.6079
3071	0.6379
3062	0.6618
3053	0.6715
3044	0.6704
3035	0.6707
3026	0.6812
3017	0.6931
3008	0.6986
2999	0.7028
2990	0.7058
2981	0.7083
2972	0.7108
2963	0.7131
2954	0.7155
2945	0.7174
2936	0.7191
2927	0.7188
2918	0.7151
2909	0.7171
2900	0.7235
2891	0.7268
2882	0.7281
2873	0.7278
2864	0.7256
2855	0.7242
2846	0.7264
2837	0.7307
2828	0.734
2819	0.7372
2810	0.7405
2801	0.7428
2792	0.7444
2783	0.746
2774	0.7475
2765	0.749
2756	0.7505
2747	0.7518
2738	0.7532
2729	0.7549
2720	0.7567
2711	0.7586
2702	0.7604
2693	0.7622
2684	0.7642
2675	0.766
2666	0.7672
2657	0.7685
2648	0.7692
2639	0.7692
2630	0.7692
2621	0.7691
2612	0.7694
2603	0.77
2594	0.7706
2585	0.7715
2576	0.7725
2567	0.7734
2558	0.7744
2549	0.7754
2540	0.7765
2531	0.7774
2522	0.7781
2513	0.778
2504	0.7778
2495	0.7778
2486	0.7778
2477	0.7775
2468	0.7761
2459	0.775
2450	0.7748
2441	0.775
2432	0.7751
2423	0.7751
2414	0.7751
2405	0.7753
2396	0.7754
2387	0.7758
2378	0.7764
2369	0.7769
2360	0.7775
2351	0.7781
2342	0.7785
2333	0.7788
2324	0.7792
2315	0.7795
2306	0.7799
2297	0.7803
2288	0.78
2279	0.7794
2270	0.7788
2261	0.779
2252	0.78
2243	0.781
2234	0.7825
2225	0.785
2216	0.7875
2207	0.79
2198	0.7925
2189	0.795
2180	0.7978
2171	0.8008
2162	0.8037
2153	0.8061
2144	0.8081
2135	0.8101
2126	0.8121
2117	0.8139
2108	0.8158
2099	0.818
2090	0.8203
2081	0.8225
2072	0.8245
2063	0.8258
2054	0.8273
2045	0.8286
2036	0.8298
2027	0.8308
2018	0.8315
2009	0.8312
2000	0.8244
1991	0.8371
1982	0.8394
1973	0.8446
1964	0.8536
1955	0.8424
1946	0.8287
1937	0.8435
1928	0.8475
1919	0.8484
1910	0.8496
1901	0.8506
1892	0.8508
1883	0.853
1874	0.8537
1865	0.8541
1856	0.8478
1847	0.8521
1838	0.8584
1829	0.8575
1820	0.8458
1811	0.8299
1802	0.8497
1793	0.853
1784	0.8528
1775	0.8491
1766	0.8265
1757	0.8368
1748	0.8486
1739	0.8493
1730	0.8468
1721	0.8516
1712	0.8544
1703	0.8584
1694	0.8606
1685	0.8668
1676	0.8693
1667	0.8724
1658	0.873
1649	0.8685
1640	0.8633
1631	0.8511
1622	0.8126
1613	0.4062
1604	0.7478
1595	0.8047
1586	0.8182
1577	0.6229
1568	0.7681
1559	0.8101
1550	0.8197
1541	0.8028
1532	0.6262
1523	0.302
1514	0.2714
1505	0.586
1496	0.665
1487	0.4902
1478	0.4938
1469	0.5789
1460	0.4517
1451	0.4937
1442	0.4885
1433	0.2506
1424	0.4151
1415	0.5639
1406	0.5584
1397	0.4315
1388	0.4165
1379	0.3868
1370	0.2887
1361	0.1727
1352	0.0447
1343	0.0805
1334	0.0583
1325	0.2198
1316	0.4103
1307	0.3466
1298	0.5993
1289	0.6482
1280	0.6387
1271	0.6925
1262	0.7201
1253	0.7287
1244	0.7393
1235	0.7465
1226	0.7378
1217	0.7599
1208	0.7628
1199	0.7593
1190	0.7341
1181	0.5516
1172	0.7501
1163	0.7544
1154	0.519
1145	0.6209
1136	0.7551
1127	0.7878
1118	0.7131
1109	0.4309
1100	0.5959
1091	0.7014
1082	0.4706
1073	0.5043
1064	0.2854
1055	0.4112
1046	0.5758
1037	0.6071
1028	0.4443
1019	0.6081
1010	0.7478
1001	0.7792
992	0.8074
983	0.8262
974	0.8399
965	0.8532
956	0.8646
947	0.8208
938	0.8656
929	0.8751
920	0.8813
911	0.8798
902	0.8691
893	0.883
884	0.8713
875	0.8675
866	0.8891
857	0.885
848	0.887
839	0.8932
830	0.8989
821	0.8171
812	0.8583
803	0.8596
794	0.8068
785	0.629
776	0.5881
767	0.4698
758	0.7736
749	0.8192
740	0.7211
731	0.8097
722	0.8207
713	0.8388
704	0.8337
695	0.627
686	0.3426
677	0.771
668	0.5942
659	0.8019
650	0.8348
641	0.801
632	0.6965
623	0.7115
614	0.7687
605	0.806
596	0.8268
587	0.8011
578	0.7815
569	0.85
560	0.8606
551	0.8442
542	0.8312
533	0.841
524	0.8531
515	0.8643
506	0.8715
497	0.8747
488	0.8723
479	0.8668
470	0.8592
461	0.8447
452	0.8302
443	0.8239
434	0.8151
425	0.8051
416	0.7953
407	0.7841
398	0.7721
389	0.7565
380	0.7421
