Infrared Spectrum: Ethyl furoate
Formula: C 7 H 8 O 3
CAS: 1335-40-6
State: gas
Origin: EPA-IR VAPOR PHASE LIBRARY
1/CM	ABSORBANCE
501.5	0.001597
513.074	7.4e-05
524.648	2.1e-05
536.222	0.0001082
547.796	0.0001922
559.37	0.0005076
570.944	0.001477
582.518	0.005657
594.092	0.012267
605.666	0.011117
617.24	0.010517
628.814	0.007627
640.388	0.003877
651.962	0.002207
663.536	0.001817
675.11	0.002067
686.684	0.002757
698.258	0.002827
709.832	0.003327
721.406	0.007707
732.98	0.028257
744.554	0.070157
756.128	0.097257
767.702	0.073197
779.276	0.033357
790.85	0.014157
802.423	0.011577
813.997	0.014027
825.571	0.014347
837.145	0.011037
848.719	0.008067
860.293	0.009367
871.867	0.012527
883.441	0.022787
895.015	0.018737
906.589	0.007097
918.163	0.014397
929.737	0.027227
941.311	0.022307
952.885	0.010527
964.459	0.007087
976.033	0.008417
987.607	0.016587
999.181	0.052057
1010.76	0.071607
1022.33	0.041067
1033.9	0.023387
1045.48	0.012257
1057.05	0.013227
1068.63	0.033617
1080.2	0.051357
1091.77	0.049437
1103.35	0.131787
1114.92	0.312247
1126.49	0.245297
1138.07	0.067217
1149.64	0.037777
1161.22	0.114607
1172.79	0.223657
1184.36	0.174407
1195.94	0.060107
1207.51	0.029077
1219.09	0.043317
1230.66	0.067177
1242.23	0.040857
1253.81	0.034447
1265.38	0.079557
1276.96	0.233757
1288.53	0.407277
1300.1	0.272177
1311.68	0.077907
1323.25	0.028747
1334.83	0.015757
1346.4	0.014107
1357.97	0.020457
1369.55	0.032317
1381.12	0.045877
1392.7	0.056177
1404.27	0.034917
1415.84	0.017737
1427.42	0.015187
1438.99	0.015857
1450.57	0.020357
1462.14	0.035567
1473.71	0.072877
1485.29	0.082797
1496.86	0.038917
1508.44	0.016487
1520.01	0.009047
1531.58	0.007357
1543.16	0.007777
1554.73	0.014347
1566.31	0.039087
1577.88	0.066347
1589.45	0.047757
1601.03	0.014017
1612.6	0.009307
1624.18	0.010557
1635.75	0.011167
1647.32	0.010397
1658.9	0.010407
1670.47	0.010087
1682.05	0.011397
1693.62	0.016957
1705.19	0.028637
1716.77	0.064147
1728.34	0.157257
1739.92	0.240937
1751.49	0.253317
1763.06	0.190167
1774.64	0.076237
1786.21	0.021027
1797.79	0.009987
1809.36	0.007927
1820.93	0.006857
1832.51	0.006037
1844.08	0.004877
1855.66	0.004077
1867.23	0.003897
1878.8	0.003967
1890.38	0.003757
1901.95	0.002947
1913.53	0.002387
1925.1	0.002337
1936.67	0.002507
1948.25	0.002307
1959.82	0.001967
1971.4	0.002297
1982.97	0.002747
1994.54	0.002347
2006.12	0.001877
2017.69	0.001687
2029.27	0.001677
2040.84	0.001827
2052.41	0.001807
2063.99	0.001717
2075.56	0.001897
2087.14	0.002417
2098.71	0.002407
2110.28	0.002097
2121.86	0.001667
2133.43	0.001387
2145.01	0.001377
2156.58	0.001417
2168.15	0.0011383
2179.73	0.0009157
2191.3	0.0010208
2202.88	0.001257
2214.45	0.001517
2226.02	0.001667
2237.6	0.001557
2249.17	0.001297
2260.74	0.0009961
2272.32	0.0009265
2283.89	0.0010696
2295.47	0.0011984
2307.04	0.0010153
2318.61	0.0008452
2330.19	0.0009445
2341.76	0.0010003
2353.34	0.0009346
2364.91	0.0008502
2376.48	0.0009999
2388.06	0.001497
2399.63	0.001977
2411.21	0.001797
2422.78	0.001257
2434.35	0.0009557
2445.93	0.0011061
2457.5	0.001527
2469.08	0.001497
2480.65	0.0010609
2492.22	0.0010295
2503.8	0.0009304
2515.37	0.0007621
2526.95	0.0005309
2538.52	0.0005962
2550.09	0.0009033
2561.67	0.0010813
2573.24	0.000823
2584.82	0.0007554
2596.39	0.0007299
2607.96	0.0006409
2619.54	0.0005861
2631.11	0.0006327
2642.69	0.0010316
2654.26	0.001297
2665.83	0.0009415
2677.41	0.0005502
2688.98	0.0004546
2700.56	0.0005395
2712.13	0.0006443
2723.7	0.0006935
2735.28	0.0009879
2746.85	0.001457
2758.43	0.002077
2770	0.002317
2781.57	0.002057
2793.15	0.001847
2804.72	0.001927
2816.3	0.002227
2827.87	0.002587
2839.44	0.003327
2851.02	0.004637
2862.59	0.006307
2874.17	0.008517
2885.74	0.011217
2897.31	0.012037
2908.89	0.014037
2920.46	0.015267
2932.04	0.019537
2943.61	0.029767
2955.18	0.029177
2966.76	0.030387
2978.33	0.047027
2989.91	0.055187
3001.48	0.037057
3013.05	0.021667
3024.63	0.011637
3036.2	0.006757
3047.78	0.004407
3059.35	0.003137
3070.92	0.002357
3082.5	0.002167
3094.07	0.001937
3105.65	0.001877
3117.22	0.002437
3128.79	0.003607
3140.37	0.002747
3151.94	0.002067
3163.52	0.001607
3175.09	0.0010143
3186.66	0.0008791
3198.24	0.0008725
3209.81	0.000967
3221.39	0.0010833
3232.96	0.0010438
3244.53	0.0006303
3256.11	0.00022388
3267.68	0.0001299
3279.26	0.0001122
3290.83	0.000174
3302.4	0.00026478
3313.98	0.0004062
3325.55	0.000543
3337.13	0.0004377
3348.7	0.00020259
3360.27	0.0001692
3371.85	0.0001163
3383.42	0.00020325
3395	0.00030301
3406.57	0.0003315
3418.14	0.0004278
3429.72	0.0007639
3441.29	0.001287
3452.86	0.001897
3464.44	0.001987
3476.01	0.001707
3487.59	0.001727
3499.16	0.001697
3510.73	0.001247
3522.31	0.0006871
3533.88	0.0004772
3545.46	0.00027708
3557.03	0.0001481
3568.6	0.0001707
3580.18	0.0001285
3591.75	0.0001393
3603.33	7e-05
3614.9	6.9e-05
3626.47	7.1e-05
3638.05	6.9e-05
3649.62	4.2e-05
3661.2	9.1e-05
3672.77	2.9e-05
3684.34	0.000104
3695.92	7.6e-05
3707.49	8.6e-05
3719.07	0.000103
3730.64	0.0001517
3742.21	0.0001322
3753.79	0.0002496
3765.36	0.0001617
3776.94	0.0001936
3788.51	0.0001827
3800.08	0.00021922
3811.66	0.000209869
3823.23	0.00023592
3834.81	0.00025079
3846.38	0.0001861
3857.95	0.00025278
3869.53	0.000216715
3881.1	0.0001846
3892.68	0.000157
3904.25	0.0001919
3915.82	0.0001496
3927.4	0.0001786
3938.97	0.000211938
3950.55	0.00025413
3962.12	0.0003428
3973.69	0.0003421
3985.27	0.0005161
3996.84	0.0007259
