Infrared Spectrum: Isocyclocitral
Formula: C 10 H 16 O
CAS: 1335-66-6
State: gas
Origin: EPA-IR VAPOR PHASE LIBRARY
1/CM	ABSORBANCE
501.5	0.0007419
513.074	0.001
524.648	0.0009811
536.222	0.00108
547.796	0.0008695
559.37	0.0006828
570.944	0.0003628
582.518	0.0003768
594.092	0.000309
605.666	0.0002177
617.24	0.000284
628.814	0.0004138
640.388	0.000464
651.962	0.0005949
663.536	0.0008712
675.11	0.0007895
686.684	0.0008334
698.258	0.00145
709.832	0.00255
721.406	0.00245
732.98	0.00224
744.554	0.00207
756.128	0.00132
767.702	0.0008754
779.276	0.0008598
790.85	0.00122
802.423	0.00204
813.997	0.00341
825.571	0.00333
837.145	0.00226
848.719	0.00195
860.293	0.00243
871.867	0.00239
883.441	0.00211
895.015	0.00296
906.589	0.00332
918.163	0.00269
929.737	0.00244
941.311	0.0024
952.885	0.00198
964.459	0.00201
976.033	0.00253
987.607	0.00282
999.181	0.00268
1010.76	0.00282
1022.33	0.00309
1033.9	0.0035
1045.48	0.00355
1057.05	0.00319
1068.63	0.00297
1080.2	0.00269
1091.77	0.00273
1103.35	0.00269
1114.92	0.00263
1126.49	0.00294
1138.07	0.0028
1149.64	0.00272
1161.22	0.00342
1172.79	0.00291
1184.36	0.00227
1195.94	0.00277
1207.51	0.00285
1219.09	0.00217
1230.66	0.0024
1242.23	0.00352
1253.81	0.0036
1265.38	0.00295
1276.96	0.00256
1288.53	0.00281
1300.1	0.00356
1311.68	0.00476
1323.25	0.0051
1334.83	0.00441
1346.4	0.0042
1357.97	0.00547
1369.55	0.00822
1381.12	0.01323
1392.7	0.00955
1404.27	0.00409
1415.84	0.0032
1427.42	0.00521
1438.99	0.00876
1450.57	0.01141
1462.14	0.01154
1473.71	0.00722
1485.29	0.003
1496.86	0.0015
1508.44	0.00108
1520.01	0.0008696
1531.58	0.0007738
1543.16	0.0007545
1554.73	0.0007799
1566.31	0.0008187
1577.88	0.0008969
1589.45	0.0009709
1601.03	0.00101
1612.6	0.00116
1624.18	0.00144
1635.75	0.00185
1647.32	0.00236
1658.9	0.00324
1670.47	0.00454
1682.05	0.00547
1693.62	0.00692
1705.19	0.01013
1716.77	0.02536
1728.34	0.06379
1739.92	0.06459
1751.49	0.02498
1763.06	0.00951
1774.64	0.00536
1786.21	0.00356
1797.79	0.00254
1809.36	0.00186
1820.93	0.00134
1832.51	0.00104
1844.08	0.0008196
1855.66	0.0007012
1867.23	0.0005562
1878.8	0.0004629
1890.38	0.0004357
1901.95	0.0004151
1913.53	0.0003975
1925.1	0.0003707
1936.67	0.0003816
1948.25	0.0003921
1959.82	0.0004036
1971.4	0.0003381
1982.97	0.0003024
1994.54	0.0002695
2006.12	0.0002721
2017.69	0.0002432
2029.27	0.0002507
2040.84	0.0002679
2052.41	0.0002299
2063.99	0.000218
2075.56	0.0002325
2087.14	0.000245
2098.71	0.000198
2110.28	0.0002345
2121.86	0.0001953
2133.43	0.0001758
2145.01	0.0001829
2156.58	0.0001924
2168.15	0.0002285
2179.73	0.0001972
2191.3	0.0001665
2202.88	0.0001491
2214.45	0.000167
2226.02	0.0001755
2237.6	0.0001988
2249.17	0.0001752
2260.74	0.000152
2272.32	0.0001605
2283.89	0.0002072
2295.47	0.0002497
2307.04	0.0002542
2318.61	0.0002707
2330.19	0.0002775
2341.76	0.0002873
2353.34	0.0002753
2364.91	0.0003117
2376.48	0.000268
2388.06	0.0003499
2399.63	0.0002959
2411.21	0.0003108
2422.78	0.0003257
2434.35	0.0002984
2445.93	0.0003482
2457.5	0.0004072
2469.08	0.0004114
2480.65	0.0004289
2492.22	0.0004188
2503.8	0.0003735
2515.37	0.0004159
2526.95	0.0004549
2538.52	0.0005203
2550.09	0.0006028
2561.67	0.0006481
2573.24	0.0008059
2584.82	0.0009674
2596.39	0.00122
2607.96	0.00145
2619.54	0.00168
2631.11	0.00197
2642.69	0.00244
2654.26	0.00321
2665.83	0.00455
2677.41	0.00782
2688.98	0.01294
2700.56	0.01505
2712.13	0.01387
2723.7	0.01204
2735.28	0.01015
2746.85	0.00888
2758.43	0.0077
2770	0.00709
2781.57	0.00694
2793.15	0.00812
2804.72	0.01178
2816.3	0.01435
2827.87	0.01623
2839.44	0.01829
2851.02	0.01853
2862.59	0.02535
2874.17	0.03815
2885.74	0.04671
2897.31	0.04888
2908.89	0.04815
2920.46	0.04365
2932.04	0.04161
2943.61	0.03821
2955.18	0.03975
2966.76	0.06013
2978.33	0.05014
2989.91	0.02249
3001.48	0.01218
3013.05	0.00903
3024.63	0.00714
3036.2	0.00555
3047.78	0.00446
3059.35	0.00339
3070.92	0.00277
3082.5	0.00245
3094.07	0.00215
3105.65	0.00188
3117.22	0.00168
3128.79	0.00151
3140.37	0.00131
3151.94	0.00109
3163.52	0.000974
3175.09	0.0009371
3186.66	0.0008126
3198.24	0.0006412
3209.81	0.0004074
3221.39	0.0004816
3232.96	0.0004408
3244.53	0.0003974
3256.11	0.0003647
3267.68	0.0002879
3279.26	0.0002612
3290.83	0.0002938
3302.4	0.0002664
3313.98	0.0002491
3325.55	0.0002474
3337.13	0.0003525
3348.7	0.0003303
3360.27	0.0002787
3371.85	0.0003062
3383.42	0.0002727
3395	0.0003244
3406.57	0.0005013
3418.14	0.0005923
3429.72	0.0009766
3441.29	0.00142
3452.86	0.00142
3464.44	0.0009264
3476.01	0.0007065
3487.59	0.0004661
3499.16	0.0003347
3510.73	0.0002768
3522.31	0.0001906
3533.88	0.0001732
3545.46	0.0001676
3557.03	0.0001223
3568.6	0.0001189
3580.18	0.0001339
3591.75	0.0002064
3603.33	9.299e-05
3614.9	9.59e-05
3626.47	7.158e-05
3638.05	0.0001394
3649.62	0.0002334
3661.2	0.0001132
3672.77	0.0002354
3684.34	0.000136
3695.92	0.0001932
3707.49	0.0002087
3719.07	0.0002565
3730.64	0.0002143
3742.21	0.0001802
3753.79	0.0001846
3765.36	0.0001804
3776.94	0.0002581
3788.51	0.0002389
3800.08	0.0003122
3811.66	0.0003147
3823.23	0.0001826
3834.81	0.0002984
3846.38	0.0002308
3857.95	0.0002202
3869.53	0.0003719
3881.1	0.0002404
3892.68	0.0003649
3904.25	0.0003143
3915.82	0.0002536
3927.4	0.0003166
3938.97	0.0003629
3950.55	0.000314
3962.12	0.0003351
3973.69	0.0003113
3985.27	0.0002821
3996.84	0.0004175
