Infrared Spectrum: 2-Furamidoxime, o-(3-pyridinecarbonyl)-5-nitro
Formula: C11 H8 N4 O5
CAS: 13353-88-3
State: SOLID (NUJOL MULL)
Melting point: 211 C
Class: COBLENTZ III
Instrument: PERKIN-ELMER 21 (GRATING)
Instrument parameters: NaCl PRISM; FILTER AT 10 MICRON
Sampling: TRANSMISSION
Resolution: 2
Origin: ABBOTT LABORATORIES - WASHBURN
1/CM	TRANSMITTANCE
653	0.7268
662	0.7495
671	0.76
680	0.7714
689	0.7622
698	0.5906
707	0.7701
716	0.7516
725	0.7388
734	0.5009
743	0.7135
752	0.7647
761	0.831
770	0.8552
779	0.8612
788	0.8645
797	0.8415
806	0.5992
815	0.7426
824	0.5251
833	0.7278
842	0.8234
851	0.787
860	0.6304
869	0.7563
878	0.8302
887	0.8516
896	0.8286
905	0.822
914	0.767
923	0.4927
932	0.7926
941	0.7997
950	0.7397
959	0.7498
968	0.66
977	0.7788
986	0.7979
995	0.7326
1004	0.7515
1013	0.6891
1022	0.3688
1031	0.6845
1040	0.7304
1049	0.7193
1058	0.7045
1067	0.6705
1076	0.6037
1085	0.4149
1094	0.2108
1103	0.3505
1112	0.5308
1121	0.6467
1130	0.7017
1139	0.73
1148	0.7052
1157	0.6788
1166	0.7044
1175	0.6909
1184	0.5902
1193	0.6172
1202	0.6025
1211	0.6794
1220	0.6762
1229	0.6119
1238	0.5285
1247	0.51
1256	0.543
1265	0.2417
1274	0.1696
1283	0.3409
1292	0.532
1301	0.5517
1310	0.5493
1319	0.5007
1328	0.481
1337	0.3024
1346	0.116
1355	0.1043
1364	0.2706
1373	0.3383
1382	0.499
1391	0.5623
1400	0.4493
1409	0.6094
1418	0.4227
1427	0.6042
1436	0.4531
1445	0.3082
1454	0.1999
1463	0.2214
1472	0.494
1481	0.5977
1490	0.5858
1499	0.2872
1508	0.4634
1517	0.6221
1526	0.5893
1535	0.6916
1544	0.7155
1553	0.6979
1562	0.6702
1571	0.6307
1580	0.3854
1589	0.5541
1598	0.6697
1607	0.5752
1616	0.5163
1625	0.3979
1634	0.1583
1643	0.0814
1652	0.3548
1661	0.5264
1670	0.6217
1679	0.7192
1688	0.7811
1697	0.7859
1706	0.7728
1715	0.7467
1724	0.5506
1733	0.2701
1742	0.5977
1751	0.805
1760	0.845
1769	0.8605
1778	0.8664
1787	0.8657
1796	0.8578
1805	0.8522
1814	0.8686
1823	0.8754
1832	0.87
1841	0.8648
1850	0.8687
1859	0.8749
1868	0.8774
1877	0.8755
1886	0.8709
1895	0.8694
1904	0.8661
1913	0.8623
1922	0.8611
1931	0.8616
1940	0.8628
1949	0.8596
1958	0.8546
1967	0.8501
1976	0.8481
1985	0.8457
1994	0.8431
2003	0.8416
2012	0.8406
2021	0.8402
2030	0.8402
2039	0.8422
2048	0.8459
2057	0.8444
2066	0.8414
2075	0.8397
2084	0.8382
2093	0.8368
2102	0.8354
2111	0.8336
2120	0.8313
2129	0.8284
2138	0.8255
2147	0.8223
2156	0.8184
2165	0.8141
2174	0.8089
2183	0.8035
2192	0.8028
2201	0.8042
2210	0.8057
2219	0.8056
2228	0.8054
2237	0.8033
2246	0.8004
2255	0.7971
2264	0.7935
2273	0.7894
2282	0.7854
2291	0.781
2300	0.7776
2309	0.7762
2318	0.7748
2327	0.7734
2336	0.7731
2345	0.7732
2354	0.7733
2363	0.773
2372	0.7728
2381	0.7724
2390	0.7719
2399	0.7713
2408	0.7706
2417	0.7695
2426	0.7675
2435	0.765
2444	0.7622
2453	0.7587
2462	0.7553
2471	0.7519
2480	0.7486
2489	0.7453
2498	0.7424
2507	0.7395
2516	0.7366
2525	0.7335
2534	0.7302
2543	0.7264
2552	0.7216
2561	0.7157
2570	0.7098
2579	0.7013
2588	0.6921
2597	0.6862
2606	0.6836
2615	0.6814
2624	0.6792
2633	0.6771
2642	0.6746
2651	0.672
2660	0.6695
2669	0.6657
2678	0.661
2687	0.6564
2696	0.6527
2705	0.6502
2714	0.6487
2723	0.6481
2732	0.6476
2741	0.6457
2750	0.6399
2759	0.6185
2768	0.6038
2777	0.588
2786	0.5678
2795	0.5417
2804	0.4984
2813	0.4599
2822	0.3526
2831	0.2344
2840	0.117
2849	0.0397
2858	0.0193
2867	0.0169
2876	0.0164
2885	0.016
2894	0.0071
2903	0.0059
2912	0.0059
2921	0.0064
2930	0.0069
2939	0.0077
2948	0.0108
2957	0.0246
2966	0.0371
2975	0.1038
2984	0.2208
2993	0.3253
3002	0.3582
3011	0.3873
3020	0.4708
3029	0.4778
3038	0.4796
3047	0.4787
3056	0.4744
3065	0.4686
3074	0.4631
3083	0.4573
3092	0.4503
3101	0.4403
3110	0.4296
3119	0.3865
3128	0.366
3137	0.3469
3146	0.3439
3155	0.3451
3164	0.3611
3173	0.3968
3182	0.4323
3191	0.4677
3200	0.5029
3209	0.5338
3218	0.5524
3227	0.5588
3236	0.5594
3245	0.5577
3254	0.5534
3263	0.5466
3272	0.54
3281	0.5343
3290	0.5306
3299	0.5295
3308	0.5306
3317	0.5403
3326	0.5642
3335	0.585
3344	0.5887
3353	0.588
3362	0.5838
3371	0.5715
3380	0.5363
3389	0.4961
3398	0.4593
3407	0.4577
3416	0.5162
3425	0.5827
3434	0.6301
3443	0.6434
3452	0.6523
3461	0.6558
3470	0.6569
3479	0.6573
3488	0.6575
3497	0.6574
3506	0.6573
3515	0.6571
3524	0.6568
3533	0.6564
3542	0.6559
3551	0.6554
3560	0.6548
3569	0.6543
3578	0.6536
3587	0.6529
3596	0.6522
3605	0.6516
3614	0.651
3623	0.6503
3632	0.6494
3641	0.6482
3650	0.647
3659	0.6457
3668	0.6444
3677	0.6433
3686	0.642
3695	0.6407
3704	0.6391
3713	0.6376
3722	0.6362
3731	0.6346
3740	0.6329
3749	0.6311
3758	0.6293
3767	0.6275
3776	0.6257
3785	0.6238
3794	0.6218
3803	0.6199
3812	0.6183
3821	0.6168
3830	0.6153
3839	0.6139
3848	0.6125
3857	0.6117
3866	0.6109
3875	0.61
3884	0.6091
3893	0.6082
3902	0.6073
3911	0.6064
3920	0.6054
3929	0.6041
3938	0.6029
3947	0.6017
3956	0.6008
3965	0.6001
3974	0.5994
3983	0.5987
3992	0.598
