Infrared Spectrum: 1-Phenyl-1-propanol
Formula: C 9 H 12 O
CAS: 1335-12-2
State: gas
Instrument: HP-GC/MS/IRD
Origin: NIST Mass Spectrometry Data Center
1/CM	ABSORBANCE
550	0.0015312
562	0.0002616
574	8.4e-06
586	0.0001728
598	0.000324
610	0.000522
622	0.0008376
634	0.000804
646	0.0005928
658	0.0010476
670	0.001572
682	0.0040656
694	0.009582
706	0.00882
718	0.0040212
730	0.0032256
742	0.0049104
754	0.0059592
766	0.0043224
778	0.0017364
790	0.0006804
802	0.0003852
814	0.0004836
826	0.0006216
838	0.0007716
850	0.0005328
862	0.0006132
874	0.0009444
886	0.0014796
898	0.0019308
910	0.0017232
922	0.0012264
934	0.0011484
946	0.001776
958	0.0035304
970	0.0060144
982	0.0062868
994	0.0057264
1006	0.0065832
1018	0.006336
1030	0.005658
1042	0.0051312
1054	0.0042756
1066	0.003918
1078	0.0040932
1090	0.0042456
1102	0.0037824
1114	0.0028236
1126	0.001722
1138	0.0011532
1150	0.0012048
1162	0.0017916
1174	0.0025008
1186	0.0026832
1198	0.0026532
1210	0.0027888
1222	0.003186
1234	0.0031476
1246	0.0027456
1258	0.0028836
1270	0.0031332
1282	0.0032856
1294	0.0034884
1306	0.0034164
1318	0.0032364
1330	0.0028872
1342	0.00264
1354	0.0032256
1366	0.0039324
1378	0.004062
1390	0.0032616
1402	0.0020556
1414	0.0013524
1426	0.0013584
1438	0.0023844
1450	0.0039168
1462	0.0037476
1474	0.0025788
1486	0.0026688
1498	0.0022956
1510	0.0007836
1522	0.0003936
1534	0.0003576
1546	0.0003096
1558	0.0001932
1570	0.0002448
1582	0.0004512
1594	0.0008412
1606	0.0008136
1618	0.0002724
1630	0.0001176
1642	9.84e-05
1654	0.0001008
1666	0.0001068
1678	7.68e-05
1690	2.28e-05
1702	2.28e-05
1714	3.96e-05
1726	7.92e-05
1738	0.000132
1750	0.0001908
1762	0.0001392
1774	0.0001176
1786	0.0003
1798	0.0005352
1810	0.0003516
1822	9.6e-05
1834	6e-05
1846	8.04e-05
1858	0.0002088
1870	0.0003192
1882	0.0004044
1894	0.0002952
1906	0.0001212
1918	0.0001416
1930	0.0003672
1942	0.0005724
1954	0.0005388
1966	0.0002676
1978	6e-05
1990	3.96e-05
2002	1.56e-05
2014	3.24e-05
2026	3e-05
2038	1.44e-05
2050	9.6e-06
2062	4.8e-06
2074	3.36e-05
2086	3.72e-05
2098	1.8e-05
2110	4.8e-06
2122	3.24e-05
2134	2.28e-05
2146	1.56e-05
2158	1.44e-05
2170	1.92e-05
2182	2.28e-05
2194	2.76e-05
2206	2.04e-05
2218	2.52e-05
2230	4.2e-05
2242	5.04e-05
2254	3e-05
2266	1.32e-05
2278	5.52e-05
2290	5.52e-05
2302	5.64e-05
2314	0.0001356
2326	0.0001056
2338	0.0001236
2350	9.36e-05
2362	6e-05
2374	7.32e-05
2386	7.8e-05
2398	7.32e-05
2410	0.0001344
2422	0.0001056
2434	9.6e-05
2446	7.8e-05
2458	7.44e-05
2470	3.96e-05
2482	4.56e-05
2494	4.44e-05
2506	4.92e-05
2518	5.88e-05
2530	5.64e-05
2542	0.0001116
2554	0.0001224
2566	0.0001008
2578	0.000162
2590	0.000204
2602	0.0001968
2614	0.0001752
2626	0.0001668
2638	0.0001596
2650	0.0001536
2662	0.0001908
2674	0.0002088
2686	0.0002256
2698	0.0002448
2710	0.0002772
2722	0.0002376
2734	0.000318
2746	0.0003936
2758	0.0004008
2770	0.00045
2782	0.0005208
2794	0.000594
2806	0.0007188
2818	0.0009168
2830	0.0011976
2842	0.0018204
2854	0.0031272
2866	0.0053124
2878	0.0079068
2890	0.008106
2902	0.0058164
2914	0.0053592
2926	0.0076332
2938	0.0107916
2950	0.010026
2962	0.0093804
2974	0.012
2986	0.0085212
2998	0.0037008
3010	0.0028524
3022	0.0044436
3034	0.0063936
3046	0.0054588
3058	0.0051564
3070	0.0072876
3082	0.006126
3094	0.0038256
3106	0.0023172
3118	0.001188
3130	0.000546
3142	0.0003756
3154	0.0003132
3166	0.0002856
3178	0.0002172
3190	0.0001572
3202	0.0001452
3214	7.68e-05
3226	5.16e-05
3238	4.2e-05
3250	5.88e-05
3262	3.36e-05
3274	1.92e-05
3286	7.2e-06
3298	1.92e-05
3310	5.4e-05
3322	5.28e-05
3334	1.56e-05
3346	4.2e-05
3358	7.8e-05
3370	9e-05
3382	0.0001032
3394	9.72e-05
3406	0.000114
3418	0.0001092
3430	0.0001056
3442	0.0001104
3454	0.0001116
3466	0.0001296
3478	8.28e-05
3490	0.0001068
3502	8.4e-05
3514	9.72e-05
3526	8.4e-05
3538	4.68e-05
3550	8.76e-05
3562	7.44e-05
3574	0.0001176
3586	8.88e-05
3598	0.000216
3610	0.000258
3622	0.0006624
3634	0.00174
3646	0.0032232
3658	0.0027324
3670	0.001116
3682	0.0004308
3694	0.0002796
3706	0.00024
3718	0.0001224
3730	0.000162
3742	9.84e-05
3754	8.52e-05
3766	8.88e-05
3778	9.36e-05
3790	4.32e-05
3802	9.72e-05
3814	0.0001248
3826	6.96e-05
3838	0.0001344
