Infrared Spectrum: Phenyl diphenylphosphinite
Formula: C 18 H 15 O P
CAS: 13360-92-4
State: gas
Origin: EPA-IR VAPOR PHASE LIBRARY
1/CM	ABSORBANCE
549.8	0.005582
559.445	0.005882
569.09	0.009212
578.734	0.005772
588.379	0.003342
598.024	0.002722
607.669	0.004432
617.313	0.004092
626.958	0.003562
636.603	0.003842
646.248	0.004242
655.893	0.007712
665.537	0.014242
675.182	0.027282
684.827	0.052362
694.472	0.087472
704.116	0.062532
713.761	0.056812
723.406	0.055102
733.051	0.051782
742.695	0.055172
752.34	0.050652
761.985	0.038752
771.63	0.025822
781.275	0.015712
790.919	0.008362
800.564	0.008152
810.209	0.011652
819.854	0.008872
829.498	0.006822
839.143	0.009822
848.788	0.021202
858.433	0.078382
868.078	0.198772
877.722	0.098922
887.367	0.032162
897.012	0.017652
906.657	0.012522
916.301	0.007642
925.946	0.005422
935.591	0.003922
945.236	0.003542
954.88	0.003672
964.525	0.004032
974.17	0.004892
983.815	0.005292
993.46	0.009772
1003.1	0.010012
1012.75	0.006402
1022.39	0.021372
1032.04	0.010902
1041.68	0.004002
1051.33	0.004672
1060.97	0.010092
1070.62	0.014022
1080.26	0.018222
1089.91	0.032612
1099.55	0.034482
1109.2	0.021532
1118.84	0.010632
1128.49	0.008732
1138.13	0.007872
1147.78	0.010062
1157.42	0.023312
1167.07	0.037462
1176.71	0.021462
1186.36	0.032232
1196	0.043612
1205.64	0.123512
1215.29	0.238862
1224.93	0.179182
1234.58	0.076782
1244.22	0.024682
1253.87	0.015702
1263.51	0.015092
1273.16	0.015562
1282.8	0.014352
1292.45	0.011722
1302.09	0.010122
1311.74	0.007422
1321.38	0.007472
1331.03	0.007572
1340.67	0.005062
1350.32	0.003702
1359.96	0.003782
1369.61	0.004102
1379.25	0.004012
1388.9	0.004252
1398.54	0.004282
1408.18	0.004802
1417.83	0.007302
1427.47	0.014672
1437.12	0.022982
1446.76	0.013662
1456.41	0.013332
1466.05	0.024862
1475.7	0.044382
1485.34	0.105462
1494.99	0.147062
1504.63	0.028412
1514.28	0.010832
1523.92	0.007232
1533.57	0.006192
1543.21	0.006172
1552.86	0.008312
1562.5	0.015332
1572.15	0.032892
1581.79	0.056932
1591.44	0.090642
1601.08	0.055972
1610.73	0.012702
1620.37	0.006412
1630.01	0.005012
1639.66	0.004392
1649.3	0.004902
1658.95	0.004792
1668.59	0.003562
1678.24	0.002962
1687.88	0.002692
1697.53	0.002992
1707.17	0.002742
1716.82	0.003082
1726.46	0.002902
1736.11	0.002772
1745.75	0.002882
1755.4	0.003752
1765.04	0.004542
1774.69	0.004282
1784.33	0.003542
1793.98	0.003942
1803.62	0.005752
1813.27	0.004132
1822.91	0.003392
1832.55	0.003162
1842.2	0.002902
1851.84	0.003142
1861.49	0.003832
1871.13	0.004082
1880.78	0.004922
1890.42	0.005402
1900.07	0.004222
1909.71	0.003792
1919.36	0.004162
1929	0.005092
1938.65	0.006632
1948.29	0.006602
1957.94	0.005682
1967.58	0.003872
1977.23	0.002532
1986.87	0.001932
1996.52	0.0016928
2006.16	0.0014653
2015.81	0.0014674
2025.45	0.0016224
2035.1	0.001892
2044.74	0.0017853
2054.38	0.0015846
2064.03	0.002012
2073.67	0.0017799
2083.32	0.002072
2092.96	0.0017907
2102.61	0.0014795
2112.25	0.0010805
2121.9	0.00094823
2131.54	0.0010141
2141.19	0.000999
2150.83	0.0012271
2160.48	0.0013578
2170.12	0.0011982
2179.77	0.0010509
2189.41	0.00158
2199.06	0.0012302
2208.7	0.0011261
2218.35	0.0013964
2227.99	0.0011366
2237.64	0.00098521
2247.28	0.001062
2256.92	0.00095073
2266.57	0.0010952
2276.21	0.0010408
2285.86	0.001076
2295.5	0.0011262
2305.15	0.001626
2314.79	0.0018867
2324.44	0.001902
2334.08	0.0018464
2343.73	0.0018557
2353.37	0.0014854
2363.02	0.001684
2372.66	0.001952
2382.31	0.0017382
2391.95	0.0017598
2401.6	0.001982
2411.24	0.002252
2420.89	0.003022
2430.53	0.003212
2440.18	0.002772
2449.82	0.002132
2459.47	0.0018101
2469.11	0.0017824
2478.75	0.0012465
2488.4	0.0009049
2498.04	0.0010805
2507.69	0.0011528
2517.33	0.0009417
2526.98	0.0010497
2536.62	0.001273
2546.27	0.001324
2555.91	0.0018428
2565.56	0.001912
2575.2	0.0011439
2584.85	0.0013731
2594.49	0.0011175
2604.14	0.001254
2613.78	0.0014107
2623.43	0.0014865
2633.07	0.00092781
2642.72	0.0011473
2652.36	0.001112
2662.01	0.0011784
2671.65	0.0013299
2681.29	0.0011769
2690.94	0.0012518
2700.58	0.0009976
2710.23	0.000579
2719.87	0.000743
2729.52	0.000687
2739.16	0.0008559
2748.81	0.00098883
2758.45	0.00092556
2768.1	0.000667
2777.74	0.0008433
2787.39	0.000891457
2797.03	0.0010854
2806.68	0.00094579
2816.32	0.0013008
2825.97	0.0011689
2835.61	0.0011638
2845.26	0.0011201
2854.9	0.0011447
2864.55	0.0015116
2874.19	0.0010953
2883.84	0.0013836
2893.48	0.0012662
2903.12	0.0012532
2912.77	0.00093929
2922.41	0.0011121
2932.06	0.0012575
2941.7	0.001162
2951.35	0.0013674
2960.99	0.0015103
2970.64	0.0016493
2980.28	0.002442
2989.93	0.003452
2999.57	0.007952
3009.22	0.014062
3018.86	0.017662
3028.51	0.017472
3038.15	0.023592
3047.8	0.028902
3057.44	0.053032
3067.09	0.074352
3076.73	0.061372
3086.38	0.038662
3096.02	0.021622
3105.67	0.010182
3115.31	0.005152
3124.95	0.003292
3134.6	0.003492
3144.24	0.004052
3153.89	0.002462
3163.53	0.0015048
3173.18	0.0018679
3182.82	0.0013536
3192.47	0.0008651
3202.11	0.0010598
3211.76	0.000665
3221.4	0.000455
3231.05	0.00062
3240.69	0.0010428
3250.34	0.000553
3259.98	0.0012366
3269.63	0.001007
3279.27	0.000645
3288.92	0.00088614
3298.56	0.00019
3308.21	0.000176
3317.85	0.000305
3327.49	0.000415
3337.14	0.0008477
3346.78	0.000535
3356.43	0.000591
3366.07	0.0008138
3375.72	0.0008243
3385.36	0.0008568
3395.01	0.000723
3404.65	0.000539
3414.3	0.000465
3423.94	0.000808
3433.59	0.000745
3443.23	0.000442
3452.88	0.00065
3462.52	0.000701
3472.17	0.000626
3481.81	0.000555
3491.46	0.000758
3501.1	0.000457
3510.75	0.0010662
3520.39	0.00092678
3530.04	0.00092812
3539.68	0.00095457
3549.32	0.0011422
3558.97	0.00097903
3568.61	0.0012414
3578.26	0.000721
3587.9	0.00097744
3597.55	0.0008727
3607.19	0.0014465
3616.84	0.0010482
3626.48	0.000697
3636.13	0.00090391
3645.77	0.0010932
3655.42	0.0010427
3665.06	0.0012126
3674.71	0.00096
3684.35	0.0011784
3694	0.00096545
3703.64	0.0008612
3713.29	0.000395
3722.93	0.0013445
3732.58	0.000683
3742.22	0.00141
3751.86	0.001728
3761.51	0.0015459
3771.15	0.0012235
3780.8	0.0010405
3790.44	0.00058
3800.09	0.0011666
3809.73	0.000289
3819.38	0.0011035
3829.02	0.000284
3838.67	0.00097154
3848.31	0.0010057
3857.96	0.0011761
3867.6	0.0008267
3877.25	0.00095652
3886.89	0.000746
3896.54	0.0008459
3906.18	0.000534
3915.83	0.000565
3925.47	0.000459
3935.12	0.000898828
3944.76	0.00090489
3954.41	0.0008049
3964.05	0.0011193
3973.69	0.0008756
3983.34	0.0016098
3992.98	0.0014893
