Infrared Spectrum: 1-Pentadecene
Formula: C 15 H 30
CAS: 13360-61-7
State: gas
Instrument: HP-GC/MS/IRD
Origin: NIST Mass Spectrometry Data Center
1/CM	ABSORBANCE
550	6.57e-05
562	8.76e-05
574	0.0001022
586	0.000146
598	0.0002409
610	0.0003139
622	0.0005475
634	0.0006424
646	0.0004672
658	0.0003869
670	0.0002993
682	0.0002555
694	0.0004015
706	0.0007446
718	0.0010585
730	0.0009782
742	0.0007446
754	0.0006059
766	0.0004891
778	0.0004088
790	0.0003504
802	0.0003577
814	0.0003212
826	0.0004088
838	0.0004088
850	0.0005329
862	0.000657
874	0.0008322
886	0.0012264
898	0.0022192
910	0.0045479
922	0.0032631
934	0.0017009
946	0.0011753
958	0.0010439
970	0.001095
982	0.0015768
994	0.0020951
1006	0.0014235
1018	0.0009125
1030	0.0006643
1042	0.0005767
1054	0.0004526
1066	0.0004964
1078	0.0004599
1090	0.0004161
1102	0.0003431
1114	0.0002774
1126	0.0002482
1138	0.0002263
1150	0.0002117
1162	0.0002555
1174	0.0002482
1186	0.0002263
1198	0.000292
1210	0.0002993
1222	0.0003358
1234	0.0004015
1246	0.0004453
1258	0.0004964
1270	0.0006643
1282	0.0007227
1294	0.0010074
1306	0.0011388
1318	0.0010293
1330	0.0011315
1342	0.0016279
1354	0.0019126
1366	0.0015549
1378	0.0012556
1390	0.0010366
1402	0.0008614
1414	0.0010293
1426	0.0013213
1438	0.002409
1450	0.0041537
1462	0.005037
1474	0.0030587
1486	0.0012556
1498	0.0006716
1510	0.0004599
1522	0.0003358
1534	0.000292
1546	0.0002336
1558	0.0002336
1570	0.0002044
1582	0.0002117
1594	0.0002409
1606	0.0003577
1618	0.0006351
1630	0.0012556
1642	0.0019929
1654	0.0008103
1666	0.0003358
1678	0.0001752
1690	0.0001095
1702	0.0001022
1714	7.3e-05
1726	4.38e-05
1738	6.57e-05
1750	5.84e-05
1762	2.92e-05
1774	5.84e-05
1786	4.38e-05
1798	0.0001022
1810	0.0001825
1822	0.0004161
1834	0.0004088
1846	0.0001898
1858	0.0001022
1870	5.11e-05
1882	2.92e-05
1894	2.92e-05
1906	2.92e-05
1918	2.19e-05
1930	0
1942	2.19e-05
1954	2.92e-05
1966	5.84e-05
1978	8.03e-05
1990	5.11e-05
2002	3.65e-05
2014	6.57e-05
2026	8.03e-05
2038	0.0001022
2050	9.49e-05
2062	6.57e-05
2074	6.57e-05
2086	5.84e-05
2098	4.38e-05
2110	4.38e-05
2122	2.19e-05
2134	5.84e-05
2146	5.11e-05
2158	5.11e-05
2170	4.38e-05
2182	6.57e-05
2194	6.57e-05
2206	8.76e-05
2218	7.3e-05
2230	4.38e-05
2242	7.3e-05
2254	6.57e-05
2266	7.3e-05
2278	8.03e-05
2290	8.03e-05
2302	0.0001095
2314	8.76e-05
2326	0.0001314
2338	0.0001022
2350	0.0001095
2362	0.0001022
2374	0.0001168
2386	0.0001022
2398	0.0001168
2410	0.0001095
2422	0.0001022
2434	0.0001168
2446	0.0001022
2458	0.0001095
2470	0.0001314
2482	0.0001314
2494	0.0001533
2506	0.0001606
2518	0.0001971
2530	0.0002263
2542	0.0002628
2554	0.0002555
2566	0.0002409
2578	0.0003066
2590	0.0003358
2602	0.0003577
2614	0.0004161
2626	0.0004599
2638	0.0005183
2650	0.0005767
2662	0.0006424
2674	0.0007446
2686	0.0007665
2698	0.0007227
2710	0.0007081
2722	0.0007008
2734	0.00073
2746	0.0008395
2758	0.0009052
2770	0.0010366
2782	0.0012629
2794	0.0015841
2806	0.0020659
2818	0.0028908
2830	0.0042778
2842	0.0076942
2854	0.0184325
2866	0.0260975
2878	0.0175784
2890	0.0148701
2902	0.0193085
2914	0.0327113
2926	0.0624953
2938	0.0663278
2950	0.0330763
2962	0.0205276
2974	0.0148701
2986	0.008249
2998	0.0055553
3010	0.0042048
3022	0.0027959
3034	0.0021608
3046	0.001898
3058	0.0019491
3070	0.0024163
3082	0.0034383
3094	0.0024674
3106	0.001168
3118	0.000803
3130	0.0006643
3142	0.0004891
3154	0.0004672
3166	0.0004088
3178	0.0003577
3190	0.0003358
3202	0.000292
3214	0.0002482
3226	0.0001971
3238	0.0001971
3250	0.0001533
3262	0.0001241
3274	0.000146
3286	0.0001533
3298	0.0001314
3310	0.0001241
3322	0.0001241
3334	0.000146
3346	0.0001314
3358	0.0001387
3370	0.0001314
3382	0.000146
3394	0.0001095
3406	0.0001314
3418	0.000146
3430	0.0001168
3442	0.0001241
3454	0.0001241
3466	9.49e-05
3478	0.0001095
3490	8.76e-05
3502	6.57e-05
3514	4.38e-05
3526	7.3e-05
3538	0.0001168
3550	5.84e-05
3562	8.76e-05
3574	9.49e-05
3586	0.0001095
3598	0.0001679
3610	0.0001679
3622	0.0001898
3634	0.0001825
3646	0.0002263
3658	0.0002117
3670	0.0001825
3682	0.0002482
3694	0.0002263
3706	0.000219
3718	0.0001825
3730	0.0001898
3742	0.0002409
3754	0.0002336
3766	0.000219
3778	0.0002044
3790	0.0002044
3802	0.0002263
3814	0.0002336
3826	0.0002628
3838	0.000219
