Infrared Spectrum: 9H-PURINE, 6-AMINO-2-(METHYLAMINO)-9-Beta-D-RIBOFURANOSYL-
Formula: C11 H16 N6 O4
CAS: 13364-95-9
State: SOLID (0.3 mg / 650 mg, KBr DISC)
Class: COBLENTZ III
Instrument: PERKIN-ELMER 21 (GRATING)
Instrument parameters: FILTER CHANGE AT ABOUT 1085 CM^-^1
Sampling: TRANSMISSION
Resolution: 2
Origin: SOUTHERN RESEARCH INSTITUTE
1/CM	TRANSMITTANCE
610.438	0.595
619.47	0.592
628.503	0.5978
637.535	0.595
646.567	0.5886
655.599	0.5834
664.632	0.5695
673.664	0.5582
682.696	0.5429
691.728	0.5222
700.761	0.4975
709.793	0.4851
718.825	0.5154
727.857	0.524
736.89	0.5149
745.922	0.5353
754.954	0.6048
763.986	0.6334
773.019	0.6526
782.051	0.6539
791.083	0.5777
800.115	0.5882
809.148	0.6743
818.18	0.6605
827.212	0.6627
836.244	0.6792
845.277	0.697
854.309	0.6803
863.341	0.6436
872.373	0.6208
881.406	0.6633
890.438	0.68
899.47	0.5859
908.502	0.5875
917.535	0.6135
926.567	0.712
935.599	0.722
944.631	0.7097
953.664	0.7071
962.696	0.722
971.728	0.7161
980.76	0.6851
989.793	0.666
998.825	0.6933
1007.86	0.6934
1016.89	0.6795
1025.92	0.6611
1034.95	0.6259
1043.99	0.5925
1053.02	0.5266
1062.05	0.4694
1071.08	0.558
1080.12	0.5501
1089.15	0.3019
1098.18	0.4136
1107.21	0.5708
1116.24	0.5308
1125.28	0.3449
1134.31	0.4232
1143.34	0.6118
1152.37	0.6781
1161.41	0.6822
1170.44	0.676
1179.47	0.6736
1188.5	0.6228
1197.53	0.6207
1206.57	0.6362
1215.6	0.5879
1224.63	0.5904
1233.66	0.6153
1242.7	0.6367
1251.73	0.6365
1260.76	0.6113
1269.79	0.5426
1278.82	0.5458
1287.86	0.5838
1296.89	0.4767
1305.92	0.5472
1314.95	0.56
1323.99	0.5676
1333.02	0.6134
1342.05	0.6079
1351.08	0.5943
1360.12	0.6049
1369.15	0.571
1378.18	0.5099
1387.21	0.3563
1396.24	0.2756
1405.28	0.4244
1414.31	0.4302
1423.34	0.4755
1432.37	0.5009
1441.41	0.5321
1450.44	0.5303
1459.47	0.6029
1468.5	0.6038
1477.53	0.586
1486.57	0.592
1495.6	0.57
1504.63	0.5387
1513.66	0.5007
1522.7	0.5073
1531.73	0.444
1540.76	0.314
1549.79	0.3227
1558.82	0.3734
1567.86	0.4676
1576.89	0.4961
1585.92	0.3882
1594.95	0.19
1603.99	0.1239
1613.02	0.2718
1622.05	0.4223
1631.08	0.431
1640.11	0.424
1649.15	0.4147
1658.18	0.3628
1667.21	0.2485
1676.24	0.3096
1685.28	0.6265
1694.31	0.6778
1703.34	0.7381
1712.37	0.7498
1721.41	0.7675
1730.44	0.779
1739.47	0.791
1748.5	0.7942
1757.53	0.799
1766.57	0.8
1775.6	0.809
1784.63	0.813
1793.66	0.819
1802.7	0.825
1811.73	0.823
1820.76	0.8216
1829.79	0.825
1838.82	0.8255
1847.86	0.826
1856.89	0.825
1865.92	0.8269
1874.95	0.8305
1883.99	0.8298
1893.02	0.83
1902.05	0.8261
1911.08	0.83
1920.11	0.832
1929.15	0.833
1938.18	0.8266
1947.21	0.833
1956.24	0.827
1965.28	0.8326
1974.31	0.83
1983.34	0.8295
1992.37	0.828
2001.4	0.8282
2010.44	0.831
2019.47	0.831
2028.5	0.831
2037.53	0.831
2046.57	0.832
2055.6	0.832
2064.63	0.833
2073.66	0.836
2082.7	0.836
2091.73	0.836
2100.76	0.8329
2109.79	0.832
2118.82	0.833
2127.86	0.826
2136.89	0.831
2145.92	0.833
2154.95	0.8319
2163.99	0.8302
2173.02	0.8361
2182.05	0.835
2191.08	0.835
2200.11	0.832
2209.15	0.8351
2218.18	0.837
2227.21	0.832
2236.24	0.83
2245.28	0.839
2254.31	0.8409
2263.34	0.8391
2272.37	0.8401
2281.4	0.8451
2290.44	0.8501
2299.47	0.85
2308.5	0.864
2317.53	0.886
2326.57	0.885
2335.6	0.883
2344.63	0.883
2353.66	0.877
2362.7	0.8668
2371.73	0.8558
2380.76	0.844
2389.79	0.84
2398.82	0.839
2407.86	0.837
2416.89	0.835
2425.92	0.8319
2434.95	0.83
2443.99	0.831
2453.02	0.831
2462.05	0.831
2471.08	0.8323
2480.11	0.832
2489.15	0.833
2498.18	0.835
2507.21	0.827
2516.24	0.83
2525.28	0.8268
2534.31	0.819
2543.34	0.817
2552.37	0.8169
2561.4	0.813
2570.44	0.8091
2579.47	0.813
2588.5	0.809
2597.53	0.807
2606.57	0.809
2615.6	0.805
2624.63	0.802
2633.66	0.798
2642.69	0.794
2651.73	0.7899
2660.76	0.789
2669.79	0.786
2678.82	0.782
2687.86	0.779
2696.89	0.777
2705.92	0.775
2714.95	0.772
2723.99	0.779
2733.02	0.786
2742.05	0.7809
2751.08	0.773
2760.11	0.7679
2769.15	0.7619
2778.18	0.761
2787.21	0.761
2796.24	0.7589
2805.28	0.7539
2814.31	0.7468
2823.34	0.735
2832.37	0.729
2841.4	0.725
2850.44	0.721
2859.47	0.7075
2868.5	0.6898
2877.53	0.687
2886.57	0.687
2895.6	0.6778
2904.63	0.6597
2913.66	0.65
2922.69	0.6532
2931.73	0.6622
2940.76	0.6713
2949.79	0.6922
2958.82	0.7021
2967.86	0.706
2976.89	0.712
2985.92	0.706
2994.95	0.7039
3003.99	0.6918
3013.02	0.683
3022.05	0.6778
3031.08	0.67
3040.11	0.669
3049.15	0.6547
3058.18	0.6419
3067.21	0.6336
3076.24	0.6128
3085.28	0.5979
3094.31	0.5777
3103.34	0.553
3112.37	0.5347
3121.4	0.5114
3130.44	0.4545
3139.47	0.4144
3148.5	0.4092
3157.53	0.4089
3166.57	0.4093
3175.6	0.4311
3184.63	0.439
3193.66	0.4441
3202.69	0.4552
3211.73	0.463
3220.76	0.4588
3229.79	0.454
3238.82	0.4566
3247.86	0.452
3256.89	0.448
3265.92	0.441
3274.95	0.436
3283.98	0.4319
3293.02	0.4175
3302.05	0.3889
3311.08	0.3747
3320.11	0.3507
3329.15	0.3189
3338.18	0.3007
3347.21	0.2907
3356.24	0.2871
3365.28	0.293
3374.31	0.3023
3383.34	0.3253
3392.37	0.3403
3401.4	0.3512
3410.44	0.3582
3419.47	0.3723
3428.5	0.3882
3437.53	0.3992
3446.57	0.4182
3455.6	0.4341
3464.63	0.4486
3473.66	0.4771
3482.69	0.492
3491.73	0.5044
3500.76	0.5324
3509.79	0.554
3518.82	0.5672
3527.86	0.5741
3536.89	0.5962
3545.92	0.6164
3554.95	0.6333
3563.98	0.6554
3573.02	0.6811
3582.05	0.7031
3591.08	0.7254
3600.11	0.7545
3609.15	0.7842
3618.18	0.8022
3627.21	0.8273
3636.24	0.8361
3645.28	0.8422
3654.31	0.8501
3663.34	0.853
3672.37	0.853
3681.4	0.855
3690.44	0.8591
3699.47	0.8692
3708.5	0.8771
3717.53	0.885
3726.57	0.8848
3735.6	0.879
3744.63	0.8832
3753.66	0.887
3762.69	0.8847
3771.73	0.8767
3780.76	0.873
3789.79	0.874
3798.82	0.879
3807.86	0.8789
3816.89	0.877
3825.92	0.876
3834.95	0.878
3843.98	0.879
3853.02	0.878
3862.05	0.876
3871.08	0.876
3880.11	0.876
3889.15	0.874
3898.18	0.8742
3907.21	0.873
3916.24	0.871
3925.27	0.8679
3934.31	0.865
3943.34	0.864
3952.37	0.864
3961.4	0.864
3970.44	0.863
3979.47	0.86
3988.5	0.8599
3997.53	0.858
4006.57	0.859
4015.6	0.859
4024.63	0.859
