Infrared Spectrum: 2-Ethylhexyl cyanoacetate
Formula: C 11 H 19 N O 2
CAS: 13361-34-7
State: gas
Origin: EPA-IR VAPOR PHASE LIBRARY
1/CM	ABSORBANCE
549.9	0.0019435
559.547	0.0020683
569.193	0.00225
578.84	0.00258
588.486	0.00288
598.133	0.00292
607.779	0.00276
617.426	0.0024
627.072	0.0020924
636.719	0.0017791
646.365	0.0014354
656.012	0.0014586
665.658	0.0016134
675.305	0.0020823
684.951	0.00236
694.598	0.00229
704.245	0.00238
713.891	0.00281
723.538	0.00322
733.184	0.00336
742.831	0.00304
752.477	0.00283
762.124	0.00308
771.77	0.00381
781.417	0.00384
791.063	0.00316
800.71	0.00267
810.356	0.00258
820.003	0.00268
829.649	0.00271
839.296	0.00273
848.943	0.00283
858.589	0.00304
868.236	0.00331
877.882	0.00365
887.529	0.0042
897.175	0.00438
906.822	0.00439
916.468	0.00481
926.115	0.00554
935.761	0.00621
945.408	0.00634
955.054	0.0073
964.701	0.00922
974.347	0.01225
983.994	0.01697
993.64	0.02204
1003.29	0.02499
1012.93	0.02155
1022.58	0.0148
1032.23	0.01013
1041.87	0.0064
1051.52	0.00485
1061.17	0.00427
1070.81	0.00413
1080.46	0.004
1090.11	0.00377
1099.75	0.00411
1109.4	0.00516
1119.05	0.00688
1128.69	0.01024
1138.34	0.01762
1147.99	0.03185
1157.63	0.05128
1167.28	0.06126
1176.92	0.0536
1186.57	0.04374
1196.22	0.03622
1205.86	0.0312
1215.51	0.02977
1225.16	0.03306
1234.8	0.04316
1244.45	0.0601
1254.1	0.07506
1263.74	0.07449
1273.39	0.05705
1283.04	0.03863
1292.68	0.0313
1302.33	0.02792
1311.98	0.02427
1321.62	0.02447
1331.27	0.02387
1340.92	0.01755
1350.56	0.01144
1360.21	0.00892
1369.86	0.00864
1379.5	0.01209
1389.15	0.01423
1398.79	0.00949
1408.44	0.00832
1418.09	0.00853
1427.73	0.00629
1437.38	0.00616
1447.03	0.00872
1456.67	0.01401
1466.32	0.01794
1475.97	0.01275
1485.61	0.00626
1495.26	0.00375
1504.91	0.00286
1514.55	0.00244
1524.2	0.002099
1533.85	0.0019522
1543.49	0.0016979
1553.14	0.0015936
1562.79	0.0015858
1572.43	0.0015632
1582.08	0.0016123
1591.73	0.0015862
1601.37	0.0015925
1611.02	0.0015982
1620.67	0.001596
1630.31	0.0015196
1639.96	0.0016013
1649.6	0.0016289
1659.25	0.0017549
1668.9	0.0019711
1678.54	0.0021352
1688.19	0.0026
1697.84	0.0032
1707.48	0.00448
1717.13	0.00662
1726.78	0.01035
1736.42	0.01669
1746.07	0.03055
1755.72	0.06263
1765.36	0.10896
1775.01	0.09016
1784.66	0.04228
1794.3	0.02052
1803.95	0.01129
1813.6	0.00695
1823.24	0.00467
1832.89	0.00346
1842.54	0.00269
1852.18	0.00231
1861.83	0.0020069
1871.47	0.001774
1881.12	0.0015574
1890.77	0.0014466
1900.41	0.0013265
1910.06	0.00120867
1919.71	0.001098
1929.35	0.0010811
1939	0.000898
1948.65	0.000897
1958.29	0.00089
1967.94	0.00082
1977.59	0.000781
1987.23	0.000828
1996.88	0.000801
2006.53	0.000807
2016.17	0.000777
2025.82	0.000783
2035.47	0.000869
2045.11	0.00085
2054.76	0.000814
2064.41	0.000833
2074.05	0.000767
2083.7	0.000845
2093.35	0.000757
2102.99	0.000738
2112.64	0.000729
2122.28	0.000732
2131.93	0.000737
2141.58	0.00076
2151.22	0.000752
2160.87	0.00064
2170.52	0.00066
2180.16	0.000542
2189.81	0.000515
2199.46	0.000484
2209.1	0.000475
2218.75	0.000458
2228.4	0.000466
2238.04	0.000569
2247.69	0.00067
2257.34	0.000809
2266.98	0.000918
2276.63	0.000703
2286.28	0.000531
2295.92	0.000385
2305.57	0.000487
2315.22	0.000451
2324.86	0.000476
2334.51	0.000514
2344.16	0.0005
2353.8	0.000443
2363.45	0.000348
2373.09	0.000435
2382.74	0.000504
2392.39	0.000529
2402.03	0.000424
2411.68	0.000457
2421.33	0.000431
2430.97	0.000375
2440.62	0.000391
2450.27	0.000361
2459.91	0.000368
2469.56	0.000311
2479.21	0.000354
2488.85	0.000351
2498.5	0.00036
2508.15	0.000392
2517.79	0.000327
2527.44	0.000394
2537.09	0.000317
2546.73	0.000289
2556.38	0.000355
2566.03	0.000343
2575.67	0.000441
2585.32	0.000451
2594.96	0.000454
2604.61	0.000418
2614.26	0.000417
2623.9	0.000407
2633.55	0.000405
2643.2	0.000513
2652.84	0.000509
2662.49	0.000509
2672.14	0.000658
2681.78	0.000709
2691.43	0.000612
2701.08	0.000637
2710.72	0.000718
2720.37	0.000737
2730.02	0.000883
2739.66	0.00119995
2749.31	0.0012724
2758.96	0.0014057
2768.6	0.0012805
2778.25	0.0013358
2787.9	0.0015912
2797.54	0.0020207
2807.19	0.00237
2816.84	0.00291
2826.48	0.00385
2836.13	0.00529
2845.77	0.00786
2855.42	0.01402
2865.07	0.02602
2874.71	0.03307
2884.36	0.03361
2894.01	0.03003
2903.65	0.02967
2913.3	0.03669
2922.95	0.05131
2932.59	0.07046
2942.24	0.07436
2951.89	0.05817
2961.53	0.06388
2971.18	0.07949
2980.83	0.04828
2990.47	0.02283
3000.12	0.01246
3009.77	0.00754
3019.41	0.00522
3029.06	0.00377
3038.71	0.00312
3048.35	0.00227
3058	0.0018319
3067.64	0.0017766
3077.29	0.0013171
3086.94	0.000964
3096.58	0.001009
3106.23	0.000926
3115.88	0.000704
3125.52	0.000624
3135.17	0.000673
3144.82	0.000601
3154.46	0.000379
3164.11	0.00047
3173.76	0.00026
3183.4	0.000483
3193.05	0.000315
3202.7	0.000311
3212.34	0.0001
3221.99	0.00017
3231.64	0.000284
3241.28	0.00013
3250.93	0.00018
3260.58	3e-05
3270.22	0.000222
3279.87	0.00013
3289.52	0.000331
3299.16	7e-05
3308.81	0.000216
3318.45	0.000325
3328.1	0.000431
3337.75	0.000371
3347.39	0.000258
3357.04	0.000488
3366.69	0.000347
3376.33	0.000637
3385.98	0.000395
3395.63	0.000402
3405.27	0.000792
3414.92	0.000541
3424.57	0.000553
3434.21	0.000601
3443.86	0.000667
3453.51	0.000621
3463.15	0.000586
3472.8	0.000673
3482.45	0.000746
3492.09	0.000996
3501.74	0.0011553
3511.39	0.0015061
3521.03	0.0015198
3530.68	0.00116455
3540.33	0.000945
3549.97	0.000873
3559.62	0.000779
3569.26	0.000701
3578.91	0.000732
3588.56	0.000627
3598.2	0.000645
3607.85	0.000579
3617.5	0.000672
3627.14	0.000597
3636.79	0.000523
3646.44	0.000659
3656.08	0.000602
3665.73	0.000691
3675.38	0.00048
3685.02	0.000641
3694.67	0.00057
3704.32	0.000691
3713.96	0.00067
3723.61	0.000485
3733.26	0.000669
3742.9	0.000505
3752.55	0.000527
3762.2	0.000467
3771.84	0.000515
3781.49	0.000566
3791.13	0.000534
3800.78	0.000535
3810.43	0.000531
3820.07	0.00053
3829.72	0.000512
3839.37	0.000472
3849.01	0.000382
3858.66	0.000527
3868.31	0.000526
3877.95	0.000601
3887.6	0.000495
3897.25	0.000587
3906.89	0.000439
3916.54	0.000593
3926.19	0.000606
3935.83	0.000478
3945.48	0.000603
3955.13	0.000482
3964.77	0.000575
3974.42	0.000622
3984.07	0.000597
3993.71	0.000531
