Infrared Spectrum: Cinnamaldehyde oxime
Formula: C 9 H 9 N O
CAS: 13372-81-1
State: gas
Origin: EPA-IR VAPOR PHASE LIBRARY
1/CM	ABSORBANCE
549.9	0.00991
559.547	0.02391
569.193	0.03281
578.84	0.00863
588.486	0.00633
598.133	0.00626
607.779	0.00574
617.426	0.00547
627.072	0.00596
636.719	0.00853
646.365	0.00985
656.012	0.01056
665.658	0.01421
675.305	0.02324
684.951	0.03453
694.598	0.03886
704.245	0.03148
713.891	0.02243
723.538	0.02344
733.184	0.03338
742.831	0.04427
752.477	0.04146
762.124	0.0292
771.77	0.01811
781.417	0.01105
791.063	0.00767
800.71	0.00665
810.356	0.00614
820.003	0.00668
829.649	0.00906
839.296	0.01086
848.943	0.01073
858.589	0.01259
868.236	0.01861
877.882	0.03227
887.529	0.04543
897.175	0.03185
906.822	0.01772
916.468	0.01976
926.115	0.03436
935.761	0.07104
945.408	0.13197
955.054	0.10514
964.701	0.05395
974.347	0.04203
983.994	0.02743
993.64	0.0155
1003.29	0.01026
1012.93	0.00876
1022.58	0.01033
1032.23	0.01029
1041.87	0.00734
1051.52	0.0069
1061.17	0.00731
1070.81	0.00658
1080.46	0.0052
1090.11	0.0047
1099.75	0.00478
1109.4	0.00525
1119.05	0.00829
1128.69	0.01295
1138.34	0.01603
1147.99	0.01664
1157.63	0.01043
1167.28	0.00736
1176.92	0.00551
1186.57	0.00445
1196.22	0.00423
1205.86	0.00484
1215.51	0.00611
1225.16	0.0096
1234.8	0.01568
1244.45	0.02844
1254.1	0.04601
1263.74	0.02924
1273.39	0.01558
1283.04	0.0208
1292.68	0.02534
1302.33	0.02163
1311.98	0.01587
1321.62	0.01283
1331.27	0.01115
1340.92	0.00869
1350.56	0.00796
1360.21	0.00768
1369.86	0.0064
1379.5	0.00688
1389.15	0.01081
1398.79	0.01729
1408.44	0.01144
1418.09	0.00474
1427.73	0.00401
1437.38	0.00609
1447.03	0.00788
1456.67	0.00877
1466.32	0.00608
1475.97	0.00597
1485.61	0.00922
1495.26	0.01391
1504.91	0.00781
1514.55	0.00367
1524.2	0.00294
1533.85	0.0026877
1543.49	0.00277
1553.14	0.00293
1562.79	0.00382
1572.43	0.00548
1582.08	0.00601
1591.73	0.00654
1601.37	0.00671
1611.02	0.00672
1620.67	0.0097
1630.31	0.0164
1639.96	0.01193
1649.6	0.00486
1659.25	0.00355
1668.9	0.00303
1678.54	0.002757
1688.19	0.0026601
1697.84	0.00284
1707.48	0.00304
1717.13	0.00385
1726.78	0.00357
1736.42	0.00389
1746.07	0.00398
1755.72	0.00397
1765.36	0.00408
1775.01	0.00475
1784.66	0.00536
1794.3	0.00554
1803.95	0.00495
1813.6	0.00445
1823.24	0.00363
1832.89	0.0027632
1842.54	0.00295
1852.18	0.00343
1861.83	0.00442
1871.47	0.0053
1881.12	0.00587
1890.77	0.00505
1900.41	0.00301
1910.06	0.0023296
1919.71	0.0027166
1929.35	0.00335
1939	0.00391
1948.65	0.00398
1958.29	0.00356
1967.94	0.0021889
1977.59	0.001492
1987.23	0.001325
1996.88	0.001226
2006.53	0.00119
2016.17	0.00123
2025.82	0.001224
2035.47	0.001259
2045.11	0.00124
2054.76	0.001206
2064.41	0.001274
2074.05	0.001203
2083.7	0.001207
2093.35	0.001149
2102.99	0.001158
2112.64	0.001137
2122.28	0.001118
2131.93	0.001114
2141.58	0.001129
2151.22	0.001155
2160.87	0.001221
2170.52	0.00131
2180.16	0.001377
2189.81	0.001364
2199.46	0.001458
2209.1	0.001468
2218.75	0.00178137
2228.4	0.00186689
2238.04	0.00153
2247.69	0.001371
2257.34	0.001371
2266.98	0.001295
2276.63	0.001381
2286.28	0.001458
2295.92	0.001508
2305.57	0.0017531
2315.22	0.002144
2324.86	0.0021226
2334.51	0.0019772
2344.16	0.0018986
2353.8	0.0019751
2363.45	0.0021015
2373.09	0.0019135
2382.74	0.001438
2392.39	0.001173
2402.03	0.001138
2411.68	0.001131
2421.33	0.001155
2430.97	0.001181
2440.62	0.001177
2450.27	0.001228
2459.91	0.001211
2469.56	0.001278
2479.21	0.001386
2488.85	0.001552
2498.5	0.001576
2508.15	0.00162
2517.79	0.001536
2527.44	0.001515
2537.09	0.001522
2546.73	0.001469
2556.38	0.001466
2566.03	0.001551
2575.67	0.001625
2585.32	0.001633
2594.96	0.001602
2604.61	0.001553
2614.26	0.001489
2623.9	0.0016743
2633.55	0.00183024
2643.2	0.0019316
2652.84	0.001526
2662.49	0.001296
2672.14	0.001162
2681.78	0.001109
2691.43	0.001126
2701.08	0.001133
2710.72	0.000982
2720.37	0.000808
2730.02	0.00088
2739.66	0.000948
2749.31	0.000852
2758.96	0.000834
2768.6	0.001072
2778.25	0.001103
2787.9	0.001171
2797.54	0.001264
2807.19	0.00119
2816.84	0.001087
2826.48	0.001096
2836.13	0.001062
2845.77	0.001357
2855.42	0.001501
2865.07	0.001637
2874.71	0.00183997
2884.36	0.0017495
2894.01	0.0018908
2903.65	0.00183832
2913.3	0.0019356
2922.95	0.00206
2932.59	0.0027658
2942.24	0.00351
2951.89	0.00541
2961.53	0.00656
2971.18	0.00522
2980.83	0.00454
2990.47	0.00604
3000.12	0.01008
3009.77	0.01435
3019.41	0.01799
3029.06	0.02472
3038.71	0.02747
3048.35	0.02284
3058	0.0214
3067.64	0.03443
3077.29	0.0316
3086.94	0.02058
3096.58	0.01518
3106.23	0.00894
3115.88	0.00453
3125.52	0.0020967
3135.17	0.001282
3144.82	0.001258
3154.46	0.000873
3164.11	0.00065
3173.76	0.00035
3183.4	0.00025
3193.05	0.00024
3202.7	0.00025
3212.34	0.00021
3221.99	0.00024
3231.64	0.00036
3241.28	0.00064
3250.93	0.00075
3260.58	0.000789
3270.22	0.00075
3279.87	0.00043
3289.52	0.00024
3299.16	0.00037
3308.81	0.00019
3318.45	0.00012
3328.1	2e-05
3337.75	5e-05
3347.39	0.0002
3357.04	0.00011
3366.69	0.00021
3376.33	0.00019
3385.98	0.0001
3395.63	0.00012
3405.27	0.00014
3414.92	6e-05
3424.57	0.00044
3434.21	0.00031
3443.86	0.00024
3453.51	0.00038
3463.15	0.0004
3472.8	0.00052
3482.45	0.00052
3492.09	0.00049
3501.74	0.00054
3511.39	0.00048
3521.03	0.00055
3530.68	0.00032
3540.33	0.00063
3549.97	0.00069
3559.62	0.001069
3569.26	0.001518
3578.91	0.00182658
3588.56	0.00285
3598.2	0.00422
3607.85	0.00704
3617.5	0.01349
3627.14	0.03595
3636.79	0.08975
3646.44	0.11156
3656.08	0.03403
3665.73	0.00746
3675.38	0.0042
3685.02	0.00342
3694.67	0.0026534
3704.32	0.0016813
3713.96	0.00157
3723.61	0.001432
3733.26	0.001307
3742.9	0.001247
3752.55	0.00112
3762.2	0.001014
3771.84	0.000836
3781.49	0.00076
3791.13	0.000855
3800.78	0.001051
3810.43	0.000821
3820.07	0.000877
3829.72	0.000776
3839.37	0.000989
3849.01	0.000907
3858.66	0.000879
3868.31	0.001017
3877.95	0.000898
3887.6	0.001131
3897.25	0.001171
3906.89	0.001122
3916.54	0.001238
3926.19	0.000938
3935.83	0.001013
3945.48	0.001082
3955.13	0.000948
3964.77	0.000952
3974.42	0.001095
3984.07	0.001074
3993.71	0.001199
