Infrared Spectrum: TWEEN 80
CAS: 1338-43-8
State: LIQUID
Class: COBLENTZ
Instrument: Not specified, most likely a prism, grating, or hybrid spectrometer.
Sampling: TRANSMISSION
Path length: 0.0015 CM
Resolution: 4
Origin: WYANDOTTE CHEMICALS CORP., WYANDOTTE, MICHIGAN, USA
MICROMETERS	TRANSMITTANCE
2.04	0.975
2.07983	0.978
2.11966	0.978
2.15949	0.973
2.19931	0.955
2.23914	0.916
2.27897	0.935
2.3188	0.936
2.35863	0.933
2.39846	0.916
2.43829	0.903
2.47812	0.913
2.51794	0.926
2.55777	0.94
2.5976	0.948
2.63743	0.928
2.67726	0.938
2.71709	0.87
2.75692	0.688
2.79674	0.495
2.83657	0.412
2.8764	0.371
2.91623	0.371
2.95606	0.407
2.99589	0.477
3.03572	0.589
3.07554	0.66
3.11537	0.715
3.1552	0.782
3.19503	0.828
3.23486	0.858
3.27469	0.86
3.31452	0.755
3.35435	0.51
3.39417	0.104
3.434	0.048
3.47383	0.051
3.51366	0.059
3.55349	0.336
3.59332	0.55
3.63315	0.685
3.67297	0.722
3.7128	0.78
3.75263	0.868
3.79246	0.905
3.83229	0.923
3.87212	0.933
3.91195	0.941
3.95177	0.948
3.9916	0.946
4.03143	0.946
4.07126	0.95
4.11109	0.953
4.15092	0.963
4.19075	0.968
4.23058	0.966
4.2704	0.958
4.31023	0.958
4.35006	0.973
4.38989	0.981
4.42972	0.965
4.46955	0.961
4.50938	0.96
4.5492	0.958
4.58903	0.958
4.62886	0.96
4.66869	0.958
4.70852	0.945
4.74835	0.941
4.78818	0.943
4.828	0.945
4.86783	0.946
4.90766	0.948
4.94749	0.948
4.98732	0.943
5.02715	0.94
5.06698	0.915
5.10681	0.905
5.14663	0.9
5.18646	0.903
5.22629	0.916
5.26612	0.936
5.30595	0.95
5.34578	0.96
5.38561	0.97
5.42543	0.973
5.46526	0.971
5.50509	0.97
5.54492	0.961
5.58475	0.948
5.62458	0.931
5.66441	0.906
5.70423	0.801
5.74406	0.435
5.78389	0.384
5.82372	0.643
5.86355	0.772
5.90338	0.823
5.94321	0.826
5.98304	0.792
6.02286	0.705
6.06269	0.675
6.10252	0.692
6.14235	0.743
6.18218	0.803
6.22201	0.841
6.26184	0.875
6.30166	0.881
6.34149	0.893
6.38132	0.89
6.42115	0.898
6.46098	0.881
6.50081	0.883
6.54064	0.876
6.58046	0.868
6.62029	0.855
6.66012	0.787
6.69995	0.645
6.73978	0.56
6.77961	0.342
6.81944	0.306
6.85927	0.342
6.89909	0.419
6.93892	0.5
6.97875	0.62
7.01858	0.648
7.05841	0.652
7.09824	0.647
7.13807	0.63
7.17789	0.6
7.21772	0.547
7.25755	0.509
7.29738	0.474
7.33721	0.4
7.37704	0.287
7.41687	0.309
7.45669	0.46
7.49652	0.495
7.53635	0.45
7.57618	0.464
7.61601	0.42
7.65584	0.337
7.69567	0.311
7.7355	0.319
7.77532	0.339
7.81515	0.366
7.85498	0.399
7.89481	0.381
7.93464	0.316
7.97447	0.251
8.0143	0.259
8.05412	0.306
8.09395	0.382
8.13378	0.447
8.17361	0.477
8.21344	0.487
8.25327	0.497
8.2931	0.495
8.33293	0.465
8.37275	0.43
8.41258	0.394
8.45241	0.352
8.49224	0.327
8.53207	0.279
8.5719	0.212
8.61173	0.134
8.65155	0.083
8.69138	0.051
8.73121	0.048
8.77104	0.048
8.81087	0.048
8.8507	0.048
8.89053	0.048
8.93035	0.048
8.97018	0.046
9.01001	0.046
9.04984	0.046
9.08967	0.046
9.1295	0.048
9.16933	0.051
9.20916	0.058
9.24898	0.063
9.28881	0.078
9.32864	0.099
9.36847	0.118
9.4083	0.144
9.44813	0.179
9.48796	0.202
9.52778	0.219
9.56761	0.219
9.60744	0.224
9.64727	0.239
9.6871	0.261
9.72693	0.301
9.76676	0.346
9.80658	0.386
9.84641	0.422
9.88624	0.447
9.92607	0.464
9.9659	0.469
10.0057	0.467
10.0456	0.467
10.0854	0.474
10.1252	0.492
10.165	0.505
10.2049	0.524
10.2447	0.532
10.2845	0.529
10.3244	0.51
10.3642	0.489
10.404	0.452
10.4438	0.414
10.4837	0.367
10.5235	0.341
10.5633	0.324
10.6032	0.322
10.643	0.341
10.6828	0.362
10.7226	0.381
10.7625	0.405
10.8023	0.434
10.8421	0.457
10.882	0.475
10.9218	0.499
10.9616	0.524
11.0014	0.54
11.0413	0.562
11.0811	0.579
11.1209	0.585
11.1608	0.579
11.2006	0.564
11.2404	0.54
11.2802	0.519
11.3201	0.51
11.3599	0.514
11.3997	0.522
11.4396	0.527
11.4794	0.529
11.5192	0.522
11.559	0.512
11.5989	0.509
11.6387	0.504
11.6785	0.495
11.7184	0.492
11.7582	0.49
11.798	0.489
11.8378	0.49
11.8777	0.497
11.9175	0.505
11.9573	0.517
11.9972	0.537
12.037	0.564
12.0768	0.584
12.1166	0.6
12.1565	0.627
12.1963	0.64
12.2361	0.653
12.276	0.665
12.3158	0.677
12.3556	0.685
12.3954	0.693
12.4353	0.705
12.4751	0.715
12.5149	0.728
12.5548	0.738
12.5946	0.75
12.6344	0.758
12.6742	0.767
12.7141	0.775
12.7539	0.782
12.7937	0.787
12.8336	0.792
12.8734	0.795
12.9132	0.793
12.953	0.792
12.9929	0.79
13.0327	0.787
13.0725	0.785
13.1124	0.783
13.1522	0.783
13.192	0.78
13.2318	0.777
13.2717	0.775
13.3115	0.772
13.3513	0.77
13.3912	0.765
13.431	0.76
13.4708	0.755
13.5106	0.75
13.5505	0.745
13.5903	0.738
13.6301	0.732
13.67	0.725
13.7098	0.718
13.7496	0.712
13.7894	0.703
13.8293	0.697
13.8691	0.695
13.9089	0.702
13.9488	0.708
13.9886	0.712
14.0284	0.72
14.0682	0.725
14.1081	0.728
14.1479	0.73
14.1877	0.73
14.2276	0.733
14.2674	0.737
14.3072	0.738
14.347	0.738
14.3869	0.738
14.4267	0.738
14.4665	0.738
14.5064	0.738
14.5462	0.738
14.586	0.738
14.6259	0.74
14.6657	0.74
14.7055	0.74
14.7453	0.743
14.7852	0.745
14.825	0.745
14.8648	0.743
14.9047	0.743
14.9445	0.745
14.9843	0.743
15.0241	0.737
15.064	0.728
15.1038	0.74
15.1436	0.745
15.1835	0.742
15.2233	0.74
15.2631	0.738
15.3029	0.738
15.3428	0.728
15.3826	0.732
15.4224	0.733
15.4623	0.737
15.5021	0.73
15.5419	0.728
15.5817	0.73
15.6216	0.728
15.6614	0.722
15.7012	0.728
15.7411	0.728
15.7809	0.723
15.8207	0.718
15.8605	0.72
15.9004	0.718
15.9402	0.72
15.98	0.717
