Infrared Spectrum: 4,7-Methanoindan-6-one, hexahydro
Formula: C10 H14 O
CAS: 13380-94-4
State: SOLUTION (10% CCl4 FOR 4000-1300, 10% CS2 FOR 1300-480 CM^-^1) VS SOLVENT
Class: COBLENTZ III
Instrument: CARY 90 (GRATING)
Instrument parameters: GRATING CHANGES: 3000, 2000, 1200 CM^-^1
Sampling: TRANSMISSION
Path length: 0.010 CM, AND 0.010 CM
Resolution: 2
Origin: WESTERN REGIONAL RES. USDA
1/CM	TRANSMITTANCE
489	0.625
498	0.7505
507	0.8682
516	0.771
525	0.7826
534	0.8815
543	0.8484
552	0.9099
561	0.9185
570	0.9182
579	0.9121
588	0.8865
597	0.9269
606	0.9376
615	0.9442
624	0.9437
633	0.9395
642	0.9313
651	0.9094
660	0.9402
669	0.9512
678	0.9406
687	0.9217
696	0.9176
705	0.9515
714	0.9715
723	0.9803
732	0.9671
741	0.9517
750	0.9453
759	0.7334
768	0.953
777	0.9432
786	0.8124
795	0.8858
804	0.7731
813	0.9431
822	0.9611
831	0.9611
840	0.9484
849	0.8787
858	0.9136
867	0.9451
876	0.9457
885	0.9275
894	0.9207
903	0.8332
912	0.808
921	0.9153
930	0.8946
939	0.8223
948	0.4966
957	0.9026
966	0.9092
975	0.8226
984	0.9038
993	0.8882
1002	0.7431
1011	0.7179
1020	0.9095
1029	0.8744
1038	0.8528
1047	0.758
1056	0.8716
1065	0.9071
1074	0.9256
1083	0.9305
1092	0.9068
1101	0.8779
1110	0.912
1119	0.8801
1128	0.7664
1137	0.5241
1146	0.8184
1155	0.5004
1164	0.2638
1173	0.6757
1182	0.8347
1191	0.8891
1200	0.8907
1209	0.857
1218	0.8189
1227	0.7717
1236	0.8614
1245	0.8686
1254	0.9034
1263	0.8904
1272	0.8556
1281	0.7897
1290	0.6549
1299	0.8742
1308	0.8421
1317	0.8498
1326	0.8517
1335	0.8772
1344	0.8588
1353	0.9132
1362	0.9337
1371	0.9358
1380	0.9314
1389	0.9214
1398	0.9048
1407	0.6747
1416	0.8468
1425	0.8974
1434	0.8859
1443	0.776
1452	0.7107
1461	0.6531
1470	0.7696
1479	0.6392
1488	0.871
1497	0.9004
1506	0.9179
1515	0.9236
1524	0.9282
1533	0.9319
1542	0.9419
1551	0.9482
1560	0.9407
1569	0.9357
1578	0.9342
1587	0.9287
1596	0.919
1605	0.9164
1614	0.9219
1623	0.9246
1632	0.9176
1641	0.9089
1650	0.8896
1659	0.8927
1668	0.9105
1677	0.9145
1686	0.9043
1695	0.8471
1704	0.7463
1713	0.7482
1722	0.708
1731	0.5191
1740	0.1861
1749	0.0004
1758	0.0612
1767	0.3919
1776	0.7347
1785	0.8352
1794	0.8678
1803	0.8727
1812	0.8959
1821	0.9048
1830	0.9257
1839	0.9308
1848	0.9245
1857	0.9127
1866	0.9287
1875	0.9342
1884	0.931
1893	0.9311
1902	0.9341
1911	0.9323
1920	0.9304
1929	0.9334
1938	0.9418
1947	0.943
1956	0.9381
1965	0.9421
1974	0.9453
1983	0.9391
1992	0.927
2001	0.9225
2010	0.9218
2019	0.9226
2028	0.9237
2037	0.9251
2046	0.9265
2055	0.9264
2064	0.9235
2073	0.9187
2082	0.9153
2091	0.9166
2100	0.9186
2109	0.9194
2118	0.9202
2127	0.9211
2136	0.9209
2145	0.9207
2154	0.9205
2163	0.9187
2172	0.916
2181	0.9139
2190	0.9129
2199	0.912
2208	0.9113
2217	0.9117
2226	0.9122
2235	0.9127
2244	0.9117
2253	0.9104
2262	0.9092
2271	0.908
2280	0.9072
2289	0.9071
2298	0.9076
2307	0.9082
2316	0.9076
2325	0.9051
2334	0.9034
2343	0.9053
2352	0.9083
2361	0.9111
2370	0.9109
2379	0.9087
2388	0.9069
2397	0.9051
2406	0.9041
2415	0.9032
2424	0.9025
2433	0.9025
2442	0.903
2451	0.9046
2460	0.9068
2469	0.9083
2478	0.9086
2487	0.9089
2496	0.9092
2505	0.9092
2514	0.9093
2523	0.9086
2532	0.908
2541	0.9076
2550	0.9072
2559	0.9069
2568	0.9069
2577	0.9069
2586	0.9069
2595	0.9068
2604	0.9067
2613	0.9066
2622	0.9065
2631	0.9066
2640	0.9071
2649	0.9075
2658	0.9086
2667	0.9105
2676	0.9126
2685	0.9152
2694	0.9168
2703	0.9167
2712	0.9158
2721	0.9147
2730	0.9122
2739	0.9103
2748	0.9088
2757	0.9071
2766	0.9052
2775	0.9036
2784	0.9024
2793	0.9009
2802	0.8954
2811	0.8912
2820	0.8959
2829	0.8876
2838	0.8626
2847	0.8239
2856	0.775
2865	0.4401
2874	0.3116
2883	0.5545
2892	0.5688
2901	0.5671
2910	0.4742
2919	0.3773
2928	0.2896
2937	0.2225
2946	0.1402
2955	0.0501
2964	0.0922
2973	0.2317
2982	0.3713
2991	0.5108
3000	0.6829
3009	0.7823
3018	0.8289
3027	0.8695
3036	0.8877
3045	0.8929
3054	0.8973
3063	0.904
3072	0.9109
3081	0.9149
3090	0.9186
3099	0.922
3108	0.9243
3117	0.926
3126	0.9275
3135	0.9289
3144	0.9303
3153	0.9312
3162	0.9321
3171	0.9331
3180	0.9337
3189	0.9342
3198	0.9348
3207	0.9353
3216	0.9357
3225	0.936
3234	0.9363
3243	0.9366
3252	0.9344
3261	0.9362
3270	0.935
3279	0.9334
3288	0.9347
3297	0.9375
3306	0.9394
3315	0.9388
3324	0.9364
3333	0.9349
3342	0.9365
3351	0.938
3360	0.9387
3369	0.9395
3378	0.9397
3387	0.9399
3396	0.9401
3405	0.9397
3414	0.9381
3423	0.9364
3432	0.9331
3441	0.9297
3450	0.9237
3459	0.9162
3468	0.9069
3477	0.889
3486	0.891
3495	0.8993
3504	0.909
3513	0.9177
3522	0.9216
3531	0.9238
3540	0.9254
3549	0.9269
3558	0.9281
3567	0.9292
3576	0.9304
3585	0.9317
3594	0.9331
3603	0.9336
3612	0.9337
3621	0.9336
3630	0.9333
3639	0.9331
3648	0.9326
3657	0.9313
3666	0.9301
3675	0.9291
3684	0.9283
3693	0.9274
3702	0.9265
3711	0.9273
3720	0.9284
3729	0.9291
3738	0.9292
3747	0.9292
3756	0.9284
3765	0.9271
3774	0.926
3783	0.9262
3792	0.9264
3801	0.9266
3810	0.9269
3819	0.9271
3828	0.9274
3837	0.9277
3846	0.9281
3855	0.9284
3864	0.9288
3873	0.9291
3882	0.9295
3891	0.9302
3900	0.9319
3909	0.9338
3918	0.937
3927	0.94
3936	0.9432
3945	0.9461
3954	0.949
3963	0.9515
3972	0.954
3981	0.9566
3990	0.9592
