Infrared Spectrum: 3,5-Dimethoxyphenylacetonitrile
Formula: C 10 H 11 N O 2
CAS: 13388-75-5
State: gas
Origin: EPA-IR VAPOR PHASE LIBRARY
1/CM	ABSORBANCE
549.8	0.002686
559.445	0.002366
569.09	0.002256
578.734	0.002736
588.379	0.003136
598.024	0.003006
607.669	0.002516
617.313	0.002326
626.958	0.001576
636.603	0.001676
646.248	0.002486
655.893	0.004336
665.537	0.006136
675.182	0.009206
684.827	0.011946
694.472	0.011636
704.116	0.008516
713.761	0.004466
723.406	0.002276
733.051	0.001406
742.695	0.0010665
752.34	0.0010586
761.985	0.0008355
771.63	0.0010534
781.275	0.0012261
790.919	0.002246
800.564	0.004816
810.209	0.009266
819.854	0.011326
829.498	0.015256
839.143	0.021536
848.788	0.018136
858.433	0.013966
868.078	0.008186
877.722	0.005346
887.367	0.005676
897.012	0.008046
906.657	0.007636
916.301	0.005996
925.946	0.007046
935.591	0.008986
945.236	0.008736
954.88	0.006286
964.525	0.004946
974.17	0.004866
983.815	0.005016
993.46	0.006306
1003.1	0.006236
1012.75	0.005616
1022.39	0.006276
1032.04	0.009526
1041.68	0.019646
1051.33	0.042136
1060.97	0.065166
1070.62	0.057756
1080.26	0.028636
1089.91	0.013326
1099.55	0.009966
1109.2	0.010216
1118.84	0.012036
1128.49	0.022126
1138.13	0.053506
1147.78	0.105726
1157.42	0.145636
1167.07	0.109596
1176.71	0.049706
1186.36	0.047126
1196	0.078996
1205.64	0.099736
1215.29	0.063566
1224.93	0.023936
1234.58	0.014916
1244.22	0.014406
1253.87	0.013586
1263.51	0.011286
1273.16	0.011406
1282.8	0.019496
1292.45	0.029566
1302.09	0.025966
1311.74	0.029236
1321.38	0.045996
1331.03	0.055896
1340.67	0.044816
1350.32	0.031356
1359.96	0.018786
1369.61	0.011306
1379.25	0.009086
1388.9	0.008696
1398.54	0.010026
1408.18	0.014226
1417.83	0.027816
1427.47	0.057136
1437.12	0.067516
1446.76	0.047336
1456.41	0.058116
1466.05	0.091366
1475.7	0.076476
1485.34	0.036196
1494.99	0.016296
1504.63	0.011186
1514.28	0.010316
1523.92	0.010736
1533.57	0.011566
1543.21	0.013106
1552.86	0.015076
1562.5	0.018996
1572.15	0.029886
1581.79	0.061826
1591.44	0.130346
1601.08	0.196386
1610.73	0.154406
1620.37	0.073716
1630.01	0.032806
1639.66	0.018516
1649.3	0.012036
1658.95	0.008666
1668.59	0.007136
1678.24	0.006416
1687.88	0.005866
1697.53	0.005066
1707.17	0.004276
1716.82	0.003646
1726.46	0.003146
1736.11	0.002736
1745.75	0.002496
1755.4	0.002316
1765.04	0.002196
1774.69	0.002116
1784.33	0.001796
1793.98	0.001786
1803.62	0.001656
1813.27	0.001716
1822.91	0.001726
1832.55	0.001646
1842.2	0.001516
1851.84	0.001426
1861.49	0.001376
1871.13	0.001416
1880.78	0.001296
1890.42	0.001356
1900.07	0.0012259
1909.71	0.0012009
1919.36	0.0010879
1929	0.0011335
1938.65	0.0011606
1948.29	0.0012846
1957.94	0.001366
1967.58	0.001476
1977.23	0.001656
1986.87	0.001816
1996.52	0.001836
2006.16	0.001766
2015.81	0.001656
2025.45	0.001656
2035.1	0.001716
2044.74	0.001616
2054.38	0.001806
2064.03	0.001866
2073.67	0.001906
2083.32	0.002186
2092.96	0.002406
2102.61	0.002626
2112.25	0.002636
2121.9	0.002626
2131.54	0.002216
2141.19	0.001936
2150.83	0.001506
2160.48	0.001396
2170.12	0.001396
2179.77	0.001386
2189.41	0.001496
2199.06	0.001566
2208.7	0.001556
2218.35	0.001666
2227.99	0.001716
2237.64	0.001866
2247.28	0.002516
2256.92	0.002906
2266.57	0.002426
2276.21	0.001666
2285.86	0.001296
2295.5	0.0010127
2305.15	0.0009009
2314.79	0.0009841
2324.44	0.0009534
2334.08	0.0009741
2343.73	0.0011399
2353.37	0.0012369
2363.02	0.0012118
2372.66	0.0012445
2382.31	0.0011253
2391.95	0.0010908
2401.6	0.0012246
2411.24	0.0012671
2420.89	0.0012585
2430.53	0.001316
2440.18	0.0012731
2449.82	0.001316
2459.47	0.001346
2469.11	0.001366
2478.75	0.001446
2488.4	0.001596
2498.04	0.001526
2507.69	0.001386
2517.33	0.001356
2526.98	0.0012646
2536.62	0.0012707
2546.27	0.001406
2555.91	0.001366
2565.56	0.0012043
2575.2	0.0012805
2584.85	0.0012791
2594.49	0.0012759
2604.14	0.001396
2613.78	0.001606
2623.43	0.001556
2633.07	0.001516
2642.72	0.001496
2652.36	0.001426
2662.01	0.0011608
2671.65	0.0012017
2681.29	0.0010132
2690.94	0.0009145
2700.58	0.000919
2710.23	0.0010029
2719.87	0.0010967
2729.52	0.0012524
2739.16	0.001376
2748.81	0.001556
2758.45	0.001846
2768.1	0.002156
2777.74	0.002266
2787.39	0.002726
2797.03	0.003086
2806.68	0.003626
2816.32	0.004616
2825.97	0.006966
2835.61	0.013456
2845.26	0.024666
2854.9	0.021876
2864.55	0.012036
2874.19	0.009786
2883.84	0.010876
2893.48	0.013136
2903.12	0.015626
2912.77	0.018756
2922.41	0.021006
2932.06	0.024676
2941.7	0.036176
2951.35	0.042566
2960.99	0.035976
2970.64	0.024876
2980.28	0.015976
2989.93	0.014086
2999.57	0.021306
3009.22	0.032616
3018.86	0.022376
3028.51	0.008996
3038.15	0.005796
3047.8	0.004926
3057.44	0.004636
3067.09	0.005186
3076.73	0.005116
3086.38	0.004896
3096.02	0.003856
3105.67	0.002836
3115.31	0.002066
3124.95	0.001726
3134.6	0.001516
3144.24	0.001476
3153.89	0.001336
3163.53	0.001356
3173.18	0.001217
3182.82	0.0011824
3192.47	0.0010282
3202.11	0.0012365
3211.76	0.0012157
3221.4	0.0011221
3231.05	0.000721
3240.69	0.0004731
3250.34	0.0005278
3259.98	0.0004167
3269.63	0.00038053
3279.27	0.000285712
3288.92	0.0003895
3298.56	0.00027706
3308.21	0.0002108
3317.85	0.0004999
3327.49	0.0002388
3337.14	0.0002716
3346.78	0.0004088
3356.43	0.0003393
3366.07	0.000134
3375.72	0.00036996
3385.36	0.00034938
3395.01	0.000483
3404.65	0.00038311
3414.3	0.0004384
3423.94	0.00032568
3433.59	0.00033472
3443.23	0.0004561
3452.88	0.000246
3462.52	0.0001987
3472.17	0.00033695
3481.81	0.0004262
3491.46	0.0002428
3501.1	0.000155
3510.75	0.0004611
3520.39	0.000289908
3530.04	0.0004362
3539.68	0.0004282
3549.32	0.00038587
3558.97	0.0005362
3568.61	0.00037748
3578.26	0.0004607
3587.9	0.00037052
3597.55	0.0004457
3607.19	0.00029768
3616.84	0.0004285
3626.48	0.00037011
3636.13	0.0004417
3645.77	0.0004316
3655.42	0.00038129
3665.06	0.0002517
3674.71	0.00031582
3684.35	0.00037454
3694	0.00032989
3703.64	0.0002155
3713.29	0.0001997
3722.93	0.0004979
3732.58	0.0004364
3742.22	0.0003459
3751.86	1.7e-05
3761.51	0.0002648
3771.15	0.00035035
3780.8	0.00030945
3790.44	0.0004251
3800.09	0.0005283
3809.73	0.000289754
3819.38	0.000442
3829.02	0.000606
3838.67	0.0004589
3848.31	0.0004529
3857.96	0.00037394
3867.6	0.0005658
3877.25	0.00028223
3886.89	0.0005198
3896.54	0.0007946
3906.18	0.0006669
3915.83	0.0006644
3925.47	0.000516
3935.12	0.0005339
3944.76	0.0004998
3954.41	0.000396
3964.05	0.0004831
3973.69	0.00033487
3983.34	0.0006494
3992.98	0.0005848
