Infrared Spectrum: N-(4-Bromophenyl)maleimide
Formula: C 10 H 6 Br N O 2
CAS: 13380-67-1
State: gas
Origin: EPA-IR VAPOR PHASE LIBRARY
1/CM	ABSORBANCE
549.8	0.0010229
559.445	0.00204
569.09	0.00339
578.734	0.00696
588.379	0.0049
598.024	0.00205
607.669	0.00168
617.313	0.00236
626.958	0.00389
636.603	0.00859
646.248	0.00398
655.893	0.0037
665.537	0.00504
675.182	0.00974
684.827	0.01711
694.472	0.01992
704.116	0.02353
713.761	0.02221
723.406	0.01248
733.051	0.01358
742.695	0.0035
752.34	0.00307
761.985	0.00243
771.63	0.00171
781.275	0.0012747
790.919	0.00213
800.564	0.00376
810.209	0.0106
819.854	0.03033
829.498	0.05561
839.143	0.03269
848.788	0.00906
858.433	0.00431
868.078	0.00313
877.722	0.0015375
887.367	0.001443
897.012	0.0013691
906.657	0.0013407
916.301	0.0009808
925.946	0.00223
935.591	0.00869
945.236	0.01968
954.88	0.0039
964.525	0.00217
974.17	0.00204
983.815	0.00265
993.46	0.00575
1003.1	0.00952
1012.75	0.02883
1022.39	0.01656
1032.04	0.00818
1041.68	0.00362
1051.33	0.00774
1060.97	0.01911
1070.62	0.03209
1080.26	0.01795
1089.91	0.0073
1099.55	0.00783
1109.2	0.01077
1118.84	0.01415
1128.49	0.02861
1138.13	0.0551
1147.78	0.05451
1157.42	0.02306
1167.07	0.00807
1176.71	0.00526
1186.36	0.00491
1196	0.00997
1205.64	0.01236
1215.29	0.00479
1224.93	0.00481
1234.58	0.00327
1244.22	0.00261
1253.87	0.00495
1263.51	0.00593
1273.16	0.00594
1282.8	0.00506
1292.45	0.00544
1302.09	0.00631
1311.74	0.00838
1321.38	0.00995
1331.03	0.01178
1340.67	0.01717
1350.32	0.03049
1359.96	0.07031
1369.61	0.14298
1379.25	0.1685
1388.9	0.09311
1398.54	0.05204
1408.18	0.0349
1417.83	0.01935
1427.47	0.01884
1437.12	0.01445
1446.76	0.00618
1456.41	0.00601
1466.05	0.00845
1475.7	0.01864
1485.34	0.0911
1494.99	0.14626
1504.63	0.03664
1514.28	0.01528
1523.92	0.00692
1533.57	0.00447
1543.21	0.0038
1552.86	0.00356
1562.5	0.00462
1572.15	0.00573
1581.79	0.00617
1591.44	0.00763
1601.08	0.00573
1610.73	0.00422
1620.37	0.00428
1630.01	0.00481
1639.66	0.00416
1649.3	0.00364
1658.95	0.00381
1668.59	0.00342
1678.24	0.00431
1687.88	0.00698
1697.53	0.01215
1707.17	0.02242
1716.82	0.05005
1726.46	0.15264
1736.11	0.31821
1745.75	0.23973
1755.4	0.07389
1765.04	0.03311
1774.69	0.02258
1784.33	0.01528
1793.98	0.00733
1803.62	0.00437
1813.27	0.00339
1822.91	0.00243
1832.55	0.00235
1842.2	0.00251
1851.84	0.00242
1861.49	0.00282
1871.13	0.00427
1880.78	0.00592
1890.42	0.00598
1900.07	0.00389
1909.71	0.00285
1919.36	0.00209
1929	0.0015186
1938.65	0.0013943
1948.29	0.0017
1957.94	0.00193
1967.58	0.00189
1977.23	0.0014126
1986.87	0.0012903
1996.52	0.0011845
2006.16	0.0013713
2015.81	0.0013314
2025.45	0.0010762
2035.1	0.0010604
2044.74	0.0013448
2054.38	0.0013618
2064.03	0.0012303
2073.67	0.0012758
2083.32	0.0013064
2092.96	0.0011993
2102.61	0.0012255
2112.25	0.0013955
2121.9	0.0015695
2131.54	0.0011606
2141.19	0.0009874
2150.83	0.0008603
2160.48	0.0010932
2170.12	0.0011331
2179.77	0.000517
2189.41	0.000385
2199.06	0.0005949
2208.7	0.0007927
2218.35	0.0007472
2227.99	0.0009844
2237.64	0.0009671
2247.28	0.0008058
2256.92	0.0009118
2266.57	0.0009182
2276.21	0.0010799
2285.86	0.0011544
2295.5	0.0010249
2305.15	0.0007629
2314.79	0.0010955
2324.44	0.0013818
2334.08	0.0011091
2343.73	0.0012426
2353.37	0.0012333
2363.02	0.0011507
2372.66	0.0009608
2382.31	0.0010136
2391.95	0.0008434
2401.6	0.00065501
2411.24	0.0007639
2420.89	0.0007865
2430.53	0.0009217
2440.18	0.0007775
2449.82	0.0009789
2459.47	0.0007985
2469.11	0.0010527
2478.75	0.0008711
2488.4	0.0011151
2498.04	0.0010988
2507.69	0.0012282
2517.33	0.0013968
2526.98	0.0010438
2536.62	0.0010723
2546.27	0.0009617
2555.91	0.0012926
2565.56	0.000630418
2575.2	0.0010518
2584.85	0.0008445
2594.49	0.0008098
2604.14	0.000767
2613.78	0.00071343
2623.43	0.00062101
2633.07	0.00062246
2642.72	0.000535
2652.36	0.000464
2662.01	0.0005
2671.65	0.000489
2681.29	0.0007896
2690.94	0.0005805
2700.58	0.0007614
2710.23	0.0005666
2719.87	0.00064484
2729.52	0.0007372
2739.16	0.00068468
2748.81	0.0005929
2758.45	0.00062741
2768.1	0.0007599
2777.74	0.0005939
2787.39	0.0006049
2797.03	0.00067189
2806.68	0.0007975
2816.32	0.0008094
2825.97	0.00070656
2835.61	0.0006157
2845.26	0.0005373
2854.9	0.00066554
2864.55	0.000342
2874.19	0.0005578
2883.84	0.000751
2893.48	0.0005957
2903.12	0.000417
2912.77	0.0008238
2922.41	0.000356
2932.06	0.0008365
2941.7	0.00072347
2951.35	0.0009088
2960.99	0.0005487
2970.64	0.000264
2980.28	0.000508
2989.93	0.0005844
2999.57	0.0005319
3009.22	0.0009116
3018.86	0.000375
3028.51	0.0008189
3038.15	0.0012727
3047.8	0.00177
3057.44	0.0014894
3067.09	0.0013302
3076.73	0.0013402
3086.38	0.00172
3096.02	0.00209
3105.67	0.00195
3115.31	0.0011109
3124.95	0.0014243
3134.6	0.0008986
3144.24	0.0009757
3153.89	0.0005738
3163.53	0.00064695
3173.18	0.0007942
3182.82	0.0005731
3192.47	0.0005712
3202.11	0.00064393
3211.76	0.0005651
3221.4	0.000629697
3231.05	0.000525
3240.69	0.000301
3250.34	0.00069992
3259.98	0.0006006
3269.63	0.000447
3279.27	0.000427
3288.92	0.000482
3298.56	0.000208
3308.21	0.000466
3317.85	0.000358
3327.49	0.000477
3337.14	0.0005376
3346.78	0.00071846
3356.43	0.00071283
3366.07	0.000408
3375.72	0.000266
3385.36	0.000515
3395.01	0.000509
3404.65	0.00052
3414.3	0.0008407
3423.94	0.000329
3433.59	0.000453
3443.23	0.000219
3452.88	0.000501
3462.52	0.0010432
3472.17	0.0015909
3481.81	0.00196
3491.46	0.00298
3501.1	0.0045
3510.75	0.00441
3520.39	0.00226
3530.04	0.00228
3539.68	0.001469
3549.32	0.000899
3558.97	0.00067285
3568.61	0.0008214
3578.26	0.000363
3587.9	0.000436
3597.55	0.00066286
3607.19	0.00047
3616.84	0.000462
3626.48	0.000797
3636.13	0.000473
3645.77	0.00051
3655.42	0.000473
3665.06	0.000337
3674.71	0.00036
3684.35	0.00072412
3694	0.0005663
3703.64	0.00070343
3713.29	0.00065717
3722.93	0.000277
3732.58	0.000834
3742.22	0.00067012
3751.86	0.000512
3761.51	0.000135
3771.15	0.0006058
3780.8	0.0008613
3790.44	0.0010133
3800.09	0.000994
3809.73	0.0009294
3819.38	0.00072245
3829.02	0.00062737
3838.67	0.0007403
3848.31	0.000316
3857.96	0.00072372
3867.6	0.0005923
3877.25	0.000487
3886.89	0.0007321
3896.54	0.0007959
3906.18	0.00072901
3915.83	0.000129
3925.47	0.0005716
3935.12	0.000321
3944.76	0.00066226
3954.41	0.0007947
3964.05	0.0008805
3973.69	0.000875
3983.34	0.000507
3992.98	0.0005361
