Infrared Spectrum: trans-2-Octene
Formula: C 8 H 16
CAS: 13389-42-9
State: gas
Instrument: HP-GC/MS/IRD
Origin: NIST Mass Spectrometry Data Center
1/CM	ABSORBANCE
550	7.2e-05
562	8.55e-05
574	2.25e-05
586	0.0001215
598	5.4e-05
610	0.000162
622	0.0002025
634	9.9e-05
646	0.0001935
658	0.0002205
670	0.000135
682	0.0002205
694	0.000171
706	0.0003735
718	0.000531
730	0.0008055
742	0.0006795
754	0.0005265
766	0.0004545
778	0.0004005
790	0.00027
802	0.000369
814	0.0002745
826	0.000288
838	0.0003555
850	0.0004455
862	0.0005085
874	0.0006255
886	0.000837
898	0.0009945
910	0.0012915
922	0.0016785
934	0.0024975
946	0.0040635
958	0.006696
970	0.006795
982	0.0040365
994	0.0023625
1006	0.0016425
1018	0.0012375
1030	0.0010395
1042	0.0010755
1054	0.0010845
1066	0.00108
1078	0.000963
1090	0.0007605
1102	0.00072
1114	0.000594
1126	0.000486
1138	0.0004185
1150	0.0003555
1162	0.0003375
1174	0.000369
1186	0.000441
1198	0.00054
1210	0.000594
1222	0.0006435
1234	0.000639
1246	0.0006435
1258	0.0006975
1270	0.0008505
1282	0.00108
1294	0.001224
1306	0.0012555
1318	0.0012015
1330	0.0013545
1342	0.0015345
1354	0.001575
1366	0.001629
1378	0.0020745
1390	0.0021195
1402	0.001593
1414	0.0015255
1426	0.002079
1438	0.0032985
1450	0.0045315
1462	0.004716
1474	0.0035325
1486	0.0020565
1498	0.0012915
1510	0.0008415
1522	0.0007245
1534	0.0006075
1546	0.0005085
1558	0.0004545
1570	0.000414
1582	0.0003645
1594	0.000324
1606	0.000324
1618	0.0003195
1630	0.0003195
1642	0.0002925
1654	0.000315
1666	0.0003375
1678	0.0003735
1690	0.000396
1702	0.0004095
1714	0.000432
1726	0.0004095
1738	0.000351
1750	0.000288
1762	0.000261
1774	0.0002385
1786	0.0002295
1798	0.000216
1810	0.0002205
1822	0.0002025
1834	0.0001575
1846	0.000162
1858	0.000126
1870	0.000126
1882	0.0001395
1894	0.0001215
1906	0.000135
1918	0.000135
1930	0.0001125
1942	0.0001125
1954	0.0001305
1966	0.0001215
1978	0.000144
1990	0.0001575
2002	0.0001845
2014	0.000135
2026	0.000144
2038	0.000144
2050	0.0001125
2062	0.000108
2074	9.9e-05
2086	9.9e-05
2098	9.45e-05
2110	8.1e-05
2122	8.55e-05
2134	9.45e-05
2146	8.55e-05
2158	6.3e-05
2170	8.1e-05
2182	9e-05
2194	9e-05
2206	7.2e-05
2218	6.3e-05
2230	8.55e-05
2242	8.55e-05
2254	9e-05
2266	7.2e-05
2278	5.85e-05
2290	8.1e-05
2302	2.7e-05
2314	2.25e-05
2326	9e-06
2338	5.4e-05
2350	5.4e-05
2362	4.05e-05
2374	5.85e-05
2386	0.000117
2398	0.000144
2410	0.000126
2422	0.0001305
2434	0.0001395
2446	0.0001305
2458	0.000126
2470	0.0001035
2482	0.000108
2494	0.000117
2506	0.000108
2518	0.000126
2530	0.000171
2542	0.0001305
2554	0.000171
2566	0.0001665
2578	0.0001935
2590	0.0001845
2602	0.00027
2614	0.000252
2626	0.0002925
2638	0.0003105
2650	0.0004005
2662	0.00045
2674	0.000495
2686	0.0004725
2698	0.0004725
2710	0.0004725
2722	0.0006075
2734	0.0008505
2746	0.001008
2758	0.0008685
2770	0.0008685
2782	0.001044
2794	0.001332
2806	0.001728
2818	0.0024165
2830	0.0037665
2842	0.006966
2854	0.012492
2866	0.017838
2878	0.018387
2890	0.0167895
2902	0.0186165
2914	0.027513
2926	0.0417105
2938	0.0433575
2950	0.032238
2962	0.027882
2974	0.0233595
2986	0.013455
2998	0.008973
3010	0.007596
3022	0.006876
3034	0.0054945
3046	0.003807
3058	0.0026595
3070	0.0020475
3082	0.0015975
3094	0.0013545
3106	0.001107
3118	0.000936
3130	0.0007785
3142	0.0006075
3154	0.0004995
3166	0.0004005
3178	0.000351
3190	0.000324
3202	0.0002925
3214	0.000225
3226	0.00018
3238	0.000144
3250	0.0001485
3262	0.0001035
3274	6.75e-05
3286	9e-05
3298	4.5e-05
3310	4.95e-05
3322	4.95e-05
3334	4.95e-05
3346	6.3e-05
3358	5.85e-05
3370	7.2e-05
3382	5.85e-05
3394	7.65e-05
3406	6.3e-05
3418	6.75e-05
3430	9e-05
3442	5.85e-05
3454	4.05e-05
3466	3.15e-05
3478	6.75e-05
3490	4.5e-05
3502	3.15e-05
3514	4.95e-05
3526	3.6e-05
3538	4.5e-05
3550	3.6e-05
3562	8.55e-05
3574	5.4e-05
3586	1.35e-05
3598	0.0001125
3610	0.0001215
3622	7.65e-05
3634	9.45e-05
3646	0.0001575
3658	0.000108
3670	0.0001575
3682	9.45e-05
3694	0.000135
3706	0.000135
3718	0.0001395
3730	0.0001035
3742	0.000135
3754	0.000207
3766	0.000153
3778	0.0002025
3790	0.0001755
3802	0.000198
3814	0.000171
3826	0.00018
3838	0.0001665
