Infrared Spectrum: Ethyl trimethylacetopyruvate
Formula: C 10 H 16 O 4
CAS: 13395-36-3
State: gas
Origin: EPA-IR VAPOR PHASE LIBRARY
1/CM	ABSORBANCE
549.8	0.001998
559.445	0.003658
569.09	0.003308
578.734	0.003978
588.379	0.002828
598.024	0.002428
607.669	0.002228
617.313	0.002428
626.958	0.001538
636.603	0.002498
646.248	0.002678
655.893	0.002298
665.537	0.002708
675.182	0.002848
684.827	0.004458
694.472	0.007218
704.116	0.007608
713.761	0.004888
723.406	0.004058
733.051	0.004558
742.695	0.004348
752.34	0.003268
761.985	0.004968
771.63	0.008198
781.275	0.010388
790.919	0.008528
800.564	0.005828
810.209	0.005408
819.854	0.003788
829.498	0.007238
839.143	0.006978
848.788	0.007058
858.433	0.008078
868.078	0.008258
877.722	0.009698
887.367	0.012428
897.012	0.010718
906.657	0.007438
916.301	0.006318
925.946	0.006498
935.591	0.005738
945.236	0.005048
954.88	0.003968
964.525	0.004508
974.17	0.004748
983.815	0.006578
993.46	0.008658
1003.1	0.014288
1012.75	0.023368
1022.39	0.024268
1032.04	0.018588
1041.68	0.014698
1051.33	0.017658
1060.97	0.020818
1070.62	0.020988
1080.26	0.026838
1089.91	0.036308
1099.55	0.043368
1109.2	0.047788
1118.84	0.057058
1128.49	0.044208
1138.13	0.026628
1147.78	0.017438
1157.42	0.017718
1167.07	0.019058
1176.71	0.019218
1186.36	0.020618
1196	0.023178
1205.64	0.027108
1215.29	0.038738
1224.93	0.052418
1234.58	0.088638
1244.22	0.121638
1253.87	0.101218
1263.51	0.069168
1273.16	0.069128
1282.8	0.065938
1292.45	0.051838
1302.09	0.040568
1311.74	0.031578
1321.38	0.023378
1331.03	0.017708
1340.67	0.014748
1350.32	0.014698
1359.96	0.018828
1369.61	0.027568
1379.25	0.023128
1388.9	0.018788
1398.54	0.019598
1408.18	0.017658
1417.83	0.016448
1427.47	0.016428
1437.12	0.015778
1446.76	0.016328
1456.41	0.018208
1466.05	0.020058
1475.7	0.022428
1485.34	0.020418
1494.99	0.014668
1504.63	0.012508
1514.28	0.012268
1523.92	0.012798
1533.57	0.013888
1543.21	0.016158
1552.86	0.019828
1562.5	0.025038
1572.15	0.032428
1581.79	0.042028
1591.44	0.050408
1601.08	0.054098
1610.73	0.051058
1620.37	0.045628
1630.01	0.044018
1639.66	0.042038
1649.3	0.034558
1658.95	0.024248
1668.59	0.017518
1678.24	0.013888
1687.88	0.012998
1697.53	0.014758
1707.17	0.019708
1716.82	0.024818
1726.46	0.031138
1736.11	0.052688
1745.75	0.061188
1755.4	0.043018
1765.04	0.038718
1774.69	0.032368
1784.33	0.015928
1793.98	0.008638
1803.62	0.005818
1813.27	0.004718
1822.91	0.003778
1832.55	0.003778
1842.2	0.003268
1851.84	0.003058
1861.49	0.003078
1871.13	0.002638
1880.78	0.002628
1890.42	0.002628
1900.07	0.002328
1909.71	0.002138
1919.36	0.001988
1929	0.002418
1938.65	0.002318
1948.29	0.002248
1957.94	0.002058
1967.58	0.001978
1977.23	0.002038
1986.87	0.001898
1996.52	0.001948
2006.16	0.001768
2015.81	0.001998
2025.45	0.001748
2035.1	0.002058
2044.74	0.001838
2054.38	0.001658
2064.03	0.001878
2073.67	0.001988
2083.32	0.001978
2092.96	0.001878
2102.61	0.002078
2112.25	0.001958
2121.9	0.002268
2131.54	0.002638
2141.19	0.002638
2150.83	0.001978
2160.48	0.001678
2170.12	0.001788
2179.77	0.001498
2189.41	0.001698
2199.06	0.001898
2208.7	0.001688
2218.35	0.001728
2227.99	0.001838
2237.64	0.001598
2247.28	0.001588
2256.92	0.001638
2266.57	0.001808
2276.21	0.001958
2285.86	0.002038
2295.5	0.001978
2305.15	0.001518
2314.79	0.001908
2324.44	0.001958
2334.08	0.001968
2343.73	0.002048
2353.37	0.001918
2363.02	0.002008
2372.66	0.001868
2382.31	0.002088
2391.95	0.002158
2401.6	0.002008
2411.24	0.002358
2420.89	0.001968
2430.53	0.001838
2440.18	0.001968
2449.82	0.001848
2459.47	0.001898
2469.11	0.002228
2478.75	0.002658
2488.4	0.002338
2498.04	0.002288
2507.69	0.002358
2517.33	0.002128
2526.98	0.002388
2536.62	0.002418
2546.27	0.002578
2555.91	0.002458
2565.56	0.002518
2575.2	0.002428
2584.85	0.002168
2594.49	0.002388
2604.14	0.002478
2613.78	0.003018
2623.43	0.002698
2633.07	0.002718
2642.72	0.002358
2652.36	0.002618
2662.01	0.002748
2671.65	0.002798
2681.29	0.002948
2690.94	0.003208
2700.58	0.002948
2710.23	0.002938
2719.87	0.003218
2729.52	0.003248
2739.16	0.003358
2748.81	0.003348
2758.45	0.003348
2768.1	0.003628
2777.74	0.003558
2787.39	0.003438
2797.03	0.003868
2806.68	0.003768
2816.32	0.003828
2825.97	0.004168
2835.61	0.004548
2845.26	0.005178
2854.9	0.005798
2864.55	0.008058
2874.19	0.011838
2883.84	0.013978
2893.48	0.013608
2903.12	0.014458
2912.77	0.017328
2922.41	0.018138
2932.06	0.019508
2941.7	0.024018
2951.35	0.026238
2960.99	0.034478
2970.64	0.051018
2980.28	0.052258
2989.93	0.038568
2999.57	0.021918
3009.22	0.013758
3018.86	0.009298
3028.51	0.006448
3038.15	0.004728
3047.8	0.004278
3057.44	0.003418
3067.09	0.003408
3076.73	0.003588
3086.38	0.003788
3096.02	0.003438
3105.67	0.003038
3115.31	0.002968
3124.95	0.003468
3134.6	0.003348
3144.24	0.004338
3153.89	0.003308
3163.53	0.002928
3173.18	0.002818
3182.82	0.002708
3192.47	0.002918
3202.11	0.003348
3211.76	0.003428
3221.4	0.002748
3231.05	0.002898
3240.69	0.002908
3250.34	0.002118
3259.98	0.002548
3269.63	0.001838
3279.27	0.002038
3288.92	0.002228
3298.56	0.001508
3308.21	0.002008
3317.85	0.002178
3327.49	0.0009254
3337.14	0.001628
3346.78	0.0014366
3356.43	0.0014362
3366.07	0.001488
3375.72	0.0010102
3385.36	0.0009608
3395.01	0.0008243
3404.65	0.0012495
3414.3	0.0014074
3423.94	0.00097
3433.59	0.0005663
3443.23	0.0009069
3452.88	0.0013465
3462.52	0.0010324
3472.17	0.001508
3481.81	0.0009114
3491.46	0.0013509
3501.1	0.001438
3510.75	0.0008581
3520.39	0.0007727
3530.04	0.0009225
3539.68	0.000273
3549.32	0.0011781
3558.97	0.0009882
3568.61	0.0009816
3578.26	0.0012872
3587.9	0.0005754
3597.55	0.0005411
3607.19	0.001262
3616.84	0.001143
3626.48	0.00052534
3636.13	0.0007212
3645.77	0.0007397
3655.42	0.0006026
3665.06	0.000106
3674.71	0.0006557
3684.35	0.0006273
3694	0.00047951
3703.64	2.7e-05
3713.29	0.000331
3722.93	0.0007626
3732.58	0.0008146
3742.22	0.00046166
3751.86	0.0008919
3761.51	0.0011077
3771.15	0.0010435
3780.8	0.0009098
3790.44	0.0003426
3800.09	0.00052607
3809.73	0.0006549
3819.38	0.0006323
3829.02	0.0004274
3838.67	0.0008304
3848.31	0.0009406
3857.96	0.0006351
3867.6	0.0006978
3877.25	0.0004875
3886.89	0.000907
3896.54	0.0008689
3906.18	0.0006042
3915.83	0.0007988
3925.47	0.000607
3935.12	0.0007654
3944.76	0.000306
3954.41	0.00044829
3964.05	0.0014102
3973.69	0.0010426
3983.34	0.0013576
3992.98	0.0010705
