Infrared Spectrum: Deet
Formula: C 12 H 17 N O
CAS: 134-62-3
State: gas
Instrument: HP-GC/MS/IRD
Origin: NIST Mass Spectrometry Data Center
1/CM	ABSORBANCE
550	0.0005412
562	2.64e-05
574	0.000264
586	0.0007524
598	0.0006072
610	0.0004554
622	0.0011088
634	0.00264
646	0.0010098
658	0.0003036
670	0.0003036
682	0.0010824
694	0.0017688
706	0.0031548
718	0.0026928
730	0.0030426
742	0.0047586
754	0.0046332
766	0.0043428
778	0.0054186
790	0.0087846
802	0.0048312
814	0.0029898
826	0.0065142
838	0.0021912
850	0.0006468
862	0.0005412
874	0.0007788
886	0.0012474
898	0.001155
910	0.0012408
922	0.000726
934	0.0006072
946	0.0007722
958	0.000495
970	0.0005478
982	0.0006996
994	0.0008712
1006	0.0013728
1018	0.001221
1030	0.0013002
1042	0.0020328
1054	0.0038412
1066	0.0069102
1078	0.0120714
1090	0.014949
1102	0.0094182
1114	0.0041382
1126	0.0021252
1138	0.0016368
1150	0.0024816
1162	0.005709
1174	0.0046398
1186	0.0024486
1198	0.003399
1210	0.0080388
1222	0.0113784
1234	0.0069498
1246	0.0039666
1258	0.0055374
1270	0.0124608
1282	0.0259116
1294	0.025344
1306	0.016368
1318	0.013959
1330	0.0076098
1342	0.007524
1354	0.0099462
1366	0.011451
1378	0.0169224
1390	0.0189156
1402	0.0227898
1414	0.0267234
1426	0.0214038
1438	0.0144474
1450	0.0119064
1462	0.0134046
1474	0.0126852
1486	0.008283
1498	0.00528
1510	0.003498
1522	0.0028578
1534	0.0024618
1546	0.0022374
1558	0.0024156
1570	0.0031878
1582	0.004686
1594	0.004983
1606	0.005346
1618	0.005412
1630	0.0069036
1642	0.012705
1654	0.0360162
1666	0.066
1678	0.032868
1690	0.0096162
1702	0.004455
1714	0.0027918
1726	0.001716
1738	0.0012012
1750	0.0010032
1762	0.0009306
1774	0.0009108
1786	0.0008844
1798	0.0007326
1810	0.0004884
1822	0.0003366
1834	0.0002904
1846	0.000396
1858	0.0004686
1870	0.000495
1882	0.0003828
1894	0.000198
1906	0.0002178
1918	0.0002508
1930	0.0004488
1942	0.0003894
1954	0.000132
1966	0.000132
1978	0.0001188
1990	0.0001122
2002	0.0001254
2014	8.58e-05
2026	5.28e-05
2038	0.0001056
2050	9.9e-05
2062	7.26e-05
2074	0.0001386
2086	0.0001386
2098	0.0001518
2110	0.0001188
2122	5.28e-05
2134	3.96e-05
2146	1.98e-05
2158	5.28e-05
2170	8.58e-05
2182	3.96e-05
2194	7.92e-05
2206	7.26e-05
2218	7.26e-05
2230	5.94e-05
2242	7.92e-05
2254	7.92e-05
2266	6.6e-05
2278	5.94e-05
2290	0.0001188
2302	0.000132
2314	0.0001188
2326	0.0001056
2338	0.0001122
2350	0.000132
2362	9.9e-05
2374	0.0001188
2386	0.000165
2398	0.0001518
2410	0.0001518
2422	0.0001452
2434	0.000132
2446	0.0001518
2458	0.0001254
2470	0.0001254
2482	0.0001188
2494	0.0001452
2506	0.0001056
2518	0.0001782
2530	0.0001254
2542	0.0001254
2554	6.6e-05
2566	6.6e-05
2578	7.92e-05
2590	6.6e-05
2602	5.94e-05
2614	7.26e-05
2626	8.58e-05
2638	9.9e-05
2650	0.0001122
2662	0.0001452
2674	0.000165
2686	0.000297
2698	0.000363
2710	0.0003564
2722	0.0004158
2734	0.0005544
2746	0.0006996
2758	0.000627
2770	0.000594
2782	0.0006798
2794	0.0008778
2806	0.001089
2818	0.0013794
2830	0.0017094
2842	0.0021846
2854	0.0031878
2866	0.0056364
2878	0.009504
2890	0.0107646
2902	0.0097944
2914	0.010197
2926	0.0135168
2938	0.018678
2950	0.0158796
2962	0.0123882
2974	0.0181764
2986	0.0182358
2998	0.0137412
3010	0.0078804
3022	0.0065208
3034	0.006897
3046	0.0064416
3058	0.0062832
3070	0.0051744
3082	0.0029502
3094	0.002277
3106	0.001782
3118	0.0010758
3130	0.0007392
3142	0.0006402
3154	0.0005808
3166	0.0005412
3178	0.000429
3190	0.0003102
3202	0.0001914
3214	0.0001848
3226	9.9e-05
3238	5.94e-05
3250	0.0001782
3262	0.0001914
3274	0.0002838
3286	0.0003168
3298	0.0004686
3310	0.000759
3322	0.0005808
3334	0.0003696
3346	0.0003036
3358	0.0002772
3370	0.0002376
3382	0.0001782
3394	0.000198
3406	0.0001452
3418	0.0001254
3430	0.0001452
3442	0.000132
3454	0.0001188
3466	0.0001848
3478	0.000231
3490	0.000198
3502	0.0001056
3514	7.92e-05
3526	2.64e-05
3538	0.0001254
3550	0.0001452
3562	0.0001386
3574	0.0002046
3586	0.0001848
3598	0.0001716
3610	0.0001056
3622	0.0001716
3634	0.0002112
3646	0.000132
3658	0.000165
3670	0.0002178
3682	0.0001452
3694	0.000198
3706	0.0002838
3718	0.000297
3730	0.0001188
3742	0.0002112
3754	0.000231
3766	0.000264
3778	0.0002376
3790	0.0002772
3802	0.000264
3814	0.0002838
3826	0.000264
3838	0.000264
