Infrared Spectrum: FLEXO PLASTICIZER 8N8
Formula: C28 H53 N O5
CAS: 134-67-8
State: LIQUID
Class: COBLENTZ
Instrument: Not specified, most likely a prism, grating, or hybrid spectrometer.
Sampling: TRANSMISSION
Path length: 0.0015 CM
Resolution: 4
Origin: WYANDOTTE CHEMICALS CORP., WYANDOTTE, MICHIGAN, USA
MICROMETERS	TRANSMITTANCE
2.016	1.015
2.05588	1.015
2.09576	1.015
2.13564	1.015
2.17552	1.001
2.2154	0.993
2.25528	0.973
2.29516	0.979
2.33504	0.989
2.37492	0.989
2.4148	0.994
2.45468	0.998
2.49456	1.005
2.53444	1.008
2.57432	1.006
2.6142	1.006
2.65408	1.008
2.69396	1.001
2.73384	0.998
2.77372	1
2.8136	0.984
2.85348	0.971
2.89336	0.951
2.93324	0.934
2.97312	0.964
3.013	0.966
3.05288	0.954
3.09276	0.931
3.13264	0.919
3.17252	0.896
3.2124	0.899
3.25228	0.86
3.29216	0.798
3.33204	0.455
3.37192	0.035
3.4118	0.05
3.45168	0.15
3.49156	0.127
3.53144	0.427
3.57132	0.747
3.6112	0.839
3.65108	0.864
3.69096	0.862
3.73084	0.906
3.77071	0.917
3.81059	0.938
3.85047	0.939
3.89035	0.941
3.93023	0.946
3.97011	0.954
4.00999	0.966
4.04987	0.961
4.08975	0.961
4.12963	0.961
4.16951	0.956
4.20939	0.943
4.24927	0.926
4.28915	0.943
4.32903	0.978
4.36891	1.005
4.40879	0.966
4.44867	0.961
4.48855	0.963
4.52843	0.964
4.56831	0.968
4.60819	0.968
4.64807	0.968
4.68795	0.966
4.72783	0.966
4.76771	0.954
4.80759	0.917
4.84747	0.936
4.88735	0.949
4.92723	0.953
4.96711	0.954
5.00699	0.959
5.04687	0.958
5.08675	0.958
5.12663	0.953
5.16651	0.951
5.20639	0.953
5.24627	0.949
5.28615	0.951
5.32603	0.951
5.36591	0.948
5.40579	0.934
5.44567	0.924
5.48555	0.917
5.52543	0.902
5.56531	0.871
5.60519	0.832
5.64507	0.775
5.68495	0.661
5.72483	0.309
5.76471	0.035
5.80459	0.165
5.84447	0.525
5.88435	0.603
5.92423	0.633
5.96411	0.582
6.00399	0.222
6.04387	0.051
6.08375	0.083
6.12363	0.363
6.16351	0.604
6.20339	0.715
6.24327	0.777
6.28315	0.802
6.32303	0.82
6.36291	0.82
6.40279	0.817
6.44267	0.797
6.48255	0.797
6.52243	0.782
6.56231	0.762
6.60219	0.733
6.64207	0.666
6.68195	0.547
6.72183	0.36
6.76171	0.202
6.80159	0.065
6.84147	0.088
6.88135	0.132
6.92123	0.167
6.96111	0.257
7.00099	0.278
7.04087	0.281
7.08075	0.375
7.12063	0.373
7.16051	0.234
7.20039	0.216
7.24027	0.194
7.28014	0.274
7.32002	0.318
7.3599	0.311
7.39978	0.308
7.43966	0.373
7.47954	0.462
7.51942	0.474
7.5593	0.48
7.59918	0.457
7.63906	0.4
7.67894	0.35
7.71882	0.314
7.7587	0.296
7.79858	0.266
7.83846	0.278
7.87834	0.229
7.91822	0.192
7.9581	0.212
7.99798	0.224
8.03786	0.264
8.07774	0.308
8.11762	0.257
8.1575	0.159
8.19738	0.135
8.23726	0.135
8.27714	0.139
8.31702	0.147
8.3569	0.175
8.39678	0.197
8.43666	0.113
8.47654	0.046
8.51642	0.03
8.5563	0.028
8.59618	0.033
8.63606	0.063
8.67594	0.085
8.71582	0.051
8.7557	0.046
8.79558	0.128
8.83546	0.232
8.87534	0.221
8.91522	0.169
8.9551	0.155
8.99498	0.167
9.03486	0.17
9.07474	0.167
9.11462	0.149
9.1545	0.201
9.19438	0.306
9.23426	0.324
9.27414	0.311
9.31402	0.338
9.3539	0.398
9.39378	0.44
9.43366	0.46
9.47354	0.477
9.51342	0.472
9.5533	0.433
9.59318	0.402
9.63306	0.396
9.67294	0.398
9.71282	0.428
9.7527	0.452
9.79258	0.479
9.83246	0.497
9.87234	0.492
9.91222	0.465
9.9521	0.443
9.99198	0.437
10.0319	0.46
10.0717	0.487
10.1116	0.539
10.1515	0.584
10.1914	0.609
10.2313	0.604
10.2711	0.604
10.311	0.603
10.3509	0.604
10.3908	0.596
10.4307	0.594
10.4705	0.594
10.5104	0.597
10.5503	0.603
10.5902	0.614
10.6301	0.631
10.6699	0.654
10.7098	0.68
10.7497	0.701
10.7896	0.723
10.8295	0.733
10.8693	0.728
10.9092	0.711
10.9491	0.711
10.989	0.718
11.0289	0.737
11.0687	0.742
11.1086	0.745
11.1485	0.748
11.1884	0.748
11.2283	0.752
11.2681	0.753
11.308	0.763
11.3479	0.772
11.3878	0.772
11.4277	0.773
11.4675	0.773
11.5074	0.775
11.5473	0.772
11.5872	0.772
11.6271	0.773
11.6669	0.773
11.7068	0.772
11.7467	0.77
11.7866	0.768
11.8265	0.765
11.8663	0.75
11.9062	0.733
11.9461	0.72
11.986	0.718
12.0259	0.715
12.0657	0.716
12.1056	0.725
12.1455	0.731
12.1854	0.735
12.2253	0.73
12.2651	0.716
12.305	0.685
12.3449	0.664
12.3848	0.644
12.4247	0.629
12.4645	0.629
12.5044	0.633
12.5443	0.636
12.5842	0.631
12.624	0.624
12.6639	0.621
12.7038	0.623
12.7437	0.644
12.7836	0.658
12.8234	0.67
12.8633	0.678
12.9032	0.683
12.9431	0.683
12.983	0.685
13.0228	0.685
13.0627	0.685
13.1026	0.686
13.1425	0.686
13.1824	0.68
13.2222	0.659
13.2621	0.633
13.302	0.614
13.3419	0.604
13.3818	0.606
13.4216	0.618
13.4615	0.641
13.5014	0.654
13.5413	0.661
13.5812	0.654
13.621	0.633
13.6609	0.619
13.7008	0.611
13.7407	0.614
13.7806	0.629
13.8204	0.673
13.8603	0.726
13.9002	0.775
13.9401	0.817
13.98	0.84
14.0198	0.864
14.0597	0.879
14.0996	0.886
14.1395	0.899
14.1794	0.902
14.2192	0.916
14.2591	0.916
14.299	0.919
14.3389	0.921
14.3788	0.926
14.4186	0.932
14.4585	0.938
14.4984	0.943
14.5383	0.944
14.5782	0.946
14.618	0.944
14.6579	0.944
14.6978	0.946
14.7377	0.938
14.7776	0.938
14.8174	0.938
14.8573	0.939
14.8972	0.941
14.9371	0.941
14.977	0.932
15.0168	0.922
15.0567	0.899
15.0966	0.887
15.1365	0.892
15.1764	0.904
15.2162	0.914
15.2561	0.919
15.296	0.914
15.3359	0.914
15.3758	0.917
15.4156	0.919
15.4555	0.917
15.4954	0.914
15.5353	0.911
15.5752	0.911
15.615	0.907
15.6549	0.906
15.6948	0.906
15.7347	0.904
15.7746	0.904
15.8144	0.902
15.8543	0.897
15.8942	0.892
15.9341	0.887
15.974	0.882
