Infrared Spectrum: Phenmetrazine
Formula: C 11 H 15 N O
CAS: 134-49-6
State: gas
Instrument: HP-GC/MS/IRD
Origin: NIST Mass Spectrometry Data Center
1/CM	ABSORBANCE
550	0.0001695
562	8.28e-05
574	0.0002301
586	0.0004212
598	0.0001422
610	7.47e-05
622	9.15e-05
634	0.0004587
646	0.0004848
658	0.0002187
670	0.0003369
682	0.000564
694	0.0016236
706	0.0015609
718	0.0013035
730	0.0018768
742	0.0021135
754	0.0016362
766	0.0006042
778	0.0002253
790	0.0001113
802	8.97e-05
814	3.9e-05
826	5.31e-05
838	0.0001068
850	0.000171
862	0.000156
874	0.0001383
886	0.0002796
898	0.0002733
910	0.0002574
922	0.0001659
934	0.0001272
946	0.0003087
958	0.0004323
970	0.0004569
982	0.0004305
994	0.0007614
1006	0.000486
1018	0.0003252
1030	0.0005316
1042	0.0002874
1054	0.000387
1066	0.0006753
1078	0.0017457
1090	0.0029511
1102	0.0028746
1114	0.002814
1126	0.0026085
1138	0.0012669
1150	0.0007902
1162	0.0007071
1174	0.0003534
1186	0.0002139
1198	0.0001557
1210	0.0001965
1222	0.0002304
1234	0.0004515
1246	0.0005598
1258	0.0009711
1270	0.0006708
1282	0.0003177
1294	0.0002394
1306	0.0003276
1318	0.000804
1330	0.0009528
1342	0.0005736
1354	0.0004491
1366	0.0004227
1378	0.0006162
1390	0.0003957
1402	0.0001386
1414	0.0001404
1426	0.0002217
1438	0.0005145
1450	0.0008079
1462	0.0005733
1474	0.0002754
1486	0.0002598
1498	0.000249
1510	9.93e-05
1522	2.88e-05
1534	4.35e-05
1546	3.9e-05
1558	1.83e-05
1570	4.23e-05
1582	8.13e-05
1594	0.0001284
1606	0.0001539
1618	6.6e-05
1630	4.05e-05
1642	5.1e-05
1654	5.4e-05
1666	5.28e-05
1678	4.41e-05
1690	3.51e-05
1702	3.03e-05
1714	3.15e-05
1726	4.32e-05
1738	3.48e-05
1750	4.5e-05
1762	2.82e-05
1774	5.13e-05
1786	5.88e-05
1798	0.0001179
1810	7.23e-05
1822	5.61e-05
1834	3.99e-05
1846	5.49e-05
1858	6.81e-05
1870	8.46e-05
1882	7.59e-05
1894	7.11e-05
1906	5.49e-05
1918	3.45e-05
1930	7.41e-05
1942	0.0001041
1954	0.0001044
1966	6.78e-05
1978	6.9e-05
1990	5.94e-05
2002	5.46e-05
2014	5.4e-05
2026	4.74e-05
2038	3.78e-05
2050	2.43e-05
2062	4.65e-05
2074	4.68e-05
2086	4.59e-05
2098	4.89e-05
2110	3.21e-05
2122	3.78e-05
2134	2.28e-05
2146	2.91e-05
2158	2.85e-05
2170	3.96e-05
2182	4.65e-05
2194	2.46e-05
2206	4.44e-05
2218	4.77e-05
2230	5.28e-05
2242	4.98e-05
2254	4.95e-05
2266	5.07e-05
2278	4.5e-05
2290	4.59e-05
2302	6.78e-05
2314	4.8e-05
2326	3.51e-05
2338	5.67e-05
2350	4.77e-05
2362	4.71e-05
2374	3.81e-05
2386	2.31e-05
2398	3.78e-05
2410	5.55e-05
2422	5.76e-05
2434	4.92e-05
2446	2.55e-05
2458	5.46e-05
2470	5.04e-05
2482	6.54e-05
2494	6.18e-05
2506	6.12e-05
2518	5.61e-05
2530	7.26e-05
2542	4.92e-05
2554	9.03e-05
2566	9.42e-05
2578	0.0001011
2590	5.97e-05
2602	8.67e-05
2614	0.0001062
2626	9.66e-05
2638	8.7e-05
2650	9.36e-05
2662	0.0001302
2674	0.000156
2686	0.0001944
2698	0.0002304
2710	0.0002289
2722	0.0002436
2734	0.0002571
2746	0.0002613
2758	0.000228
2770	0.0002523
2782	0.0003579
2794	0.0004959
2806	0.0007866
2818	0.001251
2830	0.0020292
2842	0.002133
2854	0.001965
2866	0.0019899
2878	0.0012126
2890	0.0010158
2902	0.0011967
2914	0.0013551
2926	0.0013401
2938	0.0018282
2950	0.003
2962	0.002715
2974	0.002007
2986	0.0010443
2998	0.0006303
3010	0.0003042
3022	0.0005022
3034	0.0009441
3046	0.0008319
3058	0.0006957
3070	0.0010776
3082	0.0007794
3094	0.000537
3106	0.0003147
3118	0.0002016
3130	0.0001161
3142	9.93e-05
3154	6.57e-05
3166	9.84e-05
3178	7.62e-05
3190	5.7e-05
3202	7.41e-05
3214	8.58e-05
3226	7.35e-05
3238	6.81e-05
3250	5.79e-05
3262	5.79e-05
3274	5.91e-05
3286	5.04e-05
3298	8.31e-05
3310	5.91e-05
3322	4.23e-05
3334	6.24e-05
3346	4.35e-05
3358	5.31e-05
3370	5.25e-05
3382	7.59e-05
3394	6.57e-05
3406	6e-05
3418	6.27e-05
3430	4.23e-05
3442	4.08e-05
3454	8.16e-05
3466	8.58e-05
3478	4.56e-05
3490	5.28e-05
3502	8.13e-05
3514	7.68e-05
3526	8.37e-05
3538	7.8e-05
3550	7.41e-05
3562	4.74e-05
3574	6.39e-05
3586	8.37e-05
3598	5.91e-05
3610	8.43e-05
3622	4.89e-05
3634	5.31e-05
3646	7.5e-05
3658	0.0001119
3670	6.06e-05
3682	7.14e-05
3694	8.58e-05
3706	9.69e-05
3718	5.34e-05
3730	6.63e-05
3742	8.97e-05
3754	7.17e-05
3766	9.36e-05
3778	6.63e-05
3790	7.53e-05
3802	7.56e-05
3814	7.35e-05
3826	6.54e-05
3838	0.0001107
