Infrared Spectrum: 8-AZAGUANINE
Formula: C4 H4 N6 O
CAS: 134-58-7
State: SOLID (1 mg / 650 mg KBr DISC)
Class: COBLENTZ III
Instrument: PERKIN-ELMER 21 (GRATING)
Instrument parameters: FILTER CHANGE AT ABOUT 1090 CM^-^1.
Sampling: TRANSMISSION
Resolution: 2
Origin: SOUTHERN RESEARCH INSTITUTE
1/CM	TRANSMITTANCE
604.019	0.994
613.268	0.9889
622.516	0.9852
631.765	0.9736
641.013	0.9658
650.262	0.967
659.51	0.973
668.759	0.9601
678.008	0.9228
687.256	0.794
696.505	0.2859
705.753	0.7756
715.002	0.744
724.25	0.8928
733.499	0.7684
742.747	0.9225
751.996	0.922
761.245	0.917
770.493	0.909
779.742	0.8872
788.99	0.4906
798.239	0.8835
807.487	0.881
816.736	0.8645
825.985	0.8416
835.233	0.7498
844.482	0.4677
853.73	0.6873
862.979	0.8432
872.227	0.851
881.476	0.8417
890.725	0.814
899.973	0.7885
909.222	0.7462
918.47	0.6768
927.719	0.624
936.967	0.6521
946.216	0.7177
955.465	0.8043
964.713	0.8372
973.962	0.845
983.21	0.849
992.459	0.8471
1001.71	0.8534
1010.96	0.855
1020.2	0.847
1029.45	0.8428
1038.7	0.8067
1047.95	0.7699
1057.2	0.8243
1066.45	0.833
1075.7	0.8219
1084.94	0.812
1094.19	0.7889
1103.44	0.8001
1112.69	0.7992
1121.94	0.7544
1131.19	0.6668
1140.44	0.5598
1149.68	0.6657
1158.93	0.7012
1168.18	0.6288
1177.43	0.805
1186.68	0.8289
1195.93	0.8378
1205.18	0.8417
1214.42	0.847
1223.67	0.8465
1232.92	0.8494
1242.17	0.849
1251.42	0.8428
1260.67	0.8266
1269.92	0.7581
1279.16	0.4377
1288.41	0.5052
1297.66	0.794
1306.91	0.8415
1316.16	0.854
1325.41	0.8465
1334.66	0.8293
1343.9	0.788
1353.15	0.7155
1362.4	0.3967
1371.65	0.6689
1380.9	0.7126
1390.15	0.4443
1399.4	0.2279
1408.64	0.4546
1417.89	0.3171
1427.14	0.2681
1436.39	0.2447
1445.64	0.3324
1454.89	0.405
1464.14	0.3251
1473.38	0.4339
1482.63	0.6137
1491.88	0.6894
1501.13	0.6817
1510.38	0.6213
1519.63	0.4687
1528.88	0.397
1538.12	0.5092
1547.37	0.2156
1556.62	0.4528
1565.87	0.7013
1575.12	0.7133
1584.37	0.6764
1593.62	0.6075
1602.86	0.4451
1612.11	0.1726
1621.36	0.0597
1630.61	0.1189
1639.86	0.1209
1649.11	0.1701
1658.36	0.1224
1667.6	0.0408
1676.85	0.02
1686.1	0.0541
1695.35	0.1391
1704.6	0.216
1713.85	0.2952
1723.1	0.4873
1732.34	0.5733
1741.59	0.6438
1750.84	0.7031
1760.09	0.723
1769.34	0.7192
1778.59	0.7153
1787.84	0.7084
1797.08	0.6969
1806.33	0.6861
1815.58	0.6443
1824.83	0.621
1834.08	0.61
1843.33	0.6201
1852.58	0.6329
1861.82	0.645
1871.07	0.6535
1880.32	0.667
1889.57	0.673
1898.82	0.6855
1908.07	0.682
1917.32	0.6913
1926.56	0.7044
1935.81	0.7188
1945.06	0.723
1954.31	0.732
1963.56	0.734
1972.81	0.745
1982.06	0.7456
1991.3	0.754
2000.55	0.759
2009.8	0.7614
2019.05	0.767
2028.3	0.767
2037.55	0.767
2046.8	0.766
2056.04	0.765
2065.29	0.765
2074.54	0.7616
2083.79	0.757
2093.04	0.753
2102.29	0.754
2111.54	0.755
2120.78	0.755
2130.03	0.7502
2139.28	0.7336
2148.53	0.723
2157.78	0.717
2167.03	0.717
2176.28	0.713
2185.52	0.708
2194.77	0.704
2204.02	0.7064
2213.27	0.708
2222.52	0.7
2231.77	0.695
2241.02	0.692
2250.26	0.686
2259.51	0.6736
2268.76	0.669
2278.01	0.6442
2287.26	0.632
2296.51	0.6183
2305.76	0.6026
2315	0.597
2324.25	0.5946
2333.5	0.594
2342.75	0.5906
2352	0.5842
2361.25	0.5752
2370.5	0.5672
2379.74	0.5602
2388.99	0.5402
2398.24	0.5236
2407.49	0.5136
2416.74	0.5006
2425.99	0.489
2435.24	0.4788
2444.48	0.4556
2453.73	0.4452
2462.98	0.4362
2472.23	0.4266
2481.48	0.4176
2490.73	0.409
2499.98	0.4016
2509.22	0.3938
2518.47	0.3818
2527.72	0.3603
2536.97	0.3536
2546.22	0.3482
2555.47	0.3416
2564.72	0.335
2573.96	0.337
2583.21	0.3384
2592.46	0.342
2601.71	0.3438
2610.96	0.3456
2620.21	0.3426
2629.46	0.339
2638.7	0.338
2647.95	0.338
2657.2	0.337
2666.45	0.3424
2675.7	0.346
2684.95	0.346
2694.2	0.342
2703.44	0.339
2712.69	0.339
2721.94	0.339
2731.19	0.338
2740.44	0.3376
2749.69	0.328
2758.93	0.3062
2768.18	0.3034
2777.43	0.308
2786.68	0.3148
2795.93	0.3188
2805.18	0.3254
2814.43	0.326
2823.67	0.3166
2832.92	0.311
2842.17	0.3062
2851.42	0.3044
2860.67	0.3124
2869.92	0.3188
2879.17	0.3254
2888.41	0.3294
2897.66	0.3454
2906.91	0.351
2916.16	0.3466
2925.41	0.341
2934.66	0.3384
2943.91	0.3414
2953.15	0.3386
2962.4	0.3286
2971.65	0.3192
2980.9	0.3152
2990.15	0.313
2999.4	0.3086
3008.65	0.3022
3017.89	0.3098
3027.14	0.2942
3036.39	0.2892
3045.64	0.278
3054.89	0.2648
3064.14	0.2522
3073.39	0.2366
3082.63	0.229
3091.88	0.228
3101.13	0.234
3110.38	0.2388
3119.63	0.2551
3128.88	0.2591
3138.13	0.2303
3147.37	0.2044
3156.62	0.1898
3165.87	0.1746
3175.12	0.1536
3184.37	0.1282
3193.62	0.106
3202.87	0.114
3212.11	0.1232
3221.36	0.1597
3230.61	0.2347
3239.86	0.2879
3249.11	0.3293
3258.36	0.3659
3267.61	0.3907
3276.85	0.4108
3286.1	0.412
3295.35	0.4016
3304.6	0.3814
3313.85	0.3612
3323.1	0.3358
3332.35	0.3126
3341.59	0.3022
3350.84	0.3034
3360.09	0.3222
3369.34	0.3515
3378.59	0.4217
3387.84	0.446
3397.09	0.4334
3406.33	0.3988
3415.58	0.3309
3424.83	0.1931
3434.08	0.099
3443.33	0.1313
3452.58	0.2387
3461.83	0.4082
3471.07	0.4651
3480.32	0.5037
3489.57	0.5345
3498.82	0.5567
3508.07	0.5774
3517.32	0.5944
3526.57	0.6144
3535.81	0.6217
3545.06	0.6438
3554.31	0.6588
3563.56	0.6717
3572.81	0.679
3582.06	0.6901
3591.31	0.7142
3600.55	0.7337
3609.8	0.7484
3619.05	0.7534
3628.3	0.7618
3637.55	0.7892
3646.8	0.804
3656.05	0.8098
3665.29	0.8174
3674.54	0.8254
3683.79	0.8324
3693.04	0.8384
3702.29	0.841
3711.54	0.842
3720.79	0.843
3730.03	0.8494
3739.28	0.851
3748.53	0.849
3757.78	0.8478
3767.03	0.8594
3776.28	0.8664
3785.53	0.867
3794.77	0.859
3804.02	0.858
3813.27	0.856
3822.52	0.856
3831.77	0.858
3841.02	0.8572
3850.27	0.855
3859.51	0.856
3868.76	0.856
3878.01	0.858
3887.26	0.859
3896.51	0.858
3905.76	0.858
3915.01	0.856
3924.25	0.8546
3933.5	0.8506
3942.75	0.849
3952	0.8504
3961.25	0.855
3970.5	0.855
3979.75	0.8536
3988.99	0.847
3998.24	0.8386
4007.49	0.8296
4016.74	0.825
