Infrared Spectrum: TENUATE
Formula: C13 H20 Cl N O
CAS: 134-80-5
State: SOLID (1.2 mg / 200 mg KCl DISC)
Melting point: 168 C
Class: COBLENTZ III
Instrument: PERKIN-ELMER 21 (GRATING)
Instrument parameters: FILTER AT ABOUT 10 MICRONS
Sampling: TRANSMISSION
Resolution: 2
1/CM	TRANSMITTANCE
4000	0.4812
3991	0.4814
3982	0.4818
3973	0.4821
3964	0.4824
3955	0.4828
3946	0.4835
3937	0.4841
3928	0.4847
3919	0.4853
3910	0.4859
3901	0.4867
3892	0.4878
3883	0.4888
3874	0.4899
3865	0.491
3856	0.4921
3847	0.4933
3838	0.4944
3829	0.4955
3820	0.4967
3811	0.4978
3802	0.499
3793	0.5001
3784	0.5012
3775	0.5026
3766	0.5038
3757	0.5051
3748	0.5062
3739	0.5076
3730	0.5088
3721	0.5101
3712	0.5118
3703	0.5135
3694	0.5152
3685	0.5169
3676	0.5185
3667	0.5202
3658	0.5218
3649	0.5235
3640	0.5253
3631	0.5272
3622	0.5292
3613	0.5309
3604	0.5324
3595	0.5331
3586	0.5336
3577	0.5337
3568	0.5339
3559	0.5351
3550	0.5368
3541	0.5384
3532	0.5399
3523	0.5414
3514	0.543
3505	0.5446
3496	0.546
3487	0.5475
3478	0.5488
3469	0.5493
3460	0.5498
3451	0.5499
3442	0.55
3433	0.5502
3424	0.5503
3415	0.5504
3406	0.5504
3397	0.5504
3388	0.5504
3379	0.5504
3370	0.5504
3361	0.5504
3352	0.5503
3343	0.5504
3334	0.5505
3325	0.5506
3316	0.5508
3307	0.5529
3298	0.5562
3289	0.5603
3280	0.5644
3271	0.5673
3262	0.5691
3253	0.5703
3244	0.5709
3235	0.5716
3226	0.5722
3217	0.5732
3208	0.5742
3199	0.5754
3190	0.5767
3181	0.5779
3172	0.5787
3163	0.5792
3154	0.5797
3145	0.5801
3136	0.5806
3127	0.5809
3118	0.581
3109	0.5809
3100	0.5808
3091	0.58
3082	0.5789
3073	0.576
3064	0.5704
3055	0.5636
3046	0.5535
3037	0.5433
3028	0.5383
3019	0.5366
3010	0.5359
3001	0.5349
2992	0.5323
2983	0.5014
2974	0.4277
2965	0.3788
2956	0.3836
2947	0.39
2938	0.3921
2929	0.3739
2920	0.3553
2911	0.3459
2902	0.3423
2893	0.3432
2884	0.3542
2875	0.3686
2866	0.3789
2857	0.3884
2848	0.3974
2839	0.4064
2830	0.415
2821	0.418
2812	0.4185
2803	0.4187
2794	0.4174
2785	0.416
2776	0.4134
2767	0.4098
2758	0.4057
2749	0.4024
2740	0.4004
2731	0.399
2722	0.398
2713	0.3968
2704	0.3946
2695	0.3893
2686	0.3809
2677	0.3737
2668	0.3668
2659	0.3584
2650	0.3454
2641	0.3327
2632	0.3162
2623	0.2938
2614	0.2674
2605	0.2481
2596	0.2318
2587	0.2163
2578	0.2087
2569	0.2068
2560	0.2075
2551	0.2133
2542	0.2208
2533	0.2323
2524	0.2459
2515	0.2629
2506	0.2787
2497	0.2901
2488	0.2931
2479	0.2954
2470	0.2978
2461	0.3003
2452	0.3027
2443	0.3049
2434	0.3078
2425	0.3134
2416	0.328
2407	0.3566
2398	0.3843
2389	0.406
2380	0.4233
2371	0.434
2362	0.4365
2353	0.4386
2344	0.4423
2335	0.4464
2326	0.4525
2317	0.4624
2308	0.4827
2299	0.5135
2290	0.5348
2281	0.5506
2272	0.5612
2263	0.5693
2254	0.5767
2245	0.5838
2236	0.5908
2227	0.5977
2218	0.6041
2209	0.6097
2200	0.6153
2191	0.6208
2182	0.6257
2173	0.6306
2164	0.6356
2155	0.6403
2146	0.6448
2137	0.6492
2128	0.6533
2119	0.6574
2110	0.6612
2101	0.6649
2092	0.6684
2083	0.6719
2074	0.6754
2065	0.6789
2056	0.6825
2047	0.6851
2038	0.6871
2029	0.6881
2020	0.6887
2011	0.6881
2002	0.6876
1993	0.6872
1984	0.6878
1975	0.6904
1966	0.6984
1957	0.7042
1948	0.7041
1939	0.7037
1930	0.7046
1921	0.7093
1912	0.7171
1903	0.7258
1894	0.7305
1885	0.7315
1876	0.7348
1867	0.7405
1858	0.7411
1849	0.7354
1840	0.7308
1831	0.7328
1822	0.7426
1813	0.7526
1804	0.7601
1795	0.7595
1786	0.7636
1777	0.7765
1768	0.7869
1759	0.7939
1750	0.7971
1741	0.8018
1732	0.808
1723	0.8111
1714	0.8025
1705	0.7007
1696	0.2897
1687	0.0922
1678	0.3434
1669	0.4758
1660	0.5584
1651	0.5968
1642	0.6288
1633	0.6643
1624	0.6926
1615	0.7118
1606	0.7242
1597	0.35
1588	0.5021
1579	0.5228
1570	0.5806
1561	0.6398
1552	0.6921
1543	0.7091
1534	0.7289
1525	0.7404
1516	0.7465
1507	0.7474
1498	0.7374
1489	0.7186
1480	0.6751
1471	0.3924
1462	0.3249
1453	0.3316
1444	0.2226
1435	0.4109
1426	0.3784
1417	0.4855
1408	0.3982
1399	0.3514
1390	0.2915
1381	0.4026
1372	0.4206
1363	0.5014
1354	0.5669
1345	0.6234
1336	0.4635
1327	0.5793
1318	0.623
1309	0.6461
1300	0.5325
1291	0.3
1282	0.3238
1273	0.4086
1264	0.6155
1255	0.673
1246	0.6358
1237	0.3873
1228	0.1358
1219	0.3203
1210	0.5043
1201	0.5904
1192	0.6283
1183	0.608
1174	0.5691
1165	0.6792
1156	0.705
1147	0.6747
1138	0.6535
1129	0.3282
1120	0.4508
1111	0.3776
1102	0.5607
1093	0.6401
1084	0.5309
1075	0.5453
1066	0.6283
1057	0.4927
1048	0.6418
1039	0.5299
1030	0.5678
1021	0.5045
1012	0.3723
1003	0.5302
994	0.6561
985	0.6536
976	0.2601
967	0.4652
958	0.6086
949	0.6041
940	0.6618
931	0.7101
922	0.7355
913	0.741
904	0.6376
895	0.6899
886	0.7441
877	0.7757
868	0.7838
859	0.7969
850	0.8034
841	0.8026
832	0.7045
823	0.4672
814	0.7246
805	0.6954
796	0.5829
787	0.6803
778	0.5149
769	0.6525
760	0.4927
751	0.749
742	0.7901
733	0.8034
724	0.7787
715	0.6104
706	0.0748
697	0.5172
688	0.5716
679	0.7196
670	0.731
