Infrared Spectrum: 3,8-DIMETHYL-5-Alpha-HYDROXY-Delta^9-OCTA HYDROAZULENE ACETATE
Formula: C17 H28 O2
CAS: 134-28-1
State: LIQUID
Class: COBLENTZ
Instrument: Not specified, most likely a prism, grating, or hybrid spectrometer.
Sampling: TRANSMISSION
Path length: 0.0025 CM
Resolution: 4
Origin: INFRACORD
MICROMETERS	TRANSMITTANCE
2.524	0.933
2.55938	0.934
2.59475	0.938
2.63013	0.94
2.66551	0.94
2.70089	0.939
2.73626	0.934
2.77164	0.922
2.80702	0.901
2.8424	0.89
2.87777	0.877
2.91315	0.875
2.94853	0.877
2.9839	0.885
3.01928	0.89
3.05466	0.893
3.09004	0.894
3.12541	0.894
3.16079	0.898
3.19617	0.901
3.23155	0.889
3.26692	0.859
3.3023	0.738
3.33768	0.47
3.37306	0.213
3.40843	0.113
3.44381	0.187
3.47919	0.29
3.51456	0.4
3.54994	0.716
3.58532	0.863
3.6207	0.888
3.65607	0.89
3.69145	0.892
3.72683	0.893
3.76221	0.896
3.79758	0.904
3.83296	0.906
3.86834	0.913
3.90371	0.917
3.93909	0.918
3.97447	0.919
4.00985	0.919
4.04522	0.919
4.0806	0.92
4.11598	0.922
4.15136	0.928
4.18673	0.932
4.22211	0.933
4.25749	0.933
4.29287	0.936
4.32824	0.937
4.36362	0.936
4.399	0.936
4.43437	0.936
4.46975	0.938
4.50513	0.939
4.54051	0.941
4.57588	0.939
4.61126	0.939
4.64664	0.94
4.68202	0.941
4.71739	0.943
4.75277	0.945
4.78815	0.947
4.82352	0.947
4.8589	0.947
4.89428	0.95
4.92966	0.95
4.96503	0.949
5.00041	0.95
5.03579	0.951
5.07117	0.952
5.10654	0.953
5.14192	0.954
5.1773	0.953
5.21268	0.954
5.24805	0.953
5.28343	0.952
5.31881	0.953
5.35418	0.953
5.38956	0.953
5.42494	0.952
5.46032	0.952
5.49569	0.947
5.53107	0.941
5.56645	0.933
5.60183	0.914
5.6372	0.886
5.67258	0.835
5.70796	0.725
5.74333	0.49
5.77871	0.189
5.81409	0.05
5.84947	0.374
5.88484	0.704
5.92022	0.795
5.9556	0.838
5.99098	0.872
6.02635	0.89
6.06173	0.89
6.09711	0.89
6.13249	0.869
6.16786	0.892
6.20324	0.904
6.23862	0.913
6.27399	0.918
6.30937	0.928
6.34475	0.934
6.38013	0.936
6.4155	0.938
6.45088	0.939
6.48626	0.94
6.52164	0.94
6.55701	0.94
6.59239	0.94
6.62777	0.94
6.66314	0.939
6.69852	0.928
6.7339	0.898
6.76928	0.831
6.80465	0.718
6.84003	0.574
6.87541	0.501
6.91079	0.464
6.94616	0.469
6.98154	0.481
7.01692	0.574
7.0523	0.7
7.08767	0.773
7.12305	0.805
7.15843	0.815
7.1938	0.798
7.22918	0.579
7.26456	0.419
7.29994	0.34
7.33531	0.213
7.37069	0.201
7.40607	0.627
7.44145	0.773
7.47682	0.811
7.5122	0.818
7.54758	0.818
7.58295	0.813
7.61833	0.798
7.65371	0.795
7.68909	0.79
7.72446	0.783
7.75984	0.758
7.79522	0.714
7.8306	0.662
7.86597	0.558
7.90135	0.386
7.93673	0.222
7.9721	0.088
8.00748	0.036
8.04286	0.039
8.07824	0.158
8.11361	0.289
8.14899	0.355
8.18437	0.415
8.21975	0.456
8.25512	0.483
8.2905	0.559
8.32588	0.604
8.36126	0.648
8.39663	0.677
8.43201	0.68
8.46739	0.622
8.50276	0.567
8.53814	0.568
8.57352	0.577
8.6089	0.578
8.64427	0.61
8.67965	0.622
8.71503	0.62
8.75041	0.568
8.78578	0.456
8.82116	0.341
8.85654	0.279
8.89191	0.283
8.92729	0.392
8.96267	0.492
8.99805	0.567
9.03342	0.607
9.0688	0.63
9.10418	0.656
9.13956	0.69
9.17493	0.735
9.21031	0.785
9.24569	0.802
9.28107	0.804
9.31644	0.804
9.35182	0.804
9.3872	0.804
9.42257	0.804
9.45795	0.799
9.49333	0.784
9.52871	0.757
9.56408	0.726
9.59946	0.706
9.63484	0.696
9.67022	0.693
9.70559	0.684
9.74097	0.633
9.77635	0.546
9.81172	0.449
9.8471	0.409
9.88248	0.446
9.91786	0.561
9.95323	0.627
9.98861	0.72
10.024	0.764
10.0594	0.786
10.0947	0.803
10.1301	0.817
10.1655	0.836
10.2009	0.848
10.2363	0.853
10.2716	0.853
10.307	0.841
10.3424	0.836
10.3778	0.838
10.4131	0.845
10.4485	0.847
10.4839	0.844
10.5193	0.809
10.5546	0.763
10.59	0.733
10.6254	0.72
10.6608	0.707
10.6962	0.707
10.7315	0.714
10.7669	0.731
10.8023	0.747
10.8377	0.757
10.873	0.785
10.9084	0.822
10.9438	0.845
10.9792	0.866
11.0146	0.876
11.0499	0.881
11.0853	0.882
11.1207	0.882
11.1561	0.868
11.1914	0.83
11.2268	0.787
11.2622	0.759
11.2976	0.758
11.3329	0.791
11.3683	0.834
11.4037	0.851
11.4391	0.859
11.4745	0.874
11.5098	0.874
11.5452	0.875
11.5806	0.875
11.616	0.875
11.6513	0.875
11.6867	0.879
11.7221	0.889
11.7575	0.9
11.7929	0.915
11.8282	0.922
11.8636	0.928
11.899	0.932
11.9344	0.933
11.9697	0.934
12.0051	0.932
12.0405	0.921
12.0759	0.901
12.1112	0.888
12.1466	0.877
12.182	0.857
12.2174	0.841
12.2528	0.837
12.2881	0.836
12.3235	0.836
12.3589	0.838
12.3943	0.847
12.4296	0.861
12.465	0.867
12.5004	0.868
12.5358	0.868
12.5712	0.868
12.6065	0.873
12.6419	0.885
12.6773	0.89
12.7127	0.9
12.748	0.909
12.7834	0.912
12.8188	0.915
12.8542	0.917
12.8896	0.917
12.9249	0.917
12.9603	0.913
12.9957	0.901
13.0311	0.881
13.0664	0.867
13.1018	0.863
13.1372	0.862
13.1726	0.868
13.2079	0.881
13.2433	0.893
13.2787	0.906
13.3141	0.909
13.3495	0.915
13.3848	0.918
13.4202	0.918
13.4556	0.918
13.491	0.918
13.5263	0.918
13.5617	0.918
13.5971	0.918
13.6325	0.918
13.6679	0.918
13.7032	0.918
13.7386	0.917
13.774	0.917
13.8094	0.912
13.8447	0.908
13.8801	0.905
13.9155	0.899
13.9509	0.892
13.9862	0.888
14.0216	0.885
14.057	0.883
14.0924	0.879
14.1278	0.879
14.1631	0.876
14.1985	0.874
14.2339	0.87
14.2693	0.869
14.3046	0.869
14.34	0.863
14.3754	0.857
14.4108	0.853
14.4462	0.847
14.4815	0.841
14.5169	0.838
14.5523	0.836
14.5877	0.834
14.623	0.832
14.6584	0.829
14.6938	0.817
14.7292	0.811
14.7645	0.806
14.7999	0.8
14.8353	0.793
14.8707	0.781
14.9061	0.779
14.9414	0.779
14.9768	0.763
