Infrared Spectrum: 4-METHYLBENZOPHENONE
Formula: C14 H12 O
CAS: 134-84-9
State: SOLUTION (10% CCl4 FOR 5000-1330, 10% CS2 FOR 1330-625 CM^-^1)
Class: COBLENTZ
Instrument: Not specified, most likely a prism, grating, or hybrid spectrometer.
Sampling: TRANSMISSION
Path length: 0.0123 CM, 0.0115 CM
Resolution: 4
Origin: DOW CHEMICAL COMPANY
MICROMETERS	TRANSMITTANCE
2.034	0.892
2.07518	0.899
2.11635	0.88
2.15753	0.889
2.1987	0.889
2.23988	0.882
2.28106	0.882
2.32223	0.885
2.36341	0.885
2.40459	0.884
2.44576	0.875
2.48694	0.897
2.52811	0.89
2.56929	0.902
2.61047	0.904
2.65164	0.901
2.69282	0.901
2.73399	0.899
2.77517	0.885
2.81635	0.889
2.85752	0.884
2.8987	0.88
2.93987	0.868
2.98105	0.851
3.02223	0.848
3.0634	0.863
3.10458	0.853
3.14576	0.853
3.18693	0.809
3.22811	0.701
3.26928	0.614
3.31046	0.659
3.35164	0.742
3.39281	0.732
3.43399	0.771
3.47516	0.79
3.51634	0.858
3.55752	0.88
3.59869	0.879
3.63987	0.872
3.68104	0.894
3.72222	0.897
3.7634	0.894
3.80457	0.884
3.84575	0.877
3.88693	0.89
3.9281	0.902
3.96928	0.901
4.01045	0.904
4.05163	0.897
4.09281	0.879
4.13398	0.894
4.17516	0.902
4.21633	0.908
4.25751	0.89
4.29869	0.906
4.33986	0.897
4.38104	0.904
4.42221	0.909
4.46339	0.901
4.50457	0.906
4.54574	0.908
4.58692	0.906
4.6281	0.911
4.66927	0.906
4.71045	0.913
4.75162	0.914
4.7928	0.908
4.83398	0.901
4.87515	0.918
4.91633	0.908
4.9575	0.909
4.99868	0.904
5.03986	0.885
5.08103	0.858
5.12221	0.873
5.16338	0.865
5.20456	0.838
5.24574	0.87
5.28691	0.887
5.32809	0.894
5.36927	0.904
5.41044	0.899
5.45162	0.882
5.49279	0.843
5.53397	0.858
5.57515	0.868
5.61632	0.862
5.6575	0.879
5.69867	0.862
5.73985	0.855
5.78103	0.839
5.8222	0.81
5.86338	0.787
5.90455	0.749
5.94573	0.582
5.98691	0.228
6.02808	0.03
6.06926	0.328
6.11044	0.62
6.15161	0.521
6.19279	0.333
6.23396	0.153
6.27514	0.633
6.31632	0.599
6.35749	0.633
6.39867	0.713
6.43984	0.771
6.48102	0.797
6.5222	0.809
6.56337	0.812
6.60455	0.822
6.64572	0.824
6.6869	0.817
6.72808	0.809
6.76925	0.783
6.81043	0.744
6.85161	0.579
6.89278	0.403
6.93396	0.599
6.97513	0.734
7.01631	0.729
7.05749	0.647
7.09866	0.608
7.13984	0.722
7.18101	0.783
7.22219	0.766
7.26337	0.761
7.30454	0.802
7.34572	0.809
7.38689	0.822
7.42807	0.812
7.46925	0.766
7.51042	0.63
7.5516	0.357
7.59278	0.131
7.63395	0.252
7.67513	0.306
7.7163	0.236
7.75748	0.199
7.79866	0.112
7.83983	0.047
7.88101	0.183
7.92218	0.453
7.96336	0.499
8.00454	0.488
8.04571	0.553
8.08689	0.729
8.12807	0.773
8.16924	0.78
8.21042	0.722
8.25159	0.712
8.29277	0.744
8.33395	0.763
8.37512	0.749
8.4163	0.579
8.45747	0.39
8.49865	0.289
8.53983	0.647
8.581	0.708
8.62218	0.696
8.66335	0.62
8.70453	0.504
8.74571	0.681
8.78688	0.744
8.82806	0.759
8.86924	0.763
8.91041	0.749
8.95159	0.674
8.99276	0.659
9.03394	0.737
9.07512	0.747
9.11629	0.763
9.15747	0.77
9.19864	0.764
9.23982	0.759
9.281	0.744
9.32217	0.695
9.36335	0.662
9.40452	0.741
9.4457	0.763
9.48688	0.761
9.52805	0.749
9.56923	0.718
9.61041	0.691
9.65158	0.683
9.69276	0.652
9.73393	0.601
9.77511	0.676
9.81629	0.71
9.85746	0.761
9.89864	0.78
9.93981	0.773
9.98099	0.7
10.0222	0.735
10.0633	0.781
10.1045	0.763
10.1457	0.759
10.1869	0.776
10.228	0.773
10.2692	0.746
10.3104	0.701
10.3516	0.695
10.3928	0.766
10.4339	0.72
10.4751	0.647
10.5163	0.645
10.5575	0.672
10.5986	0.606
10.6398	0.459
10.681	0.26
10.7222	0.214
10.7633	0.449
10.8045	0.425
10.8457	0.226
10.8869	0.185
10.928	0.402
10.9692	0.609
11.0104	0.7
11.0516	0.771
11.0927	0.795
11.1339	0.817
11.1751	0.826
11.2163	0.838
11.2574	0.841
11.2986	0.846
11.3398	0.844
11.381	0.846
11.4222	0.848
11.4633	0.844
11.5045	0.839
11.5457	0.836
11.5869	0.834
11.628	0.827
11.6692	0.821
11.7104	0.8
11.7516	0.773
11.7927	0.727
11.8339	0.669
11.8751	0.574
11.9163	0.48
11.9574	0.388
11.9986	0.241
12.0398	0.407
12.081	0.633
12.1221	0.739
12.1633	0.778
12.2045	0.798
12.2457	0.805
12.2869	0.809
12.328	0.814
12.3692	0.817
12.4104	0.817
12.4516	0.805
12.4927	0.783
12.5339	0.735
12.5751	0.7
12.6163	0.706
12.6574	0.662
12.6986	0.509
12.7398	0.344
12.781	0.247
12.8221	0.356
12.8633	0.628
12.9045	0.725
12.9457	0.778
12.9868	0.802
13.028	0.817
13.0692	0.819
13.1104	0.826
13.1516	0.819
13.1927	0.821
13.2339	0.819
13.2751	0.809
13.3163	0.802
13.3574	0.797
13.3986	0.788
13.4398	0.768
13.481	0.747
13.5221	0.708
13.5633	0.647
13.6045	0.558
13.6457	0.396
13.6868	0.195
13.728	0.076
13.7692	0.085
13.8104	0.294
13.8515	0.526
13.8927	0.63
13.9339	0.686
13.9751	0.708
14.0162	0.696
14.0574	0.672
14.0986	0.623
14.1398	0.536
14.181	0.415
14.2221	0.245
14.2633	0.139
14.3045	0.063
14.3457	0.051
14.3868	0.126
14.428	0.243
14.4692	0.369
14.5104	0.499
14.5515	0.567
14.5927	0.594
14.6339	0.57
14.6751	0.517
14.7162	0.477
14.7574	0.471
14.7986	0.536
14.8398	0.62
14.8809	0.693
14.9221	0.727
14.9633	0.764
15.0045	0.805
15.0457	0.831
15.0868	0.843
15.128	0.844
15.1692	0.844
15.2104	0.844
15.2515	0.843
15.2927	0.839
15.3339	0.839
15.3751	0.848
15.4162	0.853
15.4574	0.855
15.4986	0.862
15.5398	0.867
15.5809	0.86
15.6221	0.86
15.6633	0.85
15.7045	0.838
15.7456	0.831
15.7868	0.827
15.828	0.829
15.8692	0.831
