Infrared Spectrum: Benzil
Formula: C 14 H 10 O 2
CAS: 134-81-6
State: gas
Instrument: HP-GC/MS/IRD
Origin: NIST Mass Spectrometry Data Center
1/CM	ABSORBANCE
550	0.0002772
562	1.68e-05
574	0.000182
586	0.0002044
598	0.0002996
610	0.0008596
622	0.0015008
634	0.0072464
646	0.0161
658	0.0038304
670	0.0030632
682	0.007224
694	0.0088648
706	0.0086072
718	0.0090888
730	0.0035364
742	0.002254
754	0.0022764
766	0.0018088
778	0.0023604
790	0.0040404
802	0.0023128
814	0.0017024
826	0.0012712
838	0.0017864
850	0.0035252
862	0.0072128
874	0.0100912
886	0.0030324
898	0.0018396
910	0.0009912
922	0.0008876
934	0.0011844
946	0.0004284
958	0.000266
970	0.0002128
982	0.0001624
994	0.000434
1006	0.0006412
1018	0.0008372
1030	0.0010416
1042	0.0002632
1054	0.0004228
1066	0.0007448
1078	0.0006356
1090	0.000546
1102	0.0005348
1114	0.0005208
1126	0.0006552
1138	0.000882
1150	0.0017472
1162	0.00406
1174	0.0137284
1186	0.0108976
1198	0.0165004
1210	0.014994
1222	0.0035504
1234	0.0025928
1246	0.0020748
1258	0.0018676
1270	0.0022932
1282	0.0025844
1294	0.0022148
1306	0.002296
1318	0.0023212
1330	0.0013384
1342	0.0006804
1354	0.0003836
1366	0.0003024
1378	0.0003752
1390	0.0003052
1402	0.0002492
1414	0.0003472
1426	0.0004956
1438	0.0016016
1450	0.0046928
1462	0.0010276
1474	0.0003892
1486	0.000336
1498	0.0002408
1510	0.0001848
1522	0.0003108
1534	0.000476
1546	0.0005824
1558	0.00077
1570	0.0017276
1582	0.0036792
1594	0.0044856
1606	0.0032088
1618	0.0015288
1630	0.0011844
1642	0.0017444
1654	0.0028336
1666	0.0054516
1678	0.0141176
1690	0.028
1702	0.018578
1714	0.007392
1726	0.003248
1738	0.0015148
1750	0.000854
1762	0.0006972
1774	0.0006188
1786	0.0004284
1798	0.0006076
1810	0.0008988
1822	0.0004872
1834	0.0002688
1846	0.0001736
1858	0.0001904
1870	0.0001568
1882	0.0002128
1894	0.000448
1906	0.000588
1918	0.0004788
1930	0.000224
1942	0.0002296
1954	0.0005348
1966	0.0005292
1978	0.0003332
1990	0.0001204
2002	8.12e-05
2014	7.84e-05
2026	8.4e-05
2038	6.16e-05
2050	5.6e-05
2062	5.6e-05
2074	7e-05
2086	4.76e-05
2098	3.64e-05
2110	3.36e-05
2122	4.48e-05
2134	1.96e-05
2146	2.8e-05
2158	4.2e-05
2170	2.24e-05
2182	2.8e-05
2194	1.68e-05
2206	2.52e-05
2218	8.4e-06
2230	1.4e-05
2242	1.68e-05
2254	3.36e-05
2266	5.04e-05
2278	6.72e-05
2290	4.48e-05
2302	4.2e-05
2314	7.28e-05
2326	0.0001008
2338	6.72e-05
2350	5.04e-05
2362	0
2374	1.96e-05
2386	5.32e-05
2398	5.04e-05
2410	2.8e-05
2422	3.36e-05
2434	4.76e-05
2446	7.84e-05
2458	0.0001092
2470	0.0001204
2482	0.0001428
2494	9.8e-05
2506	8.96e-05
2518	8.68e-05
2530	8.68e-05
2542	5.88e-05
2554	6.16e-05
2566	8.4e-05
2578	9.24e-05
2590	0.00014
2602	0.0001036
2614	9.52e-05
2626	9.8e-05
2638	5.88e-05
2650	6.16e-05
2662	6.44e-05
2674	5.88e-05
2686	7.84e-05
2698	0.0001036
2710	0.0001008
2722	0.0001176
2734	0.0001288
2746	0.0001512
2758	0.0001316
2770	0.0001596
2782	0.0001596
2794	0.0001456
2806	0.0001568
2818	0.0001036
2830	0.0001092
2842	0.0001008
2854	0.00014
2866	0.0001652
2878	0.0001988
2890	0.000182
2902	0.0001848
2914	0.0001708
2926	0.000154
2938	0.0001652
2950	0.0001624
2962	0.000182
2974	0.0002352
2986	0.000238
2998	0.0003192
3010	0.0005096
3022	0.0009324
3034	0.0017276
3046	0.0018508
3058	0.0026544
3070	0.005824
3082	0.0044212
3094	0.0029064
3106	0.0014504
3118	0.0006244
3130	0.0003584
3142	0.0002996
3154	0.000308
3166	0.0002772
3178	0.0001484
3190	0.000126
3202	9.8e-05
3214	0.000112
3226	8.68e-05
3238	8.68e-05
3250	9.24e-05
3262	0.0001064
3274	0.0001092
3286	0.0001036
3298	0.0001064
3310	0.000126
3322	0.000154
3334	0.0002016
3346	0.0003752
3358	0.000462
3370	0.0004732
3382	0.0003248
3394	0.0002436
3406	0.0001652
3418	0.0001288
3430	8.68e-05
3442	7.28e-05
3454	8.12e-05
3466	8.12e-05
3478	4.48e-05
3490	5.6e-05
3502	4.48e-05
3514	7e-05
3526	4.2e-05
3538	9.24e-05
3550	4.48e-05
3562	5.04e-05
3574	6.72e-05
3586	3.08e-05
3598	5.88e-05
3610	2.8e-05
3622	5.88e-05
3634	3.64e-05
3646	6.44e-05
3658	7.56e-05
3670	5.88e-05
3682	0.0001036
3694	0.0001176
3706	0.0001204
3718	0.0001008
3730	9.52e-05
3742	5.04e-05
3754	9.24e-05
3766	0.0001008
3778	0.0001148
3790	0.0001008
3802	7.84e-05
3814	5.88e-05
3826	9.52e-05
3838	7.28e-05
