Infrared Spectrum: Carbamic acid, thio-2-benzimidazole, ethyl ester
Formula: C10 H11 N3 O S
CAS: 13404-88-1
State: SOLID (OIL MULL)
Class: COBLENTZ III
Instrument: PERKIN-ELMER 21 (GRATING)
Instrument parameters: NaCl PRISM
Sampling: TRANSMISSION
Resolution: 2
Origin: SMITH KLINE & FRENCH LABS.
1/CM	TRANSMITTANCE
4000	0.6976
3991	0.6978
3982	0.6981
3973	0.6984
3964	0.6992
3955	0.7007
3946	0.7021
3937	0.7037
3928	0.7051
3919	0.7065
3910	0.7078
3901	0.7084
3892	0.7086
3883	0.7087
3874	0.7088
3865	0.7082
3856	0.7076
3847	0.7071
3838	0.7068
3829	0.7068
3820	0.7067
3811	0.7065
3802	0.7071
3793	0.7078
3784	0.7085
3775	0.7111
3766	0.7138
3757	0.7151
3748	0.7165
3739	0.7176
3730	0.7186
3721	0.7195
3712	0.7203
3703	0.7215
3694	0.7228
3685	0.724
3676	0.7253
3667	0.7276
3658	0.7306
3649	0.7338
3640	0.7368
3631	0.7398
3622	0.7412
3613	0.7425
3604	0.7437
3595	0.7448
3586	0.7457
3577	0.7468
3568	0.7478
3559	0.7488
3550	0.7498
3541	0.7508
3532	0.7518
3523	0.753
3514	0.754
3505	0.7551
3496	0.7561
3487	0.7572
3478	0.7584
3469	0.7593
3460	0.7601
3451	0.7611
3442	0.7619
3433	0.763
3424	0.7639
3415	0.7649
3406	0.7658
3397	0.7668
3388	0.768
3379	0.7691
3370	0.7701
3361	0.7711
3352	0.7724
3343	0.7735
3334	0.775
3325	0.7767
3316	0.7787
3307	0.781
3298	0.7844
3289	0.7875
3280	0.7898
3271	0.7905
3262	0.7911
3253	0.7901
3244	0.7885
3235	0.7868
3226	0.7861
3217	0.7862
3208	0.7865
3199	0.7858
3190	0.7835
3181	0.78
3172	0.7762
3163	0.7725
3154	0.7689
3145	0.7651
3136	0.7612
3127	0.7517
3118	0.7292
3109	0.7145
3100	0.7111
3091	0.7032
3082	0.6868
3073	0.6644
3064	0.6328
3055	0.6001
3046	0.5671
3037	0.5475
3028	0.546
3019	0.5462
3010	0.5462
3001	0.5465
2992	0.5453
2983	0.5382
2974	0.5285
2965	0.522
2956	0.5173
2947	0.4581
2938	0.3926
2929	0.3266
2920	0.2603
2911	0.1935
2902	0.1265
2893	0.0629
2884	0.0485
2875	0.045
2866	0.0456
2857	0.0545
2848	0.0809
2839	0.086
2830	0.0879
2821	0.1022
2812	0.1428
2803	0.1973
2794	0.2521
2785	0.3074
2776	0.384
2767	0.4253
2758	0.4384
2749	0.4486
2740	0.463
2731	0.4772
2722	0.493
2713	0.508
2704	0.5206
2695	0.5299
2686	0.5373
2677	0.541
2668	0.5427
2659	0.5439
2650	0.5452
2641	0.5469
2632	0.5525
2623	0.5636
2614	0.5762
2605	0.5903
2596	0.6044
2587	0.6219
2578	0.6386
2569	0.6533
2560	0.6651
2551	0.6715
2542	0.6757
2533	0.6812
2524	0.6915
2515	0.7221
2506	0.7235
2497	0.7236
2488	0.7268
2479	0.7374
2470	0.7497
2461	0.7603
2452	0.7678
2443	0.77
2434	0.7712
2425	0.7743
2416	0.7785
2407	0.7853
2398	0.7914
2389	0.7975
2380	0.8042
2371	0.8094
2362	0.8132
2353	0.8144
2344	0.8128
2335	0.8051
2326	0.8028
2317	0.803
2308	0.8043
2299	0.8056
2290	0.8069
2281	0.8085
2272	0.8135
2263	0.8315
2254	0.8357
2245	0.8478
2236	0.8512
2227	0.8554
2218	0.8725
2209	0.8827
2200	0.8843
2191	0.8858
2182	0.8864
2173	0.8866
2164	0.8931
2155	0.8983
2146	0.9041
2137	0.9097
2128	0.912
2119	0.9124
2110	0.9127
2101	0.913
2092	0.9132
2083	0.9135
2074	0.9138
2065	0.9141
2056	0.9157
2047	0.9175
2038	0.9196
2029	0.9218
2020	0.9239
2011	0.9258
2002	0.9277
1993	0.9297
1984	0.9316
1975	0.9336
1966	0.9349
1957	0.9356
1948	0.9354
1939	0.935
1930	0.9345
1921	0.9302
1912	0.9275
1903	0.9273
1894	0.9271
1885	0.9284
1876	0.9307
1867	0.9335
1858	0.9377
1849	0.933
1840	0.9171
1831	0.9204
1822	0.9332
1813	0.9349
1804	0.9358
1795	0.936
1786	0.9357
1777	0.9349
1768	0.93
1759	0.9251
1750	0.9289
1741	0.9316
1732	0.9335
1723	0.9365
1714	0.9368
1705	0.926
1696	0.9223
1687	0.9125
1678	0.9068
1669	0.8938
1660	0.8785
1651	0.8416
1642	0.7496
1633	0.4667
1624	0.0714
1615	0.4133
1606	0.6676
1597	0.1916
1588	0.1451
1579	0.425
1570	0.5871
1561	0.6932
1552	0.7135
1543	0.7682
1534	0.781
1525	0.8167
1516	0.8252
1507	0.8241
1498	0.6776
1489	0.733
1480	0.7325
1471	0.526
1462	0.363
1453	0.388
1444	0.3979
1435	0.4492
1426	0.3802
1417	0.3659
1408	0.2534
1399	0.4975
1390	0.5233
1381	0.4521
1372	0.2707
1363	0.549
1354	0.665
1345	0.6132
1336	0.3853
1327	0.5692
1318	0.6845
1309	0.7231
1300	0.7405
1291	0.507
1282	0.2108
1273	0.4756
1264	0.6254
1255	0.7015
1246	0.7036
1237	0.7475
1228	0.55
1219	0.5286
1210	0.4206
1201	0.0543
1192	0.3964
1183	0.5504
1174	0.5228
1165	0.4587
1156	0.0698
1147	0.1966
1138	0.5053
1129	0.6728
1120	0.7385
1111	0.7632
1102	0.5583
1093	0.6472
1084	0.7828
1075	0.8099
1066	0.7993
1057	0.5394
1048	0.5444
1039	0.8137
1030	0.843
1021	0.7944
1012	0.8438
1003	0.8527
994	0.8445
985	0.8761
976	0.8921
967	0.8832
958	0.8846
949	0.8831
940	0.8421
931	0.6586
922	0.7651
913	0.8198
904	0.8834
895	0.8804
886	0.8915
877	0.8873
868	0.8859
859	0.8716
850	0.7743
841	0.7045
832	0.7832
823	0.671
814	0.5904
805	0.7037
796	0.8015
787	0.8089
778	0.8394
769	0.8692
760	0.8742
751	0.8277
742	0.3135
733	0.6524
724	0.6645
715	0.6415
706	0.7456
697	0.7765
688	0.7691
679	0.7365
670	0.6672
661	0.4649
