Infrared Spectrum: UREA], 1,1'-TRIMETHYLENEBIS[3-METHYL-3-NITROSO-
Formula: C7 H14 N6 O4
CAS: 13404-51-8
State: SOLID (1 mg / 650 mg KBr DISC)
Class: COBLENTZ III
Instrument: PERKIN-ELMER 221 (GRATING)
Instrument parameters: FILTER AT 980 CM ^-^1, GRATING FOR 4000-1428 CM^-^1, NaCl PRISM FOR 1428-650 CM^-^1
Sampling: TRANSMISSION
Resolution: 4
Origin: SOUTHERN RES. INSTITUTE
1/CM	TRANSMITTANCE
623.564	0.749
632.736	0.745
641.909	0.742
651.081	0.739
660.254	0.742
669.426	0.773
678.598	0.804
687.771	0.827
696.943	0.842
706.115	0.852
715.288	0.852
724.46	0.85
733.633	0.846
742.805	0.84
751.977	0.831
761.15	0.691
770.322	0.742
779.495	0.798
788.667	0.664
797.839	0.72
807.012	0.849
816.184	0.855
825.356	0.852
834.529	0.769
843.701	0.812
852.874	0.845
862.046	0.809
871.218	0.751
880.391	0.841
889.563	0.84
898.736	0.834
907.908	0.821
917.08	0.764
926.253	0.789
935.425	0.773
944.597	0.755
953.77	0.752
962.942	0.617
972.115	0.425
981.287	0.351
990.459	0.395
999.632	0.544
1008.8	0.73
1017.98	0.767
1027.15	0.77
1036.32	0.75
1045.49	0.67
1054.67	0.704
1063.84	0.689
1073.01	0.626
1082.18	0.733
1091.36	0.778
1100.53	0.785
1109.7	0.743
1118.87	0.697
1128.05	0.704
1137.22	0.762
1146.39	0.744
1155.56	0.676
1164.73	0.602
1173.91	0.376
1183.08	0.438
1192.25	0.575
1201.42	0.67
1210.6	0.726
1219.77	0.71
1228.94	0.688
1238.11	0.678
1247.29	0.707
1256.46	0.75
1265.63	0.75
1274.8	0.744
1283.98	0.761
1293.15	0.771
1302.32	0.762
1311.49	0.734
1320.67	0.727
1329.84	0.697
1339.01	0.697
1348.18	0.717
1357.35	0.726
1366.53	0.735
1375.7	0.697
1384.87	0.736
1394.04	0.736
1403.22	0.721
1412.39	0.71
1421.56	0.733
1430.73	0.623
1439.91	0.605
1449.08	0.587
1458.25	0.604
1467.42	0.524
1476.6	0.401
1485.77	0.271
1494.94	0.262
1504.11	0.295
1513.29	0.468
1522.46	0.533
1531.63	0.268
1540.8	0.161
1549.97	0.329
1559.15	0.493
1568.32	0.63
1577.49	0.701
1586.66	0.743
1595.84	0.759
1605.01	0.762
1614.18	0.764
1623.35	0.761
1632.53	0.753
1641.7	0.75
1650.87	0.743
1660.04	0.731
1669.22	0.695
1678.39	0.685
1687.56	0.639
1696.73	0.426
1705.91	0.236
1715.08	0.232
1724.25	0.37
1733.42	0.463
1742.59	0.511
1751.77	0.589
1760.94	0.678
1770.11	0.751
1779.28	0.781
1788.46	0.797
1797.63	0.81
1806.8	0.812
1815.97	0.815
1825.15	0.818
1834.32	0.82
1843.49	0.823
1852.66	0.827
1861.84	0.832
1871.01	0.833
1880.18	0.835
1889.35	0.838
1898.53	0.839
1907.7	0.839
1916.87	0.839
1926.04	0.839
1935.21	0.841
1944.39	0.842
1953.56	0.842
1962.73	0.84
1971.9	0.839
1981.08	0.84
1990.25	0.842
1999.42	0.842
2008.59	0.842
2017.77	0.841
2026.94	0.839
2036.11	0.839
2045.28	0.837
2054.46	0.837
2063.63	0.839
2072.8	0.84
2081.97	0.842
2091.15	0.842
2100.32	0.843
2109.49	0.842
2118.66	0.841
2127.84	0.839
2137.01	0.84
2146.18	0.841
2155.35	0.842
2164.52	0.842
2173.7	0.842
2182.87	0.842
2192.04	0.842
2201.21	0.842
2210.39	0.84
2219.56	0.839
2228.73	0.839
2237.9	0.838
2247.08	0.837
2256.25	0.837
2265.42	0.836
2274.59	0.836
2283.77	0.835
2292.94	0.835
2302.11	0.834
2311.28	0.832
2320.46	0.83
2329.63	0.825
2338.8	0.823
2347.97	0.821
2357.14	0.819
2366.32	0.822
2375.49	0.83
2384.66	0.833
2393.83	0.834
2403.01	0.833
2412.18	0.832
2421.35	0.832
2430.52	0.831
2439.7	0.83
2448.87	0.829
2458.04	0.828
2467.21	0.826
2476.39	0.828
2485.56	0.829
2494.73	0.831
2503.9	0.832
2513.08	0.831
2522.25	0.83
2531.42	0.829
2540.59	0.829
2549.76	0.828
2558.94	0.828
2568.11	0.829
2577.28	0.829
2586.45	0.829
2595.63	0.829
2604.8	0.829
2613.97	0.829
2623.14	0.827
2632.32	0.827
2641.49	0.827
2650.66	0.826
2659.83	0.826
2669.01	0.826
2678.18	0.826
2687.35	0.824
2696.52	0.823
2705.7	0.823
2714.87	0.824
2724.04	0.825
2733.21	0.826
2742.38	0.825
2751.56	0.824
2760.73	0.823
2769.9	0.822
2779.07	0.822
2788.25	0.822
2797.42	0.822
2806.59	0.82
2815.76	0.818
2824.94	0.807
2834.11	0.8
2843.28	0.793
2852.45	0.787
2861.63	0.785
2870.8	0.781
2879.97	0.778
2889.14	0.776
2898.32	0.779
2907.49	0.779
2916.66	0.768
2925.83	0.74
2935	0.728
2944.18	0.735
2953.35	0.728
2962.52	0.7
2971.69	0.746
2980.87	0.772
2990.04	0.793
2999.21	0.796
3008.38	0.798
3017.56	0.8
3026.73	0.802
3035.9	0.803
3045.07	0.803
3054.25	0.803
3063.42	0.803
3072.59	0.802
3081.76	0.8
3090.94	0.798
3100.11	0.797
3109.28	0.796
3118.45	0.794
3127.62	0.793
3136.8	0.791
3145.97	0.789
3155.14	0.787
3164.31	0.785
3173.49	0.781
3182.66	0.778
3191.83	0.774
3201	0.771
3210.18	0.768
3219.35	0.758
3228.52	0.748
3237.69	0.735
3246.87	0.727
3256.04	0.719
3265.21	0.706
3274.38	0.692
3283.56	0.686
3292.73	0.66
3301.9	0.623
3311.07	0.602
3320.24	0.538
3329.42	0.463
3338.59	0.379
3347.76	0.37
3356.93	0.444
3366.11	0.57
3375.28	0.594
3384.45	0.59
3393.62	0.596
3402.8	0.648
3411.97	0.674
3421.14	0.688
3430.31	0.7
3439.49	0.709
3448.66	0.72
3457.83	0.724
3467	0.729
3476.18	0.733
3485.35	0.736
3494.52	0.74
3503.69	0.744
3512.87	0.748
3522.04	0.753
3531.21	0.758
3540.38	0.762
3549.55	0.766
3558.73	0.77
3567.9	0.774
3577.07	0.778
3586.24	0.781
3595.42	0.785
3604.59	0.79
3613.76	0.796
3622.93	0.8
3632.11	0.803
3641.28	0.807
3650.45	0.809
3659.62	0.81
3668.8	0.812
3677.97	0.813
3687.14	0.814
3696.31	0.815
3705.49	0.815
3714.66	0.815
3723.83	0.815
3733	0.815
3742.17	0.815
3751.35	0.816
3760.52	0.816
3769.69	0.816
3778.86	0.816
3788.04	0.815
3797.21	0.814
3806.38	0.813
3815.55	0.812
3824.73	0.811
3833.9	0.81
3843.07	0.81
3852.24	0.81
3861.42	0.81
3870.59	0.811
3879.76	0.811
3888.93	0.812
3898.11	0.813
3907.28	0.813
3916.45	0.814
3925.62	0.815
3934.79	0.815
3943.97	0.815
3953.14	0.815
3962.31	0.815
3971.48	0.814
3980.66	0.814
3989.83	0.813
3999	0.813
4008.17	0.811
