Infrared Spectrum: 2-Trimethylsilyl-1,3-dithiane
Formula: C7 H16 S2 Si
CAS: 13411-42-2
State: gas
Origin: EPA-IR VAPOR PHASE LIBRARY
1/CM	ABSORBANCE
549.8	0.001314
559.445	0.001805
569.09	0.001775
578.734	0.0016734
588.379	0.0011434
598.024	0.0016548
607.669	0.0016668
617.313	0.004975
626.958	0.009125
636.603	0.005755
646.248	0.004775
655.893	0.005585
665.537	0.005085
675.182	0.006445
684.827	0.008765
694.472	0.012985
704.116	0.015495
713.761	0.016685
723.406	0.018605
733.051	0.017635
742.695	0.014945
752.34	0.016985
761.985	0.021035
771.63	0.017415
781.275	0.012955
790.919	0.011325
800.564	0.013645
810.209	0.019555
819.854	0.033155
829.498	0.063165
839.143	0.113025
848.788	0.134155
858.433	0.102265
868.078	0.067715
877.722	0.061825
887.367	0.048575
897.012	0.029415
906.657	0.031975
916.301	0.026805
925.946	0.011885
935.591	0.007965
945.236	0.005315
954.88	0.003945
964.525	0.002765
974.17	0.001975
983.815	0.002935
993.46	0.004975
1003.1	0.004125
1012.75	0.002035
1022.39	0.001547
1032.04	0.002095
1041.68	0.002885
1051.33	0.002485
1060.97	0.002325
1070.62	0.003685
1080.26	0.010695
1089.91	0.014145
1099.55	0.007285
1109.2	0.004915
1118.84	0.002945
1128.49	0.002135
1138.13	0.003295
1147.78	0.004515
1157.42	0.010205
1167.07	0.008375
1176.71	0.005155
1186.36	0.002805
1196	0.003895
1205.64	0.004515
1215.29	0.004825
1224.93	0.008055
1234.58	0.020605
1244.22	0.037375
1253.87	0.062705
1263.51	0.067665
1273.16	0.048165
1282.8	0.020285
1292.45	0.009895
1302.09	0.007405
1311.74	0.006385
1321.38	0.005205
1331.03	0.004635
1340.67	0.004195
1350.32	0.003715
1359.96	0.003275
1369.61	0.003035
1379.25	0.003215
1388.9	0.004195
1398.54	0.006195
1408.18	0.009205
1417.83	0.014265
1427.47	0.017895
1437.12	0.011985
1446.76	0.005405
1456.41	0.003765
1466.05	0.002995
1475.7	0.002705
1485.34	0.002205
1494.99	0.002095
1504.63	0.001995
1514.28	0.001915
1523.92	0.002015
1533.57	0.0017745
1543.21	0.0016707
1552.86	0.0014888
1562.5	0.0012321
1572.15	0.0016208
1581.79	0.0011655
1591.44	0.0015863
1601.08	0.0013383
1610.73	0.0011271
1620.37	0.0014175
1630.01	0.0013417
1639.66	0.0014549
1649.3	0.0015315
1658.95	0.0015512
1668.59	0.0015609
1678.24	0.0013462
1687.88	0.0010651
1697.53	0.0008853
1707.17	0.0011267
1716.82	0.00084903
1726.46	0.0014511
1736.11	0.0012553
1745.75	0.0011184
1755.4	0.0011323
1765.04	0.001044
1774.69	0.0009579
1784.33	0.0011051
1793.98	0.0011595
1803.62	0.0011192
1813.27	0.0010846
1822.91	0.0012477
1832.55	0.0012395
1842.2	0.0012235
1851.84	0.0011297
1861.49	0.0011503
1871.13	0.0014949
1880.78	0.0016258
1890.42	0.001516
1900.07	0.0014228
1909.71	0.001392
1919.36	0.0013141
1929	0.0013383
1938.65	0.001582
1948.29	0.0017397
1957.94	0.0017025
1967.58	0.0014704
1977.23	0.0013416
1986.87	0.0013737
1996.52	0.0012894
2006.16	0.0011779
2015.81	0.0011527
2025.45	0.0010286
2035.1	0.0009412
2044.74	0.00079741
2054.38	0.001145
2064.03	0.0010256
2073.67	0.000917
2083.32	0.001066
2092.96	0.0013772
2102.61	0.0015127
2112.25	0.0012846
2121.9	0.0011907
2131.54	0.0010979
2141.19	0.0011122
2150.83	0.0012425
2160.48	0.001029
2170.12	0.0014692
2179.77	0.0009895
2189.41	0.0011896
2199.06	0.0012117
2208.7	0.0012061
2218.35	0.0012468
2227.99	0.0010243
2237.64	0.0012276
2247.28	0.0011117
2256.92	0.00086462
2266.57	0.0011005
2276.21	0.0009116
2285.86	0.0009365
2295.5	0.00084266
2305.15	0.0009305
2314.79	0.000929
2324.44	0.0011396
2334.08	0.00086839
2343.73	0.0009083
2353.37	0.0010727
2363.02	0.0010439
2372.66	0.00081454
2382.31	0.00087097
2391.95	0.0007285
2401.6	0.0010584
2411.24	0.0007295
2420.89	0.0008825
2430.53	0.0008408
2440.18	0.00086739
2449.82	0.0008202
2459.47	0.000659
2469.11	0.000633
2478.75	0.000781771
2488.4	0.0011131
2498.04	0.0008814
2507.69	0.000618
2517.33	0.0009133
2526.98	0.000778154
2536.62	0.0012778
2546.27	0.000674
2555.91	0.000781333
2565.56	0.00084339
2575.2	0.000971
2584.85	0.0009628
2594.49	0.0010048
2604.14	0.0009531
2613.78	0.0010213
2623.43	0.0011113
2633.07	0.0009851
2642.72	0.0011451
2652.36	0.0012089
2662.01	0.0017357
2671.65	0.001128
2681.29	0.0010772
2690.94	0.0011896
2700.58	0.00078357
2710.23	0.0009931
2719.87	0.0014114
2729.52	0.0012881
2739.16	0.0014166
2748.81	0.0014167
2758.45	0.001955
2768.1	0.002475
2777.74	0.002605
2787.39	0.002635
2797.03	0.003685
2806.68	0.004945
2816.32	0.007715
2825.97	0.011185
2835.61	0.015975
2845.26	0.019765
2854.9	0.024565
2864.55	0.019495
2874.19	0.012805
2883.84	0.015855
2893.48	0.035285
2903.12	0.073965
2912.77	0.059885
2922.41	0.023435
2932.06	0.023555
2941.7	0.037975
2951.35	0.054125
2960.99	0.058215
2970.64	0.035295
2980.28	0.015785
2989.93	0.007275
2999.57	0.004395
3009.22	0.003555
3018.86	0.003395
3028.51	0.003255
3038.15	0.003545
3047.8	0.003745
3057.44	0.003825
3067.09	0.003965
3076.73	0.003775
3086.38	0.003555
3096.02	0.002915
3105.67	0.002655
3115.31	0.002835
3124.95	0.002815
3134.6	0.002155
3144.24	0.0014642
3153.89	0.001905
3163.53	0.0010247
3173.18	0.0016086
3182.82	0.0015734
3192.47	0.001064
3202.11	0.0014078
3211.76	0.0012107
3221.4	0.0010255
3231.05	0.0013794
3240.69	0.0009961
3250.34	0.00085781
3259.98	0.0017103
3269.63	0.000387
3279.27	0.0008887
3288.92	0.000935
3298.56	0.000279
3308.21	0.0014666
3317.85	0.0007329
3327.49	0.000659
3337.14	0.000381
3346.78	0.000471
3356.43	0.000629
3366.07	0.000371
3375.72	0.00079534
3385.36	0.0010967
3395.01	0.000597
3404.65	0.000633
3414.3	0.001085
3423.94	0.0010381
3433.59	0.000525
3443.23	0.000701
3452.88	0.00032
3462.52	0.000453
3472.17	0.001361
3481.81	0.0010732
3491.46	0.0009462
3501.1	0.000666
3510.75	0.0007199
3520.39	0.0011973
3530.04	0.0007192
3539.68	0.0008866
3549.32	0.0009646
3558.97	0.0010266
3568.61	0.0007537
3578.26	0.0012827
3587.9	0.0009109
3597.55	0.0009324
3607.19	0.0013483
3616.84	0.0015318
3626.48	0.0012743
3636.13	0.0013224
3645.77	0.0013421
3655.42	0.0010743
3665.06	0.0015585
3674.71	0.00080968
3684.35	0.00081147
3694	0.0010529
3703.64	0.0012367
3713.29	0.0009885
3722.93	0.0015829
3732.58	0.0012451
3742.22	0.0017043
3751.86	0.0012435
3761.51	0.0017608
3771.15	0.0010794
3780.8	0.0015092
3790.44	0.001467
3800.09	0.0009216
3809.73	0.0015947
3819.38	0.0007626
3829.02	0.0009359
3838.67	0.000435
3848.31	0.00080646
3857.96	0.00086331
3867.6	0.00080996
3877.25	0.000327
3886.89	0.000485
3896.54	0.000323
3906.18	0.0009384
3915.83	0.0009346
3925.47	0.0010147
3935.12	0.0010332
3944.76	0.0013981
3954.41	0.000666
3964.05	0.0009744
3973.69	0.000444
3983.34	0.0013246
3992.98	0.0009535
