Infrared Spectrum: PHOSPHONOUS ACID, PHENYL-, DIPHENYL ESTER
Formula: C18 H15 O2 P
CAS: 13410-61-2
State: SOLUTION (10% CCl4 FOR 3800-1330, 10% CS2 FOR 1330-400 CM^-^1)
Class: COBLENTZ
Instrument: BECKMAN IR-9 (GRATING)
Instrument parameters: ORDER CHANGES: 670, 1200, 2000 CM^-^1
Sampling: TRANSMISSION
Path length: 0.011 CM, 0.011 CM
Resolution: 2
Origin: DOW CHEMICAL COMPANY
1/CM	TRANSMITTANCE
405	0.207
414	0.2688
423	0.4545
432	0.5021
441	0.4928
450	0.6042
459	0.6558
468	0.6845
477	0.6901
486	0.676
495	0.4942
504	0.2705
513	0.5531
522	0.6881
531	0.7514
540	0.8328
549	0.8327
558	0.7533
567	0.8051
576	0.7887
585	0.5955
594	0.7215
603	0.8761
612	0.7807
621	0.8683
630	0.8998
639	0.888
648	0.8431
657	0.7682
666	0.7976
675	0.748
684	0.3734
693	0.0173
702	0.2572
711	0.3999
720	0.2782
729	0.2469
738	0.4155
747	0.1089
756	0.1221
765	0.0908
774	0.1794
783	0.6741
792	0.7931
801	0.8288
810	0.775
819	0.6145
828	0.686
837	0.7121
846	0.3647
855	0.0452
864	0.006
873	0.0703
882	0.0305
891	0.1525
900	0.1554
909	0.4834
918	0.3909
927	0.3332
936	0.3388
945	0.4151
954	0.5586
963	0.676
972	0.7117
981	0.7558
990	0.7881
999	0.6123
1008	0.7221
1017	0.7711
1026	0.3093
1035	0.8184
1044	0.8771
1053	0.8838
1062	0.8291
1071	0.4344
1080	0.8084
1089	0.8263
1098	0.6076
1107	0.3606
1116	0.6088
1125	0.6348
1134	0.5214
1143	0.7196
1152	0.4812
1161	0.1271
1170	0.3729
1179	0.3162
1188	0.0487
1197	0.0104
1206	0.0654
1215	0.0594
1224	0.0179
1233	0.0775
1242	0.3276
1251	0.496
1260	0.5536
1269	0.5922
1278	0.556
1287	0.592
1296	0.7675
1305	0.7405
1314	0.8112
1323	0.824
1332	0.7315
1341	0.7678
1350	0.8094
1359	0.8098
1368	0.7889
1377	0.7867
1386	0.7808
1395	0.8001
1404	0.8138
1413	0.8234
1422	0.8255
1431	0.7005
1440	0.3882
1449	0.7075
1458	0.6864
1467	0.6183
1476	0.2579
1485	0.0605
1494	0.006
1503	0.3277
1512	0.5642
1521	0.5783
1530	0.5566
1539	0.5021
1548	0.4275
1557	0.4225
1566	0.4696
1575	0.4293
1584	0.1707
1593	0.0252
1602	0.3272
1611	0.6234
1620	0.7401
1629	0.775
1638	0.7925
1647	0.8007
1656	0.8051
1665	0.8051
1674	0.8154
1683	0.8268
1692	0.8325
1701	0.8351
1710	0.8256
1719	0.8183
1728	0.8216
1737	0.8414
1746	0.8501
1755	0.8493
1764	0.8406
1773	0.821
1782	0.8062
1791	0.8408
1800	0.8514
1809	0.8475
1818	0.8313
1827	0.8482
1836	0.8446
1845	0.8333
1854	0.8212
1863	0.8199
1872	0.8331
1881	0.8309
1890	0.8215
1899	0.8302
1908	0.8366
1917	0.8338
1926	0.7919
1935	0.7667
1944	0.8053
1953	0.7805
1962	0.8125
1971	0.8337
1980	0.8465
1989	0.8552
1998	0.8605
2007	0.8625
2016	0.8637
2025	0.8633
2034	0.863
2043	0.8621
2052	0.8609
2061	0.8596
2070	0.8591
2079	0.8628
2088	0.8662
2097	0.8699
2106	0.8739
2115	0.8771
2124	0.8804
2133	0.8828
2142	0.8841
2151	0.8848
2160	0.8848
2169	0.8843
2178	0.8839
2187	0.8827
2196	0.8809
2205	0.8791
2214	0.8771
2223	0.8743
2232	0.8714
2241	0.8686
2250	0.8655
2259	0.8621
2268	0.8589
2277	0.856
2286	0.8549
2295	0.854
2304	0.8523
2313	0.8483
2322	0.8438
2331	0.8414
2340	0.8406
2349	0.838
2358	0.8317
2367	0.8297
2376	0.8296
2385	0.8295
2394	0.8294
2403	0.829
2412	0.8293
2421	0.8337
2430	0.8383
2439	0.8428
2448	0.8473
2457	0.8504
2466	0.8534
2475	0.8563
2484	0.8588
2493	0.861
2502	0.8624
2511	0.8637
2520	0.8649
2529	0.8659
2538	0.8667
2547	0.8666
2556	0.8631
2565	0.8568
2574	0.8538
2583	0.8553
2592	0.8577
2601	0.8589
2610	0.8598
2619	0.8561
2628	0.8609
2637	0.8665
2646	0.8662
2655	0.8656
2664	0.8647
2673	0.8628
2682	0.8605
2691	0.8555
2700	0.8561
2709	0.8573
2718	0.8584
2727	0.8594
2736	0.8603
2745	0.861
2754	0.8615
2763	0.8618
2772	0.8624
2781	0.8632
2790	0.8646
2799	0.8661
2808	0.8652
2817	0.8645
2826	0.864
2835	0.8631
2844	0.862
2853	0.8607
2862	0.8587
2871	0.8555
2880	0.8536
2889	0.8536
2898	0.854
2907	0.8544
2916	0.8545
2925	0.8545
2934	0.8541
2943	0.8537
2952	0.8515
2961	0.8483
2970	0.8418
2979	0.8352
2988	0.8265
2997	0.8071
3006	0.7547
3015	0.7
3024	0.6928
3033	0.6236
3042	0.5115
3051	0.5678
3060	0.5299
3069	0.4804
3078	0.4923
3087	0.6021
3096	0.6728
3105	0.7564
3114	0.794
3123	0.8068
3132	0.8111
3141	0.8104
3150	0.8067
3159	0.8112
3168	0.8133
3177	0.8103
3186	0.8036
3195	0.7989
3204	0.795
3213	0.7918
3222	0.7864
3231	0.7767
3240	0.7669
3249	0.7586
3258	0.7504
3267	0.7422
3276	0.734
3285	0.7251
3294	0.7161
3303	0.7068
3312	0.6968
3321	0.6925
3330	0.693
3339	0.6969
3348	0.7017
3357	0.7086
3366	0.7168
3375	0.7278
3384	0.7393
3393	0.7512
3402	0.7618
3411	0.7722
3420	0.783
3429	0.7942
3438	0.8008
3447	0.8065
3456	0.811
3465	0.8154
3474	0.8192
3483	0.823
3492	0.8266
3501	0.829
3510	0.8315
3519	0.8335
3528	0.8347
3537	0.8357
3546	0.8367
3555	0.8364
3564	0.8361
3573	0.8351
3582	0.8306
3591	0.8281
3600	0.833
3609	0.8075
3618	0.7975
3627	0.8209
3636	0.8409
3645	0.8475
3654	0.8501
3663	0.8507
3672	0.8509
3681	0.8507
3690	0.8509
3699	0.8511
3708	0.8514
3717	0.8517
3726	0.8521
3735	0.8524
3744	0.8523
3753	0.8521
3762	0.8515
3771	0.8512
3780	0.8509
3789	0.8505
3798	0.8503
