Infrared Spectrum: 5-Chloro-2-iodobenzoic acid
Formula: C 7 H 4 Cl I O 2
CAS: 13421-00-6
State: gas
Origin: EPA-IR VAPOR PHASE LIBRARY
1/CM	ABSORBANCE
549.8	0.048539
559.445	0.071669
569.09	0.090849
578.734	0.081839
588.379	0.078499
598.024	0.060899
607.669	0.033699
617.313	0.024479
626.958	0.047019
636.603	0.087399
646.248	0.046939
655.893	0.011849
665.537	0.007579
675.182	0.011149
684.827	0.044289
694.472	0.064349
704.116	0.019099
713.761	0.007739
723.406	0.006219
733.051	0.006389
742.695	0.007799
752.34	0.012369
761.985	0.018419
771.63	0.029219
781.275	0.032729
790.919	0.023039
800.564	0.023749
810.209	0.048069
819.854	0.061599
829.498	0.028469
839.143	0.024089
848.788	0.011839
858.433	0.006879
868.078	0.005849
877.722	0.008759
887.367	0.020699
897.012	0.023549
906.657	0.009749
916.301	0.004889
925.946	0.003559
935.591	0.003689
945.236	0.003689
954.88	0.004449
964.525	0.005109
974.17	0.005239
983.815	0.006649
993.46	0.011399
1003.1	0.036159
1012.75	0.151879
1022.39	0.114159
1032.04	0.027469
1041.68	0.021199
1051.33	0.027479
1060.97	0.044809
1070.62	0.081609
1080.26	0.130809
1089.91	0.137499
1099.55	0.178519
1109.2	0.223289
1118.84	0.117079
1128.49	0.103799
1138.13	0.100359
1147.78	0.071719
1157.42	0.072229
1167.07	0.116489
1176.71	0.205259
1186.36	0.196239
1196	0.091969
1205.64	0.050209
1215.29	0.034989
1224.93	0.025689
1234.58	0.024489
1244.22	0.034179
1253.87	0.048409
1263.51	0.044119
1273.16	0.043389
1282.8	0.045639
1292.45	0.053409
1302.09	0.066729
1311.74	0.084029
1321.38	0.102749
1331.03	0.084259
1340.67	0.049579
1350.32	0.032639
1359.96	0.028229
1369.61	0.036879
1379.25	0.057989
1388.9	0.073229
1398.54	0.060869
1408.18	0.025569
1417.83	0.016629
1427.47	0.014959
1437.12	0.023799
1446.76	0.055519
1456.41	0.092159
1466.05	0.050159
1475.7	0.022239
1485.34	0.013349
1494.99	0.010029
1504.63	0.009389
1514.28	0.006879
1523.92	0.005999
1533.57	0.007919
1543.21	0.014079
1552.86	0.020109
1562.5	0.013509
1572.15	0.012639
1581.79	0.011419
1591.44	0.007199
1601.08	0.005919
1610.73	0.005499
1620.37	0.006389
1630.01	0.008469
1639.66	0.007129
1649.3	0.004869
1658.95	0.004579
1668.59	0.004909
1678.24	0.005199
1687.88	0.006199
1697.53	0.008409
1707.17	0.012909
1716.82	0.021869
1726.46	0.041739
1736.11	0.075539
1745.75	0.116839
1755.4	0.194019
1765.04	0.368099
1774.69	0.343739
1784.33	0.131919
1793.98	0.110839
1803.62	0.056929
1813.27	0.023789
1822.91	0.012139
1832.55	0.007029
1842.2	0.005129
1851.84	0.004079
1861.49	0.003449
1871.13	0.003489
1880.78	0.003919
1890.42	0.005029
1900.07	0.006639
1909.71	0.005619
1919.36	0.003469
1929	0.002759
1938.65	0.002559
1948.29	0.002209
1957.94	0.001939
1967.58	0.001749
1977.23	0.001499
1986.87	0.0013789
1996.52	0.001559
2006.16	0.001799
2015.81	0.001999
2025.45	0.001929
2035.1	0.001499
2044.74	0.0010666
2054.38	0.0009454
2064.03	0.0010059
2073.67	0.0008884
2083.32	0.000973
2092.96	0.0010787
2102.61	0.0011821
2112.25	0.0012641
2121.9	0.001352
2131.54	0.0013977
2141.19	0.001849
2150.83	0.002049
2160.48	0.001889
2170.12	0.001629
2179.77	0.0013598
2189.41	0.001499
2199.06	0.001569
2208.7	0.001559
2218.35	0.001579
2227.99	0.0014258
2237.64	0.001301
2247.28	0.0012217
2256.92	0.001317
2266.57	0.0013591
2276.21	0.001449
2285.86	0.001459
2295.5	0.001619
2305.15	0.001669
2314.79	0.001659
2324.44	0.001629
2334.08	0.001659
2343.73	0.002009
2353.37	0.001939
2363.02	0.002059
2372.66	0.001719
2382.31	0.001589
2391.95	0.001559
2401.6	0.001729
2411.24	0.001739
2420.89	0.001699
2430.53	0.001759
2440.18	0.001599
2449.82	0.001519
2459.47	0.001449
2469.11	0.0013374
2478.75	0.0012387
2488.4	0.0013082
2498.04	0.001479
2507.69	0.0014019
2517.33	0.001509
2526.98	0.0011785
2536.62	0.001146
2546.27	0.0012053
2555.91	0.0011425
2565.56	0.0013845
2575.2	0.0013305
2584.85	0.0013976
2594.49	0.001499
2604.14	0.0011929
2613.78	0.000986
2623.43	0.0007562
2633.07	0.0008753
2642.72	0.0009194
2652.36	0.0008235
2662.01	0.0006893
2671.65	0.0008903
2681.29	0.0007988
2690.94	0.0008494
2700.58	0.0010268
2710.23	0.0010061
2719.87	0.0010068
2729.52	0.0008422
2739.16	0.0008086
2748.81	0.000733
2758.45	0.000698
2768.1	0.0008132
2777.74	0.001119
2787.39	0.0014194
2797.03	0.001639
2806.68	0.001679
2816.32	0.001519
2825.97	0.0013606
2835.61	0.001223
2845.26	0.0012422
2854.9	0.0013937
2864.55	0.0013248
2874.19	0.0013446
2883.84	0.0010292
2893.48	0.0010746
2903.12	0.0008069
2912.77	0.000975
2922.41	0.0009075
2932.06	0.0011337
2941.7	0.0012905
2951.35	0.0013967
2960.99	0.0013536
2970.64	0.001383
2980.28	0.0012164
2989.93	0.0012944
2999.57	0.001609
3009.22	0.001619
3018.86	0.0012609
3028.51	0.0010188
3038.15	0.0009046
3047.8	0.0009681
3057.44	0.0013057
3067.09	0.003279
3076.73	0.004329
3086.38	0.002939
3096.02	0.002149
3105.67	0.001999
3115.31	0.001709
3124.95	0.001449
3134.6	0.0011621
3144.24	0.0010426
3153.89	0.0008502
3163.53	0.0007519
3173.18	0.0006369
3182.82	0.00047557
3192.47	0.00047191
3202.11	0.0005629
3211.76	0.000277
3221.4	0.0003897
3231.05	0.00043552
3240.69	0.0005095
3250.34	0.000440713
3259.98	0.00045583
3269.63	0.00026
3279.27	0.0003435
3288.92	0.000275
3298.56	0.000332
3308.21	0.0003425
3317.85	0.0004722
3327.49	0.0005528
3337.14	0.000257
3346.78	0.0003985
3356.43	0.0005474
3366.07	0.000324
3375.72	0.000289
3385.36	0.0003878
3395.01	0.0004246
3404.65	0.00052879
3414.3	0.0006771
3423.94	0.0005941
3433.59	0.0012369
3443.23	0.001459
3452.88	0.0013437
3462.52	0.001559
3472.17	0.001969
3481.81	0.002709
3491.46	0.003009
3501.1	0.003839
3510.75	0.004429
3520.39	0.005909
3530.04	0.008629
3539.68	0.009849
3549.32	0.017089
3558.97	0.071829
3568.61	0.160059
3578.26	0.127389
3587.9	0.052989
3597.55	0.011209
3607.19	0.006059
3616.84	0.004439
3626.48	0.002839
3636.13	0.001569
3645.77	0.001033
3655.42	0.0007045
3665.06	0.0006054
3674.71	0.0006347
3684.35	0.0006389
3694	0.0010435
3703.64	0.0008421
3713.29	0.0007909
3722.93	0.0006407
3732.58	0.0005567
3742.22	0.0004003
3751.86	0.000252
3761.51	0.00044572
3771.15	0.00049891
3780.8	0.0006099
3790.44	0.000445238
3800.09	0.000233
3809.73	0.000239
3819.38	0.0003781
3829.02	5e-05
3838.67	0.000196
3848.31	0.000226
3857.96	0.000136
3867.6	0.00028
3877.25	0.000302
3886.89	0.00051653
3896.54	0.0003559
3906.18	0.00050059
3915.83	0.00051134
3925.47	0.000289
3935.12	0.0005095
3944.76	0.0006667
3954.41	0.00043138
3964.05	0.000397
3973.69	0.000234
3983.34	0.000336
3992.98	0.0003455
