Infrared Spectrum: 2-Norbornen-7-ol, acetate, anti-
Formula: C9 H12 O2
CAS: 13426-55-6
State: LIQUID (NEAT)
Class: COBLENTZ III
Instrument: BECKMAN IR-4 (GRATING)
Sampling: TRANSMISSION
Path length: FILM
Resolution: 2
Origin: SCIENTIFIC DOCUMENTATION CENTER - P.S. DAVISON
1/CM	TRANSMITTANCE
626	0.5346
635	0.5768
644	0.6062
653	0.6092
662	0.6174
671	0.6781
680	0.6978
689	0.7535
698	0.7439
707	0.5561
716	0.1751
725	0.5038
734	0.741
743	0.8395
752	0.8727
761	0.8708
770	0.7869
779	0.9082
788	0.9142
797	0.8742
806	0.9015
815	0.9142
824	0.8719
833	0.7283
842	0.8746
851	0.9203
860	0.9188
869	0.8798
878	0.6424
887	0.8823
896	0.8155
905	0.822
914	0.6795
923	0.6142
932	0.8566
941	0.8905
950	0.8953
959	0.8309
968	0.8792
977	0.8872
986	0.8446
995	0.7717
1004	0.8035
1013	0.7717
1022	0.6337
1031	0.3392
1040	0.0947
1049	0.0523
1058	0.1819
1067	0.4941
1076	0.6889
1085	0.7412
1094	0.6885
1103	0.8129
1112	0.8251
1121	0.8003
1130	0.4591
1139	0.8415
1148	0.8463
1157	0.794
1166	0.7692
1175	0.7474
1184	0.7478
1193	0.6776
1202	0.6083
1211	0.4839
1220	0.3424
1229	0.0627
1238	0.0165
1247	0.0201
1256	0.1032
1265	0.3757
1274	0.4885
1283	0.7277
1292	0.7947
1301	0.6744
1310	0.6689
1319	0.8073
1328	0.7293
1337	0.6237
1346	0.5946
1355	0.6378
1364	0.4702
1373	0.2058
1382	0.509
1391	0.7591
1400	0.8236
1409	0.8294
1418	0.7976
1427	0.7352
1436	0.7254
1445	0.7207
1454	0.7475
1463	0.8008
1472	0.8723
1481	0.8799
1490	0.8967
1499	0.8889
1508	0.9134
1517	0.9095
1526	0.9094
1535	0.9102
1544	0.9056
1553	0.9015
1562	0.8848
1571	0.8723
1580	0.8936
1589	0.8887
1598	0.8922
1607	0.8966
1616	0.8872
1625	0.8693
1634	0.8664
1643	0.8577
1652	0.8777
1661	0.8663
1670	0.8718
1679	0.8505
1688	0.8285
1697	0.7625
1706	0.7495
1715	0.586
1724	0.3622
1733	0.0768
1742	0.0357
1751	0.25
1760	0.5319
1769	0.6874
1778	0.6865
1787	0.671
1796	0.7955
1805	0.8471
1814	0.8676
1823	0.8837
1832	0.8992
1841	0.9112
1850	0.9228
1859	0.923
1868	0.9234
1877	0.9228
1886	0.9258
1895	0.9296
1904	0.9313
1913	0.9326
1922	0.9339
1931	0.9348
1940	0.933
1949	0.9294
1958	0.9258
1967	0.9283
1976	0.931
1985	0.9326
1994	0.9344
2003	0.9356
2012	0.9368
2021	0.938
2030	0.9355
2039	0.9324
2048	0.9302
2057	0.9286
2066	0.9282
2075	0.929
2084	0.9297
2093	0.93
2102	0.9301
2111	0.9294
2120	0.9278
2129	0.9226
2138	0.9161
2147	0.9121
2156	0.9159
2165	0.9252
2174	0.9296
2183	0.932
2192	0.933
2201	0.9334
2210	0.9337
2219	0.9341
2228	0.9344
2237	0.9338
2246	0.9326
2255	0.9304
2264	0.9274
2273	0.9254
2282	0.9265
2291	0.9288
2300	0.9313
2309	0.9342
2318	0.9354
2327	0.9363
2336	0.9369
2345	0.94
2354	0.9461
2363	0.9482
2372	0.9466
2381	0.9442
2390	0.9372
2399	0.9358
2408	0.9359
2417	0.9358
2426	0.9356
2435	0.9341
2444	0.9325
2453	0.9283
2462	0.9248
2471	0.926
2480	0.9283
2489	0.9321
2498	0.9357
2507	0.9391
2516	0.94
2525	0.9398
2534	0.9381
2543	0.9368
2552	0.9355
2561	0.9344
2570	0.9337
2579	0.9331
2588	0.9324
2597	0.9323
2606	0.9324
2615	0.9325
2624	0.9326
2633	0.9326
2642	0.9325
2651	0.9324
2660	0.9323
2669	0.9321
2678	0.9317
2687	0.931
2696	0.9305
2705	0.9299
2714	0.9291
2723	0.9283
2732	0.9276
2741	0.9279
2750	0.9283
2759	0.9292
2768	0.9301
2777	0.9305
2786	0.9297
2795	0.9288
2804	0.9266
2813	0.9238
2822	0.918
2831	0.9111
2840	0.8983
2849	0.8297
2858	0.7566
2867	0.6842
2876	0.7008
2885	0.7512
2894	0.7991
2903	0.7721
2912	0.7289
2921	0.7129
2930	0.6184
2939	0.4754
2948	0.3477
2957	0.3021
2966	0.2875
2975	0.2597
2984	0.2608
2993	0.3498
3002	0.4642
3011	0.5779
3020	0.691
3029	0.8034
3038	0.8206
3047	0.7989
3056	0.7662
3065	0.7366
3074	0.7664
3083	0.8484
3092	0.8826
3101	0.8925
3110	0.895
3119	0.8936
3128	0.8917
3137	0.8902
3146	0.891
3155	0.9018
3164	0.9127
3173	0.9139
3182	0.9142
3191	0.9138
3200	0.9133
3209	0.9127
3218	0.9119
3227	0.9114
3236	0.911
3245	0.9115
3254	0.9122
3263	0.9128
3272	0.9133
3281	0.9139
3290	0.9139
3299	0.9137
3308	0.9135
3317	0.9129
3326	0.9121
3335	0.9114
3344	0.9107
3353	0.9099
3362	0.909
3371	0.9082
3380	0.9074
3389	0.9065
3398	0.9053
3407	0.904
3416	0.9025
3425	0.9004
3434	0.8984
3443	0.8954
3452	0.8904
3461	0.8873
3470	0.8859
3479	0.8897
3488	0.8945
3497	0.8989
3506	0.8994
3515	0.8999
3524	0.9002
3533	0.9005
3542	0.9004
3551	0.9002
3560	0.9
3569	0.8997
3578	0.8995
3587	0.8993
3596	0.8992
3605	0.8991
3614	0.8992
3623	0.8993
3632	0.8994
3641	0.8995
3650	0.8996
3659	0.8999
3668	0.9012
3677	0.9033
3686	0.9056
3695	0.9076
3704	0.9086
3713	0.9096
3722	0.9105
3731	0.9122
3740	0.914
3749	0.9149
3758	0.9149
3767	0.9134
3776	0.9115
3785	0.9095
3794	0.9075
3803	0.9057
3812	0.9052
3821	0.905
3830	0.9049
3839	0.9055
3848	0.9063
3857	0.9073
3866	0.9083
3875	0.9086
3884	0.9085
3893	0.9085
3902	0.9084
3911	0.9083
3920	0.908
3929	0.9076
3938	0.9073
3947	0.9067
3956	0.9058
3965	0.9049
3974	0.9039
3983	0.9031
3992	0.9021
