Infrared Spectrum: 4-Chloro-2-iodobenzoic acid
Formula: C 7 H 4 Cl I O 2
CAS: 13421-13-1
State: gas
Origin: EPA-IR VAPOR PHASE LIBRARY
1/CM	ABSORBANCE
549.8	0.0137
559.445	0.01307
569.09	0.01336
578.734	0.01297
588.379	0.00873
598.024	0.00699
607.669	0.00541
617.313	0.00347
626.958	0.00273
636.603	0.00215
646.248	0.003
655.893	0.00395
665.537	0.00408
675.182	0.00792
684.827	0.02534
694.472	0.01936
704.116	0.00491
713.761	0.00229
723.406	0.00167
733.051	0.00162
742.695	0.00265
752.34	0.0049
761.985	0.01039
771.63	0.01639
781.275	0.0133
790.919	0.02127
800.564	0.03399
810.209	0.01567
819.854	0.00815
829.498	0.01119
839.143	0.00677
848.788	0.00283
858.433	0.00237
868.078	0.00492
877.722	0.00773
887.367	0.00297
897.012	0.00144
906.657	0.0012556
916.301	0.0012079
925.946	0.0014395
935.591	0.0013271
945.236	0.0013311
954.88	0.0013892
964.525	0.0016
974.17	0.00164
983.815	0.00172
993.46	0.00223
1003.1	0.00348
1012.75	0.00911
1022.39	0.03598
1032.04	0.03435
1041.68	0.00892
1051.33	0.00751
1060.97	0.01133
1070.62	0.01739
1080.26	0.03652
1089.91	0.06658
1099.55	0.06783
1109.2	0.05091
1118.84	0.02548
1128.49	0.01294
1138.13	0.01415
1147.78	0.01472
1157.42	0.0138
1167.07	0.02317
1176.71	0.04755
1186.36	0.04515
1196	0.01941
1205.64	0.0122
1215.29	0.00958
1224.93	0.00846
1234.58	0.00812
1244.22	0.00873
1253.87	0.01004
1263.51	0.01095
1273.16	0.01167
1282.8	0.01084
1292.45	0.0122
1302.09	0.01602
1311.74	0.01882
1321.38	0.02104
1331.03	0.01956
1340.67	0.01365
1350.32	0.01529
1359.96	0.0201
1369.61	0.01816
1379.25	0.01861
1388.9	0.01301
1398.54	0.00624
1408.18	0.00405
1417.83	0.00325
1427.47	0.00308
1437.12	0.00398
1446.76	0.00607
1456.41	0.01053
1466.05	0.01954
1475.7	0.01049
1485.34	0.0039
1494.99	0.00315
1504.63	0.00273
1514.28	0.00321
1523.92	0.00401
1533.57	0.00623
1543.21	0.01279
1552.86	0.01548
1562.5	0.01715
1572.15	0.04697
1581.79	0.04642
1591.44	0.01107
1601.08	0.00625
1610.73	0.00473
1620.37	0.00342
1630.01	0.00242
1639.66	0.00176
1649.3	0.00171
1658.95	0.00208
1668.59	0.00226
1678.24	0.00217
1687.88	0.00262
1697.53	0.00344
1707.17	0.00498
1716.82	0.0081
1726.46	0.0146
1736.11	0.0237
1745.75	0.03803
1755.4	0.06658
1765.04	0.11438
1774.69	0.07858
1784.33	0.03233
1793.98	0.02662
1803.62	0.01252
1813.27	0.0055
1822.91	0.00336
1832.55	0.00241
1842.2	0.00183
1851.84	0.00166
1861.49	0.0018
1871.13	0.0018
1880.78	0.00171
1890.42	0.00166
1900.07	0.00206
1909.71	0.00207
1919.36	0.00152
1929	0.0011142
1938.65	0.0008356
1948.29	0.0007529
1957.94	0.0007791
1967.58	0.0008891
1977.23	0.0011806
1986.87	0.0010944
1996.52	0.0008638
2006.16	0.0007263
2015.81	0.0007097
2025.45	0.0006849
2035.1	0.0006923
2044.74	0.0006884
2054.38	0.0006108
2064.03	0.0006978
2073.67	0.000677
2083.32	0.000672
2092.96	0.0006403
2102.61	0.0006858
2112.25	0.0007313
2121.9	0.0008448
2131.54	0.0006853
2141.19	0.0007689
2150.83	0.0007669
2160.48	0.0008387
2170.12	0.0008884
2179.77	0.0008467
2189.41	0.0007657
2199.06	0.0008211
2208.7	0.0006992
2218.35	0.000688
2227.99	0.00053977
2237.64	0.0005762
2247.28	0.0006006
2256.92	0.0007157
2266.57	0.000678
2276.21	0.0008102
2285.86	0.0007761
2295.5	0.0007596
2305.15	0.0007857
2314.79	0.0007136
2324.44	0.0007547
2334.08	0.0007946
2343.73	0.0008849
2353.37	0.0009418
2363.02	0.0009962
2372.66	0.0009755
2382.31	0.0008323
2391.95	0.0008775
2401.6	0.0008962
2411.24	0.0008061
2420.89	0.0008529
2430.53	0.0007495
2440.18	0.0007978
2449.82	0.0007514
2459.47	0.0007133
2469.11	0.0006214
2478.75	0.0006789
2488.4	0.0007386
2498.04	0.0008759
2507.69	0.0007429
2517.33	0.0009235
2526.98	0.0008027
2536.62	0.0007231
2546.27	0.0006537
2555.91	0.0006775
2565.56	0.0006681
2575.2	0.00052807
2584.85	0.0005549
2594.49	0.0006052
2604.14	0.0006398
2613.78	0.0005672
2623.43	0.0005894
2633.07	0.0006002
2642.72	0.0006868
2652.36	0.0005613
2662.01	0.0007216
2671.65	0.00049354
2681.29	0.00053673
2690.94	0.00047307
2700.58	0.0005721
2710.23	0.0005255
2719.87	0.0006114
2729.52	0.0005915
2739.16	0.0003694
2748.81	0.0004066
2758.45	0.0005421
2768.1	0.0006167
2777.74	0.0005983
2787.39	0.00053259
2797.03	0.00049638
2806.68	0.0005516
2816.32	0.0006495
2825.97	0.0005904
2835.61	0.00052016
2845.26	0.00051916
2854.9	0.0006997
2864.55	0.0006033
2874.19	0.0003603
2883.84	0.0005688
2893.48	0.000443585
2903.12	0.000440928
2912.77	0.00047774
2922.41	0.0006425
2932.06	0.00047563
2941.7	0.000440312
2951.35	0.000292
2960.99	0.0003938
2970.64	0.0005489
2980.28	0.0005573
2989.93	0.00045783
2999.57	0.0007784
3009.22	0.0006509
3018.86	0.0006716
3028.51	0.0006077
3038.15	0.00048842
3047.8	0.00045215
3057.44	0.0005817
3067.09	0.0010159
3076.73	0.0013912
3086.38	0.0013394
3096.02	0.0010193
3105.67	0.0006424
3115.31	0.0005881
3124.95	0.0005983
3134.6	0.00051757
3144.24	0.0004095
3153.89	0.0003808
3163.53	0.0003883
3173.18	0.00051471
3182.82	0.00048844
3192.47	0.000272
3202.11	0.000331
3211.76	0.00047736
3221.4	0.000241
3231.05	0.00018
3240.69	0.0003902
3250.34	0.0004278
3259.98	0.000314
3269.63	0.0003502
3279.27	0.00045149
3288.92	0.000321
3298.56	0.0003461
3308.21	0.000337
3317.85	0.000237
3327.49	0.000298
3337.14	0.0004619
3346.78	0.0005761
3356.43	0.000147
3366.07	0.00050152
3375.72	0.000348
3385.36	0.0003996
3395.01	0.000319
3404.65	0.000226
3414.3	0.000269
3423.94	0.000299
3433.59	0.00048765
3443.23	0.0005085
3452.88	0.0005556
3462.52	0.0006937
3472.17	0.0009415
3481.81	0.0009422
3491.46	0.0013885
3501.1	0.00144
3510.75	0.00154
3520.39	0.00165
3530.04	0.00189
3539.68	0.00233
3549.32	0.00382
3558.97	0.01605
3568.61	0.0429
3578.26	0.03514
3587.9	0.01468
3597.55	0.00304
3607.19	0.00167
3616.84	0.0012321
3626.48	0.0010056
3636.13	0.000855
3645.77	0.0006488
3655.42	0.0006743
3665.06	0.0005951
3674.71	0.00051251
3684.35	0.00050639
3694	0.0005654
3703.64	0.0003957
3713.29	0.000246
3722.93	0.0003877
3732.58	0.0005902
3742.22	0.0004192
3751.86	0.00049751
3761.51	0.000308
3771.15	0.0003999
3780.8	0.0003984
3790.44	0.0003413
3800.09	0.0003536
3809.73	0.0004282
3819.38	0
3829.02	0.000242
3838.67	0.000283
3848.31	0.0004176
3857.96	0.0004236
3867.6	0.0005714
3877.25	0.000287
3886.89	0.00051872
3896.54	0.00052964
3906.18	0.00043586
3915.83	0.000299
3925.47	0.00018
3935.12	0.0003602
3944.76	0.0003762
3954.41	0.000217
3964.05	0.000258
3973.69	0.000322
3983.34	0.0004091
3992.98	0.000325
