Infrared Spectrum: THIOSEMICARBAZIDE, 4-ETHYL-
Formula: C3 H9 N3 S
CAS: 13431-34-0
State: SOLID (SPLIT MULL, FLUOROLUBE FOR 3800-1330 AND NUJOL FOR 1330-460 CM ^-^1)
Class: COBLENTZ III
Instrument: DOW KBr FOREPRISM-GRATING
Instrument parameters: BLAZED AT 3.5, 12.0, 20.0 MICRON, CHANGED AT 5.0, 7.5, 14.9 MICRON
Sampling: TRANSMISSION
Resolution: 4
Origin: DOW CHEMICAL COMPANY
1/CM	TRANSMITTANCE
454.202	0.917
463.306	0.925
472.409	0.945
481.513	0.955
490.617	0.947
499.72	0.934
508.824	0.918
517.928	0.891
527.031	0.85
536.135	0.784
545.239	0.675
554.342	0.515
563.446	0.394
572.55	0.336
581.653	0.458
590.757	0.586
599.861	0.511
608.964	0.562
618.068	0.686
627.172	0.8
636.275	0.87
645.379	0.913
654.483	0.933
663.586	0.945
672.69	0.954
681.794	0.955
690.897	0.941
700.001	0.914
709.105	0.92
718.208	0.897
727.312	0.924
736.416	0.934
745.519	0.935
754.623	0.913
763.727	0.817
772.83	0.5249
781.934	0.752
791.038	0.915
800.141	0.888
809.245	0.896
818.349	0.958
827.452	0.972
836.556	0.98
845.66	0.978
854.763	0.975
863.867	0.965
872.971	0.955
882.074	0.937
891.178	0.907
900.282	0.864
909.385	0.769
918.489	0.6329
927.593	0.3639
936.696	0.296
945.8	0.7461
954.904	0.934
964.007	0.878
973.111	0.541
982.215	0.6311
991.318	0.871
1000.42	0.908
1009.53	0.92
1018.63	0.915
1027.73	0.826
1036.84	0.4709
1045.94	0.8581
1055.04	0.914
1064.15	0.91
1073.25	0.863
1082.36	0.7269
1091.46	0.7491
1100.56	0.843
1109.67	0.833
1118.77	0.823
1127.87	0.816
1136.98	0.783
1146.08	0.752
1155.18	0.7089
1164.29	0.326
1173.39	0.66
1182.5	0.678
1191.6	0.643
1200.7	0.612
1209.81	0.589
1218.91	0.555
1228.01	0.502
1237.12	0.45
1246.22	0.384
1255.32	0.296
1264.43	0.203
1273.53	0.165
1282.64	0.217
1291.74	0.458
1300.84	0.522
1309.95	0.492
1319.05	0.424
1328.15	0.5281
1337.26	0.612
1346.36	0.655
1355.47	0.71
1364.57	0.707
1373.67	0.663
1382.78	0.703
1391.88	0.749
1400.98	0.752
1410.09	0.753
1419.19	0.75
1428.29	0.733
1437.4	0.695
1446.5	0.592
1455.61	0.633
1464.71	0.609
1473.81	0.373
1482.92	0.66
1492.02	0.555
1501.12	0.333
1510.23	0.4922
1519.33	0.562
1528.43	0.427
1537.54	0.2249
1546.64	0.169
1555.75	0.3311
1564.85	0.6651
1573.95	0.8441
1583.06	0.9
1592.16	0.903
1601.26	0.876
1610.37	0.834
1619.47	0.7169
1628.58	0.4678
1637.68	0.4913
1646.78	0.853
1655.89	0.921
1664.99	0.94
1674.09	0.94
1683.2	0.934
1692.3	0.928
1701.4	0.925
1710.51	0.92
1719.61	0.917
1728.72	0.915
1737.82	0.913
1746.92	0.908
1756.03	0.911
1765.13	0.907
1774.23	0.904
1783.34	0.901
1792.44	0.9
1801.55	0.898
1810.65	0.894
1819.75	0.893
1828.86	0.89
1837.96	0.887
1847.06	0.884
1856.17	0.88
1865.27	0.878
1874.37	0.88
1883.48	0.878
1892.58	0.878
1901.69	0.873
1910.79	0.871
1919.89	0.871
1929	0.867
1938.1	0.864
1947.2	0.864
1956.31	0.861
1965.41	0.86
1974.51	0.856
1983.62	0.854
1992.72	0.853
2001.83	0.858
2010.93	0.854
2020.03	0.853
2029.14	0.851
2038.24	0.85
2047.34	0.847
2056.45	0.844
2065.55	0.841
2074.66	0.839
2083.76	0.834
2092.86	0.833
2101.97	0.8293
2111.07	0.826
2120.17	0.823
2129.28	0.821
2138.38	0.8202
2147.48	0.816
2156.59	0.813
2165.69	0.809
2174.8	0.8032
2183.9	0.799
2193	0.7945
2202.11	0.79
2211.21	0.7839
2220.31	0.7769
2229.42	0.7706
2238.52	0.764
2247.62	0.7563
2256.73	0.7507
2265.83	0.7454
2274.94	0.7424
2284.04	0.74
2293.14	0.736
2302.25	0.7308
2311.35	0.7264
2320.45	0.726
2329.56	0.725
2338.66	0.725
2347.77	0.726
2356.87	0.728
2365.97	0.729
2375.08	0.729
2384.18	0.7281
2393.28	0.726
2402.39	0.725
2411.49	0.723
2420.59	0.723
2429.7	0.722
2438.8	0.722
2447.91	0.72
2457.01	0.719
2466.11	0.7183
2475.22	0.716
2484.32	0.716
2493.42	0.715
2502.53	0.7127
2511.63	0.71
2520.73	0.7084
2529.84	0.706
2538.94	0.703
2548.05	0.6987
2557.15	0.695
2566.25	0.6928
2575.36	0.6888
2584.46	0.685
2593.56	0.682
2602.67	0.678
2611.77	0.676
2620.88	0.675
2629.98	0.6717
2639.08	0.668
2648.19	0.665
2657.29	0.6629
2666.39	0.6588
2675.5	0.653
2684.6	0.6549
2693.7	0.6519
2702.81	0.6449
2711.91	0.635
2721.02	0.631
2730.12	0.621
2739.22	0.616
2748.33	0.609
2757.43	0.602
2766.53	0.5921
2775.64	0.591
2784.74	0.591
2793.84	0.5881
2802.95	0.5841
2812.05	0.5751
2821.16	0.5654
2830.26	0.5611
2839.36	0.5499
2848.47	0.5442
2857.57	0.5255
2866.67	0.5018
2875.78	0.478
2884.88	0.482
2893.99	0.4893
2903.09	0.492
2912.19	0.472
2921.3	0.4473
2930.4	0.4278
2939.5	0.424
2948.61	0.444
2957.71	0.417
2966.81	0.3739
2975.92	0.3111
2985.02	0.3866
2994.13	0.5175
3003.23	0.5365
3012.33	0.5344
3021.44	0.5228
3030.54	0.5043
3039.64	0.4846
3048.75	0.4744
3057.85	0.46
3066.96	0.4459
3076.06	0.4304
3085.16	0.416
3094.27	0.397
3103.37	0.3795
3112.47	0.3516
3121.58	0.3435
3130.68	0.3377
3139.78	0.321
3148.89	0.291
3157.99	0.2437
3167.1	0.2054
3176.2	0.1715
3185.3	0.1249
3194.41	0.1241
3203.51	0.1937
3212.61	0.2897
3221.72	0.3714
3230.82	0.4395
3239.92	0.4635
3249.03	0.4664
3258.13	0.4472
3267.24	0.3944
3276.34	0.2983
3285.44	0.2507
3294.55	0.412
3303.65	0.6222
3312.75	0.629
3321.86	0.5994
3330.96	0.4975
3340.07	0.3798
3349.17	0.3194
3358.27	0.7647
3367.38	0.7558
3376.48	0.7448
3385.58	0.736
3394.69	0.7288
3403.79	0.723
3412.89	0.7189
3422	0.71
3431.1	0.7
3440.21	0.693
3449.31	0.686
3458.41	0.679
3467.52	0.675
3476.62	0.669
3485.72	0.665
3494.83	0.6592
3503.93	0.655
3513.03	0.6491
3522.14	0.6451
3531.24	0.6411
3540.35	0.639
3549.45	0.636
3558.55	0.632
3567.66	0.629
3576.76	0.625
3585.86	0.622
3594.97	0.621
3604.07	0.618
3613.18	0.613
3622.28	0.6095
3631.38	0.606
3640.49	0.6035
3649.59	0.602
3658.69	0.5983
3667.8	0.596
3676.9	0.594
3686	0.591
3695.11	0.589
3704.21	0.588
3713.32	0.5844
3722.42	0.5814
3731.52	0.5784
3740.63	0.576
3749.73	0.575
3758.83	0.572
3767.94	0.569
3777.04	0.566
3786.14	0.5629
3795.25	0.562
