Infrared Spectrum: N-(3-Methylbutyl)acetamide
Formula: C 7 H 15 N O
CAS: 13434-12-3
State: gas
Origin: EPA-IR VAPOR PHASE LIBRARY
1/CM	ABSORBANCE
549.8	0.001468
559.445	0.001188
569.09	0.0008207
578.734	0.0009607
588.379	0.0008764
598.024	0.0008131
607.669	0.000895
617.313	0.001578
626.958	0.001488
636.603	0.0010034
646.248	0.0011186
655.893	0.0005895
665.537	0.0006787
675.182	0.0002779
684.827	0.000482
694.472	0.0005205
704.116	0.0006668
713.761	0.000768
723.406	0.0006976
733.051	0.0004889
742.695	0.0007736
752.34	0.0010222
761.985	0.001188
771.63	0.0010274
781.275	0.001208
790.919	0.001358
800.564	0.001378
810.209	0.001588
819.854	0.001678
829.498	0.001678
839.143	0.001328
848.788	0.001368
858.433	0.001168
868.078	0.001168
877.722	0.001178
887.367	0.001258
897.012	0.001388
906.657	0.001158
916.301	0.001378
925.946	0.001378
935.591	0.001408
945.236	0.001198
954.88	0.001418
964.525	0.001738
974.17	0.001398
983.815	0.0010297
993.46	0.001228
1003.1	0.001298
1012.75	0.001358
1022.39	0.001248
1032.04	0.0010908
1041.68	0.001238
1051.33	0.0011027
1060.97	0.000957
1070.62	0.001598
1080.26	0.001778
1089.91	0.002148
1099.55	0.002428
1109.2	0.002158
1118.84	0.001538
1128.49	0.001668
1138.13	0.001438
1147.78	0.001788
1157.42	0.001858
1167.07	0.001988
1176.71	0.002358
1186.36	0.001888
1196	0.001808
1205.64	0.003598
1215.29	0.005278
1224.93	0.007738
1234.58	0.011688
1244.22	0.015858
1253.87	0.014528
1263.51	0.009938
1273.16	0.006948
1282.8	0.005518
1292.45	0.004618
1302.09	0.004458
1311.74	0.004398
1321.38	0.004038
1331.03	0.003388
1340.67	0.003688
1350.32	0.005088
1359.96	0.008438
1369.61	0.010328
1379.25	0.008218
1388.9	0.006518
1398.54	0.004988
1408.18	0.004088
1417.83	0.004268
1427.47	0.005688
1437.12	0.007708
1446.76	0.009488
1456.41	0.011448
1466.05	0.014678
1475.7	0.019208
1485.34	0.024838
1494.99	0.028338
1504.63	0.024548
1514.28	0.016198
1523.92	0.009818
1533.57	0.006308
1543.21	0.004088
1552.86	0.003078
1562.5	0.002278
1572.15	0.001858
1581.79	0.001558
1591.44	0.001528
1601.08	0.001238
1610.73	0.001148
1620.37	0.001198
1630.01	0.001338
1639.66	0.001528
1649.3	0.001928
1658.95	0.002628
1668.59	0.003748
1678.24	0.005578
1687.88	0.009698
1697.53	0.018898
1707.17	0.034898
1716.82	0.040548
1726.46	0.028288
1736.11	0.013348
1745.75	0.006228
1755.4	0.003488
1765.04	0.002178
1774.69	0.001558
1784.33	0.001198
1793.98	0.0008868
1803.62	0.0007261
1813.27	0.0006399
1822.91	0.0005669
1832.55	0.0005091
1842.2	0.0005357
1851.84	0.0005171
1861.49	0.0005457
1871.13	0.0004824
1880.78	0.0004466
1890.42	0.0004508
1900.07	0.0005069
1909.71	0.0004873
1919.36	0.0004852
1929	0.0003698
1938.65	0.0004348
1948.29	0.0004026
1957.94	0.0003609
1967.58	0.0004564
1977.23	0.0004807
1986.87	0.000456
1996.52	0.0004557
2006.16	0.0004521
2015.81	0.0003982
2025.45	0.0003627
2035.1	0.0003854
2044.74	0.0004247
2054.38	0.0004296
2064.03	0.0004258
2073.67	0.0003991
2083.32	0.000343
2092.96	0.000393
2102.61	0.0003478
2112.25	0.0003865
2121.9	0.0003551
2131.54	0.0003668
2141.19	0.0004149
2150.83	0.0003781
2160.48	0.0003183
2170.12	0.0003835
2179.77	0.0003791
2189.41	0.000348
2199.06	0.0004388
2208.7	0.0003018
2218.35	0.0003992
2227.99	0.0004042
2237.64	0.0003182
2247.28	0.0004435
2256.92	0.0003557
2266.57	0.0004057
2276.21	0.0004282
2285.86	0.0003558
2295.5	0.0003926
2305.15	0.0004339
2314.79	0.0004252
2324.44	0.0004357
2334.08	0.0003559
2343.73	0.0003566
2353.37	0.0003062
2363.02	0.0004087
2372.66	0.0004242
2382.31	0.0003839
2391.95	0.0003992
2401.6	0.0004117
2411.24	0.0003551
2420.89	0.000386
2430.53	0.000352
2440.18	0.0003703
2449.82	0.0003289
2459.47	0.000327
2469.11	0.0003851
2478.75	0.0003955
2488.4	0.000383
2498.04	0.0003217
2507.69	0.000419
2517.33	0.0003993
2526.98	0.0003439
2536.62	0.0003326
2546.27	0.000389
2555.91	0.0004578
2565.56	0.0003367
2575.2	0.0004337
2584.85	0.0004565
2594.49	0.0004837
2604.14	0.0004354
2613.78	0.0005562
2623.43	0.0004962
2633.07	0.0004874
2642.72	0.0005549
2652.36	0.0004634
2662.01	0.0005667
2671.65	0.0005105
2681.29	0.0005909
2690.94	0.0004625
2700.58	0.0006684
2710.23	0.0008029
2719.87	0.0007104
2729.52	0.0008933
2739.16	0.0008177
2748.81	0.0008699
2758.45	0.0007104
2768.1	0.0007881
2777.74	0.0008352
2787.39	0.0007502
2797.03	0.0010445
2806.68	0.0010946
2816.32	0.001318
2825.97	0.001678
2835.61	0.002158
2845.26	0.003178
2854.9	0.004538
2864.55	0.006058
2874.19	0.008618
2883.84	0.010368
2893.48	0.010658
2903.12	0.011728
2912.77	0.014068
2922.41	0.015648
2932.06	0.016798
2941.7	0.017508
2951.35	0.019158
2960.99	0.024858
2970.64	0.023398
2980.28	0.012608
2989.93	0.005688
2999.57	0.003458
3009.22	0.002538
3018.86	0.002028
3028.51	0.001808
3038.15	0.001578
3047.8	0.001448
3057.44	0.001448
3067.09	0.001328
3076.73	0.0010836
3086.38	0.0010779
3096.02	0.0007967
3105.67	0.0008497
3115.31	0.0007626
3124.95	0.0006587
3134.6	0.0006609
3144.24	0.0005678
3153.89	0.0006526
3163.53	0.0005958
3173.18	0.000587
3182.82	0.0006952
3192.47	0.0005566
3202.11	0.0003616
3211.76	0.000396
3221.4	0.0004066
3231.05	0.0004832
3240.69	0.0003733
3250.34	0.0005552
3259.98	0.0003048
3269.63	0.000385
3279.27	0.000323
3288.92	0.0005207
3298.56	0.0002886
3308.21	0.000376
3317.85	0.0004184
3327.49	0.0003979
3337.14	0.0004028
3346.78	0.0003574
3356.43	0.0004194
3366.07	0.0003745
3375.72	0.0004245
3385.36	0.0005804
3395.01	0.0006512
3404.65	0.0010339
3414.3	0.001005
3423.94	0.0009697
3433.59	0.0009486
3443.23	0.001198
3452.88	0.001588
3462.52	0.001978
3472.17	0.002458
3481.81	0.002058
3491.46	0.001648
3501.1	0.0009302
3510.75	0.0006688
3520.39	0.0005503
3530.04	0.0003528
3539.68	0.0003197
3549.32	0.0004032
3558.97	0.0004139
3568.61	0.0002674
3578.26	0.0001274
3587.9	0.00022566
3597.55	0.000265
3607.19	0.000140017
3616.84	0.0002803
3626.48	0.00017006
3636.13	0.00023494
3645.77	0.00020418
3655.42	0.00019666
3665.06	0.0003232
3674.71	0.0002827
3684.35	9.05e-05
3694	0.0002686
3703.64	0.00018136
3713.29	0.0001304
3722.93	0.00016057
3732.58	0.0002604
3742.22	0.00015481
3751.86	0.000301
3761.51	0.0003685
3771.15	0.0002486
3780.8	0.0003046
3790.44	0.00023468
3800.09	0.00020591
3809.73	0.0001108
3819.38	0.0002488
3829.02	0.00016946
3838.67	0.000144268
3848.31	0.0003244
3857.96	0.0003517
3867.6	0.0003894
3877.25	0.0003712
3886.89	0.00015498
3896.54	0.0002436
3906.18	0.00013678
3915.83	0.0002458
3925.47	0.00021778
3935.12	0.0003129
3944.76	0.0002932
3954.41	0.00021653
3964.05	0.0003288
3973.69	0.0002435
3983.34	0.000315
3992.98	0.00019088
