Infrared Spectrum: 2,4-Dimethyl-3-hexanol
Formula: C 8 H 18 O
CAS: 13432-25-2
State: gas
Instrument: HP-GC/MS/IRD
Origin: NIST Mass Spectrometry Data Center
1/CM	ABSORBANCE
550	0
562	0.0002314
574	0.0001508
586	0.000182
598	0.0002756
610	0.0003692
622	0.000377
634	0.0003588
646	0.000351
658	0.0003146
670	0.0003042
682	0.0002574
694	0.0002236
706	0.0002158
718	0.0002236
730	0.0002184
742	0.00026
754	0.0003432
766	0.000533
778	0.0005356
790	0.0004602
802	0.0004342
814	0.0004576
826	0.0006136
838	0.0005668
850	0.000442
862	0.0003952
874	0.0004056
886	0.0005044
898	0.000572
910	0.0006214
922	0.000819
934	0.0013988
946	0.002171
958	0.0030498
970	0.0041548
982	0.0055666
994	0.0057148
1006	0.0041054
1018	0.0026364
1030	0.0019214
1042	0.0014248
1054	0.001248
1066	0.0014144
1078	0.0018616
1090	0.002327
1102	0.0024024
1114	0.0020176
1126	0.0017966
1138	0.0020254
1150	0.0022828
1162	0.0020904
1174	0.0016328
1186	0.0013
1198	0.0013364
1210	0.0016718
1222	0.0019578
1234	0.002054
1246	0.001898
1258	0.0017472
1270	0.0016328
1282	0.0015626
1294	0.0014664
1306	0.001365
1318	0.0011804
1330	0.0012038
1342	0.0012376
1354	0.0017212
1366	0.0026468
1378	0.0038844
1390	0.0040508
1402	0.0024258
1414	0.0012714
1426	0.001053
1438	0.0013
1450	0.002444
1462	0.0038506
1474	0.0036192
1486	0.002028
1498	0.0009464
1510	0.0003536
1522	0.000338
1534	0.0003432
1546	0.0002574
1558	0.0001924
1570	0.0003432
1582	0.000338
1594	0.0003146
1606	0.000312
1618	0.0002834
1630	0.0002938
1642	0.000221
1654	0.0001248
1666	0.0002132
1678	0.0001508
1690	0.0001456
1702	6.5e-05
1714	6.76e-05
1726	0.0001352
1738	7.54e-05
1750	0
1762	9.1e-05
1774	8.58e-05
1786	7.02e-05
1798	9.1e-05
1810	0.0001404
1822	0.0001092
1834	0.0001222
1846	5.72e-05
1858	0.0001274
1870	0.0001092
1882	0.0001534
1894	0.000143
1906	0.0001612
1918	0.0001196
1930	0.0001664
1942	0.0001352
1954	0.0001638
1966	0.0001716
1978	0.0001846
1990	0.0001456
2002	0.0001716
2014	0.0001508
2026	0.0001586
2038	0.0001378
2050	0.0001612
2062	0.0001352
2074	0.0001638
2086	0.0001638
2098	0.0001508
2110	0.0001742
2122	0.0001664
2134	0.0001508
2146	0.000169
2158	0.0001716
2170	0.000169
2182	0.000169
2194	0.0001716
2206	0.0001846
2218	0.000169
2230	0.0001638
2242	0.0001534
2254	0.0001742
2266	0.0001638
2278	0.0001716
2290	0.0001742
2302	0.0001456
2314	0.0001222
2326	0.00013
2338	0.0001612
2350	0.0001664
2362	0.000156
2374	0.0001612
2386	0.0002158
2398	0.0002444
2410	0.0002444
2422	0.0002522
2434	0.0002522
2446	0.0002574
2458	0.000247
2470	0.000234
2482	0.0002496
2494	0.0002392
2506	0.0002288
2518	0.0002496
2530	0.000273
2542	0.000286
2554	0.000325
2566	0.000338
2578	0.0003744
2590	0.0004316
2602	0.0004264
2614	0.0004732
2626	0.000481
2638	0.0004784
2650	0.0004992
2662	0.0004914
2674	0.0005382
2686	0.000559
2698	0.000572
2710	0.000624
2722	0.0007176
2734	0.0008112
2746	0.0008632
2758	0.0008528
2770	0.0008788
2782	0.0009386
2794	0.0010296
2806	0.0012142
2818	0.0015002
2830	0.002054
2842	0.0030446
2854	0.0044486
2866	0.0068016
2878	0.010322
2890	0.0113074
2902	0.0105716
2914	0.011791
2926	0.0136526
2938	0.015106
2950	0.0160862
2962	0.0228904
2974	0.0247234
2986	0.013234
2998	0.0052676
3010	0.0025948
3022	0.0017264
3034	0.0013572
3046	0.0011596
3058	0.0010218
3070	0.0009126
3082	0.0008632
3094	0.0008138
3106	0.0007592
3118	0.0006864
3130	0.0006812
3142	0.0006552
3154	0.0006318
3166	0.0005824
3178	0.0005174
3190	0.000481
3202	0.0004238
3214	0.0003718
3226	0.0003302
3238	0.000312
3250	0.0002964
3262	0.0002678
3274	0.0002652
3286	0.0002678
3298	0.0002652
3310	0.0002314
3322	0.0002756
3334	0.0002652
3346	0.0002548
3358	0.0002548
3370	0.000286
3382	0.0002392
3394	0.00026
3406	0.0002392
3418	0.0002574
3430	0.0002834
3442	0.0002756
3454	0.0003042
3466	0.000312
3478	0.0002756
3490	0.00026
3502	0.0001976
3514	0.0002834
3526	0.0001794
3538	0.0002184
3550	0.0001768
3562	0.0001872
3574	0.0002548
3586	0.0001534
3598	0.000247
3610	0.000208
3622	0.0003952
3634	0.000663
3646	0.0009958
3658	0.001404
3670	0.0012818
3682	0.0008242
3694	0.000481
3706	0.0003302
3718	0.0002938
3730	0.0002392
3742	0.000221
3754	0.0002782
3766	0.0003172
3778	0.000325
3790	0.0003588
3802	0.0003432
3814	0.0003666
3826	0.0003536
3838	0.0003146
