Infrared Spectrum: N-Trimethylsilylacetamide
Formula: C 5 H 13 N O Si
CAS: 13435-12-6
State: gas
Origin: EPA-IR VAPOR PHASE LIBRARY
1/CM	ABSORBANCE
549.8	0.001281
559.445	0.001421
569.09	0.001651
578.735	0.001611
588.38	0.0009369
598.025	0.0004349
607.67	0.0004507
617.315	0.0007635
626.96	0.001193
636.605	0.001114
646.251	0.0006033
655.896	0.0006351
665.541	0.0007581
675.186	0.0012253
684.831	0.002241
694.476	0.003611
704.121	0.005011
713.766	0.005731
723.411	0.005561
733.056	0.004281
742.701	0.003271
752.346	0.003481
761.991	0.004211
771.636	0.004561
781.281	0.004281
790.926	0.004111
800.571	0.003911
810.216	0.004591
819.861	0.007261
829.507	0.013631
839.152	0.024821
848.797	0.034561
858.442	0.035331
868.087	0.029141
877.732	0.019711
887.377	0.011801
897.022	0.008041
906.667	0.006761
916.312	0.007901
925.957	0.010331
935.602	0.009421
945.247	0.005541
954.892	0.003031
964.537	0.002961
974.182	0.003821
983.827	0.004421
993.472	0.003911
1003.12	0.002641
1012.76	0.001891
1022.41	0.001901
1032.05	0.002041
1041.7	0.001951
1051.34	0.001731
1060.99	0.001731
1070.63	0.001651
1080.28	0.001951
1089.92	0.002611
1099.57	0.002851
1109.21	0.002211
1118.86	0.001551
1128.5	0.0011935
1138.15	0.0008806
1147.79	0.0007576
1157.44	0.0006978
1167.08	0.0008924
1176.73	0.001159
1186.37	0.001661
1196.02	0.002981
1205.66	0.004281
1215.31	0.005521
1224.95	0.006001
1234.6	0.006241
1244.24	0.009431
1253.89	0.015391
1263.53	0.016981
1273.18	0.012781
1282.82	0.008721
1292.47	0.006371
1302.11	0.004571
1311.76	0.003541
1321.4	0.003921
1331.05	0.004571
1340.69	0.005391
1350.34	0.006261
1359.98	0.007711
1369.63	0.010711
1379.27	0.018721
1388.92	0.035111
1398.56	0.050611
1408.21	0.050961
1417.85	0.035721
1427.5	0.021121
1437.14	0.012191
1446.79	0.007491
1456.43	0.005251
1466.08	0.004191
1475.73	0.003561
1485.37	0.003051
1495.02	0.002751
1504.66	0.002431
1514.31	0.002081
1523.95	0.001801
1533.6	0.001551
1543.24	0.001691
1552.89	0.001711
1562.53	0.001621
1572.18	0.001541
1581.82	0.001391
1591.47	0.001291
1601.11	0.0011897
1610.76	0.0012181
1620.4	0.001361
1630.05	0.001731
1639.69	0.002371
1649.34	0.002951
1658.98	0.003141
1668.63	0.003581
1678.27	0.006361
1687.92	0.014951
1697.56	0.026711
1707.21	0.030421
1716.85	0.021411
1726.5	0.010181
1736.14	0.004221
1745.79	0.002471
1755.43	0.001971
1765.08	0.001731
1774.72	0.001651
1784.37	0.001331
1794.01	0.001098
1803.66	0.0009685
1813.3	0.0008102
1822.95	0.0007246
1832.59	0.0006658
1842.24	0.0005917
1851.88	0.0005546
1861.53	0.000525
1871.17	0.0005139
1880.82	0.0005667
1890.46	0.0006042
1900.11	0.0005539
1909.75	0.0005262
1919.4	0.0005269
1929.04	0.0005002
1938.69	0.000524
1948.33	0.000587
1957.98	0.0006407
1967.62	0.0006054
1977.27	0.0006382
1986.91	0.0005548
1996.56	0.0005103
2006.2	0.0004821
2015.85	0.0004918
2025.49	0.0005042
2035.14	0.0005039
2044.78	0.0004531
2054.43	0.0004593
2064.07	0.0004545
2073.72	0.0004458
2083.36	0.000406
2093.01	0.0004843
2102.65	0.0005103
2112.3	0.0005198
2121.94	0.0005996
2131.59	0.0005489
2141.23	0.0005319
2150.88	0.0005052
2160.52	0.0005265
2170.17	0.0004664
2179.81	0.0004615
2189.46	0.000475
2199.1	0.0004998
2208.75	0.0004268
2218.39	0.0005217
2228.04	0.0004135
2237.68	0.0004404
2247.33	0.0003936
2256.97	0.0004061
2266.62	0.0003907
2276.26	0.0004909
2285.91	0.0004766
2295.55	0.0005233
2305.2	0.0005126
2314.84	0.0005032
2324.49	0.0005248
2334.13	0.0004924
2343.78	0.0004518
2353.42	0.0004666
2363.07	0.0005236
2372.72	0.0004466
2382.36	0.0004321
2392.01	0.0004341
2401.65	0.0003875
2411.3	0.00035713
2420.94	0.0003818
2430.59	0.0004454
2440.23	0.00032144
2449.88	0.0003735
2459.52	0.0004143
2469.17	0.0003622
2478.81	0.0004086
2488.46	0.0003959
2498.1	0.00036107
2507.75	0.00036874
2517.39	0.0004668
2527.04	0.0003665
2536.68	0.0003937
2546.33	0.0003794
2555.97	0.0003688
2565.62	0.000513
2575.26	0.0003856
2584.91	0.0004393
2594.55	0.0004874
2604.2	0.0005386
2613.84	0.0004782
2623.49	0.0004411
2633.13	0.0004181
2642.78	0.0004413
2652.42	0.00036186
2662.07	0.0004068
2671.71	0.00030533
2681.36	0.000279557
2691	0.000375
2700.65	0.00036783
2710.29	0.0003371
2719.94	0.00029304
2729.58	0.0003925
2739.23	0.0003933
2748.87	0.0004408
2758.52	0.0004642
2768.16	0.0005305
2777.81	0.000611
2787.45	0.0006772
2797.1	0.0007464
2806.74	0.0008409
2816.39	0.0008672
2826.03	0.0009822
2835.68	0.0009865
2845.32	0.0011547
2854.97	0.0011535
2864.61	0.0012461
2874.26	0.001471
2883.9	0.001861
2893.55	0.002661
2903.19	0.003491
2912.84	0.003681
2922.48	0.003201
2932.13	0.003131
2941.77	0.003921
2951.42	0.006181
2961.06	0.008441
2970.71	0.007491
2980.35	0.004571
2990	0.002691
2999.64	0.001821
3009.29	0.001581
3018.93	0.001621
3028.58	0.001791
3038.22	0.001641
3047.87	0.001571
3057.51	0.001521
3067.16	0.001411
3076.8	0.001431
3086.45	0.001301
3096.09	0.0010274
3105.74	0.0009163
3115.38	0.0007361
3125.03	0.0008587
3134.67	0.0006091
3144.32	0.0005073
3153.96	0.0004074
3163.61	0.0003958
3173.25	0.00035067
3182.9	0.00034082
3192.54	0.00032716
3202.19	0.00032378
3211.83	0.000239
3221.48	0.0003878
3231.12	0.0002156
3240.77	0.00031433
3250.41	0.00030619
3260.06	0.0001763
3269.7	0.0001828
3279.35	0.0001921
3289	0.0003727
3298.64	0.0002001
3308.29	0.0001861
3317.93	0.000154
3327.58	0.00028519
3337.22	0.0001932
3346.87	0.00032129
3356.51	0.00035411
3366.16	0.0004239
3375.8	0.000565
3385.45	0.0005604
3395.09	0.0006863
3404.74	0.0007561
3414.38	0.000855
3424.03	0.001311
3433.67	0.001881
3443.32	0.001661
3452.96	0.000946
3462.61	0.0005183
3472.25	0.00032561
3481.9	0.00031809
3491.54	0.0002002
3501.19	0.0003255
3510.83	0.00030895
3520.48	0.0004031
3530.12	0.0002538
3539.77	0.00030146
3549.41	0.0002332
3559.06	0.0002001
3568.7	0.0004934
3578.35	0.00035111
3587.99	0.0002141
3597.64	0.00034481
3607.28	0.00035671
3616.93	0.0004587
3626.57	0.00035908
3636.22	0.000345
3645.86	0.00036399
3655.51	0.0003965
3665.15	0.00036852
3674.8	0.0004032
3684.44	0.00036625
3694.09	0.00030089
3703.73	0.00033393
3713.38	0.0004473
3723.02	0.0004726
3732.67	0.00036865
3742.31	0.0005261
3751.96	0.0004572
3761.6	0.0004709
3771.25	0.00036423
3780.89	0.0005226
3790.54	0.0004322
3800.18	0.0004398
3809.83	0.0004528
3819.47	0.000384
3829.12	0.00034912
3838.76	0.0004202
3848.41	0.000274774
3858.05	0.000167
3867.7	0.000453
3877.34	0.00030001
3886.99	0.00027385
3896.63	0.00034695
3906.28	0.0003739
3915.92	0.00031404
3925.57	0.0001939
3935.21	0.00030057
3944.86	0.000128
3954.5	0.000242
3964.15	0.00030555
3973.79	0.000167
3983.44	0.0002688
3993.08	0.00033142
