Infrared Spectrum: N,N-DI-METHYL-AMIDO-AZO-BENZOL
Formula: C9 H11 N3 O
CAS: 13444-02-5
State: SOLID (1.0% IN KBr PELLET)
Class: COBLENTZ
Instrument: Not specified, most likely a prism, grating, or hybrid spectrometer.
Sampling: TRANSMISSION
Path length: 0.0355 CM
Resolution: 4
Origin: ANDERSON PHYSICAL LABORATORY
1/CM	TRANSMITTANCE
665.524	0.786
673.94	0.741
682.357	0.2783
690.773	0.6848
699.19	0.911
707.606	0.909
716.023	0.845
724.439	0.699
732.856	0.908
741.272	0.902
749.689	0.852
758.105	0.5365
766.522	0.4685
774.938	0.866
783.355	0.891
791.771	0.858
800.188	0.724
808.604	0.637
817.021	0.3181
825.437	0.215
833.854	0.813
842.27	0.89
850.687	0.902
859.103	0.909
867.52	0.899
875.936	0.881
884.353	0.867
892.769	0.857
901.186	0.831
909.602	0.789
918.019	0.654
926.435	0.763
934.852	0.732
943.268	0.5901
951.685	0.5859
960.101	0.769
968.518	0.792
976.934	0.789
985.351	0.771
993.767	0.753
1002.18	0.715
1010.6	0.705
1019.02	0.627
1027.43	0.7
1035.85	0.672
1044.27	0.64
1052.68	0.586
1061.1	0.491
1069.52	0.383
1077.93	0.526
1086.35	0.547
1094.77	0.512
1103.18	0.458
1111.6	0.403
1120.01	0.296
1128.43	0.206
1136.85	0.069
1145.26	0.094
1153.68	0.112
1162.1	0.168
1170.51	0.596
1178.93	0.6519
1187.35	0.727
1195.76	0.679
1204.18	0.715
1212.6	0.69
1221.01	0.598
1229.43	0.389
1237.85	0.338
1246.26	0.469
1254.68	0.508
1263.1	0.6489
1271.51	0.667
1279.93	0.655
1288.34	0.619
1296.76	0.557
1305.18	0.461
1313.59	0.351
1322.01	0.476
1330.43	0.457
1338.84	0.452
1347.26	0.38
1355.68	0.284
1364.09	0.117
1372.51	0.052
1380.93	0.183
1389.34	0.431
1397.76	0.479
1406.18	0.312
1414.59	0.156
1423.01	0.375
1431.43	0.538
1439.84	0.4611
1448.26	0.375
1456.67	0.484
1465.09	0.451
1473.51	0.569
1481.92	0.529
1490.34	0.499
1498.76	0.472
1507.17	0.351
1515.59	0.239
1524.01	0.321
1532.42	0.458
1540.84	0.512
1549.26	0.467
1557.67	0.38
1566.09	0.351
1574.51	0.36
1582.92	0.297
1591.34	0.163
1599.76	0.042
1608.17	0.03
1616.59	0.144
1625	0.5
1633.42	0.741
1641.84	0.852
1650.25	0.852
1658.67	0.857
1667.09	0.854
1675.5	0.821
1683.92	0.803
1692.34	0.8
1700.75	0.787
1709.17	0.778
1717.59	0.76
1726	0.751
1734.42	0.723
1742.84	0.714
1751.25	0.708
1759.67	0.706
1768.09	0.705
1776.5	0.7
1784.92	0.685
1793.33	0.675
1801.75	0.675
1810.17	0.675
1818.58	0.666
1827	0.654
1835.42	0.651
1843.83	0.637
1852.25	0.633
1860.67	0.612
1869.08	0.592
1877.5	0.586
1885.92	0.586
1894.33	0.589
1902.75	0.592
1911.17	0.592
1919.58	0.589
1928	0.589
1936.42	0.583
1944.83	0.566
1953.25	0.566
1961.66	0.572
1970.08	0.569
1978.5	0.568
1986.91	0.563
1995.33	0.559
2003.75	0.557
2012.16	0.5525
2020.58	0.5475
2029	0.5413
2037.41	0.538
2045.83	0.5357
2054.25	0.5315
2062.66	0.5245
2071.08	0.52
2079.5	0.5142
2087.91	0.5075
2096.33	0.5035
2104.75	0.502
2113.16	0.5
2121.58	0.4964
2129.99	0.4892
2138.41	0.485
2146.83	0.484
2155.24	0.483
2163.66	0.4764
2172.08	0.472
2180.49	0.4685
2188.91	0.4649
2197.33	0.4572
2205.74	0.454
2214.16	0.4517
2222.58	0.4474
2230.99	0.4406
2239.41	0.4369
2247.83	0.4324
2256.24	0.4289
2264.66	0.427
2273.08	0.4269
2281.49	0.4241
2289.91	0.4199
2298.32	0.4182
2306.74	0.41
2315.16	0.4084
2323.57	0.404
2331.99	0.403
2340.41	0.403
2348.82	0.403
2357.24	0.403
2365.66	0.4014
2374.07	0.3979
2382.49	0.3897
2390.91	0.3879
2399.32	0.3844
2407.74	0.3798
2416.16	0.375
2424.57	0.374
2432.99	0.3712
2441.41	0.368
2449.82	0.364
2458.24	0.3577
2466.65	0.3532
2475.07	0.3529
2483.49	0.35
2491.9	0.3474
2500.32	0.3442
2508.74	0.3409
2517.15	0.338
2525.57	0.338
2533.99	0.3363
2542.4	0.336
2550.82	0.3357
2559.24	0.3338
2567.65	0.3303
2576.07	0.3227
2584.49	0.317
2592.9	0.314
2601.32	0.3111
2609.74	0.308
2618.15	0.306
2626.57	0.305
2634.98	0.3033
2643.4	0.3029
2651.82	0.3013
2660.23	0.2994
2668.65	0.2945
2677.07	0.2928
2685.48	0.2906
2693.9	0.2882
2702.32	0.2814
2710.73	0.2789
2719.15	0.2756
2727.57	0.273
2735.98	0.2666
2744.4	0.2607
2752.82	0.2529
2761.23	0.2471
2769.65	0.2377
2778.07	0.225
2786.48	0.2216
2794.9	0.221
2803.31	0.219
2811.73	0.2159
2820.15	0.2089
2828.56	0.2034
2836.98	0.2012
2845.4	0.1977
2853.81	0.1942
2862.23	0.1924
2870.65	0.19
2879.06	0.1921
2887.48	0.1942
2895.9	0.2006
2904.31	0.2085
2912.73	0.218
2921.15	0.2228
2929.56	0.2246
2937.98	0.227
2946.4	0.227
2954.81	0.227
2963.23	0.225
2971.64	0.225
2980.06	0.225
2988.48	0.2246
2996.89	0.224
3005.31	0.222
3013.73	0.221
3022.14	0.222
3030.56	0.226
3038.98	0.2298
3047.39	0.23
3055.81	0.228
3064.23	0.2293
3072.64	0.2338
3081.06	0.237
3089.48	0.239
3097.89	0.239
3106.31	0.237
3114.73	0.237
3123.14	0.2366
3131.56	0.2346
3139.97	0.234
3148.39	0.2308
3156.81	0.228
3165.22	0.2273
3173.64	0.2251
3182.06	0.225
3190.47	0.224
3198.89	0.224
3207.31	0.222
3215.72	0.216
3224.14	0.216
3232.56	0.215
3240.97	0.215
3249.39	0.2146
3257.81	0.2117
3266.22	0.2076
3274.64	0.206
3283.06	0.2038
3291.47	0.203
3299.89	0.201
3308.3	0.198
3316.72	0.196
3325.14	0.196
3333.55	0.1953
3341.97	0.192
3350.39	0.1885
3358.8	0.1835
3367.22	0.181
3375.64	0.18
3384.05	0.1778
3392.47	0.177
3400.89	0.175
3409.3	0.174
3417.72	0.174
3426.14	0.174
3434.55	0.1747
3442.97	0.175
3451.39	0.1735
3459.8	0.1715
3468.22	0.1695
3476.63	0.169
3485.05	0.168
3493.47	0.168
3501.88	0.168
3510.3	0.169
3518.72	0.169
3527.13	0.169
3535.55	0.171
3543.97	0.169
3552.38	0.169
3560.8	0.1685
3569.22	0.166
3577.63	0.165
3586.05	0.165
3594.47	0.167
3602.88	0.168
3611.3	0.168
3619.72	0.168
3628.13	0.168
3636.55	0.168
3644.96	0.1661
3653.38	0.168
3661.8	0.1685
3670.21	0.169
3678.63	0.168
3687.05	0.166
3695.46	0.166
3703.88	0.1652
3712.3	0.162
3720.71	0.162
3729.13	0.162
3737.55	0.1592
3745.96	0.157
3754.38	0.157
3762.8	0.1581
3771.21	0.159
3779.63	0.1589
3788.05	0.1554
3796.46	0.1534
3804.88	0.1514
3813.29	0.151
3821.71	0.15
3830.13	0.1475
3838.54	0.1454
3846.96	0.144
3855.38	0.144
3863.79	0.144
3872.21	0.144
3880.63	0.144
3889.04	0.142
3897.46	0.1399
3905.88	0.1364
3914.29	0.1236
3922.71	0.1147
3931.13	0.112
3939.54	0.1164
3947.96	0.1276
3956.38	0.1396
3964.79	0.141
3973.21	0.1352
3981.62	0.1286
