Infrared Spectrum: HIPPURIC ACID, p-CHLORO-
Formula: C9 H8 Cl N O3
CAS: 13450-77-6
State: SOLID (MULL)
Class: COBLENTZ III
Instrument: PERKIN-ELMER 21 (GRATING)
Instrument parameters: NaCl PRISM
Sampling: TRANSMISSION
Resolution: 2
Origin: SMITH KLINE & FRENCH
1/CM	TRANSMITTANCE
4000	0.8208
3991	0.821
3982	0.8217
3973	0.8225
3964	0.8233
3955	0.8255
3946	0.828
3937	0.8304
3928	0.8314
3919	0.8324
3910	0.8334
3901	0.8345
3892	0.8356
3883	0.8367
3874	0.8378
3865	0.839
3856	0.8402
3847	0.8417
3838	0.8432
3829	0.8447
3820	0.8455
3811	0.8463
3802	0.8473
3793	0.8481
3784	0.8484
3775	0.8484
3766	0.8495
3757	0.8506
3748	0.8518
3739	0.8531
3730	0.855
3721	0.8571
3712	0.8594
3703	0.8614
3694	0.8633
3685	0.8652
3676	0.8663
3667	0.8664
3658	0.8666
3649	0.8668
3640	0.8671
3631	0.8675
3622	0.868
3613	0.8691
3604	0.8706
3595	0.872
3586	0.8733
3577	0.8746
3568	0.8758
3559	0.8771
3550	0.8784
3541	0.8798
3532	0.8811
3523	0.8824
3514	0.8827
3505	0.8825
3496	0.8825
3487	0.8825
3478	0.8825
3469	0.8828
3460	0.8838
3451	0.8848
3442	0.8857
3433	0.8867
3424	0.8875
3415	0.8885
3406	0.8889
3397	0.8892
3388	0.889
3379	0.8889
3370	0.8868
3361	0.8813
3352	0.875
3343	0.8687
3334	0.8624
3325	0.8542
3316	0.8425
3307	0.8291
3298	0.8067
3289	0.7778
3280	0.7375
3271	0.7132
3262	0.6469
3253	0.5728
3244	0.4982
3235	0.4231
3226	0.3879
3217	0.386
3208	0.3894
3199	0.4098
3190	0.4428
3181	0.4759
3172	0.5092
3163	0.5428
3154	0.5757
3145	0.5836
3136	0.586
3127	0.5879
3118	0.5894
3109	0.5905
3100	0.591
3091	0.5897
3082	0.588
3073	0.5837
3064	0.5792
3055	0.5732
3046	0.5645
3037	0.551
3028	0.5377
3019	0.5256
3010	0.5159
3001	0.5071
2992	0.5001
2983	0.4931
2974	0.4862
2965	0.4795
2956	0.4746
2947	0.4548
2938	0.4054
2929	0.3557
2920	0.3057
2911	0.2553
2902	0.2046
2893	0.1587
2884	0.1028
2875	0.0857
2866	0.0735
2857	0.0608
2848	0.0522
2839	0.0459
2830	0.0448
2821	0.0444
2812	0.0441
2803	0.044
2794	0.048
2785	0.0745
2776	0.1744
2767	0.3464
2758	0.4465
2749	0.5183
2740	0.5576
2731	0.5812
2722	0.6048
2713	0.6234
2704	0.6365
2695	0.6472
2686	0.6578
2677	0.6657
2668	0.6711
2659	0.6767
2650	0.6842
2641	0.6868
2632	0.6832
2623	0.6805
2614	0.6794
2605	0.681
2596	0.6836
2587	0.6864
2578	0.6896
2569	0.6928
2560	0.6965
2551	0.7005
2542	0.7049
2533	0.7091
2524	0.7117
2515	0.7111
2506	0.711
2497	0.7141
2488	0.7224
2479	0.734
2470	0.7471
2461	0.7599
2452	0.7728
2443	0.7868
2434	0.7904
2425	0.7917
2416	0.7975
2407	0.8035
2398	0.8096
2389	0.8158
2380	0.8218
2371	0.8271
2362	0.8312
2353	0.8364
2344	0.8418
2335	0.8481
2326	0.8551
2317	0.8651
2308	0.8723
2299	0.8732
2290	0.8736
2281	0.8752
2272	0.8808
2263	0.8817
2254	0.8823
2245	0.8868
2236	0.8892
2227	0.8893
2218	0.8878
2209	0.8839
2200	0.8813
2191	0.8811
2182	0.8828
2173	0.8874
2164	0.8902
2155	0.8921
2146	0.8927
2137	0.8928
2128	0.8953
2119	0.9001
2110	0.9041
2101	0.906
2092	0.9067
2083	0.9068
2074	0.9075
2065	0.909
2056	0.9108
2047	0.9128
2038	0.9147
2029	0.9135
2020	0.9154
2011	0.9166
2002	0.9173
1993	0.9188
1984	0.918
1975	0.9163
1966	0.9154
1957	0.9186
1948	0.9178
1939	0.9157
1930	0.9191
1921	0.9202
1912	0.9081
1903	0.8883
1894	0.8842
1885	0.8897
1876	0.8977
1867	0.9043
1858	0.9065
1849	0.9073
1840	0.9066
1831	0.9034
1822	0.8975
1813	0.891
1804	0.8881
1795	0.8859
1786	0.8715
1777	0.8445
1768	0.8275
1759	0.8057
1750	0.7875
1741	0.7604
1732	0.6895
1723	0.6062
1714	0.451
1705	0.387
1696	0.2061
1687	0.4722
1678	0.6246
1669	0.6525
1660	0.6581
1651	0.586
1642	0.4779
1633	0.2361
1624	0.1386
1615	0.4054
1606	0.5412
1597	0.514
1588	0.3664
1579	0.6143
1570	0.6457
1561	0.5821
1552	0.6292
1543	0.4208
1534	0.292
1525	0.4699
1516	0.6025
1507	0.6946
1498	0.7086
1489	0.713
1480	0.4357
1471	0.4859
1462	0.3568
1453	0.2126
1444	0.2624
1435	0.4344
1426	0.4991
1417	0.5089
1408	0.5837
1399	0.4376
1390	0.5306
1381	0.5773
1372	0.4112
1363	0.5008
1354	0.5906
1345	0.6734
1336	0.6467
1327	0.5739
1318	0.5162
1309	0.3974
1300	0.522
1291	0.5908
1282	0.6661
1273	0.5738
1264	0.5648
1255	0.4985
1246	0.5106
1237	0.3239
1228	0.2731
1219	0.5043
1210	0.6278
1201	0.6862
1192	0.7155
1183	0.7001
1174	0.6347
1165	0.7246
1156	0.7011
1147	0.7695
1138	0.7944
1129	0.8122
1120	0.8225
1111	0.7941
1102	0.7948
1093	0.6783
1084	0.4876
1075	0.7633
1066	0.7846
1057	0.8045
1048	0.8236
1039	0.8327
1030	0.8303
1021	0.8321
1012	0.7124
1003	0.7675
994	0.7156
985	0.7969
976	0.779
967	0.7441
958	0.7321
949	0.6888
940	0.6598
931	0.6244
922	0.604
913	0.6404
904	0.715
895	0.7186
886	0.6986
877	0.759
868	0.8124
859	0.8261
850	0.6975
841	0.6901
832	0.7367
823	0.8308
814	0.8618
805	0.8674
796	0.8674
787	0.8724
778	0.8653
769	0.7444
760	0.3718
751	0.744
742	0.7897
733	0.7033
724	0.749
715	0.7561
706	0.7947
697	0.7653
688	0.6753
679	0.6271
670	0.6448
