Infrared Spectrum: TITANIUM DIOXIDE (ANATASE)
Formula: O2 Ti
CAS: 13463-67-7
State: SOLID (0.3 mg / 300 mg CsI DISC)
Class: COBLENTZ III
Instrument: BECKMAN IR-12 (GRATING)
Instrument parameters: GRATING BLAZED AT 3330, 1330, 445, 220 CM^-^1
Sampling: TRANSMISSION
Resolution: 4
Origin: DESOTO CHEMICAL COATINGS, INC.
1/CM	TRANSMITTANCE
201.33	0.774
211.973	0.771
222.616	0.781
233.259	0.793
243.902	0.791
254.545	0.789
265.188	0.786
275.831	0.778
286.474	0.77
297.117	0.761
307.76	0.746
318.403	0.731
329.046	0.704
339.689	0.652
350.332	0.4441
360.976	0.377
371.619	0.6669
382.262	0.707
392.905	0.71
403.548	0.71
414.191	0.735
424.834	0.739
435.477	0.739
446.12	0.734
456.763	0.694
467.406	0.611
478.049	0.4922
488.692	0.4091
499.335	0.357
509.978	0.325
520.621	0.313
531.264	0.308
541.907	0.305
552.55	0.312
563.193	0.325
573.836	0.337
584.479	0.347
595.122	0.345
605.765	0.325
616.408	0.281
627.051	0.242
637.694	0.209
648.337	0.185
658.98	0.176
669.624	0.181
680.267	0.205
690.91	0.2549
701.553	0.303
712.196	0.343
722.839	0.361
733.482	0.372
744.125	0.387
754.768	0.435
765.411	0.5
776.054	0.57
786.697	0.64
797.34	0.694
807.983	0.75
818.626	0.801
829.269	0.842
839.912	0.869
850.555	0.886
861.198	0.901
871.841	0.91
882.484	0.917
893.127	0.919
903.77	0.921
914.413	0.921
925.056	0.926
935.699	0.923
946.342	0.929
956.985	0.93
967.629	0.934
978.272	0.938
988.915	0.939
999.558	0.939
1010.2	0.942
1020.84	0.939
1031.49	0.938
1042.13	0.937
1052.77	0.939
1063.42	0.938
1074.06	0.941
1084.7	0.938
1095.34	0.941
1105.99	0.941
1116.63	0.945
1127.27	0.946
1137.92	0.949
1148.56	0.951
1159.2	0.955
1169.85	0.955
1180.49	0.958
1191.13	0.961
1201.78	0.962
1212.42	0.962
1223.06	0.963
1233.7	0.966
1244.35	0.966
1254.99	0.967
1265.63	0.966
1276.28	0.969
1286.92	0.969
1297.56	0.969
1308.21	0.969
1318.85	0.97
1329.49	0.969
1340.13	0.969
1350.78	0.969
1361.42	0.967
1372.06	0.966
1382.71	0.966
1393.35	0.969
1403.99	0.966
1414.64	0.965
1425.28	0.967
1435.92	0.965
1446.57	0.966
1457.21	0.966
1467.85	0.965
1478.49	0.969
1489.14	0.97
1499.78	0.971
1510.42	0.97
1521.07	0.97
1531.71	0.97
1542.35	0.967
1553	0.965
1563.64	0.963
1574.28	0.961
1584.92	0.955
1595.57	0.938
1606.21	0.926
1616.85	0.911
1627.5	0.914
1638.14	0.926
1648.78	0.939
1659.43	0.945
1670.07	0.949
1680.71	0.953
1691.35	0.954
1702	0.957
1712.64	0.959
1723.28	0.961
1733.93	0.963
1744.57	0.965
1755.21	0.966
1765.86	0.966
1776.5	0.965
1787.14	0.965
1797.79	0.966
1808.43	0.969
1819.07	0.966
1829.71	0.965
1840.36	0.966
1851	0.966
1861.64	0.966
1872.29	0.963
1882.93	0.963
1893.57	0.962
1904.22	0.963
1914.86	0.962
1925.5	0.962
1936.14	0.961
1946.79	0.961
1957.43	0.958
1968.07	0.959
1978.72	0.958
1989.36	0.958
2000	0.958
2010.65	0.95
2021.29	0.95
2031.93	0.949
2042.58	0.949
2053.22	0.946
2063.86	0.946
2074.5	0.947
2085.15	0.946
2095.79	0.946
2106.43	0.946
2117.08	0.946
2127.72	0.946
2138.36	0.946
2149.01	0.942
2159.65	0.9421
2170.29	0.9423
2180.93	0.942
2191.58	0.942
2202.22	0.9429
2212.86	0.9419
2223.51	0.941
2234.15	0.941
2244.79	0.942
2255.44	0.939
2266.08	0.9382
2276.72	0.941
2287.36	0.939
2298.01	0.939
2308.65	0.939
2319.29	0.939
2329.94	0.9388
2340.58	0.9333
2351.22	0.93
2361.87	0.9298
2372.51	0.9258
2383.15	0.9263
2393.8	0.9315
2404.44	0.933
2415.08	0.933
2425.72	0.931
2436.37	0.933
2447.01	0.931
2457.65	0.93
2468.3	0.931
2478.94	0.9324
2489.58	0.931
2500.23	0.9307
2510.87	0.9283
2521.51	0.9277
2532.15	0.93
2542.8	0.9283
2553.44	0.925
2564.08	0.927
2574.73	0.927
2585.37	0.9256
2596.01	0.922
2606.66	0.9214
2617.3	0.9224
2627.94	0.922
2638.58	0.921
2649.23	0.921
2659.87	0.923
2670.51	0.923
2681.16	0.922
2691.8	0.921
2702.44	0.921
2713.09	0.9185
2723.73	0.918
2734.37	0.918
2745.02	0.9175
2755.66	0.917
2766.3	0.917
2776.94	0.9175
2787.59	0.914
2798.23	0.914
2808.87	0.913
2819.52	0.913
2830.16	0.9119
2840.8	0.911
2851.45	0.9073
2862.09	0.905
2872.73	0.903
2883.37	0.903
2894.02	0.9024
2904.66	0.901
2915.3	0.8984
2925.95	0.8918
2936.59	0.8896
2947.23	0.8929
2957.88	0.8963
2968.52	0.8986
2979.16	0.901
2989.81	0.902
3000.45	0.902
3011.09	0.902
3021.73	0.903
3032.38	0.9023
3043.02	0.901
3053.66	0.901
3064.31	0.901
3074.95	0.899
3085.59	0.898
3096.24	0.898
3106.88	0.897
3117.52	0.895
3128.16	0.8933
3138.81	0.891
3149.45	0.8892
3160.09	0.887
3170.74	0.8862
3181.38	0.886
3192.02	0.885
3202.67	0.883
3213.31	0.882
3223.95	0.881
3234.59	0.879
3245.24	0.8772
3255.88	0.8753
3266.52	0.874
3277.17	0.87
3287.81	0.8661
3298.45	0.8621
3309.1	0.8581
3319.74	0.8531
3330.38	0.8472
3341.03	0.8411
3351.67	0.8352
3362.31	0.8291
3372.95	0.8193
3383.6	0.8053
3394.24	0.7981
3404.88	0.7862
3415.53	0.7791
3426.17	0.7711
3436.81	0.7671
3447.46	0.765
3458.1	0.763
3468.74	0.763
3479.38	0.767
3490.03	0.77
3500.67	0.773
3511.31	0.775
3521.96	0.779
3532.6	0.782
3543.24	0.79
3553.89	0.7931
3564.53	0.8071
3575.17	0.8132
3585.82	0.825
3596.46	0.8291
3607.1	0.839
3617.74	0.8471
3628.39	0.851
3639.03	0.8581
3649.67	0.862
3660.32	0.8651
3670.96	0.866
3681.6	0.865
3692.25	0.863
3702.89	0.862
3713.53	0.8607
3724.17	0.859
3734.82	0.859
3745.46	0.861
3756.1	0.8653
3766.75	0.8658
3777.39	0.863
3788.03	0.862
3798.68	0.862
3809.32	0.862
3819.96	0.862
3830.6	0.8618
3841.25	0.861
3851.89	0.861
3862.53	0.858
3873.18	0.857
3883.82	0.857
3894.46	0.855
3905.11	0.855
3915.75	0.8543
3926.39	0.8537
3937.04	0.8507
3947.68	0.85
3958.32	0.85
3968.96	0.85
3979.61	0.849
