Infrared Spectrum: HEXACHLORODISILANE
Formula: Cl6 Si2
CAS: 13465-77-5
State: SOLUTION (2.5% IN CCl4 FOR 650-250 CM^-^1)
Boiling point: 145 C
Class: COBLENTZ
Instrument: PERKIN-ELMER 521 (GRATING)
Instrument parameters: FILTERS AT 3150, 2500, 2000, 1150, 700, 410. GRATING CHANGES: 2000, 630 CM^-^1
Sampling: TRANSMISSION
Path length: 0.011 CM
Resolution: 2
Origin: DOW CORNING CORP.
1/CM	TRANSMITTANCE
240.656	0.825
242.531	0.825
244.405	0.825
246.28	0.825
248.155	0.825
250.029	0.825
251.904	0.825
253.778	0.825
255.653	0.825
257.528	0.825
259.402	0.825
261.277	0.825
263.152	0.825
265.026	0.825
266.901	0.825
268.775	0.825
270.65	0.825
272.525	0.825
274.399	0.825
276.274	0.825
278.149	0.824
280.023	0.822
281.898	0.822
283.773	0.822
285.647	0.822
287.522	0.822
289.396	0.825
291.271	0.827
293.146	0.831
295.02	0.844
296.895	0.851
298.77	0.859
300.644	0.862
302.519	0.863
304.393	0.865
306.268	0.867
308.143	0.868
310.017	0.869
311.892	0.869
313.767	0.87
315.641	0.872
317.516	0.873
319.391	0.873
321.265	0.873
323.14	0.873
325.014	0.873
326.889	0.873
328.764	0.873
330.638	0.873
332.513	0.873
334.388	0.874
336.262	0.874
338.137	0.873
340.011	0.873
341.886	0.873
343.761	0.873
345.635	0.872
347.51	0.872
349.385	0.872
351.259	0.872
353.134	0.872
355.009	0.872
356.883	0.872
358.758	0.872
360.632	0.87
362.507	0.869
364.382	0.869
366.256	0.868
368.131	0.868
370.006	0.867
371.88	0.867
373.755	0.867
375.629	0.867
377.504	0.867
379.379	0.868
381.253	0.869
383.128	0.87
385.003	0.87
386.877	0.87
388.752	0.869
390.627	0.869
392.501	0.865
394.376	0.863
396.25	0.859
398.125	0.858
400	0.856
401.874	0.854
403.749	0.853
405.624	0.85
407.498	0.848
409.373	0.846
411.247	0.844
413.122	0.844
414.997	0.844
416.871	0.843
418.746	0.843
420.621	0.841
422.495	0.841
424.37	0.841
426.245	0.84
428.119	0.84
429.994	0.839
431.868	0.839
433.743	0.839
435.618	0.837
437.492	0.837
439.367	0.836
441.242	0.834
443.116	0.831
444.991	0.829
446.865	0.822
448.74	0.802
450.615	0.415
452.489	0.363
454.364	0.312
456.239	0.212
458.113	0.212
459.988	0.502
461.862	0.792
463.737	0.813
465.612	0.831
467.486	0.837
469.361	0.845
471.236	0.846
473.11	0.856
474.985	0.868
476.86	0.869
478.734	0.87
480.609	0.87
482.483	0.87
484.358	0.87
486.233	0.872
488.107	0.877
489.982	0.887
491.857	0.889
493.731	0.891
495.606	0.891
497.48	0.892
499.355	0.892
501.23	0.892
503.104	0.892
504.979	0.892
506.854	0.892
508.728	0.891
510.603	0.889
512.478	0.887
514.352	0.887
516.227	0.886
518.101	0.886
519.976	0.886
521.851	0.886
523.725	0.886
525.6	0.887
527.475	0.888
529.349	0.889
531.224	0.889
533.098	0.889
534.973	0.888
536.848	0.888
538.722	0.887
540.597	0.886
542.472	0.882
544.346	0.878
546.221	0.874
548.096	0.869
549.97	0.868
551.845	0.865
553.719	0.863
555.594	0.862
557.469	0.86
559.343	0.86
561.218	0.854
563.093	0.849
564.967	0.841
566.842	0.83
568.716	0.81
570.591	0.789
572.466	0.731
574.34	0.706
576.215	0.67
578.09	0.632
579.964	0.592
581.839	0.492
583.714	0.432
585.588	0.372
587.463	0.198
589.337	0.145
591.212	0.091
593.087	0.037
594.961	0.041
596.836	0.058
598.711	0.115
600.585	0.206
602.46	0.397
604.334	0.713
606.209	0.727
608.084	0.745
609.958	0.759
611.833	0.784
613.708	0.792
615.582	0.782
617.457	0.8
619.332	0.829
621.206	0.845
623.081	0.854
624.955	0.862
626.83	0.872
628.705	0.884
630.579	0.888
632.454	0.898
634.329	0.906
636.203	0.908
638.078	0.913
639.952	0.916
641.827	0.916
643.702	0.917
645.576	0.917
647.451	0.917
