Infrared Spectrum: Iron pentacarbonyl
Formula: C 5 Fe O 5
CAS: 13463-40-6
State: liquid
Instrument: Bruker Tensor 27 FTIR
Resolution: 0.4821395
Origin: Pacific Northwest National Laboratory Under IARPA Contract
1/cm	dispersion index
7797.62	1.47571
7779.06	1.47571
7760.5	1.47569
7741.94	1.47566
7723.38	1.47563
7704.81	1.4756
7686.25	1.47558
7667.69	1.47555
7649.13	1.47551
7630.57	1.47548
7612.01	1.47545
7593.44	1.47542
7574.88	1.47539
7556.32	1.47535
7537.76	1.47532
7519.2	1.47529
7500.64	1.47525
7482.07	1.47521
7463.51	1.47517
7444.95	1.47514
7426.39	1.4751
7407.83	1.47506
7389.26	1.47502
7370.7	1.47497
7352.14	1.47493
7333.58	1.47489
7315.02	1.47484
7296.46	1.4748
7277.89	1.47475
7259.33	1.47471
7240.77	1.47466
7222.21	1.47461
7203.65	1.47456
7185.09	1.47451
7166.52	1.47446
7147.96	1.47441
7129.4	1.47436
7110.84	1.47431
7092.28	1.47425
7073.71	1.47419
7055.15	1.47414
7036.59	1.47408
7018.03	1.47402
6999.47	1.47396
6980.91	1.4739
6962.34	1.47384
6943.78	1.47377
6925.22	1.47371
6906.66	1.47364
6888.1	1.47357
6869.54	1.4735
6850.97	1.47343
6832.41	1.47335
6813.85	1.47328
6795.29	1.4732
6776.73	1.47312
6758.16	1.47304
6739.6	1.47296
6721.04	1.47288
6702.48	1.47279
6683.92	1.4727
6665.36	1.47262
6646.79	1.47252
6628.23	1.47242
6609.67	1.47232
6591.11	1.47223
6572.55	1.47212
6553.99	1.47202
6535.42	1.47191
6516.86	1.4718
6498.3	1.47168
6479.74	1.47156
6461.18	1.47144
6442.61	1.47132
6424.05	1.47119
6405.49	1.47106
6386.93	1.47092
6368.37	1.47078
6349.81	1.47064
6331.24	1.47049
6312.68	1.47033
6294.12	1.47017
6275.56	1.47
6257	1.46984
6238.44	1.46966
6219.87	1.46947
6201.31	1.4693
6182.75	1.4691
6164.19	1.46889
6145.63	1.46869
6127.06	1.46849
6108.5	1.46827
6089.94	1.46802
6071.38	1.46775
6052.82	1.46744
6034.26	1.4671
6015.69	1.46668
5997.13	1.46611
5978.57	1.46544
5960.01	1.46533
5941.45	1.46761
5922.89	1.46623
5904.32	1.46617
5885.76	1.46629
5867.2	1.46643
5848.64	1.46554
5830.08	1.465
5811.51	1.4645
5792.95	1.46402
5774.39	1.46356
5755.83	1.46309
5737.27	1.46262
5718.71	1.46212
5700.14	1.46161
5681.58	1.46108
5663.02	1.46053
5644.46	1.45994
5625.9	1.45933
5607.34	1.45869
5588.77	1.45802
5570.21	1.4573
5551.65	1.45655
5533.09	1.45575
5514.53	1.4549
5495.96	1.45399
5477.4	1.45303
5458.84	1.452
5440.28	1.4509
5421.72	1.4497
5403.16	1.44844
5384.59	1.44706
5366.03	1.44562
5347.47	1.44406
5328.91	1.4423
5310.35	1.44033
5291.79	1.43803
5273.22	1.43602
5254.66	1.43373
5236.1	1.43047
5217.54	1.4275
5198.98	1.42328
5180.41	1.42016
5161.85	1.41433
5143.29	1.41047
5124.73	1.40715
5106.17	1.40029
5087.61	1.39213
5069.04	1.38094
5050.48	1.36765
5031.92	1.35021
5013.36	1.32678
4994.8	1.29598
4976.24	1.24571
4957.67	1.1595
4939.11	0.980445
4920.55	0.534978
4901.99	1.17358
4883.43	2.86274
4864.86	2.02817
4846.3	1.81706
4827.74	1.72672
4809.18	1.67376
4790.62	1.63953
4772.06	1.61565
4753.49	1.59787
4734.93	1.58395
4716.37	1.57283
4697.81	1.56393
4679.25	1.55674
4660.69	1.55008
4642.12	1.54416
4623.56	1.53894
4605	1.53425
4586.44	1.52995
4567.88	1.52595
4549.31	1.52194
4530.75	1.51814
4512.19	1.51373
4493.63	1.51287
4475.07	1.50872
4456.51	1.50374
4437.94	1.49796
4419.38	1.4897
4400.82	1.49595
4382.26	1.49171
4363.7	1.48345
4345.14	1.47387
4326.57	1.46493
4308.01	1.45263
4289.45	1.433
4270.89	1.39902
4252.33	1.33134
4233.76	1.10084
4215.2	2.38188
4196.64	1.99985
4178.08	1.7136
4159.52	1.6372
4140.96	1.53433
4122.39	1.58216
4103.83	1.67835
4085.27	3.87496e-05
4066.71	4.23472e-05
4048.15	4.36557e-05
4029.58	4.52892e-05
4011.02	4.64351e-05
3992.46	4.74158e-05
3973.9	4.85617e-05
3955.34	4.98674e-05
3936.78	5.01952e-05
3918.21	5.08508e-05
3899.65	5.13412e-05
3881.09	5.21565e-05
3862.53	5.08508e-05
3843.97	4.97049e-05
3825.41	4.80714e-05
3806.84	4.61073e-05
3788.28	4.46363e-05
3769.72	4.33279e-05
3751.16	4.2675e-05
3732.6	4.21847e-05
3714.03	4.21847e-05
3695.47	4.15291e-05
3676.91	4.08762e-05
3658.35	4.08762e-05
3639.79	4.13666e-05
3621.23	4.10388e-05
3602.66	4.12041e-05
3584.1	4.18569e-05
3565.54	4.21847e-05
3546.98	4.2675e-05
3528.42	4.34932e-05
3509.86	4.4146e-05
3491.29	4.4146e-05
3472.73	4.44738e-05
3454.17	4.44738e-05
3435.61	4.49642e-05
3417.05	4.52892e-05
3398.48	4.57823e-05
3379.92	4.61073e-05
3361.36	4.67629e-05
3342.8	4.7088e-05
3324.24	4.90521e-05
3305.68	5.42831e-05
3287.11	4.98674e-05
3268.55	4.98674e-05
3249.99	5.10134e-05
3231.43	5.13412e-05
3212.87	5.10134e-05
3194.31	5.15037e-05
3175.74	5.01952e-05
3157.18	4.87242e-05
3138.62	4.87242e-05
3120.06	4.83964e-05
3101.5	5.00327e-05
3082.93	5.11759e-05
3064.37	5.15037e-05
3045.81	5.21565e-05
3027.25	5.33025e-05
3008.69	5.44456e-05
2990.13	5.49359e-05
2971.56	5.28121e-05
2953	4.57823e-05
2934.44	4.49642e-05
2915.88	5.03605e-05
2897.32	5.13412e-05
2878.76	4.77436e-05
2860.19	4.69254e-05
2841.63	4.51267e-05
2823.07	4.65976e-05
2804.51	4.34932e-05
2785.95	4.05484e-05
2767.38	4.85617e-05
2748.82	4.7088e-05
2730.26	4.23472e-05
2711.7	3.87496e-05
2693.14	3.82593e-05
2674.58	3.82593e-05
2656.01	3.82593e-05
2637.45	4.03859e-05
2618.89	4.13666e-05
2600.33	3.98956e-05
2581.77	4.59448e-05
2563.21	5.03605e-05
2544.64	5.15037e-05
2526.08	6.71997e-05
2507.52	8.60029e-05
2488.96	7.83174e-05
2470.4	8.38763e-05
2451.83	0.000116086
2433.27	0.000128188
2414.71	0.000108566
2396.15	8.27331e-05
2377.59	5.41206e-05
2359.03	4.54545e-05
2340.46	4.39835e-05
2321.9	5.8371e-05
2303.34	0.000105624
2284.78	0.00106604
2266.22	0.00248526
2247.66	0.00456175
2229.09	0.00161542
2210.53	0.00225635
2191.97	0.00197839
2173.41	0.00106931
2154.85	0.000124428
2136.28	7.29239e-05
2117.72	3.87496e-05
2099.16	3.53174e-05
2080.6	3.64605e-05
2062.04	4.98674e-05
2043.48	5.59194e-05
2024.91	5.28121e-05
2006.35	6.06601e-05
1987.79	6.19686e-05
1969.23	6.4748e-05
1950.67	6.63815e-05
1932.11	6.89985e-05
1913.54	7.04694e-05
1894.98	7.11251e-05
1876.42	7.04694e-05
1857.86	6.83456e-05
1839.3	6.6219e-05
1820.73	6.80178e-05
1802.17	6.85081e-05
1783.61	9.59775e-05
1765.05	9.1234e-05
1746.49	0.000100881
1727.93	0.000108076
1709.36	0.000141922
1690.8	0.000160232
1672.24	0.000245255
1653.68	0.00022727
1635.12	0.000192936
1616.56	0.000123282
1597.99	0.000107586
1579.43	0.00114126
1560.87	0.00112164
1542.31	0.000675269
1523.75	0.00130313
1505.18	0.00121483
1486.62	0.000892729
1468.06	0.00161215
1449.5	0.00554278
1430.94	0.00724321
1412.38	0.00433285
1393.81	0.0023381
1375.25	0.00100228
1356.69	0.000464351
1338.13	0.000403854
1319.57	0.00130476
1301.01	0.00150423
1282.44	0.00279591
1263.88	0.00979387
1245.32	0.0266511
1226.76	0.46108
1208.2	2.12555
1189.63	2.59971
1171.07	0.101045
1152.51	0.0170044
1133.95	0.00644204
1115.39	0.00170044
1096.83	0.000609868
1078.26	0.000618044
1059.7	0.000425108
1041.14	0.000341723
1022.58	0.000642569
1004.02	0.00106604
985.455	0.00142575
966.894	0.00066873
948.332	0.000439824
929.77	0.000464351
911.208	0.00044146
892.647	0.000573898
874.085	0.000469254
855.523	0.000423475
836.961	0.000601693
818.399	0.00059352
799.838	0.00604964
781.276	0.00144701
762.714	0.000613138
744.152	0.000374423
725.591	0.00331912
707.029	0.0241985
688.467	0.00904175
669.905	0.00336818
651.344	0.00261606
632.782	0.00799533
614.22	0.00232175
595.658	0.0024362
577.096	0.00228905
558.535	0.00126388
539.973	0.00336818
521.411	2.1419
502.849	0.488876
484.288	0.0206015
465.726	0.00416934
447.164	0.0181489
428.602	0.0670365
410.041	0.12786
