Infrared Spectrum: 9-Ethynyl-9-fluorenol
Formula: C 15 H 10 O
CAS: 13461-74-0
State: gas
Origin: EPA-IR VAPOR PHASE LIBRARY
1/CM	ABSORBANCE
549.8	0.010181
559.445	0.005761
569.09	0.003201
578.734	0.002101
588.379	0.002951
598.024	0.006391
607.669	0.012331
617.313	0.017181
626.958	0.051741
636.603	0.060141
646.248	0.046431
655.893	0.080351
665.537	0.028921
675.182	0.007891
684.827	0.005421
694.472	0.005581
704.116	0.007201
713.761	0.013531
723.406	0.070591
733.051	0.097481
742.695	0.044421
752.34	0.072571
761.985	0.075551
771.63	0.037961
781.275	0.008291
790.919	0.005041
800.564	0.003731
810.209	0.003611
819.854	0.005121
829.498	0.003941
839.143	0.004761
848.788	0.005681
858.433	0.004621
868.078	0.005591
877.722	0.008111
887.367	0.018451
897.012	0.019921
906.657	0.012231
916.301	0.008531
925.946	0.012061
935.591	0.016851
945.236	0.011751
954.88	0.009001
964.525	0.011611
974.17	0.018461
983.815	0.030361
993.46	0.043261
1003.1	0.044351
1012.75	0.041021
1022.39	0.048121
1032.04	0.059451
1041.68	0.063391
1051.33	0.045671
1060.97	0.035881
1070.62	0.029931
1080.26	0.018321
1089.91	0.012401
1099.55	0.013251
1109.2	0.010881
1118.84	0.009331
1128.49	0.007741
1138.13	0.008731
1147.78	0.014351
1157.42	0.019411
1167.07	0.014741
1176.71	0.018831
1186.36	0.026511
1196	0.029251
1205.64	0.022171
1215.29	0.016251
1224.93	0.014701
1234.58	0.014721
1244.22	0.018861
1253.87	0.035281
1263.51	0.038531
1273.16	0.028281
1282.8	0.028291
1292.45	0.030161
1302.09	0.030091
1311.74	0.035451
1321.38	0.039431
1331.03	0.038601
1340.67	0.025581
1350.32	0.016451
1359.96	0.011731
1369.61	0.008871
1379.25	0.007301
1388.9	0.006421
1398.54	0.005811
1408.18	0.005741
1417.83	0.007141
1427.47	0.007951
1437.12	0.014181
1446.76	0.045041
1456.41	0.044281
1466.05	0.013541
1475.7	0.010871
1485.34	0.006621
1494.99	0.004641
1504.63	0.003671
1514.28	0.003251
1523.92	0.002101
1533.57	0.002051
1543.21	0.002131
1552.86	0.002271
1562.5	0.002291
1572.15	0.003451
1581.79	0.008481
1591.44	0.013531
1601.08	0.013481
1610.73	0.011531
1620.37	0.005861
1630.01	0.003121
1639.66	0.002011
1649.3	0.001761
1658.95	0.002141
1668.59	0.002521
1678.24	0.003281
1687.88	0.003121
1697.53	0.002731
1707.17	0.002361
1716.82	0.002511
1726.46	0.002951
1736.11	0.002501
1745.75	0.001791
1755.4	0.002211
1765.04	0.0014878
1774.69	0.001871
1784.33	0.002751
1793.98	0.004651
1803.62	0.004611
1813.27	0.002601
1822.91	0.002221
1832.55	0.003271
1842.2	0.002881
1851.84	0.001971
1861.49	0.002841
1871.13	0.004031
1880.78	0.002341
1890.42	0.002541
1900.07	0.005691
1909.71	0.006181
1919.36	0.002821
1929	0.002711
1938.65	0.006751
1948.29	0.006301
1957.94	0.001771
1967.58	0.0013686
1977.23	0.0013622
1986.87	0.0011092
1996.52	0.001094
2006.16	0.000675
2015.81	0.0012157
2025.45	0.0010872
2035.1	0.0012032
2044.74	0.0011023
2054.38	0.0014494
2064.03	0.0013958
2073.67	0.0012862
2083.32	0.0014257
2092.96	0.0015543
2102.61	0.002061
2112.25	0.002011
2121.9	0.001801
2131.54	0.0010236
2141.19	0.00080179
2150.83	0.0008951
2160.48	0.0009422
2170.12	0.0009295
2179.77	0.0012796
2189.41	0.000974
2199.06	0.001028
2208.7	0.00083464
2218.35	0.0010965
2227.99	0.0012344
2237.64	0.001051
2247.28	0.0011807
2256.92	0.0014952
2266.57	0.0012531
2276.21	0.0011414
2285.86	0.0012839
2295.5	0.0010562
2305.15	0.0016892
2314.79	0.002441
2324.44	0.0014055
2334.08	0.0012102
2343.73	0.0011423
2353.37	0.0011617
2363.02	0.0007458
2372.66	0.00076568
2382.31	0.0010562
2391.95	0.0009278
2401.6	0.000755566
2411.24	0.0010374
2420.89	0.0008197
2430.53	0.00080194
2440.18	0.0011604
2449.82	0.0012154
2459.47	0.0007187
2469.11	0.00077316
2478.75	0.00074371
2488.4	0.00085004
2498.04	0.0010492
2507.69	0.0009637
2517.33	0.00074796
2526.98	0.0009264
2536.62	0.000636
2546.27	0.000617
2555.91	0.000622
2565.56	0.0009568
2575.2	0.0009022
2584.85	0.0010231
2594.49	0.00075139
2604.14	0.0013418
2613.78	0.0011628
2623.43	0.0012857
2633.07	0.0013298
2642.72	0.0015276
2652.36	0.0016251
2662.01	0.0014452
2671.65	0.0013407
2681.29	0.001099
2690.94	0.0013174
2700.58	0.0012686
2710.23	0.00082936
2719.87	0.0007088
2729.52	0.000579
2739.16	0.00082429
2748.81	0.000292
2758.45	0.0009512
2768.1	0.000677
2777.74	0.0011852
2787.39	0.0009301
2797.03	0.00079392
2806.68	0.0007323
2816.32	0.0007278
2825.97	0.00080716
2835.61	0.0006935
2845.26	0.000311
2854.9	0.000619
2864.55	0.0009069
2874.19	0.0011867
2883.84	0.0013036
2893.48	0.0015888
2903.12	0.0014537
2912.77	0.0015255
2922.41	0.0014232
2932.06	0.001751
2941.7	0.002001
2951.35	0.0014442
2960.99	0.0009652
2970.64	0.0010801
2980.28	0.0013637
2989.93	0.0014644
2999.57	0.002381
3009.22	0.005261
3018.86	0.012801
3028.51	0.022921
3038.15	0.025551
3047.8	0.030121
3057.44	0.034181
3067.09	0.059211
3076.73	0.066451
3086.38	0.034641
3096.02	0.015321
3105.67	0.006001
3115.31	0.002931
3124.95	0.0015639
3134.6	0.0010675
3144.24	0.001931
3153.89	0.0016747
3163.53	0.002391
3173.18	0.002151
3182.82	0.0017223
3192.47	0.0017149
3202.11	0.0007146
3211.76	0.0011425
3221.4	0.0013922
3231.05	0.0013754
3240.69	0.0007731
3250.34	0.0013334
3259.98	0.001871
3269.63	0.002461
3279.27	0.004841
3288.92	0.007451
3298.56	0.016471
3308.21	0.025851
3317.85	0.044091
3327.49	0.068271
3337.14	0.018651
3346.78	0.003861
3356.43	0.003611
3366.07	0.0016691
3375.72	0.002331
3385.36	0.001891
3395.01	0.001911
3404.65	0.000933
3414.3	0.002121
3423.94	0.001881
3433.59	0.0015355
3443.23	0.001871
3452.88	0.0011678
3462.52	0.0014576
3472.17	0.00078807
3481.81	0.0009799
3491.46	0.0011502
3501.1	0.0011705
3510.75	0.0010129
3520.39	0.001139
3530.04	0.001425
3539.68	0.0012115
3549.32	0.0013703
3558.97	0.0013849
3568.61	0.0016086
3578.26	0.0016343
3587.9	0.0010493
3597.55	0.002791
3607.19	0.004861
3616.84	0.014791
3626.48	0.027251
3636.13	0.013801
3645.77	0.004101
3655.42	0.002421
3665.06	0.002271
3674.71	0.0016219
3684.35	0.001871
3694	0.001991
3703.64	0.0012463
3713.29	0.0013958
3722.93	0.0014686
3732.58	0.001911
3742.22	0.0015795
3751.86	0.0013494
3761.51	0.0012794
3771.15	0.0014696
3780.8	0.0011505
3790.44	0.002231
3800.09	0.0014431
3809.73	0.001911
3819.38	0.0014916
3829.02	0.0014679
3838.67	0.001575
3848.31	0.0016183
3857.96	0.000871
3867.6	0.000389
3877.25	0.0008686
3886.89	0.0013032
3896.54	0.0008037
3906.18	0.000619
3915.83	0.0007185
3925.47	0.0010791
3935.12	0.0013695
3944.76	0.0011039
3954.41	0.0009503
3964.05	0.0011738
3973.69	0.0009897
3983.34	0.001134
3992.98	0.000571
