Infrared Spectrum: 4-(1-Aminoethyl)phenol
Formula: C 8 H 11 N O
CAS: 134855-87-1
State: gas
Origin: EPA-IR VAPOR PHASE LIBRARY
1/CM	ABSORBANCE
549.8	0.001467
559.445	0.0008709
569.09	0.0009894
578.734	0.0005966
588.379	0.001787
598.024	0.0011504
607.669	0.001109
617.313	0.000210238
626.958	0.0005041
636.603	0.0007965
646.248	0.0008061
655.893	0.0005907
665.537	0.0003962
675.182	0.0006135
684.827	0.0007487
694.472	0.000737
704.116	0.000878
713.761	0.001327
723.406	0.001787
733.051	0.001787
742.695	0.0008068
752.34	0.0004267
761.985	0.0009157
771.63	0.000875
781.275	0.001237
790.919	0.001537
800.564	0.002567
810.209	0.004417
819.854	0.007057
829.498	0.011627
839.143	0.010067
848.788	0.006807
858.433	0.003027
868.078	0.001957
877.722	0.002347
887.367	0.003187
897.012	0.004357
906.657	0.005997
916.301	0.004247
925.946	0.002547
935.591	0.001427
945.236	0.001297
954.88	0.001547
964.525	0.002227
974.17	0.002597
983.815	0.003117
993.46	0.002497
1003.1	0.002287
1012.75	0.001307
1022.39	0.001467
1032.04	0.001757
1041.68	0.001347
1051.33	0.0010471
1060.97	0.001277
1070.62	0.001367
1080.26	0.002067
1089.91	0.002107
1099.55	0.003507
1109.2	0.003817
1118.84	0.003847
1128.49	0.003377
1138.13	0.004347
1147.78	0.005087
1157.42	0.010597
1167.07	0.028257
1176.71	0.035257
1186.36	0.020037
1196	0.008157
1205.64	0.005187
1215.29	0.004287
1224.93	0.003807
1234.58	0.004677
1244.22	0.009417
1253.87	0.018257
1263.51	0.018397
1273.16	0.007707
1282.8	0.001917
1292.45	0.001637
1302.09	0.001937
1311.74	0.002807
1321.38	0.004437
1331.03	0.005227
1340.67	0.003487
1350.32	0.001717
1359.96	0.0009551
1369.61	0.0008964
1379.25	0.0007626
1388.9	0.001119
1398.54	0.001847
1408.18	0.002587
1417.83	0.002907
1427.47	0.003067
1437.12	0.002767
1446.76	0.001707
1456.41	0.0010124
1466.05	0.0009332
1475.7	0.0011407
1485.34	0.001827
1494.99	0.006227
1504.63	0.020807
1514.28	0.022417
1523.92	0.010627
1533.57	0.002107
1543.21	0.001557
1552.86	0.001557
1562.5	0.001707
1572.15	0.002217
1581.79	0.003907
1591.44	0.006497
1601.08	0.009737
1610.73	0.011227
1620.37	0.009357
1630.01	0.006227
1639.66	0.004267
1649.3	0.002197
1658.95	0.001317
1668.59	0.0008465
1678.24	0.0007609
1687.88	0.0007239
1697.53	0.0007141
1707.17	0.0005649
1716.82	0.0006288
1726.46	0.0007247
1736.11	0.0007666
1745.75	0.0007377
1755.4	0.0006055
1765.04	0.0006425
1774.69	0.000643
1784.33	0.0005554
1793.98	0.0007508
1803.62	0.0010562
1813.27	0.001287
1822.91	0.001227
1832.55	0.0008313
1842.2	0.0006964
1851.84	0.0007966
1861.49	0.0008657
1871.13	0.0009207
1880.78	0.0010277
1890.42	0.0008865
1900.07	0.0006748
1909.71	0.0006159
1919.36	0.0004745
1929	0.0004013
1938.65	0.0004406
1948.29	0.000457
1957.94	0.0006324
1967.58	0.0005577
1977.23	0.0006003
1986.87	0.0005488
1996.52	0.0004917
2006.16	0.000602
2015.81	0.0005679
2025.45	0.0004604
2035.1	0.0004651
2044.74	0.000399
2054.38	0.0004152
2064.03	0.0005289
2073.67	0.0005414
2083.32	0.0005652
2092.96	0.0005941
2102.61	0.0006386
2112.25	0.0003647
2121.9	0.0004563
2131.54	0.0003844
2141.19	0.00030455
2150.83	0.0004383
2160.48	0.0003671
2170.12	0.0003076
2179.77	0.00029839
2189.41	0.000414
2199.06	0.0004457
2208.7	0.0004381
2218.35	0.0003649
2227.99	0.0004304
2237.64	0.0003986
2247.28	0.0003553
2256.92	0.0005054
2266.57	0.0004921
2276.21	0.000472
2285.86	0.0004654
2295.5	0.0004837
2305.15	0.0005487
2314.79	0.0005597
2324.44	0.0005049
2334.08	0.0005783
2343.73	0.0006682
2353.37	0.0006141
2363.02	0.0004962
2372.66	0.0004847
2382.31	0.0004332
2391.95	0.0004988
2401.6	0.0005571
2411.24	0.0005327
2420.89	0.0007822
2430.53	0.0008867
2440.18	0.0009995
2449.82	0.0006404
2459.47	0.000547
2469.11	0.0005049
2478.75	0.0005592
2488.4	0.0006072
2498.04	0.0005321
2507.69	0.000723
2517.33	0.0007225
2526.98	0.0005587
2536.62	0.000447
2546.27	0.0003652
2555.91	0.0004781
2565.56	0.0004133
2575.2	0.0004536
2584.85	0.0004318
2594.49	0.0005119
2604.14	0.0003553
2613.78	0.000561
2623.43	0.0004325
2633.07	0.0005379
2642.72	0.0004229
2652.36	0.0003432
2662.01	0.0005151
2671.65	0.0004616
2681.29	0.0004054
2690.94	0.000414
2700.58	0.0004516
2710.23	0.0003992
2719.87	0.0004642
2729.52	0.0004595
2739.16	0.0005534
2748.81	0.0003463
2758.45	0.0003846
2768.1	0.0004492
2777.74	0.0004847
2787.39	0.0004452
2797.03	0.0004019
2806.68	0.0003758
2816.32	0.0004412
2825.97	0.0003451
2835.61	0.0005424
2845.26	0.0003462
2854.9	0.0003722
2864.55	0.0004726
2874.19	0.0004525
2883.84	0.0004549
2893.48	0.0006089
2903.12	0.0005654
2912.77	0.0006728
2922.41	0.0006897
2932.06	0.0005557
2941.7	0.0005602
2951.35	0.0008457
2960.99	0.0007545
2970.64	0.001049
2980.28	0.001427
2989.93	0.002147
2999.57	0.002977
3009.22	0.004547
3018.86	0.005377
3028.51	0.005097
3038.15	0.004637
3047.8	0.004147
3057.44	0.003697
3067.09	0.003217
3076.73	0.003107
3086.38	0.004057
3096.02	0.004297
3105.67	0.002947
3115.31	0.001277
3124.95	0.0010283
3134.6	0.0008529
3144.24	0.000631
3153.89	0.0005816
3163.53	0.00029069
3173.18	0.0003189
3182.82	0.0005409
3192.47	0.0004993
3202.11	0.0003667
3211.76	0.0005995
3221.4	0.0005253
3231.05	0.0004654
3240.69	0.00022636
3250.34	0.0003547
3259.98	0.00036
3269.63	0.0003586
3279.27	0.000436
3288.92	0.000414
3298.56	0.0004497
3308.21	0.00030635
3317.85	0.0003173
3327.49	0.0004703
3337.14	0.0004128
3346.78	0.0004577
3356.43	0.0006097
3366.07	0.0005101
3375.72	0.0006493
3385.36	0.0005463
3395.01	0.0006307
3404.65	0.0005518
3414.3	0.0005213
3423.94	0.0006869
3433.59	0.0003642
3443.23	0.00024429
3452.88	0.00027878
3462.52	0.0006467
3472.17	0.0003429
3481.81	0.0003141
3491.46	0.0006617
3501.1	0.0005887
3510.75	0.000468
3520.39	0.0003691
3530.04	0.00025439
3539.68	0.0001383
3549.32	5.4e-05
3558.97	0.00025952
3568.61	0.0003156
3578.26	0.0004407
3587.9	0.00024206
3597.55	0.0004754
3607.19	0.0004844
3616.84	0.0010897
3626.48	0.001937
3636.13	0.005937
3645.77	0.013597
3655.42	0.012937
3665.06	0.005437
3674.71	0.0011997
3684.35	0.000453
3694	0.0005176
3703.64	0.00023676
3713.29	0.0004647
3722.93	0.0004543
3732.58	0.0003597
3742.22	0.0005236
3751.86	0.00026233
3761.51	0.0003437
3771.15	0.0006873
3780.8	0.000628
3790.44	0.0003791
3800.09	0.0004243
3809.73	0.0004031
3819.38	0.0003826
3829.02	0.0001846
3838.67	0.0004836
3848.31	0.00029768
3857.96	0.0004085
3867.6	0.0003978
3877.25	0.0003432
3886.89	0.000464
3896.54	0.0003591
3906.18	0.0006524
3915.83	0.0005411
3925.47	0.0005163
3935.12	0.0006201
3944.76	0.0005108
3954.41	0.0004355
3964.05	0.0003481
3973.69	0.00026174
3983.34	0.0005539
3992.98	0.0004031
