Infrared Spectrum: CYCLOBUTANONE, 3-ACETOXY-2,2,4,4-TETRAMETHYL-
Formula: C10 H16 O3
CAS: 13487-99-5
Boiling point: 110 C AT 41 mmHg
Class: COBLENTZ
Instrument: Not specified, most likely a prism, grating, or hybrid spectrometer.
Sampling: TRANSMISSION
Path length: SMEAR
Resolution: 4
Origin: TENNESSEE EASTMAN COMPANY, RESEARCH LABORATORIES
MICROMETERS	TRANSMITTANCE
2.048	0.982
2.08884	0.979
2.12967	0.981
2.17051	0.977
2.21134	0.962
2.25218	0.921
2.29301	0.907
2.33385	0.917
2.37468	0.921
2.41552	0.928
2.45635	0.933
2.49719	0.938
2.53802	0.941
2.57886	0.945
2.61969	0.946
2.66053	0.952
2.70136	0.946
2.7422	0.936
2.78303	0.892
2.82387	0.852
2.8647	0.885
2.90554	0.904
2.94637	0.929
2.98721	0.94
3.02804	0.94
3.06888	0.934
3.10971	0.924
3.15055	0.898
3.19138	0.883
3.23222	0.886
3.27305	0.852
3.31389	0.638
3.35472	0.148
3.39556	0.328
3.43639	0.476
3.47723	0.645
3.51806	0.844
3.5589	0.878
3.59973	0.91
3.64057	0.914
3.6814	0.919
3.72224	0.934
3.76307	0.941
3.80391	0.945
3.84474	0.945
3.88558	0.95
3.92641	0.955
3.96725	0.958
4.00809	0.953
4.04892	0.94
4.08976	0.922
4.13059	0.931
4.17143	0.936
4.21226	0.945
4.2531	0.941
4.29393	0.941
4.33477	0.943
4.3756	0.946
4.41644	0.95
4.45727	0.953
4.49811	0.955
4.53894	0.957
4.57978	0.934
4.62061	0.892
4.66145	0.89
4.70228	0.929
4.74312	0.94
4.78395	0.952
4.82479	0.952
4.86562	0.941
4.90646	0.945
4.94729	0.945
4.98813	0.936
5.02896	0.922
5.0698	0.917
5.11063	0.91
5.15147	0.9
5.1923	0.868
5.23314	0.89
5.27397	0.909
5.31481	0.897
5.35564	0.863
5.39648	0.82
5.43731	0.705
5.47815	0.467
5.51898	0.426
5.55982	0.138
5.60065	0.037
5.64149	0.095
5.68232	0.113
5.72316	0.037
5.76399	0.174
5.80483	0.421
5.84566	0.592
5.8865	0.645
5.92733	0.726
5.96817	0.75
6.00901	0.756
6.04984	0.763
6.09068	0.782
6.13151	0.803
6.17235	0.823
6.21318	0.832
6.25402	0.837
6.29485	0.845
6.33569	0.849
6.37652	0.84
6.41736	0.83
6.45819	0.83
6.49903	0.821
6.53986	0.809
6.5807	0.791
6.62153	0.767
6.66237	0.734
6.7032	0.657
6.74404	0.484
6.78487	0.205
6.82571	0.2
6.86654	0.25
6.90738	0.335
6.94821	0.416
6.98905	0.493
7.02988	0.597
7.07072	0.635
7.11155	0.611
7.15239	0.496
7.19322	0.265
7.23406	0.145
7.27489	0.109
7.31573	0.195
7.35656	0.363
7.3974	0.476
7.43823	0.705
7.47907	0.76
7.5199	0.784
7.56074	0.789
7.60157	0.791
7.64241	0.789
7.68324	0.768
7.72408	0.72
7.76491	0.619
7.80575	0.417
7.84658	0.339
7.88742	0.359
7.92826	0.241
7.96909	0.119
8.00993	0.044
8.05076	0.03
8.0916	0.029
8.13243	0.053
8.17327	0.123
8.2141	0.191
8.25494	0.25
8.29577	0.303
8.33661	0.395
8.37744	0.47
8.41828	0.554
8.45911	0.609
8.49995	0.631
8.54078	0.633
8.58162	0.607
8.62245	0.575
8.66329	0.606
8.70412	0.659
8.74496	0.698
8.78579	0.712
8.82663	0.72
8.86746	0.719
8.9083	0.708
8.94913	0.666
8.98997	0.609
9.0308	0.515
9.07164	0.431
9.11247	0.339
9.15331	0.251
9.19414	0.16
9.23498	0.085
9.27581	0.056
9.31665	0.051
9.35748	0.09
9.39832	0.172
9.43915	0.231
9.47999	0.26
9.52082	0.277
9.56166	0.296
9.60249	0.303
9.64333	0.239
9.68416	0.154
9.725	0.114
9.76583	0.113
9.80667	0.142
9.84751	0.253
9.88834	0.344
9.92918	0.41
9.97001	0.486
10.0108	0.575
10.0517	0.611
10.0925	0.63
10.1334	0.645
10.1742	0.671
10.215	0.69
10.2559	0.696
10.2967	0.702
10.3375	0.7
10.3784	0.679
10.4192	0.654
10.46	0.684
10.5009	0.743
10.5417	0.777
10.5825	0.799
10.6234	0.803
10.6642	0.803
10.705	0.782
10.7459	0.703
10.7867	0.601
10.8275	0.551
10.8684	0.604
10.9092	0.676
10.9501	0.71
10.9909	0.717
11.0317	0.674
11.0726	0.547
11.1134	0.364
11.1542	0.33
11.1951	0.448
11.2359	0.63
11.2767	0.715
11.3176	0.763
11.3584	0.799
11.3992	0.815
11.4401	0.825
11.4809	0.827
11.5217	0.818
11.5626	0.799
11.6034	0.775
11.6442	0.734
11.6851	0.72
11.7259	0.731
11.7668	0.761
11.8076	0.804
11.8484	0.83
11.8893	0.854
11.9301	0.878
11.9709	0.89
12.0118	0.897
12.0526	0.902
12.0934	0.91
12.1343	0.914
12.1751	0.917
12.2159	0.917
12.2568	0.917
12.2976	0.919
12.3384	0.921
12.3793	0.921
12.4201	0.919
12.461	0.919
12.5018	0.916
12.5426	0.897
12.5835	0.857
12.6243	0.801
12.6651	0.799
12.706	0.835
12.7468	0.866
12.7876	0.888
12.8285	0.897
12.8693	0.902
12.9101	0.905
12.951	0.907
12.9918	0.907
13.0326	0.909
13.0735	0.907
13.1143	0.905
13.1551	0.905
13.196	0.904
13.2368	0.904
13.2777	0.895
13.3185	0.89
13.3593	0.885
13.4002	0.883
13.441	0.876
13.4818	0.861
13.5227	0.856
13.5635	0.851
13.6043	0.852
13.6452	0.854
13.686	0.851
13.7268	0.842
13.7677	0.828
13.8085	0.82
13.8493	0.816
13.8902	0.813
13.931	0.815
13.9719	0.818
14.0127	0.82
14.0535	0.823
14.0944	0.827
14.1352	0.827
14.176	0.827
14.2169	0.825
14.2577	0.821
14.2985	0.82
14.3394	0.818
14.3802	0.816
14.421	0.809
14.4619	0.804
14.5027	0.799
14.5435	0.797
14.5844	0.789
14.6252	0.78
14.666	0.772
14.7069	0.763
14.7477	0.751
14.7886	0.738
14.8294	0.72
14.8702	0.702
14.9111	0.676
14.9519	0.648
14.9927	0.601
15.0336	0.556
15.0744	0.539
15.1152	0.53
15.1561	0.532
15.1969	0.544
15.2377	0.559
15.2786	0.577
15.3194	0.589
15.3602	0.597
15.4011	0.602
15.4419	0.609
15.4827	0.616
15.5236	0.616
15.5644	0.616
15.6053	0.616
15.6461	0.616
15.6869	0.613
15.7278	0.609
15.7686	0.604
15.8094	0.597
15.8503	0.595
15.8911	0.594
15.9319	0.592
15.9728	0.587
