Infrared Spectrum: Naphthol-as-d
Formula: C 18 H 15 N O 2
CAS: 135-61-5
State: gas
Origin: EPA-IR VAPOR PHASE LIBRARY
1/CM	ABSORBANCE
549.8	0.003367
559.445	0.003107
569.09	0.002797
578.734	0.003087
588.379	0.005777
598.024	0.005837
607.669	0.003647
617.313	0.005707
626.958	0.005707
636.603	0.003227
646.248	0.002947
655.893	0.003097
665.537	0.003827
675.182	0.003857
684.827	0.004047
694.472	0.004697
704.116	0.006237
713.761	0.007747
723.406	0.008457
733.051	0.020867
742.695	0.037307
752.34	0.023137
761.985	0.010487
771.63	0.010557
781.275	0.011627
790.919	0.007677
800.564	0.006117
810.209	0.003807
819.854	0.002737
829.498	0.003497
839.143	0.006287
848.788	0.005827
858.433	0.004737
868.078	0.011827
877.722	0.010497
887.367	0.005747
897.012	0.005177
906.657	0.004567
916.301	0.004697
925.946	0.002897
935.591	0.002877
945.236	0.003807
954.88	0.002787
964.525	0.002247
974.17	0.002357
983.815	0.002407
993.46	0.002487
1003.1	0.002807
1012.75	0.003627
1022.39	0.003167
1032.04	0.003487
1041.68	0.004557
1051.33	0.005987
1060.97	0.004647
1070.62	0.002797
1080.26	0.002647
1089.91	0.002617
1099.55	0.003167
1109.2	0.004707
1118.84	0.005967
1128.49	0.009137
1138.13	0.019847
1147.78	0.016507
1157.42	0.006557
1167.07	0.012307
1176.71	0.016117
1186.36	0.015167
1196	0.028577
1205.64	0.042777
1215.29	0.022937
1224.93	0.020447
1234.58	0.020467
1244.22	0.020637
1253.87	0.013667
1263.51	0.011217
1273.16	0.018227
1282.8	0.034417
1292.45	0.046847
1302.09	0.051507
1311.74	0.047087
1321.38	0.035167
1331.03	0.020667
1340.67	0.016797
1350.32	0.013227
1359.96	0.010587
1369.61	0.008647
1379.25	0.009137
1388.9	0.009457
1398.54	0.009497
1408.18	0.010317
1417.83	0.010567
1427.47	0.013457
1437.12	0.022097
1446.76	0.044177
1456.41	0.050267
1466.05	0.042407
1475.7	0.036537
1485.34	0.045677
1494.99	0.062677
1504.63	0.072557
1514.28	0.075037
1523.92	0.061787
1533.57	0.039097
1543.21	0.022597
1552.86	0.014537
1562.5	0.012507
1572.15	0.014487
1581.79	0.019227
1591.44	0.019887
1601.08	0.013707
1610.73	0.010137
1620.37	0.012077
1630.01	0.015937
1639.66	0.013567
1649.3	0.014767
1658.95	0.023127
1668.59	0.044277
1678.24	0.065747
1687.88	0.045207
1697.53	0.020547
1707.17	0.011377
1716.82	0.007547
1726.46	0.005387
1736.11	0.004047
1745.75	0.003367
1755.4	0.002527
1765.04	0.002227
1774.69	0.002207
1784.33	0.002177
1793.98	0.002137
1803.62	0.002137
1813.27	0.001677
1822.91	0.001687
1832.55	0.001387
1842.2	0.001227
1851.84	0.0010639
1861.49	0.0009376
1871.13	0.0010315
1880.78	0.001147
1890.42	0.001437
1900.07	0.001387
1909.71	0.001757
1919.36	0.001487
1929	0.001387
1938.65	0.002327
1948.29	0.001377
1957.94	0.0008981
1967.58	0.0007335
1977.23	0.0006754
1986.87	0.0006477
1996.52	0.0006485
2006.16	0.0006193
2015.81	0.0006136
2025.45	0.0006489
2035.1	0.0005961
2044.74	0.0005997
2054.38	0.0005985
2064.03	0.0005177
2073.67	0.0005115
2083.32	0.0005742
2092.96	0.0005912
2102.61	0.0005036
2112.25	0.0005081
2121.9	0.0005075
2131.54	0.0004257
2141.19	0.0004574
2150.83	0.0004961
2160.48	0.0003847
2170.12	0.0004222
2179.77	0.0005216
2189.41	0.0005163
2199.06	0.0004937
2208.7	0.000476
2218.35	0.0004147
2227.99	0.0004383
2237.64	0.0004889
2247.28	0.0005484
2256.92	0.0005499
2266.57	0.0005415
2276.21	0.0005161
2285.86	0.0005172
2295.5	0.0005373
2305.15	0.0006044
2314.79	0.0005618
2324.44	0.0007623
2334.08	0.0008567
2343.73	0.0008282
2353.37	0.0007803
2363.02	0.0007408
2372.66	0.0007504
2382.31	0.0007023
2391.95	0.0006931
2401.6	0.0007744
2411.24	0.0008578
2420.89	0.0007377
2430.53	0.0007732
2440.18	0.0007576
2449.82	0.0007438
2459.47	0.0007781
2469.11	0.0008277
2478.75	0.0008734
2488.4	0.000876
2498.04	0.000906
2507.69	0.0009498
2517.33	0.0010316
2526.98	0.0009903
2536.62	0.0010437
2546.27	0.0011223
2555.91	0.0011189
2565.56	0.001197
2575.2	0.001227
2584.85	0.001177
2594.49	0.001187
2604.14	0.0010876
2613.78	0.0010983
2623.43	0.0010974
2633.07	0.001137
2642.72	0.001167
2652.36	0.001237
2662.01	0.001237
2671.65	0.001267
2681.29	0.001427
2690.94	0.001387
2700.58	0.001477
2710.23	0.001467
2719.87	0.001547
2729.52	0.001587
2739.16	0.001667
2748.81	0.001787
2758.45	0.001767
2768.1	0.001737
2777.74	0.001767
2787.39	0.001877
2797.03	0.001927
2806.68	0.001927
2816.32	0.001977
2825.97	0.002037
2835.61	0.002077
2845.26	0.002367
2854.9	0.002837
2864.55	0.003427
2874.19	0.004047
2883.84	0.003927
2893.48	0.003957
2903.12	0.004057
2912.77	0.004367
2922.41	0.004877
2932.06	0.005557
2941.7	0.005787
2951.35	0.005437
2960.99	0.005537
2970.64	0.005767
2980.28	0.006577
2989.93	0.007007
2999.57	0.006537
3009.22	0.007357
3018.86	0.008997
3028.51	0.010937
3038.15	0.012037
3047.8	0.013337
3057.44	0.018417
3067.09	0.021807
3076.73	0.019457
3086.38	0.015237
3096.02	0.011727
3105.67	0.010247
3115.31	0.010117
3124.95	0.010267
3134.6	0.010257
3144.24	0.010237
3153.89	0.010267
3163.53	0.010337
3173.18	0.010437
3182.82	0.010217
3192.47	0.009967
3202.11	0.009737
3211.76	0.009717
3221.4	0.009797
3231.05	0.009727
3240.69	0.009547
3250.34	0.009277
3259.98	0.009087
3269.63	0.009147
3279.27	0.008787
3288.92	0.008497
3298.56	0.008207
3308.21	0.007957
3317.85	0.007917
3327.49	0.007667
3337.14	0.007347
3346.78	0.007087
3356.43	0.006787
3366.07	0.006467
3375.72	0.006127
3385.36	0.005977
3395.01	0.006507
3404.65	0.005927
3414.3	0.005107
3423.94	0.004897
3433.59	0.005147
3443.23	0.005087
3452.88	0.005337
3462.52	0.006137
3472.17	0.006087
3481.81	0.004867
3491.46	0.003657
3501.1	0.002717
3510.75	0.002347
3520.39	0.002087
3530.04	0.001827
3539.68	0.001637
3549.32	0.001397
3558.97	0.001297
3568.61	0.001187
3578.26	0.0010012
3587.9	0.0011209
3597.55	0.0010048
3607.19	0.000956
3616.84	0.0006155
3626.48	0.000664
3636.13	0.0009227
3645.77	0.001277
3655.42	0.0006711
3665.06	0.000469
3674.71	0.0004832
3684.35	0.0004535
3694	0.0003414
3703.64	0.0002298
3713.29	0.0002882
3722.93	0.00014023
3732.58	0.0003441
3742.22	0.0003069
3751.86	0.0004208
3761.51	0
3771.15	0.0002798
3780.8	0.0003342
3790.44	0.0004321
3800.09	0.0004676
3809.73	0.0002384
3819.38	0.0002823
3829.02	0.000338
3838.67	0.0002897
3848.31	0.0003548
3857.96	0.0004213
3867.6	0.0002872
3877.25	0.0002566
3886.89	0.0004679
3896.54	0.0003249
3906.18	0.0004667
3915.83	0.0004357
3925.47	0.00021207
3935.12	0.0005057
3944.76	0.0005072
3954.41	0.000436
3964.05	0.000532
3973.69	0.0005868
3983.34	0.0002332
3992.98	0.0004002
