Infrared Spectrum: Cupferron
Formula: C 6 H 9 N 3 O 2
CAS: 135-20-6
State: gas
Instrument: HP-GC/MS/IRD
Origin: NIST Mass Spectrometry Data Center
1/CM	ABSORBANCE
550	0.000168
562	0.0002175
574	6.15e-05
586	0.0001755
598	9.15e-05
610	0.000174
622	0.0002205
634	0.000387
646	0.0006735
658	0.001719
670	0.002664
682	0.003834
694	0.002691
706	0.0020745
718	0.0019665
730	0.003447
742	0.0053475
754	0.0056625
766	0.004461
778	0.0028455
790	0.002805
802	0.0038115
814	0.0041745
826	0.00231
838	0.001536
850	0.00144
862	0.000915
874	0.0006225
886	0.000573
898	0.000639
910	0.0008175
922	0.0009645
934	0.000903
946	0.0007245
958	0.0004035
970	0.000468
982	0.000561
994	0.000696
1006	0.001143
1018	0.0012735
1030	0.001074
1042	0.0007215
1054	0.0010035
1066	0.0013605
1078	0.002538
1090	0.006486
1102	0.0121395
1114	0.0115275
1126	0.0041205
1138	0.001329
1150	0.0009465
1162	0.0010935
1174	0.0009885
1186	0.0005205
1198	6e-05
1210	0
1222	7.05e-05
1234	0.000168
1246	0.000264
1258	0.000363
1270	0.0004905
1282	0.000606
1294	0.0009195
1306	0.001662
1318	0.0016155
1330	0.000648
1342	0.0004035
1354	0.000333
1366	0.000264
1378	0.00033
1390	0.000324
1402	0.0003045
1414	0.0004515
1426	0.0009345
1438	0.003093
1450	0.0054165
1462	0.0054
1474	0.002364
1486	0.001491
1498	0.0034965
1510	0.0136185
1522	0.014559
1534	0.0058665
1546	0.000996
1558	0.0006045
1570	0.000549
1582	0.000549
1594	0.000675
1606	0.0006465
1618	0.000579
1630	0.000438
1642	0.000291
1654	0.000285
1666	0.0003225
1678	0.000381
1690	0.0003225
1702	0.000276
1714	0.0002325
1726	0.000225
1738	0.000255
1750	0.00027
1762	0.0003165
1774	0.000351
1786	0.000375
1798	0.000474
1810	0.0004065
1822	0.0002835
1834	0.00024
1846	0.0002055
1858	0.0002355
1870	0.000255
1882	0.0003555
1894	0.0004635
1906	0.0005505
1918	0.000468
1930	0.0003795
1942	0.0003705
1954	0.0004275
1966	0.000459
1978	0.000351
1990	0.000222
2002	0.00018
2014	0.000174
2026	0.000165
2038	0.000153
2050	0.0001215
2062	0.000138
2074	0.000132
2086	0.0001275
2098	0.000117
2110	0.0001455
2122	0.000135
2134	0.000129
2146	0.0001275
2158	0.000102
2170	0.0001095
2182	0.000144
2194	0.000135
2206	0.000177
2218	0.0001485
2230	0.000147
2242	0.000126
2254	0.0001425
2266	7.95e-05
2278	9.3e-05
2290	0.00015
2302	0.0001515
2314	0.000189
2326	0.000213
2338	0.0002145
2350	0.0001275
2362	0.0001725
2374	0.0001095
2386	8.4e-05
2398	0.000111
2410	0.000156
2422	0.000102
2434	7.8e-05
2446	0.000111
2458	0.000123
2470	8.4e-05
2482	0.0001035
2494	4.2e-05
2506	7.05e-05
2518	8.85e-05
2530	6.15e-05
2542	5.85e-05
2554	3.75e-05
2566	3.9e-05
2578	7.35e-05
2590	0.0001215
2602	0.000108
2614	7.35e-05
2626	8.55e-05
2638	8.1e-05
2650	5.1e-05
2662	7.95e-05
2674	0.0001125
2686	0.0001005
2698	0.0001275
2710	8.7e-05
2722	7.95e-05
2734	9.6e-05
2746	9.15e-05
2758	8.1e-05
2770	9.15e-05
2782	4.65e-05
2794	3.9e-05
2806	6.15e-05
2818	3.9e-05
2830	5.4e-05
2842	7.05e-05
2854	9.3e-05
2866	6.75e-05
2878	0.000111
2890	0.0001995
2902	0.000159
2914	0.000171
2926	0.0001185
2938	0.0001755
2950	0.000258
2962	0.0003255
2974	0.000192
2986	0.000183
2998	0.0001965
3010	0.000339
3022	0.000489
3034	0.00075
3046	0.001104
3058	0.00186
3070	0.0030525
3082	0.0030885
3094	0.0016275
3106	0.000687
3118	0.000408
3130	0.0002265
3142	9.75e-05
3154	0.000108
3166	9e-05
3178	0.000105
3190	0.000117
3202	0.000111
3214	0.000114
3226	6.75e-05
3238	0.00015
3250	6.3e-05
3262	0.0001425
3274	7.2e-05
3286	0.000123
3298	1.65e-05
3310	9.45e-05
3322	7.05e-05
3334	9.75e-05
3346	0.0001875
3358	8.7e-05
3370	0.0001425
3382	0.00012
3394	0.000117
3406	0.0001455
3418	0.0001875
3430	0.00015
3442	0.0001215
3454	0.00012
3466	0.000228
3478	0.000165
3490	0.0001305
3502	0.0001065
3514	4.95e-05
3526	7.05e-05
3538	9.75e-05
3550	0.000111
3562	0.00015
3574	0.000162
3586	0.000141
3598	0.000135
3610	5.25e-05
3622	0.0002595
3634	0.0002505
3646	0.0001245
3658	0.000243
3670	0.000132
3682	0.000174
3694	0.000219
3706	0.0002745
3718	0.00024
3730	0.0003135
3742	0.0002655
3754	0.0003135
3766	0.0002175
3778	0.0002325
3790	0.000267
3802	0.0001815
3814	0.000159
3826	0.000144
3838	0.0002625
