Infrared Spectrum: 2-Naphthylamine, N-phenyl
Formula: C16 H13 N
CAS: 135-88-6
State: SOLUTION (10% CS2 FOR 3800-460 CM^-^1)
Class: COBLENTZ III
Instrument: DOW KBr FOREPRISM-GRATING
Instrument parameters: BLAZED AT 3.5, 12.0, 20.0 MICRON AND CHANGED AT 5.0, 7.5, 14.9 MICRON
Sampling: TRANSMISSION
Path length: 0.011 CM
Resolution: 2
Origin: DOW CHEMICAL COMPANY
1/CM	TRANSMITTANCE
463	0.4039
472	0.325
481	0.6388
490	0.6503
499	0.6865
508	0.665
517	0.6739
526	0.7086
535	0.7584
544	0.7825
553	0.7971
562	0.8088
571	0.8156
580	0.8197
589	0.8183
598	0.7915
607	0.7321
616	0.7404
625	0.7697
634	0.7581
643	0.7186
652	0.6965
661	0.7458
670	0.7657
679	0.7565
688	0.5033
697	0.3999
706	0.7261
715	0.6824
724	0.4875
733	0.2926
742	0.0891
751	0.2197
760	0.3716
769	0.5005
778	0.6511
787	0.7237
796	0.7022
805	0.2241
814	0.4635
823	0.5734
832	0.5204
841	0.2912
850	0.3571
859	0.5565
868	0.4432
877	0.6191
886	0.6815
895	0.7517
904	0.7918
913	0.7788
922	0.7991
931	0.7903
940	0.7322
949	0.7357
958	0.6404
967	0.7281
976	0.7954
985	0.8065
994	0.783
1003	0.8207
1012	0.7968
1021	0.718
1030	0.7106
1039	0.8247
1048	0.8299
1057	0.8283
1066	0.799
1075	0.6898
1084	0.8007
1093	0.8165
1102	0.8115
1111	0.8095
1120	0.7744
1129	0.7672
1138	0.7178
1147	0.6715
1156	0.6223
1165	0.6628
1174	0.3454
1183	0.6396
1192	0.7601
1201	0.7133
1210	0.6598
1219	0.6991
1228	0.65
1237	0.4414
1246	0.2887
1255	0.6223
1264	0.581
1273	0.6055
1282	0.5197
1291	0.2797
1300	0.098
1309	0.0851
1318	0.3843
1327	0.5402
1336	0.5868
1345	0.5995
1354	0.492
1363	0.4475
1372	0.572
1381	0.5812
1390	0.3249
1399	0.3712
1408	0.4187
1417	0.1819
1426	0.2112
1435	0.1213
1444	0.0324
1453	0.0065
1462	0.0066
1471	0.0066
1480	0.0066
1489	0.0067
1498	0.0067
1507	0.0067
1516	0.0068
1525	0.0068
1534	0.0068
1543	0.0069
1552	0.0069
1561	0.0069
1570	0.0093
1579	0.0254
1588	0.0251
1597	0.0084
1606	0.0298
1615	0.3185
1624	0.3266
1633	0.0363
1642	0.383
1651	0.6665
1660	0.7275
1669	0.7483
1678	0.7633
1687	0.7615
1696	0.7743
1705	0.7899
1714	0.7996
1723	0.8162
1732	0.8196
1741	0.8198
1750	0.8234
1759	0.828
1768	0.824
1777	0.8189
1786	0.8286
1795	0.8368
1804	0.8377
1813	0.8368
1822	0.8368
1831	0.838
1840	0.8401
1849	0.8425
1858	0.8456
1867	0.8528
1876	0.8501
1885	0.8335
1894	0.8282
1903	0.8248
1912	0.8182
1921	0.8093
1930	0.8101
1939	0.8096
1948	0.8595
1957	0.8828
1966	0.8814
1975	0.883
1984	0.8835
1993	0.8835
2002	0.875
2011	0.8675
2020	0.8663
2029	0.8637
2038	0.8618
2047	0.8613
2056	0.8613
2065	0.8594
2074	0.85
2083	0.8327
2092	0.7992
2101	0.7476
2110	0.6951
2119	0.5914
2128	0.3393
2137	0.1906
2146	0.1132
2155	0.0059
2164	0.0088
2173	0.0258
2182	0.0636
2191	0.1049
2200	0.1881
2209	0.5603
2218	0.7357
2227	0.7798
2236	0.8087
2245	0.8213
2254	0.8175
2263	0.7997
2272	0.7676
2281	0.6208
2290	0.4651
2299	0.3264
2308	0.2918
2317	0.5772
2326	0.8071
2335	0.8403
2344	0.8566
2353	0.8668
2362	0.8731
2371	0.8711
2380	0.8708
2389	0.8704
2398	0.8704
2407	0.8708
2416	0.8714
2425	0.8718
2434	0.8728
2443	0.8739
2452	0.8754
2461	0.8752
2470	0.8701
2479	0.869
2488	0.8702
2497	0.8733
2506	0.8721
2515	0.8695
2524	0.8683
2533	0.8675
2542	0.8648
2551	0.8628
2560	0.8631
2569	0.868
2578	0.8728
2587	0.8712
2596	0.8705
2605	0.8771
2614	0.8808
2623	0.8821
2632	0.8823
2641	0.882
2650	0.8818
2659	0.8813
2668	0.8808
2677	0.8802
2686	0.8796
2695	0.8789
2704	0.8783
2713	0.877
2722	0.8753
2731	0.8733
2740	0.8707
2749	0.8667
2758	0.86
2767	0.8508
2776	0.8414
2785	0.8328
2794	0.8296
2803	0.8033
2812	0.8332
2821	0.85
2830	0.8567
2839	0.8608
2848	0.8628
2857	0.8639
2866	0.8633
2875	0.8618
2884	0.8598
2893	0.8555
2902	0.8468
2911	0.8363
2920	0.8242
2929	0.8192
2938	0.8246
2947	0.827
2956	0.8215
2965	0.8132
2974	0.8042
2983	0.7919
2992	0.7756
3001	0.7434
3010	0.6088
3019	0.5551
3028	0.5291
3037	0.497
3046	0.4388
3055	0.3714
3064	0.4183
3073	0.6448
3082	0.6693
3091	0.7318
3100	0.7918
3109	0.8249
3118	0.8428
3127	0.8501
3136	0.8564
3145	0.861
3154	0.8635
3163	0.8655
3172	0.8668
3181	0.8671
3190	0.8673
3199	0.8682
3208	0.8704
3217	0.8727
3226	0.8741
3235	0.8748
3244	0.8751
3253	0.8753
3262	0.8765
3271	0.8775
3280	0.8782
3289	0.8774
3298	0.8764
3307	0.875
3316	0.8736
3325	0.8706
3334	0.8677
3343	0.8623
3352	0.8558
3361	0.8445
3370	0.824
3379	0.7896
3388	0.7322
3397	0.6146
3406	0.4703
3415	0.4421
3424	0.4715
3433	0.6958
3442	0.819
3451	0.8583
3460	0.8684
3469	0.8733
3478	0.8766
3487	0.8775
3496	0.8781
3505	0.878
3514	0.8773
3523	0.876
3532	0.8777
3541	0.8834
3550	0.8889
3559	0.8918
3568	0.893
3577	0.894
3586	0.8942
3595	0.8945
3604	0.8947
3613	0.8948
3622	0.895
3631	0.8951
3640	0.8954
3649	0.8955
3658	0.8957
3667	0.8953
3676	0.8949
3685	0.8943
3694	0.8939
3703	0.8933
3712	0.893
3721	0.8925
3730	0.8921
3739	0.8917
3748	0.8912
3757	0.8906
3766	0.8901
3775	0.8895
3784	0.8889
3793	0.8882
