Infrared Spectrum: P-QUATERPHENYL
Formula: C24 H18
CAS: 135-70-6
State: SOLID (1.0% IN KBr PELLET)
Class: COBLENTZ
Instrument: Not specified, most likely a prism, grating, or hybrid spectrometer.
Sampling: TRANSMISSION
Path length: 0.0355 CM THICK
Resolution: 4
Origin: ANDERSON PHYSICAL LABORATORY
1/CM	TRANSMITTANCE
664.691	0.75
673.113	0.726
681.534	0.5612
689.956	0.3789
698.378	0.765
706.8	0.851
715.221	0.83
723.643	0.84
732.065	0.813
740.487	0.675
748.908	0.375
757.33	0.0958
765.752	0.8158
774.174	0.929
782.595	0.938
791.017	0.924
799.439	0.909
807.861	0.89
816.282	0.822
824.704	0.36
833.126	0.81
841.548	0.927
849.969	0.921
858.391	0.909
866.813	0.932
875.235	0.936
883.656	0.957
892.078	0.954
900.5	0.935
908.922	0.86
917.343	0.942
925.765	0.953
934.187	0.95
942.609	0.944
951.03	0.938
959.452	0.93
967.874	0.936
976.296	0.938
984.717	0.941
993.139	0.924
1001.56	0.8059
1009.98	0.8454
1018.4	0.969
1026.83	0.951
1035.25	0.884
1043.67	0.953
1052.09	0.953
1060.51	0.948
1068.93	0.929
1077.36	0.845
1085.78	0.921
1094.2	0.93
1102.62	0.912
1111.04	0.908
1119.47	0.891
1127.89	0.891
1136.31	0.876
1144.73	0.87
1153.15	0.885
1161.57	0.891
1170	0.813
1178.42	0.909
1186.84	0.893
1195.26	0.936
1203.68	0.942
1212.1	0.929
1220.53	0.932
1228.95	0.932
1237.37	0.924
1245.79	0.917
1254.21	0.9
1262.63	0.882
1271.06	0.912
1279.48	0.911
1287.9	0.92
1296.32	0.915
1304.74	0.903
1313.17	0.896
1321.59	0.894
1330.01	0.89
1338.43	0.839
1346.85	0.866
1355.27	0.852
1363.7	0.854
1372.12	0.849
1380.54	0.777
1388.96	0.729
1397.38	0.701
1405.8	0.575
1414.23	0.822
1422.65	0.866
1431.07	0.857
1439.49	0.839
1447.91	0.731
1456.34	0.719
1464.76	0.791
1473.18	0.722
1481.6	0.361
1490.02	0.3273
1498.44	0.929
1506.87	0.951
1515.29	0.921
1523.71	0.914
1532.13	0.914
1540.55	0.915
1548.97	0.915
1557.4	0.941
1565.82	0.953
1574.24	0.933
1582.66	0.867
1591.08	0.927
1599.5	0.882
1607.93	0.909
1616.35	0.908
1624.77	0.903
1633.19	0.902
1641.61	0.902
1650.04	0.896
1658.46	0.89
1666.88	0.885
1675.3	0.887
1683.72	0.902
1692.14	0.912
1700.57	0.917
1708.99	0.918
1717.41	0.918
1725.83	0.92
1734.25	0.908
1742.67	0.908
1751.1	0.908
1759.52	0.93
1767.94	0.935
1776.36	0.932
1784.78	0.927
1793.2	0.92
1801.63	0.923
1810.05	0.92
1818.47	0.921
1826.89	0.93
1835.31	0.929
1843.74	0.926
1852.16	0.921
1860.58	0.914
1869	0.899
1877.42	0.882
1885.84	0.885
1894.27	0.897
1902.69	0.899
1911.11	0.884
1919.53	0.882
1927.95	0.897
1936.37	0.902
1944.8	0.884
1953.22	0.885
1961.64	0.906
1970.06	0.92
1978.48	0.93
1986.9	0.933
1995.33	0.954
2003.75	0.96
2012.17	0.9568
2020.59	0.9535
2029.01	0.9485
2037.44	0.9469
2045.86	0.938
2054.28	0.9355
2062.7	0.935
2071.12	0.935
2079.54	0.9319
2087.97	0.9265
2096.39	0.9207
2104.81	0.918
2113.23	0.9164
2121.65	0.9129
2130.07	0.9112
2138.5	0.905
2146.92	0.9027
2155.34	0.8995
2163.76	0.8938
2172.18	0.891
2180.61	0.89
2189.03	0.8889
2197.45	0.8842
2205.87	0.8809
2214.29	0.878
2222.71	0.8769
2231.14	0.8752
2239.56	0.8698
2247.98	0.8654
2256.4	0.8619
2264.82	0.8583
2273.24	0.8568
2281.67	0.854
2290.09	0.8502
2298.51	0.8426
2306.93	0.8336
2315.35	0.8277
2323.77	0.827
2332.2	0.8242
2340.62	0.822
2349.04	0.822
2357.46	0.822
2365.88	0.822
2374.31	0.822
2382.73	0.822
2391.15	0.8214
2399.57	0.8193
2407.99	0.8148
2416.41	0.8096
2424.84	0.8064
2433.26	0.804
2441.68	0.8027
2450.1	0.7998
2458.52	0.797
2466.94	0.794
2475.37	0.7919
2483.79	0.789
2492.21	0.786
2500.63	0.7803
2509.05	0.7755
2517.47	0.7676
2525.9	0.7656
2534.32	0.7641
2542.74	0.7575
2551.16	0.7542
2559.58	0.7523
2568.01	0.752
2576.43	0.752
2584.85	0.75
2593.27	0.745
2601.69	0.743
2610.11	0.7408
2618.54	0.738
2626.96	0.738
2635.38	0.7341
2643.8	0.7318
2652.22	0.731
2660.64	0.731
2669.07	0.728
2677.49	0.7245
2685.91	0.722
2694.33	0.7193
2702.75	0.7141
2711.18	0.7125
2719.6	0.711
2728.02	0.711
2736.44	0.711
2744.86	0.708
2753.28	0.706
2761.71	0.704
2770.13	0.699
2778.55	0.6968
2786.97	0.691
2795.39	0.6892
2803.81	0.686
2812.24	0.6807
2820.66	0.68
2829.08	0.6772
2837.5	0.6689
2845.92	0.6612
2854.34	0.6565
2862.77	0.654
2871.19	0.653
2879.61	0.65
2888.03	0.6475
2896.45	0.64
2904.88	0.6379
2913.3	0.636
2921.72	0.6344
2930.14	0.6272
2938.56	0.6177
2946.98	0.6117
2955.41	0.6069
2963.83	0.6022
2972.25	0.5988
2980.67	0.5951
2989.09	0.5857
2997.51	0.5661
3005.94	0.5419
3014.36	0.511
3022.78	0.5096
3031.2	0.5128
3039.62	0.5211
3048.04	0.522
3056.47	0.5258
3064.89	0.5467
3073.31	0.5679
3081.73	0.5835
3090.15	0.5906
3098.58	0.5939
3107	0.594
3115.42	0.5936
3123.84	0.593
3132.26	0.5901
3140.68	0.5868
3149.11	0.5821
3157.53	0.578
3165.95	0.5751
3174.37	0.5729
3182.79	0.5685
3191.21	0.5634
3199.64	0.5601
3208.06	0.5566
3216.48	0.549
3224.9	0.5484
3233.32	0.548
3241.74	0.5477
3250.17	0.5412
3258.59	0.5357
3267.01	0.5271
3275.43	0.5248
3283.85	0.5232
3292.28	0.517
3300.7	0.5122
3309.12	0.5054
3317.54	0.4997
3325.96	0.4916
3334.38	0.4812
3342.81	0.4748
3351.23	0.4726
3359.65	0.4639
3368.07	0.4562
3376.49	0.453
3384.91	0.4521
3393.34	0.4486
3401.76	0.4392
3410.18	0.4358
3418.6	0.4341
3427.02	0.433
3435.45	0.4349
3443.87	0.4352
3452.29	0.4369
3460.71	0.439
3469.13	0.442
3477.55	0.444
3485.98	0.445
3494.4	0.445
3502.82	0.445
3511.24	0.445
3519.66	0.446
3528.08	0.4492
3536.51	0.453
3544.93	0.454
3553.35	0.454
3561.77	0.4568
3570.19	0.4591
3578.61	0.4638
3587.04	0.4685
3595.46	0.471
3603.88	0.472
3612.3	0.474
3620.72	0.474
3629.15	0.474
3637.57	0.474
3645.99	0.4734
3654.41	0.472
3662.83	0.4694
3671.25	0.469
3679.68	0.468
3688.1	0.468
3696.52	0.466
3704.94	0.465
3713.36	0.463
3721.78	0.462
3730.21	0.46
3738.63	0.4589
3747.05	0.456
3755.47	0.456
3763.89	0.456
3772.31	0.454
3780.74	0.4523
3789.16	0.4504
3797.58	0.45
3806	0.448
3814.42	0.448
3822.85	0.447
3831.27	0.4453
3839.69	0.445
3848.11	0.445
3856.53	0.4428
3864.95	0.4384
3873.38	0.435
3881.8	0.435
3890.22	0.435
3898.64	0.433
3907.06	0.433
3915.48	0.433
3923.91	0.4324
3932.33	0.432
3940.75	0.43
3949.17	0.43
3957.59	0.43
3966.02	0.43
3974.44	0.432
3982.86	0.432
