Infrared Spectrum: Phenoxazine
Formula: C 12 H 9 N O
CAS: 135-67-1
State: gas
Instrument: HP-GC/MS/IRD
Origin: NIST Mass Spectrometry Data Center
1/CM	ABSORBANCE
550	0.0006018
562	0.0004189
574	0.0003363
586	0.0004012
598	0.0007434
610	0.0011446
622	0.0008437
634	0.0006667
646	0.0005251
658	0.000472
670	0.0005487
682	0.0007198
694	0.0008791
706	0.0011682
718	0.0028084
730	0.0129505
742	0.0203609
754	0.0074458
766	0.0016579
778	0.0009676
790	0.0005369
802	0.0006313
814	0.0022243
826	0.0035518
838	0.000826
850	0.0005015
862	0.0006136
874	0.000649
886	0.0005369
898	0.0003245
910	0.0007375
922	0.0008201
934	0.0003363
946	7.67e-05
958	5.31e-05
970	7.67e-05
982	0.0001829
994	0.0003953
1006	0.0002714
1018	0.0005192
1030	0.0017523
1042	0.0006077
1054	4.13e-05
1066	7.08e-05
1078	0.0001298
1090	0.0005369
1102	0.0009912
1114	0.0020178
1126	0.001534
1138	0.0003599
1150	0.0005133
1162	0.000531
1174	0.0008142
1186	0.002596
1198	0.0086199
1210	0.0046728
1222	0.0020119
1234	0.0034751
1246	0.0023246
1258	0.0025606
1270	0.0093633
1282	0.0371877
1294	0.0370874
1306	0.0086494
1318	0.0018526
1330	0.0007729
1342	0.0004897
1354	0.0005959
1366	0.0008673
1378	0.0026137
1390	0.0053395
1402	0.0127499
1414	0.0182841
1426	0.0038409
1438	0.0021299
1450	0.0026904
1462	0.0049324
1474	0.0133281
1486	0.0436364
1498	0.0561798
1510	0.0274586
1522	0.0066493
1534	0.003068
1546	0.0026609
1558	0.002773
1570	0.0034928
1582	0.004425
1594	0.0076995
1606	0.0032863
1618	0.0013629
1630	0.0011387
1642	0.000649
1654	0.0004779
1666	0.0005369
1678	0.0006018
1690	0.0003363
1702	0.0002301
1714	0.0001947
1726	0.0002301
1738	0.0004661
1750	0.0007257
1762	0.0005015
1774	0.0004189
1786	0.0003835
1798	0.0002596
1810	0.0002832
1822	0.0005015
1834	0.0004838
1846	0.0003717
1858	0.0006608
1870	0.0006667
1882	0.0003658
1894	0.0004248
1906	0.0007198
1918	0.0003422
1930	0.000236
1942	0.0001888
1954	0.0001475
1966	0.0001711
1978	0.0001888
1990	0.0001357
2002	0.0002124
2014	0.0003835
2026	0.0003599
2038	0.0002124
2050	0.0001357
2062	0.0001888
2074	0.0003245
2086	0.0003717
2098	0.0002242
2110	8.26e-05
2122	8.26e-05
2134	7.67e-05
2146	0.0001593
2158	0.0001121
2170	0.0001003
2182	6.49e-05
2194	1.77e-05
2206	8.85e-05
2218	0.000118
2230	0.0001121
2242	5.9e-05
2254	2.95e-05
2266	1.18e-05
2278	1.77e-05
2290	2.95e-05
2302	8.85e-05
2314	0.0001239
2326	0.0001003
2338	0.0001298
2350	9.44e-05
2362	5.31e-05
2374	8.26e-05
2386	0.0002419
2398	0.0003599
2410	0.0001475
2422	9.44e-05
2434	0.0002065
2446	0.0002183
2458	0.0002832
2470	0.0003245
2482	0.000413
2494	0.0002537
2506	0.0001593
2518	0.0002301
2530	0.0003245
2542	0.0003245
2554	0.0002183
2566	8.26e-05
2578	0.0001534
2590	0.0003717
2602	0.0005074
2614	0.0003481
2626	0.0001121
2638	6.49e-05
2650	8.85e-05
2662	0.0001062
2674	5.9e-05
2686	4.72e-05
2698	6.49e-05
2710	0.0001062
2722	0.0001121
2734	0.000177
2746	0.0001475
2758	5.31e-05
2770	4.13e-05
2782	8.85e-05
2794	5.9e-05
2806	8.26e-05
2818	7.67e-05
2830	7.67e-05
2842	5.9e-05
2854	4.13e-05
2866	0.0001062
2878	0.0001593
2890	0.0001652
2902	0.0001121
2914	5.31e-05
2926	7.08e-05
2938	6.49e-05
2950	7.08e-05
2962	5.31e-05
2974	0.0001062
2986	0.0001593
2998	0.0002419
3010	0.0005133
3022	0.0013924
3034	0.0023128
3046	0.0028084
3058	0.0033453
3070	0.0048734
3082	0.0045194
3094	0.002065
3106	0.0012508
3118	0.0005133
3130	0.000236
3142	0.0001652
3154	7.67e-05
3166	7.67e-05
3178	4.72e-05
3190	8.26e-05
3202	6.49e-05
3214	6.49e-05
3226	7.08e-05
3238	5.9e-05
3250	2.36e-05
3262	2.36e-05
3274	3.54e-05
3286	5.31e-05
3298	2.36e-05
3310	4.13e-05
3322	7.08e-05
3334	5.9e-05
3346	6.49e-05
3358	3.54e-05
3370	7.08e-05
3382	8.85e-05
3394	0.0001062
3406	0.0001298
3418	0.0002478
3430	0.0007906
3442	0.0015694
3454	0.0015045
3466	0.0006136
3478	0.0002419
3490	0.0001593
3502	0.0001416
3514	0.0001062
3526	0.0001003
3538	8.85e-05
3550	3.54e-05
3562	3.54e-05
3574	4.72e-05
3586	9.44e-05
3598	7.67e-05
3610	7.67e-05
3622	0.0001298
3634	0.0001121
3646	0.000118
3658	0.0001121
3670	8.26e-05
3682	0.000118
3694	0.0001416
3706	0.0001416
3718	0.0001475
3730	0.0001121
3742	0.0001357
3754	0.000118
3766	0.0001239
3778	0.0001121
3790	0.0001593
3802	0.0001534
3814	0.0001298
3826	0.0001298
3838	0.0001298
