Infrared Spectrum: O-METHOXY BENZALDEHYDE
Formula: C8 H8 O2
CAS: 135-02-4
State: LIQUID
Melting point: 3-4 C
Class: COBLENTZ
Instrument: Not specified, most likely a prism, grating, or hybrid spectrometer.
Sampling: TRANSMISSION
Path length: 0.003 CM
Resolution: 4
Origin: WYANDOTTE CHEMICALS CORP., WYANDOTTE, MICHIGAN, USA
MICROMETERS	TRANSMITTANCE
2.043	0.946
2.08289	0.943
2.12279	0.941
2.16268	0.926
2.20257	0.941
2.24246	0.946
2.28236	0.951
2.32225	0.946
2.36214	0.953
2.40204	0.951
2.44193	0.956
2.48182	0.953
2.52171	0.956
2.56161	0.965
2.6015	0.971
2.64139	0.98
2.68129	0.948
2.72118	0.913
2.76107	0.901
2.80096	0.882
2.84086	0.878
2.88075	0.89
2.92064	0.895
2.96054	0.887
3.00043	0.828
3.04032	0.857
3.08021	0.858
3.12011	0.847
3.16	0.833
3.19989	0.785
3.23979	0.616
3.27968	0.609
3.31957	0.554
3.35946	0.426
3.39936	0.538
3.43925	0.43
3.47914	0.297
3.51904	0.488
3.55893	0.832
3.59882	0.657
3.63871	0.8
3.67861	0.85
3.7185	0.888
3.75839	0.911
3.79829	0.918
3.83818	0.898
3.87807	0.911
3.91796	0.921
3.95786	0.906
3.99775	0.92
4.03764	0.895
4.07754	0.945
4.11743	0.946
4.15732	0.938
4.19721	0.928
4.23711	0.901
4.277	0.921
4.31689	0.93
4.35679	0.943
4.39668	0.94
4.43657	0.93
4.47646	0.925
4.51636	0.956
4.55625	0.966
4.59614	0.968
4.63604	0.97
4.67593	0.97
4.71582	0.961
4.75571	0.96
4.79561	0.955
4.8355	0.898
4.87539	0.892
4.91529	0.885
4.95518	0.799
4.99507	0.862
5.03496	0.918
5.07486	0.913
5.11475	0.888
5.15464	0.87
5.19454	0.86
5.23443	0.89
5.27432	0.913
5.31421	0.908
5.35411	0.903
5.394	0.906
5.43389	0.913
5.47379	0.885
5.51368	0.865
5.55357	0.863
5.59346	0.88
5.63336	0.863
5.67325	0.813
5.71314	0.691
5.75304	0.554
5.79293	0.45
5.83282	0.239
5.87271	0.063
5.91261	0.044
5.9525	0.041
5.99239	0.078
6.03229	0.317
6.07218	0.491
6.11207	0.34
6.15196	0.157
6.19186	0.009
6.23175	0.117
6.27164	0.207
6.31153	0.622
6.35143	0.717
6.39132	0.802
6.43121	0.805
6.47111	0.779
6.511	0.717
6.55089	0.631
6.59078	0.481
6.63068	0.307
6.67057	0.046
6.71046	0.039
6.75036	0.028
6.79025	0.038
6.83014	0.154
6.87003	0.101
6.90993	0.073
6.94982	0.453
6.98971	0.579
7.02961	0.536
7.0695	0.345
7.10939	0.091
7.14928	0.076
7.18918	0.303
7.22907	0.644
7.26896	0.74
7.30886	0.754
7.34875	0.767
7.38864	0.774
7.42853	0.77
7.46843	0.747
7.50832	0.667
7.54821	0.473
7.58811	0.264
7.628	0.071
7.66789	0.081
7.70778	0.028
7.74768	0.026
7.78757	0.054
7.82746	0.219
7.86736	0.179
7.90725	0.056
7.94714	0.028
7.98703	0.024
8.02693	0.031
8.06682	0.137
8.10671	0.38
8.14661	0.509
8.1865	0.553
8.22639	0.491
8.26628	0.333
8.30618	0.186
8.34607	0.053
8.38596	0.033
8.42586	0.064
8.46575	0.159
8.50564	0.267
8.54553	0.063
8.58543	0.048
8.62532	0.27
8.66521	0.5
8.70511	0.664
8.745	0.735
8.78489	0.739
8.82478	0.684
8.86468	0.684
8.90457	0.672
8.94446	0.548
8.98436	0.267
9.02425	0.162
9.06414	0.578
9.10403	0.719
9.14393	0.765
9.18382	0.787
9.22371	0.787
9.26361	0.792
9.3035	0.784
9.34339	0.777
9.38328	0.752
9.42318	0.676
9.46307	0.518
9.50296	0.279
9.54286	0.068
9.58275	0.242
9.62264	0.382
9.66253	0.269
9.70243	0.069
9.74232	0.033
9.78221	0.051
9.82211	0.184
9.862	0.411
9.90189	0.558
9.94178	0.686
9.98168	0.742
10.0216	0.779
10.0615	0.795
10.1014	0.8
10.1412	0.81
10.1811	0.813
10.221	0.825
10.2609	0.837
10.3008	0.84
10.3407	0.837
10.3806	0.823
10.4205	0.802
10.4604	0.754
10.5003	0.705
10.5402	0.692
10.5801	0.752
10.62	0.812
10.6599	0.85
10.6997	0.862
10.7396	0.87
10.7795	0.88
10.8194	0.877
10.8593	0.882
10.8992	0.88
10.9391	0.878
10.979	0.885
11.0189	0.878
11.0588	0.882
11.0987	0.87
11.1386	0.862
11.1785	0.86
11.2184	0.837
11.2582	0.785
11.2981	0.692
11.338	0.784
11.3779	0.8
11.4178	0.802
11.4577	0.789
11.4976	0.765
11.5375	0.724
11.5774	0.664
11.6173	0.584
11.6572	0.563
11.6971	0.594
11.737	0.599
11.7769	0.594
11.8167	0.549
11.8566	0.445
11.8965	0.29
11.9364	0.099
11.9763	0.038
12.0162	0.053
12.0561	0.169
12.096	0.327
12.1359	0.476
12.1758	0.556
12.2157	0.609
12.2556	0.642
12.2955	0.666
12.3354	0.679
12.3752	0.674
12.4151	0.652
12.455	0.596
12.4949	0.521
12.5348	0.408
12.5747	0.33
12.6146	0.297
12.6545	0.274
12.6944	0.209
12.7343	0.159
12.7742	0.192
12.8141	0.217
12.854	0.189
12.8939	0.134
12.9337	0.076
12.9736	0.044
13.0135	0.034
13.0534	0.031
13.0933	0.031
13.1332	0.029
13.1731	0.033
13.213	0.031
13.2529	0.041
13.2928	0.066
13.3327	0.139
13.3726	0.249
13.4125	0.375
13.4524	0.456
13.4922	0.534
13.5321	0.596
13.572	0.639
13.6119	0.684
13.6518	0.704
13.6917	0.717
13.7316	0.694
13.7715	0.661
13.8114	0.624
13.8513	0.612
13.8912	0.632
13.9311	0.679
13.971	0.715
14.0109	0.747
14.0507	0.755
14.0906	0.774
14.1305	0.78
14.1704	0.795
14.2103	0.81
14.2502	0.817
14.2901	0.82
14.33	0.818
14.3699	0.817
14.4098	0.825
14.4497	0.827
14.4896	0.822
14.5295	0.822
14.5694	0.82
14.6092	0.822
14.6491	0.818
14.689	0.82
14.7289	0.815
14.7688	0.813
14.8087	0.807
14.8486	0.807
14.8885	0.803
14.9284	0.797
14.9683	0.774
15.0082	0.76
15.0481	0.742
15.088	0.734
15.1279	0.722
15.1677	0.707
15.2076	0.687
15.2475	0.661
15.2874	0.624
15.3273	0.578
15.3672	0.534
15.4071	0.496
15.447	0.461
15.4869	0.448
15.5268	0.455
15.5667	0.501
15.6066	0.548
15.6465	0.601
15.6864	0.637
15.7262	0.677
15.7661	0.689
15.806	0.71
15.8459	0.724
15.8858	0.729
15.9257	0.745
15.9656	0.739
