Infrared Spectrum: Naphthol-as-ol
Formula: C 18 H 15 N O 3
CAS: 135-62-6
State: gas
Origin: EPA-IR VAPOR PHASE LIBRARY
1/CM	ABSORBANCE
549.8	0.001445
559.445	0.001685
569.09	0.002995
578.734	0.002935
588.379	0.004565
598.024	0.004715
607.669	0.003615
617.313	0.003115
626.958	0.003805
636.603	0.002235
646.248	0.001975
655.893	0.001985
665.537	0.002115
675.182	0.002285
684.827	0.002285
694.472	0.002425
704.116	0.002665
713.761	0.003405
723.406	0.004685
733.051	0.012055
742.695	0.023635
752.34	0.011625
761.985	0.005635
771.63	0.006195
781.275	0.006275
790.919	0.003865
800.564	0.004005
810.209	0.002295
819.854	0.001425
829.498	0.002195
839.143	0.003035
848.788	0.001955
858.433	0.002095
868.078	0.006275
877.722	0.005815
887.367	0.005255
897.012	0.003975
906.657	0.002265
916.301	0.002655
925.946	0.001845
935.591	0.001225
945.236	0.001575
954.88	0.001285
964.525	0.0010054
974.17	0.001345
983.815	0.001545
993.46	0.001815
1003.1	0.002715
1012.75	0.004685
1022.39	0.006405
1032.04	0.008225
1041.68	0.007885
1051.33	0.005515
1060.97	0.002755
1070.62	0.001805
1080.26	0.001665
1089.91	0.002035
1099.55	0.002855
1109.2	0.006165
1118.84	0.008675
1128.49	0.006485
1138.13	0.010865
1147.78	0.009435
1157.42	0.004625
1167.07	0.008675
1176.71	0.011805
1186.36	0.009555
1196	0.015615
1205.64	0.024235
1215.29	0.021155
1224.93	0.013795
1234.58	0.012335
1244.22	0.019785
1253.87	0.015565
1263.51	0.009875
1273.16	0.011345
1282.8	0.017045
1292.45	0.022475
1302.09	0.026245
1311.74	0.024875
1321.38	0.023025
1331.03	0.025215
1340.67	0.018135
1350.32	0.010805
1359.96	0.007145
1369.61	0.005585
1379.25	0.005255
1388.9	0.005525
1398.54	0.006215
1408.18	0.006995
1417.83	0.007745
1427.47	0.010705
1437.12	0.019275
1446.76	0.018765
1456.41	0.023845
1466.05	0.026615
1475.7	0.017495
1485.34	0.018445
1494.99	0.020585
1504.63	0.034695
1514.28	0.056455
1523.92	0.064545
1533.57	0.056375
1543.21	0.033155
1552.86	0.015885
1562.5	0.009995
1572.15	0.008955
1581.79	0.009905
1591.44	0.017245
1601.08	0.020185
1610.73	0.011475
1620.37	0.008355
1630.01	0.009645
1639.66	0.007965
1649.3	0.008345
1658.95	0.012195
1668.59	0.023315
1678.24	0.034455
1687.88	0.019315
1697.53	0.008345
1707.17	0.004995
1716.82	0.003705
1726.46	0.002965
1736.11	0.002215
1745.75	0.001845
1755.4	0.001445
1765.04	0.001435
1774.69	0.001445
1784.33	0.001185
1793.98	0.001034
1803.62	0.001195
1813.27	0.0009664
1822.91	0.0008313
1832.55	0.0007962
1842.2	0.0008267
1851.84	0.0007439
1861.49	0.0006612
1871.13	0.0006171
1880.78	0.0007867
1890.42	0.0010695
1900.07	0.0007533
1909.71	0.0007703
1919.36	0.0008183
1929	0.0010114
1938.65	0.001145
1948.29	0.0005683
1957.94	0.0004369
1967.58	0.0004244
1977.23	0.0004507
1986.87	0.0004142
1996.52	0.0004219
2006.16	0.0005146
2015.81	0.0004895
2025.45	0.0005151
2035.1	0.0005285
2044.74	0.0005063
2054.38	0.0005159
2064.03	0.0004243
2073.67	0.0003688
2083.32	0.0003648
2092.96	0.0004059
2102.61	0.0003606
2112.25	0.0003742
2121.9	0.0003353
2131.54	0.0003321
2141.19	0.0003191
2150.83	0.0002671
2160.48	0.0003645
2170.12	0.0003589
2179.77	0.0003555
2189.41	0.0004335
2199.06	0.0003817
2208.7	0.0002955
2218.35	0.0003719
2227.99	0.000363
2237.64	0.000377
2247.28	0.0004535
2256.92	0.0003914
2266.57	0.0004007
2276.21	0.0004015
2285.86	0.0003615
2295.5	0.0003341
2305.15	0.0003237
2314.79	0.0003832
2324.44	0.0005297
2334.08	0.0006161
2343.73	0.0006004
2353.37	0.0005547
2363.02	0.0004889
2372.66	0.0004998
2382.31	0.0004853
2391.95	0.0004761
2401.6	0.0004944
2411.24	0.0005006
2420.89	0.0005504
2430.53	0.0005394
2440.18	0.000559
2449.82	0.0005319
2459.47	0.0005088
2469.11	0.0005299
2478.75	0.000602
2488.4	0.0005917
2498.04	0.0006135
2507.69	0.0006387
2517.33	0.0006431
2526.98	0.0006448
2536.62	0.0007147
2546.27	0.0007082
2555.91	0.0007483
2565.56	0.0008039
2575.2	0.0008153
2584.85	0.0008578
2594.49	0.0008596
2604.14	0.0007811
2613.78	0.0007612
2623.43	0.000817
2633.07	0.0007743
2642.72	0.0007553
2652.36	0.0007312
2662.01	0.0007468
2671.65	0.0007794
2681.29	0.0007536
2690.94	0.0007575
2700.58	0.000929
2710.23	0.0008623
2719.87	0.0009707
2729.52	0.000976
2739.16	0.000847
2748.81	0.0010127
2758.45	0.0009585
2768.1	0.0011183
2777.74	0.0010793
2787.39	0.001175
2797.03	0.001235
2806.68	0.001365
2816.32	0.001505
2825.97	0.001685
2835.61	0.002175
2845.26	0.003055
2854.9	0.002875
2864.55	0.002125
2874.19	0.001975
2883.84	0.002085
2893.48	0.002265
2903.12	0.002505
2912.77	0.002895
2922.41	0.002995
2932.06	0.003355
2941.7	0.004315
2951.35	0.005775
2960.99	0.005315
2970.64	0.004635
2980.28	0.003665
2989.93	0.003425
2999.57	0.004145
3009.22	0.005515
3018.86	0.005005
3028.51	0.004715
3038.15	0.005155
3047.8	0.006385
3057.44	0.009405
3067.09	0.011065
3076.73	0.010145
3086.38	0.008345
3096.02	0.006755
3105.67	0.005785
3115.31	0.005635
3124.95	0.005825
3134.6	0.005935
3144.24	0.005855
3153.89	0.005835
3163.53	0.005995
3173.18	0.005985
3182.82	0.005895
3192.47	0.005715
3202.11	0.005595
3211.76	0.005645
3221.4	0.005625
3231.05	0.005525
3240.69	0.005395
3250.34	0.005315
3259.98	0.005245
3269.63	0.005215
3279.27	0.005085
3288.92	0.004955
3298.56	0.004765
3308.21	0.004575
3317.85	0.004445
3327.49	0.004165
3337.14	0.004045
3346.78	0.003905
3356.43	0.003735
3366.07	0.003675
3375.72	0.003545
3385.36	0.003245
3395.01	0.003295
3404.65	0.003335
3414.3	0.003155
3423.94	0.003155
3433.59	0.003655
3443.23	0.005995
3452.88	0.006935
3462.52	0.003815
3472.17	0.002285
3481.81	0.001785
3491.46	0.001475
3501.1	0.001475
3510.75	0.001155
3520.39	0.0008377
3530.04	0.000972
3539.68	0.0008495
3549.32	0.0007988
3558.97	0.0008019
3568.61	0.0006254
3578.26	0.0005598
3587.9	0.0006578
3597.55	0.0006209
3607.19	0.0005194
3616.84	0.0004604
3626.48	0.0004064
3636.13	0.0003684
3645.77	0.0006787
3655.42	0.0006071
3665.06	0.0004994
3674.71	0.0003135
3684.35	0.0002779
3694	0.00023009
3703.64	0.0001763
3713.29	0.00023067
3722.93	0.0002429
3732.58	0.0002664
3742.22	0.00018696
3751.86	0.0002622
3761.51	0.000151
3771.15	9.86e-05
3780.8	6.75e-05
3790.44	0.00022505
3800.09	0.00019496
3809.73	0.0002462
3819.38	0.000276
3829.02	0.0002778
3838.67	0.0004089
3848.31	0.00017191
3857.96	0.00014945
3867.6	0.00015597
3877.25	0.0001149
3886.89	0.00032
3896.54	0.00015283
3906.18	0.00019145
3915.83	0.00018906
3925.47	0.0003334
3935.12	0.0003233
3944.76	0.00015141
3954.41	0.0002494
3964.05	0.0004385
3973.69	0.0002893
3983.34	0.0003601
3992.98	0.0004142
