Infrared Spectrum: ACETOPHENONE, Alpha-BROMO-p-PHENYL-
Formula: C14 H11 Br O
CAS: 135-73-9
State: SOLUTION (1% CCl4 FOR 2-7.5, 1% CS2 FOR 7.5-15.9)
Class: COBLENTZ III
Instrument: DOW NaCl PRISM SPECTROMETER
Sampling: TRANSMISSION
Path length: 0.098 CM, 0.098 CM
Resolution: 2
Origin: DOW CHEMICAL COMPANY
1/CM	TRANSMITTANCE
4048.58	0.9105
4039.46	0.9107
4030.34	0.911
4021.22	0.9113
4012.1	0.9116
4002.97	0.9118
3993.85	0.912
3984.73	0.9123
3975.61	0.9125
3966.49	0.9124
3957.37	0.9124
3948.25	0.9123
3939.13	0.9121
3930.01	0.9121
3920.88	0.9121
3911.76	0.912
3902.64	0.9118
3893.52	0.9118
3884.4	0.9117
3875.28	0.9117
3866.16	0.9115
3857.04	0.9115
3847.91	0.9114
3838.79	0.9113
3829.67	0.9112
3820.55	0.9111
3811.43	0.911
3802.31	0.9107
3793.19	0.9101
3784.07	0.9089
3774.95	0.9065
3765.82	0.9027
3756.7	0.8998
3747.58	0.8986
3738.46	0.8975
3729.34	0.8973
3720.22	0.897
3711.1	0.8968
3701.98	0.8965
3692.86	0.8961
3683.73	0.8958
3674.61	0.895
3665.49	0.8926
3656.37	0.8889
3647.25	0.8854
3638.13	0.8824
3629.01	0.8794
3619.89	0.8771
3610.76	0.8754
3601.64	0.875
3592.52	0.8747
3583.4	0.8742
3574.28	0.8737
3565.16	0.8726
3556.04	0.871
3546.92	0.8687
3537.8	0.8661
3528.67	0.8637
3519.55	0.8614
3510.43	0.8592
3501.31	0.8568
3492.19	0.8546
3483.07	0.8518
3473.95	0.8492
3464.83	0.8465
3455.71	0.8439
3446.58	0.8411
3437.46	0.8387
3428.34	0.8366
3419.22	0.8349
3410.1	0.8338
3400.98	0.8332
3391.86	0.8345
3382.74	0.8367
3373.61	0.8397
3364.49	0.8429
3355.37	0.847
3346.25	0.8513
3337.13	0.8559
3328.01	0.8607
3318.89	0.8647
3309.77	0.8665
3300.65	0.8664
3291.52	0.8663
3282.4	0.8665
3273.28	0.8668
3264.16	0.8676
3255.04	0.8693
3245.92	0.8713
3236.8	0.8734
3227.68	0.8758
3218.56	0.8779
3209.43	0.8792
3200.31	0.8792
3191.19	0.8792
3182.07	0.8782
3172.95	0.8734
3163.83	0.8636
3154.71	0.8511
3145.59	0.8367
3136.47	0.8224
3127.34	0.8083
3118.22	0.7942
3109.1	0.7801
3099.98	0.7658
3090.86	0.752
3081.74	0.7469
3072.62	0.7458
3063.5	0.7466
3054.37	0.7515
3045.25	0.7684
3036.13	0.7954
3027.01	0.8225
3017.89	0.8499
3008.77	0.8648
2999.65	0.8652
2990.53	0.8625
2981.41	0.8599
2972.28	0.8633
2963.16	0.8706
2954.04	0.8824
2944.92	0.892
2935.8	0.8973
2926.68	0.8972
2917.56	0.8947
2908.44	0.8928
2899.32	0.8961
2890.19	0.9013
2881.07	0.9074
2871.95	0.9121
2862.83	0.913
2853.71	0.9136
2844.59	0.9156
2835.47	0.9176
2826.35	0.9185
2817.22	0.9189
2808.1	0.919
2798.98	0.919
2789.86	0.9193
2780.74	0.9211
2771.62	0.9232
2762.5	0.9254
2753.38	0.9276
2744.26	0.9284
2735.13	0.9289
2726.01	0.9298
2716.89	0.9309
2707.77	0.9313
2698.65	0.9314
2689.53	0.9311
2680.41	0.9303
2671.29	0.9292
2662.17	0.9278
2653.04	0.9266
2643.92	0.9253
2634.8	0.924
2625.68	0.9227
2616.56	0.9217
2607.44	0.9209
2598.32	0.9198
2589.2	0.9202
2580.08	0.9216
2570.95	0.9235
2561.83	0.9261
2552.71	0.9288
2543.59	0.9313
2534.47	0.9332
2525.35	0.9351
2516.23	0.9356
2507.11	0.936
2497.98	0.9359
2488.86	0.9357
2479.74	0.9351
2470.62	0.9342
2461.5	0.9334
2452.38	0.9322
2443.26	0.9301
2434.14	0.9254
2425.02	0.9166
2415.89	0.9082
2406.77	0.9002
2397.65	0.8959
2388.53	0.8934
2379.41	0.8911
2370.29	0.8885
2361.17	0.8805
2352.05	0.8602
2342.93	0.8309
2333.8	0.802
2324.68	0.7729
2315.56	0.7603
2306.44	0.7604
2297.32	0.7677
2288.2	0.7949
2279.08	0.8245
2269.96	0.8541
2260.83	0.8841
2251.71	0.9076
2242.59	0.9207
2233.47	0.9302
2224.35	0.9327
2215.23	0.9343
2206.11	0.9414
2196.99	0.9477
2187.87	0.9497
2178.74	0.9509
2169.62	0.9514
2160.5	0.9513
2151.38	0.9494
2142.26	0.9486
2133.14	0.949
2124.02	0.9495
2114.9	0.9498
2105.78	0.95
2096.65	0.9503
2087.53	0.9495
2078.41	0.9455
2069.29	0.934
2060.17	0.9229
2051.05	0.9128
2041.93	0.9057
2032.81	0.9038
2023.68	0.8959
2014.56	0.8832
2005.44	0.8833
1996.32	0.889
1987.2	0.8933
1978.08	0.8948
1968.96	0.8864
1959.84	0.8825
1950.72	0.8824
1941.59	0.8967
1932.47	0.9137
1923.35	0.9123
1914.23	0.8978
1905.11	0.8859
1895.99	0.8842
1886.87	0.8842
1877.75	0.8826
1868.63	0.8774
1859.5	0.8735
1850.38	0.8718
1841.26	0.8743
1832.14	0.8766
1823.02	0.8748
1813.9	0.8694
1804.78	0.8666
1795.66	0.8848
1786.54	0.9025
1777.41	0.9085
1768.29	0.9118
1759.17	0.9095
1750.05	0.9006
1740.93	0.8987
1731.81	0.8747
1722.69	0.8082
1713.57	0.651
1704.44	0.4891
1695.32	0.3354
1686.2	0.1864
1677.08	0.3757
1667.96	0.7182
1658.84	0.7804
1649.72	0.7673
1640.6	0.7429
1631.48	0.6664
1622.35	0.4981
1613.23	0.1893
1604.11	0.0681
1594.99	0.0888
1585.87	0.0543
1576.75	0.0538
1567.63	0.0426
1558.51	0.0398
1549.39	0.0388
1540.26	0.0437
1531.14	0.0611
1522.02	0.095
1512.9	0.1465
1503.78	0.2596
1494.66	0.3687
1485.54	0.5396
1476.42	0.6811
1467.29	0.7772
1458.17	0.7456
1449.05	0.7559
1439.93	0.7347
1430.81	0.5118
1421.69	0.7424
1412.57	0.6818
1403.45	0.6407
1394.33	0.804
1385.2	0.8255
1376.08	0.8441
1366.96	0.8454
1357.84	0.8409
1348.72	0.872
1339.6	0.8197
1330.48	0.7632
1321.36	0.6372
1312.24	0.6192
1303.11	0.5909
1293.99	0.3811
1284.87	0.1844
1275.75	0.1653
1266.63	0.5577
1257.51	0.708
1248.39	0.7515
1239.27	0.756
1230.14	0.7778
1221.02	0.7885
1211.9	0.7021
1202.78	0.5414
1193.66	0.3934
1184.54	0.5251
1175.42	0.7318
1166.3	0.7618
1157.18	0.7734
1148.05	0.7789
1138.93	0.7729
1129.81	0.7251
1120.69	0.6938
1111.57	0.65
1102.45	0.7276
1093.33	0.7907
1084.21	0.8018
1075.09	0.7338
1065.96	0.8141
1056.84	0.8238
1047.72	0.8053
1038.6	0.7778
1029.48	0.5926
1020.36	0.7462
1011.24	0.4923
1002.12	0.6287
992.995	0.6545
983.874	0.7147
974.753	0.8036
965.632	0.8283
956.511	0.8371
947.389	0.8501
938.268	0.8569
929.147	0.8472
920.026	0.8228
910.905	0.7637
901.784	0.7552
892.662	0.5794
883.541	0.4152
874.42	0.2628
865.299	0.1724
856.178	0.0951
847.057	0.1455
837.936	0.4706
828.814	0.5664
819.693	0.6371
810.572	0.694
801.451	0.7168
792.33	0.6915
783.209	0.6672
774.088	0.557
764.966	0.5068
755.845	0.4859
746.724	0.1982
737.603	0.4668
728.482	0.6045
719.361	0.5988
710.239	0.5516
701.118	0.295
691.997	0.2576
682.876	0.3014
673.755	0.4012
664.634	0.4025
655.513	0.3253
646.391	0.3178
637.27	0.3576
