Infrared Spectrum: 2-Methyl-6-nitrobenzoic acid
Formula: C 8 H 7 N O 4
CAS: 13506-76-8
State: gas
Origin: EPA-IR VAPOR PHASE LIBRARY
1/CM	ABSORBANCE
549.8	0.008156
559.445	0.007386
569.09	0.007326
578.734	0.005686
588.379	0.004866
598.024	0.004166
607.669	0.003056
617.313	0.002026
626.958	0.001836
636.603	0.002456
646.248	0.007396
655.893	0.014886
665.537	0.008556
675.182	0.002436
684.827	0.0014705
694.472	0.002406
704.116	0.002536
713.761	0.004396
723.406	0.007616
733.051	0.011566
742.695	0.017536
752.34	0.018296
761.985	0.013976
771.63	0.009426
781.275	0.005536
790.919	0.004826
800.564	0.008836
810.209	0.010236
819.854	0.004716
829.498	0.002446
839.143	0.001796
848.788	0.0010353
858.433	0.0013889
868.078	0.001736
877.722	0.0013817
887.367	0.0009655
897.012	0.002336
906.657	0.002686
916.301	0.004666
925.946	0.003126
935.591	0.002086
945.236	0.002226
954.88	0.0013385
964.525	0.0013572
974.17	0.001906
983.815	0.0014379
993.46	0.001866
1003.1	0.001936
1012.75	0.002626
1022.39	0.002786
1032.04	0.003756
1041.68	0.005536
1051.33	0.013156
1060.97	0.022016
1070.62	0.017866
1080.26	0.012436
1089.91	0.014696
1099.55	0.022406
1109.2	0.016426
1118.84	0.007186
1128.49	0.005416
1138.13	0.006896
1147.78	0.011236
1157.42	0.014306
1167.07	0.017646
1176.71	0.023546
1186.36	0.021936
1196	0.014136
1205.64	0.009146
1215.29	0.004436
1224.93	0.004476
1234.58	0.005286
1244.22	0.005616
1253.87	0.006836
1263.51	0.007946
1273.16	0.009316
1282.8	0.011066
1292.45	0.011046
1302.09	0.009226
1311.74	0.008376
1321.38	0.010096
1331.03	0.014976
1340.67	0.021716
1350.32	0.031886
1359.96	0.037366
1369.61	0.023116
1379.25	0.009546
1388.9	0.006356
1398.54	0.004526
1408.18	0.002996
1417.83	0.003566
1427.47	0.004486
1437.12	0.005816
1446.76	0.006646
1456.41	0.007426
1466.05	0.006926
1475.7	0.004786
1485.34	0.003966
1494.99	0.004336
1504.63	0.006126
1514.28	0.009506
1523.92	0.015416
1533.57	0.022996
1543.21	0.041476
1552.86	0.057386
1562.5	0.039716
1572.15	0.020426
1581.79	0.013856
1591.44	0.007976
1601.08	0.005406
1610.73	0.004646
1620.37	0.003586
1630.01	0.002856
1639.66	0.002126
1649.3	0.001896
1658.95	0.002176
1668.59	0.001746
1678.24	0.001876
1687.88	0.001956
1697.53	0.002086
1707.17	0.002516
1716.82	0.002906
1726.46	0.004066
1736.11	0.006246
1745.75	0.011576
1755.4	0.020446
1765.04	0.044796
1774.69	0.080106
1784.33	0.050186
1793.98	0.017576
1803.62	0.008876
1813.27	0.004676
1822.91	0.002966
1832.55	0.002346
1842.2	0.001786
1851.84	0.001816
1861.49	0.0014893
1871.13	0.001646
1880.78	0.001896
1890.42	0.0015055
1900.07	0.0010856
1909.71	0.0009203
1919.36	0.000816
1929	0.0009624
1938.65	0.0013325
1948.29	0.0013165
1957.94	0.0009813
1967.58	0.0005026
1977.23	0.0008681
1986.87	0.0007458
1996.52	0.000328
2006.16	0.0007868
2015.81	0.0004868
2025.45	0.00062396
2035.1	0.000345
2044.74	0.00061387
2054.38	0.000405
2064.03	0.0004848
2073.67	0.0005024
2083.32	0.000672
2092.96	0.0005189
2102.61	0.0007782
2112.25	0.0007853
2121.9	0.0005019
2131.54	0.0006702
2141.19	0.0006499
2150.83	0.0005023
2160.48	0.000649
2170.12	0.00056794
2179.77	0.000806
2189.41	0.0007522
2199.06	0.0006892
2208.7	0.000795
2218.35	0.000424
2227.99	0.00057108
2237.64	0.000543747
2247.28	0.00062384
2256.92	0.00052984
2266.57	0.00059254
2276.21	0.0005119
2285.86	0.0006949
2295.5	0.0009464
2305.15	0.0010975
2314.79	0.0014097
2324.44	0.001676
2334.08	0.001836
2343.73	0.001546
2353.37	0.001806
2363.02	0.001926
2372.66	0.001806
2382.31	0.0011016
2391.95	0.0006993
2401.6	0.0004711
2411.24	0.00062677
2420.89	0.0008385
2430.53	0.0007838
2440.18	0.0004415
2449.82	0.0007151
2459.47	0.000788
2469.11	0.0008231
2478.75	0.0008525
2488.4	0.0007367
2498.04	0.0004983
2507.69	0.000782
2517.33	0.000365
2526.98	0.000544897
2536.62	0.0007543
2546.27	0.0006387
2555.91	0.0007361
2565.56	0.000696
2575.2	0.000398
2584.85	0.0006824
2594.49	0.000540078
2604.14	0.000698
2613.78	0.0006769
2623.43	0.0004845
2633.07	0.000263
2642.72	0.0007181
2652.36	0.0006426
2662.01	0.0007277
2671.65	0.0007379
2681.29	0.000836
2690.94	0.00062917
2700.58	0.000838
2710.23	0.0005022
2719.87	0.0007586
2729.52	0.0008172
2739.16	0.00055857
2748.81	0.0006384
2758.45	0.0007071
2768.1	0.0007983
2777.74	0.00061365
2787.39	0.0008262
2797.03	0.00068
2806.68	0.0008546
2816.32	0.0008624
2825.97	0.0007919
2835.61	0.0009622
2845.26	0.0009188
2854.9	0.0013892
2864.55	0.0013631
2874.19	0.002156
2883.84	0.002226
2893.48	0.002096
2903.12	0.002486
2912.77	0.002066
2922.41	0.002466
2932.06	0.002736
2941.7	0.003786
2951.35	0.003006
2960.99	0.002266
2970.64	0.002366
2980.28	0.002456
2989.93	0.002156
2999.57	0.002616
3009.22	0.002016
3018.86	0.001826
3028.51	0.001926
3038.15	0.002366
3047.8	0.002536
3057.44	0.002126
3067.09	0.003036
3076.73	0.003726
3086.38	0.002706
3096.02	0.001656
3105.67	0.0013097
3115.31	0.0006708
3124.95	0.0009853
3134.6	0.0008338
3144.24	0.0009447
3153.89	0.0008164
3163.53	0.0006872
3173.18	0.00034
3182.82	0.0007326
3192.47	0.00057813
3202.11	0.0007609
3211.76	0.0007595
3221.4	0.000455
3231.05	0.00058416
3240.69	0.0007693
3250.34	0.000311
3259.98	0.0009294
3269.63	0.0007892
3279.27	0.000403
3288.92	0.000316
3298.56	0.0007001
3308.21	0.00054864
3317.85	0.000259
3327.49	0.0007708
3337.14	0.000222
3346.78	0.0008837
3356.43	0.000324
3366.07	0.0007052
3375.72	0.000521
3385.36	0.0004572
3395.01	0.0009384
3404.65	0.00063416
3414.3	0.00064
3423.94	2.4e-05
3433.59	0.000407
3443.23	0.0007805
3452.88	0.0008856
3462.52	0.00055072
3472.17	0.000319
3481.81	0.0012151
3491.46	0.0005222
3501.1	0.000729
3510.75	0.0009183
3520.39	0.0009804
3530.04	0.0012721
3539.68	0.002436
3549.32	0.004636
3558.97	0.020766
3568.61	0.029326
3578.26	0.012746
3587.9	0.003986
3597.55	0.002046
3607.19	0.0010584
3616.84	0.0012181
3626.48	0.0010637
3636.13	0.0010338
3645.77	0.0005211
3655.42	0.0011924
3665.06	0.0007776
3674.71	0.0006837
3684.35	0.00043
3694	0.0008532
3703.64	0.00061257
3713.29	0.00054753
3722.93	0.0005055
3732.58	0.0007793
3742.22	0.000751
3751.86	0.0009188
3761.51	0.000419
3771.15	0.000417
3780.8	0.00062434
3790.44	0.00052982
3800.09	0.00054815
3809.73	0.0007399
3819.38	0.0008449
3829.02	0.0005588
3838.67	0.001021
3848.31	0.0010473
3857.96	0.00058293
3867.6	0.00057164
3877.25	0.00059222
3886.89	0.000208
3896.54	0.00057379
3906.18	0.0005249
3915.83	0.0007541
3925.47	0.000383
3935.12	0.000159
3944.76	0.000321
3954.41	0.0006603
3964.05	0.000219
3973.69	0.0005144
3983.34	0.0007312
3992.98	0.000371
