Infrared Spectrum: 3-Chloro-2,2-dimethylpropionic acid
Formula: C5 H9 Cl O2
CAS: 13511-38-1
State: SOLID (SPLIT MULL)
Melting point: 37 C
Class: COBLENTZ II
Instrument: DOW KBr FOREPRISM-GRATING
Instrument parameters: BLAZED AT 3.5, 12.0, 20.0 MICRON AND CHANGED AT 5.0, 7.5, 14.9 MICRON
Sampling: TRANSMISSION
Resolution: 2
Origin: DOW CHEMICAL COMPANY
1/CM	TRANSMITTANCE
3800	0.9743
3791	0.9744
3782	0.9748
3773	0.9737
3764	0.9715
3755	0.9708
3746	0.972
3737	0.9746
3728	0.9781
3719	0.9793
3710	0.9743
3701	0.9693
3692	0.972
3683	0.966
3674	0.9618
3665	0.9655
3656	0.9683
3647	0.9693
3638	0.9642
3629	0.9675
3620	0.9658
3611	0.9652
3602	0.9665
3593	0.9673
3584	0.9674
3575	0.9668
3566	0.9661
3557	0.9647
3548	0.9632
3539	0.9617
3530	0.9604
3521	0.9591
3512	0.9578
3503	0.9564
3494	0.9548
3485	0.9531
3476	0.9514
3467	0.9495
3458	0.9482
3449	0.9471
3440	0.9467
3431	0.946
3422	0.9442
3413	0.9368
3404	0.9375
3395	0.9362
3386	0.9328
3377	0.9294
3368	0.9264
3359	0.9228
3350	0.9189
3341	0.9143
3332	0.9099
3323	0.9058
3314	0.9018
3305	0.8941
3296	0.8861
3287	0.8784
3278	0.8709
3269	0.864
3260	0.8574
3251	0.8497
3242	0.8418
3233	0.8334
3224	0.8243
3215	0.8151
3206	0.8058
3197	0.7971
3188	0.7884
3179	0.7791
3170	0.7698
3161	0.7596
3152	0.7484
3143	0.7361
3134	0.7239
3125	0.7117
3116	0.7007
3107	0.6908
3098	0.6818
3089	0.6732
3080	0.6667
3071	0.6621
3062	0.6614
3053	0.6605
3044	0.6594
3035	0.6581
3026	0.6553
3017	0.6511
3008	0.6408
2999	0.6114
2990	0.5723
2981	0.5448
2972	0.5369
2963	0.5912
2954	0.6033
2945	0.6042
2936	0.6023
2927	0.6002
2918	0.6034
2909	0.6087
2900	0.6145
2891	0.6208
2882	0.6281
2873	0.637
2864	0.6486
2855	0.6644
2846	0.6785
2837	0.6924
2828	0.7061
2819	0.7189
2810	0.728
2801	0.7317
2792	0.7367
2783	0.7472
2774	0.7595
2765	0.7701
2756	0.7795
2747	0.7862
2738	0.7911
2729	0.7918
2720	0.7861
2711	0.7746
2702	0.7658
2693	0.7614
2684	0.7658
2675	0.7761
2666	0.7756
2657	0.7768
2648	0.7883
2639	0.7935
2630	0.7961
2621	0.7945
2612	0.7856
2603	0.771
2594	0.7662
2585	0.7711
2576	0.7843
2567	0.7997
2558	0.8136
2549	0.8275
2540	0.8352
2531	0.8375
2522	0.8374
2513	0.8349
2504	0.8332
2495	0.8421
2486	0.8536
2477	0.8668
2468	0.8803
2459	0.8909
2450	0.897
2441	0.8988
2432	0.9001
2423	0.9015
2414	0.9031
2405	0.9052
2396	0.9075
2387	0.9113
2378	0.9158
2369	0.9211
2360	0.9259
2351	0.9305
2342	0.9354
2333	0.9396
2324	0.9427
2315	0.945
2306	0.9404
2297	0.9358
2288	0.9359
2279	0.9393
2270	0.9413
2261	0.9415
2252	0.9432
2243	0.9435
2234	0.9438
2225	0.9438
2216	0.9434
2207	0.9428
2198	0.9423
2189	0.942
2180	0.9425
2171	0.9441
2162	0.9471
2153	0.9507
2144	0.9533
2135	0.9556
2126	0.9585
2117	0.9595
2108	0.9592
2099	0.9581
2090	0.9567
2081	0.9549
2072	0.9538
2063	0.9533
2054	0.9533
2045	0.9539
2036	0.9549
2027	0.9557
2018	0.9562
2009	0.956
2000	0.9547
1991	0.9318
1982	0.9352
1973	0.9367
1964	0.9391
1955	0.9442
1946	0.9367
1937	0.9384
1928	0.9397
1919	0.9412
1910	0.9409
1901	0.941
1892	0.9405
1883	0.9402
1874	0.9404
1865	0.9411
1856	0.9408
1847	0.9384
1838	0.9361
1829	0.9351
1820	0.9347
1811	0.9341
1802	0.9332
1793	0.9313
1784	0.9304
1775	0.9248
1766	0.9104
1757	0.8847
1748	0.8518
1739	0.8018
1730	0.7019
1721	0.4021
1712	0.2087
1703	0.2202
1694	0.4638
1685	0.6599
1676	0.7624
1667	0.8201
1658	0.859
1649	0.8862
1640	0.9035
1631	0.9177
1622	0.9327
1613	0.9463
1604	0.9575
1595	0.9649
1586	0.9674
1577	0.968
1568	0.9691
1559	0.9702
1550	0.9685
1541	0.9634
1532	0.9639
1523	0.9654
1514	0.9655
1505	0.9637
1496	0.9627
1487	0.9546
1478	0.8658
1469	0.7356
1460	0.8501
1451	0.8887
1442	0.8842
1433	0.8951
1424	0.888
1415	0.9228
1406	0.8385
1397	0.8883
1388	0.8717
1379	0.92
1370	0.9394
1361	0.9078
1352	0.9509
1343	0.9553
1334	0.9553
1325	0.937
1316	0.8196
1307	0.6661
1298	0.6975
1289	0.815
1280	0.8508
1271	0.8856
1262	0.9042
1253	0.8584
1244	0.9021
1235	0.8952
1226	0.7471
1217	0.6032
1208	0.7128
1199	0.8765
1190	0.9271
1181	0.9521
1172	0.9325
1163	0.9
1154	0.8892
1145	0.9431
1136	0.9714
1127	0.9323
1118	0.9324
1109	0.971
1100	0.99
1091	1.0004
1082	0.9995
1073	0.9944
1064	0.9966
1055	1.0015
1046	1.0039
1037	1.0042
1028	1.003
1019	0.997
1010	0.9889
1001	0.992
992	0.9824
983	0.9649
974	0.9307
965	0.8941
956	0.8907
947	0.8457
938	0.7981
929	0.8238
920	0.8433
911	0.8299
902	0.8875
893	0.9315
884	0.9256
875	0.9168
866	0.916
857	0.9089
848	0.9665
839	0.9946
830	1.0057
821	1.0082
812	1.0073
803	0.9995
794	0.9939
785	0.9757
776	0.8914
767	0.9521
758	0.9917
749	0.9917
740	0.9702
731	0.8567
722	0.8758
713	0.9578
704	0.9987
695	1.0173
686	1.0264
677	1.0292
668	1.0197
659	1.0321
650	1.0243
641	1.0212
632	0.9974
623	0.9835
614	1.0109
605	1.014
596	1.0091
587	0.9955
578	0.8985
569	0.9708
560	0.9821
551	0.9413
542	0.9071
533	0.9388
524	0.958
515	0.9535
506	0.9495
497	0.9532
488	0.9631
479	0.9718
470	0.9692
461	0.9641
