Infrared Spectrum: 5-Amino-2,2-dimethylpentanol
Formula: C 7 H 17 N O
CAS: 13532-77-9
State: gas
Origin: EPA-IR VAPOR PHASE LIBRARY
1/CM	ABSORBANCE
549.8	0.0015125
559.445	0.0013725
569.09	0.0016925
578.734	0.0016625
588.379	0.0010925
598.024	0.0009773
607.669	0.0013325
617.313	0.0012825
626.958	0.0012525
636.603	0.0015025
646.248	0.0017725
655.893	0.0018325
665.537	0.0016725
675.182	0.0018825
684.827	0.0023125
694.472	0.0023325
704.116	0.0028425
713.761	0.0035025
723.406	0.0045025
733.051	0.0055725
742.695	0.0069625
752.34	0.0076525
761.985	0.0087825
771.63	0.0093225
781.275	0.0089525
790.919	0.0066925
800.564	0.0048225
810.209	0.0036725
819.854	0.0029925
829.498	0.0027225
839.143	0.0026725
848.788	0.0022525
858.433	0.0023625
868.078	0.0022925
877.722	0.0023725
887.367	0.0025725
897.012	0.0027525
906.657	0.0025025
916.301	0.0018325
925.946	0.0018725
935.591	0.0018025
945.236	0.0019425
954.88	0.0022725
964.525	0.0023525
974.17	0.0028025
983.815	0.0030325
993.46	0.0037525
1003.1	0.0048825
1012.75	0.0075625
1022.39	0.0114525
1032.04	0.0158825
1041.68	0.0187325
1051.33	0.0165825
1060.97	0.0114025
1070.62	0.0078725
1080.26	0.0051725
1089.91	0.0034325
1099.55	0.0026825
1109.2	0.0022625
1118.84	0.0021025
1128.49	0.0021925
1138.13	0.0025325
1147.78	0.0021425
1157.42	0.0026025
1167.07	0.0025425
1176.71	0.0028425
1186.36	0.0024625
1196	0.0026225
1205.64	0.0020325
1215.29	0.0020325
1224.93	0.0022925
1234.58	0.0019725
1244.22	0.0023125
1253.87	0.0025025
1263.51	0.0026325
1273.16	0.0023525
1282.8	0.0024425
1292.45	0.0024225
1302.09	0.0023225
1311.74	0.0022425
1321.38	0.0021825
1331.03	0.0022425
1340.67	0.0025625
1350.32	0.0034425
1359.96	0.0050125
1369.61	0.0066125
1379.25	0.0062925
1388.9	0.0054625
1398.54	0.0043625
1408.18	0.0027825
1417.83	0.0019525
1427.47	0.0016925
1437.12	0.0020125
1446.76	0.0028025
1456.41	0.0041825
1466.05	0.0055325
1475.7	0.0060125
1485.34	0.0043425
1494.99	0.0022125
1504.63	0.0013425
1514.28	0.0009117
1523.92	0.0007994
1533.57	0.0007599
1543.21	0.0008213
1552.86	0.0006969
1562.5	0.0008322
1572.15	0.0008974
1581.79	0.0009926
1591.44	0.0012325
1601.08	0.0016125
1610.73	0.0024025
1620.37	0.0030425
1630.01	0.0026725
1639.66	0.0018225
1649.3	0.0011725
1658.95	0.0007597
1668.59	0.0006089
1678.24	0.0004697
1687.88	0.0004269
1697.53	0.0003931
1707.17	0.0002962
1716.82	0.0003798
1726.46	0.0002277
1736.11	0.0003339
1745.75	0.0002483
1755.4	0.0003268
1765.04	0.0002978
1774.69	0.0002744
1784.33	0.0002488
1793.98	0.0002488
1803.62	0.0002643
1813.27	0.0002754
1822.91	0.0002455
1832.55	0.0001933
1842.2	0.0001894
1851.84	0.000199
1861.49	0.000203
1871.13	0.0001367
1880.78	0.0001182
1890.42	7.818e-05
1900.07	0.0001771
1909.71	0.000107
1919.36	7.674e-05
1929	0.0001932
1938.65	0.0001344
1948.29	8.207e-05
1957.94	0.0001025
1967.58	9.056e-05
1977.23	0.0001605
1986.87	0.0001145
1996.52	8.956e-05
2006.16	0.00012
2015.81	7.053e-05
2025.45	0.0001191
2035.1	0.0001515
2044.74	0.000201
2054.38	0.0002517
2064.03	0.0002229
2073.67	0.00018
2083.32	0.0001724
2092.96	0.0001834
2102.61	0.0001306
2112.25	0.0001221
2121.9	0.0001355
2131.54	0.0001118
2141.19	8.009e-05
2150.83	7.596e-05
2160.48	2.975e-05
2170.12	7.581e-05
2179.77	4.916e-05
2189.41	4.13e-05
2199.06	7.063e-05
2208.7	0.00010084
2218.35	2.641e-05
2227.99	0.0001262
2237.64	0.0001064
2247.28	0.0001701
2256.92	0.0001352
2266.57	0.0001984
2276.21	0.0001438
2285.86	0.0001192
2295.5	0.0001654
2305.15	0.0001591
2314.79	0.0001355
2324.44	7.277e-05
2334.08	8.536e-05
2343.73	5.358e-05
2353.37	0.0001634
2363.02	8.991e-05
2372.66	0.0001682
2382.31	0.000179
2391.95	0.0002213
2401.6	0.0001452
2411.24	0.0001533
2420.89	0.0001992
2430.53	0.0001697
2440.18	0.0001872
2449.82	0.000157
2459.47	0.0001435
2469.11	0.000147
2478.75	0.000132
2488.4	0.0001124
2498.04	0.0001311
2507.69	0.0002193
2517.33	0.0001425
2526.98	0.0001409
2536.62	0.0002276
2546.27	0.0001295
2555.91	0.0001578
2565.56	0.0001556
2575.2	0.0002365
2584.85	0.0002433
2594.49	0.0004064
2604.14	0.0003565
2613.78	0.0003149
2623.43	0.000406
2633.07	0.0004915
2642.72	0.00054
2652.36	0.0005856
2662.01	0.0006659
2671.65	0.0007614
2681.29	0.0008157
2690.94	0.0009123
2700.58	0.0010125
2710.23	0.0011425
2719.87	0.0014125
2729.52	0.0016125
2739.16	0.0016325
2748.81	0.0016425
2758.45	0.0017025
2768.1	0.0017325
2777.74	0.0018325
2787.39	0.0019825
2797.03	0.0022225
2806.68	0.0026725
2816.32	0.0033525
2825.97	0.0042725
2835.61	0.0063725
2845.26	0.0094425
2854.9	0.0137325
2864.55	0.0178725
2874.19	0.0206025
2883.84	0.0198625
2893.48	0.0187625
2903.12	0.0202825
2912.77	0.0231725
2922.41	0.0262225
2932.06	0.0301325
2941.7	0.0321125
2951.35	0.0320025
2960.99	0.0312325
2970.64	0.0255725
2980.28	0.0144925
2989.93	0.0062725
2999.57	0.0029025
3009.22	0.0017825
3018.86	0.0012425
3028.51	0.0010525
3038.15	0.0007893
3047.8	0.0006693
3057.44	0.0006091
3067.09	0.0005988
3076.73	0.0004801
3086.38	0.0006767
3096.02	0.0004729
3105.67	0.0005649
3115.31	0.0004681
3124.95	0.0003244
3134.6	0.0003918
3144.24	0.0004347
3153.89	0.000359
3163.53	0.0003338
3173.18	0.0002841
3182.82	0.0004377
3192.47	0.0005761
3202.11	0.0003742
3211.76	0.0003367
3221.4	0.0002621
3231.05	0.0002417
3240.69	0.0001774
3250.34	0.0002183
3259.98	0.0002087
3269.63	0.0001357
3279.27	0.0001972
3288.92	0.0002515
3298.56	0.0003257
3308.21	0.0002484
3317.85	0.000169
3327.49	0.0002761
3337.14	0.0003211
3346.78	0.000354
3356.43	0.0004347
3366.07	0.0004168
3375.72	0.0004158
3385.36	0.0004161
3395.01	0.0003723
3404.65	0.0005914
3414.3	0.0005572
3423.94	0.0005852
3433.59	0.0004435
3443.23	0.0004763
3452.88	0.00042
3462.52	0.0004971
3472.17	0.0004491
3481.81	0.000415
3491.46	0.0003728
3501.1	0.0005874
3510.75	0.000351
3520.39	0.0004125
3530.04	0.0003156
3539.68	0.0003062
3549.32	0.0003212
3558.97	0.0002436
3568.61	0.0002943
3578.26	0.000309
3587.9	0.0002275
3597.55	0.0002934
3607.19	0.000256
3616.84	0.0005188
3626.48	0.0004928
3636.13	0.0006223
3645.77	0.0010825
3655.42	0.0019625
3665.06	0.0035425
3674.71	0.0037725
3684.35	0.0021125
3694	0.0010925
3703.64	0.0006206
3713.29	0.0002218
3722.93	0.0004369
3732.58	0.0004015
3742.22	0.0002636
3751.86	0.0002913
3761.51	0.0001898
3771.15	0.0003543
3780.8	0.0001901
3790.44	0.0002558
3800.09	0.0002711
3809.73	0.000155
3819.38	0.0001581
3829.02	0.0001518
3838.67	0.0001725
3848.31	0.000278
3857.96	0.000231
3867.6	0.0003439
3877.25	0.0001904
3886.89	0.0002478
3896.54	0.0002442
3906.18	0.000329
3915.83	0.0003278
3925.47	7.844e-05
3935.12	0.0003938
3944.76	0.0001959
3954.41	0.0001216
3964.05	6.445e-05
3973.69	0
3983.34	0.000283
3992.98	0.0001476
