Infrared Spectrum: 3,5-Difluoropropiophenone
Formula: C 9 H 8 F 2 O
CAS: 135306-45-5
State: gas
Origin: EPA-IR VAPOR PHASE LIBRARY
1/CM	ABSORBANCE
549.8	0.00454
559.445	0.00769
569.09	0.00653
578.734	0.00286
588.379	0.0054
598.024	0.00665
607.669	0.00508
617.313	0.00441
626.958	0.00329
636.603	0.00322
646.248	0.00497
655.893	0.00978
665.537	0.01748
675.182	0.01653
684.827	0.0107
694.472	0.00944
704.116	0.00681
713.761	0.00494
723.406	0.0052
733.051	0.0057
742.695	0.00565
752.34	0.00433
761.985	0.00407
771.63	0.00418
781.275	0.00377
790.919	0.00567
800.564	0.00806
810.209	0.01214
819.854	0.00978
829.498	0.01274
839.143	0.0247
848.788	0.05637
858.433	0.07979
868.078	0.04448
877.722	0.01986
887.367	0.01689
897.012	0.01075
906.657	0.00481
916.301	0.00279
925.946	0.00247
935.591	0.00302
945.236	0.00367
954.88	0.00693
964.525	0.01277
974.17	0.03225
983.815	0.06076
993.46	0.0484
1003.1	0.01727
1012.75	0.01119
1022.39	0.01108
1032.04	0.01302
1041.68	0.01046
1051.33	0.0077
1060.97	0.00712
1070.62	0.00787
1080.26	0.00865
1089.91	0.01181
1099.55	0.01653
1109.2	0.03089
1118.84	0.09494
1128.49	0.1185
1138.13	0.04404
1147.78	0.02132
1157.42	0.04002
1167.07	0.05159
1176.71	0.02885
1186.36	0.02094
1196	0.01503
1205.64	0.01027
1215.29	0.0075
1224.93	0.00508
1234.58	0.00572
1244.22	0.00502
1253.87	0.00618
1263.51	0.00617
1273.16	0.00814
1282.8	0.01238
1292.45	0.02766
1302.09	0.07683
1311.74	0.12799
1321.38	0.12027
1331.03	0.10322
1340.67	0.09187
1350.32	0.08582
1359.96	0.05178
1369.61	0.02235
1379.25	0.01818
1388.9	0.0169
1398.54	0.01257
1408.18	0.0135
1417.83	0.02433
1427.47	0.06088
1437.12	0.09531
1446.76	0.07403
1456.41	0.04767
1466.05	0.03756
1475.7	0.02283
1485.34	0.01272
1494.99	0.01047
1504.63	0.01083
1514.28	0.01101
1523.92	0.0096
1533.57	0.00866
1543.21	0.00902
1552.86	0.01229
1562.5	0.02104
1572.15	0.03984
1581.79	0.07021
1591.44	0.09712
1601.08	0.10523
1610.73	0.10518
1620.37	0.07515
1630.01	0.03364
1639.66	0.01903
1649.3	0.01527
1658.95	0.01497
1668.59	0.01402
1678.24	0.01729
1687.88	0.02963
1697.53	0.05806
1707.17	0.09544
1716.82	0.0919
1726.46	0.04455
1736.11	0.01858
1745.75	0.01242
1755.4	0.00852
1765.04	0.00545
1774.69	0.00416
1784.33	0.00343
1793.98	0.00245
1803.62	0.00204
1813.27	0.00209
1822.91	0.00178
1832.55	0.0021
1842.2	0.00203
1851.84	0.00195
1861.49	0.00182
1871.13	0.00186
1880.78	0.00195
1890.42	0.001542
1900.07	0.00179
1909.71	0.0015945
1919.36	0.0015284
1929	0.0016129
1938.65	0.0013938
1948.29	0.0015846
1957.94	0.0015579
1967.58	0.00222
1977.23	0.00204
1986.87	0.0022
1996.52	0.00174
2006.16	0.0016062
2015.81	0.0013557
2025.45	0.0015863
2035.1	0.0014707
2044.74	0.001255
2054.38	0.0013729
2064.03	0.0013111
2073.67	0.0011153
2083.32	0.0013576
2092.96	0.00181
2102.61	0.00204
2112.25	0.00252
2121.9	0.00203
2131.54	0.0015066
2141.19	0.00194
2150.83	0.00181
2160.48	0.00176
2170.12	0.0016451
2179.77	0.0013959
2189.41	0.0014247
2199.06	0.0013984
2208.7	0.0013008
2218.35	0.0012269
2227.99	0.0011957
2237.64	0.001283
2247.28	0.0016765
2256.92	0.0015202
2266.57	0.0015393
2276.21	0.00173
2285.86	0.00208
2295.5	0.00205
2305.15	0.00208
2314.79	0.00181
2324.44	0.00177
2334.08	0.0016292
2343.73	0.0013878
2353.37	0.001088
2363.02	0.0013386
2372.66	0.0014751
2382.31	0.0016499
2391.95	0.0012593
2401.6	0.0016497
2411.24	0.00176
2420.89	0.00235
2430.53	0.00275
2440.18	0.00268
2449.82	0.0022
2459.47	0.00201
2469.11	0.00198
2478.75	0.0016792
2488.4	0.0015738
2498.04	0.0011411
2507.69	0.0015039
2517.33	0.0013522
2526.98	0.0017
2536.62	0.0011935
2546.27	0.00172
2555.91	0.0013521
2565.56	0.00181
2575.2	0.0014876
2584.85	0.0016317
2594.49	0.00209
2604.14	0.00176
2613.78	0.00172
2623.43	0.0016357
2633.07	0.00186
2642.72	0.0014895
2652.36	0.0014797
2662.01	0.0012491
2671.65	0.00169
2681.29	0.0014168
2690.94	0.0015198
2700.58	0.0015697
2710.23	0.0016216
2719.87	0.0015157
2729.52	0.0016538
2739.16	0.00223
2748.81	0.0022
2758.45	0.00194
2768.1	0.00184
2777.74	0.00197
2787.39	0.00191
2797.03	0.00173
2806.68	0.00213
2816.32	0.00238
2825.97	0.00271
2835.61	0.00299
2845.26	0.0029
2854.9	0.00359
2864.55	0.00374
2874.19	0.0058
2883.84	0.00856
2893.48	0.01089
2903.12	0.0115
2912.77	0.01467
2922.41	0.01631
2932.06	0.01417
2941.7	0.01654
2951.35	0.02328
2960.99	0.01736
2970.64	0.01397
2980.28	0.0226
2989.93	0.02881
2999.57	0.01825
3009.22	0.00859
3018.86	0.00617
3028.51	0.00493
3038.15	0.00396
3047.8	0.00361
3057.44	0.00349
3067.09	0.00427
3076.73	0.00404
3086.38	0.00536
3096.02	0.00725
3105.67	0.00535
3115.31	0.00332
3124.95	0.00204
3134.6	0.0014982
3144.24	0.00214
3153.89	0.0015036
3163.53	0.001442
3173.18	0.00172
3182.82	0.0008832
3192.47	0.0012002
3202.11	0.00208
3211.76	0.0011937
3221.4	0.0012241
3231.05	0.0016603
3240.69	0.0012608
3250.34	0.0011786
3259.98	0.0010634
3269.63	0.00075395
3279.27	0.001018
3288.92	0.000424
3298.56	0.0011147
3308.21	0.0009517
3317.85	0.0012587
3327.49	0.0010167
3337.14	0.0008894
3346.78	0.0008167
3356.43	0.0011051
3366.07	0.0007432
3375.72	0.0008743
3385.36	0.0018
3395.01	0.00254
3404.65	0.00219
3414.3	0.00201
3423.94	0.001507
3433.59	0.0014192
3443.23	0.0011673
3452.88	0.0010342
3462.52	0.0008644
3472.17	0.0013111
3481.81	0.0010976
3491.46	0.000295
3501.1	0.0010687
3510.75	0.0010229
3520.39	0.0014966
3530.04	0.0011779
3539.68	0.0008475
3549.32	0.000535
3558.97	0.00077538
3568.61	0.0009037
3578.26	0.000471
3587.9	0.0010305
3597.55	0.0011318
3607.19	0.000571
3616.84	0.0008181
3626.48	0.0010067
3636.13	0.0010239
3645.77	0.0010903
3655.42	0.00077871
3665.06	0.0009973
3674.71	0.0011328
3684.35	0.0009364
3694	0.0011611
3703.64	0.000403
3713.29	0.000325
3722.93	0.0012748
3732.58	0.0010772
3742.22	0.0009834
3751.86	0.0011167
3761.51	0.0012093
3771.15	0.000583
3780.8	0.0006785
3790.44	0.0009985
3800.09	0.0009256
3809.73	0.000821
3819.38	0.0013239
3829.02	0.000264
3838.67	0.000431
3848.31	0.0006196
3857.96	0.0009877
3867.6	0.000319
3877.25	0.000528
3886.89	0.000866
3896.54	0.00078319
3906.18	0.000476
3915.83	0.0009279
3925.47	0.000511
3935.12	0.000588
3944.76	0.0015131
3954.41	0.00181
3964.05	0.0012522
3973.69	0.0006702
3983.34	0.0010882
3992.98	0.0012053
