Infrared Spectrum: 1-HYDROXY-2-NAPHTHANILIDE
Formula: C17 H13 N O2
CAS: 13545-65-8
State: SOLID (KBr PRESSING)
Melting point: 155-156 C
Class: COBLENTZ
Instrument: Not specified, most likely a prism, grating, or hybrid spectrometer.
Sampling: TRANSMISSION
Resolution: 4
Origin: EASTMAN KODAK COMPANY, RESEARCH LABORATORIES, ROCHESTER, N.Y.
MICROMETERS	TRANSMITTANCE
2.028	0.766
2.06312	0.773
2.09825	0.782
2.13337	0.783
2.16849	0.785
2.20362	0.792
2.23874	0.799
2.27386	0.804
2.30898	0.81
2.34411	0.815
2.37923	0.822
2.41435	0.831
2.44948	0.829
2.4846	0.827
2.51972	0.834
2.55485	0.846
2.58997	0.848
2.62509	0.851
2.66022	0.853
2.69534	0.855
2.73046	0.857
2.76559	0.853
2.80071	0.846
2.83583	0.803
2.87095	0.756
2.90608	0.738
2.9412	0.627
2.97632	0.681
3.01145	0.721
3.04657	0.735
3.08169	0.775
3.11682	0.794
3.15194	0.808
3.18706	0.813
3.22219	0.817
3.25731	0.822
3.29243	0.775
3.32756	0.775
3.36268	0.801
3.3978	0.806
3.43292	0.808
3.46805	0.808
3.50317	0.813
3.53829	0.815
3.57342	0.813
3.60854	0.801
3.64366	0.792
3.67879	0.792
3.71391	0.803
3.74903	0.806
3.78416	0.815
3.81928	0.825
3.8544	0.824
3.88953	0.829
3.92465	0.844
3.95977	0.857
3.99489	0.865
4.03002	0.871
4.06514	0.871
4.10026	0.869
4.13539	0.867
4.17051	0.872
4.20563	0.874
4.24076	0.886
4.27588	0.909
4.311	0.918
4.34613	0.916
4.38125	0.904
4.41637	0.902
4.45149	0.905
4.48662	0.902
4.52174	0.904
4.55686	0.905
4.59199	0.907
4.62711	0.912
4.66223	0.905
4.69736	0.912
4.73248	0.918
4.7676	0.925
4.80273	0.923
4.83785	0.925
4.87297	0.919
4.9081	0.925
4.94322	0.925
4.97834	0.926
5.01346	0.925
5.04859	0.926
5.08371	0.928
5.11883	0.914
5.15396	0.9
5.18908	0.902
5.2242	0.909
5.25933	0.921
5.29445	0.916
5.32957	0.911
5.3647	0.916
5.39982	0.919
5.43494	0.921
5.47007	0.919
5.50519	0.921
5.54031	0.912
5.57543	0.912
5.61056	0.914
5.64568	0.909
5.6808	0.905
5.71593	0.893
5.75105	0.891
5.78617	0.891
5.8213	0.885
5.85642	0.883
5.89154	0.883
5.92667	0.885
5.96179	0.878
5.99691	0.857
6.03204	0.824
6.06716	0.804
6.10228	0.522
6.1374	0.435
6.17253	0.386
6.20765	0.616
6.24277	0.252
6.2779	0.407
6.31302	0.534
6.34814	0.51
6.38327	0.646
6.41839	0.682
6.45351	0.405
6.48864	0.304
6.52376	0.2
6.55888	0.364
6.59401	0.564
6.62913	0.668
6.66425	0.353
6.69937	0.538
6.7345	0.644
6.76962	0.731
6.80474	0.56
6.83987	0.414
6.87499	0.665
6.91011	0.611
6.94524	0.277
6.98036	0.594
7.01548	0.764
7.05061	0.756
7.08573	0.472
7.12085	0.463
7.15597	0.695
7.1911	0.621
7.22622	0.405
7.26134	0.59
7.29647	0.608
7.33159	0.559
7.36671	0.487
7.40184	0.541
7.43696	0.585
7.47208	0.588
7.50721	0.646
7.54233	0.717
7.57745	0.705
7.61258	0.55
7.6477	0.341
7.68282	0.243
7.71794	0.273
7.75307	0.566
7.78819	0.679
7.82331	0.731
7.85844	0.681
7.89356	0.567
7.92868	0.7
7.96381	0.747
7.99893	0.691
8.03405	0.505
8.06918	0.533
8.1043	0.707
8.13942	0.757
8.17455	0.804
8.20967	0.789
8.24479	0.724
8.27991	0.547
8.31504	0.689
8.35016	0.777
8.38528	0.815
8.42041	0.827
8.45553	0.801
8.49065	0.777
8.52578	0.79
8.5609	0.75
8.59602	0.766
8.63115	0.778
8.66627	0.77
8.70139	0.712
8.73652	0.722
8.77164	0.771
8.80676	0.81
8.84188	0.824
8.87701	0.846
8.91213	0.851
8.94725	0.857
8.98238	0.853
9.0175	0.85
9.05262	0.853
9.08775	0.848
9.12287	0.756
9.15799	0.653
9.19312	0.747
9.22824	0.787
9.26336	0.806
9.29848	0.82
9.33361	0.862
9.36873	0.862
9.40385	0.878
9.43898	0.872
9.4741	0.876
9.50922	0.883
9.54435	0.886
9.57947	0.886
9.61459	0.864
9.64972	0.857
9.68484	0.855
9.71996	0.834
9.75509	0.813
9.79021	0.864
9.82533	0.879
9.86045	0.897
9.89558	0.898
9.9307	0.905
9.96582	0.893
10.0009	0.898
10.0361	0.893
10.0712	0.897
10.1063	0.893
10.1414	0.898
10.1766	0.891
10.2117	0.895
10.2468	0.897
10.2819	0.888
10.3171	0.9
10.3522	0.888
10.3873	0.895
10.4224	0.886
10.4575	0.874
10.4927	0.855
10.5278	0.853
10.5629	0.844
10.598	0.817
10.6332	0.75
10.6683	0.696
10.7034	0.799
10.7385	0.836
10.7737	0.865
10.8088	0.872
10.8439	0.872
10.879	0.874
10.9141	0.867
10.9493	0.865
10.9844	0.85
11.0195	0.843
11.0546	0.785
11.0898	0.764
11.1249	0.783
11.16	0.799
11.1951	0.815
11.2303	0.806
11.2654	0.794
11.3005	0.761
11.3356	0.703
11.3707	0.656
11.4059	0.625
11.441	0.646
11.4761	0.695
11.5112	0.731
11.5464	0.777
11.5815	0.785
11.6166	0.775
11.6517	0.761
11.6869	0.766
11.722	0.808
11.7571	0.824
11.7922	0.818
11.8273	0.831
11.8625	0.836
11.8976	0.832
11.9327	0.848
11.9678	0.844
12.003	0.837
12.0381	0.855
12.0732	0.843
12.1083	0.841
12.1435	0.862
12.1786	0.837
12.2137	0.817
12.2488	0.716
12.2839	0.573
12.3191	0.668
12.3542	0.763
12.3893	0.771
12.4244	0.803
12.4596	0.824
12.4947	0.796
12.5298	0.761
12.5649	0.606
12.6001	0.472
12.6352	0.595
12.6703	0.745
12.7054	0.78
12.7406	0.818
12.7757	0.843
12.8108	0.815
12.8459	0.808
12.881	0.815
12.9162	0.789
12.9513	0.756
12.9864	0.7
13.0215	0.618
13.0567	0.51
13.0918	0.351
13.1269	0.306
13.162	0.236
13.1972	0.242
13.2323	0.383
13.2674	0.385
13.3025	0.4
13.3376	0.548
13.3728	0.66
13.4079	0.709
13.443	0.735
13.4781	0.757
13.5133	0.787
13.5484	0.785
13.5835	0.771
13.6186	0.777
13.6538	0.773
13.6889	0.726
13.724	0.717
13.7591	0.729
13.7942	0.705
13.8294	0.635
13.8645	0.635
13.8996	0.714
13.9347	0.731
13.9699	0.728
14.005	0.728
14.0401	0.747
14.0752	0.764
14.1104	0.742
14.1455	0.726
14.1806	0.722
14.2157	0.726
14.2508	0.722
14.286	0.695
14.3211	0.677
14.3562	0.674
14.3913	0.66
14.4265	0.606
14.4616	0.566
14.4967	0.484
14.5318	0.404
14.567	0.362
14.6021	0.439
14.6372	0.548
14.6723	0.616
14.7074	0.649
14.7426	0.658
14.7777	0.655
14.8128	0.653
14.8479	0.651
14.8831	0.646
14.9182	0.614
14.9533	0.599
14.9884	0.655
15.0236	0.646
15.0587	0.595
15.0938	0.585
15.1289	0.58
15.164	0.562
15.1992	0.538
15.2343	0.519
15.2694	0.501
15.3045	0.505
15.3397	0.517
15.3748	0.519
15.4099	0.531
15.445	0.529
15.4802	0.527
15.5153	0.524
15.5504	0.52
15.5855	0.52
15.6206	0.517
15.6558	0.517
15.6909	0.512
15.726	0.51
15.7611	0.508
15.7963	0.508
15.8314	0.505
15.8665	0.503
15.9016	0.501
15.9368	0.494
15.9719	0.494
16.007	0.494
