Infrared Spectrum: Methyl N-chloroacetylcarbamate
Formula: C 4 H 6 Cl N O 3
CAS: 13558-70-8
State: gas
Origin: EPA-IR VAPOR PHASE LIBRARY
1/CM	ABSORBANCE
549.8	0.005301
559.445	0.003931
569.09	0.003071
578.734	0.004511
588.379	0.005531
598.024	0.007311
607.669	0.007901
617.313	0.008501
626.958	0.009001
636.603	0.008991
646.248	0.008841
655.893	0.010491
665.537	0.011651
675.182	0.010671
684.827	0.008981
694.472	0.007361
704.116	0.006331
713.761	0.005491
723.406	0.004971
733.051	0.005061
742.695	0.005191
752.34	0.006221
761.985	0.007661
771.63	0.009971
781.275	0.010401
790.919	0.009781
800.564	0.009441
810.209	0.007001
819.854	0.004831
829.498	0.004431
839.143	0.004861
848.788	0.005631
858.433	0.005581
868.078	0.003131
877.722	0.002351
887.367	0.001881
897.012	0.002241
906.657	0.002671
916.301	0.003291
925.946	0.003051
935.591	0.003271
945.236	0.002951
954.88	0.004341
964.525	0.005351
974.17	0.005931
983.815	0.005951
993.46	0.006761
1003.1	0.007471
1012.75	0.006891
1022.39	0.006231
1032.04	0.013261
1041.68	0.012421
1051.33	0.023111
1060.97	0.032871
1070.62	0.031681
1080.26	0.022731
1089.91	0.015951
1099.55	0.013231
1109.2	0.012691
1118.84	0.011561
1128.49	0.008821
1138.13	0.011001
1147.78	0.014661
1157.42	0.020871
1167.07	0.028621
1176.71	0.042271
1186.36	0.068541
1196	0.081411
1205.64	0.060301
1215.29	0.030641
1224.93	0.016021
1234.58	0.012911
1244.22	0.012861
1253.87	0.014651
1263.51	0.014221
1273.16	0.015031
1282.8	0.021261
1292.45	0.028001
1302.09	0.027361
1311.74	0.020971
1321.38	0.018181
1331.03	0.017041
1340.67	0.013981
1350.32	0.010191
1359.96	0.008961
1369.61	0.009161
1379.25	0.010531
1388.9	0.013401
1398.54	0.017421
1408.18	0.023261
1417.83	0.028951
1427.47	0.030111
1437.12	0.025111
1446.76	0.023201
1456.41	0.029061
1466.05	0.041571
1475.7	0.046981
1485.34	0.037371
1494.99	0.028591
1504.63	0.020291
1514.28	0.012411
1523.92	0.007701
1533.57	0.005971
1543.21	0.004891
1552.86	0.004151
1562.5	0.003641
1572.15	0.003441
1581.79	0.003091
1591.44	0.003531
1601.08	0.003391
1610.73	0.003341
1620.37	0.003161
1630.01	0.003121
1639.66	0.002561
1649.3	0.002101
1658.95	0.002291
1668.59	0.002321
1678.24	0.003241
1687.88	0.004161
1697.53	0.005221
1707.17	0.007471
1716.82	0.012661
1726.46	0.025601
1736.11	0.050951
1745.75	0.074871
1755.4	0.081871
1765.04	0.075131
1774.69	0.067221
1784.33	0.052081
1793.98	0.026671
1803.62	0.014841
1813.27	0.013381
1822.91	0.014401
1832.55	0.011721
1842.2	0.006061
1851.84	0.003781
1861.49	0.003141
1871.13	0.002621
1880.78	0.001861
1890.42	0.0016911
1900.07	0.001673
1909.71	0.0014653
1919.36	0.0013247
1929	0.0013587
1938.65	0.0011721
1948.29	0.0012279
1957.94	0.0013362
1967.58	0.0009591
1977.23	0.0011848
1986.87	0.0010806
1996.52	0.0012581
2006.16	0.0010099
2015.81	0.0011664
2025.45	0.0013338
2035.1	0.0012751
2044.74	0.0014234
2054.38	0.0014928
2064.03	0.0014911
2073.67	0.0016304
2083.32	0.001761
2092.96	0.0016535
2102.61	0.001881
2112.25	0.001821
2121.9	0.002301
2131.54	0.002691
2141.19	0.003231
2150.83	0.003821
2160.48	0.005001
2170.12	0.006941
2179.77	0.009331
2189.41	0.011411
2199.06	0.013671
2208.7	0.017011
2218.35	0.022481
2227.99	0.030191
2237.64	0.044631
2247.28	0.073921
2256.92	0.106661
2266.57	0.108201
2276.21	0.070001
2285.86	0.033351
2295.5	0.017231
2305.15	0.011281
2314.79	0.009031
2324.44	0.008181
2334.08	0.006931
2343.73	0.006351
2353.37	0.006141
2363.02	0.006801
2372.66	0.005511
2382.31	0.003421
2391.95	0.002291
2401.6	0.002181
2411.24	0.001722
2420.89	0.0015443
2430.53	0.0012914
2440.18	0.0015226
2449.82	0.0011488
2459.47	0.0011863
2469.11	0.0013825
2478.75	0.0009621
2488.4	0.00084091
2498.04	0.0009831
2507.69	0.0008644
2517.33	0.0010476
2526.98	0.0009479
2536.62	0.0010388
2546.27	0.0009884
2555.91	0.0008723
2565.56	0.0009565
2575.2	0.0009469
2584.85	0.00083598
2594.49	0.00076666
2604.14	0.00079226
2613.78	0.0007334
2623.43	0.0007364
2633.07	0.0008164
2642.72	0.0010351
2652.36	0.0009424
2662.01	0.00083392
2671.65	0.0010937
2681.29	0.001122
2690.94	0.00074838
2700.58	0.0009044
2710.23	0.0010503
2719.87	0.0009354
2729.52	0.0006814
2739.16	0.0010487
2748.81	0.0010492
2758.45	0.001444
2768.1	0.0012531
2777.74	0.0011908
2787.39	0.0015546
2797.03	0.001971
2806.68	0.002211
2816.32	0.002561
2825.97	0.002561
2835.61	0.002741
2845.26	0.003661
2854.9	0.003001
2864.55	0.004031
2874.19	0.003631
2883.84	0.004261
2893.48	0.004061
2903.12	0.004401
2912.77	0.005051
2922.41	0.005421
2932.06	0.004941
2941.7	0.006471
2951.35	0.007721
2960.99	0.011001
2970.64	0.011741
2980.28	0.009141
2989.93	0.006611
2999.57	0.005531
3009.22	0.005371
3018.86	0.004311
3028.51	0.003981
3038.15	0.003901
3047.8	0.003471
3057.44	0.002761
3067.09	0.002671
3076.73	0.002261
3086.38	0.001971
3096.02	0.0017042
3105.67	0.0014749
3115.31	0.00101
3124.95	0.0009128
3134.6	0.0010301
3144.24	0.000584
3153.89	0.00083504
3163.53	0.0009125
3173.18	0.000475
3182.82	0.0009589
3192.47	0.0007019
3202.11	0.000413
3211.76	0.0008954
3221.4	0.0009565
3231.05	0.00083972
3240.69	0.0010797
3250.34	0.00074617
3259.98	0.0009624
3269.63	0.000959
3279.27	0.00077307
3288.92	0.0009018
3298.56	0.0006869
3308.21	0.0006513
3317.85	0.00082096
3327.49	0.000386
3337.14	0.000376
3346.78	0.001108
3356.43	0.0008661
3366.07	0.0010294
3375.72	0.0010172
3385.36	0.0009184
3395.01	0.0017324
3404.65	0.002181
3414.3	0.004301
3423.94	0.008731
3433.59	0.011791
3443.23	0.009991
3452.88	0.004191
3462.52	0.002191
3472.17	0.001911
3481.81	0.002201
3491.46	0.002121
3501.1	0.001841
3510.75	0.0015359
3520.39	0.002411
3530.04	0.0015862
3539.68	0.001901
3549.32	0.0016635
3558.97	0.00132
3568.61	0.001781
3578.26	0.0015365
3587.9	0.0017301
3597.55	0.0010812
3607.19	0.0014395
3616.84	0.0011733
3626.48	0.002181
3636.13	0.002081
3645.77	0.001921
3655.42	0.002121
3665.06	0.002341
3674.71	0.0016506
3684.35	0.002121
3694	0.0016517
3703.64	0.002601
3713.29	0.002021
3722.93	0.001911
3732.58	0.0012958
3742.22	0.0012369
3751.86	0.0009038
3761.51	0.0010253
3771.15	0.0009543
3780.8	0.0009258
3790.44	0.0006523
3800.09	0.0009128
3809.73	0.0011397
3819.38	0.0007308
3829.02	0.00076545
3838.67	0.00078849
3848.31	9.3e-05
3857.96	7.5e-05
3867.6	0.000562
3877.25	0.0009251
3886.89	0.0008249
3896.54	0.0009134
3906.18	0.000349
3915.83	0.0009184
3925.47	0.0010809
3935.12	0.00077444
3944.76	0.00017
3954.41	0.0010105
3964.05	0.0008997
3973.69	0.0010178
3983.34	0.0008589
3992.98	0.0011933
