Infrared Spectrum: 1,2-Cycloheptanediol, trans-
Formula: C7 H14 O2
CAS: 13553-19-0
State: SOLID (1 mg / 650 mg KBr DISC)
Class: COBLENTZ III
Instrument: PERKIN-ELMER 521 (GRATING)
Instrument parameters: FILTERS AT 3130, 2475, 2000, 1150, 700, 410. GRATING CHANGES: 2000, 630 CM^-^1
Sampling: TRANSMISSION
Resolution: 2
Origin: SOUTHERN RESEARCH INSTITUTE
1/CM	TRANSMITTANCE
249	0.4291
259	0.4602
269	0.5824
279	0.6437
289	0.6907
299	0.7264
309	0.7408
319	0.7387
329	0.728
339	0.8129
349	0.89
359	0.8854
369	0.864
379	0.8281
389	0.8856
399	0.9275
409	0.9308
419	0.9274
429	0.918
439	0.8905
449	0.733
459	0.8758
469	0.8823
479	0.8856
489	0.8088
499	0.8389
509	0.8292
519	0.802
529	0.7298
539	0.6047
549	0.6798
559	0.7116
569	0.7386
579	0.6966
589	0.6609
599	0.6256
609	0.5964
619	0.5728
629	0.5562
639	0.5545
649	0.5587
659	0.5639
669	0.5538
679	0.5302
689	0.5379
699	0.6412
709	0.6982
719	0.7719
729	0.8197
739	0.8366
749	0.7345
759	0.5414
769	0.8325
779	0.8891
789	0.9149
799	0.9373
809	0.9517
819	0.9602
829	0.9661
839	0.9587
849	0.9489
859	0.9494
869	0.7953
879	0.8282
889	0.9106
899	0.6658
909	0.9641
919	0.9541
929	0.9429
939	0.9435
949	0.9401
959	0.9127
969	0.887
979	0.8658
989	0.8064
999	0.6604
1009	0.506
1019	0.4573
1029	0.1769
1039	0.1482
1049	0.4841
1059	0.1603
1069	0.4251
1079	0.679
1089	0.7442
1099	0.713
1109	0.6978
1119	0.6347
1129	0.859
1139	0.8828
1149	0.8817
1159	0.8684
1169	0.7862
1179	0.7423
1189	0.8637
1199	0.8473
1209	0.8343
1219	0.8649
1229	0.854
1239	0.8174
1249	0.7062
1259	0.6158
1269	0.6596
1279	0.4713
1289	0.7437
1299	0.7789
1309	0.6972
1319	0.7654
1329	0.7608
1339	0.6838
1349	0.4412
1359	0.6546
1369	0.549
1379	0.7471
1389	0.7536
1399	0.6692
1409	0.7541
1419	0.8228
1429	0.7866
1439	0.6502
1449	0.5276
1459	0.4159
1469	0.3876
1479	0.6669
1489	0.7974
1499	0.8331
1509	0.86
1519	0.8763
1529	0.8884
1539	0.8983
1549	0.9057
1559	0.9094
1569	0.9107
1579	0.9098
1589	0.9076
1599	0.9048
1609	0.9039
1619	0.9035
1629	0.9053
1639	0.9073
1649	0.9125
1659	0.9187
1669	0.925
1679	0.9315
1689	0.9375
1699	0.9431
1709	0.9477
1719	0.9522
1729	0.9535
1739	0.9543
1749	0.9533
1759	0.9519
1769	0.9505
1779	0.9492
1789	0.9489
1799	0.9486
1809	0.9486
1819	0.9493
1829	0.9499
1839	0.9508
1849	0.9521
1859	0.9527
1869	0.9524
1879	0.9511
1889	0.9471
1899	0.9449
1909	0.945
1919	0.9451
1929	0.9452
1939	0.9453
1949	0.9454
1959	0.9455
1969	0.9457
1979	0.9458
1989	0.9438
1999	0.9402
2009	0.9372
2019	0.9347
2029	0.9319
2039	0.9308
2049	0.927
2059	0.9221
2069	0.9234
2079	0.9265
2089	0.9257
2099	0.9248
2109	0.9238
2119	0.9229
2129	0.9223
2139	0.9224
2149	0.9228
2159	0.9231
2169	0.9228
2179	0.9221
2189	0.9219
2199	0.9218
2209	0.9207
2219	0.9185
2229	0.9176
2239	0.9151
2249	0.9126
2259	0.9119
2269	0.9133
2279	0.9147
2289	0.9157
2299	0.9152
2309	0.9147
2319	0.9139
2329	0.9127
2339	0.9114
2349	0.9101
2359	0.9067
2369	0.9033
2379	0.8998
2389	0.8959
2399	0.8917
2409	0.8878
2419	0.8841
2429	0.8802
2439	0.8761
2449	0.8705
2459	0.8651
2469	0.8607
2479	0.8574
2489	0.8539
2499	0.8509
2509	0.848
2519	0.847
2529	0.8479
2539	0.848
2549	0.846
2559	0.8408
2569	0.8314
2579	0.8225
2589	0.8142
2599	0.8065
2609	0.7988
2619	0.7912
2629	0.783
2639	0.7746
2649	0.7664
2659	0.7584
2669	0.7561
2679	0.7453
2689	0.7189
2699	0.743
2709	0.7381
2719	0.7405
2729	0.7546
2739	0.7634
2749	0.77
2759	0.7693
2769	0.758
2779	0.7425
2789	0.7179
2799	0.6964
2809	0.6837
2819	0.6662
2829	0.6423
2839	0.5987
2849	0.4238
2859	0.264
2869	0.257
2879	0.328
2889	0.3856
2899	0.3637
2909	0.3337
2919	0.2126
2929	0.1273
2939	0.1376
2949	0.3343
2959	0.473
2969	0.5697
2979	0.6573
2989	0.7054
2999	0.7242
3009	0.7351
3019	0.7412
3029	0.7444
3039	0.7457
3049	0.7451
3059	0.7419
3069	0.7357
3079	0.7256
3089	0.7092
3099	0.6897
3109	0.6705
3119	0.6484
3129	0.6227
3139	0.5974
3149	0.5699
3159	0.5382
3169	0.503
3179	0.4624
3189	0.4297
3199	0.3934
3209	0.3604
3219	0.325
3229	0.2926
3239	0.2633
3249	0.2402
3259	0.2129
3269	0.1845
3279	0.161
3289	0.1426
3299	0.1341
3309	0.1344
3319	0.1376
3329	0.1442
3339	0.1531
3349	0.1548
3359	0.1503
3369	0.1357
3379	0.1289
3389	0.1302
3399	0.1385
3409	0.1499
3419	0.1632
3429	0.1826
3439	0.2026
3449	0.2252
3459	0.2541
3469	0.286
3479	0.3209
3489	0.3528
3499	0.3839
3509	0.4158
3519	0.4457
3529	0.4734
3539	0.4995
3549	0.5227
3559	0.5463
3569	0.5631
3579	0.5802
3589	0.5956
3599	0.6078
3609	0.6194
3619	0.6289
3629	0.6372
3639	0.6446
3649	0.6519
3659	0.6588
3669	0.6652
3679	0.6708
3689	0.6756
3699	0.6799
3709	0.6864
3719	0.6898
3729	0.6914
3739	0.6922
3749	0.6924
3759	0.6928
3769	0.6938
3779	0.6947
3789	0.6956
3799	0.6965
3809	0.6972
3819	0.6973
3829	0.6979
3839	0.7
3849	0.7018
3859	0.7036
3869	0.7051
3879	0.7048
3889	0.7046
3899	0.704
3909	0.7034
3919	0.7028
3929	0.7021
3939	0.7014
3949	0.7007
3959	0.7002
3969	0.6998
3979	0.6996
3989	0.6996
3999	0.6995
