Infrared Spectrum: 5-Chloro-1,3-dimethyl-4-nitropyrazole
Formula: C 5 H 6 Cl N 3 O 2
CAS: 13551-73-0
State: gas
Origin: EPA-IR VAPOR PHASE LIBRARY
1/CM	ABSORBANCE
549.8	0.0012576
559.445	0.0010181
569.09	0.002655
578.734	0.003955
588.379	0.005455
598.024	0.004515
607.669	0.002565
617.313	0.001775
626.958	0.003695
636.603	0.007825
646.248	0.006715
655.893	0.001855
665.537	0.0013278
675.182	0.0010154
684.827	0.0012187
694.472	0.000171
704.116	0.0010063
713.761	0.0012918
723.406	0.001209
733.051	0.0016321
742.695	0.001865
752.34	0.004295
761.985	0.006815
771.63	0.004665
781.275	0.005525
790.919	0.011925
800.564	0.026875
810.209	0.022385
819.854	0.005715
829.498	0.002165
839.143	0.002195
848.788	0.003675
858.433	0.005215
868.078	0.008665
877.722	0.014815
887.367	0.021015
897.012	0.015545
906.657	0.004755
916.301	0.0015775
925.946	0.0013271
935.591	0.0010943
945.236	0.0011877
954.88	0.0014178
964.525	0.0016463
974.17	0.002585
983.815	0.004365
993.46	0.006755
1003.1	0.005935
1012.75	0.004015
1022.39	0.005905
1032.04	0.006735
1041.68	0.005975
1051.33	0.004185
1060.97	0.003635
1070.62	0.005935
1080.26	0.008695
1089.91	0.010615
1099.55	0.008765
1109.2	0.005455
1118.84	0.003005
1128.49	0.003945
1138.13	0.005375
1147.78	0.009435
1157.42	0.016235
1167.07	0.014845
1176.71	0.005445
1186.36	0.002595
1196	0.002305
1205.64	0.0015927
1215.29	0.002985
1224.93	0.0015922
1234.58	0.002625
1244.22	0.004685
1253.87	0.009205
1263.51	0.012625
1273.16	0.013345
1282.8	0.008315
1292.45	0.006035
1302.09	0.006165
1311.74	0.007215
1321.38	0.009785
1331.03	0.017575
1340.67	0.051735
1350.32	0.120325
1359.96	0.123225
1369.61	0.052405
1379.25	0.044085
1388.9	0.038705
1398.54	0.024955
1408.18	0.025575
1417.83	0.025175
1427.47	0.021015
1437.12	0.025485
1446.76	0.042615
1456.41	0.066435
1466.05	0.073915
1475.7	0.053735
1485.34	0.037715
1494.99	0.044065
1504.63	0.069575
1514.28	0.076015
1523.92	0.063185
1533.57	0.084485
1543.21	0.176355
1552.86	0.251775
1562.5	0.165905
1572.15	0.051015
1581.79	0.023815
1591.44	0.017625
1601.08	0.011965
1610.73	0.006655
1620.37	0.004005
1630.01	0.003225
1639.66	0.002735
1649.3	0.002195
1658.95	0.001885
1668.59	0.001705
1678.24	0.001606
1687.88	0.0013956
1697.53	0.0012812
1707.17	0.0009143
1716.82	0.0010994
1726.46	0.0015544
1736.11	0.001925
1745.75	0.001775
1755.4	0.001745
1765.04	0.0016109
1774.69	0.0010776
1784.33	0.0012905
1793.98	0.0008892
1803.62	0.0008271
1813.27	0.0008189
1822.91	0.00072816
1832.55	0.00069558
1842.2	0.0010315
1851.84	0.0010894
1861.49	0.00078734
1871.13	0.000871
1880.78	0.0008565
1890.42	0.00074876
1900.07	0.0008609
1909.71	0.0009715
1919.36	0.000704932
1929	0.00071626
1938.65	0.0008836
1948.29	0.0009068
1957.94	0.0009202
1967.58	0.0008114
1977.23	0.00076064
1986.87	0.0009109
1996.52	0.0008798
2006.16	0.0010333
2015.81	0.0008327
2025.45	0.00075611
2035.1	0.00076428
2044.74	0.000591
2054.38	0.0009194
2064.03	0.00071415
2073.67	0.0006053
2083.32	0.00054
2092.96	0.00075291
2102.61	0.00068859
2112.25	0.0008183
2121.9	0.000578
2131.54	0.00059
2141.19	0.0006509
2150.83	0.000434
2160.48	0.000563
2170.12	0.0006242
2179.77	0.000533
2189.41	0.000538
2199.06	0.0006277
2208.7	0.00074345
2218.35	0.0006708
2227.99	0.000545
2237.64	0.0007175
2247.28	0.0008725
2256.92	0.0010124
2266.57	0.0011278
2276.21	0.0008399
2285.86	0.00079008
2295.5	0.0008137
2305.15	0.0009131
2314.79	0.0006634
2324.44	0.0008621
2334.08	0.000923
2343.73	0.0009186
2353.37	0.0010815
2363.02	0.0011587
2372.66	0.0009034
2382.31	0.0010215
2391.95	0.0010768
2401.6	0.0008615
2411.24	0.0009771
2420.89	0.0010321
2430.53	0.0011319
2440.18	0.0010714
2449.82	0.0010093
2459.47	0.001106
2469.11	0.0012399
2478.75	0.001194
2488.4	0.0013017
2498.04	0.0012243
2507.69	0.0011611
2517.33	0.001765
2526.98	0.0015673
2536.62	0.0016223
2546.27	0.0015993
2555.91	0.0015717
2565.56	0.0014515
2575.2	0.0014611
2584.85	0.0013482
2594.49	0.001527
2604.14	0.0015315
2613.78	0.0015679
2623.43	0.001885
2633.07	0.0014354
2642.72	0.0016257
2652.36	0.0013934
2662.01	0.001725
2671.65	0.001835
2681.29	0.001477
2690.94	0.0014606
2700.58	0.0013669
2710.23	0.001595
2719.87	0.0016212
2729.52	0.002155
2739.16	0.002115
2748.81	0.0014482
2758.45	0.002005
2768.1	0.001915
2777.74	0.001805
2787.39	0.002175
2797.03	0.002485
2806.68	0.002975
2816.32	0.003575
2825.97	0.003665
2835.61	0.003925
2845.26	0.004105
2854.9	0.004285
2864.55	0.005015
2874.19	0.006265
2883.84	0.006525
2893.48	0.007695
2903.12	0.007755
2912.77	0.007005
2922.41	0.006355
2932.06	0.008045
2941.7	0.014075
2951.35	0.020475
2960.99	0.021655
2970.64	0.015205
2980.28	0.009295
2989.93	0.007835
2999.57	0.007265
3009.22	0.006095
3018.86	0.004205
3028.51	0.002525
3038.15	0.002365
3047.8	0.002255
3057.44	0.002345
3067.09	0.002185
3076.73	0.002395
3086.38	0.002235
3096.02	0.001805
3105.67	0.001755
3115.31	0.001377
3124.95	0.0016716
3134.6	0.0008792
3144.24	0.0013726
3153.89	0.0009988
3163.53	0.0013733
3173.18	0.00082
3182.82	0.000566
3192.47	0.000679
3202.11	0.00076495
3211.76	0.00074565
3221.4	0.0012338
3231.05	0.0009201
3240.69	0.000527
3250.34	0.0011151
3259.98	0.0008144
3269.63	0.0012092
3279.27	0.0006475
3288.92	0.0006428
3298.56	0.0006144
3308.21	0.000439
3317.85	0.000294
3327.49	0.00070819
3337.14	0.000919
3346.78	0.00070769
3356.43	0.000563
3366.07	0.0008016
3375.72	0.0006036
3385.36	0.000253
3395.01	0.000461
3404.65	0.00024
3414.3	0.000484
3423.94	0.000987
3433.59	0.000137
3443.23	0.0009582
3452.88	0.000383
3462.52	0.0008609
3472.17	0.0006133
3481.81	0.0008225
3491.46	0.000523
3501.1	0.000507
3510.75	0.000661
3520.39	0.00032
3530.04	0.0006393
3539.68	0.0005997
3549.32	0.0006464
3558.97	0.000499
3568.61	0.00077625
3578.26	0.000105
3587.9	0.000433
3597.55	0.000168
3607.19	0.000149
3616.84	0.0007183
3626.48	0.0008939
3636.13	0.0008551
3645.77	0.0009636
3655.42	1.3e-05
3665.06	0.0008229
3674.71	0.00048
3684.35	0.000453
3694	0.000533
3703.64	0.0008504
3713.29	0.000564
3722.93	0.000346
3732.58	0.0010209
3742.22	0.0009082
3751.86	0.00077651
3761.51	0.000133
3771.15	0.00075702
3780.8	0.0008714
3790.44	0.000476
3800.09	0.000483
3809.73	0.0006719
3819.38	0.00076065
3829.02	0.0008658
3838.67	0.0006467
3848.31	0.0007969
3857.96	0.0006476
3867.6	0.000703277
3877.25	0.000678
3886.89	0.000412
3896.54	0.0006011
3906.18	0.00074569
3915.83	0.00070555
3925.47	0.00072701
3935.12	0.000618
3944.76	0.000578
3954.41	0.000832
3964.05	0.001064
3973.69	0.00073571
3983.34	0.0008681
3992.98	0.00079192
