Infrared Spectrum: n-BUTYL ESTER OF Alpha-(2,4,5-TRICHLOROPHENOXY)PROPIONIC ACID
Formula: C13 H15 Cl3 O3
CAS: 13557-98-7
State: SOLUTION (10% CCl4 FOR 5000-1330, 10% CS2 FOR 1330-625 CM^-^1)
Class: COBLENTZ
Instrument: Not specified, most likely a prism, grating, or hybrid spectrometer.
Sampling: TRANSMISSION
Path length: 0.0111 CM, 0.0112 CM
Resolution: 4
Origin: DOW CHEMICAL COMPANY
MICROMETERS	TRANSMITTANCE
2.027	0.895
2.0682	0.889
2.10939	0.887
2.15059	0.89
2.19179	0.885
2.23299	0.873
2.27418	0.878
2.31538	0.878
2.35658	0.88
2.39777	0.878
2.43897	0.88
2.48017	0.885
2.52136	0.89
2.56256	0.885
2.60376	0.885
2.64496	0.887
2.68615	0.885
2.72735	0.882
2.76855	0.872
2.80974	0.865
2.85094	0.856
2.89214	0.863
2.93333	0.866
2.97453	0.868
3.01573	0.866
3.05693	0.865
3.09812	0.865
3.13932	0.861
3.18052	0.851
3.22171	0.829
3.26291	0.839
3.30411	0.744
3.3453	0.5
3.3865	0.46
3.4277	0.645
3.4689	0.701
3.51009	0.827
3.55129	0.853
3.59249	0.865
3.63368	0.861
3.67488	0.865
3.71608	0.866
3.75727	0.87
3.79847	0.865
3.83967	0.866
3.88087	0.868
3.92206	0.865
3.96326	0.866
4.00446	0.87
4.04565	0.872
4.08685	0.872
4.12805	0.868
4.16925	0.868
4.21044	0.866
4.25164	0.863
4.29284	0.86
4.33403	0.861
4.37523	0.863
4.41643	0.87
4.45762	0.872
4.49882	0.872
4.54002	0.87
4.58122	0.872
4.62241	0.87
4.66361	0.872
4.70481	0.872
4.746	0.872
4.7872	0.872
4.8284	0.872
4.86959	0.87
4.91079	0.866
4.95199	0.868
4.99319	0.858
5.03438	0.868
5.07558	0.87
5.11678	0.868
5.15797	0.87
5.19917	0.868
5.24037	0.868
5.28156	0.861
5.32276	0.863
5.36396	0.856
5.40516	0.853
5.44635	0.837
5.48755	0.829
5.52875	0.808
5.56994	0.767
5.61114	0.61
5.65234	0.295
5.69354	0.141
5.73473	0.179
5.77593	0.399
5.81713	0.655
5.85832	0.752
5.89952	0.795
5.94072	0.819
5.98191	0.827
6.02311	0.836
6.06431	0.836
6.10551	0.827
6.1467	0.81
6.1879	0.779
6.2291	0.689
6.27029	0.469
6.31149	0.441
6.35269	0.523
6.39388	0.477
6.43508	0.45
6.47628	0.505
6.51748	0.573
6.55867	0.602
6.59987	0.621
6.64107	0.564
6.68226	0.506
6.72346	0.215
6.76466	0.1
6.80585	0.131
6.84705	0.133
6.88825	0.356
6.92945	0.583
6.97064	0.713
7.01184	0.755
7.05304	0.762
7.09423	0.738
7.13543	0.675
7.17663	0.619
7.21782	0.552
7.25902	0.544
7.30022	0.602
7.34142	0.295
7.38261	0.332
7.42381	0.496
7.46501	0.546
7.5062	0.585
7.5474	0.588
7.5886	0.549
7.6298	0.518
7.67099	0.515
7.71219	0.433
7.75339	0.274
7.79458	0.22
7.83578	0.313
7.87698	0.406
7.91817	0.428
7.95937	0.31
8.00057	0.187
8.04177	0.204
8.08296	0.358
8.12416	0.477
8.16536	0.523
8.20655	0.498
8.24775	0.419
8.28895	0.298
8.33014	0.216
8.37134	0.194
8.41254	0.255
8.45374	0.416
8.49493	0.575
8.53613	0.651
8.57733	0.677
8.61852	0.677
8.65972	0.639
8.70092	0.559
8.74211	0.394
8.78331	0.209
8.82451	0.129
8.86571	0.126
8.9069	0.23
8.9481	0.331
8.9893	0.399
9.03049	0.377
9.07169	0.273
9.11289	0.187
9.15409	0.175
9.19528	0.215
9.23648	0.165
9.27768	0.11
9.31887	0.344
9.36007	0.453
9.40127	0.477
9.44246	0.484
9.48366	0.501
9.52486	0.441
9.56606	0.431
9.60725	0.51
9.64845	0.627
9.68965	0.708
9.73084	0.759
9.77204	0.767
9.81324	0.766
9.85443	0.769
9.89563	0.8
9.93683	0.829
9.97803	0.824
10.0192	0.802
10.0604	0.786
10.1016	0.796
10.1428	0.817
10.184	0.817
10.2252	0.752
10.2664	0.675
10.3076	0.6
10.3488	0.59
10.39	0.621
10.4312	0.66
10.4724	0.709
10.5136	0.732
10.5548	0.742
10.596	0.74
10.6372	0.703
10.6784	0.689
10.7196	0.735
10.7608	0.796
10.802	0.834
10.8432	0.851
10.8844	0.849
10.9256	0.836
10.9668	0.819
11.008	0.802
11.0491	0.788
11.0903	0.767
11.1315	0.744
11.1727	0.728
11.2139	0.725
11.2551	0.709
11.2963	0.689
11.3375	0.627
11.3787	0.513
11.4199	0.337
11.4611	0.324
11.5023	0.51
11.5435	0.588
11.5847	0.622
11.6259	0.634
11.6671	0.641
11.7083	0.646
11.7495	0.651
11.7907	0.656
11.8319	0.66
11.8731	0.639
11.9143	0.616
11.9555	0.609
11.9967	0.629
12.0379	0.686
12.0791	0.752
12.1203	0.786
12.1615	0.807
12.2027	0.815
12.2439	0.817
12.2851	0.817
12.3263	0.807
12.3675	0.796
12.4086	0.786
12.4498	0.766
12.491	0.762
12.5322	0.786
12.5734	0.798
12.6146	0.8
12.6558	0.803
12.697	0.802
12.7382	0.8
12.7794	0.796
12.8206	0.793
12.8618	0.788
12.903	0.784
12.9442	0.779
12.9854	0.767
13.0266	0.752
13.0678	0.737
13.109	0.704
13.1502	0.662
13.1914	0.614
13.2326	0.569
13.2738	0.534
13.315	0.494
13.3562	0.46
13.3974	0.441
13.4386	0.453
13.4798	0.488
13.521	0.517
13.5622	0.544
13.6034	0.575
13.6446	0.616
13.6858	0.65
13.727	0.68
13.7682	0.697
13.8093	0.709
13.8505	0.721
13.8917	0.725
13.9329	0.728
13.9741	0.726
14.0153	0.723
14.0565	0.718
14.0977	0.709
14.1389	0.703
14.1801	0.691
14.2213	0.684
14.2625	0.672
14.3037	0.663
14.3449	0.651
14.3861	0.639
14.4273	0.622
14.4685	0.602
14.5097	0.568
14.5509	0.518
14.5921	0.453
14.6333	0.389
14.6745	0.356
14.7157	0.368
14.7569	0.416
14.7981	0.455
14.8393	0.5
14.8805	0.517
14.9217	0.527
14.9629	0.534
15.0041	0.534
15.0453	0.53
15.0865	0.527
15.1277	0.51
15.1689	0.501
15.21	0.488
15.2512	0.481
15.2924	0.474
15.3336	0.464
15.3748	0.455
15.416	0.453
15.4572	0.448
15.4984	0.445
15.5396	0.441
15.5808	0.43
15.622	0.424
15.6632	0.414
15.7044	0.414
15.7456	0.416
15.7868	0.414
15.828	0.411
15.8692	0.407
