Infrared Spectrum: 6-Phenyl-5-hexyn-3-ol
Formula: C 12 H 14 O
CAS: 135663-98-8
State: gas
Origin: EPA-IR VAPOR PHASE LIBRARY
1/CM	ABSORBANCE
549.8	0.0087494
559.445	0.0083094
569.09	0.0062594
578.734	0.0055494
588.379	0.0041594
598.024	0.0046594
607.669	0.0053494
617.313	0.0049294
626.958	0.0053794
636.603	0.0053494
646.248	0.0057894
655.893	0.0082094
665.537	0.0132794
675.182	0.0250094
684.827	0.0364494
694.472	0.0359894
704.116	0.0253694
713.761	0.0161194
723.406	0.0150194
733.051	0.0236194
742.695	0.0437994
752.34	0.0613894
761.985	0.0466794
771.63	0.0250994
781.275	0.0104394
790.919	0.0064294
800.564	0.0051894
810.209	0.0040894
819.854	0.0043294
829.498	0.0062494
839.143	0.0077594
848.788	0.0076094
858.433	0.0063394
868.078	0.0076494
877.722	0.0088294
887.367	0.0073494
897.012	0.0082894
906.657	0.0101794
916.301	0.0094094
925.946	0.0089694
935.591	0.0096694
945.236	0.0116894
954.88	0.0166094
964.525	0.0250294
974.17	0.0347294
983.815	0.0356494
993.46	0.0345594
1003.1	0.0339894
1012.75	0.0358594
1022.39	0.0345694
1032.04	0.0307494
1041.68	0.0289494
1051.33	0.0330694
1060.97	0.0320094
1070.62	0.0253594
1080.26	0.0213794
1089.91	0.0271394
1099.55	0.0373394
1109.2	0.0378394
1118.84	0.0279094
1128.49	0.0174394
1138.13	0.0120094
1147.78	0.0076794
1157.42	0.0070494
1167.07	0.0078094
1176.71	0.0095394
1186.36	0.0115194
1196	0.0135294
1205.64	0.0154694
1215.29	0.0171794
1224.93	0.0191994
1234.58	0.0226994
1244.22	0.0210694
1253.87	0.0193694
1263.51	0.0196394
1273.16	0.0198694
1282.8	0.0210794
1292.45	0.0217694
1302.09	0.0197694
1311.74	0.0173594
1321.38	0.0170894
1331.03	0.0167994
1340.67	0.0166394
1350.32	0.0190494
1359.96	0.0227894
1369.61	0.0241194
1379.25	0.0256394
1388.9	0.0266894
1398.54	0.0221594
1408.18	0.0163094
1417.83	0.0164394
1427.47	0.0229294
1437.12	0.0227694
1446.76	0.0191794
1456.41	0.0175994
1466.05	0.0188094
1475.7	0.0202294
1485.34	0.0442694
1494.99	0.0420794
1504.63	0.0149994
1514.28	0.0075994
1523.92	0.0047094
1533.57	0.0037394
1543.21	0.0030794
1552.86	0.0034294
1562.5	0.0042094
1572.15	0.0057594
1581.79	0.0090994
1591.44	0.0196594
1601.08	0.0230294
1610.73	0.0084094
1620.37	0.0027094
1630.01	0.0020794
1639.66	0.0017394
1649.3	0.0020194
1658.95	0.0037194
1668.59	0.0030894
1678.24	0.0011994
1687.88	0.000953
1697.53	0.0010994
1707.17	0.0012094
1716.82	0.0013894
1726.46	0.0021494
1736.11	0.0022894
1745.75	0.0020594
1755.4	0.0016394
1765.04	0.0013594
1774.69	0.0018494
1784.33	0.0028894
1793.98	0.0042894
1803.62	0.0023394
1813.27	0.0020894
1822.91	0.0017594
1832.55	0.0009946
1842.2	0.0010794
1851.84	0.0014394
1861.49	0.0021994
1871.13	0.0031494
1880.78	0.0039594
1890.42	0.0034394
1900.07	0.0012794
1909.71	0.0010234
1919.36	0.0017194
1929	0.0026194
1938.65	0.0031194
1948.29	0.0042094
1957.94	0.0038494
1967.58	0.0012594
1977.23	0.0007438
1986.87	0.0005704
1996.52	0.0006367
2006.16	0.0005104
2015.81	0.0002682
2025.45	0.0003576
2035.1	0.0003174
2044.74	0.0004999
2054.38	0.0003562
2064.03	0.0004333
2073.67	0.0003997
2083.32	0.0004765
2092.96	0.0004812
2102.61	0.0004951
2112.25	0.0004266
2121.9	0.0002615
2131.54	0.0002658
2141.19	0.0003107
2150.83	0.0004771
2160.48	0.0004676
2170.12	0.0008099
2179.77	0.0008921
2189.41	0.0010005
2199.06	0.0016094
2208.7	0.0022994
2218.35	0.0026394
2227.99	0.0029394
2237.64	0.0027294
2247.28	0.0021294
2256.92	0.0016194
2266.57	0.0012894
2276.21	0.0011194
2285.86	0.0010794
2295.5	0.0008698
2305.15	0.0012494
2314.79	0.0019394
2324.44	0.0011794
2334.08	0.0012394
2343.73	0.0010013
2353.37	0.0011094
2363.02	0.0007946
2372.66	0.0010394
2382.31	0.0006033
2391.95	0.0007967
2401.6	0.0009602
2411.24	0.0008014
2420.89	0.0011294
2430.53	0.0010694
2440.18	0.0010195
2449.82	0.0007204
2459.47	0.0009375
2469.11	0.0005869
2478.75	0.0011694
2488.4	0.0008392
2498.04	0.0006702
2507.69	0.0009396
2517.33	0.0008817
2526.98	0.0010218
2536.62	0.0008992
2546.27	0.0009801
2555.91	0.0014594
2565.56	0.0012394
2575.2	0.0015694
2584.85	0.0014094
2594.49	0.0016494
2604.14	0.0018494
2613.78	0.0017294
2623.43	0.0021094
2633.07	0.0016194
2642.72	0.0017894
2652.36	0.0017194
2662.01	0.0020194
2671.65	0.0024694
2681.29	0.0025194
2690.94	0.0025794
2700.58	0.0021994
2710.23	0.0022194
2719.87	0.0022194
2729.52	0.0022994
2739.16	0.0025194
2748.81	0.0031494
2758.45	0.0032294
2768.1	0.0033694
2777.74	0.0038294
2787.39	0.0036194
2797.03	0.0040194
2806.68	0.0045494
2816.32	0.0062894
2825.97	0.0093394
2835.61	0.0125294
2845.26	0.0155994
2854.9	0.0183794
2864.55	0.0250794
2874.19	0.0349194
2883.84	0.0470894
2893.48	0.0485594
2903.12	0.0474394
2912.77	0.0622794
2922.41	0.0739894
2932.06	0.0865994
2941.7	0.0893094
2951.35	0.0678194
2960.99	0.0567494
2970.64	0.0772994
2980.28	0.0634694
2989.93	0.0324294
2999.57	0.0178794
3009.22	0.0139894
3018.86	0.0148394
3028.51	0.0191894
3038.15	0.0251594
3047.8	0.0198094
3057.44	0.0288194
3067.09	0.0466994
3076.73	0.0368594
3086.38	0.0287594
3096.02	0.0248594
3105.67	0.0158694
3115.31	0.0081294
3124.95	0.0038394
3134.6	0.0022894
3144.24	0.0025794
3153.89	0.0027194
3163.53	0.0020494
3173.18	0.0017194
3182.82	0.0011794
3192.47	0.0012294
3202.11	0.0017094
3211.76	0.0011894
3221.4	0.0007165
3231.05	0.0007594
3240.69	0.0006795
3250.34	0.0004781
3259.98	0.0008557
3269.63	0.0006966
3279.27	0.0002698
3288.92	0.0007966
3298.56	0.0009747
3308.21	0.0006685
3317.85	0.0004868
3327.49	0.0007406
3337.14	0.0010494
3346.78	0.0006453
3356.43	9.397e-05
3366.07	0.0002982
3375.72	0.0005798
3385.36	0.0003519
3395.01	0.0003391
3404.65	0.0009367
3414.3	0.0003325
3423.94	0.0006707
3433.59	0.0004804
3443.23	0.0006123
3452.88	0.0011094
3462.52	0.0008127
3472.17	0.0013894
3481.81	0.0015194
3491.46	0.0014594
3501.1	0.0014494
3510.75	0.0007797
3520.39	0.0012394
3530.04	0.0015694
3539.68	0.0014694
3549.32	0.0020994
3558.97	0.0019694
3568.61	0.0032094
3578.26	0.0054494
3587.9	0.0063294
3597.55	0.0117894
3607.19	0.0191994
3616.84	0.0213994
3626.48	0.0104194
3636.13	0.0082094
3645.77	0.0090094
3655.42	0.0121594
3665.06	0.0081994
3674.71	0.0039094
3684.35	0.0024594
3694	0.0019894
3703.64	0.0021094
3713.29	0.0010208
3722.93	0.0014394
3732.58	0.0011694
3742.22	0.0005914
3751.86	0.0005923
3761.51	0.0011894
3771.15	0.0005631
3780.8	0.0013094
3790.44	0.0008331
3800.09	0.0005193
3809.73	0.0003122
3819.38	1.73e-05
3829.02	0.0008626
3838.67	0.0004529
3848.31	0.000686
3857.96	0.0007915
3867.6	0.0008841
3877.25	0.0013594
3886.89	0.0003806
3896.54	0.0007352
3906.18	0.0008731
3915.83	0.0012394
3925.47	0.0008499
3935.12	0.000977
3944.76	0.0002126
3954.41	0.0009547
3964.05	0.0009691
3973.69	0.000928
3983.34	0.00072
3992.98	0.0002728
