Infrared Spectrum: Cedranone
Formula: C15 H24 O
CAS: 13567-40-3
State: LIQUID (NEAT)
Class: COBLENTZ III
Instrument: BECKMAN IR-12 (GRATING)
Instrument parameters: GRATING
Sampling: TRANSMISSION
Path length: CAPILLARY
Resolution: 2
Origin: COLGATE-PALMOLIVE COMPANY (KELLENBACH)
1/CM	TRANSMITTANCE
401	0.6878
410	0.7236
419	0.7484
428	0.7305
437	0.7514
446	0.7746
455	0.7694
464	0.8306
473	0.826
482	0.6465
491	0.7942
500	0.8861
509	0.8905
518	0.8579
527	0.8756
536	0.9073
545	0.8724
554	0.8336
563	0.8339
572	0.8772
581	0.8949
590	0.8884
599	0.8297
608	0.8552
617	0.8824
626	0.8832
635	0.8654
644	0.8626
653	0.875
662	0.8616
671	0.8714
680	0.8628
689	0.8511
698	0.861
707	0.8701
716	0.8613
725	0.864
734	0.8611
743	0.8491
752	0.7389
761	0.7755
770	0.8653
779	0.8818
788	0.8825
797	0.8666
806	0.8422
815	0.8806
824	0.8669
833	0.8743
842	0.8426
851	0.8257
860	0.8664
869	0.8792
878	0.8741
887	0.8712
896	0.847
905	0.7612
914	0.8095
923	0.7485
932	0.704
941	0.6656
950	0.6985
959	0.6037
968	0.6769
977	0.754
986	0.7158
995	0.519
1004	0.5834
1013	0.6596
1022	0.6544
1031	0.5409
1040	0.6556
1049	0.577
1058	0.6189
1067	0.6971
1076	0.7198
1085	0.6738
1094	0.6743
1103	0.7626
1112	0.7015
1121	0.6385
1130	0.6334
1139	0.6757
1148	0.7213
1157	0.6446
1166	0.5842
1175	0.5695
1184	0.5601
1193	0.6255
1202	0.6488
1211	0.5943
1220	0.3563
1229	0.2488
1238	0.3271
1247	0.4839
1256	0.5923
1265	0.6696
1274	0.6591
1283	0.6588
1292	0.6965
1301	0.6353
1310	0.5948
1319	0.4912
1328	0.6618
1337	0.5699
1346	0.609
1355	0.6907
1364	0.4665
1373	0.3301
1382	0.4071
1391	0.3917
1400	0.6859
1409	0.5899
1418	0.4455
1427	0.5927
1436	0.6179
1445	0.3693
1454	0.1804
1463	0.1313
1472	0.1324
1481	0.2546
1490	0.5349
1499	0.7537
1508	0.7916
1517	0.8272
1526	0.8389
1535	0.8539
1544	0.8507
1553	0.8688
1562	0.8396
1571	0.8714
1580	0.8669
1589	0.878
1598	0.8655
1607	0.8471
1616	0.8241
1625	0.7936
1634	0.7641
1643	0.7729
1652	0.7504
1661	0.6734
1670	0.5869
1679	0.4826
1688	0.2897
1697	0.0845
1706	0.0141
1715	0.0159
1724	0.1774
1733	0.4162
1742	0.4776
1751	0.5889
1760	0.7565
1769	0.7967
1778	0.8211
1787	0.8367
1796	0.8489
1805	0.8612
1814	0.8831
1823	0.8967
1832	0.8896
1841	0.8983
1850	0.8961
1859	0.905
1868	0.9033
1877	0.9017
1886	0.9094
1895	0.9115
1904	0.9094
1913	0.9088
1922	0.9086
1931	0.909
1940	0.9094
1949	0.9096
1958	0.9109
1967	0.9114
1976	0.9115
1985	0.911
1994	0.9101
2003	0.9095
2012	0.9091
2021	0.908
2030	0.9068
2039	0.9056
2048	0.9046
2057	0.9058
2066	0.9071
2075	0.9046
2084	0.9077
2093	0.9085
2102	0.9083
2111	0.9073
2120	0.9056
2129	0.9041
2138	0.9026
2147	0.9017
2156	0.9014
2165	0.9011
2174	0.9007
2183	0.9003
2192	0.8999
2201	0.8994
2210	0.899
2219	0.8985
2228	0.8982
2237	0.8977
2246	0.8973
2255	0.8969
2264	0.8965
2273	0.8963
2282	0.8962
2291	0.896
2300	0.8948
2309	0.8931
2318	0.8876
2327	0.8787
2336	0.8716
2345	0.8673
2354	0.8662
2363	0.856
2372	0.8549
2381	0.8646
2390	0.8761
2399	0.883
2408	0.8856
2417	0.8873
2426	0.8885
2435	0.8897
2444	0.8911
2453	0.8921
2462	0.893
2471	0.8927
2480	0.8924
2489	0.8918
2498	0.8913
2507	0.8921
2516	0.8958
2525	0.8965
2534	0.8933
2543	0.8897
2552	0.8878
2561	0.8853
2570	0.8812
2579	0.8763
2588	0.8715
2597	0.8664
2606	0.865
2615	0.8637
2624	0.8608
2633	0.8593
2642	0.8577
2651	0.8557
2660	0.8518
2669	0.8449
2678	0.8421
2687	0.8456
2696	0.8489
2705	0.8501
2714	0.8462
2723	0.8345
2732	0.8109
2741	0.8176
2750	0.8369
2759	0.8413
2768	0.8387
2777	0.8349
2786	0.8308
2795	0.8117
2804	0.7648
2813	0.7155
2822	0.6818
2831	0.6531
2840	0.5312
2849	0.3731
2858	0.2569
2867	0.1087
2876	0.0265
2885	0.0273
2894	0.0291
2903	0.033
2912	0.0362
2921	0.0342
2930	0.0237
2939	0.0136
2948	0.0101
2957	0.009
2966	0.0089
2975	0.0197
2984	0.1699
2993	0.3322
3002	0.5554
3011	0.6177
3020	0.7137
3029	0.7778
3038	0.8026
3047	0.8199
3056	0.8365
3065	0.8494
3074	0.8558
3083	0.8616
3092	0.868
3101	0.8683
3110	0.8684
3119	0.8687
3128	0.8685
3137	0.8675
3146	0.8642
3155	0.861
3164	0.8586
3173	0.8561
3182	0.8538
3191	0.8515
3200	0.8504
3209	0.8499
3218	0.8496
3227	0.8495
3236	0.8498
3245	0.8514
3254	0.8534
3263	0.8552
3272	0.8567
3281	0.8574
3290	0.8577
3299	0.8574
3308	0.8569
3317	0.8559
3326	0.8542
3335	0.852
3344	0.8487
3353	0.8447
3362	0.8406
3371	0.8327
3380	0.8229
3389	0.7944
3398	0.7769
3407	0.7918
3416	0.8107
3425	0.826
3434	0.8345
3443	0.8391
3452	0.8402
3461	0.8401
3470	0.8397
3479	0.8389
3488	0.838
3497	0.8369
3506	0.8359
3515	0.8356
3524	0.8373
3533	0.8414
3542	0.8459
3551	0.85
3560	0.8541
3569	0.8579
3578	0.8617
3587	0.8647
3596	0.8675
3605	0.8685
3614	0.8695
3623	0.8714
3632	0.8732
3641	0.8745
3650	0.8756
3659	0.8856
3668	0.8913
3677	0.8899
3686	0.8866
3695	0.8898
3704	0.8936
3713	0.8942
3722	0.8922
3731	0.89
3740	0.8889
3749	0.8882
3758	0.8912
3767	0.8938
3776	0.894
3785	0.894
3794	0.8923
3803	0.8874
3812	0.8797
3821	0.8784
3830	0.8777
3839	0.8762
3848	0.8749
3857	0.8742
3866	0.8738
3875	0.8743
3884	0.875
3893	0.8767
3902	0.8788
3911	0.8835
3920	0.8881
3929	0.8883
3938	0.8881
3947	0.888
3956	0.8888
3965	0.8895
3974	0.8903
3983	0.8908
3992	0.8907
