Infrared Spectrum: PROPIONIC ACID,2-[(4-AMINO-1,3-DIMETHYL-1H-PYRAZOL-5-YL)THIO]-,d-LACTAM
Formula: C8 H11 N3 O S
CAS: 13568-77-9
State: SOLID (NUJOL MULL)
Melting point: 151-152 C
Class: COBLENTZ III
Instrument: PERKIN-ELMER 421 (GRATING)
Instrument parameters: GRATING CHANGE AT 1999 CM^-^1
Resolution: 2
Origin: ABBOTT LABORATORIES
1/CM	TRANSMITTANCE
667	0.627
676	0.6304
685	0.6444
694	0.6786
703	0.5348
712	0.6503
721	0.6606
730	0.6183
739	0.7373
748	0.7022
757	0.6456
766	0.6079
775	0.5893
784	0.5937
793	0.6289
802	0.6831
811	0.7421
820	0.7552
829	0.7481
838	0.7007
847	0.7764
856	0.8302
865	0.8312
874	0.8288
883	0.825
892	0.8202
901	0.8152
910	0.8091
919	0.8014
928	0.7882
937	0.7625
946	0.6173
955	0.7535
964	0.7267
973	0.5947
982	0.5713
991	0.7039
1000	0.7575
1009	0.752
1018	0.7268
1027	0.6711
1036	0.6828
1045	0.7026
1054	0.645
1063	0.6848
1072	0.7606
1081	0.7624
1090	0.7612
1099	0.7585
1108	0.7528
1117	0.7542
1126	0.7587
1135	0.7529
1144	0.7431
1153	0.737
1162	0.7377
1171	0.7393
1180	0.733
1189	0.71
1198	0.6923
1207	0.6881
1216	0.6832
1225	0.6578
1234	0.6262
1243	0.5572
1252	0.4895
1261	0.6015
1270	0.6245
1279	0.5648
1288	0.4211
1297	0.5331
1306	0.658
1315	0.6535
1324	0.6191
1333	0.5436
1342	0.3627
1351	0.2674
1360	0.4408
1369	0.2739
1378	0.3502
1387	0.5756
1396	0.6098
1405	0.5681
1414	0.5648
1423	0.4965
1432	0.346
1441	0.2697
1450	0.2063
1459	0.2206
1468	0.4504
1477	0.5692
1486	0.6513
1495	0.6642
1504	0.6664
1513	0.6572
1522	0.6433
1531	0.5777
1540	0.5433
1549	0.646
1558	0.6363
1567	0.6288
1576	0.6016
1585	0.5791
1594	0.5534
1603	0.5009
1612	0.4564
1621	0.4203
1630	0.315
1639	0.187
1648	0.1024
1657	0.1016
1666	0.2416
1675	0.339
1684	0.3912
1693	0.7808
1702	0.8262
1711	0.8468
1720	0.8555
1729	0.8601
1738	0.859
1747	0.8545
1756	0.8476
1765	0.8421
1774	0.8442
1783	0.8425
1792	0.8399
1801	0.8377
1810	0.8365
1819	0.8354
1828	0.8343
1837	0.8278
1846	0.8201
1855	0.8172
1864	0.8146
1873	0.812
1882	0.8089
1891	0.8053
1900	0.8014
1909	0.7974
1918	0.7933
1927	0.789
1936	0.7868
1945	0.784
1954	0.7805
1963	0.7772
1972	0.7738
1981	0.7691
1990	0.7707
1999	0.778
2008	0.7752
2017	0.7706
2026	0.7662
2035	0.7656
2044	0.7648
2053	0.7638
2062	0.7626
2071	0.7609
2080	0.7588
2089	0.7563
2098	0.7535
2107	0.7498
2116	0.746
2125	0.7424
2134	0.7391
2143	0.7363
2152	0.7334
2161	0.7311
2170	0.7289
2179	0.7266
2188	0.7243
2197	0.7221
2206	0.7193
2215	0.7164
2224	0.7131
2233	0.7093
2242	0.7044
2251	0.6981
2260	0.6918
2269	0.6855
2278	0.6798
2287	0.6741
2296	0.6684
2305	0.6624
2314	0.6557
2323	0.65
2332	0.6465
2341	0.6469
2350	0.6629
2359	0.6654
2368	0.6647
2377	0.6641
2386	0.6634
2395	0.6622
2404	0.66
2413	0.6573
2422	0.6538
2431	0.6495
2440	0.6449
2449	0.6397
2458	0.6358
2467	0.6324
2476	0.6302
2485	0.6289
2494	0.6294
2503	0.6283
2512	0.6247
2521	0.6205
2530	0.6165
2539	0.6127
2548	0.6089
2557	0.6044
2566	0.5996
2575	0.5955
2584	0.5902
2593	0.5852
2602	0.5812
2611	0.5766
2620	0.5717
2629	0.5676
2638	0.5652
2647	0.5637
2656	0.5612
2665	0.5576
2674	0.5534
2683	0.5487
2692	0.5432
2701	0.5372
2710	0.5304
2719	0.5282
2728	0.5288
2737	0.5285
2746	0.5251
2755	0.518
2764	0.5049
2773	0.488
2782	0.4684
2791	0.45
2800	0.4295
2809	0.4073
2818	0.374
2827	0.2699
2836	0.0795
2845	0.0465
2854	0.0486
2863	0.0636
2872	0.0805
2881	0.0665
2890	0.0324
2899	0.0124
2908	0.0084
2917	0.0078
2926	0.0082
2935	0.0132
2944	0.0234
2953	0.0289
2962	0.0781
2971	0.156
2980	0.2472
2989	0.2757
2998	0.2883
3007	0.2972
3016	0.3024
3025	0.3071
3034	0.3155
3043	0.3295
3052	0.3492
3061	0.3872
3070	0.4105
3079	0.4063
3088	0.3939
3097	0.3803
3106	0.3664
3115	0.3525
3124	0.3443
3133	0.342
3142	0.3472
3151	0.3661
3160	0.3915
3169	0.4325
3178	0.4452
3187	0.4261
3196	0.4051
3205	0.4121
3214	0.4373
3223	0.4684
3232	0.4995
3241	0.5208
3250	0.5265
3259	0.5272
3268	0.5263
3277	0.5233
3286	0.5169
3295	0.5148
3304	0.522
3313	0.5401
3322	0.5478
3331	0.5481
3340	0.5476
3349	0.5456
3358	0.5424
3367	0.5379
3376	0.5326
3385	0.5272
3394	0.5225
3403	0.5184
3412	0.5151
3421	0.5124
3430	0.5096
3439	0.5085
3448	0.5083
3457	0.5082
3466	0.5076
3475	0.508
3484	0.5091
3493	0.51
3502	0.5083
3511	0.5067
3520	0.5054
3529	0.5043
3538	0.5032
3547	0.5021
3556	0.501
3565	0.4999
3574	0.4988
3583	0.4977
3592	0.4962
3601	0.4948
3610	0.4934
3619	0.4921
3628	0.4909
3637	0.4897
3646	0.4885
3655	0.4872
3664	0.4859
3673	0.4847
3682	0.4834
3691	0.4821
3700	0.4808
3709	0.4791
3718	0.4773
3727	0.4756
3736	0.4738
3745	0.4719
3754	0.4699
3763	0.4678
3772	0.4658
3781	0.4637
3790	0.4617
3799	0.4597
3808	0.4578
3817	0.4559
3826	0.454
3835	0.453
3844	0.4523
3853	0.4515
3862	0.4495
3871	0.4475
3880	0.4453
3889	0.4432
3898	0.4412
3907	0.4399
3916	0.4386
3925	0.4373
3934	0.4361
3943	0.4348
3952	0.4335
3961	0.4324
3970	0.4318
3979	0.4314
3988	0.4328
3997	0.4339
