Infrared Spectrum: 2-Methyl-4-nitrophenyl isothiocyanate
Formula: C 8 H 6 N 2 O 2 S
CAS: 135805-96-8
State: gas
Origin: EPA-IR VAPOR PHASE LIBRARY
1/CM	ABSORBANCE
549.8	0.009319
559.445	0.011409
569.09	0.005959
578.734	0.003459
588.379	0.002369
598.024	0.002039
607.669	0.002489
617.313	0.002809
626.958	0.002689
636.603	0.002649
646.248	0.003299
655.893	0.003189
665.537	0.002879
675.182	0.002079
684.827	0.002449
694.472	0.004409
704.116	0.004319
713.761	0.003179
723.406	0.005389
733.051	0.017349
742.695	0.032069
752.34	0.021479
761.985	0.008339
771.63	0.006829
781.275	0.007019
790.919	0.013469
800.564	0.047769
810.209	0.021289
819.854	0.019099
829.498	0.031079
839.143	0.019119
848.788	0.009519
858.433	0.013029
868.078	0.027609
877.722	0.058199
887.367	0.082679
897.012	0.074959
906.657	0.054129
916.301	0.032179
925.946	0.015419
935.591	0.008569
945.236	0.016329
954.88	0.033059
964.525	0.019599
974.17	0.009219
983.815	0.006119
993.46	0.004979
1003.1	0.004959
1012.75	0.003879
1022.39	0.002749
1032.04	0.002129
1041.68	0.002319
1051.33	0.002339
1060.97	0.002749
1070.62	0.002929
1080.26	0.007629
1089.91	0.026069
1099.55	0.026589
1109.2	0.008659
1118.84	0.008329
1128.49	0.013679
1138.13	0.012859
1147.78	0.005489
1157.42	0.002829
1167.07	0.002609
1176.71	0.003549
1186.36	0.005339
1196	0.007159
1205.64	0.004919
1215.29	0.004899
1224.93	0.005429
1234.58	0.006929
1244.22	0.011039
1253.87	0.019079
1263.51	0.029479
1273.16	0.034419
1282.8	0.028539
1292.45	0.031739
1302.09	0.027959
1311.74	0.025119
1321.38	0.044229
1331.03	0.089519
1340.67	0.183489
1350.32	0.323649
1359.96	0.164349
1369.61	0.055469
1379.25	0.031879
1388.9	0.025539
1398.54	0.021059
1408.18	0.016879
1417.83	0.014139
1427.47	0.013439
1437.12	0.017179
1446.76	0.018119
1456.41	0.019729
1466.05	0.031059
1475.7	0.066379
1485.34	0.090079
1494.99	0.056049
1504.63	0.034839
1514.28	0.045809
1523.92	0.090889
1533.57	0.152549
1543.21	0.154089
1552.86	0.112319
1562.5	0.087169
1572.15	0.083019
1581.79	0.109609
1591.44	0.105599
1601.08	0.068699
1610.73	0.052679
1620.37	0.028249
1630.01	0.013909
1639.66	0.010049
1649.3	0.009239
1658.95	0.008839
1668.59	0.006509
1678.24	0.004579
1687.88	0.004539
1697.53	0.005399
1707.17	0.004989
1716.82	0.004109
1726.46	0.004159
1736.11	0.004399
1745.75	0.004519
1755.4	0.004819
1765.04	0.005579
1774.69	0.006549
1784.33	0.006959
1793.98	0.007109
1803.62	0.006209
1813.27	0.005609
1822.91	0.006439
1832.55	0.008259
1842.2	0.009549
1851.84	0.009289
1861.49	0.009019
1871.13	0.009639
1880.78	0.011329
1890.42	0.014859
1900.07	0.019639
1909.71	0.023669
1919.36	0.026609
1929	0.033019
1938.65	0.044609
1948.29	0.062229
1957.94	0.083519
1967.58	0.109999
1977.23	0.147209
1986.87	0.196019
1996.52	0.255799
2006.16	0.323009
2015.81	0.402889
2025.45	0.528929
2035.1	0.643089
2044.74	0.585309
2054.38	0.537099
2064.03	0.542649
2073.67	0.506789
2083.32	0.441989
2092.96	0.327389
2102.61	0.231459
2112.25	0.190139
2121.9	0.183569
2131.54	0.180019
2141.19	0.151309
2150.83	0.107319
2160.48	0.068209
2170.12	0.045739
2179.77	0.035059
2189.41	0.030089
2199.06	0.028629
2208.7	0.030009
2218.35	0.027169
2227.99	0.017899
2237.64	0.010619
2247.28	0.007539
2256.92	0.006079
2266.57	0.005419
2276.21	0.005049
2285.86	0.004869
2295.5	0.004469
2305.15	0.004209
2314.79	0.004239
2324.44	0.004669
2334.08	0.005659
2343.73	0.006859
2353.37	0.007879
2363.02	0.007229
2372.66	0.006139
2382.31	0.005679
2391.95	0.004849
2401.6	0.004319
2411.24	0.003919
2420.89	0.003649
2430.53	0.003739
2440.18	0.004239
2449.82	0.004639
2459.47	0.004679
2469.11	0.004099
2478.75	0.003869
2488.4	0.004209
2498.04	0.005159
2507.69	0.006419
2517.33	0.007179
2526.98	0.007249
2536.62	0.007189
2546.27	0.006859
2555.91	0.006339
2565.56	0.005709
2575.2	0.005589
2584.85	0.006459
2594.49	0.007329
2604.14	0.007829
2613.78	0.008479
2623.43	0.008849
2633.07	0.009139
2642.72	0.009009
2652.36	0.008029
2662.01	0.006139
2671.65	0.005229
2681.29	0.005009
2690.94	0.005159
2700.58	0.004929
2710.23	0.004249
2719.87	0.004119
2729.52	0.004459
2739.16	0.004759
2748.81	0.004269
2758.45	0.003709
2768.1	0.003219
2777.74	0.002759
2787.39	0.002539
2797.03	0.002309
2806.68	0.002339
2816.32	0.002549
2825.97	0.002819
2835.61	0.003249
2845.26	0.003929
2854.9	0.004819
2864.55	0.006349
2874.19	0.007239
2883.84	0.007309
2893.48	0.006959
2903.12	0.007149
2912.77	0.007539
2922.41	0.009079
2932.06	0.012559
2941.7	0.013499
2951.35	0.010669
2960.99	0.009409
2970.64	0.009539
2980.28	0.009109
2989.93	0.010089
2999.57	0.009599
3009.22	0.006449
3018.86	0.004619
3028.51	0.004239
3038.15	0.004399
3047.8	0.004629
3057.44	0.004279
3067.09	0.004869
3076.73	0.006379
3086.38	0.004749
3096.02	0.003779
3105.67	0.002929
3115.31	0.001619
3124.95	0.0010421
3134.6	0.0008093
3144.24	0.0005321
3153.89	0.0006049
3163.53	0.0005722
3173.18	0.00048024
3182.82	0.000592
3192.47	0.0006115
3202.11	0.0006862
3211.76	0.000419816
3221.4	0.0006341
3231.05	0.00041223
3240.69	0.000138
3250.34	0.000132
3259.98	7.9e-05
3269.63	0.000191
3279.27	0.000225
3288.92	5e-05
3298.56	0.000306
3308.21	5.4e-05
3317.85	7.9e-05
3327.49	0.000185
3337.14	0.0003727
3346.78	0.0003554
3356.43	0.00022
3366.07	0.000185
3375.72	0.000279
3385.36	0.0003334
3395.01	0.0003372
3404.65	0.00050389
3414.3	0.00044379
3423.94	0.00050473
3433.59	0.00048688
3443.23	0.0003323
3452.88	0.000117
3462.52	0.000295
3472.17	0.000315
3481.81	0.0003468
3491.46	0.0005937
3501.1	0.0005563
3510.75	0.00044394
3520.39	0.00048184
3530.04	0.0005221
3539.68	0.0003445
3549.32	0.0005921
3558.97	0.0004004
3568.61	0.00044771
3578.26	0.00026
3587.9	0.0003423
3597.55	0.0003695
3607.19	0.000266
3616.84	0.0003559
3626.48	0.0005466
3636.13	0.0003216
3645.77	0.00044603
3655.42	0.0005429
3665.06	0.00050561
3674.71	0.0005223
3684.35	0.0005201
3694	0.0003731
3703.64	0.0005648
3713.29	0.0006365
3722.93	0.0006632
3732.58	0.00051118
3742.22	0.0007448
3751.86	0.0008398
3761.51	0.00044784
3771.15	0.0007044
3780.8	0.00051112
3790.44	0.0003611
3800.09	0.00051797
3809.73	0.0007047
3819.38	0.0008151
3829.02	0.0008894
3838.67	0.0005621
3848.31	0.0007995
3857.96	0.0008867
3867.6	0.0008709
3877.25	0.0011936
3886.89	0.0011487
3896.54	0.0010978
3906.18	0.0012911
3915.83	0.0013509
3925.47	0.001649
3935.12	0.001529
3944.76	0.001719
3954.41	0.001729
3964.05	0.001779
3973.69	0.001869
3983.34	0.002339
3992.98	0.002409
