Infrared Spectrum: 4-HEXYL-1,3-DIHYDROXY BENZENE
Formula: C12 H18 O2
CAS: 136-77-6
State: SOLID (NUJOL MULL)
Boiling point: 178 C AT 8 mmHg
Class: COBLENTZ III
Instrument: PERKIN-ELMER 521 (GRATING)
Instrument parameters: GRATING CHANGE AT 1996 CM^-^1
Sampling: TRANSMISSION
Resolution: 4
Origin: MERCK SHARPE & DOHME RESEARCH LABORATORIES, Nelson Trenner
1/CM	TRANSMITTANCE
600.757	0.295
609.838	0.244
618.919	0.411
628	0.45
637.081	0.452
646.162	0.455
655.244	0.461
664.325	0.476
673.406	0.485
682.487	0.488
691.568	0.491
700.649	0.513
709.73	0.505
718.811	0.418
727.892	0.518
736.973	0.632
746.054	0.698
755.136	0.714
764.217	0.664
773.298	0.3989
782.379	0.502
791.46	0.546
800.541	0.766
809.622	0.748
818.703	0.749
827.784	0.529
836.865	0.689
845.947	0.843
855.028	0.6781
864.109	0.846
873.19	0.835
882.271	0.791
891.352	0.823
900.433	0.801
909.514	0.79
918.595	0.736
927.676	0.738
936.757	0.7
945.839	0.594
954.92	0.3962
964.001	0.121
973.082	0.216
982.163	0.749
991.244	0.772
1000.33	0.768
1009.41	0.743
1018.49	0.734
1027.57	0.718
1036.65	0.667
1045.73	0.675
1054.81	0.622
1063.89	0.549
1072.97	0.444
1082.05	0.3211
1091.14	0.137
1100.22	0.363
1109.3	0.197
1118.38	0.265
1127.46	0.525
1136.54	0.471
1145.62	0.3089
1154.7	0.154
1163.78	0.46
1172.87	0.49
1181.95	0.2281
1191.03	0.184
1200.11	0.295
1209.19	0.225
1218.27	0.197
1227.35	0.147
1236.43	0.176
1245.51	0.378
1254.6	0.468
1263.68	0.446
1272.76	0.445
1281.84	0.505
1290.92	0.366
1300	0.272
1309.08	0.438
1318.16	0.608
1327.24	0.653
1336.33	0.672
1345.41	0.669
1354.49	0.647
1363.57	0.535
1372.65	0.357
1381.73	0.575
1390.81	0.54
1399.89	0.56
1408.97	0.603
1418.06	0.577
1427.14	0.311
1436.22	0.255
1445.3	0.1
1454.38	0.132
1463.46	0.156
1472.54	0.528
1481.62	0.688
1490.7	0.72
1499.79	0.666
1508.87	0.5149
1517.95	0.195
1527.03	0.207
1536.11	0.584
1545.19	0.773
1554.27	0.801
1563.35	0.801
1572.43	0.785
1581.52	0.769
1590.6	0.729
1599.68	0.5539
1608.76	0.325
1617.84	0.162
1626.92	0.342
1636	0.706
1645.08	0.807
1654.16	0.831
1663.24	0.855
1672.33	0.855
1681.41	0.857
1690.49	0.852
1699.57	0.863
1708.65	0.879
1717.73	0.899
1726.81	0.922
1735.89	0.926
1744.97	0.94
1754.06	0.952
1763.14	0.96
1772.22	0.963
1781.3	0.968
1790.38	0.965
1799.46	0.966
1808.54	0.96
1817.62	0.957
1826.7	0.954
1835.79	0.938
1844.87	0.957
1853.95	0.962
1863.03	0.962
1872.11	0.958
1881.19	0.962
1890.27	0.955
1899.35	0.956
1908.43	0.958
1917.52	0.956
1926.6	0.955
1935.68	0.958
1944.76	0.959
1953.84	0.96
1962.92	0.963
1972	0.965
1981.08	0.968
1990.16	0.97
1999.25	0.971
2008.33	0.972
2017.41	0.972
2026.49	0.9729
2035.57	0.9736
2044.65	0.973
2053.73	0.973
2062.81	0.973
2071.89	0.973
2080.98	0.972
2090.06	0.971
2099.14	0.972
2108.22	0.973
2117.3	0.9715
2126.38	0.9694
2135.46	0.963
2144.54	0.96
2153.62	0.9554
2162.7	0.952
2171.79	0.951
2180.87	0.95
2189.95	0.95
2199.03	0.949
2208.11	0.9479
2217.19	0.9451
2226.27	0.9423
2235.35	0.94
2244.43	0.94
2253.52	0.936
2262.6	0.9265
2271.68	0.9225
2280.76	0.923
2289.84	0.922
2298.92	0.9212
2308	0.9195
2317.08	0.9147
2326.16	0.911
2335.25	0.9092
2344.33	0.907
2353.41	0.905
2362.49	0.905
2371.57	0.905
2380.65	0.905
2389.73	0.904
2398.81	0.9008
2407.89	0.8911
2416.98	0.8772
2426.06	0.867
2435.14	0.865
2444.22	0.864
2453.3	0.863
2462.38	0.863
2471.46	0.863
2480.54	0.861
2489.62	0.8592
2498.71	0.858
2507.79	0.8547
2516.87	0.8519
2525.95	0.849
2535.03	0.8454
2544.11	0.8392
2553.19	0.833
2562.27	0.8301
2571.35	0.8203
2580.44	0.8126
2589.52	0.8108
2598.6	0.808
2607.68	0.8033
2616.76	0.7975
2625.84	0.795
2634.92	0.792
2644	0.7892
2653.08	0.7859
2662.17	0.7807
2671.25	0.7789
2680.33	0.7762
2689.41	0.773
2698.49	0.77
2707.57	0.7638
2716.65	0.7482
2725.73	0.747
2734.81	0.7504
2743.89	0.753
2752.98	0.753
2762.06	0.7503
2771.14	0.7411
2780.22	0.7283
2789.3	0.7121
2798.38	0.6653
2807.46	0.6534
2816.54	0.5958
2825.62	0.5456
2834.71	0.4514
2843.79	0.279
2852.87	0.0965
2861.95	0.0721
2871.03	0.0919
2880.11	0.1163
2889.19	0.1345
2898.27	0.0824
2907.35	0.0537
2916.44	0.0423
2925.52	0.0404
2934.6	0.049
2943.68	0.058
2952.76	0.0566
2961.84	0.056
2970.92	0.0811
2980	0.2052
2989.08	0.3603
2998.17	0.4631
3007.25	0.5209
3016.33	0.5513
3025.41	0.564
3034.49	0.5478
3043.57	0.5487
3052.65	0.5889
3061.73	0.586
3070.81	0.5953
3079.9	0.6092
3088.98	0.6162
3098.06	0.619
3107.14	0.6173
3116.22	0.6083
3125.3	0.588
3134.38	0.586
3143.46	0.5773
3152.54	0.575
3161.63	0.5717
3170.71	0.5588
3179.79	0.5392
3188.87	0.538
3197.95	0.532
3207.03	0.5146
3216.11	0.5002
3225.19	0.4828
3234.27	0.4708
3243.35	0.459
3252.44	0.4521
3261.52	0.4343
3270.6	0.4136
3279.68	0.3958
3288.76	0.3822
3297.84	0.3455
3306.92	0.3211
3316	0.2938
3325.08	0.27
3334.17	0.2442
3343.25	0.2112
3352.33	0.1858
3361.41	0.1769
3370.49	0.1706
3379.57	0.1543
3388.65	0.1467
3397.73	0.1409
3406.81	0.1258
3415.9	0.113
3424.98	0.112
3434.06	0.1142
3443.14	0.1285
3452.22	0.1611
3461.3	0.1934
3470.38	0.2528
3479.46	0.3107
3488.54	0.3632
3497.63	0.41
3506.71	0.4908
3515.79	0.5533
3524.87	0.6067
3533.95	0.6752
3543.03	0.7484
3552.11	0.8075
3561.19	0.8205
3570.27	0.8382
3579.36	0.8497
3588.44	0.854
3597.52	0.857
3606.6	0.855
3615.68	0.8554
3624.76	0.858
3633.84	0.859
3642.92	0.86
3652	0.859
3661.09	0.858
3670.17	0.856
3679.25	0.854
3688.33	0.853
3697.41	0.852
3706.49	0.852
3715.57	0.8492
3724.65	0.8474
3733.73	0.8413
3742.82	0.839
3751.9	0.838
3760.98	0.8264
3770.06	0.822
3779.14	0.82
3788.22	0.82
3797.3	0.819
3806.38	0.819
3815.46	0.819
3824.54	0.817
3833.63	0.8153
3842.71	0.814
3851.79	0.812
3860.87	0.812
3869.95	0.8112
3879.03	0.811
3888.11	0.809
3897.19	0.806
3906.27	0.8032
3915.36	0.801
3924.44	0.7996
3933.52	0.7929
3942.6	0.7871
3951.68	0.783
3960.76	0.782
3969.84	0.781
3978.92	0.78
3988	0.7763
3997.09	0.7725
