Infrared Spectrum: 5-Methylbenzotriazole
Formula: C 7 H 7 N 3
CAS: 136-85-6
State: gas
Origin: EPA-IR VAPOR PHASE LIBRARY
1/CM	ABSORBANCE
549.8	0.000848
559.445	0.0010057
569.09	0.001481
578.734	0.002771
588.379	0.004831
598.024	0.005381
607.669	0.004391
617.313	0.002461
626.958	0.0010184
636.603	0.00031538
646.248	0.0006775
655.893	0.0011298
665.537	0.003141
675.182	0.005351
684.827	0.007281
694.472	0.006871
704.116	0.003651
713.761	0.001581
723.406	0.0007353
733.051	0.0006951
742.695	0.0012221
752.34	0.002171
761.985	0.002511
771.63	0.003151
781.275	0.005151
790.919	0.011121
800.564	0.013701
810.209	0.010741
819.854	0.006751
829.498	0.002971
839.143	0.001981
848.788	0.002101
858.433	0.002851
868.078	0.003281
877.722	0.004401
887.367	0.006171
897.012	0.008421
906.657	0.009201
916.301	0.007601
925.946	0.005081
935.591	0.003751
945.236	0.002751
954.88	0.001661
964.525	0.002211
974.17	0.003831
983.815	0.008311
993.46	0.010391
1003.1	0.008871
1012.75	0.004711
1022.39	0.002331
1032.04	0.001571
1041.68	0.0010987
1051.33	0.0009195
1060.97	0.001139
1070.62	0.001331
1080.26	0.001591
1089.91	0.002191
1099.55	0.002531
1109.2	0.003551
1118.84	0.004891
1128.49	0.005391
1138.13	0.004591
1147.78	0.003231
1157.42	0.001621
1167.07	0.002121
1176.71	0.004161
1186.36	0.006941
1196	0.011161
1205.64	0.013561
1215.29	0.011711
1224.93	0.006601
1234.58	0.003641
1244.22	0.003101
1253.87	0.005461
1263.51	0.005331
1273.16	0.003301
1282.8	0.002871
1292.45	0.005151
1302.09	0.005861
1311.74	0.004471
1321.38	0.001871
1331.03	0.0011491
1340.67	0.0010111
1350.32	0.001214
1359.96	0.001471
1369.61	0.001941
1379.25	0.002461
1388.9	0.002491
1398.54	0.001641
1408.18	0.001109
1417.83	0.001271
1427.47	0.001921
1437.12	0.002871
1446.76	0.003641
1456.41	0.003471
1466.05	0.002801
1475.7	0.002211
1485.34	0.002811
1494.99	0.003151
1504.63	0.002491
1514.28	0.001541
1523.92	0.0012141
1533.57	0.001341
1543.21	0.001631
1552.86	0.002011
1562.5	0.001751
1572.15	0.001391
1581.79	0.001741
1591.44	0.002581
1601.08	0.003041
1610.73	0.003361
1620.37	0.004381
1630.01	0.004511
1639.66	0.003331
1649.3	0.001891
1658.95	0.001153
1668.59	0.0009214
1678.24	0.0008614
1687.88	0.0007648
1697.53	0.0008132
1707.17	0.0009154
1716.82	0.0009829
1726.46	0.0009777
1736.11	0.0010465
1745.75	0.0010253
1755.4	0.0007794
1765.04	0.0004678
1774.69	0.0004008
1784.33	0.00033682
1793.98	0.0004315
1803.62	0.000425
1813.27	0.0004516
1822.91	0.000417
1832.55	0.00028469
1842.2	0.00032913
1851.84	0.0004092
1861.49	0.0005193
1871.13	0.0006379
1880.78	0.0006871
1890.42	0.0007724
1900.07	0.0008238
1909.71	0.0005915
1919.36	0.0004411
1929	0.0003931
1938.65	0.000279125
1948.29	0.00026488
1957.94	0.00029919
1967.58	0.00026769
1977.23	0.0002525
1986.87	0.000273687
1996.52	0.0002564
2006.16	0.0002269
2015.81	0.000272631
2025.45	0.0002258
2035.1	0.0002275
2044.74	0.00026913
2054.38	0.00029271
2064.03	0.0002464
2073.67	0.000274971
2083.32	0.0002568
2092.96	0.00031559
2102.61	0.00031412
2112.25	0.00030201
2121.9	0.0003207
2131.54	0.00035373
2141.19	0.0003763
2150.83	0.00033791
2160.48	0.00031292
2170.12	0.00034633
2179.77	0.000273304
2189.41	0.00033262
2199.06	0.00054
2208.7	0.0005483
2218.35	0.000452
2227.99	0.0003595
2237.64	0.00036501
2247.28	0.0004045
2256.92	0.000379
2266.57	0.0003723
2276.21	0.0003716
2285.86	0.0004011
2295.5	0.0005285
2305.15	0.0004436
2314.79	0.0004079
2324.44	0.0005273
2334.08	0.0004801
2343.73	0.0005672
2353.37	0.0005779
2363.02	0.0005741
2372.66	0.0006456
2382.31	0.0005738
2391.95	0.0005159
2401.6	0.0005516
2411.24	0.0004355
2420.89	0.0005018
2430.53	0.000471
2440.18	0.0005494
2449.82	0.0005465
2459.47	0.0005323
2469.11	0.0004072
2478.75	0.0004892
2488.4	0.0004454
2498.04	0.000632
2507.69	0.0006736
2517.33	0.0005935
2526.98	0.0004769
2536.62	0.0004296
2546.27	0.00036337
2555.91	0.0005012
2565.56	0.0004931
2575.2	0.000395
2584.85	0.0005951
2594.49	0.0004402
2604.14	0.0004291
2613.78	0.0005054
2623.43	0.0005678
2633.07	0.0005226
2642.72	0.0005263
2652.36	0.0004234
2662.01	0.00036331
2671.65	0.00034517
2681.29	0.00031218
2690.94	0.0003731
2700.58	0.0004285
2710.23	0.0005298
2719.87	0.000453
2729.52	0.0005599
2739.16	0.0006936
2748.81	0.0008018
2758.45	0.0005459
2768.1	0.0005332
2777.74	0.000481
2787.39	0.0004696
2797.03	0.0005402
2806.68	0.0005442
2816.32	0.0005695
2825.97	0.0006901
2835.61	0.0008392
2845.26	0.0011274
2854.9	0.001791
2864.55	0.002861
2874.19	0.004121
2883.84	0.004111
2893.48	0.003461
2903.12	0.003311
2912.77	0.003831
2922.41	0.005511
2932.06	0.007921
2941.7	0.007061
2951.35	0.004471
2960.99	0.003711
2970.64	0.003321
2980.28	0.003251
2989.93	0.002911
2999.57	0.002641
3009.22	0.002631
3018.86	0.003211
3028.51	0.004781
3038.15	0.006231
3047.8	0.006671
3057.44	0.005611
3067.09	0.003821
3076.73	0.002991
3086.38	0.002541
3096.02	0.002301
3105.67	0.001711
3115.31	0.0009705
3124.95	0.00054
3134.6	0.0004937
3144.24	0.00034424
3153.89	0.0003182
3163.53	0.0001812
3173.18	0.00033346
3182.82	0.0002412
3192.47	0.00026289
3202.11	0.00030774
3211.76	0.00036885
3221.4	0.0002083
3231.05	0.00029409
3240.69	0.000191
3250.34	0.000277736
3259.98	0.0002225
3269.63	0.000252
3279.27	6.4e-05
3288.92	0.00033867
3298.56	0.0002031
3308.21	0.00031572
3317.85	0.00035354
3327.49	0.0003907
3337.14	0.0002537
3346.78	0.00028195
3356.43	0.00026414
3366.07	0.0002223
3375.72	0.0002205
3385.36	0.0001804
3395.01	0.00029328
3404.65	0.00029856
3414.3	0.0003876
3423.94	0.0003872
3433.59	0.0005635
3443.23	0.0010155
3452.88	0.001821
3462.52	0.004681
3472.17	0.010651
3481.81	0.023051
3491.46	0.026021
3501.1	0.025961
3510.75	0.019131
3520.39	0.012741
3530.04	0.002881
3539.68	0.0008922
3549.32	0.0005834
3558.97	0.0002095
3568.61	0.0002301
3578.26	0.000151
3587.9	0.00014
3597.55	0.000147
3607.19	0.000411
3616.84	0.0002593
3626.48	0.000280763
3636.13	0.00031826
3645.77	0.00029145
3655.42	0.0002606
3665.06	0.000138
3674.71	0.0001788
3684.35	5.7e-05
3694	6e-06
3703.64	0.000135
3713.29	0.0001864
3722.93	0
3732.58	0.000101
3742.22	0.00035188
3751.86	0.000270699
3761.51	0.0002094
3771.15	0.000163
3780.8	0.00029181
3790.44	0.0002456
3800.09	0.0001751
3809.73	0.0002558
3819.38	0.00036038
3829.02	0.00033861
3838.67	2.4e-05
3848.31	0.0004537
3857.96	0.00026251
3867.6	0.0002442
3877.25	0.0002325
3886.89	0.000280917
3896.54	0.0002304
3906.18	0.000152
3915.83	0.000112
3925.47	0.00029723
3935.12	0.00029754
3944.76	0.0004597
3954.41	0.00032618
3964.05	0.00033037
3973.69	0.00030856
3983.34	0.00033225
3992.98	0.000427
