Infrared Spectrum: Resorcinol monobenzoate
Formula: C 13 H 10 O 3
CAS: 136-36-7
State: gas
Origin: EPA-IR VAPOR PHASE LIBRARY
1/CM	ABSORBANCE
549.8	0.002208
559.445	0.002068
569.09	0.003948
578.734	0.007638
588.379	0.007228
598.024	0.006138
607.669	0.002938
617.313	0.004068
626.958	0.002998
636.603	0.002748
646.248	0.003758
655.893	0.006298
665.537	0.013528
675.182	0.026938
684.827	0.041088
694.472	0.051458
704.116	0.065838
713.761	0.040358
723.406	0.016758
733.051	0.009328
742.695	0.011208
752.34	0.018908
761.985	0.024678
771.63	0.020938
781.275	0.011388
790.919	0.006818
800.564	0.005208
810.209	0.005118
819.854	0.005988
829.498	0.007038
839.143	0.008018
848.788	0.011348
858.433	0.014218
868.078	0.012448
877.722	0.011958
887.367	0.013288
897.012	0.010748
906.657	0.007618
916.301	0.007188
925.946	0.009758
935.591	0.019298
945.236	0.036178
954.88	0.020178
964.525	0.009608
974.17	0.007008
983.815	0.008428
993.46	0.019958
1003.1	0.043768
1012.75	0.019658
1022.39	0.069408
1032.04	0.037388
1041.68	0.025658
1051.33	0.087658
1060.97	0.139178
1070.62	0.092438
1080.26	0.080868
1089.91	0.030138
1099.55	0.023958
1109.2	0.032448
1118.84	0.068928
1128.49	0.201808
1138.13	0.272938
1147.78	0.107448
1157.42	0.076328
1167.07	0.076578
1176.71	0.115058
1186.36	0.094428
1196	0.062918
1205.64	0.050728
1215.29	0.043308
1224.93	0.083138
1234.58	0.179668
1244.22	0.242848
1253.87	0.357448
1263.51	0.245598
1273.16	0.113138
1282.8	0.064908
1292.45	0.057748
1302.09	0.057148
1311.74	0.044538
1321.38	0.027358
1331.03	0.016958
1340.67	0.011598
1350.32	0.008938
1359.96	0.007678
1369.61	0.006698
1379.25	0.006178
1388.9	0.005618
1398.54	0.005548
1408.18	0.006748
1417.83	0.007698
1427.47	0.009648
1437.12	0.015608
1446.76	0.031268
1456.41	0.037858
1466.05	0.032598
1475.7	0.042968
1485.34	0.063248
1494.99	0.071428
1504.63	0.035988
1514.28	0.014908
1523.92	0.014038
1533.57	0.012888
1543.21	0.012698
1552.86	0.013708
1562.5	0.013228
1572.15	0.019578
1581.79	0.037868
1591.44	0.077388
1601.08	0.109108
1610.73	0.081478
1620.37	0.044818
1630.01	0.024218
1639.66	0.015438
1649.3	0.010268
1658.95	0.007928
1668.59	0.005858
1678.24	0.004538
1687.88	0.004728
1697.53	0.005838
1707.17	0.007808
1716.82	0.010268
1726.46	0.014678
1736.11	0.029558
1745.75	0.068108
1755.4	0.141578
1765.04	0.143328
1774.69	0.054228
1784.33	0.016808
1793.98	0.009138
1803.62	0.008778
1813.27	0.008708
1822.91	0.006148
1832.55	0.004298
1842.2	0.003368
1851.84	0.002728
1861.49	0.002458
1871.13	0.002818
1880.78	0.003818
1890.42	0.004788
1900.07	0.005128
1909.71	0.005308
1919.36	0.004938
1929	0.003128
1938.65	0.002648
1948.29	0.003068
1957.94	0.003268
1967.58	0.002998
1977.23	0.002058
1986.87	0.001288
1996.52	0.001458
2006.16	0.001728
2015.81	0.001828
2025.45	0.001678
2035.1	0.001418
2044.74	0.001418
2054.38	0.001548
2064.03	0.001728
2073.67	0.002058
2083.32	0.002078
2092.96	0.001768
2102.61	0.001478
2112.25	0.001498
2121.9	0.001558
2131.54	0.001508
2141.19	0.001418
2150.83	0.001198
2160.48	0.0009538
2170.12	0.0008167
2179.77	0.0009609
2189.41	0.001138
2199.06	0.001418
2208.7	0.001588
2218.35	0.001518
2227.99	0.001258
2237.64	0.0010783
2247.28	0.0010958
2256.92	0.0010208
2266.57	0.0009564
2276.21	0.0010522
2285.86	0.0011151
2295.5	0.0010885
2305.15	0.001258
2314.79	0.001738
2324.44	0.001878
2334.08	0.001868
2343.73	0.001918
2353.37	0.001918
2363.02	0.001728
2372.66	0.001648
2382.31	0.001728
2391.95	0.002058
2401.6	0.002198
2411.24	0.001898
2420.89	0.001558
2430.53	0.001398
2440.18	0.001288
2449.82	0.001258
2459.47	0.0010939
2469.11	0.0009713
2478.75	0.0010048
2488.4	0.001138
2498.04	0.001148
2507.69	0.0008251
2517.33	0.000701
2526.98	0.0006387
2536.62	0.0005813
2546.27	0.0006483
2555.91	0.0006857
2565.56	0.0007652
2575.2	0.0008193
2584.85	0.0008856
2594.49	0.0009056
2604.14	0.0008848
2613.78	0.0008168
2623.43	0.0007385
2633.07	0.0007182
2642.72	0.0005009
2652.36	0.0004157
2662.01	0.0002407
2671.65	0.0002645
2681.29	0.00020844
2690.94	0.00016825
2700.58	0.0002392
2710.23	0.0002741
2719.87	0.0003484
2729.52	0.0004467
2739.16	0.0005867
2748.81	0.0006806
2758.45	0.0008162
2768.1	0.0007699
2777.74	0.0007188
2787.39	0.0004589
2797.03	0.0004737
2806.68	0.0003853
2816.32	0.0003018
2825.97	0.0003789
2835.61	0.0007015
2845.26	0.0007644
2854.9	0.0009742
2864.55	0.0009871
2874.19	0.0008137
2883.84	0.0008123
2893.48	0.0008241
2903.12	0.0009084
2912.77	0.0008452
2922.41	0.0010358
2932.06	0.0010997
2941.7	0.001128
2951.35	0.0009402
2960.99	0.0008249
2970.64	0.000995
2980.28	0.0009952
2989.93	0.000902
2999.57	0.001248
3009.22	0.002148
3018.86	0.003848
3028.51	0.007368
3038.15	0.010668
3047.8	0.014188
3057.44	0.014908
3067.09	0.019388
3076.73	0.025918
3086.38	0.015558
3096.02	0.011728
3105.67	0.008238
3115.31	0.004308
3124.95	0.001858
3134.6	0.001095
3144.24	0.0008816
3153.89	0.0008076
3163.53	0.0008297
3173.18	0.0007473
3182.82	0.0004988
3192.47	0.0004382
3202.11	0.0004614
3211.76	0.0004077
3221.4	0.0003425
3231.05	0.0003385
3240.69	0.00015772
3250.34	0.00021122
3259.98	0.00013128
3269.63	0.0001564
3279.27	0.0002964
3288.92	0.00020392
3298.56	0
3308.21	0.0002356
3317.85	0.0003636
3327.49	0.0003705
3337.14	0.0006225
3346.78	0.000878
3356.43	0.0010212
3366.07	0.0007036
3375.72	0.0007566
3385.36	0.0006365
3395.01	0.0005153
3404.65	0.00054
3414.3	0.0005734
3423.94	0.0007243
3433.59	0.0005768
3443.23	0.0005497
3452.88	0.0006342
3462.52	0.0005426
3472.17	0.0006052
3481.81	0.001042
3491.46	0.001528
3501.1	0.001608
3510.75	0.001218
3520.39	0.0008692
3530.04	0.0005559
3539.68	0.0005341
3549.32	0.0003703
3558.97	0.0003515
3568.61	0.0004846
3578.26	0.0008137
3587.9	0.0010157
3597.55	0.0009838
3607.19	0.0009234
3616.84	0.001798
3626.48	0.004208
3636.13	0.012278
3645.77	0.036238
3655.42	0.051348
3665.06	0.013258
3674.71	0.003558
3684.35	0.001488
3694	0.0009918
3703.64	0.0007284
3713.29	0.0005757
3722.93	0.000491
3732.58	0.0002487
3742.22	0.0004377
3751.86	0.0004831
3761.51	0.0004322
3771.15	0.0003185
3780.8	0.0004829
3790.44	0.0003563
3800.09	0.0003169
3809.73	0.0005172
3819.38	0.0006029
3829.02	0.0005418
3838.67	0.0004768
3848.31	0.0006492
3857.96	0.0004894
3867.6	0.0005517
3877.25	0.0006017
3886.89	0.0005115
3896.54	0.0004846
3906.18	0.0006543
3915.83	0.0006662
3925.47	0.0003767
3935.12	0.0006751
3944.76	0.0004716
3954.41	0.0006841
3964.05	0.000611
3973.69	0.0004322
3983.34	0.0003247
3992.98	0.0002359
