Infrared Spectrum: BENZOTHIAZOLE, 2-AMINO-
Formula: C7 H6 N2 S
CAS: 136-95-8
State: SOLID (1.5 mg / 350 mg KBr DISC) VS AIR
Class: COBLENTZ II
Instrument: BECKMAN IR-12 (GRATING)
Instrument parameters: FILTERS AT 303, 473, 790, 1036, 1880, 2930 CM^-^1. GRATING CHANGE: 300.5, 650.0, 2000.4 CM^-^1
Sampling: TRANSMISSION
Resolution: 2
Origin: BECKMAN INSTRUMENTS, KENNETH STINE
1/CM	TRANSMITTANCE
4000	0.8848
3990	0.885
3980	0.8842
3970	0.8828
3960	0.8811
3950	0.8808
3940	0.8812
3930	0.8817
3920	0.8821
3910	0.8825
3900	0.8828
3890	0.8831
3880	0.8834
3870	0.8836
3860	0.8831
3850	0.8825
3840	0.8831
3830	0.8839
3820	0.8848
3810	0.887
3800	0.8891
3790	0.8911
3780	0.8923
3770	0.8928
3760	0.8911
3750	0.8906
3740	0.8932
3730	0.8945
3720	0.8954
3710	0.8961
3700	0.8981
3690	0.9002
3680	0.9011
3670	0.9005
3660	0.9021
3650	0.9033
3640	0.9038
3630	0.9015
3620	0.8993
3610	0.8968
3600	0.8944
3590	0.8917
3580	0.8877
3570	0.8838
3560	0.8802
3550	0.8778
3540	0.8771
3530	0.877
3520	0.8678
3510	0.8608
3500	0.8586
3490	0.8516
3480	0.8381
3470	0.8171
3460	0.7846
3450	0.741
3440	0.6219
3430	0.511
3420	0.3864
3410	0.2617
3400	0.2207
3390	0.2859
3380	0.3782
3370	0.453
3360	0.478
3350	0.5172
3340	0.5565
3330	0.5957
3320	0.635
3310	0.6545
3300	0.6421
3290	0.5555
3280	0.4668
3270	0.4873
3260	0.5623
3250	0.6373
3240	0.6737
3230	0.673
3220	0.6782
3210	0.6778
3200	0.6521
3190	0.6093
3180	0.5688
3170	0.5282
3160	0.4876
3150	0.447
3140	0.4064
3130	0.3659
3120	0.3253
3110	0.2847
3100	0.2431
3090	0.2387
3080	0.2234
3070	0.218
3060	0.2087
3050	0.2375
3040	0.2907
3030	0.3459
3020	0.3816
3010	0.4056
3000	0.4285
2990	0.4501
2980	0.4704
2970	0.4886
2960	0.4977
2950	0.4995
2940	0.491
2930	0.4739
2920	0.4812
2910	0.5
2900	0.5342
2890	0.569
2880	0.6039
2870	0.6297
2860	0.6468
2850	0.6638
2840	0.6801
2830	0.6956
2820	0.71
2810	0.7242
2800	0.7374
2790	0.7465
2780	0.7494
2770	0.7469
2760	0.7335
2750	0.6937
2740	0.6481
2730	0.6406
2720	0.6696
2710	0.7051
2700	0.7407
2690	0.771
2680	0.7893
2670	0.8003
2660	0.809
2650	0.8178
2640	0.8208
2630	0.813
2620	0.8188
2610	0.8302
2600	0.8373
2590	0.8441
2580	0.8493
2570	0.852
2560	0.8549
2550	0.8591
2540	0.8614
2530	0.8595
2520	0.8597
2510	0.8606
2500	0.8639
2490	0.8671
2480	0.8694
2470	0.8703
2460	0.8695
2450	0.8707
2440	0.8707
2430	0.8703
2420	0.872
2410	0.8739
2400	0.8767
2390	0.8841
2380	0.8921
2370	0.8993
2360	0.9009
2350	0.8967
2340	0.8839
2330	0.879
2320	0.8791
2310	0.8728
2300	0.8694
2290	0.883
2280	0.8864
2270	0.8858
2260	0.8895
2250	0.8943
2240	0.8978
2230	0.8998
2220	0.8994
2210	0.8965
2200	0.8962
2190	0.8996
2180	0.9033
2170	0.9037
2160	0.9021
2150	0.9051
2140	0.9059
2130	0.9005
2120	0.903
2110	0.9049
2100	0.9052
2090	0.9043
2080	0.9035
2070	0.9018
2060	0.8992
2050	0.9021
2040	0.9083
2030	0.9056
2020	0.9075
2010	0.9091
2000	0.9097
1990	0.908
1980	0.9089
1970	0.9095
1960	0.908
1950	0.9045
1940	0.8983
1930	0.8904
1920	0.8691
1910	0.9083
1900	0.9139
1890	0.8813
1880	0.8602
1870	0.9028
1860	0.9128
1850	0.91
1840	0.9053
1830	0.919
1820	0.9199
1810	0.9091
1800	0.9077
1790	0.9136
1780	0.9052
1770	0.8584
1760	0.8841
1750	0.9209
1740	0.9291
1730	0.9293
1720	0.9227
1710	0.9227
1700	0.916
1690	0.9034
1680	0.8978
1670	0.8617
1660	0.6739
1650	0.093
1640	0.2225
1630	0.4126
1620	0.6146
1610	0.7265
1600	0.7236
1590	0.6395
1580	0.7935
1570	0.7518
1560	0.7164
1550	0.3671
1540	0.1656
1530	0.0419
1520	0.4428
1510	0.6939
1500	0.7661
1490	0.8088
1480	0.8455
1470	0.864
1460	0.7155
1450	0.0716
1440	0.5316
1430	0.7961
1420	0.8244
1410	0.8213
1400	0.8105
1390	0.8206
1380	0.7992
1370	0.7146
1360	0.7804
1350	0.7315
1340	0.6159
1330	0.6647
1320	0.4076
1310	0.4003
1300	0.6331
1290	0.5225
1280	0.7211
1270	0.8057
1260	0.8407
1250	0.6988
1240	0.8354
1230	0.863
1220	0.874
1210	0.8728
1200	0.8814
1190	0.8818
1180	0.8802
1170	0.8782
1160	0.8565
1150	0.8553
1140	0.8175
1130	0.7258
1120	0.5915
1110	0.4256
1100	0.6626
1090	0.832
1080	0.8678
1070	0.791
1060	0.8968
1050	0.906
1040	0.9207
1030	0.9223
1020	0.6556
1010	0.9036
1000	0.9204
990	0.9232
980	0.9248
970	0.9005
960	0.9154
950	0.9245
940	0.9213
930	0.9017
920	0.5047
910	0.9066
900	0.9062
890	0.3629
880	0.8438
870	0.8835
860	0.8784
850	0.7615
840	0.8734
830	0.8878
820	0.8785
810	0.8733
800	0.8664
790	0.8545
780	0.8347
770	0.8081
760	0.7501
750	0.504
740	0.1325
730	0.5244
720	0.0353
710	0.5822
700	0.6377
690	0.5003
680	0.6393
670	0.7219
660	0.7845
650	0.6343
640	0.5833
630	0.5483
620	0.6408
610	0.7101
600	0.7578
590	0.7401
580	0.6975
570	0.6908
560	0.7315
550	0.8424
540	0.8193
530	0.7719
520	0.774
510	0.8086
500	0.6925
490	0.8307
480	0.6026
470	0.6815
460	0.7168
450	0.745
440	0.735
430	0.3905
420	0.6127
410	0.6887
400	0.7319
390	0.7521
380	0.7621
370	0.7751
360	0.7715
350	0.768
340	0.7456
330	0.7245
320	0.6788
310	0.5177
300	0.3425
290	0.6551
280	0.6468
270	0.5739
260	0.4793
250	0.3041
