Infrared Spectrum: 2,5-Dimethylphenylacetic acid
Formula: C 10 H 12 O 2
CAS: 13612-34-5
State: gas
Origin: EPA-IR VAPOR PHASE LIBRARY
1/CM	ABSORBANCE
549.9	0.01439
559.547	0.01086
569.193	0.01332
578.84	0.02095
588.486	0.04858
598.133	0.0778
607.779	0.05902
617.426	0.04059
627.072	0.0315
636.719	0.02373
646.365	0.01756
656.012	0.01281
665.658	0.01028
675.305	0.00988
684.951	0.01134
694.598	0.01315
704.245	0.01371
713.891	0.01124
723.538	0.00802
733.184	0.00659
742.831	0.00495
752.477	0.00427
762.124	0.00486
771.77	0.00644
781.417	0.00878
791.063	0.01448
800.71	0.02661
810.356	0.02703
820.003	0.01204
829.649	0.00553
839.296	0.00525
848.943	0.00561
858.589	0.00601
868.236	0.00591
877.882	0.00633
887.529	0.00682
897.175	0.00618
906.822	0.00547
916.468	0.00564
926.115	0.00612
935.761	0.00629
945.408	0.00593
955.054	0.00516
964.701	0.0046
974.347	0.00453
983.994	0.00499
993.64	0.00591
1003.29	0.00615
1012.93	0.00583
1022.58	0.00615
1032.23	0.0075
1041.87	0.0091
1051.52	0.01159
1061.17	0.01623
1070.81	0.0262
1080.46	0.04352
1090.11	0.06647
1099.75	0.10284
1109.4	0.14085
1119.05	0.12919
1128.69	0.09645
1138.34	0.073
1147.99	0.05122
1157.63	0.03939
1167.28	0.0299
1176.92	0.02403
1186.57	0.02428
1196.22	0.02648
1205.86	0.0278
1215.51	0.0266
1225.16	0.02337
1234.8	0.01908
1244.45	0.01602
1254.1	0.01416
1263.74	0.01336
1273.39	0.01383
1283.04	0.01656
1292.68	0.01999
1302.33	0.02058
1311.98	0.01783
1321.62	0.01626
1331.27	0.01868
1340.92	0.02546
1350.56	0.03237
1360.21	0.03095
1369.86	0.02151
1379.5	0.01546
1389.15	0.01361
1398.79	0.01115
1408.44	0.01098
1418.09	0.01366
1427.73	0.0168
1437.38	0.01774
1447.03	0.01578
1456.67	0.01387
1466.32	0.01266
1475.97	0.0118
1485.61	0.01353
1495.26	0.02314
1504.91	0.03295
1514.55	0.02256
1524.2	0.00958
1533.85	0.00643
1543.49	0.00559
1553.14	0.0052
1562.79	0.00498
1572.43	0.00491
1582.08	0.00487
1591.73	0.00486
1601.37	0.00652
1611.02	0.00899
1620.67	0.00771
1630.31	0.00398
1639.96	0.00268
1649.6	0.00269
1659.25	0.00292
1668.9	0.00332
1678.54	0.00389
1688.19	0.00503
1697.84	0.00652
1707.48	0.00888
1717.13	0.01284
1726.78	0.01944
1736.42	0.0311
1746.07	0.05162
1755.72	0.08435
1765.36	0.13274
1775.01	0.17127
1784.66	0.15633
1794.3	0.10734
1803.95	0.06177
1813.6	0.03169
1823.24	0.01717
1832.89	0.01036
1842.54	0.00679
1852.18	0.00474
1861.83	0.00376
1871.47	0.00352
1881.12	0.00393
1890.77	0.00387
1900.41	0.0027
1910.06	0.0019071
1919.71	0.00163043
1929.35	0.0016158
1939	0.00158856
1948.65	0.00163985
1958.29	0.0016773
1967.94	0.0016555
1977.59	0.00161003
1987.23	0.00158613
1996.88	0.0014905
2006.53	0.001344
2016.17	0.001287
2025.82	0.001123
2035.47	0.001007
2045.11	0.00092
2054.76	0.000819
2064.41	0.000768
2074.05	0.000789
2083.7	0.000737
2093.35	0.000795
2102.99	0.000822
2112.64	0.000878
2122.28	0.000805
2131.93	0.000776
2141.58	0.000751
2151.22	0.000787
2160.87	0.000796
2170.52	0.000818
2180.16	0.000882
2189.81	0.000948
2199.46	0.001084
2209.1	0.001198
2218.75	0.001214
2228.4	0.001072
2238.04	0.000932
2247.69	0.000871
2257.34	0.000847
2266.98	0.000819
2276.63	0.000848
2286.28	0.000822
2295.92	0.000845
2305.57	0.000908
2315.22	0.000973
2324.86	0.00101
2334.51	0.000895
2344.16	0.000924
2353.8	0.000915
2363.45	0.000939
2373.09	0.000925
2382.74	0.000858
2392.39	0.000838
2402.03	0.000823
2411.68	0.000834
2421.33	0.000834
2430.97	0.000722
2440.62	0.000811
2450.27	0.000812
2459.91	0.000818
2469.56	0.000757
2479.21	0.000685
2488.85	0.000622
2498.5	0.00055
2508.15	0.00054
2517.79	0.00052
2527.44	0.00045
2537.09	0.00047
2546.73	0.00038
2556.38	0.00034
2566.03	0.00038
2575.67	0.0003
2585.32	0.0003
2594.96	0.00028
2604.61	0.00029
2614.26	0.00036
2623.9	0.00023
2633.55	0.00027
2643.2	0.00024
2652.84	0.00024
2662.49	0.00031
2672.14	0.00032
2681.78	0.00035
2691.43	0.00035
2701.08	0.00037
2710.72	0.00045
2720.37	0.000643
2730.02	0.001034
2739.66	0.0018226
2749.31	0.001744
2758.96	0.000952
2768.6	0.00053
2778.25	0.0005
2787.9	0.000687
2797.54	0.001019
2807.19	0.001296
2816.84	0.0019324
2826.48	0.00265
2836.13	0.00379
2845.77	0.00556
2855.42	0.00888
2865.07	0.01491
2874.71	0.02094
2884.36	0.02148
2894.01	0.01972
2903.65	0.01994
2913.3	0.02433
2922.95	0.03617
2932.59	0.04745
2942.24	0.04213
2951.89	0.02991
2961.53	0.02366
2971.18	0.02118
2980.83	0.02164
2990.47	0.02258
3000.12	0.02621
3009.77	0.03147
3019.41	0.032
3029.06	0.02716
3038.71	0.02274
3048.35	0.02442
3058	0.02165
3067.64	0.01314
3077.29	0.00848
3086.94	0.00557
3096.58	0.00397
3106.23	0.00302
3115.88	0.00279
3125.52	0.002393
3135.17	0.0017388
3144.82	0.000914
3154.46	0.00055
3164.11	0.0003
3173.76	0.00016
3183.4	0.00018
3193.05	3e-05
3202.7	7e-05
3212.34	0.0001
3221.99	9e-05
3231.64	0.00023
3241.28	0.00023
3250.93	0.00029
3260.58	0.00026
3270.22	0.00042
3279.87	0.00029
3289.52	0.00032
3299.16	0.00042
3308.81	0.00053
3318.45	0.00045
3328.1	0.00043
3337.75	0.00053
3347.39	0.00037
3357.04	0.00041
3366.69	0.00059
3376.33	0.000595
3385.98	0.000659
3395.63	0.000667
3405.27	0.000734
3414.92	0.00075
3424.57	0.000728
3434.21	0.000878
3443.86	0.000894
3453.51	0.000926
3463.15	0.001253
3472.8	0.001389
3482.45	0.00164202
3492.09	0.0018268
3501.74	0.0021868
3511.39	0.00268
3521.03	0.0033
3530.68	0.00414
3540.33	0.00638
3549.97	0.01051
3559.62	0.02341
3569.26	0.06951
3578.91	0.06864
3588.56	0.01924
3598.2	0.00602
3607.85	0.00356
3617.5	0.00258
3627.14	0.0020097
3636.79	0.00161118
3646.44	0.001465
3656.08	0.001352
3665.73	0.001252
3675.38	0.001176
3685.02	0.001012
3694.67	0.001038
3704.32	0.001053
3713.96	0.00104
3723.61	0.001007
3733.26	0.001128
3742.9	0.000959
3752.55	0.001065
3762.2	0.000976
3771.84	0.001066
3781.49	0.001072
3791.13	0.000918
3800.78	0.001003
3810.43	0.000947
3820.07	0.000901
3829.72	0.000967
3839.37	0.000927
3849.01	0.001127
3858.66	0.000944
3868.31	0.001071
3877.95	0.001002
3887.6	0.001001
3897.25	0.001028
3906.89	0.0011
3916.54	0.001002
3926.19	0.001071
3935.83	0.001045
3945.48	0.001074
3955.13	0.001006
3964.77	0.001092
3974.42	0.001085
3984.07	0.001046
3993.71	0.001065
