Infrared Spectrum: Adenine, N-(p-nitroPhenyl)-
Formula: C11 H8 N6 O2
CAS: 136112-69-1
State: SOLID (0.7 mg / 650 mg KBr DISC)
Class: COBLENTZ III
Instrument: PERKIN-ELMER 21 (GRATING)
Instrument parameters: FILTER CHANGE ABOUT 1090 CM^-^1
Sampling: TRANSMISSION
Resolution: 2
Origin: SOUTHERN RESEARCH INSTITUTE
1/CM	TRANSMITTANCE
603	0.8095
612	0.7996
621	0.7805
630	0.7417
639	0.5464
648	0.6856
657	0.8389
666	0.8338
675	0.7951
684	0.7367
693	0.7862
702	0.8146
711	0.8102
720	0.8005
729	0.7807
738	0.7622
747	0.5451
756	0.6148
765	0.7392
774	0.7221
783	0.6967
792	0.5935
801	0.6579
810	0.6667
819	0.6378
828	0.6796
837	0.689
846	0.3619
855	0.6318
864	0.6533
873	0.7879
882	0.7738
891	0.7705
900	0.7581
909	0.6545
918	0.7406
927	0.7539
936	0.6249
945	0.5475
954	0.7572
963	0.8256
972	0.8326
981	0.8323
990	0.8284
999	0.8226
1008	0.8124
1017	0.8209
1026	0.8179
1035	0.8128
1044	0.7995
1053	0.7916
1062	0.786
1071	0.7759
1080	0.7591
1089	0.6501
1098	0.7065
1107	0.6964
1116	0.3505
1125	0.6128
1134	0.7762
1143	0.7786
1152	0.7703
1161	0.7376
1170	0.7024
1179	0.6892
1188	0.5733
1197	0.675
1206	0.7293
1215	0.7117
1224	0.6858
1233	0.6064
1242	0.3667
1251	0.2778
1260	0.6605
1269	0.6885
1278	0.6512
1287	0.6046
1296	0.4887
1305	0.2873
1314	0.1506
1323	0.1236
1332	0.1219
1341	0.0827
1350	0.173
1359	0.4718
1368	0.5938
1377	0.7
1386	0.6754
1395	0.6381
1404	0.5525
1413	0.5878
1422	0.4579
1431	0.6065
1440	0.6135
1449	0.6094
1458	0.5629
1467	0.2755
1476	0.2397
1485	0.2391
1494	0.261
1503	0.1073
1512	0.4106
1521	0.651
1530	0.662
1539	0.6375
1548	0.565
1557	0.4949
1566	0.4503
1575	0.2108
1584	0.0608
1593	0.1351
1602	0.3909
1611	0.3821
1620	0.4015
1629	0.3045
1638	0.2684
1647	0.3966
1656	0.4619
1665	0.518
1674	0.7383
1683	0.7818
1692	0.8101
1701	0.8299
1710	0.8406
1719	0.8476
1728	0.8497
1737	0.8449
1746	0.842
1755	0.8431
1764	0.8464
1773	0.8619
1782	0.8707
1791	0.8724
1800	0.8741
1809	0.875
1818	0.8746
1827	0.8735
1836	0.8722
1845	0.8708
1854	0.8694
1863	0.8677
1872	0.866
1881	0.8614
1890	0.8558
1899	0.8496
1908	0.8437
1917	0.8445
1926	0.8502
1935	0.8573
1944	0.8559
1953	0.8534
1962	0.8517
1971	0.8498
1980	0.8524
1989	0.8542
1998	0.8539
2007	0.8525
2016	0.8514
2025	0.8502
2034	0.849
2043	0.8477
2052	0.8464
2061	0.8444
2070	0.8422
2079	0.8402
2088	0.8381
2097	0.8366
2106	0.8352
2115	0.8344
2124	0.8385
2133	0.8328
2142	0.8288
2151	0.8279
2160	0.8275
2169	0.8277
2178	0.8268
2187	0.8264
2196	0.8251
2205	0.8224
2214	0.8173
2223	0.8161
2232	0.8155
2241	0.8135
2250	0.8108
2259	0.8079
2268	0.8051
2277	0.8021
2286	0.7984
2295	0.794
2304	0.7892
2313	0.7843
2322	0.7796
2331	0.776
2340	0.7759
2349	0.7761
2358	0.775
2367	0.7737
2376	0.7717
2385	0.7668
2394	0.7611
2403	0.7564
2412	0.7529
2421	0.7524
2430	0.753
2439	0.7528
2448	0.7503
2457	0.7432
2466	0.7405
2475	0.7374
2484	0.733
2493	0.7281
2502	0.7192
2511	0.7107
2520	0.7052
2529	0.7035
2538	0.7031
2547	0.7025
2556	0.7015
2565	0.6993
2574	0.6953
2583	0.6932
2592	0.69
2601	0.6877
2610	0.6851
2619	0.6712
2628	0.6598
2637	0.653
2646	0.6471
2655	0.6423
2664	0.6379
2673	0.6339
2682	0.6299
2691	0.6224
2700	0.6154
2709	0.6108
2718	0.6046
2727	0.5982
2736	0.5918
2745	0.5832
2754	0.5743
2763	0.5614
2772	0.5484
2781	0.5398
2790	0.5397
2799	0.5458
2808	0.5509
2817	0.556
2826	0.5602
2835	0.5654
2844	0.5686
2853	0.5529
2862	0.538
2871	0.5292
2880	0.5219
2889	0.5134
2898	0.5044
2907	0.4945
2916	0.4898
2925	0.487
2934	0.4873
2943	0.4907
2952	0.4895
2961	0.4833
2970	0.4838
2979	0.4859
2988	0.4835
2997	0.4771
3006	0.4704
3015	0.4637
3024	0.4558
3033	0.4421
3042	0.4328
3051	0.424
3060	0.4135
3069	0.4086
3078	0.4159
3087	0.4207
3096	0.4232
3105	0.4358
3114	0.4596
3123	0.4982
3132	0.5219
3141	0.5398
3150	0.5484
3159	0.5477
3168	0.5417
3177	0.5356
3186	0.5345
3195	0.5366
3204	0.5512
3213	0.5573
3222	0.5727
3231	0.5789
3240	0.5771
3249	0.569
3258	0.5612
3267	0.5532
3276	0.5448
3285	0.5442
3294	0.5466
3303	0.5486
3312	0.5516
3321	0.5516
3330	0.5463
3339	0.5338
3348	0.5196
3357	0.5134
3366	0.5322
3375	0.554
3384	0.5543
3393	0.5543
3402	0.5623
3411	0.5709
3420	0.5773
3429	0.5849
3438	0.593
3447	0.5959
3456	0.6017
3465	0.6117
3474	0.6205
3483	0.6294
3492	0.6378
3501	0.6468
3510	0.6544
3519	0.6611
3528	0.6628
3537	0.6656
3546	0.673
3555	0.6818
3564	0.6901
3573	0.7
3582	0.7085
3591	0.7147
3600	0.7202
3609	0.7241
3618	0.7253
3627	0.7257
3636	0.726
3645	0.7256
3654	0.7238
3663	0.7221
3672	0.7229
3681	0.7255
3690	0.7249
3699	0.7225
3708	0.7222
3717	0.7227
3726	0.7235
3735	0.7233
3744	0.7229
3753	0.722
3762	0.719
3771	0.7166
3780	0.7148
3789	0.7144
3798	0.7142
3807	0.714
3816	0.7133
3825	0.711
3834	0.707
3843	0.7069
3852	0.7061
3861	0.7047
3870	0.7039
3879	0.7032
3888	0.7026
3897	0.703
3906	0.7047
3915	0.7079
3924	0.707
3933	0.6969
3942	0.6929
3951	0.6935
3960	0.6935
3969	0.6928
3978	0.6917
3987	0.6897
3996	0.6865
