Infrared Spectrum: 1-ACETAMIDO-2-METHYL-NAPHTHALENE
Formula: C13 H13 N O
CAS: 13615-35-5
State: SOLID (1.0% IN KBr PELLET)
Class: COBLENTZ
Instrument: Not specified, most likely a prism, grating, or hybrid spectrometer.
Sampling: TRANSMISSION
Path length: 0.0355 CM THICK
Resolution: 4
Origin: ANDERSON PHYSICAL LABORATORY
1/CM	TRANSMITTANCE
671.856	0.554
680.262	0.552
688.668	0.3882
697.074	0.355
705.48	0.501
713.886	0.474
722.292	0.429
730.698	0.297
739.104	0.427
747.51	0.097
755.916	0.358
764.322	0.5699
772.728	0.722
781.134	0.689
789.54	0.635
797.946	0.3881
806.352	0.274
814.758	0.2141
823.164	0.518
831.57	0.545
839.976	0.804
848.382	0.7263
856.788	0.8809
865.194	0.911
873.6	0.87
882.006	0.8659
890.412	0.936
898.818	0.93
907.224	0.929
915.63	0.923
924.036	0.896
932.442	0.909
940.848	0.909
949.254	0.905
957.66	0.8161
966.066	0.867
974.472	0.794
982.878	0.875
991.284	0.872
999.69	0.878
1008.1	0.842
1016.5	0.866
1024.91	0.869
1033.31	0.822
1041.72	0.716
1050.13	0.807
1058.53	0.812
1066.94	0.842
1075.34	0.842
1083.75	0.807
1092.16	0.662
1100.56	0.4561
1108.97	0.51
1117.37	0.6409
1125.78	0.768
1134.19	0.8
1142.59	0.806
1151	0.603
1159.4	0.608
1167.81	0.785
1176.22	0.789
1184.62	0.822
1193.03	0.816
1201.43	0.804
1209.84	0.776
1218.25	0.756
1226.65	0.69
1235.06	0.725
1243.46	0.725
1251.87	0.704
1260.28	0.678
1268.68	0.6021
1277.09	0.591
1285.49	0.669
1293.9	0.65
1302.31	0.618
1310.71	0.594
1319.12	0.539
1327.52	0.427
1335.93	0.382
1344.34	0.439
1352.74	0.4181
1361.15	0.325
1369.55	0.436
1377.96	0.418
1386.37	0.403
1394.77	0.399
1403.18	0.37
1411.58	0.273
1419.99	0.298
1428.4	0.318
1436.8	0.3041
1445.21	0.264
1453.61	0.381
1462.02	0.463
1470.43	0.487
1478.83	0.524
1487.24	0.567
1495.64	0.561
1504.05	0.561
1512.45	0.46
1520.86	0.4079
1529.27	0.525
1537.67	0.51
1546.08	0.475
1554.48	0.423
1562.89	0.345
1571.3	0.19
1579.7	0.183
1588.11	0.09
1596.51	0.055
1604.92	0.048
1613.33	0.055
1621.73	0.06
1630.14	0.057
1638.54	0.054
1646.95	0.093
1655.36	0.264
1663.76	0.414
1672.17	0.453
1680.57	0.48
1688.98	0.6289
1697.39	0.72
1705.79	0.779
1714.2	0.81
1722.6	0.836
1731.01	0.846
1739.42	0.863
1747.82	0.866
1756.23	0.881
1764.63	0.885
1773.04	0.87
1781.45	0.876
1789.85	0.885
1798.26	0.893
1806.66	0.899
1815.07	0.897
1823.48	0.887
1831.88	0.893
1840.29	0.885
1848.69	0.893
1857.1	0.9
1865.51	0.905
1873.91	0.906
1882.32	0.905
1890.72	0.899
1899.13	0.894
1907.54	0.885
1915.94	0.87
1924.35	0.858
1932.75	0.849
1941.16	0.858
1949.57	0.864
1957.97	0.866
1966.38	0.876
1974.78	0.888
1983.19	0.891
1991.6	0.891
2000	0.891
2008.41	0.891
2016.81	0.89
2025.22	0.8885
2033.63	0.887
2042.03	0.8865
2050.44	0.883
2058.84	0.8812
2067.25	0.879
2075.66	0.876
2084.06	0.875
2092.47	0.873
2100.87	0.873
2109.28	0.873
2117.69	0.8725
2126.09	0.87
2134.5	0.867
2142.9	0.866
2151.31	0.866
2159.72	0.8644
2168.12	0.8639
2176.53	0.8594
2184.93	0.8574
2193.34	0.8554
2201.75	0.8508
2210.15	0.8474
2218.56	0.845
2226.96	0.845
2235.37	0.8449
2243.78	0.842
2252.18	0.8394
2260.59	0.8362
2268.99	0.8339
2277.4	0.833
2285.81	0.8318
2294.21	0.8302
2302.62	0.8217
2311.02	0.815
2319.43	0.81
2327.84	0.8073
2336.24	0.8058
2344.65	0.803
2353.05	0.7992
2361.46	0.7941
2369.87	0.794
2378.27	0.797
2386.68	0.8022
2395.08	0.803
2403.49	0.803
2411.9	0.801
2420.3	0.8
2428.71	0.798
2437.11	0.7967
2445.52	0.7946
2453.93	0.7914
2462.33	0.7892
2470.74	0.7877
2479.14	0.785
2487.55	0.7837
2495.96	0.782
2504.36	0.7798
2512.77	0.7782
2521.17	0.774
2529.58	0.774
2537.99	0.773
2546.39	0.773
2554.8	0.771
2563.2	0.771
2571.61	0.7696
2580.02	0.7676
2588.42	0.7656
2596.83	0.7641
2605.23	0.7618
2613.64	0.7601
2622.05	0.758
2630.45	0.7551
2638.86	0.7486
2647.26	0.7435
2655.67	0.737
2664.08	0.734
2672.48	0.732
2680.89	0.731
2689.29	0.7283
2697.7	0.7261
2706.11	0.7216
2714.51	0.718
2722.92	0.7118
2731.32	0.7051
2739.73	0.6878
2748.14	0.6825
2756.54	0.6758
2764.95	0.669
2773.35	0.6675
2781.76	0.667
2790.17	0.6733
2798.57	0.677
2806.98	0.6777
2815.38	0.6745
2823.79	0.6671
2832.2	0.6599
2840.6	0.6462
2849.01	0.6294
2857.41	0.624
2865.82	0.621
2874.23	0.62
2882.63	0.618
2891.04	0.6147
2899.44	0.6079
2907.85	0.6041
2916.26	0.5957
2924.66	0.5776
2933.07	0.5657
2941.47	0.5571
2949.88	0.5523
2958.29	0.551
2966.69	0.552
2975.1	0.555
2983.5	0.555
2991.91	0.5463
3000.32	0.5307
3008.72	0.522
3017.13	0.5018
3025.53	0.4825
3033.94	0.4623
3042.35	0.4403
3050.75	0.4222
3059.16	0.4064
3067.56	0.3874
3075.97	0.377
3084.38	0.3708
3092.78	0.3618
3101.19	0.3452
3109.59	0.3291
3118	0.3106
3126.41	0.2807
3134.81	0.2345
3143.22	0.1893
3151.62	0.1579
3160.03	0.1143
3168.43	0.0879
3176.84	0.085
3185.25	0.0863
3193.65	0.0939
3202.06	0.1069
3210.46	0.1409
3218.87	0.1926
3227.28	0.2216
3235.68	0.2436
3244.09	0.2525
3252.49	0.2633
3260.9	0.2698
3269.31	0.2732
3277.71	0.274
3286.12	0.274
3294.52	0.274
3302.93	0.2691
3311.34	0.252
3319.74	0.2105
3328.15	0.1784
3336.55	0.16
3344.96	0.1266
3353.37	0.0986
3361.77	0.091
3370.18	0.1058
3378.58	0.1365
3386.99	0.1799
3395.4	0.2305
3403.8	0.2583
3412.21	0.3008
3420.61	0.4208
3429.02	0.4866
3437.43	0.5251
3445.83	0.5492
3454.24	0.5651
3462.64	0.5908
3471.05	0.6027
3479.46	0.6094
3487.86	0.6117
3496.27	0.614
3504.67	0.617
3513.08	0.619
3521.49	0.6207
3529.89	0.624
3538.3	0.626
3546.7	0.626
3555.11	0.627
3563.52	0.627
3571.92	0.627
3580.33	0.629
3588.73	0.629
3597.14	0.63
3605.55	0.63
3613.95	0.63
3622.36	0.63
3630.76	0.632
3639.17	0.638
3647.58	0.639
3655.98	0.639
3664.39	0.6409
3672.79	0.6387
3681.2	0.6369
3689.61	0.636
3698.01	0.636
3706.42	0.635
3714.82	0.633
3723.23	0.6322
3731.64	0.6299
3740.04	0.6267
3748.45	0.6223
3756.85	0.6183
3765.26	0.618
3773.67	0.6177
3782.07	0.615
3790.48	0.6142
3798.88	0.614
3807.29	0.612
3815.7	0.609
3824.1	0.6082
3832.51	0.6059
3840.91	0.6026
3849.32	0.5964
3857.73	0.594
3866.13	0.594
3874.54	0.5923
3882.94	0.591
3891.35	0.591
3899.76	0.5909
3908.16	0.59
3916.57	0.5874
3924.97	0.5841
3933.38	0.5837
3941.79	0.5786
3950.19	0.5754
3958.6	0.5721
3967	0.5699
3975.41	0.569
3983.82	0.569
