Infrared Spectrum: 9-Fluorenone hydrazone
Formula: C 13 H 10 N 2
CAS: 13629-22-6
State: gas
Origin: EPA-IR VAPOR PHASE LIBRARY
1/CM	ABSORBANCE
549.8	0.003787
559.445	0.002707
569.09	0.003207
578.734	0.004367
588.379	0.005247
598.024	0.006207
607.669	0.007147
617.313	0.008837
626.958	0.009877
636.603	0.011057
646.248	0.009957
655.893	0.008297
665.537	0.007417
675.182	0.006007
684.827	0.005577
694.472	0.004887
704.116	0.004697
713.761	0.007337
723.406	0.018367
733.051	0.021447
742.695	0.010447
752.34	0.005457
761.985	0.005037
771.63	0.007647
781.275	0.008557
790.919	0.004277
800.564	0.002807
810.209	0.002417
819.854	0.002397
829.498	0.002067
839.143	0.002197
848.788	0.002317
858.433	0.002367
868.078	0.002417
877.722	0.002217
887.367	0.001937
897.012	0.001997
906.657	0.001817
916.301	0.001877
925.946	0.002527
935.591	0.004127
945.236	0.003337
954.88	0.002267
964.525	0.002057
974.17	0.001687
983.815	0.001937
993.46	0.002517
1003.1	0.002937
1012.75	0.002907
1022.39	0.003227
1032.04	0.004187
1041.68	0.003817
1051.33	0.004297
1060.97	0.003937
1070.62	0.002027
1080.26	0.001757
1089.91	0.001417
1099.55	0.003057
1109.2	0.003317
1118.84	0.001947
1128.49	0.001197
1138.13	0.001116
1147.78	0.002587
1157.42	0.004237
1167.07	0.005617
1176.71	0.005747
1186.36	0.004507
1196	0.003367
1205.64	0.001697
1215.29	0.001457
1224.93	0.0009313
1234.58	0.0003854
1244.22	0.0004118
1253.87	0.0006568
1263.51	0.001042
1273.16	0.001617
1282.8	0.002257
1292.45	0.001607
1302.09	0.0011142
1311.74	0.0010332
1321.38	0.001987
1331.03	0.002947
1340.67	0.002187
1350.32	0.001367
1359.96	0.000726
1369.61	0.0006201
1379.25	0.0006134
1388.9	0.0005934
1398.54	0.0007655
1408.18	0.0010586
1417.83	0.001507
1427.47	0.002527
1437.12	0.005517
1446.76	0.010777
1456.41	0.007287
1466.05	0.001607
1475.7	0.001337
1485.34	0.001098
1494.99	0.0007955
1504.63	0.0007226
1514.28	0.0007439
1523.92	0.0007687
1533.57	0.0006035
1543.21	0.0008529
1552.86	0.0011223
1562.5	0.001657
1572.15	0.002837
1581.79	0.005117
1591.44	0.006487
1601.08	0.006147
1610.73	0.006007
1620.37	0.004527
1630.01	0.002637
1639.66	0.001997
1649.3	0.001637
1658.95	0.001397
1668.59	0.001237
1678.24	0.0011258
1687.88	0.0009222
1697.53	0.0008703
1707.17	0.0009379
1716.82	0.0009485
1726.46	0.0009742
1736.11	0.0009193
1745.75	0.0008195
1755.4	0.0007321
1765.04	0.0008081
1774.69	0.0008903
1784.33	0.0008778
1793.98	0.000995
1803.62	0.0009726
1813.27	0.0007853
1822.91	0.0006761
1832.55	0.0009034
1842.2	0.0007921
1851.84	0.0006942
1861.49	0.0007921
1871.13	0.0007358
1880.78	0.0008244
1890.42	0.0008813
1900.07	0.001072
1909.71	0.000965
1919.36	0.0007593
1929	0.0009467
1938.65	0.001507
1948.29	0.0010174
1957.94	0.0005858
1967.58	0.0003861
1977.23	0.0003811
1986.87	0.0004216
1996.52	0.000374
2006.16	0.0003325
2015.81	0.0003323
2025.45	0.0004284
2035.1	0.0004234
2044.74	0.0003933
2054.38	0.0003719
2064.03	0.0003027
2073.67	0.0003146
2083.32	0.000341
2092.96	0.000357
2102.61	0.000448
2112.25	0.0004789
2121.9	0.0004704
2131.54	0.0004014
2141.19	0.0004306
2150.83	0.0004756
2160.48	0.0004879
2170.12	0.0004836
2179.77	0.0004521
2189.41	0.0003725
2199.06	0.0005753
2208.7	0.00057
2218.35	0.000494
2227.99	0.0006051
2237.64	0.000566
2247.28	0.0005701
2256.92	0.0005703
2266.57	0.0004246
2276.21	0.0004417
2285.86	0.0003747
2295.5	0.0004287
2305.15	0.0004676
2314.79	0.0005697
2324.44	0.0004178
2334.08	0.0004369
2343.73	0.0004154
2353.37	0.0003374
2363.02	0.000319
2372.66	0.0004348
2382.31	0.000396
2391.95	0.0001691
2401.6	0.0003637
2411.24	0.0003862
2420.89	0.00027118
2430.53	0.0003368
2440.18	0.0003174
2449.82	0.0003239
2459.47	0.0003087
2469.11	0.0003324
2478.75	0.0004206
2488.4	0.0003575
2498.04	0.000316
2507.69	0.0003622
2517.33	0.00023102
2526.98	0.0004007
2536.62	0.000322
2546.27	0.0002219
2555.91	0.0003526
2565.56	0.00023644
2575.2	0.0004284
2584.85	0.0003153
2594.49	0.0003063
2604.14	0.00026764
2613.78	0.0003135
2623.43	0.0003371
2633.07	0.0004197
2642.72	0.0005057
2652.36	0.0003346
2662.01	0.0003485
2671.65	0.0004555
2681.29	0.0003553
2690.94	0.00025167
2700.58	0.00021123
2710.23	0.0003991
2719.87	0.0003378
2729.52	0.00019364
2739.16	0.0003573
2748.81	0.0003873
2758.45	0.0004193
2768.1	0.000406
2777.74	0.0001689
2787.39	0.0003327
2797.03	0.000365
2806.68	0.00025803
2816.32	0.0003132
2825.97	0.000174
2835.61	0.0001391
2845.26	0.00025664
2854.9	0.00026608
2864.55	0.0001528
2874.19	0.0004113
2883.84	0.0004615
2893.48	0.0003679
2903.12	0.0004793
2912.77	0.0005247
2922.41	0.000501
2932.06	0.0004098
2941.7	0.0004862
2951.35	0.0004162
2960.99	0.0004399
2970.64	0.0003024
2980.28	0.000364
2989.93	0.0003134
2999.57	0.0006051
3009.22	0.0010727
3018.86	0.001927
3028.51	0.003027
3038.15	0.003587
3047.8	0.004247
3057.44	0.006787
3067.09	0.010707
3076.73	0.009787
3086.38	0.006407
3096.02	0.003687
3105.67	0.001227
3115.31	0.0005936
3124.95	0.0004537
3134.6	0.0005372
3144.24	0.0005177
3153.89	0.0006359
3163.53	0.0005446
3173.18	0.0005923
3182.82	0.0004557
3192.47	0.0004538
3202.11	0.0004724
3211.76	0.0005129
3221.4	0.000423
3231.05	0.0004145
3240.69	0.0005524
3250.34	0.0003743
3259.98	0.0003794
3269.63	0.00021711
3279.27	0.0001804
3288.92	0.0004788
3298.56	0.0003159
3308.21	0.00029369
3317.85	0.00029159
3327.49	0.0002729
3337.14	0.0004103
3346.78	0.0001553
3356.43	0.00028072
3366.07	0.00027137
3375.72	0.0004401
3385.36	0.0003227
3395.01	9.5e-05
3404.65	0.0004471
3414.3	0.0004775
3423.94	0.000749
3433.59	0.0010155
3443.23	0.003227
3452.88	0.004357
3462.52	0.002277
3472.17	0.0010633
3481.81	0.0004863
3491.46	0.0004924
3501.1	0.0005022
3510.75	0.0006193
3520.39	0.0004019
3530.04	0.0003754
3539.68	0.0003081
3549.32	0.0001194
3558.97	0.000362
3568.61	0.0003003
3578.26	0.0004187
3587.9	0
3597.55	0.000376
3607.19	0.0003657
3616.84	0.0003302
3626.48	0.0004102
3636.13	0.0003568
3645.77	0.0004064
3655.42	0.000514
3665.06	0.0003288
3674.71	0.0005742
3684.35	0.0003564
3694	0.0003255
3703.64	0.00027082
3713.29	0.0001789
3722.93	0.0003582
3732.58	0.00024959
3742.22	0.0003854
3751.86	0.0001762
3761.51	0.0004708
3771.15	0.0004895
3780.8	0.0003552
3790.44	0.0006358
3800.09	0.0006732
3809.73	0.0004786
3819.38	0.0004178
3829.02	0.0005635
3838.67	0.00024121
3848.31	0.0004912
3857.96	0.00025836
3867.6	0.0004315
3877.25	0.0004429
3886.89	0.0004925
3896.54	0.0005482
3906.18	0.0004892
3915.83	0.0001845
3925.47	0.0005768
3935.12	0.0006725
3944.76	0.0003042
3954.41	0.0004021
3964.05	0.0004827
3973.69	0.0004296
3983.34	0.0004737
3992.98	0.0005645
