Infrared Spectrum: DICHLOROTHIOLACETIC ACID
Formula: C2 H2 Cl2 O S
CAS: 13639-16-2
Class: COBLENTZ
Instrument: Not specified, most likely a prism, grating, or hybrid spectrometer.
Sampling: TRANSMISSION
Path length: CAPILLARY FILM
Resolution: 4
MICROMETERS	TRANSMITTANCE
2.053	0.915
2.08625	0.919
2.1195	0.922
2.15275	0.925
2.186	0.926
2.21924	0.926
2.25249	0.925
2.28574	0.921
2.31899	0.914
2.35224	0.918
2.38549	0.931
2.41874	0.937
2.45199	0.937
2.48524	0.938
2.51848	0.942
2.55173	0.941
2.58498	0.943
2.61823	0.941
2.65148	0.941
2.68473	0.939
2.71798	0.937
2.75123	0.937
2.78448	0.925
2.81772	0.914
2.85097	0.887
2.88422	0.861
2.91747	0.853
2.95072	0.842
2.98397	0.874
3.01722	0.882
3.05047	0.893
3.08372	0.898
3.11696	0.905
3.15021	0.91
3.18346	0.913
3.21671	0.911
3.24996	0.906
3.28321	0.899
3.31646	0.855
3.34971	0.746
3.38295	0.728
3.4162	0.889
3.44945	0.93
3.4827	0.943
3.51595	0.943
3.5492	0.937
3.58245	0.934
3.6157	0.933
3.64895	0.933
3.68219	0.938
3.71544	0.937
3.74869	0.927
3.78194	0.921
3.81519	0.895
3.84844	0.692
3.88169	0.55
3.91494	0.7
3.94819	0.815
3.98143	0.891
4.01468	0.921
4.04793	0.93
4.08118	0.939
4.11443	0.943
4.14768	0.945
4.18093	0.955
4.21418	0.978
4.24743	0.977
4.28067	0.974
4.31392	0.971
4.34717	0.974
4.38042	0.967
4.41367	0.971
4.44692	0.971
4.48017	0.974
4.51342	0.973
4.54667	0.971
4.57991	0.971
4.61316	0.969
4.64641	0.974
4.67966	0.974
4.71291	0.975
4.74616	0.971
4.77941	0.977
4.81266	0.979
4.84591	0.978
4.87915	0.977
4.9124	0.974
4.94565	0.974
4.9789	0.975
5.01215	0.971
5.0454	0.973
5.07865	0.974
5.1119	0.973
5.14515	0.971
5.17839	0.969
5.21164	0.969
5.24489	0.967
5.27814	0.965
5.31139	0.963
5.34464	0.965
5.37789	0.965
5.41114	0.961
5.44439	0.951
5.47763	0.938
5.51088	0.913
5.54413	0.861
5.57738	0.751
5.61063	0.591
5.64388	0.479
5.67713	0.46
5.71038	0.44
5.74362	0.381
5.77687	0.283
5.81012	0.018
5.84337	0.005
5.87662	0.02
5.90987	0.109
5.94312	0.253
5.97637	0.393
6.00962	0.652
6.04286	0.777
6.07611	0.845
6.10936	0.89
6.14261	0.914
6.17586	0.926
6.20911	0.935
6.24236	0.939
6.27561	0.941
6.30886	0.938
6.3421	0.93
6.37535	0.943
6.4086	0.954
6.44185	0.962
6.4751	0.965
6.50835	0.966
6.5416	0.967
6.57485	0.967
6.6081	0.965
6.64134	0.966
6.67459	0.966
6.70784	0.967
6.74109	0.967
6.77434	0.967
6.80759	0.967
6.84084	0.967
6.87409	0.967
6.90734	0.967
6.94058	0.965
6.97383	0.959
7.00708	0.955
7.04033	0.954
7.07358	0.949
7.10683	0.942
7.14008	0.939
7.17333	0.935
7.20658	0.93
7.23982	0.925
7.27307	0.923
7.30632	0.925
7.33957	0.93
7.37282	0.939
7.40607	0.943
7.43932	0.946
7.47257	0.946
7.50582	0.946
7.53906	0.947
7.57231	0.946
7.60556	0.941
7.63881	0.934
7.67206	0.917
7.70531	0.895
7.73856	0.882
7.77181	0.875
7.80506	0.87
7.8383	0.866
7.87155	0.858
7.9048	0.853
7.93805	0.842
7.9713	0.838
8.00455	0.837
8.0378	0.829
8.07105	0.802
8.10429	0.754
8.13754	0.704
8.17079	0.663
8.20404	0.647
8.23729	0.628
8.27054	0.62
8.30379	0.65
8.33704	0.7
8.37029	0.782
8.40353	0.83
8.43678	0.85
8.47003	0.854
8.50328	0.854
8.53653	0.846
8.56978	0.842
8.60303	0.837
8.63628	0.834
8.66953	0.83
8.70277	0.827
8.73602	0.825
8.76927	0.819
8.80252	0.802
8.83577	0.767
8.86902	0.715
8.90227	0.591
8.93552	0.439
8.96877	0.329
9.00201	0.281
9.03526	0.249
9.06851	0.255
9.10176	0.32
9.13501	0.396
9.16826	0.487
9.20151	0.548
9.23476	0.591
9.26801	0.603
9.30125	0.592
9.3345	0.572
9.36775	0.539
9.401	0.48
9.43425	0.428
9.4675	0.397
9.50075	0.425
9.534	0.459
9.56725	0.48
9.60049	0.471
9.63374	0.473
9.66699	0.485
9.70024	0.514
9.73349	0.56
9.76674	0.623
9.79999	0.674
9.83324	0.712
9.86649	0.759
9.89973	0.781
9.93298	0.797
9.96623	0.805
9.99948	0.807
10.0327	0.802
10.066	0.797
10.0992	0.793
10.1325	0.791
10.1657	0.789
10.199	0.787
10.2322	0.785
10.2655	0.783
10.2987	0.786
10.332	0.791
10.3652	0.798
10.3985	0.806
10.4317	0.813
10.465	0.829
10.4982	0.841
10.5315	0.854
10.5647	0.869
10.598	0.878
10.6312	0.885
10.6645	0.887
10.6977	0.893
10.731	0.887
10.7642	0.885
10.7975	0.885
10.8307	0.874
10.864	0.861
10.8972	0.853
10.9304	0.831
10.9637	0.814
10.9969	0.786
11.0302	0.755
11.0634	0.719
11.0967	0.694
11.1299	0.658
11.1632	0.634
11.1964	0.638
11.2297	0.662
11.2629	0.69
11.2962	0.728
11.3294	0.751
11.3627	0.773
11.3959	0.787
11.4292	0.798
11.4624	0.807
11.4957	0.819
11.5289	0.838
11.5622	0.85
11.5954	0.862
11.6287	0.866
11.6619	0.871
11.6952	0.873
11.7284	0.869
11.7617	0.865
11.7949	0.858
11.8282	0.851
11.8614	0.837
11.8947	0.819
11.9279	0.801
11.9612	0.771
11.9944	0.727
12.0277	0.692
12.0609	0.63
12.0942	0.559
12.1274	0.489
12.1607	0.436
12.1939	0.388
12.2272	0.343
12.2604	0.319
12.2937	0.308
12.3269	0.301
12.3602	0.297
12.3934	0.295
12.4266	0.293
12.4599	0.295
12.4931	0.299
12.5264	0.303
12.5596	0.308
12.5929	0.315
12.6261	0.321
12.6594	0.328
12.6926	0.331
12.7259	0.335
12.7591	0.332
12.7924	0.324
12.8256	0.316
12.8589	0.303
12.8921	0.288
12.9254	0.273
12.9586	0.26
12.9919	0.246
13.0251	0.233
13.0584	0.222
13.0916	0.212
13.1249	0.202
13.1581	0.198
13.1914	0.194
13.2246	0.197
13.2579	0.202
13.2911	0.212
13.3244	0.224
13.3576	0.237
13.3909	0.253
13.4241	0.263
13.4574	0.281
13.4906	0.297
13.5239	0.311
13.5571	0.329
13.5904	0.345
13.6236	0.363
13.6569	0.367
13.6901	0.367
13.7234	0.365
13.7566	0.361
13.7899	0.361
13.8231	0.364
13.8564	0.373
13.8896	0.391
13.9228	0.417
13.9561	0.444
13.9893	0.468
14.0226	0.493
14.0558	0.515
14.0891	0.544
14.1223	0.567
14.1556	0.595
14.1888	0.618
14.2221	0.642
14.2553	0.66
14.2886	0.675
14.3218	0.687
14.3551	0.702
14.3883	0.708
14.4216	0.718
14.4548	0.724
14.4881	0.731
14.5213	0.736
14.5546	0.74
14.5878	0.743
14.6211	0.746
14.6543	0.747
14.6876	0.746
14.7208	0.744
14.7541	0.748
14.7873	0.747
14.8206	0.746
14.8538	0.747
14.8871	0.748
14.9203	0.747
14.9536	0.739
14.9868	0.731
15.0201	0.715
15.0533	0.714
15.0866	0.714
15.1198	0.71
15.1531	0.703
15.1863	0.698
15.2196	0.688
15.2528	0.675
15.2861	0.66
15.3193	0.66
