Infrared Spectrum: 3,4-DICHLOROPHENYL-4-CHLOROBENZENE SULFONATE
Formula: C12 H7 Cl3 O3 S
CAS: 13631-45-3
State: SOLID (MINERAL OIL MULL)
Class: COBLENTZ
Instrument: Not specified, most likely a prism, grating, or hybrid spectrometer.
Sampling: TRANSMISSION
Resolution: 4
Origin: DOW CHEMICAL COMPANY
MICROMETERS	TRANSMITTANCE
2.02	0.486
2.0592	0.486
2.09839	0.492
2.13759	0.502
2.17678	0.508
2.21598	0.513
2.25517	0.513
2.29437	0.513
2.33356	0.521
2.37276	0.53
2.41195	0.538
2.45115	0.551
2.49034	0.56
2.52954	0.57
2.56873	0.57
2.60793	0.575
2.64712	0.582
2.68632	0.585
2.72552	0.59
2.76471	0.591
2.80391	0.593
2.8431	0.596
2.8823	0.593
2.92149	0.59
2.96069	0.591
2.99988	0.603
3.03908	0.614
3.07827	0.621
3.11747	0.629
3.15666	0.624
3.19586	0.598
3.23505	0.517
3.27425	0.476
3.31344	0.489
3.35264	0.325
3.39184	0.073
3.43103	0.071
3.47023	0.12
3.50942	0.261
3.54862	0.7
3.58781	0.78
3.62701	0.785
3.6662	0.772
3.7054	0.767
3.74459	0.765
3.78379	0.778
3.82298	0.788
3.86218	0.788
3.90137	0.791
3.94057	0.809
3.97977	0.819
4.01896	0.827
4.05816	0.832
4.09735	0.835
4.13655	0.834
4.17574	0.822
4.21494	0.809
4.25413	0.811
4.29333	0.834
4.33252	0.852
4.37172	0.848
4.41091	0.861
4.45011	0.866
4.4893	0.871
4.5285	0.874
4.56769	0.878
4.60689	0.879
4.64609	0.881
4.68528	0.887
4.72448	0.889
4.76367	0.891
4.80287	0.892
4.84206	0.897
4.88126	0.902
4.92045	0.91
4.95965	0.913
4.99884	0.918
5.03804	0.928
5.07723	0.931
5.11643	0.933
5.15562	0.931
5.19482	0.887
5.23401	0.889
5.27321	0.915
5.31241	0.931
5.3516	0.933
5.3908	0.934
5.42999	0.931
5.46919	0.941
5.50838	0.946
5.54758	0.918
5.58677	0.897
5.62597	0.908
5.66516	0.93
5.70436	0.92
5.74355	0.93
5.78275	0.946
5.82194	0.944
5.86114	0.93
5.90033	0.947
5.93953	0.952
5.97873	0.93
6.01792	0.891
6.05712	0.915
6.09631	0.951
6.13551	0.949
6.1747	0.947
6.2139	0.915
6.25309	0.699
6.29229	0.461
6.33148	0.388
6.37068	0.601
6.40987	0.775
6.44907	0.822
6.48826	0.852
6.52746	0.868
6.56666	0.887
6.60585	0.892
6.64505	0.869
6.68424	0.8
6.72344	0.658
6.76263	0.372
6.80183	0.118
6.84102	0.152
6.88022	0.398
6.91941	0.624
6.95861	0.811
6.9978	0.874
7.037	0.884
7.07619	0.785
7.11539	0.474
7.15458	0.258
7.19378	0.078
7.23298	0.048
7.27217	0.196
7.31137	0.317
7.35056	0.492
7.38976	0.591
7.42895	0.642
7.46815	0.699
7.50734	0.721
7.54654	0.741
7.58573	0.762
7.62493	0.778
7.66412	0.77
7.70332	0.721
7.74251	0.637
7.78171	0.559
7.8209	0.699
7.8601	0.757
7.8993	0.773
7.93849	0.746
7.97769	0.533
8.01688	0.603
8.05608	0.743
8.09527	0.769
8.13447	0.778
8.17366	0.72
8.21286	0.546
8.25205	0.422
8.29125	0.287
8.33044	0.312
8.36964	0.245
8.40883	0.159
8.44803	0.118
8.48722	0.086
8.52642	0.128
8.56562	0.273
8.60481	0.386
8.64401	0.573
8.6832	0.678
8.7224	0.757
8.76159	0.788
8.80079	0.786
8.83998	0.759
8.87918	0.686
8.91837	0.484
8.95757	0.302
8.99676	0.437
9.03596	0.572
9.07515	0.551
9.11435	0.447
9.15355	0.188
9.19274	0.165
9.23194	0.372
9.27113	0.554
9.31033	0.619
9.34952	0.694
9.38872	0.741
9.42791	0.778
9.46711	0.801
9.5063	0.811
9.5455	0.809
9.58469	0.756
9.62389	0.642
9.66308	0.482
9.70228	0.476
9.74147	0.721
9.78067	0.788
9.81987	0.652
9.85906	0.632
9.89826	0.788
9.93745	0.817
9.97665	0.834
10.0158	0.845
10.055	0.852
10.0942	0.853
10.1334	0.858
10.1726	0.86
10.2118	0.861
10.251	0.856
10.2902	0.85
10.3294	0.847
10.3686	0.852
10.4078	0.829
10.447	0.786
10.4862	0.808
10.5254	0.84
10.5646	0.842
10.6038	0.837
10.643	0.814
10.6822	0.785
10.7214	0.746
10.7606	0.71
10.7997	0.658
10.8389	0.578
10.8781	0.468
10.9173	0.252
10.9565	0.107
10.9957	0.12
11.0349	0.247
11.0741	0.378
11.1133	0.481
11.1525	0.512
11.1917	0.508
11.2309	0.543
11.2701	0.565
11.3093	0.497
11.3485	0.271
11.3877	0.2
11.4269	0.57
11.4661	0.689
11.5053	0.752
11.5445	0.772
11.5837	0.788
11.6228	0.791
11.662	0.798
11.7012	0.796
11.7404	0.782
11.7796	0.76
11.8188	0.731
11.858	0.684
11.8972	0.564
11.9364	0.406
11.9756	0.196
12.0148	0.069
12.054	0.068
12.0932	0.313
12.1324	0.559
12.1716	0.648
12.2108	0.708
12.25	0.749
12.2892	0.767
12.3284	0.777
12.3676	0.77
12.4068	0.756
12.446	0.736
12.4851	0.702
12.5243	0.64
12.5635	0.538
12.6027	0.396
12.6419	0.172
12.6811	0.047
12.7203	0.027
12.7595	0.03
12.7987	0.071
12.8379	0.139
12.8771	0.213
12.9163	0.273
12.9555	0.341
12.9947	0.411
13.0339	0.473
13.0731	0.538
13.1123	0.57
13.1515	0.57
13.1907	0.512
13.2299	0.385
13.2691	0.186
13.3082	0.105
13.3474	0.182
13.3866	0.344
13.4258	0.489
13.465	0.573
13.5042	0.614
13.5434	0.643
13.5826	0.661
13.6218	0.676
13.661	0.684
13.7002	0.689
13.7394	0.692
13.7786	0.691
13.8178	0.686
13.857	0.691
13.8962	0.702
13.9354	0.717
13.9746	0.725
14.0138	0.725
14.053	0.705
14.0922	0.665
14.1313	0.621
14.1705	0.604
14.2097	0.617
14.2489	0.66
14.2881	0.704
14.3273	0.726
14.3665	0.731
14.4057	0.726
14.4449	0.71
14.4841	0.681
14.5233	0.617
14.5625	0.5
14.6017	0.377
14.6409	0.271
14.6801	0.282
14.7193	0.386
14.7585	0.499
14.7977	0.554
14.8369	0.57
14.8761	0.556
14.9153	0.505
14.9544	0.443
14.9936	0.377
15.0328	0.352
15.072	0.391
15.1112	0.453
15.1504	0.515
15.1896	0.549
15.2288	0.564
15.268	0.575
15.3072	0.578
15.3464	0.577
15.3856	0.575
15.4248	0.572
15.464	0.564
15.5032	0.556
15.5424	0.549
15.5816	0.541
15.6208	0.526
15.66	0.515
15.6992	0.502
15.7384	0.492
15.7776	0.482
15.8167	0.473
15.8559	0.468
15.8951	0.479
