Infrared Spectrum: 1,4-Diethyl-2-methylbenzene
Formula: C 11 H 16
CAS: 13632-94-5
State: gas
Instrument: HP-GC/MS/IRD
Origin: NIST Mass Spectrometry Data Center
1/CM	ABSORBANCE
550	0.000244
562	0.000188
574	0.00033
586	0.000496
598	0.000614
610	0.000426
622	0.0002
634	6.2e-05
646	6.4e-05
658	5.4e-05
670	9e-05
682	5.4e-05
694	7.2e-05
706	0.000182
718	0.000214
730	0.000192
742	0.000154
754	0.000212
766	0.00023
778	0.000318
790	0.000496
802	0.001016
814	0.00227
826	0.002968
838	0.001482
850	0.000562
862	0.000564
874	0.001282
886	0.0009
898	0.000574
910	0.00039
922	0.000164
934	0.00014
946	0.000246
958	0.000562
970	0.000592
982	0.000478
994	0.000446
1006	0.000362
1018	0.000394
1030	0.00057
1042	0.000774
1054	0.001056
1066	0.00109
1078	0.000438
1090	0.000246
1102	0.000242
1114	0.000304
1126	0.000412
1138	0.000292
1150	0.000298
1162	0.000302
1174	0.000214
1186	0.000192
1198	0.000226
1210	0.000318
1222	0.00024
1234	0.000206
1246	0.000284
1258	0.000324
1270	0.000284
1282	0.000322
1294	0.000456
1306	0.000694
1318	0.001308
1330	0.001336
1342	0.000688
1354	0.000522
1366	0.000724
1378	0.001152
1390	0.001132
1402	0.000994
1414	0.001282
1426	0.001492
1438	0.001846
1450	0.00265
1462	0.003036
1474	0.002484
1486	0.002224
1498	0.003666
1510	0.002926
1522	0.001068
1534	0.000694
1546	0.00057
1558	0.000518
1570	0.00051
1582	0.000482
1594	0.000528
1606	0.000864
1618	0.00089
1630	0.000444
1642	0.000282
1654	0.000226
1666	0.000168
1678	0.000114
1690	8e-05
1702	7.6e-05
1714	6.2e-05
1726	8.6e-05
1738	0.000184
1750	0.000296
1762	0.00025
1774	0.000128
1786	5.6e-05
1798	4.6e-05
1810	5e-05
1822	5.2e-05
1834	3.4e-05
1846	5.8e-05
1858	5.4e-05
1870	0.00019
1882	0.000316
1894	0.000224
1906	8.6e-05
1918	4.4e-05
1930	3.6e-05
1942	3e-05
1954	4e-06
1966	1.4e-05
1978	8e-06
1990	2.2e-05
2002	1e-05
2014	4.2e-05
2026	4.4e-05
2038	3.2e-05
2050	2.4e-05
2062	6e-06
2074	2.8e-05
2086	2e-05
2098	2.8e-05
2110	1.2e-05
2122	1.2e-05
2134	1.8e-05
2146	0
2158	1.4e-05
2170	3.2e-05
2182	2.6e-05
2194	2e-05
2206	2.4e-05
2218	2e-05
2230	3.2e-05
2242	3.2e-05
2254	4.2e-05
2266	6.6e-05
2278	5.6e-05
2290	8e-05
2302	5.8e-05
2314	5.8e-05
2326	8e-05
2338	7.8e-05
2350	8.2e-05
2362	7.4e-05
2374	6.4e-05
2386	6e-05
2398	6.2e-05
2410	7.8e-05
2422	0.000106
2434	0.000118
2446	9.8e-05
2458	8.8e-05
2470	7.6e-05
2482	9.4e-05
2494	0.0001
2506	9.6e-05
2518	0.00012
2530	9.4e-05
2542	0.000108
2554	0.0001
2566	7.4e-05
2578	0.000116
2590	0.00012
2602	0.000146
2614	0.000136
2626	0.000172
2638	0.000198
2650	0.000162
2662	0.000176
2674	0.000158
2686	0.000182
2698	0.00022
2710	0.000254
2722	0.000324
2734	0.000446
2746	0.00051
2758	0.000442
2770	0.000496
2782	0.000576
2794	0.000656
2806	0.000766
2818	0.00095
2830	0.001304
2842	0.00184
2854	0.002962
2866	0.005246
2878	0.007982
2890	0.008496
2902	0.007238
2914	0.007448
2926	0.009774
2938	0.013498
2950	0.01283
2962	0.014938
2974	0.019856
2986	0.010074
2998	0.006562
3010	0.006674
3022	0.005196
3034	0.003646
3046	0.003324
3058	0.002672
3070	0.001946
3082	0.00142
3094	0.00106
3106	0.000924
3118	0.000876
3130	0.000722
3142	0.000602
3154	0.000514
3166	0.000424
3178	0.000362
3190	0.000268
3202	0.000228
3214	0.000186
3226	0.000182
3238	0.000126
3250	0.000126
3262	0.00012
3274	0.000112
3286	8.4e-05
3298	0.000132
3310	8e-05
3322	8e-05
3334	7e-05
3346	0.00011
3358	6.2e-05
3370	8.4e-05
3382	7.4e-05
3394	7e-05
3406	5e-05
3418	5.8e-05
3430	8.4e-05
3442	6.4e-05
3454	6.6e-05
3466	5.8e-05
3478	6.8e-05
3490	5e-05
3502	7.2e-05
3514	5.2e-05
3526	5.8e-05
3538	6.8e-05
3550	3.2e-05
3562	5.8e-05
3574	6.6e-05
3586	1.6e-05
3598	5e-05
3610	5e-05
3622	7.2e-05
3634	4.6e-05
3646	2.2e-05
3658	8.2e-05
3670	5e-05
3682	8.4e-05
3694	9.6e-05
3706	8.8e-05
3718	6.2e-05
3730	0.000122
3742	0.000124
3754	8.8e-05
3766	8.8e-05
3778	0.00012
3790	6.6e-05
3802	0.000102
3814	2.6e-05
3826	4e-05
3838	8.4e-05
