Infrared Spectrum: THIODIPROPYLAMINE
Formula: C6 H16 N2 S
CAS: 13643-20-4
State: LIQUID
Class: COBLENTZ
Instrument: PERKIN-ELMER
Sampling: TRANSMISSION
Path length: 0.0025 CM
Resolution: 4
Origin: STANDARD OIL OF OHIO
1/CM	TRANSMITTANCE
638.513	0.621
646.945	0.6299
655.376	0.6499
663.808	0.6549
672.24	0.6501
680.672	0.6412
689.103	0.6284
697.535	0.5943
705.967	0.5477
714.398	0.4994
722.83	0.4519
731.262	0.3994
739.694	0.3371
748.125	0.3012
756.557	0.2616
764.989	0.2249
773.42	0.1884
781.852	0.1535
790.284	0.1106
798.715	0.0773
807.147	0.0525
815.579	0.042
824.011	0.0466
832.442	0.0544
840.874	0.0686
849.306	0.0674
857.737	0.057
866.169	0.0525
874.601	0.054
883.033	0.0685
891.464	0.0929
899.896	0.1337
908.328	0.1695
916.759	0.2167
925.191	0.2665
933.623	0.338
942.055	0.4238
950.486	0.48
958.918	0.5141
967.35	0.5623
975.781	0.6016
984.213	0.5945
992.645	0.5619
1001.08	0.5245
1009.51	0.5118
1017.94	0.5088
1026.37	0.4599
1034.8	0.413
1043.24	0.4358
1051.67	0.4516
1060.1	0.4234
1068.53	0.2784
1076.96	0.3306
1085.39	0.4552
1093.83	0.5446
1102.26	0.6122
1110.69	0.621
1119.12	0.62
1127.55	0.6495
1135.98	0.692
1144.42	0.698
1152.85	0.695
1161.28	0.695
1169.71	0.6999
1178.14	0.7017
1186.57	0.6839
1195.01	0.6356
1203.44	0.6113
1211.87	0.5982
1220.3	0.6202
1228.73	0.5419
1237.16	0.417
1245.6	0.4533
1254.03	0.5099
1262.46	0.5151
1270.89	0.4463
1279.32	0.4688
1287.75	0.498
1296.19	0.5497
1304.62	0.6373
1313.05	0.6534
1321.48	0.645
1329.91	0.6338
1338.34	0.589
1346.78	0.537
1355.21	0.5464
1363.64	0.5183
1372.07	0.4567
1380.5	0.4942
1388.94	0.6429
1397.37	0.6592
1405.8	0.4574
1414.23	0.4008
1422.66	0.3585
1431.09	0.286
1439.53	0.2783
1447.96	0.4323
1456.39	0.474
1464.82	0.5002
1473.25	0.6098
1481.68	0.7335
1490.12	0.7654
1498.55	0.771
1506.98	0.7659
1515.41	0.7551
1523.84	0.7335
1532.27	0.7082
1540.71	0.6641
1549.14	0.6184
1557.57	0.5557
1566	0.4661
1574.43	0.4045
1582.86	0.3386
1591.3	0.3117
1599.73	0.3001
1608.16	0.3202
1616.59	0.3781
1625.02	0.4372
1633.45	0.5049
1641.89	0.5888
1650.32	0.6715
1658.75	0.7138
1667.18	0.7576
1675.61	0.7967
1684.04	0.8289
1692.48	0.8467
1700.91	0.8627
1709.34	0.8759
1717.77	0.885
1726.2	0.891
1734.64	0.9018
1743.07	0.9079
1751.5	0.9118
1759.93	0.91
1768.36	0.912
1776.79	0.9129
1785.23	0.913
1793.66	0.9145
1802.09	0.917
1810.52	0.915
1818.95	0.915
1827.38	0.913
1835.82	0.912
1844.25	0.91
1852.68	0.908
1861.11	0.9072
1869.54	0.903
1877.97	0.902
1886.41	0.9005
1894.84	0.9
1903.27	0.898
1911.7	0.898
1920.13	0.896
1928.56	0.896
1937	0.895
1945.43	0.896
1953.86	0.9
1962.29	0.902
1970.72	0.907
1979.15	0.9113
1987.59	0.913
1996.02	0.9126
2004.45	0.918
2012.88	0.9193
2021.31	0.9213
2029.74	0.922
2038.18	0.923
2046.61	0.925
2055.04	0.927
2063.47	0.925
2071.9	0.9263
2080.34	0.9296
2088.77	0.93
2097.2	0.9313
2105.63	0.93
2114.06	0.932
2122.49	0.9327
2130.93	0.93
2139.36	0.93
2147.79	0.93
2156.22	0.9315
2164.65	0.934
2173.08	0.9315
2181.52	0.935
2189.95	0.935
2198.38	0.935
2206.81	0.935
2215.24	0.9344
2223.67	0.934
2232.11	0.935
2240.54	0.9383
2248.97	0.939
2257.4	0.942
2265.83	0.9427
2274.26	0.942
2282.7	0.942
2291.13	0.9451
2299.56	0.944
2307.99	0.9483
2316.42	0.947
2324.85	0.949
2333.29	0.949
2341.72	0.9477
2350.15	0.949
2358.58	0.951
2367.01	0.951
2375.44	0.944
2383.88	0.9407
2392.31	0.942
2400.74	0.942
2409.17	0.944
2417.6	0.94
2426.04	0.939
2434.47	0.9357
2442.9	0.9363
2451.33	0.9359
2459.76	0.934
2468.19	0.932
2476.63	0.9333
2485.06	0.9333
2493.49	0.939
2501.92	0.937
2510.35	0.937
2518.78	0.934
2527.22	0.932
2535.65	0.9307
2544.08	0.927
2552.51	0.923
2560.94	0.92
2569.37	0.9157
2577.81	0.912
2586.24	0.908
2594.67	0.902
2603.1	0.9007
2611.53	0.8954
2619.96	0.888
2628.4	0.8817
2636.83	0.8658
2645.26	0.8521
2653.69	0.8338
2662.12	0.8157
2670.55	0.798
2678.99	0.7887
2687.42	0.785
2695.85	0.782
2704.28	0.78
2712.71	0.7675
2721.14	0.7491
2729.58	0.7165
2738.01	0.6926
2746.44	0.6495
2754.87	0.6254
2763.3	0.6285
2771.74	0.6485
2780.17	0.6398
2788.6	0.6078
2797.03	0.5645
2805.46	0.4965
2813.89	0.4062
2822.33	0.2855
2830.76	0.1593
2839.19	0.0832
2847.62	0.042
2856.05	0.032
2864.48	0.0393
2872.92	0.0696
2881.35	0.1425
2889.78	0.1248
2898.21	0.0645
2906.64	0.0237
2915.07	0.013
2923.51	0.0104
2931.94	0.01
2940.37	0.0123
2948.8	0.0173
2957.23	0.06
2965.66	0.2331
2974.1	0.468
2982.53	0.6144
2990.96	0.6995
2999.39	0.7397
3007.82	0.7793
3016.25	0.798
3024.69	0.8183
3033.12	0.829
3041.55	0.8379
3049.98	0.8453
3058.41	0.849
3066.85	0.853
3075.28	0.853
3083.71	0.851
3092.14	0.847
3100.57	0.844
3109	0.8364
3117.44	0.8235
3125.87	0.8088
3134.3	0.7911
3142.73	0.764
3151.16	0.7323
3159.59	0.7008
3168.03	0.6538
3176.46	0.6128
3184.89	0.5821
3193.32	0.572
3201.75	0.57
3210.18	0.5694
3218.62	0.5627
3227.05	0.5557
3235.48	0.5342
3243.91	0.5017
3252.34	0.4632
3260.77	0.4199
3269.21	0.3779
3277.64	0.3419
3286.07	0.324
3294.5	0.327
3302.93	0.3561
3311.36	0.3963
3319.8	0.4478
3328.23	0.4701
3336.66	0.4471
3345.09	0.3797
3353.52	0.3056
3361.95	0.2618
3370.39	0.2635
3378.82	0.3372
3387.25	0.5063
3395.68	0.6395
3404.11	0.7538
3412.55	0.7968
3420.98	0.8292
3429.41	0.8472
3437.84	0.8622
3446.27	0.8773
3454.7	0.888
3463.14	0.8956
3471.57	0.9043
3480	0.9143
3488.43	0.922
3496.86	0.9263
3505.29	0.932
3513.73	0.937
3522.16	0.94
3530.59	0.937
3539.02	0.9433
3547.45	0.944
3555.88	0.949
3564.32	0.947
3572.75	0.947
3581.18	0.951
3589.61	0.949
3598.04	0.9477
3606.47	0.949
3614.91	0.949
3623.34	0.949
3631.77	0.9463
3640.2	0.947
3648.63	0.9503
3657.06	0.947
3665.5	0.947
3673.93	0.951
3682.36	0.9483
3690.79	0.949
3699.22	0.949
3707.65	0.9497
3716.09	0.951
3724.52	0.9497
3732.95	0.9533
3741.38	0.957
3749.81	0.9583
3758.25	0.962
3766.68	0.9583
3775.11	0.9616
3783.54	0.9633
3791.97	0.961
3800.4	0.9627
3808.84	0.9659
3817.27	0.962
3825.7	0.962
3834.13	0.962
3842.56	0.962
3850.99	0.961
3859.43	0.9616
3867.86	0.961
3876.29	0.9616
3884.72	0.959
3893.15	0.9616
3901.58	0.962
3910.02	0.961
3918.45	0.9596
3926.88	0.9597
3935.31	0.959
