Infrared Spectrum: 2,4-Octadiene
Formula: C 8 H 14
CAS: 13643-08-8
State: gas
Instrument: HP-GC/MS/IRD
Origin: NIST Mass Spectrometry Data Center
1/CM	ABSORBANCE
550	3.15e-05
562	5.25e-05
574	6.3e-06
586	0.0003192
598	0.0008043
610	0.0009555
622	0.000609
634	0.0002772
646	0.000252
658	0.0006363
670	0.00105
682	0.0020202
694	0.0033474
706	0.0038598
718	0.0028476
730	0.0018459
742	0.0012978
754	0.0011109
766	0.0012033
778	0.0012264
790	0.0009513
802	0.001029
814	0.0010983
826	0.0009408
838	0.0007539
850	0.0006888
862	0.0007224
874	0.0008526
886	0.001029
898	0.0011361
910	0.0018039
922	0.002835
934	0.0032634
946	0.0040383
958	0.0044982
970	0.0053046
982	0.0049959
994	0.003024
1006	0.0015036
1018	0.0010752
1030	0.0010374
1042	0.0010437
1054	0.0010143
1066	0.0010353
1078	0.00084
1090	0.0007371
1102	0.0006741
1114	0.0005397
1126	0.0004599
1138	0.0004788
1150	0.0004368
1162	0.0003423
1174	0.0002919
1186	0.0003276
1198	0.0003948
1210	0.0004221
1222	0.000483
1234	0.0005208
1246	0.0005775
1258	0.000798
1270	0.0009765
1282	0.0009324
1294	0.0009387
1306	0.0009219
1318	0.0010458
1330	0.0015246
1342	0.0017766
1354	0.0014595
1366	0.0018984
1378	0.0024969
1390	0.0023394
1402	0.0025809
1414	0.0027006
1426	0.0024024
1438	0.0027993
1450	0.0030765
1462	0.002877
1474	0.0022071
1486	0.0014427
1498	0.0010836
1510	0.0008694
1522	0.0007749
1534	0.0007518
1546	0.0006951
1558	0.0006006
1570	0.0004893
1582	0.000462
1594	0.0004725
1606	0.0005376
1618	0.0006321
1630	0.0009114
1642	0.0014847
1654	0.0015246
1666	0.0007749
1678	0.0004809
1690	0.000378
1702	0.0003423
1714	0.0003549
1726	0.0003507
1738	0.0003612
1750	0.0003528
1762	0.0003696
1774	0.0004305
1786	0.0005334
1798	0.0005565
1810	0.0004053
1822	0.0003024
1834	0.0002814
1846	0.0002919
1858	0.0002604
1870	0.0001701
1882	0.0001302
1894	0.0001386
1906	9.66e-05
1918	7.77e-05
1930	7.98e-05
1942	8.82e-05
1954	0.000105
1966	0.0001659
1978	0.0001638
1990	0.0001701
2002	0.0001113
2014	0.0001302
2026	0.0001134
2038	9.66e-05
2050	8.82e-05
2062	3.57e-05
2074	5.25e-05
2086	2.52e-05
2098	3.36e-05
2110	1.89e-05
2122	3.78e-05
2134	3.57e-05
2146	3.36e-05
2158	5.88e-05
2170	7.14e-05
2182	3.99e-05
2194	5.67e-05
2206	3.15e-05
2218	3.57e-05
2230	8.4e-06
2242	3.99e-05
2254	2.73e-05
2266	2.1e-05
2278	4.62e-05
2290	6.51e-05
2302	7.77e-05
2314	9.66e-05
2326	9.45e-05
2338	9.24e-05
2350	7.14e-05
2362	0.0001386
2374	0.0001092
2386	9.24e-05
2398	7.56e-05
2410	9.03e-05
2422	8.82e-05
2434	0.0001008
2446	7.56e-05
2458	9.87e-05
2470	8.82e-05
2482	6.72e-05
2494	0.0001113
2506	9.03e-05
2518	7.98e-05
2530	0.0001134
2542	0.0001323
2554	0.000105
2566	9.66e-05
2578	0.0001197
2590	0.0001281
2602	0.000105
2614	0.0001386
2626	0.0001659
2638	0.000189
2650	0.0002163
2662	0.0002373
2674	0.000252
2686	0.0002793
2698	0.0002814
2710	0.000294
2722	0.0004095
2734	0.0005355
2746	0.0005901
2758	0.0005502
2770	0.0006447
2782	0.0007665
2794	0.0009282
2806	0.0011991
2818	0.0015918
2830	0.002541
2842	0.0042546
2854	0.0062202
2866	0.0086142
2878	0.0112791
2890	0.0112938
2902	0.0114135
2914	0.0142989
2926	0.0188706
2938	0.021
2950	0.0178059
2962	0.0171612
2974	0.0175245
2986	0.0116739
2998	0.0086289
3010	0.0094605
3022	0.0122409
3034	0.0113799
3046	0.0068964
3058	0.0036435
3070	0.0022701
3082	0.0016107
3094	0.0011529
3106	0.0009093
3118	0.000714
3130	0.0006132
3142	0.0005355
3154	0.0004305
3166	0.0004116
3178	0.0003549
3190	0.0003339
3202	0.000294
3214	0.0002604
3226	0.0002226
3238	0.0001848
3250	0.000168
3262	0.0001596
3274	0.0001134
3286	0.0001113
3298	0.0001113
3310	9.24e-05
3322	9.03e-05
3334	0.0001302
3346	7.77e-05
3358	5.04e-05
3370	9.24e-05
3382	9.87e-05
3394	0.0001176
3406	6.93e-05
3418	5.67e-05
3430	7.14e-05
3442	3.99e-05
3454	7.35e-05
3466	6.51e-05
3478	7.35e-05
3490	3.36e-05
3502	2.94e-05
3514	5.04e-05
3526	3.36e-05
3538	4.83e-05
3550	6.09e-05
3562	7.77e-05
3574	4.2e-05
3586	2.73e-05
3598	2.31e-05
3610	4.2e-05
3622	7.56e-05
3634	7.14e-05
3646	9.03e-05
3658	7.98e-05
3670	7.98e-05
3682	7.77e-05
3694	0.0001092
3706	8.82e-05
3718	7.77e-05
3730	7.98e-05
3742	7.98e-05
3754	0.000105
3766	7.56e-05
3778	8.82e-05
3790	5.88e-05
3802	5.88e-05
3814	6.93e-05
3826	8.82e-05
3838	7.98e-05
