Infrared Spectrum: 4-AMINO-2-CHLORO-5(METHYLSULFAMYL)BENZENESULFONAMIDE
Formula: C7 H10 Cl N3 O4 S2
CAS: 13659-98-8
State: SOLID (NUJOL MULL)
Class: COBLENTZ
Instrument: PERKIN-ELMER
Sampling: TRANSMISSION
Resolution: 4
Origin: ABBOTT LABORATORIES - WASHBURN
MICROMETERS	TRANSMITTANCE
2.026	0.239
2.06034	0.243
2.09468	0.246
2.12902	0.25
2.16336	0.2551
2.1977	0.263
2.23204	0.265
2.26638	0.272
2.30072	0.274
2.33506	0.274
2.3694	0.275
2.40374	0.2837
2.43808	0.291
2.47242	0.298
2.50676	0.3059
2.5411	0.313
2.57544	0.3148
2.60978	0.3198
2.64412	0.3291
2.67846	0.339
2.7128	0.3559
2.74714	0.363
2.78148	0.3739
2.81582	0.3933
2.85016	0.4202
2.8845	0.4336
2.91884	0.3675
2.95318	0.3073
2.98752	0.1502
3.02186	0.1818
3.0562	0.1369
3.09054	0.1371
3.12488	0.1748
3.15922	0.2167
3.19356	0.2318
3.2279	0.2408
3.26224	0.241
3.29658	0.2409
3.33092	0.1822
3.36526	0.0464
3.3996	0.0221
3.43394	0.017
3.46828	0.017
3.50262	0.0223
3.53696	0.2425
3.5713	0.3808
3.60564	0.4177
3.63998	0.4289
3.67432	0.427
3.70866	0.434
3.743	0.436
3.77734	0.436
3.81168	0.436
3.84602	0.437
3.88036	0.4512
3.9147	0.4681
3.94904	0.479
3.98338	0.489
4.01772	0.498
4.05206	0.5049
4.0864	0.508
4.12074	0.5148
4.15508	0.518
4.18942	0.522
4.22376	0.52
4.2581	0.524
4.29244	0.525
4.32678	0.5308
4.36112	0.546
4.39546	0.551
4.4298	0.556
4.46414	0.5649
4.49848	0.568
4.53282	0.5738
4.56716	0.579
4.6015	0.582
4.63584	0.589
4.67018	0.5979
4.70452	0.6049
4.73886	0.6098
4.7732	0.6131
4.80753	0.618
4.84187	0.622
4.87621	0.631
4.91055	0.6359
4.94489	0.6407
4.97923	0.648
5.01357	0.6529
5.04791	0.6618
5.08225	0.6668
5.11659	0.672
5.15093	0.679
5.18527	0.6817
5.21961	0.6853
5.25395	0.691
5.28829	0.6953
5.32263	0.703
5.35697	0.708
5.39131	0.71
5.42565	0.703
5.45999	0.713
5.49433	0.7243
5.52867	0.731
5.56301	0.7373
5.59735	0.7431
5.63169	0.7482
5.66603	0.753
5.70037	0.758
5.73471	0.76
5.76905	0.762
5.80339	0.7646
5.83773	0.762
5.87207	0.7526
5.90641	0.7589
5.94075	0.7493
5.97509	0.7203
6.00943	0.6675
6.04377	0.6011
6.07811	0.4461
6.11245	0.277
6.14679	0.279
6.18113	0.4209
6.21547	0.4857
6.24981	0.2386
6.28415	0.2027
6.31849	0.347
6.35283	0.405
6.38717	0.4131
6.42151	0.4011
6.45585	0.3583
6.49019	0.2936
6.52453	0.3252
6.55887	0.4365
6.59321	0.4908
6.62755	0.5298
6.66189	0.5544
6.69623	0.5643
6.73057	0.5563
6.76491	0.4164
6.79925	0.2042
6.83359	0.0947
6.86793	0.0929
6.90227	0.1594
6.93661	0.2796
6.97095	0.4038
7.00529	0.4824
7.03963	0.5223
7.07397	0.4026
7.10831	0.3491
7.14265	0.4531
7.17699	0.4546
7.21133	0.4121
7.24567	0.3462
7.28001	0.268
7.31435	0.3992
7.34869	0.4407
7.38303	0.468
7.41737	0.4072
7.45171	0.3035
7.48605	0.1967
7.52039	0.1124
7.55473	0.1123
7.58907	0.1519
7.62341	0.1419
7.65775	0.1226
7.69209	0.2001
7.72643	0.2823
7.76077	0.3137
7.79511	0.282
7.82945	0.3309
7.86379	0.4
7.89813	0.4436
7.93247	0.4807
7.96681	0.5096
8.00115	0.4507
8.03549	0.3387
8.06983	0.4129
8.10417	0.465
8.13851	0.4963
8.17285	0.5112
8.20719	0.518
8.24153	0.52
8.27587	0.518
8.31021	0.5126
8.34455	0.5011
8.37889	0.4797
8.41323	0.45
8.44757	0.4158
8.48191	0.3456
8.51625	0.2479
8.55059	0.1659
8.58493	0.1268
8.61927	0.1267
8.65361	0.139
8.68795	0.1247
8.72229	0.0926
8.75663	0.1315
8.79097	0.1774
8.82531	0.2182
8.85965	0.2413
8.89399	0.246
8.92833	0.2329
8.96267	0.2229
8.99701	0.2244
9.03135	0.2785
9.06569	0.3356
9.10003	0.3762
9.13437	0.391
9.16871	0.398
9.20305	0.401
9.23739	0.4203
9.27173	0.431
9.30607	0.434
9.34041	0.4182
9.37475	0.3841
9.40909	0.372
9.44343	0.4054
9.47777	0.4455
9.51211	0.458
9.54645	0.3942
9.58079	0.3106
9.61513	0.3727
9.64947	0.458
9.68381	0.5114
9.71815	0.5494
9.75249	0.5766
9.78683	0.6059
9.82117	0.6272
9.85551	0.6399
9.88985	0.6513
9.92419	0.662
9.95853	0.6671
9.99287	0.6753
10.0272	0.6811
10.0615	0.6859
10.0959	0.686
10.1302	0.686
10.1646	0.686
10.1989	0.681
10.2332	0.6634
10.2676	0.6349
10.3019	0.5736
10.3363	0.4675
10.3706	0.3666
10.4049	0.3125
10.4393	0.292
10.4736	0.2898
10.508	0.2953
10.5423	0.31
10.5766	0.3544
10.611	0.3977
10.6453	0.4361
10.6797	0.4735
10.714	0.5065
10.7483	0.5339
10.7827	0.55
10.817	0.5231
10.8514	0.5057
10.8857	0.5665
10.92	0.5998
10.9544	0.605
10.9887	0.6009
11.0231	0.5741
11.0574	0.5094
11.0917	0.4682
11.1261	0.4521
11.1604	0.4448
11.1948	0.4504
11.2291	0.4715
11.2634	0.4929
11.2978	0.5157
11.3321	0.5403
11.3665	0.5586
11.4008	0.5723
11.4351	0.5863
11.4695	0.5982
11.5038	0.605
11.5382	0.608
11.5725	0.6117
11.6068	0.6083
11.6412	0.5923
11.6755	0.4904
11.7099	0.3085
11.7442	0.3365
11.7785	0.3992
11.8129	0.41
11.8472	0.413
11.8816	0.4267
11.9159	0.4603
11.9502	0.4891
11.9846	0.5138
12.0189	0.5452
12.0533	0.56
12.0876	0.5795
12.1219	0.5964
12.1563	0.6051
12.1906	0.612
12.225	0.62
12.2593	0.627
12.2936	0.632
12.328	0.636
12.3623	0.639
12.3967	0.641
12.431	0.641
12.4653	0.641
12.4997	0.643
12.534	0.641
12.5684	0.638
12.6027	0.6331
12.637	0.631
12.6714	0.629
12.7057	0.6224
12.7401	0.6126
12.7744	0.601
12.8087	0.5903
12.8431	0.5767
12.8774	0.5665
12.9118	0.5504
12.9461	0.5248
12.9804	0.5101
13.0148	0.4846
13.0491	0.4673
13.0835	0.4438
13.1178	0.4122
13.1521	0.3773
13.1865	0.3518
13.2208	0.312
13.2552	0.2774
13.2895	0.2482
13.3238	0.22
13.3582	0.2055
13.3925	0.2037
13.4269	0.2179
13.4612	0.2708
13.4955	0.3378
13.5299	0.3973
13.5642	0.4538
13.5986	0.5007
13.6329	0.5272
13.6672	0.5411
13.7016	0.546
13.7359	0.5396
13.7703	0.5258
13.8046	0.5036
13.8389	0.4802
13.8733	0.4576
13.9076	0.4355
13.942	0.414
13.9763	0.3728
14.0106	0.3106
14.045	0.3
14.0793	0.3069
14.1137	0.313
14.148	0.3057
14.1823	0.2995
14.2167	0.2868
14.251	0.2761
14.2854	0.2646
14.3197	0.253
14.354	0.2458
14.3884	0.239
14.4227	0.2342
14.4571	0.231
14.4914	0.2224
14.5257	0.217
14.5601	0.2084
14.5944	0.194
14.6288	0.1719
14.6631	0.1518
14.6974	0.1434
14.7318	0.139
14.7661	0.1461
14.8005	0.1662
14.8348	0.1837
14.8691	0.2067
14.9035	0.2354
14.9378	0.2536
14.9722	0.2662
15.0065	0.2917
15.0408	0.3121
15.0752	0.3181
15.1095	0.332
15.1439	0.337
15.1782	0.344
15.2125	0.355
15.2469	0.3595
15.2812	0.368
15.3156	0.372
15.3499	0.375
