Infrared Spectrum: 4-Cyano-4-phenylcyclohexanone
Formula: C 13 H 13 N O
CAS: 13658-18-9
State: gas
Origin: EPA-IR VAPOR PHASE LIBRARY
1/CM	ABSORBANCE
549.9	0.001727
559.547	0.001517
569.193	0.0012538
578.84	0.0010232
588.486	0.001128
598.133	0.0010526
607.779	0.0014712
617.426	0.001967
627.072	0.0012165
636.719	0.0007998
646.365	0.0009139
656.012	0.001667
665.658	0.003757
675.305	0.006857
684.951	0.012667
694.598	0.022137
704.245	0.015277
713.891	0.007927
723.538	0.005137
733.184	0.005577
742.831	0.012017
752.477	0.023367
762.124	0.015837
771.77	0.006737
781.417	0.003467
791.063	0.001697
800.71	0.0009592
810.356	0.0006072
820.003	0.00052252
829.649	0.00059582
839.296	0.0007824
848.943	0.000945
858.589	0.0007636
868.236	0.0010506
877.882	0.001527
887.529	0.001977
897.175	0.002537
906.822	0.002587
916.468	0.002287
926.115	0.002867
935.761	0.003207
945.408	0.003837
955.054	0.006077
964.701	0.004657
974.347	0.002887
983.994	0.003687
993.64	0.003047
1003.29	0.003317
1012.93	0.001787
1022.58	0.002127
1032.23	0.003657
1041.87	0.002927
1051.52	0.0014546
1061.17	0.002147
1070.81	0.002967
1080.46	0.003067
1090.11	0.002747
1099.75	0.003437
1109.4	0.005147
1119.05	0.008107
1128.69	0.008147
1138.34	0.004507
1147.99	0.003637
1157.63	0.005067
1167.28	0.008007
1176.92	0.011987
1186.57	0.011477
1196.22	0.006267
1205.86	0.003057
1215.51	0.002847
1225.16	0.004977
1234.8	0.006997
1244.45	0.005757
1254.1	0.002907
1263.74	0.001527
1273.39	0.001402
1283.04	0.0014863
1292.68	0.001737
1302.33	0.002547
1311.98	0.003667
1321.62	0.006407
1331.27	0.008977
1340.92	0.006197
1350.56	0.003087
1360.21	0.001897
1369.86	0.001527
1379.5	0.001647
1389.15	0.001667
1398.79	0.001907
1408.44	0.002977
1418.09	0.006787
1427.73	0.013107
1437.38	0.016347
1447.03	0.014957
1456.67	0.010507
1466.32	0.006097
1475.97	0.004517
1485.61	0.006827
1495.26	0.012897
1504.91	0.008667
1514.55	0.003377
1524.2	0.001587
1533.85	0.0011093
1543.49	0.0008946
1553.14	0.0007774
1562.79	0.0009042
1572.43	0.0013597
1582.08	0.002597
1591.73	0.004807
1601.37	0.005617
1611.02	0.003017
1620.67	0.001449
1630.31	0.0012856
1639.96	0.001637
1649.6	0.002367
1659.25	0.002747
1668.9	0.003287
1678.54	0.004467
1688.19	0.005867
1697.84	0.007177
1707.48	0.009057
1717.13	0.018357
1726.78	0.055067
1736.42	0.119227
1746.07	0.094247
1755.72	0.028737
1765.36	0.009467
1775.01	0.005807
1784.66	0.004867
1794.3	0.004447
1803.95	0.002627
1813.6	0.001527
1823.24	0.0011836
1832.89	0.0010501
1842.54	0.0010565
1852.18	0.0012406
1861.83	0.001627
1871.47	0.001817
1881.12	0.001707
1890.77	0.0011936
1900.41	0.0007878
1910.06	0.0006287
1919.71	0.0007191
1929.35	0.0009236
1939	0.0013078
1948.65	0.0014484
1958.29	0.0013619
1967.94	0.0010993
1977.59	0.0004483
1987.23	0.0004119
1996.88	0.000361
2006.53	0.000269
2016.17	0.000293
2025.82	0.000258
2035.47	0.000283
2045.11	0.000356
2054.76	0.000256
2064.41	0.00029
2074.05	0.000345
2083.7	0.0004144
2093.35	0.000303
2102.99	0.000234
2112.64	0.00021
2122.28	0.000173
2131.93	0.000183
2141.58	0.00017
2151.22	0.000153
2160.87	0.00025
2170.52	0.000278
2180.16	0.000253
2189.81	0.000226
2199.46	0.000306
2209.1	0.000306
2218.75	0.0004498
2228.4	0.000722
2238.04	0.0008468
2247.69	0.00055877
2257.34	0.000329
2266.98	0.000251
2276.63	0.000238
2286.28	0.000182
2295.92	0.000132
2305.57	0.000163
2315.22	0.000329
2324.86	0.0004594
2334.51	0.000321
2344.16	0.000275
2353.8	0.0004177
2363.45	0.000386
2373.09	0.000298
2382.74	0.000316
2392.39	0.000202
2402.03	0.000199
2411.68	0.000134
2421.33	0.000197
2430.97	0.00016
2440.62	0.00012
2450.27	0.000114
2459.91	8.3e-05
2469.56	0.000101
2479.21	0.000128
2488.85	0.000112
2498.5	8e-05
2508.15	9.4e-05
2517.79	6e-05
2527.44	8.8e-05
2537.09	0.0001
2546.73	0.00011
2556.38	6e-05
2566.03	0.000125
2575.67	6e-05
2585.32	0.000112
2594.96	0.00012
2604.61	0.000169
2614.26	0.000178
2623.9	0.000142
2633.55	0.00022
2643.2	0.000223
2652.84	0.000151
2662.49	0.000208
2672.14	0.000178
2681.78	0.000256
2691.43	0.000144
2701.08	0.000111
2710.72	0.000135
2720.37	3.2e-05
2730.02	8.5e-05
2739.66	5.4e-05
2749.31	0.000123
2758.96	0.00022
2768.6	0.000376
2778.25	0.000408
2787.9	0.000348
2797.54	0.0004232
2807.19	0.00051142
2816.84	0.00051564
2826.48	0.0008499
2836.13	0.0014618
2845.77	0.001737
2855.42	0.001827
2865.07	0.003607
2874.71	0.005587
2884.36	0.004637
2894.01	0.003707
2903.65	0.004367
2913.3	0.006957
2922.95	0.008887
2932.59	0.008877
2942.24	0.013377
2951.89	0.017817
2961.53	0.024887
2971.18	0.023597
2980.83	0.016307
2990.47	0.006047
3000.12	0.002497
3009.77	0.002087
3019.41	0.003117
3029.06	0.005477
3038.71	0.008477
3048.35	0.007577
3058	0.007477
3067.64	0.012687
3077.29	0.014047
3086.94	0.007837
3096.58	0.006637
3106.23	0.004807
3115.88	0.003087
3125.52	0.001497
3135.17	0.0005165
3144.82	0.000363
3154.46	0.00052672
3164.11	0.00057707
3173.76	0.00051677
3183.4	0.000417
3193.05	0.000179
3202.7	0.000346
3212.34	0.000291
3221.99	9.9e-05
3231.64	0.000175
3241.28	0.000282
3250.93	0.000268
3260.58	0.00014
3270.22	7.7e-05
3279.87	0.00018
3289.52	0.000329
3299.16	0.000179
3308.81	0.000204
3318.45	0.000297
3328.1	0.000143
3337.75	0.00032
3347.39	0.0004258
3357.04	0.000426
3366.69	0.000406
3376.33	0.0004645
3385.98	0.0006813
3395.63	0.0004728
3405.27	0.0006326
3414.92	0.000604
3424.57	0.00058596
3434.21	0.0008105
3443.86	0.001323
3453.51	0.002007
3463.15	0.002207
3472.8	0.0013578
3482.45	0.0009923
3492.09	0.0007234
3501.74	0.000496818
3511.39	0.0004119
3521.03	0.0004406
3530.68	0.000379
3540.33	0.0004614
3549.97	0.0004253
3559.62	0.000348
3569.26	0.0004018
3578.91	0.000357
3588.56	0.000399
3598.2	0.000299
3607.85	0.0004425
3617.5	0.000361
3627.14	0.0005614
3636.79	0.0004059
3646.44	0.0006254
3656.08	0.00052487
3665.73	0.00052666
3675.38	0.00053875
3685.02	0.0004173
3694.67	0.0004559
3704.32	0.000374
3713.96	0.00051095
3723.61	0.0004641
3733.26	0.00054128
3742.9	0.00055632
3752.55	0.00053419
3762.2	0.0004102
3771.84	0.0004012
3781.49	0.000346
3791.13	0.0004056
3800.78	0.000262
3810.43	0.0004078
3820.07	0.000349
3829.72	0.000373
3839.37	0.00049539
3849.01	0.000357
3858.66	0.00038
3868.31	0.000388
3877.95	0.0004724
3887.6	0.0004515
3897.25	0.000343
3906.89	0.0004816
3916.54	0.0004837
3926.19	0.0004866
3935.83	0.0004399
3945.48	0.0004602
3955.13	0.000504727
3964.77	0.000372
3974.42	0.000396
3984.07	0.000385
3993.71	0.000357
