Infrared Spectrum: 2,3,6-Trifluorobenzonitrile
Formula: C 7 H 2 F 3 N
CAS: 136514-17-5
State: gas
Origin: EPA-IR VAPOR PHASE LIBRARY
1/CM	ABSORBANCE
549.8	0.00095506
559.445	0.00100707
569.09	0.0010382
578.735	0.000613
588.38	0.0008539
598.025	0.0010803
607.67	0.001212
617.315	0.0014068
626.96	0.00100735
636.605	0.0008634
646.251	0.001346
655.896	0.0012526
665.541	0.0008614
675.186	0.0008338
684.831	0.0008667
694.476	0.000679
704.121	0.0008716
713.766	0.00092851
723.411	0.0008663
733.056	0.0011704
742.701	0.0018271
752.346	0.001746
761.991	0.0008995
771.636	0.000816
781.281	0.000817
790.926	0.0010224
800.571	0.0016572
810.216	0.002717
819.861	0.002587
829.507	0.0015345
839.152	0.00100802
848.797	0.00096082
858.442	0.000816
868.087	0.0008649
877.732	0.000916809
887.377	0.00094486
897.022	0.00101184
906.667	0.00097785
916.312	0.0010673
925.957	0.0015087
935.602	0.002567
945.247	0.003317
954.892	0.002797
964.537	0.002007
974.182	0.002257
983.827	0.0018635
993.472	0.0011909
1003.12	0.0010645
1012.76	0.001395
1022.41	0.0018929
1032.05	0.002537
1041.7	0.002417
1051.34	0.0016483
1060.99	0.0010535
1070.63	0.000768
1080.28	0.00075
1089.92	0.00073
1099.57	0.000702
1109.21	0.000708
1118.86	0.000723
1128.5	0.000719
1138.15	0.000756
1147.79	0.00073
1157.44	0.0008534
1167.08	0.0008394
1176.73	0.000806
1186.37	0.000804
1196.02	0.00094653
1205.66	0.0010403
1215.31	0.0018193
1224.95	0.002617
1234.6	0.002547
1244.24	0.0015962
1253.89	0.002387
1263.53	0.005267
1273.18	0.005477
1282.82	0.002187
1292.47	0.0011435
1302.11	0.00099913
1311.76	0.0011734
1321.4	0.0012113
1331.05	0.0011438
1340.69	0.0010505
1350.34	0.00101607
1359.98	0.00094411
1369.63	0.0008296
1379.27	0.0008273
1388.92	0.0008532
1398.56	0.0008326
1408.21	0.0008472
1417.85	0.0008462
1427.5	0.000926071
1437.14	0.000925888
1446.79	0.0011083
1456.43	0.0014986
1466.08	0.0018633
1475.73	0.002287
1485.37	0.004687
1495.02	0.013267
1504.66	0.016987
1514.31	0.009897
1523.95	0.002297
1533.6	0.001185
1543.24	0.0010727
1552.89	0.00098448
1562.53	0.00091727
1572.18	0.000924697
1581.82	0.00095708
1591.47	0.0011922
1601.11	0.0014326
1610.76	0.0015879
1620.4	0.0016451
1630.05	0.0015065
1639.69	0.0012961
1649.34	0.00099774
1658.98	0.0008475
1668.63	0.000774
1678.27	0.000765
1687.92	0.000807
1697.56	0.00069
1707.21	0.000783
1716.85	0.000747
1726.5	0.000815
1736.14	0.0008712
1745.79	0.0008334
1755.43	0.000816
1765.08	0.000793
1774.72	0.000805
1784.37	0.000833
1794.01	0.000791
1803.66	0.000775
1813.3	0.000752
1822.95	0.00079
1832.59	0.0008
1842.24	0.000797
1851.88	0.0009037
1861.53	0.00095494
1871.17	0.0008504
1880.82	0.000775
1890.46	0.000772
1900.11	0.000761
1909.75	0.000798
1919.4	0.000774
1929.04	0.000774
1938.69	0.000761
1948.33	0.00074
1957.98	0.000788
1967.62	0.000812
1977.27	0.00076
1986.91	0.000734
1996.56	0.000762
2006.2	0.000763
2015.85	0.000731
2025.49	0.000718
2035.14	0.000759
2044.78	0.000776
2054.43	0.000771
2064.07	0.000757
2073.72	0.000774
2083.36	0.000753
2093.01	0.000756
2102.65	0.000752
2112.3	0.000734
2121.94	0.00078
2131.59	0.000732
2141.23	0.000753
2150.88	0.000803
2160.52	0.00073
2170.17	0.000718
2179.81	0.000743
2189.46	0.000708
2199.1	0.000796
2208.75	0.000796
2218.39	0.000792
2228.04	0.00073
2237.68	0.0008378
2247.33	0.000749
2256.97	0.0008471
2266.62	0.000816
2276.26	0.0008302
2285.91	0.000774
2295.55	0.000811
2305.2	0.000813
2314.84	0.000778
2324.49	0.000779
2334.13	0.00076
2343.78	0.000718
2353.42	0.00075
2363.07	0.000695
2372.72	0.0008257
2382.36	0.000775
2392.01	0.00079
2401.65	0.000744
2411.3	0.000782
2420.94	0.000777
2430.59	0.000753
2440.23	0.00075
2449.88	0.000772
2459.52	0.0008322
2469.17	0.000789
2478.81	0.000782
2488.46	0.000802
2498.1	0.000813
2507.75	0.000777
2517.39	0.000776
2527.04	0.000709
2536.68	0.0008658
2546.33	0.000827
2555.97	0.00075
2565.62	0.00076
2575.26	0.0008421
2584.91	0.000735
2594.55	0.000792
2604.2	0.000691
2613.84	0.000755
2623.49	0.000726
2633.13	0.000668
2642.78	0.000719
2652.42	0.00075
2662.07	0.000701
2671.71	0.000733
2681.36	0.000739
2691	0.000706
2700.65	0.00071
2710.29	0.000737
2719.94	0.000714
2729.58	0.000755
2739.23	0.000785
2748.87	0.000792
2758.52	0.000763
2768.16	0.0008185
2777.81	0.0008
2787.45	0.0007
2797.1	0.000757
2806.74	0.000716
2816.39	0.000764
2826.03	0.000732
2835.68	0.000715
2845.32	0.000685
2854.97	0.000757
2864.61	0.000764
2874.26	0.000699
2883.9	0.000704
2893.55	0.000749
2903.19	0.000751
2912.84	0.000721
2922.48	0.000694
2932.13	0.000664
2941.77	0.000633
2951.42	0.000643
2961.06	0.000608
2970.71	0.000576
2980.35	0.000588
2990	0.000674
2999.64	0.000563
3009.29	0.00062
3018.93	0.000572
3028.58	0.000728
3038.22	0.000626
3047.87	0.000615
3057.51	0.000606
3067.16	0.000522
3076.8	0.00065
3086.45	0.000613
3096.09	0.000504
3105.74	0.000508
3115.38	0.000528
3125.03	0.000508
3134.67	0.000464
3144.32	0.000525
3153.96	0.000521
3163.61	0.000518
3173.25	0.000583
3182.9	0.000377
3192.54	0.000541
3202.19	0.000467
3211.83	0.000307
3221.48	0.000446
3231.12	0.000427
3240.77	0.000576
3250.41	0.000399
3260.06	0.000476
3269.7	0.000451
3279.35	0.000477
3289	0.000437
3298.64	0.000348
3308.29	0.000371
3317.93	0.000398
3327.58	0.000421
3337.22	0.000521
3346.87	0.000424
3356.51	0.000455
3366.16	0.000422
3375.8	0.000341
3385.45	0.000435
3395.09	0.000392
3404.74	0.000379
3414.38	0.000375
3424.03	0.000338
3433.67	0.000435
3443.32	0.000261
3452.96	0.000339
3462.61	0.000395
3472.25	0.000501
3481.9	0.000417
3491.54	0.000316
3501.19	0.000399
3510.83	0.000356
3520.48	0.000333
3530.12	0.000287
3539.77	0.000281
3549.41	0.000269
3559.06	0.00037
3568.7	0.000171
3578.35	0.000192
3587.99	0.00036
3597.64	0.000207
3607.28	0.00037
3616.93	0.000395
3626.57	0.000196
3636.22	0.000241
3645.86	0.000263
3655.51	0.000294
3665.15	0.000254
3674.8	0.000165
3684.44	0.000323
3694.09	0.000362
3703.73	0.00034
3713.38	0.000118
3723.02	0.000279
3732.67	0.000119
3742.31	8.9e-05
3751.96	0.000124
3761.6	0.000235
3771.25	0.000291
3780.89	0.000221
3790.54	0.000143
3800.18	0.000209
3809.83	0.000216
3819.47	0.00018
3829.12	0.0002
3838.76	0.000195
3848.41	0.000197
3858.05	0.000233
3867.7	0.000286
3877.34	0.000266
3886.99	0.000148
3896.63	0.000247
3906.28	0.000367
3915.92	0.000227
3925.57	0.000132
3935.21	0.000443
3944.86	0.000293
3954.5	0.000231
3964.15	0.000277
3973.79	0
3983.44	0.000188
3993.08	0.000286
