Infrared Spectrum: 2-Cyclopentene-1-acetic acid
Formula: C 7 H 10 O 2
CAS: 13668-61-6
State: gas
Instrument: HP-GC/MS/IRD
Origin: NIST Mass Spectrometry Data Center
1/CM	ABSORBANCE
550	0.0032165
562	0.003031
574	0.0035735
586	0.005369
598	0.00861
610	0.010486
622	0.009121
634	0.00693
646	0.0051205
658	0.003955
670	0.0035875
682	0.0038535
694	0.004396
706	0.0051345
718	0.0056455
730	0.00427
742	0.002156
754	0.000847
766	0.0004305
778	0.0001785
790	9.8e-05
802	8.05e-05
814	8.75e-05
826	0.0002275
838	0.000357
850	0.000672
862	0.000777
874	0.0007735
886	0.000707
898	0.000791
910	0.0011165
922	0.0010605
934	0.0008225
946	0.0005985
958	0.0005985
970	0.0008855
982	0.000903
994	0.001029
1006	0.0012775
1018	0.0017325
1030	0.002198
1042	0.002989
1054	0.0038745
1066	0.004816
1078	0.0067235
1090	0.010094
1102	0.018046
1114	0.0268765
1126	0.0224805
1138	0.0133245
1150	0.009765
1162	0.008526
1174	0.006664
1186	0.0047915
1198	0.0042175
1210	0.0042875
1222	0.003941
1234	0.003325
1246	0.003164
1258	0.003318
1270	0.0031745
1282	0.00301
1294	0.002765
1306	0.002436
1318	0.0023415
1330	0.002646
1342	0.0035805
1354	0.0048965
1366	0.0057575
1378	0.00553
1390	0.003591
1402	0.0019705
1414	0.0018235
1426	0.0020055
1438	0.001827
1450	0.0014315
1462	0.0011375
1474	0.0007175
1486	0.0003605
1498	0.000217
1510	0.0001085
1522	7.7e-05
1534	2.8e-05
1546	1.4e-05
1558	3.5e-06
1570	3.85e-05
1582	6.3e-05
1594	0.0001645
1606	0.0003045
1618	0.0004025
1630	0.000399
1642	0.000497
1654	0.0006405
1666	0.0006335
1678	0.000595
1690	0.0008015
1702	0.001281
1714	0.002226
1726	0.0040565
1738	0.0074375
1750	0.013356
1762	0.0237545
1774	0.034356
1786	0.030163
1798	0.0160825
1810	0.0070105
1822	0.002912
1834	0.0013825
1846	0.000812
1858	0.0005355
1870	0.000392
1882	0.000294
1894	0.0002345
1906	0.0002205
1918	0.00021
1930	0.0002135
1942	0.0002065
1954	0.000224
1966	0.000224
1978	0.000231
1990	0.00021
2002	0.000168
2014	0.0001505
2026	0.0001015
2038	0.0001085
2050	0.0001015
2062	5.6e-05
2074	8.4e-05
2086	7.7e-05
2098	7.7e-05
2110	0.0001015
2122	0.0001015
2134	0.0001295
2146	0.000112
2158	0.000133
2170	0.0001505
2182	0.0001925
2194	0.0001995
2206	0.0001855
2218	0.0002275
2230	0.0002135
2242	0.000203
2254	0.0001505
2266	0.0001575
2278	0.00014
2290	0.0001295
2302	0.0001435
2314	0.000154
2326	0.000168
2338	0.0001575
2350	0.000112
2362	0.0001435
2374	0.0001505
2386	0.000112
2398	0.0001085
2410	0.0001015
2422	9.45e-05
2434	9.45e-05
2446	0.0001015
2458	9.1e-05
2470	8.75e-05
2482	7.35e-05
2494	8.4e-05
2506	7.7e-05
2518	0.0001015
2530	6.65e-05
2542	5.95e-05
2554	8.05e-05
2566	8.75e-05
2578	8.75e-05
2590	9.8e-05
2602	7.7e-05
2614	7.7e-05
2626	0.0001085
2638	0.0001015
2650	0.0001155
2662	0.000133
2674	0.0001155
2686	0.0001085
2698	9.8e-05
2710	0.0001155
2722	0.0001155
2734	0.0001575
2746	0.0001645
2758	0.0001925
2770	0.0002065
2782	0.0002485
2794	0.0003605
2806	0.0005075
2818	0.0007315
2830	0.0010675
2842	0.001834
2854	0.004165
2866	0.005733
2878	0.0050365
2890	0.004613
2902	0.0052675
2914	0.006405
2926	0.0077
2938	0.009345
2950	0.01036
2962	0.009709
2974	0.0066815
2986	0.003577
2998	0.0018305
3010	0.001148
3022	0.0009205
3034	0.00112
3046	0.002205
3058	0.004305
3070	0.004158
3082	0.0017395
3094	0.0005425
3106	0.0002765
3118	0.000196
3130	0.000175
3142	0.0001225
3154	0.0001225
3166	8.4e-05
3178	0.0001365
3190	0.0001365
3202	0.0001715
3214	0.000217
3226	0.0001645
3238	0.000112
3250	0.0001015
3262	8.4e-05
3274	8.75e-05
3286	0.000112
3298	5.95e-05
3310	7.7e-05
3322	0.0001155
3334	7.7e-05
3346	0.000105
3358	7.7e-05
3370	0.000133
3382	0.000105
3394	0.000119
3406	8.4e-05
3418	9.45e-05
3430	0.000154
3442	0.0001365
3454	0.000154
3466	0.0001925
3478	0.000203
3490	0.000308
3502	0.000406
3514	0.000518
3526	0.00063
3538	0.0008785
3550	0.0016625
3562	0.0070245
3574	0.0128065
3586	0.006454
3598	0.0012635
3610	0.000574
3622	0.000427
3634	0.0004095
3646	0.000301
3658	0.0002625
3670	0.000217
3682	0.00021
3694	0.000196
3706	0.0001715
3718	0.000175
3730	0.000175
3742	0.0001995
3754	0.0001435
3766	0.000168
3778	0.00021
3790	0.000217
3802	0.0002205
3814	0.000266
3826	0.0002415
3838	0.000315
