Infrared Spectrum: 1-(p-Chlorophenylthio)-2-propanol
Formula: C 9 H 11 Cl O S
CAS: 13663-04-2
State: gas
Origin: EPA-IR VAPOR PHASE LIBRARY
1/CM	ABSORBANCE
549.8	0.0045854
559.445	0.0021654
569.09	0.0013554
578.734	0.000715
588.379	0.0009286
598.024	0.0008317
607.669	0.0011654
617.313	0.0006349
626.958	0.0006825
636.603	0.0009457
646.248	0.0007835
655.893	0.0009513
665.537	0.0009886
675.182	0.0011054
684.827	0.0010954
694.472	0.0010554
704.116	0.0012454
713.761	0.0013554
723.406	0.0024654
733.051	0.0041554
742.695	0.0064054
752.34	0.0047554
761.985	0.0028254
771.63	0.0032254
781.275	0.0039454
790.919	0.0050454
800.564	0.0096654
810.209	0.0166454
819.854	0.0204954
829.498	0.0134754
839.143	0.0059954
848.788	0.0032754
858.433	0.0025054
868.078	0.0026954
877.722	0.0028954
887.367	0.0020554
897.012	0.0016854
906.657	0.0019154
916.301	0.0031054
925.946	0.0057254
935.591	0.0078754
945.236	0.0054154
954.88	0.0031054
964.525	0.0020254
974.17	0.0018754
983.815	0.0020454
993.46	0.0026354
1003.1	0.0082854
1012.75	0.0296954
1022.39	0.0149154
1032.04	0.0149354
1041.68	0.0155454
1051.33	0.0142954
1060.97	0.0142954
1070.62	0.0159154
1080.26	0.0194454
1089.91	0.0426154
1099.55	0.0596754
1109.2	0.0257954
1118.84	0.0148054
1128.49	0.0114054
1138.13	0.0076954
1147.78	0.0049554
1157.42	0.0042954
1167.07	0.0042354
1176.71	0.0052054
1186.36	0.0059554
1196	0.0059454
1205.64	0.0058054
1215.29	0.0070154
1224.93	0.0083854
1234.58	0.0117054
1244.22	0.0115954
1253.87	0.0111854
1263.51	0.0118454
1273.16	0.0092854
1282.8	0.0065854
1292.45	0.0051854
1302.09	0.0042154
1311.74	0.0040354
1321.38	0.0045054
1331.03	0.0056054
1340.67	0.0064754
1350.32	0.0070554
1359.96	0.0076954
1369.61	0.0092854
1379.25	0.0135254
1388.9	0.0144954
1398.54	0.0109454
1408.18	0.0084054
1417.83	0.0081254
1427.47	0.0087954
1437.12	0.0081454
1446.76	0.0077554
1456.41	0.0090554
1466.05	0.0182354
1475.7	0.0512254
1485.34	0.0240854
1494.99	0.0042754
1504.63	0.0023254
1514.28	0.0017654
1523.92	0.0013754
1533.57	0.0011054
1543.21	0.0013054
1552.86	0.0017354
1562.5	0.0024954
1572.15	0.0036254
1581.79	0.0029154
1591.44	0.0017854
1601.08	0.0015654
1610.73	0.0015154
1620.37	0.0017854
1630.01	0.0020554
1639.66	0.0019454
1649.3	0.0013954
1658.95	0.000971
1668.59	0.0006356
1678.24	0.0005932
1687.88	0.0004599
1697.53	0.0005054
1707.17	0.0004478
1716.82	0.0003942
1726.46	0.00043
1736.11	0.0005115
1745.75	0.0006762
1755.4	0.0007244
1765.04	0.0010249
1774.69	0.0007568
1784.33	0.0003525
1793.98	0.0002865
1803.62	0.0002982
1813.27	0.0003003
1822.91	0.0003015
1832.55	0.0004058
1842.2	0.0006746
1851.84	0.0005828
1861.49	0.0007512
1871.13	0.0009951
1880.78	0.0013554
1890.42	0.0015054
1900.07	0.0013454
1909.71	0.0007425
1919.36	0.0004509
1929	0.0003196
1938.65	0.000357
1948.29	0.0003248
1957.94	0.0003305
1967.58	0.0002841
1977.23	0.0002861
1986.87	0.0002811
1996.52	0.0002625
2006.16	0.0002125
2015.81	0.00011706
2025.45	0.0001915
2035.1	0.0002018
2044.74	0.00011445
2054.38	0.0001755
2064.03	0.0001916
2073.67	0.0002339
2083.32	0.0001677
2092.96	0.0002261
2102.61	0.0002592
2112.25	0.0002597
2121.9	0.0002377
2131.54	0.0002633
2141.19	0.0001484
2150.83	0.0003057
2160.48	0.0002701
2170.12	0.0002532
2179.77	0.0003205
2189.41	0.0002673
2199.06	0.0002594
2208.7	0.000225
2218.35	0.0003143
2227.99	0.000242
2237.64	0.0002817
2247.28	0.0003291
2256.92	0.0003357
2266.57	0.0003382
2276.21	0.0004347
2285.86	0.0004802
2295.5	0.0003501
2305.15	0.0003447
2314.79	0.0003327
2324.44	0.0002546
2334.08	0.0002343
2343.73	0.0003408
2353.37	0.0002655
2363.02	0.0002882
2372.66	0.0001934
2382.31	0.0003351
2391.95	0.0004018
2401.6	0.000406
2411.24	0.0003616
2420.89	0.0002744
2430.53	0.0003695
2440.18	0.0002325
2449.82	0.0002758
2459.47	0.0003586
2469.11	0.0002756
2478.75	0.0003089
2488.4	0.0003466
2498.04	0.0003264
2507.69	0.0003388
2517.33	0.0003325
2526.98	0.0004149
2536.62	0.0003643
2546.27	0.0004678
2555.91	0.0003623
2565.56	0.0004939
2575.2	0.0003872
2584.85	0.000458
2594.49	0.0003938
2604.14	0.0004781
2613.78	0.0003943
2623.43	0.0004912
2633.07	0.0005776
2642.72	0.0007264
2652.36	0.0007006
2662.01	0.0007858
2671.65	0.0007962
2681.29	0.0006327
2690.94	0.0006231
2700.58	0.0004987
2710.23	0.0004817
2719.87	0.000461
2729.52	0.0004577
2739.16	0.0005905
2748.81	0.0006074
2758.45	0.0005318
2768.1	0.0007508
2777.74	0.0008238
2787.39	0.0009087
2797.03	0.0010654
2806.68	0.0012154
2816.32	0.0013954
2825.97	0.0016254
2835.61	0.0016354
2845.26	0.0018154
2854.9	0.0023654
2864.55	0.0035354
2874.19	0.0058654
2883.84	0.0080254
2893.48	0.0079354
2903.12	0.0078854
2912.77	0.0091754
2922.41	0.0126954
2932.06	0.0135054
2941.7	0.0106854
2951.35	0.0077154
2960.99	0.0097054
2970.64	0.0150654
2980.28	0.0195154
2989.93	0.0140054
2999.57	0.0060854
3009.22	0.0029354
3018.86	0.0022754
3028.51	0.0019154
3038.15	0.0014754
3047.8	0.0012954
3057.44	0.0014954
3067.09	0.0025154
3076.73	0.0037054
3086.38	0.0043654
3096.02	0.0025354
3105.67	0.0012454
3115.31	0.0008219
3124.95	0.0006173
3134.6	0.0004438
3144.24	0.0004661
3153.89	0.0003842
3163.53	0.0003666
3173.18	0.0005038
3182.82	0.0005105
3192.47	0.0002958
3202.11	0.0003263
3211.76	0.0003184
3221.4	0.0003218
3231.05	0.0002188
3240.69	0.0001812
3250.34	0.0002348
3259.98	0.0002793
3269.63	0.0004282
3279.27	0.0002615
3288.92	0.0003289
3298.56	0.0002247
3308.21	0.0002477
3317.85	0.0001661
3327.49	0.0002945
3337.14	0.0002685
3346.78	0.0004023
3356.43	0.0003769
3366.07	0.0003466
3375.72	0.0002
3385.36	0.0003172
3395.01	0.0002934
3404.65	0.000359
3414.3	0.0003132
3423.94	0.000305
3433.59	0.0006746
3443.23	0.0003477
3452.88	0.0005219
3462.52	0.0004023
3472.17	0.0003291
3481.81	0.0003858
3491.46	0.0004103
3501.1	0.0003666
3510.75	0.0004381
3520.39	0.0007567
3530.04	0.000808
3539.68	0.0009193
3549.32	0.0011254
3558.97	0.0014454
3568.61	0.0021954
3578.26	0.0029854
3587.9	0.0032954
3597.55	0.0029554
3607.19	0.0026854
3616.84	0.0025854
3626.48	0.0024954
3636.13	0.0031754
3645.77	0.0042554
3655.42	0.0040354
3665.06	0.0022054
3674.71	0.0012654
3684.35	0.0009708
3694	0.0006397
3703.64	0.0006895
3713.29	0.0004997
3722.93	0.0005508
3732.58	0.0004425
3742.22	0.0003252
3751.86	0.0001606
3761.51	0.0002688
3771.15	0.0003382
3780.8	0.0002958
3790.44	0.0002231
3800.09	0.000239
3809.73	0.0002063
3819.38	0.0003876
3829.02	0.0004196
3838.67	0.0003911
3848.31	0.0004571
3857.96	0.0003365
3867.6	0.0001516
3877.25	0.0003167
3886.89	0.0003542
3896.54	0.0003671
3906.18	0.0002284
3915.83	0.0001396
3925.47	0.0003617
3935.12	0.0001538
3944.76	0.0002574
3954.41	0.0004477
3964.05	0.0001701
3973.69	0.000165
3983.34	0.0001457
3992.98	0.0002494
