Infrared Spectrum: 2-Acetyl-5-methylthiophene
Formula: C 7 H 8 O S
CAS: 13679-74-8
State: gas
Origin: EPA-IR VAPOR PHASE LIBRARY
1/CM	ABSORBANCE
551.7	0.01507
563.274	0.0252
574.848	0.02479
586.421	0.00952
597.995	0.01146
609.569	0.0131
621.143	0.01158
632.717	0.0176
644.291	0.01541
655.864	0.00596
667.438	0.00428
679.012	0.00692
690.586	0.00652
702.16	0.00298
713.734	0.00236
725.307	0.00222
736.881	0.00245
748.455	0.00329
760.029	0.00371
771.603	0.00809
783.177	0.0241
794.75	0.05159
806.324	0.04251
817.898	0.02124
829.472	0.00792
841.046	0.00308
852.619	0.00298
864.193	0.00323
875.767	0.00339
887.341	0.00448
898.915	0.00912
910.489	0.02093
922.062	0.02463
933.636	0.01372
945.21	0.01374
956.784	0.02008
968.358	0.01752
979.932	0.011
991.505	0.00856
1003.08	0.00935
1014.65	0.0122
1026.23	0.01653
1037.8	0.01798
1049.37	0.01885
1060.95	0.02893
1072.52	0.0272
1084.1	0.01148
1095.67	0.00591
1107.24	0.00478
1118.82	0.00447
1130.39	0.00453
1141.97	0.00564
1153.54	0.00889
1165.11	0.01077
1176.69	0.00939
1188.26	0.00992
1199.83	0.01339
1211.41	0.01496
1222.98	0.02512
1234.56	0.06571
1246.13	0.12507
1257.7	0.15133
1269.28	0.1509
1280.85	0.07123
1292.42	0.01531
1304	0.01051
1315.57	0.01271
1327.15	0.02158
1338.72	0.02812
1350.29	0.0408
1361.87	0.06006
1373.44	0.04662
1385.02	0.02417
1396.59	0.01685
1408.16	0.01716
1419.74	0.02716
1431.31	0.05389
1442.88	0.11946
1454.46	0.17603
1466.03	0.11349
1477.61	0.03899
1489.18	0.02094
1500.75	0.01637
1512.33	0.01436
1523.9	0.01817
1535.48	0.02088
1547.05	0.01486
1558.62	0.00947
1570.2	0.00889
1581.77	0.01037
1593.34	0.01117
1604.92	0.01019
1616.49	0.00981
1628.07	0.01034
1639.64	0.01261
1651.21	0.01966
1662.79	0.04209
1674.36	0.1205
1685.93	0.22592
1697.51	0.19649
1709.08	0.06613
1720.66	0.02029
1732.23	0.01083
1743.8	0.00935
1755.38	0.00977
1766.95	0.00715
1778.53	0.00514
1790.1	0.00473
1801.67	0.00415
1813.25	0.00334
1824.82	0.00345
1836.39	0.0041
1847.97	0.00384
1859.54	0.0027
1871.12	0.00238
1882.69	0.0029
1894.26	0.00349
1905.84	0.00342
1917.41	0.00258
1928.99	0.00197
1940.56	0.00187
1952.13	0.00192
1963.71	0.00181
1975.28	0.00175
1986.85	0.00191
1998.43	0.00188
2010	0.00176
2021.58	0.00165
2033.15	0.00139
2044.72	0.00122
2056.3	0.00112
2067.87	0.00115
2079.44	0.00107
2091.02	0.00112
2102.59	0.00113
2114.17	0.00112
2125.74	0.00112
2137.31	0.00123
2148.89	0.00122
2160.46	0.00115
2172.04	0.00117
2183.61	0.00104
2195.18	0.0009389
2206.76	0.0009005
2218.33	0.0007703
2229.9	0.0007744
2241.48	0.0009109
2253.05	0.00108
2264.63	0.00129
2276.2	0.00143
2287.77	0.00138
2299.35	0.00138
2310.92	0.00139
2322.5	0.00153
2334.07	0.00147
2345.64	0.00135
2357.22	0.00127
2368.79	0.00134
2380.36	0.00138
2391.94	0.00149
2403.51	0.00148
2415.09	0.00156
2426.66	0.00157
2438.23	0.00148
2449.81	0.00147
2461.38	0.00148
2472.96	0.00149
2484.53	0.00155
2496.1	0.00146
2507.68	0.00125
2519.25	0.00122
2530.82	0.00135
2542.4	0.00161
2553.97	0.00142
2565.55	0.00111
2577.12	0.00102
2588.69	0.00121
2600.27	0.00124
2611.84	0.00126
2623.41	0.00127
2634.99	0.00121
2646.56	0.00127
2658.14	0.00125
2669.71	0.00117
2681.28	0.00129
2692.86	0.00144
2704.43	0.00174
2716.01	0.00199
2727.58	0.00209
2739.15	0.0023
2750.73	0.00238
2762.3	0.00168
2773.87	0.00137
2785.45	0.00136
2797.02	0.00156
2808.6	0.00164
2820.17	0.00202
2831.74	0.00283
2843.32	0.00384
2854.89	0.00548
2866.47	0.00915
2878.04	0.01274
2889.61	0.0117
2901.19	0.01022
2912.76	0.01183
2924.33	0.02114
2935.91	0.03101
2947.48	0.02148
2959.06	0.01246
2970.63	0.01347
2982.2	0.01311
2993.78	0.01101
3005.35	0.01116
3016.92	0.01182
3028.5	0.01024
3040.07	0.00991
3051.65	0.01007
3063.22	0.01182
3074.79	0.01661
3086.37	0.01438
3097.94	0.00827
3109.52	0.00532
3121.09	0.00278
3132.66	0.00211
3144.24	0.00183
3155.81	0.00152
3167.38	0.00129
3178.96	0.00113
3190.53	0.00103
3202.11	0.0009874
3213.68	0.0009397
3225.25	0.000887
3236.83	0.0009511
3248.4	0.0007876
3259.98	0.0008713
3271.55	0.0008874
3283.12	0.0009555
3294.7	0.0009269
3306.27	0.00105
3317.84	0.00122
3329.42	0.00175
3340.99	0.00275
3352.57	0.00399
3364.14	0.00434
3375.71	0.0033
3387.29	0.00177
3398.86	0.00119
3410.43	0.00102
3422.01	0.0009784
3433.58	0.0008999
3445.16	0.0008622
3456.73	0.0008324
3468.3	0.0008296
3479.88	0.0008088
3491.45	0.000787
3503.03	0.0008113
3514.6	0.0007928
3526.17	0.0008484
3537.75	0.0006995
3549.32	0.0007065
3560.89	0.0007234
3572.47	0.0008158
3584.04	0.000733
3595.62	0.000861
3607.19	0.0007478
3618.76	0.0006458
3630.34	0.0006921
3641.91	0.0006575
3653.49	0.0007454
3665.06	0.0007281
3676.63	0.0007032
3688.21	0.0007517
3699.78	0.0007285
3711.35	0.0007539
3722.93	0.0006822
3734.5	0.0006758
3746.08	0.0006443
3757.65	0.0007096
3769.22	0.0007544
3780.8	0.0006715
3792.37	0.0008607
3803.94	0.000939
3815.52	0.00114
3827.09	0.00124
3838.67	0.00117
3850.24	0.000994
3861.81	0.0008988
3873.39	0.0007401
3884.96	0.0007689
3896.54	0.0009857
3908.11	0.0008499
3919.68	0.000882
3931.26	0.0009908
3942.83	0.0009633
3954.4	0.0008477
3965.98	0.0009337
3977.55	0.0009401
3989.13	0.0008662
4000.7	0.0009165
