Infrared Spectrum: 2-Acetyl-3-methylthiophene
Formula: C 7 H 8 O S
CAS: 13679-72-6
State: gas
Origin: EPA-IR VAPOR PHASE LIBRARY
1/CM	ABSORBANCE
549.8	0.00939
559.445	0.00835
569.09	0.01008
578.734	0.00653
588.379	0.00424
598.024	0.00556
607.669	0.01314
617.313	0.02765
626.958	0.03005
636.603	0.01838
646.248	0.00494
655.893	0.00219
665.537	0.0013
675.182	0.00243
684.827	0.00366
694.472	0.0056
704.116	0.01694
713.761	0.03874
723.406	0.09525
733.051	0.03909
742.695	0.01321
752.34	0.00205
761.985	0.00147
771.63	0.00187
781.275	0.00173
790.919	0.00185
800.564	0.0010142
810.209	0.00206
819.854	0.00354
829.498	0.01091
839.143	0.01729
848.788	0.01516
858.433	0.00673
868.078	0.00464
877.722	0.00577
887.367	0.0056
897.012	0.00781
906.657	0.01494
916.301	0.02207
925.946	0.02061
935.591	0.01071
945.236	0.00995
954.88	0.01513
964.525	0.01767
974.17	0.01422
983.815	0.00967
993.46	0.00932
1003.1	0.01211
1012.75	0.01573
1022.39	0.01616
1032.04	0.01507
1041.68	0.00962
1051.33	0.00609
1060.97	0.00506
1070.62	0.00391
1080.26	0.00267
1089.91	0.0048
1099.55	0.00345
1109.2	0.00379
1118.84	0.00204
1128.49	0.002
1138.13	0.00229
1147.78	0.00353
1157.42	0.00367
1167.07	0.00351
1176.71	0.00452
1186.36	0.00547
1196	0.01142
1205.64	0.02154
1215.29	0.04894
1224.93	0.07977
1234.58	0.10537
1244.22	0.11622
1253.87	0.10969
1263.51	0.0576
1273.16	0.02845
1282.8	0.0149
1292.45	0.00821
1302.09	0.00659
1311.74	0.00729
1321.38	0.00857
1331.03	0.01119
1340.67	0.01795
1350.32	0.03456
1359.96	0.04777
1369.61	0.05422
1379.25	0.06106
1388.9	0.08297
1398.54	0.11654
1408.18	0.1257
1417.83	0.08367
1427.47	0.03635
1437.12	0.02989
1446.76	0.02647
1456.41	0.01951
1466.05	0.01365
1475.7	0.0118
1485.34	0.01222
1494.99	0.01562
1504.63	0.02632
1514.28	0.04663
1523.92	0.05851
1533.57	0.04634
1543.21	0.02288
1552.86	0.01175
1562.5	0.00786
1572.15	0.00681
1581.79	0.00749
1591.44	0.00977
1601.08	0.01043
1610.73	0.00894
1620.37	0.00785
1630.01	0.0104
1639.66	0.01457
1649.3	0.01706
1658.95	0.02786
1668.59	0.06966
1678.24	0.17023
1687.88	0.21067
1697.53	0.15173
1707.17	0.03925
1716.82	0.01487
1726.46	0.01174
1736.11	0.01164
1745.75	0.01036
1755.4	0.00772
1765.04	0.00458
1774.69	0.00243
1784.33	0.00163
1793.98	0.00138
1803.62	0.00133
1813.27	0.00123
1822.91	0.0014
1832.55	0.00141
1842.2	0.00188
1851.84	0.00207
1861.49	0.00224
1871.13	0.00236
1880.78	0.00218
1890.42	0.00165
1900.07	0.0009861
1909.71	0.00121
1919.36	0.0011938
1929	0.00139
1938.65	0.00156
1948.29	0.0015
1957.94	0.001131
1967.58	0.0010545
1977.23	0.0010552
1986.87	0.0010321
1996.52	0.00112
2006.16	0.0013
2015.81	0.00135
2025.45	0.00137
2035.1	0.00128
2044.74	0.0011661
2054.38	0.0011643
2064.03	0.0012076
2073.67	0.0011349
2083.32	0.0009502
2092.96	0.0007108
2102.61	0.0007391
2112.25	0.00058
2121.9	0.0006131
2131.54	0.0006657
2141.19	0.0007851
2150.83	0.0009832
2160.48	0.0008027
2170.12	0.0007868
2179.77	0.0008104
2189.41	0.0010854
2199.06	0.0009508
2208.7	0.0008393
2218.35	0.0005658
2227.99	0.0008289
2237.64	0.0007319
2247.28	0.0009643
2256.92	0.0010911
2266.57	0.0009962
2276.21	0.0009919
2285.86	0.0008173
2295.5	0.0009208
2305.15	0.0008879
2314.79	0.0009651
2324.44	0.0010378
2334.08	0.0008096
2343.73	0.0010154
2353.37	0.000992
2363.02	0.00128
2372.66	0.0008847
2382.31	0.0009073
2391.95	0.0009198
2401.6	0.0010603
2411.24	0.0007889
2420.89	0.0009146
2430.53	0.0010579
2440.18	0.0010637
2449.82	0.0011044
2459.47	0.0009449
2469.11	0.0009136
2478.75	0.0008976
2488.4	0.0007497
2498.04	0.0007077
2507.69	0.0005872
2517.33	0.0004929
2526.98	0.0005608
2536.62	0.000613
2546.27	0.0005651
2555.91	0.0004932
2565.56	0.0005504
2575.2	0.0008416
2584.85	0.0006639
2594.49	0.000849
2604.14	0.0011478
2613.78	0.0010366
2623.43	0.00141
2633.07	0.00151
2642.72	0.00159
2652.36	0.00147
2662.01	0.00146
2671.65	0.0008685
2681.29	0.0007686
2690.94	0.0006596
2700.58	0.00091
2710.23	0.0008054
2719.87	0.0010978
2729.52	0.00129
2739.16	0.00152
2748.81	0.00184
2758.45	0.00178
2768.1	0.00197
2777.74	0.00147
2787.39	0.0015
2797.03	0.00186
2806.68	0.00194
2816.32	0.002
2825.97	0.00252
2835.61	0.00275
2845.26	0.00402
2854.9	0.00506
2864.55	0.00623
2874.19	0.00732
2883.84	0.00807
2893.48	0.00853
2903.12	0.00869
2912.77	0.01136
2922.41	0.01669
2932.06	0.02307
2941.7	0.0243
2951.35	0.01862
2960.99	0.01406
2970.64	0.01345
2980.28	0.01322
2989.93	0.01186
2999.57	0.0117
3009.22	0.01292
3018.86	0.01176
3028.51	0.00909
3038.15	0.00741
3047.8	0.00654
3057.44	0.00654
3067.09	0.00936
3076.73	0.01162
3086.38	0.00951
3096.02	0.0046
3105.67	0.00358
3115.31	0.00335
3124.95	0.00238
3134.6	0.00148
3144.24	0.00128
3153.89	0.0007552
3163.53	0.0009724
3173.18	0.0007947
3182.82	0.0005608
3192.47	0.0004613
3202.11	0.0005465
3211.76	0.0007086
3221.4	0.0007343
3231.05	0.0004694
3240.69	0.00029241
3250.34	0.0006265
3259.98	0.00021271
3269.63	0.0005895
3279.27	0.0009124
3288.92	0.0007817
3298.56	0.0007848
3308.21	0.0005726
3317.85	0.0011779
3327.49	0.00145
3337.14	0.00262
3346.78	0.00309
3356.43	0.00389
3366.07	0.00315
3375.72	0.00154
3385.36	0.0011877
3395.01	0.0007155
3404.65	0.0006673
3414.3	0.0007436
3423.94	0.000604
3433.59	0.000423
3443.23	0.0005226
3452.88	0.00030713
3462.52	0.0006522
3472.17	0.0006021
3481.81	0.0006957
3491.46	0.000121
3501.1	0.0006766
3510.75	0.0005789
3520.39	0.0005752
3530.04	0.0005209
3539.68	0.0004943
3549.32	0.0005427
3558.97	0.0003319
3568.61	0.00021842
3578.26	0.0006863
3587.9	0.0004365
3597.55	0.0001295
3607.19	0.00020405
3616.84	0.0005091
3626.48	0.00025215
3636.13	0.0003979
3645.77	0.0006057
3655.42	0.0004337
3665.06	0.0003159
3674.71	0.0004482
3684.35	0.0004335
3694	0.0004418
3703.64	0.0004356
3713.29	0.0006868
3722.93	0.0004204
3732.58	0.0009325
3742.22	0.000215422
3751.86	0.0005602
3761.51	0.0008018
3771.15	0.0010918
3780.8	0.0005405
3790.44	0
3800.09	0.00071
3809.73	0.0008306
3819.38	0.0008567
3829.02	0.0001452
3838.67	0.0004772
3848.31	0.0005287
3857.96	0.0006096
3867.6	0.0004674
3877.25	0.0009401
3886.89	0.0005537
3896.54	0.0005894
3906.18	0.0003541
3915.83	0.0009093
3925.47	0.0007969
3935.12	0.00122
3944.76	0.00124
3954.41	0.00125
3964.05	0.0008668
3973.69	0.0004828
3983.34	0.0007962
3992.98	0.0010774
