Infrared Spectrum: 5-METHYL-2-THIOPHENECARBOXALDEHYDE
Formula: C6 H6 O S
CAS: 13679-70-4
State: LIQUID (NEAT)
Class: COBLENTZ III
Instrument: DOW KBr FOREPRISM-GRATING
Instrument parameters: BLAZED AT 3.5, 12.0, 20.0 MICRON AND CHANGED AT 5.0, 7.5, 14.9 MICRON
Sampling: TRANSMISSION
Path length: CAPILLARY
Resolution: 2
Origin: DOW CHEMICAL COMPANY
1/CM	TRANSMITTANCE
421.975	0.816
430.742	0.816
439.509	0.832
448.275	0.84
457.042	0.845
465.809	0.832
474.576	0.756
483.343	0.372
492.109	0.461
500.876	0.854
509.643	0.885
518.41	0.892
527.177	0.896
535.943	0.896
544.71	0.881
553.477	0.89
562.244	0.899
571.011	0.903
579.777	0.917
588.544	0.893
597.311	0.813
606.078	0.477
614.845	0.799
623.611	0.933
632.378	0.948
641.145	0.94
649.912	0.893
658.679	0.796
667.445	0.45
676.212	0.351
684.979	0.576
693.746	0.824
702.513	0.952
711.279	0.958
720.046	0.933
728.813	0.869
737.58	0.817
746.347	0.86
755.113	0.811
763.88	0.21
772.647	0.875
781.414	0.885
790.181	0.854
798.947	0.591
807.714	0.171
816.481	0.219
825.248	0.398
834.015	0.708
842.781	0.854
851.548	0.885
860.315	0.894
869.082	0.896
877.849	0.912
886.615	0.899
895.382	0.883
904.149	0.892
912.916	0.911
921.683	0.917
930.449	0.918
939.216	0.919
947.983	0.917
956.75	0.903
965.517	0.874
974.283	0.847
983.05	0.871
991.817	0.864
1000.58	0.871
1009.35	0.869
1018.12	0.845
1026.88	0.76
1035.65	0.63
1044.42	0.452
1053.18	0.242
1061.95	0.585
1070.72	0.817
1079.49	0.831
1088.25	0.813
1097.02	0.835
1105.79	0.871
1114.55	0.871
1123.32	0.861
1132.09	0.829
1140.85	0.795
1149.62	0.774
1158.39	0.708
1167.15	0.39
1175.92	0.786
1184.69	0.791
1193.45	0.734
1202.22	0.611
1210.99	0.301
1219.75	0.059
1228.52	0.161
1237.29	0.125
1246.05	0.485
1254.82	0.702
1263.59	0.77
1272.35	0.788
1281.12	0.806
1289.89	0.825
1298.66	0.832
1307.42	0.84
1316.19	0.832
1324.96	0.798
1333.72	0.739
1342.49	0.701
1351.26	0.777
1360.02	0.774
1368.79	0.721
1377.56	0.575
1386.32	0.471
1395.09	0.663
1403.86	0.688
1412.62	0.679
1421.39	0.535
1430.16	0.503
1438.92	0.233
1447.69	0.092
1456.46	0.005
1465.22	0.03
1473.99	0.226
1482.76	0.485
1491.52	0.724
1500.29	0.803
1509.06	0.796
1517.83	0.757
1526.59	0.744
1535.36	0.777
1544.13	0.84
1552.89	0.86
1561.66	0.868
1570.43	0.868
1579.19	0.861
1587.96	0.852
1596.73	0.813
1605.49	0.764
1614.26	0.663
1623.03	0.511
1631.79	0.42
1640.56	0.185
1649.33	0.004
1658.09	0
1666.86	0
1675.63	0
1684.39	0.029
1693.16	0.398
1701.93	0.502
1710.69	0.562
1719.46	0.676
1728.23	0.777
1737	0.838
1745.76	0.853
1754.53	0.86
1763.3	0.86
1772.06	0.863
1780.83	0.868
1789.6	0.875
1798.36	0.886
1807.13	0.892
1815.9	0.893
1824.66	0.892
1833.43	0.892
1842.2	0.897
1850.96	0.911
1859.73	0.907
1868.5	0.897
1877.26	0.876
1886.03	0.847
1894.8	0.846
1903.56	0.876
1912.33	0.917
1921.1	0.93
1929.86	0.939
1938.63	0.94
1947.4	0.939
1956.17	0.937
1964.93	0.934
1973.7	0.933
1982.47	0.933
1991.23	0.933
2000	0.933
2008.77	0.934
2017.53	0.939
2026.3	0.939
2035.07	0.94
2043.83	0.94
2052.6	0.94
2061.37	0.94
2070.13	0.94
2078.9	0.939
2087.67	0.9359
2096.43	0.93
2105.2	0.929
2113.97	0.932
2122.73	0.936
2131.5	0.934
2140.27	0.933
2149.03	0.94
2157.8	0.9459
2166.57	0.946
2175.34	0.947
2184.1	0.946
2192.87	0.946
2201.64	0.944
2210.4	0.943
2219.17	0.944
2227.94	0.946
2236.7	0.946
2245.47	0.946
2254.24	0.9429
2263	0.9329
2271.77	0.9321
2280.54	0.9401
2289.3	0.941
2298.07	0.9461
2306.84	0.9482
2315.6	0.95
2324.37	0.9479
2333.14	0.946
2341.9	0.946
2350.67	0.944
2359.44	0.9428
2368.2	0.941
2376.97	0.9388
2385.74	0.934
2394.51	0.9299
2403.27	0.9259
2412.04	0.9229
2420.81	0.9188
2429.57	0.914
2438.34	0.911
2447.11	0.9123
2455.87	0.9181
2464.64	0.922
2473.41	0.9229
2482.17	0.919
2490.94	0.9167
2499.71	0.914
2508.47	0.914
2517.24	0.919
2526.01	0.9188
2534.77	0.91
2543.54	0.9123
2552.31	0.9172
2561.07	0.918
2569.84	0.918
2578.61	0.915
2587.37	0.912
2596.14	0.912
2604.91	0.911
2613.68	0.911
2622.44	0.91
2631.21	0.9038
2639.98	0.8968
2648.74	0.8932
2657.51	0.8884
2666.28	0.8784
2675.04	0.8664
2683.81	0.83
2692.58	0.7766
2701.34	0.8092
2710.11	0.8428
2718.88	0.8342
2727.64	0.7992
2736.41	0.7019
2745.18	0.6747
2753.94	0.7277
2762.71	0.7784
2771.48	0.7873
2780.24	0.7582
2789.01	0.6505
2797.78	0.52
2806.55	0.4772
2815.31	0.5012
2824.08	0.57
2832.85	0.6402
2841.61	0.645
2850.38	0.6517
2859.15	0.663
2867.91	0.7067
2876.68	0.7655
2885.45	0.7813
2894.21	0.7792
2902.98	0.7557
2911.75	0.7231
2920.51	0.6335
2929.28	0.6798
2938.05	0.7778
2946.81	0.7696
2955.58	0.759
2964.35	0.7646
2973.11	0.77
2981.88	0.7779
2990.65	0.798
2999.41	0.8142
3008.18	0.822
3016.95	0.821
3025.72	0.817
3034.48	0.8088
3043.25	0.7944
3052.02	0.7764
3060.78	0.7738
3069.55	0.7488
3078.32	0.7333
3087.08	0.7185
3095.85	0.7193
3104.62	0.7852
3113.38	0.8103
3122.15	0.819
3130.92	0.8313
3139.68	0.8383
3148.45	0.85
3157.22	0.854
3165.98	0.8587
3174.75	0.8643
3183.52	0.8673
3192.28	0.8697
3201.05	0.872
3209.82	0.872
3218.58	0.8754
3227.35	0.878
3236.12	0.8784
3244.89	0.881
3253.65	0.882
3262.42	0.882
3271.19	0.881
3279.95	0.876
3288.72	0.8676
3297.49	0.8559
3306.25	0.845
3315.02	0.8464
3323.79	0.8528
3332.55	0.8707
3341.32	0.8838
3350.09	0.8942
3358.85	0.9034
3367.62	0.9062
3376.39	0.907
3385.15	0.91
3393.92	0.912
3402.69	0.912
3411.45	0.911
3420.22	0.911
3428.99	0.91
3437.75	0.908
3446.52	0.907
3455.29	0.905
3464.06	0.9046
3472.82	0.9021
3481.59	0.9
3490.36	0.8981
3499.12	0.896
3507.89	0.894
3516.66	0.894
3525.42	0.897
3534.19	0.9004
3542.96	0.905
3551.72	0.91
3560.49	0.9105
3569.26	0.912
3578.02	0.914
3586.79	0.914
3595.56	0.915
3604.32	0.917
3613.09	0.917
3621.86	0.918
3630.62	0.9225
3639.39	0.9269
3648.16	0.931
3656.92	0.935
3665.69	0.941
3674.46	0.953
3683.23	0.9585
3691.99	0.959
3700.76	0.9665
3709.53	0.973
3718.29	0.975
3727.06	0.975
3735.83	0.975
3744.59	0.977
3753.36	0.969
3762.13	0.968
3770.89	0.966
3779.66	0.966
