Infrared Spectrum: BENZOPHENONE, 5-CHLORO-2-HYDROXY-4,4'-DIMETHOXY-
Formula: C15 H13 Cl O4
CAS: 136741-44-1
State: SOLID (KBr PELLET)
Class: COBLENTZ
Instrument: Not specified, most likely a prism, grating, or hybrid spectrometer.
Sampling: TRANSMISSION
Resolution: 4
Origin: TENNESSEE EASTMAN COMPANY, RESEARCH LABORATORIES
MICROMETERS	TRANSMITTANCE
2.027	0.656
2.06818	0.653
2.10937	0.651
2.15055	0.658
2.19174	0.665
2.23292	0.67
2.27411	0.677
2.31529	0.682
2.35647	0.691
2.39766	0.699
2.43884	0.709
2.48003	0.718
2.52121	0.72
2.56239	0.721
2.60358	0.726
2.64476	0.733
2.68595	0.74
2.72713	0.718
2.76832	0.633
2.8095	0.566
2.85068	0.53
2.89187	0.517
2.93305	0.544
2.97424	0.612
3.01542	0.672
3.0566	0.711
3.09779	0.728
3.13897	0.75
3.18016	0.767
3.22134	0.761
3.26253	0.73
3.30371	0.771
3.34489	0.721
3.38608	0.713
3.42726	0.75
3.46845	0.771
3.50963	0.793
3.55081	0.831
3.592	0.837
3.63318	0.843
3.67437	0.848
3.71555	0.86
3.75674	0.882
3.79792	0.885
3.8391	0.883
3.88029	0.906
3.92147	0.926
3.96266	0.94
4.00384	0.952
4.04502	0.959
4.08621	0.969
4.12739	0.965
4.16858	0.955
4.20976	0.957
4.25095	0.957
4.29213	0.953
4.33331	0.959
4.3745	0.959
4.41568	0.957
4.45687	0.957
4.49805	0.957
4.53923	0.953
4.58042	0.95
4.6216	0.948
4.66279	0.948
4.70397	0.948
4.74516	0.953
4.78634	0.952
4.82752	0.933
4.86871	0.926
4.90989	0.931
4.95108	0.933
4.99226	0.941
5.03344	0.945
5.07463	0.95
5.11581	0.952
5.157	0.95
5.19818	0.947
5.23937	0.948
5.28055	0.953
5.32173	0.964
5.36292	0.962
5.4041	0.969
5.44529	0.965
5.48647	0.967
5.52766	0.957
5.56884	0.95
5.61002	0.948
5.65121	0.952
5.69239	0.952
5.73358	0.95
5.77476	0.941
5.81594	0.948
5.85713	0.928
5.89831	0.916
5.9395	0.902
5.98068	0.87
6.02187	0.824
6.06305	0.68
6.10423	0.409
6.14542	0.151
6.1866	0.29
6.22779	0.199
6.26897	0.097
6.31015	0.303
6.35134	0.433
6.39252	0.621
6.43371	0.738
6.47489	0.771
6.51608	0.802
6.55726	0.576
6.59844	0.489
6.63963	0.477
6.68081	0.626
6.722	0.778
6.76318	0.663
6.80436	0.665
6.84555	0.61
6.88673	0.448
6.92792	0.725
6.9691	0.856
7.01029	0.82
7.05147	0.836
7.09265	0.812
7.13384	0.612
7.17502	0.619
7.21621	0.53
7.25739	0.465
7.29857	0.372
7.33976	0.349
7.38094	0.204
7.42213	0.163
7.46331	0.368
7.5045	0.701
7.54568	0.776
7.58686	0.784
7.62805	0.535
7.66923	0.67
7.71042	0.8
7.7516	0.762
7.79278	0.539
7.83397	0.175
7.87515	0.083
7.91634	0.073
7.95752	0.052
7.99871	0.192
8.03989	0.394
8.08107	0.488
8.12226	0.377
8.16344	0.549
8.20463	0.491
8.24581	0.561
8.28699	0.752
8.32818	0.778
8.36936	0.298
8.41055	0.261
8.45173	0.244
8.49292	0.418
8.5341	0.752
8.57528	0.798
8.61647	0.808
8.65765	0.807
8.69884	0.854
8.74002	0.909
8.78121	0.914
8.82239	0.923
8.86357	0.878
8.90476	0.812
8.94594	0.89
8.98713	0.924
9.02831	0.945
9.06949	0.957
9.11068	0.959
9.15186	0.959
9.19305	0.959
9.23423	0.959
9.27542	0.959
9.3166	0.873
9.35778	0.571
9.39897	0.472
9.44015	0.587
9.48134	0.834
9.52252	0.899
9.5637	0.901
9.60489	0.779
9.64607	0.494
9.68726	0.672
9.72844	0.793
9.76963	0.706
9.81081	0.721
9.85199	0.834
9.89318	0.902
9.93436	0.931
9.97555	0.933
10.0167	0.931
10.0579	0.955
10.0991	0.969
10.1403	0.962
10.1815	0.967
10.2227	0.965
10.2638	0.96
10.305	0.943
10.3462	0.935
10.3874	0.914
10.4286	0.909
10.4698	0.88
10.5109	0.853
10.5521	0.897
10.5933	0.916
10.6345	0.914
10.6757	0.901
10.7169	0.812
10.758	0.518
10.7992	0.329
10.8404	0.576
10.8816	0.703
10.9228	0.737
10.964	0.754
11.0052	0.755
11.0463	0.711
11.0875	0.619
11.1287	0.616
11.1699	0.723
11.2111	0.762
11.2523	0.776
11.2934	0.784
11.3346	0.79
11.3758	0.791
11.417	0.791
11.4582	0.791
11.4994	0.788
11.5405	0.784
11.5817	0.783
11.6229	0.769
11.6641	0.715
11.7053	0.612
11.7465	0.445
11.7876	0.365
11.8288	0.366
11.87	0.356
11.9112	0.38
11.9524	0.546
11.9936	0.638
12.0348	0.667
12.0759	0.674
12.1171	0.677
12.1583	0.672
12.1995	0.66
12.2407	0.648
12.2819	0.627
12.323	0.602
12.3642	0.585
12.4054	0.558
12.4466	0.54
12.4878	0.532
12.529	0.529
12.5701	0.529
12.6113	0.529
12.6525	0.537
12.6937	0.559
12.7349	0.587
12.7761	0.612
12.8173	0.624
12.8584	0.639
12.8996	0.677
12.9408	0.716
12.982	0.737
13.0232	0.742
13.0644	0.744
13.1055	0.738
13.1467	0.697
13.1879	0.631
13.2291	0.566
13.2703	0.558
13.3115	0.616
13.3526	0.694
13.3938	0.72
13.435	0.73
13.4762	0.73
13.5174	0.73
13.5586	0.711
13.5998	0.689
13.6409	0.651
13.6821	0.633
13.7233	0.651
13.7645	0.709
13.8057	0.723
13.8469	0.721
13.888	0.728
13.9292	0.749
13.9704	0.779
14.0116	0.796
14.0528	0.812
14.094	0.819
14.1351	0.822
14.1763	0.825
14.2175	0.825
14.2587	0.824
14.2999	0.807
14.3411	0.795
14.3823	0.795
14.4234	0.8
14.4646	0.805
14.5058	0.813
14.547	0.819
14.5882	0.822
14.6294	0.825
14.6705	0.829
14.7117	0.832
14.7529	0.832
14.7941	0.834
14.8353	0.834
14.8765	0.832
14.9176	0.831
14.9588	0.803
15	0.778
15.0412	0.749
15.0824	0.732
15.1236	0.709
15.1648	0.706
15.2059	0.708
15.2471	0.718
15.2883	0.725
15.3295	0.73
15.3707	0.728
15.4119	0.723
15.453	0.72
15.4942	0.713
15.5354	0.706
15.5766	0.699
15.6178	0.682
15.659	0.662
15.7001	0.645
15.7413	0.626
15.7825	0.619
15.8237	0.612
15.8649	0.607
15.9061	0.6
15.9473	0.59
15.9884	0.581
