Infrared Spectrum: 2-FURFURYL METHYL ETHER
Formula: C6 H8 O2
CAS: 13679-46-4
State: SOLUTION (10% CCl4 FOR 5000-1330, 10% CS2 FOR 1330-625 CM^-^1)
Class: COBLENTZ
Instrument: Not specified, most likely a prism, grating, or hybrid spectrometer.
Sampling: TRANSMISSION
Path length: 0.0121 CM, 0.0121 CM
Resolution: 4
Origin: DOW CHEMICAL COMPANY
MICROMETERS	TRANSMITTANCE
2.041	0.906
2.08216	0.908
2.12332	0.908
2.16448	0.904
2.20563	0.894
2.24679	0.884
2.28795	0.894
2.32911	0.897
2.37027	0.902
2.41143	0.889
2.45258	0.88
2.49374	0.902
2.5349	0.904
2.57606	0.908
2.61722	0.913
2.65838	0.909
2.69953	0.911
2.74069	0.906
2.78185	0.901
2.82301	0.899
2.86417	0.899
2.90533	0.914
2.94648	0.911
2.98764	0.909
3.0288	0.906
3.06996	0.901
3.11112	0.88
3.15228	0.851
3.19344	0.838
3.23459	0.879
3.27575	0.838
3.31691	0.574
3.35807	0.504
3.39923	0.287
3.44039	0.325
3.48154	0.439
3.5227	0.487
3.56386	0.824
3.60502	0.87
3.64618	0.88
3.68734	0.892
3.72849	0.897
3.76965	0.908
3.81081	0.906
3.85197	0.908
3.89313	0.923
3.93429	0.921
3.97544	0.93
4.0166	0.925
4.05776	0.925
4.09892	0.921
4.14008	0.914
4.18124	0.904
4.22239	0.901
4.26355	0.904
4.30471	0.901
4.34587	0.911
4.38703	0.914
4.42819	0.918
4.46935	0.925
4.5105	0.926
4.55166	0.921
4.59282	0.925
4.63398	0.923
4.67514	0.928
4.7163	0.923
4.75745	0.908
4.79861	0.904
4.83977	0.901
4.88093	0.899
4.92209	0.909
4.96325	0.908
5.0044	0.889
5.04556	0.911
5.08672	0.93
5.12788	0.935
5.16904	0.943
5.2102	0.94
5.25135	0.933
5.29251	0.942
5.33367	0.938
5.37483	0.933
5.41599	0.933
5.45715	0.931
5.49831	0.933
5.53946	0.928
5.58062	0.94
5.62178	0.933
5.66294	0.928
5.7041	0.911
5.74526	0.889
5.78641	0.867
5.82757	0.889
5.86873	0.899
5.90989	0.894
5.95105	0.87
5.99221	0.877
6.03336	0.89
6.07452	0.887
6.11568	0.848
6.15684	0.775
6.198	0.667
6.23916	0.591
6.28031	0.594
6.32147	0.582
6.36263	0.531
6.40379	0.454
6.44495	0.427
6.48611	0.531
6.52727	0.584
6.56842	0.601
6.60958	0.497
6.65074	0.396
6.6919	0.703
6.73306	0.684
6.77422	0.543
6.81537	0.5
6.85653	0.5
6.89769	0.591
6.93885	0.77
6.98001	0.841
7.02117	0.839
7.06232	0.804
7.10348	0.781
7.14464	0.705
7.1858	0.737
7.22696	0.674
7.26812	0.458
7.30927	0.405
7.35043	0.504
7.39159	0.802
7.43275	0.865
7.47391	0.879
7.51507	0.887
7.55622	0.884
7.59738	0.872
7.63854	0.838
7.6797	0.756
7.72086	0.676
7.76202	0.73
7.80318	0.79
7.84433	0.77
7.88549	0.747
7.92665	0.79
7.96781	0.807
8.00897	0.788
8.05013	0.735
8.09128	0.596
8.13244	0.436
8.1736	0.415
8.21476	0.557
8.25592	0.608
8.29708	0.553
8.33823	0.405
8.37939	0.315
8.42055	0.306
8.46171	0.315
8.50287	0.49
8.54403	0.589
8.58518	0.548
8.62634	0.347
8.6675	0.115
8.70866	0.141
8.74982	0.419
8.79098	0.589
8.83214	0.601
8.87329	0.536
8.91445	0.431
8.95561	0.335
8.99677	0.219
9.03793	0.109
9.07909	0.035
9.12024	0.02
9.1614	0.02
9.20256	0.057
9.24372	0.127
9.28488	0.131
9.32604	0.313
9.36719	0.538
9.40835	0.647
9.44951	0.705
9.49067	0.749
9.53183	0.768
9.57299	0.78
9.61414	0.78
9.6553	0.77
9.69646	0.741
9.73762	0.666
9.77878	0.526
9.81994	0.257
9.8611	0.172
9.90225	0.424
9.94341	0.557
9.98457	0.625
10.0257	0.669
10.0669	0.689
10.108	0.676
10.1492	0.606
10.1904	0.521
10.2315	0.497
10.2727	0.55
10.3138	0.541
10.355	0.522
10.3962	0.499
10.4373	0.427
10.4785	0.405
10.5196	0.482
10.5608	0.546
10.6019	0.55
10.6431	0.514
10.6843	0.456
10.7254	0.369
10.7666	0.284
10.8077	0.229
10.8489	0.166
10.8901	0.144
10.9312	0.236
10.9724	0.286
11.0135	0.299
11.0547	0.379
11.0958	0.471
11.137	0.529
11.1782	0.575
11.2193	0.577
11.2605	0.461
11.3016	0.357
11.3428	0.538
11.384	0.623
11.4251	0.64
11.4663	0.647
11.5074	0.645
11.5486	0.628
11.5897	0.606
11.6309	0.584
11.6721	0.594
11.7132	0.628
11.7544	0.657
11.7955	0.688
11.8367	0.724
11.8779	0.751
11.919	0.763
11.9602	0.766
12.0013	0.766
12.0425	0.758
12.0836	0.741
12.1248	0.718
12.166	0.674
12.2071	0.62
12.2483	0.54
12.2894	0.417
12.3306	0.247
12.3718	0.141
12.4129	0.187
12.4541	0.325
12.4952	0.477
12.5364	0.575
12.5775	0.638
12.6187	0.669
12.6599	0.688
12.701	0.698
12.7422	0.703
12.7833	0.71
12.8245	0.713
12.8657	0.712
12.9068	0.7
12.948	0.684
12.9891	0.657
13.0303	0.62
13.0714	0.565
13.1126	0.504
13.1538	0.427
13.1949	0.371
13.2361	0.296
13.2772	0.228
13.3184	0.155
13.3596	0.109
13.4007	0.085
13.4419	0.074
13.483	0.063
13.5242	0.035
13.5654	0.008
13.6065	0
13.6477	0
13.6888	0.02
13.73	0.071
13.7711	0.166
13.8123	0.277
13.8535	0.373
13.8946	0.468
13.9358	0.531
13.9769	0.579
14.0181	0.604
14.0593	0.62
14.1004	0.638
14.1416	0.647
14.1827	0.652
14.2239	0.659
14.265	0.66
14.3062	0.664
14.3474	0.667
14.3885	0.667
14.4297	0.667
14.4708	0.662
14.512	0.659
14.5532	0.655
14.5943	0.65
14.6355	0.642
14.6766	0.637
14.7178	0.626
14.7589	0.618
14.8001	0.609
14.8413	0.603
14.8824	0.596
14.9236	0.589
14.9647	0.587
15.0059	0.584
15.0471	0.572
15.0882	0.558
15.1294	0.548
15.1705	0.536
15.2117	0.521
15.2528	0.511
15.294	0.497
15.3352	0.49
15.3763	0.482
15.4175	0.473
15.4586	0.463
15.4998	0.458
15.541	0.448
15.5821	0.437
15.6233	0.424
15.6644	0.413
15.7056	0.405
15.7467	0.398
15.7879	0.395
15.8291	0.388
15.8702	0.383
