Infrared Spectrum: 4,4'-Azoxydipyridine, 1,1'-dioxide
Formula: C10 H8 N4 O3
CAS: 13673-30-8
State: SOLID (SPLIT MULL)
Class: COBLENTZ III
Instrument: DOW KBr FOREPRISM-GRATING
Instrument parameters: BLAZED AT 3.5, 12.0, 20.0 MICRON AND CHANGED AT 5.0, 7.5, 14.9 MICRON
Sampling: TRANSMISSION
Resolution: 2
Origin: DOW CHEMICAL COMPANY
1/CM	TRANSMITTANCE
391	0.7832
400	0.7883
409	0.7918
418	0.7915
427	0.7968
436	0.8446
445	0.765
454	0.8567
463	0.8286
472	0.8314
481	0.8751
490	0.8445
499	0.9499
508	0.9449
517	0.9333
526	0.9604
535	0.9094
544	0.8971
553	0.7953
562	0.9678
571	0.9751
580	0.9788
589	0.9813
598	0.9825
607	0.9816
616	0.9791
625	0.9704
634	0.889
643	0.7295
652	0.9728
661	0.9395
670	1.0086
679	0.9023
688	1.033
697	1.03
706	1.0221
715	1.0012
724	0.9731
733	0.9878
742	0.9971
751	0.7675
760	0.9866
769	0.9825
778	0.9689
787	0.9318
796	0.7562
805	0.7638
814	0.9851
823	0.9503
832	0.9405
841	0.9416
850	0.8464
859	0.6989
868	0.4493
877	0.5859
886	0.909
895	0.9286
904	0.929
913	0.9039
922	0.9193
931	0.9104
940	0.9002
949	0.8803
958	0.8537
967	0.8707
976	0.8695
985	0.8618
994	0.8451
1003	0.8142
1012	0.6745
1021	0.6282
1030	0.813
1039	0.8498
1048	0.8418
1057	0.8261
1066	0.8119
1075	0.7925
1084	0.7645
1093	0.6844
1102	0.4962
1111	0.5582
1120	0.4355
1129	0.3824
1138	0.6511
1147	0.48
1156	0.3687
1165	0.4824
1174	0.6221
1183	0.8165
1192	0.7495
1201	0.7365
1210	0.7036
1219	0.7134
1228	0.6512
1237	0.6066
1246	0.4727
1255	0.3247
1264	0.1782
1273	0.1146
1282	0.1852
1291	0.3245
1300	0.711
1309	0.8435
1318	0.8654
1327	0.8098
1336	0.6934
1345	0.3429
1354	0.2195
1363	0.5178
1372	0.9113
1381	0.9439
1390	0.9471
1399	0.9338
1408	0.9101
1417	0.8755
1426	0.798
1435	0.7918
1444	0.7717
1453	0.5848
1462	0.4405
1471	0.5198
1480	0.4458
1489	0.8257
1498	0.7305
1507	0.422
1516	0.2437
1525	0.3799
1534	0.4681
1543	0.9214
1552	0.9882
1561	0.9215
1570	0.9252
1579	0.8661
1588	0.4985
1597	0.6046
1606	0.2791
1615	0.8964
1624	1.0237
1633	0.9581
1642	0.986
1651	0.9774
1660	0.9671
1669	0.9562
1678	0.95
1687	0.9302
1696	0.909
1705	0.9382
1714	0.9402
1723	0.938
1732	0.9359
1741	0.9339
1750	0.9311
1759	0.9274
1768	0.9234
1777	0.9191
1786	0.9161
1795	0.9125
1804	0.9141
1813	0.9138
1822	0.9118
1831	0.9099
1840	0.9078
1849	0.9053
1858	0.9005
1867	0.8946
1876	0.8894
1885	0.8849
1894	0.8792
1903	0.8716
1912	0.8591
1921	0.8559
1930	0.8556
1939	0.8615
1948	0.8651
1957	0.867
1966	0.8653
1975	0.8616
1984	0.8566
1993	0.8463
2002	0.8277
2011	0.8259
2020	0.8212
2029	0.8175
2038	0.8125
2047	0.8072
2056	0.8025
2065	0.7978
2074	0.7932
2083	0.7888
2092	0.7843
2101	0.7801
2110	0.7798
2119	0.7796
2128	0.7778
2137	0.7743
2146	0.7705
2155	0.7661
2164	0.7621
2173	0.7581
2182	0.7538
2191	0.7494
2200	0.7445
2209	0.7391
2218	0.7338
2227	0.7283
2236	0.7228
2245	0.7158
2254	0.7097
2263	0.7037
2272	0.6998
2281	0.6961
2290	0.6937
2299	0.6914
2308	0.6901
2317	0.6892
2326	0.6807
2335	0.6789
2344	0.6825
2353	0.6803
2362	0.6775
2371	0.6734
2380	0.6675
2389	0.6615
2398	0.6586
2407	0.6583
2416	0.6557
2425	0.6496
2434	0.643
2443	0.6359
2452	0.6274
2461	0.6147
2470	0.6225
2479	0.6458
2488	0.645
2497	0.6397
2506	0.6334
2515	0.6277
2524	0.6243
2533	0.6242
2542	0.6281
2551	0.6309
2560	0.6324
2569	0.6301
2578	0.6273
2587	0.6247
2596	0.6215
2605	0.618
2614	0.6149
2623	0.6118
2632	0.6085
2641	0.605
2650	0.6012
2659	0.5971
2668	0.5932
2677	0.5902
2686	0.5874
2695	0.5849
2704	0.5827
2713	0.5805
2722	0.5782
2731	0.5758
2740	0.5733
2749	0.5707
2758	0.5685
2767	0.5667
2776	0.5657
2785	0.5647
2794	0.5627
2803	0.5597
2812	0.5544
2821	0.5476
2830	0.5391
2839	0.5298
2848	0.5205
2857	0.5191
2866	0.5193
2875	0.5204
2884	0.5194
2893	0.5138
2902	0.5076
2911	0.5021
2920	0.4969
2929	0.4919
2938	0.4885
2947	0.4853
2956	0.4821
2965	0.4773
2974	0.4699
2983	0.4595
2992	0.4466
3001	0.435
3010	0.4243
3019	0.385
3028	0.3445
3037	0.38
3046	0.4055
3055	0.4459
3064	0.4178
3073	0.3643
3082	0.3456
3091	0.4043
3100	0.4189
3109	0.4091
3118	0.2892
3127	0.5076
3136	0.5121
3145	0.5099
3154	0.5062
3163	0.5024
3172	0.4991
3181	0.4962
3190	0.4944
3199	0.4929
3208	0.492
3217	0.4906
3226	0.4875
3235	0.4841
3244	0.4807
3253	0.4777
3262	0.4751
3271	0.4722
3280	0.4693
3289	0.4664
3298	0.4635
3307	0.4609
3316	0.4584
3325	0.4559
3334	0.4534
3343	0.451
3352	0.4489
3361	0.4467
3370	0.4446
3379	0.4424
3388	0.4404
3397	0.4391
3406	0.4379
3415	0.4366
3424	0.4354
3433	0.4341
3442	0.4329
3451	0.4318
3460	0.4307
3469	0.4296
3478	0.4286
3487	0.4275
3496	0.4265
3505	0.4257
3514	0.4248
3523	0.4239
3532	0.423
3541	0.4222
3550	0.4212
3559	0.4205
3568	0.4197
3577	0.4189
3586	0.4182
3595	0.4175
3604	0.4168
3613	0.4157
3622	0.4147
3631	0.4136
3640	0.4123
3649	0.4108
3658	0.4093
3667	0.4077
3676	0.4062
3685	0.4044
3694	0.4026
3703	0.4008
3712	0.399
3721	0.3972
3730	0.3954
3739	0.3937
3748	0.3916
3757	0.3896
3766	0.3876
3775	0.3854
3784	0.3834
