Infrared Spectrum: Cyclohexyl diphenyl phosphine
Formula: C18 H21 P
CAS: 13689-20-8
State: gas
Origin: EPA-IR VAPOR PHASE LIBRARY
1/CM	ABSORBANCE
549.8	0.023919
559.445	0.037049
569.09	0.005489
578.735	0.001719
588.38	0.001639
598.025	0.002769
607.67	0.004149
617.315	0.001739
626.96	0.0008529
636.605	0.0006133
646.251	0.0009794
655.896	0.0013516
665.541	0.002699
675.186	0.004689
684.831	0.009229
694.476	0.029469
704.121	0.022119
713.766	0.025969
723.411	0.017159
733.056	0.012009
742.701	0.010299
752.346	0.004959
761.991	0.002769
771.636	0.001829
781.281	0.0012994
790.926	0.0013674
800.571	0.001849
810.216	0.003069
819.861	0.003249
829.507	0.0012118
839.152	0.0010826
848.797	0.003979
858.442	0.002729
868.087	0.002099
877.732	0.003129
887.377	0.003749
897.022	0.001739
906.667	0.0013351
916.312	0.001939
925.957	0.0007586
935.602	0.0007136
945.247	0.0006559
954.892	0.0006683
964.537	0.0007098
974.182	0.0010108
983.827	0.0011796
993.472	0.002339
1003.12	0.002249
1012.76	0.0013211
1022.41	0.002489
1032.05	0.002849
1041.7	0.001879
1051.34	0.0013036
1060.99	0.002209
1070.63	0.003229
1080.28	0.003739
1089.92	0.005429
1099.57	0.013199
1109.21	0.026919
1118.86	0.021569
1128.5	0.005479
1138.15	0.002389
1147.79	0.001649
1157.44	0.001549
1167.08	0.001949
1176.73	0.004279
1186.37	0.007389
1196.02	0.009749
1205.66	0.019169
1215.31	0.035739
1224.95	0.011919
1234.6	0.003489
1244.24	0.002219
1253.89	0.002139
1263.53	0.002079
1273.18	0.003429
1282.82	0.002909
1292.47	0.002229
1302.11	0.002189
1311.76	0.001819
1321.4	0.001659
1331.05	0.002139
1340.69	0.001519
1350.34	0.001749
1359.98	0.0013555
1369.63	0.0011932
1379.27	0.0011616
1388.92	0.0010014
1398.56	0.0011643
1408.21	0.001589
1417.85	0.001969
1427.5	0.003739
1437.14	0.010229
1446.79	0.007809
1456.43	0.007299
1466.08	0.002539
1475.73	0.002079
1485.37	0.002629
1495.02	0.0013617
1504.66	0.0007568
1514.31	0.0006458
1523.95	0.0006564
1533.6	0.0007169
1543.24	0.0007668
1552.89	0.0006681
1562.53	0.0006507
1572.18	0.0007533
1581.82	0.0011132
1591.47	0.0013048
1601.11	0.0009006
1610.76	0.0007336
1620.4	0.0006148
1630.05	0.0006372
1639.69	0.0006799
1649.34	0.0008095
1658.98	0.0009972
1668.63	0.0008848
1678.27	0.0007497
1687.92	0.0006014
1697.56	0.0005408
1707.21	0.0005708
1716.85	0.00050989
1726.5	0.0005254
1736.14	0.0004918
1745.79	0.0005564
1755.43	0.0007565
1765.08	0.0008
1774.72	0.0009911
1784.37	0.0007243
1794.01	0.0007931
1803.66	0.0013571
1813.3	0.001829
1822.95	0.0012418
1832.59	0.0010612
1842.24	0.0007255
1851.88	0.0007058
1861.53	0.0006749
1871.17	0.0008555
1880.82	0.0011643
1890.46	0.0013748
1900.11	0.001449
1909.75	0.0010588
1919.4	0.0007154
1929.04	0.0007302
1938.69	0.0008481
1948.33	0.0012936
1957.98	0.001599
1967.62	0.0013914
1977.27	0.0009872
1986.91	0.0005338
1996.56	0.00048762
2006.2	0.0005443
2015.85	0.0005397
2025.49	0.0005622
2035.14	0.00046815
2044.78	0.00050347
2054.43	0.00047513
2064.07	0.0005771
2073.72	0.0005717
2083.36	0.0006036
2093.01	0.0005825
2102.65	0.0005811
2112.3	0.000607
2121.94	0.0006059
2131.59	0.0005782
2141.23	0.0005448
2150.88	0.0006617
2160.52	0.0006596
2170.17	0.0006374
2179.81	0.0006729
2189.46	0.0007038
2199.1	0.0007337
2208.75	0.0008053
2218.39	0.0007238
2228.04	0.000687
2237.68	0.0006953
2247.33	0.0005766
2256.97	0.0006725
2266.62	0.0006739
2276.26	0.0007405
2285.91	0.0007714
2295.55	0.000775
2305.2	0.0008259
2314.84	0.0009886
2324.49	0.0008519
2334.13	0.0008181
2343.78	0.0008924
2353.42	0.0007483
2363.07	0.0008788
2372.72	0.0007478
2382.36	0.0007833
2392.01	0.0007476
2401.65	0.0007981
2411.3	0.0006989
2420.94	0.0007759
2430.59	0.0007853
2440.23	0.000706
2449.88	0.0007227
2459.52	0.0007154
2469.17	0.0007728
2478.81	0.0007487
2488.46	0.0007423
2498.1	0.0006866
2507.75	0.0006889
2517.39	0.0006689
2527.04	0.0007098
2536.68	0.0006903
2546.33	0.0006615
2555.97	0.0006644
2565.62	0.0008266
2575.26	0.0009276
2584.91	0.0008832
2594.55	0.0009775
2604.2	0.0007892
2613.84	0.001012
2623.49	0.0010696
2633.13	0.0010345
2642.78	0.0010336
2652.42	0.0011636
2662.07	0.001383
2671.71	0.0013864
2681.36	0.001302
2691	0.0012501
2700.65	0.0011793
2710.29	0.0010301
2719.94	0.0010123
2729.58	0.0009504
2739.23	0.0008278
2748.87	0.0009291
2758.52	0.0007542
2768.16	0.0010357
2777.81	0.0011362
2787.45	0.0011851
2797.1	0.001589
2806.74	0.001659
2816.39	0.001639
2826.03	0.001909
2835.68	0.002269
2845.32	0.004149
2854.97	0.013509
2864.61	0.020899
2874.26	0.012629
2883.9	0.007039
2893.55	0.005849
2903.19	0.007519
2912.84	0.010769
2922.48	0.019429
2932.13	0.043089
2941.77	0.062199
2951.42	0.019789
2961.06	0.006639
2970.71	0.003449
2980.35	0.002799
2990	0.002609
2999.64	0.002689
3009.29	0.003309
3018.93	0.003799
3028.58	0.004269
3038.22	0.003839
3047.87	0.004889
3057.51	0.011669
3067.16	0.017679
3076.8	0.011419
3086.45	0.008459
3096.09	0.004399
3105.74	0.002219
3115.38	0.0013521
3125.03	0.0013652
3134.67	0.0013166
3144.32	0.001479
3153.96	0.001221
3163.61	0.0008344
3173.25	0.0005449
3182.9	0.0007263
3192.54	0.0005543
3202.19	0.0006029
3211.83	0.0005405
3221.48	0.00040931
3231.12	0.0005478
3240.77	0.00041628
3250.41	0.00045858
3260.06	0.0005739
3269.7	0.0005277
3279.35	0.0003545
3289	0.0003574
3298.64	0.0005459
3308.29	0.000296
3317.93	0.0003536
3327.58	0.000426462
3337.22	0.0005488
3346.87	0.0003551
3356.51	0.0003272
3366.16	0.0003401
3375.8	0.00041077
3385.45	0.000359
3395.09	0.000421965
3404.74	0.0004028
3414.38	0.0003543
3424.03	0.00027
3433.67	0.000424354
3443.32	0.00049085
3452.96	0.0003729
3462.61	0.000372
3472.25	0.00047603
3481.9	0.0003294
3491.54	0.000262
3501.19	0.0003294
3510.83	0.000271
3520.48	0.000272
3530.12	0.00043662
3539.77	0.000227
3549.41	0.000287
3559.06	6.3e-05
3568.7	0.00046979
3578.35	0.00044859
3587.99	0.000241
3597.64	0.000283
3607.28	0.000428175
3616.93	0.00019
3626.57	0.000275
3636.22	0.000245
3645.86	0.00048884
3655.51	0.0003862
3665.15	0.000227
3674.8	0.00048578
3684.44	0.0003381
3694.09	0.00045358
3703.73	0.000265
3713.38	0.000238
3723.02	0.0003444
3732.67	0.0003888
3742.31	0.0003528
3751.96	0.0004538
3761.6	0.00041295
3771.25	0.0003754
3780.89	0.00046987
3790.54	0.0006375
3800.18	0.0003641
3809.83	0.0003704
3819.47	0.00041574
3829.12	0.000318
3838.76	0.00045021
3848.41	0.000226
3858.05	0.00048436
3867.7	0.0006077
3877.34	0.0003885
3886.99	0.000425072
3896.63	0.0005241
3906.28	0.0006866
3915.92	0.000191
3925.57	0.000428781
3935.21	0.00047943
3944.86	0.00049547
3954.5	0.000428953
3964.15	0.00044507
3973.79	0.0003205
3983.44	0.0007286
3993.08	0.0005672
