Infrared Spectrum: 2-t-Butyl-6-methylphenyl isocyanate
Formula: C 12 H 15 N O
CAS: 13680-30-3
State: gas
Origin: EPA-IR VAPOR PHASE LIBRARY
1/CM	ABSORBANCE
549.9	0.00464
559.547	0.00933
569.193	0.013
578.84	0.01394
588.486	0.01672
598.133	0.0159
607.779	0.0122
617.426	0.00884
627.072	0.00719
636.719	0.00664
646.365	0.00542
656.012	0.00415
665.658	0.0034442
675.305	0.002908
684.951	0.002605
694.598	0.002758
704.245	0.0033587
713.891	0.0034726
723.538	0.00472
733.184	0.01847
742.831	0.03934
752.477	0.02073
762.124	0.01345
771.77	0.0205
781.417	0.02359
791.063	0.00794
800.71	0.002603
810.356	0.002742
820.003	0.00171
829.649	0.00073
839.296	0.00063
848.943	0.00066
858.589	0.00075
868.236	0.00117
877.882	0.002644
887.529	0.00776
897.175	0.01005
906.822	0.00449
916.468	0.00286
926.115	0.0040948
935.761	0.002957
945.408	0.00142
955.054	0.00128
964.701	0.00147
974.347	0.00124
983.994	0.00132
993.64	0.00168
1003.29	0.00214
1012.93	0.00203
1022.58	0.0024
1032.23	0.0030573
1041.87	0.00466
1051.52	0.00915
1061.17	0.01681
1070.81	0.02843
1080.46	0.02651
1090.11	0.01087
1099.75	0.00498
1109.4	0.00466
1119.05	0.00624
1128.69	0.00582
1138.34	0.0049
1147.99	0.00599
1157.63	0.00739
1167.28	0.00548
1176.92	0.0039281
1186.57	0.00639
1196.22	0.01175
1205.86	0.00533
1215.51	0.00138
1225.16	0.00131
1234.8	0.00211
1244.45	0.00439
1254.1	0.01173
1263.74	0.02358
1273.39	0.01824
1283.04	0.00625
1292.68	0.002962
1302.33	0.00257
1311.98	0.00292
1321.62	0.003028
1331.27	0.00253
1340.92	0.002464
1350.56	0.0041223
1360.21	0.01067
1369.86	0.01771
1379.5	0.01215
1389.15	0.01652
1398.79	0.02916
1408.44	0.02601
1418.09	0.01512
1427.73	0.01096
1437.38	0.01164
1447.03	0.01568
1456.67	0.02058
1466.32	0.02499
1475.97	0.03045
1485.61	0.03228
1495.26	0.03188
1504.91	0.02665
1514.55	0.0134
1524.2	0.00711
1533.85	0.00527
1543.49	0.00467
1553.14	0.00439
1562.79	0.0039705
1572.43	0.00459
1582.08	0.00659
1591.73	0.00678
1601.37	0.00431
1611.02	0.00315788
1620.67	0.0030339
1630.31	0.0033283
1639.96	0.00276
1649.6	0.00212
1659.25	0.002333
1668.9	0.0030988
1678.54	0.002595
1688.19	0.00183
1697.84	0.00212
1707.48	0.00207
1717.13	0.00159
1726.78	0.00148
1736.42	0.00164
1746.07	0.00152
1755.72	0.0015
1765.36	0.00171
1775.01	0.00225
1784.66	0.002701
1794.3	0.00218
1803.95	0.0019
1813.6	0.00199
1823.24	0.00192
1832.89	0.00196
1842.54	0.002645
1852.18	0.0036327
1861.83	0.002727
1871.47	0.00169
1881.12	0.00156
1890.77	0.00157
1900.41	0.00172
1910.06	0.002481
1919.71	0.0041128
1929.35	0.0036312
1939	0.00184
1948.65	0.00157
1958.29	0.0016
1967.94	0.00168
1977.59	0.00174
1987.23	0.00171
1996.88	0.00181
2006.53	0.002
2016.17	0.002225
2025.82	0.002322
2035.47	0.002584
2045.11	0.002874
2054.76	0.0030803
2064.41	0.00318102
2074.05	0.0033028
2083.7	0.0037213
2093.35	0.00441
2102.99	0.00522
2112.64	0.00634
2122.28	0.00804
2131.93	0.01071
2141.58	0.01355
2151.22	0.01528
2160.87	0.01634
2170.52	0.01707
2180.16	0.01832
2189.81	0.02143
2199.46	0.02688
2209.1	0.03551
2218.75	0.04834
2228.4	0.06635
2238.04	0.0912
2247.69	0.12868
2257.34	0.18098
2266.98	0.24599
2276.63	0.38014
2286.28	0.60817
2295.92	0.68346
2305.57	0.47689
2315.22	0.28088
2324.86	0.17139
2334.51	0.11509
2344.16	0.09422
2353.8	0.08139
2363.45	0.06909
2373.09	0.0548
2382.74	0.03952
2392.39	0.02831
2402.03	0.02257
2411.68	0.01928
2421.33	0.01541
2430.97	0.01083
2440.62	0.00764
2450.27	0.00599
2459.91	0.0049
2469.56	0.00419
2479.21	0.0036825
2488.85	0.0032481
2498.5	0.002973
2508.15	0.002848
2517.79	0.002798
2527.44	0.002749
2537.09	0.002719
2546.73	0.002613
2556.38	0.002655
2566.03	0.0027
2575.67	0.002698
2585.32	0.002547
2594.96	0.002356
2604.61	0.00211
2614.26	0.00208
2623.9	0.002151
2633.55	0.002307
2643.2	0.002455
2652.84	0.002385
2662.49	0.002288
2672.14	0.002251
2681.78	0.002216
2691.43	0.002348
2701.08	0.002406
2710.72	0.002528
2720.37	0.002899
2730.02	0.0030826
2739.66	0.00317516
2749.31	0.0036983
2758.96	0.003743
2768.6	0.0034268
2778.25	0.0033353
2787.9	0.0035021
2797.54	0.0036504
2807.19	0.0038066
2816.84	0.00425
2826.48	0.00471
2836.13	0.00552
2845.77	0.00682
2855.42	0.00969
2865.07	0.01621
2874.71	0.02796
2884.36	0.03575
2894.01	0.03226
2903.65	0.03087
2913.3	0.03767
2922.95	0.04664
2932.59	0.05321
2942.24	0.05437
2951.89	0.06065
2961.53	0.08279
2971.18	0.09994
2980.83	0.07509
2990.47	0.04078
3000.12	0.03493
3009.77	0.02572
3019.41	0.01507
3029.06	0.01295
3038.71	0.01254
3048.35	0.01463
3058	0.0193
3067.64	0.01964
3077.29	0.01642
3086.94	0.01191
3096.58	0.00939
3106.23	0.00735
3115.88	0.00423
3125.52	0.002951
3135.17	0.002627
3144.82	0.00206
3154.46	0.002131
3164.11	0.00193
3173.76	0.00162
3183.4	0.00105
3193.05	0.00089
3202.7	0.00058
3212.34	0.00044
3221.99	0.00027
3231.64	0.00031
3241.28	1e-05
3250.93	4e-05
3260.58	7e-05
3270.22	5e-05
3279.87	0.00018
3289.52	0.00021
3299.16	0.00046
3308.81	0.00068
3318.45	0.00081
3328.1	0.00103
3337.75	0.00136
3347.39	0.00166
3357.04	0.002321
3366.69	0.002553
3376.33	0.00247
3385.98	0.0023
3395.63	0.002152
3405.27	0.002172
3414.92	0.002279
3424.57	0.002452
3434.21	0.002505
3443.86	0.00199
3453.51	0.00197
3463.15	0.00157
3472.8	0.00151
3482.45	0.00155
3492.09	0.00143
3501.74	0.00137
3511.39	0.00133
3521.03	0.00133
3530.68	0.00131
3540.33	0.00131
3549.97	0.00118
3559.62	0.00134
3569.26	0.00126
3578.91	0.00128
3588.56	0.00145
3598.2	0.00156
3607.85	0.00166
3617.5	0.00176
3627.14	0.00192
3636.79	0.002163
3646.44	0.002435
3656.08	0.002591
3665.73	0.002935
3675.38	0.0035595
3685.02	0.0037696
3694.67	0.0036784
3704.32	0.0032483
3713.96	0.002879
3723.61	0.002748
3733.26	0.002943
3742.9	0.00314165
3752.55	0.0033456
3762.2	0.0033971
3771.84	0.0036328
3781.49	0.003802
3791.13	0.0037634
3800.78	0.0034531
3810.43	0.00313836
3820.07	0.002886
3829.72	0.002743
3839.37	0.00262
3849.01	0.002384
3858.66	0.002149
3868.31	0.002138
3877.95	0.00212
3887.6	0.002145
3897.25	0.00204
3906.89	0.00196
3916.54	0.0018
3926.19	0.00179
3935.83	0.00164
3945.48	0.00166
3955.13	0.00169
3964.77	0.00164
3974.42	0.00163
3984.07	0.00165
3993.71	0.00161
