Infrared Spectrum: BIS-(4-AMINO-5-tert-BUTYL-3-METHYLPHENYL)METHANE
Formula: C23 H34 N2
CAS: 13680-36-9
State: SOLUTION (CS2)
Class: COBLENTZ III
Instrument: BECKMAN IR-4 (HYBRID PRISM-GRATING)
Instrument parameters: NaCl PRISM
Sampling: TRANSMISSION
Path length: 0.009 CM
Resolution: 2
Origin: MONSANTO (J. FREEMAN)
1/CM	TRANSMITTANCE
625.823	0.4331
634.7	0.4089
643.576	0.4128
652.453	0.4061
661.329	0.4294
670.206	0.4519
679.083	0.4574
687.959	0.5655
696.836	0.6141
705.713	0.6431
714.589	0.6701
723.466	0.6959
732.342	0.7086
741.219	0.6908
750.096	0.4441
758.972	0.5932
767.849	0.622
776.725	0.6268
785.602	0.673
794.479	0.7301
803.355	0.7742
812.232	0.7919
821.108	0.8052
829.985	0.7983
838.862	0.7141
847.738	0.479
856.615	0.4374
865.492	0.6048
874.368	0.5072
883.245	0.5277
892.121	0.6645
900.998	0.7842
909.875	0.8497
918.751	0.8441
927.628	0.8209
936.504	0.7987
945.381	0.6792
954.258	0.8249
963.134	0.8525
972.011	0.8524
980.887	0.8752
989.764	0.8706
998.641	0.7624
1007.52	0.5277
1016.39	0.6678
1025.27	0.7011
1034.15	0.8284
1043.02	0.8743
1051.9	0.8834
1060.78	0.882
1069.65	0.8718
1078.53	0.8329
1087.41	0.7507
1096.28	0.6236
1105.16	0.7138
1114.04	0.8315
1122.91	0.8658
1131.79	0.8592
1140.67	0.8125
1149.54	0.642
1158.42	0.5952
1167.3	0.8237
1176.17	0.8283
1185.05	0.8011
1193.93	0.607
1202.8	0.6932
1211.68	0.6573
1220.56	0.4019
1229.43	0.6489
1238.31	0.4673
1247.19	0.17
1256.06	0.2716
1264.94	0.3993
1273.82	0.3648
1282.69	0.5392
1291.57	0.62
1300.45	0.7011
1309.32	0.6868
1318.2	0.5634
1327.08	0.6159
1335.95	0.8035
1344.83	0.8245
1353.71	0.7952
1362.58	0.5903
1371.46	0.3926
1380.34	0.5572
1389.21	0.5632
1398.09	0.3742
1406.96	0.4558
1415.84	0.3015
1424.72	0.1475
1433.59	0.0075
1442.47	0.0067
1451.35	0.0067
1460.22	0.0067
1469.1	0.0067
1477.98	0.0067
1486.85	0.0067
1495.73	0.0067
1504.61	0.0067
1513.48	0.0067
1522.36	0.0067
1531.24	0.0067
1540.11	0.0067
1548.99	0.0067
1557.87	0.0067
1566.74	0.0067
1575.62	0.0658
1584.5	0.141
1593.37	0.2047
1602.25	0.1917
1611.13	0.2494
1620	0.09
1628.88	0.2841
1637.76	0.4991
1646.63	0.6394
1655.51	0.726
1664.39	0.8094
1673.26	0.8497
1682.14	0.8858
1691.02	0.9091
1699.89	0.9244
1708.77	0.9338
1717.65	0.9375
1726.52	0.9335
1735.4	0.9228
1744.28	0.9062
1753.15	0.9169
1762.03	0.914
1770.91	0.9069
1779.78	0.9095
1788.66	0.923
1797.54	0.9521
1806.41	0.9594
1815.29	0.9617
1824.17	0.9638
1833.04	0.9658
1841.92	0.9675
1850.8	0.9688
1859.67	0.9697
1868.55	0.9704
1877.43	0.9696
1886.3	0.9685
1895.18	0.9672
1904.06	0.9666
1912.93	0.9671
1921.81	0.9689
1930.68	0.9717
1939.56	0.9736
1948.44	0.9748
1957.31	0.9753
1966.19	0.9758
1975.07	0.9763
1983.94	0.9768
1992.82	0.9772
2001.7	0.9775
2010.57	0.9778
2019.45	0.9772
2028.33	0.9761
2037.2	0.9738
2046.08	0.9697
2054.96	0.9646
2063.83	0.9569
2072.71	0.9445
2081.59	0.9207
2090.46	0.8814
2099.34	0.8312
2108.22	0.7623
2117.09	0.5883
2125.97	0.437
2134.85	0.1929
2143.72	0.0614
2152.6	0.0241
2161.48	0.0207
2170.35	0.0824
2179.23	0.2353
2188.11	0.3871
2196.98	0.5377
2205.86	0.6869
2214.74	0.835
2223.61	0.8887
2232.49	0.9202
2241.37	0.9318
2250.24	0.9329
2259.12	0.9302
2268	0.9033
2276.87	0.8009
2285.75	0.6991
2294.63	0.5981
2303.5	0.4984
2312.38	0.4975
2321.26	0.5369
2330.13	0.5667
2339.01	0.5858
2347.89	0.6102
2356.76	0.639
2365.64	0.6655
2374.52	0.7001
2383.39	0.9152
2392.27	0.9579
2401.15	0.9644
2410.02	0.9684
2418.9	0.9718
2427.78	0.9748
2436.65	0.977
2445.53	0.9784
2454.41	0.9787
2463.28	0.9784
2472.16	0.9775
2481.03	0.9766
2489.91	0.9758
2498.79	0.9752
2507.66	0.9748
2516.54	0.975
2525.42	0.9746
2534.29	0.9723
2543.17	0.97
2552.05	0.9681
2560.92	0.9662
2569.8	0.9648
2578.68	0.9641
2587.55	0.9634
2596.43	0.9624
2605.31	0.9613
2614.18	0.9605
2623.06	0.9606
2631.94	0.9608
2640.81	0.9615
2649.69	0.9624
2658.57	0.9619
2667.44	0.9604
2676.32	0.9569
2685.2	0.9513
2694.07	0.943
2702.95	0.9268
2711.83	0.9088
2720.7	0.8958
2729.58	0.8906
2738.46	0.8971
2747.33	0.9082
2756.21	0.9182
2765.09	0.9179
2773.96	0.9119
2782.84	0.8654
2791.72	0.8449
2800.59	0.821
2809.47	0.7878
2818.35	0.7577
2827.22	0.729
2836.1	0.6941
2844.98	0.6195
2853.85	0.3939
2862.73	0.2226
2871.61	0.2131
2880.48	0.2013
2889.36	0.1638
2898.24	0.1234
2907.11	0.1225
2915.99	0.1361
2924.87	0.1428
2933.74	0.1261
2942.62	0.0992
2951.5	0.0724
2960.37	0.0652
2969.25	0.1498
2978.13	0.2381
2987	0.3259
2995.88	0.4132
3004.76	0.5
3013.63	0.5867
3022.51	0.677
3031.38	0.7238
3040.26	0.7438
3049.14	0.7584
3058.01	0.778
3066.89	0.7979
3075.77	0.8164
3084.64	0.8852
3093.52	0.9051
3102.4	0.9125
3111.27	0.9184
3120.15	0.9225
3129.03	0.9273
3137.9	0.9301
3146.78	0.9298
3155.66	0.9295
3164.53	0.9284
3173.41	0.9272
3182.29	0.9267
3191.16	0.9262
3200.04	0.9267
3208.92	0.9314
3217.79	0.9396
3226.67	0.9434
3235.55	0.9466
3244.42	0.9488
3253.3	0.9496
3262.18	0.9505
3271.05	0.9513
3279.93	0.9505
3288.81	0.9517
3297.68	0.9518
3306.56	0.9517
3315.44	0.9502
3324.31	0.9481
3333.19	0.9366
3342.07	0.8931
3350.94	0.8463
3359.82	0.7998
3368.7	0.7535
3377.57	0.7075
3386.45	0.6649
3395.33	0.6585
3404.2	0.71
3413.08	0.785
3421.96	0.8594
3430.83	0.886
3439.71	0.8361
3448.59	0.7629
3457.46	0.6901
3466.34	0.6176
3475.22	0.5519
3484.09	0.5503
3492.97	0.5938
3501.85	0.6669
3510.72	0.7398
3519.6	0.8122
3528.48	0.8843
3537.35	0.9276
3546.23	0.9293
3555.11	0.9302
3563.98	0.9311
3572.86	0.9324
3581.73	0.9339
3590.61	0.9396
3599.49	0.9498
3608.36	0.9583
3617.24	0.9631
3626.12	0.9682
3634.99	0.9726
3643.87	0.9752
3652.75	0.976
3661.62	0.976
3670.5	0.9757
3679.38	0.9751
3688.25	0.9744
3697.13	0.9736
3706.01	0.9728
3714.88	0.972
3723.76	0.9712
3732.64	0.9704
3741.51	0.9696
3750.39	0.9687
3759.27	0.9679
3768.14	0.967
3777.02	0.966
3785.9	0.9651
3794.77	0.9641
3803.65	0.963
3812.53	0.9619
3821.4	0.9608
3830.28	0.9597
3839.16	0.9585
3848.03	0.9575
3856.91	0.9566
3865.79	0.9557
3874.66	0.9548
3883.54	0.9541
3892.42	0.9534
3901.29	0.9527
3910.17	0.9519
3919.05	0.9513
3927.92	0.951
3936.8	0.9508
3945.68	0.9506
