Infrared Spectrum: 1,10-Undecadiene
Formula: C 11 H 20
CAS: 13688-67-0
State: gas
Instrument: HP-GC/MS/IRD
Origin: NIST Mass Spectrometry Data Center
1/CM	ABSORBANCE
550	0.000651
562	5.04e-05
574	4.2e-05
586	5.46e-05
598	0.0002688
610	0.000546
622	0.001092
634	0.0012348
646	0.000777
658	0.0004662
670	0.0003402
682	0.0002478
694	0.0002604
706	0.0003528
718	0.0005544
730	0.0005754
742	0.0003402
754	0.0002814
766	0.0001638
778	0.0001932
790	0.0001554
802	0.0002184
814	0.0002268
826	0.0003444
838	0.0005586
850	0.000735
862	0.001008
874	0.0014868
886	0.0023688
898	0.0046914
910	0.0098448
922	0.0074382
934	0.0036372
946	0.0024108
958	0.0020412
970	0.0022512
982	0.003339
994	0.0044856
1006	0.002898
1018	0.0016842
1030	0.0011886
1042	0.0008652
1054	0.0006174
1066	0.0004494
1078	0.000357
1090	0.000315
1102	0.0002814
1114	0.0002688
1126	0.0002478
1138	0.00021
1150	0.000168
1162	0.0001554
1174	0.0002058
1186	0.0002352
1198	0.0001974
1210	0.000189
1222	0.0001932
1234	0.00021
1246	0.0002604
1258	0.0003192
1270	0.000441
1282	0.0005418
1294	0.0007098
1306	0.0007812
1318	0.0007182
1330	0.0008106
1342	0.0010794
1354	0.001239
1366	0.0008904
1378	0.0006006
1390	0.0005208
1402	0.0007182
1414	0.0011382
1426	0.0014784
1438	0.0024444
1450	0.0034482
1462	0.0030324
1474	0.0016338
1486	0.0006552
1498	0.0003276
1510	0.0002016
1522	0.0001932
1534	0.0002352
1546	0.00021
1558	0.000189
1570	0.0001638
1582	0.00021
1594	0.0003444
1606	0.0005838
1618	0.001239
1630	0.0027972
1642	0.0043974
1654	0.0017682
1666	0.000609
1678	0.0003024
1690	0.0001512
1702	9.24e-05
1714	5.46e-05
1726	3.78e-05
1738	4.2e-05
1750	2.94e-05
1762	2.52e-05
1774	2.94e-05
1786	7.98e-05
1798	0.0001638
1810	0.000399
1822	0.000861
1834	0.0009366
1846	0.0004326
1858	0.0001932
1870	8.82e-05
1882	5.04e-05
1894	3.36e-05
1906	2.94e-05
1918	1.26e-05
1930	4.2e-06
1942	1.68e-05
1954	3.78e-05
1966	7.14e-05
1978	0.0001218
1990	8.82e-05
2002	5.46e-05
2014	3.78e-05
2026	2.94e-05
2038	3.78e-05
2050	5.04e-05
2062	4.2e-05
2074	4.2e-05
2086	3.78e-05
2098	2.1e-05
2110	4.2e-06
2122	1.26e-05
2134	0
2146	2.1e-05
2158	2.52e-05
2170	3.78e-05
2182	2.52e-05
2194	2.1e-05
2206	1.68e-05
2218	2.52e-05
2230	4.2e-05
2242	2.52e-05
2254	2.94e-05
2266	4.2e-05
2278	6.72e-05
2290	4.62e-05
2302	5.88e-05
2314	5.04e-05
2326	4.2e-05
2338	4.62e-05
2350	2.52e-05
2362	5.04e-05
2374	2.1e-05
2386	4.62e-05
2398	3.36e-05
2410	2.52e-05
2422	2.52e-05
2434	4.62e-05
2446	4.2e-05
2458	3.78e-05
2470	3.36e-05
2482	6.72e-05
2494	8.4e-05
2506	8.82e-05
2518	0.000126
2530	0.0001134
2542	0.0001134
2554	0.000147
2566	0.000126
2578	0.0001344
2590	0.0001428
2602	0.000189
2614	0.0002058
2626	0.0002352
2638	0.000273
2650	0.000315
2662	0.000357
2674	0.0004116
2686	0.0004116
2698	0.0003906
2710	0.000357
2722	0.000336
2734	0.0003654
2746	0.0004284
2758	0.000483
2770	0.0005586
2782	0.0007014
2794	0.0009114
2806	0.0012264
2818	0.0017136
2830	0.0027804
2842	0.0052458
2854	0.0108528
2866	0.0143388
2878	0.0101892
2890	0.0083454
2902	0.011655
2914	0.0198618
2926	0.0353472
2938	0.0398244
2950	0.0210294
2962	0.009408
2974	0.0066654
2986	0.0063336
2998	0.0055986
3010	0.0049014
3022	0.0029904
3034	0.0022596
3046	0.0021588
3058	0.002667
3070	0.004032
3082	0.006678
3094	0.0047796
3106	0.0017724
3118	0.0009912
3130	0.0006552
3142	0.0004914
3154	0.0003906
3166	0.0003276
3178	0.0002394
3190	0.0002436
3202	0.0002016
3214	0.0001764
3226	0.0001512
3238	0.000126
3250	0.0001008
3262	0.0001008
3274	0.0001302
3286	0.0001008
3298	0.000105
3310	0.0001008
3322	4.62e-05
3334	7.98e-05
3346	0.0001008
3358	9.66e-05
3370	7.98e-05
3382	0.0001344
3394	4.62e-05
3406	7.98e-05
3418	5.46e-05
3430	7.98e-05
3442	5.88e-05
3454	7.56e-05
3466	4.2e-05
3478	6.3e-05
3490	4.2e-05
3502	5.46e-05
3514	7.98e-05
3526	3.78e-05
3538	5.46e-05
3550	5.88e-05
3562	7.98e-05
3574	6.72e-05
3586	3.78e-05
3598	4.62e-05
3610	4.2e-05
3622	6.72e-05
3634	6.72e-05
3646	6.72e-05
3658	0.000105
3670	8.4e-05
3682	8.82e-05
3694	8.82e-05
3706	8.4e-05
3718	8.82e-05
3730	7.98e-05
3742	2.94e-05
3754	0.0001008
3766	5.04e-05
3778	4.62e-05
3790	6.3e-05
3802	7.56e-05
3814	6.3e-05
3826	4.2e-05
3838	6.3e-05
