Infrared Spectrum: CYCLOPENTADIENYL DIMETHYL CHLOROSILANE
Formula: C7 H11 Cl Si
CAS: 13688-59-0
State: LIQUID
Class: COBLENTZ
Instrument: Not specified, most likely a prism, grating, or hybrid spectrometer.
Sampling: TRANSMISSION
Path length: 0.003 CM
Resolution: 4
Origin: WYANDOTTE CHEMICALS CORP., WYANDOTTE, MICHIGAN, USA
MICROMETERS	TRANSMITTANCE
2.06	0.98
2.09983	0.975
2.13966	0.973
2.17949	0.97
2.21931	0.961
2.25914	0.961
2.29897	0.961
2.3388	0.965
2.37863	0.965
2.41846	0.965
2.45829	0.963
2.49811	0.95
2.53794	0.951
2.57777	0.955
2.6176	0.96
2.65743	0.955
2.69726	0.958
2.73709	0.961
2.77691	0.968
2.81674	0.971
2.85657	0.973
2.8964	0.971
2.93623	0.968
2.97606	0.966
3.01589	0.96
3.05571	0.955
3.09554	0.953
3.13537	0.938
3.1752	0.915
3.21503	0.732
3.25486	0.832
3.29469	0.87
3.33451	0.666
3.37434	0.656
3.41417	0.765
3.454	0.795
3.49383	0.875
3.53366	0.916
3.57349	0.93
3.61331	0.941
3.65314	0.95
3.69297	0.953
3.7328	0.956
3.77263	0.958
3.81246	0.961
3.85229	0.968
3.89211	0.966
3.93194	0.961
3.97177	0.961
4.0116	0.96
4.05143	0.955
4.09126	0.953
4.13109	0.955
4.17091	0.958
4.21074	0.958
4.25057	0.963
4.2904	0.968
4.33023	0.971
4.37006	0.968
4.40989	0.96
4.44971	0.958
4.48954	0.953
4.52937	0.956
4.5692	0.953
4.60903	0.948
4.64886	0.946
4.68869	0.948
4.72851	0.958
4.76834	0.953
4.80817	0.951
4.848	0.95
4.88783	0.948
4.92766	0.943
4.96749	0.941
5.00731	0.94
5.04714	0.935
5.08697	0.931
5.1268	0.92
5.16663	0.921
5.20646	0.926
5.24629	0.93
5.28611	0.931
5.32594	0.94
5.36577	0.941
5.4056	0.928
5.44543	0.916
5.48526	0.906
5.52509	0.923
5.56491	0.936
5.60474	0.926
5.64457	0.936
5.6844	0.93
5.72423	0.931
5.76406	0.925
5.80389	0.92
5.84371	0.925
5.88354	0.925
5.92337	0.92
5.9632	0.91
6.00303	0.897
6.04286	0.848
6.08269	0.818
6.12251	0.855
6.16234	0.89
6.20217	0.906
6.242	0.91
6.28183	0.863
6.32166	0.85
6.36149	0.862
6.40131	0.883
6.44114	0.89
6.48097	0.897
6.5208	0.893
6.56063	0.888
6.60046	0.862
6.64029	0.84
6.68011	0.709
6.71994	0.805
6.75977	0.709
6.7996	0.81
6.83943	0.822
6.87926	0.827
6.91909	0.832
6.95891	0.818
6.99874	0.765
7.03857	0.662
7.0784	0.621
7.11823	0.642
7.15806	0.742
7.19789	0.634
7.23771	0.749
7.27754	0.691
7.31737	0.73
7.3572	0.808
7.39703	0.602
7.43686	0.785
7.47669	0.868
7.51651	0.885
7.55634	0.887
7.59617	0.88
7.636	0.862
7.67583	0.83
7.71566	0.735
7.75549	0.8
7.79531	0.794
7.83514	0.715
7.87497	0.455
7.9148	0.093
7.95463	0.049
7.99446	0.431
8.03429	0.72
8.07411	0.795
8.11394	0.795
8.15377	0.805
8.1936	0.838
8.23343	0.815
8.27326	0.739
8.31309	0.709
8.35291	0.782
8.39274	0.842
8.43257	0.867
8.4724	0.875
8.51223	0.888
8.55206	0.892
8.59189	0.892
8.63171	0.897
8.67154	0.892
8.71137	0.887
8.7512	0.877
8.79103	0.852
8.83086	0.759
8.87069	0.682
8.91051	0.664
8.95034	0.629
8.99017	0.699
9.03	0.609
9.06983	0.651
9.10966	0.573
9.14949	0.599
9.18931	0.617
9.22914	0.47
9.26897	0.264
9.3088	0.34
9.34863	0.475
9.38846	0.581
9.42829	0.639
9.46811	0.667
9.50794	0.692
9.54777	0.709
9.5876	0.722
9.62743	0.732
9.66726	0.725
9.70709	0.696
9.74691	0.657
9.78674	0.612
9.82657	0.526
9.8664	0.48
9.90623	0.383
9.94606	0.254
9.98589	0.119
10.0257	0.079
10.0655	0.061
10.1054	0.074
10.1452	0.152
10.185	0.31
10.2249	0.441
10.2647	0.546
10.3045	0.614
10.3443	0.641
10.3842	0.632
10.424	0.524
10.4638	0.357
10.5037	0.157
10.5435	0.111
10.5833	0.362
10.6231	0.571
10.663	0.647
10.7028	0.691
10.7426	0.686
10.7825	0.702
10.8223	0.707
10.8621	0.679
10.9019	0.574
10.9418	0.433
10.9816	0.406
11.0214	0.526
11.0613	0.508
11.1011	0.436
11.1409	0.451
11.1807	0.558
11.2206	0.598
11.2604	0.601
11.3002	0.578
11.3401	0.544
11.3799	0.513
11.4197	0.493
11.4595	0.453
11.4994	0.363
11.5392	0.249
11.579	0.152
11.6189	0.093
11.6587	0.093
11.6985	0.127
11.7383	0.2
11.7782	0.29
11.818	0.33
11.8578	0.342
11.8977	0.317
11.9375	0.252
11.9773	0.181
12.0171	0.109
12.057	0.083
12.0968	0.079
12.1366	0.088
12.1765	0.111
12.2163	0.112
12.2561	0.109
12.2959	0.101
12.3358	0.076
12.3756	0.048
12.4154	0.041
12.4553	0.039
12.4951	0.039
12.5349	0.051
12.5747	0.078
12.6146	0.112
12.6544	0.117
12.6942	0.111
12.7341	0.149
12.7739	0.224
12.8137	0.322
12.8535	0.357
12.8934	0.352
12.9332	0.264
12.973	0.149
13.0129	0.094
13.0527	0.086
13.0925	0.151
13.1323	0.239
13.1722	0.338
13.212	0.406
13.2518	0.441
13.2917	0.453
13.3315	0.438
13.3713	0.385
13.4111	0.325
13.451	0.279
13.4908	0.269
13.5306	0.249
13.5705	0.217
13.6103	0.176
13.6501	0.154
13.6899	0.167
13.7298	0.214
13.7696	0.3
13.8094	0.367
13.8493	0.408
13.8891	0.42
13.9289	0.408
13.9687	0.38
14.0086	0.358
14.0484	0.325
14.0882	0.264
14.1281	0.215
14.1679	0.162
14.2077	0.132
14.2475	0.116
14.2874	0.111
14.3272	0.116
14.367	0.139
14.4069	0.171
14.4467	0.22
14.4865	0.282
14.5263	0.328
14.5662	0.35
14.606	0.367
14.6458	0.383
14.6857	0.406
14.7255	0.436
14.7653	0.455
14.8051	0.46
14.845	0.46
14.8848	0.465
14.9246	0.495
14.9645	0.539
15.0043	0.601
15.0441	0.652
15.0839	0.677
15.1238	0.676
15.1636	0.672
15.2034	0.669
15.2433	0.662
15.2831	0.652
15.3229	0.641
15.3627	0.612
15.4026	0.607
15.4424	0.609
15.4822	0.637
15.5221	0.681
15.5619	0.717
15.6017	0.765
15.6415	0.78
15.6814	0.799
15.7212	0.807
15.761	0.817
15.8009	0.818
15.8407	0.823
15.8805	0.822
15.9203	0.818
15.9602	0.822
16	0.822
