Infrared Spectrum: N,N,N',N'-Tetraethyl isophthalamide
Formula: C16 H24 N2 O2
CAS: 13698-87-8
State: gas
Origin: EPA-IR VAPOR PHASE LIBRARY
1/CM	ABSORBANCE
549.8	0.001581
559.445	0.0010228
569.09	0.001341
578.734	0.001301
588.379	0.001641
598.024	0.002531
607.669	0.003521
617.313	0.006371
626.958	0.015411
636.603	0.016691
646.248	0.005651
655.893	0.002531
665.537	0.002001
675.182	0.002341
684.827	0.002961
694.472	0.005921
704.116	0.009631
713.761	0.010571
723.406	0.022871
733.051	0.030301
742.695	0.016121
752.34	0.012051
761.985	0.009391
771.63	0.009541
781.275	0.015511
790.919	0.025941
800.564	0.024231
810.209	0.019821
819.854	0.008531
829.498	0.003291
839.143	0.002741
848.788	0.003611
858.433	0.006991
868.078	0.005621
877.722	0.002831
887.367	0.003461
897.012	0.005811
906.657	0.007581
916.301	0.007641
925.946	0.004071
935.591	0.004511
945.236	0.004541
954.88	0.002971
964.525	0.002421
974.17	0.002561
983.815	0.002981
993.46	0.003631
1003.1	0.004911
1012.75	0.006271
1022.39	0.006001
1032.04	0.006201
1041.68	0.008291
1051.33	0.013051
1060.97	0.025691
1070.62	0.037261
1080.26	0.052111
1089.91	0.070811
1099.55	0.049421
1109.2	0.026961
1118.84	0.014291
1128.49	0.010151
1138.13	0.009451
1147.78	0.010411
1157.42	0.016801
1167.07	0.029721
1176.71	0.023681
1186.36	0.013331
1196	0.015241
1205.64	0.027461
1215.29	0.043781
1224.93	0.034651
1234.58	0.024661
1244.22	0.034931
1253.87	0.069711
1263.51	0.127401
1273.16	0.129601
1282.8	0.109461
1292.45	0.071321
1302.09	0.061291
1311.74	0.070001
1321.38	0.048921
1331.03	0.029241
1340.67	0.031581
1350.32	0.045481
1359.96	0.046351
1369.61	0.055081
1379.25	0.082191
1388.9	0.088321
1398.54	0.097231
1408.18	0.128441
1417.83	0.118831
1427.47	0.090551
1437.12	0.059611
1446.76	0.050221
1456.41	0.054921
1466.05	0.054881
1475.7	0.049301
1485.34	0.042541
1494.99	0.023211
1504.63	0.016641
1514.28	0.014181
1523.92	0.012291
1533.57	0.010821
1543.21	0.009641
1552.86	0.009051
1562.5	0.009131
1572.15	0.009491
1581.79	0.010201
1591.44	0.010791
1601.08	0.013151
1610.73	0.015471
1620.37	0.020701
1630.01	0.030931
1639.66	0.056471
1649.3	0.111841
1658.95	0.276051
1668.59	0.307631
1678.24	0.126651
1687.88	0.048981
1697.53	0.026501
1707.17	0.016891
1716.82	0.012431
1726.46	0.010121
1736.11	0.007571
1745.75	0.005851
1755.4	0.004721
1765.04	0.003991
1774.69	0.003531
1784.33	0.003171
1793.98	0.002811
1803.62	0.002741
1813.27	0.002611
1822.91	0.002581
1832.55	0.002531
1842.2	0.002041
1851.84	0.001731
1861.49	0.001611
1871.13	0.001901
1880.78	0.002621
1890.42	0.002631
1900.07	0.001721
1909.71	0.001361
1919.36	0.0012138
1929	0.001361
1938.65	0.002101
1948.29	0.001971
1957.94	0.0012273
1967.58	0.0010491
1977.23	0.0010143
1986.87	0.0010637
1996.52	0.0011126
2006.16	0.001164
2015.81	0.0011662
2025.45	0.0012006
2035.1	0.001249
2044.74	0.0012312
2054.38	0.0010889
2064.03	0.0011223
2073.67	0.001301
2083.32	0.001381
2092.96	0.001381
2102.61	0.0012523
2112.25	0.0011207
2121.9	0.0010127
2131.54	0.0010148
2141.19	0.0009947
2150.83	0.001095
2160.48	0.0012595
2170.12	0.0012646
2179.77	0.0011301
2189.41	0.0010472
2199.06	0.0010336
2208.7	0.0010158
2218.35	0.0010818
2227.99	0.0010504
2237.64	0.0010528
2247.28	0.0010286
2256.92	0.0010022
2266.57	0.000952
2276.21	0.0008861
2285.86	0.0009941
2295.5	0.0010642
2305.15	0.0010498
2314.79	0.0010846
2324.44	0.0010681
2334.08	0.0012213
2343.73	0.0012233
2353.37	0.001291
2363.02	0.0011441
2372.66	0.0012738
2382.31	0.001331
2391.95	0.0012732
2401.6	0.001301
2411.24	0.0012068
2420.89	0.0012626
2430.53	0.001291
2440.18	0.001281
2449.82	0.0011448
2459.47	0.00119
2469.11	0.0012153
2478.75	0.0012058
2488.4	0.001203
2498.04	0.001192
2507.69	0.001272
2517.33	0.001291
2526.98	0.0012421
2536.62	0.0012507
2546.27	0.0011024
2555.91	0.0011144
2565.56	0.0010785
2575.2	0.0011511
2584.85	0.0009549
2594.49	0.0009652
2604.14	0.0009958
2613.78	0.0009869
2623.43	0.0009652
2633.07	0.0010316
2642.72	0.0011181
2652.36	0.0011363
2662.01	0.0012205
2671.65	0.001401
2681.29	0.001711
2690.94	0.001931
2700.58	0.002201
2710.23	0.001991
2719.87	0.001981
2729.52	0.002221
2739.16	0.002461
2748.81	0.002651
2758.45	0.002711
2768.1	0.002761
2777.74	0.003041
2787.39	0.003511
2797.03	0.004121
2806.68	0.004681
2816.32	0.005291
2825.97	0.006091
2835.61	0.007111
2845.26	0.008431
2854.9	0.010651
2864.55	0.015631
2874.19	0.026251
2883.84	0.039721
2893.48	0.038471
2903.12	0.034661
2912.77	0.033861
2922.41	0.037141
2932.06	0.051041
2941.7	0.075361
2951.35	0.056921
2960.99	0.046101
2970.64	0.070631
2980.28	0.093141
2989.93	0.072721
2999.57	0.053491
3009.22	0.026381
3018.86	0.015551
3028.51	0.012191
3038.15	0.010731
3047.8	0.009931
3057.44	0.011731
3067.09	0.015561
3076.73	0.009721
3086.38	0.007351
3096.02	0.006731
3105.67	0.004591
3115.31	0.003531
3124.95	0.003031
3134.6	0.002821
3144.24	0.002451
3153.89	0.002291
3163.53	0.002221
3173.18	0.001981
3182.82	0.001821
3192.47	0.001531
3202.11	0.001341
3211.76	0.001083
3221.4	0.0009226
3231.05	0.0008378
3240.69	0.0007901
3250.34	0.0008899
3259.98	0.0010771
3269.63	0.0012694
3279.27	0.001421
3288.92	0.001801
3298.56	0.002621
3308.21	0.003541
3317.85	0.002941
3327.49	0.001981
3337.14	0.001371
3346.78	0.0009552
3356.43	0.0008698
3366.07	0.0006277
3375.72	0.0005329
3385.36	0.0007867
3395.01	0.0005377
3404.65	0.00036853
3414.3	0.000486
3423.94	0.0005982
3433.59	0.000282971
3443.23	0.0002686
3452.88	0.0002799
3462.52	0.00030587
3472.17	0.0003935
3481.81	0.000147
3491.46	0.00034356
3501.1	0.0002367
3510.75	0.0002552
3520.39	0.0003994
3530.04	0.00014
3539.68	0.000153
3549.32	0.000123
3558.97	0.000136
3568.61	0.000134
3578.26	0.000107
3587.9	0.000166
3597.55	0.000144
3607.19	9.2e-05
3616.84	0.0002436
3626.48	0.00029856
3636.13	0.0001913
3645.77	0.0002178
3655.42	6.5e-05
3665.06	0.0004879
3674.71	0.00027553
3684.35	0.0003906
3694	0.0003883
3703.64	0.0004994
3713.29	0.0003821
3722.93	0.0004713
3732.58	0.00031118
3742.22	0.0005117
3751.86	0.000421
3761.51	0.0002375
3771.15	0.0004456
3780.8	0.000285261
3790.44	0.00032914
3800.09	0.00036468
3809.73	0.0004403
3819.38	0.000216
3829.02	0.00032929
3838.67	0.0005047
3848.31	0.0002705
3857.96	0.0002298
3867.6	0.0002189
3877.25	0.0001918
3886.89	0.0002238
3896.54	0.00037111
3906.18	0.0004327
3915.83	0.0002587
3925.47	0.0004359
3935.12	0.0005353
3944.76	0.00035355
3954.41	0.00035569
3964.05	0.0005027
3973.69	0.00062
3983.34	0.0006527
3992.98	0.0005903
