Infrared Spectrum: 3'-Trifluoromethylcyclopentanecarboxanilide
Formula: C 13 H 14 F 3 N O
CAS: 13691-84-4
State: gas
Origin: EPA-IR VAPOR PHASE LIBRARY
1/CM	ABSORBANCE
549.8	0.010641
559.445	0.009001
569.09	0.008481
578.734	0.007141
588.379	0.007291
598.024	0.004741
607.669	0.003131
617.313	0.002261
626.958	0.002471
636.603	0.003101
646.248	0.006271
655.893	0.019131
665.537	0.015631
675.182	0.006781
684.827	0.012591
694.472	0.036411
704.116	0.022531
713.761	0.006431
723.406	0.004181
733.051	0.004451
742.695	0.006011
752.34	0.007191
761.985	0.005391
771.63	0.007701
781.275	0.020341
790.919	0.035141
800.564	0.019331
810.209	0.006461
819.854	0.004341
829.498	0.004221
839.143	0.004691
848.788	0.005121
858.433	0.008061
868.078	0.016771
877.722	0.021001
887.367	0.016231
897.012	0.020831
906.657	0.021441
916.301	0.014961
925.946	0.010931
935.591	0.009571
945.236	0.008901
954.88	0.008131
964.525	0.007911
974.17	0.007891
983.815	0.007111
993.46	0.007221
1003.1	0.008971
1012.75	0.006991
1022.39	0.007471
1032.04	0.009961
1041.68	0.011591
1051.33	0.016791
1060.97	0.036221
1070.62	0.070731
1080.26	0.049231
1089.91	0.043201
1099.55	0.060751
1109.2	0.041971
1118.84	0.056851
1128.49	0.114001
1138.13	0.240751
1147.78	0.325351
1157.42	0.199321
1167.07	0.188461
1176.71	0.227081
1186.36	0.143681
1196	0.060541
1205.64	0.042581
1215.29	0.045661
1224.93	0.057971
1234.58	0.055371
1244.22	0.041061
1253.87	0.029671
1263.51	0.031481
1273.16	0.039861
1282.8	0.042951
1292.45	0.053621
1302.09	0.069701
1311.74	0.091441
1321.38	0.189241
1331.03	0.448731
1340.67	0.156041
1350.32	0.038131
1359.96	0.022791
1369.61	0.018681
1379.25	0.017461
1388.9	0.018221
1398.54	0.022031
1408.18	0.036261
1417.83	0.065251
1427.47	0.121701
1437.12	0.152081
1446.76	0.068681
1456.41	0.044251
1466.05	0.043021
1475.7	0.065541
1485.34	0.131081
1494.99	0.125661
1504.63	0.099741
1514.28	0.138171
1523.92	0.170481
1533.57	0.100441
1543.21	0.048541
1552.86	0.030121
1562.5	0.022451
1572.15	0.019931
1581.79	0.023621
1591.44	0.032891
1601.08	0.038211
1610.73	0.036541
1620.37	0.030961
1630.01	0.012491
1639.66	0.008231
1649.3	0.007511
1658.95	0.008321
1668.59	0.009971
1678.24	0.013551
1687.88	0.019691
1697.53	0.032151
1707.17	0.059581
1716.82	0.104161
1726.46	0.109451
1736.11	0.053471
1745.75	0.027761
1755.4	0.017091
1765.04	0.010231
1774.69	0.006881
1784.33	0.005211
1793.98	0.004241
1803.62	0.003701
1813.27	0.003211
1822.91	0.002611
1832.55	0.002071
1842.2	0.001921
1851.84	0.002221
1861.49	0.002221
1871.13	0.002001
1880.78	0.002441
1890.42	0.002141
1900.07	0.001441
1909.71	0.001391
1919.36	0.001761
1929	0.002141
1938.65	0.001921
1948.29	0.001851
1957.94	0.001481
1967.58	0.0010329
1977.23	0.0009845
1986.87	0.0008935
1996.52	0.0008639
2006.16	0.0009191
2015.81	0.0009423
2025.45	0.0010356
2035.1	0.0010133
2044.74	0.0011318
2054.38	0.001151
2064.03	0.0011142
2073.67	0.001531
2083.32	0.001761
2092.96	0.001531
2102.61	0.001361
2112.25	0.001181
2121.9	0.0010971
2131.54	0.0010999
2141.19	0.0011256
2150.83	0.001171
2160.48	0.001271
2170.12	0.001371
2179.77	0.001431
2189.41	0.001281
2199.06	0.001251
2208.7	0.001251
2218.35	0.001261
2227.99	0.001231
2237.64	0.001361
2247.28	0.001501
2256.92	0.001521
2266.57	0.001741
2276.21	0.001801
2285.86	0.001611
2295.5	0.001441
2305.15	0.001421
2314.79	0.001451
2324.44	0.001461
2334.08	0.001621
2343.73	0.001901
2353.37	0.001811
2363.02	0.001521
2372.66	0.001241
2382.31	0.001221
2391.95	0.001341
2401.6	0.001281
2411.24	0.001161
2420.89	0.0009986
2430.53	0.000996
2440.18	0.0010037
2449.82	0.000964
2459.47	0.0009158
2469.11	0.0010045
2478.75	0.001211
2488.4	0.001231
2498.04	0.001241
2507.69	0.001411
2517.33	0.001381
2526.98	0.001171
2536.62	0.0009133
2546.27	0.0008272
2555.91	0.0008841
2565.56	0.0009018
2575.2	0.0008253
2584.85	0.0009517
2594.49	0.0011295
2604.14	0.0011211
2613.78	0.0010253
2623.43	0.000892
2633.07	0.00077
2642.72	0.0009003
2652.36	0.001291
2662.01	0.001361
2671.65	0.0007878
2681.29	0.0006669
2690.94	0.0006856
2700.58	0.0007695
2710.23	0.000857
2719.87	0.0009008
2729.52	0.0009835
2739.16	0.0010523
2748.81	0.001181
2758.45	0.001221
2768.1	0.001241
2777.74	0.001211
2787.39	0.001341
2797.03	0.001461
2806.68	0.001651
2816.32	0.002121
2825.97	0.002761
2835.61	0.003901
2845.26	0.005791
2854.9	0.009381
2864.55	0.016161
2874.19	0.027741
2883.84	0.035401
2893.48	0.027341
2903.12	0.027541
2912.77	0.031441
2922.41	0.035691
2932.06	0.041921
2941.7	0.053441
2951.35	0.068681
2960.99	0.081221
2970.64	0.080901
2980.28	0.052331
2989.93	0.028811
2999.57	0.016371
3009.22	0.010241
3018.86	0.007731
3028.51	0.007321
3038.15	0.006861
3047.8	0.007291
3057.44	0.006481
3067.09	0.006121
3076.73	0.005721
3086.38	0.006051
3096.02	0.005611
3105.67	0.004311
3115.31	0.003401
3124.95	0.002841
3134.6	0.001951
3144.24	0.001311
3153.89	0.0008198
3163.53	0.0007343
3173.18	0.0006437
3182.82	0.0005901
3192.47	0.0004887
3202.11	0.0005768
3211.76	0.0006698
3221.4	0.0004904
3231.05	0.0004341
3240.69	0.0003418
3250.34	0.0002693
3259.98	0
3269.63	0.0001177
3279.27	3.7e-05
3288.92	0.0001695
3298.56	0.00019003
3308.21	0.00014105
3317.85	0.00018463
3327.49	0.00017384
3337.14	0.0004039
3346.78	0.00017085
3356.43	0.0002444
3366.07	0.0003416
3375.72	0.0005826
3385.36	0.0008288
3395.01	0.001291
3404.65	0.002381
3414.3	0.002911
3423.94	0.003421
3433.59	0.004691
3443.23	0.006971
3452.88	0.012201
3462.52	0.014661
3472.17	0.007081
3481.81	0.002911
3491.46	0.001721
3501.1	0.0010398
3510.75	0.0007541
3520.39	0.0005556
3530.04	0.0003936
3539.68	0.0004117
3549.32	0.00019109
3558.97	9.32e-05
3568.61	0.00018774
3578.26	0.00019375
3587.9	0.0001344
3597.55	0.0003039
3607.19	0.0001204
3616.84	0.00022621
3626.48	0.00022032
3636.13	0.0003666
3645.77	0.00016573
3655.42	0.0001119
3665.06	0.0003181
3674.71	0.000160356
3684.35	0.0003548
3694	0.00016463
3703.64	0.000158855
3713.29	0.000311
3722.93	0.0002808
3732.58	0.00023825
3742.22	0.000102
3751.86	0.0003667
3761.51	0.0002651
3771.15	0.0001362
3780.8	0.0004169
3790.44	0.0002594
3800.09	0.0004099
3809.73	0.0002685
3819.38	0.0003573
3829.02	0.0002784
3838.67	0.0002634
3848.31	0.00022756
3857.96	0.0004653
3867.6	0.000287
3877.25	0.00038
3886.89	0.00019722
3896.54	0.0004029
3906.18	0.0003748
3915.83	0.0002925
3925.47	0.00017866
3935.12	0.0001356
3944.76	0.00020081
3954.41	0.0003665
3964.05	0.0004893
3973.69	0.0004984
3983.34	0.0004093
3992.98	0.0003528
