Infrared Spectrum: 2,2'-THIODIPHENOL
Formula: C12 H10 O2 S
CAS: 13693-59-9
State: SOLID (KBr PELLET)
Melting point: 132-134 C
Class: COBLENTZ
Instrument: Not specified, most likely a prism, grating, or hybrid spectrometer.
Sampling: TRANSMISSION
Resolution: 4
Origin: TENNESSEE EASTMAN COMPANY, RESEARCH LABORATORIES
MICROMETERS	TRANSMITTANCE
2.033	0.82
2.07285	0.822
2.1127	0.823
2.15255	0.825
2.19239	0.828
2.23224	0.833
2.27209	0.847
2.31194	0.857
2.35179	0.862
2.39164	0.867
2.43149	0.872
2.47133	0.877
2.51118	0.882
2.55103	0.883
2.59088	0.882
2.63073	0.882
2.67058	0.888
2.71043	0.888
2.75028	0.828
2.79012	0.777
2.82997	0.714
2.86982	0.627
2.90967	0.408
2.94952	0.141
2.98937	0.139
3.02922	0.411
3.06906	0.529
3.10891	0.609
3.14876	0.715
3.18861	0.745
3.22846	0.784
3.26831	0.742
3.30816	0.785
3.348	0.823
3.38785	0.827
3.4277	0.822
3.46755	0.847
3.5074	0.855
3.54725	0.865
3.5871	0.883
3.62694	0.89
3.66679	0.892
3.70664	0.895
3.74649	0.89
3.78634	0.885
3.82619	0.898
3.86604	0.905
3.90589	0.905
3.94573	0.89
3.98558	0.88
4.02543	0.888
4.06528	0.9
4.10513	0.898
4.14498	0.91
4.18483	0.91
4.22467	0.916
4.26452	0.913
4.30437	0.91
4.34422	0.92
4.38407	0.933
4.42392	0.941
4.46377	0.948
4.50361	0.956
4.54346	0.958
4.58331	0.958
4.62316	0.958
4.66301	0.955
4.70286	0.946
4.74271	0.953
4.78255	0.956
4.8224	0.961
4.86225	0.961
4.9021	0.961
4.94195	0.96
4.9818	0.961
5.02165	0.973
5.0615	0.966
5.10134	0.945
5.14119	0.928
5.18104	0.946
5.22089	0.9
5.26074	0.941
5.30059	0.936
5.34044	0.941
5.38028	0.95
5.42013	0.95
5.45998	0.941
5.49983	0.943
5.53968	0.935
5.57953	0.895
5.61938	0.941
5.65922	0.936
5.69907	0.94
5.73892	0.918
5.77877	0.901
5.81862	0.885
5.85847	0.883
5.89832	0.855
5.93816	0.887
5.97801	0.882
6.01786	0.882
6.05771	0.872
6.09756	0.848
6.13741	0.838
6.17726	0.812
6.21711	0.83
6.25695	0.694
6.2968	0.35
6.33665	0.235
6.3765	0.612
6.41635	0.812
6.4562	0.847
6.49605	0.855
6.53589	0.845
6.57574	0.818
6.61559	0.803
6.65544	0.495
6.69529	0.496
6.73514	0.558
6.77499	0.048
6.81483	0.294
6.85468	0.335
6.89453	0.091
6.93438	0.272
6.97423	0.636
7.01408	0.679
7.05393	0.71
7.09377	0.719
7.13362	0.722
7.17347	0.722
7.21332	0.745
7.25317	0.759
7.29302	0.742
7.33287	0.734
7.37272	0.674
7.41256	0.559
7.45241	0.315
7.49226	0.147
7.53211	0.33
7.57196	0.591
7.61181	0.694
7.65166	0.676
7.6915	0.456
7.73135	0.328
7.7712	0.109
7.81105	0.406
7.8509	0.559
7.89075	0.553
7.9306	0.571
7.97044	0.644
8.01029	0.666
8.05014	0.536
8.08999	0.403
8.12984	0.455
8.16969	0.483
8.20954	0.44
8.24938	0.3
8.28923	0.164
8.32908	0.101
8.36893	0.044
8.40878	0.019
8.44863	0.053
8.48848	0.166
8.52833	0.262
8.56817	0.335
8.60802	0.327
8.64787	0.36
8.68772	0.49
8.72757	0.586
8.76742	0.612
8.80727	0.568
8.84711	0.328
8.88696	0.299
8.92681	0.458
8.96666	0.541
9.00651	0.599
9.04636	0.627
9.08621	0.639
9.12605	0.662
9.1659	0.699
9.20575	0.709
9.2456	0.7
9.28545	0.692
9.3253	0.677
9.36515	0.647
9.40499	0.644
9.44484	0.697
9.48469	0.729
9.52454	0.75
9.56439	0.752
9.60424	0.707
9.64409	0.543
9.68394	0.431
9.72378	0.425
9.76363	0.616
9.80348	0.702
9.84333	0.732
9.88318	0.752
9.92303	0.765
9.96288	0.787
10.0027	0.797
10.0426	0.805
10.0824	0.805
10.1223	0.805
10.1621	0.803
10.202	0.8
10.2418	0.805
10.2817	0.767
10.3215	0.8
10.3614	0.828
10.4012	0.837
10.4411	0.837
10.4809	0.83
10.5208	0.802
10.5606	0.696
10.6005	0.705
10.6403	0.78
10.6802	0.815
10.72	0.828
10.7598	0.838
10.7997	0.865
10.8395	0.872
10.8794	0.875
10.9192	0.867
10.9591	0.872
10.9989	0.882
11.0388	0.898
11.0786	0.898
11.1185	0.888
11.1583	0.885
11.1982	0.895
11.238	0.901
11.2779	0.901
11.3177	0.882
11.3576	0.865
11.3974	0.872
11.4373	0.885
11.4771	0.9
11.517	0.89
11.5568	0.857
11.5967	0.818
11.6365	0.775
11.6764	0.696
11.7162	0.732
11.7561	0.732
11.7959	0.72
11.8358	0.719
11.8756	0.692
11.9155	0.647
11.9553	0.583
11.9952	0.491
12.035	0.385
12.0749	0.403
12.1147	0.554
12.1545	0.692
12.1944	0.755
12.2342	0.802
12.2741	0.828
12.3139	0.835
12.3538	0.84
12.3936	0.845
12.4335	0.853
12.4733	0.867
12.5132	0.87
12.553	0.87
12.5929	0.863
12.6327	0.855
12.6726	0.857
12.7124	0.858
12.7523	0.855
12.7921	0.842
12.832	0.82
12.8718	0.795
12.9117	0.762
12.9515	0.676
12.9914	0.526
13.0312	0.299
13.0711	0.066
13.1109	0.039
13.1508	0.043
13.1906	0.098
13.2305	0.197
13.2703	0.29
13.3102	0.375
13.35	0.445
13.3899	0.529
13.4297	0.599
13.4696	0.647
13.5094	0.659
13.5493	0.647
13.5891	0.664
13.6289	0.724
13.6688	0.747
13.7086	0.757
13.7485	0.76
13.7883	0.755
13.8282	0.725
13.868	0.7
13.9079	0.717
13.9477	0.762
13.9876	0.784
14.0274	0.797
14.0673	0.8
14.1071	0.802
14.147	0.802
14.1868	0.795
14.2267	0.785
14.2665	0.775
14.3064	0.767
14.3462	0.755
14.3861	0.747
14.4259	0.725
14.4658	0.714
14.5056	0.681
14.5455	0.646
14.5853	0.598
14.6252	0.556
14.665	0.551
14.7049	0.564
14.7447	0.581
14.7846	0.598
14.8244	0.624
14.8643	0.647
14.9041	0.664
14.944	0.667
14.9838	0.662
15.0237	0.646
15.0635	0.636
15.1033	0.629
15.1432	0.619
15.183	0.614
15.2229	0.609
15.2627	0.604
15.3026	0.601
15.3424	0.599
15.3823	0.598
15.4221	0.596
15.462	0.594
15.5018	0.593
15.5417	0.593
15.5815	0.589
15.6214	0.584
15.6612	0.583
15.7011	0.578
15.7409	0.573
15.7808	0.569
15.8206	0.566
15.8605	0.559
15.9003	0.558
15.9402	0.553
15.98	0.548
