Infrared Spectrum: N,N-Dichlorourethane
Formula: C 3 H 5 Cl 2 N O 2
CAS: 13698-16-3
State: gas
Origin: EPA-IR VAPOR PHASE LIBRARY
1/CM	ABSORBANCE
501.5	0.00298
513.074	0.00282
524.648	0.003
536.222	0.00308
547.796	0.00295
559.37	0.00261
570.944	0.00232
582.518	0.00196
594.092	0.00165
605.666	0.00124
617.24	0.00108
628.814	0.00102
640.388	0.00118
651.962	0.00118
663.536	0.0015
675.11	0.00205
686.684	0.00231
698.258	0.00252
709.832	0.00268
721.406	0.00295
732.98	0.0032
744.554	0.00388
756.128	0.00435
767.702	0.00443
779.276	0.00384
790.85	0.00313
802.423	0.00269
813.997	0.00269
825.571	0.00277
837.145	0.00265
848.719	0.00236
860.293	0.00205
871.867	0.00177
883.441	0.00152
895.015	0.0015
906.589	0.00151
918.163	0.00147
929.737	0.00137
941.311	0.00146
952.885	0.00166
964.459	0.00181
976.033	0.00183
987.607	0.00184
999.181	0.00181
1010.76	0.00195
1022.33	0.00248
1033.9	0.00439
1045.48	0.00905
1057.05	0.01584
1068.63	0.0181
1080.2	0.01379
1091.77	0.01065
1103.35	0.00953
1114.92	0.00698
1126.49	0.00511
1138.07	0.00457
1149.64	0.00574
1161.22	0.00937
1172.79	0.01878
1184.36	0.03513
1195.94	0.03833
1207.51	0.02052
1219.09	0.00938
1230.66	0.00633
1242.23	0.00536
1253.81	0.00545
1265.38	0.00687
1276.96	0.01083
1288.53	0.02039
1300.1	0.0321
1311.68	0.035
1323.25	0.02498
1334.83	0.01639
1346.4	0.01045
1357.97	0.01133
1369.55	0.01621
1381.12	0.02088
1392.7	0.01895
1404.27	0.01341
1415.84	0.00994
1427.42	0.00631
1438.99	0.00522
1450.57	0.00483
1462.14	0.00493
1473.71	0.00501
1485.29	0.00402
1496.86	0.00278
1508.44	0.00214
1520.01	0.00187
1531.58	0.00178
1543.16	0.00178
1554.73	0.00193
1566.31	0.00266
1577.88	0.00346
1589.45	0.00361
1601.03	0.00291
1612.6	0.00205
1624.18	0.00155
1635.75	0.00126
1647.32	0.00112
1658.9	0.00104
1670.47	0.00104
1682.05	0.00122
1693.62	0.00168
1705.19	0.00259
1716.77	0.00455
1728.34	0.01019
1739.92	0.0224
1751.49	0.0305
1763.06	0.03028
1774.64	0.02696
1786.21	0.02676
1797.79	0.02168
1809.36	0.0114
1820.93	0.00485
1832.51	0.0024
1844.08	0.00164
1855.66	0.00132
1867.23	0.00113
1878.8	0.00101
1890.38	0.0009375
1901.95	0.0008505
1913.53	0.0007214
1925.1	0.0006082
1936.67	0.0005533
1948.25	0.0005303
1959.82	0.0004909
1971.4	0.0004455
1982.97	0.0004175
1994.54	0.0004075
2006.12	0.000387
2017.69	0.0003988
2029.27	0.0003959
2040.84	0.0003994
2052.41	0.0004045
2063.99	0.0003901
2075.56	0.0003818
2087.14	0.000393
2098.71	0.0004136
2110.28	0.0004239
2121.86	0.0004256
2133.43	0.0004262
2145.01	0.0004979
2156.58	0.0005613
2168.15	0.0006539
2179.73	0.0007317
2191.3	0.0009823
2202.88	0.00124
2214.45	0.00165
2226.02	0.00245
2237.6	0.00346
2249.17	0.00413
2260.74	0.00373
2272.32	0.00368
2283.89	0.00479
2295.47	0.0033
2307.04	0.00134
2318.61	0.0008129
2330.19	0.0007132
2341.76	0.0006934
2353.34	0.0007157
2364.91	0.0008766
2376.48	0.0006591
2388.06	0.0003884
2399.63	0.000309
2411.21	0.0002825
2422.78	0.0002796
2434.35	0.0002803
2445.93	0.0002703
2457.5	0.0002491
2469.08	0.0002422
2480.65	0.0002264
2492.22	0.0002319
2503.8	0.0002542
2515.37	0.0002286
2526.95	0.000251
2538.52	0.0002592
2550.09	0.0002794
2561.67	0.0003216
2573.24	0.0002964
2584.82	0.0003286
2596.39	0.0003052
2607.96	0.0002929
2619.54	0.000263
2631.11	0.0002783
2642.69	0.0002537
2654.26	0.0002913
2665.83	0.0003081
2677.41	0.0003268
2688.98	0.0002809
2700.56	0.0003357
2712.13	0.0002528
2723.7	0.000336
2735.28	0.0003216
2746.85	0.000406
2758.43	0.000377
2770	0.0003918
2781.57	0.0004574
2793.15	0.0004831
2804.72	0.0005014
2816.3	0.000576
2827.87	0.0006244
2839.44	0.0007563
2851.02	0.0008651
2862.59	0.00114
2874.17	0.00152
2885.74	0.00191
2897.31	0.00225
2908.89	0.00255
2920.46	0.00286
2932.04	0.0035
2943.61	0.00457
2955.18	0.00474
2966.76	0.00511
2978.33	0.00717
2989.91	0.00815
3001.48	0.00682
3013.05	0.0043
3024.63	0.00259
3036.2	0.00155
3047.78	0.00104
3059.35	0.0008635
3070.92	0.000748
3082.5	0.0006277
3094.07	0.0005938
3105.65	0.0005247
3117.22	0.0005098
3128.79	0.0004987
3140.37	0.0004788
3151.94	0.0004634
3163.52	0.000422
3175.09	0.0004419
3186.66	0.000425
3198.24	0.0004357
3209.81	0.0004229
3221.39	0.0003996
3232.96	0.0003728
3244.53	0.0003588
3256.11	0.0003682
3267.68	0.0003455
3279.26	0.0003335
3290.83	0.0003092
3302.4	0.0003166
3313.98	0.000367
3325.55	0.0004371
3337.13	0.0004214
3348.7	0.0004402
3360.27	0.0005531
3371.85	0.0006562
3383.42	0.0007326
3395	0.0009966
3406.57	0.00173
3418.14	0.00319
3429.72	0.00569
3441.29	0.007
3452.86	0.00569
3464.44	0.00325
3476.01	0.00215
3487.59	0.00166
3499.16	0.00153
3510.73	0.00149
3522.31	0.00149
3533.88	0.00166
3545.46	0.00182
3557.03	0.00182
3568.6	0.00171
3580.18	0.00153
3591.75	0.00127
3603.33	0.000925
3614.9	0.000663
3626.47	0.0005456
3638.05	0.000556
3649.62	0.000562
3661.2	0.000555
3672.77	0.000547
3684.34	0.0005281
3695.92	0.0004372
3707.49	0.0004398
3719.07	0.0003634
3730.64	0.000391
3742.21	0.0003569
3753.79	0.0003732
3765.36	0.0003616
3776.94	0.0003208
3788.51	0.0003639
3800.08	0.0003958
3811.66	0.0003366
3823.23	0.0003539
3834.81	0.0003595
3846.38	0.0003506
3857.95	0.0003925
3869.53	0.0003436
3881.1	0.0004042
3892.68	0.0003626
3904.25	0.000392
3915.82	0.0004048
3927.4	0.0003982
3938.97	0.0003617
3950.55	0.0003399
3962.12	0.0003989
3973.69	0.0003605
3985.27	0.0003568
3996.84	0.0003835
