Infrared Spectrum: o-TOLUENETHIOL
Formula: C7 H8 S
CAS: 137-06-4
State: LIQUID (NEAT)
Melting point: 9.5-12 C
Class: COBLENTZ III
Instrument: BAIRD (GRATING)
Instrument parameters: NaCl PRISM
Sampling: TRANSMISSION
Path length: 0.003 CM
Resolution: 2
Origin: WYANDOTTE CHEMICALS CORP.
1/CM	TRANSMITTANCE
4000	0.9546
3991	0.9551
3982	0.9557
3973	0.9562
3964	0.9568
3955	0.9575
3946	0.9581
3937	0.9588
3928	0.9593
3919	0.96
3910	0.9606
3901	0.9612
3892	0.9618
3883	0.9624
3874	0.9628
3865	0.9632
3856	0.9636
3847	0.9639
3838	0.9643
3829	0.9647
3820	0.9651
3811	0.9654
3802	0.9659
3793	0.9663
3784	0.9665
3775	0.9667
3766	0.9668
3757	0.967
3748	0.9671
3739	0.9673
3730	0.9675
3721	0.9675
3712	0.9677
3703	0.9675
3694	0.9675
3685	0.9675
3676	0.9675
3667	0.9671
3658	0.966
3649	0.9649
3640	0.9637
3631	0.9621
3622	0.9592
3613	0.9562
3604	0.9532
3595	0.9503
3586	0.9474
3577	0.9444
3568	0.9425
3559	0.9406
3550	0.9391
3541	0.9384
3532	0.9377
3523	0.9378
3514	0.9388
3505	0.9397
3496	0.9407
3487	0.9418
3478	0.9428
3469	0.9442
3460	0.9446
3451	0.9448
3442	0.945
3433	0.9453
3424	0.9455
3415	0.9457
3406	0.9465
3397	0.9474
3388	0.9482
3379	0.9491
3370	0.9499
3361	0.9509
3352	0.952
3343	0.9531
3334	0.9543
3325	0.9555
3316	0.9564
3307	0.9568
3298	0.9575
3289	0.958
3280	0.9581
3271	0.9578
3262	0.9575
3253	0.9571
3244	0.9563
3235	0.9543
3226	0.9524
3217	0.9477
3208	0.9424
3199	0.9352
3190	0.9271
3181	0.9157
3172	0.9021
3163	0.8816
3154	0.8516
3145	0.7954
3136	0.7195
3127	0.6391
3118	0.5559
3109	0.4722
3100	0.4189
3091	0.4312
3082	0.4727
3073	0.515
3064	0.5349
3055	0.5232
3046	0.5181
3037	0.5249
3028	0.5209
3019	0.4889
3010	0.4672
3001	0.4638
2992	0.456
2983	0.4438
2974	0.442
2965	0.4693
2956	0.5188
2947	0.5686
2938	0.6188
2929	0.6346
2920	0.6426
2911	0.6464
2902	0.6643
2893	0.7137
2884	0.7633
2875	0.8133
2866	0.8617
2857	0.888
2848	0.9047
2839	0.9204
2830	0.9342
2821	0.9439
2812	0.9502
2803	0.9548
2794	0.9558
2785	0.955
2776	0.9538
2767	0.9527
2758	0.9538
2749	0.959
2740	0.9647
2731	0.9691
2722	0.9724
2713	0.9747
2704	0.9753
2695	0.9751
2686	0.9741
2677	0.9709
2668	0.9657
2659	0.9616
2650	0.9578
2641	0.9518
2632	0.944
2623	0.9075
2614	0.7694
2605	0.6301
2596	0.5567
2587	0.573
2578	0.6304
2569	0.6883
2560	0.7464
2551	0.805
2542	0.864
2533	0.8912
2524	0.9096
2515	0.9291
2506	0.9445
2497	0.9585
2488	0.9711
2479	0.9777
2470	0.9811
2461	0.9827
2452	0.9834
2443	0.9842
2434	0.9852
2425	0.986
2416	0.9863
2407	0.9866
2398	0.9873
2389	0.9885
2380	0.9898
2371	0.9918
2362	0.9937
2353	0.9954
2344	0.9964
2335	0.9964
2326	0.9963
2317	0.9958
2308	0.9951
2299	0.9944
2290	0.9937
2281	0.9934
2272	0.9934
2263	0.9933
2254	0.9932
2245	0.9935
2236	0.994
2227	0.9945
2218	0.9951
2209	0.9955
2200	0.9956
2191	0.9958
2182	0.9959
2173	0.9961
2164	0.9961
2155	0.996
2146	0.9959
2137	0.9959
2128	0.9958
2119	0.9957
2110	0.9957
2101	0.9958
2092	0.9959
2083	0.9959
2074	0.996
2065	0.9959
2056	0.9959
2047	0.9958
2038	0.9957
2029	0.9956
2020	0.9955
2011	0.9954
2002	0.9953
1993	0.9954
1984	0.9954
1975	0.9955
1966	0.9952
1957	0.9899
1948	0.9796
1939	0.9702
1930	0.9717
1921	0.9746
1912	0.9671
1903	0.9388
1894	0.9432
1885	0.9562
1876	0.9686
1867	0.9808
1858	0.989
1849	0.9891
1840	0.9854
1831	0.9823
1822	0.9821
1813	0.9849
1804	0.986
1795	0.9699
1786	0.9661
1777	0.9806
1768	0.9933
1759	0.9953
1750	0.9948
1741	0.9939
1732	0.988
1723	0.9833
1714	0.9839
1705	0.9844
1696	0.9815
1687	0.9778
1678	0.9815
1669	0.9887
1660	0.9907
1651	0.9875
1642	0.9759
1633	0.9328
1624	0.8439
1615	0.5224
1606	0.4674
1597	0.627
1588	0.5895
1579	0.7434
1570	0.896
1561	0.9389
1552	0.9518
1543	0.9533
1534	0.9471
1525	0.9107
1516	0.8117
1507	0.4985
1498	0.1305
1489	0.0991
1480	0.0704
1471	0.091
1462	0.1546
1453	0.1887
1444	0.3225
1435	0.5643
1426	0.7133
1417	0.7583
1408	0.7992
1399	0.8305
1390	0.4676
1381	0.7215
1372	0.8713
1363	0.9239
1354	0.9573
1345	0.9791
1336	0.9831
1327	0.9835
1318	0.9821
1309	0.9673
1300	0.9144
1291	0.7142
1282	0.6698
1273	0.8761
1264	0.8981
1255	0.8989
1246	0.9325
1237	0.9312
1228	0.9108
1219	0.8886
1210	0.7486
1201	0.9071
1192	0.9359
1183	0.9392
1174	0.9216
1165	0.8731
1156	0.8799
1147	0.885
1138	0.821
1129	0.8446
1120	0.889
1111	0.891
1102	0.9092
1093	0.8948
1084	0.7554
1075	0.1091
1066	0.3258
1057	0.6638
1048	0.237
1039	0.3693
1030	0.5188
1021	0.6691
1012	0.7161
1003	0.7975
994	0.8235
985	0.7399
976	0.845
967	0.8768
958	0.8983
949	0.9005
940	0.8488
931	0.6584
922	0.5698
913	0.5965
904	0.7207
895	0.8863
886	0.9395
877	0.9613
868	0.9546
859	0.9086
850	0.8978
841	0.9521
832	0.9762
823	0.9804
814	0.9748
805	0.952
796	0.6511
787	0.7943
778	0.8562
769	0.7374
760	0.4951
751	0.0935
742	0.0673
733	0.1512
724	0.5757
715	0.8044
706	0.8273
697	0.8641
688	0.9387
679	0.8406
670	0.6159
661	0.8727
652	0.9633
643	0.9581
634	0.9559
