Infrared Spectrum: Lidocaine
Formula: C 14 H 22 N 2 O
CAS: 137-58-6
State: gas
Instrument: HP-GC/MS/IRD
Origin: NIST Mass Spectrometry Data Center
1/CM	ABSORBANCE
550	0.0002409
562	0.0001661
574	0.0002222
586	0.0002816
598	0.0004015
610	0.0007271
622	0.0006193
634	0.0003091
646	0.0002167
658	0.0001782
670	9.13e-05
682	0.0001452
694	0.0001683
706	0.000253
718	0.0001738
730	0.0001122
742	0.0001419
754	0.0010681
766	0.0024893
778	0.0010549
790	0.0005038
802	0.0002508
814	0.0002629
826	0.0001485
838	2.64e-05
850	0
862	9.9e-06
874	3.52e-05
886	0.0001067
898	0.000198
910	0.0002167
922	0.000264
934	0.0002277
946	0.0002761
958	0.0002904
970	0.0004719
982	0.0005115
994	0.0004576
1006	0.0003586
1018	0.0003289
1030	0.0003971
1042	0.0006589
1054	0.0010472
1066	0.0015554
1078	0.0014949
1090	0.0015983
1102	0.001452
1114	0.001122
1126	0.0009196
1138	0.0008316
1150	0.0010472
1162	0.0012111
1174	0.000946
1186	0.0010428
1198	0.0019151
1210	0.0023606
1222	0.0015224
1234	0.0009075
1246	0.0008382
1258	0.0011374
1270	0.0011715
1282	0.0012067
1294	0.0013332
1306	0.0012122
1318	0.0009636
1330	0.0009592
1342	0.0010285
1354	0.0010945
1366	0.0013101
1378	0.0019778
1390	0.001947
1402	0.0013101
1414	0.0013948
1426	0.0023276
1438	0.0032967
1450	0.0050105
1462	0.0071676
1474	0.0097878
1486	0.0103081
1498	0.0057057
1510	0.0030096
1522	0.0018381
1534	0.0013178
1546	0.0009647
1558	0.0006864
1570	0.0006105
1582	0.0005918
1594	0.0005775
1606	0.0004433
1618	0.0003113
1630	0.000275
1642	0.000352
1654	0.0004235
1666	0.0006061
1678	0.0008855
1690	0.0015686
1702	0.0034518
1714	0.0084887
1726	0.0075779
1738	0.0022946
1750	0.0008998
1762	0.0005412
1774	0.0003784
1786	0.0002618
1798	0.0002046
1810	0.0001397
1822	0.0001298
1834	0.0001353
1846	0.0001485
1858	0.0001166
1870	6.82e-05
1882	7.15e-05
1894	5.5e-05
1906	0.0001045
1918	0.0001353
1930	0.0001144
1942	3.41e-05
1954	1.98e-05
1966	1.87e-05
1978	2.86e-05
1990	1.98e-05
2002	3.3e-05
2014	1.87e-05
2026	0
2038	2.42e-05
2050	1.32e-05
2062	2.97e-05
2074	1.76e-05
2086	1.87e-05
2098	2.86e-05
2110	4.18e-05
2122	3.19e-05
2134	3.08e-05
2146	3.19e-05
2158	1.43e-05
2170	9.9e-06
2182	1.98e-05
2194	2.75e-05
2206	3.08e-05
2218	4.4e-06
2230	1.32e-05
2242	2.64e-05
2254	2.86e-05
2266	3.96e-05
2278	4.51e-05
2290	4.95e-05
2302	2.86e-05
2314	4.4e-05
2326	3.96e-05
2338	7.7e-06
2350	1.87e-05
2362	2.53e-05
2374	4.07e-05
2386	4.62e-05
2398	6.16e-05
2410	8.25e-05
2422	6.27e-05
2434	7.7e-05
2446	6.6e-05
2458	7.59e-05
2470	3.96e-05
2482	3.96e-05
2494	4.4e-05
2506	6.49e-05
2518	8.58e-05
2530	6.27e-05
2542	8.14e-05
2554	8.8e-05
2566	7.92e-05
2578	0.0001045
2590	0.0001166
2602	0.0001386
2614	0.0001386
2626	0.0001375
2638	0.0001507
2650	0.0001914
2662	0.0001925
2674	0.0002398
2686	0.0002376
2698	0.0002893
2710	0.0003168
2722	0.000407
2734	0.0004719
2746	0.0004818
2758	0.0005148
2770	0.000616
2782	0.0007216
2794	0.000957
2806	0.0015565
2818	0.00253
2830	0.0029194
2842	0.0025377
2854	0.0019877
2866	0.0020196
2878	0.0023628
2890	0.0024926
2902	0.0023672
2914	0.0026587
2926	0.0034749
2938	0.0042119
2950	0.0037752
2962	0.0036432
2974	0.0061292
2986	0.0047256
2998	0.0019151
3010	0.0012606
3022	0.0012694
3034	0.0013299
3046	0.0014696
3058	0.0015917
3070	0.0013959
3082	0.000935
3094	0.0005577
3106	0.0003608
3118	0.000308
3130	0.0002398
3142	0.0002024
3154	0.0002035
3166	0.00022
3178	0.0002134
3190	0.0002013
3202	0.0002178
3214	0.0002024
3226	0.0001771
3238	0.0002244
3250	0.0002552
3262	0.000253
3274	0.0003652
3286	0.0004257
3298	0.0006281
3310	0.0006721
3322	0.0007579
3334	0.0009328
3346	0.0013783
3358	0.0020372
3370	0.001804
3382	0.0010868
3394	0.0007656
3406	0.0005654
3418	0.0004213
3430	0.0003278
3442	0.0002684
3454	0.0001617
3466	8.47e-05
3478	0.0001078
3490	9.24e-05
3502	8.91e-05
3514	8.36e-05
3526	5.61e-05
3538	1.87e-05
3550	5.06e-05
3562	5.83e-05
3574	9.02e-05
3586	3.96e-05
3598	5.39e-05
3610	3.3e-06
3622	4.07e-05
3634	4.51e-05
3646	4.07e-05
3658	2.64e-05
3670	2.97e-05
3682	4.84e-05
3694	2.64e-05
3706	4.84e-05
3718	5.83e-05
3730	8.25e-05
3742	6.27e-05
3754	4.4e-06
3766	2.75e-05
3778	4.84e-05
3790	8.8e-05
3802	5.17e-05
3814	7.59e-05
3826	8.47e-05
3838	6.71e-05
