Infrared Spectrum: 2,4-Dinonylphenol
Formula: C 24 H 42 O
CAS: 137-99-5
State: gas
Origin: EPA-IR VAPOR PHASE LIBRARY
1/CM	ABSORBANCE
501.5	0.0003712
513.074	0.0004827
524.648	0.0003821
536.222	0.0003219
547.796	0.0002882
559.37	0.0003055
570.944	0.0002955
582.518	0.0002587
594.092	0.0001939
605.666	0.0002282
617.24	0.0001559
628.814	5.749e-06
640.388	0.0004018
651.962	0.000494
663.536	0.0004031
675.11	0.0003342
686.684	0.0002674
698.258	0.0002684
709.832	0.0003434
721.406	0.0005611
732.98	0.0006579
744.554	0.0006924
756.128	0.0007698
767.702	0.0007114
779.276	0.00102
790.85	0.00116
802.423	0.00225
813.997	0.00176
825.571	0.00124
837.145	0.0006466
848.719	0.0003701
860.293	0.0003951
871.867	0.0004094
883.441	0.0007703
895.015	0.0007941
906.589	0.0007303
918.163	0.0005934
929.737	0.0005072
941.311	0.0005261
952.885	0.0004373
964.459	0.0004411
976.033	0.0004765
987.607	0.0004591
999.181	0.0006224
1010.76	0.0007611
1022.33	0.0007201
1033.9	0.0006718
1045.48	0.0007207
1057.05	0.0008491
1068.63	0.00132
1080.2	0.00165
1091.77	0.0018
1103.35	0.00169
1114.92	0.00195
1126.49	0.00264
1138.07	0.00258
1149.64	0.00305
1161.22	0.00423
1172.79	0.00484
1184.36	0.00466
1195.94	0.004
1207.51	0.00317
1219.09	0.00271
1230.66	0.00281
1242.23	0.00388
1253.81	0.00426
1265.38	0.00315
1276.96	0.00258
1288.53	0.0021
1300.1	0.00203
1311.68	0.0026
1323.25	0.0031
1334.83	0.00226
1346.4	0.00185
1357.97	0.00217
1369.55	0.00338
1381.12	0.00441
1392.7	0.00328
1404.27	0.00234
1415.84	0.00199
1427.42	0.00139
1438.99	0.0018
1450.57	0.00319
1462.14	0.00513
1473.71	0.00512
1485.29	0.00429
1496.86	0.00671
1508.44	0.00502
1520.01	0.0017
1531.58	0.0009641
1543.16	0.0007727
1554.73	0.0006151
1566.31	0.0005605
1577.88	0.0006109
1589.45	0.0006867
1601.03	0.0008129
1612.6	0.0007324
1624.18	0.0004565
1635.75	0.0003819
1647.32	0.0003556
1658.9	0.0003539
1670.47	0.0003601
1682.05	0.0003548
1693.62	0.0003447
1705.19	0.0003016
1716.77	0.0002988
1728.34	0.0003029
1739.92	0.0002671
1751.49	0.0003174
1763.06	0.0002731
1774.64	0.0002355
1786.21	0.0002212
1797.79	0.000219
1809.36	0.0002081
1820.93	0.0002179
1832.51	0.000238
1844.08	0.0002683
1855.66	0.0002551
1867.23	0.0002319
1878.8	0.0002131
1890.38	0.0001962
1901.95	0.0001531
1913.53	0.0001359
1925.1	0.0001226
1936.67	0.0001287
1948.25	0.0001293
1959.82	0.0001247
1971.4	0.0001154
1982.97	0.0001127
1994.54	0.0001154
2006.12	0.0001188
2017.69	0.0001319
2029.27	0.0001154
2040.84	0.0001266
2052.41	0.0001165
2063.99	0.0001164
2075.56	0.0001266
2087.14	0.0001017
2098.71	0.0001369
2110.28	0.0001233
2121.86	9.85e-05
2133.43	0.000117
2145.01	0.0001182
2156.58	0.0001188
2168.15	0.0001197
2179.73	0.0001158
2191.3	0.0001018
2202.88	9.46e-05
2214.45	9.006e-05
2226.02	9.11e-05
2237.6	0.0001512
2249.17	0.0001463
2260.74	0.0001364
2272.32	0.0001329
2283.89	0.0001802
2295.47	0.0001479
2307.04	0.0001966
2318.61	0.0002423
2330.19	0.0002592
2341.76	0.0002507
2353.34	0.0002878
2364.91	0.000244
2376.48	0.0002181
2388.06	0.0002047
2399.63	0.0002194
2411.21	0.000216
2422.78	0.0002316
2434.35	0.0001961
2445.93	0.0001966
2457.5	0.0002203
2469.08	0.0001874
2480.65	0.0002169
2492.22	0.0002495
2503.8	0.0002728
2515.37	0.0002315
2526.95	0.0002224
2538.52	0.0002324
2550.09	0.0002259
2561.67	0.0002833
2573.24	0.0002857
2584.82	0.0003141
2596.39	0.0003137
2607.96	0.0003498
2619.54	0.0003353
2631.11	0.0003439
2642.69	0.0004148
2654.26	0.0003743
2665.83	0.0004186
2677.41	0.0004166
2688.98	0.0004305
2700.56	0.0004355
2712.13	0.0005128
2723.7	0.0005624
2735.28	0.0006794
2746.85	0.0006732
2758.43	0.0006295
2770	0.0006889
2781.57	0.0007854
2793.15	0.0008886
2804.72	0.00103
2816.3	0.0013
2827.87	0.0017
2839.44	0.00249
2851.02	0.00443
2862.59	0.00756
2874.17	0.01093
2885.74	0.01257
2897.31	0.01093
2908.89	0.01293
2920.46	0.01669
2932.04	0.021
2943.61	0.0211
2955.18	0.02167
2966.76	0.03164
2978.33	0.01984
2989.91	0.00833
3001.48	0.00412
3013.05	0.00283
3024.63	0.00242
3036.2	0.00187
3047.78	0.00164
3059.35	0.00156
3070.92	0.00148
3082.5	0.00118
3094.07	0.00101
3105.65	0.0008406
3117.22	0.000792
3128.79	0.0006548
3140.37	0.000538
3151.94	0.0005764
3163.52	0.0005522
3175.09	0.0005196
3186.66	0.0005618
3198.24	0.0004472
3209.81	0.0003377
3221.39	0.0003055
3232.96	0.0002744
3244.53	0.0002806
3256.11	0.0002463
3267.68	0.0002863
3279.26	0.0002599
3290.83	0.0003473
3302.4	0.0002758
3313.98	0.0003026
3325.55	0.0003088
3337.13	0.0002698
3348.7	0.0002969
3360.27	0.0002998
3371.85	0.0002858
3383.42	0.0002893
3395	0.0003593
3406.57	0.000342
3418.14	0.0003045
3429.72	0.0003445
3441.29	0.0002522
3452.86	0.0002558
3464.44	0.0002849
3476.01	0.0003223
3487.59	0.0002516
3499.16	0.0002616
3510.73	0.0002727
3522.31	0.0003017
3533.88	0.000188
3545.46	0.000252
3557.03	0.000233
3568.6	0.0002649
3580.18	0.0002111
3591.75	0.0003087
3603.33	0.0003337
3614.9	0.0005012
3626.47	0.0009486
3638.05	0.00338
3649.62	0.00421
3661.2	0.00138
3672.77	0.0007462
3684.34	0.0005029
3695.92	0.0004006
3707.49	0.0003358
3719.07	0.0003297
3730.64	0.0002585
3742.21	0.0003949
3753.79	0.0003502
3765.36	0.000198
3776.94	0.000296
3788.51	0.0002621
3800.08	0.0002997
3811.66	0.0003715
3823.23	0.0003374
3834.81	0.0003756
3846.38	0.0003129
3857.95	0.0003966
3869.53	0.000402
3881.1	0.000373
3892.68	0.0003422
3904.25	0.0003049
3915.82	0.0002758
3927.4	0.0004273
3938.97	0.0003281
3950.55	0.0002713
3962.12	0.0003204
3973.69	0.0002245
3985.27	0.0003292
3996.84	0.0003321
