Infrared Spectrum: 2-CYANOACRYLIC ACID, METHYL ESTER
Formula: C5 H5 N O2
CAS: 137-05-3
Boiling point: 55 C AT 2 mmHg
Class: COBLENTZ
Instrument: Not specified, most likely a prism, grating, or hybrid spectrometer.
Sampling: TRANSMISSION
Resolution: 4
Origin: TENNESSEE EASTMAN COMPANY, RESEARCH LABORATORIES
MICROMETERS	TRANSMITTANCE
2.027	0.917
2.06804	0.924
2.10907	0.931
2.15011	0.935
2.19114	0.938
2.23218	0.936
2.27321	0.936
2.31425	0.938
2.35528	0.938
2.39632	0.938
2.43735	0.938
2.47839	0.94
2.51943	0.943
2.56046	0.943
2.6015	0.943
2.64253	0.945
2.68357	0.948
2.7246	0.945
2.76564	0.943
2.80667	0.941
2.84771	0.941
2.88874	0.936
2.92978	0.926
2.97081	0.926
3.01185	0.928
3.05289	0.928
3.09392	0.928
3.13496	0.928
3.17599	0.926
3.21703	0.9
3.25806	0.871
3.2991	0.894
3.34013	0.839
3.38117	0.8
3.4222	0.844
3.46324	0.885
3.50428	0.902
3.54531	0.931
3.58635	0.943
3.62738	0.948
3.66842	0.948
3.70945	0.948
3.75049	0.952
3.79152	0.953
3.83256	0.953
3.87359	0.952
3.91463	0.953
3.95566	0.95
3.9967	0.95
4.03774	0.95
4.07877	0.95
4.11981	0.948
4.16084	0.948
4.20188	0.948
4.24291	0.941
4.28395	0.931
4.32498	0.933
4.36602	0.938
4.40705	0.941
4.44809	0.938
4.48913	0.83
4.53016	0.928
4.5712	0.931
4.61223	0.931
4.65327	0.933
4.6943	0.929
4.73534	0.928
4.77637	0.926
4.81741	0.924
4.85844	0.929
4.89948	0.928
4.94051	0.924
4.98155	0.914
5.02259	0.912
5.06362	0.902
5.10466	0.902
5.14569	0.912
5.18673	0.926
5.22776	0.929
5.2688	0.929
5.30983	0.928
5.35087	0.928
5.3919	0.929
5.43294	0.919
5.47398	0.921
5.51501	0.909
5.55605	0.873
5.59708	0.851
5.63812	0.829
5.67915	0.714
5.72019	0.135
5.76122	0.126
5.80226	0.355
5.84329	0.646
5.88433	0.753
5.92536	0.813
5.9664	0.837
6.00744	0.854
6.04847	0.863
6.08951	0.858
6.13054	0.868
6.17158	0.863
6.21261	0.758
6.25365	0.839
6.29468	0.9
6.33572	0.914
6.37675	0.921
6.41779	0.919
6.45883	0.921
6.49986	0.917
6.5409	0.917
6.58193	0.909
6.62297	0.909
6.664	0.921
6.70504	0.917
6.74607	0.909
6.78711	0.852
6.82814	0.796
6.86918	0.697
6.91022	0.509
6.95125	0.415
6.99229	0.707
7.03332	0.811
7.07436	0.847
7.11539	0.841
7.15643	0.75
7.19746	0.478
7.2385	0.608
7.27953	0.793
7.32057	0.854
7.3616	0.859
7.40264	0.847
7.44368	0.82
7.48471	0.683
7.52575	0.446
7.56678	0.564
7.60782	0.613
7.64885	0.635
7.68989	0.382
7.73092	0.189
7.77196	0.3
7.81299	0.552
7.85403	0.634
7.89507	0.726
7.9361	0.81
7.97714	0.829
8.01817	0.841
8.05921	0.839
8.10024	0.811
8.14128	0.779
8.18231	0.702
8.22335	0.502
8.26438	0.357
8.30542	0.343
8.34645	0.393
8.38749	0.495
8.42853	0.591
8.46956	0.576
8.5106	0.381
8.55163	0.314
8.59267	0.305
8.6337	0.391
8.67474	0.558
8.71577	0.695
8.75681	0.764
8.79784	0.815
8.83888	0.829
8.87992	0.841
8.92095	0.847
8.96199	0.859
9.00302	0.87
9.04406	0.88
9.08509	0.885
9.12613	0.89
9.16716	0.895
9.2082	0.899
9.24923	0.902
9.29027	0.902
9.3313	0.905
9.37234	0.909
9.41338	0.909
9.45441	0.916
9.49545	0.899
9.53648	0.905
9.57752	0.897
9.61855	0.899
9.65959	0.894
9.70062	0.899
9.74166	0.897
9.78269	0.902
9.82373	0.887
9.86477	0.883
9.9058	0.832
9.94684	0.806
9.98787	0.723
10.0289	0.646
10.0699	0.55
10.111	0.507
10.152	0.511
10.193	0.582
10.2341	0.688
10.2751	0.76
10.3162	0.844
10.3572	0.864
10.3982	0.88
10.4393	0.926
10.4803	0.919
10.5213	0.936
10.5624	0.94
10.6034	0.936
10.6444	0.952
10.6855	0.947
10.7265	0.947
10.7675	0.952
10.8086	0.941
10.8496	0.95
10.8907	0.938
10.9317	0.929
10.9727	0.904
11.0138	0.852
11.0548	0.888
11.0958	0.88
11.1369	0.883
11.1779	0.907
11.2189	0.917
11.26	0.958
11.301	0.96
11.342	0.955
11.3831	0.976
11.4241	0.962
11.4651	0.958
11.5062	0.981
11.5472	0.969
11.5883	0.967
11.6293	0.977
11.6703	0.955
11.7114	0.958
11.7524	0.965
11.7934	0.95
11.8345	0.957
11.8755	0.965
11.9165	0.948
11.9576	0.957
11.9986	0.967
12.0396	0.948
12.0807	0.943
12.1217	0.933
12.1627	0.9
12.2038	0.897
12.2448	0.878
12.2859	0.743
12.3269	0.67
12.3679	0.67
12.409	0.63
12.45	0.598
12.491	0.678
12.5321	0.829
12.5731	0.858
12.6141	0.887
12.6552	0.931
12.6962	0.929
12.7372	0.929
12.7783	0.947
12.8193	0.947
12.8604	0.935
12.9014	0.941
12.9424	0.955
12.9835	0.941
13.0245	0.94
13.0655	0.957
13.1066	0.95
13.1476	0.936
13.1886	0.945
13.2297	0.955
13.2707	0.941
13.3117	0.933
13.3528	0.947
13.3938	0.95
13.4348	0.936
13.4759	0.931
13.5169	0.94
13.558	0.947
13.599	0.929
13.64	0.916
13.6811	0.926
13.7221	0.933
13.7631	0.909
13.8042	0.875
13.8452	0.868
13.8862	0.851
13.9273	0.81
13.9683	0.789
14.0093	0.788
14.0504	0.808
14.0914	0.83
14.1324	0.837
14.1735	0.847
14.2145	0.873
14.2556	0.909
14.2966	0.912
14.3376	0.907
14.3787	0.9
14.4197	0.9
14.4607	0.911
14.5018	0.914
14.5428	0.905
14.5838	0.899
14.6249	0.9
14.6659	0.904
14.7069	0.902
14.748	0.897
14.789	0.887
14.8301	0.885
14.8711	0.887
14.9121	0.885
14.9532	0.868
14.9942	0.852
15.0352	0.849
15.0763	0.844
15.1173	0.835
15.1583	0.83
15.1994	0.825
15.2404	0.827
15.2814	0.83
15.3225	0.832
15.3635	0.832
15.4045	0.832
15.4456	0.832
15.4866	0.832
15.5277	0.83
15.5687	0.829
15.6097	0.823
15.6508	0.82
15.6918	0.815
15.7328	0.811
15.7739	0.808
15.8149	0.806
15.8559	0.808
15.897	0.823
15.938	0.81
15.979	0.806
