Infrared Spectrum: SARCOSINE, N-LAUROYL-, SODIUM SALT
Formula: C15 H28 Na N O3  * x H2 O
CAS: 137-16-6
State: SOLUTION (CCl4 FOR 2-9.2, CS2 FOR 9.2-16 MICRON)
Class: COBLENTZ III
Instrument: BAIRD (PRISM)
Instrument parameters: NaCl PRISM
Sampling: TRANSMISSION
Path length: 0.010 CM, 0.010 CM
Resolution: 2
Origin: WYANDOTTE CHEMICALS CORP.
MICROMETERS	TRANSMITTANCE
2.056	0.99
2.09512	0.991
2.13424	0.977
2.17336	0.964
2.21249	0.95
2.25161	0.947
2.29073	0.944
2.32985	0.939
2.36897	0.948
2.40809	0.948
2.44722	0.949
2.48634	0.952
2.52546	0.954
2.56458	0.965
2.6037	0.966
2.64282	0.964
2.68194	0.942
2.72107	0.889
2.76019	0.801
2.79931	0.674
2.83843	0.511
2.87755	0.328
2.91667	0.263
2.95579	0.431
2.99492	0.498
3.03404	0.532
3.07316	0.503
3.11228	0.495
3.1514	0.599
3.19052	0.661
3.22965	0.699
3.26877	0.706
3.30789	0.616
3.34701	0.204
3.38613	0.084
3.42525	0.285
3.46437	0.249
3.5035	0.419
3.54262	0.761
3.58174	0.847
3.62086	0.888
3.65998	0.888
3.6991	0.906
3.73823	0.915
3.77735	0.927
3.81647	0.928
3.85559	0.932
3.89471	0.933
3.93383	0.937
3.97295	0.945
4.01208	0.948
4.0512	0.949
4.09032	0.944
4.12944	0.936
4.16856	0.942
4.20768	0.942
4.2468	0.937
4.28593	0.95
4.32505	0.96
4.36417	0.961
4.40329	0.938
4.44241	0.928
4.48153	0.929
4.52066	0.942
4.55978	0.944
4.5989	0.954
4.63802	0.96
4.67714	0.959
4.71626	0.965
4.75538	0.969
4.79451	0.979
4.83363	0.981
4.87275	0.972
4.91187	0.97
4.95099	0.971
4.99011	0.969
5.02924	0.974
5.06836	0.977
5.10748	0.977
5.1466	0.975
5.18572	0.969
5.22484	0.961
5.26396	0.96
5.30309	0.961
5.34221	0.963
5.38133	0.976
5.42045	0.979
5.45957	0.97
5.49869	0.965
5.53781	0.952
5.57694	0.94
5.61606	0.931
5.65518	0.933
5.6943	0.917
5.73342	0.896
5.77254	0.848
5.81167	0.81
5.85079	0.741
5.88991	0.66
5.92903	0.462
5.96815	0.375
6.00727	0.295
6.04639	0.087
6.08552	0.039
6.12464	0.055
6.16376	0.033
6.20288	0.098
6.242	0.154
6.28112	0.168
6.32024	0.108
6.35937	0.153
6.39849	0.263
6.43761	0.324
6.47673	0.41
6.51585	0.471
6.55497	0.546
6.5941	0.495
6.63322	0.344
6.67234	0.271
6.71146	0.341
6.75058	0.225
6.7897	0.25
6.82882	0.327
6.86795	0.372
6.90707	0.4
6.94619	0.301
6.98531	0.186
7.02443	0.147
7.06355	0.136
7.10268	0.19
7.1418	0.141
7.18092	0.354
7.22004	0.48
7.25916	0.602
7.29828	0.642
7.3374	0.691
7.37653	0.712
7.41565	0.667
7.45477	0.682
7.49389	0.702
7.53301	0.52
7.57213	0.479
7.61125	0.603
7.65038	0.639
7.6895	0.611
7.72862	0.501
7.76774	0.45
7.80686	0.602
7.84598	0.658
7.88511	0.701
7.92423	0.728
7.96335	0.741
8.00247	0.766
8.04159	0.776
8.08071	0.792
8.11983	0.804
8.15896	0.803
8.19808	0.804
8.2372	0.784
8.27632	0.73
8.31544	0.646
8.35456	0.691
8.39369	0.741
8.43281	0.803
8.47193	0.811
8.51105	0.821
8.55017	0.82
8.58929	0.822
8.62841	0.822
8.66754	0.805
8.70666	0.788
8.74578	0.735
8.7849	0.653
8.82402	0.619
8.86314	0.702
8.90226	0.729
8.94139	0.726
8.98051	0.67
9.01963	0.498
9.05875	0.489
9.09787	0.64
9.13699	0.688
9.17612	0.688
9.21524	0.688
9.25436	0.69
9.29348	0.686
9.3326	0.574
9.37172	0.585
9.41084	0.713
9.44997	0.74
9.48909	0.74
9.52821	0.725
9.56733	0.717
9.60645	0.771
9.64557	0.795
9.6847	0.744
9.72382	0.651
9.76294	0.58
9.80206	0.403
9.84118	0.323
9.8803	0.356
9.91942	0.461
9.95855	0.603
9.99767	0.701
10.0368	0.751
10.0759	0.769
10.115	0.825
10.1542	0.881
10.1933	0.912
10.2324	0.922
10.2715	0.921
10.3106	0.902
10.3498	0.867
10.3889	0.859
10.428	0.876
10.4671	0.863
10.5062	0.783
10.5454	0.563
10.5845	0.424
10.6236	0.747
10.6627	0.89
10.7019	0.92
10.741	0.955
10.7801	0.956
10.8192	0.843
10.8583	0.8
10.8975	0.789
10.9366	0.602
10.9757	0.467
11.0148	0.547
11.0539	0.712
11.0931	0.824
11.1322	0.872
11.1713	0.905
11.2104	0.883
11.2496	0.824
11.2887	0.813
11.3278	0.819
11.3669	0.729
11.406	0.574
11.4452	0.583
11.4843	0.703
11.5234	0.772
11.5625	0.843
11.6016	0.901
11.6408	0.91
11.6799	0.922
11.719	0.928
11.7581	0.894
11.7973	0.868
11.8364	0.864
11.8755	0.87
11.9146	0.863
11.9537	0.872
11.9929	0.883
12.032	0.881
12.0711	0.874
12.1102	0.859
12.1494	0.841
12.1885	0.815
12.2276	0.79
12.2667	0.745
12.3058	0.702
12.345	0.642
12.3841	0.58
12.4232	0.507
12.4623	0.514
12.5014	0.568
12.5406	0.61
12.5797	0.638
12.6188	0.644
12.6579	0.65
12.6971	0.605
12.7362	0.573
12.7753	0.521
12.8144	0.464
12.8535	0.399
12.8927	0.338
12.9318	0.302
12.9709	0.287
13.01	0.302
13.0491	0.307
13.0883	0.298
13.1274	0.28
13.1665	0.265
13.2056	0.253
13.2448	0.232
13.2839	0.222
13.323	0.205
13.3621	0.198
13.4012	0.195
13.4404	0.206
13.4795	0.217
13.5186	0.215
13.5577	0.201
13.5968	0.193
13.636	0.178
13.6751	0.159
13.7142	0.136
13.7533	0.119
13.7925	0.095
13.8316	0.084
13.8707	0.076
13.9098	0.078
13.9489	0.088
13.9881	0.088
14.0272	0.089
14.0663	0.091
14.1054	0.092
14.1445	0.094
14.1837	0.105
14.2228	0.116
14.2619	0.121
14.301	0.13
14.3402	0.153
14.3793	0.161
14.4184	0.178
14.4575	0.185
14.4966	0.201
14.5358	0.206
14.5749	0.215
14.614	0.221
14.6531	0.225
14.6922	0.226
14.7314	0.226
14.7705	0.227
14.8096	0.223
14.8487	0.223
14.8879	0.223
14.927	0.221
14.9661	0.237
15.0052	0.264
15.0443	0.316
15.0835	0.318
15.1226	0.274
15.1617	0.263
15.2008	0.264
15.24	0.282
15.2791	0.303
15.3182	0.325
15.3573	0.344
15.3964	0.351
15.4356	0.365
15.4747	0.396
15.5138	0.402
15.5529	0.418
15.592	0.429
15.6312	0.441
15.6703	0.46
15.7094	0.482
15.7485	0.498
15.7877	0.505
15.8268	0.527
15.8659	0.544
15.905	0.554
15.9441	0.568
15.9833	0.58
