Infrared Spectrum: 2,5-Dimethyl-p-benzoquinone
Formula: C 8 H 8 O 2
CAS: 137-18-8
State: gas
Instrument: HP-GC/MS/IRD
Origin: NIST Mass Spectrometry Data Center
1/CM	ABSORBANCE
550	0.0002212
562	0.0001106
574	3.16e-05
586	0
598	3.16e-05
610	9.48e-05
622	0.0002054
634	0.0002844
646	0.0008216
658	0.0020224
670	0.0017538
682	0.0010586
694	0.0015326
706	0.001975
718	0.0013588
730	0.000711
742	0.0005056
754	0.0005056
766	0.000948
778	0.0029704
790	0.003871
802	0.002133
814	0.0007426
826	0.0007742
838	0.0008532
850	0.00079
862	0.0006952
874	0.0009164
886	0.0032548
898	0.0123082
910	0.0254854
922	0.0121502
934	0.0031442
946	0.0010744
958	0.0009006
970	0.0012324
982	0.0026544
994	0.0079474
1006	0.008769
1018	0.0036498
1030	0.0024174
1042	0.002212
1054	0.001738
1066	0.00158
1078	0.0018644
1090	0.0017064
1102	0.0013746
1114	0.0015326
1126	0.0033022
1138	0.014141
1150	0.022515
1162	0.012798
1174	0.006162
1186	0.0034602
1198	0.0027808
1210	0.005372
1222	0.0184702
1234	0.0396422
1246	0.0323426
1258	0.008927
1270	0.0066834
1282	0.0057354
1294	0.0026228
1306	0.0023542
1318	0.0057828
1330	0.015089
1342	0.0183122
1354	0.0112338
1366	0.0081054
1378	0.010665
1390	0.0097012
1402	0.00474
1414	0.0044714
1426	0.0064622
1438	0.0085952
1450	0.0076472
1462	0.0049138
1474	0.0024174
1486	0.0018328
1498	0.001659
1510	0.0016748
1522	0.0020066
1534	0.002449
1546	0.0027966
1558	0.002844
1570	0.0028598
1582	0.003713
1594	0.007821
1606	0.0201766
1618	0.0300832
1630	0.0232892
1642	0.0181068
1654	0.0419016
1666	0.13569
1678	0.149168
1690	0.0431024
1702	0.0109494
1714	0.0053404
1726	0.0045504
1738	0.003634
1750	0.0029388
1762	0.0023068
1774	0.0016748
1786	0.0010902
1798	0.0007268
1810	0.0006478
1822	0.0006794
1834	0.0006004
1846	0.000553
1858	0.0004582
1870	0.000395
1882	0.0003476
1894	0.000316
1906	0.0002686
1918	0.000237
1930	0.0003002
1942	0.0003634
1954	0.000395
1966	0.0003792
1978	0.0004582
1990	0.000474
2002	0.0003634
2014	0.0002212
2026	0.0002212
2038	0.000237
2050	0.000237
2062	0.000237
2074	0.0003002
2086	0.000316
2098	0.000316
2110	0.0002054
2122	0.000237
2134	0.000395
2146	0.0005372
2158	0.0004266
2170	0.0001896
2182	0.0001106
2194	6.32e-05
2206	9.48e-05
2218	0.0001106
2230	0.000158
2242	0.0001264
2254	0.0001106
2266	0.0001106
2278	0.0001106
2290	0.0001422
2302	0.0002686
2314	0.0003318
2326	0.000316
2338	0.000237
2350	0.0002212
2362	0.000158
2374	0.000158
2386	0.0001896
2398	0.0001738
2410	0.0001896
2422	0.0002212
2434	0.0002054
2446	0.0002844
2458	0.0002844
2470	0.0002528
2482	0.0001106
2494	7.9e-05
2506	9.48e-05
2518	0.0001422
2530	0.0003002
2542	0.0003318
2554	0.0002528
2566	0.0001422
2578	0.0001422
2590	0.0002054
2602	0.0001896
2614	0.0001264
2626	0.0001106
2638	0.0001106
2650	7.9e-05
2662	1.58e-05
2674	4.74e-05
2686	7.9e-05
2698	0.000158
2710	0.0001106
2722	0.0001106
2734	0.000158
2746	0.0002212
2758	0.0002528
2770	0.0002212
2782	0.000316
2794	0.0003792
2806	0.0004108
2818	0.000553
2830	0.0007268
2842	0.0011218
2854	0.001975
2866	0.002291
2878	0.0022278
2890	0.0023858
2902	0.002212
2914	0.0024964
2926	0.0063674
2938	0.009717
2950	0.006004
2962	0.0043766
2974	0.0061462
2986	0.006636
2998	0.0060356
3010	0.0037762
3022	0.0024648
3034	0.0035234
3046	0.0047716
3058	0.0035708
3070	0.0015958
3082	0.0012324
3094	0.0009796
3106	0.0007268
3118	0.0005214
3130	0.0003792
3142	0.0002528
3154	0.000237
3166	0.000158
3178	0.0001738
3190	0.0001738
3202	0.0001896
3214	0.000237
3226	0.0003318
3238	0.0004424
3250	0.0005056
3262	0.0006794
3274	0.0011376
3286	0.0021172
3298	0.0029862
3310	0.0025122
3322	0.0019908
3334	0.002212
3346	0.0016906
3358	0.0007426
3370	0.0004266
3382	0.0001896
3394	0.0001106
3406	7.9e-05
3418	6.32e-05
3430	4.74e-05
3442	4.74e-05
3454	4.74e-05
3466	4.74e-05
3478	1.58e-05
3490	0
3502	3.16e-05
3514	1.58e-05
3526	6.32e-05
3538	6.32e-05
3550	4.74e-05
3562	3.16e-05
3574	0
3586	1.58e-05
3598	3.16e-05
3610	1.58e-05
3622	3.16e-05
3634	0
3646	6.32e-05
3658	7.9e-05
3670	3.16e-05
3682	7.9e-05
3694	6.32e-05
3706	1.58e-05
3718	9.48e-05
3730	4.74e-05
3742	0.0001106
3754	0.0001422
3766	0.000158
3778	7.9e-05
3790	9.48e-05
3802	9.48e-05
3814	1.58e-05
3826	0.0001264
3838	9.48e-05
