Infrared Spectrum: THIOUREA, 1,3-DI-o-TOLYL-
Formula: C15 H16 N2 S
CAS: 137-97-3
State: SOLID (SPLIT MULL)
Class: COBLENTZ III
Instrument: DOW KBr FOREPRISM-GRATING
Instrument parameters: BLAZED AT 3.5, 12.0, 20.0 MICRON AND CHANGED AT 5.0, 7.5, 14.9 MICRON
Sampling: TRANSMISSION
Resolution: 2
Origin: DOW CHEMICAL COMPANY
1/CM	TRANSMITTANCE
3802	0.8253
3793	0.8259
3784	0.8266
3775	0.8271
3766	0.8278
3757	0.8301
3748	0.837
3739	0.8405
3730	0.8393
3721	0.8371
3712	0.8357
3703	0.8342
3694	0.8321
3685	0.8318
3676	0.8375
3667	0.8403
3658	0.8378
3649	0.8378
3640	0.8403
3631	0.84
3622	0.8402
3613	0.841
3604	0.8415
3595	0.8423
3586	0.8417
3577	0.8392
3568	0.8425
3559	0.8445
3550	0.8439
3541	0.8448
3532	0.8461
3523	0.8471
3514	0.8483
3505	0.8493
3496	0.8497
3487	0.8501
3478	0.8505
3469	0.8506
3460	0.8513
3451	0.853
3442	0.8548
3433	0.8564
3424	0.8578
3415	0.8587
3406	0.8595
3397	0.8612
3388	0.8621
3379	0.8621
3370	0.8608
3361	0.8577
3352	0.7664
3343	0.3212
3334	0.4539
3325	0.7894
3316	0.8235
3307	0.8288
3298	0.8307
3289	0.8309
3280	0.8286
3271	0.8091
3262	0.8139
3253	0.8058
3244	0.7964
3235	0.7856
3226	0.7738
3217	0.7588
3208	0.7361
3199	0.7065
3190	0.6591
3181	0.5866
3172	0.5098
3163	0.4546
3154	0.4155
3145	0.4044
3136	0.4108
3127	0.4268
3118	0.457
3109	0.4847
3100	0.517
3091	0.5616
3082	0.5903
3073	0.6176
3064	0.6389
3055	0.6585
3046	0.6808
3037	0.6901
3028	0.6769
3019	0.6528
3010	0.6497
3001	0.6472
2992	0.6415
2983	0.5968
2974	0.5662
2965	0.5548
2956	0.5138
2947	0.541
2938	0.5898
2929	0.6292
2920	0.6678
2911	0.7115
2902	0.743
2893	0.7595
2884	0.766
2875	0.7694
2866	0.7707
2857	0.7746
2848	0.7869
2839	0.7996
2830	0.811
2821	0.8161
2812	0.8184
2803	0.82
2794	0.8254
2785	0.8311
2776	0.8317
2767	0.8318
2758	0.8318
2749	0.8325
2740	0.8345
2731	0.837
2722	0.8398
2713	0.8435
2704	0.8471
2695	0.8512
2686	0.8556
2677	0.8608
2668	0.8648
2659	0.8683
2650	0.8694
2641	0.8705
2632	0.871
2623	0.8715
2614	0.872
2605	0.8727
2596	0.8736
2587	0.8745
2578	0.875
2569	0.8752
2560	0.8756
2551	0.8758
2542	0.8762
2533	0.8765
2524	0.8768
2515	0.8771
2506	0.8775
2497	0.8778
2488	0.878
2479	0.8778
2470	0.8771
2461	0.8764
2452	0.8762
2443	0.8763
2434	0.8763
2425	0.876
2416	0.8758
2407	0.8759
2398	0.876
2389	0.8762
2380	0.8821
2371	0.8907
2362	0.8978
2353	0.8901
2344	0.8791
2335	0.8789
2326	0.877
2317	0.8754
2308	0.8744
2299	0.8737
2290	0.8737
2281	0.8736
2272	0.8737
2263	0.8737
2254	0.8744
2245	0.8753
2236	0.8763
2227	0.8771
2218	0.8778
2209	0.8785
2200	0.8792
2191	0.8799
2182	0.8807
2173	0.8814
2164	0.882
2155	0.8825
2146	0.8831
2137	0.8832
2128	0.8833
2119	0.8834
2110	0.8844
2101	0.8854
2092	0.8868
2083	0.8888
2074	0.8897
2065	0.8897
2056	0.8903
2047	0.8908
2038	0.8911
2029	0.8915
2020	0.8921
2011	0.8944
2002	0.8951
1993	0.8948
1984	0.8917
1975	0.8918
1966	0.893
1957	0.8949
1948	0.895
1939	0.8932
1930	0.8927
1921	0.8933
1912	0.8944
1903	0.8971
1894	0.8989
1885	0.8992
1876	0.8983
1867	0.8971
1858	0.896
1849	0.8971
1840	0.8973
1831	0.8941
1822	0.8936
1813	0.897
1804	0.8957
1795	0.8978
1786	0.8989
1777	0.8996
1768	0.8996
1759	0.8981
1750	0.9001
1741	0.8992
1732	0.9007
1723	0.8971
1714	0.8985
1705	0.9018
1696	0.9004
1687	0.9033
1678	0.9012
1669	0.9016
1660	0.902
1651	0.9054
1642	0.895
1633	0.893
1624	0.8896
1615	0.8818
1606	0.8661
1597	0.8657
1588	0.8436
1579	0.8216
1570	0.8428
1561	0.8193
1552	0.7335
1543	0.4857
1534	0.1359
1525	0.2071
1516	0.5055
1507	0.4857
1498	0.3542
1489	0.4053
1480	0.5373
1471	0.7108
1462	0.6253
1453	0.736
1444	0.7549
1435	0.7815
1426	0.8158
1417	0.8327
1408	0.8401
1399	0.8464
1390	0.8427
1381	0.79
1372	0.8323
1363	0.8055
1354	0.7162
1345	0.6389
1336	0.6447
1327	0.6875
1318	0.7053
1309	0.7167
1300	0.6799
1291	0.5483
1282	0.6153
1273	0.5479
1264	0.2429
1255	0.6686
1246	0.7306
1237	0.6212
1228	0.7841
1219	0.6528
1210	0.586
1201	0.7236
1192	0.7546
1183	0.8172
1174	0.8421
1165	0.8417
1156	0.7655
1147	0.8253
1138	0.8253
1129	0.8225
1120	0.8135
1111	0.7451
1102	0.8668
1093	0.8825
1084	0.8844
1075	0.8818
1066	0.8904
1057	0.8921
1048	0.8712
1039	0.8101
1030	0.8357
1021	0.8792
1012	0.8799
1003	0.8778
994	0.869
985	0.8524
976	0.8495
967	0.8491
958	0.8477
949	0.8425
940	0.8613
931	0.8678
922	0.7905
913	0.8437
904	0.8775
895	0.8857
886	0.8905
877	0.8924
868	0.8924
859	0.8407
850	0.8804
841	0.8984
832	0.9061
823	0.9111
814	0.9085
805	0.901
796	0.906
787	0.8894
778	0.8657
769	0.601
760	0.5264
751	0.6648
742	0.6335
733	0.6574
724	0.774
715	0.704
706	0.8321
697	0.8178
688	0.8125
679	0.8507
670	0.8967
661	0.9211
652	0.8871
643	0.6865
634	0.8998
625	0.9187
616	0.847
607	0.9159
598	0.9263
589	0.9268
580	0.9175
571	0.89
562	0.8944
553	0.888
544	0.901
535	0.8145
526	0.8678
517	0.8795
508	0.8443
499	0.7957
490	0.7469
481	0.7453
472	0.7844
463	0.8221
454	0.8336
