Infrared Spectrum: Thiram
Formula: C 6 H 12 N 2 S 4
CAS: 137-26-8
State: gas
Instrument: HP-GC/MS/IRD
Origin: NIST Mass Spectrometry Data Center
1/CM	ABSORBANCE
550	0.000986
562	0.0007769
574	0.0012852
586	0.0007735
598	0.0004743
610	0.0001836
622	0.0001037
634	0.0001122
646	0.0002448
658	0.0002244
670	0.0002975
682	0.0001802
694	0.0001989
706	0.0001547
718	0.0001377
730	0.0001071
742	0.0001122
754	0.0001139
766	7.82e-05
778	3.74e-05
790	3.4e-05
802	0.0001003
814	9.18e-05
826	0.0001394
838	0.0002992
850	0.0009792
862	0.001819
874	0.0010098
886	0.0002907
898	0.0002346
910	0.0002669
922	0.0003077
934	0.0005661
946	0.0017374
958	0.0052173
970	0.0089488
982	0.0070618
994	0.0036142
1006	0.0024803
1018	0.0018938
1030	0.001445
1042	0.0016558
1054	0.0018207
1066	0.0015385
1078	0.0015096
1090	0.0016592
1102	0.0020808
1114	0.0028883
1126	0.0041752
1138	0.0063121
1150	0.0081464
1162	0.0073559
1174	0.0051986
1186	0.0035088
1198	0.0026996
1210	0.0028203
1222	0.0035326
1234	0.0055845
1246	0.0079458
1258	0.0062288
1270	0.003111
1282	0.0019091
1294	0.0017629
1306	0.0019788
1318	0.0024157
1330	0.0033303
1342	0.0051714
1354	0.0092922
1366	0.0155516
1378	0.0161194
1390	0.0096679
1402	0.0048892
1414	0.0035445
1426	0.0026044
1438	0.002567
1450	0.0036108
1462	0.0064124
1474	0.0088468
1486	0.0097155
1498	0.0087159
1510	0.0071179
1522	0.00595
1534	0.0047719
1546	0.0034986
1558	0.0016813
1570	0.0011934
1582	0.0008993
1594	0.0006834
1606	0.0005049
1618	0.0003638
1630	0.0002958
1642	0.0002397
1654	0.0001632
1666	0.0002057
1678	0.0002465
1690	0.0003434
1702	0.0002856
1714	0.0002771
1726	0.0001938
1738	9.52e-05
1750	6.97e-05
1762	9.52e-05
1774	4.42e-05
1786	3.57e-05
1798	3.06e-05
1810	4.42e-05
1822	5.1e-05
1834	2.89e-05
1846	4.42e-05
1858	5.27e-05
1870	3.06e-05
1882	4.08e-05
1894	4.25e-05
1906	5.95e-05
1918	7.82e-05
1930	0.000119
1942	0.0001105
1954	0.0001394
1966	0.0001139
1978	0.0001156
1990	0.0001649
2002	0.0001734
2014	0.000272
2026	0.0003961
2038	0.0006035
2050	0.0007072
2062	0.0007718
2074	0.0008925
2086	0.0006392
2098	0.0004539
2110	0.0003536
2122	0.0002601
2134	0.0001513
2146	0.0001224
2158	0.0001445
2170	0.0001581
2182	0.0001547
2194	0.0001904
2206	0.0001547
2218	0.0001836
2230	0.0001411
2242	0.0001564
2254	0.0001105
2266	0.0001377
2278	0.0001479
2290	0.0001819
2302	0.0002499
2314	0.0003604
2326	0.0004488
2338	0.0004097
2350	0.0003247
2362	0.000493
2374	0.000357
2386	0.0001003
2398	5.27e-05
2410	1.7e-05
2422	4.93e-05
2434	5.61e-05
2446	7.31e-05
2458	7.65e-05
2470	6.46e-05
2482	7.65e-05
2494	8.84e-05
2506	5.1e-05
2518	7.14e-05
2530	4.08e-05
2542	2.04e-05
2554	7.65e-05
2566	6.29e-05
2578	6.12e-05
2590	7.65e-05
2602	9.86e-05
2614	7.65e-05
2626	0.0001003
2638	9.35e-05
2650	6.12e-05
2662	5.1e-05
2674	0.000102
2686	0.0001122
2698	0.000102
2710	0.000136
2722	0.000136
2734	0.0001972
2746	0.0002414
2758	0.0002618
2770	0.0003332
2782	0.0004692
2794	0.000629
2806	0.0009129
2818	0.0009214
2830	0.0009418
2842	0.0012444
2854	0.0016813
2866	0.002125
2878	0.0022406
2890	0.0024786
2902	0.0028594
2914	0.0038165
2926	0.0056406
2938	0.006834
2950	0.0053448
2962	0.0033269
2974	0.0021947
2986	0.0016116
2998	0.0013719
3010	0.0011849
3022	0.0011135
3034	0.0009945
3046	0.000867
3058	0.0006902
3070	0.0004828
3082	0.0003621
3094	0.0002856
3106	0.0002635
3118	0.0001632
3130	0.0001802
3142	0.0001054
3154	7.99e-05
3166	6.12e-05
3178	8.84e-05
3190	0.000119
3202	0.0001275
3214	6.97e-05
3226	5.95e-05
3238	3.74e-05
3250	7.31e-05
3262	9.35e-05
3274	0.0001224
3286	7.65e-05
3298	6.8e-05
3310	8.33e-05
3322	0.0001071
3334	4.93e-05
3346	8.67e-05
3358	0.0001003
3370	0.0001292
3382	0.0001394
3394	9.52e-05
3406	0.0001479
3418	8.67e-05
3430	0.0001462
3442	0.0001462
3454	0.0001666
3466	0.0001241
3478	0.0001428
3490	0.0001496
3502	0.0001428
3514	0.0001309
3526	0.0001139
3538	0.0002278
3550	0.0001241
3562	0.0001207
3574	0.0001887
3586	0.0002227
3598	0.0002057
3610	8.67e-05
3622	0.0001887
3634	0.0001207
3646	8.33e-05
3658	0.0001887
3670	0.0001122
3682	0.0002193
3694	0.0002023
3706	0.0001972
3718	0.0001445
3730	0.0002312
3742	0.0002329
3754	0.0002108
3766	0.0002023
3778	0.0002074
3790	0.0002295
3802	0.0002176
3814	0.0001615
3826	0.0002397
3838	0.0001921
