Infrared Spectrum: 9H-PURINE, 6,9-DIAMINO-
Formula: C5 H6 N6
CAS: 137062-87-4
State: SOLID (0.7 mg / 500 mg KBr DISC)
Class: COBLENTZ III
Instrument: PERKIN-ELMER 221 (GRATING)
Instrument parameters: FILTER CHANGE AT 2490, 980 CM^-^1, NaCl PRISM FOR 1428-650 CM^-^1
Sampling: TRANSMISSION
Resolution: 4
Origin: SOUTHERN RESEARCH INSTITUTE
1/CM	TRANSMITTANCE
587.766	0.686
596.941	0.672
606.117	0.657
615.292	0.643
624.467	0.62
633.643	0.473
642.818	0.473
651.993	0.463
661.169	0.444
670.344	0.444
679.519	0.465
688.695	0.451
697.87	0.474
707.045	0.536
716.22	0.592
725.396	0.571
734.571	0.227
743.746	0.652
752.922	0.651
762.097	0.834
771.272	0.859
780.448	0.86
789.623	0.853
798.798	0.452
807.974	0.866
817.149	0.867
826.324	0.864
835.5	0.86
844.675	0.853
853.85	0.844
863.026	0.828
872.201	0.766
881.376	0.708
890.552	0.804
899.727	0.819
908.902	0.769
918.077	0.789
927.253	0.786
936.428	0.762
945.603	0.72
954.779	0.632
963.954	0.703
973.129	0.658
982.305	0.601
991.48	0.468
1000.66	0.305
1009.83	0.376
1019.01	0.627
1028.18	0.79
1037.36	0.793
1046.53	0.763
1055.71	0.745
1064.88	0.7
1074.06	0.489
1083.23	0.418
1092.41	0.655
1101.58	0.744
1110.76	0.749
1119.93	0.75
1129.11	0.743
1138.29	0.726
1147.46	0.711
1156.64	0.69
1165.81	0.667
1174.99	0.622
1184.16	0.59
1193.34	0.591
1202.51	0.534
1211.69	0.42
1220.86	0.526
1230.04	0.518
1239.21	0.408
1248.39	0.307
1257.56	0.553
1266.74	0.574
1275.91	0.541
1285.09	0.455
1294.27	0.316
1303.44	0.17
1312.62	0.286
1321.79	0.232
1330.97	0.31
1340.14	0.527
1349.32	0.604
1358.49	0.607
1367.67	0.594
1376.84	0.5
1386.02	0.541
1395.19	0.542
1404.37	0.234
1413.54	0.566
1422.72	0.673
1431.9	0.674
1441.07	0.65
1450.25	0.622
1459.42	0.561
1468.6	0.456
1477.77	0.401
1486.95	0.401
1496.12	0.593
1505.3	0.546
1514.47	0.507
1523.65	0.592
1532.82	0.566
1542	0.501
1551.17	0.435
1560.35	0.36
1569.53	0.249
1578.7	0.1
1587.88	0.148
1597.05	0.082
1606.23	0.079
1615.4	0.203
1624.58	0.222
1633.75	0.236
1642.93	0.32
1652.1	0.345
1661.28	0.268
1670.45	0.126
1679.63	0.111
1688.8	0.24
1697.98	0.404
1707.15	0.545
1716.33	0.658
1725.51	0.744
1734.68	0.801
1743.86	0.783
1753.03	0.811
1762.21	0.869
1771.38	0.912
1780.56	0.925
1789.73	0.928
1798.91	0.939
1808.08	0.94
1817.26	0.933
1826.43	0.924
1835.61	0.912
1844.78	0.905
1853.96	0.903
1863.14	0.901
1872.31	0.89
1881.49	0.878
1890.66	0.838
1899.84	0.837
1909.01	0.854
1918.19	0.857
1927.36	0.848
1936.54	0.841
1945.71	0.829
1954.89	0.827
1964.06	0.824
1973.24	0.816
1982.41	0.81
1991.59	0.805
2000.77	0.795
2009.94	0.787
2019.12	0.778
2028.29	0.765
2037.47	0.762
2046.64	0.761
2055.82	0.761
2064.99	0.76
2074.17	0.758
2083.34	0.755
2092.52	0.745
2101.69	0.739
2110.87	0.735
2120.04	0.734
2129.22	0.733
2138.39	0.733
2147.57	0.733
2156.75	0.731
2165.92	0.727
2175.1	0.725
2184.27	0.719
2193.45	0.712
2202.62	0.708
2211.8	0.704
2220.97	0.702
2230.15	0.7
2239.32	0.693
2248.5	0.689
2257.67	0.683
2266.85	0.675
2276.02	0.668
2285.2	0.665
2294.38	0.667
2303.55	0.671
2312.73	0.664
2321.9	0.654
2331.08	0.648
2340.25	0.646
2349.43	0.645
2358.6	0.636
2367.78	0.638
2376.95	0.646
2386.13	0.645
2395.3	0.642
2404.48	0.639
2413.65	0.636
2422.83	0.633
2432.01	0.631
2441.18	0.628
2450.36	0.625
2459.53	0.622
2468.71	0.615
2477.88	0.612
2487.06	0.61
2496.23	0.609
2505.41	0.607
2514.58	0.599
2523.76	0.595
2532.93	0.591
2542.11	0.586
2551.28	0.58
2560.46	0.575
2569.63	0.567
2578.81	0.56
2587.99	0.557
2597.16	0.554
2606.34	0.552
2615.51	0.543
2624.69	0.535
2633.86	0.533
2643.04	0.529
2652.21	0.523
2661.39	0.508
2670.56	0.497
2679.74	0.487
2688.91	0.481
2698.09	0.478
2707.26	0.479
2716.44	0.484
2725.62	0.486
2734.79	0.485
2743.97	0.477
2753.14	0.465
2762.32	0.468
2771.49	0.471
2780.67	0.465
2789.84	0.462
2799.02	0.458
2808.19	0.452
2817.37	0.446
2826.54	0.437
2835.72	0.426
2844.89	0.407
2854.07	0.397
2863.25	0.389
2872.42	0.38
2881.6	0.36
2890.77	0.354
2899.95	0.352
2909.12	0.345
2918.3	0.323
2927.47	0.31
2936.65	0.319
2945.82	0.319
2955	0.313
2964.17	0.3
2973.35	0.287
2982.52	0.269
2991.7	0.259
3000.87	0.254
3010.05	0.243
3019.23	0.218
3028.4	0.196
3037.58	0.185
3046.75	0.178
3055.93	0.167
3065.1	0.151
3074.28	0.145
3083.45	0.134
3092.63	0.126
3101.8	0.124
3110.98	0.132
3120.15	0.161
3129.33	0.183
3138.5	0.193
3147.68	0.199
3156.86	0.202
3166.03	0.203
3175.21	0.202
3184.38	0.2
3193.56	0.201
3202.73	0.205
3211.91	0.215
3221.08	0.226
3230.26	0.234
3239.43	0.234
3248.61	0.231
3257.78	0.232
3266.96	0.221
3276.13	0.203
3285.31	0.186
3294.49	0.179
3303.66	0.177
3312.84	0.186
3322.01	0.226
3331.19	0.293
3340.36	0.335
3349.54	0.364
3358.71	0.372
3367.89	0.41
3377.06	0.469
3386.24	0.532
3395.41	0.565
3404.59	0.575
3413.76	0.581
3422.94	0.58
3432.11	0.58
3441.29	0.579
3450.47	0.579
3459.64	0.579
3468.82	0.579
3477.99	0.58
3487.17	0.58
3496.34	0.582
3505.52	0.583
3514.69	0.585
3523.87	0.586
3533.04	0.588
3542.22	0.591
3551.39	0.593
3560.57	0.595
3569.74	0.598
3578.92	0.6
3588.1	0.602
3597.27	0.604
3606.45	0.607
3615.62	0.609
3624.8	0.61
3633.97	0.613
3643.15	0.613
3652.32	0.613
3661.5	0.612
3670.67	0.607
3679.85	0.604
3689.02	0.603
3698.2	0.602
3707.37	0.601
3716.55	0.598
3725.73	0.594
3734.9	0.593
3744.08	0.591
3753.25	0.59
3762.43	0.589
3771.6	0.588
3780.78	0.588
3789.95	0.587
3799.13	0.584
3808.3	0.581
3817.48	0.579
3826.65	0.567
3835.83	0.563
3845	0.561
3854.18	0.56
3863.35	0.56
3872.53	0.559
3881.71	0.557
3890.88	0.556
3900.06	0.556
3909.23	0.555
3918.41	0.553
3927.58	0.55
3936.76	0.547
3945.93	0.546
3955.11	0.546
3964.28	0.546
3973.46	0.546
3982.63	0.545
3991.81	0.544
4000.98	0.543
4010.16	0.541
