Infrared Spectrum: Phenylsuccinonitrile
Formula: C 10 H 8 N 2
CAS: 13706-68-8
State: gas
Origin: EPA-IR VAPOR PHASE LIBRARY
1/CM	ABSORBANCE
551.7	0.001651
563.274	0.003691
574.848	0.002851
586.421	0.001311
597.995	0.001351
609.569	0.001481
621.143	0.001261
632.717	0.001351
644.291	0.001561
655.864	0.001851
667.438	0.003361
679.012	0.007281
690.586	0.016561
702.16	0.017191
713.734	0.008361
725.307	0.005511
736.881	0.007251
748.455	0.011161
760.029	0.007791
771.603	0.003261
783.177	0.001851
794.75	0.0011049
806.324	0.0009268
817.898	0.0008549
829.472	0.0006979
841.046	0.0006642
852.619	0.000578
864.193	0.0005507
875.767	0.0005825
887.341	0.0008151
898.915	0.0011999
910.489	0.001681
922.062	0.001711
933.636	0.001671
945.21	0.001561
956.784	0.001067
968.358	0.0009861
979.932	0.0012232
991.505	0.001491
1003.08	0.002061
1014.65	0.001741
1026.23	0.002261
1037.8	0.001981
1049.37	0.0009774
1060.95	0.0008675
1072.52	0.001321
1084.1	0.0012092
1095.67	0.000799
1107.24	0.0007679
1118.82	0.00028762
1130.39	0.00031079
1141.97	0.00026628
1153.54	9.4e-05
1165.11	0.0003742
1176.69	0.0007406
1188.26	0.000855
1199.83	0.0008218
1211.41	0.0005143
1222.98	0.0004496
1234.56	0.0004885
1246.13	0.0007792
1257.7	0.0009144
1269.28	0.0008788
1280.85	0.0010765
1292.42	0.001381
1304	0.001541
1315.57	0.001521
1327.15	0.001791
1338.72	0.001671
1350.29	0.001117
1361.87	0.0007176
1373.44	0.0007276
1385.02	0.0007547
1396.59	0.0007228
1408.16	0.0011046
1419.74	0.003031
1431.31	0.006461
1442.88	0.005711
1454.46	0.005391
1466.03	0.003321
1477.61	0.002121
1489.18	0.004741
1500.75	0.006361
1512.33	0.002141
1523.9	0.0009114
1535.48	0.0007294
1547.05	0.0006242
1558.62	0.0005839
1570.2	0.00075
1581.77	0.001311
1593.34	0.002181
1604.92	0.001921
1616.49	0.0009387
1628.07	0.0005299
1639.64	0.0004409
1651.21	0.0004987
1662.79	0.0005893
1674.36	0.0004357
1685.93	0.00035015
1697.51	0.0003753
1709.08	0.0003851
1720.66	0.0004579
1732.23	0.0005834
1743.8	0.0006836
1755.38	0.0004662
1766.95	0.0004141
1778.53	0.0006746
1790.1	0.0011922
1801.67	0.001224
1813.25	0.0006362
1824.82	0.0004382
1836.39	0.0003621
1847.97	0.0004478
1859.54	0.0007359
1871.12	0.0009507
1882.69	0.0009657
1894.26	0.0008209
1905.84	0.0005089
1917.41	0.0004549
1928.99	0.000611
1940.56	0.0010038
1952.13	0.0011517
1963.71	0.0010426
1975.28	0.0006519
1986.85	0.00034193
1998.43	0.00026403
2010	0.0001915
2021.58	0.00024864
2033.15	0.00024625
2044.72	0.000259849
2056.3	0.0002217
2067.87	0.0002046
2079.44	0.0002011
2091.02	0.00024298
2102.59	0.0001902
2114.17	0.0002171
2125.74	0.0002221
2137.31	0.0001571
2148.89	0.0001939
2160.46	0.0001726
2172.04	0.0002028
2183.61	0.00018
2195.18	0.000204
2206.76	0.000251383
2218.33	0.0002074
2229.9	0.0002298
2241.48	0.0003517
2253.05	0.0004253
2264.63	0.0003923
2276.2	0.0003601
2287.77	0.00029986
2299.35	0.000228
2310.92	0.00030373
2322.5	0.0003926
2334.07	0.0003712
2345.64	0.0004343
2357.22	0.0004349
2368.79	0.0003728
2380.36	0.0003532
2391.94	0.00033793
2403.51	0.00030998
2415.09	0.00033138
2426.66	0.00028186
2438.23	0.00031451
2449.81	0.00032936
2461.38	0.000255767
2472.96	0.00030289
2484.53	0.0002152
2496.1	0.00026549
2507.68	0.00032273
2519.25	0.00030566
2530.82	0.00033789
2542.4	0.00028847
2553.97	0.00034567
2565.55	0.00033879
2577.12	0.0003544
2588.69	0.0003798
2600.27	0.0003622
2611.84	0.0004053
2623.41	0.0002805
2634.99	0.00032585
2646.56	0.00032181
2658.14	0.00028704
2669.71	0.00028795
2681.28	0.0002122
2692.86	0.0002021
2704.43	0.0001835
2716.01	0.0001952
2727.58	9.7e-05
2739.15	0.0002365
2750.73	0.0002393
2762.3	0.00032192
2773.87	0.00033957
2785.45	0.00031116
2797.02	0.0002166
2808.6	0.0001748
2820.17	0.0001586
2831.74	0.0002167
2843.32	0.00035069
2854.89	0.00034953
2866.47	0.00033686
2878.04	0.00033246
2889.61	0.0003802
2901.19	0.00030148
2912.76	0.0005042
2924.33	0.0010107
2935.91	0.001461
2947.48	0.001751
2959.06	0.0010379
2970.63	0.0010392
2982.2	0.0009222
2993.78	0.0005663
3005.35	0.0010287
3016.92	0.001981
3028.5	0.004341
3040.07	0.006571
3051.65	0.004761
3063.22	0.005021
3074.79	0.008351
3086.37	0.006771
3097.94	0.004181
3109.52	0.002661
3121.09	0.001471
3132.66	0.0006597
3144.24	0.00030994
3155.81	0.00032895
3167.38	0.00032378
3178.96	0.0004132
3190.53	0.00031826
3202.11	0.00027308
3213.68	0.0002321
3225.25	0.000255352
3236.83	0.0001733
3248.4	0.000132
3259.98	0.000184
3271.55	0.0002195
3283.12	0.0002315
3294.7	0.0002081
3306.27	8.5e-05
3317.84	0.000139
3329.42	5.2e-05
3340.99	0.0001651
3352.57	0.0001538
3364.14	0.000104
3375.71	6.1e-05
3387.29	0.0001797
3398.86	0.000141
3410.43	8.5e-05
3422.01	0.000128
3433.58	5.6e-05
3445.16	0.000129
3456.73	0.000129
3468.3	0.00015
3479.88	7.4e-05
3491.45	3.6e-05
3503.03	0.00014
3514.6	9.3e-05
3526.17	1.6e-05
3537.75	8.2e-05
3549.32	0.0001763
3560.89	1.1e-05
3572.47	0.0001527
3584.04	0.000165
3595.62	0.000148
3607.19	8e-05
3618.76	5.2e-05
3630.34	0.000129
3641.91	8.7e-05
3653.49	0.0002169
3665.06	0.00015
3676.63	0.00018
3688.21	0.00011
3699.78	0.000135
3711.35	0.0002183
3722.93	0.0002435
3734.5	0.000114
3746.08	0.000134
3757.65	0.000118
3769.22	0.00028816
3780.8	0.000112
3792.37	0.000123
3803.94	0.0001674
3815.52	0.000122
3827.09	0.0001773
3838.67	0.000101
3850.24	0.000106
3861.81	8.9e-05
3873.39	0.0001824
3884.96	0.0001882
3896.54	0.000147
3908.11	0.0002161
3919.68	0.0001547
3931.26	0.0002008
3942.83	0.000132
3954.4	0.000111
3965.98	0.0002038
3977.55	0.0001963
3989.13	4.9e-05
4000.7	0.0001717
