Infrared Spectrum: Cycloandrostan-6,17-dione, 3Alpha,5Alpha-,
Formula: C19 H26 O2
CAS: 13713-90-1
State: SOLUTION 7% (CHCl3 FOR 2.5-12.5 microns) VS SOLVENT
Class: COBLENTZ
Instrument: PERKIN-ELMER 421 (GRATING)
Instrument parameters: GRATING CHANGE AT 1999 CM^-^
Path length: 0.01 CM
Resolution: 2
Origin: ABBOTT LABORATORIES
1/CM	TRANSMITTANCE
795	0.9089
804	0.8848
813	0.8974
822	0.8994
831	0.8922
840	0.9161
849	0.9323
858	0.874
867	0.7679
876	0.8227
885	0.8938
894	0.8395
903	0.8768
912	0.8568
921	0.8834
930	0.9156
939	0.9043
948	0.8975
957	0.8762
966	0.8351
975	0.8455
984	0.8273
993	0.797
1002	0.6034
1011	0.7679
1020	0.774
1029	0.7566
1038	0.7019
1047	0.6182
1056	0.6803
1065	0.7197
1074	0.7391
1083	0.6339
1092	0.6824
1101	0.7706
1110	0.7526
1119	0.7317
1128	0.6769
1137	0.7255
1146	0.7006
1155	0.4599
1164	0.6852
1173	0.8178
1182	0.8358
1191	0.8048
1200	0.6848
1209	0.6201
1218	0.6172
1227	0.6142
1236	0.6144
1245	0.7041
1254	0.7203
1263	0.7347
1272	0.7372
1281	0.671
1290	0.4794
1299	0.4747
1308	0.6491
1317	0.6904
1326	0.7751
1335	0.7836
1344	0.739
1353	0.7458
1362	0.5453
1371	0.4238
1380	0.641
1389	0.7582
1398	0.7131
1407	0.696
1416	0.7821
1425	0.7475
1434	0.743
1443	0.7168
1452	0.5777
1461	0.6681
1470	0.6822
1479	0.8604
1488	0.8853
1497	0.8953
1506	0.9037
1515	0.9093
1524	0.9132
1533	0.9139
1542	0.9146
1551	0.9154
1560	0.9127
1569	0.9086
1578	0.9043
1587	0.8954
1596	0.885
1605	0.8685
1614	0.8479
1623	0.8248
1632	0.7823
1641	0.6881
1650	0.6292
1659	0.328
1668	0.1461
1677	0.1847
1686	0.3479
1695	0.6578
1704	0.6189
1713	0.4772
1722	0.2783
1731	0.1102
1740	0.3726
1749	0.753
1758	0.837
1767	0.8651
1776	0.889
1785	0.9018
1794	0.9058
1803	0.9084
1812	0.9095
1821	0.9098
1830	0.9101
1839	0.9104
1848	0.9112
1857	0.9118
1866	0.9135
1875	0.9164
1884	0.9155
1893	0.9147
1902	0.9137
1911	0.9124
1920	0.9129
1929	0.9151
1938	0.9152
1947	0.9148
1956	0.9142
1965	0.9127
1974	0.9121
1983	0.9112
1992	0.8926
2001	0.8821
2010	0.8798
2019	0.8786
2028	0.8795
2037	0.8806
2046	0.88
2055	0.8798
2064	0.88
2073	0.88
2082	0.88
2091	0.8796
2100	0.8788
2109	0.8782
2118	0.8779
2127	0.8776
2136	0.8775
2145	0.8774
2154	0.8777
2163	0.8781
2172	0.8805
2181	0.8816
2190	0.8813
2199	0.8799
2208	0.8798
2217	0.8798
2226	0.8792
2235	0.8786
2244	0.8785
2253	0.8789
2262	0.8818
2271	0.8814
2280	0.8816
2289	0.8827
2298	0.8847
2307	0.8877
2316	0.8899
2325	0.8913
2334	0.8919
2343	0.8918
2352	0.8932
2361	0.895
2370	0.8976
2379	0.9023
2388	0.8983
2397	0.8837
2406	0.8732
2415	0.8656
2424	0.8616
2433	0.8589
2442	0.8575
2451	0.857
2460	0.8566
2469	0.8536
2478	0.8401
2487	0.8392
2496	0.8489
2505	0.8525
2514	0.8538
2523	0.8554
2532	0.8569
2541	0.8571
2550	0.8571
2559	0.8568
2568	0.8557
2577	0.8536
2586	0.8531
2595	0.8532
2604	0.8537
2613	0.8538
2622	0.8535
2631	0.8527
2640	0.852
2649	0.8524
2658	0.8528
2667	0.8535
2676	0.8516
2685	0.8485
2694	0.8486
2703	0.8517
2712	0.8536
2721	0.8487
2730	0.8436
2739	0.8489
2748	0.8513
2757	0.8503
2766	0.8471
2775	0.8426
2784	0.8349
2793	0.826
2802	0.8117
2811	0.7947
2820	0.7526
2829	0.6819
2838	0.6513
2847	0.6559
2856	0.5101
2865	0.5136
2874	0.5762
2883	0.5427
2892	0.5168
2901	0.5024
2910	0.4804
2919	0.4182
2928	0.3365
2937	0.2893
2946	0.2869
2955	0.2656
2964	0.311
2973	0.4372
2982	0.5524
2991	0.5045
3000	0.4593
3009	0.637
3018	0.649
3027	0.7284
3036	0.7857
3045	0.8116
3054	0.8204
3063	0.8244
3072	0.8243
3081	0.8305
3090	0.8359
3099	0.8373
3108	0.8384
3117	0.8394
3126	0.8401
3135	0.8407
3144	0.8406
3153	0.8402
3162	0.8403
3171	0.8407
3180	0.8406
3189	0.8398
3198	0.8396
3207	0.8417
3216	0.8416
3225	0.8409
3234	0.8398
3243	0.8385
3252	0.837
3261	0.8351
3270	0.8329
3279	0.8308
3288	0.8286
3297	0.8269
3306	0.8253
3315	0.8243
3324	0.824
3333	0.8238
3342	0.8259
3351	0.8273
3360	0.8266
3369	0.8256
3378	0.8239
3387	0.8222
3396	0.8206
3405	0.8192
3414	0.8178
3423	0.816
3432	0.8156
3441	0.8199
3450	0.8248
3459	0.8311
3468	0.8345
3477	0.8366
3486	0.8379
3495	0.8387
3504	0.8399
3513	0.8439
3522	0.8466
3531	0.8491
3540	0.8496
3549	0.8516
3558	0.8548
3567	0.8494
3576	0.8422
3585	0.8543
3594	0.8591
3603	0.8634
3612	0.8659
3621	0.8653
3630	0.8689
3639	0.8649
3648	0.8583
3657	0.8574
3666	0.8604
3675	0.8703
3684	0.8723
3693	0.8717
3702	0.8712
3711	0.8706
3720	0.8703
3729	0.8702
3738	0.8699
3747	0.87
3756	0.8701
3765	0.8704
3774	0.8718
3783	0.8723
3792	0.8674
3801	0.8684
3810	0.8668
3819	0.8691
3828	0.8684
3837	0.8635
3846	0.8634
3855	0.8633
3864	0.8632
3873	0.8646
3882	0.8692
3891	0.8708
3900	0.8683
3909	0.8654
3918	0.8645
3927	0.8652
3936	0.8658
3945	0.8655
3954	0.8648
3963	0.8646
3972	0.8647
3981	0.8652
3990	0.8639
3999	0.8624
