Infrared Spectrum: O-NITRO CARBANILIC ACID, METHYL ESTER
Formula: C8 H8 N2 O4
CAS: 13725-30-9
State: SOLID (15 mg / 100 mg KBr)
Melting point: 52-52.5 C
Class: COBLENTZ
Instrument: Not specified, most likely a grating spectrometer.
Sampling: TRANSMISSION
Resolution: 4
Origin: CITRUS EXPERIMENT STATION, UNIVERSITY OF FLORIDA (G. EDWARDS)
MICROMETERS	TRANSMITTANCE
2.02	0.28
2.05321	0.287
2.08642	0.284
2.11962	0.287
2.15283	0.296
2.18604	0.312
2.21925	0.315
2.25245	0.316
2.28566	0.317
2.31887	0.331
2.35208	0.339
2.38528	0.341
2.41849	0.357
2.4517	0.365
2.48491	0.371
2.51812	0.378
2.55132	0.388
2.58453	0.39
2.61774	0.394
2.65095	0.4
2.68415	0.401
2.71736	0.404
2.75057	0.405
2.78378	0.401
2.81698	0.398
2.85019	0.394
2.8834	0.393
2.91661	0.369
2.94981	0.211
2.98302	0.3
3.01623	0.39
3.04944	0.42
3.08265	0.42
3.11585	0.418
3.14906	0.401
3.18227	0.373
3.21548	0.372
3.24868	0.416
3.28189	0.434
3.3151	0.438
3.34831	0.414
3.38151	0.441
3.41472	0.457
3.44793	0.458
3.48114	0.468
3.51435	0.492
3.54755	0.498
3.58076	0.509
3.61397	0.513
3.64718	0.514
3.68038	0.522
3.71359	0.527
3.7468	0.538
3.78001	0.533
3.81321	0.526
3.84642	0.538
3.87963	0.542
3.91284	0.541
3.94605	0.543
3.97925	0.542
4.01246	0.542
4.04567	0.539
4.07888	0.537
4.11208	0.547
4.14529	0.554
4.1785	0.579
4.21171	0.581
4.24491	0.582
4.27812	0.582
4.31133	0.582
4.34454	0.583
4.37774	0.585
4.41095	0.589
4.44416	0.594
4.47737	0.598
4.51058	0.59
4.54378	0.591
4.57699	0.597
4.6102	0.606
4.64341	0.609
4.67661	0.614
4.70982	0.622
4.74303	0.632
4.77624	0.634
4.80944	0.638
4.84265	0.627
4.87586	0.627
4.90907	0.63
4.94228	0.625
4.97548	0.622
5.00869	0.619
5.0419	0.622
5.07511	0.632
5.10831	0.638
5.14152	0.64
5.17473	0.647
5.20794	0.647
5.24114	0.632
5.27435	0.631
5.30756	0.628
5.34077	0.628
5.37397	0.625
5.40718	0.618
5.44039	0.607
5.4736	0.601
5.50681	0.565
5.54001	0.513
5.57322	0.47
5.60643	0.386
5.63964	0.263
5.67284	0.147
5.70605	0.188
5.73926	0.305
5.77247	0.46
5.80567	0.558
5.83888	0.566
5.87209	0.575
5.9053	0.578
5.93851	0.574
5.97171	0.549
6.00492	0.534
6.03813	0.48
6.07134	0.43
6.10454	0.367
6.13775	0.232
6.17096	0.097
6.20417	0.126
6.23737	0.155
6.27058	0.099
6.30379	0.273
6.337	0.398
6.37021	0.361
6.40341	0.293
6.43662	0.238
6.46983	0.198
6.50304	0.15
6.53624	0.086
6.56945	0.078
6.60266	0.082
6.63587	0.101
6.66907	0.142
6.70228	0.242
6.73549	0.208
6.7687	0.139
6.8019	0.067
6.83511	0.062
6.86832	0.066
6.90153	0.082
6.93474	0.17
6.96794	0.176
7.00115	0.222
7.03436	0.264
7.06757	0.291
7.10077	0.328
7.13398	0.388
7.16719	0.405
7.2004	0.432
7.2336	0.44
7.26681	0.421
7.30002	0.356
7.33323	0.246
7.36644	0.151
7.39964	0.038
7.43285	0.049
7.46606	0.079
7.49927	0.106
7.53247	0.105
7.56568	0.159
7.59889	0.18
7.6321	0.188
7.6653	0.174
7.69851	0.164
7.73172	0.135
7.76493	0.111
7.79814	0.095
7.83134	0.095
7.86455	0.131
7.89776	0.182
7.93097	0.128
7.96417	0.027
7.99738	0.017
8.03059	0.035
8.0638	0.063
8.097	0.134
8.13021	0.211
8.16342	0.219
8.19663	0.211
8.22983	0.151
8.26304	0.062
8.29625	0.054
8.32946	0.083
8.36267	0.093
8.39587	0.105
8.42908	0.188
8.46229	0.212
8.4955	0.195
8.5287	0.22
8.56191	0.3
8.59512	0.331
8.62833	0.337
8.66153	0.289
8.69474	0.313
8.72795	0.422
8.76116	0.461
8.79437	0.49
8.82757	0.501
8.86078	0.501
8.89399	0.496
8.9272	0.49
8.9604	0.493
8.99361	0.497
9.02682	0.496
9.06003	0.494
9.09323	0.473
9.12644	0.382
9.15965	0.187
9.19286	0.14
9.22606	0.301
9.25927	0.44
9.29248	0.461
9.32569	0.454
9.3589	0.388
9.3921	0.206
9.42531	0.14
9.45852	0.19
9.49173	0.247
9.52493	0.252
9.55814	0.224
9.59135	0.319
9.62456	0.41
9.65776	0.464
9.69097	0.496
9.72418	0.522
9.75739	0.534
9.7906	0.55
9.8238	0.561
9.85701	0.567
9.89022	0.579
9.92343	0.579
9.95663	0.581
9.98984	0.594
10.023	0.599
10.0563	0.602
10.0895	0.606
10.1227	0.606
10.1559	0.606
10.1891	0.599
10.2223	0.575
10.2555	0.561
10.2887	0.561
10.3219	0.589
10.3551	0.585
10.3883	0.565
10.4215	0.484
10.4547	0.396
10.488	0.392
10.5212	0.472
10.5544	0.53
10.5876	0.567
10.6208	0.593
10.654	0.61
10.6872	0.618
10.7204	0.638
10.7536	0.639
10.7868	0.639
10.82	0.639
10.8532	0.643
10.8864	0.644
10.9197	0.643
10.9529	0.658
10.9861	0.659
11.0193	0.66
11.0525	0.666
11.0857	0.668
11.1189	0.666
11.1521	0.664
11.1853	0.668
11.2185	0.668
11.2517	0.664
11.2849	0.65
11.3181	0.646
11.3514	0.632
11.3846	0.632
11.4178	0.628
11.451	0.61
11.4842	0.525
11.5174	0.363
11.5506	0.319
11.5838	0.47
11.617	0.543
11.6502	0.555
11.6834	0.567
11.7166	0.571
11.7498	0.573
11.7831	0.573
11.8163	0.57
11.8495	0.551
11.8827	0.505
11.9159	0.405
11.9491	0.295
11.9823	0.299
12.0155	0.385
12.0487	0.498
12.0819	0.557
12.1151	0.59
12.1483	0.619
12.1815	0.631
12.2148	0.636
12.248	0.635
12.2812	0.634
12.3144	0.634
12.3476	0.638
12.3808	0.64
12.414	0.639
12.4472	0.63
12.4804	0.615
12.5136	0.589
12.5468	0.546
12.58	0.468
12.6132	0.39
12.6465	0.34
12.6797	0.331
12.7129	0.392
12.7461	0.526
12.7793	0.575
12.8125	0.621
12.8457	0.621
12.8789	0.605
12.9121	0.583
12.9453	0.57
12.9785	0.517
13.0117	0.465
13.0449	0.465
13.0782	0.497
13.1114	0.55
13.1446	0.581
13.1778	0.578
13.211	0.531
13.2442	0.456
13.2774	0.368
13.3106	0.256
13.3438	0.199
13.377	0.196
13.4102	0.253
13.4434	0.329
13.4766	0.389
13.5099	0.425
13.5431	0.46
13.5763	0.505
13.6095	0.545
13.6427	0.571
13.6759	0.585
13.7091	0.599
13.7423	0.617
13.7755	0.623
13.8087	0.623
13.8419	0.623
13.8751	0.622
13.9083	0.628
13.9416	0.628
13.9748	0.626
14.008	0.626
14.0412	0.626
14.0744	0.622
14.1076	0.622
14.1408	0.622
14.174	0.619
14.2072	0.602
14.2404	0.599
14.2736	0.594
14.3068	0.577
14.34	0.569
14.3733	0.553
14.4065	0.53
14.4397	0.505
14.4729	0.488
14.5061	0.484
14.5393	0.493
14.5725	0.503
14.6057	0.5
14.6389	0.492
14.6721	0.472
14.7053	0.457
14.7385	0.453
14.7717	0.453
14.805	0.466
14.8382	0.473
14.8714	0.473
14.9046	0.473
14.9378	0.474
14.971	0.477
15.0042	0.478
