Infrared Spectrum: 6-Chlorothiochroman-4-one
Formula: C 9 H 7 Cl O S
CAS: 13735-12-1
State: gas
Origin: EPA-IR VAPOR PHASE LIBRARY
1/CM	ABSORBANCE
549.8	0.01709
559.445	0.01063
569.09	0.00588
578.734	0.00636
588.379	0.00968
598.024	0.00508
607.669	0.00322
617.313	0.0020478
626.958	0.0034
636.603	0.00292
646.248	0.00282
655.893	0.00384
665.537	0.00289
675.182	0.0033
684.827	0.00351
694.472	0.00304
704.116	0.00288
713.761	0.0021116
723.406	0.0029
733.051	0.00359
742.695	0.00302
752.34	0.00295
761.985	0.00307
771.63	0.00367
781.275	0.00411
790.919	0.0077
800.564	0.0235
810.209	0.0483
819.854	0.02819
829.498	0.00913
839.143	0.00418
848.788	0.00523
858.433	0.00549
868.078	0.00369
877.722	0.00271
887.367	0.00348
897.012	0.00833
906.657	0.01031
916.301	0.00528
925.946	0.00242
935.591	0.00231
945.236	0.00233
954.88	0.00445
964.525	0.00486
974.17	0.00343
983.815	0.00284
993.46	0.00453
1003.1	0.00477
1012.75	0.00301
1022.39	0.00254
1032.04	0.00434
1041.68	0.0114
1051.33	0.01508
1060.97	0.00834
1070.62	0.00813
1080.26	0.01315
1089.91	0.03632
1099.55	0.05571
1109.2	0.02402
1118.84	0.01485
1128.49	0.01282
1138.13	0.01285
1147.78	0.01082
1157.42	0.01293
1167.07	0.03585
1176.71	0.06036
1186.36	0.03338
1196	0.01364
1205.64	0.01164
1215.29	0.01987
1224.93	0.02662
1234.58	0.02144
1244.22	0.03198
1253.87	0.05012
1263.51	0.0271
1273.16	0.04439
1282.8	0.08667
1292.45	0.05314
1302.09	0.01405
1311.74	0.0183
1321.38	0.01795
1331.03	0.00739
1340.67	0.00524
1350.32	0.00564
1359.96	0.00656
1369.61	0.0114
1379.25	0.02567
1388.9	0.05136
1398.54	0.03849
1408.18	0.02422
1417.83	0.02184
1427.47	0.01647
1437.12	0.02713
1446.76	0.05174
1456.41	0.06592
1466.05	0.04354
1475.7	0.01731
1485.34	0.00666
1494.99	0.0051
1504.63	0.00352
1514.28	0.00314
1523.92	0.00281
1533.57	0.0032
1543.21	0.00375
1552.86	0.00378
1562.5	0.00545
1572.15	0.00992
1581.79	0.01448
1591.44	0.01132
1601.08	0.00569
1610.73	0.00469
1620.37	0.00638
1630.01	0.00814
1639.66	0.00761
1649.3	0.00878
1658.95	0.01023
1668.59	0.01105
1678.24	0.01577
1687.88	0.03699
1697.53	0.11335
1707.17	0.15746
1716.82	0.07802
1726.46	0.02216
1736.11	0.01082
1745.75	0.00747
1755.4	0.00813
1765.04	0.00688
1774.69	0.00483
1784.33	0.00395
1793.98	0.00384
1803.62	0.0041
1813.27	0.00355
1822.91	0.00301
1832.55	0.00256
1842.2	0.00248
1851.84	0.00286
1861.49	0.00258
1871.13	0.0024
1880.78	0.00246
1890.42	0.00358
1900.07	0.00353
1909.71	0.00283
1919.36	0.0020978
1929	0.0019372
1938.65	0.0017984
1948.29	0.0016323
1957.94	0.0015946
1967.58	0.0015087
1977.23	0.0015832
1986.87	0.0016323
1996.52	0.0013024
2006.16	0.0015208
2015.81	0.0014601
2025.45	0.0012374
2035.1	0.00115702
2044.74	0.0013407
2054.38	0.001365
2064.03	0.0013979
2073.67	0.0014467
2083.32	0.0014121
2092.96	0.0013464
2102.61	0.00122668
2112.25	0.001252
2121.9	0.0014715
2131.54	0.00115506
2141.19	0.0015332
2150.83	0.0011037
2160.48	0.001005
2170.12	0.0010955
2179.77	0.0012049
2189.41	0.0015157
2199.06	0.00112609
2208.7	0.00115703
2218.35	0.00112789
2227.99	0.001422
2237.64	0.0011178
2247.28	0.00120412
2256.92	0.0013956
2266.57	0.0014293
2276.21	0.0013926
2285.86	0.001529
2295.5	0.00114723
2305.15	0.000831
2314.79	0.0012858
2324.44	0.00098
2334.08	0.0013232
2343.73	0.00122744
2353.37	0.0014488
2363.02	0.00122318
2372.66	0.0013198
2382.31	0.0011043
2391.95	0.0013321
2401.6	0.00120561
2411.24	0.0014895
2420.89	0.0013341
2430.53	0.00116839
2440.18	0.0011155
2449.82	0.00114084
2459.47	0.001019
2469.11	0.000932
2478.75	0.000824
2488.4	0.000833
2498.04	0.0012637
2507.69	0.000671
2517.33	0.0012987
2526.98	0.000973
2536.62	0.0016004
2546.27	0.001019
2555.91	0.0014483
2565.56	0.0013331
2575.2	0.000667
2584.85	0.000864
2594.49	0.0010386
2604.14	0.000888
2613.78	0.000961
2623.43	0.000935
2633.07	0.00082
2642.72	0.000773
2652.36	0.000597
2662.01	0.000844
2671.65	0.00121787
2681.29	0.000889
2690.94	0.000813
2700.58	0.000902
2710.23	0.00086
2719.87	0.000951
2729.52	0.000436
2739.16	0.000518
2748.81	0.001027
2758.45	0.000723
2768.1	0.000805
2777.74	0.0010678
2787.39	0.000822
2797.03	0.0010307
2806.68	0.0015183
2816.32	0.0013414
2825.97	0.0020087
2835.61	0.0020998
2845.26	0.00402
2854.9	0.00464
2864.55	0.00255
2874.19	0.0014909
2883.84	0.0018516
2893.48	0.00277
2903.12	0.00532
2912.77	0.00814
2922.41	0.01339
2932.06	0.01531
2941.7	0.00736
2951.35	0.00859
2960.99	0.01581
2970.64	0.01607
2980.28	0.00643
2989.93	0.0016328
2999.57	0.001875
3009.22	0.0014461
3018.86	0.0018852
3028.51	0.0012554
3038.15	0.0014394
3047.8	0.0020743
3057.44	0.00483
3067.09	0.00609
3076.73	0.00473
3086.38	0.00373
3096.02	0.001526
3105.67	0.000585
3115.31	0.00121242
3124.95	0.00116639
3134.6	0.00114335
3144.24	0.00121136
3153.89	0.00087
3163.53	0.001016
3173.18	0.000868
3182.82	0.000883
3192.47	0.000951
3202.11	0.00116111
3211.76	0.000775
3221.4	0.000782
3231.05	0.000704
3240.69	0.00118771
3250.34	0.000786
3259.98	0.000888
3269.63	0.00122183
3279.27	0.000901
3288.92	0.000609
3298.56	0.000692
3308.21	0.0010736
3317.85	0.001653
3327.49	0.000495
3337.14	0.001272
3346.78	0.0016587
3356.43	0.0018963
3366.07	0.0010709
3375.72	0.00281
3385.36	0.00345
3395.01	0.00386
3404.65	0.00239
3414.3	0.001661
3423.94	0.0013327
3433.59	0.00114484
3443.23	0.000969
3452.88	0.0013472
3462.52	0.000965
3472.17	0.000692
3481.81	0.0015037
3491.46	0.0014923
3501.1	0.000709
3510.75	0.00114731
3520.39	0.000634
3530.04	0.000355
3539.68	0.00121751
3549.32	0.0010746
3558.97	0.000632
3568.61	0.0012079
3578.26	0.0010628
3587.9	0.000729
3597.55	0.0019147
3607.19	0.000742
3616.84	0.0014316
3626.48	0.0016905
3636.13	0.000734
3645.77	0.000749
3655.42	0.0013537
3665.06	0.0010533
3674.71	0.000668
3684.35	0.0013013
3694	0.0017163
3703.64	0.000778
3713.29	0.0011403
3722.93	0.0010973
3732.58	0.000861
3742.22	0.00077
3751.86	0.001488
3761.51	0.000717
3771.15	0.001001
3780.8	0.0011479
3790.44	0.0012352
3800.09	0.000674
3809.73	0.000808
3819.38	0.000354
3829.02	0.0015486
3838.67	0.0015425
3848.31	0.000283
3857.96	0.00119264
3867.6	0.0015433
3877.25	0.0018704
3886.89	0.001421
3896.54	0.00041
3906.18	0
3915.83	0.00119537
3925.47	0.000687
3935.12	0.00120806
3944.76	0.0010593
3954.41	0.0012556
3964.05	0.000813
3973.69	0.00121775
3983.34	0.000687
3992.98	0.000505
