Infrared Spectrum: N-t-Butoxycarbonylsarcosine
Formula: C 8 H 15 N O 4
CAS: 13734-36-6
State: gas
Origin: EPA-IR VAPOR PHASE LIBRARY
1/CM	ABSORBANCE
549.8	0.000104
559.445	0.000684
569.09	0.0011243
578.735	0.000391
588.38	0.0011212
598.025	0.0012349
607.67	0.0017704
617.315	0.001971
626.96	0.001628
636.605	0.0013476
646.251	0.0012121
655.896	0.00093702
665.541	0.0011622
675.186	0.00085547
684.831	0.000782
694.476	0.00087696
704.121	0.000741
713.766	0.000674
723.411	0.000516
733.056	0.000623
742.701	0.000475
752.346	0.000545
761.991	0.00093959
771.636	0.0010698
781.281	0.001061
790.926	0.00085596
800.571	0.000489
810.216	0.000747
819.861	0.00087449
829.507	0.00091106
839.152	0.0010621
848.797	0.0012082
858.442	0.0012589
868.087	0.00155
877.732	0.002111
887.377	0.002541
897.022	0.0017923
906.667	0.0013323
916.312	0.0009655
925.957	0.00094617
935.602	0.0008151
945.247	0.00085922
954.892	0.00088135
964.537	0.0012124
974.182	0.0010981
983.827	0.00093545
993.472	0.00087233
1003.12	0.0009649
1012.76	0.00094401
1022.41	0.00092746
1032.05	0.0011209
1041.7	0.0014202
1051.34	0.0016604
1060.99	0.0016615
1070.63	0.0014927
1080.28	0.0016406
1089.92	0.002261
1099.57	0.003661
1109.21	0.006541
1118.86	0.008951
1128.5	0.008111
1138.15	0.007631
1147.79	0.008831
1157.44	0.009701
1167.08	0.009441
1176.73	0.008301
1186.37	0.006281
1196.02	0.004131
1205.66	0.003531
1215.31	0.003961
1224.95	0.005191
1234.6	0.006071
1244.24	0.005321
1253.89	0.003781
1263.53	0.002691
1273.18	0.002411
1282.82	0.002501
1292.47	0.002931
1302.11	0.003081
1311.76	0.002481
1321.4	0.002181
1331.05	0.002181
1340.69	0.002251
1350.34	0.002761
1359.98	0.004111
1369.63	0.006841
1379.27	0.007981
1388.92	0.007441
1398.56	0.005741
1408.21	0.003641
1417.85	0.002711
1427.5	0.002391
1437.14	0.003041
1446.79	0.004311
1456.43	0.004381
1466.08	0.003591
1475.73	0.003281
1485.37	0.003011
1495.02	0.002311
1504.66	0.0017681
1514.31	0.0015679
1523.95	0.0013727
1533.6	0.001369
1543.24	0.0013872
1552.89	0.0012727
1562.53	0.0012017
1572.18	0.0011533
1581.82	0.0011326
1591.47	0.0011695
1601.11	0.001157
1610.76	0.0011417
1620.4	0.0011537
1630.05	0.0011563
1639.69	0.0012691
1649.34	0.0014472
1658.98	0.0015564
1668.63	0.001891
1678.27	0.002041
1687.92	0.002101
1697.56	0.002741
1707.21	0.004591
1716.85	0.008451
1726.5	0.011991
1736.14	0.010001
1745.79	0.005081
1755.43	0.003641
1765.08	0.003441
1774.72	0.005221
1784.37	0.007631
1794.01	0.007651
1803.66	0.004621
1813.3	0.002611
1822.95	0.001991
1832.59	0.0016987
1842.24	0.0014259
1851.88	0.0013331
1861.53	0.0012145
1871.17	0.0011622
1880.82	0.000992
1890.46	0.0010593
1900.11	0.0010397
1909.75	0.0010373
1919.4	0.0010156
1929.04	0.0010164
1938.69	0.0009756
1948.33	0.0010291
1957.98	0.0010095
1967.62	0.0010413
1977.27	0.0009883
1986.91	0.0010201
1996.56	0.0010093
2006.2	0.0009862
2015.85	0.0010548
2025.49	0.0009991
2035.14	0.001027
2044.78	0.0009854
2054.43	0.0009738
2064.07	0.0009682
2073.72	0.0009959
2083.36	0.0009965
2093.01	0.0010152
2102.65	0.0010263
2112.3	0.001048
2121.94	0.0010348
2131.59	0.0010023
2141.23	0.0010433
2150.88	0.0010642
2160.52	0.0010234
2170.17	0.0011205
2179.81	0.0010587
2189.46	0.0010412
2199.1	0.0010445
2208.75	0.0010582
2218.39	0.0011549
2228.04	0.0011413
2237.68	0.0011019
2247.33	0.001109
2256.97	0.0010811
2266.62	0.0011571
2276.26	0.0012808
2285.91	0.0016487
2295.55	0.002001
2305.2	0.002681
2314.84	0.003341
2324.49	0.003761
2334.13	0.003551
2343.78	0.003291
2353.42	0.003621
2363.07	0.004641
2372.72	0.003831
2382.36	0.002121
2392.01	0.0011462
2401.65	0.0010902
2411.3	0.0010639
2420.94	0.0011182
2430.59	0.0010787
2440.23	0.001092
2449.88	0.0010579
2459.52	0.0011006
2469.17	0.0010407
2478.81	0.0011194
2488.46	0.0011528
2498.1	0.0009855
2507.75	0.0010555
2517.39	0.0010592
2527.04	0.0011251
2536.68	0.0010997
2546.33	0.0010542
2555.97	0.0010251
2565.62	0.0011171
2575.26	0.0011105
2584.91	0.0012088
2594.55	0.0011123
2604.2	0.0010935
2613.84	0.0010569
2623.49	0.0010684
2633.13	0.0011209
2642.78	0.0010699
2652.42	0.00093569
2662.07	0.00109
2671.71	0.0010955
2681.36	0.0011863
2691	0.0011311
2700.65	0.0010997
2710.29	0.0011264
2719.94	0.0010829
2729.58	0.0010668
2739.23	0.0010601
2748.87	0.0010381
2758.52	0.001173
2768.16	0.0011378
2777.81	0.0010813
2787.45	0.0012129
2797.1	0.0011339
2806.74	0.0012292
2816.39	0.0011917
2826.03	0.0014171
2835.68	0.0014101
2845.32	0.0013367
2854.97	0.0015063
2864.61	0.0017312
2874.26	0.001871
2883.9	0.002121
2893.55	0.002351
2903.19	0.002401
2912.84	0.002631
2922.48	0.002861
2932.13	0.003521
2941.77	0.003851
2951.42	0.003361
2961.06	0.003261
2970.71	0.003651
2980.35	0.004731
2990	0.003871
2999.64	0.002221
3009.29	0.001809
3018.93	0.0016901
3028.58	0.0013124
3038.22	0.0010392
3047.87	0.0011002
3057.51	0.0010704
3067.16	0.00095702
3076.8	0.00095503
3086.45	0.0010271
3096.09	0.0010243
3105.74	0.000682
3115.38	0.000724
3125.03	0.0008374
3134.67	0.000735
3144.32	0.000664
3153.96	0.0008216
3163.61	0.000719
3173.25	0.00085363
3182.9	0.000716
3192.54	0.000673
3202.19	0.000667
3211.83	0.000624
3221.48	0.000575
3231.12	0.000742
3240.77	0.000719
3250.41	0.0007778
3260.06	0.00059
3269.7	0.000727
3279.35	0.000796
3289	0.000542
3298.64	0.000564
3308.29	0.000637
3317.93	0.000596
3327.58	0.000456
3337.22	0.000637
3346.87	0.000461
3356.51	0.000652
3366.16	0.000515
3375.8	0.000567
3385.45	0.00043
3395.09	0.00036
3404.74	0.000449
3414.38	0.000299
3424.03	0.000637
3433.67	0.000516
3443.32	0.000527
3452.96	0.000331
3462.61	0.000485
3472.25	0.000532
3481.9	0.000479
3491.54	0.000509
3501.19	0.000373
3510.83	0.000426
3520.48	0.000555
3530.12	0.000539
3539.77	0.000545
3549.41	0.000495
3559.06	0.000867827
3568.7	0.002131
3578.35	0.002841
3587.99	0.0014897
3597.64	0.000731
3607.28	0.000593
3616.93	0.000333
3626.57	0.000576
3636.22	0.000526
3645.86	0.000343
3655.51	0.000394
3665.15	0.000326
3674.8	0.000414
3684.44	0.000418
3694.09	0.000526
3703.73	0.000409
3713.38	0.000502
3723.02	0.000349
3732.67	0.000435
3742.31	0.000511
3751.96	0.000466
3761.6	0.000596
3771.25	0.000181
3780.89	0.000234
3790.54	0.000365
3800.18	0.000375
3809.83	0.000338
3819.47	0.000584
3829.12	0.000323
3838.76	0.000381
3848.41	0.000282
3858.05	0.000447
3867.7	0.000466
3877.34	0.000413
3886.99	0.000353
3896.63	0.000437
3906.28	0.000489
3915.92	0.000409
3925.57	0.0005
3935.21	0.000539
3944.86	0.000341
3954.5	0.000628
3964.15	0.000516
3973.79	0.000394
3983.44	0.000439
3993.08	0.000509
