Infrared Spectrum: 1-Phenyl-1-trimethylsilylyloxyethylene
Formula: C 11 H 16 O Si
CAS: 13735-81-4
State: gas
Origin: EPA-IR VAPOR PHASE LIBRARY
1/CM	ABSORBANCE
549.9	0.00364
559.547	0.0047
569.193	0.00822
578.84	0.00963
588.486	0.00652
598.133	0.00487
607.779	0.00432
617.426	0.00418
627.072	0.00394
636.719	0.00373
646.365	0.00403
656.012	0.00504
665.658	0.00753
675.305	0.01267
684.951	0.02263
694.598	0.03373
704.245	0.03015
713.891	0.02069
723.538	0.01577
733.184	0.01427
742.831	0.01574
752.477	0.02214
762.124	0.03282
771.77	0.03665
781.417	0.02271
791.063	0.01456
800.71	0.01399
810.356	0.01826
820.003	0.02873
829.649	0.05055
839.296	0.09101
848.943	0.13358
858.589	0.1402
868.236	0.10945
877.882	0.06281
887.529	0.03746
897.175	0.02508
906.822	0.01789
916.468	0.01279
926.115	0.00863
935.761	0.00604
945.408	0.00478
955.054	0.0044
964.701	0.00468
974.347	0.00527
983.994	0.00702
993.64	0.01207
1003.29	0.02777
1012.93	0.0756
1022.58	0.10053
1032.23	0.05417
1041.87	0.01916
1051.52	0.01029
1061.17	0.01067
1070.81	0.01478
1080.46	0.01292
1090.11	0.01231
1099.75	0.02341
1109.4	0.04409
1119.05	0.04378
1128.69	0.0232
1138.34	0.01149
1147.99	0.00703
1157.63	0.00503
1167.28	0.00445
1176.92	0.00599
1186.57	0.00619
1196.22	0.00316
1205.86	0.0041
1215.51	0.00528
1225.16	0.00833
1234.8	0.01558
1244.45	0.02891
1254.1	0.04943
1263.74	0.05887
1273.39	0.05551
1283.04	0.06435
1292.68	0.08705
1302.33	0.10038
1311.98	0.0955
1321.62	0.05682
1331.27	0.02258
1340.92	0.01238
1350.56	0.00919
1360.21	0.00787
1369.86	0.00729
1379.5	0.0073
1389.15	0.00688
1398.79	0.00668
1408.44	0.00683
1418.09	0.00657
1427.73	0.00625
1437.38	0.00712
1447.03	0.00807
1456.67	0.00655
1466.32	0.0057
1475.97	0.00603
1485.61	0.00904
1495.26	0.01011
1504.91	0.00618
1514.55	0.00389
1524.2	0.00354
1533.85	0.00374
1543.49	0.0044
1553.14	0.0057
1562.79	0.00812
1572.43	0.01093
1582.08	0.01145
1591.73	0.01337
1601.37	0.01988
1611.02	0.02866
1620.67	0.0343
1630.31	0.02781
1639.96	0.01599
1649.6	0.00947
1659.25	0.00652
1668.9	0.0048
1678.54	0.00419
1688.19	0.00394
1697.84	0.00322
1707.48	0.00289
1717.13	0.00255
1726.78	0.0023031
1736.42	0.0024151
1746.07	0.0025292
1755.72	0.0021786
1765.36	0.0018047
1775.01	0.00163109
1784.66	0.0020528
1794.3	0.00281
1803.95	0.0025271
1813.6	0.0017684
1823.24	0.00164593
1832.89	0.001479
1842.54	0.001443
1852.18	0.0015341
1861.83	0.0018199
1871.47	0.0021784
1881.12	0.0024993
1890.77	0.0025314
1900.41	0.001947
1910.06	0.0015304
1919.71	0.0015991
1929.35	0.0018863
1939	0.0026
1948.65	0.00272
1958.29	0.0024215
1967.94	0.001795
1977.59	0.0014864
1987.23	0.0014972
1996.88	0.001442
2006.53	0.00157307
2016.17	0.0014921
2025.82	0.00144
2035.47	0.001322
2045.11	0.001259
2054.76	0.001161
2064.41	0.001047
2074.05	0.00103
2083.7	0.001103
2093.35	0.001066
2102.99	0.001216
2112.64	0.001139
2122.28	0.001161
2131.93	0.001118
2141.58	0.000971
2151.22	0.000933
2160.87	0.000946
2170.52	0.000893
2180.16	0.000822
2189.81	0.000842
2199.46	0.000782
2209.1	0.000858
2218.75	0.000906
2228.4	0.000846
2238.04	0.00075
2247.69	0.000882
2257.34	0.000791
2266.98	0.000819
2276.63	0.000867
2286.28	0.000939
2295.92	0.001032
2305.57	0.001111
2315.22	0.001245
2324.86	0.001114
2334.51	0.000937
2344.16	0.000868
2353.8	0.000738
2363.45	0.000642
2373.09	0.000758
2382.74	0.000781
2392.39	0.000854
2402.03	0.000872
2411.68	0.000868
2421.33	0.000827
2430.97	0.000765
2440.62	0.000724
2450.27	0.000613
2459.91	0.000675
2469.56	0.00061
2479.21	0.000644
2488.85	0.000636
2498.5	0.000649
2508.15	0.000733
2517.79	0.000656
2527.44	0.000595
2537.09	0.00053
2546.73	0.00058
2556.38	0.00053
2566.03	0.000674
2575.67	0.000676
2585.32	0.000726
2594.96	0.000793
2604.61	0.000871
2614.26	0.000775
2623.9	0.000681
2633.55	0.00062
2643.2	0.000672
2652.84	0.000594
2662.49	0.000585
2672.14	0.00054
2681.78	0.00053
2691.43	0.000639
2701.08	0.00048
2710.72	0.00048
2720.37	0.000582
2730.02	0.00057
2739.66	0.000627
2749.31	0.000689
2758.96	0.00063
2768.6	0.000827
2778.25	0.000968
2787.9	0.00102
2797.54	0.001369
2807.19	0.001434
2816.84	0.0015105
2826.48	0.0015399
2836.13	0.0017622
2845.77	0.0020539
2855.42	0.0019986
2865.07	0.0025284
2874.71	0.00298
2884.36	0.00357
2894.01	0.00513
2903.65	0.00716
2913.3	0.00694
2922.95	0.00505
2932.59	0.00465
2942.24	0.00669
2951.89	0.01379
2961.53	0.02638
2971.18	0.02454
2980.83	0.01316
2990.47	0.00668
3000.12	0.00412
3009.77	0.00435
3019.41	0.00565
3029.06	0.00804
3038.71	0.01058
3048.35	0.01054
3058	0.01422
3067.64	0.01912
3077.29	0.01592
3086.94	0.01224
3096.58	0.0093
3106.23	0.00708
3115.88	0.00664
3125.52	0.00747
3135.17	0.00341
3144.82	0.0015683
3154.46	0.001141
3164.11	0.0007
3173.76	0.00039
3183.4	0.00035
3193.05	0.00033
3202.7	0.00047
3212.34	0.00042
3221.99	0.00036
3231.64	0.0002
3241.28	0.00032
3250.93	0.0002
3260.58	0.00042
3270.22	7e-05
3279.87	0.00031
3289.52	5e-05
3299.16	4e-05
3308.81	0.00036
3318.45	0.00041
3328.1	0.00016
3337.75	0.00034
3347.39	0.00046
3357.04	0.00035
3366.69	0.00013
3376.33	0.000588
3385.98	0.00026
3395.63	0.00013
3405.27	0.000582
3414.92	0.000636
3424.57	0.00052
3434.21	0.000627
3443.86	0.000598
3453.51	0.00052
3463.15	0.00049
3472.8	0.00043
3482.45	0.00039
3492.09	0.00066
3501.74	0.000641
3511.39	0.000707
3521.03	0.000789
3530.68	0.000852
3540.33	0.000872
3549.97	0.000805
3559.62	0.000724
3569.26	0.000876
3578.91	0.001012
3588.56	0.000731
3598.2	0.001087
3607.85	0.001041
3617.5	0.001081
3627.14	0.001082
3636.79	0.00108
3646.44	0.001273
3656.08	0.001256
3665.73	0.001315
3675.38	0.001268
3685.02	0.001095
3694.67	0.001107
3704.32	0.00121
3713.96	0.00105
3723.61	0.0012
3733.26	0.001301
3742.9	0.00122
3752.55	0.001238
3762.2	0.001418
3771.84	0.001344
3781.49	0.001185
3791.13	0.001097
3800.78	0.001177
3810.43	0.00096
3820.07	0.001082
3829.72	0.001214
3839.37	0.001081
3849.01	0.000974
3858.66	0.000886
3868.31	0.000755
3877.95	0.000913
3887.6	0.000889
3897.25	0.000768
3906.89	0.000915
3916.54	0.000729
3926.19	0.000856
3935.83	0.000733
3945.48	0.00079
3955.13	0.00071
3964.77	0.000747
3974.42	0.000763
3984.07	0.000952
3993.71	0.000852
