Infrared Spectrum: 1,2-Dibromotrichloroethane
Formula: C 2 H Br 2 Cl 3
CAS: 13749-38-7
State: gas
Origin: EPA-IR VAPOR PHASE LIBRARY
1/CM	ABSORBANCE
549.9	0.003512
559.547	0.011722
569.193	0.018442
578.84	0.007042
588.486	0.002652
598.133	0.002542
607.779	0.003152
617.426	0.006912
627.072	0.019052
636.719	0.027632
646.365	0.016622
656.012	0.028052
665.658	0.037962
675.305	0.015952
684.951	0.005782
694.598	0.007132
704.245	0.018182
713.891	0.042892
723.538	0.052662
733.184	0.038602
742.831	0.054032
752.477	0.087242
762.124	0.072902
771.77	0.055202
781.417	0.046902
791.063	0.030742
800.71	0.035952
810.356	0.022502
820.003	0.020022
829.649	0.018852
839.296	0.007722
848.943	0.004642
858.589	0.002892
868.236	0.002192
877.882	0.002162
887.529	0.001982
897.175	0.001822
906.822	0.002142
916.468	0.002872
926.115	0.003002
935.761	0.002602
945.408	0.002482
955.054	0.001982
964.701	0.002012
974.347	0.002222
983.994	0.003002
993.64	0.005042
1003.29	0.007402
1012.93	0.006762
1022.58	0.003102
1032.23	0.001399
1041.87	0.001268
1051.52	0.0012614
1061.17	0.0012515
1070.81	0.001141
1080.46	0.0010667
1090.11	0.0010774
1099.75	0.0010663
1109.4	0.0012633
1119.05	0.0014423
1128.69	0.0014552
1138.34	0.0016302
1147.99	0.002302
1157.63	0.006162
1167.28	0.015262
1176.92	0.009992
1186.57	0.003072
1196.22	0.0016609
1205.86	0.0010812
1215.51	0.001109
1225.16	0.0015815
1234.8	0.003152
1244.45	0.005202
1254.1	0.003222
1263.74	0.0013345
1273.39	0.0011031
1283.04	0.0010277
1292.68	0.0009322
1302.33	0.0009495
1311.98	0.0009171
1321.62	0.0008999
1331.27	0.0009335
1340.92	0.00080314
1350.56	0.0008368
1360.21	0.0009167
1369.86	0.0009625
1379.5	0.0009429
1389.15	0.0008748
1398.79	0.00083053
1408.44	0.0008513
1418.09	0.00077896
1427.73	0.00079295
1437.38	0.00081966
1447.03	0.00080553
1456.67	0.00076545
1466.32	0.00077518
1475.97	0.00076662
1485.61	0.00078448
1495.26	0.00077877
1504.91	0.000734389
1514.55	0.0008516
1524.2	0.0008735
1533.85	0.00079436
1543.49	0.00082004
1553.14	0.0009188
1562.79	0.0009774
1572.43	0.0009552
1582.08	0.0010048
1591.73	0.0009178
1601.37	0.0008964
1611.02	0.0007803
1620.67	0.0006947
1630.31	0.0007182
1639.96	0.00075325
1649.6	0.0007129
1659.25	0.000741529
1668.9	0.0006388
1678.54	0.000607
1688.19	0.0006519
1697.84	0.000574
1707.48	0.00072291
1717.13	0.000622
1726.78	0.0007468
1736.42	0.00074325
1746.07	0.00076239
1755.72	0.00078959
1765.36	0.00081922
1775.01	0.00076275
1784.66	0.00080795
1794.3	0.0008131
1803.95	0.00072956
1813.6	0.00074302
1823.24	0.0006859
1832.89	0.0007077
1842.54	0.0006868
1852.18	0.000617
1861.83	0.0006885
1871.47	0.0007008
1881.12	0.0007139
1890.77	0.0006806
1900.41	0.0006789
1910.06	0.0006709
1919.71	0.0006323
1929.35	0.000673
1939	0.0006603
1948.65	0.0006791
1958.29	0.0006399
1967.94	0.0006663
1977.59	0.0006561
1987.23	0.000622
1996.88	0.0007021
2006.53	0.00073361
2016.17	0.00072816
2025.82	0.0007039
2035.47	0.0006766
2045.11	0.0006603
2054.76	0.000651
2064.41	0.0006694
2074.05	0.000618
2083.7	0.0006851
2093.35	0.000622
2102.99	0.0006324
2112.64	0.000613
2122.28	0.0006536
2131.93	0.0006537
2141.58	0.000628
2151.22	0.000582
2160.87	0.0006559
2170.52	0.0006441
2180.16	0.0006591
2189.81	0.0006954
2199.46	0.0006579
2209.1	0.0006464
2218.75	0.0006912
2228.4	0.000597
2238.04	0.0006501
2247.69	0.000662
2257.34	0.0007
2266.98	0.000605
2276.63	0.0006558
2286.28	0.0006907
2295.92	0.0007215
2305.57	0.00081347
2315.22	0.0009028
2324.86	0.0010012
2334.51	0.0008418
2344.16	0.0006932
2353.8	0.0006762
2363.45	0.000616
2373.09	0.0006498
2382.74	0.0006969
2392.39	0.0006513
2402.03	0.000737149
2411.68	0.00080583
2421.33	0.000834
2430.97	0.00075021
2440.62	0.0006846
2450.27	0.00073098
2459.91	0.00079057
2469.56	0.0008434
2479.21	0.0008848
2488.85	0.00077281
2498.5	0.0006551
2508.15	0.0006525
2517.79	0.0006613
2527.44	0.000554
2537.09	0.0006501
2546.73	0.000609
2556.38	0.000628
2566.03	0.0006357
2575.67	0.0006502
2585.32	0.0006373
2594.96	0.000609
2604.61	0.000592
2614.26	0.000534
2623.9	0.000566
2633.55	0.000522
2643.2	0.000585
2652.84	0.000608
2662.49	0.000589
2672.14	0.000568
2681.78	0.000588
2691.43	0.000534
2701.08	0.000455
2710.72	0.000613
2720.37	0.000572
2730.02	0.000559
2739.66	0.000495
2749.31	0.000423
2758.96	0.00053
2768.6	0.000619
2778.25	0.000536
2787.9	0.00039
2797.54	0.000509
2807.19	0.000482
2816.84	0.000585
2826.48	0.000537
2836.13	0.000485
2845.77	0.000488
2855.42	0.000525
2865.07	0.000455
2874.71	0.000538
2884.36	0.000379
2894.01	0.000327
2903.65	0.000571
2913.3	0.000479
2922.95	0.000423
2932.59	0.000453
2942.24	0.000489
2951.89	0.000329
2961.53	0.000418
2971.18	0.000389
2980.83	0.0006
2990.47	0.0013896
3000.12	0.003552
3009.77	0.005932
3019.41	0.002222
3029.06	0.000413
3038.71	0.000403
3048.35	0.000145
3058	0.000242
3067.64	0.000236
3077.29	0.000315
3086.94	0.000372
3096.58	0.000466
3106.23	0.000389
3115.88	0
3125.52	0.000293
3135.17	0.000264
3144.82	0.000125
3154.46	0.000373
3164.11	0.000267
3173.76	0.000381
3183.4	0.000226
3193.05	2.7e-05
3202.7	0.000103
3212.34	0.000202
3221.99	0.000294
3231.64	0.00029
3241.28	0.000273
3250.93	0.000267
3260.58	0.000212
3270.22	0.000272
3279.87	0.000424
3289.52	0.000134
3299.16	0.000288
3308.81	0.000387
3318.45	0.000445
3328.1	0.000112
3337.75	0.000392
3347.39	0.000297
3357.04	0.000327
3366.69	0.00017
3376.33	0.000294
3385.98	0.000151
3395.63	0.000286
3405.27	0.000384
3414.92	0.0003
3424.57	0.000351
3434.21	0.000497
3443.86	0.000533
3453.51	0.000292
3463.15	0.000343
3472.8	0.000248
3482.45	0.000416
3492.09	0.0002
3501.74	0.000599
3511.39	0.000464
3521.03	0.000365
3530.68	0.000422
3540.33	0.000426
3549.97	0.000453
3559.62	0.000412
3569.26	0.000419
3578.91	0.000439
3588.56	0.000418
3598.2	0.000625
3607.85	0.000378
3617.5	0.000476
3627.14	0.000493
3636.79	0.000588
3646.44	0.000472
3656.08	0.000432
3665.73	0.000586
3675.38	0.000449
3685.02	0.000567
3694.67	0.00054
3704.32	0.000541
3713.96	0.000612
3723.61	0.000571
3733.26	0.000569
3742.9	0.000536
3752.55	0.000578
3762.2	0.00075212
3771.84	0.0006545
3781.49	0.0006428
3791.13	0.0006602
3800.78	0.000629
3810.43	0.00076669
3820.07	0.00081747
3829.72	0.0006399
3839.37	0.000591
3849.01	0.0006515
3858.66	0.0006437
3868.31	0.00075093
3877.95	0.0007117
3887.6	0.000485
3897.25	0.00062
3906.89	0.0006514
3916.54	0.0006707
3926.19	0.000671
3935.83	0.0006736
3945.48	0.000585
3955.13	0.0006698
3964.77	0.00076898
3974.42	0.00075509
3984.07	0.00053
3993.71	0.00077349
