Infrared Spectrum: 1H-NAPHTH[1,2-d]IMIDAZOLE, 1-(P-ANISIDINO)-2-PHENYL-
Formula: C24 H19 N3 O
CAS: 13750-96-4
State: SOLID (KBr DISC)
Class: COBLENTZ III
Instrument: UNICAM SP-200
Sampling: TRANSMISSION
Resolution: 4
Origin: HUNGARIAN ACAD. OF SCI., VIA SCIENTIFIC DOC. CENTRE LTD.
1/CM	TRANSMITTANCE
650.789	0.783
661.842	0.754
672.894	0.775
683.947	0.802
695	0.821
706.052	0.68
717.105	0.811
728.158	0.7901
739.21	0.721
750.263	0.534
761.316	0.699
772.368	0.821
783.421	0.83
794.474	0.779
805.526	0.3291
816.579	0.589
827.631	0.5381
838.684	0.401
849.737	0.623
860.789	0.779
871.842	0.802
882.895	0.806
893.947	0.725
905	0.788
916.053	0.817
927.105	0.838
938.158	0.847
949.211	0.848
960.263	0.838
971.316	0.845
982.369	0.765
993.421	0.781
1004.47	0.791
1015.53	0.729
1026.58	0.502
1037.63	0.366
1048.68	0.663
1059.74	0.769
1070.79	0.793
1081.84	0.737
1092.9	0.76
1103.95	0.736
1115	0.661
1126.05	0.725
1137.11	0.758
1148.16	0.76
1159.21	0.755
1170.26	0.4162
1181.32	0.382
1192.37	0.694
1203.42	0.704
1214.47	0.655
1225.53	0.5161
1236.58	0.221
1247.63	0.147
1258.68	0.196
1269.74	0.565
1280.79	0.692
1291.84	0.554
1302.9	0.53
1313.95	0.642
1325	0.67
1336.05	0.741
1347.11	0.782
1358.16	0.762
1369.21	0.761
1380.26	0.486
1391.32	0.6149
1402.37	0.762
1413.42	0.774
1424.47	0.682
1435.53	0.631
1446.58	0.467
1457.63	0.497
1468.69	0.339
1479.74	0.378
1490.79	0.557
1501.84	0.4521
1512.9	0.189
1523.95	0.4619
1535	0.633
1546.05	0.751
1557.11	0.811
1568.16	0.803
1579.21	0.72
1590.26	0.708
1601.32	0.515
1612.37	0.5108
1623.42	0.723
1634.48	0.793
1645.53	0.828
1656.58	0.85
1667.63	0.844
1678.69	0.838
1689.74	0.838
1700.79	0.843
1711.84	0.847
1722.9	0.84
1733.95	0.845
1745	0.849
1756.05	0.852
1767.11	0.855
1778.16	0.86
1789.21	0.859
1800.27	0.854
1811.32	0.851
1822.37	0.846
1833.42	0.844
1844.48	0.84
1855.53	0.837
1866.58	0.837
1877.63	0.838
1888.69	0.837
1899.74	0.837
1910.79	0.835
1921.84	0.837
1932.9	0.84
1943.95	0.84
1955	0.84
1966.05	0.841
1977.11	0.84
1988.16	0.833
1999.21	0.831
2010.27	0.8328
2021.32	0.8283
2032.37	0.8188
2043.42	0.8114
2054.48	0.8142
2065.53	0.8211
2076.58	0.8261
2087.63	0.8285
2098.69	0.831
2109.74	0.8275
2120.79	0.826
2131.84	0.8308
2142.9	0.8313
2153.95	0.8303
2165	0.8312
2176.06	0.8137
2187.11	0.8187
2198.16	0.8228
2209.21	0.8186
2220.27	0.8118
2231.32	0.8116
2242.37	0.8099
2253.42	0.8106
2264.48	0.812
2275.53	0.806
2286.58	0.802
2297.63	0.8045
2308.69	0.8079
2319.74	0.81
2330.79	0.811
2341.85	0.8083
2352.9	0.8002
2363.95	0.7987
2375	0.7923
2386.06	0.7868
2397.11	0.7833
2408.16	0.781
2419.21	0.782
2430.27	0.782
2441.32	0.7804
2452.37	0.7769
2463.42	0.771
2474.48	0.769
2485.53	0.7695
2496.58	0.7691
2507.63	0.7626
2518.69	0.76
2529.74	0.7557
2540.79	0.7608
2551.85	0.7577
2562.9	0.7557
2573.95	0.7572
2585	0.758
2596.06	0.76
2607.11	0.7594
2618.16	0.757
2629.21	0.7539
2640.27	0.7479
2651.32	0.7425
2662.37	0.736
2673.42	0.735
2684.48	0.736
2695.53	0.7316
2706.58	0.7281
2717.64	0.7233
2728.69	0.719
2739.74	0.7187
2750.79	0.7061
2761.85	0.6823
2772.9	0.6659
2783.95	0.653
2795	0.6562
2806.06	0.6634
2817.11	0.6664
2828.16	0.6533
2839.21	0.62
2850.27	0.6033
2861.32	0.5807
2872.37	0.5703
2883.43	0.5561
2894.48	0.551
2905.53	0.5543
2916.58	0.559
2927.64	0.559
2938.69	0.5535
2949.74	0.5522
2960.79	0.5591
2971.85	0.5673
2982.9	0.5732
2993.95	0.5803
3005	0.5901
3016.06	0.6001
3027.11	0.6075
3038.16	0.612
3049.21	0.6224
3060.27	0.6269
3071.32	0.6294
3082.37	0.629
3093.43	0.6147
3104.48	0.5944
3115.53	0.5837
3126.58	0.5803
3137.64	0.5802
3148.69	0.5871
3159.74	0.5946
3170.79	0.6039
3181.85	0.6113
3192.9	0.6196
3203.95	0.6271
3215	0.631
3226.06	0.634
3237.11	0.6276
3248.16	0.6269
3259.22	0.6336
3270.27	0.6407
3281.32	0.651
3292.37	0.6604
3303.43	0.6768
3314.48	0.6857
3325.53	0.691
3336.58	0.693
3347.64	0.7022
3358.69	0.7062
3369.74	0.71
3380.79	0.7116
3391.85	0.712
3402.9	0.7115
3413.95	0.709
3425.01	0.7056
3436.06	0.7059
3447.11	0.7074
3458.16	0.7099
3469.22	0.709
3480.27	0.708
3491.32	0.7057
3502.37	0.703
3513.43	0.701
3524.48	0.6993
3535.53	0.6918
3546.58	0.6902
3557.64	0.695
3568.69	0.6904
3579.74	0.69
3590.8	0.6925
3601.85	0.695
3612.9	0.697
3623.95	0.698
3635.01	0.6984
3646.06	0.7
3657.11	0.7
3668.16	0.698
3679.22	0.693
3690.27	0.6957
3701.32	0.7
3712.37	0.701
3723.43	0.7012
3734.48	0.701
3745.53	0.7
3756.58	0.6994
3767.64	0.6949
3778.69	0.682
3789.74	0.677
3800.8	0.6784
3811.85	0.68
3822.9	0.6814
3833.95	0.6839
3845.01	0.684
3856.06	0.684
3867.11	0.6837
3878.16	0.6815
3889.22	0.6778
3900.27	0.6787
3911.32	0.68
3922.37	0.68
3933.43	0.6789
3944.48	0.6764
3955.53	0.676
3966.59	0.676
3977.64	0.678
3988.69	0.679
3999.74	0.679
4010.8	0.676
4021.85	0.6741
4032.9	0.676
4043.95	0.6768
4055.01	0.676
4066.06	0.6733
4077.11	0.6718
4088.16	0.671
4099.22	0.672
4110.27	0.6736
4121.32	0.6741
4132.38	0.6756
4143.43	0.676
4154.48	0.674
4165.53	0.672
4176.59	0.6706
4187.64	0.6672
4198.69	0.6626
4209.74	0.66
4220.8	0.658
4231.85	0.6512
4242.9	0.6543
4253.95	0.658
4265.01	0.66
4276.06	0.6583
4287.11	0.6539
4298.16	0.652
4309.22	0.653
4320.27	0.653
4331.32	0.652
4342.38	0.652
4353.43	0.652
4364.48	0.651
4375.53	0.6491
4386.59	0.648
4397.64	0.647
4408.69	0.6493
4419.74	0.6518
4430.8	0.653
4441.85	0.6513
4452.9	0.646
4463.95	0.646
4475.01	0.6471
4486.06	0.648
4497.11	0.648
4508.17	0.6464
4519.22	0.6409
4530.27	0.635
4541.32	0.638
4552.38	0.64
4563.43	0.641
4574.48	0.641
4585.53	0.639
4596.59	0.6344
4607.64	0.625
4618.69	0.631
4629.74	0.6295
4640.8	0.629
4651.85	0.629
4662.9	0.629
4673.96	0.63
4685.01	0.629
4696.06	0.629
4707.11	0.629
4718.17	0.629
4729.22	0.627
4740.27	0.63
4751.32	0.631
4762.38	0.631
4773.43	0.6291
4784.48	0.629
4795.53	0.6272
4806.59	0.6237
4817.64	0.6203
4828.69	0.618
4839.74	0.621
4850.8	0.627
4861.85	0.6236
4872.9	0.6147
4883.96	0.6063
4895.01	0.605
4906.06	0.608
4917.11	0.608
4928.17	0.608
4939.22	0.608
4950.27	0.607
4961.32	0.607
