Infrared Spectrum: M-TOLUIDINE, N-(P-METHOXYBENZYLIDENE)-4-(P-METHOXYPHENYLAZO)-
Formula: C22 H21 N3 O2
CAS: 13750-95-3
State: SOLID (KBr DISC)
Class: COBLENTZ III
Instrument: UNICAM SP-200
Sampling: TRANSMISSION
Resolution: 4
Origin: HUNGARIAN ACAD. OF SCI., VIA SCIENTIFIC DOC. CENTRE LTD.
1/CM	TRANSMITTANCE
651.592	0.753
662.736	0.755
673.88	0.75
685.024	0.747
696.168	0.739
707.311	0.732
718.455	0.699
729.599	0.716
740.743	0.706
751.887	0.684
763.031	0.704
774.175	0.708
785.319	0.698
796.463	0.688
807.606	0.676
818.75	0.612
829.894	0.549
841.038	0.2211
852.182	0.455
863.326	0.572
874.47	0.668
885.614	0.668
896.758	0.5159
907.901	0.658
919.045	0.664
930.189	0.659
941.333	0.626
952.477	0.57
963.621	0.597
974.765	0.597
985.909	0.565
997.053	0.593
1008.2	0.522
1019.34	0.27
1030.48	0.3679
1041.63	0.555
1052.77	0.578
1063.92	0.577
1075.06	0.567
1086.2	0.536
1097.35	0.429
1108.49	0.403
1119.64	0.444
1130.78	0.329
1141.92	0.149
1153.07	0.415
1164.21	0.304
1175.35	0.377
1186.5	0.507
1197.64	0.408
1208.79	0.426
1219.93	0.423
1231.07	0.247
1242.22	0.103
1253.36	0.097
1264.51	0.509
1275.65	0.644
1286.79	0.5731
1297.94	0.368
1309.08	0.331
1320.23	0.625
1331.37	0.678
1342.51	0.667
1353.66	0.638
1364.8	0.6
1375.94	0.551
1387.09	0.612
1398.23	0.606
1409.38	0.54
1420.52	0.485
1431.66	0.497
1442.81	0.349
1453.95	0.438
1465.1	0.349
1476.24	0.438
1487.38	0.427
1498.53	0.275
1509.67	0.258
1520.82	0.539
1531.96	0.558
1543.1	0.463
1554.25	0.302
1565.39	0.159
1576.53	0.114
1587.68	0.224
1598.82	0.3401
1609.97	0.512
1621.11	0.632
1632.25	0.697
1643.4	0.673
1654.54	0.674
1665.69	0.649
1676.83	0.638
1687.97	0.632
1699.12	0.63
1710.26	0.629
1721.41	0.623
1732.55	0.617
1743.69	0.615
1754.84	0.607
1765.98	0.605
1777.12	0.603
1788.27	0.6
1799.41	0.598
1810.56	0.6
1821.7	0.594
1832.84	0.588
1843.99	0.587
1855.13	0.573
1866.28	0.57
1877.42	0.559
1888.56	0.549
1899.71	0.546
1910.85	0.556
1922	0.554
1933.14	0.553
1944.28	0.545
1955.43	0.545
1966.57	0.542
1977.71	0.542
1988.86	0.529
2000	0.521
2011.15	0.518
2022.29	0.5119
2033.43	0.5116
2044.58	0.5162
2055.72	0.518
2066.87	0.518
2078.01	0.518
2089.15	0.518
2100.3	0.5161
2111.44	0.514
2122.59	0.513
2133.73	0.5115
2144.87	0.511
2156.02	0.5069
2167.16	0.5019
2178.3	0.4974
2189.45	0.4958
2200.59	0.4933
2211.74	0.4877
2222.88	0.4832
2234.02	0.481
2245.17	0.48
2256.31	0.478
2267.46	0.476
2278.6	0.476
2289.74	0.476
2300.89	0.476
2312.03	0.475
2323.18	0.474
2334.32	0.475
2345.46	0.4753
2356.61	0.4712
2367.75	0.4614
2378.89	0.4523
2390.04	0.448
2401.18	0.4451
2412.33	0.441
2423.47	0.437
2434.61	0.435
2445.76	0.4328
2456.9	0.4289
2468.05	0.427
2479.19	0.4266
2490.33	0.4232
2501.48	0.4197
2512.62	0.4162
2523.77	0.4116
2534.91	0.409
2546.05	0.409
2557.2	0.409
2568.34	0.4075
2579.48	0.406
2590.63	0.4054
2601.77	0.404
2612.92	0.404
2624.06	0.398
2635.2	0.397
2646.35	0.395
2657.49	0.3893
2668.64	0.388
2679.78	0.388
2690.92	0.383
2702.07	0.38
2713.21	0.3794
2724.36	0.3789
2735.5	0.3727
2746.64	0.3668
2757.79	0.3588
2768.93	0.3527
2780.07	0.342
2791.22	0.339
2802.36	0.3371
2813.51	0.336
2824.65	0.333
2835.79	0.33
2846.94	0.327
2858.08	0.3264
2869.23	0.3239
2880.37	0.3193
2891.51	0.318
2902.66	0.3205
2913.8	0.323
2924.94	0.324
2936.09	0.325
2947.23	0.3269
2958.38	0.328
2969.52	0.3329
2980.66	0.335
2991.81	0.337
3002.95	0.337
3014.1	0.337
3025.24	0.338
3036.38	0.339
3047.53	0.339
3058.67	0.34
3069.82	0.341
3080.96	0.341
3092.1	0.341
3103.25	0.339
3114.39	0.337
3125.53	0.337
3136.68	0.3349
3147.82	0.332
3158.97	0.33
3170.11	0.33
3181.25	0.332
3192.4	0.333
3203.54	0.334
3214.69	0.334
3225.83	0.333
3236.97	0.3339
3248.12	0.335
3259.26	0.337
3270.41	0.3386
3281.55	0.3391
3292.69	0.341
3303.84	0.3422
3314.98	0.3457
3326.12	0.348
3337.27	0.3498
3348.41	0.3527
3359.56	0.351
3370.7	0.348
3381.84	0.347
3392.99	0.346
3404.13	0.3459
3415.28	0.344
3426.42	0.3399
3437.56	0.338
3448.71	0.3368
3459.85	0.3323
3471	0.3297
3482.14	0.3237
3493.28	0.3196
3504.43	0.3133
3515.57	0.3096
3526.71	0.308
3537.86	0.3045
3549	0.3039
3560.15	0.303
3571.29	0.304
3582.43	0.303
3593.58	0.302
3604.72	0.301
3615.87	0.299
3627.01	0.2972
3638.15	0.2946
3649.3	0.293
3660.44	0.293
3671.59	0.291
3682.73	0.29
3693.87	0.291
3705.02	0.292
3716.16	0.293
3727.3	0.2913
3738.45	0.29
3749.59	0.289
3760.74	0.2887
3771.88	0.288
3783.02	0.2862
3794.17	0.2821
3805.31	0.279
3816.46	0.279
3827.6	0.278
3838.74	0.277
3849.89	0.276
3861.03	0.276
3872.18	0.2743
3883.32	0.2733
3894.46	0.274
3905.61	0.274
3916.75	0.2731
3927.89	0.2716
3939.04	0.269
3950.18	0.269
3961.33	0.268
3972.47	0.268
3983.61	0.268
3994.76	0.267
4005.9	0.267
4017.05	0.266
4028.19	0.266
4039.33	0.265
4050.48	0.2646
4061.62	0.2593
4072.77	0.258
4083.91	0.257
4095.05	0.2565
4106.2	0.2549
4117.34	0.253
4128.48	0.253
4139.63	0.253
4150.77	0.252
4161.92	0.252
4173.06	0.2517
4184.2	0.251
4195.35	0.251
4206.49	0.251
4217.64	0.2495
4228.78	0.248
4239.92	0.248
4251.07	0.246
4262.21	0.244
4273.36	0.242
4284.5	0.243
4295.64	0.243
4306.79	0.2412
4317.93	0.2407
4329.07	0.2391
4340.22	0.2384
4351.36	0.2399
4362.51	0.2395
4373.65	0.239
4384.79	0.238
4395.94	0.2381
4407.08	0.2384
4418.23	0.238
4429.37	0.237
4440.51	0.237
4451.66	0.236
4462.8	0.2347
4473.95	0.234
4485.09	0.234
4496.23	0.232
4507.38	0.2315
4518.52	0.2299
4529.66	0.2254
4540.81	0.223
4551.95	0.223
4563.1	0.223
4574.24	0.223
4585.38	0.223
4596.53	0.223
4607.67	0.2216
4618.82	0.2201
4629.96	0.22
4641.1	0.22
4652.25	0.219
4663.39	0.2158
4674.54	0.2124
4685.68	0.213
4696.82	0.214
4707.97	0.213
4719.11	0.2112
4730.25	0.2107
4741.4	0.209
4752.54	0.2066
4763.69	0.2051
4774.83	0.204
4785.97	0.203
4797.12	0.202
4808.26	0.202
4819.41	0.201
4830.55	0.2
4841.69	0.2
4852.84	0.2
4863.98	0.1992
4875.13	0.199
4886.27	0.199
4897.41	0.199
4908.56	0.199
4919.7	0.199
4930.84	0.199
4941.99	0.199
4953.13	0.199
4964.28	0.199
4975.42	0.199
4986.56	0.199
4997.71	0.199
