Infrared Spectrum: Imidazole, 1-methyl-5-(methylsulfonyl)-4-nitro-
Formula: C5 H7 N3 O4 S
CAS: 13755-79-8
State: SOLID (0.9 mg / 650 mg KBr DISC)
Class: COBLENTZ III
Instrument: PERKIN-ELMER 21 (GRATING)
Instrument parameters: FILTER CHANGE ABOUT 1020 CM^-^1
Sampling: TRANSMISSION
Resolution: 2
Origin: SOUTHERN RESEARCH INSTITUTE
1/CM	TRANSMITTANCE
597.48	0.7516
606.521	0.757
615.562	0.7515
624.603	0.7295
633.644	0.6918
642.685	0.5615
651.726	0.488
660.767	0.7486
669.808	0.7733
678.85	0.7747
687.891	0.7675
696.932	0.7427
705.973	0.6803
715.014	0.5414
724.055	0.819
733.096	0.8066
742.137	0.7624
751.178	0.6089
760.219	0.4082
769.26	0.5538
778.301	0.4598
787.342	0.8292
796.383	0.8257
805.424	0.808
814.465	0.77
823.506	0.712
832.548	0.5399
841.589	0.4176
850.63	0.8858
859.671	0.8852
868.712	0.8675
877.753	0.8022
886.794	0.6455
895.835	0.8283
904.876	0.8246
913.917	0.8019
922.958	0.7758
931.999	0.743
941.04	0.6842
950.081	0.458
959.122	0.3567
968.163	0.5024
977.204	0.8593
986.246	0.8712
995.287	0.8657
1004.33	0.8455
1013.37	0.8503
1022.41	0.884
1031.45	0.8481
1040.49	0.8334
1049.53	0.8158
1058.57	0.7944
1067.62	0.7484
1076.66	0.6969
1085.7	0.7379
1094.74	0.7333
1103.78	0.6595
1112.82	0.6274
1121.86	0.3592
1130.9	0.5791
1139.94	0.6318
1148.98	0.5409
1158.03	0.3109
1167.07	0.1167
1176.11	0.1014
1185.15	0.6026
1194.19	0.7436
1203.23	0.7461
1212.27	0.7187
1221.31	0.6319
1230.35	0.5791
1239.4	0.3587
1248.44	0.4227
1257.48	0.7187
1266.52	0.6584
1275.56	0.5869
1284.6	0.4355
1293.64	0.3124
1302.68	0.1559
1311.72	0.1665
1320.76	0.1896
1329.81	0.2112
1338.85	0.0931
1347.89	0.1565
1356.93	0.4385
1365.97	0.342
1375.01	0.2161
1384.05	0.3018
1393.09	0.5843
1402.13	0.598
1411.18	0.6507
1420.22	0.6057
1429.26	0.392
1438.3	0.5287
1447.34	0.5993
1456.38	0.3989
1465.42	0.3485
1474.46	0.4115
1483.5	0.4872
1492.54	0.2843
1501.59	0.1894
1510.63	0.3791
1519.67	0.5325
1528.71	0.5033
1537.75	0.3665
1546.79	0.1653
1555.83	0.3301
1564.87	0.5963
1573.91	0.7058
1582.96	0.7569
1592	0.7933
1601.04	0.8171
1610.08	0.8325
1619.12	0.84
1628.16	0.8493
1637.2	0.861
1646.24	0.8737
1655.28	0.8856
1664.32	0.9011
1673.37	0.916
1682.41	0.9208
1691.45	0.9223
1700.49	0.9216
1709.53	0.9204
1718.57	0.9154
1727.61	0.9059
1736.65	0.8936
1745.69	0.8755
1754.74	0.842
1763.78	0.8324
1772.82	0.9036
1781.86	0.9203
1790.9	0.925
1799.94	0.9258
1808.98	0.926
1818.02	0.9267
1827.06	0.9295
1836.1	0.9299
1845.15	0.928
1854.19	0.9244
1863.23	0.9157
1872.27	0.9075
1881.31	0.9085
1890.35	0.9117
1899.39	0.9135
1908.43	0.9122
1917.47	0.9102
1926.52	0.9084
1935.56	0.9059
1944.6	0.9025
1953.64	0.9011
1962.68	0.9003
1971.72	0.8998
1980.76	0.8985
1989.8	0.8964
1998.84	0.8951
2007.89	0.8937
2016.93	0.8922
2025.97	0.89
2035.01	0.8878
2044.05	0.8852
2053.09	0.8827
2062.13	0.8804
2071.17	0.8784
2080.21	0.8746
2089.25	0.8739
2098.3	0.8757
2107.34	0.8755
2116.38	0.8741
2125.42	0.8723
2134.46	0.8706
2143.5	0.8695
2152.54	0.8685
2161.58	0.8676
2170.62	0.8671
2179.67	0.8666
2188.71	0.866
2197.75	0.8651
2206.79	0.8642
2215.83	0.8633
2224.87	0.862
2233.91	0.8603
2242.95	0.8573
2251.99	0.8532
2261.03	0.8506
2270.08	0.8492
2279.12	0.8495
2288.16	0.8499
2297.2	0.8507
2306.24	0.8513
2315.28	0.8508
2324.32	0.8503
2333.36	0.8496
2342.4	0.8485
2351.45	0.8474
2360.49	0.8455
2369.53	0.8433
2378.57	0.8416
2387.61	0.8392
2396.65	0.8365
2405.69	0.834
2414.73	0.8315
2423.77	0.8291
2432.81	0.8265
2441.86	0.8243
2450.9	0.8222
2459.94	0.8202
2468.98	0.8195
2478.02	0.8192
2487.06	0.8194
2496.1	0.8196
2505.14	0.8185
2514.18	0.8166
2523.23	0.8147
2532.27	0.8124
2541.31	0.8078
2550.35	0.802
2559.39	0.7955
2568.43	0.7886
2577.47	0.7807
2586.51	0.7732
2595.55	0.7673
2604.59	0.7664
2613.64	0.771
2622.68	0.7781
2631.72	0.7832
2640.76	0.7822
2649.8	0.7805
2658.84	0.7789
2667.88	0.7777
2676.92	0.7765
2685.96	0.7756
2695.01	0.7746
2704.05	0.7734
2713.09	0.7718
2722.13	0.7695
2731.17	0.7671
2740.21	0.7648
2749.25	0.7624
2758.29	0.7573
2767.33	0.7524
2776.38	0.7482
2785.42	0.747
2794.46	0.7465
2803.5	0.7467
2812.54	0.7473
2821.58	0.7452
2830.62	0.7433
2839.66	0.743
2848.7	0.7418
2857.74	0.7398
2866.79	0.7358
2875.83	0.7288
2884.87	0.7187
2893.91	0.7059
2902.95	0.6869
2911.99	0.6724
2921.03	0.6693
2930.07	0.6722
2939.11	0.687
2948.16	0.6922
2957.2	0.689
2966.24	0.6789
2975.28	0.6716
2984.32	0.6666
2993.36	0.6614
3002.4	0.6478
3011.44	0.6465
3020.48	0.6504
3029.52	0.6554
3038.57	0.6547
3047.61	0.6539
3056.65	0.658
3065.69	0.6595
3074.73	0.6486
3083.77	0.6191
3092.81	0.5743
3101.85	0.5212
3110.89	0.5025
3119.94	0.5479
3128.98	0.6653
3138.02	0.7259
3147.06	0.7378
3156.1	0.7413
3165.14	0.7422
3174.18	0.7427
3183.22	0.7422
3192.26	0.7409
3201.3	0.74
3210.35	0.7386
3219.39	0.7363
3228.43	0.7333
3237.47	0.7307
3246.51	0.7281
3255.55	0.7239
3264.59	0.7189
3273.63	0.7137
3282.67	0.7114
3291.72	0.7079
3300.76	0.7034
3309.8	0.6974
3318.84	0.692
3327.88	0.6868
3336.92	0.6813
3345.96	0.6752
3355	0.669
3364.04	0.6625
3373.08	0.6554
3382.13	0.6478
3391.17	0.6409
3400.21	0.6359
3409.25	0.6313
3418.29	0.6292
3427.33	0.6278
3436.37	0.6278
3445.41	0.6278
3454.45	0.6288
3463.5	0.63
3472.54	0.6313
3481.58	0.6326
3490.62	0.6347
3499.66	0.6369
3508.7	0.6392
3517.74	0.6414
3526.78	0.6436
3535.82	0.6468
3544.86	0.6501
3553.91	0.6534
3562.95	0.6558
3571.99	0.6582
3581.03	0.6647
3590.07	0.6676
3599.11	0.6686
3608.15	0.671
3617.19	0.6752
3626.23	0.68
3635.28	0.6848
3644.32	0.6882
3653.36	0.6899
3662.4	0.6902
3671.44	0.6902
3680.48	0.69
3689.52	0.6897
3698.56	0.6896
3707.6	0.6896
3716.65	0.6895
3725.69	0.6892
3734.73	0.687
3743.77	0.6824
3752.81	0.6818
3761.85	0.6821
3770.89	0.6823
3779.93	0.6826
3788.97	0.683
3798.01	0.683
3807.06	0.683
3816.1	0.6828
3825.14	0.6821
3834.18	0.681
3843.22	0.6777
3852.26	0.6726
3861.3	0.6696
3870.34	0.6684
3879.38	0.6693
3888.43	0.6702
3897.47	0.6711
3906.51	0.6721
3915.55	0.6729
3924.59	0.6731
3933.63	0.6732
3942.67	0.6725
3951.71	0.6717
3960.75	0.6725
3969.79	0.6673
3978.84	0.667
3987.88	0.6676
3996.92	0.6686
4005.96	0.6693
4015	0.6699
