Infrared Spectrum: 3-Chloro-4-fluorophenyl isothiocyanate
Formula: C 7 H 3 Cl F N S
CAS: 137724-66-4
State: gas
Origin: EPA-IR VAPOR PHASE LIBRARY
1/CM	ABSORBANCE
549.8	0.019711
559.445	0.015271
569.09	0.012281
578.734	0.008751
588.379	0.006701
598.024	0.007051
607.669	0.008111
617.313	0.007201
626.958	0.005341
636.603	0.006661
646.248	0.006911
655.893	0.004891
665.537	0.002931
675.182	0.001921
684.827	0.003671
694.472	0.011011
704.116	0.026081
713.761	0.035541
723.406	0.030271
733.051	0.021061
742.695	0.007231
752.34	0.002951
761.985	0.002391
771.63	0.002071
781.275	0.001971
790.919	0.003611
800.564	0.012961
810.209	0.030731
819.854	0.029741
829.498	0.020071
839.143	0.014861
848.788	0.006901
858.433	0.010691
868.078	0.023201
877.722	0.018841
887.367	0.006461
897.012	0.002561
906.657	0.002841
916.301	0.002941
925.946	0.002681
935.591	0.003811
945.236	0.004151
954.88	0.006461
964.525	0.013461
974.17	0.015721
983.815	0.007081
993.46	0.002381
1003.1	0.001561
1012.75	0.0013153
1022.39	0.0010208
1032.04	0.0007429
1041.68	0.002761
1051.33	0.011491
1060.97	0.021591
1070.62	0.016061
1080.26	0.004331
1089.91	0.0009615
1099.55	0.00037
1109.2	0.0008597
1118.84	0.004731
1128.49	0.005441
1138.13	0.001561
1147.78	0.0009081
1157.42	0.000355
1167.07	0.00056821
1176.71	0.000867
1186.36	0.0011763
1196	0.003271
1205.64	0.014731
1215.29	0.024061
1224.93	0.010441
1234.58	0.016071
1244.22	0.019961
1253.87	0.042771
1263.51	0.076351
1273.16	0.060451
1282.8	0.029411
1292.45	0.012631
1302.09	0.004861
1311.74	0.002561
1321.38	0.001841
1331.03	0.001571
1340.67	0.0011945
1350.32	0.0010118
1359.96	0.0012761
1369.61	0.002241
1379.25	0.003881
1388.9	0.005581
1398.54	0.006161
1408.18	0.004771
1417.83	0.003151
1427.47	0.004411
1437.12	0.012561
1446.76	0.019161
1456.41	0.011531
1466.05	0.016841
1475.7	0.044921
1485.34	0.129521
1494.99	0.265731
1504.63	0.154311
1514.28	0.048131
1523.92	0.010081
1533.57	0.006121
1543.21	0.005551
1552.86	0.006451
1562.5	0.008521
1572.15	0.013961
1581.79	0.020981
1591.44	0.019211
1601.08	0.020831
1610.73	0.012831
1620.37	0.005781
1630.01	0.004291
1639.66	0.003101
1649.3	0.002231
1658.95	0.001901
1668.59	0.002121
1678.24	0.002151
1687.88	0.002191
1697.53	0.001971
1707.17	0.001961
1716.82	0.002151
1726.46	0.002681
1736.11	0.003541
1745.75	0.003871
1755.4	0.002601
1765.04	0.002041
1774.69	0.002181
1784.33	0.002571
1793.98	0.003361
1803.62	0.004031
1813.27	0.004191
1822.91	0.003741
1832.55	0.003421
1842.2	0.003421
1851.84	0.004321
1861.49	0.006041
1871.13	0.007101
1880.78	0.006961
1890.42	0.007901
1900.07	0.010831
1909.71	0.016131
1919.36	0.024791
1929	0.036221
1938.65	0.047851
1948.29	0.058281
1957.94	0.070461
1967.58	0.090061
1977.23	0.120751
1986.87	0.164651
1996.52	0.213621
2006.16	0.254761
2015.81	0.300771
2025.45	0.390921
2035.1	0.475061
2044.74	0.368941
2054.38	0.213241
2064.03	0.166651
2073.67	0.198981
2083.32	0.257421
2092.96	0.266091
2102.61	0.195731
2112.25	0.125041
2121.9	0.090471
2131.54	0.079601
2141.19	0.072541
2150.83	0.058351
2160.48	0.039981
2170.12	0.028391
2179.77	0.025291
2189.41	0.021891
2199.06	0.014691
2208.7	0.011131
2218.35	0.009851
2227.99	0.009941
2237.64	0.010351
2247.28	0.010771
2256.92	0.009231
2266.57	0.006131
2276.21	0.004071
2285.86	0.003091
2295.5	0.002701
2305.15	0.002431
2314.79	0.002421
2324.44	0.002421
2334.08	0.002251
2343.73	0.001991
2353.37	0.001811
2363.02	0.001881
2372.66	0.002241
2382.31	0.002861
2391.95	0.003761
2401.6	0.004301
2411.24	0.004311
2420.89	0.003751
2430.53	0.003031
2440.18	0.002791
2449.82	0.003021
2459.47	0.003341
2469.11	0.003551
2478.75	0.003621
2488.4	0.004221
2498.04	0.004451
2507.69	0.004211
2517.33	0.004421
2526.98	0.004751
2536.62	0.005711
2546.27	0.005851
2555.91	0.005101
2565.56	0.004301
2575.2	0.003611
2584.85	0.002451
2594.49	0.001891
2604.14	0.001821
2613.78	0.001771
2623.43	0.001891
2633.07	0.001901
2642.72	0.002031
2652.36	0.002291
2662.01	0.002661
2671.65	0.003321
2681.29	0.004151
2690.94	0.004471
2700.58	0.004811
2710.23	0.004911
2719.87	0.004401
2729.52	0.003851
2739.16	0.003531
2748.81	0.003161
2758.45	0.002751
2768.1	0.002451
2777.74	0.002021
2787.39	0.001781
2797.03	0.001611
2806.68	0.001571
2816.32	0.001901
2825.97	0.002071
2835.61	0.002111
2845.26	0.002121
2854.9	0.002061
2864.55	0.001881
2874.19	0.002221
2883.84	0.001931
2893.48	0.0014879
2903.12	0.001571
2912.77	0.0013811
2922.41	0.001721
2932.06	0.001811
2941.7	0.001681
2951.35	0.001521
2960.99	0.001551
2970.64	0.001571
2980.28	0.001691
2989.93	0.001561
2999.57	0.001571
3009.22	0.001671
3018.86	0.0014175
3028.51	0.0012243
3038.15	0.0012854
3047.8	0.001821
3057.44	0.002051
3067.09	0.001991
3076.73	0.001951
3086.38	0.0014642
3096.02	0.0010556
3105.67	0.0009361
3115.31	0.0008702
3124.95	0.00050476
3134.6	0.0004809
3144.24	0.000358
3153.89	0.000315
3163.53	0.000256
3173.18	0.000208
3182.82	0.000376
3192.47	0.000265
3202.11	0.000183
3211.76	0.000161
3221.4	0.000174
3231.05	8e-05
3240.69	0.000277
3250.34	0.00019
3259.98	0.000276
3269.63	0.000286
3279.27	0.000306
3288.92	0.000311
3298.56	9.7e-05
3308.21	0.000251
3317.85	0.000395
3327.49	0.000206
3337.14	0.000325
3346.78	0.000259
3356.43	2.9e-05
3366.07	0.00036
3375.72	0.000399
3385.36	0.000175
3395.01	0.000121
3404.65	0.000124
3414.3	0.000246
3423.94	0.000266
3433.59	0.000352
3443.23	0.0002
3452.88	0.000165
3462.52	0.0004153
3472.17	0.000336
3481.81	0.000334
3491.46	0.000325
3501.1	0.000253
3510.75	0.000388
3520.39	0.000237
3530.04	0.000224
3539.68	0.000135
3549.32	0.000406
3558.97	0.000191
3568.61	0.000298
3578.26	0.000238
3587.9	9.5e-05
3597.55	0.000235
3607.19	0.0004663
3616.84	0.000273
3626.48	0.000243
3636.13	0.000325
3645.77	0.000331
3655.42	0.000246
3665.06	0.000279
3674.71	0.000363
3684.35	0.000353
3694	0.000353
3703.64	0.000378
3713.29	0.0004281
3722.93	0.000388
3732.58	0.0004488
3742.22	0.00052814
3751.86	0.0005837
3761.51	0.000331
3771.15	0.000496
3780.8	0.000293
3790.44	0.00054102
3800.09	0.0007396
3809.73	0.00053819
3819.38	0.000728
3829.02	0.0007168
3838.67	0.00060314
3848.31	0.0007758
3857.96	0.0007558
3867.6	0.0007445
3877.25	0.0009553
3886.89	0.0011894
3896.54	0.0012293
3906.18	0.0010333
3915.83	0.0012205
3925.47	0.001671
3935.12	0.0013311
3944.76	0.0014599
3954.41	0.001641
3964.05	0.001691
3973.69	0.001751
3983.34	0.001691
3992.98	0.001971
