Infrared Spectrum: 3-Methyl-4-phenylpyrazol
Formula: C 10 H 10 N 2
CAS: 13788-84-6
State: gas
Origin: EPA-IR VAPOR PHASE LIBRARY
1/CM	ABSORBANCE
549.8	0.0006433
559.445	0.0003683
569.09	0.0008047
578.734	0.0007349
588.379	0.0005286
598.024	0.0006699
607.669	0.0005072
617.313	0.0005052
626.958	0.0010207
636.603	0.002126
646.248	0.005066
655.893	0.009816
665.537	0.009246
675.182	0.006536
684.827	0.009486
694.472	0.015036
704.116	0.012836
713.761	0.006756
723.406	0.003496
733.051	0.003396
742.695	0.005646
752.34	0.010956
761.985	0.014266
771.63	0.007986
781.275	0.003656
790.919	0.002676
800.564	0.002936
810.209	0.001766
819.854	0.0007957
829.498	0.0005824
839.143	0.001156
848.788	0.002386
858.433	0.004136
868.078	0.003016
877.722	0.001466
887.367	0.0008748
897.012	0.001546
906.657	0.002996
916.301	0.006776
925.946	0.010956
935.591	0.007386
945.236	0.003916
954.88	0.005286
964.525	0.009406
974.17	0.013256
983.815	0.012286
993.46	0.008436
1003.1	0.007656
1012.75	0.006796
1022.39	0.004206
1032.04	0.003576
1041.68	0.002616
1051.33	0.002256
1060.97	0.003636
1070.62	0.004256
1080.26	0.002776
1089.91	0.002116
1099.55	0.003716
1109.2	0.003146
1118.84	0.001606
1128.49	0.0004624
1138.13	0.0009035
1147.78	0.002146
1157.42	0.003596
1167.07	0.003516
1176.71	0.002386
1186.36	0.001216
1196	0.001426
1205.64	0.002196
1215.29	0.001976
1224.93	0.001536
1234.58	0.001326
1244.22	0.001506
1253.87	0.001426
1263.51	0.001556
1273.16	0.002716
1282.8	0.003076
1292.45	0.002336
1302.09	0.001726
1311.74	0.001746
1321.38	0.002266
1331.03	0.002926
1340.67	0.004226
1350.32	0.005056
1359.96	0.003606
1369.61	0.002366
1379.25	0.002656
1388.9	0.002066
1398.54	0.001496
1408.18	0.001746
1417.83	0.002316
1427.47	0.003316
1437.12	0.004836
1446.76	0.005416
1456.41	0.004776
1466.05	0.004006
1475.7	0.003296
1485.34	0.004366
1494.99	0.007386
1504.63	0.007636
1514.28	0.004356
1523.92	0.002166
1533.57	0.002096
1543.21	0.002396
1552.86	0.003216
1562.5	0.003826
1572.15	0.003596
1581.79	0.003646
1591.44	0.005276
1601.08	0.008816
1610.73	0.009616
1620.37	0.004486
1630.01	0.001496
1639.66	0.0010513
1649.3	0.0009336
1658.95	0.0009347
1668.59	0.0009667
1678.24	0.0007714
1687.88	0.0006527
1697.53	0.0007704
1707.17	0.0010149
1716.82	0.0010259
1726.46	0.0009226
1736.11	0.0008088
1745.75	0.0006941
1755.4	0.0005045
1765.04	0.0004287
1774.69	0.0005134
1784.33	0.0006637
1793.98	0.0009839
1803.62	0.00088
1813.27	0.0006477
1822.91	0.0004833
1832.55	0.0003519
1842.2	0.0003664
1851.84	0.0005175
1861.49	0.0006541
1871.13	0.0009073
1880.78	0.0009774
1890.42	0.0007112
1900.07	0.0005
1909.71	0.0003898
1919.36	0.0005951
1929	0.0007965
1938.65	0.001126
1948.29	0.001186
1957.94	0.0009147
1967.58	0.0004839
1977.23	0.000336
1986.87	0.0003067
1996.52	0.0002982
2006.16	0.0002439
2015.81	0.0003058
2025.45	0.0002484
2035.1	0.0002256
2044.74	0.0002281
2054.38	0.0002329
2064.03	0.00019459
2073.67	0.000293
2083.32	0.00021523
2092.96	0.0002413
2102.61	0.0003132
2112.25	0.0002792
2121.9	0.0003002
2131.54	0.0003506
2141.19	0.0003478
2150.83	0.0003813
2160.48	0.0002737
2170.12	0.0002568
2179.77	0.00020495
2189.41	0.0003696
2199.06	0.0003227
2208.7	0.0003077
2218.35	0.0002873
2227.99	0.0003101
2237.64	0.000283
2247.28	0.0002887
2256.92	0.0003833
2266.57	0.0004086
2276.21	0.0003901
2285.86	0.000234
2295.5	0.00019775
2305.15	0.000404
2314.79	0.0004577
2324.44	0.0003849
2334.08	0.0004245
2343.73	0.0005013
2353.37	0.0004246
2363.02	0.0004475
2372.66	0.0003928
2382.31	0.0003517
2391.95	0.0002599
2401.6	0.0003196
2411.24	0.0003601
2420.89	0.0003284
2430.53	0.0004105
2440.18	0.0004257
2449.82	0.0003546
2459.47	0.0004408
2469.11	0.000363
2478.75	0.0003662
2488.4	0.000491
2498.04	0.000448
2507.69	0.0004137
2517.33	0.0005408
2526.98	0.0004174
2536.62	0.0004332
2546.27	0.0005213
2555.91	0.0005144
2565.56	0.0005123
2575.2	0.0006259
2584.85	0.0006868
2594.49	0.0007926
2604.14	0.000619
2613.78	0.000586
2623.43	0.0003745
2633.07	0.000396
2642.72	0.0004095
2652.36	0.000382
2662.01	0.0003529
2671.65	0.0003709
2681.29	0.0004358
2690.94	0.0003928
2700.58	0.0004329
2710.23	0.0004478
2719.87	0.0004457
2729.52	0.0004793
2739.16	0.0005158
2748.81	0.0005263
2758.45	0.0005545
2768.1	0.00056
2777.74	0.0005071
2787.39	0.0005486
2797.03	0.0006047
2806.68	0.0005983
2816.32	0.0005709
2825.97	0.0007314
2835.61	0.0008806
2845.26	0.0010187
2854.9	0.001436
2864.55	0.001866
2874.19	0.002206
2883.84	0.002446
2893.48	0.002366
2903.12	0.002366
2912.77	0.002776
2922.41	0.003696
2932.06	0.005526
2941.7	0.005756
2951.35	0.004556
2960.99	0.003396
2970.64	0.002976
2980.28	0.002736
2989.93	0.002966
2999.57	0.003336
3009.22	0.003466
3018.86	0.004526
3028.51	0.006266
3038.15	0.007136
3047.8	0.007256
3057.44	0.008906
3067.09	0.011976
3076.73	0.010996
3086.38	0.007526
3096.02	0.005056
3105.67	0.003426
3115.31	0.002456
3124.95	0.001426
3134.6	0.0009345
3144.24	0.0006814
3153.89	0.000465
3163.53	0.0005395
3173.18	0.0004733
3182.82	0.0003088
3192.47	0.000263
3202.11	0.0003064
3211.76	0.0003137
3221.4	0.00018191
3231.05	0.00014251
3240.69	0.00017852
3250.34	0.0003355
3259.98	0.0004494
3269.63	0.00014246
3279.27	0.0001822
3288.92	0.00019915
3298.56	0.0002628
3308.21	0.00017964
3317.85	8.75e-05
3327.49	0.0004275
3337.14	0.00016117
3346.78	0.0002642
3356.43	0.0004763
3366.07	0.000255
3375.72	0.0003372
3385.36	0.0002798
3395.01	0.0003316
3404.65	0.0005052
3414.3	0.0003101
3423.94	0.0002944
3433.59	0.0006061
3443.23	0.000461
3452.88	0.0008846
3462.52	0.001436
3472.17	0.003426
3481.81	0.006676
3491.46	0.011086
3501.1	0.021796
3510.75	0.025546
3520.39	0.018246
3530.04	0.005666
3539.68	0.001346
3549.32	0.0005415
3558.97	0.0003435
3568.61	0.000257
3578.26	0.0002513
3587.9	0.0003733
3597.55	0.0002849
3607.19	0.0003051
3616.84	0.00017652
3626.48	0.0003749
3636.13	0.0002239
3645.77	0.00020634
3655.42	0.00015494
3665.06	0.00015242
3674.71	0.000125823
3684.35	0.0002666
3694	0.0002766
3703.64	0.00015573
3713.29	0.00020537
3722.93	0.0003904
3732.58	1.4e-05
3742.22	2e-06
3751.86	0.00019888
3761.51	3.38e-05
3771.15	0.0002929
3780.8	0.00019685
3790.44	0.0003248
3800.09	0.00017788
3809.73	0.00017822
3819.38	0.0003288
3829.02	0.00021165
3838.67	0.00016912
3848.31	8.65e-05
3857.96	0.0004071
3867.6	6.66e-05
3877.25	0.00011075
3886.89	0.00018794
3896.54	0.0002924
3906.18	0.00015416
3915.83	0.00016488
3925.47	0.000289
3935.12	0.0003823
3944.76	6.91e-05
3954.41	0.000433
3964.05	0.0003831
3973.69	0.0003094
3983.34	0.0002869
3992.98	0.0003569
