Infrared Spectrum: 2-Phenoxybutyric acid
Formula: C 10 H 12 O 3
CAS: 13794-14-4
State: gas
Origin: EPA-IR VAPOR PHASE LIBRARY
1/CM	ABSORBANCE
549.8	0.02828
559.445	0.03033
569.09	0.03
578.734	0.02736
588.379	0.02615
598.024	0.02502
607.669	0.02384
617.313	0.02438
626.958	0.02491
636.603	0.02473
646.248	0.02157
655.893	0.01638
665.537	0.01427
675.182	0.0179
684.827	0.02913
694.472	0.02835
704.116	0.01752
713.761	0.01377
723.406	0.01573
733.051	0.02243
742.695	0.03903
752.34	0.05222
761.985	0.03754
771.63	0.02199
781.275	0.01364
790.919	0.00811
800.564	0.00631
810.209	0.00694
819.854	0.00871
829.498	0.01365
839.143	0.01409
848.788	0.00828
858.433	0.00704
868.078	0.00828
877.722	0.00933
887.367	0.00939
897.012	0.00847
906.657	0.00865
916.301	0.00941
925.946	0.00997
935.591	0.00917
945.236	0.00771
954.88	0.00764
964.525	0.01025
974.17	0.01719
983.815	0.02505
993.46	0.02627
1003.1	0.02341
1012.75	0.02037
1022.39	0.02472
1032.04	0.02778
1041.68	0.03344
1051.33	0.04254
1060.97	0.042
1070.62	0.04697
1080.26	0.06141
1089.91	0.08542
1099.55	0.09954
1109.2	0.07566
1118.84	0.0484
1128.49	0.03866
1138.13	0.03862
1147.78	0.04758
1157.42	0.05944
1167.07	0.06599
1176.71	0.05373
1186.36	0.03553
1196	0.03566
1205.64	0.05874
1215.29	0.10486
1224.93	0.15655
1234.58	0.18831
1244.22	0.11581
1253.87	0.04914
1263.51	0.03731
1273.16	0.03657
1282.8	0.03614
1292.45	0.03452
1302.09	0.0336
1311.74	0.03497
1321.38	0.04156
1331.03	0.04774
1340.67	0.04798
1350.32	0.04318
1359.96	0.03987
1369.61	0.03714
1379.25	0.03092
1388.9	0.02418
1398.54	0.01626
1408.18	0.01031
1417.83	0.00824
1427.47	0.00797
1437.12	0.01008
1446.76	0.01351
1456.41	0.0172
1466.05	0.02169
1475.7	0.03046
1485.34	0.07977
1494.99	0.1207
1504.63	0.04864
1514.28	0.01279
1523.92	0.00742
1533.57	0.00587
1543.21	0.0058
1552.86	0.00705
1562.5	0.01055
1572.15	0.01978
1581.79	0.04125
1591.44	0.07128
1601.08	0.06347
1610.73	0.02554
1620.37	0.01
1630.01	0.00597
1639.66	0.00433
1649.3	0.00346
1658.95	0.00294
1668.59	0.00307
1678.24	0.00335
1687.88	0.00405
1697.53	0.00496
1707.17	0.00612
1716.82	0.00841
1726.46	0.01234
1736.11	0.01763
1745.75	0.02585
1755.4	0.04414
1765.04	0.08445
1774.69	0.10812
1784.33	0.10219
1793.98	0.12632
1803.62	0.11121
1813.27	0.05788
1822.91	0.02795
1832.55	0.01699
1842.2	0.01178
1851.84	0.00851
1861.49	0.00623
1871.13	0.00446
1880.78	0.00327
1890.42	0.00274
1900.07	0.00271
1909.71	0.00315
1919.36	0.00379
1929	0.00383
1938.65	0.00356
1948.29	0.00292
1957.94	0.00203
1967.58	0.0018
1977.23	0.00192
1986.87	0.00203
1996.52	0.00215
2006.16	0.00214
2015.81	0.00196
2025.45	0.0019
2035.1	0.00193
2044.74	0.00219
2054.38	0.00239
2064.03	0.00229
2073.67	0.00202
2083.32	0.00163
2092.96	0.00129
2102.61	0.00112
2112.25	0.00108
2121.9	0.0009952
2131.54	0.0009856
2141.19	0.0009258
2150.83	0.0009292
2160.48	0.0008884
2170.12	0.0009243
2179.77	0.00102
2189.41	0.00105
2199.06	0.00109
2208.7	0.0009899
2218.35	0.00102
2227.99	0.0009329
2237.64	0.0009364
2247.28	0.0009218
2256.92	0.0009534
2266.57	0.0008725
2276.21	0.0009228
2285.86	0.0008688
2295.5	0.0009476
2305.15	0.00125
2314.79	0.00145
2324.44	0.00153
2334.08	0.0015
2343.73	0.00124
2353.37	0.00122
2363.02	0.0012
2372.66	0.00124
2382.31	0.00123
2391.95	0.00136
2401.6	0.00153
2411.24	0.0017
2420.89	0.00194
2430.53	0.00205
2440.18	0.0021
2449.82	0.00208
2459.47	0.00199
2469.11	0.00179
2478.75	0.0015
2488.4	0.00134
2498.04	0.00128
2507.69	0.00134
2517.33	0.00134
2526.98	0.00127
2536.62	0.00119
2546.27	0.00107
2555.91	0.000984
2565.56	0.0009246
2575.2	0.0009589
2584.85	0.0007971
2594.49	0.0008167
2604.14	0.0007043
2613.78	0.0006836
2623.43	0.0005819
2633.07	0.0005604
2642.72	0.0004719
2652.36	0.000497
2662.01	0.0005227
2671.65	0.0004838
2681.29	0.00046
2690.94	0.0005659
2700.58	0.0005658
2710.23	0.0005594
2719.87	0.0006935
2729.52	0.0007807
2739.16	0.0007982
2748.81	0.0009163
2758.45	0.0008983
2768.1	0.0009836
2777.74	0.00108
2787.39	0.0009672
2797.03	0.00108
2806.68	0.00116
2816.32	0.00127
2825.97	0.00152
2835.61	0.00194
2845.26	0.00249
2854.9	0.00336
2864.55	0.00516
2874.19	0.00742
2883.84	0.01138
2893.48	0.01421
2903.12	0.01211
2912.77	0.01177
2922.41	0.01412
2932.06	0.01874
2941.7	0.02607
2951.35	0.02852
2960.99	0.02556
2970.64	0.02988
2980.28	0.03954
2989.93	0.0324
2999.57	0.01584
3009.22	0.00862
3018.86	0.00832
3028.51	0.01058
3038.15	0.01571
3047.8	0.01819
3057.44	0.01523
3067.09	0.01718
3076.73	0.02191
3086.38	0.01859
3096.02	0.01291
3105.67	0.00987
3115.31	0.00535
3124.95	0.00258
3134.6	0.0016
3144.24	0.00131
3153.89	0.00114
3163.53	0.001
3173.18	0.00102
3182.82	0.000763
3192.47	0.0006901
3202.11	0.0006753
3211.76	0.0005018
3221.4	0.000362
3231.05	0.0003268
3240.69	0.0004699
3250.34	0.0004442
3259.98	0.0004572
3269.63	0.0004944
3279.27	0.0003951
3288.92	0.0003435
3298.56	0.0002696
3308.21	0.0002668
3317.85	0.0002048
3327.49	0.0001874
3337.14	0.0002667
3346.78	0.0001922
3356.43	0.0002653
3366.07	0.0002313
3375.72	0.0002573
3385.36	0.0003909
3395.01	0.0004235
3404.65	0.0005195
3414.3	0.0004878
3423.94	0.0006743
3433.59	0.0009355
3443.23	0.00103
3452.88	0.00149
3462.52	0.00213
3472.17	0.00317
3481.81	0.00576
3491.46	0.00996
3501.1	0.01473
3510.75	0.01677
3520.39	0.01589
3530.04	0.01362
3539.68	0.01126
3549.32	0.01144
3558.97	0.02509
3568.61	0.05696
3578.26	0.04591
3587.9	0.01264
3597.55	0.00436
3607.19	0.00273
3616.84	0.00177
3626.48	0.00128
3636.13	0.0009052
3645.77	0.0007965
3655.42	0.0007688
3665.06	0.0007038
3674.71	0.0006494
3684.35	0.0004923
3694	0.000555
3703.64	0.0005978
3713.29	0.0005711
3722.93	0.0004046
3732.58	0.0005404
3742.22	0.0004684
3751.86	0.000404
3761.51	0.000393
3771.15	0.0003902
3780.8	0.0004155
3790.44	0.0003805
3800.09	0.0004304
3809.73	0.0004947
3819.38	0.0003252
3829.02	0.0005066
3838.67	0.0005029
3848.31	0.0004213
3857.96	0.0006094
3867.6	0.0005155
3877.25	0.0004318
3886.89	0.0002754
3896.54	0.000418
3906.18	0.0005474
3915.83	0.0004487
3925.47	0.0003406
3935.12	0.000386
3944.76	0.0003313
3954.41	0.0005085
3964.05	0.0004458
3973.69	0.0004935
3983.34	0.0004699
3992.98	0.0005321
