Infrared Spectrum: 1-Cyclohexene-1-carboxaldehyde, 4-isopropenyl-, oxime
Formula: C10 H15 N O
CAS: 138-91-0
State: SOLUTION (10% CCl4 FOR 3800-1340, 10% CS2 FOR 1340-400 CM^-^1)
Class: COBLENTZ III
Instrument: DOW KBr FOREPRISM-GRATING
Instrument parameters: BLAZED AT 3.5, 12.0, 20.0 MICRON AND CHANGED AT 5.0, 7.5, 14.9 MICRON
Sampling: TRANSMISSION
Path length: 0.011 CM, 0.011 CM
Resolution: 2
Origin: DOW CHEMICAL COMPANY
1/CM	TRANSMITTANCE
3796	0.8728
3787	0.8725
3778	0.8724
3769	0.8721
3760	0.8718
3751	0.872
3742	0.8721
3733	0.8727
3724	0.8733
3715	0.8742
3706	0.8742
3697	0.8735
3688	0.8724
3679	0.8697
3670	0.8646
3661	0.8627
3652	0.8636
3643	0.8646
3634	0.8628
3625	0.8491
3616	0.7701
3607	0.4955
3598	0.5338
3589	0.6293
3580	0.7035
3571	0.7395
3562	0.7515
3553	0.7497
3544	0.7415
3535	0.7208
3526	0.6984
3517	0.6743
3508	0.6483
3499	0.6125
3490	0.5799
3481	0.5475
3472	0.5171
3463	0.4855
3454	0.454
3445	0.4278
3436	0.395
3427	0.3656
3418	0.3392
3409	0.3122
3400	0.2875
3391	0.2626
3382	0.2378
3373	0.2149
3364	0.1964
3355	0.1806
3346	0.169
3337	0.1563
3328	0.1461
3319	0.1394
3310	0.1356
3301	0.1366
3292	0.1396
3283	0.148
3274	0.1591
3265	0.1744
3256	0.1903
3247	0.2064
3238	0.2192
3229	0.2347
3220	0.2553
3211	0.2751
3202	0.2949
3193	0.3128
3184	0.3312
3175	0.3471
3166	0.3645
3157	0.3773
3148	0.3868
3139	0.3882
3130	0.3893
3121	0.393
3112	0.395
3103	0.3782
3094	0.311
3085	0.3203
3076	0.3612
3067	0.4237
3058	0.4486
3049	0.438
3040	0.4479
3031	0.4792
3022	0.477
3013	0.4016
3004	0.3521
2995	0.3178
2986	0.2733
2977	0.2563
2968	0.2997
2959	0.2454
2950	0.1584
2941	0.1312
2932	0.1273
2923	0.1352
2914	0.2072
2905	0.2244
2896	0.2323
2887	0.2655
2878	0.3318
2869	0.3466
2860	0.3918
2851	0.378
2842	0.4205
2833	0.5092
2824	0.5985
2815	0.6634
2806	0.6854
2797	0.6995
2788	0.7099
2779	0.7147
2770	0.7191
2761	0.7236
2752	0.7289
2743	0.7351
2734	0.7425
2725	0.7535
2716	0.7743
2707	0.7858
2698	0.7934
2689	0.7989
2680	0.8044
2671	0.8101
2662	0.8162
2653	0.8218
2644	0.8271
2635	0.8293
2626	0.8275
2617	0.8264
2608	0.8258
2599	0.8252
2590	0.8259
2581	0.8309
2572	0.8304
2563	0.8311
2554	0.8318
2545	0.8397
2536	0.8458
2527	0.8492
2518	0.8516
2509	0.8525
2500	0.8535
2491	0.8545
2482	0.8552
2473	0.8557
2464	0.8563
2455	0.8568
2446	0.8575
2437	0.8583
2428	0.8584
2419	0.8577
2410	0.8578
2401	0.8584
2392	0.8589
2383	0.8596
2374	0.8603
2365	0.8617
2356	0.865
2347	0.8671
2338	0.8691
2329	0.871
2320	0.8727
2311	0.8721
2302	0.8708
2293	0.8694
2284	0.8681
2275	0.8661
2266	0.8645
2257	0.8634
2248	0.8628
2239	0.8618
2230	0.8611
2221	0.8628
2212	0.8641
2203	0.8645
2194	0.8643
2185	0.8655
2176	0.8662
2167	0.8661
2158	0.8664
2149	0.8667
2140	0.8671
2131	0.8675
2122	0.8675
2113	0.8678
2104	0.868
2095	0.8683
2086	0.8685
2077	0.8682
2068	0.8678
2059	0.8675
2050	0.8677
2041	0.8678
2032	0.8678
2023	0.868
2014	0.8683
2005	0.8677
1996	0.8623
1987	0.8604
1978	0.8607
1969	0.8575
1960	0.8546
1951	0.8504
1942	0.8463
1933	0.8459
1924	0.8451
1915	0.8403
1906	0.836
1897	0.8302
1888	0.8235
1879	0.8262
1870	0.8364
1861	0.8433
1852	0.8501
1843	0.8557
1834	0.8574
1825	0.8577
1816	0.858
1807	0.8575
1798	0.844
1789	0.8175
1780	0.8168
1771	0.8374
1762	0.8503
1753	0.8562
1744	0.8563
1735	0.852
1726	0.8421
1717	0.8431
1708	0.8421
1699	0.8374
1690	0.83
1681	0.827
1672	0.8188
1663	0.7912
1654	0.6905
1645	0.1295
1636	0.5083
1627	0.716
1618	0.7341
1609	0.7269
1600	0.7676
1591	0.8025
1582	0.8213
1573	0.8345
1564	0.845
1555	0.8502
1546	0.8533
1537	0.8504
1528	0.8371
1519	0.8214
1510	0.7958
1501	0.7721
1492	0.7343
1483	0.6792
1474	0.619
1465	0.4683
1456	0.2648
1447	0.3532
1438	0.2031
1429	0.3989
1420	0.5752
1411	0.6094
1402	0.6051
1393	0.6015
1384	0.4984
1375	0.4928
1366	0.6575
1357	0.6868
1348	0.7219
1339	0.7145
1330	0.6517
1321	0.6596
1312	0.609
1303	0.4848
1294	0.5027
1285	0.521
1276	0.6067
1267	0.6472
1258	0.6374
1249	0.5307
1240	0.6245
1231	0.6817
1222	0.7398
1213	0.736
1204	0.77
1195	0.7741
1186	0.6915
1177	0.5387
1168	0.7592
1159	0.7958
1150	0.7761
1141	0.7247
1132	0.813
1123	0.8205
1114	0.8221
1105	0.8225
1096	0.8311
1087	0.8391
1078	0.8465
1069	0.8462
1060	0.8437
1051	0.8194
1042	0.7921
1033	0.7547
1024	0.7725
1015	0.6225
1006	0.6904
997	0.5768
988	0.2784
979	0.3489
970	0.5148
961	0.0957
952	0.1308
943	0.092
934	0.1664
925	0.3348
916	0.4034
907	0.5915
898	0.2603
889	0.2215
880	0.669
871	0.7615
862	0.789
853	0.7989
844	0.7869
835	0.748
826	0.4812
817	0.5357
808	0.3448
799	0.6005
790	0.7407
781	0.7462
772	0.7342
763	0.7072
754	0.6648
745	0.6197
736	0.5674
727	0.482
718	0.3521
709	0.4418
700	0.5102
691	0.5579
682	0.5904
673	0.6139
664	0.6272
655	0.6331
646	0.6424
637	0.6619
628	0.6774
619	0.6786
610	0.6957
601	0.7115
592	0.7162
583	0.726
574	0.7354
565	0.6818
556	0.6812
547	0.7201
538	0.6996
529	0.6839
520	0.626
511	0.5554
502	0.6471
493	0.7019
484	0.6619
475	0.5416
466	0.6098
457	0.5394
448	0.5605
439	0.6106
430	0.6367
421	0.6425
412	0.6447
403	0.646
394	0.6464
