Infrared Spectrum: TRIMETHYLPHENYLAMMONIUM CHLORIDE
Formula: C9 H14 Cl N
CAS: 138-24-9
State: SOLID (MINERAL OIL MULL)
Class: COBLENTZ
Instrument: Not specified, most likely a prism, grating, or hybrid spectrometer.
Sampling: TRANSMISSION
Resolution: 4
Origin: WYANDOTTE CHEMICALS CORP., WYANDOTTE, MICHIGAN, USA
MICROMETERS	TRANSMITTANCE
2.048	0.358
2.08886	0.37
2.12971	0.387
2.17057	0.397
2.21142	0.408
2.25228	0.418
2.29314	0.426
2.33399	0.43
2.37485	0.44
2.4157	0.448
2.45656	0.454
2.49742	0.46
2.53827	0.488
2.57913	0.476
2.61998	0.491
2.66084	0.488
2.70169	0.476
2.74255	0.448
2.78341	0.416
2.82426	0.397
2.86512	0.365
2.90597	0.346
2.94683	0.348
2.98769	0.357
3.02854	0.382
3.0694	0.399
3.11025	0.396
3.15111	0.362
3.19197	0.295
3.23282	0.241
3.27368	0.074
3.31453	0.035
3.35539	0.035
3.39625	0.04
3.4371	0.096
3.47796	0.1
3.51881	0.35
3.55967	0.505
3.60053	0.532
3.64138	0.528
3.68224	0.493
3.72309	0.54
3.76395	0.578
3.8048	0.59
3.84566	0.581
3.88652	0.6
3.92737	0.569
3.96823	0.624
4.00908	0.583
4.04994	0.649
4.0908	0.656
4.13165	0.658
4.17251	0.659
4.21336	0.666
4.25422	0.639
4.29508	0.673
4.33593	0.695
4.37679	0.731
4.41764	0.71
4.4585	0.714
4.49936	0.727
4.54021	0.731
4.58107	0.734
4.62192	0.739
4.66278	0.748
4.70364	0.756
4.74449	0.758
4.78535	0.767
4.8262	0.775
4.86706	0.777
4.90792	0.775
4.94877	0.768
4.98963	0.755
5.03048	0.685
5.07134	0.734
5.11219	0.773
5.15305	0.773
5.19391	0.765
5.23476	0.727
5.27562	0.738
5.31647	0.77
5.35733	0.761
5.39819	0.77
5.43904	0.722
5.4799	0.687
5.52075	0.758
5.56161	0.751
5.60247	0.768
5.64332	0.726
5.68418	0.709
5.72503	0.768
5.76589	0.75
5.80675	0.787
5.8476	0.731
5.88846	0.79
5.92931	0.801
5.97017	0.794
6.01103	0.765
6.05188	0.773
6.09274	0.775
6.13359	0.712
6.17445	0.719
6.2153	0.38
6.25616	0.59
6.29702	0.751
6.33787	0.748
6.37873	0.789
6.41958	0.773
6.46044	0.761
6.5013	0.789
6.54215	0.712
6.58301	0.46
6.62386	0.018
6.66472	0.122
6.70558	0.066
6.74643	0.09
6.78729	0.107
6.82814	0.11
6.869	0.251
6.90986	0.46
6.95071	0.591
6.99157	0.585
7.03242	0.329
7.07328	0.603
7.11414	0.666
7.15499	0.69
7.19585	0.619
7.2367	0.491
7.27756	0.629
7.31841	0.69
7.35927	0.732
7.40013	0.71
7.44098	0.717
7.48184	0.768
7.52269	0.795
7.56355	0.792
7.60441	0.77
7.64526	0.659
7.68612	0.659
7.72697	0.748
7.76783	0.768
7.80869	0.807
7.84954	0.802
7.8904	0.801
7.93125	0.79
7.97211	0.719
8.01297	0.76
8.05382	0.801
8.09468	0.821
8.13553	0.835
8.17639	0.845
8.21725	0.843
8.2581	0.826
8.29896	0.76
8.33981	0.824
8.38067	0.857
8.42153	0.872
8.46238	0.877
8.50324	0.869
8.54409	0.814
8.58495	0.804
8.6258	0.838
8.66666	0.795
8.70752	0.653
8.74837	0.666
8.78923	0.685
8.83008	0.411
8.87094	0.401
8.9118	0.494
8.95265	0.591
8.99351	0.685
9.03436	0.736
9.07522	0.738
9.11608	0.697
9.15693	0.605
9.19779	0.562
9.23864	0.681
9.2795	0.773
9.32036	0.794
9.36121	0.812
9.40207	0.821
9.44292	0.828
9.48378	0.826
9.52464	0.806
9.56549	0.77
9.60635	0.695
9.6472	0.362
9.68806	0.481
9.72891	0.729
9.76977	0.809
9.81063	0.841
9.85148	0.858
9.89234	0.809
9.93319	0.807
9.97405	0.52
10.0149	0.726
10.0558	0.671
10.0966	0.76
10.1375	0.86
10.1783	0.882
10.2192	0.869
10.26	0.785
10.3009	0.559
10.3418	0.204
10.3826	0.139
10.4235	0.181
10.4643	0.12
10.5052	0.03
10.546	0.039
10.5869	0.171
10.6277	0.416
10.6686	0.578
10.7095	0.698
10.7503	0.75
10.7912	0.751
10.832	0.71
10.8729	0.712
10.9137	0.782
10.9546	0.838
10.9954	0.857
11.0363	0.877
11.0772	0.892
11.118	0.909
11.1589	0.925
11.1997	0.926
11.2406	0.93
11.2814	0.931
11.3223	0.933
11.3632	0.935
11.404	0.937
11.4449	0.937
11.4857	0.93
11.5266	0.911
11.5674	0.87
11.6083	0.785
11.6491	0.675
11.69	0.534
11.7309	0.294
11.7717	0.11
11.8126	0.096
11.8534	0.127
11.8943	0.19
11.9351	0.454
11.976	0.595
12.0168	0.712
12.0577	0.763
12.0986	0.804
12.1394	0.824
12.1803	0.852
12.2211	0.877
12.262	0.892
12.3028	0.904
12.3437	0.904
12.3846	0.904
12.4254	0.903
12.4663	0.897
12.5071	0.894
12.548	0.879
12.5888	0.855
12.6297	0.812
12.6705	0.743
12.7114	0.603
12.7523	0.221
12.7931	0.074
12.834	0.039
12.8748	0.056
12.9157	0.166
12.9565	0.353
12.9974	0.508
13.0382	0.622
13.0791	0.692
13.12	0.748
13.1608	0.795
13.2017	0.814
13.2425	0.829
13.2834	0.841
13.3242	0.85
13.3651	0.857
13.4059	0.86
13.4468	0.862
13.4877	0.865
13.5285	0.865
13.5694	0.865
13.6102	0.865
13.6511	0.865
13.6919	0.863
13.7328	0.86
13.7737	0.85
13.8145	0.84
13.8554	0.821
13.8962	0.804
13.9371	0.773
13.9779	0.704
14.0188	0.585
14.0596	0.551
14.1005	0.629
14.1414	0.7
14.1822	0.719
14.2231	0.666
14.2639	0.566
14.3048	0.384
14.3456	0.231
14.3865	0.127
14.4273	0.096
14.4682	0.102
14.5091	0.197
14.5499	0.294
14.5908	0.411
14.6316	0.496
14.6725	0.557
14.7133	0.602
14.7542	0.627
14.7951	0.654
14.8359	0.664
14.8768	0.675
14.9176	0.681
14.9585	0.681
14.9993	0.668
15.0402	0.613
15.081	0.559
15.1219	0.547
15.1628	0.583
15.2036	0.641
15.2445	0.676
15.2853	0.687
15.3262	0.685
15.367	0.688
15.4079	0.688
15.4487	0.687
15.4896	0.675
15.5305	0.666
15.5713	0.664
15.6122	0.659
15.653	0.649
15.6939	0.639
15.7347	0.632
15.7756	0.603
15.8164	0.596
15.8573	0.598
15.8982	0.59
15.939	0.578
15.9799	0.568
