Infrared Spectrum: p-Sulfamoylbenzoic acid
Formula: C7 H7 N O4 S
CAS: 138-41-0
State: SOLID (SPLIT MULL), FLUOROLUBE FOR 3800-1330 CM^-^1, NUJOL FOR 1330-400 CM^-^1
Melting point: 286 C
Class: COBLENTZ III
Instrument: DOW KBr FOREPRISM-GRATING
Instrument parameters: BLAZED AT 3.5, 12.0, 20.0 MICRON AND CHANGED AT 5.0, 7.5, 14.9 MICRON
Sampling: TRANSMISSION
Resolution: 2
Origin: DOW CHEMICAL COMPANY
1/CM	TRANSMITTANCE
3812	0.8005
3803	0.8004
3794	0.8005
3785	0.801
3776	0.8018
3767	0.8028
3758	0.8039
3749	0.8049
3740	0.8058
3731	0.8068
3722	0.8078
3713	0.8089
3704	0.81
3695	0.811
3686	0.8121
3677	0.813
3668	0.8136
3659	0.814
3650	0.8145
3641	0.815
3632	0.8157
3623	0.8164
3614	0.8171
3605	0.8175
3596	0.8175
3587	0.8174
3578	0.8172
3569	0.8175
3560	0.8178
3551	0.8183
3542	0.8187
3533	0.8191
3524	0.8195
3515	0.8199
3506	0.8202
3497	0.8205
3488	0.8209
3479	0.821
3470	0.8211
3461	0.821
3452	0.8206
3443	0.8201
3434	0.8186
3425	0.8143
3416	0.8033
3407	0.7831
3398	0.7568
3389	0.7265
3380	0.6008
3371	0.4348
3362	0.4149
3353	0.4952
3344	0.6069
3335	0.6822
3326	0.6955
3317	0.6965
3308	0.6911
3299	0.6791
3290	0.6595
3281	0.4829
3272	0.2717
3263	0.3288
3254	0.5084
3245	0.6229
3236	0.6593
3227	0.6874
3218	0.7047
3209	0.7142
3200	0.7197
3191	0.7238
3182	0.7261
3173	0.7271
3164	0.7258
3155	0.7218
3146	0.7161
3137	0.7078
3128	0.6911
3119	0.6657
3110	0.6099
3101	0.6378
3092	0.6591
3083	0.6628
3074	0.6648
3065	0.6644
3056	0.6351
3047	0.6544
3038	0.6637
3029	0.6651
3020	0.6614
3011	0.6553
3002	0.6495
2993	0.6451
2984	0.6418
2975	0.6401
2966	0.6395
2957	0.6398
2948	0.6425
2939	0.6449
2930	0.6471
2921	0.65
2912	0.6498
2903	0.6435
2894	0.6401
2885	0.6407
2876	0.6408
2867	0.6377
2858	0.6345
2849	0.632
2840	0.6299
2831	0.6299
2822	0.6312
2813	0.6372
2804	0.6497
2795	0.6636
2786	0.6771
2777	0.6901
2768	0.6971
2759	0.7018
2750	0.705
2741	0.7051
2732	0.6976
2723	0.6964
2714	0.6972
2705	0.6987
2696	0.6901
2687	0.6685
2678	0.6521
2669	0.6462
2660	0.6498
2651	0.6551
2642	0.6615
2633	0.6681
2624	0.6748
2615	0.6805
2606	0.6858
2597	0.6891
2588	0.688
2579	0.6717
2570	0.6571
2561	0.6448
2552	0.6426
2543	0.6478
2534	0.6689
2525	0.6828
2516	0.6922
2507	0.7015
2498	0.7099
2489	0.7171
2480	0.7245
2471	0.7311
2462	0.738
2453	0.7446
2444	0.7503
2435	0.7554
2426	0.7606
2417	0.7657
2408	0.7708
2399	0.7757
2390	0.7804
2381	0.7846
2372	0.7888
2363	0.7918
2354	0.7935
2345	0.7951
2336	0.7964
2327	0.7975
2318	0.799
2309	0.8007
2300	0.8025
2291	0.8044
2282	0.8064
2273	0.8084
2264	0.811
2255	0.8143
2246	0.8203
2237	0.8264
2228	0.8325
2219	0.8378
2210	0.8427
2201	0.8456
2192	0.8444
2183	0.8425
2174	0.843
2165	0.8449
2156	0.8466
2147	0.8483
2138	0.8499
2129	0.8515
2120	0.8533
2111	0.855
2102	0.8575
2093	0.8603
2084	0.8636
2075	0.8667
2066	0.8717
2057	0.8765
2048	0.8815
2039	0.882
2030	0.8812
2021	0.8806
2012	0.8807
2003	0.8809
1994	0.8814
1985	0.8818
1976	0.8825
1967	0.8827
1958	0.853
1949	0.8584
1940	0.8728
1931	0.8781
1922	0.8763
1913	0.8737
1904	0.8714
1895	0.8697
1886	0.8685
1877	0.8684
1868	0.8686
1859	0.8696
1850	0.8701
1841	0.8702
1832	0.8693
1823	0.8587
1814	0.8559
1805	0.8601
1796	0.8618
1787	0.8633
1778	0.8662
1769	0.8705
1760	0.8753
1751	0.8778
1742	0.8804
1733	0.8806
1724	0.8643
1715	0.7897
1706	0.5223
1697	0.2884
1688	0.1589
1679	0.1969
1670	0.5179
1661	0.6982
1652	0.7731
1643	0.8095
1634	0.8259
1625	0.8353
1616	0.8488
1607	0.8383
1598	0.7655
1589	0.8278
1580	0.766
1571	0.6883
1562	0.6742
1553	0.6969
1544	0.7884
1535	0.8295
1526	0.8531
1517	0.8615
1508	0.865
1499	0.8655
1490	0.761
1481	0.871
1472	0.878
1463	0.8739
1454	0.8504
1445	0.8274
1436	0.7028
1427	0.4428
1418	0.633
1409	0.7414
1400	0.6125
1391	0.7668
1382	0.7698
1373	0.7417
1364	0.7651
1355	0.753
1346	0.3762
1337	0.2081
1328	0.359
1319	0.2945
1310	0.3408
1301	0.4032
1292	0.2958
1283	0.1728
1274	0.4974
1265	0.6392
1256	0.7498
1247	0.7737
1238	0.8144
1229	0.8298
1220	0.8397
1211	0.8616
1202	0.8678
1193	0.8724
1184	0.6007
1175	0.7196
1166	0.3258
1157	0.0473
1148	0.433
1139	0.7333
1130	0.5336
1121	0.575
1112	0.5321
1103	0.7974
1094	0.5737
1085	0.644
1076	0.811
1067	0.8746
1058	0.9015
1049	0.9103
1040	0.9092
1031	0.901
1022	0.894
1013	0.6965
1004	0.8765
995	0.8933
986	0.8531
977	0.8795
968	0.8156
959	0.7954
950	0.626
941	0.5347
932	0.6312
923	0.7582
914	0.7906
905	0.6349
896	0.6246
887	0.794
878	0.851
869	0.8418
860	0.6324
851	0.8142
842	0.854
833	0.8813
824	0.8841
815	0.8764
806	0.8693
797	0.8677
788	0.8554
779	0.7981
770	0.309
761	0.6691
752	0.5939
743	0.5171
734	0.422
725	0.3223
716	0.7457
707	0.7755
698	0.7369
689	0.3618
680	0.7311
671	0.7545
662	0.7444
653	0.7069
644	0.695
635	0.6981
626	0.6758
617	0.3484
608	0.6904
599	0.7522
590	0.8053
581	0.8305
572	0.8271
563	0.8083
554	0.7339
545	0.6249
536	0.1887
527	0.8042
518	0.8854
509	0.902
500	0.9032
491	0.9121
482	0.9177
473	0.9143
464	0.8467
455	0.7128
446	0.8214
437	0.8234
428	0.7771
419	0.7708
410	0.7701
401	0.7696
392	0.7695
