Infrared Spectrum: Shikimic acid
Formula: C 7 H 10 O 5
CAS: 138-59-0
State: gas
Origin: EPA-IR VAPOR PHASE LIBRARY
1/CM	ABSORBANCE
549.8	0.0009874
559.445	0.001204
569.09	0.001557
578.734	0.002187
588.379	0.002177
598.024	0.0014601
607.669	0.0013673
617.313	0.0012354
626.958	0.001917
636.603	0.002017
646.248	0.001647
655.893	0.0008431
665.537	0.0009734
675.182	0.0006532
684.827	0.0008871
694.472	0.0007048
704.116	0.0008089
713.761	0.0008235
723.406	0.001727
733.051	0.002257
742.695	0.002237
752.34	0.003077
761.985	0.002267
771.63	0.0014488
781.275	0.0006485
790.919	0.0009601
800.564	0.0007954
810.209	0.0007254
819.854	0.000821
829.498	0.000385
839.143	0.0006713
848.788	0.0006743
858.433	0.0006309
868.078	0.0007005
877.722	0.0007491
887.367	0.0010219
897.012	0.0014628
906.657	0.001887
916.301	0.001637
925.946	0.0009144
935.591	0.0007784
945.236	0.0006307
954.88	0.00059485
964.525	0.0006763
974.17	0.0008252
983.815	0.0006755
993.46	0.00059379
1003.1	0.0011263
1012.75	0.000647
1022.39	0.0009647
1032.04	0.00055418
1041.68	0.0010874
1051.33	0.001927
1060.97	0.002217
1070.62	0.001647
1080.26	0.001927
1089.91	0.002147
1099.55	0.002117
1109.2	0.0007557
1118.84	0.001657
1128.49	0.001637
1138.13	0.002457
1147.78	0.003767
1157.42	0.004917
1167.07	0.005897
1176.71	0.005047
1186.36	0.004367
1196	0.003427
1205.64	0.002827
1215.29	0.002167
1224.93	0.0013079
1234.58	0.0014798
1244.22	0.001817
1253.87	0.002087
1263.51	0.001937
1273.16	0.001757
1282.8	0.001577
1292.45	0.002127
1302.09	0.002517
1311.74	0.002707
1321.38	0.002367
1331.03	0.002467
1340.67	0.002377
1350.32	0.001877
1359.96	0.001947
1369.61	0.001747
1379.25	0.0012028
1388.9	0.0009329
1398.54	0.0007985
1408.18	0.00073
1417.83	0.000819
1427.47	0.0010164
1437.12	0.001517
1446.76	0.002137
1456.41	0.002277
1466.05	0.001867
1475.7	0.001318
1485.34	0.0011905
1494.99	0.0010009
1504.63	0.0007819
1514.28	0.000697
1523.92	0.00060394
1533.57	0.0006932
1543.21	0.0007
1552.86	0.0006857
1562.5	0.0008347
1572.15	0.0010129
1581.79	0.0014667
1591.44	0.001837
1601.08	0.001797
1610.73	0.0013873
1620.37	0.000951
1630.01	0.0007514
1639.66	0.0007225
1649.3	0.000631
1658.95	0.0006967
1668.59	0.0006107
1678.24	0.0007618
1687.88	0.0007469
1697.53	0.0008991
1707.17	0.0010316
1716.82	0.0008705
1726.46	0.0009525
1736.11	0.0012595
1745.75	0.003127
1755.4	0.007707
1765.04	0.008637
1774.69	0.004107
1784.33	0.0014556
1793.98	0.0010862
1803.62	0.0010786
1813.27	0.0010801
1822.91	0.0009354
1832.55	0.0007605
1842.2	0.0006964
1851.84	0.00060647
1861.49	0.0006971
1871.13	0.00063
1880.78	0.0006726
1890.42	0.00056102
1900.07	0.00052606
1909.71	0.00057286
1919.36	0.00058043
1929	0.0006215
1938.65	0.00053112
1948.29	0.0006087
1957.94	0.0006186
1967.58	0.00055505
1977.23	0.00058785
1986.87	0.00057906
1996.52	0.00058546
2006.16	0.00057369
2015.81	0.00056613
2025.45	0.000513681
2035.1	0.0006517
2044.74	0.00055334
2054.38	0.00054661
2064.03	0.00055638
2073.67	0.00053781
2083.32	0.00056435
2092.96	0.00054206
2102.61	0.0004728
2112.25	0.00057569
2121.9	0.0004872
2131.54	0.00058801
2141.19	0.00056097
2150.83	0.00056499
2160.48	0.00056472
2170.12	0.00059438
2179.77	0.0004511
2189.41	0.0004163
2199.06	0.00053105
2208.7	0.0005458
2218.35	0.00058809
2227.99	0.00055841
2237.64	0.00053576
2247.28	0.0004684
2256.92	0.0004835
2266.57	0.000507338
2276.21	0.00057491
2285.86	0.0006211
2295.5	0.000515953
2305.15	0.00054977
2314.79	0.0006186
2324.44	0.0005685
2334.08	0.00058858
2343.73	0.0005555
2353.37	0.0005437
2363.02	0.0005952
2372.66	0.00052124
2382.31	0.00053999
2391.95	0.00054468
2401.6	0.0005053
2411.24	0.00055497
2420.89	0.00060045
2430.53	0.0005155
2440.18	0.00060312
2449.82	0.00053003
2459.47	0.0006445
2469.11	0.00052558
2478.75	0.00057802
2488.4	0.0006429
2498.04	0.00057482
2507.69	0.0006974
2517.33	0.00060365
2526.98	0.000510921
2536.62	0.0006474
2546.27	0.00058875
2555.91	0.00056527
2565.56	0.00050412
2575.2	0.000510316
2584.85	0.00053851
2594.49	0.0004947
2604.14	0.0004215
2613.78	0.0004934
2623.43	0.00054668
2633.07	0.00058402
2642.72	0.00051922
2652.36	0.0004945
2662.01	0.00052537
2671.65	0.0004612
2681.29	0.00055204
2690.94	0.0006486
2700.58	0.0004683
2710.23	0.0004557
2719.87	0.00054619
2729.52	0.0004983
2739.16	0.0004256
2748.81	0.0004481
2758.45	0.0004619
2768.1	0.0004555
2777.74	0.0004698
2787.39	0.000417
2797.03	0.000454
2806.68	0.0004715
2816.32	0.00038
2825.97	0.000509948
2835.61	0.00057196
2845.26	0.0004071
2854.9	0.0004645
2864.55	0.00054367
2874.19	0.0004598
2883.84	0.0004125
2893.48	0.0004755
2903.12	0.000391
2912.77	0.000314
2922.41	0.0004275
2932.06	0.0004803
2941.7	0.00057618
2951.35	0.0004965
2960.99	0.00057156
2970.64	0.00052662
2980.28	0.0004169
2989.93	0.0006043
2999.57	0.0004817
3009.22	0.0004564
3018.86	0.000403
3028.51	0.0004546
3038.15	0.00050498
3047.8	0.00052922
3057.44	0.0006207
3067.09	0.00052778
3076.73	0.00038
3086.38	0.0004823
3096.02	0.00052638
3105.67	0.00054972
3115.31	0.0004845
3124.95	0.000301
3134.6	0.0004514
3144.24	0.000292
3153.89	0.0004235
3163.53	0.000312
3173.18	0.00034
3182.82	0.0004841
3192.47	0.0004705
3202.11	0.000308
3211.76	0.00039
3221.4	0.000224
3231.05	0.0004355
3240.69	0.00032
3250.34	0.000299
3259.98	0.000141
3269.63	0.00049753
3279.27	0.000286
3288.92	0.000349
3298.56	0.000307
3308.21	0.00057381
3317.85	0.000277
3327.49	0.000305
3337.14	0.000267
3346.78	0.00032
3356.43	0.0004325
3366.07	0.0004264
3375.72	0.00056086
3385.36	0.000459
3395.01	0.000515995
3404.65	0.00057339
3414.3	0.0004604
3423.94	0.0004892
3433.59	0.000397
3443.23	0.00053443
3452.88	0.000379
3462.52	0.000514676
3472.17	0.00056361
3481.81	0.0004426
3491.46	0.0004698
3501.1	0.000393
3510.75	0.0006534
3520.39	0.00055271
3530.04	0.000397
3539.68	0.000176
3549.32	0.00038
3558.97	0.00050727
3568.61	0.0009746
3578.26	0.002807
3587.9	0.003027
3597.55	0.0009833
3607.19	0.0006417
3616.84	0.00052464
3626.48	0.0006304
3636.13	0.0012204
3645.77	0.002077
3655.42	0.001737
3665.06	0.0012552
3674.71	0.0008147
3684.35	0.000454
3694	0.000259
3703.64	0.0004875
3713.29	0.0004199
3722.93	0.0004707
3732.58	0.0004841
3742.22	0.000374
3751.86	0.000269
3761.51	0.0004387
3771.15	0.000392
3780.8	0.0007604
3790.44	0.000367
3800.09	0.000244
3809.73	0.00057417
3819.38	0.0006001
3829.02	0.000368
3838.67	0.000257
3848.31	0.000342
3857.96	0.00049993
3867.6	0.0004861
3877.25	0.000511611
3886.89	0.000338
3896.54	0.0004177
3906.18	0.0004908
3915.83	0.0006301
3925.47	0.000339
3935.12	0.00050573
3944.76	0.0004561
3954.41	0.000245
3964.05	0.0007081
3973.69	0.0004645
3983.34	0.000136
3992.98	0.000167
