Infrared Spectrum: Glutamic acid, hydrochloride
Formula: C5 H10 Cl N O4
CAS: 138-15-8
State: SOLID (0.9 mg / 650 mg KBr DISC)
Class: COBLENTZ III
Instrument: PERKIN-ELMER 21 (GRATING)
Instrument parameters: FILTER CHANGE ABOUT 1020 CM^-^1
Resolution: 2
Origin: SOUTHERN RESEARCH INSTITUTE
1/CM	TRANSMITTANCE
606	0.5331
615	0.5332
624	0.542
633	0.5478
642	0.6257
651	0.6812
660	0.6859
669	0.626
678	0.577
687	0.7028
696	0.7236
705	0.72
714	0.7132
723	0.7048
732	0.6953
741	0.6847
750	0.6748
759	0.6739
768	0.6283
777	0.5759
786	0.5885
795	0.5546
804	0.4916
813	0.37
822	0.2693
831	0.3745
840	0.5342
849	0.5386
858	0.4599
867	0.417
876	0.4924
885	0.5902
894	0.6897
903	0.7081
912	0.6976
921	0.6665
930	0.6748
939	0.7682
948	0.8155
957	0.8162
966	0.8083
975	0.7978
984	0.7766
993	0.6911
1002	0.4477
1011	0.8052
1020	0.7699
1029	0.8064
1038	0.7958
1047	0.7743
1056	0.7195
1065	0.636
1074	0.5354
1083	0.3415
1092	0.7599
1101	0.7566
1110	0.7247
1119	0.6282
1128	0.6297
1137	0.6526
1146	0.5012
1155	0.6557
1164	0.6068
1173	0.5482
1182	0.4661
1191	0.3452
1200	0.1773
1209	0.0975
1218	0.1405
1227	0.3213
1236	0.5022
1245	0.4526
1254	0.272
1263	0.3736
1272	0.177
1281	0.2409
1290	0.4473
1299	0.5919
1308	0.6197
1317	0.6014
1326	0.6689
1335	0.7703
1344	0.7464
1353	0.6705
1362	0.6365
1371	0.5471
1380	0.693
1389	0.6793
1398	0.5261
1407	0.3773
1416	0.2241
1425	0.1588
1434	0.3804
1443	0.4684
1452	0.5284
1461	0.6655
1470	0.6707
1479	0.6327
1488	0.4848
1497	0.2962
1506	0.202
1515	0.5617
1524	0.6241
1533	0.6638
1542	0.6614
1551	0.6489
1560	0.6313
1569	0.565
1578	0.4704
1587	0.4701
1596	0.3465
1605	0.2888
1614	0.4213
1623	0.3936
1632	0.3312
1641	0.2653
1650	0.1747
1659	0.1093
1668	0.0904
1677	0.1125
1686	0.1788
1695	0.2338
1704	0.1234
1713	0.0875
1722	0.1447
1731	0.2505
1740	0.3646
1749	0.4576
1758	0.5308
1767	0.569
1776	0.6113
1785	0.6724
1794	0.707
1803	0.7343
1812	0.7517
1821	0.7651
1830	0.7764
1839	0.8004
1848	0.8085
1857	0.8218
1866	0.8294
1875	0.8311
1884	0.83
1893	0.8281
1902	0.8269
1911	0.8257
1920	0.8237
1929	0.814
1938	0.7983
1947	0.7846
1956	0.7622
1965	0.7223
1974	0.6921
1983	0.7015
1992	0.7298
2001	0.7376
2010	0.7613
2019	0.8115
2028	0.8348
2037	0.8622
2046	0.8787
2055	0.888
2064	0.8938
2073	0.898
2082	0.9015
2091	0.904
2100	0.9029
2109	0.9003
2118	0.8964
2127	0.897
2136	0.8976
2145	0.8987
2154	0.899
2163	0.8939
2172	0.8854
2181	0.8802
2190	0.8781
2199	0.8711
2208	0.8706
2217	0.8695
2226	0.8662
2235	0.8627
2244	0.8583
2253	0.8526
2262	0.8452
2271	0.8373
2280	0.8271
2289	0.8195
2298	0.8143
2307	0.8094
2316	0.8025
2325	0.7935
2334	0.782
2343	0.7732
2352	0.7676
2361	0.7636
2370	0.7515
2379	0.7266
2388	0.7052
2397	0.6836
2406	0.665
2415	0.6511
2424	0.632
2433	0.6075
2442	0.5784
2451	0.5543
2460	0.5272
2469	0.4935
2478	0.4591
2487	0.4657
2496	0.4809
2505	0.4731
2514	0.4539
2523	0.4289
2532	0.3928
2541	0.3579
2550	0.3373
2559	0.3196
2568	0.3029
2577	0.2926
2586	0.2966
2595	0.2946
2604	0.3011
2613	0.3229
2622	0.3306
2631	0.3397
2640	0.3409
2649	0.3259
2658	0.3018
2667	0.277
2676	0.26
2685	0.2537
2694	0.2523
2703	0.2557
2712	0.2555
2721	0.2497
2730	0.233
2739	0.2233
2748	0.1958
2757	0.1689
2766	0.1417
2775	0.128
2784	0.1182
2793	0.1095
2802	0.1022
2811	0.0968
2820	0.0907
2829	0.0869
2838	0.0861
2847	0.0862
2856	0.0876
2865	0.0895
2874	0.0913
2883	0.0933
2892	0.0961
2901	0.0985
2910	0.1009
2919	0.1031
2928	0.1057
2937	0.1106
2946	0.1164
2955	0.1249
2964	0.1302
2973	0.1361
2982	0.1394
2991	0.1415
3000	0.1435
3009	0.1506
3018	0.1621
3027	0.1716
3036	0.1747
3045	0.1794
3054	0.1857
3063	0.1872
3072	0.1864
3081	0.1865
3090	0.1855
3099	0.1776
3108	0.176
3117	0.1751
3126	0.177
3135	0.1837
3144	0.1974
3153	0.209
3162	0.2237
3171	0.244
3180	0.2554
3189	0.2636
3198	0.2727
3207	0.2901
3216	0.303
3225	0.3173
3234	0.3379
3243	0.3608
3252	0.381
3261	0.3953
3270	0.4132
3279	0.4275
3288	0.4381
3297	0.4478
3306	0.458
3315	0.4672
3324	0.4804
3333	0.4888
3342	0.4942
3351	0.4997
3360	0.5038
3369	0.5079
3378	0.5132
3387	0.5179
3396	0.5235
3405	0.5305
3414	0.5377
3423	0.5457
3432	0.554
3441	0.5628
3450	0.571
3459	0.579
3468	0.5874
3477	0.5989
3486	0.6161
3495	0.6316
3504	0.646
3513	0.659
3522	0.6689
3531	0.675
3540	0.6805
3549	0.6882
3558	0.6994
3567	0.714
3576	0.7285
3585	0.7407
3594	0.7583
3603	0.7733
3612	0.7849
3621	0.7925
3630	0.7974
3639	0.8013
3648	0.804
3657	0.8064
3666	0.8087
3675	0.8108
3684	0.8125
3693	0.8138
3702	0.8148
3711	0.8153
3720	0.8196
3729	0.8215
3738	0.8215
3747	0.8265
3756	0.8309
3765	0.8329
3774	0.8338
3783	0.834
3792	0.832
3801	0.8302
3810	0.8317
3819	0.8389
3828	0.8465
3837	0.8511
3846	0.8534
3855	0.8556
3864	0.8574
3873	0.8587
3882	0.8596
3891	0.8604
3900	0.8604
