Infrared Spectrum: Mafenide
Formula: C 7 H 10 N 2 O 2 S
CAS: 138-39-6
State: gas
Instrument: HP-GC/MS/IRD
Origin: NIST Mass Spectrometry Data Center
1/CM	ABSORBANCE
550	0.0008502
562	0.0004238
574	0.0004563
586	0.0005512
598	0.0004771
610	0.0003523
622	0.0004706
634	0.0007982
646	0.0004056
658	0.0001924
670	0.0001495
682	0.0001131
694	0.0001339
706	0.0002626
718	0.0002756
730	0.000208
742	0.0001963
754	0.0012064
766	0.0026897
778	0.0007371
790	0.0002951
802	6.5e-05
814	0.0001105
826	0.0003237
838	0.000234
850	0.0001066
862	0.0001053
874	0.0002301
886	0.0003068
898	0.0001014
910	0.0001079
922	0.0001742
934	0.0001924
946	0.0003471
958	0.000221
970	0.0001768
982	0.0002808
994	0.0005473
1006	0.0004017
1018	0.0006331
1030	0.0016289
1042	0.0010673
1054	0.0006734
1066	0.0005317
1078	0.0007293
1090	0.0012194
1102	0.0017407
1114	0.0020748
1126	0.0013728
1138	0.001404
1150	0.0013364
1162	0.0010049
1174	0.000689
1186	0.0008879
1198	0.0012662
1210	0.0021034
1222	0.0017225
1234	0.0008736
1246	0.0008073
1258	0.0014001
1270	0.0022659
1282	0.001989
1294	0.0013156
1306	0.0009763
1318	0.0008749
1330	0.0008736
1342	0.0007085
1354	0.0007319
1366	0.0009776
1378	0.0012649
1390	0.0009022
1402	0.0009763
1414	0.0014053
1426	0.0023361
1438	0.0038831
1450	0.0066807
1462	0.0088231
1474	0.0118027
1486	0.0121173
1498	0.0063388
1510	0.0033969
1522	0.0021489
1534	0.0014742
1546	0.0010153
1558	0.0007033
1570	0.0006539
1582	0.0006045
1594	0.0006513
1606	0.0004888
1618	0.0003744
1630	0.0003393
1642	0.0003965
1654	0.000416
1666	0.0005811
1678	0.0008489
1690	0.0016965
1702	0.00468
1714	0.0087672
1726	0.0050999
1738	0.001586
1750	0.0006695
1762	0.0004732
1774	0.0003419
1786	0.0001937
1798	0.0001326
1810	0.00013
1822	0.0001053
1834	0.0001391
1846	0.0001417
1858	9.1e-05
1870	5.98e-05
1882	5.72e-05
1894	7.8e-05
1906	0.000117
1918	0.0001586
1930	0.0001196
1942	5.33e-05
1954	4.42e-05
1966	1.56e-05
1978	2.86e-05
1990	4.16e-05
2002	2.6e-05
2014	2.6e-06
2026	4.94e-05
2038	3.9e-05
2050	3.77e-05
2062	5.2e-05
2074	3.25e-05
2086	2.86e-05
2098	2.6e-05
2110	2.47e-05
2122	3.38e-05
2134	2.99e-05
2146	3.25e-05
2158	1.43e-05
2170	1.69e-05
2182	2.34e-05
2194	2.6e-05
2206	2.08e-05
2218	2.34e-05
2230	1.43e-05
2242	1.69e-05
2254	3.25e-05
2266	2.08e-05
2278	2.6e-05
2290	3.12e-05
2302	2.86e-05
2314	4.16e-05
2326	2.34e-05
2338	2.73e-05
2350	1.04e-05
2362	1.43e-05
2374	1.04e-05
2386	3.51e-05
2398	2.34e-05
2410	1.69e-05
2422	2.86e-05
2434	0
2446	2.08e-05
2458	1.17e-05
2470	1.43e-05
2482	1.95e-05
2494	9.1e-06
2506	6.5e-06
2518	3.12e-05
2530	3.25e-05
2542	1.82e-05
2554	1.95e-05
2566	5.2e-06
2578	4.03e-05
2590	4.16e-05
2602	4.55e-05
2614	5.46e-05
2626	8.19e-05
2638	0.00013
2650	0.0001859
2662	0.000221
2674	0.0002106
2686	0.0002275
2698	0.0003276
2710	0.0005122
2722	0.0006838
2734	0.0005473
2746	0.0004511
2758	0.0005395
2770	0.000832
2782	0.0014469
2794	0.0027989
2806	0.0031265
2818	0.0019591
2830	0.0021918
2842	0.0017056
2854	0.0024362
2866	0.0038623
2878	0.0029666
2890	0.0023582
2902	0.0025051
2914	0.0031889
2926	0.0052546
2938	0.0087841
2950	0.0106613
2962	0.0048204
2974	0.0027547
2986	0.0020787
2998	0.0015483
3010	0.0009607
3022	0.0010179
3034	0.0011739
3046	0.0013962
3058	0.0015912
3070	0.0013455
3082	0.0008736
3094	0.0004537
3106	0.000234
3118	0.0001534
3130	0.0001248
3142	7.28e-05
3154	7.54e-05
3166	7.67e-05
3178	7.28e-05
3190	7.15e-05
3202	0.0001131
3214	7.67e-05
3226	0.000104
3238	9.75e-05
3250	0.0001287
3262	0.0001404
3274	0.0001742
3286	0.0002548
3298	0.0002873
3310	0.0003419
3322	0.0005395
3334	0.0007098
3346	0.0007839
3358	0.0007709
3370	0.0009724
3382	0.0018343
3394	0.0012727
3406	0.0005408
3418	0.0003354
3430	0.0002522
3442	0.0002639
3454	0.0001859
3466	8.32e-05
3478	8.32e-05
3490	6.5e-05
3502	8.58e-05
3514	5.2e-05
3526	4.03e-05
3538	6.76e-05
3550	7.93e-05
3562	8.45e-05
3574	5.46e-05
3586	5.07e-05
3598	2.47e-05
3610	6.37e-05
3622	7.15e-05
3634	6.24e-05
3646	5.33e-05
3658	6.37e-05
3670	4.81e-05
3682	9.1e-05
3694	6.11e-05
3706	8.71e-05
3718	7.41e-05
3730	7.41e-05
3742	5.85e-05
3754	9.88e-05
3766	4.81e-05
3778	0.0001248
3790	6.5e-05
3802	9.23e-05
3814	8.19e-05
3826	7.41e-05
3838	0.0001196
