Infrared Spectrum: 4-Isopropylbenzonitrile
Formula: C 10 H 11 N
CAS: 13816-33-6
State: gas
Origin: EPA-IR VAPOR PHASE LIBRARY
1/CM	ABSORBANCE
549.8	0.017302
559.445	0.031822
569.09	0.027402
578.734	0.014242
588.379	0.004822
598.024	0.002132
607.669	0.001992
617.313	0.000851
626.958	0.001582
636.603	0.002562
646.248	0.002492
655.893	0.002842
665.537	0.003092
675.182	0.002212
684.827	0.0011213
694.472	0.001222
704.116	0.001492
713.761	0.001382
723.406	0.002022
733.051	0.002032
742.695	0.002342
752.34	0.002052
761.985	0.001662
771.63	0.001792
781.275	0.002932
790.919	0.002902
800.564	0.005682
810.209	0.010092
819.854	0.023652
829.498	0.046222
839.143	0.048392
848.788	0.025722
858.433	0.008622
868.078	0.004312
877.722	0.003802
887.367	0.002932
897.012	0.002172
906.657	0.001672
916.301	0.001952
925.946	0.002292
935.591	0.002162
945.236	0.002032
954.88	0.001842
964.525	0.001452
974.17	0.001612
983.815	0.001502
993.46	0.001442
1003.1	0.004142
1012.75	0.009872
1022.39	0.010942
1032.04	0.004492
1041.68	0.006172
1051.33	0.014892
1060.97	0.017432
1070.62	0.008182
1080.26	0.006242
1089.91	0.005852
1099.55	0.005792
1109.2	0.007402
1118.84	0.005982
1128.49	0.003712
1138.13	0.002502
1147.78	0.002492
1157.42	0.001402
1167.07	0.0008783
1176.71	0.002452
1186.36	0.003002
1196	0.002702
1205.64	0.003272
1215.29	0.002902
1224.93	0.001272
1234.58	0.002432
1244.22	0.002192
1253.87	0.002672
1263.51	0.005142
1273.16	0.006022
1282.8	0.005302
1292.45	0.008242
1302.09	0.009402
1311.74	0.006552
1321.38	0.005172
1331.03	0.005602
1340.67	0.007422
1350.32	0.008852
1359.96	0.008942
1369.61	0.010132
1379.25	0.011342
1388.9	0.012712
1398.54	0.012862
1408.18	0.012672
1417.83	0.011402
1427.47	0.008512
1437.12	0.007282
1446.76	0.009692
1456.41	0.014342
1466.05	0.016712
1475.7	0.014512
1485.34	0.012702
1494.99	0.023412
1504.63	0.030502
1514.28	0.020692
1523.92	0.010052
1533.57	0.003102
1543.21	0.002132
1552.86	0.002382
1562.5	0.002462
1572.15	0.002202
1581.79	0.002312
1591.44	0.005732
1601.08	0.015602
1610.73	0.020592
1620.37	0.009332
1630.01	0.003392
1639.66	0.003292
1649.3	0.003572
1658.95	0.004832
1668.59	0.004872
1678.24	0.003312
1687.88	0.002342
1697.53	0.001722
1707.17	0.0011192
1716.82	0.001282
1726.46	0.001572
1736.11	0.001272
1745.75	0.0011869
1755.4	0.001372
1765.04	0.002012
1774.69	0.003002
1784.33	0.003642
1793.98	0.003312
1803.62	0.002122
1813.27	0.001242
1822.91	0.0011918
1832.55	0.0011847
1842.2	0.0010386
1851.84	0.0010735
1861.49	0.001322
1871.13	0.001282
1880.78	0.001542
1890.42	0.002562
1900.07	0.004062
1909.71	0.004932
1919.36	0.004222
1929	0.002322
1938.65	0.001612
1948.29	0.001212
1957.94	0.0010448
1967.58	0.0009813
1977.23	0.0008365
1986.87	0.0008335
1996.52	0.0008001
2006.16	0.0009051
2015.81	0.0010089
2025.45	0.0006831
2035.1	0.0007029
2044.74	0.0008371
2054.38	0.0008609
2064.03	0.0008404
2073.67	0.0005794
2083.32	0.0007298
2092.96	0.0007977
2102.61	0.0007363
2112.25	0.0004429
2121.9	0.0007272
2131.54	0.0007303
2141.19	0.0008375
2150.83	0.0007966
2160.48	0.0007884
2170.12	0.0008544
2179.77	0.0009331
2189.41	0.0010239
2199.06	0.001532
2208.7	0.002202
2218.35	0.007932
2227.99	0.024732
2237.64	0.023512
2247.28	0.004472
2256.92	0.001812
2266.57	0.001732
2276.21	0.001452
2285.86	0.001472
2295.5	0.001532
2305.15	0.001232
2314.79	0.001292
2324.44	0.001562
2334.08	0.001412
2343.73	0.001232
2353.37	0.001422
2363.02	0.001572
2372.66	0.001372
2382.31	0.001642
2391.95	0.001742
2401.6	0.001442
2411.24	0.001502
2420.89	0.001412
2430.53	0.0011726
2440.18	0.0009958
2449.82	0.0010885
2459.47	0.0009645
2469.11	0.001382
2478.75	0.001492
2488.4	0.001462
2498.04	0.0010626
2507.69	0.001342
2517.33	0.001532
2526.98	0.001932
2536.62	0.001872
2546.27	0.001622
2555.91	0.001602
2565.56	0.001712
2575.2	0.002022
2584.85	0.001912
2594.49	0.001512
2604.14	0.001562
2613.78	0.001542
2623.43	0.001432
2633.07	0.001582
2642.72	0.001552
2652.36	0.0010725
2662.01	0.001602
2671.65	0.001292
2681.29	0.001622
2690.94	0.001612
2700.58	0.001702
2710.23	0.001922
2719.87	0.001852
2729.52	0.002352
2739.16	0.002522
2748.81	0.001892
2758.45	0.001992
2768.1	0.002412
2777.74	0.002402
2787.39	0.002662
2797.03	0.002742
2806.68	0.003402
2816.32	0.003582
2825.97	0.003592
2835.61	0.004222
2845.26	0.005142
2854.9	0.007522
2864.55	0.012532
2874.19	0.022662
2883.84	0.031312
2893.48	0.031972
2903.12	0.031222
2912.77	0.032472
2922.41	0.033402
2932.06	0.037472
2941.7	0.043962
2951.35	0.045772
2960.99	0.076542
2970.64	0.144342
2980.28	0.109732
2989.93	0.036002
2999.57	0.017072
3009.22	0.011442
3018.86	0.009152
3028.51	0.010982
3038.15	0.015642
3047.8	0.014502
3057.44	0.010192
3067.09	0.009072
3076.73	0.009652
3086.38	0.011362
3096.02	0.010702
3105.67	0.007902
3115.31	0.006082
3124.95	0.004632
3134.6	0.003522
3144.24	0.002922
3153.89	0.001712
3163.53	0.002302
3173.18	0.002172
3182.82	0.002242
3192.47	0.002582
3202.11	0.002082
3211.76	0.002492
3221.4	0.001982
3231.05	0.001962
3240.69	0.001472
3250.34	0.001342
3259.98	0.0010535
3269.63	0.001013
3279.27	0.0010878
3288.92	0.0005441
3298.56	0.001442
3308.21	0.00030597
3317.85	0.0007552
3327.49	0.0010024
3337.14	0.0009273
3346.78	0.0007594
3356.43	0.0009435
3366.07	0.0009208
3375.72	0.0005203
3385.36	0.0011766
3395.01	0.001372
3404.65	0.001942
3414.3	0.001852
3423.94	0.0010113
3433.59	0.001452
3443.23	0.0011271
3452.88	0.0011074
3462.52	0.0010753
3472.17	0.0008024
3481.81	0.0011034
3491.46	0.0006464
3501.1	0.0009352
3510.75	0.0010136
3520.39	0.0001133
3530.04	0.0003676
3539.68	0.0009101
3549.32	0.0006094
3558.97	0.0008156
3568.61	0.0007971
3578.26	0.0009563
3587.9	0.0009341
3597.55	0.0011411
3607.19	0.0001846
3616.84	0.0004178
3626.48	0.0010119
3636.13	0.0009225
3645.77	0.0003703
3655.42	0.00028376
3665.06	0.0006874
3674.71	0.0006243
3684.35	0.0007915
3694	0.0008536
3703.64	0.0007627
3713.29	0.00026836
3722.93	0.0011195
3732.58	0.0007188
3742.22	0.0010343
3751.86	0.0007043
3761.51	0.0009378
3771.15	0.0008503
3780.8	0.0004137
3790.44	0.0009387
3800.09	0.000634
3809.73	0.0006787
3819.38	0.0008136
3829.02	0.0010773
3838.67	0.001862
3848.31	0.0008791
3857.96	0.0005756
3867.6	0.001432
3877.25	0.0009114
3886.89	0.0011765
3896.54	0.0012075
3906.18	0.0004192
3915.83	0.000978
3925.47	0.001862
3935.12	0.001332
3944.76	0.0008961
3954.41	0.001422
3964.05	0.0008683
3973.69	0.000909
3983.34	0.0005685
3992.98	0.00064
