Infrared Spectrum: SILANE, TRICHLORO-o-TOLYL-
Formula: C7 H7 Cl3 Si
CAS: 13835-81-9
State: SOLUTION (11% CCl4 FOR 3800-1300, 11% CS2 FOR 1300-650, AND 11% CCl4 FOR 650-250)
Class: COBLENTZ III
Instrument: PERKIN-ELMER 521 (GRATING)
Instrument parameters: FILTERS AT 3150, 2500, 2000, 1150, 700, 410. GRATING CHANGES: 2000, 630
Sampling: TRANSMISSION
Path length: 0.011 CM, 0.011 CM, AND 0.011 CM
Resolution: 2
Origin: DOW CORNING CORP.
1/CM	TRANSMITTANCE
3818	0.8914
3809	0.8915
3800	0.8918
3791	0.8921
3782	0.8938
3773	0.8988
3764	0.9035
3755	0.9034
3746	0.9027
3737	0.9007
3728	0.8986
3719	0.8965
3710	0.894
3701	0.8913
3692	0.8881
3683	0.8834
3674	0.884
3665	0.8855
3656	0.8865
3647	0.8875
3638	0.8885
3629	0.888
3620	0.8874
3611	0.8868
3602	0.8864
3593	0.886
3584	0.8857
3575	0.8853
3566	0.885
3557	0.8847
3548	0.8843
3539	0.8838
3530	0.8835
3521	0.883
3512	0.8825
3503	0.8821
3494	0.8821
3485	0.882
3476	0.8818
3467	0.8818
3458	0.8817
3449	0.8816
3440	0.8815
3431	0.8815
3422	0.8814
3413	0.8813
3404	0.8812
3395	0.8812
3386	0.8813
3377	0.8821
3368	0.883
3359	0.8839
3350	0.8848
3341	0.8856
3332	0.8861
3323	0.8865
3314	0.887
3305	0.8875
3296	0.8882
3287	0.8889
3278	0.8896
3269	0.8903
3260	0.8907
3251	0.8907
3242	0.8908
3233	0.8913
3224	0.892
3215	0.8925
3206	0.8927
3197	0.8928
3188	0.8921
3179	0.8913
3170	0.891
3161	0.8887
3152	0.8821
3143	0.8653
3134	0.8683
3125	0.8723
3116	0.8713
3107	0.8499
3098	0.7836
3089	0.7826
3080	0.7118
3071	0.6687
3062	0.7091
3053	0.7946
3044	0.8003
3035	0.7951
3026	0.7151
3017	0.7472
3008	0.7871
2999	0.7615
2990	0.7338
2981	0.7207
2972	0.736
2963	0.7698
2954	0.7901
2945	0.7554
2936	0.7547
2927	0.7988
2918	0.8183
2909	0.8248
2900	0.8271
2891	0.8228
2882	0.8169
2873	0.8218
2864	0.833
2855	0.8441
2846	0.8543
2837	0.8611
2828	0.867
2819	0.8714
2810	0.8741
2801	0.8745
2792	0.8752
2783	0.8754
2774	0.8752
2765	0.8739
2756	0.8712
2747	0.8675
2738	0.8667
2729	0.8675
2720	0.8694
2711	0.8712
2702	0.8728
2693	0.8731
2684	0.8718
2675	0.869
2666	0.8686
2657	0.8687
2648	0.8701
2639	0.8714
2630	0.8728
2621	0.8736
2612	0.8744
2603	0.8739
2594	0.873
2585	0.8721
2576	0.8714
2567	0.8707
2558	0.87
2549	0.8695
2540	0.8697
2531	0.8699
2522	0.8705
2513	0.871
2504	0.8723
2495	0.874
2486	0.8754
2477	0.8763
2468	0.8768
2459	0.8774
2450	0.8778
2441	0.878
2432	0.8783
2423	0.8786
2414	0.8783
2405	0.8775
2396	0.8768
2387	0.8768
2378	0.8778
2369	0.8787
2360	0.8794
2351	0.88
2342	0.8807
2333	0.8813
2324	0.8818
2315	0.8824
2306	0.883
2297	0.8833
2288	0.8837
2279	0.8841
2270	0.8843
2261	0.8844
2252	0.8844
2243	0.8844
2234	0.8844
2225	0.8816
2216	0.8761
2207	0.8761
2198	0.8765
2189	0.8771
2180	0.8781
2171	0.879
2162	0.8801
2153	0.8818
2144	0.8837
2135	0.8854
2126	0.887
2117	0.8885
2108	0.8889
2099	0.8891
2090	0.8894
2081	0.8893
2072	0.8893
2063	0.8893
2054	0.8894
2045	0.8894
2036	0.8895
2027	0.8896
2018	0.8891
2009	0.8883
2000	0.8873
1991	0.8846
1982	0.8781
1973	0.8556
1964	0.8463
1955	0.8527
1946	0.8593
1937	0.8342
1928	0.8278
1919	0.8456
1910	0.8594
1901	0.8545
1892	0.8568
1883	0.8625
1874	0.8667
1865	0.8693
1856	0.859
1847	0.8406
1838	0.8483
1829	0.8601
1820	0.8343
1811	0.8366
1802	0.8488
1793	0.8548
1784	0.8553
1775	0.8549
1766	0.8542
1757	0.8539
1748	0.8544
1739	0.8544
1730	0.8537
1721	0.8539
1712	0.8548
1703	0.8453
1694	0.8303
1685	0.8402
1676	0.8416
1667	0.8414
1658	0.8412
1649	0.8411
1640	0.8425
1631	0.8491
1622	0.822
1613	0.8118
1604	0.7889
1595	0.5408
1586	0.668
1577	0.8112
1568	0.7196
1559	0.8058
1550	0.8267
1541	0.841
1532	0.8467
1523	0.8484
1514	0.8434
1505	0.8278
1496	0.7837
1487	0.749
1478	0.6749
1469	0.5305
1460	0.5266
1451	0.3466
1442	0.4621
1433	0.6312
1424	0.7189
1415	0.7085
1406	0.7767
1397	0.8021
1388	0.7678
1379	0.7549
1370	0.7975
1361	0.8184
1352	0.8293
1343	0.8357
1334	0.8367
1325	0.836
1316	0.8352
1307	0.8363
1298	0.8363
1289	0.688
1280	0.5914
1271	0.7935
1262	0.7718
1253	0.8307
1244	0.8362
1235	0.8459
1226	0.8575
1217	0.8561
1208	0.8457
1199	0.6271
1190	0.8198
1181	0.8255
1172	0.8212
1163	0.7548
1154	0.7585
1145	0.7487
1136	0.5281
1127	0.3597
1118	0.6985
1109	0.7251
1100	0.7335
1091	0.6904
1082	0.3548
1073	0.6455
1064	0.7455
1055	0.7581
1046	0.7368
1037	0.7578
1028	0.6993
1019	0.7748
1010	0.8148
1001	0.8249
992	0.831
983	0.831
974	0.8375
965	0.8491
956	0.853
947	0.8503
938	0.8506
929	0.8583
920	0.86
911	0.8604
902	0.8591
893	0.8573
884	0.8544
875	0.8498
866	0.828
857	0.8278
848	0.8336
839	0.8447
830	0.8418
821	0.8468
812	0.7911
803	0.4491
794	0.7891
785	0.8255
776	0.8334
767	0.8191
758	0.745
749	0.0523
740	0.7034
731	0.7928
722	0.8137
713	0.3784
704	0.7701
695	0.7814
686	0.2598
677	0.7231
668	0.7837
659	0.7934
650	0.7711
641	0.7911
632	0.7999
623	0.7671
614	0.664
605	0.3857
596	0.0012
587	0.0001
578	0.0594
569	0.2866
560	0.1028
551	0.4788
542	0.6364
533	0.7099
524	0.713
515	0.3859
506	0.1394
497	0.513
488	0.7251
479	0.7653
470	0.7753
461	0.7814
452	0.7814
443	0.6795
434	0.6497
425	0.7797
416	0.7984
407	0.7951
398	0.8115
389	0.8207
380	0.8139
371	0.8115
362	0.8114
353	0.8153
344	0.8181
335	0.7156
326	0.7543
317	0.7778
308	0.7942
299	0.8001
290	0.8014
281	0.7987
272	0.7775
263	0.7449
254	0.7482
