Infrared Spectrum: 3H-NAPHTH[1,2-d]IMIDAZOLE, 3-(P-ANISIDINO)-2-(P-METHOXYPHENYL)-
Formula: C25 H21 N3 O2
CAS: 13847-93-3
State: SOLID (KBr DISC)
Class: COBLENTZ III
Instrument: UNICAM SP-200
Sampling: TRANSMISSION
Resolution: 4
Origin: HUNGARIAN ACAD. OF SCI., VIA SCIENTIFIC DOC. CENTRE LTD.
1/CM	TRANSMITTANCE
652.368	0.779
663.421	0.801
674.473	0.806
685.526	0.523
696.579	0.51
707.631	0.655
718.684	0.781
729.737	0.83
740.789	0.714
751.842	0.434
762.894	0.725
773.947	0.633
785	0.7429
796.052	0.819
807.105	0.711
818.158	0.378
829.21	0.408
840.263	0.7179
851.316	0.781
862.368	0.815
873.421	0.749
884.474	0.819
895.526	0.834
906.579	0.835
917.632	0.842
928.684	0.82
939.737	0.844
950.79	0.845
961.842	0.836
972.895	0.842
983.947	0.835
995	0.83
1006.05	0.767
1017.11	0.768
1028.16	0.699
1039.21	0.493
1050.26	0.732
1061.32	0.722
1072.37	0.759
1083.42	0.785
1094.47	0.783
1105.53	0.672
1116.58	0.687
1127.63	0.744
1138.68	0.774
1149.74	0.769
1160.79	0.699
1171.84	0.5891
1182.9	0.722
1193.95	0.774
1205	0.722
1216.05	0.676
1227.11	0.531
1238.16	0.166
1249.21	0.5149
1260.26	0.579
1271.32	0.739
1282.37	0.656
1293.42	0.619
1304.47	0.664
1315.53	0.723
1326.58	0.765
1337.63	0.775
1348.68	0.814
1359.74	0.822
1370.79	0.605
1381.84	0.716
1392.9	0.745
1403.95	0.776
1415	0.739
1426.05	0.727
1437.11	0.696
1448.16	0.5651
1459.21	0.597
1470.26	0.525
1481.32	0.585
1492.37	0.696
1503.42	0.3651
1514.47	0.217
1525.53	0.598
1536.58	0.725
1547.63	0.817
1558.69	0.84
1569.74	0.84
1580.79	0.839
1591.84	0.786
1602.9	0.8
1613.95	0.765
1625	0.789
1636.05	0.821
1647.11	0.834
1658.16	0.832
1669.21	0.823
1680.26	0.816
1691.32	0.818
1702.37	0.833
1713.42	0.833
1724.47	0.833
1735.53	0.834
1746.58	0.833
1757.63	0.84
1768.69	0.852
1779.74	0.852
1790.79	0.845
1801.84	0.84
1812.9	0.84
1823.95	0.84
1835	0.84
1846.05	0.842
1857.11	0.843
1868.16	0.838
1879.21	0.833
1890.26	0.83
1901.32	0.833
1912.37	0.832
1923.42	0.835
1934.48	0.829
1945.53	0.83
1956.58	0.833
1967.63	0.83
1978.69	0.824
1989.74	0.831
2000.79	0.831
2011.84	0.833
2022.9	0.83
2033.95	0.829
2045	0.828
2056.05	0.828
2067.11	0.828
2078.16	0.83
2089.21	0.83
2100.26	0.831
2111.32	0.832
2122.37	0.8317
2133.42	0.83
2144.48	0.829
2155.53	0.826
2166.58	0.825
2177.63	0.823
2188.69	0.8251
2199.74	0.825
2210.79	0.823
2221.84	0.821
2232.9	0.8181
2243.95	0.8133
2255	0.8102
2266.05	0.811
2277.11	0.812
2288.16	0.8122
2299.21	0.814
2310.27	0.8137
2321.32	0.807
2332.37	0.806
2343.42	0.804
2354.48	0.8031
2365.53	0.7998
2376.58	0.7924
2387.63	0.792
2398.69	0.7948
2409.74	0.792
2420.79	0.791
2431.84	0.7897
2442.9	0.7854
2453.95	0.783
2465	0.7805
2476.06	0.78
2487.11	0.782
2498.16	0.7781
2509.21	0.776
2520.27	0.773
2531.32	0.769
2542.37	0.7665
2553.42	0.7658
2564.48	0.764
2575.53	0.764
2586.58	0.764
2597.63	0.764
2608.69	0.764
2619.74	0.763
2630.79	0.7561
2641.84	0.7521
2652.9	0.7547
2663.95	0.7526
2675	0.7477
2686.06	0.747
2697.11	0.7438
2708.16	0.7387
2719.21	0.7339
2730.27	0.7304
2741.32	0.726
2752.37	0.7205
2763.42	0.6975
2774.48	0.688
2785.53	0.6897
2796.58	0.69
2807.63	0.689
2818.69	0.6815
2829.74	0.6766
2840.79	0.6602
2851.85	0.6465
2862.9	0.6368
2873.95	0.6234
2885	0.619
2896.06	0.6175
2907.11	0.614
2918.16	0.6116
2929.21	0.61
2940.27	0.609
2951.32	0.607
2962.37	0.6058
2973.42	0.606
2984.48	0.609
2995.53	0.611
3006.58	0.6192
3017.63	0.6311
3028.69	0.6469
3039.74	0.6569
3050.79	0.6647
3061.85	0.668
3072.9	0.6662
3083.95	0.6592
3095	0.6488
3106.06	0.6362
3117.11	0.628
3128.16	0.6239
3139.21	0.6194
3150.27	0.617
3161.32	0.6195
3172.37	0.6249
3183.42	0.6288
3194.48	0.631
3205.53	0.6283
3216.58	0.6171
3227.64	0.5938
3238.69	0.5541
3249.74	0.5218
3260.79	0.5226
3271.85	0.5297
3282.9	0.5545
3293.95	0.586
3305	0.6035
3316.06	0.616
3327.11	0.6334
3338.16	0.6397
3349.21	0.6462
3360.27	0.6535
3371.32	0.6574
3382.37	0.661
3393.42	0.6651
3404.48	0.6686
3415.53	0.6711
3426.58	0.675
3437.64	0.678
3448.69	0.6794
3459.74	0.6809
3470.79	0.6834
3481.85	0.6842
3492.9	0.685
3503.95	0.6857
3515	0.688
3526.06	0.6873
3537.11	0.6881
3548.16	0.69
3559.21	0.692
3570.27	0.6955
3581.32	0.697
3592.37	0.7
3603.43	0.701
3614.48	0.701
3625.53	0.702
3636.58	0.7042
3647.64	0.7043
3658.69	0.6998
3669.74	0.697
3680.79	0.697
3691.85	0.6985
3702.9	0.7
3713.95	0.7005
3725	0.7
3736.06	0.701
3747.11	0.7
3758.16	0.7
3769.21	0.698
3780.27	0.6958
3791.32	0.6933
3802.37	0.6899
3813.43	0.6896
3824.48	0.69
3835.53	0.6855
3846.58	0.683
3857.64	0.685
3868.69	0.685
3879.74	0.688
3890.79	0.6882
3901.85	0.684
3912.9	0.685
3923.95	0.686
3935	0.6823
3946.06	0.6809
3957.11	0.68
3968.16	0.682
3979.22	0.682
3990.27	0.681
4001.32	0.683
4012.37	0.683
4023.43	0.6823
4034.48	0.6798
4045.53	0.685
4056.58	0.6843
4067.64	0.6818
4078.69	0.68
4089.74	0.679
4100.79	0.679
4111.85	0.678
4122.9	0.678
4133.95	0.678
4145.01	0.676
4156.06	0.6748
4167.11	0.6763
4178.16	0.6788
4189.22	0.6766
4200.27	0.673
4211.32	0.6784
4222.37	0.6814
4233.43	0.6759
4244.48	0.674
4255.53	0.676
4266.58	0.6716
4277.64	0.67
4288.69	0.6676
4299.74	0.666
4310.79	0.6647
4321.85	0.6613
4332.9	0.6608
4343.95	0.66
4355.01	0.659
4366.06	0.659
4377.11	0.658
4388.16	0.659
4399.22	0.659
4410.27	0.659
4421.32	0.6581
4432.37	0.658
4443.43	0.657
4454.48	0.657
4465.53	0.6573
4476.58	0.6568
4487.64	0.6554
4498.69	0.654
4509.74	0.653
4520.8	0.652
4531.85	0.652
4542.9	0.652
4553.95	0.6516
4565.01	0.6502
4576.06	0.645
4587.11	0.645
4598.16	0.6482
4609.22	0.65
4620.27	0.65
4631.32	0.648
4642.37	0.6459
4653.43	0.643
4664.48	0.641
4675.53	0.64
4686.58	0.639
4697.64	0.639
4708.69	0.638
4719.74	0.639
4730.8	0.64
4741.85	0.64
4752.9	0.64
4763.95	0.6369
4775.01	0.635
4786.06	0.638
4797.11	0.6385
4808.16	0.641
4819.22	0.6416
4830.27	0.6383
4841.32	0.6337
4852.37	0.632
4863.43	0.632
4874.48	0.6313
4885.53	0.6298
4896.59	0.628
4907.64	0.63
4918.69	0.6285
4929.74	0.628
4940.8	0.628
4951.85	0.6271
4962.9	0.6266
