Infrared Spectrum: BIURET, 1,5-BIS(2-CHLOROETHYL)-1-NITROSO-
Formula: C6 H10 Cl2 N4 O3
CAS: 13857-12-0
State: SOLID (1 mg / 650 mg KBr DISC)
Melting point: 65 C
Class: COBLENTZ III
Instrument: PERKIN-ELMER 221 (GRATING)
Instrument parameters: FILTER CHANGES AT 2490, 980 CM ^-^1, GRATING FOR 4000-1428 CM ^-^1, NaCl PRISM FOR 1428-650 CM^-^1
Sampling: TRANSMISSION
Resolution: 4
Origin: SOUTHERN RES. INSTITUTE
1/CM	TRANSMITTANCE
607.536	0.626
616.701	0.62
625.866	0.612
635.031	0.601
644.196	0.566
653.361	0.596
662.526	0.675
671.691	0.751
680.856	0.696
690.021	0.702
699.186	0.711
708.351	0.667
717.515	0.6
726.68	0.486
735.845	0.521
745.01	0.544
754.175	0.522
763.34	0.631
772.505	0.673
781.67	0.607
790.835	0.703
800	0.683
809.165	0.648
818.33	0.617
827.495	0.593
836.66	0.656
845.825	0.745
854.99	0.762
864.155	0.731
873.32	0.665
882.485	0.599
891.65	0.61
900.815	0.709
909.98	0.695
919.145	0.662
928.309	0.623
937.474	0.56
946.639	0.483
955.804	0.529
964.969	0.497
974.134	0.418
983.299	0.62
992.464	0.71
1001.63	0.749
1010.79	0.775
1019.96	0.772
1029.12	0.716
1038.29	0.672
1047.45	0.669
1056.62	0.626
1065.78	0.379
1074.95	0.423
1084.11	0.599
1093.28	0.676
1102.44	0.678
1111.61	0.752
1120.77	0.741
1129.94	0.706
1139.1	0.63
1148.27	0.696
1157.43	0.732
1166.6	0.733
1175.76	0.711
1184.93	0.666
1194.09	0.673
1203.26	0.664
1212.42	0.616
1221.59	0.538
1230.75	0.446
1239.92	0.394
1249.08	0.317
1258.25	0.425
1267.41	0.562
1276.58	0.598
1285.74	0.479
1294.91	0.522
1304.07	0.598
1313.24	0.573
1322.4	0.531
1331.57	0.539
1340.73	0.609
1349.9	0.654
1359.06	0.562
1368.23	0.583
1377.39	0.651
1386.56	0.678
1395.72	0.675
1404.89	0.571
1414.05	0.547
1423.22	0.536
1432.38	0.482
1441.55	0.448
1450.71	0.391
1459.88	0.269
1469.04	0.152
1478.21	0.168
1487.37	0.21
1496.54	0.346
1505.7	0.347
1514.87	0.32
1524.03	0.295
1533.2	0.246
1542.36	0.22
1551.53	0.27
1560.69	0.337
1569.86	0.439
1579.02	0.526
1588.19	0.621
1597.35	0.639
1606.52	0.656
1615.68	0.659
1624.85	0.657
1634.01	0.656
1643.18	0.644
1652.34	0.598
1661.51	0.535
1670.67	0.465
1679.84	0.277
1689	0.162
1698.17	0.096
1707.33	0.189
1716.5	0.201
1725.66	0.168
1734.83	0.204
1743.99	0.336
1753.16	0.485
1762.32	0.525
1771.49	0.573
1780.65	0.626
1789.82	0.674
1798.98	0.703
1808.15	0.734
1817.31	0.751
1826.48	0.766
1835.64	0.775
1844.81	0.784
1853.97	0.789
1863.14	0.795
1872.3	0.801
1881.46	0.807
1890.63	0.814
1899.79	0.82
1908.96	0.827
1918.12	0.83
1927.29	0.833
1936.45	0.834
1945.62	0.835
1954.78	0.837
1963.95	0.84
1973.11	0.842
1982.28	0.844
1991.44	0.845
2000.61	0.846
2009.77	0.847
2018.94	0.848
2028.1	0.849
2037.27	0.85
2046.43	0.85
2055.6	0.851
2064.76	0.851
2073.93	0.851
2083.09	0.851
2092.26	0.852
2101.42	0.852
2110.59	0.853
2119.75	0.853
2128.92	0.854
2138.08	0.855
2147.25	0.856
2156.41	0.856
2165.58	0.857
2174.74	0.857
2183.91	0.857
2193.07	0.857
2202.24	0.856
2211.4	0.856
2220.57	0.856
2229.73	0.855
2238.9	0.854
2248.06	0.854
2257.23	0.853
2266.39	0.853
2275.56	0.853
2284.72	0.853
2293.89	0.853
2303.05	0.853
2312.22	0.853
2321.38	0.853
2330.55	0.853
2339.71	0.853
2348.88	0.853
2358.04	0.852
2367.21	0.851
2376.37	0.851
2385.54	0.851
2394.7	0.851
2403.87	0.851
2413.03	0.851
2422.2	0.851
2431.36	0.85
2440.53	0.85
2449.69	0.85
2458.86	0.85
2468.02	0.85
2477.19	0.85
2486.35	0.85
2495.52	0.85
2504.68	0.85
2513.85	0.85
2523.01	0.85
2532.18	0.85
2541.34	0.849
2550.51	0.849
2559.67	0.849
2568.84	0.849
2578	0.849
2587.17	0.849
2596.33	0.849
2605.5	0.849
2614.66	0.848
2623.83	0.847
2632.99	0.847
2642.16	0.847
2651.32	0.846
2660.49	0.845
2669.65	0.844
2678.82	0.843
2687.98	0.842
2697.15	0.84
2706.31	0.84
2715.48	0.838
2724.64	0.837
2733.81	0.836
2742.97	0.834
2752.14	0.833
2761.3	0.83
2770.47	0.822
2779.63	0.819
2788.8	0.816
2797.96	0.813
2807.13	0.812
2816.29	0.81
2825.46	0.809
2834.62	0.804
2843.79	0.799
2852.95	0.796
2862.12	0.794
2871.28	0.791
2880.45	0.788
2889.61	0.784
2898.78	0.777
2907.94	0.767
2917.11	0.734
2926.27	0.71
2935.44	0.693
2944.6	0.694
2953.76	0.691
2962.93	0.688
2972.09	0.688
2981.26	0.698
2990.42	0.718
2999.59	0.721
3008.75	0.718
3017.92	0.712
3027.08	0.706
3036.25	0.702
3045.41	0.699
3054.58	0.689
3063.74	0.681
3072.91	0.674
3082.07	0.661
3091.24	0.639
3100.4	0.622
3109.57	0.597
3118.73	0.576
3127.9	0.548
3137.06	0.523
3146.23	0.525
3155.39	0.541
3164.56	0.565
3173.72	0.578
3182.89	0.569
3192.05	0.558
3201.22	0.546
3210.38	0.542
3219.55	0.544
3228.71	0.551
3237.88	0.565
3247.04	0.587
3256.21	0.597
3265.37	0.616
3274.54	0.627
3283.7	0.633
3292.87	0.633
3302.03	0.621
3311.2	0.603
3320.36	0.57
3329.53	0.516
3338.69	0.53
3347.86	0.513
3357.02	0.491
3366.19	0.448
3375.35	0.431
3384.52	0.547
3393.68	0.608
3402.85	0.652
3412.01	0.681
3421.18	0.7
3430.34	0.71
3439.51	0.719
3448.67	0.722
3457.84	0.73
3467	0.738
3476.17	0.742
3485.33	0.746
3494.5	0.75
3503.66	0.758
3512.83	0.763
3521.99	0.769
3531.16	0.776
3540.32	0.784
3549.49	0.788
3558.65	0.791
3567.82	0.793
3576.98	0.799
3586.15	0.804
3595.31	0.807
3604.48	0.816
3613.64	0.826
3622.81	0.831
3631.97	0.837
3641.14	0.839
3650.3	0.84
3659.47	0.841
3668.63	0.842
3677.8	0.844
3686.96	0.846
3696.13	0.848
3705.29	0.849
3714.46	0.849
3723.62	0.847
3732.79	0.847
3741.95	0.846
3751.12	0.845
3760.28	0.845
3769.45	0.845
3778.61	0.846
3787.78	0.847
3796.94	0.847
3806.11	0.847
3815.27	0.847
3824.44	0.847
3833.6	0.847
3842.77	0.847
3851.93	0.847
3861.1	0.847
3870.26	0.847
3879.43	0.847
3888.59	0.847
3897.76	0.847
3906.92	0.847
3916.09	0.846
3925.25	0.846
3934.42	0.845
3943.58	0.846
3952.75	0.846
3961.91	0.847
3971.08	0.847
3980.24	0.847
3989.41	0.847
3998.57	0.849
