Infrared Spectrum: Fenchyl acetate
Formula: C 12 H 20 O 2
CAS: 13851-11-1
State: gas
Origin: EPA-IR VAPOR PHASE LIBRARY
1/CM	ABSORBANCE
501.5	0
513.074	0.001755
524.648	0.002215
536.222	0.0006966
547.796	0.000703
559.37	0.0009998
570.944	0.000152
582.518	0.00031458
594.092	0.001495
605.666	0.003065
617.24	0.001975
628.814	0.001335
640.388	0.003775
651.962	0.004705
663.536	0.001765
675.11	0.0008018
686.684	0.0006975
698.258	0.0004314
709.832	0.00032736
721.406	0.00031185
732.98	0.00026583
744.554	0.000255011
756.128	0.0002337
767.702	0.00028937
779.276	0.0003726
790.85	0.0011722
802.423	0.002945
813.997	0.002225
825.571	0.0008838
837.145	0.0006788
848.719	0.0007241
860.293	0.001061
871.867	0.001315
883.441	0.002175
895.015	0.003605
906.589	0.004715
918.163	0.005375
929.737	0.004965
941.311	0.005195
952.885	0.004455
964.459	0.004655
976.033	0.006035
987.607	0.008385
999.181	0.013255
1010.76	0.022485
1022.33	0.020675
1033.9	0.033105
1045.48	0.062775
1057.05	0.043595
1068.63	0.023805
1080.2	0.019505
1091.77	0.012785
1103.35	0.008325
1114.92	0.006015
1126.49	0.003985
1138.07	0.003985
1149.64	0.006065
1161.22	0.009485
1172.79	0.009385
1184.36	0.010935
1195.94	0.017795
1207.51	0.030125
1219.09	0.063685
1230.66	0.137765
1242.23	0.182345
1253.81	0.075815
1265.38	0.022005
1276.96	0.013935
1288.53	0.007895
1300.1	0.006505
1311.68	0.006575
1323.25	0.005675
1334.83	0.006565
1346.4	0.008545
1357.97	0.022365
1369.55	0.038215
1381.12	0.037905
1392.7	0.018455
1404.27	0.007875
1415.84	0.004805
1427.42	0.005215
1438.99	0.007305
1450.57	0.012455
1462.14	0.018055
1473.71	0.017745
1485.29	0.011045
1496.86	0.006245
1508.44	0.003715
1520.01	0.002825
1531.58	0.002525
1543.16	0.002535
1554.73	0.002565
1566.31	0.002295
1577.88	0.002015
1589.45	0.002055
1601.03	0.002035
1612.6	0.001775
1624.18	0.001685
1635.75	0.001835
1647.32	0.001935
1658.9	0.002125
1670.47	0.002475
1682.05	0.003095
1693.62	0.004165
1705.19	0.006485
1716.77	0.009015
1728.34	0.014985
1739.92	0.045525
1751.49	0.090845
1763.06	0.064495
1774.64	0.026985
1786.21	0.014245
1797.79	0.011445
1809.36	0.007635
1820.93	0.004455
1832.51	0.002865
1844.08	0.001875
1855.66	0.001305
1867.23	0.0009973
1878.8	0.0008529
1890.38	0.0008408
1901.95	0.0009784
1913.53	0.0010172
1925.1	0.0009329
1936.67	0.0008859
1948.25	0.0008556
1959.82	0.0009221
1971.4	0.0009195
1982.97	0.0008606
1994.54	0.0007714
2006.12	0.0007425
2017.69	0.0007256
2029.27	0.0007089
2040.84	0.00068
2052.41	0.0007049
2063.99	0.0006146
2075.56	0.0005913
2087.14	0.0006209
2098.71	0.0006904
2110.28	0.0007914
2121.86	0.0010622
2133.43	0.001315
2145.01	0.001375
2156.58	0.0011595
2168.15	0.0009115
2179.73	0.0007761
2191.3	0.0006438
2202.88	0.0005394
2214.45	0.000511
2226.02	0.0005087
2237.6	0.0005381
2249.17	0.0006161
2260.74	0.0006812
2272.32	0.0006991
2283.89	0.0006635
2295.47	0.0006225
2307.04	0.0005446
2318.61	0.0005075
2330.19	0.0005121
2341.76	0.0005133
2353.34	0.0005148
2364.91	0.0005165
2376.48	0.0004966
2388.06	0.0005265
2399.63	0.0005561
2411.21	0.0006091
2422.78	0.0006299
2434.35	0.0006381
2445.93	0.0007144
2457.5	0.0008039
2469.08	0.0008679
2480.65	0.0007957
2492.22	0.0005641
2503.8	0.0004648
2515.37	0.0004196
2526.95	0.0004329
2538.52	0.0005246
2550.09	0.0005677
2561.67	0.0005227
2573.24	0.000545
2584.82	0.0005797
2596.39	0.0005964
2607.96	0.0006276
2619.54	0.0006083
2631.11	0.0005802
2642.69	0.0006391
2654.26	0.0006915
2665.83	0.0007594
2677.41	0.0008005
2688.98	0.00088
2700.56	0.0009587
2712.13	0.0010728
2723.7	0.001425
2735.28	0.001735
2746.85	0.001595
2758.43	0.001285
2770	0.001265
2781.57	0.001325
2793.15	0.001435
2804.72	0.001735
2816.3	0.002185
2827.87	0.002785
2839.44	0.003465
2851.02	0.005155
2862.59	0.010935
2874.17	0.029585
2885.74	0.040775
2897.31	0.031745
2908.89	0.029265
2920.46	0.035935
2932.04	0.055185
2943.61	0.086325
2955.18	0.101145
2966.76	0.102695
2978.33	0.065765
2989.91	0.033975
3001.48	0.016945
3013.05	0.006765
3024.63	0.004445
3036.2	0.003895
3047.78	0.003275
3059.35	0.002765
3070.92	0.002415
3082.5	0.002135
3094.07	0.002025
3105.65	0.001815
3117.22	0.001585
3128.79	0.001395
3140.37	0.001305
3151.94	0.001275
3163.52	0.001355
3175.09	0.001345
3186.66	0.0011657
3198.24	0.0010381
3209.81	0.0009419
3221.39	0.0008746
3232.96	0.000715
3244.53	0.0006661
3256.11	0.0005327
3267.68	0.0004771
3279.26	0.0004544
3290.83	0.0003648
3302.4	0.0003728
3313.98	0.0004327
3325.55	0.0003963
3337.13	0.0003886
3348.7	0.0003674
3360.27	0.0003737
3371.85	0.0003639
3383.42	0.0003742
3395	0.0003741
3406.57	0.0003648
3418.14	0.0004785
3429.72	0.0005405
3441.29	0.0005927
3452.86	0.0005511
3464.44	0.000562
3476.01	0.0009252
3487.59	0.001295
3499.16	0.0010893
3510.73	0.000732
3522.31	0.0005756
3533.88	0.0004792
3545.46	0.0004606
3557.03	0.0004183
3568.6	0.00026772
3580.18	0.0003508
3591.75	0.0002364
3603.33	0.00025322
3614.9	0.00027168
3626.47	0.00030043
3638.05	0.00026848
3649.62	0.00028889
3661.2	0.0002103
3672.77	0.00030342
3684.34	0.0002183
3695.92	0.000288
3707.49	0.0002348
3719.07	0.00025243
3730.64	0.0002876
3742.21	0.0003618
3753.79	0.0003848
3765.36	0.0004261
3776.94	0.00032227
3788.51	0.00035417
3800.08	0.0004062
3811.66	0.0003576
3823.23	0.0004001
3834.81	0.0004204
3846.38	0.0004156
3857.95	0.0004806
3869.53	0.0004966
3881.1	0.0005061
3892.68	0.0005559
3904.25	0.0005192
3915.82	0.0005488
3927.4	0.0004477
3938.97	0.0004368
3950.55	0.000456
3962.12	0.0005066
3973.69	0.0004528
3985.27	0.0004915
3996.84	0.0004509
