Infrared Spectrum: 4-Methyl-1,4-heptadiene
Formula: C 8 H 14
CAS: 13857-55-1
State: gas
Instrument: HP-GC/MS/IRD
Origin: NIST Mass Spectrometry Data Center
1/CM	ABSORBANCE
550	0.0002805
562	0.0002346
574	0.0001615
586	4.59e-05
598	6.12e-05
610	0.0002635
622	0.0002873
634	0.0006018
646	0.0008313
658	0.0006528
670	0.0004046
682	0.0002295
694	0.0002567
706	0.0002652
718	0.0004641
730	0.0005491
742	0.0005644
754	0.0006477
766	0.0006919
778	0.0005576
790	0.0005338
802	0.0006426
814	0.0008211
826	0.0010846
838	0.0013804
850	0.0014773
862	0.0013821
874	0.001292
886	0.0016983
898	0.0030481
910	0.0055046
922	0.0050575
934	0.0027064
946	0.0016745
958	0.0013141
970	0.0015266
982	0.0025381
994	0.003264
1006	0.0023528
1018	0.0013821
1030	0.0013158
1042	0.0013141
1054	0.0010812
1066	0.0009214
1078	0.0007242
1090	0.0006171
1102	0.0007191
1114	0.0007667
1126	0.0006681
1138	0.0004539
1150	0.000357
1162	0.0002958
1174	0.0004964
1186	0.0009248
1198	0.0010455
1210	0.0006018
1222	0.0003349
1234	0.0002703
1246	0.0003604
1258	0.0004896
1270	0.0005933
1282	0.0007616
1294	0.00102
1306	0.0012886
1318	0.0009809
1330	0.0006358
1342	0.0006664
1354	0.0008262
1366	0.0011832
1378	0.001938
1390	0.0022525
1402	0.0019635
1414	0.0018428
1426	0.0022559
1438	0.0027183
1450	0.0025415
1462	0.0022627
1474	0.0017119
1486	0.0010846
1498	0.0007701
1510	0.0006103
1522	0.000544
1534	0.0005015
1546	0.0004641
1558	0.0005168
1570	0.0004692
1582	0.0004029
1594	0.0004369
1606	0.0005542
1618	0.0010217
1630	0.0021998
1642	0.0024208
1654	0.0011798
1666	0.000646
1678	0.0004573
1690	0.0003043
1702	0.0002618
1714	0.0001632
1726	0.0001462
1738	0.0001088
1750	9.86e-05
1762	9.69e-05
1774	8.16e-05
1786	0.0001105
1798	0.0001513
1810	0.0002448
1822	0.0005219
1834	0.0006307
1846	0.0003757
1858	0.0001513
1870	0.0001275
1882	7.99e-05
1894	7.99e-05
1906	7.65e-05
1918	8.5e-05
1930	7.31e-05
1942	3.06e-05
1954	7.48e-05
1966	9.69e-05
1978	8.33e-05
1990	6.46e-05
2002	4.76e-05
2014	2.21e-05
2026	3.57e-05
2038	1.53e-05
2050	2.04e-05
2062	3.06e-05
2074	2.21e-05
2086	2.38e-05
2098	5.1e-05
2110	4.25e-05
2122	2.89e-05
2134	2.72e-05
2146	4.08e-05
2158	1.02e-05
2170	2.38e-05
2182	4.93e-05
2194	4.59e-05
2206	4.59e-05
2218	6.63e-05
2230	4.93e-05
2242	4.25e-05
2254	4.25e-05
2266	2.38e-05
2278	6.12e-05
2290	3.57e-05
2302	4.08e-05
2314	4.08e-05
2326	6.29e-05
2338	6.8e-05
2350	4.93e-05
2362	7.14e-05
2374	2.38e-05
2386	6.12e-05
2398	8.5e-05
2410	7.48e-05
2422	5.61e-05
2434	2.38e-05
2446	1.19e-05
2458	5.44e-05
2470	3.4e-05
2482	5.27e-05
2494	6.8e-05
2506	7.99e-05
2518	7.48e-05
2530	4.25e-05
2542	9.35e-05
2554	0.0001139
2566	0.0001071
2578	7.99e-05
2590	0.0001156
2602	0.0001071
2614	0.0001105
2626	9.52e-05
2638	0.0001139
2650	0.0001309
2662	0.0001173
2674	0.0001241
2686	0.0001921
2698	0.0002448
2710	0.0002992
2722	0.0003995
2734	0.000493
2746	0.0005066
2758	0.0005083
2770	0.0005304
2782	0.000612
2794	0.0007701
2806	0.0010948
2818	0.0016694
2830	0.0025874
2842	0.0035564
2854	0.0048076
2866	0.0066079
2878	0.0090083
2890	0.010489
2902	0.0106964
2914	0.0111367
2926	0.0116637
2938	0.0122927
2950	0.0121074
2962	0.0146727
2974	0.017
2986	0.0126259
2998	0.0088944
3010	0.0066708
3022	0.0047175
3034	0.0034017
3046	0.0028849
3058	0.0028186
3070	0.0031467
3082	0.0039542
3094	0.0032011
3106	0.001513
3118	0.0009027
3130	0.0006817
3142	0.0005712
3154	0.0005117
3166	0.0003995
3178	0.0003213
3190	0.0002856
3202	0.0002346
3214	0.0001564
3226	0.0001258
3238	0.0001173
3250	0.0001887
3262	0.0001275
3274	0.0001156
3286	0.0001037
3298	0.000102
3310	0.0001292
3322	9.18e-05
3334	0.0001054
3346	0.0001054
3358	5.61e-05
3370	0.0001054
3382	8.67e-05
3394	7.48e-05
3406	8.84e-05
3418	5.78e-05
3430	9.86e-05
3442	8.33e-05
3454	7.14e-05
3466	7.65e-05
3478	3.91e-05
3490	5.44e-05
3502	4.93e-05
3514	5.61e-05
3526	7.99e-05
3538	8.84e-05
3550	7.65e-05
3562	5.27e-05
3574	9.86e-05
3586	5.1e-05
3598	3.4e-06
3610	5.61e-05
3622	5.95e-05
3634	0.000102
3646	4.93e-05
3658	7.99e-05
3670	0.0001428
3682	9.35e-05
3694	6.46e-05
3706	3.91e-05
3718	9.01e-05
3730	9.01e-05
3742	0.0001003
3754	0.0001088
3766	7.82e-05
3778	7.99e-05
3790	0.0001003
3802	0.0001088
3814	0.0001156
3826	7.99e-05
3838	7.48e-05
