Infrared Spectrum: BIURET, 5-(2-CHLOROETHYL)-1-METHYL-1-NITROSO-
Formula: C5 H9 Cl N4 O3
CAS: 13857-11-9
State: SOLID (1 mg / 650 mg KBr DISC)
Class: COBLENTZ III
Instrument: PERKIN-ELMER 221 (GRATING)
Instrument parameters: FILTERS AT 2490, 980 CM ^-^1, NaCl PRISM FOR 1428-650 CM^-^1
Sampling: TRANSMISSION
Resolution: 4
Origin: SOUTHERN RES. INSTITUTE
1/CM	TRANSMITTANCE
595.435	0.711
604.565	0.705
613.696	0.698
622.826	0.6511
631.957	0.5841
641.087	0.53
650.218	0.6189
659.348	0.64
668.479	0.4621
677.609	0.559
686.74	0.455
695.87	0.4928
705.001	0.596
714.131	0.6359
723.261	0.715
732.392	0.714
741.522	0.5802
750.653	0.561
759.783	0.725
768.914	0.777
778.044	0.757
787.175	0.4982
796.305	0.7459
805.436	0.834
814.566	0.834
823.696	0.818
832.827	0.82
841.957	0.82
851.088	0.762
860.218	0.815
869.349	0.793
878.479	0.7431
887.61	0.733
896.74	0.718
905.871	0.794
915.001	0.793
924.132	0.791
933.262	0.778
942.392	0.7321
951.523	0.677
960.653	0.565
969.784	0.4021
978.914	0.4707
988.045	0.408
997.175	0.5539
1006.31	0.716
1015.44	0.785
1024.57	0.792
1033.7	0.793
1042.83	0.779
1051.96	0.755
1061.09	0.778
1070.22	0.736
1079.35	0.6033
1088.48	0.55
1097.61	0.724
1106.74	0.774
1115.87	0.759
1125	0.6223
1134.13	0.5201
1143.26	0.647
1152.39	0.756
1161.52	0.749
1170.65	0.733
1179.78	0.617
1188.91	0.6151
1198.05	0.6691
1207.18	0.523
1216.31	0.4591
1225.44	0.3421
1234.57	0.359
1243.7	0.378
1252.83	0.378
1261.96	0.6107
1271.09	0.7079
1280.22	0.729
1289.35	0.698
1298.48	0.641
1307.61	0.597
1316.74	0.7039
1325.87	0.728
1335	0.715
1344.13	0.669
1353.26	0.6121
1362.39	0.539
1371.52	0.473
1380.65	0.5419
1389.78	0.609
1398.92	0.5871
1408.05	0.55
1417.18	0.492
1426.31	0.439
1435.44	0.491
1444.57	0.513
1453.7	0.453
1462.83	0.383
1471.96	0.2251
1481.09	0.184
1490.22	0.236
1499.35	0.273
1508.48	0.335
1517.61	0.337
1526.74	0.278
1535.87	0.2341
1545	0.234
1554.13	0.4
1563.26	0.496
1572.39	0.534
1581.52	0.6079
1590.65	0.671
1599.79	0.718
1608.92	0.742
1618.05	0.739
1627.18	0.733
1636.31	0.722
1645.44	0.683
1654.57	0.628
1663.7	0.544
1672.83	0.4171
1681.96	0.36
1691.09	0.278
1700.22	0.1791
1709.35	0.177
1718.48	0.253
1727.61	0.14
1736.74	0.1421
1745.87	0.3458
1755	0.565
1764.13	0.63
1773.26	0.658
1782.39	0.714
1791.53	0.739
1800.66	0.768
1809.79	0.776
1818.92	0.79
1828.05	0.793
1837.18	0.801
1846.31	0.808
1855.44	0.812
1864.57	0.819
1873.7	0.822
1882.83	0.825
1891.96	0.828
1901.09	0.831
1910.22	0.833
1919.35	0.835
1928.48	0.838
1937.61	0.841
1946.74	0.844
1955.87	0.847
1965	0.847
1974.13	0.849
1983.26	0.85
1992.4	0.851
2001.53	0.853
2010.66	0.8539
2019.79	0.855
2028.92	0.856
2038.05	0.856
2047.18	0.856
2056.31	0.856
2065.44	0.856
2074.57	0.856
2083.7	0.856
2092.83	0.855
2101.96	0.854
2111.09	0.8539
2120.22	0.856
2129.35	0.858
2138.48	0.859
2147.61	0.859
2156.74	0.859
2165.87	0.859
2175	0.858
2184.13	0.858
2193.27	0.858
2202.4	0.858
2211.53	0.858
2220.66	0.857
2229.79	0.857
2238.92	0.856
2248.05	0.856
2257.18	0.856
2266.31	0.856
2275.44	0.856
2284.57	0.855
2293.7	0.855
2302.83	0.855
2311.96	0.855
2321.09	0.855
2330.22	0.855
2339.35	0.855
2348.48	0.855
2357.61	0.855
2366.74	0.855
2375.87	0.855
2385	0.854
2394.14	0.854
2403.27	0.854
2412.4	0.853
2421.53	0.853
2430.66	0.853
2439.79	0.853
2448.92	0.853
2458.05	0.853
2467.18	0.853
2476.31	0.853
2485.44	0.853
2494.57	0.853
2503.7	0.852
2512.83	0.852
2521.96	0.851
2531.09	0.851
2540.22	0.851
2549.35	0.851
2558.48	0.851
2567.61	0.851
2576.74	0.85
2585.87	0.85
2595.01	0.85
2604.14	0.85
2613.27	0.85
2622.4	0.85
2631.53	0.85
2640.66	0.85
2649.79	0.85
2658.92	0.85
2668.05	0.85
2677.18	0.849
2686.31	0.849
2695.44	0.848
2704.57	0.848
2713.7	0.848
2722.83	0.8476
2731.96	0.847
2741.09	0.847
2750.22	0.846
2759.35	0.844
2768.48	0.8429
2777.61	0.841
2786.75	0.8391
2795.88	0.838
2805.01	0.836
2814.14	0.834
2823.27	0.83
2832.4	0.8255
2841.53	0.822
2850.66	0.8187
2859.79	0.8148
2868.92	0.8119
2878.05	0.809
2887.18	0.8031
2896.31	0.7962
2905.44	0.7906
2914.57	0.7755
2923.7	0.753
2932.83	0.7624
2941.96	0.761
2951.09	0.755
2960.22	0.7543
2969.35	0.7651
2978.48	0.7799
2987.62	0.788
2996.75	0.79
3005.88	0.7937
3015.01	0.795
3024.14	0.795
3033.27	0.793
3042.4	0.79
3051.53	0.7858
3060.66	0.7819
3069.79	0.777
3078.92	0.7731
3088.05	0.768
3097.18	0.7613
3106.31	0.7507
3115.44	0.744
3124.57	0.742
3133.7	0.742
3142.83	0.742
3151.96	0.74
3161.09	0.736
3170.22	0.732
3179.35	0.729
3188.49	0.726
3197.62	0.7223
3206.75	0.7015
3215.88	0.6855
3225.01	0.6717
3234.14	0.652
3243.27	0.6285
3252.4	0.6187
3261.53	0.6048
3270.66	0.5841
3279.79	0.5653
3288.92	0.5238
3298.05	0.4716
3307.18	0.3726
3316.31	0.3175
3325.44	0.4244
3334.57	0.3994
3343.7	0.2972
3352.83	0.3726
3361.96	0.4965
3371.09	0.5426
3380.22	0.576
3389.36	0.6074
3398.49	0.6326
3407.62	0.6517
3416.75	0.6659
3425.88	0.6767
3435.01	0.6843
3444.14	0.7032
3453.27	0.7101
3462.4	0.715
3471.53	0.7258
3480.66	0.7318
3489.79	0.7374
3498.92	0.7472
3508.05	0.7545
3517.18	0.758
3526.31	0.763
3535.44	0.768
3544.57	0.774
3553.7	0.779
3562.83	0.784
3571.96	0.7927
3581.09	0.795
3590.23	0.8023
3599.36	0.8102
3608.49	0.8195
3617.62	0.825
3626.75	0.8293
3635.88	0.8332
3645.01	0.836
3654.14	0.838
3663.27	0.8409
3672.4	0.841
3681.53	0.843
3690.66	0.846
3699.79	0.847
3708.92	0.848
3718.05	0.848
3727.18	0.848
3736.31	0.8478
3745.44	0.846
3754.57	0.847
3763.7	0.85
3772.83	0.852
3781.97	0.853
3791.1	0.8514
3800.23	0.85
3809.36	0.85
3818.49	0.85
3827.62	0.85
3836.75	0.849
3845.88	0.848
3855.01	0.847
3864.14	0.848
3873.27	0.8498
3882.4	0.85
3891.53	0.851
3900.66	0.851
3909.79	0.852
3918.92	0.852
3928.05	0.852
3937.18	0.852
3946.31	0.852
3955.44	0.851
3964.57	0.85
3973.7	0.85
3982.84	0.852
3991.97	0.853
4001.1	0.853
4010.23	0.851
