Infrared Spectrum: 1,4-CYCLOHEXANEDICARBOXAMIDE, N,N'-BIS(2-CHLOROETHYL)-N,N'-DINITROSO-, TRANS-
Formula: C12 H18 Cl2 N4 O4
CAS: 13860-70-3
State: SOLID (1 mg / 650 mg KBr DISC)
Class: COBLENTZ III
Instrument: PERKIN-ELMER 221 (GRATING)
Instrument parameters: FILTER AT 980 CM ^-^1, GRATING FOR 4000-1428 CM^-^1, NaCl PRISM FOR 1428-650 CM^-^1
Sampling: TRANSMISSION
Resolution: 4
Origin: SOUTHERN RES. INSTITUTE
1/CM	TRANSMITTANCE
603.487	0.851
612.679	0.85
621.871	0.847
631.062	0.835
640.254	0.765
649.446	0.557
658.638	0.839
667.829	0.866
677.021	0.86
686.213	0.796
695.405	0.745
704.596	0.864
713.788	0.863
722.98	0.86
732.172	0.853
741.363	0.837
750.555	0.822
759.747	0.801
768.939	0.72
778.13	0.268
787.322	0.605
796.514	0.735
805.706	0.818
814.897	0.837
824.089	0.847
833.281	0.837
842.473	0.828
851.664	0.818
860.856	0.801
870.048	0.731
879.24	0.64
888.431	0.564
897.623	0.593
906.815	0.741
916.007	0.56
925.198	0.232
934.39	0.292
943.582	0.636
952.774	0.7
961.965	0.452
971.157	0.624
980.349	0.761
989.541	0.431
998.732	0.503
1007.92	0.691
1017.12	0.786
1026.31	0.777
1035.5	0.72
1044.69	0.447
1053.88	0.621
1063.07	0.789
1072.27	0.754
1081.46	0.416
1090.65	0.432
1099.84	0.773
1109.03	0.836
1118.23	0.85
1127.42	0.853
1136.61	0.855
1145.8	0.858
1154.99	0.856
1164.18	0.853
1173.38	0.85
1182.57	0.846
1191.76	0.824
1200.95	0.656
1210.14	0.822
1219.33	0.707
1228.53	0.601
1237.72	0.791
1246.91	0.536
1256.1	0.598
1265.29	0.802
1274.49	0.797
1283.68	0.658
1292.87	0.767
1302.06	0.634
1311.25	0.518
1320.44	0.752
1329.64	0.681
1338.83	0.449
1348.02	0.639
1357.21	0.748
1366.4	0.706
1375.59	0.543
1384.79	0.714
1393.98	0.763
1403.17	0.734
1412.36	0.747
1421.55	0.757
1430.74	0.61
1439.94	0.624
1449.13	0.716
1458.32	0.782
1467.51	0.802
1476.7	0.747
1485.9	0.135
1495.09	0.29
1504.28	0.68
1513.47	0.764
1522.66	0.808
1531.85	0.84
1541.05	0.85
1550.24	0.856
1559.43	0.858
1568.62	0.855
1577.81	0.839
1587	0.858
1596.2	0.862
1605.39	0.861
1614.58	0.854
1623.77	0.852
1632.96	0.85
1642.16	0.848
1651.35	0.848
1660.54	0.849
1669.73	0.848
1678.92	0.84
1688.11	0.817
1697.31	0.797
1706.5	0.769
1715.69	0.659
1724.88	0.379
1734.07	0.191
1743.26	0.407
1752.46	0.676
1761.65	0.776
1770.84	0.823
1780.03	0.853
1789.22	0.861
1798.42	0.864
1807.61	0.868
1816.8	0.87
1825.99	0.872
1835.18	0.875
1844.37	0.878
1853.57	0.878
1862.76	0.879
1871.95	0.88
1881.14	0.881
1890.33	0.881
1899.52	0.881
1908.72	0.881
1917.91	0.881
1927.1	0.881
1936.29	0.881
1945.48	0.881
1954.67	0.88
1963.87	0.88
1973.06	0.879
1982.25	0.879
1991.44	0.879
2000.63	0.879
2009.83	0.878
2019.02	0.878
2028.21	0.877
2037.4	0.877
2046.59	0.877
2055.78	0.877
2064.98	0.877
2074.17	0.877
2083.36	0.876
2092.55	0.876
2101.74	0.875
2110.93	0.875
2120.13	0.875
2129.32	0.875
2138.51	0.875
2147.7	0.875
2156.89	0.875
2166.09	0.875
2175.28	0.874
2184.47	0.872
2193.66	0.872
2202.85	0.871
2212.04	0.871
2221.24	0.871
2230.43	0.871
2239.62	0.871
2248.81	0.871
2258	0.871
2267.19	0.871
2276.39	0.871
2285.58	0.87
2294.77	0.869
2303.96	0.869
2313.15	0.868
2322.35	0.867
2331.54	0.866
2340.73	0.866
2349.92	0.867
2359.11	0.867
2368.3	0.868
2377.5	0.868
2386.69	0.869
2395.88	0.869
2405.07	0.869
2414.26	0.869
2423.45	0.869
2432.65	0.869
2441.84	0.869
2451.03	0.869
2460.22	0.869
2469.41	0.869
2478.6	0.869
2487.8	0.868
2496.99	0.867
2506.18	0.866
2515.37	0.866
2524.56	0.866
2533.76	0.866
2542.95	0.866
2552.14	0.866
2561.33	0.866
2570.52	0.866
2579.71	0.866
2588.91	0.866
2598.1	0.866
2607.29	0.866
2616.48	0.866
2625.67	0.866
2634.86	0.866
2644.06	0.866
2653.25	0.865
2662.44	0.865
2671.63	0.864
2680.82	0.863
2690.02	0.863
2699.21	0.863
2708.4	0.863
2717.59	0.862
2726.78	0.862
2735.97	0.861
2745.17	0.86
2754.36	0.859
2763.55	0.859
2772.74	0.859
2781.93	0.859
2791.12	0.859
2800.32	0.858
2809.51	0.857
2818.7	0.855
2827.89	0.853
2837.08	0.85
2846.28	0.835
2855.47	0.802
2864.66	0.783
2873.85	0.803
2883.04	0.821
2892.23	0.82
2901.43	0.808
2910.62	0.804
2919.81	0.784
2929	0.769
2938.19	0.678
2947.38	0.643
2956.58	0.762
2965.77	0.752
2974.96	0.787
2984.15	0.813
2993.34	0.824
3002.53	0.85
3011.73	0.847
3020.92	0.84
3030.11	0.832
3039.3	0.821
3048.49	0.834
3057.69	0.849
3066.88	0.852
3076.07	0.853
3085.26	0.853
3094.45	0.853
3103.64	0.853
3112.84	0.853
3122.03	0.853
3131.22	0.851
3140.41	0.85
3149.6	0.849
3158.79	0.847
3167.99	0.847
3177.18	0.847
3186.37	0.846
3195.56	0.844
3204.75	0.843
3213.95	0.842
3223.14	0.84
3232.33	0.837
3241.52	0.835
3250.71	0.833
3259.9	0.831
3269.1	0.829
3278.29	0.828
3287.48	0.826
3296.67	0.824
3305.86	0.823
3315.05	0.822
3324.25	0.82
3333.44	0.818
3342.63	0.815
3351.82	0.814
3361.01	0.812
3370.21	0.808
3379.4	0.802
3388.59	0.799
3397.78	0.796
3406.97	0.794
3416.16	0.792
3425.36	0.792
3434.55	0.79
3443.74	0.785
3452.93	0.782
3462.12	0.786
3471.31	0.795
3480.51	0.797
3489.7	0.801
3498.89	0.804
3508.08	0.807
3517.27	0.81
3526.46	0.813
3535.66	0.815
3544.85	0.818
3554.04	0.819
3563.23	0.821
3572.42	0.824
3581.62	0.831
3590.81	0.834
3600	0.837
3609.19	0.84
3618.38	0.841
3627.57	0.843
3636.77	0.844
3645.96	0.846
3655.15	0.847
3664.34	0.847
3673.53	0.847
3682.72	0.847
3691.92	0.847
3701.11	0.847
3710.3	0.847
3719.49	0.848
3728.68	0.848
3737.88	0.848
3747.07	0.848
3756.26	0.847
3765.45	0.849
3774.64	0.85
3783.83	0.85
3793.03	0.849
3802.22	0.848
3811.41	0.847
3820.6	0.847
3829.79	0.847
3838.98	0.846
3848.18	0.844
3857.37	0.846
3866.56	0.847
3875.75	0.847
3884.94	0.847
3894.14	0.847
3903.33	0.846
3912.52	0.847
3921.71	0.847
3930.9	0.847
3940.09	0.848
3949.29	0.848
3958.48	0.848
3967.67	0.848
3976.86	0.847
3986.05	0.847
3995.24	0.846
4004.44	0.844
