Infrared Spectrum: Succinaldehydic acid, methyl ester
Formula: C5 H8 O3
CAS: 13865-19-5
State: LIQUID (NEAT)
Class: COBLENTZ III
Instrument: PERKIN-ELMER 21 (GRATING)
Instrument parameters: FILTER CHANGE ABOUT 1070 CM^-^1
Path length: 0.003 CM
Resolution: 2
Origin: SOUTHERN RESEARCH INSTITUTE
1/CM	TRANSMITTANCE
655.14	0.7957
663.161	0.802
671.182	0.8144
679.202	0.8212
687.223	0.8263
695.244	0.8356
703.265	0.8493
711.286	0.8525
719.307	0.8587
727.327	0.8571
735.348	0.8449
743.369	0.8256
751.39	0.8233
759.411	0.8343
767.431	0.849
775.452	0.8571
783.473	0.8535
791.494	0.8463
799.515	0.8601
807.535	0.86
815.556	0.8548
823.577	0.832
831.598	0.8003
839.619	0.7912
847.64	0.7862
855.66	0.7791
863.681	0.7551
871.702	0.6505
879.723	0.6131
887.744	0.6074
895.764	0.6779
903.785	0.6862
911.806	0.688
919.827	0.7015
927.848	0.6744
935.868	0.6659
943.889	0.6948
951.91	0.685
959.931	0.6633
967.952	0.6597
975.973	0.6122
983.993	0.5509
992.014	0.4988
1000.03	0.4888
1008.06	0.5096
1016.08	0.532
1024.1	0.5194
1032.12	0.4691
1040.14	0.4615
1048.16	0.47
1056.18	0.4422
1064.2	0.3673
1072.22	0.2274
1080.24	0.1009
1088.26	0.2325
1096.28	0.3016
1104.31	0.5501
1112.33	0.5304
1120.35	0.3909
1128.37	0.1559
1136.39	0.0714
1144.41	0.1234
1152.43	0.2002
1160.45	0.2423
1168.47	0.1958
1176.49	0.1006
1184.51	0.1027
1192.53	0.1501
1200.56	0.1259
1208.58	0.1156
1216.6	0.1282
1224.62	0.1539
1232.64	0.1968
1240.66	0.2017
1248.68	0.2075
1256.7	0.1998
1264.72	0.1931
1272.74	0.2118
1280.76	0.2577
1288.78	0.3358
1296.81	0.3749
1304.83	0.3736
1312.85	0.3694
1320.87	0.3937
1328.89	0.4595
1336.91	0.4748
1344.93	0.4228
1352.95	0.25
1360.97	0.2039
1368.99	0.1854
1377.01	0.2487
1385.03	0.461
1393.05	0.4794
1401.08	0.5011
1409.1	0.4961
1417.12	0.4718
1425.14	0.4078
1433.16	0.3721
1441.18	0.2044
1449.2	0.1497
1457.22	0.31
1465.24	0.4756
1473.26	0.6959
1481.28	0.7409
1489.3	0.7844
1497.33	0.8201
1505.35	0.8351
1513.37	0.8401
1521.39	0.8453
1529.41	0.8462
1537.43	0.8459
1545.45	0.8486
1553.47	0.8542
1561.49	0.8591
1569.51	0.8587
1577.53	0.8545
1585.55	0.8552
1593.58	0.8567
1601.6	0.8489
1609.62	0.8445
1617.64	0.837
1625.66	0.8315
1633.68	0.8297
1641.7	0.8263
1649.72	0.8004
1657.74	0.791
1665.76	0.752
1673.78	0.7171
1681.8	0.6168
1689.82	0.5729
1697.85	0.4238
1705.87	0.2325
1713.89	0.1127
1721.91	0.0532
1729.93	0.0338
1737.95	0.0415
1745.97	0.0626
1753.99	0.2321
1762.01	0.3922
1770.03	0.561
1778.05	0.6243
1786.07	0.6998
1794.1	0.7313
1802.12	0.759
1810.14	0.8076
1818.16	0.8262
1826.18	0.846
1834.2	0.8619
1842.22	0.8663
1850.24	0.8708
1858.26	0.8712
1866.28	0.8704
1874.3	0.8806
1882.32	0.878
1890.35	0.8831
1898.37	0.8812
1906.39	0.8812
1914.41	0.8846
1922.43	0.8844
1930.45	0.8829
1938.47	0.8789
1946.49	0.8742
1954.51	0.8724
1962.53	0.8721
1970.55	0.8728
1978.57	0.8758
1986.59	0.8767
1994.62	0.8726
2002.64	0.8714
2010.66	0.8735
2018.68	0.8738
2026.7	0.8733
2034.72	0.8741
2042.74	0.8747
2050.76	0.8731
2058.78	0.8741
2066.8	0.8739
2074.82	0.8715
2082.84	0.8731
2090.87	0.8779
2098.89	0.8829
2106.91	0.8869
2114.93	0.891
2122.95	0.8939
2130.97	0.8969
2138.99	0.8973
2147.01	0.8992
2155.03	0.8995
2163.05	0.8963
2171.07	0.9006
2179.09	0.902
2187.12	0.9011
2195.14	0.9062
2203.16	0.9018
2211.18	0.8995
2219.2	0.9018
2227.22	0.9036
2235.24	0.9046
2243.26	0.9045
2251.28	0.9034
2259.3	0.9022
2267.32	0.9009
2275.34	0.8995
2283.37	0.8981
2291.39	0.897
2299.41	0.8965
2307.43	0.8966
2315.45	0.8976
2323.47	0.8992
2331.49	0.9009
2339.51	0.9003
2347.53	0.8973
2355.55	0.8922
2363.57	0.8917
2371.59	0.8965
2379.61	0.9009
2387.64	0.9005
2395.66	0.8992
2403.68	0.8977
2411.7	0.8973
2419.72	0.8973
2427.74	0.896
2435.76	0.8948
2443.78	0.8951
2451.8	0.8966
2459.82	0.8973
2467.84	0.8981
2475.86	0.8971
2483.89	0.894
2491.91	0.8923
2499.93	0.8909
2507.95	0.892
2515.97	0.8998
2523.99	0.9001
2532.01	0.9021
2540.03	0.9019
2548.05	0.8924
2556.07	0.8907
2564.09	0.8908
2572.11	0.8877
2580.14	0.8826
2588.16	0.8802
2596.18	0.8779
2604.2	0.8743
2612.22	0.8767
2620.24	0.8752
2628.26	0.8726
2636.28	0.8754
2644.3	0.879
2652.32	0.8704
2660.34	0.869
2668.36	0.8504
2676.38	0.8438
2684.41	0.837
2692.43	0.8214
2700.45	0.7967
2708.47	0.7811
2716.49	0.7767
2724.51	0.7778
2732.53	0.7947
2740.55	0.8138
2748.57	0.8249
2756.59	0.8251
2764.61	0.8234
2772.63	0.8014
2780.66	0.776
2788.68	0.7597
2796.7	0.7132
2804.72	0.6913
2812.74	0.642
2820.76	0.6106
2828.78	0.6243
2836.8	0.6438
2844.82	0.6747
2852.84	0.6867
2860.86	0.696
2868.88	0.6796
2876.91	0.6762
2884.93	0.6612
2892.95	0.6528
2900.97	0.6382
2908.99	0.6167
2917.01	0.5793
2925.03	0.5211
2933.05	0.4525
2941.07	0.4864
2949.09	0.5757
2957.11	0.6184
2965.13	0.634
2973.16	0.6414
2981.18	0.6461
2989.2	0.6881
2997.22	0.7007
3005.24	0.7307
3013.26	0.7471
3021.28	0.7601
3029.3	0.7961
3037.32	0.8073
3045.34	0.8162
3053.36	0.8239
3061.38	0.8322
3069.4	0.8385
3077.43	0.8421
3085.45	0.8432
3093.47	0.8428
3101.49	0.837
3109.51	0.8514
3117.53	0.8532
3125.55	0.853
3133.57	0.851
3141.59	0.8491
3149.61	0.8475
3157.63	0.8466
3165.65	0.8477
3173.68	0.847
3181.7	0.8436
3189.72	0.8457
3197.74	0.8453
3205.76	0.8407
3213.78	0.8419
3221.8	0.8493
3229.82	0.845
3237.84	0.8345
3245.86	0.833
3253.88	0.8419
3261.9	0.8442
3269.93	0.8424
3277.95	0.8436
3285.97	0.8442
3293.99	0.8429
3302.01	0.8414
3310.03	0.8441
3318.05	0.8509
3326.07	0.8474
3334.09	0.8414
3342.11	0.8427
3350.13	0.845
3358.15	0.8477
3366.17	0.8476
3374.2	0.8498
3382.22	0.8436
3390.24	0.8402
3398.26	0.8377
3406.28	0.835
3414.3	0.8298
3422.32	0.8206
3430.34	0.818
3438.36	0.8177
3446.38	0.8266
3454.4	0.8377
3462.42	0.8414
3470.45	0.8456
3478.47	0.8524
3486.49	0.8522
3494.51	0.8548
3502.53	0.8631
3510.55	0.8696
3518.57	0.8702
3526.59	0.8701
3534.61	0.8722
3542.63	0.8762
3550.65	0.8755
3558.67	0.8796
3566.7	0.8843
3574.72	0.8883
3582.74	0.8898
3590.76	0.8899
3598.78	0.8897
3606.8	0.8892
3614.82	0.8884
3622.84	0.8878
3630.86	0.8878
3638.88	0.8953
3646.9	0.9006
3654.92	0.9005
3662.94	0.9052
3670.97	0.9129
3678.99	0.9193
3687.01	0.9205
3695.03	0.9204
3703.05	0.9209
3711.07	0.9276
3719.09	0.9299
3727.11	0.9242
3735.13	0.9201
3743.15	0.923
3751.17	0.9229
3759.19	0.9186
3767.22	0.9202
3775.24	0.9255
3783.26	0.928
3791.28	0.9283
3799.3	0.9292
3807.32	0.9283
