Infrared Spectrum: BIURET, 1-METHYL-1-NITROSO-
Formula: C3 H6 N4 O3
CAS: 13860-69-0
State: SOLID (0.7 mg / 500 mg KBr DISC)
Class: COBLENTZ III
Instrument: PERKIN-ELMER 221 (GRATING)
Instrument parameters: FILTER AT 980 CM ^-^1, GRATING FOR 4000-1428 CM^-^1, NaCl PRISM FOR 1428-650 CM^-^1
Sampling: TRANSMISSION
Resolution: 4
Origin: SOUTHERN RES. INSTITUTE
1/CM	TRANSMITTANCE
604.145	0.55
613.274	0.561
622.403	0.576
631.532	0.601
640.661	0.631
649.79	0.714
658.919	0.752
668.048	0.764
677.177	0.779
686.307	0.798
695.436	0.798
704.565	0.774
713.694	0.709
722.823	0.622
731.952	0.62
741.081	0.709
750.21	0.796
759.339	0.813
768.468	0.601
777.597	0.676
786.726	0.773
795.855	0.465
804.984	0.275
814.113	0.367
823.242	0.723
832.372	0.809
841.501	0.863
850.63	0.86
859.759	0.84
868.888	0.806
878.017	0.526
887.146	0.65
896.275	0.838
905.404	0.851
914.533	0.823
923.662	0.787
932.791	0.736
941.92	0.688
951.049	0.551
960.178	0.44
969.307	0.56
978.436	0.443
987.566	0.133
996.695	0.033
1005.82	0.421
1014.95	0.584
1024.08	0.796
1033.21	0.856
1042.34	0.892
1051.47	0.887
1060.6	0.868
1069.73	0.833
1078.86	0.795
1087.99	0.731
1097.11	0.636
1106.24	0.484
1115.37	0.216
1124.5	0.184
1133.63	0.447
1142.76	0.709
1151.89	0.792
1161.02	0.795
1170.15	0.769
1179.28	0.751
1188.4	0.744
1197.53	0.731
1206.66	0.656
1215.79	0.567
1224.92	0.405
1234.05	0.462
1243.18	0.663
1252.31	0.747
1261.44	0.752
1270.57	0.73
1279.7	0.706
1288.82	0.686
1297.95	0.663
1307.08	0.593
1316.21	0.495
1325.34	0.573
1334.47	0.657
1343.6	0.595
1352.73	0.494
1361.86	0.422
1370.99	0.332
1380.12	0.32
1389.24	0.361
1398.37	0.441
1407.5	0.509
1416.63	0.564
1425.76	0.566
1434.89	0.548
1444.02	0.402
1453.15	0.339
1462.28	0.434
1471.41	0.312
1480.53	0.112
1489.66	0.107
1498.79	0.2
1507.92	0.286
1517.05	0.38
1526.18	0.476
1535.31	0.568
1544.44	0.65
1553.57	0.65
1562.7	0.608
1571.83	0.579
1580.95	0.523
1590.08	0.431
1599.21	0.335
1608.34	0.27
1617.47	0.386
1626.6	0.564
1635.73	0.643
1644.86	0.666
1653.99	0.655
1663.12	0.595
1672.25	0.53
1681.37	0.449
1690.5	0.351
1699.63	0.158
1708.76	0.063
1717.89	0.061
1727.02	0.073
1736.15	0.118
1745.28	0.206
1754.41	0.305
1763.54	0.423
1772.66	0.504
1781.79	0.561
1790.92	0.607
1800.05	0.647
1809.18	0.695
1818.31	0.72
1827.44	0.742
1836.57	0.752
1845.7	0.774
1854.83	0.793
1863.96	0.809
1873.08	0.815
1882.21	0.824
1891.34	0.838
1900.47	0.844
1909.6	0.845
1918.73	0.845
1927.86	0.856
1936.99	0.873
1946.12	0.88
1955.25	0.892
1964.38	0.895
1973.5	0.898
1982.63	0.9
1991.76	0.903
2000.89	0.906
2010.02	0.908
2019.15	0.909
2028.28	0.91
2037.41	0.91
2046.54	0.91
2055.67	0.908
2064.79	0.907
2073.92	0.907
2083.05	0.909
2092.18	0.911
2101.31	0.912
2110.44	0.913
2119.57	0.914
2128.7	0.914
2137.83	0.914
2146.96	0.914
2156.09	0.914
2165.21	0.914
2174.34	0.914
2183.47	0.914
2192.6	0.913
2201.73	0.913
2210.86	0.913
2219.99	0.914
2229.12	0.914
2238.25	0.914
2247.38	0.913
2256.5	0.912
2265.63	0.904
2274.76	0.9
2283.89	0.897
2293.02	0.895
2302.15	0.893
2311.28	0.893
2320.41	0.892
2329.54	0.892
2338.67	0.892
2347.8	0.892
2356.92	0.892
2366.05	0.893
2375.18	0.894
2384.31	0.894
2393.44	0.893
2402.57	0.892
2411.7	0.891
2420.83	0.889
2429.96	0.888
2439.09	0.885
2448.22	0.885
2457.34	0.884
2466.47	0.883
2475.6	0.882
2484.73	0.881
2493.86	0.879
2502.99	0.879
2512.12	0.877
2521.25	0.876
2530.38	0.876
2539.51	0.876
2548.63	0.875
2557.76	0.873
2566.89	0.873
2576.02	0.873
2585.15	0.873
2594.28	0.873
2603.41	0.871
2612.54	0.87
2621.67	0.869
2630.8	0.87
2639.93	0.868
2649.05	0.865
2658.18	0.863
2667.31	0.86
2676.44	0.857
2685.57	0.853
2694.7	0.853
2703.83	0.852
2712.96	0.852
2722.09	0.852
2731.22	0.851
2740.35	0.849
2749.47	0.844
2758.6	0.839
2767.73	0.834
2776.86	0.83
2785.99	0.821
2795.12	0.814
2804.25	0.81
2813.38	0.808
2822.51	0.806
2831.64	0.806
2840.76	0.805
2849.89	0.804
2859.02	0.804
2868.15	0.803
2877.28	0.803
2886.41	0.801
2895.54	0.8
2904.67	0.794
2913.8	0.782
2922.93	0.769
2932.06	0.762
2941.18	0.76
2950.31	0.758
2959.44	0.756
2968.57	0.755
2977.7	0.754
2986.83	0.753
2995.96	0.752
3005.09	0.749
3014.22	0.746
3023.35	0.744
3032.48	0.742
3041.6	0.736
3050.73	0.722
3059.86	0.711
3068.99	0.705
3078.12	0.696
3087.25	0.685
3096.38	0.676
3105.51	0.658
3114.64	0.647
3123.77	0.631
3132.89	0.604
3142.02	0.577
3151.15	0.552
3160.28	0.53
3169.41	0.511
3178.54	0.496
3187.67	0.487
3196.8	0.482
3205.93	0.469
3215.06	0.439
3224.19	0.401
3233.31	0.343
3242.44	0.339
3251.57	0.341
3260.7	0.364
3269.83	0.383
3278.96	0.382
3288.09	0.345
3297.22	0.298
3306.35	0.27
3315.48	0.299
3324.61	0.385
3333.73	0.452
3342.86	0.495
3351.99	0.514
3361.12	0.515
3370.25	0.539
3379.38	0.539
3388.51	0.526
3397.64	0.495
3406.77	0.388
3415.9	0.346
3425.02	0.268
3434.15	0.215
3443.28	0.316
3452.41	0.442
3461.54	0.519
3470.67	0.601
3479.8	0.643
3488.93	0.667
3498.06	0.692
3507.19	0.714
3516.32	0.723
3525.44	0.736
3534.57	0.739
3543.7	0.758
3552.83	0.771
3561.96	0.779
3571.09	0.783
3580.22	0.789
3589.35	0.794
3598.48	0.796
3607.61	0.803
3616.73	0.806
3625.86	0.809
3634.99	0.811
3644.12	0.812
3653.25	0.811
3662.38	0.809
3671.51	0.809
3680.64	0.808
3689.77	0.807
3698.9	0.808
3708.03	0.806
3717.15	0.803
3726.28	0.802
3735.41	0.8
3744.54	0.8
3753.67	0.799
3762.8	0.798
3771.93	0.798
3781.06	0.798
3790.19	0.797
3799.32	0.796
3808.45	0.796
3817.57	0.796
3826.7	0.796
3835.83	0.795
3844.96	0.795
3854.09	0.794
3863.22	0.793
3872.35	0.793
3881.48	0.792
3890.61	0.792
3899.74	0.792
3908.86	0.792
3917.99	0.791
3927.12	0.791
3936.25	0.79
3945.38	0.79
3954.51	0.79
3963.64	0.789
3972.77	0.787
3981.9	0.787
3991.03	0.786
4000.16	0.787
