Infrared Spectrum: 1H-Pyrazolo[4,3-d]pyrimidine, 7-amino-
Formula: C5 H5 N5
CAS: 13877-56-0
State: SOLID (1 mg / 650 mg KBr DISC)
Class: COBLENTZ III
Instrument: PERKIN-ELMER 21 (GRATING)
Instrument parameters: FILTER CHANGE ABOUT 1075 CM^-^1
Sampling: TRANSMISSION
Resolution: 2
Origin: SOUTHERN RESEARCH INSTITUTE
1/CM	TRANSMITTANCE
631.35	0.6963
639.404	0.6893
647.459	0.6839
655.513	0.6779
663.568	0.6697
671.622	0.6593
679.677	0.6426
687.731	0.6172
695.786	0.5638
703.84	0.4989
711.895	0.4064
719.949	0.6281
728.003	0.6096
736.058	0.5832
744.112	0.5615
752.167	0.542
760.221	0.5359
768.276	0.536
776.33	0.5355
784.385	0.4817
792.439	0.5804
800.494	0.6313
808.548	0.6585
816.602	0.6693
824.657	0.667
832.711	0.6538
840.766	0.6325
848.82	0.5794
856.875	0.4133
864.929	0.4813
872.984	0.5861
881.038	0.5769
889.093	0.5547
897.147	0.5323
905.201	0.4106
913.256	0.2912
921.31	0.683
929.365	0.6615
937.419	0.5996
945.474	0.3514
953.528	0.143
961.583	0.412
969.637	0.5654
977.692	0.7269
985.746	0.7624
993.8	0.7601
1001.85	0.7515
1009.91	0.7414
1017.96	0.7313
1026.02	0.7215
1034.07	0.7115
1042.13	0.7045
1050.18	0.7016
1058.24	0.6661
1066.29	0.6319
1074.35	0.6004
1082.4	0.6663
1090.45	0.6957
1098.51	0.6939
1106.56	0.687
1114.62	0.6763
1122.67	0.666
1130.73	0.6535
1138.78	0.6366
1146.84	0.6313
1154.89	0.6448
1162.94	0.6427
1171	0.6357
1179.05	0.627
1187.11	0.6228
1195.16	0.6244
1203.22	0.6279
1211.27	0.626
1219.33	0.6109
1227.38	0.5849
1235.43	0.5551
1243.49	0.5195
1251.54	0.4781
1259.6	0.4551
1267.65	0.5506
1275.71	0.556
1283.76	0.5341
1291.82	0.4994
1299.87	0.4354
1307.92	0.4019
1315.98	0.4194
1324.03	0.4392
1332.09	0.3177
1340.14	0.2116
1348.2	0.2086
1356.25	0.5489
1364.31	0.5439
1372.36	0.5205
1380.41	0.4856
1388.47	0.3809
1396.52	0.2916
1404.58	0.3866
1412.63	0.4455
1420.69	0.4179
1428.74	0.5036
1436.8	0.4851
1444.85	0.4526
1452.9	0.3867
1460.96	0.258
1469.01	0.2058
1477.07	0.1899
1485.12	0.2802
1493.18	0.3694
1501.23	0.4136
1509.29	0.3249
1517.34	0.2734
1525.39	0.506
1533.45	0.6095
1541.5	0.5461
1549.56	0.4675
1557.61	0.2595
1565.67	0.194
1573.72	0.3958
1581.78	0.5491
1589.83	0.4975
1597.88	0.3776
1605.94	0.242
1613.99	0.2117
1622.05	0.3433
1630.1	0.3881
1638.16	0.3724
1646.21	0.3289
1654.27	0.1652
1662.32	0.1506
1670.37	0.1719
1678.43	0.2631
1686.48	0.494
1694.54	0.5861
1702.59	0.7327
1710.65	0.7828
1718.7	0.8334
1726.76	0.8631
1734.81	0.8759
1742.86	0.8776
1750.92	0.8748
1758.97	0.8706
1767.03	0.8802
1775.08	0.8948
1783.14	0.8961
1791.19	0.8957
1799.25	0.8938
1807.3	0.8898
1815.35	0.8857
1823.41	0.8823
1831.46	0.8789
1839.52	0.871
1847.57	0.8649
1855.63	0.8606
1863.68	0.8563
1871.74	0.8516
1879.79	0.8468
1887.84	0.8414
1895.9	0.835
1903.95	0.8252
1912.01	0.8111
1920.06	0.8111
1928.12	0.8188
1936.17	0.8222
1944.23	0.8218
1952.28	0.8197
1960.34	0.8168
1968.39	0.8138
1976.44	0.8109
1984.5	0.8082
1992.55	0.8048
2000.61	0.8016
2008.66	0.7985
2016.72	0.7955
2024.77	0.7932
2032.83	0.7913
2040.88	0.7894
2048.93	0.7874
2056.99	0.7852
2065.04	0.7831
2073.1	0.7806
2081.15	0.7781
2089.21	0.7762
2097.26	0.7744
2105.32	0.7727
2113.37	0.7698
2121.42	0.7664
2129.48	0.763
2137.53	0.7592
2145.59	0.755
2153.64	0.7506
2161.7	0.7459
2169.75	0.7412
2177.81	0.7366
2185.86	0.7328
2193.91	0.7301
2201.97	0.7285
2210.02	0.7275
2218.08	0.7259
2226.13	0.7234
2234.19	0.7193
2242.24	0.7147
2250.3	0.7092
2258.35	0.7022
2266.4	0.6952
2274.46	0.6881
2282.51	0.6811
2290.57	0.6752
2298.62	0.6694
2306.68	0.6631
2314.73	0.6608
2322.79	0.6589
2330.84	0.6582
2338.89	0.6574
2346.95	0.6566
2355	0.6554
2363.06	0.6537
2371.11	0.652
2379.17	0.6503
2387.22	0.6485
2395.28	0.6465
2403.33	0.6443
2411.38	0.6412
2419.44	0.6371
2427.49	0.6324
2435.55	0.6269
2443.6	0.6208
2451.66	0.6153
2459.71	0.6097
2467.77	0.6043
2475.82	0.5986
2483.87	0.5906
2491.93	0.5838
2499.98	0.5771
2508.04	0.57
2516.09	0.5627
2524.15	0.555
2532.2	0.5472
2540.26	0.5394
2548.31	0.5317
2556.36	0.5241
2564.42	0.5166
2572.47	0.5077
2580.53	0.4987
2588.58	0.4903
2596.64	0.4819
2604.69	0.4732
2612.75	0.4644
2620.8	0.4554
2628.85	0.446
2636.91	0.4342
2644.96	0.424
2653.02	0.4142
2661.07	0.4027
2669.13	0.3978
2677.18	0.3962
2685.24	0.3952
2693.29	0.3944
2701.34	0.3941
2709.4	0.3934
2717.45	0.3907
2725.51	0.3835
2733.56	0.3747
2741.62	0.364
2749.67	0.353
2757.73	0.3429
2765.78	0.3344
2773.83	0.3262
2781.89	0.3191
2789.94	0.3133
2798	0.3089
2806.05	0.3059
2814.11	0.3013
2822.16	0.2925
2830.22	0.2859
2838.27	0.2808
2846.33	0.2758
2854.38	0.2701
2862.43	0.2648
2870.49	0.2595
2878.54	0.254
2886.6	0.2481
2894.65	0.2415
2902.71	0.2376
2910.76	0.2368
2918.82	0.2367
2926.87	0.2364
2934.92	0.2335
2942.98	0.2294
2951.03	0.2259
2959.09	0.2208
2967.14	0.2141
2975.2	0.2071
2983.25	0.1994
2991.31	0.1913
2999.36	0.1831
3007.41	0.1751
3015.47	0.1675
3023.52	0.1609
3031.58	0.1569
3039.63	0.1531
3047.69	0.15
3055.74	0.1482
3063.8	0.1493
3071.85	0.1517
3079.9	0.1557
3087.96	0.1609
3096.01	0.17
3104.07	0.1832
3112.12	0.2012
3120.18	0.2223
3128.23	0.2418
3136.29	0.2563
3144.34	0.2701
3152.39	0.2787
3160.45	0.2842
3168.5	0.2936
3176.56	0.3041
3184.61	0.3144
3192.67	0.3199
3200.72	0.327
3208.78	0.3313
3216.83	0.3338
3224.88	0.3343
3232.94	0.3307
3240.99	0.3245
3249.05	0.3171
3257.1	0.3094
3265.16	0.3027
3273.21	0.2958
3281.27	0.2891
3289.32	0.2844
3297.37	0.2817
3305.43	0.2828
3313.48	0.2882
3321.54	0.2908
3329.59	0.2916
3337.65	0.2915
3345.7	0.2908
3353.76	0.2906
3361.81	0.2908
3369.86	0.2929
3377.92	0.3165
3385.97	0.341
3394.03	0.3666
3402.08	0.3931
3410.14	0.4219
3418.19	0.4545
3426.25	0.5011
3434.3	0.5486
3442.35	0.5909
3450.41	0.6399
3458.46	0.6644
3466.52	0.6792
3474.57	0.6997
3482.63	0.7131
3490.68	0.7246
3498.74	0.7344
3506.79	0.7426
3514.84	0.7512
3522.9	0.7587
3530.95	0.7656
3539.01	0.7718
3547.06	0.7775
3555.12	0.7831
3563.17	0.7885
3571.23	0.7958
3579.28	0.8039
3587.33	0.8119
3595.39	0.8192
3603.44	0.8256
3611.5	0.8313
3619.55	0.8364
3627.61	0.8399
3635.66	0.8422
3643.72	0.8425
3651.77	0.8425
3659.82	0.8425
3667.88	0.8424
3675.93	0.8426
3683.99	0.8425
3692.04	0.8418
3700.1	0.8398
3708.15	0.8375
3716.21	0.8359
3724.26	0.8341
3732.32	0.832
3740.37	0.8298
3748.42	0.8276
3756.48	0.825
3764.53	0.8222
3772.59	0.8192
3780.64	0.8157
3788.7	0.8116
3796.75	0.8086
3804.81	0.8054
3812.86	0.8021
