Infrared Spectrum: 3-(DIMETHYLAMINOMETHYL)-4-HYDROXY ACETANILIDE
Formula: C11 H16 N2 O2
CAS: 13886-04-9
State: SOLID (MINERAL OIL MULL)
Class: COBLENTZ
Instrument: Not specified, most likely a prism, grating, or hybrid spectrometer.
Sampling: TRANSMISSION
Resolution: 4
Origin: DOW CHEMICAL COMPANY
MICROMETERS	TRANSMITTANCE
2.027	0.615
2.06774	0.617
2.10848	0.622
2.14922	0.63
2.18995	0.639
2.23069	0.635
2.27143	0.618
2.31217	0.613
2.35291	0.622
2.39365	0.629
2.43438	0.647
2.47512	0.661
2.51586	0.671
2.5566	0.677
2.59734	0.677
2.63808	0.679
2.67881	0.689
2.71955	0.688
2.76029	0.691
2.80103	0.688
2.84177	0.689
2.88251	0.688
2.92325	0.681
2.96398	0.652
3.00472	0.527
3.04546	0.381
3.0862	0.377
3.12694	0.419
3.16768	0.419
3.20841	0.386
3.24915	0.397
3.28989	0.453
3.33063	0.367
3.37137	0.045
3.41211	0.02
3.45284	0.042
3.49358	0.079
3.53432	0.322
3.57506	0.431
3.6158	0.497
3.65654	0.548
3.69728	0.563
3.73801	0.58
3.77875	0.588
3.81949	0.602
3.86023	0.632
3.90097	0.661
3.94171	0.674
3.98244	0.689
4.02318	0.701
4.06392	0.706
4.10466	0.711
4.1454	0.728
4.18614	0.741
4.22687	0.728
4.26761	0.726
4.30835	0.74
4.34909	0.747
4.38983	0.748
4.43057	0.753
4.4713	0.758
4.51204	0.758
4.55278	0.76
4.59352	0.76
4.63426	0.767
4.675	0.768
4.71574	0.77
4.75647	0.772
4.79721	0.77
4.83795	0.774
4.87869	0.775
4.91943	0.777
4.96017	0.779
5.0009	0.789
5.04164	0.787
5.08238	0.787
5.12312	0.79
5.16386	0.79
5.2046	0.78
5.24533	0.789
5.28607	0.784
5.32681	0.789
5.36755	0.795
5.40829	0.789
5.44903	0.792
5.48977	0.797
5.5305	0.789
5.57124	0.775
5.61198	0.78
5.65272	0.775
5.69346	0.78
5.7342	0.767
5.77493	0.768
5.81567	0.768
5.85641	0.748
5.89715	0.704
5.93789	0.569
5.97863	0.34
6.01936	0.143
6.0601	0.374
6.10084	0.512
6.14158	0.551
6.18232	0.514
6.22306	0.532
6.2638	0.497
6.30453	0.357
6.34527	0.22
6.38601	0.261
6.42675	0.379
6.46749	0.419
6.50823	0.451
6.54896	0.453
6.5897	0.408
6.63044	0.241
6.67118	0.133
6.71192	0.318
6.75266	0.227
6.79339	0.101
6.83413	0.151
6.87487	0.241
6.91561	0.332
6.95635	0.384
6.99709	0.369
7.03783	0.448
7.07856	0.458
7.1193	0.451
7.16004	0.418
7.20078	0.29
7.24152	0.224
7.28226	0.311
7.32299	0.409
7.36373	0.532
7.40447	0.566
7.44521	0.551
7.48595	0.48
7.52669	0.526
7.56742	0.598
7.60816	0.61
7.6489	0.578
7.68964	0.489
7.73038	0.478
7.77112	0.549
7.81186	0.453
7.85259	0.317
7.89333	0.136
7.93407	0.195
7.97481	0.36
8.01555	0.529
8.05629	0.586
8.09702	0.618
8.13776	0.647
8.1785	0.6
8.21924	0.595
8.25998	0.64
8.30072	0.691
8.34145	0.693
8.38219	0.639
8.42293	0.559
8.46367	0.629
8.50441	0.709
8.54515	0.681
8.58589	0.691
8.62662	0.647
8.66736	0.61
8.7081	0.686
8.74884	0.725
8.78958	0.735
8.83032	0.736
8.87105	0.694
8.91179	0.62
8.95253	0.679
8.99327	0.73
9.03401	0.715
9.07475	0.699
9.11548	0.731
9.15622	0.753
9.19696	0.755
9.2377	0.753
9.27844	0.748
9.31918	0.748
9.35991	0.743
9.40065	0.741
9.44139	0.735
9.48213	0.72
9.52287	0.669
9.56361	0.588
9.60435	0.581
9.64508	0.625
9.68582	0.591
9.72656	0.516
9.7673	0.504
9.80804	0.537
9.84878	0.61
9.88951	0.671
9.93025	0.699
9.97099	0.699
10.0117	0.647
10.0525	0.569
10.0932	0.59
10.1339	0.682
10.1747	0.715
10.2154	0.713
10.2562	0.696
10.2969	0.701
10.3376	0.723
10.3784	0.74
10.4191	0.741
10.4599	0.748
10.5006	0.755
10.5413	0.753
10.5821	0.753
10.6228	0.75
10.6635	0.75
10.7043	0.75
10.745	0.748
10.7858	0.747
10.8265	0.743
10.8672	0.738
10.908	0.731
10.9487	0.721
10.9895	0.701
11.0302	0.652
11.0709	0.58
11.1117	0.568
11.1524	0.603
11.1931	0.655
11.2339	0.681
11.2746	0.698
11.3154	0.704
11.3561	0.708
11.3968	0.706
11.4376	0.703
11.4783	0.699
11.5191	0.696
11.5598	0.686
11.6005	0.669
11.6413	0.649
11.682	0.608
11.7227	0.568
11.7635	0.514
11.8042	0.468
11.845	0.448
11.8857	0.428
11.9264	0.418
11.9672	0.456
12.0079	0.49
12.0487	0.47
12.0894	0.409
12.1301	0.382
12.1709	0.438
12.2116	0.526
12.2523	0.556
12.2931	0.566
12.3338	0.564
12.3746	0.549
12.4153	0.537
12.456	0.529
12.4968	0.529
12.5375	0.531
12.5782	0.531
12.619	0.522
12.6597	0.507
12.7005	0.497
12.7412	0.475
12.7819	0.458
12.8227	0.441
12.8634	0.433
12.9042	0.428
12.9449	0.426
12.9856	0.431
13.0264	0.453
13.0671	0.475
13.1078	0.499
13.1486	0.517
13.1893	0.531
13.2301	0.541
13.2708	0.551
13.3115	0.559
13.3523	0.566
13.393	0.571
13.4338	0.573
13.4745	0.575
13.5152	0.575
13.556	0.576
13.5967	0.578
13.6374	0.576
13.6782	0.576
13.7189	0.573
13.7597	0.568
13.8004	0.559
13.8411	0.556
13.8819	0.566
13.9226	0.578
13.9634	0.59
14.0041	0.598
14.0448	0.603
14.0856	0.607
14.1263	0.61
14.167	0.612
14.2078	0.612
14.2485	0.61
14.2893	0.608
14.33	0.608
14.3707	0.605
14.4115	0.6
14.4522	0.598
14.493	0.593
14.5337	0.59
14.5744	0.586
14.6152	0.581
14.6559	0.578
14.6966	0.575
14.7374	0.568
14.7781	0.563
14.8189	0.556
14.8596	0.548
14.9003	0.536
14.9411	0.536
14.9818	0.537
15.0226	0.526
15.0633	0.512
15.104	0.5
15.1448	0.494
15.1855	0.483
15.2262	0.473
15.267	0.467
15.3077	0.46
15.3485	0.455
15.3892	0.45
15.4299	0.446
15.4707	0.438
15.5114	0.428
15.5522	0.418
15.5929	0.406
15.6336	0.401
15.6744	0.397
15.7151	0.396
15.7558	0.394
15.7966	0.389
15.8373	0.386
15.8781	0.386
15.9188	0.396
