Infrared Spectrum: THIOSULFURIC ACID,S-(2-AMINO-2-METHYLPENTYL)ESTER
Formula: C6 H15 N O3 S2
CAS: 13893-04-4
State: SOLID (1 mg / 650 mg KBr DISC)
Class: COBLENTZ III
Instrument: PERKIN-ELMER 221 (GRATING)
Instrument parameters: FILTER AT 980 CM^-^1. GRATING 4000-1428 CM^-^1, NaCl PRISM 1428-650 CM^-^1
Sampling: TRANSMISSION
Resolution: 2
Origin: SOUTHERN RESEARCH INSTITUTE
1/CM	TRANSMITTANCE
649.96	0.6284
659.008	0.7599
668.057	0.8152
677.105	0.8548
686.154	0.8847
695.202	0.9036
704.25	0.8854
713.299	0.7418
722.347	0.9052
731.396	0.9067
740.444	0.9146
749.493	0.9457
758.541	0.9478
767.589	0.8955
776.638	0.8341
785.686	0.9827
794.735	0.9883
803.783	0.9812
812.831	0.9702
821.88	0.9454
830.928	0.9443
839.977	0.9716
849.025	0.9629
858.073	0.9452
867.122	0.934
876.17	0.9291
885.219	0.8898
894.267	0.8023
903.315	0.9002
912.364	0.894
921.412	0.8766
930.461	0.8215
939.509	0.7686
948.558	0.7119
957.606	0.8093
966.654	0.779
975.703	0.7077
984.751	0.5558
993.8	0.5393
1002.85	0.359
1011.9	0.1199
1020.94	0.0595
1029.99	0.2944
1039.04	0.6979
1048.09	0.8109
1057.14	0.8279
1066.19	0.7831
1075.24	0.6592
1084.28	0.8126
1093.33	0.8005
1102.38	0.7889
1111.43	0.7498
1120.48	0.6206
1129.53	0.5138
1138.57	0.5855
1147.62	0.4713
1156.67	0.3217
1165.72	0.2099
1174.77	0.0672
1183.82	0.0626
1192.86	0.0876
1201.91	0.0803
1210.96	0.0839
1220.01	0.1891
1229.06	0.2285
1238.11	0.0849
1247.16	0.1343
1256.2	0.3041
1265.25	0.4271
1274.3	0.5542
1283.35	0.6071
1292.4	0.5806
1301.45	0.5392
1310.49	0.6415
1319.54	0.7375
1328.59	0.7503
1337.64	0.8021
1346.69	0.8358
1355.74	0.8437
1364.78	0.7611
1373.83	0.6947
1382.88	0.6469
1391.93	0.522
1400.98	0.8027
1410.03	0.7297
1419.07	0.7547
1428.12	0.8144
1437.17	0.7402
1446.22	0.7464
1455.27	0.629
1464.32	0.5756
1473.37	0.7853
1482.41	0.8357
1491.46	0.8251
1500.51	0.7762
1509.56	0.7023
1518.61	0.5455
1527.66	0.3545
1536.7	0.2696
1545.75	0.5112
1554.8	0.743
1563.85	0.7541
1572.9	0.7203
1581.95	0.6135
1590.99	0.5017
1600.04	0.5031
1609.09	0.5039
1618.14	0.3282
1627.19	0.2728
1636.24	0.5911
1645.29	0.7124
1654.33	0.7757
1663.38	0.8129
1672.43	0.8384
1681.48	0.8541
1690.53	0.868
1699.58	0.88
1708.62	0.8947
1717.67	0.9081
1726.72	0.9202
1735.77	0.9313
1744.82	0.9411
1753.87	0.9478
1762.91	0.9544
1771.96	0.9611
1781.01	0.9669
1790.06	0.972
1799.11	0.9763
1808.16	0.9793
1817.2	0.9821
1826.25	0.9845
1835.3	0.9854
1844.35	0.9859
1853.4	0.9855
1862.45	0.9825
1871.5	0.9757
1880.54	0.969
1889.59	0.9606
1898.64	0.9523
1907.69	0.944
1916.74	0.9332
1925.79	0.9191
1934.83	0.9058
1943.88	0.8886
1952.93	0.873
1961.98	0.8643
1971.03	0.866
1980.08	0.8748
1989.12	0.8868
1998.17	0.8952
2007.22	0.9031
2016.27	0.914
2025.32	0.9151
2034.37	0.9165
2043.42	0.9277
2052.46	0.9434
2061.51	0.9523
2070.56	0.957
2079.61	0.9605
2088.66	0.9625
2097.71	0.9645
2106.75	0.9666
2115.8	0.9688
2124.85	0.9704
2133.9	0.9718
2142.95	0.9719
2152	0.9719
2161.04	0.9795
2170.09	0.9835
2179.14	0.9785
2188.19	0.9675
2197.24	0.9568
2206.29	0.9615
2215.33	0.9699
2224.38	0.97
2233.43	0.9654
2242.48	0.9556
2251.53	0.9568
2260.58	0.9806
2269.63	0.9919
2278.67	0.9971
2287.72	0.9997
2296.77	0.9992
2305.82	0.9961
2314.87	0.9898
2323.92	0.984
2332.96	0.9813
2342.01	0.9804
2351.06	0.9804
2360.11	0.9803
2369.16	0.98
2378.21	0.9791
2387.25	0.9762
2396.3	0.9706
2405.35	0.9604
2414.4	0.9497
2423.45	0.9479
2432.5	0.9498
2441.55	0.9518
2450.59	0.9506
2459.64	0.9377
2468.69	0.9197
2477.74	0.8886
2486.79	0.9029
2495.84	0.9048
2504.88	0.8888
2513.93	0.8391
2522.98	0.8299
2532.03	0.8464
2541.08	0.8506
2550.13	0.8366
2559.17	0.7813
2568.22	0.7253
2577.27	0.7416
2586.32	0.7689
2595.37	0.7671
2604.42	0.7663
2613.46	0.7952
2622.51	0.8147
2631.56	0.8161
2640.61	0.8107
2649.66	0.8022
2658.71	0.793
2667.76	0.789
2676.8	0.7918
2685.85	0.7885
2694.9	0.7826
2703.95	0.7832
2713	0.7844
2722.05	0.7787
2731.09	0.7515
2740.14	0.7499
2749.19	0.7514
2758.24	0.7498
2767.29	0.7444
2776.34	0.7157
2785.38	0.6886
2794.43	0.6579
2803.48	0.6194
2812.53	0.594
2821.58	0.5548
2830.63	0.5383
2839.68	0.536
2848.72	0.5099
2857.77	0.4738
2866.82	0.3979
2875.87	0.3587
2884.92	0.3997
2893.97	0.3861
2903.01	0.3551
2912.06	0.3149
2921.11	0.2535
2930.16	0.2317
2939.21	0.2331
2948.26	0.2242
2957.3	0.1637
2966.35	0.158
2975.4	0.1802
2984.45	0.1945
2993.5	0.2117
3002.55	0.2286
3011.59	0.2203
3020.64	0.2064
3029.69	0.1798
3038.74	0.1485
3047.79	0.139
3056.84	0.1304
3065.89	0.1309
3074.93	0.136
3083.98	0.1439
3093.03	0.154
3102.08	0.166
3111.13	0.1723
3120.18	0.1752
3129.22	0.1881
3138.27	0.2096
3147.32	0.2371
3156.37	0.244
3165.42	0.3022
3174.47	0.3582
3183.51	0.3911
3192.56	0.4165
3201.61	0.44
3210.66	0.4616
3219.71	0.4887
3228.76	0.5018
3237.81	0.542
3246.85	0.5763
3255.9	0.6184
3264.95	0.6503
3274	0.6731
3283.05	0.6993
3292.1	0.7145
3301.14	0.7269
3310.19	0.7352
3319.24	0.7416
3328.29	0.7479
3337.34	0.7515
3346.39	0.7521
3355.43	0.7521
3364.48	0.7504
3373.53	0.7475
3382.58	0.7442
3391.63	0.7413
3400.68	0.7404
3409.73	0.7402
3418.77	0.7398
3427.82	0.7402
3436.87	0.7412
3445.92	0.7423
3454.97	0.7437
3464.02	0.7452
3473.06	0.7498
3482.11	0.7544
3491.16	0.7602
3500.21	0.7671
3509.26	0.774
3518.31	0.7824
3527.35	0.7908
3536.4	0.7992
3545.45	0.8091
3554.5	0.8189
3563.55	0.8287
3572.6	0.8374
3581.64	0.8462
3590.69	0.8551
3599.74	0.8643
3608.79	0.8735
3617.84	0.8826
3626.89	0.8914
3635.94	0.9001
3644.98	0.9078
3654.03	0.9112
3663.08	0.9131
3672.13	0.9138
3681.18	0.9138
3690.23	0.9156
3699.27	0.9198
3708.32	0.9276
3717.37	0.9334
3726.42	0.9345
3735.47	0.935
3744.52	0.9349
3753.56	0.9348
3762.61	0.9351
3771.66	0.9354
3780.71	0.9357
3789.76	0.9357
3798.81	0.9357
3807.86	0.9358
3816.9	0.9359
3825.95	0.9361
3835	0.9362
3844.05	0.9365
3853.1	0.938
3862.15	0.9395
3871.19	0.9409
3880.24	0.9422
3889.29	0.9424
3898.34	0.9426
3907.39	0.9428
3916.44	0.943
3925.48	0.9427
3934.53	0.9421
3943.58	0.9415
3952.63	0.9409
3961.68	0.9401
3970.73	0.9393
3979.77	0.9386
3988.82	0.9386
3997.87	0.939
4006.92	0.9407
4015.97	0.9404
