Infrared Spectrum: THIOSULFURIC ACID, S-(2-AMINO-2,3-DIMETHYLBUTYL) ESTER
Formula: C6 H15 N O3 S2
CAS: 13893-05-5
State: SOLID (0.7 mg / 500 mg KBr DISC)
Class: COBLENTZ III
Instrument: PERKIN-ELMER 221 (GRATING)
Instrument parameters: FILTER AT 980 CM^-^1. GRATING 4000-1428 CM^-^1, NaCl PRISM 1428-650 CM^-^1
Sampling: TRANSMISSION
Resolution: 2
Origin: DOW CHEMICAL COMPANY
1/CM	TRANSMITTANCE
637.37	0.1509
646.442	0.2825
655.513	0.5809
664.585	0.788
673.656	0.8572
682.728	0.9022
691.8	0.912
700.871	0.9012
709.943	0.771
719.015	0.8436
728.086	0.8984
737.158	0.9471
746.229	0.9482
755.301	0.9466
764.373	0.9442
773.444	0.9414
782.516	0.942
791.587	0.9403
800.659	0.9298
809.731	0.9095
818.802	0.8764
827.874	0.844
836.946	0.8996
846.017	0.8765
855.089	0.7505
864.16	0.8945
873.232	0.8875
882.304	0.8723
891.375	0.8633
900.447	0.8495
909.518	0.8127
918.59	0.7659
927.662	0.7579
936.733	0.7077
945.805	0.7581
954.877	0.7204
963.948	0.649
973.02	0.5486
982.091	0.5381
991.163	0.5446
1000.23	0.3939
1009.31	0.048
1018.38	0.1012
1027.45	0.4509
1036.52	0.4481
1045.59	0.6016
1054.66	0.427
1063.74	0.6897
1072.81	0.711
1081.88	0.6874
1090.95	0.6493
1100.02	0.5939
1109.09	0.5277
1118.17	0.359
1127.24	0.3067
1136.31	0.1695
1145.38	0.0447
1154.45	0.0504
1163.52	0.1563
1172.6	0.3122
1181.67	0.4389
1190.74	0.471
1199.81	0.424
1208.88	0.4222
1217.95	0.3483
1227.02	0.2269
1236.1	0.1636
1245.17	0.0515
1254.24	0.2291
1263.31	0.2354
1272.38	0.4257
1281.45	0.5219
1290.53	0.469
1299.6	0.6744
1308.67	0.7302
1317.74	0.7557
1326.81	0.7903
1335.88	0.8019
1344.96	0.8025
1354.03	0.7622
1363.1	0.7938
1372.17	0.7143
1381.24	0.5993
1390.31	0.5526
1399.39	0.6749
1408.46	0.699
1417.53	0.7673
1426.6	0.7681
1435.67	0.7137
1444.74	0.6067
1453.82	0.5472
1462.89	0.557
1471.96	0.4753
1481.03	0.6671
1490.1	0.6594
1499.17	0.5376
1508.25	0.2269
1517.32	0.0918
1526.39	0.4023
1535.46	0.5687
1544.53	0.6389
1553.6	0.6648
1562.67	0.6697
1571.75	0.655
1580.82	0.6252
1589.89	0.4995
1598.96	0.274
1608.03	0.3681
1617.1	0.4065
1626.18	0.5649
1635.25	0.6566
1644.32	0.685
1653.39	0.7163
1662.46	0.7355
1671.53	0.7492
1680.61	0.7616
1689.68	0.7667
1698.75	0.7645
1707.82	0.7785
1716.89	0.7793
1725.96	0.7862
1735.04	0.7889
1744.11	0.7912
1753.18	0.7945
1762.25	0.7947
1771.32	0.787
1780.39	0.7933
1789.47	0.791
1798.54	0.7936
1807.61	0.7924
1816.68	0.7907
1825.75	0.7883
1834.82	0.786
1843.89	0.7832
1852.97	0.7803
1862.04	0.7779
1871.11	0.7754
1880.18	0.7719
1889.25	0.7614
1898.32	0.7514
1907.4	0.7431
1916.47	0.7349
1925.54	0.7275
1934.61	0.7196
1943.68	0.7114
1952.75	0.7046
1961.83	0.7011
1970.9	0.7013
1979.97	0.7018
1989.04	0.7026
1998.11	0.7094
2007.18	0.7101
2016.26	0.7083
2025.33	0.7125
2034.4	0.7284
2043.47	0.7321
2052.54	0.7322
2061.61	0.7319
2070.69	0.7307
2079.76	0.735
2088.83	0.7406
2097.9	0.7425
2106.97	0.7426
2116.04	0.7408
2125.11	0.7373
2134.19	0.7344
2143.26	0.7315
2152.33	0.728
2161.4	0.7215
2170.47	0.7211
2179.54	0.7308
2188.62	0.7398
2197.69	0.7412
2206.76	0.7407
2215.83	0.7398
2224.9	0.738
2233.97	0.7299
2243.05	0.7238
2252.12	0.7211
2261.19	0.7225
2270.26	0.7305
2279.33	0.7379
2288.4	0.7366
2297.48	0.7307
2306.55	0.7259
2315.62	0.7237
2324.69	0.7227
2333.76	0.7246
2342.83	0.7273
2351.91	0.7283
2360.98	0.7238
2370.05	0.7197
2379.12	0.7192
2388.19	0.7265
2397.26	0.7284
2406.33	0.7269
2415.41	0.7244
2424.48	0.7213
2433.55	0.7149
2442.62	0.7075
2451.69	0.7022
2460.76	0.6996
2469.84	0.6881
2478.91	0.6804
2487.98	0.6426
2497.05	0.6391
2506.12	0.6571
2515.19	0.6823
2524.27	0.6847
2533.34	0.6771
2542.41	0.6601
2551.48	0.6386
2560.55	0.6371
2569.62	0.6281
2578.7	0.6371
2587.77	0.6588
2596.84	0.6605
2605.91	0.6579
2614.98	0.6411
2624.05	0.6362
2633.13	0.6366
2642.2	0.6331
2651.27	0.6246
2660.34	0.6388
2669.41	0.6486
2678.48	0.6503
2687.55	0.6501
2696.63	0.6486
2705.7	0.6369
2714.77	0.6244
2723.84	0.6126
2732.91	0.6077
2741.98	0.6004
2751.06	0.5949
2760.13	0.5812
2769.2	0.5622
2778.27	0.5477
2787.34	0.5465
2796.41	0.5468
2805.49	0.5331
2814.56	0.5152
2823.63	0.5033
2832.7	0.498
2841.77	0.4881
2850.84	0.4719
2859.92	0.4478
2868.99	0.4383
2878.06	0.3975
2887.13	0.3437
2896.2	0.3222
2905.27	0.3175
2914.35	0.3163
2923.42	0.3119
2932.49	0.2776
2941.56	0.2532
2950.63	0.2272
2959.7	0.1871
2968.77	0.1369
2977.85	0.0973
2986.92	0.1441
2995.99	0.169
3005.06	0.1818
3014.13	0.2067
3023.2	0.2022
3032.28	0.1771
3041.35	0.1522
3050.42	0.1339
3059.49	0.1292
3068.56	0.1298
3077.63	0.1299
3086.71	0.1311
3095.78	0.1335
3104.85	0.138
3113.92	0.1435
3122.99	0.1516
3132.06	0.1531
3141.14	0.1494
3150.21	0.1463
3159.28	0.1557
3168.35	0.1794
3177.42	0.2142
3186.49	0.2481
3195.57	0.2918
3204.64	0.3094
3213.71	0.3229
3222.78	0.3263
3231.85	0.3301
3240.92	0.3419
3250	0.3953
3259.07	0.4511
3268.14	0.4741
3277.21	0.4978
3286.28	0.5165
3295.35	0.5313
3304.42	0.5406
3313.5	0.5451
3322.57	0.5554
3331.64	0.5559
3340.71	0.5547
3349.78	0.5539
3358.85	0.5535
3367.93	0.5533
3377	0.5526
3386.07	0.5517
3395.14	0.551
3404.21	0.5504
3413.28	0.5495
3422.36	0.5486
3431.43	0.548
3440.5	0.5472
3449.57	0.5474
3458.64	0.5484
3467.71	0.5523
3476.79	0.5559
3485.86	0.5601
3494.93	0.5626
3504	0.565
3513.07	0.5662
3522.14	0.5675
3531.22	0.5685
3540.29	0.5691
3549.36	0.5701
3558.43	0.5721
3567.5	0.5748
3576.57	0.5791
3585.64	0.5831
3594.72	0.5873
3603.79	0.5917
3612.86	0.5961
3621.93	0.6005
3631	0.6051
3640.07	0.6106
3649.15	0.6168
3658.22	0.6228
3667.29	0.6281
3676.36	0.6325
3685.43	0.6353
3694.5	0.6371
3703.58	0.6383
3712.65	0.6384
3721.72	0.6377
3730.79	0.6375
3739.86	0.6374
3748.93	0.6353
3758.01	0.6337
3767.08	0.6317
3776.15	0.6361
3785.22	0.6381
3794.29	0.637
3803.36	0.6355
3812.44	0.6338
3821.51	0.6321
3830.58	0.6322
3839.65	0.634
3848.72	0.6326
3857.79	0.63
3866.86	0.633
3875.94	0.633
3885.01	0.6314
3894.08	0.6312
3903.15	0.6264
3912.22	0.6245
3921.29	0.6234
3930.37	0.6216
3939.44	0.6226
3948.51	0.626
3957.58	0.626
3966.65	0.6258
3975.72	0.6247
3984.8	0.6235
3993.87	0.6223
4002.94	0.6206
4012.01	0.6188
4021.08	0.619
