Infrared Spectrum: Phenylsulfide
Formula: C 12 H 10 S
CAS: 139-66-2
State: gas
Instrument: HP-GC/MS/IRD
Origin: NIST Mass Spectrometry Data Center
1/CM	ABSORBANCE
550	0.0009435
562	0.0005698
574	0.000481
586	0.000555
598	0.0002109
610	4.81e-05
622	0.0004255
634	0.0009176
646	0.0020165
658	0.004588
670	0.0096274
682	0.0217153
694	0.0303585
706	0.0230954
718	0.0182595
730	0.0315277
742	0.0355829
754	0.0204388
766	0.0062974
778	0.002257
790	0.0013727
802	0.0010767
814	0.0006549
826	0.000407
838	0.0003626
850	0.0004181
862	0.0004958
874	0.0005291
886	0.0007215
898	0.0011914
910	0.001739
922	0.0012321
934	0.0007622
946	0.0006771
958	0.0006401
970	0.000481
982	0.0004884
994	0.0015318
1006	0.0029748
1018	0.0113664
1030	0.0117327
1042	0.0020498
1054	0.0033411
1066	0.0064824
1078	0.0106967
1090	0.0056573
1102	0.0031117
1114	0.0020609
1126	0.0012839
1138	0.0009435
1150	0.0006882
1162	0.0007178
1174	0.002035
1186	0.001776
1198	0.0007659
1210	0.0007881
1222	0.0009879
1234	0.0011618
1246	0.0008288
1258	0.0007252
1270	0.0006771
1282	0.0009842
1294	0.0016132
1306	0.0016243
1318	0.001517
1330	0.0011951
1342	0.0008695
1354	0.0009065
1366	0.0010915
1378	0.0010841
1390	0.0009694
1402	0.0011322
1414	0.0020609
1426	0.0054982
1438	0.0093277
1450	0.006919
1462	0.0091575
1474	0.0306508
1486	0.0177489
1498	0.0048544
1510	0.0023643
1522	0.001739
1534	0.001628
1546	0.0021867
1558	0.0044955
1570	0.0124394
1582	0.022385
1594	0.0091649
1606	0.0036408
1618	0.0019462
1630	0.0014023
1642	0.0013505
1654	0.0013727
1666	0.000888
1678	0.0006697
1690	0.0006068
1702	0.0008473
1714	0.0010841
1726	0.0011507
1738	0.0011877
1750	0.0011174
1762	0.0011396
1774	0.0015725
1786	0.0022866
1798	0.0022718
1810	0.001332
1822	0.0009361
1834	0.000888
1846	0.0012617
1858	0.001739
1870	0.0021682
1882	0.0020165
1894	0.001221
1906	0.000888
1918	0.0012802
1930	0.0018907
1942	0.0024975
1954	0.0023236
1966	0.0010804
1978	0.0005513
1990	0.0003922
2002	0.0003182
2014	0.0002553
2026	0.0002479
2038	0.0002405
2050	0.0002146
2062	0.0002072
2074	0.0001739
2086	0.0001924
2098	0.0001924
2110	0.0001739
2122	0.0001702
2134	0.0001517
2146	0.0001776
2158	0.0002331
2170	0.0002109
2182	0.0001628
2194	0.0001665
2206	0.0001517
2218	0.0001591
2230	0.0002257
2242	0.000259
2254	0.0002664
2266	0.0002701
2278	0.0003034
2290	0.000259
2302	0.0003737
2314	0.0006956
2326	0.0006327
2338	0.000592
2350	0.000407
2362	0.0005439
2374	0.0003478
2386	0.0002701
2398	0.0002886
2410	0.0003219
2422	0.0002701
2434	0.0002109
2446	0.0001443
2458	0.0001924
2470	0.0001776
2482	0.0001776
2494	0.000185
2506	0.0002146
2518	0.0002257
2530	0.0002368
2542	0.0002775
2554	0.0002738
2566	0.0003256
2578	0.000333
2590	0.0003219
2602	0.0003404
2614	0.0003367
2626	0.0002294
2638	0.0002331
2650	0.0002738
2662	0.0003404
2674	0.0002405
2686	0.0001813
2698	8.88e-05
2710	0.0001036
2722	8.88e-05
2734	0.0001184
2746	7.03e-05
2758	7.4e-05
2770	0.0001073
2782	0.0001036
2794	7.77e-05
2806	0.0001147
2818	0.000148
2830	0.0001776
2842	0.0002109
2854	0.000296
2866	0.000333
2878	0.0003515
2890	0.0002738
2902	0.0003219
2914	0.0004292
2926	0.0003774
2938	0.0003071
2950	0.0003145
2962	0.0004514
2974	0.0006364
2986	0.0013283
2998	0.0029341
3010	0.0048803
3022	0.0069893
3034	0.0065342
3046	0.0071484
3058	0.0179598
3070	0.0345802
3082	0.0248603
3094	0.0121212
3106	0.003441
3118	0.0015059
3130	0.0011655
3142	0.0012469
3154	0.001036
3166	0.0005365
3178	0.0003108
3190	0.0002405
3202	0.0001554
3214	0.0001702
3226	0.0001295
3238	0.0001369
3250	8.14e-05
3262	8.51e-05
3274	0.0001517
3286	4.07e-05
3298	5.55e-05
3310	5.18e-05
3322	0.0001073
3334	0.0001147
3346	9.62e-05
3358	3.7e-05
3370	9.25e-05
3382	8.51e-05
3394	4.44e-05
3406	5.18e-05
3418	3.33e-05
3430	2.96e-05
3442	0.0001184
3454	0.000111
3466	5.55e-05
3478	9.62e-05
3490	5.92e-05
3502	0.0001517
3514	6.66e-05
3526	7.77e-05
3538	9.62e-05
3550	6.66e-05
3562	8.51e-05
3574	4.07e-05
3586	8.51e-05
3598	8.51e-05
3610	0.0001036
3622	0.0001036
3634	0.0001258
3646	0.0002109
3658	0.0001628
3670	0.0002109
3682	0.0001887
3694	0.0003663
3706	0.0002405
3718	0.0001147
3730	9.62e-05
3742	0.0002405
3754	0.0003145
3766	0.0003515
3778	0.0002442
3790	0.0001813
3802	0.0001961
3814	7.03e-05
3826	5.92e-05
3838	0.0001295
