Infrared Spectrum: GLYCEROL TRIPROPIONATE
Formula: C12 H20 O6
CAS: 139-45-7
State: SOLUTION (10% CCl4 FOR 5000-1330, 10% CS2 FOR 1330-625 CM^-^1)
Class: COBLENTZ
Instrument: Not specified, most likely a prism, grating, or hybrid spectrometer.
Sampling: TRANSMISSION
Path length: 0.012 CM, 0.012 CM
Resolution: 4
Origin: DOW CHEMICAL COMPANY
MICROMETERS	TRANSMITTANCE
2.068	0.899
2.10896	0.901
2.14991	0.901
2.19087	0.902
2.23183	0.87
2.27278	0.873
2.31374	0.882
2.3547	0.882
2.39565	0.885
2.43661	0.883
2.47757	0.885
2.51852	0.894
2.55948	0.899
2.60044	0.901
2.64139	0.895
2.68235	0.892
2.72331	0.877
2.76426	0.846
2.80522	0.796
2.84618	0.764
2.88713	0.825
2.92809	0.875
2.96905	0.885
3.01	0.892
3.05096	0.89
3.09192	0.887
3.13287	0.878
3.17383	0.878
3.21479	0.87
3.25574	0.846
3.2967	0.757
3.33766	0.426
3.37861	0.322
3.41957	0.569
3.46053	0.667
3.50148	0.815
3.54244	0.848
3.5834	0.863
3.62435	0.868
3.66531	0.875
3.70627	0.878
3.74722	0.88
3.78818	0.878
3.82914	0.878
3.87009	0.88
3.91105	0.878
3.95201	0.878
3.99296	0.88
4.03392	0.878
4.07488	0.873
4.11583	0.875
4.15679	0.872
4.19775	0.87
4.2387	0.86
4.27966	0.863
4.32062	0.875
4.36157	0.875
4.40253	0.875
4.44348	0.872
4.48444	0.872
4.5254	0.875
4.56635	0.872
4.60731	0.87
4.64827	0.87
4.68922	0.872
4.73018	0.87
4.77114	0.87
4.81209	0.863
4.85305	0.851
4.89401	0.843
4.93496	0.841
4.97592	0.851
5.01688	0.849
5.05783	0.86
5.09879	0.86
5.13975	0.858
5.1807	0.854
5.22166	0.858
5.26262	0.856
5.30357	0.851
5.34453	0.841
5.38549	0.827
5.42644	0.807
5.4674	0.784
5.50836	0.742
5.54931	0.691
5.59027	0.61
5.63123	0.423
5.67218	0.15
5.71314	0.046
5.7541	0.039
5.79505	0.134
5.83601	0.332
5.87697	0.494
5.91792	0.651
5.95888	0.716
5.99984	0.749
6.04079	0.764
6.08175	0.791
6.12271	0.813
6.16366	0.819
6.20462	0.819
6.24558	0.819
6.28653	0.82
6.32749	0.812
6.36845	0.803
6.4094	0.796
6.45036	0.793
6.49132	0.783
6.53227	0.773
6.57323	0.755
6.61419	0.754
6.65514	0.754
6.6961	0.74
6.73706	0.674
6.77801	0.515
6.81897	0.215
6.85993	0.264
6.90088	0.423
6.94184	0.464
6.9828	0.438
7.02375	0.365
7.06471	0.544
7.10567	0.563
7.14662	0.515
7.18758	0.436
7.22854	0.298
7.26949	0.298
7.31045	0.298
7.35141	0.199
7.39236	0.153
7.43332	0.192
7.47428	0.266
7.51523	0.317
7.55619	0.368
7.59715	0.486
7.6381	0.544
7.67906	0.556
7.72002	0.498
7.76097	0.397
7.80193	0.278
7.84289	0.204
7.88384	0.186
7.9248	0.244
7.96576	0.286
8.00671	0.313
8.04767	0.322
8.08863	0.29
8.12958	0.24
8.17054	0.197
8.2115	0.139
8.25245	0.093
8.29341	0.063
8.33437	0.037
8.37532	0.025
8.41628	0.018
8.45724	0.017
8.49819	0.01
8.53915	0.015
8.58011	0.015
8.62106	0.013
8.66202	0.025
8.70298	0.047
8.74393	0.097
8.78489	0.168
8.82585	0.264
8.8668	0.319
8.90776	0.365
8.94872	0.382
8.98967	0.358
9.03063	0.279
9.07158	0.197
9.11254	0.17
9.1535	0.16
9.19445	0.107
9.23541	0.032
9.27637	0.042
9.31732	0.08
9.35828	0.114
9.39924	0.143
9.44019	0.225
9.48115	0.303
9.52211	0.363
9.56306	0.43
9.60402	0.452
9.64498	0.419
9.68593	0.354
9.72689	0.273
9.76785	0.291
9.8088	0.332
9.84976	0.368
9.89072	0.407
9.93167	0.443
9.97263	0.453
10.0136	0.481
10.0545	0.544
10.0955	0.621
10.1365	0.646
10.1774	0.651
10.2184	0.658
10.2593	0.684
10.3003	0.701
10.3412	0.706
10.3822	0.706
10.4232	0.72
10.4641	0.74
10.5051	0.764
10.546	0.773
10.587	0.779
10.6279	0.771
10.6689	0.738
10.7099	0.703
10.7508	0.684
10.7918	0.68
10.8327	0.694
10.8737	0.715
10.9146	0.726
10.9556	0.726
10.9965	0.711
11.0375	0.691
11.0785	0.684
11.1194	0.684
11.1604	0.684
11.2013	0.686
11.2423	0.68
11.2832	0.675
11.3242	0.662
11.3652	0.638
11.4061	0.605
11.4471	0.588
11.488	0.578
11.529	0.578
11.5699	0.59
11.6109	0.614
11.6519	0.631
11.6928	0.641
11.7338	0.645
11.7747	0.65
11.8157	0.663
11.8566	0.675
11.8976	0.686
11.9385	0.691
11.9795	0.68
12.0205	0.672
12.0614	0.674
12.1024	0.679
12.1433	0.697
12.1843	0.709
12.2252	0.706
12.2662	0.689
12.3072	0.639
12.3481	0.576
12.3891	0.5
12.43	0.43
12.471	0.452
12.5119	0.564
12.5529	0.699
12.5939	0.783
12.6348	0.825
12.6758	0.829
12.7167	0.834
12.7577	0.848
12.7986	0.87
12.8396	0.873
12.8806	0.885
12.9215	0.885
12.9625	0.885
13.0034	0.89
13.0444	0.889
13.0853	0.887
13.1263	0.883
13.1672	0.88
13.2082	0.875
13.2492	0.872
13.2901	0.872
13.3311	0.87
13.372	0.872
13.413	0.87
13.4539	0.863
13.4949	0.865
13.5359	0.866
13.5768	0.861
13.6178	0.863
13.6587	0.863
13.6997	0.863
13.7406	0.86
13.7816	0.861
13.8226	0.868
13.8635	0.872
13.9045	0.87
13.9454	0.865
13.9864	0.865
14.0273	0.865
14.0683	0.86
14.1093	0.861
14.1502	0.853
14.1912	0.848
14.2321	0.843
14.2731	0.844
14.314	0.844
14.355	0.839
14.3959	0.834
14.4369	0.831
14.4779	0.832
14.5188	0.827
14.5598	0.82
14.6007	0.819
14.6417	0.819
14.6826	0.817
14.7236	0.813
14.7646	0.813
14.8055	0.81
14.8465	0.807
14.8874	0.803
14.9284	0.803
14.9693	0.796
15.0103	0.791
15.0513	0.79
15.0922	0.79
15.1332	0.786
15.1741	0.781
15.2151	0.779
15.256	0.771
15.297	0.766
15.338	0.766
15.3789	0.764
15.4199	0.762
15.4608	0.764
15.5018	0.762
15.5427	0.761
15.5837	0.755
15.6246	0.752
15.6656	0.749
15.7066	0.745
15.7475	0.738
15.7885	0.732
15.8294	0.73
15.8704	0.725
15.9113	0.72
15.9523	0.721
