Infrared Spectrum: Cyclomethycaine
Formula: C 22 H 33 N O 3
CAS: 139-62-8
State: gas
Instrument: HP-GC/MS/IRD
Origin: NIST Mass Spectrometry Data Center
1/CM	ABSORBANCE
550	0.000393
562	0.0003315
574	0.0001755
586	4.05e-05
598	1.65e-05
610	0.0001695
622	7.35e-05
634	0.0003105
646	0.0004515
658	0.000204
670	0.0002745
682	0.0002445
694	0.000429
706	0.0003765
718	0.0002145
730	0.0002655
742	0.0001815
754	0.0003645
766	0.000951
778	0.0005955
790	0.000243
802	0.0001935
814	0.0002385
826	0.0002865
838	0.000519
850	0.001023
862	0.0005505
874	0.000381
886	0.0003795
898	0.000465
910	0.0003675
922	0.0005115
934	0.000603
946	0.0008505
958	0.001938
970	0.001941
982	0.000768
994	0.000729
1006	0.001389
1018	0.0017475
1030	0.0016305
1042	0.003081
1054	0.0028545
1066	0.0016725
1078	0.0023955
1090	0.004692
1102	0.006765
1114	0.005424
1126	0.003333
1138	0.002139
1150	0.002472
1162	0.005649
1174	0.0037935
1186	0.001623
1198	0.001425
1210	0.001785
1222	0.0034545
1234	0.009426
1246	0.01482
1258	0.0108105
1270	0.0110925
1282	0.0052425
1294	0.0033225
1306	0.002418
1318	0.0017565
1330	0.0015435
1342	0.001239
1354	0.0012225
1366	0.0017775
1378	0.0019395
1390	0.0011415
1402	0.0007035
1414	0.0009555
1426	0.0007155
1438	0.0009045
1450	0.0014745
1462	0.001575
1474	0.001176
1486	0.000813
1498	0.0019935
1510	0.0031995
1522	0.000711
1534	0.0004095
1546	0.0003825
1558	0.000459
1570	0.000783
1582	0.00123
1594	0.002778
1606	0.0049305
1618	0.0016605
1630	0.0006645
1642	0.000426
1654	0.000372
1666	0.0002685
1678	0.000276
1690	0.0003975
1702	0.000546
1714	0.0012375
1726	0.0043695
1738	0.006876
1750	0.001905
1762	0.000864
1774	0.0004245
1786	0.000264
1798	0.0002115
1810	0.0001545
1822	0.0001215
1834	7.65e-05
1846	7.05e-05
1858	5.4e-05
1870	7.2e-05
1882	8.7e-05
1894	9.45e-05
1906	0.00015
1918	0.000144
1930	8.55e-05
1942	6.3e-05
1954	5.25e-05
1966	6e-05
1978	4.35e-05
1990	4.65e-05
2002	6.6e-05
2014	8.85e-05
2026	9e-05
2038	9.15e-05
2050	7.8e-05
2062	8.85e-05
2074	4.5e-05
2086	6.45e-05
2098	3.45e-05
2110	4.5e-05
2122	2.1e-05
2134	2.55e-05
2146	4.2e-05
2158	3.45e-05
2170	2.85e-05
2182	4.65e-05
2194	4.65e-05
2206	2.1e-05
2218	1.5e-05
2230	3.3e-05
2242	5.7e-05
2254	5.7e-05
2266	9e-06
2278	3.45e-05
2290	4.95e-05
2302	5.7e-05
2314	9.3e-05
2326	8.1e-05
2338	6.3e-05
2350	0.0001185
2362	0.000141
2374	9.75e-05
2386	0.0001095
2398	8.1e-05
2410	7.65e-05
2422	8.85e-05
2434	7.35e-05
2446	9.45e-05
2458	6.15e-05
2470	0.00012
2482	0.000141
2494	0.000111
2506	0.0001215
2518	0.000132
2530	0.000129
2542	0.000174
2554	0.0001965
2566	0.000186
2578	0.000204
2590	0.000207
2602	0.0002235
2614	0.0002025
2626	0.0001965
2638	0.000258
2650	0.0002445
2662	0.0002685
2674	0.000273
2686	0.000324
2698	0.0003885
2710	0.0004245
2722	0.00051
2734	0.000543
2746	0.0005745
2758	0.000732
2770	0.001038
2782	0.001341
2794	0.0014595
2806	0.001257
2818	0.001098
2830	0.000981
2842	0.0010935
2854	0.001899
2866	0.003291
2878	0.0023355
2890	0.0019155
2902	0.002364
2914	0.0033855
2926	0.005901
2938	0.0108585
2950	0.0103515
2962	0.004278
2974	0.0027795
2986	0.001758
2998	0.000933
3010	0.0004635
3022	0.000309
3034	0.000267
3046	0.00027
3058	0.0003465
3070	0.0003465
3082	0.0003825
3094	0.0003105
3106	0.0002055
3118	0.0001665
3130	0.0001185
3142	8.4e-05
3154	0.0001365
3166	9e-05
3178	7.5e-05
3190	9.15e-05
3202	7.65e-05
3214	4.65e-05
3226	5.85e-05
3238	7.2e-05
3250	3.75e-05
3262	5.25e-05
3274	4.8e-05
3286	3.6e-05
3298	7.35e-05
3310	8.7e-05
3322	6.15e-05
3334	6.6e-05
3346	3.3e-05
3358	5.25e-05
3370	3.9e-05
3382	1.95e-05
3394	4.35e-05
3406	0
3418	3.3e-05
3430	5.7e-05
3442	6.9e-05
3454	8.7e-05
3466	8.4e-05
3478	9.45e-05
3490	0.0001155
3502	4.95e-05
3514	4.05e-05
3526	4.2e-05
3538	4.35e-05
3550	6e-05
3562	4.65e-05
3574	2.25e-05
3586	0.0002055
3598	1.8e-05
3610	3e-05
3622	4.35e-05
3634	9.3e-05
3646	5.55e-05
3658	6e-05
3670	7.65e-05
3682	6.3e-05
3694	7.8e-05
3706	7.05e-05
3718	5.85e-05
3730	6.75e-05
3742	6.3e-05
3754	6.15e-05
3766	0.0001005
3778	7.35e-05
3790	6.3e-05
3802	9.15e-05
3814	0.000147
3826	0.00012
3838	8.4e-05
