Infrared Spectrum: Propazine
Formula: C 9 H 16 Cl N 5
CAS: 139-40-2
State: gas
Instrument: HP-GC/MS/IRD
Origin: NIST Mass Spectrometry Data Center
1/CM	ABSORBANCE
550	0.00188
562	0.00115
574	0.00055
586	0.00034
598	0.00025
610	0.0003
622	0.00025
634	0.00017
646	0
658	8e-05
670	0.00021
682	0.00032
694	0.00047
706	0.00054
718	0.00039
730	0.0007
742	0.00035
754	9e-05
766	0.00011
778	0.00015
790	0.00031
802	0.00139
814	0.00331
826	0.00134
838	0.00106
850	0.00099
862	0.00071
874	0.0009
886	0.00173
898	0.00288
910	0.00367
922	0.00327
934	0.00229
946	0.00175
958	0.00221
970	0.00229
982	0.00211
994	0.00288
1006	0.00497
1018	0.00542
1030	0.0022
1042	0.00093
1054	0.00069
1066	0.00077
1078	0.00092
1090	0.00118
1102	0.00127
1114	0.00207
1126	0.00357
1138	0.00401
1150	0.0052
1162	0.00831
1174	0.01414
1186	0.00911
1198	0.00422
1210	0.0043
1222	0.00409
1234	0.00259
1246	0.00314
1258	0.00622
1270	0.00537
1282	0.00318
1294	0.00441
1306	0.00857
1318	0.01289
1330	0.01195
1342	0.01001
1354	0.0083
1366	0.00876
1378	0.01125
1390	0.01166
1402	0.00887
1414	0.00916
1426	0.0082
1438	0.00579
1450	0.00809
1462	0.0137
1474	0.01817
1486	0.03016
1498	0.03583
1510	0.03242
1522	0.02367
1534	0.02386
1546	0.04119
1558	0.06669
1570	0.09815
1582	0.06723
1594	0.02331
1606	0.0123
1618	0.00753
1630	0.00458
1642	0.00305
1654	0.00204
1666	0.00157
1678	0.00127
1690	0.00104
1702	0.00091
1714	0.00073
1726	0.00058
1738	0.00044
1750	0.00035
1762	0.00031
1774	0.00029
1786	0.00035
1798	0.00035
1810	0.00035
1822	0.00034
1834	0.00022
1846	0.00024
1858	0.00028
1870	0.00026
1882	0.0002
1894	0.00019
1906	0.00017
1918	0.00014
1930	0.00017
1942	0.00014
1954	0.0001
1966	5e-05
1978	2e-05
1990	3e-05
2002	0
2014	4e-05
2026	8e-05
2038	9e-05
2050	0.00012
2062	9e-05
2074	5e-05
2086	4e-05
2098	0
2110	1e-05
2122	6e-05
2134	5e-05
2146	2e-05
2158	4e-05
2170	4e-05
2182	1e-05
2194	0
2206	3e-05
2218	8e-05
2230	5e-05
2242	9e-05
2254	9e-05
2266	0.00011
2278	0.00017
2290	0.0002
2302	0.00025
2314	0.00024
2326	0.00019
2338	0.00011
2350	0.00017
2362	0.00019
2374	0.00017
2386	0.0002
2398	0.00024
2410	0.00025
2422	0.0002
2434	0.00017
2446	0.00022
2458	0.00029
2470	0.00036
2482	0.00032
2494	0.0004
2506	0.00041
2518	0.00037
2530	0.00033
2542	0.00027
2554	0.00023
2566	0.00017
2578	0.00015
2590	0.00017
2602	0.00016
2614	0.00017
2626	0.00019
2638	0.00017
2650	0.0002
2662	0.00019
2674	0.00021
2686	0.00019
2698	0.00025
2710	0.0003
2722	0.00031
2734	0.00035
2746	0.00035
2758	0.00039
2770	0.00041
2782	0.00038
2794	0.00043
2806	0.00044
2818	0.00042
2830	0.00051
2842	0.00063
2854	0.0008
2866	0.00128
2878	0.00268
2890	0.00288
2902	0.00245
2914	0.00316
2926	0.00377
2938	0.00481
2950	0.00415
2962	0.00476
2974	0.00976
2986	0.01038
2998	0.00356
3010	0.0014
3022	0.00086
3034	0.00063
3046	0.00052
3058	0.00041
3070	0.00038
3082	0.00038
3094	0.0004
3106	0.00042
3118	0.00041
3130	0.00038
3142	0.00037
3154	0.0004
3166	0.00032
3178	0.00027
3190	0.00026
3202	0.00023
3214	0.0002
3226	0.00018
3238	7e-05
3250	0.00013
3262	7e-05
3274	5e-05
3286	0.00011
3298	0.00013
3310	8e-05
3322	6e-05
3334	0.00011
3346	7e-05
3358	0.00012
3370	0.00015
3382	0.00011
3394	0.0002
3406	0.00035
3418	0.00072
3430	0.00216
3442	0.00565
3454	0.00497
3466	0.00156
3478	0.00057
3490	0.00031
3502	0.00019
3514	0.0002
3526	0.00022
3538	8e-05
3550	8e-05
3562	0.0001
3574	5e-05
3586	0.00011
3598	2e-05
3610	9e-05
3622	9e-05
3634	8e-05
3646	7e-05
3658	0
3670	0.00011
3682	4e-05
3694	0.0001
3706	7e-05
3718	6e-05
3730	0.0001
3742	0.00012
3754	7e-05
3766	0.00012
3778	0.0001
3790	8e-05
3802	5e-05
3814	7e-05
3826	0.00013
3838	7e-05
