Infrared Spectrum: 3,3'-Dichloroazoxybenzene
Formula: C12 H8 Cl2 N2 O
CAS: 139-24-2
State: SOLUTION (5% CCl4 FOR 3800-1330, 10% CS2 FOR 1330-400 CM^-^1)
Class: COBLENTZ III
Instrument: DOW KBr FOREPRISM-GRATING
Instrument parameters: BLAZED AT 3.5, 12.0, 20.0 MICRON AND CHANGED AT 5.0, 7.5, 14.9 MICRON
Sampling: TRANSMISSION
Path length: 0.021 CM, 0.011 CM
Resolution: 2
Origin: DOW CHEMICAL COMPANY
1/CM	TRANSMITTANCE
383	0.2248
392	0.3156
401	0.4599
410	0.6785
419	0.7736
428	0.8099
437	0.7309
446	0.7322
455	0.9614
464	0.9653
473	0.9338
482	0.9013
491	0.9475
500	0.9476
509	0.9279
518	0.914
527	0.9277
536	0.9552
545	0.9543
554	0.9547
563	0.9482
572	0.9276
581	0.9076
590	0.8853
599	0.9208
608	0.9649
617	0.9663
626	0.9526
635	0.9392
644	0.9177
653	0.8225
662	0.7481
671	0.6702
680	0.1412
689	0.7114
698	0.4612
707	0.7365
716	0.9149
725	0.9312
734	0.9268
743	0.917
752	0.893
761	0.3578
770	0.6523
779	0.2574
788	0.018
797	0.4663
806	0.8358
815	0.8916
824	0.9117
833	0.9154
842	0.9168
851	0.9263
860	0.8798
869	0.7374
878	0.3663
887	0.0613
896	0.5612
905	0.7133
914	0.7196
923	0.8088
932	0.5793
941	0.8617
950	0.9055
959	0.9063
968	0.8877
977	0.893
986	0.9087
995	0.7831
1004	0.8942
1013	0.9226
1022	0.9269
1031	0.9358
1040	0.932
1049	0.9165
1058	0.8725
1067	0.5032
1076	0.4397
1085	0.7881
1094	0.6742
1103	0.8464
1112	0.8325
1121	0.686
1130	0.6881
1139	0.8862
1148	0.8885
1157	0.7819
1166	0.8474
1175	0.8657
1184	0.8758
1193	0.8472
1202	0.5642
1211	0.6666
1220	0.8243
1229	0.8641
1238	0.907
1247	0.8911
1256	0.7934
1265	0.7221
1274	0.8307
1283	0.8415
1292	0.6604
1301	0.6222
1310	0.4297
1319	0.4047
1328	0.721
1337	0.8452
1346	0.8778
1355	0.8901
1364	0.8914
1373	0.8905
1382	0.9136
1391	0.8959
1400	0.8611
1409	0.7381
1418	0.5867
1427	0.5305
1436	0.7066
1445	0.7264
1454	0.3173
1463	0.0846
1472	0.0789
1481	-0.0036
1490	0.0694
1499	0.4836
1508	0.6663
1517	0.6816
1526	0.6696
1535	0.6804
1544	0.5588
1553	0.409
1562	0.2887
1571	0.3818
1580	0.4669
1589	0.3074
1598	0.5129
1607	0.7787
1616	0.8638
1625	0.8993
1634	0.9271
1643	0.9221
1652	0.9189
1661	0.9352
1670	0.9306
1679	0.9184
1688	0.9189
1697	0.9183
1706	0.935
1715	0.9383
1724	0.9493
1733	0.9458
1742	0.9429
1751	0.9349
1760	0.927
1769	0.9271
1778	0.9314
1787	0.9304
1796	0.925
1805	0.932
1814	0.9424
1823	0.94
1832	0.9506
1841	0.9501
1850	0.943
1859	0.9355
1868	0.9299
1877	0.9292
1886	0.9288
1895	0.954
1904	0.964
1913	0.9583
1922	0.9512
1931	0.9408
1940	0.9295
1949	0.9268
1958	0.9581
1967	0.9597
1976	0.9596
1985	0.9591
1994	0.9545
2003	0.9527
2012	0.9556
2021	0.9564
2030	0.9554
2039	0.9564
2048	0.9574
2057	0.9584
2066	0.9588
2075	0.9594
2084	0.9605
2093	0.961
2102	0.9617
2111	0.9618
2120	0.9618
2129	0.9609
2138	0.9596
2147	0.9577
2156	0.9555
2165	0.9542
2174	0.9549
2183	0.9529
2192	0.9512
2201	0.9527
2210	0.9526
2219	0.9526
2228	0.9543
2237	0.9531
2246	0.9516
2255	0.9483
2264	0.9454
2273	0.9433
2282	0.9397
2291	0.9395
2300	0.9366
2309	0.936
2318	0.9344
2327	0.931
2336	0.9297
2345	0.9382
2354	0.9411
2363	0.9377
2372	0.9447
2381	0.9414
2390	0.938
2399	0.9407
2408	0.9426
2417	0.9437
2426	0.9465
2435	0.9485
2444	0.9492
2453	0.948
2462	0.9485
2471	0.9484
2480	0.9483
2489	0.9459
2498	0.945
2507	0.9441
2516	0.9431
2525	0.9417
2534	0.9404
2543	0.939
2552	0.9373
2561	0.9357
2570	0.9336
2579	0.9324
2588	0.9357
2597	0.939
2606	0.9415
2615	0.9429
2624	0.9437
2633	0.9439
2642	0.9429
2651	0.9423
2660	0.9402
2669	0.939
2678	0.937
2687	0.9349
2696	0.9311
2705	0.9237
2714	0.9152
2723	0.9102
2732	0.9089
2741	0.9149
2750	0.9222
2759	0.9239
2768	0.9203
2777	0.9195
2786	0.9186
2795	0.9236
2804	0.9295
2813	0.9337
2822	0.9366
2831	0.9352
2840	0.934
2849	0.9298
2858	0.9301
2867	0.9291
2876	0.9289
2885	0.9295
2894	0.9302
2903	0.9307
2912	0.9314
2921	0.932
2930	0.9346
2939	0.9386
2948	0.9411
2957	0.9397
2966	0.9397
2975	0.9372
2984	0.9342
2993	0.9318
3002	0.9283
3011	0.9283
3020	0.9262
3029	0.925
3038	0.9313
3047	0.9115
3056	0.8921
3065	0.8469
3074	0.7845
3083	0.7821
3092	0.8551
3101	0.8238
3110	0.8043
3119	0.8535
3128	0.8726
3137	0.8729
3146	0.8807
3155	0.8979
3164	0.9145
3173	0.9233
3182	0.926
3191	0.9292
3200	0.9328
3209	0.9395
3218	0.9407
3227	0.9409
3236	0.9413
3245	0.9401
3254	0.9409
3263	0.9407
3272	0.9405
3281	0.9383
3290	0.9383
3299	0.938
3308	0.9395
3317	0.9375
3326	0.9373
3335	0.9371
3344	0.9392
3353	0.9373
3362	0.9374
3371	0.9378
3380	0.9386
3389	0.939
3398	0.9401
3407	0.942
3416	0.9421
3425	0.9416
3434	0.9444
3443	0.9455
3452	0.9465
3461	0.9473
3470	0.948
3479	0.9489
3488	0.9495
3497	0.9492
3506	0.9488
3515	0.9484
3524	0.9481
3533	0.9496
3542	0.9492
3551	0.9489
3560	0.9466
3569	0.9465
3578	0.94
3587	0.9279
3596	0.9519
3605	0.9522
3614	0.9531
3623	0.9538
3632	0.9541
3641	0.9521
3650	0.952
3659	0.952
3668	0.952
3677	0.952
3686	0.9515
3695	0.9529
3704	0.9546
3713	0.9522
3722	0.9518
3731	0.951
3740	0.9476
3749	0.9479
3758	0.9505
3767	0.9529
3776	0.9542
3785	0.9549
3794	0.9556
