Infrared Spectrum: UREA, 1,1'-(METHYLENEDI-p-PHENYLENE)BIS[3-(2-CHLOROETHYL)-
Formula: C19 H22 Cl2 N4 O2
CAS: 13908-71-9
State: SOLID (0.7 mg / 500 mg KBr DISC)
Class: COBLENTZ III
Instrument: PERKIN-ELMER 221 (GRATING)
Instrument parameters: FILTER AT 980 CM ^-^1, GRATING FOR 4000-1428 CM^-^1, NaCl PRISM FOR 1428-650 CM^-^1
Sampling: TRANSMISSION
Resolution: 4
Origin: SOUTHERN RES. INSTITUTE
1/CM	TRANSMITTANCE
602.521	0.569
611.66	0.565
620.798	0.558
629.937	0.532
639.076	0.51
648.214	0.495
657.353	0.496
666.492	0.53
675.63	0.6
684.769	0.667
693.908	0.717
703.046	0.755
712.185	0.775
721.324	0.771
730.462	0.744
739.601	0.72
748.74	0.668
757.878	0.714
767.017	0.742
776.156	0.682
785.294	0.763
794.433	0.866
803.572	0.849
812.71	0.756
821.849	0.696
830.988	0.833
840.126	0.87
849.265	0.84
858.404	0.765
867.542	0.884
876.681	0.864
885.82	0.935
894.958	0.938
904.097	0.935
913.236	0.889
922.374	0.865
931.513	0.921
940.652	0.913
949.79	0.903
958.929	0.895
968.068	0.889
977.206	0.884
986.345	0.88
995.484	0.873
1004.62	0.866
1013.76	0.844
1022.9	0.771
1032.04	0.852
1041.18	0.841
1050.32	0.834
1059.45	0.812
1068.59	0.795
1077.73	0.8
1086.87	0.8
1096.01	0.778
1105.15	0.694
1114.29	0.721
1123.42	0.752
1132.56	0.767
1141.7	0.775
1150.84	0.774
1159.98	0.763
1169.12	0.725
1178.26	0.683
1187.4	0.661
1196.53	0.657
1205.67	0.652
1214.81	0.627
1223.95	0.563
1233.09	0.473
1242.23	0.366
1251.37	0.368
1260.5	0.532
1269.64	0.626
1278.78	0.671
1287.92	0.689
1297.06	0.563
1306.2	0.459
1315.34	0.545
1324.48	0.658
1333.61	0.763
1342.75	0.776
1351.89	0.775
1361.03	0.769
1370.17	0.756
1379.31	0.781
1388.45	0.774
1397.58	0.727
1406.72	0.515
1415.86	0.587
1425	0.68
1434.14	0.644
1443.28	0.663
1452.42	0.6
1461.56	0.639
1470.69	0.735
1479.83	0.707
1488.97	0.667
1498.11	0.612
1507.25	0.464
1516.39	0.332
1525.53	0.407
1534.66	0.382
1543.8	0.376
1552.94	0.333
1562.08	0.28
1571.22	0.216
1580.36	0.221
1589.5	0.302
1598.64	0.221
1607.77	0.166
1616.91	0.248
1626.05	0.315
1635.19	0.172
1644.33	0.082
1653.47	0.184
1662.61	0.31
1671.74	0.433
1680.88	0.518
1690.02	0.595
1699.16	0.637
1708.3	0.707
1717.44	0.772
1726.58	0.843
1735.72	0.893
1744.85	0.905
1753.99	0.915
1763.13	0.923
1772.27	0.929
1781.41	0.914
1790.55	0.935
1799.69	0.95
1808.82	0.975
1817.96	0.979
1827.1	0.98
1836.24	0.981
1845.38	0.984
1854.52	0.984
1863.66	0.982
1872.8	0.981
1881.93	0.975
1891.07	0.968
1900.21	0.948
1909.35	0.96
1918.49	0.97
1927.63	0.976
1936.77	0.979
1945.9	0.978
1955.04	0.977
1964.18	0.972
1973.32	0.97
1982.46	0.968
1991.6	0.967
2000.74	0.965
2009.88	0.962
2019.01	0.959
2028.15	0.956
2037.29	0.953
2046.43	0.953
2055.57	0.95
2064.71	0.948
2073.85	0.945
2082.98	0.943
2092.12	0.941
2101.26	0.938
2110.4	0.938
2119.54	0.935
2128.68	0.933
2137.82	0.934
2146.96	0.935
2156.09	0.934
2165.23	0.933
2174.37	0.932
2183.51	0.931
2192.65	0.929
2201.79	0.928
2210.93	0.927
2220.06	0.926
2229.2	0.924
2238.34	0.922
2247.48	0.92
2256.62	0.918
2265.76	0.916
2274.9	0.916
2284.04	0.913
2293.17	0.907
2302.31	0.898
2311.45	0.888
2320.59	0.88
2329.73	0.876
2338.87	0.874
2348.01	0.873
2357.14	0.867
2366.28	0.873
2375.42	0.895
2384.56	0.899
2393.7	0.901
2402.84	0.902
2411.98	0.902
2421.12	0.902
2430.25	0.901
2439.39	0.901
2448.53	0.899
2457.67	0.899
2466.81	0.898
2475.95	0.898
2485.09	0.897
2494.22	0.889
2503.36	0.881
2512.5	0.88
2521.64	0.878
2530.78	0.877
2539.92	0.877
2549.06	0.876
2558.19	0.875
2567.33	0.873
2576.47	0.872
2585.61	0.87
2594.75	0.867
2603.89	0.865
2613.03	0.864
2622.17	0.863
2631.3	0.862
2640.44	0.861
2649.58	0.86
2658.72	0.859
2667.86	0.858
2677	0.858
2686.14	0.855
2695.27	0.852
2704.41	0.847
2713.55	0.843
2722.69	0.837
2731.83	0.833
2740.97	0.829
2750.11	0.825
2759.25	0.822
2768.38	0.82
2777.52	0.815
2786.66	0.808
2795.8	0.805
2804.94	0.803
2814.08	0.796
2823.22	0.778
2832.35	0.775
2841.49	0.772
2850.63	0.769
2859.77	0.768
2868.91	0.767
2878.05	0.766
2887.19	0.763
2896.33	0.737
2905.46	0.704
2914.6	0.701
2923.74	0.71
2932.88	0.713
2942.02	0.715
2951.16	0.714
2960.3	0.709
2969.43	0.704
2978.57	0.726
2987.71	0.741
2996.85	0.732
3005.99	0.697
3015.13	0.691
3024.27	0.689
3033.41	0.677
3042.54	0.667
3051.68	0.673
3060.82	0.691
3069.96	0.708
3079.1	0.707
3088.24	0.69
3097.38	0.676
3106.51	0.664
3115.65	0.665
3124.79	0.67
3133.93	0.679
3143.07	0.682
3152.21	0.676
3161.35	0.652
3170.49	0.642
3179.62	0.634
3188.76	0.628
3197.9	0.623
3207.04	0.618
3216.18	0.611
3225.32	0.595
3234.46	0.564
3243.59	0.518
3252.73	0.493
3261.87	0.474
3271.01	0.418
3280.15	0.39
3289.29	0.34
3298.43	0.291
3307.57	0.253
3316.7	0.253
3325.84	0.261
3334.98	0.274
3344.12	0.32
3353.26	0.354
3362.4	0.403
3371.54	0.468
3380.67	0.526
3389.81	0.569
3398.95	0.616
3408.09	0.652
3417.23	0.661
3426.37	0.68
3435.51	0.695
3444.65	0.705
3453.78	0.713
3462.92	0.724
3472.06	0.726
3481.2	0.728
3490.34	0.729
3499.48	0.731
3508.62	0.733
3517.75	0.74
3526.89	0.752
3536.03	0.76
3545.17	0.768
3554.31	0.772
3563.45	0.779
3572.59	0.786
3581.73	0.79
3590.86	0.797
3600	0.81
3609.14	0.817
3618.28	0.821
3627.42	0.825
3636.56	0.829
3645.7	0.83
3654.83	0.831
3663.97	0.829
3673.11	0.827
3682.25	0.827
3691.39	0.828
3700.53	0.828
3709.67	0.828
3718.81	0.827
3727.94	0.825
3737.08	0.825
3746.22	0.826
3755.36	0.827
3764.5	0.827
3773.64	0.827
3782.78	0.827
3791.91	0.824
3801.05	0.821
3810.19	0.819
3819.33	0.817
3828.47	0.816
3837.61	0.815
3846.75	0.814
3855.89	0.812
3865.02	0.812
3874.16	0.812
3883.3	0.811
3892.44	0.811
3901.58	0.811
3910.72	0.811
3919.86	0.811
3928.99	0.811
3938.13	0.811
3947.27	0.811
3956.41	0.81
3965.55	0.809
3974.69	0.809
3983.83	0.809
3992.97	0.809
4002.1	0.808
