Infrared Spectrum: CYCLOPENTANECARBOXYLIC AICD, 1-[3-(2-CHLOROETHYL)-3-NITROSOUREIDO]-, ETHYL ESTER
Formula: C11 H18 Cl N3 O4
CAS: 13909-05-2
State: SOLID (1 mg / 650 mg KBr DISC)
Class: COBLENTZ III
Instrument: PERKIN-ELMER 521 (GRATING)
Instrument parameters: FILTERS AT 3150, 2500, 2000, 1150, 700, 410 CM ^-^1, GRATING CHANGES AT 2000, 630 CM^-^1
Sampling: TRANSMISSION
Resolution: 4
Origin: SOUTHERN RES. INSTITUTE
1/CM	TRANSMITTANCE
248.223	0.269
257.36	0.298
266.497	0.341
275.634	0.382
284.771	0.436
293.908	0.465
303.045	0.496
312.182	0.518
321.32	0.537
330.457	0.557
339.594	0.576
348.731	0.573
357.868	0.537
367.005	0.599
376.142	0.664
385.279	0.674
394.416	0.618
403.553	0.645
412.69	0.71
421.827	0.757
430.964	0.76
440.101	0.76
449.239	0.753
458.376	0.747
467.513	0.754
476.65	0.756
485.787	0.748
494.924	0.724
504.061	0.671
513.198	0.702
522.335	0.697
531.472	0.638
540.609	0.608
549.746	0.584
558.883	0.61
568.02	0.655
577.157	0.699
586.295	0.739
595.432	0.756
604.569	0.76
613.706	0.769
622.843	0.778
631.98	0.786
641.117	0.79
650.254	0.778
659.391	0.622
668.528	0.636
677.665	0.784
686.802	0.815
695.939	0.82
705.076	0.818
714.214	0.817
723.351	0.815
732.488	0.794
741.625	0.74
750.762	0.652
759.899	0.658
769.036	0.713
778.173	0.747
787.31	0.634
796.447	0.529
805.584	0.693
814.721	0.754
823.858	0.768
832.995	0.787
842.132	0.781
851.27	0.75
860.407	0.755
869.544	0.747
878.681	0.692
887.818	0.652
896.955	0.565
906.092	0.632
915.229	0.725
924.366	0.741
933.503	0.722
942.64	0.701
951.777	0.594
960.914	0.484
970.051	0.401
979.189	0.556
988.326	0.609
997.463	0.523
1006.6	0.618
1015.74	0.524
1024.87	0.568
1034.01	0.622
1043.15	0.636
1052.29	0.683
1061.42	0.673
1070.56	0.553
1079.7	0.357
1088.83	0.289
1097.97	0.455
1107.11	0.582
1116.24	0.646
1125.38	0.691
1134.52	0.689
1143.66	0.55
1152.79	0.432
1161.93	0.464
1171.07	0.521
1180.2	0.446
1189.34	0.326
1198.48	0.438
1207.62	0.499
1216.75	0.542
1225.89	0.528
1235.03	0.49
1244.16	0.488
1253.3	0.544
1262.44	0.537
1271.57	0.453
1280.71	0.451
1289.85	0.49
1298.99	0.467
1308.12	0.537
1317.26	0.509
1326.4	0.572
1335.53	0.568
1344.67	0.63
1353.81	0.727
1362.95	0.716
1372.08	0.558
1381.22	0.75
1390.36	0.739
1399.49	0.73
1408.63	0.608
1417.77	0.589
1426.9	0.685
1436.04	0.426
1445.18	0.448
1454.32	0.398
1463.45	0.406
1472.59	0.261
1481.73	0.275
1490.86	0.361
1500	0.385
1509.14	0.26
1518.28	0.28
1527.41	0.37
1536.55	0.48
1545.69	0.604
1554.82	0.658
1563.96	0.705
1573.1	0.738
1582.24	0.757
1591.37	0.772
1600.51	0.778
1609.65	0.791
1618.78	0.793
1627.92	0.793
1637.06	0.794
1646.19	0.792
1655.33	0.777
1664.47	0.744
1673.61	0.693
1682.74	0.615
1691.88	0.505
1701.02	0.254
1710.15	0.141
1719.29	0.275
1728.43	0.181
1737.57	0.157
1746.7	0.382
1755.84	0.494
1764.98	0.591
1774.11	0.639
1783.25	0.666
1792.39	0.698
1801.52	0.726
1810.66	0.735
1819.8	0.747
1828.94	0.757
1838.07	0.766
1847.21	0.772
1856.35	0.781
1865.48	0.787
1874.62	0.793
1883.76	0.802
1892.9	0.806
1902.03	0.813
1911.17	0.816
1920.31	0.819
1929.44	0.826
1938.58	0.827
1947.72	0.829
1956.85	0.83
1965.99	0.832
1975.13	0.833
1984.27	0.836
1993.4	0.833
2002.54	0.83
2011.68	0.828
2020.81	0.828
2029.95	0.828
2039.09	0.83
2048.23	0.83
2057.36	0.83
2066.5	0.831
2075.64	0.832
2084.77	0.833
2093.91	0.835
2103.05	0.836
2112.19	0.838
2121.32	0.84
2130.46	0.841
2139.6	0.842
2148.73	0.843
2157.87	0.843
2167.01	0.843
2176.14	0.843
2185.28	0.843
2194.42	0.845
2203.56	0.845
2212.69	0.844
2221.83	0.843
2230.97	0.843
2240.1	0.841
2249.24	0.841
2258.38	0.843
2267.52	0.844
2276.65	0.845
2285.79	0.846
2294.93	0.846
2304.06	0.846
2313.2	0.846
2322.34	0.847
2331.47	0.847
2340.61	0.848
2349.75	0.848
2358.89	0.848
2368.02	0.848
2377.16	0.848
2386.3	0.849
2395.43	0.849
2404.57	0.849
2413.71	0.849
2422.85	0.849
2431.98	0.849
2441.12	0.849
2450.26	0.849
2459.39	0.849
2468.53	0.85
2477.67	0.85
2486.8	0.85
2495.94	0.85
2505.08	0.85
2514.22	0.85
2523.35	0.85
2532.49	0.85
2541.63	0.85
2550.76	0.85
2559.9	0.85
2569.04	0.85
2578.18	0.85
2587.31	0.85
2596.45	0.85
2605.59	0.85
2614.72	0.85
2623.86	0.85
2633	0.85
2642.14	0.85
2651.27	0.85
2660.41	0.851
2669.55	0.851
2678.68	0.851
2687.82	0.851
2696.96	0.851
2706.09	0.85
2715.23	0.85
2724.37	0.849
2733.51	0.849
2742.64	0.849
2751.78	0.849
2760.92	0.848
2770.05	0.846
2779.19	0.844
2788.33	0.841
2797.47	0.84
2806.6	0.84
2815.74	0.836
2824.88	0.834
2834.01	0.832
2843.15	0.828
2852.29	0.807
2861.42	0.787
2870.56	0.749
2879.7	0.683
2888.84	0.695
2897.97	0.717
2907.11	0.716
2916.25	0.707
2925.38	0.686
2934.52	0.664
2943.66	0.622
2952.8	0.593
2961.93	0.54
2971.07	0.544
2980.21	0.564
2989.34	0.601
2998.48	0.62
3007.62	0.673
3016.75	0.723
3025.89	0.76
3035.03	0.786
3044.17	0.802
3053.3	0.809
3062.44	0.814
3071.58	0.818
3080.71	0.821
3089.85	0.824
3098.99	0.827
3108.13	0.828
3117.26	0.83
3126.4	0.83
3135.54	0.831
3144.67	0.831
3153.81	0.83
3162.95	0.828
3172.09	0.827
3181.22	0.825
3190.36	0.823
3199.5	0.821
3208.63	0.818
3217.77	0.816
3226.91	0.814
3236.04	0.811
3245.18	0.809
3254.32	0.806
3263.46	0.803
3272.59	0.8
3281.73	0.796
3290.87	0.793
3300	0.79
3309.14	0.784
3318.28	0.769
3327.42	0.754
3336.55	0.736
3345.69	0.704
3354.83	0.631
3363.96	0.525
3373.1	0.4
3382.24	0.444
3391.37	0.589
3400.51	0.661
3409.65	0.698
3418.79	0.709
3427.92	0.723
3437.06	0.731
3446.2	0.746
3455.33	0.751
3464.47	0.762
3473.61	0.77
3482.75	0.774
3491.88	0.776
3501.02	0.78
3510.16	0.784
3519.29	0.787
3528.43	0.792
3537.57	0.796
3546.7	0.8
3555.84	0.803
3564.98	0.807
3574.12	0.81
3583.25	0.812
3592.39	0.815
3601.53	0.819
3610.66	0.821
3619.8	0.824
3628.94	0.827
3638.08	0.83
3647.21	0.832
3656.35	0.833
3665.49	0.833
3674.62	0.833
3683.76	0.833
3692.9	0.835
3702.04	0.838
3711.17	0.839
3720.31	0.838
3729.45	0.836
3738.58	0.834
3747.72	0.833
3756.86	0.833
3765.99	0.836
3775.13	0.839
3784.27	0.84
3793.41	0.84
3802.54	0.838
3811.68	0.835
