Infrared Spectrum: UREA, 1-(2-CHLOROETHYL)-3-[p-(DIMETHYLCARBAMOYL)PHENYL]-1-NITROSO-
Formula: C12 H15 Cl N4 O3
CAS: 13909-28-9
State: SOLID (1 mg / 650 mg KBr DISC)
Class: COBLENTZ III
Instrument: PERKIN-ELMER 521 (GRATING)
Instrument parameters: FILTERS AT 3150, 2500, 2000, 1150, 700, 410 CM ^-^1, GRATING CHANGES AT 2000, 630 CM ^-^1
Sampling: TRANSMISSION
Resolution: 4
Origin: SOUTHERN RES. INSTITUTE
1/CM	TRANSMITTANCE
246.345	0.25
255.384	0.298
264.422	0.331
273.461	0.382
282.499	0.423
291.538	0.448
300.576	0.461
309.615	0.479
318.653	0.546
327.692	0.57
336.73	0.599
345.769	0.612
354.808	0.616
363.846	0.644
372.885	0.648
381.923	0.653
390.962	0.662
400	0.684
409.039	0.708
418.077	0.719
427.116	0.693
436.154	0.697
445.193	0.752
454.232	0.763
463.27	0.768
472.309	0.768
481.347	0.715
490.386	0.677
499.424	0.775
508.463	0.774
517.501	0.753
526.54	0.768
535.578	0.783
544.617	0.783
553.656	0.777
562.694	0.753
571.733	0.604
580.771	0.712
589.81	0.78
598.848	0.78
607.887	0.776
616.925	0.733
625.964	0.658
635.002	0.746
644.041	0.755
653.079	0.744
662.118	0.684
671.157	0.645
680.195	0.744
689.234	0.742
698.272	0.726
707.311	0.705
716.349	0.585
725.388	0.555
734.426	0.619
743.465	0.75
752.503	0.742
761.542	0.701
770.581	0.518
779.619	0.671
788.658	0.597
797.696	0.648
806.735	0.773
815.773	0.759
824.812	0.747
833.85	0.731
842.889	0.601
851.927	0.456
860.966	0.59
870.005	0.583
879.043	0.642
888.082	0.74
897.12	0.701
906.159	0.633
915.197	0.622
924.236	0.656
933.274	0.72
942.313	0.665
951.351	0.49
960.39	0.471
969.429	0.598
978.467	0.695
987.506	0.728
996.544	0.709
1005.58	0.696
1014.62	0.687
1023.66	0.707
1032.7	0.744
1041.74	0.732
1050.78	0.704
1059.81	0.621
1068.85	0.518
1077.89	0.231
1086.93	0.351
1095.97	0.475
1105.01	0.679
1114.05	0.619
1123.08	0.635
1132.12	0.687
1141.16	0.648
1150.2	0.735
1159.24	0.769
1168.28	0.765
1177.32	0.755
1186.35	0.734
1195.39	0.587
1204.43	0.665
1213.47	0.62
1222.51	0.699
1231.55	0.666
1240.58	0.531
1249.62	0.576
1258.66	0.645
1267.7	0.573
1276.74	0.591
1285.78	0.651
1294.82	0.683
1303.85	0.587
1312.89	0.64
1321.93	0.561
1330.97	0.545
1340.01	0.54
1349.05	0.329
1358.09	0.566
1367.12	0.657
1376.16	0.645
1385.2	0.625
1394.24	0.438
1403.28	0.366
1412.32	0.272
1421.36	0.492
1430.39	0.606
1439.43	0.517
1448.47	0.507
1457.51	0.528
1466.55	0.532
1475.59	0.511
1484.63	0.434
1493.66	0.275
1502.7	0.2
1511.74	0.299
1520.78	0.413
1529.82	0.38
1538.86	0.267
1547.9	0.306
1556.93	0.47
1565.97	0.588
1575.01	0.672
1584.05	0.622
1593.09	0.554
1602.13	0.348
1611.17	0.174
1620.2	0.111
1629.24	0.151
1638.28	0.275
1647.32	0.442
1656.36	0.516
1665.4	0.588
1674.43	0.645
1683.47	0.71
1692.51	0.73
1701.55	0.736
1710.59	0.727
1719.63	0.623
1728.67	0.524
1737.7	0.238
1746.74	0.351
1755.78	0.585
1764.82	0.688
1773.86	0.758
1782.9	0.78
1791.94	0.804
1800.97	0.816
1810.01	0.825
1819.05	0.83
1828.09	0.841
1837.13	0.848
1846.17	0.853
1855.21	0.857
1864.24	0.861
1873.28	0.865
1882.32	0.867
1891.36	0.868
1900.4	0.869
1909.44	0.867
1918.48	0.864
1927.51	0.863
1936.55	0.865
1945.59	0.867
1954.63	0.871
1963.67	0.873
1972.71	0.876
1981.75	0.876
1990.78	0.876
1999.82	0.873
2008.86	0.869
2017.9	0.867
2026.94	0.867
2035.98	0.867
2045.02	0.87
2054.05	0.87
2063.09	0.87
2072.13	0.868
2081.17	0.869
2090.21	0.867
2099.25	0.866
2108.29	0.866
2117.32	0.866
2126.36	0.866
2135.4	0.865
2144.44	0.865
2153.48	0.864
2162.52	0.864
2171.55	0.864
2180.59	0.863
2189.63	0.862
2198.67	0.862
2207.71	0.861
2216.75	0.861
2225.79	0.86
2234.82	0.859
2243.86	0.858
2252.9	0.858
2261.94	0.858
2270.98	0.857
2280.02	0.856
2289.06	0.855
2298.09	0.855
2307.13	0.854
2316.17	0.854
2325.21	0.854
2334.25	0.853
2343.29	0.853
2352.33	0.853
2361.36	0.853
2370.4	0.853
2379.44	0.853
2388.48	0.852
2397.52	0.852
2406.56	0.852
2415.6	0.852
2424.63	0.851
2433.67	0.851
2442.71	0.849
2451.75	0.849
2460.79	0.848
2469.83	0.847
2478.87	0.845
2487.9	0.843
2496.94	0.842
2505.98	0.84
2515.02	0.839
2524.06	0.838
2533.1	0.837
2542.14	0.837
2551.17	0.837
2560.21	0.837
2569.25	0.837
2578.29	0.837
2587.33	0.837
2596.37	0.837
2605.41	0.836
2614.44	0.835
2623.48	0.835
2632.52	0.834
2641.56	0.833
2650.6	0.832
2659.64	0.831
2668.67	0.831
2677.71	0.83
2686.75	0.828
2695.79	0.825
2704.83	0.825
2713.87	0.823
2722.91	0.822
2731.94	0.822
2740.98	0.819
2750.02	0.816
2759.06	0.811
2768.1	0.805
2777.14	0.804
2786.18	0.804
2795.21	0.802
2804.25	0.798
2813.29	0.794
2822.33	0.789
2831.37	0.78
2840.41	0.771
2849.45	0.759
2858.48	0.741
2867.52	0.739
2876.56	0.736
2885.6	0.732
2894.64	0.725
2903.68	0.714
2912.72	0.7
2921.75	0.66
2930.79	0.638
2939.83	0.652
2948.87	0.672
2957.91	0.687
2966.95	0.701
2975.99	0.714
2985.02	0.713
2994.06	0.702
3003.1	0.684
3012.14	0.672
3021.18	0.669
3030.22	0.665
3039.26	0.666
3048.29	0.671
3057.33	0.672
3066.37	0.672
3075.41	0.669
3084.45	0.663
3093.49	0.637
3102.52	0.65
3111.56	0.678
3120.6	0.684
3129.64	0.675
3138.68	0.661
3147.72	0.649
3156.76	0.627
3165.79	0.61
3174.83	0.606
3183.87	0.609
3192.91	0.59
3201.95	0.573
3210.99	0.561
3220.03	0.558
3229.06	0.57
3238.1	0.588
3247.14	0.605
3256.18	0.635
3265.22	0.663
3274.26	0.686
3283.3	0.705
3292.33	0.717
3301.37	0.723
3310.41	0.73
3319.45	0.742
3328.49	0.746
3337.53	0.747
3346.57	0.745
3355.6	0.743
3364.64	0.741
3373.68	0.741
3382.72	0.741
3391.76	0.741
3400.8	0.74
3409.84	0.739
3418.87	0.738
3427.91	0.738
3436.95	0.74
3445.99	0.746
3455.03	0.748
3464.07	0.75
3473.11	0.752
3482.14	0.754
3491.18	0.756
3500.22	0.76
3509.26	0.765
3518.3	0.769
3527.34	0.774
3536.38	0.778
3545.41	0.785
3554.45	0.789
3563.49	0.794
3572.53	0.798
3581.57	0.803
3590.61	0.807
3599.64	0.812
3608.68	0.818
3617.72	0.822
3626.76	0.827
3635.8	0.829
3644.84	0.831
3653.88	0.832
3662.91	0.832
3671.95	0.831
3680.99	0.833
3690.03	0.834
3699.07	0.837
3708.11	0.84
3717.15	0.838
3726.18	0.836
3735.22	0.834
3744.26	0.833
3753.3	0.835
3762.34	0.84
3771.38	0.842
3780.42	0.841
3789.45	0.839
