Infrared Spectrum: UREA, 1-(4-AMINO-3,5-DICHLOROPHENYL)-3-(2-CHLOROETHYL)-
Formula: C9 H10 Cl3 N3 O
CAS: 13908-36-6
State: SOLID (1 mg / 650 mg KBr DISC)
Class: COBLENTZ III
Instrument: PERKIN-ELMER 521 (GRATING)
Instrument parameters: FILTERS AT 3150, 2500, 2000, 1150, 700, 410 CM ^-^1, GRATING CHANGES AT 2000, 630 CM^-^1
Sampling: TRANSMISSION
Resolution: 4
Origin: SOUTHERN RES. INSTITUTE
1/CM	TRANSMITTANCE
238.738	0.19
247.905	0.204
257.072	0.251
266.239	0.317
275.406	0.377
284.573	0.43
293.741	0.471
302.908	0.509
312.075	0.531
321.242	0.562
330.409	0.61
339.576	0.642
348.743	0.661
357.91	0.674
367.077	0.679
376.244	0.705
385.411	0.717
394.578	0.737
403.746	0.738
412.913	0.736
422.08	0.732
431.247	0.702
440.414	0.672
449.581	0.72
458.748	0.738
467.915	0.734
477.082	0.738
486.249	0.755
495.416	0.751
504.583	0.761
513.751	0.763
522.918	0.762
532.085	0.757
541.252	0.75
550.419	0.747
559.586	0.745
568.753	0.734
577.92	0.73
587.087	0.725
596.254	0.701
605.421	0.67
614.588	0.638
623.756	0.606
632.923	0.628
642.09	0.616
651.257	0.609
660.424	0.626
669.591	0.67
678.758	0.698
687.925	0.723
697.092	0.729
706.259	0.721
715.426	0.726
724.594	0.759
733.761	0.761
742.928	0.751
752.095	0.786
761.262	0.796
770.429	0.823
779.596	0.804
788.763	0.67
797.93	0.751
807.097	0.832
816.264	0.852
825.431	0.854
834.599	0.852
843.766	0.828
852.933	0.823
862.1	0.804
871.267	0.723
880.434	0.802
889.601	0.861
898.768	0.864
907.935	0.865
917.102	0.863
926.269	0.846
935.436	0.844
944.604	0.838
953.771	0.812
962.938	0.836
972.105	0.835
981.272	0.822
990.439	0.831
999.606	0.832
1008.77	0.831
1017.94	0.83
1027.11	0.825
1036.27	0.817
1045.44	0.812
1054.61	0.794
1063.78	0.74
1072.94	0.714
1082.11	0.762
1091.28	0.802
1100.44	0.815
1109.61	0.821
1118.78	0.821
1127.95	0.817
1137.11	0.821
1146.28	0.822
1155.45	0.817
1164.61	0.811
1173.78	0.805
1182.95	0.78
1192.11	0.765
1201.28	0.761
1210.45	0.72
1219.62	0.709
1228.78	0.67
1237.95	0.579
1247.12	0.521
1256.28	0.553
1265.45	0.576
1274.62	0.719
1283.79	0.742
1292.95	0.701
1302.12	0.66
1311.29	0.738
1320.45	0.788
1329.62	0.811
1338.79	0.819
1347.96	0.82
1357.12	0.81
1366.29	0.767
1375.46	0.803
1384.62	0.792
1393.79	0.671
1402.96	0.746
1412.12	0.805
1421.29	0.775
1430.46	0.713
1439.63	0.698
1448.79	0.69
1457.96	0.745
1467.13	0.645
1476.29	0.405
1485.46	0.443
1494.63	0.64
1503.8	0.599
1512.96	0.634
1522.13	0.663
1531.3	0.631
1540.46	0.558
1549.63	0.471
1558.8	0.392
1567.97	0.237
1577.13	0.246
1586.3	0.373
1595.47	0.425
1604.63	0.329
1613.8	0.248
1622.97	0.298
1632.13	0.392
1641.3	0.575
1650.47	0.672
1659.64	0.729
1668.8	0.759
1677.97	0.792
1687.14	0.809
1696.3	0.845
1705.47	0.867
1714.64	0.877
1723.81	0.88
1732.97	0.879
1742.14	0.88
1751.31	0.887
1760.47	0.893
1769.64	0.895
1778.81	0.896
1787.98	0.898
1797.14	0.902
1806.31	0.902
1815.48	0.902
1824.64	0.901
1833.81	0.899
1842.98	0.899
1852.15	0.899
1861.31	0.899
1870.48	0.901
1879.65	0.902
1888.81	0.902
1897.98	0.899
1907.15	0.899
1916.31	0.9
1925.48	0.901
1934.65	0.902
1943.82	0.902
1952.98	0.902
1962.15	0.902
1971.32	0.9
1980.48	0.896
1989.65	0.893
1998.82	0.892
2007.99	0.89
2017.15	0.89
2026.32	0.89
2035.49	0.89
2044.65	0.89
2053.82	0.89
2062.99	0.89
2072.16	0.89
2081.32	0.89
2090.49	0.89
2099.66	0.89
2108.82	0.889
2117.99	0.889
2127.16	0.889
2136.32	0.889
2145.49	0.889
2154.66	0.889
2163.83	0.887
2172.99	0.886
2182.16	0.886
2191.33	0.886
2200.49	0.886
2209.66	0.886
2218.83	0.886
2228	0.885
2237.16	0.885
2246.33	0.885
2255.5	0.885
2264.66	0.886
2273.83	0.886
2283	0.886
2292.17	0.885
2301.33	0.885
2310.5	0.884
2319.67	0.883
2328.83	0.883
2338	0.883
2347.17	0.883
2356.33	0.883
2365.5	0.883
2374.67	0.883
2383.84	0.884
2393	0.884
2402.17	0.884
2411.34	0.884
2420.5	0.884
2429.67	0.884
2438.84	0.884
2448.01	0.883
2457.17	0.881
2466.34	0.879
2475.51	0.877
2484.67	0.874
2493.84	0.874
2503.01	0.872
2512.18	0.871
2521.34	0.871
2530.51	0.871
2539.68	0.871
2548.84	0.871
2558.01	0.871
2567.18	0.871
2576.34	0.871
2585.51	0.869
2594.68	0.868
2603.85	0.866
2613.01	0.866
2622.18	0.867
2631.35	0.867
2640.51	0.867
2649.68	0.867
2658.85	0.866
2668.02	0.866
2677.18	0.866
2686.35	0.865
2695.52	0.864
2704.68	0.864
2713.85	0.864
2723.02	0.864
2732.19	0.862
2741.35	0.861
2750.52	0.86
2759.69	0.86
2768.85	0.857
2778.02	0.854
2787.19	0.851
2796.35	0.847
2805.52	0.842
2814.69	0.84
2823.86	0.839
2833.02	0.837
2842.19	0.836
2851.36	0.832
2860.52	0.832
2869.69	0.833
2878.86	0.833
2888.03	0.83
2897.19	0.819
2906.36	0.803
2915.53	0.8
2924.69	0.798
2933.86	0.798
2943.03	0.797
2952.2	0.783
2961.36	0.792
2970.53	0.808
2979.7	0.814
2988.86	0.811
2998.03	0.806
3007.2	0.802
3016.36	0.801
3025.53	0.798
3034.7	0.798
3043.87	0.797
3053.03	0.794
3062.2	0.784
3071.37	0.781
3080.53	0.77
3089.7	0.766
3098.87	0.749
3108.04	0.748
3117.2	0.755
3126.37	0.768
3135.54	0.764
3144.7	0.741
3153.87	0.734
3163.04	0.727
3172.21	0.723
3181.37	0.719
3190.54	0.708
3199.71	0.694
3208.87	0.682
3218.04	0.666
3227.21	0.644
3236.37	0.621
3245.54	0.597
3254.71	0.574
3263.88	0.534
3273.04	0.497
3282.21	0.456
3291.38	0.406
3300.54	0.39
3309.71	0.385
3318.88	0.388
3328.05	0.437
3337.21	0.473
3346.38	0.519
3355.55	0.561
3364.71	0.597
3373.88	0.63
3383.05	0.663
3392.22	0.693
3401.38	0.71
3410.55	0.71
3419.72	0.697
3428.88	0.653
3438.05	0.674
3447.22	0.713
3456.38	0.725
3465.55	0.729
3474.72	0.735
3483.89	0.745
3493.05	0.755
3502.22	0.762
3511.39	0.768
3520.55	0.776
3529.72	0.786
3538.89	0.79
3548.06	0.795
3557.22	0.801
3566.39	0.806
3575.56	0.811
3584.72	0.817
3593.89	0.823
3603.06	0.836
3612.23	0.841
3621.39	0.844
3630.56	0.851
3639.73	0.855
3648.89	0.857
3658.06	0.857
3667.23	0.855
3676.39	0.853
3685.56	0.856
3694.73	0.861
3703.9	0.864
3713.06	0.864
3722.23	0.862
3731.4	0.861
3740.56	0.858
3749.73	0.857
3758.9	0.86
3768.07	0.863
3777.23	0.862
3786.4	0.859
