Infrared Spectrum: 1,4-Piperazinedicarboxamide, N,N'-bis-(2-chloroethyl)-N,N'-dinitroso-
Formula: C10 H16 Cl2 N6 O4
CAS: 13907-80-7
State: SOLID (1 mg / 650 mg KBr DISC)
Class: COBLENTZ III
Instrument: PERKIN-ELMER 221 (GRATING)
Instrument parameters: FILTER AT 2490, 980 CM^-^1. GRATING 4000-1428 CM^-^1, NaCl PRISM 1428-650 CM^-^1
Sampling: TRANSMISSION
Resolution: 2
Origin: SOUTHERN RESEARCH INSTITUTE
1/CM	TRANSMITTANCE
616.717	0.8132
625.744	0.7958
634.772	0.6858
643.799	0.4897
652.826	0.7259
661.854	0.8335
670.881	0.8751
679.908	0.8841
688.936	0.8872
697.963	0.887
706.991	0.8819
716.018	0.8663
725.045	0.8247
734.073	0.6441
743.1	0.4277
752.127	0.563
761.155	0.8856
770.182	0.8949
779.209	0.8922
788.237	0.8875
797.264	0.8887
806.291	0.8911
815.319	0.8859
824.346	0.8765
833.374	0.8662
842.401	0.8536
851.428	0.834
860.456	0.7403
869.483	0.8219
878.51	0.7853
887.538	0.7471
896.565	0.6638
905.592	0.3064
914.62	0.377
923.647	0.7385
932.674	0.5918
941.702	0.3752
950.729	0.7477
959.757	0.7386
968.784	0.5829
977.811	0.2912
986.839	0.1991
995.866	0.3764
1004.89	0.3613
1013.92	0.7108
1022.95	0.8165
1031.98	0.7753
1041	0.6706
1050.03	0.8395
1059.06	0.8197
1068.08	0.7594
1077.11	0.6028
1086.14	0.2507
1095.17	0.6154
1104.19	0.8485
1113.22	0.8485
1122.25	0.8245
1131.28	0.773
1140.3	0.702
1149.33	0.4204
1158.36	0.3227
1167.39	0.2484
1176.41	0.5485
1185.44	0.7889
1194.47	0.8352
1203.5	0.8373
1212.52	0.861
1221.55	0.8512
1230.58	0.8385
1239.6	0.8114
1248.63	0.7863
1257.66	0.567
1266.69	0.4672
1275.71	0.445
1284.74	0.502
1293.77	0.6166
1302.8	0.8158
1311.82	0.7906
1320.85	0.5921
1329.88	0.5399
1338.91	0.8056
1347.93	0.7891
1356.96	0.6455
1365.99	0.6123
1375.01	0.777
1384.04	0.7434
1393.07	0.6849
1402.1	0.4445
1411.12	0.1166
1420.15	0.1276
1429.18	0.1681
1438.21	0.4627
1447.23	0.3246
1456.26	0.1932
1465.29	0.5553
1474.32	0.4443
1483.34	0.1882
1492.37	0.3905
1501.4	0.6577
1510.43	0.6753
1519.45	0.7636
1528.48	0.8425
1537.51	0.876
1546.53	0.8856
1555.56	0.8849
1564.59	0.8818
1573.62	0.8757
1582.64	0.866
1591.67	0.854
1600.7	0.8398
1609.73	0.8226
1618.75	0.8024
1627.78	0.7737
1636.81	0.7345
1645.84	0.677
1654.86	0.6413
1663.89	0.5791
1672.92	0.4647
1681.95	0.1657
1690.97	0.0231
1700	0.0741
1709.03	0.2829
1718.05	0.5916
1727.08	0.6457
1736.11	0.7032
1745.14	0.7322
1754.16	0.7875
1763.19	0.8109
1772.22	0.8319
1781.25	0.8459
1790.27	0.8588
1799.3	0.8684
1808.33	0.8765
1817.36	0.8843
1826.38	0.893
1835.41	0.8975
1844.44	0.9012
1853.46	0.9038
1862.49	0.906
1871.52	0.908
1880.55	0.91
1889.57	0.9155
1898.6	0.9174
1907.63	0.9172
1916.66	0.9172
1925.68	0.9171
1934.71	0.9164
1943.74	0.9157
1952.77	0.915
1961.79	0.9143
1970.82	0.9122
1979.85	0.9067
1988.88	0.9025
1997.9	0.899
2006.93	0.8977
2015.96	0.8972
2024.98	0.8968
2034.01	0.8963
2043.04	0.8959
2052.07	0.8954
2061.09	0.895
2070.12	0.8947
2079.15	0.8949
2088.18	0.895
2097.2	0.8951
2106.23	0.8953
2115.26	0.8956
2124.29	0.8958
2133.31	0.8961
2142.34	0.8963
2151.37	0.8965
2160.39	0.8967
2169.42	0.8969
2178.45	0.897
2187.48	0.8972
2196.5	0.8972
2205.53	0.8971
2214.56	0.897
2223.59	0.8969
2232.61	0.8968
2241.64	0.8965
2250.67	0.8962
2259.7	0.8959
2268.72	0.8956
2277.75	0.8953
2286.78	0.8951
2295.81	0.8949
2304.83	0.8947
2313.86	0.8943
2322.89	0.8938
2331.91	0.8933
2340.94	0.893
2349.97	0.8931
2359	0.8936
2368.02	0.8941
2377.05	0.8946
2386.08	0.8951
2395.11	0.8951
2404.13	0.8951
2413.16	0.8951
2422.19	0.8954
2431.22	0.8958
2440.24	0.8961
2449.27	0.8958
2458.3	0.8947
2467.33	0.8935
2476.35	0.8924
2485.38	0.8908
2494.41	0.8724
2503.43	0.8903
2512.46	0.8892
2521.49	0.8887
2530.52	0.8893
2539.54	0.8894
2548.57	0.8893
2557.6	0.889
2566.63	0.8883
2575.65	0.8872
2584.68	0.8865
2593.71	0.8842
2602.74	0.8824
2611.76	0.8823
2620.79	0.8822
2629.82	0.8823
2638.84	0.8825
2647.87	0.8827
2656.9	0.8828
2665.93	0.8825
2674.95	0.8822
2683.98	0.8819
2693.01	0.8817
2702.04	0.8814
2711.06	0.8813
2720.09	0.8815
2729.12	0.8816
2738.15	0.8817
2747.17	0.8806
2756.2	0.8786
2765.23	0.8754
2774.26	0.8721
2783.28	0.8701
2792.31	0.8697
2801.34	0.8698
2810.36	0.87
2819.39	0.8696
2828.42	0.8663
2837.45	0.8594
2846.47	0.8489
2855.5	0.8425
2864.53	0.8392
2873.56	0.84
2882.58	0.8411
2891.61	0.8401
2900.64	0.8373
2909.67	0.8327
2918.69	0.8246
2927.72	0.7883
2936.75	0.7696
2945.77	0.7839
2954.8	0.7287
2963.83	0.7696
2972.86	0.7999
2981.88	0.8022
2990.91	0.8304
2999.94	0.7677
3008.97	0.8204
3017.99	0.8439
3027.02	0.8537
3036.05	0.8529
3045.08	0.8508
3054.1	0.8592
3063.13	0.8609
3072.16	0.859
3081.19	0.8561
3090.21	0.8528
3099.24	0.8485
3108.27	0.8445
3117.29	0.8441
3126.32	0.8437
3135.35	0.8435
3144.38	0.8441
3153.4	0.8447
3162.43	0.8453
3171.46	0.8447
3180.49	0.844
3189.51	0.8429
3198.54	0.8403
3207.57	0.8373
3216.6	0.8355
3225.62	0.835
3234.65	0.8345
3243.68	0.8319
3252.71	0.8291
3261.73	0.823
3270.76	0.8193
3279.79	0.8169
3288.81	0.8146
3297.84	0.8115
3306.87	0.8085
3315.9	0.8038
3324.92	0.7987
3333.95	0.7931
3342.98	0.7867
3352.01	0.7803
3361.03	0.7714
3370.06	0.7588
3379.09	0.7574
3388.12	0.7577
3397.14	0.7583
3406.17	0.7588
3415.2	0.7559
3424.22	0.754
3433.25	0.7533
3442.28	0.7542
3451.31	0.7552
3460.33	0.7565
3469.36	0.7579
3478.39	0.7594
3487.42	0.7619
3496.44	0.7649
3505.47	0.7683
3514.5	0.7725
3523.53	0.7768
3532.55	0.781
3541.58	0.7853
3550.61	0.7909
3559.64	0.7963
3568.66	0.8014
3577.69	0.8061
3586.72	0.8109
3595.74	0.8155
3604.77	0.8201
3613.8	0.8247
3622.83	0.8298
3631.85	0.835
3640.88	0.8403
3649.91	0.8449
3658.94	0.8484
3667.96	0.852
3676.99	0.851
3686.02	0.8501
3695.05	0.8487
3704.07	0.848
3713.1	0.8508
3722.13	0.8516
3731.15	0.8515
3740.18	0.8504
3749.21	0.8494
3758.24	0.8522
3767.26	0.8536
3776.29	0.8536
3785.32	0.853
3794.35	0.8524
3803.37	0.8517
3812.4	0.8509
3821.43	0.8501
3830.46	0.8496
3839.48	0.849
3848.51	0.8485
3857.54	0.8479
3866.57	0.8471
3875.59	0.8464
3884.62	0.8457
3893.65	0.8451
3902.67	0.8449
3911.7	0.8447
3920.73	0.8447
3929.76	0.8448
3938.78	0.845
3947.81	0.8445
3956.84	0.844
3965.87	0.8435
3974.89	0.8426
3983.92	0.8415
3992.95	0.8399
4001.98	0.838
