Infrared Spectrum: Urea, 1-(2-chloroethyl)-3-(5,6,7,8-tetrahydro-2-naphthyl)-
Formula: C13 H17 Cl N2 O
CAS: 13908-56-0
State: SOLID (1 mg / 650 mg KBr DISC)
Class: COBLENTZ III
Instrument: PERKIN-ELMER 521 (GRATING)
Instrument parameters: FILTERS AT 3150, 2500, 2000, 1150, 700, 410. GRATING CHANGES: 2000, 630
Sampling: TRANSMISSION
Resolution: 2
Origin: SOUTHERN RESEARCH INSTITUTE
1/CM	TRANSMITTANCE
251	0.2611
260	0.328
269	0.3811
278	0.4648
287	0.5266
296	0.5612
305	0.5746
314	0.5841
323	0.6324
332	0.6874
341	0.6986
350	0.7259
359	0.7654
368	0.7853
377	0.7983
386	0.7879
395	0.7619
404	0.8196
413	0.8306
422	0.8246
431	0.7632
440	0.8102
449	0.8139
458	0.8479
467	0.8447
476	0.8163
485	0.809
494	0.8334
503	0.8296
512	0.8238
521	0.8135
530	0.8025
539	0.7927
548	0.7797
557	0.7713
566	0.8025
575	0.8032
584	0.7922
593	0.787
602	0.7083
611	0.7519
620	0.732
629	0.6892
638	0.6381
647	0.5791
656	0.5426
665	0.5671
674	0.6236
683	0.7001
692	0.7451
701	0.7643
710	0.7269
719	0.7836
728	0.7103
737	0.8512
746	0.8761
755	0.8602
764	0.8296
773	0.7616
782	0.7326
791	0.8675
800	0.8698
809	0.8701
818	0.876
827	0.7855
836	0.802
845	0.8931
854	0.8713
863	0.762
872	0.8861
881	0.9005
890	0.8901
899	0.7793
908	0.8454
917	0.8674
926	0.8892
935	0.8796
944	0.8896
953	0.8856
962	0.883
971	0.8718
980	0.869
989	0.8509
998	0.8658
1007	0.8606
1016	0.8558
1025	0.848
1034	0.842
1043	0.8377
1052	0.822
1061	0.8137
1070	0.8244
1079	0.825
1088	0.8237
1097	0.8125
1106	0.8
1115	0.8063
1124	0.789
1133	0.7896
1142	0.802
1151	0.779
1160	0.7893
1169	0.7746
1178	0.732
1187	0.7064
1196	0.7144
1205	0.7509
1214	0.7231
1223	0.6386
1232	0.5243
1241	0.409
1250	0.64
1259	0.6565
1268	0.7502
1277	0.7606
1286	0.6805
1295	0.4919
1304	0.564
1313	0.7459
1322	0.7059
1331	0.7503
1340	0.7982
1349	0.7385
1358	0.7735
1367	0.8187
1376	0.827
1385	0.8112
1394	0.7681
1403	0.6541
1412	0.776
1421	0.7542
1430	0.6057
1439	0.5605
1448	0.7115
1457	0.7528
1466	0.8065
1475	0.791
1484	0.7487
1493	0.6362
1502	0.4135
1511	0.6745
1520	0.6684
1529	0.6027
1538	0.5552
1547	0.5145
1556	0.4157
1565	0.2207
1574	0.2143
1583	0.3872
1592	0.2013
1601	0.2946
1610	0.3155
1619	0.5054
1628	0.3467
1637	0.0973
1646	0.2163
1655	0.4486
1664	0.6353
1673	0.7089
1682	0.7034
1691	0.7882
1700	0.8338
1709	0.8707
1718	0.8955
1727	0.9103
1736	0.9145
1745	0.9187
1754	0.9236
1763	0.9258
1772	0.9269
1781	0.9303
1790	0.9356
1799	0.9414
1808	0.9476
1817	0.9499
1826	0.9508
1835	0.9506
1844	0.9502
1853	0.9498
1862	0.9509
1871	0.9515
1880	0.9511
1889	0.949
1898	0.9459
1907	0.9427
1916	0.9433
1925	0.951
1934	0.9538
1943	0.955
1952	0.9554
1961	0.9557
1970	0.9558
1979	0.956
1988	0.9564
1997	0.9497
2006	0.9417
2015	0.9433
2024	0.9417
2033	0.9405
2042	0.9392
2051	0.9381
2060	0.9368
2069	0.936
2078	0.9352
2087	0.9363
2096	0.937
2105	0.937
2114	0.9356
2123	0.9339
2132	0.9326
2141	0.9317
2150	0.9309
2159	0.9308
2168	0.9307
2177	0.9307
2186	0.9309
2195	0.931
2204	0.9308
2213	0.9307
2222	0.9297
2231	0.9287
2240	0.9281
2249	0.9278
2258	0.9274
2267	0.9271
2276	0.9268
2285	0.9261
2294	0.9254
2303	0.925
2312	0.9245
2321	0.9254
2330	0.9253
2339	0.9242
2348	0.9226
2357	0.9206
2366	0.9188
2375	0.9179
2384	0.9186
2393	0.9194
2402	0.9201
2411	0.9205
2420	0.92
2429	0.9196
2438	0.9184
2447	0.9174
2456	0.9133
2465	0.9112
2474	0.9275
2483	0.9116
2492	0.909
2501	0.9085
2510	0.9078
2519	0.9071
2528	0.9062
2537	0.905
2546	0.9035
2555	0.8996
2564	0.8949
2573	0.8926
2582	0.891
2591	0.889
2600	0.8883
2609	0.8876
2618	0.8873
2627	0.887
2636	0.8859
2645	0.8839
2654	0.881
2663	0.8838
2672	0.8881
2681	0.8868
2690	0.8849
2699	0.8829
2708	0.8805
2717	0.878
2726	0.8756
2735	0.8723
2744	0.8688
2753	0.8645
2762	0.8602
2771	0.8552
2780	0.85
2789	0.8456
2798	0.832
2807	0.8299
2816	0.8257
2825	0.8008
2834	0.7269
2843	0.7043
2852	0.6039
2861	0.6947
2870	0.755
2879	0.7384
2888	0.7288
2897	0.7247
2906	0.6718
2915	0.4817
2924	0.4453
2933	0.5363
2942	0.609
2951	0.7218
2960	0.782
2969	0.8261
2978	0.8514
2987	0.8506
2996	0.8376
3005	0.8234
3014	0.8227
3023	0.8202
3032	0.8053
3041	0.7948
3050	0.7961
3059	0.8004
3068	0.8033
3077	0.8042
3086	0.798
3095	0.7895
3104	0.7778
3113	0.7797
3122	0.7924
3131	0.7888
3140	0.7885
3149	0.7856
3158	0.7765
3167	0.7683
3176	0.741
3185	0.7365
3194	0.7421
3203	0.7409
3212	0.7404
3221	0.7316
3230	0.7135
3239	0.69
3248	0.6627
3257	0.6347
3266	0.6041
3275	0.5662
3284	0.5222
3293	0.4692
3302	0.4065
3311	0.3585
3320	0.3326
3329	0.3338
3338	0.3654
3347	0.4153
3356	0.4752
3365	0.5242
3374	0.5919
3383	0.6826
3392	0.7111
3401	0.7397
3410	0.7633
3419	0.7802
3428	0.789
3437	0.7956
3446	0.8001
3455	0.8047
3464	0.8091
3473	0.8131
3482	0.817
3491	0.8209
3500	0.8248
3509	0.8286
3518	0.832
3527	0.8354
3536	0.8393
3545	0.8435
3554	0.8477
3563	0.8523
3572	0.857
3581	0.8616
3590	0.8658
3599	0.8699
3608	0.8734
3617	0.8766
3626	0.8803
3635	0.8841
3644	0.8865
3653	0.8866
3662	0.8856
3671	0.8912
3680	0.8886
3689	0.8873
3698	0.8904
3707	0.8918
3716	0.8908
3725	0.8918
3734	0.8948
3743	0.8911
3752	0.8879
3761	0.8888
3770	0.8912
3779	0.8916
3788	0.892
3797	0.8924
3806	0.8926
