Infrared Spectrum: 3-HYDROXY-2,2,4,4-TETRAMETHYLCYCLOBUTANONE, OXIME
Formula: C8 H15 N O2
CAS: 13900-80-6
State: SOLID (KBr PELLET)
Melting point: 147.5-149 C
Class: COBLENTZ
Instrument: Not specified, most likely a prism, grating, or hybrid spectrometer.
Sampling: TRANSMISSION
Resolution: 4
Origin: TENNESSEE EASTMAN COMPANY, RESEARCH LABORATORIES
MICROMETERS	TRANSMITTANCE
2.027	0.919
2.06794	0.923
2.10887	0.923
2.14981	0.926
2.19074	0.928
2.23168	0.928
2.27261	0.926
2.31355	0.924
2.35448	0.926
2.39542	0.926
2.43635	0.926
2.47729	0.928
2.51822	0.928
2.55916	0.928
2.60009	0.929
2.64103	0.929
2.68196	0.929
2.7229	0.909
2.76383	0.825
2.80477	0.735
2.8457	0.661
2.88664	0.562
2.92757	0.434
2.96851	0.309
3.00944	0.167
3.05038	0.071
3.09131	0.056
3.13225	0.116
3.17318	0.167
3.21412	0.258
3.25505	0.384
3.29599	0.538
3.33693	0.519
3.37786	0.205
3.4188	0.499
3.45973	0.499
3.50067	0.582
3.5416	0.668
3.58254	0.74
3.62347	0.755
3.66441	0.776
3.70534	0.806
3.74628	0.847
3.78721	0.863
3.82815	0.878
3.86908	0.9
3.91002	0.923
3.95095	0.924
3.99189	0.926
4.03282	0.928
4.07376	0.936
4.11469	0.941
4.15563	0.943
4.19656	0.95
4.2375	0.953
4.27843	0.948
4.31937	0.948
4.3603	0.952
4.40124	0.953
4.44217	0.957
4.48311	0.96
4.52404	0.958
4.56498	0.95
4.60592	0.955
4.64685	0.958
4.68779	0.957
4.72872	0.957
4.76966	0.958
4.81059	0.962
4.85153	0.962
4.89246	0.96
4.9334	0.96
4.97433	0.962
5.01527	0.969
5.0562	0.965
5.09714	0.965
5.13807	0.965
5.17901	0.965
5.21994	0.965
5.26088	0.967
5.30181	0.967
5.34275	0.967
5.38368	0.967
5.42462	0.964
5.46555	0.964
5.50649	0.964
5.54742	0.964
5.58836	0.964
5.62929	0.958
5.67023	0.936
5.71116	0.948
5.7521	0.947
5.79303	0.94
5.83397	0.923
5.87491	0.892
5.91584	0.781
5.95678	0.849
5.99771	0.875
6.03865	0.873
6.07958	0.847
6.12052	0.837
6.16145	0.834
6.20239	0.851
6.24332	0.875
6.28426	0.899
6.32519	0.907
6.36613	0.907
6.40706	0.902
6.448	0.904
6.48893	0.9
6.52987	0.894
6.5708	0.885
6.61174	0.873
6.65267	0.859
6.69361	0.837
6.73454	0.798
6.77548	0.601
6.81641	0.374
6.85735	0.458
6.89828	0.377
6.93922	0.282
6.98015	0.347
7.02109	0.388
7.06202	0.615
7.10296	0.711
7.1439	0.758
7.18483	0.776
7.22577	0.637
7.2667	0.629
7.30764	0.74
7.34857	0.596
7.38951	0.76
7.43044	0.757
7.47138	0.668
7.51231	0.517
7.55325	0.509
7.59418	0.664
7.63512	0.76
7.67605	0.805
7.71699	0.83
7.75792	0.846
7.79886	0.847
7.83979	0.81
7.88073	0.837
7.92166	0.827
7.9626	0.786
8.00353	0.829
8.04447	0.854
8.0854	0.863
8.12634	0.859
8.16727	0.868
8.20821	0.863
8.24914	0.806
8.29008	0.649
8.33101	0.651
8.37195	0.726
8.41289	0.789
8.45382	0.82
8.49476	0.834
8.53569	0.844
8.57663	0.847
8.61756	0.841
8.6585	0.832
8.69943	0.837
8.74037	0.835
8.7813	0.834
8.82224	0.818
8.86317	0.806
8.90411	0.767
8.94504	0.682
8.98598	0.54
9.02691	0.317
9.06785	0.1
9.10878	0.047
9.14972	0.184
9.19065	0.478
9.23159	0.642
9.27252	0.69
9.31346	0.67
9.35439	0.521
9.39533	0.572
9.43626	0.711
9.4772	0.777
9.51813	0.801
9.55907	0.83
9.6	0.842
9.64094	0.847
9.68188	0.859
9.72281	0.859
9.76375	0.861
9.80468	0.841
9.84562	0.673
9.88655	0.758
9.92749	0.841
9.96842	0.861
10.0094	0.883
10.0503	0.885
10.0912	0.887
10.1322	0.885
10.1731	0.887
10.214	0.878
10.255	0.842
10.2959	0.774
10.3368	0.793
10.3778	0.835
10.4187	0.829
10.4596	0.784
10.5006	0.709
10.5415	0.7
10.5824	0.656
10.6234	0.485
10.6643	0.198
10.7053	0.068
10.7462	0.117
10.7871	0.285
10.8281	0.42
10.869	0.408
10.9099	0.316
10.9509	0.391
10.9918	0.5
11.0327	0.617
11.0737	0.69
11.1146	0.753
11.1555	0.796
11.1965	0.818
11.2374	0.846
11.2783	0.859
11.3193	0.868
11.3602	0.878
11.4012	0.89
11.4421	0.897
11.483	0.897
11.524	0.897
11.5649	0.9
11.6058	0.899
11.6468	0.897
11.6877	0.899
11.7286	0.894
11.7696	0.88
11.8105	0.866
11.8514	0.859
11.8924	0.835
11.9333	0.798
11.9742	0.743
12.0152	0.69
12.0561	0.724
12.097	0.788
12.138	0.823
12.1789	0.839
12.2199	0.839
12.2608	0.827
12.3017	0.811
12.3427	0.782
12.3836	0.702
12.4245	0.649
12.4655	0.714
12.5064	0.769
12.5473	0.793
12.5883	0.796
12.6292	0.796
12.6701	0.794
12.7111	0.784
12.752	0.767
12.7929	0.757
12.8339	0.745
12.8748	0.733
12.9158	0.711
12.9567	0.69
12.9976	0.675
13.0386	0.649
13.0795	0.623
13.1204	0.594
13.1614	0.567
13.2023	0.54
13.2432	0.509
13.2842	0.478
13.3251	0.454
13.366	0.441
13.407	0.437
13.4479	0.437
13.4888	0.444
13.5298	0.463
13.5707	0.505
13.6117	0.547
13.6526	0.589
13.6935	0.629
13.7345	0.646
13.7754	0.649
13.8163	0.647
13.8573	0.635
13.8982	0.622
13.9391	0.61
13.9801	0.606
14.021	0.605
14.0619	0.606
14.1029	0.615
14.1438	0.62
14.1847	0.63
14.2257	0.641
14.2666	0.651
14.3075	0.661
14.3485	0.671
14.3894	0.682
14.4304	0.692
14.4713	0.702
14.5122	0.711
14.5532	0.724
14.5941	0.733
14.635	0.736
14.676	0.738
14.7169	0.726
14.7578	0.678
14.7988	0.642
14.8397	0.61
14.8806	0.594
14.9216	0.596
14.9625	0.622
15.0034	0.644
15.0444	0.659
15.0853	0.675
15.1263	0.678
15.1672	0.682
15.2081	0.687
15.2491	0.69
15.29	0.694
15.3309	0.695
15.3719	0.699
15.4128	0.7
15.4537	0.7
15.4947	0.7
15.5356	0.702
15.5765	0.702
15.6175	0.702
15.6584	0.702
15.6993	0.702
15.7403	0.702
15.7812	0.702
15.8221	0.702
15.8631	0.702
15.904	0.704
15.945	0.705
