Infrared Spectrum: UREA, 1,3-BIS (2-FLUOROETHYL)-
Formula: C5 H10 F2 N2 O
CAS: 13907-92-1
State: SOLID (1 mg / 650 mg KBr DISC)
Class: COBLENTZ III
Instrument: PERKIN-ELMER 521 (GRATING)
Instrument parameters: FILTERS AT 3150, 2500, 2000, 1150, 700, 410 CM ^-^1, GRATING CHANGES AT 2000, 630 CM^-^1
Sampling: TRANSMISSION
Resolution: 4
Origin: SOUTHERN RES. INSTITUTE
1/CM	TRANSMITTANCE
190.718	0.246
199.953	0.254
209.188	0.27
218.423	0.3
227.658	0.328
236.893	0.375
246.129	0.428
255.364	0.48
264.599	0.522
273.834	0.556
283.069	0.628
292.304	0.668
301.539	0.705
310.774	0.727
320.009	0.754
329.244	0.772
338.479	0.789
347.715	0.802
356.95	0.802
366.185	0.773
375.42	0.799
384.655	0.852
393.89	0.873
403.125	0.887
412.36	0.889
421.595	0.887
430.83	0.885
440.065	0.882
449.301	0.868
458.536	0.872
467.771	0.871
477.006	0.866
486.241	0.819
495.476	0.667
504.711	0.672
513.946	0.83
523.181	0.845
532.416	0.808
541.652	0.765
550.887	0.787
560.122	0.806
569.357	0.802
578.592	0.789
587.827	0.771
597.062	0.753
606.297	0.734
615.532	0.697
624.767	0.68
634.002	0.676
643.238	0.677
652.473	0.688
661.708	0.733
670.943	0.772
680.178	0.777
689.413	0.798
698.648	0.825
707.883	0.843
717.118	0.871
726.353	0.894
735.588	0.907
744.824	0.913
754.059	0.915
763.294	0.915
772.529	0.927
781.764	0.936
790.999	0.936
800.234	0.933
809.469	0.907
818.704	0.669
827.939	0.812
837.174	0.873
846.41	0.897
855.645	0.896
864.88	0.817
874.115	0.84
883.35	0.712
892.585	0.868
901.82	0.771
911.055	0.888
920.29	0.926
929.525	0.93
938.76	0.928
947.996	0.917
957.231	0.902
966.466	0.886
975.701	0.855
984.936	0.7
994.171	0.525
1003.41	0.629
1012.64	0.677
1021.88	0.722
1031.11	0.654
1040.35	0.544
1049.58	0.5
1058.82	0.603
1068.05	0.744
1077.29	0.806
1086.52	0.82
1095.76	0.823
1104.99	0.805
1114.23	0.713
1123.46	0.767
1132.7	0.828
1141.93	0.85
1151.17	0.86
1160.4	0.863
1169.64	0.863
1178.87	0.863
1188.11	0.86
1197.34	0.857
1206.58	0.854
1215.81	0.838
1225.05	0.818
1234.28	0.741
1243.52	0.702
1252.75	0.652
1261.99	0.671
1271.22	0.659
1280.46	0.471
1289.69	0.537
1298.93	0.726
1308.16	0.753
1317.4	0.786
1326.63	0.808
1335.87	0.825
1345.1	0.834
1354.34	0.83
1363.57	0.766
1372.81	0.835
1382.04	0.847
1391.28	0.742
1400.52	0.74
1409.75	0.842
1418.99	0.759
1428.22	0.583
1437.46	0.643
1446.69	0.771
1455.93	0.84
1465.16	0.735
1474.4	0.822
1483.63	0.867
1492.87	0.88
1502.1	0.866
1511.34	0.843
1520.57	0.821
1529.81	0.757
1539.04	0.595
1548.28	0.675
1557.51	0.671
1566.75	0.588
1575.98	0.419
1585.22	0.272
1594.45	0.24
1603.69	0.289
1612.92	0.337
1622.16	0.271
1631.39	0.151
1640.63	0.213
1649.86	0.295
1659.1	0.368
1668.33	0.461
1677.57	0.552
1686.8	0.61
1696.04	0.661
1705.27	0.726
1714.51	0.757
1723.74	0.774
1732.98	0.796
1742.21	0.801
1751.45	0.819
1760.68	0.832
1769.92	0.842
1779.15	0.853
1788.39	0.856
1797.62	0.864
1806.86	0.868
1816.09	0.875
1825.33	0.88
1834.56	0.886
1843.8	0.888
1853.03	0.89
1862.27	0.892
1871.5	0.894
1880.74	0.894
1889.98	0.896
1899.21	0.897
1908.45	0.899
1917.68	0.903
1926.92	0.906
1936.15	0.907
1945.39	0.908
1954.62	0.908
1963.86	0.909
1973.09	0.909
1982.33	0.907
1991.56	0.905
2000.8	0.905
2010.03	0.905
2019.27	0.905
2028.5	0.906
2037.74	0.906
2046.97	0.907
2056.21	0.907
2065.44	0.907
2074.68	0.908
2083.91	0.909
2093.15	0.91
2102.38	0.91
2111.62	0.91
2120.85	0.91
2130.09	0.911
2139.32	0.911
2148.56	0.911
2157.79	0.911
2167.03	0.911
2176.26	0.911
2185.5	0.911
2194.73	0.911
2203.97	0.911
2213.2	0.91
2222.44	0.91
2231.67	0.91
2240.91	0.91
2250.14	0.91
2259.38	0.91
2268.61	0.91
2277.85	0.91
2287.08	0.91
2296.32	0.91
2305.55	0.91
2314.79	0.91
2324.02	0.91
2333.26	0.91
2342.49	0.911
2351.73	0.911
2360.96	0.912
2370.2	0.912
2379.43	0.912
2388.67	0.912
2397.91	0.912
2407.14	0.912
2416.38	0.912
2425.61	0.912
2434.85	0.91
2444.08	0.91
2453.32	0.909
2462.55	0.909
2471.79	0.909
2481.02	0.908
2490.26	0.908
2499.49	0.908
2508.73	0.908
2517.96	0.908
2527.2	0.908
2536.43	0.908
2545.67	0.908
2554.9	0.908
2564.14	0.908
2573.37	0.908
2582.61	0.908
2591.84	0.908
2601.08	0.908
2610.31	0.908
2619.55	0.907
2628.78	0.907
2638.02	0.906
2647.25	0.905
2656.49	0.905
2665.72	0.904
2674.96	0.904
2684.19	0.904
2693.43	0.903
2702.66	0.903
2711.9	0.902
2721.13	0.902
2730.37	0.901
2739.6	0.901
2748.84	0.899
2758.07	0.898
2767.31	0.897
2776.54	0.894
2785.78	0.891
2795.01	0.886
2804.25	0.879
2813.48	0.873
2822.72	0.868
2831.95	0.863
2841.19	0.861
2850.42	0.866
2859.66	0.868
2868.89	0.865
2878.13	0.846
2887.37	0.829
2896.6	0.821
2905.84	0.815
2915.07	0.808
2924.31	0.764
2933.54	0.769
2942.78	0.78
2952.01	0.73
2961.25	0.709
2970.48	0.752
2979.72	0.713
2988.95	0.715
2998.19	0.789
3007.42	0.836
3016.66	0.834
3025.89	0.816
3035.13	0.792
3044.36	0.775
3053.6	0.8
3062.83	0.826
3072.07	0.84
3081.3	0.85
3090.54	0.851
3099.77	0.848
3109.01	0.845
3118.24	0.842
3127.48	0.809
3136.71	0.766
3145.95	0.773
3155.18	0.783
3164.42	0.786
3173.65	0.786
3182.89	0.784
3192.12	0.782
3201.36	0.789
3210.59	0.793
3219.83	0.788
3229.06	0.778
3238.3	0.757
3247.53	0.732
3256.77	0.706
3266	0.675
3275.24	0.644
3284.47	0.611
3293.71	0.573
3302.94	0.519
3312.18	0.46
3321.41	0.387
3330.65	0.28
3339.88	0.25
3349.12	0.263
3358.35	0.323
3367.59	0.391
3376.82	0.452
3386.06	0.522
3395.3	0.567
3404.53	0.608
3413.77	0.64
3423	0.671
3432.24	0.696
3441.47	0.713
3450.71	0.727
3459.94	0.738
3469.18	0.748
3478.41	0.756
3487.65	0.764
3496.88	0.769
3506.12	0.775
3515.35	0.782
3524.59	0.788
3533.82	0.794
3543.06	0.801
3552.29	0.808
3561.53	0.812
3570.76	0.82
3580	0.823
3589.23	0.828
3598.47	0.831
3607.7	0.839
3616.94	0.843
3626.17	0.847
3635.41	0.85
3644.64	0.852
3653.88	0.853
3663.11	0.855
3672.35	0.856
3681.58	0.859
3690.82	0.863
3700.05	0.865
3709.29	0.866
3718.52	0.866
3727.76	0.864
3736.99	0.861
3746.23	0.863
3755.46	0.866
3764.7	0.867
3773.93	0.868
3783.17	0.867
3792.4	0.866
