Infrared Spectrum: BENZOIC ACID, p-[3-(2-CHLOROETHYL)-3-NITROSOUREIDO]-
Formula: C10 H10 Cl N3 O4
CAS: 13909-25-6
State: SOLID (0.7 mg / 500 mg KBr DISC)
Class: COBLENTZ III
Instrument: PERKIN-ELMER 21 (GRATING)
Instrument parameters: FILTER AT 1100 CM ^-^1, NaCl PRISM
Sampling: TRANSMISSION
Resolution: 4
Origin: SOUTHERN RES. INSTITUTE
1/CM	TRANSMITTANCE
605.269	0.821
614.437	0.815
623.604	0.799
632.772	0.764
641.939	0.716
651.107	0.688
660.274	0.593
669.442	0.616
678.609	0.541
687.777	0.547
696.944	0.705
706.112	0.809
715.28	0.832
724.447	0.828
733.615	0.812
742.782	0.702
751.95	0.672
761.117	0.398
770.285	0.595
779.452	0.468
788.62	0.487
797.787	0.889
806.955	0.873
816.123	0.847
825.29	0.768
834.458	0.774
843.625	0.741
852.793	0.683
861.96	0.381
871.128	0.485
880.295	0.659
889.463	0.519
898.63	0.267
907.798	0.326
916.966	0.659
926.133	0.638
935.301	0.602
944.468	0.563
953.636	0.5
962.803	0.535
971.971	0.614
981.138	0.571
990.306	0.429
999.473	0.289
1008.64	0.464
1017.81	0.812
1026.98	0.81
1036.14	0.788
1045.31	0.76
1054.48	0.702
1063.65	0.627
1072.81	0.509
1081.98	0.279
1091.15	0.149
1100.32	0.211
1109.48	0.416
1118.65	0.658
1127.82	0.605
1136.99	0.635
1146.15	0.757
1155.32	0.732
1164.49	0.595
1173.66	0.369
1182.82	0.148
1191.99	0.73
1201.16	0.684
1210.33	0.614
1219.49	0.611
1228.66	0.615
1237.83	0.468
1247	0.335
1256.16	0.439
1265.33	0.523
1274.5	0.289
1283.67	0.213
1292.83	0.162
1302	0.211
1311.17	0.308
1320.34	0.137
1329.5	0.211
1338.67	0.493
1347.84	0.579
1357.01	0.624
1366.18	0.6
1375.34	0.556
1384.51	0.522
1393.68	0.48
1402.85	0.378
1412.01	0.28
1421.18	0.203
1430.35	0.149
1439.52	0.229
1448.68	0.491
1457.85	0.65
1467.02	0.649
1476.19	0.519
1485.35	0.387
1494.52	0.306
1503.69	0.115
1512.86	0.223
1522.02	0.255
1531.19	0.156
1540.36	0.105
1549.53	0.187
1558.69	0.464
1567.86	0.645
1577.03	0.645
1586.2	0.375
1595.36	0.17
1604.53	0.396
1613.7	0.219
1622.87	0.53
1632.03	0.671
1641.2	0.643
1650.37	0.601
1659.54	0.409
1668.7	0.256
1677.87	0.157
1687.04	0.16
1696.21	0.179
1705.37	0.455
1714.54	0.413
1723.71	0.2
1732.88	0.114
1742.04	0.233
1751.21	0.484
1760.38	0.593
1769.55	0.71
1778.71	0.734
1787.88	0.777
1797.05	0.794
1806.22	0.799
1815.38	0.804
1824.55	0.813
1833.72	0.821
1842.89	0.823
1852.06	0.827
1861.22	0.828
1870.39	0.83
1879.56	0.831
1888.73	0.833
1897.89	0.833
1907.06	0.832
1916.23	0.831
1925.4	0.83
1934.56	0.828
1943.73	0.827
1952.9	0.827
1962.07	0.828
1971.23	0.828
1980.4	0.832
1989.57	0.832
1998.74	0.827
2007.9	0.824
2017.07	0.821
2026.24	0.818
2035.41	0.81
2044.57	0.801
2053.74	0.797
2062.91	0.796
2072.08	0.796
2081.24	0.794
2090.41	0.792
2099.58	0.789
2108.75	0.786
2117.91	0.782
2127.08	0.779
2136.25	0.773
2145.42	0.767
2154.58	0.761
2163.75	0.757
2172.92	0.753
2182.09	0.749
2191.25	0.745
2200.42	0.74
2209.59	0.735
2218.76	0.729
2227.92	0.725
2237.09	0.719
2246.26	0.715
2255.43	0.71
2264.59	0.703
2273.76	0.697
2282.93	0.691
2292.1	0.685
2301.26	0.679
2310.43	0.672
2319.6	0.666
2328.77	0.662
2337.93	0.657
2347.1	0.652
2356.27	0.643
2365.44	0.635
2374.61	0.627
2383.77	0.619
2392.94	0.614
2402.11	0.61
2411.28	0.601
2420.44	0.587
2429.61	0.582
2438.78	0.569
2447.95	0.561
2457.11	0.547
2466.28	0.531
2475.45	0.522
2484.62	0.511
2493.78	0.493
2502.95	0.484
2512.12	0.472
2521.29	0.463
2530.45	0.466
2539.62	0.478
2548.79	0.495
2557.96	0.507
2567.12	0.509
2576.29	0.508
2585.46	0.505
2594.63	0.502
2603.79	0.496
2612.96	0.492
2622.13	0.487
2631.3	0.482
2640.46	0.479
2649.63	0.481
2658.8	0.489
2667.97	0.5
2677.13	0.511
2686.3	0.517
2695.47	0.523
2704.64	0.522
2713.8	0.519
2722.97	0.514
2732.14	0.505
2741.31	0.496
2750.47	0.487
2759.64	0.477
2768.81	0.464
2777.98	0.445
2787.14	0.439
2796.31	0.436
2805.48	0.433
2814.65	0.436
2823.81	0.441
2832.98	0.443
2842.15	0.445
2851.32	0.445
2860.48	0.445
2869.65	0.446
2878.82	0.446
2887.99	0.445
2897.16	0.444
2906.32	0.44
2915.49	0.436
2924.66	0.431
2933.83	0.425
2942.99	0.422
2952.16	0.42
2961.33	0.422
2970.5	0.425
2979.66	0.429
2988.83	0.433
2998	0.442
3007.17	0.449
3016.33	0.457
3025.5	0.469
3034.67	0.474
3043.84	0.478
3053	0.48
3062.17	0.481
3071.34	0.484
3080.51	0.491
3089.67	0.5
3098.84	0.502
3108.01	0.509
3117.18	0.522
3126.34	0.541
3135.51	0.55
3144.68	0.558
3153.85	0.56
3163.01	0.562
3172.18	0.563
3181.35	0.563
3190.52	0.56
3199.68	0.556
3208.85	0.547
3218.02	0.542
3227.19	0.528
3236.35	0.493
3245.52	0.452
3254.69	0.409
3263.86	0.357
3273.02	0.294
3282.19	0.321
3291.36	0.374
3300.53	0.452
3309.69	0.519
3318.86	0.563
3328.03	0.608
3337.2	0.63
3346.36	0.636
3355.53	0.636
3364.7	0.636
3373.87	0.634
3383.03	0.633
3392.2	0.632
3401.37	0.63
3410.54	0.63
3419.71	0.63
3428.87	0.63
3438.04	0.632
3447.21	0.634
3456.38	0.636
3465.54	0.635
3474.71	0.633
3483.88	0.632
3493.05	0.634
3502.21	0.644
3511.38	0.644
3520.55	0.643
3529.72	0.645
3538.88	0.648
3548.05	0.65
3557.22	0.652
3566.39	0.652
3575.55	0.652
3584.72	0.653
3593.89	0.656
3603.06	0.659
3612.22	0.659
3621.39	0.658
3630.56	0.656
3639.73	0.653
3648.89	0.652
3658.06	0.649
3667.23	0.648
3676.4	0.649
3685.56	0.649
3694.73	0.65
3703.9	0.649
3713.07	0.648
3722.23	0.646
3731.4	0.642
3740.57	0.64
3749.74	0.637
3758.9	0.634
3768.07	0.633
3777.24	0.631
3786.41	0.629
3795.57	0.626
3804.74	0.624
3813.91	0.621
3823.08	0.619
3832.24	0.617
3841.41	0.617
3850.58	0.617
3859.75	0.616
3868.91	0.615
3878.08	0.614
3887.25	0.613
3896.42	0.611
3905.58	0.611
3914.75	0.609
3923.92	0.607
3933.09	0.604
3942.26	0.601
3951.42	0.599
3960.59	0.598
3969.76	0.597
3978.93	0.596
3988.09	0.593
3997.26	0.59
