Infrared Spectrum: UREA, 1,1'-p-PHENYLENEBIS[3-(2-CHLOROETHYL)-3-NITROSO-
Formula: C12 H14 Cl2 N6 O4
CAS: 13907-59-0
State: SOLID (1 mg / 500 mg KBr DISC)
Class: COBLENTZ III
Instrument: PERKIN-ELMER 221 (GRATING)
Instrument parameters: FILTER CHANGES AT 2490, 980 CM ^-^1, NaCl PRISM FOR 1428-650 CM^-^1
Sampling: TRANSMISSION
Resolution: 4
Origin: SOUTHERN RES. INSTITUTE
1/CM	TRANSMITTANCE
606.797	0.987
615.965	0.987
625.132	0.984
634.3	0.971
643.467	0.744
652.635	0.554
661.802	0.617
670.97	0.703
680.137	0.813
689.305	0.905
698.473	0.932
707.64	0.944
716.808	0.947
725.975	0.939
735.143	0.872
744.31	0.939
753.478	0.925
762.645	0.797
771.813	0.762
780.981	0.52
790.148	0.491
799.316	0.781
808.483	0.957
817.651	0.939
826.818	0.894
835.986	0.607
845.153	0.738
854.321	0.808
863.489	0.927
872.656	0.951
881.824	0.939
890.991	0.9
900.159	0.809
909.326	0.812
918.494	0.909
927.661	0.888
936.829	0.83
945.997	0.504
955.164	0.334
964.332	0.388
973.499	0.632
982.667	0.902
991.834	0.821
1001	0.837
1010.17	0.926
1019.34	0.92
1028.5	0.91
1037.67	0.903
1046.84	0.861
1056.01	0.803
1065.17	0.5
1074.34	0.277
1083.51	0.236
1092.68	0.54
1101.84	0.801
1111.01	0.565
1120.18	0.726
1129.35	0.869
1138.52	0.792
1147.68	0.936
1156.85	0.932
1166.02	0.931
1175.19	0.929
1184.35	0.927
1193.52	0.918
1202.69	0.829
1211.86	0.658
1221.02	0.779
1230.19	0.912
1239.36	0.913
1248.53	0.908
1257.69	0.902
1266.86	0.857
1276.03	0.76
1285.2	0.825
1294.36	0.771
1303.53	0.694
1312.7	0.69
1321.87	0.798
1331.03	0.658
1340.2	0.704
1349.37	0.814
1358.54	0.792
1367.7	0.785
1376.87	0.841
1386.04	0.81
1395.21	0.683
1404.37	0.466
1413.54	0.536
1422.71	0.85
1431.88	0.712
1441.04	0.646
1450.21	0.869
1459.38	0.83
1468.55	0.697
1477.71	0.536
1486.88	0.237
1496.05	0.407
1505.22	0.522
1514.38	0.614
1523.55	0.343
1532.72	0.702
1541.89	0.711
1551.06	0.468
1560.22	0.236
1569.39	0.294
1578.56	0.528
1587.73	0.718
1596.89	0.819
1606.06	0.841
1615.23	0.869
1624.4	0.886
1633.56	0.896
1642.73	0.899
1651.9	0.895
1661.07	0.892
1670.23	0.89
1679.4	0.879
1688.57	0.822
1697.74	0.799
1706.9	0.763
1716.07	0.552
1725.24	0.315
1734.41	0.3
1743.57	0.414
1752.74	0.728
1761.91	0.824
1771.08	0.915
1780.24	0.934
1789.41	0.956
1798.58	0.964
1807.75	0.982
1816.91	0.99
1826.08	0.991
1835.25	0.993
1844.42	0.994
1853.58	0.997
1862.75	1
1871.92	1
1881.09	1
1890.25	0.999
1899.42	0.997
1908.59	0.993
1917.76	0.987
1926.92	0.991
1936.09	1
1945.26	1
1954.43	0.998
1963.6	0.998
1972.76	0.998
1981.93	0.997
1991.1	0.996
2000.27	0.995
2009.43	0.997
2018.6	0.993
2027.77	0.99
2036.94	0.989
2046.1	0.987
2055.27	0.987
2064.44	0.987
2073.61	0.985
2082.77	0.984
2091.94	0.984
2101.11	0.983
2110.28	0.982
2119.44	0.982
2128.61	0.982
2137.78	0.981
2146.95	0.981
2156.11	0.98
2165.28	0.98
2174.45	0.979
2183.62	0.978
2192.78	0.977
2201.95	0.974
2211.12	0.971
2220.29	0.968
2229.45	0.964
2238.62	0.964
2247.79	0.963
2256.96	0.962
2266.12	0.962
2275.29	0.961
2284.46	0.959
2293.63	0.958
2302.79	0.955
2311.96	0.939
2321.13	0.922
2330.3	0.92
2339.46	0.941
2348.63	0.935
2357.8	0.942
2366.97	0.948
2376.13	0.952
2385.3	0.952
2394.47	0.95
2403.64	0.948
2412.81	0.946
2421.97	0.945
2431.14	0.944
2440.31	0.943
2449.48	0.942
2458.64	0.941
2467.81	0.939
2476.98	0.939
2486.15	0.939
2495.31	0.938
2504.48	0.936
2513.65	0.936
2522.82	0.935
2531.98	0.934
2541.15	0.933
2550.32	0.932
2559.49	0.932
2568.65	0.932
2577.82	0.932
2586.99	0.932
2596.16	0.932
2605.32	0.931
2614.49	0.931
2623.66	0.93
2632.83	0.929
2641.99	0.926
2651.16	0.923
2660.33	0.922
2669.5	0.92
2678.66	0.92
2687.83	0.919
2697	0.918
2706.17	0.917
2715.33	0.917
2724.5	0.917
2733.67	0.916
2742.84	0.916
2752	0.916
2761.17	0.915
2770.34	0.913
2779.51	0.91
2788.67	0.906
2797.84	0.902
2807.01	0.898
2816.18	0.895
2825.35	0.893
2834.51	0.891
2843.68	0.891
2852.85	0.892
2862.02	0.894
2871.18	0.893
2880.35	0.891
2889.52	0.883
2898.69	0.869
2907.85	0.865
2917.02	0.862
2926.19	0.863
2935.36	0.865
2944.52	0.865
2953.69	0.862
2962.86	0.857
2972.03	0.859
2981.19	0.864
2990.36	0.859
2999.53	0.844
3008.7	0.831
3017.86	0.819
3027.03	0.844
3036.2	0.856
3045.37	0.855
3054.53	0.85
3063.7	0.849
3072.87	0.853
3082.04	0.856
3091.2	0.855
3100.37	0.853
3109.54	0.849
3118.71	0.846
3127.87	0.843
3137.04	0.837
3146.21	0.82
3155.38	0.819
3164.54	0.837
3173.71	0.837
3182.88	0.829
3192.05	0.822
3201.21	0.811
3210.38	0.805
3219.55	0.795
3228.72	0.784
3237.89	0.766
3247.05	0.753
3256.22	0.73
3265.39	0.703
3274.56	0.674
3283.72	0.594
3292.89	0.505
3302.06	0.422
3311.23	0.396
3320.39	0.61
3329.56	0.732
3338.73	0.785
3347.9	0.795
3357.06	0.797
3366.23	0.795
3375.4	0.793
3384.57	0.792
3393.73	0.792
3402.9	0.792
3412.07	0.789
3421.24	0.786
3430.4	0.786
3439.57	0.789
3448.74	0.792
3457.91	0.795
3467.07	0.798
3476.24	0.801
3485.41	0.803
3494.58	0.805
3503.74	0.809
3512.91	0.814
3522.08	0.818
3531.25	0.822
3540.41	0.825
3549.58	0.829
3558.75	0.832
3567.92	0.836
3577.08	0.84
3586.25	0.843
3595.42	0.847
3604.59	0.85
3613.75	0.853
3622.92	0.856
3632.09	0.859
3641.26	0.86
3650.43	0.862
3659.59	0.862
3668.76	0.86
3677.93	0.859
3687.1	0.859
3696.26	0.859
3705.43	0.859
3714.6	0.859
3723.77	0.858
3732.93	0.859
3742.1	0.859
3751.27	0.859
3760.44	0.859
3769.6	0.859
3778.77	0.859
3787.94	0.856
3797.11	0.854
3806.27	0.851
3815.44	0.85
3824.61	0.849
3833.78	0.849
3842.94	0.849
3852.11	0.847
3861.28	0.846
3870.45	0.846
3879.61	0.845
3888.78	0.845
3897.95	0.846
3907.12	0.849
3916.28	0.849
3925.45	0.849
3934.62	0.848
3943.79	0.847
3952.95	0.846
3962.12	0.846
3971.29	0.846
3980.46	0.846
3989.62	0.846
3998.79	0.846
