Infrared Spectrum: UREA, 1,1'-(2,3,5,6-TETRAMETHYL-p-PHENYLENE)BIS[3-(2-CHLOROETHYL)-3-NITROSO]-
Formula: C16 H22 Cl2 N6 O4
CAS: 13907-60-3
State: SOLID (1 mg / 650 mg KBr DISC)
Class: COBLENTZ III
Instrument: PERKIN-ELMER 521 (GRATING)
Instrument parameters: FILTERS AT 3150, 2500, 2000, 1150, 700, 410 CM ^-^1, GRATING CHANGES AT 2000, 630 CM ^-^1
Sampling: TRANSMISSION
Resolution: 4
Origin: SOUTHERN RES. INSTITUTE
1/CM	TRANSMITTANCE
249.19	0.251
258.342	0.297
267.493	0.364
276.645	0.425
285.796	0.481
294.948	0.525
304.099	0.547
313.251	0.545
322.403	0.598
331.554	0.621
340.706	0.672
349.857	0.698
359.009	0.706
368.16	0.724
377.312	0.753
386.464	0.756
395.615	0.76
404.767	0.783
413.918	0.794
423.07	0.803
432.221	0.805
441.373	0.803
450.525	0.803
459.676	0.803
468.828	0.803
477.979	0.8
487.131	0.794
496.282	0.781
505.434	0.753
514.586	0.776
523.737	0.773
532.889	0.76
542.04	0.743
551.192	0.737
560.343	0.754
569.495	0.765
578.647	0.775
587.798	0.791
596.95	0.794
606.101	0.792
615.253	0.767
624.404	0.803
633.556	0.598
642.708	0.797
651.859	0.735
661.011	0.81
670.162	0.851
679.314	0.861
688.465	0.863
697.617	0.861
706.769	0.859
715.92	0.853
725.072	0.851
734.223	0.838
743.375	0.709
752.526	0.825
761.678	0.831
770.83	0.805
779.981	0.559
789.133	0.8
798.284	0.724
807.436	0.786
816.587	0.835
825.739	0.834
834.891	0.827
844.042	0.817
853.194	0.806
862.345	0.77
871.497	0.639
880.648	0.64
889.8	0.779
898.952	0.771
908.103	0.759
917.255	0.775
926.406	0.786
935.558	0.752
944.709	0.568
953.861	0.34
963.013	0.602
972.164	0.718
981.316	0.759
990.467	0.714
999.619	0.708
1008.77	0.743
1017.92	0.755
1027.07	0.766
1036.23	0.756
1045.38	0.732
1054.53	0.633
1063.68	0.525
1072.83	0.382
1081.98	0.358
1091.13	0.645
1100.29	0.738
1109.44	0.788
1118.59	0.781
1127.74	0.762
1136.89	0.601
1146.04	0.466
1155.2	0.635
1164.35	0.74
1173.5	0.785
1182.65	0.79
1191.8	0.753
1200.95	0.781
1210.1	0.798
1219.26	0.803
1228.41	0.805
1237.56	0.803
1246.71	0.762
1255.86	0.715
1265.01	0.752
1274.17	0.791
1283.32	0.757
1292.47	0.702
1301.62	0.728
1310.77	0.767
1319.92	0.731
1329.08	0.617
1338.23	0.71
1347.38	0.775
1356.53	0.774
1365.68	0.68
1374.83	0.737
1383.98	0.727
1393.14	0.733
1402.29	0.585
1411.44	0.646
1420.59	0.668
1429.74	0.588
1438.89	0.382
1448.05	0.554
1457.2	0.413
1466.35	0.25
1475.5	0.203
1484.65	0.344
1493.8	0.406
1502.96	0.299
1512.11	0.317
1521.26	0.436
1530.41	0.613
1539.56	0.702
1548.71	0.75
1557.86	0.777
1567.02	0.782
1576.17	0.791
1585.32	0.8
1594.47	0.803
1603.62	0.806
1612.77	0.804
1621.93	0.796
1631.08	0.798
1640.23	0.799
1649.38	0.797
1658.53	0.791
1667.68	0.775
1676.84	0.747
1685.99	0.734
1695.14	0.645
1704.29	0.486
1713.44	0.196
1722.59	0.341
1731.74	0.508
1740.9	0.658
1750.05	0.745
1759.2	0.799
1768.35	0.819
1777.5	0.83
1786.65	0.838
1795.81	0.845
1804.96	0.848
1814.11	0.852
1823.26	0.854
1832.41	0.858
1841.56	0.863
1850.71	0.865
1859.87	0.864
1869.02	0.864
1878.17	0.865
1887.32	0.866
1896.47	0.867
1905.62	0.867
1914.78	0.868
1923.93	0.869
1933.08	0.869
1942.23	0.868
1951.38	0.867
1960.53	0.867
1969.69	0.867
1978.84	0.867
1987.99	0.865
1997.14	0.863
2006.29	0.863
2015.44	0.863
2024.59	0.863
2033.75	0.863
2042.9	0.861
2052.05	0.86
2061.2	0.862
2070.35	0.862
2079.5	0.862
2088.66	0.861
2097.81	0.861
2106.96	0.861
2116.11	0.861
2125.26	0.861
2134.41	0.861
2143.57	0.861
2152.72	0.86
2161.87	0.86
2171.02	0.86
2180.17	0.86
2189.32	0.859
2198.47	0.857
2207.63	0.857
2216.78	0.858
2225.93	0.858
2235.08	0.858
2244.23	0.857
2253.38	0.856
2262.54	0.855
2271.69	0.855
2280.84	0.855
2289.99	0.856
2299.14	0.855
2308.29	0.854
2317.45	0.854
2326.6	0.854
2335.75	0.854
2344.9	0.854
2354.05	0.855
2363.2	0.856
2372.35	0.855
2381.51	0.854
2390.66	0.854
2399.81	0.853
2408.96	0.853
2418.11	0.854
2427.26	0.855
2436.42	0.854
2445.57	0.854
2454.72	0.851
2463.87	0.851
2473.02	0.851
2482.17	0.851
2491.32	0.851
2500.48	0.851
2509.63	0.851
2518.78	0.851
2527.93	0.851
2537.08	0.851
2546.23	0.851
2555.39	0.851
2564.54	0.851
2573.69	0.852
2582.84	0.851
2591.99	0.851
2601.14	0.851
2610.3	0.851
2619.45	0.851
2628.6	0.851
2637.75	0.851
2646.9	0.851
2656.05	0.851
2665.2	0.851
2674.36	0.851
2683.51	0.85
2692.66	0.849
2701.81	0.848
2710.96	0.847
2720.11	0.847
2729.27	0.848
2738.42	0.849
2747.57	0.848
2756.72	0.847
2765.87	0.846
2775.02	0.845
2784.18	0.844
2793.33	0.844
2802.48	0.843
2811.63	0.841
2820.78	0.838
2829.93	0.829
2839.08	0.818
2848.24	0.805
2857.39	0.804
2866.54	0.804
2875.69	0.806
2884.84	0.804
2893.99	0.798
2903.15	0.784
2912.3	0.772
2921.45	0.759
2930.6	0.766
2939.75	0.772
2948.9	0.773
2958.05	0.766
2967.21	0.752
2976.36	0.799
2985.51	0.807
2994.66	0.799
3003.81	0.777
3012.96	0.802
3022.12	0.796
3031.27	0.822
3040.42	0.831
3049.57	0.835
3058.72	0.838
3067.87	0.838
3077.03	0.839
3086.18	0.838
3095.33	0.838
3104.48	0.838
3113.63	0.836
3122.78	0.835
3131.93	0.833
3141.09	0.831
3150.24	0.829
3159.39	0.825
3168.54	0.824
3177.69	0.822
3186.84	0.821
3196	0.818
3205.15	0.815
3214.3	0.811
3223.45	0.808
3232.6	0.805
3241.75	0.802
3250.91	0.797
3260.06	0.791
3269.21	0.786
3278.36	0.779
3287.51	0.774
3296.66	0.765
3305.81	0.751
3314.97	0.736
3324.12	0.715
3333.27	0.682
3342.42	0.642
3351.57	0.607
3360.72	0.552
3369.88	0.452
3379.03	0.562
3388.18	0.642
3397.33	0.689
3406.48	0.721
3415.63	0.74
3424.79	0.751
3433.94	0.757
3443.09	0.761
3452.24	0.765
3461.39	0.769
3470.54	0.772
3479.69	0.775
3488.85	0.778
3498	0.783
3507.15	0.787
3516.3	0.791
3525.45	0.797
3534.6	0.802
3543.76	0.807
3552.91	0.811
3562.06	0.816
3571.21	0.82
3580.36	0.825
3589.51	0.829
3598.66	0.834
3607.82	0.838
3616.97	0.841
3626.12	0.845
3635.27	0.848
3644.42	0.85
3653.57	0.852
3662.73	0.851
3671.88	0.85
3681.03	0.851
3690.18	0.853
3699.33	0.854
3708.48	0.856
3717.64	0.856
3726.79	0.854
3735.94	0.852
3745.09	0.852
3754.24	0.855
3763.39	0.859
3772.54	0.861
3781.7	0.862
3790.85	0.86
3800	0.859
