Infrared Spectrum: UREA, 1,1'-p-PHENYLENEBIS[3-(2-FLUOROETHYL)-
Formula: C12 H16 F2 N4 O2
CAS: 13907-99-8
State: SOLID (1 mg / 650 mg KBr DISC)
Class: COBLENTZ III
Instrument: PERKIN-ELMER 521 (GRATING)
Instrument parameters: FILTERS AT 3150, 2500, 2000, 1150, 700, 410 CM ^-^1, GRATING CHANGES AT 2000, 630 CM^-^1
Sampling: TRANSMISSION
Resolution: 4
Origin: SOUTHERN RES. INSTITUTE
1/CM	TRANSMITTANCE
235.291	0.17
244.472	0.197
253.652	0.215
262.833	0.271
272.014	0.316
281.194	0.378
290.375	0.437
299.556	0.495
308.736	0.521
317.917	0.551
327.097	0.583
336.278	0.607
345.459	0.623
354.639	0.67
363.82	0.69
373.001	0.717
382.181	0.738
391.362	0.747
400.543	0.728
409.723	0.708
418.904	0.724
428.085	0.75
437.265	0.763
446.446	0.765
455.626	0.763
464.807	0.758
473.988	0.752
483.168	0.725
492.349	0.709
501.53	0.669
510.71	0.61
519.891	0.677
529.072	0.724
538.252	0.731
547.433	0.731
556.614	0.728
565.794	0.725
574.975	0.722
584.155	0.711
593.336	0.698
602.517	0.678
611.697	0.668
620.878	0.634
630.059	0.622
639.239	0.603
648.42	0.597
657.601	0.605
666.781	0.632
675.962	0.66
685.143	0.7
694.323	0.731
703.504	0.75
712.684	0.76
721.865	0.781
731.046	0.796
740.226	0.801
749.407	0.789
758.588	0.774
767.768	0.816
776.949	0.829
786.13	0.825
795.31	0.802
804.491	0.693
813.672	0.776
822.852	0.762
832.033	0.688
841.214	0.725
850.394	0.777
859.575	0.759
868.755	0.72
877.936	0.801
887.117	0.837
896.297	0.837
905.478	0.834
914.659	0.835
923.839	0.837
933.02	0.836
942.201	0.834
951.381	0.83
960.562	0.825
969.743	0.818
978.923	0.808
988.104	0.781
997.284	0.721
1006.47	0.629
1015.65	0.674
1024.83	0.696
1034.01	0.674
1043.19	0.637
1052.37	0.623
1061.55	0.674
1070.73	0.74
1079.91	0.763
1089.09	0.769
1098.27	0.747
1107.45	0.735
1116.63	0.756
1125.81	0.764
1134.99	0.764
1144.17	0.77
1153.36	0.772
1162.54	0.76
1171.72	0.749
1180.9	0.736
1190.08	0.714
1199.26	0.666
1208.44	0.594
1217.62	0.52
1226.8	0.445
1235.98	0.462
1245.16	0.573
1254.34	0.64
1263.52	0.634
1272.7	0.611
1281.88	0.625
1291.07	0.559
1300.25	0.46
1309.43	0.621
1318.61	0.699
1327.79	0.731
1336.97	0.747
1346.15	0.75
1355.33	0.734
1364.51	0.737
1373.69	0.76
1382.87	0.735
1392.05	0.679
1401.23	0.553
1410.41	0.635
1419.59	0.735
1428.77	0.725
1437.96	0.744
1447.14	0.73
1456.32	0.694
1465.5	0.698
1474.68	0.714
1483.86	0.689
1493.04	0.592
1502.22	0.428
1511.4	0.374
1520.58	0.501
1529.76	0.437
1538.94	0.391
1548.12	0.346
1557.3	0.242
1566.48	0.206
1575.67	0.211
1584.85	0.303
1594.03	0.418
1603.21	0.449
1612.39	0.331
1621.57	0.128
1630.75	0.146
1639.93	0.269
1649.11	0.385
1658.29	0.485
1667.47	0.563
1676.65	0.616
1685.83	0.653
1695.01	0.719
1704.19	0.758
1713.37	0.784
1722.56	0.802
1731.74	0.816
1740.92	0.822
1750.1	0.829
1759.28	0.832
1768.46	0.834
1777.64	0.838
1786.82	0.844
1796	0.851
1805.18	0.852
1814.36	0.853
1823.54	0.855
1832.72	0.857
1841.9	0.856
1851.08	0.854
1860.26	0.854
1869.45	0.855
1878.63	0.853
1887.81	0.85
1896.99	0.854
1906.17	0.856
1915.35	0.859
1924.53	0.861
1933.71	0.862
1942.89	0.863
1952.07	0.865
1961.25	0.865
1970.43	0.865
1979.61	0.864
1988.79	0.862
1997.97	0.859
2007.16	0.859
2016.34	0.858
2025.52	0.857
2034.7	0.857
2043.88	0.856
2053.06	0.856
2062.24	0.856
2071.42	0.857
2080.6	0.858
2089.78	0.859
2098.96	0.859
2108.14	0.86
2117.32	0.86
2126.5	0.86
2135.68	0.861
2144.86	0.861
2154.05	0.862
2163.23	0.862
2172.41	0.862
2181.59	0.862
2190.77	0.862
2199.95	0.862
2209.13	0.862
2218.31	0.861
2227.49	0.86
2236.67	0.86
2245.85	0.86
2255.03	0.86
2264.21	0.86
2273.39	0.861
2282.57	0.861
2291.76	0.862
2300.94	0.862
2310.12	0.862
2319.3	0.862
2328.48	0.862
2337.66	0.862
2346.84	0.862
2356.02	0.862
2365.2	0.862
2374.38	0.862
2383.56	0.862
2392.74	0.862
2401.92	0.862
2411.1	0.862
2420.28	0.862
2429.46	0.861
2438.65	0.86
2447.83	0.859
2457.01	0.859
2466.19	0.858
2475.37	0.856
2484.55	0.856
2493.73	0.856
2502.91	0.856
2512.09	0.856
2521.27	0.855
2530.45	0.855
2539.63	0.854
2548.81	0.853
2557.99	0.853
2567.17	0.853
2576.36	0.852
2585.54	0.852
2594.72	0.852
2603.9	0.852
2613.08	0.852
2622.26	0.852
2631.44	0.852
2640.62	0.851
2649.8	0.85
2658.98	0.85
2668.16	0.849
2677.34	0.849
2686.52	0.848
2695.7	0.848
2704.88	0.846
2714.06	0.845
2723.25	0.843
2732.43	0.842
2741.61	0.84
2750.79	0.839
2759.97	0.837
2769.15	0.834
2778.33	0.831
2787.51	0.829
2796.69	0.827
2805.87	0.825
2815.05	0.821
2824.23	0.817
2833.41	0.81
2842.59	0.801
2851.77	0.796
2860.96	0.803
2870.14	0.801
2879.32	0.793
2888.5	0.781
2897.68	0.757
2906.86	0.738
2916.04	0.721
2925.22	0.725
2934.4	0.75
2943.58	0.751
2952.76	0.732
2961.94	0.726
2971.12	0.738
2980.3	0.732
2989.48	0.738
2998.66	0.754
3007.85	0.769
3017.03	0.773
3026.21	0.767
3035.39	0.763
3044.57	0.763
3053.75	0.763
3062.93	0.762
3072.11	0.762
3081.29	0.758
3090.47	0.753
3099.65	0.736
3108.83	0.719
3118.01	0.729
3127.19	0.731
3136.37	0.729
3145.56	0.73
3154.74	0.727
3163.92	0.723
3173.1	0.719
3182.28	0.715
3191.46	0.712
3200.64	0.704
3209.82	0.693
3219	0.679
3228.18	0.661
3237.36	0.638
3246.54	0.613
3255.72	0.582
3264.9	0.547
3274.08	0.507
3283.26	0.457
3292.45	0.404
3301.63	0.353
3310.81	0.312
3319.99	0.286
3329.17	0.292
3338.35	0.326
3347.53	0.375
3356.71	0.427
3365.89	0.478
3375.07	0.526
3384.25	0.568
3393.43	0.602
3402.61	0.628
3411.79	0.647
3420.97	0.661
3430.16	0.671
3439.34	0.683
3448.52	0.698
3457.7	0.705
3466.88	0.712
3476.06	0.721
3485.24	0.725
3494.42	0.728
3503.6	0.732
3512.78	0.738
3521.96	0.749
3531.14	0.76
3540.32	0.768
3549.5	0.775
3558.68	0.78
3567.86	0.789
3577.05	0.797
3586.23	0.803
3595.41	0.809
3604.59	0.817
3613.77	0.827
3622.95	0.837
3632.13	0.842
3641.31	0.846
3650.49	0.85
3659.67	0.851
3668.85	0.848
3678.03	0.847
3687.21	0.853
3696.39	0.856
3705.57	0.859
3714.76	0.86
3723.94	0.859
3733.12	0.857
3742.3	0.854
3751.48	0.853
3760.66	0.86
3769.84	0.862
3779.02	0.861
