Infrared Spectrum: ACETIC ACID, [p-[3-(2-CHLOROETHYL)-3-NITROSOUREIDO]PHENYLTHIO]-
Formula: C11 H12 Cl N3 O4 S
CAS: 13909-30-3
State: SOLID (1 mg / 650 mg KBr DISC)
Class: COBLENTZ III
Instrument: PERKIN-ELMER 221 (GRATING)
Instrument parameters: FILTER CHANGES AT 2490, 980 CM^-^1, GRATING FOR 4000-1428 CM^-^1, NaCl PRISM FOR 1428-650 CM^-^1
Sampling: TRANSMISSION
Resolution: 4
Origin: SOUTHERN RESEARCH INST.
1/CM	TRANSMITTANCE
595.971	0.749
605.574	0.748
615.176	0.747
624.779	0.744
634.382	0.696
643.984	0.622
653.587	0.437
663.19	0.524
672.792	0.556
682.395	0.662
691.997	0.769
701.6	0.796
711.203	0.824
720.805	0.818
730.408	0.774
740.011	0.667
749.613	0.791
759.216	0.786
768.819	0.776
778.421	0.522
788.024	0.476
797.627	0.67
807.229	0.634
816.832	0.474
826.435	0.37
836.037	0.637
845.64	0.744
855.242	0.739
864.845	0.585
874.448	0.563
884.05	0.644
893.653	0.529
903.256	0.469
912.858	0.488
922.461	0.642
932.064	0.707
941.666	0.636
951.269	0.403
960.872	0.22
970.474	0.412
980.077	0.559
989.679	0.728
999.282	0.636
1008.88	0.55
1018.49	0.713
1028.09	0.752
1037.69	0.727
1047.3	0.698
1056.9	0.644
1066.5	0.369
1076.1	0.088
1085.71	0.266
1095.31	0.481
1104.91	0.586
1114.51	0.503
1124.12	0.547
1133.72	0.659
1143.32	0.7
1152.92	0.703
1162.53	0.689
1172.13	0.67
1181.73	0.62
1191.34	0.536
1200.94	0.224
1210.54	0.37
1220.14	0.652
1229.75	0.586
1239.35	0.592
1248.95	0.697
1258.55	0.704
1268.16	0.64
1277.76	0.562
1287.36	0.474
1296.96	0.459
1306.57	0.422
1316.17	0.442
1325.77	0.541
1335.37	0.388
1344.98	0.492
1354.58	0.627
1364.18	0.641
1373.79	0.63
1383.39	0.585
1392.99	0.395
1402.59	0.334
1412.2	0.385
1421.8	0.427
1431.4	0.49
1441	0.419
1450.61	0.507
1460.21	0.622
1469.81	0.508
1479.41	0.242
1489.02	0.151
1498.62	0.221
1508.22	0.355
1517.83	0.459
1527.43	0.359
1537.03	0.17
1546.63	0.092
1556.24	0.53
1565.84	0.77
1575.44	0.765
1585.04	0.522
1594.65	0.199
1604.25	0.218
1613.85	0.669
1623.45	0.725
1633.06	0.744
1642.66	0.731
1652.26	0.712
1661.86	0.705
1671.47	0.696
1681.07	0.662
1690.67	0.593
1700.28	0.47
1709.88	0.331
1719.48	0.162
1729.08	0.04
1738.69	0.098
1748.29	0.198
1757.89	0.416
1767.49	0.603
1777.1	0.724
1786.7	0.792
1796.3	0.835
1805.9	0.858
1815.51	0.869
1825.11	0.876
1834.71	0.883
1844.32	0.894
1853.92	0.902
1863.52	0.908
1873.12	0.912
1882.73	0.909
1892.33	0.901
1901.93	0.894
1911.53	0.892
1921.14	0.911
1930.74	0.914
1940.34	0.914
1949.94	0.914
1959.55	0.915
1969.15	0.915
1978.75	0.915
1988.35	0.915
1997.96	0.915
2007.56	0.914
2017.16	0.914
2026.77	0.913
2036.37	0.912
2045.97	0.911
2055.57	0.91
2065.18	0.908
2074.78	0.907
2084.38	0.903
2093.98	0.893
2103.59	0.889
2113.19	0.89
2122.79	0.892
2132.39	0.894
2142	0.895
2151.6	0.894
2161.2	0.892
2170.8	0.891
2180.41	0.889
2190.01	0.886
2199.61	0.881
2209.22	0.877
2218.82	0.875
2228.42	0.875
2238.02	0.874
2247.63	0.869
2257.23	0.865
2266.83	0.862
2276.43	0.859
2286.04	0.855
2295.64	0.851
2305.24	0.846
2314.84	0.833
2324.45	0.83
2334.05	0.828
2343.65	0.826
2353.26	0.825
2362.86	0.822
2372.46	0.821
2382.06	0.819
2391.67	0.818
2401.27	0.814
2410.87	0.811
2420.47	0.801
2430.08	0.796
2439.68	0.792
2449.28	0.787
2458.88	0.771
2468.49	0.761
2478.09	0.756
2487.69	0.75
2497.29	0.748
2506.9	0.744
2516.5	0.741
2526.1	0.734
2535.71	0.718
2545.31	0.703
2554.91	0.688
2564.51	0.67
2574.12	0.655
2583.72	0.665
2593.32	0.675
2602.92	0.685
2612.53	0.695
2622.13	0.7
2631.73	0.696
2641.33	0.692
2650.94	0.691
2660.54	0.686
2670.14	0.663
2679.75	0.651
2689.35	0.651
2698.95	0.655
2708.55	0.659
2718.16	0.663
2727.76	0.668
2737.36	0.676
2746.96	0.678
2756.57	0.677
2766.17	0.672
2775.77	0.664
2785.37	0.651
2794.98	0.641
2804.58	0.623
2814.18	0.607
2823.78	0.594
2833.39	0.589
2842.99	0.58
2852.59	0.57
2862.2	0.564
2871.8	0.559
2881.4	0.545
2891	0.529
2900.61	0.514
2910.21	0.507
2919.81	0.512
2929.41	0.504
2939.02	0.498
2948.62	0.513
2958.22	0.52
2967.82	0.521
2977.43	0.519
2987.03	0.516
2996.63	0.508
3006.24	0.507
3015.84	0.511
3025.44	0.514
3035.04	0.516
3044.65	0.518
3054.25	0.52
3063.85	0.526
3073.45	0.535
3083.06	0.538
3092.66	0.532
3102.26	0.517
3111.86	0.524
3121.47	0.557
3131.07	0.577
3140.67	0.585
3150.27	0.594
3159.88	0.588
3169.48	0.574
3179.08	0.607
3188.69	0.615
3198.29	0.618
3207.89	0.62
3217.49	0.621
3227.1	0.618
3236.7	0.614
3246.3	0.602
3255.9	0.59
3265.51	0.573
3275.11	0.522
3284.71	0.432
3294.31	0.319
3303.92	0.235
3313.52	0.411
3323.12	0.522
3332.73	0.597
3342.33	0.628
3351.93	0.637
3361.53	0.64
3371.14	0.636
3380.74	0.622
3390.34	0.587
3399.94	0.62
3409.55	0.659
3419.15	0.67
3428.75	0.67
3438.35	0.666
3447.96	0.674
3457.56	0.681
3467.16	0.689
3476.76	0.693
3486.37	0.704
3495.97	0.717
3505.57	0.722
3515.18	0.732
3524.78	0.74
3534.38	0.744
3543.98	0.757
3553.59	0.763
3563.19	0.778
3572.79	0.784
3582.39	0.792
3592	0.798
3601.6	0.81
3611.2	0.823
3620.8	0.837
3630.41	0.841
3640.01	0.85
3649.61	0.854
3659.22	0.856
3668.82	0.856
3678.42	0.855
3688.02	0.855
3697.63	0.862
3707.23	0.865
3716.83	0.864
3726.43	0.862
3736.04	0.859
3745.64	0.858
3755.24	0.859
3764.84	0.862
3774.45	0.865
3784.05	0.866
3793.65	0.865
3803.25	0.859
3812.86	0.856
3822.46	0.856
3832.06	0.855
3841.67	0.854
3851.27	0.852
3860.87	0.85
3870.47	0.851
3880.08	0.851
3889.68	0.851
3899.28	0.85
3908.88	0.849
3918.49	0.848
3928.09	0.848
3937.69	0.848
3947.29	0.848
3956.9	0.848
3966.5	0.848
3976.1	0.848
3985.71	0.848
3995.31	0.848
