Infrared Spectrum: UREA, 1-(2-CHLOROETHYL)-3-CYCLOHEPTYL-
Formula: C10 H19 Cl N2 O
CAS: 13908-27-5
State: SOLID (0.7 mg / 500 mg KBr DISC)
Class: COBLENTZ III
Instrument: PERKIN-ELMER 21 (GRATING)
Instrument parameters: FILTER CHANGE AT 1090 CM^-^1
Sampling: TRANSMISSION
Resolution: 4
Origin: SOUTHERN RESEARCH INST.
1/CM	TRANSMITTANCE
657.096	0.581
666.63	0.599
676.165	0.637
685.699	0.719
695.233	0.737
704.767	0.771
714.302	0.783
723.836	0.783
733.37	0.708
742.904	0.614
752.439	0.655
761.973	0.78
771.507	0.806
781.041	0.805
790.576	0.854
800.11	0.893
809.644	0.901
819.178	0.896
828.713	0.875
838.247	0.868
847.781	0.88
857.315	0.893
866.85	0.89
876.384	0.886
885.918	0.9
895.452	0.901
904.987	0.897
914.521	0.888
924.055	0.885
933.59	0.879
943.124	0.865
952.658	0.852
962.192	0.857
971.727	0.846
981.261	0.824
990.795	0.827
1000.33	0.817
1009.86	0.794
1019.4	0.776
1028.93	0.738
1038.47	0.722
1048	0.703
1057.53	0.695
1067.07	0.695
1076.6	0.708
1086.14	0.719
1095.67	0.763
1105.21	0.761
1114.74	0.748
1124.27	0.742
1133.81	0.739
1143.34	0.751
1152.88	0.754
1162.41	0.751
1171.95	0.741
1181.48	0.713
1191.01	0.632
1200.55	0.608
1210.08	0.663
1219.62	0.63
1229.15	0.663
1238.69	0.607
1248.22	0.442
1257.75	0.486
1267.29	0.567
1276.82	0.629
1286.36	0.624
1295.89	0.598
1305.43	0.611
1314.96	0.633
1324.49	0.591
1334.03	0.631
1343.56	0.725
1353.1	0.756
1362.63	0.75
1372.17	0.753
1381.7	0.797
1391.23	0.809
1400.77	0.804
1410.3	0.797
1419.84	0.787
1429.37	0.762
1438.91	0.721
1448.44	0.557
1457.97	0.494
1467.51	0.56
1477.04	0.628
1486.58	0.703
1496.11	0.725
1505.65	0.705
1515.18	0.636
1524.71	0.586
1534.25	0.524
1543.78	0.49
1553.32	0.461
1562.85	0.417
1572.38	0.318
1581.92	0.237
1591.45	0.186
1600.99	0.283
1610.52	0.333
1620.06	0.321
1629.59	0.168
1639.12	0.168
1648.66	0.294
1658.19	0.401
1667.73	0.495
1677.26	0.554
1686.8	0.576
1696.33	0.626
1705.86	0.638
1715.4	0.703
1724.93	0.739
1734.47	0.779
1744	0.799
1753.54	0.811
1763.07	0.824
1772.6	0.835
1782.14	0.844
1791.67	0.849
1801.21	0.862
1810.74	0.876
1820.28	0.886
1829.81	0.891
1839.34	0.894
1848.88	0.897
1858.41	0.9
1867.95	0.901
1877.48	0.903
1887.02	0.904
1896.55	0.908
1906.08	0.912
1915.62	0.91
1925.15	0.911
1934.69	0.912
1944.22	0.909
1953.76	0.908
1963.29	0.91
1972.82	0.912
1982.36	0.914
1991.89	0.915
2001.43	0.915
2010.96	0.916
2020.5	0.919
2030.03	0.919
2039.56	0.919
2049.1	0.919
2058.63	0.919
2068.17	0.919
2077.7	0.917
2087.23	0.915
2096.77	0.914
2106.3	0.915
2115.84	0.915
2125.37	0.912
2134.91	0.909
2144.44	0.911
2153.97	0.912
2163.51	0.911
2173.04	0.908
2182.58	0.903
2192.11	0.899
2201.65	0.897
2211.18	0.896
2220.71	0.897
2230.25	0.898
2239.78	0.897
2249.32	0.896
2258.85	0.895
2268.39	0.893
2277.92	0.893
2287.45	0.891
2296.99	0.89
2306.52	0.891
2316.06	0.893
2325.59	0.894
2335.13	0.895
2344.66	0.896
2354.19	0.897
2363.73	0.898
2373.26	0.897
2382.8	0.891
2392.33	0.889
2401.87	0.886
2411.4	0.885
2420.93	0.885
2430.47	0.884
2440	0.882
2449.54	0.881
2459.07	0.879
2468.61	0.879
2478.14	0.875
2487.67	0.871
2497.21	0.869
2506.74	0.868
2516.28	0.867
2525.81	0.868
2535.35	0.868
2544.88	0.868
2554.41	0.86
2563.95	0.857
2573.48	0.855
2583.02	0.853
2592.55	0.852
2602.08	0.853
2611.62	0.85
2621.15	0.844
2630.69	0.843
2640.22	0.845
2649.76	0.839
2659.29	0.824
2668.82	0.815
2678.36	0.813
2687.89	0.816
2697.43	0.823
2706.96	0.824
2716.5	0.824
2726.03	0.822
2735.56	0.817
2745.1	0.813
2754.63	0.808
2764.17	0.794
2773.7	0.779
2783.24	0.749
2792.77	0.739
2802.3	0.724
2811.84	0.7
2821.37	0.63
2830.91	0.542
2840.44	0.527
2849.98	0.575
2859.51	0.602
2869.04	0.602
2878.58	0.582
2888.11	0.523
2897.65	0.485
2907.18	0.401
2916.72	0.331
2926.25	0.355
2935.78	0.434
2945.32	0.539
2954.85	0.598
2964.39	0.657
2973.92	0.715
2983.46	0.718
2992.99	0.717
3002.52	0.717
3012.06	0.716
3021.59	0.714
3031.13	0.714
3040.66	0.717
3050.2	0.722
3059.73	0.725
3069.26	0.728
3078.8	0.745
3088.33	0.749
3097.87	0.743
3107.4	0.711
3116.93	0.7
3126.47	0.699
3136	0.704
3145.54	0.704
3155.07	0.698
3164.61	0.695
3174.14	0.697
3183.67	0.692
3193.21	0.679
3202.74	0.666
3212.28	0.643
3221.81	0.63
3231.35	0.597
3240.88	0.577
3250.41	0.536
3259.95	0.501
3269.48	0.463
3279.02	0.413
3288.55	0.39
3298.09	0.394
3307.62	0.397
3317.15	0.399
3326.69	0.393
3336.22	0.358
3345.76	0.361
3355.29	0.38
3364.83	0.413
3374.36	0.468
3383.89	0.52
3393.43	0.567
3402.96	0.607
3412.5	0.647
3422.03	0.66
3431.57	0.676
3441.1	0.688
3450.63	0.699
3460.17	0.703
3469.7	0.713
3479.24	0.725
3488.77	0.73
3498.31	0.733
3507.84	0.733
3517.37	0.74
3526.91	0.751
3536.44	0.756
3545.98	0.759
3555.51	0.761
3565.05	0.769
3574.58	0.776
3584.11	0.779
3593.65	0.782
3603.18	0.79
3612.72	0.793
3622.25	0.796
3631.78	0.8
3641.32	0.802
3650.85	0.805
3660.39	0.804
3669.92	0.801
3679.46	0.802
3688.99	0.801
3698.52	0.797
3708.06	0.801
3717.59	0.805
3727.13	0.794
3736.66	0.795
3746.2	0.807
3755.73	0.809
3765.26	0.802
3774.8	0.802
3784.33	0.802
3793.87	0.801
3803.4	0.802
3812.94	0.803
3822.47	0.804
3832	0.805
3841.54	0.802
3851.07	0.799
3860.61	0.797
3870.14	0.795
3879.68	0.796
3889.21	0.797
3898.74	0.798
3908.28	0.799
3917.81	0.802
3927.35	0.803
3936.88	0.805
3946.42	0.795
3955.95	0.794
3965.48	0.792
3975.02	0.79
3984.55	0.789
3994.09	0.787
4003.62	0.787
