Infrared Spectrum: UREA, 1-(2-CHLOROETHYL)-3-(2-NAPHTHYL)-
Formula: C13 H13 Cl N2 O
CAS: 13908-57-1
State: SOLID (1 mg / 650 mg KBr DISC)
Melting point: 182 C
Class: COBLENTZ III
Instrument: PERKIN-ELMER 21 (GRATING)
Instrument parameters: NaCl PRISM, FILTER CHANGE ABOUT 1100 CM ^-^1
Sampling: TRANSMISSION
Resolution: 4
Origin: SOUTHERN RES. INSTITUTE
1/CM	TRANSMITTANCE
625.788	0.722
634.957	0.726
644.126	0.731
653.295	0.746
662.464	0.793
671.633	0.83
680.802	0.871
689.971	0.902
699.14	0.908
708.309	0.909
717.478	0.911
726.648	0.892
735.817	0.738
744.986	0.634
754.155	0.785
763.324	0.857
772.493	0.887
781.662	0.917
790.831	0.891
800	0.902
809.169	0.925
818.338	0.834
827.507	0.906
836.676	0.955
845.845	0.936
855.014	0.792
864.183	0.797
873.352	0.952
882.521	0.869
891.69	0.917
900.859	0.954
910.028	0.958
919.198	0.954
928.367	0.949
937.536	0.939
946.705	0.924
955.874	0.909
965.043	0.904
974.212	0.93
983.381	0.921
992.55	0.926
1001.72	0.927
1010.89	0.922
1020.06	0.908
1029.23	0.911
1038.4	0.911
1047.56	0.901
1056.73	0.896
1065.9	0.887
1075.07	0.896
1084.24	0.902
1093.41	0.903
1102.58	0.898
1111.75	0.87
1120.92	0.878
1130.09	0.862
1139.25	0.861
1148.42	0.882
1157.59	0.884
1166.76	0.88
1175.93	0.871
1185.1	0.853
1194.27	0.826
1203.44	0.842
1212.61	0.84
1221.78	0.803
1230.95	0.735
1240.11	0.646
1249.28	0.548
1258.45	0.643
1267.62	0.665
1276.79	0.689
1285.96	0.74
1295.13	0.796
1304.3	0.832
1313.47	0.861
1322.64	0.88
1331.8	0.883
1340.97	0.872
1350.14	0.793
1359.31	0.829
1368.48	0.848
1377.65	0.87
1386.82	0.889
1395.99	0.895
1405.16	0.896
1414.33	0.891
1423.5	0.869
1432.66	0.808
1441.83	0.762
1451	0.82
1460.17	0.766
1469.34	0.859
1478.51	0.843
1487.68	0.813
1496.85	0.731
1506.02	0.623
1515.19	0.723
1524.35	0.74
1533.52	0.722
1542.69	0.676
1551.86	0.628
1561.03	0.514
1570.2	0.41
1579.37	0.38
1588.54	0.352
1597.71	0.438
1606.88	0.431
1616.05	0.52
1625.21	0.302
1634.38	0.261
1643.55	0.406
1652.72	0.617
1661.89	0.749
1671.06	0.802
1680.23	0.826
1689.4	0.85
1698.57	0.877
1707.74	0.911
1716.9	0.931
1726.07	0.935
1735.24	0.932
1744.41	0.931
1753.58	0.936
1762.75	0.93
1771.92	0.942
1781.09	0.946
1790.26	0.949
1799.43	0.947
1808.6	0.947
1817.76	0.947
1826.93	0.946
1836.1	0.946
1845.27	0.95
1854.44	0.949
1863.61	0.952
1872.78	0.954
1881.95	0.949
1891.12	0.946
1900.29	0.942
1909.45	0.939
1918.62	0.941
1927.79	0.944
1936.96	0.94
1946.13	0.942
1955.3	0.944
1964.47	0.947
1973.64	0.95
1982.81	0.949
1991.98	0.949
2001.15	0.952
2010.31	0.948
2019.48	0.941
2028.65	0.939
2037.82	0.946
2046.99	0.949
2056.16	0.948
2065.33	0.947
2074.5	0.945
2083.67	0.944
2092.84	0.943
2102	0.942
2111.17	0.937
2120.34	0.939
2129.51	0.939
2138.68	0.938
2147.85	0.934
2157.02	0.937
2166.19	0.937
2175.36	0.935
2184.53	0.935
2193.7	0.933
2202.86	0.927
2212.03	0.925
2221.2	0.923
2230.37	0.923
2239.54	0.924
2248.71	0.924
2257.88	0.921
2267.05	0.918
2276.22	0.915
2285.39	0.912
2294.55	0.911
2303.72	0.907
2312.89	0.904
2322.06	0.903
2331.23	0.901
2340.4	0.9
2349.57	0.911
2358.74	0.917
2367.91	0.917
2377.08	0.914
2386.25	0.913
2395.41	0.908
2404.58	0.909
2413.75	0.91
2422.92	0.91
2432.09	0.904
2441.26	0.91
2450.43	0.907
2459.6	0.901
2468.77	0.905
2477.94	0.902
2487.1	0.893
2496.27	0.895
2505.44	0.899
2514.61	0.899
2523.78	0.896
2532.95	0.894
2542.12	0.892
2551.29	0.892
2560.46	0.892
2569.63	0.892
2578.8	0.891
2587.96	0.89
2597.13	0.89
2606.3	0.89
2615.47	0.889
2624.64	0.889
2633.81	0.889
2642.98	0.889
2652.15	0.887
2661.32	0.885
2670.49	0.88
2679.65	0.88
2688.82	0.883
2697.99	0.882
2707.16	0.879
2716.33	0.876
2725.5	0.873
2734.67	0.87
2743.84	0.868
2753.01	0.867
2762.18	0.864
2771.35	0.864
2780.51	0.861
2789.68	0.854
2798.85	0.848
2808.02	0.846
2817.19	0.845
2826.36	0.846
2835.53	0.851
2844.7	0.851
2853.87	0.847
2863.04	0.845
2872.2	0.842
2881.37	0.831
2890.54	0.823
2899.71	0.817
2908.88	0.811
2918.05	0.801
2927.22	0.798
2936.39	0.804
2945.56	0.813
2954.73	0.823
2963.89	0.822
2973.06	0.817
2982.23	0.812
2991.4	0.807
3000.57	0.802
3009.74	0.797
3018.91	0.789
3028.08	0.782
3037.25	0.792
3046.42	0.798
3055.59	0.805
3064.75	0.804
3073.92	0.798
3083.09	0.79
3092.26	0.788
3101.43	0.787
3110.6	0.786
3119.77	0.785
3128.94	0.783
3138.11	0.78
3147.28	0.776
3156.44	0.769
3165.61	0.754
3174.78	0.747
3183.95	0.74
3193.12	0.73
3202.29	0.71
3211.46	0.687
3220.63	0.659
3229.8	0.632
3238.97	0.602
3248.14	0.56
3257.3	0.514
3266.47	0.474
3275.64	0.451
3284.81	0.44
3293.98	0.444
3303.15	0.47
3312.32	0.504
3321.49	0.549
3330.66	0.598
3339.83	0.638
3348.99	0.671
3358.16	0.712
3367.33	0.735
3376.5	0.757
3385.67	0.772
3394.84	0.774
3404.01	0.776
3413.18	0.781
3422.35	0.787
3431.52	0.789
3440.69	0.787
3449.85	0.788
3459.02	0.792
3468.19	0.797
3477.36	0.804
3486.53	0.804
3495.7	0.807
3504.87	0.81
3514.04	0.813
3523.21	0.812
3532.38	0.817
3541.54	0.826
3550.71	0.828
3559.88	0.826
3569.05	0.83
3578.22	0.835
3587.39	0.842
3596.56	0.842
3605.73	0.84
3614.9	0.842
3624.07	0.845
3633.24	0.848
3642.4	0.847
3651.57	0.844
3660.74	0.843
3669.91	0.848
3679.08	0.85
3688.25	0.851
3697.42	0.849
3706.59	0.846
3715.76	0.846
3724.93	0.852
3734.09	0.855
3743.26	0.857
3752.43	0.854
3761.6	0.846
3770.77	0.841
3779.94	0.841
3789.11	0.844
3798.28	0.845
3807.45	0.845
3816.62	0.842
3825.79	0.843
3834.95	0.844
3844.12	0.841
3853.29	0.839
3862.46	0.842
3871.63	0.842
3880.8	0.843
3889.97	0.842
3899.14	0.839
3908.31	0.836
3917.48	0.84
3926.64	0.84
3935.81	0.839
3944.98	0.837
3954.15	0.836
3963.32	0.835
3972.49	0.834
3981.66	0.833
3990.83	0.833
4000	0.835
