Infrared Spectrum: BENZOIC ACID, 3,5-BIS[3-(2-CHLOROETHYL)-3-NITROSOUREIDO]-
Formula: C13 H14 Cl2 N6 O6
CAS: 13907-61-4
State: SOLID (1 mg / 650 mg KBr DISC)
Class: COBLENTZ III
Instrument: PERKIN-ELMER 221 (GRATING)
Instrument parameters: FILTERS AT 2490, 980 CM ^-^1, GRATING FOR 4000-1428 CM^-^1, NaCl PRISM FOR 1428-650 CM^-^1
Sampling: TRANSMISSION
Resolution: 4
Origin: SOUTHERN RES. INSTITUTE
1/CM	TRANSMITTANCE
603.037	0.65
612.068	0.6292
621.099	0.5922
630.13	0.6132
639.161	0.6401
648.192	0.6438
657.223	0.605
666.254	0.5605
675.285	0.6045
684.316	0.7142
693.347	0.7505
702.379	0.7331
711.41	0.749
720.441	0.7607
729.472	0.7166
738.503	0.6253
747.534	0.6692
756.565	0.6441
765.596	0.6696
774.627	0.591
783.658	0.579
792.689	0.6355
801.72	0.7305
810.751	0.7479
819.782	0.6863
828.813	0.7007
837.844	0.731
846.875	0.7486
855.906	0.75
864.937	0.7416
873.968	0.6872
882.999	0.6131
892.03	0.5907
901.062	0.557
910.093	0.6012
919.124	0.6766
928.155	0.7148
937.186	0.6555
946.217	0.604
955.248	0.509
964.279	0.4429
973.31	0.4819
982.341	0.547
991.372	0.5562
1000.4	0.5968
1009.43	0.6318
1018.47	0.6759
1027.5	0.7501
1036.53	0.7595
1045.56	0.756
1054.59	0.7373
1063.62	0.5678
1072.65	0.3672
1081.68	0.3606
1090.71	0.4355
1099.74	0.5609
1108.78	0.5564
1117.81	0.555
1126.84	0.5729
1135.87	0.6186
1144.9	0.7219
1153.93	0.738
1162.96	0.7285
1171.99	0.6952
1181.02	0.5661
1190.05	0.4924
1199.09	0.485
1208.12	0.5397
1217.15	0.6146
1226.18	0.7
1235.21	0.704
1244.24	0.6977
1253.27	0.6866
1262.3	0.6267
1271.33	0.6402
1280.37	0.67
1289.4	0.551
1298.43	0.5755
1307.46	0.6161
1316.49	0.5859
1325.52	0.5294
1334.55	0.5058
1343.58	0.5591
1352.61	0.6436
1361.64	0.634
1370.68	0.6055
1379.71	0.5755
1388.74	0.5956
1397.77	0.6039
1406.8	0.5148
1415.83	0.4839
1424.86	0.4436
1433.89	0.3408
1442.92	0.3551
1451.96	0.3601
1460.99	0.4104
1470.02	0.4869
1479.05	0.4963
1488.08	0.4312
1497.11	0.3602
1506.14	0.3348
1515.17	0.3448
1524.2	0.3816
1533.23	0.3922
1542.27	0.2967
1551.3	0.245
1560.33	0.2713
1569.36	0.3404
1578.39	0.5098
1587.42	0.6285
1596.45	0.6396
1605.48	0.5385
1614.51	0.4116
1623.55	0.4549
1632.58	0.5984
1641.61	0.6748
1650.64	0.6977
1659.67	0.707
1668.7	0.7072
1677.73	0.6855
1686.76	0.623
1695.79	0.4907
1704.82	0.3076
1713.86	0.1659
1722.89	0.1792
1731.92	0.2519
1740.95	0.2616
1749.98	0.3834
1759.01	0.5133
1768.04	0.6403
1777.07	0.7263
1786.1	0.7564
1795.14	0.7812
1804.17	0.7881
1813.2	0.8039
1822.23	0.8098
1831.26	0.8167
1840.29	0.828
1849.32	0.832
1858.35	0.8367
1867.38	0.838
1876.41	0.8406
1885.45	0.843
1894.48	0.8435
1903.51	0.844
1912.54	0.845
1921.57	0.8463
1930.6	0.847
1939.63	0.847
1948.66	0.847
1957.69	0.847
1966.72	0.846
1975.76	0.846
1984.79	0.846
1993.82	0.845
2002.85	0.844
2011.88	0.8449
2020.91	0.847
2029.94	0.847
2038.97	0.846
2048	0.847
2057.04	0.847
2066.07	0.8479
2075.1	0.847
2084.13	0.8469
2093.16	0.8479
2102.19	0.847
2111.22	0.848
2120.25	0.8461
2129.28	0.844
2138.31	0.8449
2147.35	0.847
2156.38	0.8481
2165.41	0.847
2174.44	0.847
2183.47	0.8471
2192.5	0.847
2201.53	0.847
2210.56	0.847
2219.59	0.846
2228.63	0.8441
2237.66	0.8421
2246.69	0.841
2255.72	0.8381
2264.75	0.838
2273.78	0.838
2282.81	0.839
2291.84	0.839
2300.87	0.839
2309.9	0.839
2318.94	0.8381
2327.97	0.837
2337	0.838
2346.03	0.838
2355.06	0.841
2364.09	0.838
2373.12	0.836
2382.15	0.8321
2391.18	0.828
2400.22	0.827
2409.25	0.827
2418.28	0.826
2427.31	0.825
2436.34	0.825
2445.37	0.825
2454.4	0.824
2463.43	0.823
2472.46	0.8191
2481.49	0.8161
2490.53	0.814
2499.56	0.809
2508.59	0.807
2517.62	0.807
2526.65	0.806
2535.68	0.806
2544.71	0.805
2553.74	0.805
2562.77	0.804
2571.81	0.804
2580.84	0.804
2589.87	0.804
2598.9	0.804
2607.93	0.8049
2616.96	0.805
2625.99	0.804
2635.02	0.801
2644.05	0.8029
2653.08	0.804
2662.12	0.804
2671.15	0.804
2680.18	0.806
2689.21	0.807
2698.24	0.807
2707.27	0.807
2716.3	0.805
2725.33	0.804
2734.36	0.804
2743.39	0.803
2752.43	0.802
2761.46	0.801
2770.49	0.7961
2779.52	0.7931
2788.55	0.7921
2797.58	0.79
2806.61	0.7861
2815.64	0.785
2824.67	0.783
2833.71	0.7681
2842.74	0.7651
2851.77	0.7601
2860.8	0.758
2869.83	0.758
2878.86	0.757
2887.89	0.756
2896.92	0.755
2905.95	0.7531
2914.98	0.7471
2924.02	0.743
2933.05	0.7401
2942.08	0.7391
2951.11	0.7361
2960.14	0.733
2969.17	0.728
2978.2	0.727
2987.23	0.728
2996.26	0.7281
3005.3	0.7232
3014.33	0.719
3023.36	0.716
3032.39	0.71
3041.42	0.71
3050.45	0.7091
3059.48	0.707
3068.51	0.704
3077.54	0.6983
3086.57	0.6872
3095.61	0.6733
3104.64	0.6473
3113.67	0.6458
3122.7	0.6727
3131.73	0.6847
3140.76	0.687
3149.79	0.6871
3158.82	0.685
3167.85	0.6801
3176.89	0.6762
3185.92	0.6691
3194.95	0.6583
3203.98	0.6442
3213.01	0.6392
3222.04	0.6253
3231.07	0.6073
3240.1	0.5932
3249.13	0.5742
3258.16	0.5592
3267.2	0.5351
3276.23	0.5192
3285.26	0.5012
3294.29	0.4862
3303.32	0.4732
3312.35	0.4343
3321.38	0.3791
3330.41	0.3914
3339.44	0.4222
3348.48	0.4602
3357.51	0.4759
3366.54	0.478
3375.57	0.478
3384.6	0.4849
3393.63	0.4959
3402.66	0.5168
3411.69	0.5309
3420.72	0.5387
3429.75	0.5489
3438.79	0.5519
3447.82	0.554
3456.85	0.5579
3465.88	0.5778
3474.91	0.5849
3483.94	0.5957
3492.97	0.6039
3502	0.6148
3511.03	0.6279
3520.06	0.6369
3529.1	0.6488
3538.13	0.6667
3547.16	0.676
3556.19	0.6903
3565.22	0.7046
3574.25	0.7234
3583.28	0.7329
3592.31	0.7485
3601.34	0.7717
3610.38	0.7827
3619.41	0.7947
3628.44	0.798
3637.47	0.8189
3646.5	0.8199
3655.53	0.8318
3664.56	0.8293
3673.59	0.8236
3682.62	0.8398
3691.65	0.8439
3700.69	0.8459
3709.72	0.847
3718.75	0.8471
3727.78	0.8431
3736.81	0.8401
3745.84	0.8429
3754.87	0.848
3763.9	0.848
3772.93	0.85
3781.97	0.8519
3791	0.85
3800.03	0.85
3809.06	0.8491
3818.09	0.8489
3827.12	0.847
3836.15	0.8441
3845.18	0.843
3854.21	0.8429
3863.24	0.845
3872.28	0.847
3881.31	0.848
3890.34	0.848
3899.37	0.8489
3908.4	0.8499
3917.43	0.85
3926.46	0.849
3935.49	0.847
3944.52	0.847
3953.56	0.847
3962.59	0.846
3971.62	0.847
3980.65	0.848
3989.68	0.847
