Infrared Spectrum: GLUTARAMIC ACID, 2-[3-(2-CHLOROETHYL)UREIDO]-, L(-)
Formula: C8 H14 Cl N3 O4
CAS: 13908-05-9
State: SOLID (1 mg / 650 mg KBr DISC)
Class: COBLENTZ III
Instrument: PERKIN-ELMER 221 (GRATING)
Instrument parameters: FILTERS AT 2490, 980 CM ^-^1, NaCl PRISM FOR 1428-650 CM^-^1
Sampling: TRANSMISSION
Resolution: 4
Origin: SOUTHERN RES. INSTITUTE
1/CM	TRANSMITTANCE
588.049	0.636
597.25	0.617
606.452	0.592
615.653	0.557
624.855	0.522
634.056	0.457
643.258	0.443
652.459	0.4
661.661	0.526
670.862	0.568
680.064	0.586
689.265	0.582
698.467	0.544
707.668	0.583
716.87	0.587
726.071	0.589
735.273	0.582
744.474	0.556
753.676	0.585
762.877	0.52
772.079	0.543
781.28	0.512
790.482	0.399
799.683	0.493
808.885	0.628
818.086	0.631
827.288	0.617
836.489	0.597
845.69	0.572
854.892	0.534
864.093	0.493
873.295	0.51
882.496	0.454
891.698	0.555
900.899	0.554
910.101	0.537
919.302	0.547
928.504	0.536
937.705	0.523
946.907	0.514
956.108	0.496
965.31	0.512
974.511	0.537
983.713	0.544
992.914	0.556
1002.12	0.559
1011.32	0.557
1020.52	0.547
1029.72	0.525
1038.92	0.515
1048.12	0.512
1057.32	0.509
1066.53	0.466
1075.73	0.461
1084.93	0.462
1094.13	0.406
1103.33	0.268
1112.53	0.291
1121.73	0.401
1130.94	0.414
1140.14	0.406
1149.34	0.38
1158.54	0.32
1167.74	0.3
1176.94	0.252
1186.15	0.165
1195.35	0.197
1204.55	0.327
1213.75	0.355
1222.95	0.219
1232.15	0.179
1241.35	0.208
1250.56	0.278
1259.76	0.353
1268.96	0.426
1278.16	0.334
1287.36	0.251
1296.56	0.302
1305.76	0.393
1314.97	0.482
1324.17	0.401
1333.37	0.301
1342.57	0.322
1351.77	0.333
1360.97	0.404
1370.17	0.409
1379.38	0.394
1388.58	0.304
1397.78	0.25
1406.98	0.162
1416.18	0.255
1425.38	0.257
1434.59	0.255
1443.79	0.233
1452.99	0.225
1462.19	0.294
1471.39	0.321
1480.59	0.302
1489.79	0.271
1499	0.213
1508.2	0.282
1517.4	0.28
1526.6	0.238
1535.8	0.17
1545	0.101
1554.2	0.068
1563.41	0.063
1572.61	0.064
1581.81	0.093
1591.01	0.143
1600.21	0.145
1609.41	0.127
1618.61	0.083
1627.82	0.068
1637.02	0.066
1646.22	0.07
1655.42	0.106
1664.62	0.155
1673.82	0.213
1683.03	0.273
1692.23	0.303
1701.43	0.216
1710.63	0.12
1719.83	0.116
1729.03	0.136
1738.23	0.218
1747.44	0.287
1756.64	0.328
1765.84	0.37
1775.04	0.404
1784.24	0.436
1793.44	0.461
1802.64	0.482
1811.85	0.5
1821.05	0.517
1830.25	0.54
1839.45	0.554
1848.65	0.57
1857.85	0.58
1867.05	0.585
1876.26	0.601
1885.46	0.605
1894.66	0.61
1903.86	0.614
1913.06	0.617
1922.26	0.624
1931.47	0.627
1940.67	0.633
1949.87	0.635
1959.07	0.637
1968.27	0.642
1977.47	0.644
1986.67	0.65
1995.88	0.659
2005.08	0.664
2014.28	0.665
2023.48	0.666
2032.68	0.67
2041.88	0.673
2051.08	0.679
2060.29	0.684
2069.49	0.687
2078.69	0.687
2087.89	0.688
2097.09	0.689
2106.29	0.69
2115.49	0.691
2124.7	0.692
2133.9	0.695
2143.1	0.695
2152.3	0.695
2161.5	0.695
2170.7	0.693
2179.91	0.688
2189.11	0.683
2198.31	0.677
2207.51	0.674
2216.71	0.672
2225.91	0.671
2235.11	0.657
2244.32	0.651
2253.52	0.649
2262.72	0.647
2271.92	0.644
2281.12	0.633
2290.32	0.627
2299.52	0.618
2308.73	0.614
2317.93	0.601
2327.13	0.591
2336.33	0.588
2345.53	0.581
2354.73	0.57
2363.93	0.56
2373.14	0.553
2382.34	0.543
2391.54	0.531
2400.74	0.525
2409.94	0.515
2419.14	0.506
2428.35	0.499
2437.55	0.49
2446.75	0.484
2455.95	0.477
2465.15	0.473
2474.35	0.468
2483.55	0.464
2492.76	0.461
2501.96	0.461
2511.16	0.461
2520.36	0.462
2529.56	0.464
2538.76	0.464
2547.96	0.466
2557.17	0.467
2566.37	0.468
2575.57	0.47
2584.77	0.472
2593.97	0.474
2603.17	0.476
2612.37	0.477
2621.58	0.477
2630.78	0.477
2639.98	0.477
2649.18	0.477
2658.38	0.477
2667.58	0.476
2676.79	0.474
2685.99	0.472
2695.19	0.471
2704.39	0.466
2713.59	0.461
2722.79	0.455
2731.99	0.448
2741.2	0.445
2750.4	0.446
2759.6	0.452
2768.8	0.453
2778	0.449
2787.2	0.444
2796.4	0.438
2805.61	0.422
2814.81	0.417
2824.01	0.415
2833.21	0.414
2842.41	0.412
2851.61	0.404
2860.81	0.39
2870.02	0.386
2879.22	0.385
2888.42	0.385
2897.62	0.383
2906.82	0.374
2916.02	0.366
2925.23	0.356
2934.43	0.343
2943.63	0.334
2952.83	0.353
2962.03	0.359
2971.23	0.36
2980.43	0.364
2989.64	0.401
2998.84	0.426
3008.04	0.43
3017.24	0.433
3026.44	0.436
3035.64	0.438
3044.84	0.442
3054.05	0.445
3063.25	0.449
3072.45	0.446
3081.65	0.445
3090.85	0.442
3100.05	0.444
3109.25	0.449
3118.46	0.458
3127.66	0.461
3136.86	0.46
3146.06	0.458
3155.26	0.458
3164.46	0.458
3173.67	0.455
3182.87	0.451
3192.07	0.438
3201.27	0.417
3210.47	0.416
3219.67	0.413
3228.87	0.409
3238.08	0.393
3247.28	0.366
3256.48	0.341
3265.68	0.331
3274.88	0.33
3284.08	0.32
3293.28	0.303
3302.49	0.28
3311.69	0.22
3320.89	0.177
3330.09	0.191
3339.29	0.201
3348.49	0.206
3357.69	0.235
3366.9	0.267
3376.1	0.186
3385.3	0.186
3394.5	0.266
3403.7	0.279
3412.9	0.22
3422.11	0.184
3431.31	0.184
3440.51	0.203
3449.71	0.229
3458.91	0.315
3468.11	0.382
3477.31	0.429
3486.52	0.481
3495.72	0.508
3504.92	0.546
3514.12	0.556
3523.32	0.58
3532.52	0.599
3541.72	0.608
3550.93	0.624
3560.13	0.63
3569.33	0.642
3578.53	0.659
3587.73	0.665
3596.93	0.668
3606.13	0.671
3615.34	0.675
3624.54	0.683
3633.74	0.697
3642.94	0.705
3652.14	0.713
3661.34	0.723
3670.55	0.725
3679.75	0.727
3688.95	0.731
3698.15	0.735
3707.35	0.738
3716.55	0.739
3725.75	0.741
3734.96	0.742
3744.16	0.743
3753.36	0.745
3762.56	0.745
3771.76	0.746
3780.96	0.746
3790.16	0.747
3799.37	0.747
3808.57	0.746
3817.77	0.745
3826.97	0.745
3836.17	0.745
3845.37	0.745
3854.57	0.744
3863.78	0.744
3872.98	0.744
3882.18	0.744
3891.38	0.745
3900.58	0.745
3909.78	0.746
3918.99	0.747
3928.19	0.747
3937.39	0.747
3946.59	0.747
3955.79	0.747
3964.99	0.747
3974.19	0.747
3983.4	0.746
3992.6	0.747
4001.8	0.748
4011	0.749
