Infrared Spectrum: Urea, 3-(Beta-chloroethyl)-1-(4-methylcyclohexyl)-3-nitroso-
Formula: C10 H18 Cl N3 O2
CAS: 13909-09-6
State: SOLID (1 mg / 650 mg KBr DISC)
Class: COBLENTZ III
Instrument: PERKIN-ELMER 521 (GRATING)
Instrument parameters: FILTERS AT 3130, 2475, 2000, 1150, 700, 410. GRATING CHANGES: 2000, 630 CM^-^1
Sampling: TRANSMISSION
Resolution: 2
Origin: SOUTHERN RESEARCH INSTITUTE
1/CM	TRANSMITTANCE
252	0.4769
261.023	0.5412
270.046	0.6055
279.068	0.6757
288.091	0.7432
297.114	0.7828
306.137	0.7975
315.16	0.806
324.183	0.8178
333.205	0.8421
342.228	0.8337
351.251	0.7537
360.274	0.7404
369.297	0.8036
378.319	0.7805
387.342	0.9278
396.365	0.9355
405.388	0.9269
414.411	0.9215
423.434	0.893
432.456	0.8794
441.479	0.9281
450.502	0.899
459.525	0.9332
468.548	0.9219
477.57	0.9219
486.593	0.9155
495.616	0.9254
504.639	0.9221
513.662	0.866
522.685	0.8145
531.707	0.911
540.73	0.9087
549.753	0.902
558.776	0.8905
567.799	0.8744
576.821	0.8691
585.844	0.8601
594.867	0.8413
603.89	0.8154
612.913	0.74
621.935	0.5488
630.958	0.5919
639.981	0.5413
649.004	0.5198
658.027	0.5893
667.05	0.6584
676.072	0.7275
685.095	0.8031
694.118	0.8443
703.141	0.8616
712.164	0.8499
721.186	0.5873
730.209	0.719
739.232	0.8144
748.255	0.5175
757.278	0.6403
766.301	0.5255
775.323	0.8512
784.346	0.8246
793.369	0.7073
802.392	0.4327
811.415	0.7721
820.437	0.8982
829.46	0.8965
838.483	0.8846
847.506	0.8195
856.529	0.7455
865.552	0.8428
874.574	0.8463
883.597	0.741
892.62	0.6145
901.643	0.8108
910.666	0.8596
919.688	0.8447
928.711	0.8555
937.734	0.805
946.757	0.6257
955.78	0.3439
964.803	0.2717
973.825	0.5012
982.848	0.4312
991.871	0.7233
1000.89	0.6464
1009.92	0.5202
1018.94	0.7751
1027.96	0.7933
1036.99	0.6262
1046.01	0.6655
1055.03	0.6027
1064.05	0.4641
1073.08	0.1257
1082.1	0.3377
1091.12	0.5087
1100.14	0.4894
1109.17	0.7817
1118.19	0.8086
1127.21	0.8118
1136.24	0.7709
1145.26	0.5896
1154.28	0.4756
1163.3	0.3645
1172.33	0.2793
1181.35	0.5721
1190.37	0.6995
1199.4	0.7571
1208.42	0.7792
1217.44	0.7487
1226.46	0.7176
1235.49	0.7576
1244.51	0.6927
1253.53	0.5924
1262.56	0.6808
1271.58	0.7188
1280.6	0.6875
1289.62	0.6598
1298.65	0.6989
1307.67	0.6645
1316.69	0.6728
1325.72	0.6226
1334.74	0.4767
1343.76	0.3791
1352.78	0.6126
1361.81	0.6684
1370.83	0.6482
1379.85	0.6577
1388.87	0.7421
1397.9	0.744
1406.92	0.7179
1415.94	0.5149
1424.97	0.6701
1433.99	0.5977
1443.01	0.3709
1452.03	0.464
1461.06	0.4812
1470.08	0.4347
1479.1	0.2265
1488.13	0.09
1497.15	0.1521
1506.17	0.3939
1515.19	0.2798
1524.22	0.1505
1533.24	0.0963
1542.26	0.1219
1551.29	0.3286
1560.31	0.4968
1569.33	0.5561
1578.35	0.6678
1587.38	0.6938
1596.4	0.7087
1605.42	0.7075
1614.45	0.6996
1623.47	0.6848
1632.49	0.7087
1641.51	0.7289
1650.54	0.6997
1659.56	0.5969
1668.58	0.547
1677.61	0.3799
1686.63	0.2129
1695.65	0.0756
1704.67	0.0787
1713.7	0.1579
1722.72	0.2034
1731.74	0.3025
1740.76	0.4543
1749.79	0.5506
1758.81	0.5903
1767.83	0.6242
1776.86	0.6509
1785.88	0.6721
1794.9	0.6892
1803.92	0.7007
1812.95	0.7104
1821.97	0.7185
1830.99	0.7256
1840.02	0.7312
1849.04	0.7363
1858.06	0.7395
1867.08	0.7428
1876.11	0.7459
1885.13	0.7483
1894.15	0.7507
1903.18	0.7531
1912.2	0.7555
1921.22	0.758
1930.24	0.7595
1939.27	0.7607
1948.29	0.7617
1957.31	0.7624
1966.34	0.763
1975.36	0.7632
1984.38	0.7632
1993.4	0.7632
2002.43	0.7631
2011.45	0.7624
2020.47	0.7617
2029.49	0.761
2038.52	0.7604
2047.54	0.7599
2056.56	0.7595
2065.59	0.759
2074.61	0.7595
2083.63	0.7601
2092.65	0.7601
2101.68	0.76
2110.7	0.7599
2119.72	0.7599
2128.75	0.7587
2137.77	0.7574
2146.79	0.7561
2155.81	0.7549
2164.84	0.7537
2173.86	0.7525
2182.88	0.7514
2191.91	0.7501
2200.93	0.7485
2209.95	0.7469
2218.97	0.7449
2228	0.7421
2237.02	0.7392
2246.04	0.7377
2255.07	0.737
2264.09	0.7371
2273.11	0.74
2282.13	0.7432
2291.16	0.7418
2300.18	0.7396
2309.2	0.737
2318.23	0.7344
2327.25	0.7326
2336.27	0.7318
2345.29	0.7309
2354.32	0.7307
2363.34	0.7326
2372.36	0.7371
2381.38	0.7404
2390.41	0.7414
2399.43	0.741
2408.45	0.7403
2417.48	0.7386
2426.5	0.7369
2435.52	0.7352
2444.54	0.7337
2453.57	0.7323
2462.59	0.7312
2471.61	0.7301
2480.64	0.7295
2489.66	0.7289
2498.68	0.7284
2507.7	0.7277
2516.73	0.7269
2525.75	0.7259
2534.77	0.7247
2543.8	0.7234
2552.82	0.7214
2561.84	0.7195
2570.86	0.7169
2579.89	0.7141
2588.91	0.7111
2597.93	0.7097
2606.96	0.7082
2615.98	0.7069
2625	0.7057
2634.02	0.7044
2643.05	0.7032
2652.07	0.7023
2661.09	0.7014
2670.11	0.7004
2679.14	0.6999
2688.16	0.6998
2697.18	0.6998
2706.21	0.6996
2715.23	0.6995
2724.25	0.6994
2733.27	0.6991
2742.3	0.6985
2751.32	0.6979
2760.34	0.6972
2769.37	0.6956
2778.39	0.6926
2787.41	0.6882
2796.43	0.6806
2805.46	0.6722
2814.48	0.6649
2823.5	0.6509
2832.53	0.6272
2841.55	0.4096
2850.57	0.466
2859.59	0.4071
2868.62	0.4176
2877.64	0.4733
2886.66	0.449
2895.69	0.4321
2904.71	0.3781
2913.73	0.3303
2922.75	0.2283
2931.78	0.2805
2940.8	0.3069
2949.82	0.2561
2958.85	0.3738
2967.87	0.4275
2976.89	0.5164
2985.91	0.5803
2994.94	0.5979
3003.96	0.5995
3012.98	0.6014
3022	0.6117
3031.03	0.6243
3040.05	0.6313
3049.07	0.6298
3058.1	0.6325
3067.12	0.6401
3076.14	0.6462
3085.16	0.6497
3094.19	0.6512
3103.21	0.6519
3112.23	0.6518
3121.26	0.6503
3130.28	0.648
3139.3	0.6447
3148.32	0.6423
3157.35	0.64
3166.37	0.6376
3175.39	0.6353
3184.42	0.6329
3193.44	0.6309
3202.46	0.6285
3211.48	0.6235
3220.51	0.6183
3229.53	0.6141
3238.55	0.6086
3247.58	0.6023
3256.6	0.5952
3265.62	0.5867
3274.64	0.5739
3283.67	0.5568
3292.69	0.533
3301.71	0.5016
3310.73	0.4573
3319.76	0.3839
3328.78	0.2709
3337.8	0.2139
3346.83	0.2366
3355.85	0.3539
3364.87	0.4192
3373.89	0.4594
3382.92	0.4784
3391.94	0.4916
3400.96	0.5017
3409.99	0.5084
3419.01	0.5147
3428.03	0.5225
3437.05	0.5383
3446.08	0.5528
3455.1	0.5625
3464.12	0.5674
3473.15	0.5712
3482.17	0.5742
3491.19	0.5772
3500.21	0.5798
3509.24	0.5824
3518.26	0.5849
3527.28	0.5872
3536.31	0.5892
3545.33	0.5912
3554.35	0.5932
3563.37	0.5949
3572.4	0.5967
3581.42	0.5985
3590.44	0.6001
3599.47	0.6015
3608.49	0.603
3617.51	0.6045
3626.53	0.6059
3635.56	0.6061
3644.58	0.6063
3653.6	0.6065
3662.62	0.6067
3671.65	0.6069
3680.67	0.6072
3689.69	0.6074
3698.72	0.6076
3707.74	0.6078
3716.76	0.608
3725.78	0.6082
3734.81	0.6084
3743.83	0.6083
3752.85	0.6082
3761.88	0.6081
3770.9	0.608
3779.92	0.6078
3788.94	0.6069
3797.97	0.6064
3806.99	0.6061
