Infrared Spectrum: UREA, 1-(2-FLUOROETHYL)-3-(2-NORBORNANYL)-
Formula: C10 H17 F N2 O
CAS: 13907-96-5
State: SOLID (1 mg / 650 mg KBr DISC)
Class: COBLENTZ III
Instrument: PERKIN-ELMER 521 (GRATING)
Instrument parameters: GRATING CHANGES AT2000, 620, FILTERS AT 3130, 2475, 2000, 1150, 700, 410 CM^-^1
Sampling: TRANSMISSION
Resolution: 4
Origin: SOUTHERN RESEARCH INSTITUTE
1/CM	TRANSMITTANCE
253.581	0.299
263.13	0.368
272.679	0.438
282.228	0.486
291.777	0.546
301.326	0.596
310.875	0.626
320.425	0.651
329.974	0.685
339.523	0.711
349.072	0.728
358.621	0.741
368.17	0.746
377.719	0.77
387.268	0.799
396.817	0.785
406.366	0.774
415.915	0.793
425.464	0.806
435.013	0.806
444.563	0.805
454.112	0.808
463.661	0.805
473.21	0.797
482.759	0.797
492.308	0.784
501.857	0.767
511.406	0.799
520.955	0.802
530.504	0.798
540.053	0.801
549.602	0.8
559.152	0.797
568.701	0.786
578.25	0.769
587.799	0.745
597.348	0.744
606.897	0.733
616.446	0.711
625.995	0.685
635.544	0.671
645.093	0.67
654.642	0.674
664.191	0.707
673.74	0.739
683.29	0.771
692.839	0.79
702.388	0.8
711.937	0.812
721.486	0.827
731.035	0.837
740.584	0.823
750.133	0.843
759.682	0.838
769.231	0.837
778.78	0.856
788.329	0.858
797.878	0.856
807.428	0.853
816.977	0.847
826.526	0.835
836.075	0.834
845.624	0.81
855.173	0.753
864.722	0.8
874.271	0.825
883.82	0.835
893.369	0.854
902.918	0.853
912.467	0.847
922.016	0.839
931.566	0.838
941.115	0.829
950.664	0.831
960.213	0.832
969.762	0.83
979.311	0.815
988.86	0.772
998.409	0.742
1007.96	0.735
1017.51	0.737
1027.06	0.754
1036.61	0.685
1046.15	0.495
1055.7	0.631
1065.25	0.71
1074.8	0.769
1084.35	0.784
1093.9	0.779
1103.45	0.779
1113	0.742
1122.55	0.711
1132.1	0.771
1141.65	0.79
1151.19	0.764
1160.74	0.786
1170.29	0.742
1179.84	0.779
1189.39	0.787
1198.94	0.785
1208.49	0.767
1218.04	0.734
1227.59	0.702
1237.14	0.614
1246.69	0.59
1256.23	0.562
1265.78	0.525
1275.33	0.576
1284.88	0.585
1294.43	0.672
1303.98	0.643
1313.53	0.628
1323.08	0.746
1332.63	0.779
1342.18	0.79
1351.73	0.78
1361.27	0.779
1370.82	0.783
1380.37	0.797
1389.92	0.776
1399.47	0.793
1409.02	0.794
1418.57	0.734
1428.12	0.767
1437.67	0.777
1447.22	0.718
1456.76	0.683
1466.31	0.74
1475.86	0.704
1485.41	0.749
1494.96	0.715
1504.51	0.644
1514.06	0.578
1523.61	0.536
1533.16	0.528
1542.71	0.428
1552.26	0.288
1561.8	0.197
1571.35	0.235
1580.9	0.416
1590.45	0.546
1600	0.551
1609.55	0.465
1619.1	0.202
1628.65	0.193
1638.2	0.328
1647.75	0.466
1657.3	0.561
1666.84	0.61
1676.39	0.664
1685.94	0.73
1695.49	0.768
1705.04	0.79
1714.59	0.804
1724.14	0.808
1733.69	0.818
1743.24	0.825
1752.79	0.829
1762.34	0.831
1771.88	0.836
1781.43	0.839
1790.98	0.844
1800.53	0.848
1810.08	0.85
1819.63	0.851
1829.18	0.852
1838.73	0.853
1848.28	0.853
1857.83	0.854
1867.38	0.855
1876.92	0.856
1886.47	0.856
1896.02	0.857
1905.57	0.858
1915.12	0.859
1924.67	0.86
1934.22	0.861
1943.77	0.861
1953.32	0.862
1962.87	0.864
1972.42	0.865
1981.96	0.865
1991.51	0.863
2001.06	0.861
2010.61	0.861
2020.16	0.86
2029.71	0.86
2039.26	0.86
2048.81	0.86
2058.36	0.861
2067.91	0.861
2077.45	0.86
2087	0.859
2096.55	0.86
2106.1	0.861
2115.65	0.861
2125.2	0.862
2134.75	0.861
2144.3	0.861
2153.85	0.863
2163.4	0.864
2172.95	0.862
2182.49	0.861
2192.04	0.861
2201.59	0.862
2211.14	0.863
2220.69	0.862
2230.24	0.862
2239.79	0.86
2249.34	0.861
2258.89	0.861
2268.44	0.861
2277.99	0.861
2287.53	0.862
2297.08	0.862
2306.63	0.861
2316.18	0.861
2325.73	0.862
2335.28	0.862
2344.83	0.862
2354.38	0.861
2363.93	0.862
2373.48	0.864
2383.03	0.864
2392.57	0.864
2402.12	0.863
2411.67	0.863
2421.22	0.863
2430.77	0.863
2440.32	0.863
2449.87	0.863
2459.42	0.861
2468.97	0.862
2478.52	0.863
2488.07	0.86
2497.61	0.861
2507.16	0.86
2516.71	0.86
2526.26	0.859
2535.81	0.859
2545.36	0.859
2554.91	0.858
2564.46	0.857
2574.01	0.858
2583.56	0.858
2593.11	0.861
2602.65	0.861
2612.2	0.857
2621.75	0.857
2631.3	0.857
2640.85	0.858
2650.4	0.857
2659.95	0.857
2669.5	0.857
2679.05	0.856
2688.6	0.857
2698.15	0.857
2707.69	0.856
2717.24	0.854
2726.79	0.854
2736.34	0.857
2745.89	0.856
2755.44	0.853
2764.99	0.852
2774.54	0.85
2784.09	0.847
2793.64	0.845
2803.18	0.841
2812.73	0.836
2822.28	0.832
2831.83	0.823
2841.38	0.812
2850.93	0.785
2860.48	0.696
2870.03	0.587
2879.58	0.64
2889.13	0.707
2898.68	0.692
2908.22	0.655
2917.77	0.615
2927.32	0.577
2936.87	0.513
2946.42	0.411
2955.97	0.374
2965.52	0.44
2975.07	0.526
2984.62	0.647
2994.17	0.714
3003.72	0.761
3013.26	0.776
3022.81	0.782
3032.36	0.789
3041.91	0.793
3051.46	0.796
3061.01	0.799
3070.56	0.801
3080.11	0.806
3089.66	0.805
3099.21	0.797
3108.76	0.79
3118.3	0.783
3127.85	0.789
3137.4	0.786
3146.95	0.792
3156.5	0.792
3166.05	0.786
3175.6	0.783
3185.15	0.782
3194.7	0.78
3204.25	0.778
3213.8	0.775
3223.34	0.763
3232.89	0.756
3242.44	0.743
3251.99	0.723
3261.54	0.697
3271.09	0.666
3280.64	0.629
3290.19	0.588
3299.74	0.541
3309.29	0.497
3318.84	0.479
3328.38	0.482
3337.93	0.486
3347.48	0.481
3357.03	0.459
3366.58	0.449
3376.13	0.475
3385.68	0.546
3395.23	0.6
3404.78	0.644
3414.33	0.677
3423.88	0.692
3433.42	0.715
3442.97	0.728
3452.52	0.739
3462.07	0.749
3471.62	0.758
3481.17	0.76
3490.72	0.764
3500.27	0.77
3509.82	0.775
3519.37	0.778
3528.91	0.782
3538.46	0.791
3548.01	0.795
3557.56	0.799
3567.11	0.803
3576.66	0.809
3586.21	0.811
3595.76	0.819
3605.31	0.821
3614.86	0.826
3624.41	0.828
3633.95	0.833
3643.5	0.836
3653.05	0.834
3662.6	0.838
3672.15	0.834
3681.7	0.836
3691.25	0.841
3700.8	0.846
3710.35	0.847
3719.9	0.847
3729.45	0.844
3738.99	0.839
3748.54	0.835
3758.09	0.837
3767.64	0.848
3777.19	0.85
3786.74	0.85
