Infrared Spectrum: 1,1'-(1,2-CYCLOHEXYLENE)BIS[3-(2-CHLOROETHYL)UREA], TRANS
Formula: C12 H22 Cl2 N4 O2
CAS: 13908-62-8
State: SOLID (1 mg / 500 mg KBr DISC)
Class: COBLENTZ III
Instrument: PERKIN-ELMER 221 (GRATING)
Instrument parameters: FILTER AT 980 CM^-^1. GRATING 4000-1428 CM^-^1, NaCl PRISM 1428-650 CM^-^1
Sampling: TRANSMISSION
Resolution: 2
Origin: SOUTHERN RESEARCH INSTITUTE
1/CM	TRANSMITTANCE
652.399	0.688
661.381	0.7106
670.363	0.7394
679.345	0.7714
688.327	0.7962
697.309	0.805
706.291	0.8121
715.273	0.816
724.255	0.8096
733.237	0.7977
742.219	0.78
751.201	0.8393
760.183	0.822
769.165	0.8481
778.147	0.8639
787.129	0.8767
796.112	0.878
805.094	0.883
814.076	0.884
823.058	0.8852
832.04	0.885
841.022	0.875
850.004	0.884
858.986	0.8805
867.968	0.8862
876.95	0.887
885.932	0.887
894.914	0.883
903.896	0.88
912.878	0.879
921.86	0.8703
930.842	0.8667
939.824	0.8496
948.806	0.8465
957.788	0.8705
966.77	0.87
975.752	0.868
984.734	0.8658
993.716	0.8648
1002.7	0.861
1011.68	0.86
1020.66	0.8571
1029.64	0.8511
1038.63	0.8418
1047.61	0.846
1056.59	0.8184
1065.57	0.815
1074.55	0.805
1083.54	0.7992
1092.52	0.7773
1101.5	0.8255
1110.48	0.848
1119.46	0.85
1128.45	0.848
1137.43	0.848
1146.41	0.847
1155.39	0.845
1164.37	0.8323
1173.36	0.816
1182.34	0.8073
1191.32	0.8205
1200.3	0.824
1209.29	0.8162
1218.27	0.7925
1227.25	0.755
1236.23	0.7486
1245.21	0.6829
1254.2	0.69
1263.18	0.6537
1272.16	0.662
1281.14	0.7638
1290.12	0.7202
1299.11	0.684
1308.09	0.7116
1317.07	0.8017
1326.05	0.8284
1335.03	0.834
1344.02	0.8328
1353	0.8217
1361.98	0.8221
1370.96	0.841
1379.94	0.855
1388.93	0.85
1397.91	0.848
1406.89	0.7954
1415.87	0.772
1424.85	0.7662
1433.84	0.7638
1442.82	0.7659
1451.8	0.8176
1460.78	0.8453
1469.76	0.8496
1478.75	0.843
1487.73	0.8359
1496.71	0.824
1505.69	0.8015
1514.67	0.7748
1523.66	0.7244
1532.64	0.641
1541.62	0.664
1550.6	0.6319
1559.58	0.5392
1568.57	0.5032
1577.55	0.4618
1586.53	0.3816
1595.51	0.338
1604.49	0.4102
1613.48	0.48
1622.46	0.3892
1631.44	0.1403
1640.42	0.2507
1649.4	0.4417
1658.39	0.5956
1667.37	0.6875
1676.35	0.7357
1685.33	0.768
1694.31	0.779
1703.3	0.7962
1712.28	0.8166
1721.26	0.8411
1730.24	0.847
1739.23	0.8559
1748.21	0.8599
1757.19	0.86
1766.17	0.861
1775.15	0.862
1784.14	0.8646
1793.12	0.866
1802.1	0.866
1811.08	0.868
1820.06	0.868
1829.05	0.8692
1838.03	0.873
1847.01	0.873
1855.99	0.874
1864.97	0.8701
1873.96	0.869
1882.94	0.871
1891.92	0.871
1900.9	0.871
1909.88	0.871
1918.87	0.87
1927.85	0.869
1936.83	0.868
1945.81	0.868
1954.79	0.868
1963.78	0.868
1972.76	0.868
1981.74	0.866
1990.72	0.866
1999.7	0.866
2008.69	0.866
2017.67	0.866
2026.65	0.866
2035.63	0.866
2044.61	0.866
2053.6	0.866
2062.58	0.866
2071.56	0.865
2080.54	0.865
2089.52	0.865
2098.51	0.865
2107.49	0.865
2116.47	0.865
2125.45	0.865
2134.43	0.866
2143.42	0.866
2152.4	0.866
2161.38	0.866
2170.36	0.868
2179.34	0.868
2188.33	0.868
2197.31	0.868
2206.29	0.868
2215.27	0.868
2224.25	0.866
2233.24	0.866
2242.22	0.866
2251.2	0.866
2260.18	0.865
2269.16	0.865
2278.15	0.865
2287.13	0.865
2296.11	0.865
2305.09	0.865
2314.08	0.865
2323.06	0.865
2332.04	0.866
2341.02	0.866
2350	0.866
2358.99	0.865
2367.97	0.865
2376.95	0.865
2385.93	0.865
2394.91	0.865
2403.9	0.865
2412.88	0.864
2421.86	0.864
2430.84	0.864
2439.82	0.864
2448.81	0.864
2457.79	0.864
2466.77	0.864
2475.75	0.864
2484.73	0.864
2493.72	0.862
2502.7	0.864
2511.68	0.864
2520.66	0.864
2529.64	0.864
2538.63	0.864
2547.61	0.862
2556.59	0.864
2565.57	0.864
2574.55	0.861
2583.54	0.8592
2592.52	0.859
2601.5	0.8575
2610.48	0.857
2619.46	0.856
2628.45	0.856
2637.43	0.856
2646.41	0.856
2655.39	0.856
2664.37	0.857
2673.36	0.857
2682.34	0.8562
2691.32	0.855
2700.3	0.855
2709.28	0.855
2718.27	0.855
2727.25	0.855
2736.23	0.854
2745.21	0.854
2754.19	0.852
2763.18	0.851
2772.16	0.85
2781.14	0.8465
2790.12	0.843
2799.1	0.841
2808.09	0.8345
2817.07	0.828
2826.05	0.8205
2835.03	0.8107
2844.02	0.7721
2853	0.6902
2861.98	0.7838
2870.96	0.8123
2879.94	0.814
2888.93	0.7952
2897.91	0.761
2906.89	0.7412
2915.87	0.653
2924.85	0.6279
2933.84	0.6185
2942.82	0.6792
2951.8	0.693
2960.78	0.7394
2969.76	0.7889
2978.75	0.819
2987.73	0.8215
2996.71	0.82
3005.69	0.8152
3014.67	0.8075
3023.66	0.7977
3032.64	0.784
3041.62	0.784
3050.6	0.7928
3059.58	0.797
3068.57	0.804
3077.55	0.8085
3086.53	0.81
3095.51	0.8042
3104.49	0.8002
3113.48	0.79
3122.46	0.787
3131.44	0.787
3140.42	0.788
3149.4	0.787
3158.39	0.7832
3167.37	0.782
3176.35	0.7812
3185.33	0.778
3194.31	0.775
3203.3	0.773
3212.28	0.768
3221.26	0.761
3230.24	0.755
3239.22	0.7435
3248.21	0.7235
3257.19	0.6979
3266.17	0.6701
3275.15	0.6352
3284.13	0.5968
3293.12	0.5524
3302.1	0.4911
3311.08	0.4001
3320.06	0.3925
3329.04	0.396
3338.03	0.4
3347.01	0.4393
3355.99	0.5054
3364.97	0.5509
3373.96	0.6023
3382.94	0.646
3391.92	0.6698
3400.9	0.6965
3409.88	0.701
3418.87	0.7048
3427.85	0.71
3436.83	0.72
3445.81	0.7228
3454.79	0.736
3463.78	0.738
3472.76	0.74
3481.74	0.7402
3490.72	0.746
3499.7	0.751
3508.69	0.7535
3517.67	0.7598
3526.65	0.7658
3535.63	0.7728
3544.61	0.7788
3553.6	0.7894
3562.58	0.793
3571.56	0.7995
3580.54	0.8058
3589.52	0.809
3598.51	0.813
3607.49	0.82
3616.47	0.825
3625.45	0.829
3634.43	0.833
3643.42	0.8405
3652.4	0.841
3661.38	0.843
3670.36	0.845
3679.34	0.837
3688.33	0.8428
3697.31	0.846
3706.29	0.85
3715.27	0.85
3724.25	0.8462
3733.24	0.85
3742.22	0.851
3751.2	0.847
3760.18	0.85
3769.16	0.8535
3778.15	0.854
3787.13	0.854
3796.11	0.854
3805.09	0.852
3814.07	0.8485
3823.06	0.8535
3832.04	0.855
3841.02	0.8512
3850	0.847
3858.98	0.8472
3867.97	0.839
3876.95	0.847
3885.93	0.848
3894.91	0.85
3903.9	0.851
3912.88	0.8472
3921.86	0.8478
3930.84	0.8548
3939.82	0.855
3948.81	0.855
3957.79	0.852
3966.77	0.85
3975.75	0.851
3984.73	0.851
3993.72	0.85
4002.7	0.85
