Infrared Spectrum: UREA, 1-(2-CHLOROCYCLOHEXYL)-3-METHYL-, TRANS-
Formula: C8 H15 Cl N2 O
CAS: 13908-81-1
State: SOLID (1 mg / 650 mg KBr DISC)
Class: COBLENTZ III
Instrument: PERKIN-ELMER 221 (GRATING)
Instrument parameters: FILTERS AT 2490, 980 CM ^-^1, GRATING FOR 4000-1428 CM ^-^1, NaCl PRISM FOR 1428-650 CM^-^1
Sampling: TRANSMISSION
Resolution: 4
Origin: SOUTHERN RES. INSTITUTE
1/CM	TRANSMITTANCE
592.634	0.695
601.716	0.695
610.797	0.692
619.879	0.681
628.961	0.658
638.043	0.646
647.124	0.608
656.206	0.59
665.288	0.581
674.37	0.611
683.451	0.674
692.533	0.734
701.615	0.757
710.696	0.774
719.778	0.775
728.86	0.76
737.942	0.631
747.023	0.722
756.105	0.814
765.187	0.817
774.268	0.799
783.35	0.843
792.432	0.842
801.514	0.706
810.595	0.843
819.677	0.859
828.759	0.862
837.841	0.859
846.922	0.811
856.004	0.856
865.086	0.853
874.167	0.847
883.249	0.86
892.331	0.858
901.413	0.818
910.494	0.839
919.576	0.856
928.658	0.855
937.739	0.847
946.821	0.828
955.903	0.808
964.985	0.793
974.066	0.819
983.148	0.795
992.23	0.823
1001.31	0.827
1010.39	0.823
1019.47	0.817
1028.56	0.814
1037.64	0.806
1046.72	0.795
1055.8	0.791
1064.88	0.788
1073.97	0.739
1083.05	0.769
1092.13	0.785
1101.21	0.793
1110.29	0.792
1119.37	0.77
1128.46	0.748
1137.54	0.763
1146.62	0.763
1155.7	0.739
1164.78	0.739
1173.86	0.761
1182.95	0.769
1192.03	0.744
1201.11	0.689
1210.19	0.595
1219.27	0.76
1228.35	0.748
1237.44	0.704
1246.52	0.648
1255.6	0.624
1264.68	0.656
1273.76	0.5
1282.84	0.602
1291.93	0.687
1301.01	0.666
1310.09	0.489
1319.17	0.668
1328.25	0.743
1337.34	0.76
1346.42	0.77
1355.5	0.796
1364.58	0.801
1373.66	0.801
1382.74	0.801
1391.83	0.801
1400.91	0.792
1409.99	0.763
1419.07	0.769
1428.15	0.778
1437.23	0.736
1446.32	0.698
1455.4	0.76
1464.48	0.743
1473.56	0.77
1482.64	0.771
1491.72	0.76
1500.81	0.75
1509.89	0.72
1518.97	0.705
1528.05	0.649
1537.13	0.56
1546.21	0.502
1555.3	0.499
1564.38	0.45
1573.46	0.371
1582.54	0.295
1591.62	0.232
1600.71	0.27
1609.79	0.429
1618.87	0.421
1627.95	0.296
1637.03	0.137
1646.11	0.199
1655.2	0.338
1664.28	0.454
1673.36	0.549
1682.44	0.596
1691.52	0.654
1700.6	0.693
1709.69	0.736
1718.77	0.756
1727.85	0.773
1736.93	0.792
1746.01	0.798
1755.09	0.805
1764.18	0.812
1773.26	0.815
1782.34	0.818
1791.42	0.823
1800.5	0.827
1809.58	0.833
1818.67	0.838
1827.75	0.849
1836.83	0.851
1845.91	0.853
1854.99	0.853
1864.08	0.855
1873.16	0.856
1882.24	0.856
1891.32	0.857
1900.4	0.857
1909.48	0.857
1918.57	0.858
1927.65	0.858
1936.73	0.859
1945.81	0.859
1954.89	0.859
1963.97	0.86
1973.06	0.86
1982.14	0.861
1991.22	0.861
2000.3	0.861
2009.38	0.861
2018.46	0.861
2027.55	0.861
2036.63	0.861
2045.71	0.861
2054.79	0.861
2063.87	0.861
2072.95	0.861
2082.04	0.861
2091.12	0.861
2100.2	0.86
2109.28	0.859
2118.36	0.859
2127.45	0.859
2136.53	0.86
2145.61	0.86
2154.69	0.861
2163.77	0.861
2172.85	0.861
2181.94	0.862
2191.02	0.862
2200.1	0.861
2209.18	0.86
2218.26	0.859
2227.34	0.859
2236.43	0.859
2245.51	0.859
2254.59	0.858
2263.67	0.858
2272.75	0.859
2281.83	0.86
2290.92	0.86
2300	0.86
2309.08	0.86
2318.16	0.86
2327.24	0.859
2336.32	0.859
2345.41	0.859
2354.49	0.859
2363.57	0.859
2372.65	0.859
2381.73	0.859
2390.82	0.859
2399.9	0.86
2408.98	0.86
2418.06	0.859
2427.14	0.857
2436.22	0.856
2445.31	0.856
2454.39	0.857
2463.47	0.858
2472.55	0.858
2481.63	0.855
2490.71	0.848
2499.8	0.845
2508.88	0.844
2517.96	0.843
2527.04	0.842
2536.12	0.842
2545.2	0.842
2554.29	0.842
2563.37	0.841
2572.45	0.841
2581.53	0.841
2590.61	0.841
2599.69	0.84
2608.78	0.838
2617.86	0.837
2626.94	0.836
2636.02	0.836
2645.1	0.836
2654.19	0.836
2663.27	0.836
2672.35	0.836
2681.43	0.837
2690.51	0.837
2699.59	0.836
2708.68	0.836
2717.76	0.834
2726.84	0.834
2735.92	0.833
2745	0.833
2754.08	0.833
2763.17	0.83
2772.25	0.827
2781.33	0.821
2790.41	0.811
2799.49	0.792
2808.57	0.757
2817.66	0.792
2826.74	0.791
2835.82	0.78
2844.9	0.723
2853.98	0.657
2863.06	0.576
2872.15	0.681
2881.23	0.71
2890.31	0.687
2899.39	0.651
2908.47	0.637
2917.56	0.608
2926.64	0.468
2935.72	0.476
2944.8	0.513
2953.88	0.482
2962.96	0.536
2972.05	0.711
2981.13	0.762
2990.21	0.781
2999.29	0.789
3008.37	0.794
3017.45	0.791
3026.54	0.787
3035.62	0.777
3044.7	0.76
3053.78	0.749
3062.86	0.755
3071.94	0.766
3081.03	0.776
3090.11	0.777
3099.19	0.781
3108.27	0.783
3117.35	0.78
3126.43	0.773
3135.52	0.765
3144.6	0.741
3153.68	0.735
3162.76	0.737
3171.84	0.74
3180.92	0.741
3190.01	0.739
3199.09	0.735
3208.17	0.733
3217.25	0.731
3226.33	0.725
3235.42	0.716
3244.5	0.704
3253.58	0.69
3262.66	0.66
3271.74	0.624
3280.82	0.596
3289.91	0.569
3298.99	0.511
3308.07	0.431
3317.15	0.374
3326.23	0.399
3335.31	0.464
3344.4	0.465
3353.48	0.412
3362.56	0.382
3371.64	0.408
3380.72	0.48
3389.8	0.54
3398.89	0.588
3407.97	0.658
3417.05	0.68
3426.13	0.692
3435.21	0.703
3444.29	0.719
3453.38	0.729
3462.46	0.743
3471.54	0.748
3480.62	0.752
3489.7	0.755
3498.79	0.76
3507.87	0.762
3516.95	0.765
3526.03	0.769
3535.11	0.776
3544.19	0.783
3553.28	0.788
3562.36	0.792
3571.44	0.794
3580.52	0.801
3589.6	0.804
3598.68	0.807
3607.77	0.816
3616.85	0.819
3625.93	0.822
3635.01	0.826
3644.09	0.83
3653.17	0.833
3662.26	0.834
3671.34	0.834
3680.42	0.835
3689.5	0.836
3698.58	0.836
3707.66	0.836
3716.75	0.836
3725.83	0.836
3734.91	0.836
3743.99	0.837
3753.07	0.837
3762.16	0.838
3771.24	0.838
3780.32	0.838
3789.4	0.838
3798.48	0.837
3807.56	0.836
3816.65	0.836
3825.73	0.836
3834.81	0.836
3843.89	0.836
3852.97	0.836
3862.05	0.836
3871.14	0.836
3880.22	0.837
3889.3	0.837
3898.38	0.837
3907.46	0.837
3916.54	0.837
3925.63	0.837
3934.71	0.837
3943.79	0.837
3952.87	0.837
3961.95	0.836
3971.03	0.837
3980.12	0.837
3989.2	0.837
3998.28	0.837
