Infrared Spectrum: GLUTAMIC ACID, N-[(2-CHLOROETHYL)CARBAMOYL]-, DIMETHYL ESTER
Formula: C10 H17 Cl N2 O5
CAS: 13908-06-0
State: SOLID (0.7 mg / 500 mg KBr DISC)
Class: COBLENTZ III
Instrument: PERKIN-ELMER 221 (GRATING)
Instrument parameters: FILTER CHANGES AT 2490, 980 CM^-^1, GRATING FOR 4000-1428 CM^-^1, NaCl PRISM FOR 1428-650 CM^-^1
Sampling: TRANSMISSION
Resolution: 4
Origin: SOUTHERN RESEARCH INST.
1/CM	TRANSMITTANCE
611.257	0.561
620.765	0.566
630.273	0.572
639.782	0.581
649.29	0.668
658.798	0.737
668.306	0.779
677.814	0.811
687.323	0.869
696.831	0.886
706.339	0.908
715.847	0.852
725.355	0.79
734.864	0.787
744.372	0.872
753.88	0.924
763.388	0.866
772.896	0.791
782.405	0.73
791.913	0.801
801.421	0.97
810.929	0.996
820.437	0.954
829.946	0.922
839.454	1.012
848.962	1.01
858.47	1.007
867.978	1.003
877.487	0.938
886.995	0.98
896.503	0.993
906.011	0.965
915.519	0.836
925.028	0.91
934.536	0.881
944.044	0.928
953.552	0.829
963.06	0.745
972.569	0.761
982.077	0.701
991.585	0.714
1001.09	0.851
1010.6	0.902
1020.11	0.898
1029.62	0.895
1039.13	0.892
1048.63	0.882
1058.14	0.806
1067.65	0.764
1077.16	0.788
1086.67	0.766
1096.18	0.722
1105.68	0.537
1115.19	0.633
1124.7	0.749
1134.21	0.737
1143.72	0.689
1153.22	0.496
1162.73	0.336
1172.24	0.231
1181.75	0.326
1191.26	0.343
1200.77	0.262
1210.27	0.23
1219.78	0.234
1229.29	0.224
1238.8	0.368
1248.31	0.404
1257.81	0.402
1267.32	0.404
1276.83	0.355
1286.34	0.496
1295.85	0.512
1305.36	0.425
1314.86	0.482
1324.37	0.629
1333.88	0.727
1343.39	0.697
1352.9	0.526
1362.4	0.58
1371.91	0.617
1381.42	0.577
1390.93	0.73
1400.44	0.835
1409.95	0.771
1419.45	0.684
1428.96	0.504
1438.47	0.359
1447.98	0.539
1457.49	0.425
1467	0.65
1476.5	0.827
1486.01	0.841
1495.52	0.809
1505.03	0.688
1514.54	0.574
1524.04	0.636
1533.55	0.707
1543.06	0.645
1552.57	0.443
1562.08	0.277
1571.59	0.149
1581.09	0.149
1590.6	0.297
1600.11	0.448
1609.62	0.479
1619.13	0.342
1628.63	0.144
1638.14	0.07
1647.65	0.177
1657.16	0.372
1666.67	0.509
1676.18	0.601
1685.68	0.675
1695.19	0.699
1704.7	0.661
1714.21	0.707
1723.72	0.638
1733.22	0.16
1742.73	0.017
1752.24	0.153
1761.75	0.307
1771.26	0.543
1780.77	0.624
1790.27	0.672
1799.78	0.726
1809.29	0.753
1818.8	0.779
1828.31	0.796
1837.81	0.81
1847.32	0.825
1856.83	0.837
1866.34	0.847
1875.85	0.854
1885.36	0.86
1894.86	0.864
1904.37	0.867
1913.88	0.872
1923.39	0.877
1932.9	0.879
1942.41	0.881
1951.91	0.882
1961.42	0.882
1970.93	0.884
1980.44	0.887
1989.95	0.891
1999.45	0.893
2008.96	0.895
2018.47	0.897
2027.98	0.897
2037.49	0.897
2047	0.898
2056.5	0.898
2066.01	0.898
2075.52	0.9
2085.03	0.901
2094.54	0.901
2104.04	0.903
2113.55	0.904
2123.06	0.905
2132.57	0.908
2142.08	0.911
2151.59	0.914
2161.09	0.917
2170.6	0.918
2180.11	0.919
2189.62	0.919
2199.13	0.92
2208.63	0.92
2218.14	0.92
2227.65	0.92
2237.16	0.92
2246.67	0.92
2256.18	0.919
2265.68	0.918
2275.19	0.916
2284.7	0.915
2294.21	0.915
2303.72	0.911
2313.22	0.907
2322.73	0.897
2332.24	0.888
2341.75	0.871
2351.26	0.879
2360.77	0.866
2370.27	0.885
2379.78	0.908
2389.29	0.913
2398.8	0.915
2408.31	0.915
2417.82	0.914
2427.32	0.913
2436.83	0.913
2446.34	0.915
2455.85	0.916
2465.36	0.917
2474.86	0.918
2484.37	0.919
2493.88	0.918
2503.39	0.917
2512.9	0.916
2522.41	0.915
2531.91	0.912
2541.42	0.913
2550.93	0.914
2560.44	0.916
2569.95	0.915
2579.45	0.912
2588.96	0.905
2598.47	0.902
2607.98	0.901
2617.49	0.901
2627	0.901
2636.5	0.901
2646.01	0.901
2655.52	0.901
2665.03	0.901
2674.54	0.901
2684.04	0.901
2693.55	0.9
2703.06	0.899
2712.57	0.898
2722.08	0.897
2731.59	0.898
2741.09	0.899
2750.6	0.898
2760.11	0.897
2769.62	0.895
2779.13	0.893
2788.63	0.891
2798.14	0.885
2807.65	0.873
2817.16	0.863
2826.67	0.852
2836.18	0.842
2845.68	0.801
2855.19	0.821
2864.7	0.838
2874.21	0.845
2883.72	0.831
2893.23	0.828
2902.73	0.812
2912.24	0.785
2921.75	0.749
2931.26	0.718
2940.77	0.704
2950.27	0.614
2959.78	0.588
2969.29	0.612
2978.8	0.687
2988.31	0.73
2997.82	0.726
3007.32	0.74
3016.83	0.741
3026.34	0.751
3035.85	0.768
3045.36	0.789
3054.86	0.798
3064.37	0.813
3073.88	0.82
3083.39	0.819
3092.9	0.816
3102.41	0.792
3111.91	0.783
3121.42	0.784
3130.93	0.794
3140.44	0.804
3149.95	0.807
3159.45	0.809
3168.96	0.809
3178.47	0.809
3187.98	0.809
3197.49	0.807
3207	0.805
3216.5	0.8
3226.01	0.789
3235.52	0.781
3245.03	0.755
3254.54	0.741
3264.05	0.714
3273.55	0.687
3283.06	0.657
3292.57	0.615
3302.08	0.559
3311.59	0.491
3321.09	0.409
3330.6	0.304
3340.11	0.217
3349.62	0.196
3359.13	0.201
3368.64	0.287
3378.14	0.395
3387.65	0.465
3397.16	0.522
3406.67	0.57
3416.18	0.604
3425.68	0.642
3435.19	0.657
3444.7	0.669
3454.21	0.672
3463.72	0.674
3473.23	0.692
3482.73	0.71
3492.24	0.718
3501.75	0.726
3511.26	0.735
3520.77	0.741
3530.27	0.749
3539.78	0.763
3549.29	0.769
3558.8	0.771
3568.31	0.775
3577.82	0.78
3587.32	0.787
3596.83	0.792
3606.34	0.799
3615.85	0.806
3625.36	0.81
3634.86	0.813
3644.37	0.814
3653.88	0.819
3663.39	0.825
3672.9	0.825
3682.41	0.826
3691.91	0.827
3701.42	0.828
3710.93	0.828
3720.44	0.828
3729.95	0.827
3739.46	0.826
3748.96	0.827
3758.47	0.828
3767.98	0.83
3777.49	0.83
3787	0.83
3796.5	0.83
3806.01	0.828
3815.52	0.828
3825.03	0.827
3834.54	0.827
3844.05	0.826
3853.55	0.826
3863.06	0.826
3872.57	0.827
3882.08	0.827
3891.59	0.828
3901.09	0.828
3910.6	0.828
3920.11	0.827
3929.62	0.827
3939.13	0.825
3948.64	0.826
3958.14	0.826
3967.65	0.827
3977.16	0.828
3986.67	0.828
3996.18	0.828
