Infrared Spectrum: ANTHRANILIC ACID, N-[(CHLOROETHYL)CARBAMOYL]-
Formula: C10 H11 Cl N2 O3
CAS: 13908-44-6
State: SOLID (1 mg / 650 mg KBr DISC)
Class: COBLENTZ III
Instrument: PERKIN-ELMER 221 (GRATING)
Instrument parameters: FILTERS AT 980 CM ^-^1, NaCl PRISM FOR 1428-650 CM^-^1
Sampling: TRANSMISSION
Resolution: 4
Origin: SOUTHERN RES. INSTITUTE
1/CM	TRANSMITTANCE
616.492	0.791
625.602	0.793
634.712	0.794
643.822	0.775
652.932	0.755
662.042	0.72
671.152	0.773
680.262	0.848
689.372	0.84
698.482	0.85
707.591	0.86
716.701	0.858
725.811	0.853
734.921	0.823
744.031	0.672
753.141	0.658
762.251	0.69
771.361	0.833
780.471	0.867
789.581	0.867
798.691	0.864
807.801	0.872
816.911	0.877
826.021	0.88
835.131	0.875
844.241	0.874
853.351	0.876
862.461	0.868
871.57	0.862
880.68	0.858
889.79	0.856
898.9	0.849
908.01	0.814
917.12	0.776
926.23	0.744
935.34	0.797
944.45	0.858
953.56	0.862
962.67	0.861
971.78	0.858
980.89	0.854
990	0.853
999.11	0.861
1008.22	0.861
1017.33	0.858
1026.44	0.855
1035.55	0.852
1044.66	0.849
1053.77	0.841
1062.88	0.836
1071.99	0.843
1081.1	0.824
1090.21	0.77
1099.32	0.846
1108.43	0.848
1117.54	0.841
1126.65	0.835
1135.76	0.828
1144.87	0.81
1153.98	0.752
1163.09	0.699
1172.2	0.797
1181.31	0.757
1190.42	0.697
1199.53	0.747
1208.64	0.714
1217.75	0.649
1226.86	0.553
1235.97	0.62
1245.08	0.574
1254.19	0.4
1263.3	0.332
1272.41	0.464
1281.52	0.673
1290.63	0.729
1299.74	0.714
1308.85	0.695
1317.96	0.717
1327.07	0.738
1336.18	0.785
1345.29	0.813
1354.4	0.818
1363.51	0.801
1372.62	0.8
1381.73	0.79
1390.84	0.75
1399.95	0.682
1409.06	0.631
1418.17	0.765
1427.28	0.787
1436.39	0.789
1445.5	0.73
1454.61	0.605
1463.72	0.746
1472.83	0.795
1481.94	0.808
1491.05	0.784
1500.16	0.726
1509.27	0.619
1518.38	0.521
1527.49	0.504
1536.6	0.538
1545.71	0.36
1554.82	0.424
1563.93	0.59
1573.04	0.68
1582.15	0.548
1591.26	0.472
1600.37	0.587
1609.48	0.713
1618.59	0.755
1627.7	0.76
1636.81	0.721
1645.92	0.664
1655.03	0.588
1664.14	0.483
1673.25	0.252
1682.36	0.375
1691.47	0.594
1700.58	0.677
1709.69	0.758
1718.8	0.8
1727.91	0.831
1737.02	0.843
1746.13	0.85
1755.24	0.853
1764.35	0.86
1773.46	0.866
1782.57	0.869
1791.67	0.871
1800.78	0.873
1809.89	0.873
1819	0.874
1828.11	0.875
1837.22	0.876
1846.33	0.876
1855.44	0.877
1864.55	0.877
1873.66	0.877
1882.77	0.877
1891.88	0.877
1900.99	0.877
1910.1	0.877
1919.21	0.877
1928.32	0.876
1937.43	0.874
1946.54	0.873
1955.65	0.874
1964.76	0.875
1973.87	0.876
1982.98	0.876
1992.09	0.876
2001.2	0.876
2010.31	0.876
2019.42	0.875
2028.53	0.874
2037.64	0.873
2046.75	0.873
2055.86	0.872
2064.97	0.872
2074.08	0.872
2083.19	0.872
2092.3	0.872
2101.41	0.87
2110.52	0.87
2119.63	0.869
2128.74	0.868
2137.85	0.868
2146.96	0.868
2156.07	0.869
2165.18	0.869
2174.29	0.868
2183.4	0.867
2192.51	0.866
2201.62	0.865
2210.73	0.864
2219.84	0.863
2228.95	0.862
2238.06	0.861
2247.17	0.86
2256.28	0.858
2265.39	0.858
2274.5	0.856
2283.61	0.855
2292.72	0.854
2301.83	0.853
2310.94	0.852
2320.05	0.85
2329.16	0.85
2338.27	0.849
2347.38	0.848
2356.49	0.846
2365.6	0.846
2374.71	0.843
2383.82	0.84
2392.93	0.837
2402.04	0.836
2411.15	0.834
2420.26	0.833
2429.37	0.83
2438.48	0.828
2447.59	0.823
2456.7	0.818
2465.81	0.813
2474.92	0.807
2484.03	0.803
2493.14	0.8
2502.25	0.796
2511.36	0.792
2520.47	0.788
2529.58	0.786
2538.69	0.784
2547.8	0.782
2556.91	0.782
2566.02	0.783
2575.13	0.784
2584.24	0.785
2593.35	0.784
2602.46	0.781
2611.57	0.78
2620.68	0.778
2629.79	0.778
2638.9	0.778
2648.01	0.784
2657.12	0.787
2666.23	0.789
2675.34	0.788
2684.45	0.787
2693.56	0.785
2702.67	0.784
2711.78	0.782
2720.89	0.782
2730	0.782
2739.11	0.781
2748.22	0.781
2757.33	0.78
2766.44	0.778
2775.55	0.775
2784.66	0.77
2793.77	0.764
2802.88	0.758
2811.99	0.755
2821.1	0.753
2830.21	0.751
2839.32	0.747
2848.43	0.736
2857.54	0.732
2866.65	0.73
2875.76	0.732
2884.87	0.733
2893.98	0.732
2903.09	0.729
2912.2	0.728
2921.31	0.712
2930.42	0.718
2939.53	0.726
2948.64	0.725
2957.75	0.723
2966.86	0.724
2975.97	0.726
2985.08	0.729
2994.19	0.729
3003.3	0.728
3012.41	0.727
3021.52	0.726
3030.63	0.726
3039.74	0.726
3048.85	0.726
3057.96	0.727
3067.07	0.73
3076.18	0.733
3085.29	0.741
3094.4	0.751
3103.51	0.759
3112.62	0.761
3121.73	0.763
3130.84	0.767
3139.95	0.768
3149.06	0.767
3158.17	0.767
3167.28	0.767
3176.39	0.766
3185.5	0.766
3194.61	0.765
3203.72	0.764
3212.83	0.762
3221.94	0.76
3231.05	0.758
3240.16	0.752
3249.27	0.738
3258.38	0.729
3267.49	0.714
3276.6	0.688
3285.71	0.646
3294.82	0.586
3303.93	0.52
3313.04	0.484
3322.15	0.576
3331.26	0.603
3340.37	0.6
3349.48	0.655
3358.59	0.72
3367.7	0.75
3376.81	0.763
3385.92	0.766
3395.03	0.768
3404.14	0.772
3413.25	0.775
3422.36	0.776
3431.47	0.778
3440.58	0.778
3449.69	0.779
3458.79	0.779
3467.9	0.779
3477.01	0.78
3486.12	0.78
3495.23	0.781
3504.34	0.782
3513.45	0.785
3522.56	0.79
3531.67	0.798
3540.78	0.805
3549.89	0.808
3559	0.81
3568.11	0.813
3577.22	0.818
3586.33	0.821
3595.44	0.827
3604.55	0.834
3613.66	0.836
3622.77	0.84
3631.88	0.843
3640.99	0.843
3650.1	0.844
3659.21	0.843
3668.32	0.843
3677.43	0.842
3686.54	0.843
3695.65	0.843
3704.76	0.844
3713.87	0.845
3722.98	0.844
3732.09	0.843
3741.2	0.841
3750.31	0.841
3759.42	0.843
3768.53	0.845
3777.64	0.846
3786.75	0.845
3795.86	0.844
3804.97	0.841
3814.08	0.84
3823.19	0.841
3832.3	0.842
3841.41	0.841
3850.52	0.84
3859.63	0.839
3868.74	0.84
3877.85	0.841
3886.96	0.842
3896.07	0.842
3905.18	0.843
3914.29	0.843
3923.4	0.844
3932.51	0.844
3941.62	0.844
3950.73	0.844
3959.84	0.844
3968.95	0.844
3978.06	0.843
3987.17	0.843
3996.28	0.842
4005.39	0.84
