Infrared Spectrum: Urea, 1,1'-(1,4-cyclohexylene)bis[3-(2-chloroethyl)]-, TRANS
Formula: C12 H22 Cl2 N4 O2
CAS: 13908-63-9
State: SOLID (1 mg / 650 mg KBr DISC)
Class: COBLENTZ III
Instrument: PERKIN-ELMER 221 (GRATING)
Instrument parameters: FILTER AT 980 CM^-^1. GRATING 4000-1428 CM^-^1, NaCl PRISM 1428-650 CM^-^1
Resolution: 2
Origin: SOUTHERN RESEARCH INSTITUTE
1/CM	TRANSMITTANCE
604.8	0.6686
613.814	0.661
622.828	0.6464
631.841	0.6236
640.855	0.5971
649.869	0.5925
658.883	0.6092
667.896	0.6422
676.91	0.6643
685.924	0.6974
694.938	0.7288
703.951	0.7517
712.965	0.7626
721.979	0.7637
730.993	0.7601
740.006	0.7262
749.02	0.7283
758.034	0.7868
767.048	0.785
776.062	0.8006
785.075	0.8264
794.089	0.8408
803.103	0.846
812.117	0.8489
821.13	0.8508
830.144	0.8505
839.158	0.8488
848.172	0.8466
857.185	0.8467
866.199	0.8484
875.213	0.8496
884.227	0.8268
893.24	0.7981
902.254	0.815
911.268	0.8401
920.282	0.8338
929.296	0.8242
938.309	0.8185
947.323	0.817
956.337	0.7971
965.351	0.8155
974.364	0.7931
983.378	0.7277
992.392	0.8148
1001.41	0.811
1010.42	0.8005
1019.43	0.797
1028.45	0.7953
1037.46	0.7951
1046.47	0.7921
1055.49	0.7805
1064.5	0.7617
1073.52	0.7571
1082.53	0.6918
1091.54	0.599
1100.56	0.6927
1109.57	0.7705
1118.58	0.7793
1127.6	0.7814
1136.61	0.7784
1145.63	0.7737
1154.64	0.7697
1163.65	0.757
1172.67	0.7425
1181.68	0.727
1190.69	0.7267
1199.71	0.7284
1208.72	0.7026
1217.74	0.6377
1226.75	0.5701
1235.76	0.692
1244.78	0.6564
1253.79	0.5471
1262.8	0.4864
1271.82	0.5024
1280.83	0.658
1289.85	0.6694
1298.86	0.6154
1307.87	0.628
1316.89	0.7319
1325.9	0.7714
1334.91	0.7767
1343.93	0.7781
1352.94	0.774
1361.96	0.7619
1370.97	0.7859
1379.98	0.7937
1389	0.7942
1398.01	0.7931
1407.03	0.7593
1416.04	0.7415
1425.05	0.7324
1434.07	0.6809
1443.08	0.6655
1452.09	0.6623
1461.11	0.775
1470.12	0.7783
1479.14	0.7645
1488.15	0.7361
1497.16	0.7076
1506.18	0.6649
1515.19	0.6201
1524.2	0.5398
1533.22	0.4848
1542.23	0.4767
1551.25	0.3953
1560.26	0.3003
1569.27	0.2129
1578.29	0.1969
1587.3	0.232
1596.31	0.3777
1605.33	0.471
1614.34	0.4213
1623.36	0.2673
1632.37	0.1392
1641.38	0.1887
1650.4	0.3164
1659.41	0.4477
1668.42	0.5223
1677.44	0.6072
1686.45	0.6487
1695.47	0.6745
1704.48	0.6976
1713.49	0.7383
1722.51	0.7773
1731.52	0.7946
1740.53	0.8103
1749.55	0.8164
1758.56	0.8183
1767.58	0.8213
1776.59	0.8316
1785.6	0.8388
1794.62	0.8394
1803.63	0.8425
1812.64	0.8505
1821.66	0.853
1830.67	0.8548
1839.69	0.856
1848.7	0.8567
1857.71	0.8567
1866.73	0.8563
1875.74	0.8557
1884.75	0.8545
1893.77	0.8533
1902.78	0.8523
1911.8	0.8523
1920.81	0.8525
1929.82	0.8528
1938.84	0.8531
1947.85	0.8535
1956.86	0.8537
1965.88	0.8539
1974.89	0.8538
1983.91	0.8538
1992.92	0.8538
2001.93	0.8536
2010.95	0.8532
2019.96	0.8528
2028.97	0.8535
2037.99	0.8536
2047	0.8531
2056.02	0.8526
2065.03	0.8522
2074.04	0.8516
2083.06	0.8508
2092.07	0.8501
2101.08	0.8493
2110.1	0.8488
2119.11	0.8489
2128.13	0.849
2137.14	0.8494
2146.15	0.8504
2155.17	0.8513
2164.18	0.8522
2173.2	0.8532
2182.21	0.8538
2191.22	0.8542
2200.24	0.8547
2209.25	0.8548
2218.26	0.8548
2227.28	0.8547
2236.29	0.8546
2245.31	0.8545
2254.32	0.8544
2263.33	0.8541
2272.35	0.8536
2281.36	0.853
2290.37	0.8524
2299.39	0.8518
2308.4	0.8512
2317.42	0.8508
2326.43	0.8505
2335.44	0.8503
2344.46	0.8497
2353.47	0.8492
2362.48	0.8494
2371.5	0.8509
2380.51	0.8532
2389.53	0.855
2398.54	0.8552
2407.55	0.8551
2416.57	0.8545
2425.58	0.8536
2434.59	0.8538
2443.61	0.8541
2452.62	0.8531
2461.64	0.8519
2470.65	0.8507
2479.66	0.8507
2488.68	0.8595
2497.69	0.8571
2506.7	0.8513
2515.72	0.8512
2524.73	0.8513
2533.75	0.8511
2542.76	0.8503
2551.77	0.8497
2560.79	0.8491
2569.8	0.848
2578.81	0.8464
2587.83	0.8451
2596.84	0.8446
2605.86	0.8437
2614.87	0.8419
2623.88	0.8401
2632.9	0.8382
2641.91	0.837
2650.92	0.836
2659.94	0.835
2668.95	0.8341
2677.97	0.8333
2686.98	0.8325
2695.99	0.8317
2705.01	0.8309
2714.02	0.8301
2723.03	0.8293
2732.05	0.8285
2741.06	0.8272
2750.08	0.8258
2759.09	0.8253
2768.1	0.8245
2777.12	0.8215
2786.13	0.8175
2795.14	0.8129
2804.16	0.8078
2813.17	0.8034
2822.19	0.7997
2831.2	0.7945
2840.21	0.7822
2849.23	0.7041
2858.24	0.6559
2867.25	0.7166
2876.27	0.7521
2885.28	0.7443
2894.3	0.7308
2903.31	0.719
2912.32	0.6953
2921.34	0.6602
2930.35	0.597
2939.37	0.5512
2948.38	0.5737
2957.39	0.6168
2966.41	0.6568
2975.42	0.7321
2984.43	0.7691
2993.45	0.7732
3002.46	0.7714
3011.48	0.7696
3020.49	0.7665
3029.5	0.7623
3038.52	0.7618
3047.53	0.7643
3056.54	0.7665
3065.56	0.7696
3074.57	0.7727
3083.59	0.7754
3092.6	0.7775
3101.61	0.7758
3110.63	0.7685
3119.64	0.7577
3128.65	0.7484
3137.67	0.7512
3146.68	0.7543
3155.7	0.7551
3164.71	0.7519
3173.72	0.7475
3182.74	0.7432
3191.75	0.7399
3200.76	0.7369
3209.78	0.7329
3218.79	0.7281
3227.81	0.721
3236.82	0.7069
3245.83	0.688
3254.85	0.6636
3263.86	0.6378
3272.87	0.6056
3281.89	0.5645
3290.9	0.5181
3299.92	0.4793
3308.93	0.4286
3317.94	0.3801
3326.96	0.349
3335.97	0.3489
3344.98	0.356
3354	0.3768
3363.01	0.4089
3372.03	0.4332
3381.04	0.496
3390.05	0.5483
3399.07	0.5787
3408.08	0.6103
3417.09	0.6362
3426.11	0.6538
3435.12	0.6606
3444.14	0.6739
3453.15	0.683
3462.16	0.6946
3471.18	0.7043
3480.19	0.7127
3489.2	0.7206
3498.22	0.7261
3507.23	0.7297
3516.25	0.732
3525.26	0.7358
3534.27	0.7502
3543.29	0.7607
3552.3	0.7647
3561.31	0.7671
3570.33	0.7762
3579.34	0.7774
3588.36	0.7937
3597.37	0.7959
3606.38	0.8011
3615.4	0.8122
3624.41	0.826
3633.42	0.8326
3642.44	0.8374
3651.45	0.8408
3660.47	0.8414
3669.48	0.845
3678.49	0.8459
3687.51	0.8451
3696.52	0.8448
3705.54	0.8462
3714.55	0.8489
3723.56	0.85
3732.58	0.8498
3741.59	0.8496
3750.6	0.8497
3759.62	0.857
3768.63	0.8479
3777.65	0.8511
3786.66	0.856
3795.67	0.8571
3804.69	0.8576
3813.7	0.8576
3822.71	0.8573
3831.73	0.8563
3840.74	0.8548
3849.76	0.8563
3858.77	0.8543
3867.78	0.8577
3876.8	0.8471
3885.81	0.8524
3894.82	0.8547
3903.84	0.8533
3912.85	0.8562
3921.87	0.8551
3930.88	0.8554
3939.89	0.855
3948.91	0.8538
3957.92	0.8542
3966.93	0.8537
3975.95	0.8547
3984.96	0.8545
3993.98	0.8542
4002.99	0.8525
