Infrared Spectrum: UREA, 1-(2-CHLOROETHYL)-3-(3,3,5-TRIMETHYLCYCLOHEXYL)-
Formula: C12 H23 Cl N2 O
CAS: 13908-16-2
State: SOLID (1 mg / 650 mg KBr DISC)
Class: COBLENTZ III
Instrument: PERKIN-ELMER 521 (GRATING)
Instrument parameters: FILTERS AT 3150, 2500, 2000, 1150, 700, 410 CM ^-^1, GRATING CHANGES AT 2000, 630 CM ^-^1
Sampling: TRANSMISSION
Resolution: 4
Origin: SOUTHERN RES. INSTITUTE
1/CM	TRANSMITTANCE
271.067	0.52
280.277	0.617
289.486	0.662
298.696	0.692
307.905	0.713
317.115	0.725
326.324	0.738
335.534	0.753
344.743	0.76
353.953	0.763
363.162	0.778
372.372	0.816
381.581	0.833
390.791	0.849
400	0.847
409.21	0.841
418.419	0.844
427.629	0.848
436.838	0.834
446.048	0.841
455.258	0.847
464.467	0.85
473.677	0.85
482.886	0.85
492.096	0.848
501.305	0.845
510.515	0.841
519.724	0.832
528.934	0.825
538.143	0.841
547.353	0.847
556.562	0.847
565.772	0.846
574.981	0.842
584.191	0.825
593.4	0.8
602.61	0.775
611.819	0.769
621.029	0.749
630.239	0.722
639.448	0.676
648.658	0.668
657.867	0.71
667.077	0.749
676.286	0.77
685.496	0.802
694.705	0.825
703.915	0.841
713.124	0.846
722.334	0.85
731.543	0.855
740.753	0.869
749.962	0.873
759.172	0.869
768.381	0.865
777.591	0.879
786.8	0.891
796.01	0.9
805.219	0.901
814.429	0.898
823.639	0.902
832.848	0.9
842.058	0.882
851.267	0.884
860.477	0.892
869.686	0.896
878.896	0.898
888.105	0.897
897.315	0.896
906.524	0.894
915.734	0.89
924.943	0.886
934.153	0.856
943.362	0.856
952.572	0.869
961.781	0.856
970.991	0.867
980.2	0.868
989.41	0.847
998.62	0.85
1007.83	0.854
1017.04	0.85
1026.25	0.838
1035.46	0.848
1044.67	0.819
1053.88	0.839
1063.09	0.844
1072.3	0.819
1081.51	0.796
1090.71	0.822
1099.92	0.838
1109.13	0.844
1118.34	0.84
1127.55	0.852
1136.76	0.853
1145.97	0.822
1155.18	0.809
1164.39	0.808
1173.6	0.806
1182.81	0.777
1192.02	0.793
1201.23	0.799
1210.44	0.794
1219.65	0.788
1228.86	0.711
1238.07	0.622
1247.28	0.576
1256.49	0.573
1265.7	0.647
1274.91	0.644
1284.11	0.669
1293.32	0.722
1302.53	0.735
1311.74	0.738
1320.95	0.722
1330.16	0.778
1339.37	0.806
1348.58	0.808
1357.79	0.799
1367	0.706
1376.21	0.757
1385.42	0.796
1394.63	0.82
1403.84	0.856
1413.05	0.846
1422.26	0.778
1431.47	0.726
1440.68	0.771
1449.89	0.71
1459.1	0.66
1468.31	0.74
1477.51	0.8
1486.72	0.797
1495.93	0.763
1505.14	0.728
1514.35	0.691
1523.56	0.653
1532.77	0.617
1541.98	0.498
1551.19	0.314
1560.4	0.246
1569.61	0.301
1578.82	0.444
1588.03	0.61
1597.24	0.604
1606.45	0.503
1615.66	0.292
1624.87	0.216
1634.08	0.323
1643.29	0.503
1652.5	0.603
1661.71	0.669
1670.91	0.694
1680.12	0.724
1689.33	0.737
1698.54	0.775
1707.75	0.809
1716.96	0.834
1726.17	0.838
1735.38	0.85
1744.59	0.856
1753.8	0.861
1763.01	0.863
1772.22	0.866
1781.43	0.868
1790.64	0.871
1799.85	0.872
1809.06	0.875
1818.27	0.876
1827.48	0.878
1836.69	0.879
1845.9	0.881
1855.11	0.882
1864.31	0.883
1873.52	0.884
1882.73	0.886
1891.94	0.887
1901.15	0.887
1910.36	0.888
1919.57	0.888
1928.78	0.889
1937.99	0.889
1947.2	0.89
1956.41	0.89
1965.62	0.89
1974.83	0.89
1984.04	0.89
1993.25	0.89
2002.46	0.89
2011.67	0.89
2020.88	0.889
2030.09	0.888
2039.3	0.888
2048.51	0.888
2057.72	0.888
2066.92	0.888
2076.13	0.888
2085.34	0.888
2094.55	0.888
2103.76	0.889
2112.97	0.889
2122.18	0.889
2131.39	0.889
2140.6	0.889
2149.81	0.889
2159.02	0.889
2168.23	0.889
2177.44	0.889
2186.65	0.889
2195.86	0.889
2205.07	0.889
2214.28	0.889
2223.49	0.889
2232.7	0.889
2241.91	0.889
2251.12	0.889
2260.32	0.889
2269.53	0.889
2278.74	0.889
2287.95	0.889
2297.16	0.889
2306.37	0.889
2315.58	0.889
2324.79	0.889
2334	0.889
2343.21	0.889
2352.42	0.886
2361.63	0.885
2370.84	0.886
2380.05	0.889
2389.26	0.89
2398.47	0.891
2407.68	0.891
2416.89	0.891
2426.1	0.89
2435.31	0.89
2444.52	0.889
2453.72	0.889
2462.93	0.887
2472.14	0.887
2481.35	0.887
2490.56	0.887
2499.77	0.888
2508.98	0.888
2518.19	0.888
2527.4	0.888
2536.61	0.888
2545.82	0.887
2555.03	0.885
2564.24	0.885
2573.45	0.885
2582.66	0.884
2591.87	0.884
2601.08	0.883
2610.29	0.883
2619.5	0.882
2628.71	0.882
2637.92	0.882
2647.12	0.881
2656.33	0.881
2665.54	0.881
2674.75	0.881
2683.96	0.881
2693.17	0.88
2702.38	0.878
2711.59	0.875
2720.8	0.872
2730.01	0.873
2739.22	0.876
2748.43	0.878
2757.64	0.88
2766.85	0.88
2776.06	0.879
2785.27	0.875
2794.48	0.871
2803.69	0.859
2812.9	0.852
2822.11	0.835
2831.32	0.808
2840.52	0.735
2849.73	0.715
2858.94	0.75
2868.15	0.669
2877.36	0.653
2886.57	0.662
2895.78	0.618
2904.99	0.552
2914.2	0.534
2923.41	0.507
2932.62	0.485
2941.83	0.549
2951.04	0.493
2960.25	0.438
2969.46	0.544
2978.67	0.663
2987.88	0.72
2997.09	0.747
3006.3	0.779
3015.51	0.793
3024.72	0.803
3033.92	0.807
3043.13	0.811
3052.34	0.815
3061.55	0.818
3070.76	0.819
3079.97	0.822
3089.18	0.825
3098.39	0.821
3107.6	0.81
3116.81	0.799
3126.02	0.803
3135.23	0.813
3144.44	0.797
3153.65	0.805
3162.86	0.806
3172.07	0.805
3181.28	0.802
3190.49	0.798
3199.7	0.795
3208.91	0.792
3218.12	0.789
3227.32	0.784
3236.53	0.775
3245.74	0.772
3254.95	0.746
3264.16	0.731
3273.37	0.7
3282.58	0.668
3291.79	0.623
3301	0.583
3310.21	0.537
3319.42	0.501
3328.63	0.503
3337.84	0.512
3347.05	0.499
3356.26	0.485
3365.47	0.482
3374.68	0.507
3383.89	0.532
3393.1	0.572
3402.31	0.62
3411.52	0.662
3420.72	0.705
3429.93	0.714
3439.14	0.734
3448.35	0.744
3457.56	0.755
3466.77	0.761
3475.98	0.767
3485.19	0.772
3494.4	0.774
3503.61	0.779
3512.82	0.785
3522.03	0.789
3531.24	0.794
3540.45	0.798
3549.66	0.802
3558.87	0.806
3568.08	0.813
3577.29	0.815
3586.5	0.819
3595.71	0.824
3604.92	0.828
3614.12	0.831
3623.33	0.833
3632.54	0.839
3641.75	0.844
3650.96	0.845
3660.17	0.845
3669.38	0.849
3678.59	0.847
3687.8	0.847
3697.01	0.849
3706.22	0.85
3715.43	0.853
3724.64	0.852
3733.85	0.851
3743.06	0.85
3752.27	0.848
3761.48	0.85
3770.69	0.851
3779.9	0.852
3789.11	0.85
3798.32	0.85
