Infrared Spectrum: ANTHRANILIC ACID, N-[(2-CHLOROETHYL)NITROSOCARBAMOYL]-
Formula: C10 H10 Cl N3 O4
CAS: 13909-23-4
State: SOLID (1 mg / 650 mg KBr DISC)
Class: COBLENTZ III
Instrument: PERKIN-ELMER 221 (GRATING)
Instrument parameters: FILTER CHANGES AT 2490, 980 CM^-^1, GRATING FOR 4000-1428 CM^-^1, NaCl PRISM FOR 1428-650 CM^-^1
Sampling: TRANSMISSION
Resolution: 4
Origin: SOUTHERN RESEARCH INST.
1/CM	TRANSMITTANCE
592.026	0.89
601.595	0.889
611.165	0.889
620.734	0.887
630.303	0.864
639.873	0.804
649.442	0.676
659.012	0.895
668.581	0.897
678.15	0.874
687.72	0.783
697.289	0.864
706.858	0.831
716.428	0.716
725.997	0.519
735.566	0.806
745.136	0.438
754.705	0.39
764.275	0.656
773.844	0.474
783.413	0.726
792.983	0.873
802.552	0.892
812.121	0.886
821.691	0.801
831.26	0.86
840.83	0.87
850.399	0.828
859.968	0.759
869.538	0.778
879.107	0.793
888.676	0.678
898.246	0.647
907.815	0.694
917.384	0.759
926.954	0.643
936.523	0.251
946.093	0.352
955.662	0.781
965.231	0.86
974.801	0.841
984.37	0.783
993.939	0.743
1003.51	0.866
1013.08	0.865
1022.65	0.86
1032.22	0.832
1041.79	0.783
1051.36	0.671
1060.92	0.227
1070.49	0.511
1080.06	0.746
1089.63	0.874
1099.2	0.876
1108.77	0.857
1118.34	0.713
1127.91	0.834
1137.48	0.834
1147.05	0.783
1156.62	0.728
1166.19	0.849
1175.76	0.845
1185.33	0.839
1194.9	0.833
1204.47	0.739
1214.03	0.785
1223.6	0.813
1233.17	0.775
1242.74	0.727
1252.31	0.647
1261.88	0.36
1271.45	0.305
1281.02	0.691
1290.59	0.522
1300.16	0.658
1309.73	0.684
1319.3	0.775
1328.87	0.669
1338.44	0.479
1348.01	0.804
1357.58	0.785
1367.14	0.761
1376.71	0.753
1386.28	0.689
1395.85	0.537
1405.42	0.385
1414.99	0.704
1424.56	0.689
1434.13	0.638
1443.7	0.551
1453.27	0.217
1462.84	0.406
1472.41	0.628
1481.98	0.607
1491.55	0.393
1501.12	0.165
1510.69	0.291
1520.25	0.542
1529.82	0.436
1539.39	0.3
1548.96	0.501
1558.53	0.761
1568.1	0.794
1577.67	0.724
1587.24	0.408
1596.81	0.493
1606.38	0.36
1615.95	0.619
1625.52	0.738
1635.09	0.714
1644.66	0.656
1654.23	0.546
1663.8	0.37
1673.36	0.19
1682.93	0.483
1692.5	0.686
1702.07	0.738
1711.64	0.731
1721.21	0.602
1730.78	0.297
1740.35	0.369
1749.92	0.709
1759.49	0.797
1769.06	0.841
1778.63	0.864
1788.2	0.874
1797.77	0.89
1807.34	0.904
1816.9	0.907
1826.47	0.905
1836.04	0.903
1845.61	0.905
1855.18	0.913
1864.75	0.915
1874.32	0.916
1883.89	0.917
1893.46	0.919
1903.03	0.919
1912.6	0.919
1922.17	0.919
1931.74	0.916
1941.31	0.914
1950.88	0.911
1960.45	0.911
1970.01	0.911
1979.58	0.91
1989.15	0.906
1998.72	0.902
2008.29	0.909
2017.86	0.91
2027.43	0.908
2037	0.908
2046.57	0.908
2056.14	0.906
2065.71	0.902
2075.28	0.9
2084.85	0.9
2094.42	0.9
2103.99	0.9
2113.56	0.898
2123.12	0.898
2132.69	0.897
2142.26	0.897
2151.83	0.896
2161.4	0.895
2170.97	0.893
2180.54	0.893
2190.11	0.893
2199.68	0.893
2209.25	0.892
2218.82	0.891
2228.39	0.888
2237.96	0.886
2247.53	0.886
2257.1	0.885
2266.67	0.883
2276.23	0.882
2285.8	0.879
2295.37	0.878
2304.94	0.877
2314.51	0.876
2324.08	0.875
2333.65	0.873
2343.22	0.871
2352.79	0.865
2362.36	0.86
2371.93	0.856
2381.5	0.853
2391.07	0.851
2400.64	0.848
2410.21	0.847
2419.77	0.845
2429.34	0.845
2438.91	0.841
2448.48	0.834
2458.05	0.827
2467.62	0.823
2477.19	0.81
2486.76	0.786
2496.33	0.791
2505.9	0.8
2515.47	0.801
2525.04	0.792
2534.61	0.784
2544.18	0.768
2553.75	0.772
2563.32	0.782
2572.88	0.786
2582.45	0.786
2592.02	0.783
2601.59	0.78
2611.16	0.773
2620.73	0.762
2630.3	0.757
2639.87	0.758
2649.44	0.77
2659.01	0.782
2668.58	0.781
2678.15	0.777
2687.72	0.77
2697.29	0.763
2706.86	0.761
2716.43	0.761
2725.99	0.761
2735.56	0.761
2745.13	0.759
2754.7	0.751
2764.27	0.74
2773.84	0.737
2783.41	0.731
2792.98	0.722
2802.55	0.713
2812.12	0.709
2821.69	0.698
2831.26	0.678
2840.83	0.665
2850.4	0.659
2859.97	0.656
2869.54	0.657
2879.1	0.66
2888.67	0.661
2898.24	0.661
2907.81	0.658
2917.38	0.652
2926.95	0.65
2936.52	0.654
2946.09	0.655
2955.66	0.654
2965.23	0.647
2974.8	0.643
2984.37	0.64
2993.94	0.632
3003.51	0.616
3013.08	0.613
3022.65	0.613
3032.21	0.637
3041.78	0.643
3051.35	0.642
3060.92	0.632
3070.49	0.629
3080.06	0.635
3089.63	0.642
3099.2	0.649
3108.77	0.655
3118.34	0.659
3127.91	0.663
3137.48	0.673
3147.05	0.678
3156.62	0.678
3166.19	0.679
3175.75	0.679
3185.32	0.679
3194.89	0.677
3204.46	0.669
3214.03	0.654
3223.6	0.648
3233.17	0.654
3242.74	0.68
3252.31	0.726
3261.88	0.761
3271.45	0.775
3281.02	0.791
3290.59	0.801
3300.16	0.807
3309.73	0.808
3319.3	0.81
3328.86	0.812
3338.43	0.813
3348	0.814
3357.57	0.815
3367.14	0.813
3376.71	0.81
3386.28	0.808
3395.85	0.805
3405.42	0.803
3414.99	0.802
3424.56	0.804
3434.13	0.805
3443.7	0.807
3453.27	0.809
3462.84	0.811
3472.41	0.812
3481.97	0.816
3491.54	0.818
3501.11	0.823
3510.68	0.825
3520.25	0.827
3529.82	0.827
3539.39	0.834
3548.96	0.84
3558.53	0.845
3568.1	0.848
3577.67	0.849
3587.24	0.851
3596.81	0.853
3606.38	0.857
3615.95	0.86
3625.52	0.861
3635.08	0.863
3644.65	0.863
3654.22	0.864
3663.79	0.865
3673.36	0.865
3682.93	0.866
3692.5	0.866
3702.07	0.866
3711.64	0.864
3721.21	0.863
3730.78	0.861
3740.35	0.86
3749.92	0.86
3759.49	0.859
3769.06	0.857
3778.62	0.856
3788.19	0.855
3797.76	0.853
3807.33	0.852
3816.9	0.852
3826.47	0.851
3836.04	0.85
3845.61	0.85
3855.18	0.85
3864.75	0.85
3874.32	0.85
3883.89	0.85
3893.46	0.85
3903.03	0.849
3912.6	0.849
3922.17	0.849
3931.73	0.849
3941.3	0.849
3950.87	0.848
3960.44	0.847
3970.01	0.847
3979.58	0.846
3989.15	0.846
3998.72	0.846
