Infrared Spectrum: UREA, 1-(4-ACETYLPHENYL)-3-(2-CHLOROETHYL)-
Formula: C11 H13 Cl N2 O2
CAS: 13908-48-0
State: SOLID (1 mg / 650 mg KBr DISC)
Class: COBLENTZ III
Instrument: PERKIN-ELMER 221 (GRATING)
Instrument parameters: FILTER CHANGES AT 2490, 980 CM^-^1, GRATING FOR 4000-1428 CM^-^1, NaCl PRISM FOR 1428-650 CM^-^1
Sampling: TRANSMISSION
Resolution: 4
Origin: SOUTHERN RESEARCH INST.
1/CM	TRANSMITTANCE
596.2	0.692
605.782	0.692
615.363	0.7
624.945	0.702
634.526	0.678
644.108	0.704
653.689	0.813
663.271	0.865
672.852	0.894
682.434	0.912
692.015	0.926
701.597	0.919
711.178	0.902
720.76	0.916
730.341	0.906
739.923	0.872
749.504	0.929
759.086	0.94
768.667	0.949
778.249	0.949
787.83	0.934
797.412	0.927
806.993	0.875
816.575	0.669
826.156	0.775
835.738	0.723
845.319	0.865
854.901	0.95
864.482	0.944
874.064	0.939
883.645	0.936
893.227	0.934
902.808	0.932
912.39	0.925
921.971	0.913
931.553	0.892
941.134	0.846
950.716	0.76
960.297	0.637
969.879	0.794
979.46	0.882
989.042	0.884
998.623	0.874
1008.2	0.859
1017.79	0.806
1027.37	0.846
1036.95	0.878
1046.53	0.871
1056.11	0.854
1065.69	0.815
1075.28	0.79
1084.86	0.847
1094.44	0.851
1104.02	0.819
1113.6	0.771
1123.18	0.79
1132.76	0.782
1142.35	0.766
1151.93	0.707
1161.51	0.361
1171.09	0.592
1180.67	0.746
1190.25	0.693
1199.83	0.571
1209.42	0.302
1219	0.35
1228.58	0.471
1238.16	0.607
1247.74	0.632
1257.32	0.638
1266.91	0.442
1276.49	0.378
1286.07	0.691
1295.65	0.792
1305.23	0.629
1314.81	0.66
1324.39	0.674
1333.98	0.823
1343.56	0.811
1353.14	0.574
1362.72	0.715
1372.3	0.857
1381.88	0.861
1391.47	0.831
1401.05	0.75
1410.63	0.713
1420.21	0.689
1429.79	0.686
1439.37	0.795
1448.95	0.848
1458.54	0.828
1468.12	0.79
1477.7	0.752
1487.28	0.687
1496.86	0.59
1506.44	0.457
1516.02	0.286
1525.61	0.197
1535.19	0.215
1544.77	0.223
1554.35	0.431
1563.93	0.606
1573.51	0.696
1583.1	0.636
1592.68	0.391
1602.26	0.394
1611.84	0.603
1621.42	0.774
1631	0.782
1640.58	0.701
1650.17	0.309
1659.75	0.47
1669.33	0.625
1678.91	0.7
1688.49	0.703
1698.07	0.378
1707.65	0.352
1717.24	0.617
1726.82	0.802
1736.4	0.895
1745.98	0.928
1755.56	0.945
1765.14	0.96
1774.73	0.969
1784.31	0.976
1793.89	0.979
1803.47	0.982
1813.05	0.985
1822.63	0.997
1832.21	1
1841.8	1.002
1851.38	1.003
1860.96	1.001
1870.54	0.997
1880.12	0.994
1889.7	0.993
1899.28	0.991
1908.87	0.987
1918.45	0.986
1928.03	0.985
1937.61	0.985
1947.19	0.985
1956.77	0.985
1966.36	0.983
1975.94	0.982
1985.52	0.981
1995.1	0.979
2004.68	0.977
2014.26	0.976
2023.84	0.974
2033.43	0.972
2043.01	0.97
2052.59	0.969
2062.17	0.967
2071.75	0.966
2081.33	0.964
2090.91	0.962
2100.5	0.961
2110.08	0.958
2119.66	0.957
2129.24	0.956
2138.82	0.955
2148.4	0.955
2157.99	0.956
2167.57	0.955
2177.15	0.955
2186.73	0.955
2196.31	0.954
2205.89	0.952
2215.47	0.952
2225.06	0.951
2234.64	0.951
2244.22	0.951
2253.8	0.951
2263.38	0.951
2272.96	0.95
2282.55	0.948
2292.13	0.947
2301.71	0.942
2311.29	0.94
2320.87	0.939
2330.45	0.937
2340.03	0.936
2349.62	0.936
2359.2	0.935
2368.78	0.934
2378.36	0.933
2387.94	0.932
2397.52	0.932
2407.1	0.932
2416.69	0.931
2426.27	0.931
2435.85	0.93
2445.43	0.929
2455.01	0.928
2464.59	0.927
2474.18	0.926
2483.76	0.924
2493.34	0.921
2502.92	0.918
2512.5	0.915
2522.08	0.911
2531.66	0.908
2541.25	0.904
2550.83	0.902
2560.41	0.902
2569.99	0.9
2579.57	0.898
2589.15	0.899
2598.73	0.902
2608.32	0.902
2617.9	0.902
2627.48	0.899
2637.06	0.898
2646.64	0.898
2656.22	0.898
2665.81	0.898
2675.39	0.897
2684.97	0.896
2694.55	0.895
2704.13	0.893
2713.71	0.891
2723.29	0.89
2732.88	0.887
2742.46	0.886
2752.04	0.884
2761.62	0.884
2771.2	0.884
2780.78	0.884
2790.36	0.884
2799.95	0.883
2809.53	0.883
2819.11	0.881
2828.69	0.878
2838.27	0.873
2847.85	0.871
2857.44	0.869
2867.02	0.868
2876.6	0.867
2886.18	0.865
2895.76	0.863
2905.34	0.851
2914.92	0.832
2924.51	0.812
2934.09	0.805
2943.67	0.847
2953.25	0.853
2962.83	0.837
2972.41	0.838
2982	0.854
2991.58	0.838
3001.16	0.83
3010.74	0.836
3020.32	0.835
3029.9	0.829
3039.48	0.822
3049.07	0.825
3058.65	0.815
3068.23	0.81
3077.81	0.835
3087.39	0.835
3096.97	0.828
3106.55	0.82
3116.14	0.825
3125.72	0.828
3135.3	0.831
3144.88	0.832
3154.46	0.83
3164.04	0.823
3173.63	0.811
3183.21	0.797
3192.79	0.796
3202.37	0.795
3211.95	0.792
3221.53	0.788
3231.11	0.777
3240.7	0.766
3250.28	0.76
3259.86	0.754
3269.44	0.744
3279.02	0.722
3288.6	0.696
3298.18	0.69
3307.77	0.681
3317.35	0.661
3326.93	0.632
3336.51	0.59
3346.09	0.528
3355.67	0.46
3365.26	0.341
3374.84	0.335
3384.42	0.443
3394	0.57
3403.58	0.69
3413.16	0.757
3422.74	0.797
3432.33	0.81
3441.91	0.812
3451.49	0.813
3461.07	0.814
3470.65	0.815
3480.23	0.816
3489.81	0.817
3499.4	0.819
3508.98	0.821
3518.56	0.824
3528.14	0.828
3537.72	0.831
3547.3	0.835
3556.89	0.84
3566.47	0.844
3576.05	0.849
3585.63	0.853
3595.21	0.857
3604.79	0.862
3614.37	0.865
3623.96	0.867
3633.54	0.869
3643.12	0.872
3652.7	0.871
3662.28	0.87
3671.86	0.868
3681.44	0.867
3691.03	0.868
3700.61	0.87
3710.19	0.869
3719.77	0.869
3729.35	0.868
3738.93	0.868
3748.52	0.867
3758.1	0.865
3767.68	0.865
3777.26	0.865
3786.84	0.865
3796.42	0.864
3806	0.862
3815.59	0.861
3825.17	0.859
3834.75	0.857
3844.33	0.856
3853.91	0.855
3863.49	0.854
3873.08	0.853
3882.66	0.852
3892.24	0.851
3901.82	0.85
3911.4	0.85
3920.98	0.85
3930.56	0.849
3940.15	0.849
3949.73	0.848
3959.31	0.848
3968.89	0.848
3978.47	0.848
3988.05	0.848
3997.63	0.848
4007.22	0.848
