Infrared Spectrum: UREA, 1-(2-CHLOROETHYL)-3-(2,2,2-TRIFLUOROETHYL)-
Formula: C5 H8 Cl F3 N2 O
CAS: 13908-00-4
State: SOLID (1 mg / 650 mg KBr DISC)
Class: COBLENTZ III
Instrument: PERKIN-ELMER 221 (GRATING)
Instrument parameters: FILTERS AT 2490, 980 CM ^-^1, NaCl PRISM FOR 1428-650 CM^-^1
Sampling: TRANSMISSION
Resolution: 4
Origin: SOUTHERN RES. INSTITUTE
1/CM	TRANSMITTANCE
599.58	0.758
608.709	0.755
617.838	0.747
626.967	0.729
636.096	0.711
645.225	0.694
654.354	0.717
663.483	0.735
672.613	0.735
681.742	0.742
690.871	0.773
700	0.77
709.129	0.851
718.258	0.88
727.387	0.905
736.516	0.908
745.645	0.891
754.774	0.903
763.903	0.912
773.032	0.906
782.161	0.922
791.29	0.935
800.419	0.937
809.549	0.937
818.678	0.925
827.807	0.788
836.936	0.871
846.065	0.922
855.194	0.936
864.323	0.937
873.452	0.937
882.581	0.937
891.71	0.934
900.839	0.918
909.968	0.863
919.097	0.914
928.226	0.915
937.355	0.889
946.484	0.793
955.614	0.835
964.743	0.885
973.872	0.888
983.001	0.825
992.13	0.76
1001.26	0.857
1010.39	0.887
1019.52	0.886
1028.65	0.876
1037.78	0.869
1046.9	0.852
1056.03	0.863
1065.16	0.863
1074.29	0.852
1083.42	0.84
1092.55	0.837
1101.68	0.835
1110.81	0.817
1119.94	0.776
1129.07	0.692
1138.19	0.508
1147.32	0.183
1156.45	0.209
1165.58	0.377
1174.71	0.487
1183.84	0.555
1192.97	0.645
1202.1	0.699
1211.23	0.729
1220.36	0.759
1229.49	0.711
1238.61	0.568
1247.74	0.426
1256.87	0.422
1266	0.52
1275.13	0.59
1284.26	0.527
1293.39	0.603
1302.52	0.642
1311.65	0.622
1320.78	0.736
1329.91	0.811
1339.03	0.832
1348.16	0.832
1357.29	0.826
1366.42	0.79
1375.55	0.817
1384.68	0.819
1393.81	0.747
1402.94	0.804
1412.07	0.782
1421.2	0.754
1430.32	0.749
1439.45	0.789
1448.58	0.867
1457.71	0.831
1466.84	0.894
1475.97	0.891
1485.1	0.888
1494.23	0.89
1503.36	0.882
1512.49	0.872
1521.62	0.841
1530.74	0.829
1539.87	0.757
1549	0.733
1558.13	0.713
1567.26	0.618
1576.39	0.468
1585.52	0.364
1594.65	0.284
1603.78	0.282
1612.91	0.357
1622.04	0.476
1631.16	0.422
1640.29	0.267
1649.42	0.173
1658.55	0.287
1667.68	0.456
1676.81	0.559
1685.94	0.636
1695.07	0.695
1704.2	0.726
1713.33	0.766
1722.46	0.804
1731.58	0.85
1740.71	0.854
1749.84	0.866
1758.97	0.87
1768.1	0.875
1777.23	0.881
1786.36	0.887
1795.49	0.89
1804.62	0.891
1813.75	0.893
1822.87	0.896
1832	0.9
1841.13	0.905
1850.26	0.908
1859.39	0.909
1868.52	0.909
1877.65	0.909
1886.78	0.909
1895.91	0.91
1905.04	0.91
1914.17	0.911
1923.29	0.911
1932.42	0.911
1941.55	0.911
1950.68	0.912
1959.81	0.912
1968.94	0.91
1978.07	0.91
1987.2	0.911
1996.33	0.913
2005.46	0.914
2014.59	0.913
2023.71	0.913
2032.84	0.913
2041.97	0.915
2051.1	0.915
2060.23	0.913
2069.36	0.913
2078.49	0.913
2087.62	0.912
2096.75	0.911
2105.88	0.911
2115	0.911
2124.13	0.91
2133.26	0.91
2142.39	0.911
2151.52	0.911
2160.65	0.911
2169.78	0.912
2178.91	0.911
2188.04	0.91
2197.17	0.909
2206.3	0.908
2215.42	0.908
2224.55	0.908
2233.68	0.907
2242.81	0.906
2251.94	0.906
2261.07	0.906
2270.2	0.903
2279.33	0.903
2288.46	0.901
2297.59	0.9
2306.72	0.9
2315.84	0.899
2324.97	0.899
2334.1	0.898
2343.23	0.898
2352.36	0.898
2361.49	0.898
2370.62	0.897
2379.75	0.897
2388.88	0.897
2398.01	0.897
2407.14	0.897
2416.26	0.896
2425.39	0.896
2434.52	0.896
2443.65	0.895
2452.78	0.895
2461.91	0.894
2471.04	0.894
2480.17	0.894
2489.3	0.894
2498.43	0.894
2507.55	0.894
2516.68	0.894
2525.81	0.893
2534.94	0.893
2544.07	0.892
2553.2	0.891
2562.33	0.891
2571.46	0.891
2580.59	0.89
2589.72	0.891
2598.85	0.891
2607.97	0.891
2617.1	0.889
2626.23	0.888
2635.36	0.888
2644.49	0.888
2653.62	0.888
2662.75	0.887
2671.88	0.886
2681.01	0.885
2690.14	0.885
2699.27	0.885
2708.39	0.885
2717.52	0.885
2726.65	0.883
2735.78	0.881
2744.91	0.881
2754.04	0.884
2763.17	0.885
2772.3	0.887
2781.43	0.886
2790.56	0.885
2799.68	0.881
2808.81	0.878
2817.94	0.872
2827.07	0.869
2836.2	0.865
2845.33	0.854
2854.46	0.851
2863.59	0.854
2872.72	0.858
2881.85	0.862
2890.98	0.863
2900.1	0.861
2909.23	0.858
2918.36	0.841
2927.49	0.829
2936.62	0.824
2945.75	0.819
2954.88	0.811
2964.01	0.793
2973.14	0.807
2982.27	0.829
2991.4	0.848
3000.52	0.853
3009.65	0.846
3018.78	0.841
3027.91	0.831
3037.04	0.815
3046.17	0.798
3055.3	0.799
3064.43	0.809
3073.56	0.812
3082.69	0.818
3091.81	0.824
3100.94	0.829
3110.07	0.829
3119.2	0.827
3128.33	0.821
3137.46	0.803
3146.59	0.776
3155.72	0.772
3164.85	0.779
3173.98	0.781
3183.11	0.779
3192.23	0.778
3201.36	0.776
3210.49	0.773
3219.62	0.775
3228.75	0.773
3237.88	0.77
3247.01	0.76
3256.14	0.743
3265.27	0.72
3274.4	0.695
3283.53	0.671
3292.65	0.635
3301.78	0.592
3310.91	0.539
3320.04	0.489
3329.17	0.424
3338.3	0.354
3347.43	0.334
3356.56	0.341
3365.69	0.399
3374.82	0.449
3383.95	0.506
3393.07	0.533
3402.2	0.583
3411.33	0.623
3420.46	0.661
3429.59	0.683
3438.72	0.702
3447.85	0.729
3456.98	0.737
3466.11	0.749
3475.24	0.759
3484.36	0.765
3493.49	0.767
3502.62	0.773
3511.75	0.776
3520.88	0.782
3530.01	0.791
3539.14	0.797
3548.27	0.8
3557.4	0.801
3566.53	0.803
3575.66	0.807
3584.78	0.815
3593.91	0.817
3603.04	0.819
3612.17	0.822
3621.3	0.825
3630.43	0.83
3639.56	0.832
3648.69	0.833
3657.82	0.835
3666.95	0.838
3676.08	0.836
3685.2	0.838
3694.33	0.839
3703.46	0.844
3712.59	0.843
3721.72	0.84
3730.85	0.839
3739.98	0.838
3749.11	0.84
3758.24	0.843
3767.37	0.846
3776.49	0.845
3785.62	0.845
3794.75	0.844
3803.88	0.844
3813.01	0.843
3822.14	0.842
3831.27	0.842
3840.4	0.841
3849.53	0.842
3858.66	0.838
3867.79	0.838
3876.91	0.84
3886.04	0.841
3895.17	0.841
3904.3	0.842
3913.43	0.843
3922.56	0.844
3931.69	0.844
3940.82	0.844
3949.95	0.843
3959.08	0.842
3968.21	0.842
3977.33	0.842
3986.46	0.842
3995.59	0.841
