Infrared Spectrum: UREA, 1-(2-FLUOROETHYL)-3-METHYL-
Formula: C4 H9 F N2 O
CAS: 13907-91-0
State: SOLID (1 mg / 650 mg KBr DISC)
Melting point: 78 C
Class: COBLENTZ III
Instrument: PERKIN-ELMER 221 (GRATING)
Instrument parameters: FILTER CHANGE AT 2490, 980 CM^-^1, GRATING FOR 4000-1428 CM^-^1, NaCl PRISM FOR 1428-650 CM^-^1
Sampling: TRANSMISSION
Resolution: 4
Origin: SOUTHERN RESEARCH INST.
1/CM	TRANSMITTANCE
598.456	0.744
607.717	0.74
616.979	0.724
626.24	0.709
635.501	0.693
644.763	0.684
654.024	0.681
663.285	0.698
672.546	0.737
681.808	0.783
691.069	0.819
700.33	0.849
709.592	0.874
718.853	0.898
728.114	0.913
737.376	0.926
746.637	0.938
755.898	0.939
765.16	0.927
774.421	0.905
783.682	0.958
792.944	0.966
802.205	0.971
811.466	0.972
820.727	0.975
829.989	0.97
839.25	0.926
848.511	0.709
857.773	0.843
867.034	0.897
876.295	0.967
885.557	0.957
894.818	0.923
904.079	0.956
913.341	0.955
922.602	0.95
931.863	0.938
941.125	0.923
950.386	0.893
959.647	0.781
968.908	0.843
978.17	0.883
987.431	0.892
996.692	0.883
1005.95	0.854
1015.22	0.815
1024.48	0.547
1033.74	0.462
1043	0.604
1052.26	0.733
1061.52	0.805
1070.78	0.814
1080.04	0.819
1089.31	0.838
1098.57	0.839
1107.83	0.835
1117.09	0.841
1126.35	0.847
1135.61	0.849
1144.87	0.843
1154.13	0.821
1163.4	0.762
1172.66	0.785
1181.92	0.844
1191.18	0.862
1200.44	0.866
1209.7	0.863
1218.96	0.851
1228.23	0.839
1237.49	0.768
1246.75	0.748
1256.01	0.685
1265.27	0.64
1274.53	0.645
1283.79	0.527
1293.05	0.586
1302.32	0.72
1311.58	0.761
1320.84	0.8
1330.1	0.833
1339.36	0.854
1348.62	0.86
1357.88	0.834
1367.14	0.812
1376.41	0.876
1385.67	0.863
1394.93	0.855
1404.19	0.852
1413.45	0.731
1422.71	0.765
1431.97	0.726
1441.24	0.777
1450.5	0.848
1459.76	0.852
1469.02	0.817
1478.28	0.8
1487.54	0.86
1496.8	0.872
1506.06	0.866
1515.33	0.818
1524.59	0.785
1533.85	0.72
1543.11	0.637
1552.37	0.654
1561.63	0.623
1570.89	0.544
1580.16	0.404
1589.42	0.314
1598.68	0.231
1607.94	0.236
1617.2	0.256
1626.46	0.196
1635.72	0.153
1644.98	0.222
1654.25	0.297
1663.51	0.373
1672.77	0.447
1682.03	0.518
1691.29	0.583
1700.55	0.64
1709.81	0.688
1719.07	0.728
1728.34	0.746
1737.6	0.779
1746.86	0.793
1756.12	0.806
1765.38	0.82
1774.64	0.839
1783.9	0.848
1793.17	0.858
1802.43	0.863
1811.69	0.872
1820.95	0.878
1830.21	0.882
1839.47	0.888
1848.73	0.897
1857.99	0.902
1867.26	0.907
1876.52	0.909
1885.78	0.91
1895.04	0.91
1904.3	0.913
1913.56	0.914
1922.82	0.915
1932.08	0.918
1941.35	0.919
1950.61	0.92
1959.87	0.922
1969.13	0.923
1978.39	0.925
1987.65	0.926
1996.91	0.926
2006.18	0.926
2015.44	0.928
2024.7	0.929
2033.96	0.929
2043.22	0.929
2052.48	0.93
2061.74	0.931
2071	0.931
2080.27	0.931
2089.53	0.931
2098.79	0.931
2108.05	0.931
2117.31	0.931
2126.57	0.932
2135.83	0.932
2145.1	0.933
2154.36	0.934
2163.62	0.935
2172.88	0.935
2182.14	0.935
2191.4	0.935
2200.66	0.935
2209.92	0.935
2219.19	0.935
2228.45	0.935
2237.71	0.935
2246.97	0.935
2256.23	0.935
2265.49	0.935
2274.75	0.935
2284.01	0.935
2293.28	0.935
2302.54	0.935
2311.8	0.935
2321.06	0.935
2330.32	0.935
2339.58	0.933
2348.84	0.932
2358.11	0.932
2367.37	0.933
2376.63	0.933
2385.89	0.932
2395.15	0.932
2404.41	0.931
2413.67	0.931
2422.93	0.93
2432.2	0.93
2441.46	0.93
2450.72	0.929
2459.98	0.929
2469.24	0.929
2478.5	0.928
2487.76	0.928
2497.02	0.926
2506.29	0.925
2515.55	0.925
2524.81	0.924
2534.07	0.924
2543.33	0.924
2552.59	0.925
2561.85	0.925
2571.12	0.925
2580.38	0.923
2589.64	0.923
2598.9	0.923
2608.16	0.922
2617.42	0.922
2626.68	0.922
2635.94	0.922
2645.21	0.922
2654.47	0.923
2663.73	0.924
2672.99	0.924
2682.25	0.922
2691.51	0.916
2700.77	0.914
2710.04	0.913
2719.3	0.913
2728.56	0.913
2737.82	0.913
2747.08	0.913
2756.34	0.913
2765.6	0.913
2774.86	0.911
2784.13	0.91
2793.39	0.9
2802.65	0.864
2811.91	0.846
2821.17	0.878
2830.43	0.877
2839.69	0.861
2848.95	0.851
2858.22	0.847
2867.48	0.83
2876.74	0.817
2886	0.804
2895.26	0.77
2904.52	0.741
2913.78	0.788
2923.05	0.776
2932.31	0.736
2941.57	0.708
2950.83	0.72
2960.09	0.715
2969.35	0.717
2978.61	0.721
2987.87	0.71
2997.14	0.698
3006.4	0.786
3015.66	0.801
3024.92	0.802
3034.18	0.793
3043.44	0.771
3052.7	0.787
3061.96	0.802
3071.23	0.817
3080.49	0.83
3089.75	0.843
3099.01	0.845
3108.27	0.839
3117.53	0.833
3126.79	0.824
3136.06	0.805
3145.32	0.778
3154.58	0.746
3163.84	0.742
3173.1	0.749
3182.36	0.754
3191.62	0.755
3200.88	0.759
3210.15	0.76
3219.41	0.759
3228.67	0.75
3237.93	0.735
3247.19	0.714
3256.45	0.689
3265.71	0.659
3274.98	0.645
3284.24	0.611
3293.5	0.574
3302.76	0.54
3312.02	0.488
3321.28	0.419
3330.54	0.358
3339.8	0.306
3349.07	0.277
3358.33	0.29
3367.59	0.332
3376.85	0.375
3386.11	0.424
3395.37	0.484
3404.63	0.527
3413.89	0.555
3423.16	0.579
3432.42	0.607
3441.68	0.617
3450.94	0.644
3460.2	0.67
3469.46	0.679
3478.72	0.694
3487.99	0.708
3497.25	0.715
3506.51	0.731
3515.77	0.736
3525.03	0.743
3534.29	0.753
3543.55	0.761
3552.81	0.768
3562.08	0.773
3571.34	0.78
3580.6	0.788
3589.86	0.793
3599.12	0.799
3608.38	0.806
3617.64	0.807
3626.9	0.814
3636.17	0.82
3645.43	0.831
3654.69	0.828
3663.95	0.829
3673.21	0.835
3682.47	0.826
3691.73	0.837
3701	0.843
3710.26	0.845
3719.52	0.845
3728.78	0.843
3738.04	0.841
3747.3	0.834
3756.56	0.836
3765.82	0.846
3775.09	0.85
3784.35	0.85
3793.61	0.849
3802.87	0.847
3812.13	0.843
3821.39	0.842
3830.65	0.843
3839.92	0.844
3849.18	0.844
3858.44	0.844
3867.7	0.844
3876.96	0.845
3886.22	0.845
3895.48	0.846
3904.74	0.845
3914.01	0.844
3923.27	0.845
3932.53	0.846
3941.79	0.848
3951.05	0.848
3960.31	0.848
3969.57	0.848
3978.83	0.848
3988.1	0.848
3997.36	0.848
4006.62	0.847
4015.88	0.847
