Infrared Spectrum: UREA, 1-(2-CHLOROETHYL)-3-(m-CHLOROPHENEYL)-
Formula: C9 H10 Cl2 N2 O
CAS: 13908-34-4
State: SOLID (0.7 mg / 500 mg KBr DISC)
Class: COBLENTZ III
Instrument: PERKIN-ELMER 221 (GRATING)
Instrument parameters: FILTERS AT 2490, 980 CM ^-^1, GRATING FOR 1428-4000 CM^-^1, NaCl PRISM FOR 1428-650 CM^-^1
Sampling: TRANSMISSION
Resolution: 4
Origin: SOUTHERN RES. INSTITUTE
1/CM	TRANSMITTANCE
605.567	0.761
614.706	0.753
623.844	0.731
632.983	0.693
642.122	0.63
651.26	0.577
660.399	0.525
669.538	0.502
678.676	0.669
687.815	0.709
696.954	0.473
706.092	0.666
715.231	0.8
724.37	0.838
733.508	0.795
742.647	0.685
751.785	0.781
760.924	0.682
770.063	0.547
779.201	0.8
788.34	0.792
797.479	0.912
806.617	0.921
815.756	0.925
824.895	0.925
834.033	0.922
843.172	0.915
852.311	0.894
861.449	0.822
870.588	0.744
879.727	0.872
888.865	0.903
898.004	0.891
907.143	0.838
916.281	0.904
925.42	0.909
934.559	0.908
943.697	0.906
952.836	0.895
961.975	0.88
971.113	0.873
980.252	0.866
989.391	0.834
998.529	0.862
1007.67	0.861
1016.81	0.859
1025.95	0.856
1035.08	0.856
1044.22	0.855
1053.36	0.802
1062.5	0.762
1071.64	0.731
1080.78	0.747
1089.92	0.791
1099.05	0.828
1108.19	0.822
1117.33	0.781
1126.47	0.816
1135.61	0.825
1144.75	0.805
1153.89	0.777
1163.02	0.792
1172.16	0.78
1181.3	0.747
1190.44	0.763
1199.58	0.787
1208.72	0.75
1217.86	0.68
1227	0.541
1236.13	0.431
1245.27	0.576
1254.41	0.625
1263.55	0.481
1272.69	0.557
1281.83	0.674
1290.97	0.66
1300.1	0.639
1309.24	0.75
1318.38	0.789
1327.52	0.799
1336.66	0.814
1345.8	0.813
1354.94	0.809
1364.08	0.808
1373.21	0.806
1382.35	0.8
1391.49	0.793
1400.63	0.717
1409.77	0.544
1418.91	0.457
1428.05	0.525
1437.18	0.657
1446.32	0.539
1455.46	0.775
1464.6	0.698
1473.74	0.58
1482.88	0.664
1492.02	0.768
1501.16	0.732
1510.29	0.696
1519.43	0.637
1528.57	0.542
1537.71	0.504
1546.85	0.365
1555.99	0.257
1565.13	0.171
1574.26	0.277
1583.4	0.42
1592.54	0.146
1601.68	0.175
1610.82	0.438
1619.96	0.458
1629.1	0.304
1638.24	0.155
1647.37	0.031
1656.51	0.314
1665.65	0.549
1674.79	0.647
1683.93	0.683
1693.07	0.687
1702.21	0.743
1711.34	0.8
1720.48	0.829
1729.62	0.838
1738.76	0.839
1747.9	0.841
1757.04	0.845
1766.18	0.849
1775.31	0.848
1784.45	0.854
1793.59	0.856
1802.73	0.862
1811.87	0.864
1821.01	0.864
1830.15	0.862
1839.29	0.86
1848.42	0.859
1857.56	0.856
1866.7	0.859
1875.84	0.863
1884.98	0.865
1894.12	0.864
1903.26	0.862
1912.39	0.86
1921.53	0.857
1930.67	0.854
1939.81	0.852
1948.95	0.853
1958.09	0.854
1967.23	0.854
1976.37	0.853
1985.5	0.853
1994.64	0.853
2003.78	0.851
2012.92	0.85
2022.06	0.85
2031.2	0.848
2040.34	0.847
2049.47	0.846
2058.61	0.845
2067.75	0.844
2076.89	0.843
2086.03	0.842
2095.17	0.841
2104.31	0.841
2113.45	0.84
2122.58	0.84
2131.72	0.839
2140.86	0.838
2150	0.838
2159.14	0.838
2168.28	0.838
2177.42	0.838
2186.55	0.837
2195.69	0.837
2204.83	0.837
2213.97	0.836
2223.11	0.836
2232.25	0.835
2241.39	0.835
2250.53	0.834
2259.66	0.834
2268.8	0.834
2277.94	0.833
2287.08	0.831
2296.22	0.829
2305.36	0.826
2314.5	0.823
2323.63	0.82
2332.77	0.819
2341.91	0.818
2351.05	0.818
2360.19	0.819
2369.33	0.819
2378.47	0.82
2387.6	0.82
2396.74	0.819
2405.88	0.819
2415.02	0.819
2424.16	0.818
2433.3	0.817
2442.44	0.817
2451.58	0.816
2460.71	0.814
2469.85	0.814
2478.99	0.814
2488.13	0.813
2497.27	0.813
2506.41	0.811
2515.55	0.81
2524.68	0.809
2533.82	0.808
2542.96	0.806
2552.1	0.805
2561.24	0.804
2570.38	0.803
2579.52	0.802
2588.66	0.801
2597.79	0.8
2606.93	0.8
2616.07	0.8
2625.21	0.799
2634.35	0.797
2643.49	0.797
2652.63	0.796
2661.76	0.794
2670.9	0.794
2680.04	0.794
2689.18	0.794
2698.32	0.796
2707.46	0.794
2716.6	0.792
2725.74	0.786
2734.87	0.781
2744.01	0.777
2753.15	0.775
2762.29	0.771
2771.43	0.767
2780.57	0.764
2789.71	0.762
2798.84	0.76
2807.98	0.76
2817.12	0.758
2826.26	0.757
2835.4	0.752
2844.54	0.749
2853.68	0.747
2862.81	0.745
2871.95	0.747
2881.09	0.747
2890.23	0.745
2899.37	0.743
2908.51	0.734
2917.65	0.715
2926.79	0.707
2935.92	0.698
2945.06	0.682
2954.2	0.694
2963.34	0.666
2972.48	0.694
2981.62	0.71
2990.76	0.707
2999.89	0.687
3009.03	0.676
3018.17	0.676
3027.31	0.677
3036.45	0.677
3045.59	0.679
3054.73	0.678
3063.87	0.666
3073	0.645
3082.14	0.639
3091.28	0.638
3100.42	0.642
3109.56	0.644
3118.7	0.648
3127.84	0.648
3136.97	0.641
3146.11	0.634
3155.25	0.621
3164.39	0.595
3173.53	0.583
3182.67	0.586
3191.81	0.592
3200.95	0.592
3210.08	0.586
3219.22	0.558
3228.36	0.52
3237.5	0.479
3246.64	0.436
3255.78	0.398
3264.92	0.361
3274.05	0.333
3283.19	0.347
3292.33	0.367
3301.47	0.409
3310.61	0.446
3319.75	0.445
3328.89	0.431
3338.03	0.4
3347.16	0.37
3356.3	0.336
3365.44	0.354
3374.58	0.431
3383.72	0.5
3392.86	0.56
3402	0.602
3411.13	0.616
3420.27	0.626
3429.41	0.646
3438.55	0.651
3447.69	0.654
3456.83	0.657
3465.97	0.659
3475.1	0.66
3484.24	0.66
3493.38	0.661
3502.52	0.663
3511.66	0.666
3520.8	0.671
3529.94	0.678
3539.08	0.683
3548.21	0.689
3557.35	0.694
3566.49	0.698
3575.63	0.701
3584.77	0.706
3593.91	0.71
3603.05	0.713
3612.18	0.717
3621.32	0.72
3630.46	0.722
3639.6	0.725
3648.74	0.726
3657.88	0.726
3667.02	0.726
3676.16	0.726
3685.29	0.726
3694.43	0.727
3703.57	0.728
3712.71	0.728
3721.85	0.728
3730.99	0.727
3740.13	0.725
3749.26	0.725
3758.4	0.725
3767.54	0.725
3776.68	0.727
3785.82	0.727
3794.96	0.727
3804.1	0.725
3813.24	0.725
3822.37	0.724
3831.51	0.722
3840.65	0.722
3849.79	0.722
3858.93	0.722
3868.07	0.722
3877.21	0.722
3886.34	0.721
3895.48	0.721
3904.62	0.721
3913.76	0.722
3922.9	0.722
3932.04	0.722
3941.18	0.722
3950.31	0.722
3959.45	0.722
3968.59	0.722
3977.73	0.721
3986.87	0.721
3996.01	0.72
4005.15	0.72
