Infrared Spectrum: UREA, 1-(2-CHLOROETHYL)-3-[p-(DIMETHYLCARBAMOYL)PHENYL]-
Formula: C12 H16 Cl N3 O2
CAS: 13908-49-1
State: SOLID (1 mg / 650 mg KBr DISC)
Class: COBLENTZ III
Instrument: PERKIN-ELMER 521 (GRATING)
Instrument parameters: FILTERS AT 3150, 2500, 2000, 1150, 700, 410 CM ^-^1, GRATING CHANGES AT 2000, 630 CM^-^1
Sampling: TRANSMISSION
Resolution: 4
Origin: SOUTHERN RES. INSTITUTE
1/CM	TRANSMITTANCE
256.061	0.249
265.152	0.273
274.243	0.334
283.334	0.401
292.425	0.443
301.516	0.498
310.606	0.538
319.697	0.563
328.788	0.584
337.879	0.611
346.97	0.639
356.061	0.646
365.152	0.663
374.243	0.702
383.334	0.699
392.425	0.706
401.516	0.732
410.606	0.743
419.697	0.744
428.788	0.743
437.879	0.745
446.97	0.761
456.061	0.771
465.152	0.767
474.243	0.743
483.334	0.718
492.425	0.68
501.515	0.714
510.606	0.782
519.697	0.786
528.788	0.785
537.879	0.779
546.97	0.773
556.061	0.761
565.152	0.716
574.243	0.716
583.334	0.761
592.425	0.77
601.515	0.771
610.606	0.773
619.697	0.773
628.788	0.746
637.879	0.722
646.97	0.711
656.061	0.644
665.152	0.651
674.243	0.739
683.334	0.731
692.425	0.715
701.515	0.696
710.606	0.675
719.697	0.674
728.788	0.688
737.879	0.712
746.97	0.743
756.061	0.752
765.152	0.745
774.243	0.6
783.334	0.79
792.425	0.835
801.515	0.843
810.606	0.844
819.697	0.843
828.788	0.831
837.879	0.764
846.97	0.611
856.061	0.652
865.152	0.783
874.243	0.842
883.334	0.84
892.425	0.815
901.515	0.859
910.606	0.861
919.697	0.856
928.788	0.832
937.879	0.847
946.97	0.853
956.061	0.846
965.152	0.813
974.243	0.775
983.334	0.822
992.424	0.838
1001.52	0.837
1010.61	0.831
1019.7	0.818
1028.79	0.795
1037.88	0.804
1046.97	0.807
1056.06	0.79
1065.15	0.745
1074.24	0.705
1083.33	0.732
1092.42	0.662
1101.52	0.585
1110.61	0.741
1119.7	0.749
1128.79	0.745
1137.88	0.735
1146.97	0.73
1156.06	0.739
1165.15	0.739
1174.24	0.721
1183.33	0.571
1192.42	0.581
1201.52	0.649
1210.61	0.678
1219.7	0.494
1228.79	0.388
1237.88	0.498
1246.97	0.391
1256.06	0.509
1265.15	0.627
1274.24	0.552
1283.33	0.63
1292.42	0.738
1301.52	0.7
1310.61	0.598
1319.7	0.484
1328.79	0.588
1337.88	0.715
1346.97	0.76
1356.06	0.771
1365.15	0.754
1374.24	0.73
1383.33	0.682
1392.42	0.608
1401.52	0.535
1410.61	0.464
1419.7	0.462
1428.79	0.639
1437.88	0.662
1446.97	0.6
1456.06	0.547
1465.15	0.584
1474.24	0.641
1483.33	0.591
1492.42	0.426
1501.52	0.366
1510.61	0.507
1519.7	0.513
1528.79	0.399
1537.88	0.28
1546.97	0.214
1556.06	0.269
1565.15	0.443
1574.24	0.519
1583.33	0.422
1592.42	0.312
1601.52	0.216
1610.61	0.138
1619.7	0.234
1628.79	0.333
1637.88	0.475
1646.97	0.599
1656.06	0.66
1665.15	0.688
1674.24	0.691
1683.33	0.674
1692.42	0.599
1701.52	0.266
1710.61	0.379
1719.7	0.657
1728.79	0.767
1737.88	0.805
1746.97	0.826
1756.06	0.84
1765.15	0.85
1774.24	0.852
1783.33	0.853
1792.42	0.857
1801.52	0.865
1810.61	0.867
1819.7	0.871
1828.79	0.873
1837.88	0.874
1846.97	0.877
1856.06	0.878
1865.15	0.88
1874.24	0.879
1883.33	0.877
1892.42	0.875
1901.52	0.872
1910.61	0.87
1919.7	0.871
1928.79	0.876
1937.88	0.877
1946.97	0.877
1956.06	0.878
1965.15	0.88
1974.24	0.879
1983.33	0.878
1992.42	0.877
2001.52	0.877
2010.61	0.877
2019.7	0.877
2028.79	0.875
2037.88	0.875
2046.97	0.875
2056.06	0.875
2065.15	0.875
2074.24	0.875
2083.33	0.874
2092.42	0.873
2101.52	0.872
2110.61	0.871
2119.7	0.873
2128.79	0.873
2137.88	0.873
2146.97	0.873
2156.06	0.872
2165.15	0.871
2174.24	0.871
2183.33	0.871
2192.42	0.871
2201.52	0.871
2210.61	0.871
2219.7	0.87
2228.79	0.87
2237.88	0.869
2246.97	0.868
2256.06	0.868
2265.15	0.868
2274.24	0.868
2283.33	0.867
2292.42	0.866
2301.52	0.865
2310.61	0.863
2319.7	0.862
2328.79	0.863
2337.88	0.864
2346.97	0.864
2356.06	0.864
2365.15	0.865
2374.24	0.865
2383.33	0.865
2392.42	0.865
2401.52	0.865
2410.61	0.863
2419.7	0.861
2428.79	0.86
2437.88	0.861
2446.97	0.862
2456.06	0.862
2465.15	0.86
2474.24	0.858
2483.33	0.855
2492.42	0.852
2501.52	0.851
2510.61	0.85
2519.7	0.849
2528.79	0.849
2537.88	0.849
2546.97	0.849
2556.06	0.848
2565.15	0.847
2574.24	0.844
2583.33	0.844
2592.42	0.846
2601.52	0.849
2610.61	0.849
2619.7	0.849
2628.79	0.848
2637.88	0.848
2646.97	0.847
2656.06	0.846
2665.15	0.846
2674.24	0.844
2683.33	0.844
2692.42	0.841
2701.52	0.837
2710.61	0.833
2719.7	0.831
2728.79	0.83
2737.88	0.829
2746.97	0.828
2756.06	0.827
2765.15	0.825
2774.24	0.823
2783.33	0.819
2792.42	0.815
2801.52	0.808
2810.61	0.807
2819.7	0.807
2828.79	0.801
2837.88	0.782
2846.97	0.767
2856.06	0.748
2865.15	0.72
2874.24	0.74
2883.33	0.749
2892.42	0.738
2901.52	0.715
2910.61	0.696
2919.7	0.685
2928.79	0.695
2937.88	0.709
2946.97	0.709
2956.06	0.697
2965.15	0.733
2974.24	0.764
2983.33	0.769
2992.42	0.758
3001.52	0.738
3010.61	0.728
3019.7	0.718
3028.79	0.706
3037.88	0.709
3046.97	0.709
3056.06	0.708
3065.15	0.706
3074.24	0.704
3083.33	0.696
3092.42	0.688
3101.51	0.697
3110.61	0.704
3119.7	0.719
3128.79	0.735
3137.88	0.72
3146.97	0.719
3156.06	0.709
3165.15	0.691
3174.24	0.677
3183.33	0.671
3192.42	0.671
3201.51	0.675
3210.61	0.677
3219.7	0.673
3228.79	0.664
3237.88	0.648
3246.97	0.623
3256.06	0.591
3265.15	0.588
3274.24	0.608
3283.33	0.611
3292.42	0.605
3301.51	0.585
3310.61	0.563
3319.7	0.543
3328.79	0.507
3337.88	0.455
3346.97	0.441
3356.06	0.495
3365.15	0.569
3374.24	0.617
3383.33	0.648
3392.42	0.675
3401.51	0.699
3410.61	0.706
3419.7	0.714
3428.79	0.717
3437.88	0.721
3446.97	0.725
3456.06	0.727
3465.15	0.73
3474.24	0.735
3483.33	0.739
3492.42	0.743
3501.51	0.749
3510.61	0.755
3519.7	0.761
3528.79	0.768
3537.88	0.774
3546.97	0.779
3556.06	0.784
3565.15	0.795
3574.24	0.798
3583.33	0.805
3592.42	0.809
3601.51	0.815
3610.61	0.823
3619.7	0.83
3628.79	0.835
3637.88	0.838
3646.97	0.841
3656.06	0.842
3665.15	0.841
3674.24	0.84
3683.33	0.841
3692.42	0.845
3701.51	0.848
3710.61	0.85
3719.7	0.85
3728.79	0.85
3737.88	0.848
3746.97	0.846
3756.06	0.849
3765.15	0.851
3774.24	0.851
3783.33	0.85
3792.42	0.849
3801.51	0.848
