Infrared Spectrum: BENZOIC ACID, m-[3-(2-CHLOROETHYL)UREIDO]-
Formula: C10 H11 Cl N2 O3
CAS: 13908-45-7
State: SOLID (1 mg / 650 mg KBr DISC)
Class: COBLENTZ III
Instrument: PERKIN-ELMER 221 (GRATING)
Instrument parameters: FILTER AT 980 CM^-^1. GRATING 4000-1428 CM^-^1, NaCl PRISM 1428-650 CM^-^1
Sampling: TRANSMISSION
Resolution: 2
Origin: SOUTHERN RESEARCH INSTITUTE
1/CM	TRANSMITTANCE
615.085	0.492
624.082	0.5026
633.08	0.5418
642.077	0.5925
651.075	0.626
660.072	0.4824
669.07	0.7022
678.067	0.513
687.065	0.7628
696.062	0.7983
705.059	0.808
714.057	0.8058
723.054	0.7758
732.052	0.6438
741.049	0.7454
750.047	0.6014
759.044	0.4351
768.042	0.7507
777.039	0.7909
786.036	0.7798
795.034	0.836
804.031	0.8183
813.029	0.7759
822.026	0.8531
831.024	0.857
840.021	0.856
849.018	0.8474
858.016	0.848
867.013	0.8408
876.011	0.8303
885.008	0.8089
894.006	0.681
903.003	0.7806
912.001	0.7371
920.998	0.6933
929.995	0.5873
938.993	0.6039
947.99	0.652
956.988	0.6927
965.985	0.7614
974.983	0.7678
983.98	0.771
992.978	0.763
1001.98	0.764
1010.97	0.792
1019.97	0.793
1028.97	0.788
1037.96	0.7898
1046.96	0.7859
1055.96	0.78
1064.96	0.6638
1073.95	0.767
1082.95	0.7736
1091.95	0.783
1100.95	0.7708
1109.94	0.7756
1118.94	0.786
1127.94	0.788
1136.94	0.789
1145.93	0.7876
1154.93	0.7487
1163.93	0.759
1172.93	0.757
1181.92	0.7166
1190.92	0.6653
1199.92	0.6535
1208.92	0.6017
1217.91	0.549
1226.91	0.4116
1235.91	0.2832
1244.91	0.3579
1253.9	0.358
1262.9	0.3143
1271.9	0.3814
1280.9	0.3642
1289.89	0.4045
1298.89	0.2857
1307.89	0.3369
1316.89	0.4716
1325.88	0.6038
1334.88	0.703
1343.88	0.729
1352.88	0.7233
1361.87	0.582
1370.87	0.6725
1379.87	0.711
1388.87	0.6997
1397.86	0.641
1406.86	0.4667
1415.86	0.5877
1424.85	0.5303
1433.85	0.4766
1442.85	0.4917
1451.85	0.1961
1460.84	0.6094
1469.84	0.5759
1478.84	0.6981
1487.84	0.7389
1496.83	0.75
1505.83	0.7171
1514.83	0.6845
1523.83	0.5568
1532.82	0.545
1541.82	0.5034
1550.82	0.3747
1559.82	0.2057
1568.81	0.0948
1577.81	0.2004
1586.81	0.2838
1595.81	0.2018
1604.8	0.3679
1613.8	0.333
1622.8	0.337
1631.8	0.1397
1640.79	0.0556
1649.79	0.255
1658.79	0.4545
1667.79	0.499
1676.78	0.4631
1685.78	0.3109
1694.78	0.191
1703.78	0.1297
1712.77	0.4422
1721.77	0.6139
1730.77	0.6985
1739.77	0.7557
1748.76	0.7974
1757.76	0.806
1766.76	0.81
1775.76	0.81
1784.75	0.8065
1793.75	0.8036
1802.75	0.8049
1811.74	0.8152
1820.74	0.8223
1829.74	0.827
1838.74	0.83
1847.73	0.831
1856.73	0.833
1865.73	0.833
1874.73	0.8303
1883.72	0.8278
1892.72	0.828
1901.72	0.831
1910.72	0.8333
1919.71	0.834
1928.71	0.836
1937.71	0.838
1946.71	0.839
1955.7	0.84
1964.7	0.843
1973.7	0.843
1982.7	0.843
1991.69	0.843
2000.69	0.843
2009.69	0.843
2018.69	0.843
2027.68	0.843
2036.68	0.842
2045.68	0.84
2054.68	0.84
2063.67	0.839
2072.67	0.839
2081.67	0.838
2090.67	0.838
2099.66	0.838
2108.66	0.838
2117.66	0.838
2126.66	0.838
2135.65	0.838
2144.65	0.836
2153.65	0.8371
2162.65	0.836
2171.64	0.8335
2180.64	0.83
2189.64	0.83
2198.63	0.83
2207.63	0.83
2216.63	0.83
2225.63	0.83
2234.62	0.829
2243.62	0.829
2252.62	0.829
2261.62	0.827
2270.61	0.825
2279.61	0.816
2288.61	0.81
2297.61	0.807
2306.6	0.806
2315.6	0.808
2324.6	0.806
2333.6	0.803
2342.59	0.801
2351.59	0.798
2360.59	0.7863
2369.59	0.781
2378.58	0.783
2387.58	0.781
2396.58	0.779
2405.58	0.7715
2414.57	0.768
2423.57	0.766
2432.57	0.763
2441.57	0.7535
2450.56	0.743
2459.56	0.7329
2468.56	0.7229
2477.56	0.715
2486.55	0.7069
2495.55	0.6782
2504.55	0.6763
2513.55	0.6649
2522.54	0.6495
2531.54	0.6409
2540.54	0.6355
2549.54	0.6405
2558.53	0.645
2567.53	0.645
2576.53	0.645
2585.52	0.645
2594.52	0.645
2603.52	0.6455
2612.52	0.644
2621.51	0.64
2630.51	0.6355
2639.51	0.631
2648.51	0.627
2657.5	0.627
2666.5	0.6351
2675.5	0.6455
2684.5	0.6495
2693.49	0.6561
2702.49	0.663
2711.49	0.671
2720.49	0.672
2729.48	0.6725
2738.48	0.6705
2747.48	0.664
2756.48	0.6641
2765.47	0.6559
2774.47	0.644
2783.47	0.6309
2792.47	0.6034
2801.46	0.5914
2810.46	0.5755
2819.46	0.571
2828.46	0.572
2837.45	0.571
2846.45	0.5659
2855.45	0.5616
2864.45	0.5701
2873.44	0.573
2882.44	0.576
2891.44	0.576
2900.44	0.573
2909.43	0.5694
2918.43	0.5474
2927.43	0.56
2936.43	0.568
2945.42	0.5589
2954.42	0.5455
2963.42	0.5259
2972.41	0.5146
2981.41	0.55
2990.41	0.553
2999.41	0.555
3008.4	0.557
3017.4	0.558
3026.4	0.5611
3035.4	0.564
3044.39	0.563
3053.39	0.5665
3062.39	0.568
3071.39	0.569
3080.38	0.571
3089.38	0.5755
3098.38	0.5775
3107.38	0.5913
3116.37	0.602
3125.37	0.6165
3134.37	0.6241
3143.37	0.635
3152.36	0.636
3161.36	0.637
3170.36	0.637
3179.36	0.637
3188.35	0.637
3197.35	0.637
3206.35	0.635
3215.35	0.632
3224.34	0.6255
3233.34	0.6149
3242.34	0.6094
3251.34	0.5859
3260.33	0.5703
3269.33	0.5499
3278.33	0.5289
3287.33	0.496
3296.32	0.4573
3305.32	0.4238
3314.32	0.3701
3323.32	0.309
3332.31	0.2253
3341.31	0.201
3350.31	0.2222
3359.3	0.3185
3368.3	0.3939
3377.3	0.4567
3386.3	0.4976
3395.29	0.5242
3404.29	0.55
3413.29	0.5611
3422.29	0.567
3431.28	0.582
3440.28	0.5951
3449.28	0.6035
3458.28	0.6115
3467.27	0.613
3476.27	0.613
3485.27	0.631
3494.27	0.637
3503.26	0.6495
3512.26	0.6606
3521.26	0.6711
3530.26	0.6811
3539.25	0.6991
3548.25	0.7035
3557.25	0.722
3566.25	0.7265
3575.24	0.7405
3584.24	0.7535
3593.24	0.754
3602.24	0.7741
3611.23	0.7885
3620.23	0.8006
3629.23	0.8065
3638.23	0.8086
3647.22	0.826
3656.22	0.822
3665.22	0.8355
3674.22	0.8333
3683.21	0.8221
3692.21	0.8389
3701.21	0.844
3710.21	0.849
3719.2	0.849
3728.2	0.848
3737.2	0.8445
3746.19	0.835
3755.19	0.8355
3764.19	0.8466
3773.19	0.854
3782.18	0.853
3791.18	0.857
3800.18	0.857
3809.18	0.8544
3818.17	0.8485
3827.17	0.8549
3836.17	0.848
3845.17	0.8445
3854.16	0.844
3863.16	0.8439
3872.16	0.8358
3881.16	0.8355
3890.15	0.852
3899.15	0.852
3908.15	0.852
3917.15	0.849
3926.14	0.856
3935.14	0.854
3944.14	0.853
3953.14	0.854
3962.13	0.8535
3971.13	0.853
3980.13	0.854
3989.13	0.853
3998.12	0.8525
