Infrared Spectrum: UREA, (2-FLUOROETHYL)-
Formula: C3 H7 F N2 O
CAS: 13907-90-9
State: SOLID (1 mg / 650 mg KBr DISC)
Melting point: 84 C
Class: COBLENTZ III
Instrument: PERKIN-ELMER 221 (GRATING)
Instrument parameters: FILTER CHANGE AT 2490, 980 CM^-^1, GRATING FOR 4000-1428 CM^-^1, NaCl PRISM FOR 1428-650 CM^-^1
Sampling: TRANSMISSION
Resolution: 4
Origin: SOUTHERN RESEARCH INST.
1/CM	TRANSMITTANCE
594.015	0.518
603.231	0.515
612.447	0.525
621.663	0.53
630.879	0.516
640.096	0.538
649.312	0.621
658.528	0.694
667.744	0.732
676.96	0.745
686.176	0.748
695.392	0.784
704.608	0.824
713.824	0.854
723.04	0.88
732.257	0.898
741.473	0.909
750.689	0.91
759.905	0.888
769.121	0.896
778.337	0.951
787.553	0.958
796.769	0.943
805.985	0.864
815.202	0.732
824.418	0.882
833.634	0.951
842.85	0.954
852.066	0.917
861.282	0.8
870.498	0.673
879.714	0.937
888.93	0.959
898.146	0.958
907.363	0.945
916.579	0.933
925.795	0.923
935.011	0.904
944.227	0.873
953.443	0.837
962.659	0.797
971.875	0.737
981.091	0.409
990.308	0.742
999.524	0.77
1008.74	0.71
1017.96	0.589
1027.17	0.312
1036.39	0.335
1045.6	0.742
1054.82	0.834
1064.04	0.837
1073.25	0.82
1082.47	0.818
1091.68	0.757
1100.9	0.605
1110.12	0.592
1119.33	0.757
1128.55	0.81
1137.77	0.675
1146.98	0.517
1156.2	0.664
1165.41	0.772
1174.63	0.796
1183.85	0.809
1193.06	0.83
1202.28	0.832
1211.49	0.821
1220.71	0.792
1229.93	0.837
1239.14	0.824
1248.36	0.808
1257.57	0.707
1266.79	0.738
1276.01	0.753
1285.22	0.745
1294.44	0.707
1303.66	0.646
1312.87	0.553
1322.09	0.422
1331.3	0.356
1340.52	0.605
1349.74	0.697
1358.95	0.587
1368.17	0.487
1377.38	0.674
1386.6	0.749
1395.82	0.665
1405.03	0.562
1414.25	0.475
1423.46	0.512
1432.68	0.761
1441.9	0.821
1451.11	0.694
1460.33	0.824
1469.54	0.802
1478.76	0.782
1487.98	0.751
1497.19	0.722
1506.41	0.642
1515.63	0.533
1524.84	0.421
1534.06	0.283
1543.27	0.177
1552.49	0.088
1561.71	0.099
1570.92	0.183
1580.14	0.248
1589.35	0.164
1598.57	0.301
1607.79	0.334
1617	0.304
1626.22	0.331
1635.43	0.28
1644.65	0.214
1653.87	0.121
1663.08	0.082
1672.3	0.103
1681.52	0.197
1690.73	0.32
1699.95	0.403
1709.16	0.481
1718.38	0.538
1727.6	0.573
1736.81	0.614
1746.03	0.646
1755.24	0.671
1764.46	0.691
1773.68	0.71
1782.89	0.732
1792.11	0.743
1801.32	0.772
1810.54	0.785
1819.76	0.795
1828.97	0.808
1838.19	0.822
1847.41	0.837
1856.62	0.839
1865.84	0.837
1875.05	0.845
1884.27	0.859
1893.49	0.864
1902.7	0.863
1911.92	0.863
1921.13	0.876
1930.35	0.879
1939.57	0.891
1948.78	0.897
1958	0.897
1967.21	0.894
1976.43	0.888
1985.65	0.893
1994.86	0.9
2004.08	0.903
2013.3	0.907
2022.51	0.907
2031.73	0.905
2040.94	0.907
2050.16	0.912
2059.38	0.916
2068.59	0.915
2077.81	0.917
2087.02	0.918
2096.24	0.923
2105.46	0.922
2114.67	0.92
2123.89	0.919
2133.1	0.925
2142.32	0.917
2151.54	0.925
2160.75	0.923
2169.97	0.929
2179.19	0.929
2188.4	0.925
2197.62	0.927
2206.83	0.93
2216.05	0.931
2225.27	0.932
2234.48	0.931
2243.7	0.931
2252.91	0.932
2262.13	0.933
2271.35	0.934
2280.56	0.935
2289.78	0.935
2298.99	0.933
2308.21	0.933
2317.43	0.933
2326.64	0.934
2335.86	0.933
2345.07	0.932
2354.29	0.93
2363.51	0.929
2372.72	0.929
2381.94	0.932
2391.16	0.936
2400.37	0.937
2409.59	0.935
2418.8	0.933
2428.02	0.931
2437.24	0.931
2446.45	0.93
2455.67	0.93
2464.88	0.93
2474.1	0.931
2483.32	0.933
2492.53	0.933
2501.75	0.934
2510.96	0.936
2520.18	0.939
2529.4	0.936
2538.61	0.933
2547.83	0.933
2557.05	0.937
2566.26	0.94
2575.48	0.94
2584.69	0.937
2593.91	0.935
2603.13	0.937
2612.34	0.939
2621.56	0.939
2630.77	0.935
2639.99	0.931
2649.21	0.929
2658.42	0.928
2667.64	0.928
2676.85	0.927
2686.07	0.925
2695.29	0.923
2704.5	0.92
2713.72	0.916
2722.94	0.907
2732.15	0.904
2741.37	0.904
2750.58	0.901
2759.8	0.898
2769.02	0.898
2778.23	0.901
2787.45	0.907
2796.66	0.911
2805.88	0.912
2815.1	0.91
2824.31	0.906
2833.53	0.901
2842.74	0.893
2851.96	0.902
2861.18	0.907
2870.39	0.901
2879.61	0.88
2888.83	0.818
2898.04	0.84
2907.26	0.852
2916.47	0.841
2925.69	0.811
2934.91	0.75
2944.12	0.752
2953.34	0.747
2962.55	0.709
2971.77	0.735
2980.99	0.691
2990.2	0.64
2999.42	0.785
3008.63	0.837
3017.85	0.847
3027.07	0.847
3036.28	0.843
3045.5	0.841
3054.72	0.834
3063.93	0.822
3073.15	0.81
3082.36	0.777
3091.58	0.726
3100.8	0.671
3110.01	0.7
3119.23	0.728
3128.44	0.711
3137.66	0.687
3146.88	0.657
3156.09	0.627
3165.31	0.584
3174.52	0.534
3183.74	0.475
3192.96	0.42
3202.17	0.385
3211.39	0.372
3220.6	0.364
3229.82	0.363
3239.04	0.363
3248.25	0.372
3257.47	0.378
3266.69	0.366
3275.9	0.343
3285.12	0.298
3294.33	0.283
3303.55	0.279
3312.77	0.277
3321.98	0.269
3331.2	0.222
3340.41	0.183
3349.63	0.212
3358.85	0.26
3368.06	0.307
3377.28	0.339
3386.49	0.363
3395.71	0.376
3404.93	0.373
3414.14	0.328
3423.36	0.271
3432.58	0.21
3441.79	0.218
3451.01	0.266
3460.22	0.334
3469.44	0.379
3478.66	0.423
3487.87	0.466
3497.09	0.508
3506.3	0.541
3515.52	0.565
3524.74	0.6
3533.95	0.619
3543.17	0.633
3552.38	0.658
3561.6	0.671
3570.82	0.682
3580.03	0.692
3589.25	0.703
3598.47	0.716
3607.68	0.72
3616.9	0.731
3626.11	0.736
3635.33	0.749
3644.55	0.737
3653.76	0.754
3662.98	0.754
3672.19	0.764
3681.41	0.773
3690.63	0.777
3699.84	0.781
3709.06	0.783
3718.27	0.785
3727.49	0.787
3736.71	0.781
3745.92	0.782
3755.14	0.792
3764.36	0.796
3773.57	0.796
3782.79	0.8
3792	0.798
3801.22	0.794
3810.44	0.797
3819.65	0.797
3828.87	0.803
3838.08	0.799
3847.3	0.802
3856.52	0.786
3865.73	0.805
3874.95	0.804
3884.16	0.805
3893.38	0.807
3902.6	0.805
3911.81	0.805
3921.03	0.808
3930.25	0.81
3939.46	0.81
3948.68	0.81
3957.89	0.81
3967.11	0.81
3976.33	0.81
3985.54	0.81
3994.76	0.81
4003.97	0.81
4013.19	0.81
