Infrared Spectrum: UREA, 1,1'-o-PHENYLENEBIS[3-(2-CHLOROETHYL)-
Formula: C12 H16 Cl2 N4 O2
CAS: 13908-65-1
State: SOLID (1 mg / 650 mg KBr DISC)
Class: COBLENTZ III
Instrument: PERKIN-ELMER 21 (GRATING)
Instrument parameters: FILTERS AT 1090 CM ^-^1
Sampling: TRANSMISSION
Resolution: 4
Origin: SOUTHERN RES. INSTITUTE
1/CM	TRANSMITTANCE
621.745	0.606
630.886	0.597
640.028	0.584
649.169	0.566
658.31	0.557
667.451	0.573
676.593	0.618
685.734	0.651
694.875	0.666
704.017	0.691
713.158	0.7
722.299	0.691
731.44	0.679
740.582	0.645
749.723	0.61
758.864	0.593
768.006	0.633
777.147	0.66
786.288	0.758
795.429	0.803
804.571	0.828
813.712	0.838
822.853	0.841
831.995	0.843
841.136	0.844
850.277	0.843
859.418	0.842
868.56	0.836
877.701	0.828
886.842	0.825
895.984	0.828
905.125	0.83
914.266	0.828
923.407	0.825
932.549	0.82
941.69	0.807
950.831	0.781
959.973	0.789
969.114	0.796
978.255	0.789
987.396	0.771
996.538	0.77
1005.68	0.771
1014.82	0.768
1023.96	0.769
1033.1	0.769
1042.24	0.763
1051.39	0.761
1060.53	0.75
1069.67	0.713
1078.81	0.725
1087.95	0.744
1097.09	0.728
1106.23	0.716
1115.37	0.74
1124.52	0.753
1133.66	0.739
1142.8	0.75
1151.94	0.761
1161.08	0.758
1170.22	0.746
1179.36	0.743
1188.5	0.719
1197.65	0.675
1206.79	0.683
1215.93	0.663
1225.07	0.633
1234.21	0.588
1243.35	0.518
1252.49	0.419
1261.63	0.426
1270.78	0.449
1279.92	0.523
1289.06	0.577
1298.2	0.584
1307.34	0.537
1316.48	0.518
1325.62	0.587
1334.77	0.702
1343.91	0.722
1353.05	0.75
1362.19	0.749
1371.33	0.73
1380.47	0.7
1389.61	0.741
1398.75	0.757
1407.9	0.752
1417.04	0.739
1426.18	0.712
1435.32	0.657
1444.46	0.554
1453.6	0.563
1462.74	0.516
1471.88	0.594
1481.03	0.577
1490.17	0.523
1499.31	0.566
1508.45	0.595
1517.59	0.561
1526.73	0.514
1535.87	0.452
1545.01	0.365
1554.16	0.314
1563.3	0.301
1572.44	0.284
1581.58	0.264
1590.72	0.301
1599.86	0.323
1609	0.36
1618.14	0.39
1627.29	0.316
1636.43	0.203
1645.57	0.213
1654.71	0.261
1663.85	0.353
1672.99	0.459
1682.13	0.515
1691.28	0.559
1700.42	0.623
1709.56	0.717
1718.7	0.767
1727.84	0.8
1736.98	0.819
1746.12	0.831
1755.26	0.834
1764.41	0.839
1773.55	0.844
1782.69	0.85
1791.83	0.854
1800.97	0.857
1810.11	0.862
1819.25	0.866
1828.39	0.868
1837.54	0.869
1846.68	0.871
1855.82	0.873
1864.96	0.874
1874.1	0.874
1883.24	0.875
1892.38	0.876
1901.52	0.876
1910.67	0.874
1919.81	0.875
1928.95	0.876
1938.09	0.876
1947.23	0.876
1956.37	0.875
1965.51	0.875
1974.66	0.877
1983.8	0.877
1992.94	0.877
2002.08	0.878
2011.22	0.878
2020.36	0.878
2029.5	0.877
2038.64	0.876
2047.79	0.875
2056.93	0.874
2066.07	0.873
2075.21	0.872
2084.35	0.872
2093.49	0.872
2102.63	0.873
2111.77	0.873
2120.92	0.872
2130.06	0.872
2139.2	0.87
2148.34	0.868
2157.48	0.869
2166.62	0.872
2175.76	0.872
2184.9	0.871
2194.05	0.874
2203.19	0.876
2212.33	0.875
2221.47	0.87
2230.61	0.873
2239.75	0.875
2248.89	0.871
2258.03	0.868
2267.18	0.869
2276.32	0.869
2285.46	0.866
2294.6	0.869
2303.74	0.871
2312.88	0.867
2322.02	0.866
2331.17	0.875
2340.31	0.878
2349.45	0.879
2358.59	0.88
2367.73	0.878
2376.87	0.872
2386.01	0.871
2395.15	0.876
2404.3	0.87
2413.44	0.868
2422.58	0.864
2431.72	0.864
2440.86	0.868
2450	0.869
2459.14	0.867
2468.28	0.862
2477.43	0.862
2486.57	0.859
2495.71	0.856
2504.85	0.856
2513.99	0.857
2523.13	0.857
2532.27	0.858
2541.41	0.858
2550.56	0.856
2559.7	0.855
2568.84	0.847
2577.98	0.846
2587.12	0.847
2596.26	0.844
2605.4	0.843
2614.54	0.847
2623.69	0.848
2632.83	0.847
2641.97	0.843
2651.11	0.841
2660.25	0.838
2669.39	0.836
2678.53	0.835
2687.68	0.834
2696.82	0.831
2705.96	0.825
2715.1	0.823
2724.24	0.825
2733.38	0.828
2742.52	0.826
2751.66	0.825
2760.81	0.819
2769.95	0.813
2779.09	0.809
2788.23	0.806
2797.37	0.802
2806.51	0.799
2815.65	0.794
2824.79	0.778
2833.94	0.769
2843.08	0.774
2852.22	0.778
2861.36	0.775
2870.5	0.765
2879.64	0.76
2888.78	0.754
2897.92	0.738
2907.07	0.724
2916.21	0.719
2925.35	0.714
2934.49	0.711
2943.63	0.711
2952.77	0.726
2961.91	0.737
2971.05	0.739
2980.2	0.729
2989.34	0.728
2998.48	0.726
3007.62	0.723
3016.76	0.717
3025.9	0.709
3035.04	0.705
3044.19	0.7
3053.33	0.692
3062.47	0.689
3071.61	0.682
3080.75	0.673
3089.89	0.672
3099.03	0.671
3108.17	0.669
3117.32	0.666
3126.46	0.66
3135.6	0.651
3144.74	0.629
3153.88	0.616
3163.02	0.603
3172.16	0.578
3181.3	0.562
3190.45	0.545
3199.59	0.525
3208.73	0.496
3217.87	0.482
3227.01	0.435
3236.15	0.404
3245.29	0.375
3254.43	0.361
3263.58	0.364
3272.72	0.367
3281.86	0.371
3291	0.376
3300.14	0.378
3309.28	0.38
3318.42	0.382
3327.57	0.386
3336.71	0.391
3345.85	0.409
3354.99	0.429
3364.13	0.457
3373.27	0.482
3382.41	0.511
3391.55	0.538
3400.7	0.554
3409.84	0.563
3418.98	0.574
3428.12	0.586
3437.26	0.599
3446.4	0.611
3455.54	0.617
3464.68	0.624
3473.83	0.634
3482.97	0.638
3492.11	0.652
3501.25	0.666
3510.39	0.679
3519.53	0.694
3528.67	0.698
3537.81	0.711
3546.96	0.725
3556.1	0.735
3565.24	0.744
3574.38	0.754
3583.52	0.766
3592.66	0.781
3601.8	0.794
3610.94	0.803
3620.09	0.813
3629.23	0.818
3638.37	0.823
3647.51	0.825
3656.65	0.826
3665.79	0.828
3674.93	0.831
3684.08	0.834
3693.22	0.834
3702.36	0.838
3711.5	0.841
3720.64	0.838
3729.78	0.84
3738.92	0.844
3748.06	0.849
3757.21	0.843
3766.35	0.84
3775.49	0.838
3784.63	0.836
3793.77	0.84
3802.91	0.841
3812.05	0.84
3821.19	0.833
3830.34	0.834
3839.48	0.838
3848.62	0.841
3857.76	0.838
3866.9	0.833
3876.04	0.83
3885.18	0.829
3894.32	0.829
3903.47	0.831
3912.61	0.831
3921.75	0.83
3930.89	0.827
3940.03	0.829
3949.17	0.831
3958.31	0.832
3967.45	0.834
3976.6	0.834
3985.74	0.834
3994.88	0.834
4004.02	0.834
