Infrared Spectrum: 1-NAPHTHYLAMINE, N-(p-METHOXYBENZYLIDENE)-4-(p-METHOXYPHENYLAZO)-
Formula: C25 H21 N3 O2
CAS: 13917-06-1
State: SOLID (KBr DISC)
Class: COBLENTZ III
Instrument: UNICAM SP-200
Sampling: TRANSMISSION
Resolution: 4
Origin: HUNGARIAN ACAD. OF SCI., VIA SCI. DOC. CENTRE LTD.
1/CM	TRANSMITTANCE
651.613	0.733
662.903	0.756
674.194	0.761
685.484	0.764
696.774	0.764
708.065	0.758
719.355	0.727
730.645	0.739
741.936	0.73
753.226	0.641
764.516	0.674
775.807	0.262
787.097	0.679
798.387	0.689
809.678	0.704
820.968	0.602
832.258	0.61
843.549	0.2399
854.839	0.608
866.129	0.705
877.42	0.655
888.71	0.6261
900.001	0.6599
911.291	0.702
922.581	0.696
933.872	0.705
945.162	0.682
956.452	0.676
967.743	0.597
979.033	0.5381
990.323	0.611
1001.61	0.513
1012.9	0.502
1024.19	0.309
1035.48	0.529
1046.77	0.476
1058.07	0.633
1069.36	0.631
1080.65	0.613
1091.94	0.577
1103.23	0.392
1114.52	0.525
1125.81	0.3751
1137.1	0.359
1148.39	0.2721
1159.68	0.249
1170.97	0.409
1182.26	0.514
1193.55	0.546
1204.84	0.428
1216.13	0.388
1227.42	0.29
1238.71	0.0771
1250	0.104
1261.29	0.496
1272.58	0.626
1283.87	0.635
1295.16	0.4301
1306.45	0.352
1317.74	0.621
1329.03	0.69
1340.32	0.68
1351.61	0.67
1362.9	0.63
1374.19	0.588
1385.49	0.615
1396.78	0.574
1408.07	0.598
1419.36	0.387
1430.65	0.518
1441.94	0.451
1453.23	0.46
1464.52	0.518
1475.81	0.538
1487.1	0.466
1498.39	0.191
1509.68	0.225
1520.97	0.587
1532.26	0.603
1543.55	0.461
1554.84	0.201
1566.13	0.252
1577.42	0.3781
1588.71	0.176
1600	0.27
1611.29	0.3411
1622.58	0.683
1633.87	0.71
1645.16	0.695
1656.45	0.684
1667.74	0.679
1679.03	0.675
1690.32	0.672
1701.61	0.67
1712.91	0.671
1724.2	0.657
1735.49	0.656
1746.78	0.653
1758.07	0.653
1769.36	0.653
1780.65	0.651
1791.94	0.65
1803.23	0.644
1814.52	0.631
1825.81	0.631
1837.1	0.628
1848.39	0.622
1859.68	0.623
1870.97	0.611
1882.26	0.597
1893.55	0.604
1904.84	0.603
1916.13	0.601
1927.42	0.598
1938.71	0.594
1950	0.593
1961.29	0.587
1972.58	0.589
1983.87	0.587
1995.16	0.582
2006.45	0.572
2017.74	0.5659
2029.03	0.5611
2040.32	0.5646
2051.62	0.567
2062.91	0.567
2074.2	0.5638
2085.49	0.5637
2096.78	0.5612
2108.07	0.558
2119.36	0.558
2130.65	0.5572
2141.94	0.5546
2153.23	0.5482
2164.52	0.548
2175.81	0.549
2187.1	0.5375
2198.39	0.5339
2209.68	0.5311
2220.97	0.5329
2232.26	0.5271
2243.55	0.519
2254.84	0.5187
2266.13	0.521
2277.42	0.5237
2288.71	0.524
2300	0.5248
2311.29	0.527
2322.58	0.529
2333.87	0.5272
2345.16	0.5192
2356.45	0.5042
2367.74	0.499
2379.04	0.4965
2390.33	0.493
2401.62	0.4904
2412.91	0.487
2424.2	0.4837
2435.49	0.48
2446.78	0.478
2458.07	0.4738
2469.36	0.4703
2480.65	0.4697
2491.94	0.4662
2503.23	0.4623
2514.52	0.4533
2525.81	0.4516
2537.1	0.451
2548.39	0.449
2559.68	0.449
2570.97	0.449
2582.26	0.449
2593.55	0.448
2604.84	0.447
2616.13	0.4437
2627.42	0.439
2638.71	0.4373
2650	0.4348
2661.29	0.4322
2672.58	0.427
2683.87	0.425
2695.16	0.424
2706.46	0.422
2717.75	0.419
2729.04	0.4132
2740.33	0.4065
2751.62	0.398
2762.91	0.3829
2774.2	0.3781
2785.49	0.3846
2796.78	0.386
2808.07	0.385
2819.36	0.3776
2830.65	0.3716
2841.94	0.3678
2853.23	0.366
2864.52	0.3637
2875.81	0.362
2887.1	0.363
2898.39	0.3659
2909.68	0.37
2920.97	0.371
2932.26	0.368
2943.55	0.369
2954.84	0.369
2966.13	0.368
2977.42	0.368
2988.71	0.3701
3000	0.3723
3011.29	0.378
3022.58	0.3824
3033.87	0.384
3045.17	0.384
3056.46	0.382
3067.75	0.381
3079.04	0.379
3090.33	0.378
3101.62	0.377
3112.91	0.377
3124.2	0.376
3135.49	0.375
3146.78	0.373
3158.07	0.3729
3169.36	0.372
3180.65	0.371
3191.94	0.3703
3203.23	0.3668
3214.52	0.3667
3225.81	0.3693
3237.1	0.37
3248.39	0.3687
3259.68	0.3689
3270.97	0.3748
3282.26	0.378
3293.55	0.378
3304.84	0.376
3316.13	0.3745
3327.42	0.3729
3338.71	0.3694
3350	0.3721
3361.29	0.3736
3372.59	0.373
3383.88	0.372
3395.17	0.3708
3406.46	0.3663
3417.75	0.366
3429.04	0.3652
3440.33	0.364
3451.62	0.3621
3462.91	0.3576
3474.2	0.3551
3485.49	0.3505
3496.78	0.346
3508.07	0.3415
3519.36	0.338
3530.65	0.3353
3541.94	0.3319
3553.23	0.33
3564.52	0.332
3575.81	0.332
3587.1	0.331
3598.39	0.3308
3609.68	0.3363
3620.97	0.337
3632.26	0.3337
3643.55	0.331
3654.84	0.3296
3666.13	0.328
3677.42	0.329
3688.71	0.33
3700.01	0.3285
3711.3	0.3249
3722.59	0.3204
3733.88	0.3199
3745.17	0.318
3756.46	0.317
3767.75	0.3163
3779.04	0.315
3790.33	0.314
3801.62	0.313
3812.91	0.313
3824.2	0.3106
3835.49	0.3091
3846.78	0.308
3858.07	0.307
3869.36	0.305
3880.65	0.304
3891.94	0.303
3903.23	0.3
3914.52	0.3
3925.81	0.299
3937.1	0.298
3948.39	0.298
3959.68	0.299
3970.97	0.2993
3982.26	0.3
3993.55	0.3
4004.84	0.3
4016.13	0.2986
4027.42	0.298
4038.72	0.296
4050.01	0.296
4061.3	0.293
4072.59	0.293
4083.88	0.292
4095.17	0.2889
4106.46	0.288
4117.75	0.288
4129.04	0.288
4140.33	0.288
4151.62	0.2865
4162.91	0.285
4174.2	0.285
4185.49	0.2837
4196.78	0.283
4208.07	0.281
4219.36	0.28
4230.65	0.279
4241.94	0.279
4253.23	0.279
4264.52	0.278
4275.81	0.2774
4287.1	0.276
4298.39	0.276
4309.68	0.2758
4320.97	0.2743
4332.26	0.2738
4343.55	0.273
4354.84	0.274
4366.14	0.274
4377.43	0.274
4388.72	0.274
4400.01	0.274
4411.3	0.274
4422.59	0.2735
4433.88	0.271
4445.17	0.2695
4456.46	0.268
4467.75	0.2664
4479.04	0.265
4490.33	0.264
4501.62	0.262
4512.91	0.261
4524.2	0.259
4535.49	0.257
4546.78	0.257
4558.07	0.2578
4569.36	0.259
4580.65	0.26
4591.94	0.2596
4603.23	0.257
4614.52	0.256
4625.81	0.254
4637.1	0.254
4648.39	0.254
4659.68	0.254
4670.97	0.253
4682.26	0.252
4693.56	0.2518
4704.85	0.25
4716.14	0.249
4727.43	0.2472
4738.72	0.2467
4750.01	0.246
4761.3	0.245
4772.59	0.244
4783.88	0.2406
4795.17	0.237
4806.46	0.2395
4817.75	0.241
4829.04	0.2415
4840.33	0.242
4851.62	0.243
4862.91	0.243
4874.2	0.242
4885.49	0.24
4896.78	0.239
4908.07	0.2368
4919.36	0.236
4930.65	0.235
4941.94	0.234
