Infrared Spectrum: Benzylidene 2-fluoreneamine
Formula: C 20 H 15 N
CAS: 13924-50-0
State: gas
Origin: EPA-IR VAPOR PHASE LIBRARY
1/CM	ABSORBANCE
549.8	0.0005489
559.445	0.00024427
569.09	0.0007685
578.734	0.0006488
588.379	0.0007891
598.024	0.0011549
607.669	0.0007873
617.313	0.00023925
626.958	0.0004687
636.603	0.001378
646.248	0.002078
655.893	0.001628
665.537	0.001418
675.182	0.001918
684.827	0.003618
694.472	0.004068
704.116	0.002868
713.761	0.002858
723.406	0.007908
733.051	0.009548
742.695	0.004518
752.34	0.004208
761.985	0.006608
771.63	0.004528
781.275	0.001518
790.919	0.0009323
800.564	0.001228
810.209	0.001678
819.854	0.003038
829.498	0.002548
839.143	0.001828
848.788	0.001838
858.433	0.002048
868.078	0.002188
877.722	0.002018
887.367	0.001298
897.012	0.000852
906.657	0.000775
916.301	0.001238
925.946	0.002608
935.591	0.003728
945.236	0.002088
954.88	0.0011492
964.525	0.001238
974.17	0.0011193
983.815	0.0007851
993.46	0.0008455
1003.1	0.001928
1012.75	0.0008125
1022.39	0.001748
1032.04	0.001278
1041.68	0.0003157
1051.33	0.0006972
1060.97	0.0007614
1070.62	0.0003988
1080.26	0.0006652
1089.91	0.0008279
1099.55	0.0009302
1109.2	0.002788
1118.84	0.0010107
1128.49	0.001298
1138.13	0.0007831
1147.78	0.0008578
1157.42	0.001428
1167.07	0.002318
1176.71	0.002828
1186.36	0.002318
1196	0.003748
1205.64	0.002558
1215.29	0.001348
1224.93	0.001248
1234.58	0.001498
1244.22	0.001358
1253.87	0.001698
1263.51	0.001478
1273.16	0.003348
1282.8	0.002468
1292.45	0.002828
1302.09	0.003028
1311.74	0.002358
1321.38	0.001348
1331.03	0.0011216
1340.67	0.0007351
1350.32	0.0008403
1359.96	0.0011034
1369.61	0.0011725
1379.25	0.0009433
1388.9	0.0008684
1398.54	0.001198
1408.18	0.002068
1417.83	0.002668
1427.47	0.002348
1437.12	0.002238
1446.76	0.005748
1456.41	0.010878
1466.05	0.005248
1475.7	0.003298
1485.34	0.003118
1494.99	0.002938
1504.63	0.001218
1514.28	0.0008274
1523.92	0.00063
1533.57	0.0006845
1543.21	0.0007344
1552.86	0.0011704
1562.5	0.002088
1572.15	0.003728
1581.79	0.005278
1591.44	0.003338
1601.08	0.006998
1610.73	0.008668
1620.37	0.005338
1630.01	0.011518
1639.66	0.009278
1649.3	0.003838
1658.95	0.002598
1668.59	0.001908
1678.24	0.001518
1687.88	0.001096
1697.53	0.0008997
1707.17	0.0009179
1716.82	0.0009256
1726.46	0.0008776
1736.11	0.0009304
1745.75	0.0007752
1755.4	0.000722
1765.04	0.0006661
1774.69	0.0007545
1784.33	0.0006683
1793.98	0.0008805
1803.62	0.0010653
1813.27	0.0008857
1822.91	0.00093
1832.55	0.0006459
1842.2	0.0004979
1851.84	0.0006067
1861.49	0.0006946
1871.13	0.0008932
1880.78	0.0009792
1890.42	0.0010898
1900.07	0.0007663
1909.71	0.000592
1919.36	0.000641
1929	0.0009373
1938.65	0.001278
1948.29	0.0007756
1957.94	0.0006638
1967.58	0.0006244
1977.23	0.0004131
1986.87	0.0004465
1996.52	0.0004095
2006.16	0.0003859
2015.81	0.0003519
2025.45	0.0003417
2035.1	0.0003913
2044.74	0.0003403
2054.38	0.000391
2064.03	0.000391
2073.67	0.000412
2083.32	0.0003501
2092.96	0.0003841
2102.61	0.0003173
2112.25	0.00027819
2121.9	0.00028647
2131.54	0.00028401
2141.19	0.0003948
2150.83	0.000308
2160.48	0.0003437
2170.12	0.0003688
2179.77	0.0003248
2189.41	0.0003331
2199.06	0.00027694
2208.7	0.0003279
2218.35	0.00028873
2227.99	0.0003356
2237.64	0.0004013
2247.28	0.000333
2256.92	0.0004542
2266.57	0.0003512
2276.21	0.0003542
2285.86	0.0003784
2295.5	0.00028332
2305.15	0.0004193
2314.79	0.000496
2324.44	0.0003571
2334.08	0.0003502
2343.73	0.0004091
2353.37	0.0004031
2363.02	0.0003486
2372.66	0.0003849
2382.31	0.0003389
2391.95	0.0004178
2401.6	0.0003644
2411.24	0.0004108
2420.89	0.0004585
2430.53	0.00028695
2440.18	0.00026266
2449.82	0.0002821
2459.47	0.0003444
2469.11	0.0004364
2478.75	0.0003419
2488.4	0.0004451
2498.04	0.0003131
2507.69	0.00028052
2517.33	0.0003656
2526.98	0.0003133
2536.62	0.0003332
2546.27	0.0003088
2555.91	0.0003004
2565.56	0.0003731
2575.2	0.0004062
2584.85	0.0004221
2594.49	0.0003949
2604.14	0.0003887
2613.78	0.0004189
2623.43	0.00028288
2633.07	0.0003379
2642.72	0.0003689
2652.36	0.00028494
2662.01	0.0004162
2671.65	0.00021758
2681.29	0.0003526
2690.94	0.00024655
2700.58	0.0003593
2710.23	0.0004006
2719.87	0.0003915
2729.52	0.0003241
2739.16	0.0004135
2748.81	0.0006427
2758.45	0.0004838
2768.1	0.0003928
2777.74	0.0005734
2787.39	0.0004909
2797.03	0.0007099
2806.68	0.0008373
2816.32	0.0006994
2825.97	0.0007966
2835.61	0.0008239
2845.26	0.0011282
2854.9	0.001488
2864.55	0.002448
2874.19	0.002428
2883.84	0.001968
2893.48	0.001828
2903.12	0.002328
2912.77	0.002768
2922.41	0.002238
2932.06	0.001268
2941.7	0.0008187
2951.35	0.000616
2960.99	0.0005629
2970.64	0.0007467
2980.28	0.000843
2989.93	0.0010121
2999.57	0.001328
3009.22	0.002468
3018.86	0.003748
3028.51	0.005048
3038.15	0.005028
3047.8	0.004478
3057.44	0.005968
3067.09	0.010978
3076.73	0.008938
3086.38	0.004548
3096.02	0.003058
3105.67	0.001858
3115.31	0.0009839
3124.95	0.0006587
3134.6	0.0006689
3144.24	0.0007928
3153.89	0.0007193
3163.53	0.0005645
3173.18	0.0004221
3182.82	0.0003433
3192.47	0.0004083
3202.11	0.0004435
3211.76	0.0005356
3221.4	0.0004639
3231.05	0.0004864
3240.69	0.0004347
3250.34	0.0004092
3259.98	0.0004629
3269.63	0.0004156
3279.27	0.000408
3288.92	0.00025138
3298.56	0.0003218
3308.21	0.00028826
3317.85	0.0003409
3327.49	0.00029626
3337.14	0.0003598
3346.78	0.0003168
3356.43	0.0004222
3366.07	0.00020956
3375.72	0.0003367
3385.36	0.0004051
3395.01	0.00024383
3404.65	0.00028417
3414.3	0.0003683
3423.94	0.000203961
3433.59	0.0004032
3443.23	0.000198583
3452.88	0.0001829
3462.52	0.0003189
3472.17	0.00025838
3481.81	7.5e-05
3491.46	0.0003266
3501.1	0.000199817
3510.75	0.000201291
3520.39	0.00027775
3530.04	0.00025408
3539.68	0.0002948
3549.32	0.0005056
3558.97	0.0005135
3568.61	0.000197606
3578.26	0.00029405
3587.9	0.0003951
3597.55	0.00025131
3607.19	0.00025299
3616.84	0.0003469
3626.48	0.0003256
3636.13	0.00021739
3645.77	0.0003394
3655.42	5.7e-05
3665.06	0.0002875
3674.71	0.0005586
3684.35	0.0003625
3694	0.0004013
3703.64	0.0001769
3713.29	0.00026852
3722.93	0.0001587
3732.58	0.0004271
3742.22	0.00028702
3751.86	0.00021558
3761.51	0.0004671
3771.15	0.00043
3780.8	0.00022523
3790.44	0.00024923
3800.09	0.00018825
3809.73	0.00021985
3819.38	6.6e-05
3829.02	0.0004617
3838.67	0.0003533
3848.31	0.0002765
3857.96	0.00028867
3867.6	0.0003756
3877.25	0.00024386
3886.89	0.0003455
3896.54	0.0004274
3906.18	0.0003996
3915.83	0.0003365
3925.47	0.0002597
3935.12	0.00025593
3944.76	0.0003558
3954.41	0.0001739
3964.05	0.00020629
3973.69	0.0003405
3983.34	0.0001349
3992.98	0.0004522
