Infrared Spectrum: 1-NAPHTHALENEBORONIC ACID
Formula: C10 H9 B O2
CAS: 13922-41-3
State: SOLID (SPLIT MULL)
Class: COBLENTZ III
Instrument: BECKMAN IR-9 (GRATING)
Instrument parameters: ORDER CHANGES: 670, 1200, 2000 CM^-^1
Sampling: TRANSMISSION
Resolution: 2
Origin: DOW CHEMICAL COMPANY
1/CM	TRANSMITTANCE
403	0.6639
412	0.6628
421	0.6689
430	0.6921
439	0.7215
448	0.5857
457	0.7195
466	0.7534
475	0.7388
484	0.7547
493	0.7648
502	0.6138
511	0.8193
520	0.8511
529	0.8775
538	0.8978
547	0.8994
556	0.8397
565	0.9194
574	0.9274
583	0.9292
592	0.925
601	0.8545
610	0.9012
619	0.8447
628	0.9258
637	0.9409
646	0.9506
655	0.9584
664	0.9605
673	0.7965
682	0.9524
691	0.8125
700	0.8842
709	0.8987
718	0.814
727	0.7204
736	0.7348
745	0.5849
754	0.6517
763	0.5308
772	0.491
781	0.0654
790	0.7225
799	0.4994
808	0.3371
817	0.63
826	0.6937
835	0.6958
844	0.7824
853	0.8481
862	0.8871
871	0.9042
880	0.9206
889	0.9344
898	0.9335
907	0.9328
916	0.933
925	0.8475
934	0.9206
943	0.9165
952	0.9021
961	0.8599
970	0.8358
979	0.4909
988	0.8417
997	0.869
1006	0.8475
1015	0.7874
1024	0.61
1033	0.7294
1042	0.6797
1051	0.5923
1060	0.3395
1069	0.4733
1078	0.3191
1087	0.2797
1096	0.365
1105	0.4562
1114	0.4568
1123	0.2778
1132	0.3729
1141	0.5465
1150	0.5848
1159	0.5529
1168	0.3466
1177	0.3566
1186	0.5817
1195	0.6765
1204	0.7088
1213	0.6426
1222	0.7231
1231	0.502
1240	0.6535
1249	0.7287
1258	0.6439
1267	0.6325
1276	0.7798
1285	0.7696
1294	0.7256
1303	0.6387
1312	0.4278
1321	0.2163
1330	0.4248
1339	0.0643
1348	0.0285
1357	0.0522
1366	0.1862
1375	0.2474
1384	0.476
1393	0.4685
1402	0.426
1411	0.4899
1420	0.5554
1429	0.7001
1438	0.597
1447	0.7538
1456	0.7795
1465	0.6906
1474	0.8925
1483	0.9194
1492	0.9368
1501	0.9215
1510	0.5473
1519	0.9054
1528	0.9318
1537	0.9401
1546	0.9447
1555	0.94
1564	0.9275
1573	0.7411
1582	0.8771
1591	0.9125
1600	0.9467
1609	0.9551
1618	0.9178
1627	0.9424
1636	0.9535
1645	0.9524
1654	0.9475
1663	0.9436
1672	0.9407
1681	0.9395
1690	0.9391
1699	0.9387
1708	0.9404
1717	0.9421
1726	0.9386
1735	0.9325
1744	0.9353
1753	0.941
1762	0.9434
1771	0.9418
1780	0.9367
1789	0.928
1798	0.9271
1807	0.9289
1816	0.926
1825	0.9177
1834	0.9178
1843	0.8975
1852	0.9015
1861	0.9196
1870	0.9204
1879	0.917
1888	0.9143
1897	0.9123
1906	0.9073
1915	0.9087
1924	0.9101
1933	0.901
1942	0.8999
1951	0.8821
1960	0.8755
1969	0.9016
1978	0.9092
1987	0.9099
1996	0.9074
2005	0.9082
2014	0.9103
2023	0.9082
2032	0.9047
2041	0.8993
2050	0.8934
2059	0.8874
2068	0.8821
2077	0.8782
2086	0.8742
2095	0.8697
2104	0.8649
2113	0.8591
2122	0.8534
2131	0.848
2140	0.8425
2149	0.8362
2158	0.8297
2167	0.824
2176	0.8188
2185	0.8142
2194	0.814
2203	0.8147
2212	0.8147
2221	0.8126
2230	0.8061
2239	0.7971
2248	0.7882
2257	0.7786
2266	0.7711
2275	0.7647
2284	0.7594
2293	0.7553
2302	0.7515
2311	0.7486
2320	0.7469
2329	0.7482
2338	0.7501
2347	0.7528
2356	0.7565
2365	0.7607
2374	0.7642
2383	0.7607
2392	0.7499
2401	0.7365
2410	0.7286
2419	0.7276
2428	0.7289
2437	0.7264
2446	0.7298
2455	0.7321
2464	0.7288
2473	0.7268
2482	0.7278
2491	0.7303
2500	0.7333
2509	0.7364
2518	0.7381
2527	0.7387
2536	0.7372
2545	0.7357
2554	0.7345
2563	0.7332
2572	0.7318
2581	0.7297
2590	0.7282
2599	0.7269
2608	0.7256
2617	0.7234
2626	0.7222
2635	0.7211
2644	0.7182
2653	0.714
2662	0.7108
2671	0.7096
2680	0.7081
2689	0.7055
2698	0.703
2707	0.7005
2716	0.6978
2725	0.6948
2734	0.6918
2743	0.6887
2752	0.6855
2761	0.6821
2770	0.679
2779	0.6757
2788	0.6725
2797	0.6693
2806	0.6662
2815	0.6633
2824	0.6604
2833	0.6568
2842	0.653
2851	0.649
2860	0.645
2869	0.64
2878	0.6347
2887	0.6294
2896	0.6241
2905	0.6183
2914	0.6117
2923	0.6031
2932	0.5939
2941	0.5871
2950	0.582
2959	0.5764
2968	0.5671
2977	0.5573
2986	0.5479
2995	0.536
3004	0.5232
3013	0.5106
3022	0.5029
3031	0.4708
3040	0.4414
3049	0.419
3058	0.4142
3067	0.4276
3076	0.4472
3085	0.4273
3094	0.4105
3103	0.4007
3112	0.378
3121	0.356
3130	0.3349
3139	0.3151
3148	0.2969
3157	0.2791
3166	0.2591
3175	0.2425
3184	0.2275
3193	0.2134
3202	0.201
3211	0.1899
3220	0.18
3229	0.1708
3238	0.1627
3247	0.156
3256	0.1507
3265	0.1473
3274	0.1456
3283	0.1456
3292	0.1481
3301	0.1509
3310	0.1553
3319	0.1646
3328	0.1801
3337	0.1994
3346	0.2271
3355	0.2582
3364	0.2893
3373	0.3237
3382	0.3596
3391	0.4147
3400	0.459
3409	0.4856
3418	0.5086
3427	0.5333
3436	0.5568
3445	0.5739
3454	0.5908
3463	0.6058
3472	0.6208
3481	0.6342
3490	0.6458
3499	0.6561
3508	0.6642
3517	0.6699
3526	0.6747
3535	0.6792
3544	0.6826
3553	0.684
3562	0.6842
3571	0.6825
3580	0.6783
3589	0.6699
3598	0.6708
3607	0.6732
3616	0.6668
3625	0.6722
3634	0.6707
3643	0.6675
3652	0.6648
3661	0.6619
3670	0.6596
3679	0.6571
3688	0.6549
3697	0.6525
3706	0.6501
3715	0.6475
3724	0.6449
3733	0.6419
3742	0.6391
3751	0.636
3760	0.6324
3769	0.6283
3778	0.626
3787	0.6231
3796	0.62
