Infrared Spectrum: 2-Ethylpyrazine
Formula: C 6 H 8 N 2
CAS: 13925-00-3
State: gas
Instrument: HP-GC/MS/IRD
Origin: NIST Mass Spectrometry Data Center
1/CM	ABSORBANCE
550	0.0004324
562	0.0002484
574	0.000276
586	0.0003818
598	0.0002507
610	4.6e-06
622	0.0001495
634	0.0004761
646	0.0004232
658	0.0003473
670	0.0002691
682	9.43e-05
694	8.28e-05
706	0.0002208
718	0.0004186
730	0.0007406
742	0.0012328
754	0.0016353
766	0.0018446
778	0.0016583
790	0.0015456
802	0.001702
814	0.0025852
826	0.0049312
838	0.0078821
850	0.0070357
862	0.0037996
874	0.0013409
886	0.0006739
898	0.0005198
910	0.0005106
922	0.0006095
934	0.0005842
946	0.0007774
958	0.0013524
970	0.002139
982	0.0027439
994	0.0052417
1006	0.012742
1018	0.01334
1030	0.0089562
1042	0.0075877
1054	0.0083467
1066	0.0073025
1078	0.0044068
1090	0.0024633
1102	0.0020378
1114	0.0024035
1126	0.0043286
1138	0.0089884
1150	0.0117277
1162	0.0086503
1174	0.0047932
1186	0.0033097
1198	0.0019527
1210	0.001863
1222	0.0041538
1234	0.004922
1246	0.0027784
1258	0.0011155
1270	0.0009821
1282	0.0013018
1294	0.0023782
1306	0.0028796
1318	0.0022977
1330	0.001679
1342	0.0015916
1354	0.0017296
1366	0.0025415
1378	0.0046345
1390	0.011454
1402	0.0178618
1414	0.0147246
1426	0.0056281
1438	0.0044183
1450	0.0054556
1462	0.0093196
1474	0.011293
1486	0.0074198
1498	0.0025829
1510	0.0031717
1522	0.005244
1534	0.0048553
1546	0.0020194
1558	0.0018515
1570	0.0029578
1582	0.0026519
1594	0.0010281
1606	0.000506
1618	0.0004715
1630	0.0003841
1642	0.0004025
1654	0.000598
1666	0.0004439
1678	0.0005336
1690	0.0005221
1702	0.0005037
1714	0.0004439
1726	0.0003588
1738	0.0004531
1750	0.0005336
1762	0.0006003
1774	0.0007475
1786	0.0007061
1798	0.0006647
1810	0.0005497
1822	0.0003197
1834	0.0002921
1846	0.0004002
1858	0.0004071
1870	0.0004738
1882	0.0004048
1894	0.0004186
1906	0.0005773
1918	0.0009361
1930	0.0008579
1942	0.0004531
1954	0.0001518
1966	0.0001196
1978	8.05e-05
1990	0.0001035
2002	7.59e-05
2014	9.89e-05
2026	0.0001265
2038	0.0001472
2050	0.0001012
2062	0.0001173
2074	0.0001219
2086	9.66e-05
2098	8.74e-05
2110	7.36e-05
2122	3.91e-05
2134	0
2146	9.2e-06
2158	2.76e-05
2170	4.14e-05
2182	3.45e-05
2194	0.0001012
2206	0.0001196
2218	0.0001495
2230	0.0001081
2242	9.66e-05
2254	4.83e-05
2266	1.61e-05
2278	4.6e-06
2290	6.9e-05
2302	7.36e-05
2314	0.0001472
2326	0.000299
2338	0.0003795
2350	0.0002944
2362	0.0005152
2374	0.0002599
2386	0.0001127
2398	3.22e-05
2410	7.82e-05
2422	8.28e-05
2434	8.05e-05
2446	7.59e-05
2458	3.22e-05
2470	7.59e-05
2482	5.06e-05
2494	9.66e-05
2506	9.66e-05
2518	4.37e-05
2530	4.6e-05
2542	7.13e-05
2554	6.21e-05
2566	4.37e-05
2578	7.82e-05
2590	0.0001012
2602	0.0001242
2614	0.0001633
2626	0.0001909
2638	0.0001656
2650	0.0002024
2662	0.000207
2674	0.0002208
2686	0.0002208
2698	0.0002208
2710	0.0002622
2722	0.0003404
2734	0.0003795
2746	0.0004876
2758	0.0004968
2770	0.0005359
2782	0.000621
2794	0.0006302
2806	0.0007314
2818	0.0009177
2830	0.0012558
2842	0.0017756
2854	0.0026128
2866	0.0038479
2878	0.0057684
2890	0.0077763
2902	0.0084571
2914	0.0082409
2926	0.0092046
2938	0.013409
2950	0.0155135
2962	0.0165301
2974	0.0216775
2986	0.021896
2998	0.0147729
3010	0.0099682
3022	0.0078269
3034	0.0076705
3046	0.0127857
3058	0.0181378
3070	0.0163438
3082	0.0082409
3094	0.0030843
3106	0.0016928
3118	0.001127
3130	0.0007981
3142	0.0006486
3154	0.0005957
3166	0.0005497
3178	0.0005244
3190	0.0005175
3202	0.0003795
3214	0.0002898
3226	0.0002139
3238	0.0001932
3250	0.0001794
3262	0.0001771
3274	0.0001127
3286	5.29e-05
3298	3.68e-05
3310	0.0001449
3322	0.0001127
3334	8.97e-05
3346	7.59e-05
3358	9.66e-05
3370	5.75e-05
3382	9.66e-05
3394	3.22e-05
3406	3.68e-05
3418	4.6e-05
3430	8.74e-05
3442	8.05e-05
3454	6.67e-05
3466	8.74e-05
3478	9.2e-05
3490	8.28e-05
3502	1.61e-05
3514	2.3e-06
3526	4.6e-05
3538	4.83e-05
3550	9.2e-05
3562	0.000115
3574	6.44e-05
3586	7.13e-05
3598	4.83e-05
3610	7.82e-05
3622	8.51e-05
3634	9.2e-06
3646	0.0001886
3658	5.98e-05
3670	0.0001564
3682	0.0001081
3694	4.6e-05
3706	8.97e-05
3718	5.75e-05
3730	0.0001311
3742	0.0001909
3754	0.0002024
3766	6.67e-05
3778	5.98e-05
3790	7.59e-05
3802	0.0002162
3814	0.0001955
3826	0.0001288
3838	0.0001955
