Infrared Spectrum: BENZOIC ACID, 4-ISOPROPYL PHENYL ESTER
Formula: C16 H16 O2
CAS: 13936-99-7
State: SOLUTION (10% IN CCl4 FOR 5000-1350 CM^-^1, 10% IN CS2 FOR 1350-625 CM^-^1)
Class: COBLENTZ
Instrument: Not specified, most likely a prism, grating, or hybrid spectrometer.
Sampling: TRANSMISSION
Path length: 0.01 CM, 0.01 CM
Resolution: 4
Origin: DOW CHEMICAL COMPANY
MICROMETERS	TRANSMITTANCE
2.041	0.844
2.08016	0.844
2.11931	0.847
2.15847	0.853
2.19762	0.862
2.23678	0.86
2.27593	0.853
2.31509	0.857
2.35425	0.863
2.3934	0.863
2.43256	0.857
2.47171	0.87
2.51087	0.871
2.55002	0.873
2.58918	0.873
2.62834	0.876
2.66749	0.876
2.70665	0.871
2.7458	0.873
2.78496	0.863
2.82411	0.868
2.86327	0.853
2.90243	0.855
2.94158	0.862
2.98074	0.858
3.01989	0.865
3.05905	0.862
3.0982	0.857
3.13736	0.842
3.17652	0.839
3.21567	0.792
3.25483	0.707
3.29398	0.672
3.33314	0.68
3.37229	0.384
3.41145	0.534
3.45061	0.589
3.48976	0.761
3.52892	0.866
3.56807	0.878
3.60723	0.884
3.64638	0.889
3.68554	0.897
3.7247	0.913
3.76385	0.923
3.80301	0.92
3.84216	0.909
3.88132	0.912
3.92047	0.925
3.95963	0.93
3.99879	0.93
4.03794	0.93
4.0771	0.928
4.11625	0.926
4.15541	0.923
4.19456	0.917
4.23372	0.894
4.27288	0.878
4.31203	0.902
4.35119	0.904
4.39034	0.918
4.4295	0.931
4.46865	0.939
4.50781	0.944
4.54697	0.943
4.58612	0.941
4.62528	0.935
4.66443	0.93
4.70359	0.926
4.74274	0.933
4.7819	0.931
4.82106	0.923
4.86021	0.925
4.89937	0.922
4.93852	0.922
4.97768	0.92
5.01683	0.913
5.05599	0.897
5.09515	0.892
5.1343	0.923
5.17346	0.891
5.21261	0.873
5.25177	0.863
5.29093	0.852
5.33008	0.902
5.36924	0.926
5.40839	0.91
5.44755	0.873
5.4867	0.845
5.52586	0.875
5.56502	0.847
5.60417	0.792
5.64333	0.673
5.68248	0.438
5.72164	0.142
5.76079	0.102
5.79995	0.371
5.83911	0.649
5.87826	0.751
5.91742	0.819
5.95657	0.853
5.99573	0.87
6.03488	0.852
6.07404	0.829
6.1132	0.827
6.15235	0.787
6.19151	0.641
6.23066	0.483
6.26982	0.542
6.30897	0.561
6.34813	0.569
6.38729	0.521
6.42644	0.457
6.4656	0.464
6.50475	0.519
6.54391	0.54
6.58306	0.402
6.62222	0.258
6.66138	0.402
6.70053	0.605
6.73969	0.672
6.77884	0.607
6.818	0.527
6.85715	0.412
6.89631	0.766
6.93547	0.81
6.97462	0.782
7.01378	0.732
7.05293	0.797
7.09209	0.816
7.13124	0.798
7.1704	0.717
7.20956	0.706
7.24871	0.771
7.28787	0.68
7.32702	0.769
7.36618	0.785
7.40533	0.756
7.44449	0.743
7.48365	0.761
7.5228	0.699
7.56196	0.558
7.60111	0.543
7.64027	0.594
7.67942	0.571
7.71858	0.493
7.75774	0.342
7.79689	0.253
7.83605	0.149
7.8752	0.022
7.91436	0.012
7.95351	0.051
7.99267	0.081
8.03183	0.137
8.07098	0.324
8.11014	0.353
8.14929	0.376
8.18845	0.277
8.2276	0.063
8.26676	0.038
8.30592	0.016
8.34507	0.089
8.38423	0.386
8.42338	0.422
8.46254	0.193
8.50169	0.11
8.54085	0.094
8.58001	0.29
8.61916	0.553
8.65832	0.707
8.69747	0.741
8.73663	0.772
8.77578	0.816
8.81494	0.834
8.8541	0.831
8.89325	0.824
8.93241	0.801
8.97156	0.758
9.01072	0.709
9.04987	0.662
9.08903	0.594
9.12819	0.592
9.16734	0.573
9.2065	0.378
9.24565	0.129
9.28481	0.168
9.32396	0.378
9.36312	0.238
9.40228	0.05
9.44143	0.11
9.48059	0.094
9.51974	0.306
9.5589	0.699
9.59805	0.782
9.63721	0.782
9.67637	0.675
9.71552	0.387
9.75468	0.183
9.79383	0.308
9.83299	0.397
9.87214	0.756
9.9113	0.814
9.95046	0.79
9.98961	0.868
10.0288	0.904
10.0679	0.909
10.1071	0.925
10.1462	0.925
10.1854	0.926
10.2245	0.922
10.2637	0.922
10.3029	0.926
10.342	0.931
10.3812	0.931
10.4203	0.925
10.4595	0.923
10.4986	0.922
10.5378	0.925
10.5769	0.902
10.6161	0.844
10.6553	0.78
10.6944	0.78
10.7336	0.862
10.7727	0.871
10.8119	0.862
10.851	0.858
10.8902	0.876
10.9293	0.887
10.9685	0.891
11.0077	0.884
11.0468	0.875
11.086	0.862
11.1251	0.836
11.1643	0.8
11.2034	0.753
11.2426	0.724
11.2818	0.67
11.3209	0.576
11.3601	0.433
11.3992	0.326
11.4384	0.29
11.4775	0.386
11.5167	0.478
11.5558	0.543
11.595	0.579
11.6342	0.6
11.6733	0.613
11.7125	0.628
11.7516	0.647
11.7908	0.665
11.8299	0.689
11.8691	0.688
11.9082	0.668
11.9474	0.642
11.9866	0.623
12.0257	0.628
12.0649	0.626
12.104	0.612
12.1432	0.581
12.1823	0.543
12.2215	0.511
12.2606	0.464
12.2998	0.4
12.339	0.383
12.3781	0.457
12.4173	0.555
12.4564	0.6
12.4956	0.605
12.5347	0.613
12.5739	0.704
12.613	0.748
12.6522	0.764
12.6914	0.78
12.7305	0.792
12.7697	0.803
12.8088	0.813
12.848	0.821
12.8871	0.823
12.9263	0.829
12.9654	0.831
13.0046	0.834
13.0438	0.834
13.0829	0.832
13.1221	0.831
13.1612	0.831
13.2004	0.826
13.2395	0.823
13.2787	0.821
13.3178	0.818
13.357	0.814
13.3962	0.808
13.4353	0.8
13.4745	0.792
13.5136	0.775
13.5528	0.761
13.5919	0.74
13.6311	0.722
13.6702	0.714
13.7094	0.701
13.7486	0.68
13.7877	0.66
13.8269	0.612
13.866	0.563
13.9052	0.498
13.9443	0.413
13.9835	0.331
14.0227	0.212
14.0618	0.123
14.101	0.035
14.1401	0
14.1793	0
14.2184	0.038
14.2576	0.126
14.2967	0.251
14.3359	0.37
14.3751	0.457
14.4142	0.508
14.4534	0.532
14.4925	0.537
14.5317	0.522
14.5708	0.509
14.61	0.514
14.6491	0.542
14.6883	0.571
14.7275	0.581
14.7666	0.581
14.8058	0.569
14.8449	0.555
14.8841	0.53
14.9232	0.483
14.9624	0.444
15.0015	0.431
15.0407	0.448
15.0799	0.472
15.119	0.493
15.1582	0.508
15.1973	0.512
15.2365	0.511
15.2756	0.508
15.3148	0.506
15.3539	0.509
15.3931	0.508
15.4323	0.503
15.4714	0.5
15.5106	0.491
15.5497	0.487
15.5889	0.478
15.628	0.47
15.6672	0.464
15.7063	0.457
15.7455	0.452
15.7847	0.446
15.8238	0.441
15.863	0.439
