Infrared Spectrum: 3,5-Dibromo-4-methylphenol
Formula: C 7 H 6 Br 2 O
CAS: 13979-81-2
State: gas
Origin: EPA-IR VAPOR PHASE LIBRARY
1/CM	ABSORBANCE
549.8	0.001441
559.445	0.001951
569.09	0.003151
578.734	0.003861
588.379	0.002571
598.024	0.001321
607.669	0.000317
617.313	0.0005853
626.958	0.0009527
636.603	0.0006877
646.248	0.0009741
655.893	0.001078
665.537	0.001911
675.182	0.004611
684.827	0.004871
694.472	0.002201
704.116	0.001651
713.761	0.001811
723.406	0.004271
733.051	0.023561
742.695	0.051151
752.34	0.013621
761.985	0.005801
771.63	0.002221
781.275	0.001441
790.919	0.001381
800.564	0.0010223
810.209	0.0010525
819.854	0.002991
829.498	0.009671
839.143	0.012101
848.788	0.009651
858.433	0.012831
868.078	0.007971
877.722	0.003901
887.367	0.003311
897.012	0.006381
906.657	0.022861
916.301	0.042651
925.946	0.018621
935.591	0.003651
945.236	0.003131
954.88	0.004271
964.525	0.006461
974.17	0.011011
983.815	0.016081
993.46	0.013601
1003.1	0.008131
1012.75	0.006381
1022.39	0.004881
1032.04	0.006181
1041.68	0.013001
1051.33	0.013451
1060.97	0.006231
1070.62	0.004081
1080.26	0.002751
1089.91	0.002681
1099.55	0.002621
1109.2	0.003431
1118.84	0.004401
1128.49	0.007951
1138.13	0.009641
1147.78	0.009401
1157.42	0.020321
1167.07	0.039691
1176.71	0.036821
1186.36	0.032851
1196	0.027511
1205.64	0.034061
1215.29	0.043271
1224.93	0.019191
1234.58	0.010861
1244.22	0.014251
1253.87	0.025901
1263.51	0.029281
1273.16	0.018221
1282.8	0.009991
1292.45	0.003371
1302.09	0.002361
1311.74	0.002201
1321.38	0.002111
1331.03	0.002071
1340.67	0.002341
1350.32	0.003041
1359.96	0.004731
1369.61	0.007901
1379.25	0.009911
1388.9	0.015431
1398.54	0.026541
1408.18	0.029671
1417.83	0.026361
1427.47	0.019111
1437.12	0.012351
1446.76	0.020481
1456.41	0.045831
1466.05	0.047941
1475.7	0.018361
1485.34	0.009011
1494.99	0.006231
1504.63	0.004911
1514.28	0.004761
1523.92	0.005491
1533.57	0.008221
1543.21	0.014731
1552.86	0.030941
1562.5	0.054781
1572.15	0.043971
1581.79	0.031741
1591.44	0.059321
1601.08	0.064091
1610.73	0.030541
1620.37	0.013291
1630.01	0.006241
1639.66	0.003551
1649.3	0.003691
1658.95	0.004631
1668.59	0.003891
1678.24	0.002231
1687.88	0.001811
1697.53	0.001811
1707.17	0.002081
1716.82	0.002621
1726.46	0.001581
1736.11	0.0010147
1745.75	0.0008194
1755.4	0.0006089
1765.04	0.0004337
1774.69	0.0005668
1784.33	0.0004272
1793.98	0.0004585
1803.62	0.0004641
1813.27	0.0003464
1822.91	0.0003983
1832.55	0.0004133
1842.2	0.0003185
1851.84	0.0003706
1861.49	0.0004734
1871.13	0.0004083
1880.78	0.0003636
1890.42	0.0002602
1900.07	0.00024695
1909.71	0.0003011
1919.36	0.0003291
1929	0.0003105
1938.65	0.000393
1948.29	0.0003649
1957.94	0.0004639
1967.58	0.0004683
1977.23	0.0003742
1986.87	0.0003966
1996.52	0.0004007
2006.16	0.0006336
2015.81	0.0006517
2025.45	0.0004704
2035.1	0.0004595
2044.74	0.0003206
2054.38	0.0003587
2064.03	0.0004516
2073.67	0.0004086
2083.32	0.0005292
2092.96	0.0004942
2102.61	0.0004564
2112.25	0.0004108
2121.9	0.0004161
2131.54	0.0004762
2141.19	0.0003914
2150.83	0.0004459
2160.48	0.0006168
2170.12	0.0008153
2179.77	0.0007853
2189.41	0.0004371
2199.06	0.0002205
2208.7	0.0001297
2218.35	0.00016642
2227.99	0.0003099
2237.64	0.0003112
2247.28	0.0003186
2256.92	0.0002625
2266.57	0.00021609
2276.21	0.0002671
2285.86	0.0002921
2295.5	0.0003677
2305.15	0.0005795
2314.79	0.0004511
2324.44	0.0005229
2334.08	0.000476
2343.73	0.0005302
2353.37	0.0006416
2363.02	0.000732
2372.66	0.0007517
2382.31	0.0007302
2391.95	0.0005569
2401.6	0.0005227
2411.24	0.00066
2420.89	0.0008801
2430.53	0.001211
2440.18	0.0011076
2449.82	0.0009191
2459.47	0.0008848
2469.11	0.0009067
2478.75	0.0009118
2488.4	0.0007849
2498.04	0.0006461
2507.69	0.0008079
2517.33	0.000858
2526.98	0.0005982
2536.62	0.0003367
2546.27	0.0004022
2555.91	0.00023954
2565.56	0.0003929
2575.2	0.0003652
2584.85	0.0004293
2594.49	0.0004873
2604.14	0.0005523
2613.78	0.0005885
2623.43	0.0005002
2633.07	0.0005394
2642.72	0.0003819
2652.36	0.0004906
2662.01	0.0004613
2671.65	0.0005847
2681.29	0.0006608
2690.94	0.0004434
2700.58	0.0005451
2710.23	0.0006752
2719.87	0.0006283
2729.52	0.0007578
2739.16	0.0005989
2748.81	0.0006312
2758.45	0.0005779
2768.1	0.0004326
2777.74	0.0002707
2787.39	0.0003169
2797.03	0.0003479
2806.68	0.0005729
2816.32	0.000516
2825.97	0.0005728
2835.61	0.0007984
2845.26	0.0008994
2854.9	0.0011203
2864.55	0.001541
2874.19	0.001791
2883.84	0.001491
2893.48	0.001351
2903.12	0.001421
2912.77	0.001731
2922.41	0.002991
2932.06	0.004521
2941.7	0.005621
2951.35	0.004541
2960.99	0.002891
2970.64	0.001841
2980.28	0.001311
2989.93	0.001301
2999.57	0.001191
3009.22	0.001231
3018.86	0.001361
3028.51	0.001921
3038.15	0.002231
3047.8	0.002191
3057.44	0.002311
3067.09	0.002271
3076.73	0.001761
3086.38	0.0011353
3096.02	0.0008824
3105.67	0.0006476
3115.31	0.0005738
3124.95	0.0005045
3134.6	0.0003431
3144.24	0.0004169
3153.89	0.00024045
3163.53	0.00019036
3173.18	0.0002761
3182.82	0.00023417
3192.47	0.00014442
3202.11	0.0002849
3211.76	0.000285
3221.4	0.00017794
3231.05	0.0002682
3240.69	0.0001167
3250.34	0.0001678
3259.98	0.0003492
3269.63	0.00020617
3279.27	1.7e-05
3288.92	0.00022547
3298.56	0.00025069
3308.21	0.000107
3317.85	0.00019108
3327.49	0.00020513
3337.14	0.0004661
3346.78	0.0005732
3356.43	0.0008245
3366.07	0.0006673
3375.72	0.0007864
3385.36	0.0006935
3395.01	0.0005772
3404.65	0.000546
3414.3	0.0006607
3423.94	0.0005061
3433.59	0.0005686
3443.23	0.0003862
3452.88	9.39e-05
3462.52	0.0002588
3472.17	0.0003941
3481.81	0.0002955
3491.46	0.0004944
3501.1	0.0003716
3510.75	0.0003386
3520.39	0.00022624
3530.04	0.00020105
3539.68	0.00017715
3549.32	0.0002796
3558.97	0.0003809
3568.61	0.0003582
3578.26	0.0002704
3587.9	0.0003477
3597.55	0.0007385
3607.19	0.0007924
3616.84	0.001621
3626.48	0.003731
3636.13	0.013781
3645.77	0.046241
3655.42	0.043181
3665.06	0.005911
3674.71	0.0011457
3684.35	0.0007858
3694	0.00021541
3703.64	0.0003951
3713.29	0.0002691
3722.93	0.0001371
3732.58	0.0002635
3742.22	3.7e-05
3751.86	0.00021513
3761.51	0.0004216
3771.15	0.0002634
3780.8	0.0002623
3790.44	0.00024866
3800.09	0.000471
3809.73	0.000657
3819.38	0.0006433
3829.02	0.0006455
3838.67	0.0005693
3848.31	0.0005045
3857.96	0.0006462
3867.6	0.0005539
3877.25	0.0004387
3886.89	0.0003238
3896.54	0.00021822
3906.18	0.0003646
3915.83	0.0004485
3925.47	0.0003425
3935.12	0.0003725
3944.76	0.0005694
3954.41	0.00017468
3964.05	0.0003087
3973.69	0.0003477
3983.34	8.04e-05
3992.98	0.00018881
