Infrared Spectrum: 3-Benzyloxyphenyl isothiocyanate
Formula: C 14 H 11 N O S
CAS: 139768-71-1
State: gas
Origin: EPA-IR VAPOR PHASE LIBRARY
1/CM	ABSORBANCE
549.8	0.025095
559.445	0.022315
569.09	0.018185
578.734	0.014005
588.379	0.011875
598.024	0.009615
607.669	0.009155
617.313	0.009905
626.958	0.011485
636.603	0.009825
646.248	0.008745
655.893	0.009275
665.537	0.016375
675.182	0.037365
684.827	0.047005
694.472	0.047525
704.116	0.032565
713.761	0.023705
723.406	0.027585
733.051	0.038635
742.695	0.031995
752.34	0.025495
761.985	0.032475
771.63	0.045115
781.275	0.032945
790.919	0.019035
800.564	0.027535
810.209	0.046325
819.854	0.053225
829.498	0.035635
839.143	0.038745
848.788	0.042865
858.433	0.038235
868.078	0.029565
877.722	0.016985
887.367	0.012785
897.012	0.015155
906.657	0.019395
916.301	0.015985
925.946	0.012315
935.591	0.010645
945.236	0.012205
954.88	0.018185
964.525	0.033365
974.17	0.043305
983.815	0.029785
993.46	0.029385
1003.1	0.034175
1012.75	0.046165
1022.39	0.074165
1032.04	0.067755
1041.68	0.054975
1051.33	0.030625
1060.97	0.016525
1070.62	0.016975
1080.26	0.018035
1089.91	0.011305
1099.55	0.007165
1109.2	0.006585
1118.84	0.006655
1128.49	0.008795
1138.13	0.018335
1147.78	0.073735
1157.42	0.105645
1167.07	0.069615
1176.71	0.141255
1186.36	0.081655
1196	0.038995
1205.64	0.032515
1215.29	0.023225
1224.93	0.015425
1234.58	0.014425
1244.22	0.022115
1253.87	0.045315
1263.51	0.072485
1273.16	0.084315
1282.8	0.119625
1292.45	0.093205
1302.09	0.061865
1311.74	0.050915
1321.38	0.032635
1331.03	0.026775
1340.67	0.016925
1350.32	0.012085
1359.96	0.014535
1369.61	0.025975
1379.25	0.033345
1388.9	0.016335
1398.54	0.009305
1408.18	0.009515
1417.83	0.011055
1427.47	0.019615
1437.12	0.036335
1446.76	0.038985
1456.41	0.044965
1466.05	0.058575
1475.7	0.076915
1485.34	0.142555
1494.99	0.073275
1504.63	0.027975
1514.28	0.015715
1523.92	0.015385
1533.57	0.016765
1543.21	0.021235
1552.86	0.030595
1562.5	0.044015
1572.15	0.086345
1581.79	0.178025
1591.44	0.262835
1601.08	0.229585
1610.73	0.100335
1620.37	0.041505
1630.01	0.022935
1639.66	0.014175
1649.3	0.009945
1658.95	0.007915
1668.59	0.006985
1678.24	0.006495
1687.88	0.005925
1697.53	0.005645
1707.17	0.005665
1716.82	0.005945
1726.46	0.006175
1736.11	0.006275
1745.75	0.006205
1755.4	0.005885
1765.04	0.005305
1774.69	0.005255
1784.33	0.005765
1793.98	0.007385
1803.62	0.007705
1813.27	0.007045
1822.91	0.007075
1832.55	0.007285
1842.2	0.007415
1851.84	0.006885
1861.49	0.007165
1871.13	0.007585
1880.78	0.008525
1890.42	0.009405
1900.07	0.011725
1909.71	0.016335
1919.36	0.023115
1929	0.030965
1938.65	0.043005
1948.29	0.059445
1957.94	0.078865
1967.58	0.101365
1977.23	0.130415
1986.87	0.167035
1996.52	0.211605
2006.16	0.265765
2015.81	0.329825
2025.45	0.398245
2035.1	0.457235
2044.74	0.477055
2054.38	0.413725
2064.03	0.325615
2073.67	0.298135
2083.32	0.306935
2092.96	0.309645
2102.61	0.282235
2112.25	0.229305
2121.9	0.175405
2131.54	0.138315
2141.19	0.113065
2150.83	0.093235
2160.48	0.073505
2170.12	0.054195
2179.77	0.039205
2189.41	0.028255
2199.06	0.020805
2208.7	0.016275
2218.35	0.013655
2227.99	0.012495
2237.64	0.012025
2247.28	0.010825
2256.92	0.009265
2266.57	0.008305
2276.21	0.007365
2285.86	0.006155
2295.5	0.005135
2305.15	0.004625
2314.79	0.004125
2324.44	0.003675
2334.08	0.003515
2343.73	0.003535
2353.37	0.003705
2363.02	0.003615
2372.66	0.003545
2382.31	0.003665
2391.95	0.004305
2401.6	0.005145
2411.24	0.006335
2420.89	0.007495
2430.53	0.008025
2440.18	0.008115
2449.82	0.007335
2459.47	0.006855
2469.11	0.006105
2478.75	0.005355
2488.4	0.005015
2498.04	0.004825
2507.69	0.004935
2517.33	0.005005
2526.98	0.005355
2536.62	0.005785
2546.27	0.006355
2555.91	0.007085
2565.56	0.007725
2575.2	0.008555
2584.85	0.008365
2594.49	0.006625
2604.14	0.004585
2613.78	0.003425
2623.43	0.002825
2633.07	0.002645
2642.72	0.002405
2652.36	0.002275
2662.01	0.002145
2671.65	0.002395
2681.29	0.002585
2690.94	0.002945
2700.58	0.003475
2710.23	0.003985
2719.87	0.004455
2729.52	0.004915
2739.16	0.005165
2748.81	0.004675
2758.45	0.004085
2768.1	0.003795
2777.74	0.003565
2787.39	0.003425
2797.03	0.003275
2806.68	0.003785
2816.32	0.003935
2825.97	0.004455
2835.61	0.005085
2845.26	0.005775
2854.9	0.006795
2864.55	0.008865
2874.19	0.012805
2883.84	0.015985
2893.48	0.014825
2903.12	0.013225
2912.77	0.013055
2922.41	0.013075
2932.06	0.013775
2941.7	0.014905
2951.35	0.016135
2960.99	0.015795
2970.64	0.010585
2980.28	0.007275
2989.93	0.005225
2999.57	0.005135
3009.22	0.007225
3018.86	0.011685
3028.51	0.021255
3038.15	0.028725
3047.8	0.022945
3057.44	0.019915
3067.09	0.029065
3076.73	0.037615
3086.38	0.026595
3096.02	0.017945
3105.67	0.011845
3115.31	0.007135
3124.95	0.003445
3134.6	0.001795
3144.24	0.00115
3153.89	0.0009149
3163.53	0.0010339
3173.18	0.0009753
3182.82	0.0007782
3192.47	0.0005813
3202.11	0.000477
3211.76	0.000376
3221.4	0.000306
3231.05	0.000252
3240.69	0.00038
3250.34	0.000461
3259.98	0.000495
3269.63	0.000361
3279.27	0.000375
3288.92	0.000398
3298.56	0.000462
3308.21	0.000199
3317.85	0.000197
3327.49	0.000212
3337.14	1.6e-05
3346.78	0.000393
3356.43	0.000403
3366.07	0.000347
3375.72	0.000175
3385.36	0.0005347
3395.01	0.000169
3404.65	2.7e-05
3414.3	0.00031
3423.94	0.000396
3433.59	0.000388
3443.23	0.000353
3452.88	8e-05
3462.52	0.0005243
3472.17	0.000314
3481.81	0.000624943
3491.46	0.0005977
3501.1	0.000373
3510.75	0.0005617
3520.39	0.000382
3530.04	0.000444
3539.68	0.000295
3549.32	0.000477
3558.97	0.0005757
3568.61	0.000261
3578.26	0.000468
3587.9	0.000343
3597.55	0.000614752
3607.19	0.0005278
3616.84	0.00063255
3626.48	0.00061053
3636.13	0.0005567
3645.77	0.000622873
3655.42	0.000797
3665.06	0.0007446
3674.71	0.0005826
3684.35	0.00065683
3694	0.0008104
3703.64	0.0008693
3713.29	0.00060515
3722.93	0.0008963
3732.58	0.00067578
3742.22	0.0008677
3751.86	0.00064689
3761.51	0.0005964
3771.15	0.000976
3780.8	0.000895
3790.44	0.0007735
3800.09	0.0008104
3809.73	0.0007928
3819.38	0.0010307
3829.02	0.00069749
3838.67	0.0008736
3848.31	0.0011026
3857.96	0.0010629
3867.6	0.0011935
3877.25	0.0013509
3886.89	0.0012756
3896.54	0.0013808
3906.18	0.0015657
3915.83	0.0015761
3925.47	0.0015615
3935.12	0.001522
3944.76	0.001925
3954.41	0.001955
3964.05	0.001855
3973.69	0.001815
3983.34	0.001945
3992.98	0.002005
