Infrared Spectrum: Cyclopentylamine, 1-(bromomethyl)-, hydrobromide
Formula: C6 H13 Br2 N
CAS: 13988-38-0
State: SOLID (1 mg / 650 mg KBr DISC)
Class: COBLENTZ III
Instrument: PERKIN-ELMER 521 (GRATING)
Instrument parameters: FILTERS AT 3150, 2500, 2000, 1150, 700, 410. GRATING CHANGES: 2000, 630
Sampling: TRANSMISSION
Resolution: 2
Origin: SOUTHERN RESEARCH INSTITUTE
1/CM	TRANSMITTANCE
255	0.2218
265	0.2698
275	0.3338
285	0.4019
295	0.47
305	0.5208
315	0.5153
325	0.5427
335	0.6203
345	0.6412
355	0.6472
365	0.6937
375	0.7331
385	0.7416
395	0.7345
405	0.6965
415	0.6934
425	0.6968
435	0.7186
445	0.7722
455	0.8115
465	0.845
475	0.8598
485	0.8681
495	0.8717
505	0.8736
515	0.8752
525	0.8774
535	0.8764
545	0.8675
555	0.8481
565	0.8511
575	0.864
585	0.8581
595	0.8647
605	0.8779
615	0.8638
625	0.8556
635	0.8523
645	0.8377
655	0.7293
665	0.7205
675	0.8723
685	0.8683
695	0.8341
705	0.9017
715	0.9065
725	0.9013
735	0.9101
745	0.9194
755	0.9225
765	0.9243
775	0.9238
785	0.9208
795	0.9175
805	0.914
815	0.9077
825	0.8969
835	0.9
845	0.9189
855	0.9191
865	0.9123
875	0.9154
885	0.9261
895	0.9231
905	0.9162
915	0.9246
925	0.9174
935	0.8942
945	0.8842
955	0.8945
965	0.8658
975	0.8359
985	0.8876
995	0.8879
1005	0.8611
1015	0.8335
1025	0.8565
1035	0.8603
1045	0.8807
1055	0.8884
1065	0.8998
1075	0.9055
1085	0.8949
1095	0.8838
1105	0.892
1115	0.8923
1125	0.8915
1135	0.8717
1145	0.8725
1155	0.8754
1165	0.8767
1175	0.865
1185	0.8347
1195	0.8634
1205	0.8592
1215	0.801
1225	0.776
1235	0.7567
1245	0.8015
1255	0.8151
1265	0.7991
1275	0.762
1285	0.85
1295	0.853
1305	0.7955
1315	0.841
1325	0.7964
1335	0.7726
1345	0.8122
1355	0.8782
1365	0.877
1375	0.8696
1385	0.8596
1395	0.8479
1405	0.8304
1415	0.7986
1425	0.5229
1435	0.6386
1445	0.5138
1455	0.6727
1465	0.7325
1475	0.6029
1485	0.681
1495	0.3739
1505	0.3966
1515	0.6156
1525	0.8385
1535	0.8414
1545	0.8296
1555	0.8111
1565	0.7771
1575	0.6613
1585	0.4575
1595	0.6277
1605	0.7814
1615	0.8438
1625	0.844
1635	0.8476
1645	0.8537
1655	0.8597
1665	0.8758
1675	0.8864
1685	0.887
1695	0.8866
1705	0.8941
1715	0.8977
1725	0.8991
1735	0.9003
1745	0.9013
1755	0.9053
1765	0.907
1775	0.905
1785	0.9037
1795	0.9033
1805	0.9023
1815	0.9001
1825	0.897
1835	0.8925
1845	0.8888
1855	0.8853
1865	0.882
1875	0.8783
1885	0.8734
1895	0.8658
1905	0.858
1915	0.8496
1925	0.8404
1935	0.8288
1945	0.8152
1955	0.7978
1965	0.779
1975	0.7555
1985	0.7283
1995	0.7081
2005	0.7243
2015	0.7555
2025	0.7876
2035	0.818
2045	0.8476
2055	0.863
2065	0.8714
2075	0.8746
2085	0.875
2095	0.8748
2105	0.874
2115	0.8735
2125	0.8736
2135	0.873
2145	0.8718
2155	0.8703
2165	0.8684
2175	0.8658
2185	0.8631
2195	0.8605
2205	0.858
2215	0.8555
2225	0.8535
2235	0.8518
2245	0.8501
2255	0.8479
2265	0.8456
2275	0.8434
2285	0.8415
2295	0.8401
2305	0.8388
2315	0.8365
2325	0.83
2335	0.8268
2345	0.8243
2355	0.8225
2365	0.82
2375	0.8176
2385	0.816
2395	0.8116
2405	0.8054
2415	0.7958
2425	0.7842
2435	0.7705
2445	0.755
2455	0.7386
2465	0.7236
2475	0.7072
2485	0.6863
2495	0.6802
2505	0.6612
2515	0.6098
2525	0.6254
2535	0.6605
2545	0.6745
2555	0.6665
2565	0.6403
2575	0.6187
2585	0.607
2595	0.5879
2605	0.5984
2615	0.6112
2625	0.6311
2635	0.6372
2645	0.6349
2655	0.6276
2665	0.6151
2675	0.5806
2685	0.5544
2695	0.5533
2705	0.5438
2715	0.5112
2725	0.4786
2735	0.4591
2745	0.458
2755	0.4359
2765	0.4049
2775	0.3923
2785	0.3807
2795	0.3464
2805	0.3042
2815	0.2538
2825	0.212
2835	0.178
2845	0.1481
2855	0.1267
2865	0.1091
2875	0.0995
2885	0.1033
2895	0.1067
2905	0.1103
2915	0.1138
2925	0.1154
2935	0.1146
2945	0.1135
2955	0.1123
2965	0.1294
2975	0.149
2985	0.1666
2995	0.1717
3005	0.172
3015	0.1766
3025	0.1925
3035	0.2196
3045	0.2504
3055	0.2984
3065	0.3433
3075	0.3809
3085	0.4099
3095	0.447
3105	0.4854
3115	0.5221
3125	0.5867
3135	0.6162
3145	0.6461
3155	0.6542
3165	0.6553
3175	0.6574
3185	0.6768
3195	0.7069
3205	0.7407
3215	0.7594
3225	0.7671
3235	0.7718
3245	0.774
3255	0.7756
3265	0.7765
3275	0.7758
3285	0.7743
3295	0.7712
3305	0.7677
3315	0.7635
3325	0.7592
3335	0.7531
3345	0.7469
3355	0.74
3365	0.7329
3375	0.7257
3385	0.7184
3395	0.7118
3405	0.7071
3415	0.7046
3425	0.7035
3435	0.703
3445	0.7029
3455	0.7023
3465	0.7027
3475	0.7043
3485	0.7071
3495	0.7072
3505	0.7079
3515	0.7113
3525	0.716
3535	0.7217
3545	0.7271
3555	0.7326
3565	0.7386
3575	0.7466
3585	0.7524
3595	0.7578
3605	0.7629
3615	0.768
3625	0.7729
3635	0.7774
3645	0.781
3655	0.7814
3665	0.7842
3675	0.785
3685	0.7746
3695	0.778
3705	0.7842
3715	0.7849
3725	0.7853
3735	0.7858
3745	0.7825
3755	0.7779
3765	0.7774
3775	0.7812
3785	0.7807
3795	0.7814
3805	0.7785
3815	0.7739
3825	0.7789
3835	0.7699
3845	0.7721
3855	0.7678
3865	0.7692
