Infrared Spectrum: CALCIUM SILICATE
Formula: O3 Ca Si
CAS: 13983-17-0
State: SOLID (0.8 mg / 300 mg CsI DISC)
Class: COBLENTZ III
Instrument: BECKMAN IR-12 (GRATING)
Instrument parameters: GRATING BLAZED AT 3330, 1330, 445, 220 CM^-^1
Sampling: TRANSMISSION
Resolution: 4
Origin: DESOTO CHEMICAL COATINGS, INC.
1/CM	TRANSMITTANCE
201.331	0.638
211.982	0.633
222.633	0.606
233.284	0.5201
243.935	0.539
254.585	0.55
265.236	0.5201
275.887	0.465
286.538	0.431
297.189	0.4
307.84	0.378
318.491	0.369
329.142	0.353
339.793	0.349
350.443	0.378
361.094	0.491
371.745	0.564
382.396	0.585
393.047	0.4991
403.698	0.479
414.349	0.497
425	0.538
435.651	0.4641
446.301	0.2631
456.952	0.152
467.603	0.212
478.254	0.188
488.905	0.236
499.556	0.4209
510.207	0.409
520.858	0.534
531.508	0.6619
542.159	0.725
552.81	0.756
563.461	0.627
574.112	0.646
584.763	0.7648
595.414	0.828
606.065	0.866
616.716	0.888
627.366	0.88
638.017	0.7761
648.668	0.567
659.319	0.7508
669.97	0.854
680.621	0.803
691.272	0.756
701.923	0.8759
712.574	0.931
723.224	0.947
733.875	0.971
744.526	0.978
755.177	0.983
765.828	0.983
776.479	0.978
787.13	0.963
797.781	0.954
808.432	0.931
819.082	0.914
829.733	0.88
840.384	0.825
851.035	0.7631
861.686	0.6651
872.337	0.5511
882.988	0.378
893.639	0.235
904.29	0.117
914.94	0.144
925.591	0.145
936.242	0.128
946.893	0.206
957.544	0.231
968.195	0.171
978.846	0.3499
989.497	0.523
1000.15	0.389
1010.8	0.1873
1021.45	0.135
1032.1	0.144
1042.75	0.176
1053.4	0.25
1064.05	0.198
1074.7	0.19
1085.35	0.151
1096.01	0.175
1106.66	0.281
1117.31	0.366
1127.96	0.429
1138.61	0.492
1149.26	0.53
1159.91	0.554
1170.56	0.572
1181.21	0.587
1191.86	0.61
1202.51	0.627
1213.17	0.642
1223.82	0.654
1234.47	0.666
1245.12	0.68
1255.77	0.692
1266.42	0.697
1277.07	0.706
1287.72	0.713
1298.37	0.721
1309.02	0.726
1319.67	0.73
1330.33	0.732
1340.98	0.734
1351.63	0.737
1362.28	0.74
1372.93	0.74
1383.58	0.736
1394.23	0.73
1404.88	0.709
1415.53	0.661
1426.18	0.615
1436.83	0.61
1447.48	0.617
1458.14	0.63
1468.79	0.649
1479.44	0.662
1490.09	0.67
1500.74	0.69
1511.39	0.706
1522.04	0.718
1532.69	0.726
1543.34	0.738
1553.99	0.749
1564.64	0.752
1575.3	0.749
1585.95	0.744
1596.6	0.733
1607.25	0.722
1617.9	0.714
1628.55	0.718
1639.2	0.73
1649.85	0.744
1660.5	0.751
1671.15	0.755
1681.8	0.761
1692.46	0.773
1703.11	0.773
1713.76	0.773
1724.41	0.775
1735.06	0.775
1745.71	0.78
1756.36	0.781
1767.01	0.784
1777.66	0.781
1788.31	0.785
1798.96	0.783
1809.61	0.784
1820.27	0.787
1830.92	0.785
1841.57	0.788
1852.22	0.787
1862.87	0.788
1873.52	0.785
1884.17	0.784
1894.82	0.784
1905.47	0.781
1916.12	0.78
1926.77	0.779
1937.43	0.78
1948.08	0.781
1958.73	0.784
1969.38	0.783
1980.03	0.78
1990.68	0.78
2001.33	0.782
2011.98	0.7835
2022.63	0.783
2033.28	0.783
2043.93	0.784
2054.59	0.785
2065.24	0.7846
2075.89	0.783
2086.54	0.7818
2097.19	0.7836
2107.84	0.7844
2118.49	0.784
2129.14	0.785
2139.79	0.785
2150.44	0.785
2161.09	0.7837
2171.75	0.783
2182.4	0.783
2193.05	0.783
2203.7	0.7837
2214.35	0.78
2225	0.781
2235.65	0.78
2246.3	0.7803
2256.95	0.7793
2267.6	0.7777
2278.25	0.7768
2288.9	0.7762
2299.56	0.773
2310.21	0.773
2320.86	0.7746
2331.51	0.777
2342.16	0.772
2352.81	0.771
2363.46	0.7693
2374.11	0.7653
2384.76	0.7639
2395.41	0.768
2406.06	0.7689
2416.72	0.769
2427.37	0.769
2438.02	0.768
2448.67	0.768
2459.32	0.767
2469.97	0.765
2480.62	0.765
2491.27	0.764
2501.92	0.763
2512.57	0.761
2523.22	0.76
2533.88	0.76
2544.53	0.759
2555.18	0.757
2565.83	0.757
2576.48	0.756
2587.13	0.755
2597.78	0.753
2608.43	0.755
2619.08	0.753
2629.73	0.753
2640.38	0.752
2651.04	0.7521
2661.69	0.7519
2672.34	0.749
2682.99	0.7484
2693.64	0.749
2704.29	0.751
2714.94	0.7485
2725.59	0.746
2736.24	0.744
2746.89	0.7436
2757.54	0.744
2768.19	0.741
2778.85	0.74
2789.5	0.738
2800.15	0.7388
2810.8	0.74
2821.45	0.7395
2832.1	0.7367
2842.75	0.7337
2853.4	0.7297
2864.05	0.728
2874.7	0.726
2885.35	0.725
2896.01	0.724
2906.66	0.722
2917.31	0.7193
2927.96	0.7126
2938.61	0.7134
2949.26	0.716
2959.91	0.7148
2970.56	0.716
2981.21	0.713
2991.86	0.713
3002.51	0.716
3013.17	0.7175
3023.82	0.716
3034.47	0.713
3045.12	0.711
3055.77	0.71
3066.42	0.71
3077.07	0.71
3087.72	0.709
3098.37	0.709
3109.02	0.7055
3119.67	0.7044
3130.32	0.702
3140.98	0.701
3151.63	0.701
3162.28	0.7
3172.93	0.6974
3183.58	0.694
3194.23	0.6908
3204.88	0.689
3215.53	0.688
3226.18	0.685
3236.83	0.681
3247.48	0.68
3258.14	0.68
3268.79	0.6763
3279.44	0.6733
3290.09	0.67
3300.74	0.6661
3311.39	0.6583
3322.04	0.6533
3332.69	0.651
3343.34	0.6452
3353.99	0.6347
3364.64	0.6276
3375.3	0.6198
3385.95	0.6106
3396.6	0.6034
3407.25	0.5953
3417.9	0.5892
3428.55	0.5833
3439.2	0.5791
3449.85	0.5751
3460.5	0.5759
3471.15	0.5778
3481.8	0.5789
3492.46	0.582
3503.11	0.5859
3513.76	0.5899
3524.41	0.5949
3535.06	0.5989
3545.71	0.6049
3556.36	0.609
3567.01	0.613
3577.66	0.625
3588.31	0.629
3598.96	0.638
3609.61	0.639
3620.27	0.6432
3630.92	0.653
3641.57	0.659
3652.22	0.658
3662.87	0.661
3673.52	0.659
3684.17	0.659
3694.82	0.663
3705.47	0.663
3716.12	0.6629
3726.77	0.662
3737.43	0.661
3748.08	0.6629
3758.73	0.6618
3769.38	0.659
3780.03	0.658
3790.68	0.658
3801.33	0.659
3811.98	0.657
3822.63	0.655
3833.28	0.655
3843.93	0.655
3854.59	0.654
3865.24	0.653
3875.89	0.653
3886.54	0.6537
3897.19	0.653
3907.84	0.6524
3918.49	0.6497
3929.14	0.6467
3939.79	0.646
3950.44	0.6457
3961.09	0.645
3971.75	0.645
3982.4	0.643
