Infrared Spectrum: UREA, 1-(2-CHLOROETHYL)-3-(CYANOMETHYL)-
Formula: C5 H8 Cl N3 O
CAS: 13991-67-8
State: SOLID (1 mg / 650 mg KBr DISC)
Class: COBLENTZ III
Instrument: PERKIN-ELMER 221 (GRATING)
Instrument parameters: FILTER CHANGES AT 2490, 980 CM^-^1, GRATING FOR 4000-1428 CM^-^1, NaCl PRISM FOR 1428-650 CM^-^1
Sampling: TRANSMISSION
Resolution: 4
Origin: SOUTHERN RESEARCH INST.
1/CM	TRANSMITTANCE
600.423	0.62
609.615	0.616
618.807	0.606
627.998	0.597
637.19	0.583
646.382	0.584
655.574	0.615
664.765	0.711
673.957	0.778
683.149	0.804
692.341	0.81
701.532	0.8
710.724	0.791
719.916	0.819
729.108	0.843
738.299	0.848
747.491	0.848
756.683	0.848
765.875	0.822
775.067	0.718
784.258	0.823
793.45	0.863
802.642	0.871
811.834	0.87
821.025	0.867
830.217	0.864
839.409	0.859
848.601	0.847
857.792	0.839
866.984	0.836
876.176	0.807
885.368	0.77
894.559	0.792
903.751	0.747
912.943	0.72
922.135	0.814
931.327	0.822
940.518	0.814
949.71	0.721
958.902	0.832
968.094	0.845
977.285	0.84
986.477	0.835
995.669	0.825
1004.86	0.8
1014.05	0.753
1023.24	0.81
1032.44	0.829
1041.63	0.817
1050.82	0.74
1060.01	0.714
1069.2	0.794
1078.39	0.78
1087.59	0.685
1096.78	0.786
1105.97	0.813
1115.16	0.816
1124.35	0.814
1133.55	0.812
1142.74	0.81
1151.93	0.804
1161.12	0.788
1170.31	0.768
1179.5	0.788
1188.7	0.771
1197.89	0.56
1207.08	0.714
1216.27	0.77
1225.46	0.744
1234.65	0.685
1243.85	0.598
1253.04	0.52
1262.23	0.496
1271.42	0.616
1280.61	0.665
1289.81	0.452
1299	0.537
1308.19	0.641
1317.38	0.739
1326.57	0.781
1335.76	0.779
1344.96	0.774
1354.15	0.75
1363.34	0.723
1372.53	0.579
1381.72	0.759
1390.91	0.796
1400.11	0.674
1409.3	0.654
1418.49	0.784
1427.68	0.762
1436.87	0.642
1446.07	0.58
1455.26	0.775
1464.45	0.8
1473.64	0.775
1482.83	0.688
1492.02	0.541
1501.22	0.388
1510.41	0.611
1519.6	0.693
1528.79	0.71
1537.98	0.664
1547.17	0.536
1556.37	0.37
1565.56	0.235
1574.75	0.17
1583.94	0.223
1593.13	0.36
1602.33	0.406
1611.52	0.409
1620.71	0.303
1629.9	0.175
1639.09	0.171
1648.28	0.31
1657.48	0.392
1666.67	0.501
1675.86	0.505
1685.05	0.573
1694.24	0.667
1703.43	0.714
1712.63	0.758
1721.82	0.793
1731.01	0.814
1740.2	0.821
1749.39	0.838
1758.59	0.844
1767.78	0.848
1776.97	0.852
1786.16	0.855
1795.35	0.858
1804.54	0.862
1813.74	0.865
1822.93	0.873
1832.12	0.876
1841.31	0.877
1850.5	0.877
1859.69	0.877
1868.89	0.877
1878.08	0.877
1887.27	0.877
1896.46	0.877
1905.65	0.877
1914.85	0.877
1924.04	0.878
1933.23	0.879
1942.42	0.879
1951.61	0.88
1960.8	0.88
1970	0.88
1979.19	0.88
1988.38	0.88
1997.57	0.88
2006.76	0.88
2015.95	0.879
2025.15	0.879
2034.34	0.879
2043.53	0.879
2052.72	0.879
2061.91	0.879
2071.11	0.879
2080.3	0.879
2089.49	0.878
2098.68	0.878
2107.87	0.877
2117.06	0.876
2126.26	0.876
2135.45	0.878
2144.64	0.879
2153.83	0.879
2163.02	0.879
2172.21	0.879
2181.41	0.878
2190.6	0.877
2199.79	0.877
2208.98	0.876
2218.17	0.875
2227.37	0.872
2236.56	0.855
2245.75	0.844
2254.94	0.854
2264.13	0.869
2273.32	0.873
2282.52	0.874
2291.71	0.874
2300.9	0.873
2310.09	0.873
2319.28	0.872
2328.47	0.871
2337.67	0.871
2346.86	0.87
2356.05	0.87
2365.24	0.87
2374.43	0.872
2383.63	0.873
2392.82	0.873
2402.01	0.872
2411.2	0.87
2420.39	0.87
2429.58	0.869
2438.78	0.869
2447.97	0.868
2457.16	0.868
2466.35	0.868
2475.54	0.867
2484.73	0.867
2493.93	0.866
2503.12	0.867
2512.31	0.866
2521.5	0.867
2530.69	0.868
2539.89	0.867
2549.08	0.864
2558.27	0.863
2567.46	0.861
2576.65	0.859
2585.84	0.858
2595.04	0.858
2604.23	0.86
2613.42	0.858
2622.61	0.858
2631.8	0.86
2640.99	0.859
2650.19	0.857
2659.38	0.856
2668.57	0.854
2677.76	0.853
2686.95	0.851
2696.15	0.851
2705.34	0.852
2714.53	0.854
2723.72	0.854
2732.91	0.851
2742.1	0.848
2751.3	0.845
2760.49	0.842
2769.68	0.841
2778.87	0.838
2788.06	0.836
2797.25	0.833
2806.45	0.83
2815.64	0.822
2824.83	0.811
2834.02	0.805
2843.21	0.801
2852.41	0.797
2861.6	0.797
2870.79	0.803
2879.98	0.807
2889.17	0.806
2898.36	0.8
2907.56	0.788
2916.75	0.757
2925.94	0.722
2935.13	0.716
2944.32	0.754
2953.51	0.775
2962.71	0.768
2971.9	0.744
2981.09	0.746
2990.28	0.748
2999.47	0.708
3008.67	0.771
3017.86	0.774
3027.05	0.772
3036.24	0.759
3045.43	0.727
3054.62	0.731
3063.82	0.762
3073.01	0.767
3082.2	0.769
3091.39	0.768
3100.58	0.743
3109.77	0.717
3118.97	0.663
3128.16	0.658
3137.35	0.703
3146.54	0.731
3155.73	0.737
3164.93	0.737
3174.12	0.735
3183.31	0.729
3192.5	0.721
3201.69	0.691
3210.88	0.674
3220.08	0.658
3229.27	0.64
3238.46	0.629
3247.65	0.6
3256.84	0.574
3266.03	0.525
3275.23	0.468
3284.42	0.386
3293.61	0.325
3302.8	0.34
3311.99	0.397
3321.19	0.471
3330.38	0.525
3339.57	0.542
3348.76	0.547
3357.95	0.548
3367.14	0.547
3376.34	0.545
3385.53	0.499
3394.72	0.366
3403.91	0.275
3413.1	0.393
3422.29	0.534
3431.49	0.586
3440.68	0.63
3449.87	0.666
3459.06	0.693
3468.25	0.701
3477.45	0.711
3486.64	0.72
3495.83	0.73
3505.02	0.739
3514.21	0.747
3523.4	0.753
3532.6	0.755
3541.79	0.774
3550.98	0.778
3560.17	0.785
3569.36	0.796
3578.55	0.8
3587.75	0.804
3596.94	0.809
3606.13	0.817
3615.32	0.823
3624.51	0.829
3633.71	0.833
3642.9	0.835
3652.09	0.838
3661.28	0.837
3670.47	0.835
3679.66	0.838
3688.86	0.846
3698.05	0.848
3707.24	0.848
3716.43	0.847
3725.62	0.847
3734.81	0.848
3744.01	0.849
3753.2	0.85
3762.39	0.85
3771.58	0.85
3780.77	0.851
3789.97	0.851
3799.16	0.85
3808.35	0.848
3817.54	0.848
3826.73	0.848
3835.92	0.848
3845.12	0.849
3854.31	0.849
3863.5	0.849
3872.69	0.85
3881.88	0.85
3891.07	0.85
3900.27	0.85
3909.46	0.85
3918.65	0.851
3927.84	0.851
3937.03	0.851
3946.23	0.851
3955.42	0.851
3964.61	0.851
3973.8	0.851
3982.99	0.851
3992.18	0.851
