Infrared Spectrum: trans-Pent-2-enoic acid
Formula: C 5 H 8 O 2
CAS: 13991-37-2
State: gas
Origin: EPA-IR VAPOR PHASE LIBRARY
1/CM	ABSORBANCE
549.9	0.00946
559.547	0.01063
569.193	0.01009
578.84	0.00844
588.486	0.00605
598.133	0.00464
607.779	0.00453
617.426	0.0055
627.072	0.00664
636.719	0.00814
646.365	0.00851
656.012	0.007
665.658	0.00431
675.305	0.00358
684.951	0.00371
694.598	0.00396
704.245	0.00413
713.891	0.00356
723.538	0.00284
733.184	0.00216
742.831	0.0016295
752.477	0.0015229
762.124	0.0014971
771.77	0.0015029
781.417	0.00176
791.063	0.00186
800.71	0.0015007
810.356	0.0013208
820.003	0.0013717
829.649	0.0015
839.296	0.00197
848.943	0.00278
858.589	0.00373
868.236	0.00405
877.882	0.0042
887.529	0.004
897.175	0.00371
906.822	0.0031
916.468	0.00246
926.115	0.0022
935.761	0.0022
945.408	0.00265
955.054	0.004
964.701	0.00574
974.347	0.00725
983.994	0.00687
993.64	0.00532
1003.29	0.00422
1012.93	0.00423
1022.58	0.00434
1032.23	0.00381
1041.87	0.00317
1051.52	0.00336
1061.17	0.00452
1070.81	0.00695
1080.46	0.01131
1090.11	0.01963
1099.75	0.02819
1109.4	0.03042
1119.05	0.02382
1128.69	0.02239
1138.34	0.02538
1147.99	0.02667
1157.63	0.02559
1167.28	0.01876
1176.92	0.01394
1186.57	0.00867
1196.22	0.006
1205.86	0.00505
1215.51	0.00491
1225.16	0.00506
1234.8	0.00573
1244.45	0.0066
1254.1	0.00724
1263.74	0.00703
1273.39	0.00645
1283.04	0.00612
1292.68	0.00593
1302.33	0.00558
1311.98	0.00592
1321.62	0.00654
1331.27	0.0076
1340.92	0.00899
1350.56	0.01141
1360.21	0.01306
1369.86	0.01146
1379.5	0.00777
1389.15	0.00448
1398.79	0.0034
1408.44	0.00273
1418.09	0.00254
1427.73	0.0026
1437.38	0.00271
1447.03	0.00266
1456.67	0.00277
1466.32	0.00262
1475.97	0.00219
1485.61	0.0017
1495.26	0.0013963
1504.91	0.0011885
1514.55	0.0010019
1524.2	0.0009412
1533.85	0.0009011
1543.49	0.0008547
1553.14	0.0008115
1562.79	0.0008332
1572.43	0.000885
1582.08	0.0008717
1591.73	0.0008958
1601.37	0.0010677
1611.02	0.0013199
1620.67	0.00187
1630.31	0.0032
1639.96	0.00619
1649.6	0.01066
1659.25	0.0122
1668.9	0.00889
1678.54	0.00343
1688.19	0.00252
1697.84	0.00299
1707.48	0.00428
1717.13	0.00696
1726.78	0.01253
1736.42	0.0245
1746.07	0.04357
1755.72	0.05685
1765.36	0.05303
1775.01	0.03885
1784.66	0.02291
1794.3	0.01119
1803.95	0.00547
1813.6	0.00335
1823.24	0.00237
1832.89	0.00191
1842.54	0.001572
1852.18	0.0013718
1861.83	0.0011582
1871.47	0.0010462
1881.12	0.0009398
1890.77	0.000849
1900.41	0.0008585
1910.06	0.0007896
1919.71	0.0008122
1929.35	0.00072832
1939	0.00070682
1948.65	0.0006411
1958.29	0.0006383
1967.94	0.0006157
1977.59	0.0006321
1987.23	0.00071091
1996.88	0.0008175
2006.53	0.0007901
2016.17	0.000819
2025.82	0.0008528
2035.47	0.0008533
2045.11	0.0008446
2054.76	0.00076822
2064.41	0.00069599
2074.05	0.00067532
2083.7	0.0005949
2093.35	0.0006117
2102.99	0.0006177
2112.64	0.0006108
2122.28	0.0005937
2131.93	0.0005906
2141.58	0.000573
2151.22	0.000576
2160.87	0.000552
2170.52	0.0006317
2180.16	0.0006168
2189.81	0.0006536
2199.46	0.0006559
2209.1	0.0006903
2218.75	0.0006622
2228.4	0.00071559
2238.04	0.00067835
2247.69	0.00067812
2257.34	0.00067785
2266.98	0.0006281
2276.63	0.0006294
2286.28	0.0005904
2295.92	0.0005879
2305.57	0.00056
2315.22	0.0005942
2324.86	0.000578
2334.51	0.0006308
2344.16	0.000577
2353.8	0.0005811
2363.45	0.0006275
2373.09	0.000563
2382.74	0.000555
2392.39	0.000567
2402.03	0.0005958
2411.68	0.000545
2421.33	0.000527
2430.97	0.00058
2440.62	0.000569
2450.27	0.00054
2459.91	0.000562
2469.56	0.000541
2479.21	0.000566
2488.85	0.000535
2498.5	0.000514
2508.15	0.000513
2517.79	0.000532
2527.44	0.000545
2537.09	0.000488
2546.73	0.000456
2556.38	0.000466
2566.03	0.000494
2575.67	0.000533
2585.32	0.000513
2594.96	0.000496
2604.61	0.000464
2614.26	0.000418
2623.9	0.00035
2633.55	0.000429
2643.2	0.000371
2652.84	0.00041
2662.49	0.00038
2672.14	0.000428
2681.78	0.000482
2691.43	0.000464
2701.08	0.00041
2710.72	0.000372
2720.37	0.000479
2730.02	0.000445
2739.66	0.000441
2749.31	0.000552
2758.96	0.000516
2768.6	0.000478
2778.25	0.000446
2787.9	0.0006246
2797.54	0.000553
2807.19	0.0006545
2816.84	0.0008455
2826.48	0.0009633
2836.13	0.0012504
2845.77	0.0016028
2855.42	0.00198
2865.07	0.00246
2874.71	0.00305
2884.36	0.00408
2894.01	0.00478
2903.65	0.00501
2913.3	0.00487
2922.95	0.00515
2932.59	0.00591
2942.24	0.00694
2951.89	0.00733
2961.53	0.00769
2971.18	0.01057
2980.83	0.01166
2990.47	0.00928
3000.12	0.00453
3009.77	0.00283
3019.41	0.00209
3029.06	0.00185
3038.71	0.0015044
3048.35	0.0012647
3058	0.0012744
3067.64	0.0011486
3077.29	0.0011237
3086.94	0.000957
3096.58	0.00067291
3106.23	0.000557
3115.88	0.0005946
3125.52	0.00072718
3135.17	0.000452
3144.82	0.000428
3154.46	0.000252
3164.11	0.000472
3173.76	0.000192
3183.4	0.000297
3193.05	0.000278
3202.7	0.000117
3212.34	0.000179
3221.99	0.00025
3231.64	0.000109
3241.28	0.000219
3250.93	0.000288
3260.58	0
3270.22	0.000478
3279.87	0.000274
3289.52	0.000269
3299.16	0.000431
3308.81	0.000186
3318.45	0.000281
3328.1	0.000122
3337.75	0.000337
3347.39	0.000317
3357.04	0.000326
3366.69	0.000238
3376.33	0.000411
3385.98	0.000514
3395.63	0.000373
3405.27	0.0006353
3414.92	0.000516
3424.57	0.000476
3434.21	0.000548
3443.86	0.000415
3453.51	0.000479
3463.15	0.000506
3472.8	0.00074984
3482.45	0.000689065
3492.09	0.0006687
3501.74	0.0008858
3511.39	0.0008805
3521.03	0.00086
3530.68	0.0008055
3540.33	0.00077374
3549.97	0.0010175
3559.62	0.00206
3569.26	0.00896
3578.91	0.0196
3588.56	0.01953
3598.2	0.00824
3607.85	0.00191
3617.5	0.00098
3627.14	0.0007829
3636.79	0.0006618
3646.44	0.00073713
3656.08	0.00067577
3665.73	0.000573
3675.38	0.0006497
3685.02	0.000363
3694.67	0.0005852
3704.32	0.0006378
3713.96	0.000617
3723.61	0.0006062
3733.26	0.00071084
3742.9	0.0005825
3752.55	0.000564
3762.2	0.00075186
3771.84	0.000626
3781.49	0.0006398
3791.13	0.000462
3800.78	0.0006
3810.43	0.000497
3820.07	0.000571
3829.72	0.0006412
3839.37	0.0006303
3849.01	0.0006099
3858.66	0.00053
3868.31	0.000565
3877.95	0.0005869
3887.6	0.000543
3897.25	0.0006036
3906.89	0.0006182
3916.54	0.0006229
3926.19	0.000518
3935.83	0.0006122
3945.48	0.0006122
3955.13	0.00057
3964.77	0.000553
3974.42	0.0006107
3984.07	0.000538
3993.71	0.0006169
