Infrared Spectrum: CYCLOHEXANECARBOXYLIC ACID, 1-[3-(2-CHLOROETHYL)-3-NITROSOUREIDO]-, ETHYL ESTER
Formula: C12 H20 Cl N3 O4
CAS: 13991-74-7
State: SOLID (1 mg / 650 mg KBr DISC)
Class: COBLENTZ III
Instrument: PERKIN-ELMER 521 (GRATING)
Instrument parameters: FILTERS AT 3150, 2500, 2000, 1150, 700, 410 CM ^-^1, GRATING CHANGES AT2000, 630 CM^-^1
Sampling: TRANSMISSION
Resolution: 4
Origin: SOUTHERN RES. INSTITUTE
1/CM	TRANSMITTANCE
253.295	0.247
262.464	0.292
271.633	0.345
280.802	0.411
289.971	0.463
299.14	0.516
308.309	0.579
317.479	0.608
326.648	0.631
335.817	0.642
344.986	0.598
354.155	0.606
363.324	0.702
372.493	0.739
381.662	0.71
390.831	0.714
400	0.782
409.169	0.843
418.338	0.865
427.507	0.881
436.676	0.875
445.846	0.849
455.015	0.876
464.184	0.884
473.353	0.862
482.522	0.847
491.691	0.848
500.86	0.807
510.029	0.699
519.198	0.753
528.367	0.804
537.536	0.742
546.705	0.672
555.874	0.621
565.043	0.727
574.213	0.78
583.382	0.814
592.551	0.842
601.72	0.871
610.889	0.884
620.058	0.897
629.227	0.896
638.396	0.891
647.565	0.877
656.734	0.703
665.903	0.769
675.072	0.896
684.241	0.907
693.411	0.796
702.58	0.816
711.749	0.914
720.918	0.912
730.087	0.887
739.256	0.801
748.425	0.701
757.594	0.735
766.763	0.422
775.932	0.8
785.101	0.833
794.27	0.841
803.439	0.823
812.608	0.822
821.778	0.844
830.947	0.827
840.116	0.82
849.285	0.82
858.454	0.702
867.623	0.711
876.792	0.599
885.961	0.713
895.13	0.742
904.299	0.354
913.468	0.547
922.637	0.544
931.806	0.819
940.975	0.788
950.145	0.773
959.314	0.665
968.483	0.663
977.652	0.69
986.821	0.564
995.99	0.371
1005.16	0.474
1014.33	0.617
1023.5	0.657
1032.67	0.731
1041.84	0.752
1051	0.756
1060.17	0.673
1069.34	0.511
1078.51	0.559
1087.68	0.333
1096.85	0.309
1106.02	0.579
1115.19	0.744
1124.36	0.771
1133.53	0.657
1142.7	0.543
1151.86	0.411
1161.03	0.286
1170.2	0.389
1179.37	0.541
1188.54	0.675
1197.71	0.719
1206.88	0.662
1216.05	0.502
1225.22	0.602
1234.39	0.384
1243.55	0.5
1252.72	0.676
1261.89	0.689
1271.06	0.515
1280.23	0.383
1289.4	0.514
1298.57	0.511
1307.74	0.586
1316.91	0.657
1326.08	0.567
1335.25	0.545
1344.41	0.741
1353.58	0.758
1362.75	0.787
1371.92	0.648
1381.09	0.706
1390.26	0.806
1399.43	0.744
1408.6	0.82
1417.77	0.781
1426.94	0.644
1436.11	0.712
1445.27	0.565
1454.44	0.462
1463.61	0.588
1472.78	0.486
1481.95	0.284
1491.12	0.172
1500.29	0.259
1509.46	0.362
1518.63	0.259
1527.8	0.271
1536.97	0.47
1546.13	0.606
1555.3	0.691
1564.47	0.741
1573.64	0.776
1582.81	0.808
1591.98	0.821
1601.15	0.827
1610.32	0.826
1619.49	0.79
1628.66	0.743
1637.83	0.774
1646.99	0.794
1656.16	0.779
1665.33	0.727
1674.5	0.673
1683.67	0.555
1692.84	0.311
1702.01	0.144
1711.18	0.271
1720.35	0.177
1729.52	0.231
1738.68	0.365
1747.85	0.495
1757.02	0.589
1766.19	0.656
1775.36	0.701
1784.53	0.731
1793.7	0.756
1802.87	0.775
1812.04	0.789
1821.21	0.799
1830.38	0.807
1839.54	0.817
1848.71	0.827
1857.88	0.832
1867.05	0.837
1876.22	0.842
1885.39	0.847
1894.56	0.852
1903.73	0.859
1912.9	0.862
1922.07	0.865
1931.24	0.868
1940.4	0.871
1949.57	0.874
1958.74	0.876
1967.91	0.878
1977.08	0.879
1986.25	0.878
1995.42	0.877
2004.59	0.878
2013.76	0.881
2022.93	0.882
2032.1	0.884
2041.26	0.885
2050.43	0.887
2059.6	0.887
2068.77	0.887
2077.94	0.888
2087.11	0.889
2096.28	0.889
2105.45	0.89
2114.62	0.891
2123.79	0.891
2132.96	0.892
2142.12	0.892
2151.29	0.893
2160.46	0.893
2169.63	0.893
2178.8	0.892
2187.97	0.891
2197.14	0.889
2206.31	0.886
2215.48	0.882
2224.65	0.878
2233.81	0.873
2242.98	0.868
2252.15	0.865
2261.32	0.871
2270.49	0.877
2279.66	0.881
2288.83	0.884
2298	0.886
2307.17	0.887
2316.34	0.888
2325.51	0.889
2334.67	0.889
2343.84	0.889
2353.01	0.89
2362.18	0.89
2371.35	0.89
2380.52	0.89
2389.69	0.889
2398.86	0.89
2408.03	0.891
2417.2	0.892
2426.37	0.893
2435.53	0.892
2444.7	0.892
2453.87	0.89
2463.04	0.888
2472.21	0.888
2481.38	0.889
2490.55	0.889
2499.72	0.89
2508.89	0.89
2518.06	0.89
2527.23	0.891
2536.39	0.891
2545.56	0.891
2554.73	0.891
2563.9	0.891
2573.07	0.891
2582.24	0.89
2591.41	0.889
2600.58	0.888
2609.75	0.888
2618.92	0.887
2628.08	0.885
2637.25	0.884
2646.42	0.881
2655.59	0.879
2664.76	0.877
2673.93	0.879
2683.1	0.885
2692.27	0.888
2701.44	0.89
2710.61	0.891
2719.78	0.891
2728.94	0.89
2738.11	0.889
2747.28	0.887
2756.45	0.885
2765.62	0.882
2774.79	0.879
2783.96	0.877
2793.13	0.875
2802.3	0.872
2811.47	0.87
2820.64	0.865
2829.8	0.858
2838.97	0.837
2848.14	0.761
2857.31	0.606
2866.48	0.659
2875.65	0.746
2884.82	0.777
2893.99	0.74
2903.16	0.695
2912.33	0.638
2921.5	0.567
2930.66	0.48
2939.83	0.447
2949	0.544
2958.17	0.598
2967.34	0.613
2976.51	0.628
2985.68	0.657
2994.85	0.69
3004.02	0.704
3013.19	0.727
3022.36	0.764
3031.52	0.791
3040.69	0.81
3049.86	0.822
3059.03	0.83
3068.2	0.835
3077.37	0.837
3086.54	0.839
3095.71	0.841
3104.88	0.842
3114.05	0.845
3123.21	0.847
3132.38	0.846
3141.55	0.846
3150.72	0.844
3159.89	0.843
3169.06	0.842
3178.23	0.84
3187.4	0.839
3196.57	0.837
3205.74	0.836
3214.91	0.833
3224.07	0.83
3233.24	0.827
3242.41	0.825
3251.58	0.823
3260.75	0.82
3269.92	0.817
3279.09	0.811
3288.26	0.806
3297.43	0.799
3306.6	0.782
3315.77	0.765
3324.93	0.745
3334.1	0.721
3343.27	0.691
3352.44	0.652
3361.61	0.604
3370.78	0.543
3379.95	0.487
3389.12	0.57
3398.29	0.627
3407.46	0.667
3416.63	0.689
3425.79	0.705
3434.96	0.724
3444.13	0.744
3453.3	0.758
3462.47	0.766
3471.64	0.771
3480.81	0.775
3489.98	0.779
3499.15	0.783
3508.32	0.787
3517.49	0.791
3526.65	0.794
3535.82	0.801
3544.99	0.804
3554.16	0.808
3563.33	0.811
3572.5	0.815
3581.67	0.818
3590.84	0.822
3600.01	0.825
3609.18	0.829
3618.34	0.832
3627.51	0.834
3636.68	0.837
3645.85	0.838
3655.02	0.839
3664.19	0.84
3673.36	0.841
3682.53	0.843
3691.7	0.845
3700.87	0.845
3710.04	0.844
3719.2	0.842
3728.37	0.839
3737.54	0.835
3746.71	0.83
3755.88	0.836
3765.05	0.846
3774.22	0.848
