Infrared Spectrum: N,N'-Dinitrosopiperazine
Formula: C 4 H 8 N 4 O 2
CAS: 140-79-4
State: gas
Origin: EPA-IR VAPOR PHASE LIBRARY
1/CM	ABSORBANCE
549.8	0.00024
559.445	0.000871
569.09	0.0005647
578.734	0.0009938
588.379	8.3e-05
598.024	0.00042092
607.669	0.0006244
617.313	0.0007485
626.958	0.0008275
636.603	0.0007255
646.248	0.0008105
655.893	0.0006097
665.537	0.0008027
675.182	0.0004742
684.827	0.0006296
694.472	0.0004735
704.116	0.00023
713.761	0.0005156
723.406	0.0005199
733.051	0.0002741
742.695	0.0004857
752.34	0.0006733
761.985	0.0007332
771.63	0.0007812
781.275	0.0011921
790.919	0.002158
800.564	0.003898
810.209	0.003878
819.854	0.001988
829.498	0.0006958
839.143	0.0007172
848.788	0.0009439
858.433	0.0012686
868.078	0.0008732
877.722	0.0008821
887.367	0.001428
897.012	0.0013528
906.657	0.001878
916.301	0.003178
925.946	0.006448
935.591	0.013978
945.236	0.024438
954.88	0.026628
964.525	0.018758
974.17	0.011128
983.815	0.006808
993.46	0.004888
1003.1	0.003438
1012.75	0.003288
1022.39	0.003768
1032.04	0.003208
1041.68	0.003118
1051.33	0.003538
1060.97	0.003158
1070.62	0.003828
1080.26	0.005528
1089.91	0.013678
1099.55	0.025818
1109.2	0.022748
1118.84	0.010558
1128.49	0.005488
1138.13	0.005368
1147.78	0.004678
1157.42	0.003968
1167.07	0.003048
1176.71	0.002418
1186.36	0.001688
1196	0.0007162
1205.64	0.001588
1215.29	0.0009057
1224.93	0.00134
1234.58	0.002178
1244.22	0.002938
1253.87	0.003888
1263.51	0.005888
1273.16	0.007778
1282.8	0.009218
1292.45	0.009508
1302.09	0.008388
1311.74	0.007378
1321.38	0.009638
1331.03	0.011228
1340.67	0.012058
1350.32	0.013608
1359.96	0.010158
1369.61	0.004378
1379.25	0.002378
1388.9	0.001978
1398.54	0.002038
1408.18	0.002088
1417.83	0.002228
1427.47	0.003008
1437.12	0.004948
1446.76	0.007278
1456.41	0.007328
1466.05	0.006558
1475.7	0.008838
1485.34	0.018508
1494.99	0.036268
1504.63	0.032388
1514.28	0.010258
1523.92	0.003868
1533.57	0.002508
1543.21	0.001898
1552.86	0.001368
1562.5	0.0011205
1572.15	0.0010095
1581.79	0.0008812
1591.44	0.0008328
1601.08	0.0008425
1610.73	0.0008034
1620.37	0.0007514
1630.01	0.0009079
1639.66	0.0009527
1649.3	0.0010758
1658.95	0.0009818
1668.59	0.0007984
1678.24	0.000627
1687.88	0.0006287
1697.53	0.0006643
1707.17	0.0006133
1716.82	0.0005261
1726.46	0.000456
1736.11	0.00044209
1745.75	0.0005184
1755.4	0.0005992
1765.04	0.0005347
1774.69	0.0006288
1784.33	0.0006788
1793.98	0.0006183
1803.62	0.000691
1813.27	0.0008066
1822.91	0.0008373
1832.55	0.0007926
1842.2	0.0008068
1851.84	0.0007227
1861.49	0.0005965
1871.13	0.0004674
1880.78	0.0004681
1890.42	0.0007488
1900.07	0.000862
1909.71	0.0009137
1919.36	0.0008899
1929	0.0007575
1938.65	0.0007503
1948.29	0.0005921
1957.94	0.0006185
1967.58	0.00043849
1977.23	0.00043799
1986.87	0.00045775
1996.52	0.00040798
2006.16	0.00043969
2015.81	0.0004663
2025.45	0.00044051
2035.1	0.0004916
2044.74	0.0004582
2054.38	0.0005054
2064.03	0.00045006
2073.67	0.0005102
2083.32	0.00040753
2092.96	0.00042269
2102.61	0.00036928
2112.25	0.00043769
2121.9	0.0005218
2131.54	0.00043787
2141.19	0.00044245
2150.83	0.00041652
2160.48	0.0003333
2170.12	0.00042973
2179.77	0.00045796
2189.41	0.00043952
2199.06	0.0004148
2208.7	0.00045599
2218.35	0.00044413
2227.99	0.0004615
2237.64	0.0004593
2247.28	0.0005916
2256.92	0.0005949
2266.57	0.0005042
2276.21	0.0005207
2285.86	0.0004808
2295.5	0.000532
2305.15	0.00052
2314.79	0.0004607
2324.44	0.0006109
2334.08	0.0004686
2343.73	0.0005564
2353.37	0.0005606
2363.02	0.0004779
2372.66	0.0005256
2382.31	0.0005439
2391.95	0.0005208
2401.6	0.000466
2411.24	0.0005272
2420.89	0.0005016
2430.53	0.0005596
2440.18	0.0004629
2449.82	0.0004697
2459.47	0.00044435
2469.11	0.0005209
2478.75	0.0006506
2488.4	0.0005273
2498.04	0.0005265
2507.69	0.0006688
2517.33	0.0005129
2526.98	0.0006013
2536.62	0.0004949
2546.27	0.0005824
2555.91	0.000516
2565.56	0.0005211
2575.2	0.00043761
2584.85	0.0006236
2594.49	0.0006474
2604.14	0.000488
2613.78	0.0004767
2623.43	0.0005317
2633.07	0.0006555
2642.72	0.0005149
2652.36	0.0005789
2662.01	0.0006391
2671.65	0.0006166
2681.29	0.0005153
2690.94	0.0006042
2700.58	0.0005199
2710.23	0.0006118
2719.87	0.0005465
2729.52	0.0005268
2739.16	0.0005933
2748.81	0.0006796
2758.45	0.0007653
2768.1	0.000788
2777.74	0.0008517
2787.39	0.0008314
2797.03	0.0010367
2806.68	0.0012557
2816.32	0.0013123
2825.97	0.001578
2835.61	0.001918
2845.26	0.002488
2854.9	0.003058
2864.55	0.003408
2874.19	0.003568
2883.84	0.003418
2893.48	0.003218
2903.12	0.003498
2912.77	0.004308
2922.41	0.005488
2932.06	0.006138
2941.7	0.005318
2951.35	0.004128
2960.99	0.003198
2970.64	0.003018
2980.28	0.003148
2989.93	0.003618
2999.57	0.002978
3009.22	0.002208
3018.86	0.001738
3028.51	0.0013349
3038.15	0.0009571
3047.8	0.0007667
3057.44	0.0006326
3067.09	0.0005652
3076.73	0.0006366
3086.38	0.000566
3096.02	0.0005515
3105.67	0.0005698
3115.31	0.00034
3124.95	0.000361509
3134.6	0.00037333
3144.24	0.00041702
3153.89	0.0004809
3163.53	0.0004164
3173.18	0.0004471
3182.82	0.0005963
3192.47	0.00036741
3202.11	0.000382
3211.76	0.00045603
3221.4	0.00040953
3231.05	0.00040877
3240.69	0.00037225
3250.34	0.00043998
3259.98	0.0002957
3269.63	0.00044072
3279.27	0.0004692
3288.92	0.0005446
3298.56	0.0005097
3308.21	0.0006396
3317.85	0.0005597
3327.49	0.00042557
3337.14	0.0005119
3346.78	0.000366017
3356.43	0.000603
3366.07	0.00045611
3375.72	0.0004994
3385.36	0.00035612
3395.01	0.000203
3404.65	0.0002765
3414.3	0.0005908
3423.94	0.00037265
3433.59	0.000358038
3443.23	0.0003335
3452.88	0.00041663
3462.52	0.0003878
3472.17	0.0002649
3481.81	0.0006199
3491.46	0.00037822
3501.1	0.0005462
3510.75	0.00037857
3520.39	0.00041737
3530.04	0.0005187
3539.68	0.0004666
3549.32	0.0003253
3558.97	0.0004873
3568.61	0.00035134
3578.26	0.0003417
3587.9	0.0003385
3597.55	0.000193
3607.19	0.0003369
3616.84	0.0003316
3626.48	0.0005012
3636.13	0.0002927
3645.77	0.000223
3655.42	0.0006006
3665.06	0.00043564
3674.71	0.0003235
3684.35	0.0002799
3694	0.0004745
3703.64	5.7e-05
3713.29	0.00037151
3722.93	0.00044065
3732.58	0.0004854
3742.22	0.0005734
3751.86	0.000357324
3761.51	0.00040666
3771.15	0.0004859
3780.8	0.00044636
3790.44	0.000505
3800.09	0.0004707
3809.73	0.00037584
3819.38	0.000219
3829.02	0.000362621
3838.67	0.000182
3848.31	0.0004999
3857.96	0.0005568
3867.6	0.0003085
3877.25	0.0005624
3886.89	0.0005116
3896.54	0.0002962
3906.18	0.00043284
3915.83	0.0005891
3925.47	0.000194
3935.12	0.0003226
3944.76	0.0006255
3954.41	0.00040126
3964.05	0.0004727
3973.69	0.0004731
3983.34	0.0005884
3992.98	0.0002791
