Infrared Spectrum: N,N'-1,4-Phenylenebisacetamide
Formula: C 10 H 12 N 2 O 2
CAS: 140-50-1
State: gas
Origin: EPA-IR VAPOR PHASE LIBRARY
1/CM	ABSORBANCE
551.7	0.0005669
563.274	0.00042259
574.848	0.00050681
586.421	0.000735
597.995	0.0010709
609.569	0.0007326
621.143	0.00055
632.717	0.0005783
644.291	0.0005596
655.864	0.0006573
667.438	0.00045985
679.012	0.00051488
690.586	0.000233
702.16	0.0004054
713.734	0.0003732
725.307	0.0003938
736.881	0.000424292
748.455	0.00025
760.029	0.00046399
771.603	0.000286
783.177	0.0005335
794.75	0.0005816
806.324	0.000595
817.898	0.0009328
829.472	0.0010066
841.046	0.001
852.619	0.0007498
864.193	0.00049267
875.767	0.0003291
887.341	0.0003982
898.915	0.00043615
910.489	0.00046219
922.062	0.0003394
933.636	0.00041025
945.21	0.0005397
956.784	0.000536
968.358	0.0007314
979.932	0.0011258
991.505	0.0012308
1003.08	0.0008753
1014.65	0.0008098
1026.23	0.0006378
1037.8	0.00050808
1049.37	0.0003919
1060.95	0.0006312
1072.52	0.00065
1084.1	0.0003613
1095.67	0.000279
1107.24	0
1118.82	0.00028
1130.39	0.0003234
1141.97	0.000314
1153.54	0.0004116
1165.11	0.00045273
1176.69	0.0008376
1188.26	0.0009853
1199.83	0.002047
1211.41	0.003817
1222.98	0.005717
1234.56	0.004297
1246.13	0.002817
1257.7	0.001997
1269.28	0.002307
1280.85	0.003477
1292.42	0.004367
1304	0.004197
1315.57	0.002507
1327.15	0.001687
1338.72	0.0012914
1350.29	0.0013354
1361.87	0.002407
1373.44	0.003147
1385.02	0.003187
1396.59	0.003737
1408.16	0.002697
1419.74	0.001567
1431.31	0.001507
1442.88	0.001757
1454.46	0.002287
1466.03	0.003377
1477.61	0.003737
1489.18	0.003857
1500.75	0.006007
1512.33	0.011607
1523.9	0.010837
1535.48	0.004327
1547.05	0.002127
1558.62	0.0013943
1570.2	0.0011836
1581.77	0.0011199
1593.34	0.0011808
1604.92	0.0010065
1616.49	0.0007787
1628.07	0.0007201
1639.64	0.0007183
1651.21	0.0007313
1662.79	0.0009001
1674.36	0.0011485
1685.93	0.001467
1697.51	0.002227
1709.08	0.004737
1720.66	0.009997
1732.23	0.007107
1743.8	0.003807
1755.38	0.001937
1766.95	0.0011117
1778.53	0.0007968
1790.1	0.0006693
1801.67	0.0005608
1813.25	0.00049577
1824.82	0.00047356
1836.39	0.00047865
1847.97	0.0004734
1859.54	0.00044227
1871.12	0.00046848
1882.69	0.00048697
1894.26	0.00046123
1905.84	0.00041156
1917.41	0.0003761
1928.99	0.000429
1940.56	0.0003635
1952.13	0.0003557
1963.71	0.0003397
1975.28	0.0003687
1986.85	0.0003789
1998.43	0.000384
2010	0.0003839
2021.58	0.0003619
2033.15	0.0003756
2044.72	0.0003978
2056.3	0.0003801
2067.87	0.0003883
2079.44	0.00041495
2091.02	0.0003977
2102.59	0.0003881
2114.17	0.000383
2125.74	0.0003769
2137.31	0.0003969
2148.89	0.0003874
2160.46	0.000419179
2172.04	0.000394
2183.61	0.0003875
2195.18	0.000404
2206.76	0.0003494
2218.33	0.0003313
2229.9	0.0003811
2241.48	0.0003555
2253.05	0.0003401
2264.63	0.0003247
2276.2	0.0003378
2287.77	0.0003863
2299.35	0.0003622
2310.92	0.0003299
2322.5	0.0003704
2334.07	0.000303
2345.64	0.0003529
2357.22	0.0003797
2368.79	0.0003477
2380.36	0.0003854
2391.94	0.0003856
2403.51	0.0003795
2415.09	0.000419395
2426.66	0.00043353
2438.23	0.0004041
2449.81	0.0003909
2461.38	0.0003718
2472.96	0.0003761
2484.53	0.0003998
2496.1	0.0003683
2507.68	0.0004053
2519.25	0.000392
2530.82	0.0003713
2542.4	0.0003887
2553.97	0.0004005
2565.55	0.0003652
2577.12	0.0003548
2588.69	0.0003424
2600.27	0.0003332
2611.84	0.0003577
2623.41	0.0003462
2634.99	0.0003685
2646.56	0.0004048
2658.14	0.000419837
2669.71	0.0003696
2681.28	0.00042808
2692.86	0.0003546
2704.43	0.0003768
2716.01	0.00043152
2727.58	0.0004039
2739.15	0.00043886
2750.73	0.0003781
2762.3	0.0003942
2773.87	0.000311
2785.45	0.0004036
2797.02	0.0003652
2808.6	0.0003537
2820.17	0.0003984
2831.74	0.0003679
2843.32	0.000396
2854.89	0.000434
2866.47	0.00044284
2878.04	0.000420979
2889.61	0.00046653
2901.19	0.00044108
2912.76	0.00046343
2924.33	0.0005295
2935.91	0.0006201
2947.48	0.0005777
2959.06	0.00049281
2970.63	0.0006316
2982.2	0.0005201
2993.78	0.0005929
3005.35	0.0005892
3016.92	0.0006941
3028.5	0.0009361
3040.07	0.000938
3051.65	0.0007065
3063.22	0.0006558
3074.79	0.0005355
3086.37	0.00045362
3097.94	0.00046492
3109.52	0.0005414
3121.09	0.00043315
3132.66	0.000539
3144.24	0.000418861
3155.81	0.0003823
3167.38	0.000418136
3178.96	0.0003461
3190.53	0.0003193
3202.11	0.0003329
3213.68	0.000298
3225.25	0.0003856
3236.83	0.000462
3248.4	0.000422923
3259.98	0.0003941
3271.55	0.0003733
3283.12	0.0003531
3294.7	0.00046908
3306.27	0.0003678
3317.84	0.0003888
3329.42	0.00040983
3340.99	0.00045018
3352.57	0.00043105
3364.14	0.00048425
3375.71	0.0004047
3387.29	0.000521
3398.86	0.00043945
3410.43	0.0006399
3422.01	0.0006468
3433.58	0.0006622
3445.16	0.0007797
3456.73	0.0008075
3468.3	0.0010075
3479.88	0.0007355
3491.45	0.00048678
3503.03	0.00040906
3514.6	0.0003581
3526.17	0.0004005
3537.75	0.000425745
3549.32	0.000301
3560.89	0.0003291
3572.47	0.0003942
3584.04	0.000292
3595.62	0.0004025
3607.19	0.000314
3618.76	0.000248
3630.34	0.0003211
3641.91	0.0003331
3653.49	0.000257
3665.06	0.00043512
3676.63	0.0004018
3688.21	0.0003762
3699.78	0.0003989
3711.35	0.0003596
3722.93	0.000276
3734.5	0.000295
3746.08	0.0003473
3757.65	0.0003986
3769.22	0.0003771
3780.8	0.000302
3792.37	0.000393
3803.94	0.0003605
3815.52	0.00043443
3827.09	0.00040871
3838.67	0.0003989
3850.24	0.000227
3861.81	0.000302
3873.39	0.000301
3884.96	0.0003557
3896.54	0.000303
3908.11	0.0003639
3919.68	0.0003995
3931.26	0.0003948
3942.83	0.000282
3954.4	0.000315
3965.98	0.0003379
3977.55	0.00044617
3989.13	0.00044183
4000.7	0.0003733
