Infrared Spectrum: 1-Allyl-4-methoxybenzene
Formula: C 10 H 12 O
CAS: 140-67-0
State: gas
Instrument: HP-GC/MS/IRD
Origin: NIST Mass Spectrometry Data Center
1/CM	ABSORBANCE
550	0.0015416
562	0.0005986
574	0.0005207
586	0.0005904
598	0.0010537
610	0.0018204
622	0.0022263
634	0.0010373
646	0.0005084
658	0.0001107
670	2.05e-05
682	0
694	7.79e-05
706	0.0002788
718	0.0001435
730	3.28e-05
742	0.0003034
754	0.0010988
766	0.0010988
778	0.0008528
790	0.0015949
802	0.0035506
814	0.0054612
826	0.0058384
838	0.0050717
850	0.0029438
862	0.0013817
874	0.0010988
886	0.0015785
898	0.0029971
910	0.0056539
922	0.005043
934	0.0023329
946	0.0012956
958	0.0011398
970	0.0016113
982	0.0029397
994	0.0041328
1006	0.0035055
1018	0.0042517
1030	0.0074866
1042	0.0100819
1054	0.0063878
1066	0.0026978
1078	0.0016728
1090	0.0016851
1102	0.0019557
1114	0.001804
1126	0.0012382
1138	0.001025
1150	0.0014596
1162	0.0041082
1174	0.0106354
1186	0.0060762
1198	0.0033661
1210	0.0042148
1222	0.0078474
1234	0.0209879
1246	0.041
1258	0.0256865
1270	0.0113652
1282	0.00902
1294	0.0083517
1306	0.0048585
1318	0.0025625
1330	0.0020008
1342	0.0014145
1354	0.0010127
1366	0.0008159
1378	0.0006929
1390	0.0007298
1402	0.0010578
1414	0.0016154
1426	0.002419
1438	0.0042886
1450	0.004592
1462	0.0050389
1474	0.0050307
1486	0.0044936
1498	0.013694
1510	0.0347926
1522	0.0155062
1534	0.0033989
1546	0.001681
1558	0.0013571
1570	0.0016974
1582	0.0028167
1594	0.004182
1606	0.0068019
1618	0.0059245
1630	0.004018
1642	0.0038909
1654	0.001681
1666	0.0007421
1678	0.0004182
1690	0.0002706
1702	0.0002214
1714	0.0002009
1726	0.0002173
1738	0.0002542
1750	0.0003649
1762	0.0003075
1774	0.0002091
1786	0.0001681
1798	0.0002214
1810	0.0003239
1822	0.0005699
1834	0.0008446
1846	0.0006929
1858	0.0006314
1870	0.0006109
1882	0.0005781
1894	0.0004428
1906	0.0002624
1918	0.000164
1930	0.000205
1942	0.0001927
1954	0.0002009
1966	0.0002132
1978	0.0002583
1990	0.0003813
2002	0.0004469
2014	0.00041
2026	0.0003649
2038	0.00041
2050	0.0005125
2062	0.0005658
2074	0.0005617
2086	0.0004633
2098	0.0002542
2110	0.0001476
2122	7.79e-05
2134	4.92e-05
2146	2.46e-05
2158	2.05e-05
2170	8.2e-06
2182	2.05e-05
2194	3.69e-05
2206	5.33e-05
2218	4.92e-05
2230	6.56e-05
2242	5.33e-05
2254	7.79e-05
2266	0.0001271
2278	0.0001558
2290	0.0001517
2302	0.0001148
2314	9.84e-05
2326	0.0001025
2338	8.61e-05
2350	9.43e-05
2362	6.15e-05
2374	4.51e-05
2386	4.92e-05
2398	2.87e-05
2410	7.79e-05
2422	0.0001148
2434	5.33e-05
2446	6.97e-05
2458	9.43e-05
2470	0.0001394
2482	0.0001927
2494	0.0002173
2506	0.0001845
2518	0.000164
2530	0.0002091
2542	0.000246
2554	0.0001845
2566	0.0001025
2578	0.0001189
2590	0.0001148
2602	0.0001066
2614	8.61e-05
2626	0.0001025
2638	0.0001025
2650	5.33e-05
2662	1.23e-05
2674	1.64e-05
2686	6.56e-05
2698	9.84e-05
2710	0.0001066
2722	0.0001394
2734	0.0001845
2746	0.0002009
2758	0.0002378
2770	0.0002665
2782	0.000369
2794	0.0005289
2806	0.0008856
2818	0.0014596
2830	0.002952
2842	0.0055965
2854	0.0044075
2866	0.0028003
2878	0.0025584
2890	0.0035096
2902	0.0057769
2914	0.0079909
2926	0.0074497
2938	0.0076957
2950	0.0075932
2962	0.0060352
2974	0.0050307
2986	0.005699
2998	0.007667
3010	0.0087453
3022	0.0058056
3034	0.0057523
3046	0.0042845
3058	0.0034768
3070	0.0042476
3082	0.0049733
3094	0.0043419
3106	0.0023698
3118	0.0013776
3130	0.0008364
3142	0.000451
3154	0.0003567
3166	0.0002501
3178	0.0002255
3190	0.0001476
3202	0.0001763
3214	0.0001394
3226	0.0001599
3238	0.0001517
3250	9.02e-05
3262	0.0001066
3274	8.2e-05
3286	7.38e-05
3298	2.87e-05
3310	4.51e-05
3322	2.87e-05
3334	3.69e-05
3346	9.43e-05
3358	6.15e-05
3370	2.87e-05
3382	6.56e-05
3394	5.33e-05
3406	6.15e-05
3418	6.15e-05
3430	5.33e-05
3442	4.92e-05
3454	7.38e-05
3466	6.56e-05
3478	4.92e-05
3490	4.51e-05
3502	5.74e-05
3514	2.87e-05
3526	8.61e-05
3538	8.61e-05
3550	6.56e-05
3562	7.38e-05
3574	6.97e-05
3586	6.56e-05
3598	4.51e-05
3610	6.56e-05
3622	0
3634	9.02e-05
3646	6.97e-05
3658	0.0001025
3670	9.02e-05
3682	0.0001599
3694	9.43e-05
3706	8.2e-05
3718	8.61e-05
3730	7.79e-05
3742	6.15e-05
3754	7.38e-05
3766	0.0001435
3778	0.0001189
3790	0.000123
3802	0.0001312
3814	0.0001681
3826	0.0001722
3838	0.0001394
