Infrared Spectrum: Alpha-Cyanoacetic acid, hydrazide
Formula: C3 H5 N3 O
CAS: 140-87-4
State: SOLID (SPLIT MULL), FLUOROLUBE FOR 3800-1330 CM^-^1, NUJOL FOR 1330-400 CM^-^1
Class: COBLENTZ III
Instrument: DOW KBr FOREPRISM-GRATING
Instrument parameters: BLAZED AT 3.5, 12.0, 20.0 MICRON AND CHANGED AT 5.0, 7.5, 14.9 MICRON
Sampling: TRANSMISSION
Resolution: 2
Origin: DOW CHEMICAL COMPANY
1/CM	TRANSMITTANCE
390	0.557
399	0.5612
408	0.6776
417	0.7664
426	0.7984
435	0.8218
444	0.8357
453	0.8425
462	0.8431
471	0.8931
480	0.9038
489	0.9057
498	0.9052
507	0.904
516	0.9024
525	0.9001
534	0.8933
543	0.8784
552	0.8455
561	0.7898
570	0.3971
579	0.5385
588	0.8945
597	0.898
606	0.8909
615	0.8815
624	0.8725
633	0.8635
642	0.8546
651	0.8443
660	0.778
669	0.8091
678	0.7761
687	0.7424
696	0.6855
705	0.6129
714	0.4208
723	0.2349
732	0.2788
741	0.1777
750	0.2852
759	0.5625
768	0.7084
777	0.7722
786	0.8025
795	0.8243
804	0.8363
813	0.8412
822	0.8404
831	0.8335
840	0.8236
849	0.8139
858	0.8032
867	0.7807
876	0.7535
885	0.7206
894	0.6701
903	0.538
912	0.1834
921	0.3756
930	0.5784
939	0.7492
948	0.6826
957	0.5334
966	0.6376
975	0.6032
984	0.5058
993	0.3656
1002	0.177
1011	0.1446
1020	0.298
1029	0.5726
1038	0.7586
1047	0.8108
1056	0.8021
1065	0.7742
1074	0.7101
1083	0.5672
1092	0.3578
1101	0.1275
1110	0.1713
1119	0.5294
1128	0.6821
1137	0.7503
1146	0.7828
1155	0.8044
1164	0.8154
1173	0.8197
1182	0.8164
1191	0.7999
1200	0.6954
1209	0.781
1218	0.7686
1227	0.7285
1236	0.6749
1245	0.5747
1254	0.3568
1263	0.668
1272	0.6369
1281	0.566
1290	0.5416
1299	0.4572
1308	0.4459
1317	0.4362
1326	0.3782
1335	0.2148
1344	0.159
1353	0.4003
1362	0.6947
1371	0.6818
1380	0.5879
1389	0.3794
1398	0.7207
1407	0.729
1416	0.6993
1425	0.6696
1434	0.641
1443	0.6297
1452	0.628
1461	0.6289
1470	0.6324
1479	0.6309
1488	0.6219
1497	0.6142
1506	0.5696
1515	0.4924
1524	0.3043
1533	0.4127
1542	0.7583
1551	0.7447
1560	0.7078
1569	0.6851
1578	0.6731
1587	0.6347
1596	0.5823
1605	0.4485
1614	0.2602
1623	0.2976
1632	0.5554
1641	0.5269
1650	0.4468
1659	0.3612
1668	0.2557
1677	0.1042
1686	0.0708
1695	0.1034
1704	0.0752
1713	0.2677
1722	0.4474
1731	0.7367
1740	0.8489
1749	0.8949
1758	0.901
1767	0.898
1776	0.8911
1785	0.8843
1794	0.8782
1803	0.8728
1812	0.8677
1821	0.8637
1830	0.8608
1839	0.8601
1848	0.8575
1857	0.8528
1866	0.8485
1875	0.8446
1884	0.8404
1893	0.8359
1902	0.8298
1911	0.8232
1920	0.8175
1929	0.8119
1938	0.8074
1947	0.8028
1956	0.7985
1965	0.7944
1974	0.7903
1983	0.7871
1992	0.7849
2001	0.7878
2010	0.8014
2019	0.8071
2028	0.8046
2037	0.8019
2046	0.7985
2055	0.7934
2064	0.7883
2073	0.7833
2082	0.778
2091	0.7721
2100	0.7669
2109	0.7621
2118	0.7575
2127	0.7532
2136	0.7489
2145	0.7444
2154	0.7397
2163	0.7351
2172	0.7311
2181	0.7271
2190	0.7224
2199	0.7155
2208	0.7088
2217	0.6999
2226	0.6885
2235	0.6686
2244	0.6425
2253	0.5856
2262	0.4449
2271	0.4862
2280	0.7068
2289	0.6944
2298	0.6804
2307	0.6758
2316	0.6734
2325	0.6721
2334	0.671
2343	0.6698
2352	0.6687
2361	0.6664
2370	0.6638
2379	0.6614
2388	0.659
2397	0.6565
2406	0.654
2415	0.6506
2424	0.6475
2433	0.6444
2442	0.6422
2451	0.6405
2460	0.6386
2469	0.6365
2478	0.6331
2487	0.63
2496	0.6287
2505	0.627
2514	0.6242
2523	0.621
2532	0.6178
2541	0.6136
2550	0.6092
2559	0.6046
2568	0.5997
2577	0.5947
2586	0.5903
2595	0.586
2604	0.583
2613	0.5804
2622	0.5773
2631	0.5741
2640	0.571
2649	0.5679
2658	0.5648
2667	0.5616
2676	0.5577
2685	0.5537
2694	0.5496
2703	0.5454
2712	0.5414
2721	0.5377
2730	0.5342
2739	0.5306
2748	0.52
2757	0.5089
2766	0.5019
2775	0.5016
2784	0.5037
2793	0.5006
2802	0.495
2811	0.4889
2820	0.4821
2829	0.4724
2838	0.4618
2847	0.4474
2856	0.4352
2865	0.4377
2874	0.4397
2883	0.4373
2892	0.43
2901	0.4098
2910	0.3832
2919	0.3452
2928	0.2608
2937	0.3048
2946	0.4122
2955	0.3893
2964	0.3664
2973	0.3019
2982	0.2303
2991	0.3524
3000	0.323
3009	0.2952
3018	0.2733
3027	0.2549
3036	0.2639
3045	0.3495
3054	0.3716
3063	0.3659
3072	0.3473
3081	0.3273
3090	0.3078
3099	0.2854
3108	0.2556
3117	0.2239
3126	0.1934
3135	0.1804
3144	0.1928
3153	0.1878
3162	0.1704
3171	0.145
3180	0.1148
3189	0.1092
3198	0.1116
3207	0.1264
3216	0.1592
3225	0.2008
3234	0.2532
3243	0.2841
3252	0.3144
3261	0.3666
3270	0.3789
3279	0.3645
3288	0.3764
3297	0.4982
3306	0.5007
3315	0.493
3324	0.4677
3333	0.4283
3342	0.33
3351	0.1296
3360	0.6024
3369	0.604
3378	0.5922
3387	0.5799
3396	0.5698
3405	0.5634
3414	0.5576
3423	0.5529
3432	0.5483
3441	0.5449
3450	0.5415
3459	0.5382
3468	0.5355
3477	0.5328
3486	0.5301
3495	0.5274
3504	0.5252
3513	0.5229
3522	0.5207
3531	0.5184
3540	0.5162
3549	0.5138
3558	0.5115
3567	0.5092
3576	0.5069
3585	0.5046
3594	0.5023
3603	0.5004
3612	0.4985
3621	0.4967
3630	0.4948
3639	0.4931
3648	0.4915
3657	0.4899
3666	0.4884
3675	0.4868
3684	0.4845
3693	0.4818
3702	0.4791
3711	0.4764
3720	0.4743
3729	0.4724
3738	0.4705
3747	0.4686
3756	0.4664
3765	0.464
3774	0.4617
3783	0.4602
3792	0.4587
