Infrared Spectrum: PRAMOXINE
Formula: C17 H27 N O3
CAS: 140-65-8
State: SOLUTION (CS2 FOR 2-5, C2Cl4 FOR 5-7.5, AND CS2 FOR 7.5-15 MICRONS)
Boiling point: 196 C AT 6 mmHg
Class: COBLENTZ III
Instrument: PERKIN-ELMER 21 (GRATING)
Instrument parameters: FILTER CHANGE AT 10 MICRON
Sampling: TRANSMISSION
Path length: 0.01 CM, 0.01 CM, AND 0.01 CM
Resolution: 2
MICROMETERS	TRANSMITTANCE
2.014	0.989
2.04735	0.989
2.08069	0.988
2.11404	0.986
2.14739	0.985
2.18073	0.984
2.21408	0.984
2.24743	0.984
2.28078	0.984
2.31412	0.964
2.34747	0.953
2.38082	0.959
2.41416	0.963
2.44751	0.961
2.48086	0.955
2.5142	0.958
2.54755	0.958
2.5809	0.961
2.61424	0.967
2.64759	0.972
2.68094	0.973
2.71428	0.973
2.74763	0.973
2.78098	0.978
2.81433	0.985
2.84767	0.984
2.88102	0.983
2.91437	0.982
2.94771	0.982
2.98106	0.98
3.01441	0.979
3.04775	0.977
3.0811	0.974
3.11445	0.971
3.14779	0.965
3.18114	0.959
3.21449	0.94
3.24783	0.889
3.28118	0.834
3.31453	0.85
3.34788	0.65
3.38122	0.163
3.41457	0.099
3.44792	0.175
3.48126	0.201
3.51461	0.168
3.54796	0.363
3.5813	0.323
3.61465	0.47
3.648	0.616
3.68134	0.754
3.71469	0.767
3.74804	0.823
3.78138	0.884
3.81473	0.924
3.84808	0.931
3.88143	0.935
3.91477	0.937
3.94812	0.937
3.98147	0.945
4.01481	0.946
4.04816	0.94
4.08151	0.939
4.11485	0.951
4.1482	0.957
4.18155	0.957
4.21489	0.953
4.24824	0.953
4.28159	0.955
4.31494	0.952
4.34828	0.952
4.38163	0.949
4.41498	0.966
4.44832	0.974
4.48167	0.976
4.51502	0.978
4.54836	0.976
4.58171	0.973
4.61506	0.972
4.6484	0.972
4.68175	0.97
4.7151	0.961
4.74844	0.964
4.78179	0.96
4.81514	0.949
4.84849	0.937
4.88183	0.936
4.91518	0.931
4.94853	0.939
4.98187	0.943
5.01522	0.945
5.04857	0.939
5.08191	0.946
5.11526	0.954
5.14861	0.957
5.18195	0.957
5.2153	0.964
5.24865	0.972
5.28199	0.972
5.31534	0.955
5.34869	0.955
5.38204	0.966
5.41538	0.945
5.44873	0.935
5.48208	0.965
5.51542	0.971
5.54877	0.967
5.58212	0.965
5.61546	0.973
5.64881	0.977
5.68216	0.977
5.7155	0.978
5.74885	0.976
5.7822	0.97
5.81554	0.97
5.84889	0.974
5.88224	0.976
5.91559	0.978
5.94893	0.98
5.98228	0.982
6.01563	0.983
6.04897	0.983
6.08232	0.979
6.11567	0.974
6.14901	0.964
6.18236	0.931
6.21571	0.924
6.24905	0.921
6.2824	0.836
6.31575	0.906
6.3491	0.918
6.38244	0.941
6.41579	0.945
6.44914	0.931
6.48248	0.854
6.51583	0.706
6.54918	0.474
6.58252	0.109
6.61587	0.102
6.64922	0.522
6.68256	0.653
6.71591	0.584
6.74926	0.276
6.7826	0.223
6.81595	0.344
6.8493	0.482
6.88265	0.497
6.91599	0.696
6.94934	0.696
6.98269	0.805
7.01603	0.844
7.04938	0.871
7.08273	0.795
7.11607	0.678
7.14942	0.585
7.18277	0.538
7.21611	0.606
7.24946	0.687
7.28281	0.693
7.31615	0.694
7.3495	0.651
7.38285	0.603
7.4162	0.743
7.44954	0.754
7.48289	0.711
7.51624	0.664
7.54958	0.626
7.58293	0.581
7.61628	0.552
7.64962	0.445
7.68297	0.379
7.71632	0.423
7.74966	0.44
7.78301	0.399
7.81636	0.406
7.8497	0.411
7.88305	0.4
7.9164	0.46
7.94975	0.471
7.98309	0.372
8.01644	0.258
8.04979	0.146
8.08313	0.042
8.11648	0.026
8.14983	0.022
8.18317	0.028
8.21652	0.042
8.24987	0.05
8.28321	0.057
8.31656	0.079
8.34991	0.217
8.38326	0.454
8.4166	0.602
8.44995	0.704
8.4833	0.729
8.51664	0.707
8.54999	0.658
8.58334	0.65
8.61668	0.658
8.65003	0.651
8.68338	0.545
8.71672	0.344
8.75007	0.21
8.78342	0.251
8.81676	0.372
8.85011	0.35
8.88346	0.212
8.91681	0.039
8.95015	0.039
8.9835	0.162
9.01685	0.307
9.05019	0.355
9.08354	0.495
9.11689	0.591
9.15023	0.647
9.18358	0.655
9.21693	0.638
9.25027	0.582
9.28362	0.431
9.31697	0.315
9.35031	0.236
9.38366	0.27
9.41701	0.305
9.45036	0.35
9.4837	0.386
9.51705	0.368
9.5504	0.303
9.58374	0.207
9.61709	0.2
9.65044	0.244
9.68378	0.255
9.71713	0.291
9.75048	0.352
9.78382	0.461
9.81717	0.513
9.85052	0.448
9.88386	0.357
9.91721	0.427
9.95056	0.494
9.98391	0.525
10.0173	0.484
10.0506	0.562
10.0839	0.636
10.1173	0.702
10.1506	0.724
10.184	0.719
10.2173	0.663
10.2507	0.575
10.284	0.559
10.3174	0.579
10.3507	0.564
10.3841	0.523
10.4174	0.533
10.4508	0.578
10.4841	0.632
10.5175	0.688
10.5508	0.725
10.5841	0.762
10.6175	0.794
10.6508	0.824
10.6842	0.84
10.7175	0.846
10.7509	0.852
10.7842	0.849
10.8176	0.836
10.8509	0.799
10.8843	0.668
10.9176	0.628
10.951	0.642
10.9843	0.678
11.0177	0.696
11.051	0.699
11.0844	0.704
11.1177	0.71
11.151	0.717
11.1844	0.718
11.2177	0.717
11.2511	0.726
11.2844	0.737
11.3178	0.747
11.3511	0.748
11.3845	0.743
11.4178	0.72
11.4512	0.701
11.4845	0.681
11.5179	0.652
11.5512	0.562
11.5846	0.47
11.6179	0.453
11.6512	0.473
11.6846	0.519
11.7179	0.556
11.7513	0.603
11.7846	0.646
11.818	0.684
11.8513	0.69
11.8847	0.693
11.918	0.682
11.9514	0.653
11.9847	0.61
12.0181	0.532
12.0514	0.445
12.0848	0.321
12.1181	0.163
12.1515	0.099
12.1848	0.119
12.2181	0.17
12.2515	0.238
12.2848	0.369
12.3182	0.482
12.3515	0.568
12.3849	0.656
12.4182	0.714
12.4516	0.733
12.4849	0.741
12.5183	0.749
12.5516	0.755
12.585	0.76
12.6183	0.762
12.6517	0.747
12.685	0.705
12.7184	0.664
12.7517	0.646
12.785	0.682
12.8184	0.705
12.8517	0.717
12.8851	0.711
12.9184	0.708
12.9518	0.711
12.9851	0.726
13.0185	0.754
13.0518	0.785
13.0852	0.805
13.1185	0.818
13.1519	0.819
13.1852	0.818
13.2186	0.805
13.2519	0.784
13.2852	0.762
13.3186	0.741
13.3519	0.735
13.3853	0.736
13.4186	0.733
13.452	0.719
13.4853	0.702
13.5187	0.689
13.552	0.674
13.5854	0.671
13.6187	0.686
13.6521	0.702
13.6854	0.705
13.7188	0.705
13.7521	0.702
13.7855	0.698
13.8188	0.712
13.8521	0.729
13.8855	0.754
13.9188	0.776
13.9522	0.804
13.9855	0.826
14.0189	0.853
14.0522	0.861
14.0856	0.872
14.1189	0.878
14.1523	0.886
14.1856	0.899
14.219	0.903
14.2523	0.908
14.2857	0.924
14.319	0.931
14.3523	0.942
14.3857	0.952
14.419	0.957
14.4524	0.961
14.4857	0.964
14.5191	0.966
14.5524	0.968
14.5858	0.971
14.6191	0.976
14.6525	0.979
14.6858	0.982
14.7192	0.98
14.7525	0.977
14.7859	0.966
14.8192	0.949
14.8526	0.937
14.8859	0.942
14.9192	0.948
