Infrared Spectrum: 2-ACETAMIDE-5-NITROTHIAZOLE
Formula: C5 H5 N3 O3 S
CAS: 140-40-9
Class: COBLENTZ
Instrument: Not specified, most likely a prism, grating, or hybrid spectrometer.
Sampling: TRANSMISSION
Resolution: 4
Origin: TENNESSEE EASTMAN COMPANY, RESEARCH LABORATORIES
MICROMETERS	TRANSMITTANCE
1.993	0.674
2.03294	0.681
2.07288	0.689
2.11282	0.697
2.15276	0.71
2.1927	0.72
2.23264	0.724
2.27258	0.73
2.31252	0.737
2.35246	0.74
2.3924	0.747
2.43234	0.755
2.47228	0.759
2.51222	0.762
2.55216	0.765
2.5921	0.767
2.63204	0.772
2.67198	0.777
2.71192	0.779
2.75186	0.735
2.7918	0.691
2.83174	0.651
2.87168	0.621
2.91162	0.602
2.95156	0.622
2.9915	0.659
3.03144	0.689
3.07138	0.652
3.11132	0.662
3.15126	0.589
3.1912	0.362
3.23114	0.509
3.27108	0.574
3.31102	0.581
3.35096	0.458
3.3909	0.36
3.43084	0.438
3.47078	0.529
3.51072	0.566
3.55066	0.642
3.5906	0.687
3.63054	0.679
3.67048	0.687
3.71042	0.727
3.75036	0.755
3.7903	0.797
3.83024	0.822
3.87018	0.828
3.91012	0.848
3.95006	0.852
3.99	0.85
4.02994	0.857
4.06988	0.857
4.10982	0.867
4.14976	0.88
4.1897	0.883
4.22964	0.888
4.26958	0.878
4.30952	0.87
4.34946	0.877
4.3894	0.898
4.42934	0.906
4.46928	0.906
4.50922	0.911
4.54916	0.918
4.5891	0.92
4.62904	0.92
4.66898	0.923
4.70892	0.923
4.74886	0.925
4.7888	0.928
4.82874	0.928
4.86868	0.928
4.90862	0.928
4.94856	0.928
4.9885	0.933
5.02844	0.936
5.06838	0.928
5.10832	0.926
5.14826	0.928
5.1882	0.928
5.22814	0.933
5.26808	0.933
5.30802	0.931
5.34796	0.928
5.3879	0.93
5.42784	0.928
5.46778	0.926
5.50772	0.921
5.54766	0.872
5.5876	0.89
5.62754	0.901
5.66748	0.89
5.70742	0.882
5.74736	0.852
5.7873	0.77
5.82724	0.398
5.86718	0.232
5.90712	0.689
5.94706	0.755
5.987	0.757
6.02694	0.769
6.06688	0.75
6.10682	0.734
6.14676	0.734
6.1867	0.739
6.22664	0.742
6.26658	0.694
6.30652	0.641
6.34646	0.503
6.3864	0.245
6.42634	0.131
6.46628	0.259
6.50622	0.308
6.54616	0.26
6.5861	0.323
6.62604	0.299
6.66598	0.096
6.70592	0.086
6.74586	0.207
6.7858	0.465
6.82574	0.612
6.86568	0.636
6.90562	0.451
6.94556	0.451
6.9855	0.609
7.02544	0.659
7.06538	0.712
7.10532	0.754
7.14526	0.757
7.1852	0.727
7.22514	0.672
7.26507	0.599
7.30501	0.443
7.34495	0.247
7.38489	0.073
7.42483	0.028
7.46477	0.21
7.50471	0.559
7.54465	0.632
7.58459	0.186
7.62453	0.176
7.66447	0.491
7.70441	0.528
7.74435	0.649
7.78429	0.629
7.82423	0.563
7.86417	0.579
7.90411	0.717
7.94405	0.799
7.98399	0.813
8.02393	0.779
8.06387	0.722
8.10381	0.558
8.14375	0.222
8.18369	0.038
8.22363	0.051
8.26357	0.26
8.30351	0.411
8.34345	0.583
8.38339	0.589
8.42333	0.332
8.46327	0.056
8.50321	0.35
8.54315	0.642
8.58309	0.707
8.62303	0.745
8.66297	0.767
8.70291	0.78
8.74285	0.785
8.78279	0.73
8.82273	0.458
8.86267	0.526
8.90261	0.712
8.94255	0.765
8.98249	0.777
9.02243	0.784
9.06237	0.785
9.10231	0.787
9.14225	0.794
9.18219	0.799
9.22213	0.803
9.26207	0.805
9.30201	0.803
9.34195	0.799
9.38189	0.803
9.42183	0.812
9.46177	0.815
9.50171	0.803
9.54165	0.754
9.58159	0.689
9.62153	0.754
9.66147	0.8
9.70141	0.82
9.74135	0.83
9.78129	0.833
9.82123	0.838
9.86117	0.837
9.90111	0.822
9.94105	0.8
9.98099	0.707
10.0209	0.539
10.0609	0.498
10.1008	0.667
10.1408	0.767
10.1807	0.789
10.2206	0.775
10.2606	0.661
10.3005	0.543
10.3405	0.568
10.3804	0.707
10.4203	0.799
10.4603	0.825
10.5002	0.853
10.5402	0.867
10.5801	0.87
10.62	0.883
10.66	0.888
10.6999	0.89
10.7399	0.898
10.7798	0.898
10.8197	0.898
10.8597	0.9
10.8996	0.898
10.9396	0.897
10.9795	0.852
11.0194	0.682
11.0594	0.7
11.0993	0.843
11.1393	0.868
11.1792	0.882
11.2191	0.89
11.2591	0.901
11.299	0.905
11.339	0.908
11.3789	0.91
11.4188	0.908
11.4588	0.91
11.4987	0.908
11.5387	0.905
11.5786	0.908
11.6185	0.903
11.6585	0.898
11.6984	0.89
11.7384	0.888
11.7783	0.878
11.8182	0.87
11.8582	0.857
11.8981	0.842
11.9381	0.827
11.978	0.81
12.0179	0.789
12.0579	0.762
12.0978	0.712
12.1378	0.576
12.1777	0.335
12.2176	0.44
12.2576	0.646
12.2975	0.694
12.3375	0.704
12.3774	0.709
12.4173	0.691
12.4573	0.627
12.4972	0.495
12.5371	0.446
12.5771	0.566
12.617	0.621
12.657	0.637
12.6969	0.642
12.7368	0.646
12.7768	0.652
12.8167	0.659
12.8567	0.679
12.8966	0.702
12.9365	0.724
12.9765	0.739
13.0164	0.754
13.0564	0.779
13.0963	0.787
13.1362	0.795
13.1762	0.802
13.2161	0.815
13.2561	0.817
13.296	0.817
13.3359	0.817
13.3759	0.789
13.4158	0.612
13.4558	0.529
13.4957	0.702
13.5356	0.799
13.5756	0.825
13.6155	0.833
13.6555	0.838
13.6954	0.845
13.7353	0.848
13.7753	0.847
13.8152	0.845
13.8552	0.843
13.8951	0.843
13.935	0.837
13.975	0.827
14.0149	0.808
14.0549	0.769
14.0948	0.71
14.1347	0.679
14.1747	0.684
14.2146	0.725
14.2546	0.759
14.2945	0.784
14.3344	0.795
14.3744	0.803
14.4143	0.808
14.4543	0.812
14.4942	0.81
14.5341	0.807
14.5741	0.802
14.614	0.799
14.654	0.795
14.6939	0.777
14.7338	0.752
14.7738	0.71
14.8137	0.666
14.8537	0.634
14.8936	0.631
14.9335	0.634
14.9735	0.666
15.0134	0.694
15.0534	0.712
15.0933	0.714
15.1332	0.707
15.1732	0.699
15.2131	0.687
15.2531	0.676
15.293	0.669
15.3329	0.644
15.3729	0.637
15.4128	0.631
15.4528	0.612
15.4927	0.591
15.5326	0.568
15.5726	0.559
15.6125	0.551
15.6525	0.549
15.6924	0.554
15.7323	0.563
15.7723	0.563
15.8122	0.561
15.8522	0.559
15.8921	0.556
15.932	0.553
15.972	0.548
