Infrared Spectrum: N,N'-Dibenzylethylenediamine
Formula: C 16 H 20 N 2
CAS: 140-28-3
State: gas
Origin: EPA-IR VAPOR PHASE LIBRARY
1/CM	ABSORBANCE
501.5	0.00197
513.074	0.0018
524.648	0.00225
536.222	0.00243
547.796	0.00257
559.37	0.00325
570.944	0.00392
582.518	0.00466
594.092	0.00536
605.666	0.00505
617.24	0.00439
628.814	0.00453
640.388	0.00524
651.962	0.00658
663.536	0.00914
675.11	0.01339
686.684	0.0217
698.258	0.03287
709.832	0.02557
721.406	0.02408
732.98	0.02855
744.554	0.02232
756.128	0.01246
767.702	0.00684
779.276	0.00462
790.85	0.0045
802.423	0.00452
813.997	0.00424
825.571	0.00352
837.145	0.00292
848.719	0.00275
860.293	0.00267
871.867	0.00252
883.441	0.00262
895.015	0.00323
906.589	0.00392
918.163	0.00307
929.737	0.00268
941.311	0.00252
952.885	0.00271
964.459	0.00312
976.033	0.00344
987.607	0.00336
999.181	0.00342
1010.76	0.00398
1022.33	0.00704
1033.9	0.00605
1045.48	0.00406
1057.05	0.00485
1068.63	0.00584
1080.2	0.00677
1091.77	0.00875
1103.35	0.01351
1114.92	0.01923
1126.49	0.01789
1138.07	0.01272
1149.64	0.00747
1161.22	0.00476
1172.79	0.0042
1184.36	0.00472
1195.94	0.00605
1207.51	0.00475
1219.09	0.00376
1230.66	0.00366
1242.23	0.00368
1253.81	0.0038
1265.38	0.00373
1276.96	0.00389
1288.53	0.0043
1300.1	0.0048
1311.68	0.00556
1323.25	0.00718
1334.83	0.00924
1346.4	0.00984
1357.97	0.0089
1369.55	0.00566
1381.12	0.00403
1392.7	0.00306
1404.27	0.00295
1415.84	0.00388
1427.42	0.00663
1438.99	0.01324
1450.57	0.02295
1462.14	0.02192
1473.71	0.01174
1485.29	0.00812
1496.86	0.00969
1508.44	0.00345
1520.01	0.00191
1531.58	0.00166
1543.16	0.00149
1554.73	0.00135
1566.31	0.00152
1577.88	0.00192
1589.45	0.00292
1601.03	0.00385
1612.6	0.00239
1624.18	0.00123
1635.75	0.00103
1647.32	0.00111
1658.9	0.0009356
1670.47	0.0007413
1682.05	0.0006344
1693.62	0.0006631
1705.19	0.0007016
1716.77	0.0007671
1728.34	0.0008911
1739.92	0.0009629
1751.49	0.0008948
1763.06	0.0008587
1774.64	0.00108
1786.21	0.00149
1797.79	0.00221
1809.36	0.0015
1820.93	0.0011
1832.51	0.0009409
1844.08	0.00102
1855.66	0.00126
1867.23	0.00149
1878.8	0.00143
1890.38	0.0009543
1901.95	0.0007649
1913.53	0.0008519
1925.1	0.00121
1936.67	0.00176
1948.25	0.00187
1959.82	0.00125
1971.4	0.0005923
1982.97	0.0004735
1994.54	0.0004111
2006.12	0.0003941
2017.69	0.0003569
2029.27	0.0003118
2040.84	0.0003305
2052.41	0.0003315
2063.99	0.0003672
2075.56	0.0003609
2087.14	0.0003559
2098.71	0.0003517
2110.28	0.0003329
2121.86	0.0003328
2133.43	0.0002914
2145.01	0.0003039
2156.58	0.0003045
2168.15	0.0003129
2179.73	0.0003419
2191.3	0.0003455
2202.88	0.0003393
2214.45	0.0003419
2226.02	0.0003453
2237.6	0.0003442
2249.17	0.0003493
2260.74	0.0003115
2272.32	0.0003406
2283.89	0.000351
2295.47	0.000369
2307.04	0.0004812
2318.61	0.0005128
2330.19	0.0004953
2341.76	0.0004358
2353.34	0.0004182
2364.91	0.0003819
2376.48	0.0003735
2388.06	0.0003614
2399.63	0.000349
2411.21	0.0003538
2422.78	0.0003992
2434.35	0.0003686
2445.93	0.0003797
2457.5	0.0003931
2469.08	0.0003786
2480.65	0.0004276
2492.22	0.0004278
2503.8	0.0004249
2515.37	0.0004609
2526.95	0.0005081
2538.52	0.0005491
2550.09	0.000597
2561.67	0.0007014
2573.24	0.0007383
2584.82	0.0008426
2596.39	0.0008773
2607.96	0.0009173
2619.54	0.00103
2631.11	0.00118
2642.69	0.00134
2654.26	0.00152
2665.83	0.00176
2677.41	0.0021
2688.98	0.00246
2700.56	0.00273
2712.13	0.00279
2723.7	0.00304
2735.28	0.00351
2746.85	0.00395
2758.43	0.00446
2770	0.00566
2781.57	0.00826
2793.15	0.01239
2804.72	0.01749
2816.3	0.02222
2827.87	0.02466
2839.44	0.02271
2851.02	0.01822
2862.59	0.01523
2874.17	0.01467
2885.74	0.01648
2897.31	0.0178
2908.89	0.01832
2920.46	0.01984
2932.04	0.01956
2943.61	0.01616
2955.18	0.01002
2966.76	0.00513
2978.33	0.00323
2989.91	0.00282
3001.48	0.0041
3013.05	0.00723
3024.63	0.01461
3036.2	0.01787
3047.78	0.01211
3059.35	0.01387
3070.92	0.02136
3082.5	0.01345
3094.07	0.00888
3105.65	0.00535
3117.22	0.00278
3128.79	0.0013
3140.37	0.0008159
3151.94	0.0006957
3163.52	0.0007257
3175.09	0.0005535
3186.66	0.0003983
3198.24	0.0003742
3209.81	0.0003697
3221.39	0.0003765
3232.96	0.0003918
3244.53	0.0003508
3256.11	0.000315
3267.68	0.0003594
3279.26	0.0004142
3290.83	0.0004122
3302.4	0.0004415
3313.98	0.0005682
3325.55	0.000853
3337.13	0.00123
3348.7	0.00131
3360.27	0.0012
3371.85	0.0009568
3383.42	0.0008595
3395	0.0006583
3406.57	0.0005053
3418.14	0.0004812
3429.72	0.0004457
3441.29	0.0003882
3452.86	0.0003425
3464.44	0.0002564
3476.01	0.0003243
3487.59	0.0003218
3499.16	0.0002532
3510.73	0.0002772
3522.31	0.0003538
3533.88	0.0003612
3545.46	0.0003562
3557.03	0.0003041
3568.6	0.00027
3580.18	0.0002917
3591.75	0.0002593
3603.33	0.0002605
3614.9	0.0003614
3626.47	0.0004096
3638.05	0.0004477
3649.62	0.0004571
3661.2	0.0005207
3672.77	0.0004349
3684.34	0.0003789
3695.92	0.0004454
3707.49	0.0003908
3719.07	0.0003766
3730.64	0.0003538
3742.21	0.0003462
3753.79	0.0003636
3765.36	0.0002643
3776.94	0.0003456
3788.51	0.0003614
3800.08	0.0004528
3811.66	0.0003741
3823.23	0.0004392
3834.81	0.00037
3846.38	0.0003851
3857.95	0.0004227
3869.53	0.0004469
3881.1	0.0004107
3892.68	0.0004542
3904.25	0.0004081
3915.82	0.0004708
3927.4	0.0005145
3938.97	0.0004691
3950.55	0.0005221
3962.12	0.0004477
3973.69	0.0005003
3985.27	0.0004729
3996.84	0.0005242
