Infrared Spectrum: 9-Octadecenoic, d-12-acetoxy-, (Z), butyl ester
Formula: C24 H44 O4
CAS: 140-04-5
State: SOLUTION (10% CCl4 FOR 2.7-7.5, CS2 FOR 7.5-26 MICRON) VS SOLVENT
Class: COBLENTZ III
Instrument: DOW KBr FOREPRISM-GRATING
Instrument parameters: BLAZED AT 3.5, 12.0, 20.0 MICRON AND CHANGED AT 5.0, 7.5, 14.9 MICRON
Sampling: TRANSMISSION
Path length: 0.011 CM, 0.011 CM
Resolution: 2
Origin: DOW CHEMICAL COMPANY
1/CM	TRANSMITTANCE
3792	0.8653
3783	0.8645
3774	0.8638
3765	0.863
3756	0.8625
3747	0.8618
3738	0.8617
3729	0.8617
3720	0.8617
3711	0.862
3702	0.8625
3693	0.863
3684	0.8636
3675	0.8621
3666	0.8595
3657	0.8597
3648	0.8607
3639	0.8613
3630	0.8607
3621	0.8582
3612	0.8535
3603	0.8501
3594	0.8487
3585	0.849
3576	0.8494
3567	0.8495
3558	0.8495
3549	0.8491
3540	0.8468
3531	0.8435
3522	0.84
3513	0.8383
3504	0.838
3495	0.8385
3486	0.8393
3477	0.8418
3468	0.8437
3459	0.8439
3450	0.8417
3441	0.8377
3432	0.8364
3423	0.8402
3414	0.8478
3405	0.8558
3396	0.8618
3387	0.8648
3378	0.8657
3369	0.8665
3360	0.8673
3351	0.8678
3342	0.8684
3333	0.8689
3324	0.8694
3315	0.8698
3306	0.8702
3297	0.8705
3288	0.871
3279	0.8712
3270	0.8709
3261	0.8706
3252	0.8704
3243	0.8701
3234	0.8698
3225	0.8695
3216	0.8692
3207	0.8681
3198	0.867
3189	0.8658
3180	0.8646
3171	0.8635
3162	0.8627
3153	0.8618
3144	0.8612
3135	0.8604
3126	0.8588
3117	0.8571
3108	0.8547
3099	0.8504
3090	0.8459
3081	0.8407
3072	0.8356
3063	0.8304
3054	0.8251
3045	0.8165
3036	0.8039
3027	0.7803
3018	0.6515
3009	0.5519
3000	0.5729
2991	0.6015
2982	0.4934
2973	0.3221
2964	0.151
2955	0.077
2946	0.0763
2937	0.0705
2928	0.0371
2919	0.0297
2910	0.0695
2901	0.1533
2892	0.2371
2883	0.3209
2874	0.3309
2865	0.2162
2856	0.1056
2847	0.2482
2838	0.4666
2829	0.6051
2820	0.6718
2811	0.7275
2802	0.7583
2793	0.7783
2784	0.7922
2775	0.8036
2766	0.8142
2757	0.821
2748	0.8251
2739	0.8265
2730	0.8234
2721	0.8209
2712	0.822
2703	0.8234
2694	0.8251
2685	0.8268
2676	0.8277
2667	0.8278
2658	0.8291
2649	0.8303
2640	0.8323
2631	0.8348
2622	0.8374
2613	0.8399
2604	0.8425
2595	0.8449
2586	0.8474
2577	0.8499
2568	0.8524
2559	0.8546
2550	0.8566
2541	0.8587
2532	0.8607
2523	0.8625
2514	0.8643
2505	0.8661
2496	0.8678
2487	0.8691
2478	0.8701
2469	0.8711
2460	0.8721
2451	0.873
2442	0.8739
2433	0.8742
2424	0.8742
2415	0.8741
2406	0.8745
2397	0.8749
2388	0.8755
2379	0.8758
2370	0.8762
2361	0.8762
2352	0.8763
2343	0.8767
2334	0.8768
2325	0.8764
2316	0.8724
2307	0.8697
2298	0.8691
2289	0.8695
2280	0.8699
2271	0.8711
2262	0.8724
2253	0.8738
2244	0.8758
2235	0.8777
2226	0.8786
2217	0.8793
2208	0.8798
2199	0.8797
2190	0.8797
2181	0.8839
2172	0.8834
2163	0.8803
2154	0.8808
2145	0.8811
2136	0.8812
2127	0.8808
2118	0.8805
2109	0.8797
2100	0.8783
2091	0.8768
2082	0.8761
2073	0.8753
2064	0.8747
2055	0.8744
2046	0.8741
2037	0.8737
2028	0.8734
2019	0.8735
2010	0.8736
2001	0.8737
1992	0.874
1983	0.8742
1974	0.8746
1965	0.8749
1956	0.874
1947	0.873
1938	0.8721
1929	0.8718
1920	0.8715
1911	0.8711
1902	0.8703
1893	0.8693
1884	0.8682
1875	0.8668
1866	0.8655
1857	0.8641
1848	0.863
1839	0.8613
1830	0.8568
1821	0.8527
1812	0.846
1803	0.8356
1794	0.8212
1785	0.7967
1776	0.7628
1767	0.7098
1758	0.5817
1749	0.2165
1740	0.045
1731	0.008
1722	0.07
1713	0.2663
1704	0.4098
1695	0.5886
1686	0.6728
1677	0.739
1668	0.7619
1659	0.7758
1650	0.7765
1641	0.7956
1632	0.8176
1623	0.8354
1614	0.8464
1605	0.8524
1596	0.8555
1587	0.8555
1578	0.8545
1569	0.8535
1560	0.8561
1551	0.8597
1542	0.8613
1533	0.858
1524	0.8481
1515	0.8396
1506	0.827
1497	0.8095
1488	0.7837
1479	0.7378
1470	0.3596
1461	0.341
1452	0.408
1443	0.4941
1434	0.4977
1425	0.5704
1416	0.5892
1407	0.6362
1398	0.636
1389	0.5155
1380	0.3609
1371	0.2729
1362	0.401
1353	0.4551
1344	0.5297
1335	0.5874
1326	0.5936
1317	0.5773
1308	0.5484
1299	0.5258
1290	0.5121
1281	0.4586
1272	0.3891
1263	0.3157
1254	0.2269
1245	0.1185
1236	0.0281
1227	0.0556
1218	0.1555
1209	0.2562
1200	0.3366
1191	0.3312
1182	0.288
1173	0.248
1164	0.258
1155	0.3328
1146	0.4058
1137	0.443
1128	0.4683
1119	0.4844
1110	0.5097
1101	0.5285
1092	0.5056
1083	0.4967
1074	0.5114
1065	0.5075
1056	0.4665
1047	0.476
1038	0.4624
1029	0.4198
1020	0.3287
1011	0.3414
1002	0.5321
993	0.6229
984	0.6551
975	0.6614
966	0.6454
957	0.6096
948	0.6397
939	0.6494
930	0.6767
921	0.7338
912	0.7535
903	0.7668
894	0.7789
885	0.7871
876	0.7847
867	0.7733
858	0.7731
849	0.7781
840	0.7701
831	0.7593
822	0.7639
813	0.7861
804	0.804
795	0.8204
786	0.8221
777	0.822
768	0.8146
759	0.7935
750	0.7678
741	0.7394
732	0.6598
723	0.6185
714	0.6721
705	0.7332
696	0.7525
687	0.7696
678	0.7991
669	0.8245
660	0.8292
651	0.8178
642	0.8034
633	0.7915
624	0.785
615	0.7756
606	0.7442
597	0.7418
588	0.7625
579	0.7787
570	0.791
561	0.8005
552	0.8069
543	0.8101
534	0.8093
525	0.7978
516	0.7951
507	0.7937
498	0.7926
489	0.7919
480	0.7914
471	0.7908
462	0.7899
453	0.7856
444	0.7826
435	0.7818
426	0.7822
417	0.7842
408	0.7861
399	0.7872
390	0.7876
