Infrared Spectrum: 9-Octadecenoic acid, d-12-acetoxy-, (Z), methyl ester
Formula: C21 H38 O4
CAS: 140-03-4
State: SOLUTION (10% CCl4 FOR 2.7-7.5, CS2 FOR 7.5-26 MICRON) VS SOLVENT
Class: COBLENTZ III
Instrument: DOW KBr FOREPRISM-GRATING
Instrument parameters: BLAZED AT 3.5, 12.0, 20.0 MICRON AND CHANGED AT 5.0, 7.5, 14.9 MICRON
Sampling: TRANSMISSION
Path length: 0.011 CM, 0.011 CM
Resolution: 2
Origin: DOW CHEMICAL COMPANY
1/CM	TRANSMITTANCE
3798	0.8499
3789	0.8538
3780	0.8571
3771	0.8592
3762	0.8608
3753	0.8617
3744	0.8612
3735	0.8599
3726	0.8565
3717	0.8564
3708	0.8592
3699	0.861
3690	0.8618
3681	0.8618
3672	0.8606
3663	0.8554
3654	0.8545
3645	0.8562
3636	0.8577
3627	0.8544
3618	0.8521
3609	0.8421
3600	0.8357
3591	0.838
3582	0.8398
3573	0.8403
3564	0.8395
3555	0.837
3546	0.8338
3537	0.8298
3528	0.8247
3519	0.8196
3510	0.8171
3501	0.8183
3492	0.8207
3483	0.8224
3474	0.8238
3465	0.8244
3456	0.8231
3447	0.8193
3438	0.8178
3429	0.8214
3420	0.8289
3411	0.8362
3402	0.8416
3393	0.846
3384	0.8482
3375	0.8503
3366	0.8521
3357	0.8531
3348	0.854
3339	0.855
3330	0.8556
3321	0.8562
3312	0.8568
3303	0.8575
3294	0.8582
3285	0.8589
3276	0.8595
3267	0.86
3258	0.8605
3249	0.8601
3240	0.8597
3231	0.8592
3222	0.8587
3213	0.858
3204	0.8568
3195	0.8557
3186	0.8546
3177	0.853
3168	0.8514
3159	0.8498
3150	0.8478
3141	0.846
3132	0.8438
3123	0.8414
3114	0.838
3105	0.8343
3096	0.8313
3087	0.8268
3078	0.8215
3069	0.8135
3060	0.8041
3051	0.7958
3042	0.7882
3033	0.7645
3024	0.7162
3015	0.548
3006	0.5209
2997	0.554
2988	0.5615
2979	0.5228
2970	0.3104
2961	0.1359
2952	0.0967
2943	0.0749
2934	0.0336
2925	0.0264
2916	0.0456
2907	0.1199
2898	0.2156
2889	0.3112
2880	0.3859
2871	0.302
2862	0.1789
2853	0.1036
2844	0.3194
2835	0.4798
2826	0.6095
2817	0.6878
2808	0.7325
2799	0.7581
2790	0.7768
2781	0.7925
2772	0.8044
2763	0.8108
2754	0.8146
2745	0.8161
2736	0.8178
2727	0.8181
2718	0.8188
2709	0.8203
2700	0.8212
2691	0.8214
2682	0.821
2673	0.8202
2664	0.8213
2655	0.8239
2646	0.8268
2637	0.8299
2628	0.8325
2619	0.8352
2610	0.8378
2601	0.8406
2592	0.8435
2583	0.8463
2574	0.8492
2565	0.852
2556	0.8548
2547	0.857
2538	0.8594
2529	0.8616
2520	0.864
2511	0.866
2502	0.868
2493	0.8691
2484	0.8697
2475	0.8694
2466	0.8696
2457	0.8705
2448	0.8723
2439	0.8743
2430	0.8768
2421	0.8784
2412	0.8794
2403	0.8788
2394	0.8771
2385	0.8766
2376	0.8771
2367	0.8778
2358	0.8786
2349	0.8793
2340	0.8801
2331	0.8801
2322	0.8777
2313	0.8723
2304	0.8685
2295	0.8683
2286	0.8695
2277	0.8706
2268	0.8728
2259	0.8759
2250	0.8784
2241	0.8788
2232	0.8793
2223	0.8795
2214	0.8796
2205	0.8795
2196	0.8795
2187	0.8804
2178	0.888
2169	0.889
2160	0.8802
2151	0.8803
2142	0.8806
2133	0.8806
2124	0.8805
2115	0.8804
2106	0.8801
2097	0.8781
2088	0.8758
2079	0.8728
2070	0.8716
2061	0.8708
2052	0.8704
2043	0.8706
2034	0.8713
2025	0.8717
2016	0.8716
2007	0.8691
1998	0.8698
1989	0.8732
1980	0.8745
1971	0.8756
1962	0.8766
1953	0.8775
1944	0.8786
1935	0.8798
1926	0.8797
1917	0.8784
1908	0.8759
1899	0.8724
1890	0.8706
1881	0.869
1872	0.8677
1863	0.866
1854	0.8641
1845	0.8621
1836	0.859
1827	0.8548
1818	0.8475
1809	0.8356
1800	0.8215
1791	0.8035
1782	0.7784
1773	0.7344
1764	0.634
1755	0.4226
1746	0.0882
1737	0.009
1728	0.0125
1719	0.1431
1710	0.3051
1701	0.4209
1692	0.5764
1683	0.6868
1674	0.734
1665	0.7628
1656	0.7771
1647	0.7808
1638	0.8001
1629	0.8158
1620	0.8283
1611	0.8382
1602	0.8434
1593	0.8468
1584	0.8491
1575	0.8497
1566	0.8498
1557	0.8505
1548	0.8512
1539	0.8513
1530	0.8495
1521	0.8438
1512	0.835
1503	0.8239
1494	0.8071
1485	0.7871
1476	0.7138
1467	0.342
1458	0.3491
1449	0.4356
1440	0.348
1431	0.4697
1422	0.5526
1413	0.5908
1404	0.6267
1395	0.6475
1386	0.5255
1377	0.2734
1368	0.3207
1359	0.4106
1350	0.4891
1341	0.5696
1332	0.5918
1323	0.5965
1314	0.5688
1305	0.5588
1296	0.5329
1287	0.4971
1278	0.4181
1269	0.3656
1260	0.2735
1251	0.1542
1242	0.0328
1233	0.0256
1224	0.1305
1215	0.2355
1206	0.2967
1197	0.2928
1188	0.3101
1179	0.3438
1170	0.274
1161	0.3197
1152	0.4012
1143	0.4616
1134	0.5078
1125	0.5312
1116	0.5417
1107	0.5648
1098	0.5692
1089	0.5567
1080	0.5559
1071	0.567
1062	0.5539
1053	0.532
1044	0.5016
1035	0.4693
1026	0.3692
1017	0.3128
1008	0.4531
999	0.5843
990	0.6307
981	0.6646
972	0.6772
963	0.6767
954	0.6831
945	0.7058
936	0.7083
927	0.748
918	0.7718
909	0.7768
900	0.7861
891	0.7924
882	0.7742
873	0.7621
864	0.7611
855	0.7615
846	0.7626
837	0.7532
828	0.7525
819	0.7953
810	0.8236
801	0.8238
792	0.8241
783	0.8248
774	0.8202
765	0.7996
756	0.7792
747	0.7549
738	0.7071
729	0.6144
720	0.6266
711	0.7007
702	0.7276
693	0.7515
684	0.7915
675	0.813
666	0.8493
657	0.8482
648	0.8298
639	0.8143
630	0.8115
621	0.7978
612	0.7674
603	0.7545
594	0.7686
585	0.7875
576	0.8047
567	0.8185
558	0.8277
549	0.8342
540	0.8375
531	0.8306
522	0.8228
513	0.8215
504	0.8217
495	0.8212
486	0.8201
477	0.8168
468	0.8131
459	0.8092
450	0.8061
441	0.8043
432	0.8036
423	0.8036
414	0.8042
405	0.8047
396	0.8067
