Infrared Spectrum: Benzyl cyanide
Formula: C 8 H 7 N
CAS: 140-29-4
State: gas
Instrument: HP-GC/MS/IRD
Origin: NIST Mass Spectrometry Data Center
1/CM	ABSORBANCE
550	0.0001958
562	0.0001628
574	0.0002651
586	0.0002926
598	0.0006369
610	0.0007447
622	0.0007579
634	0.0005588
646	0.0005984
658	0.0010549
670	0.0026048
682	0.0052943
694	0.0082962
706	0.0080333
718	0.0089793
730	0.011
742	0.0077396
754	0.003839
766	0.0013508
778	0.0005962
790	0.0004059
802	0.0003531
814	0.0002552
826	0.0002728
838	0.0002695
850	0.0002948
862	0.0003102
874	0.0003025
886	0.0003894
898	0.0005137
910	0.0006875
922	0.0007546
934	0.0007986
946	0.0006919
958	0.0005269
970	0.0003553
982	0.0002915
994	0.0002915
1006	0.0004191
1018	0.0008547
1030	0.001287
1042	0.000715
1054	0.0005104
1066	0.0007513
1078	0.0007766
1090	0.000616
1102	0.0003872
1114	0.0002497
1126	0.0001243
1138	7.7e-06
1150	9.46e-05
1162	0.0001397
1174	0.0001364
1186	0.0002024
1198	0.0002035
1210	7.59e-05
1222	0.0001243
1234	0.0001903
1246	0.0001903
1258	0.0002211
1270	0.0003146
1282	0.0004246
1294	0.0004521
1306	0.0003784
1318	0.0003762
1330	0.0003707
1342	0.0002673
1354	0.0002255
1366	0.0002805
1378	0.0003916
1390	0.0005357
1402	0.0008635
1414	0.0015708
1426	0.0025212
1438	0.002805
1450	0.0029194
1462	0.0024233
1474	0.0013013
1486	0.0023111
1498	0.0041888
1510	0.0024178
1522	0.0005489
1534	0.0004367
1546	0.0004444
1558	0.0005379
1570	0.0006468
1582	0.0008679
1594	0.0015147
1606	0.001705
1618	0.0008866
1630	0.000396
1642	0.0002937
1654	0.0002563
1666	0.0002453
1678	0.0001947
1690	0.0001595
1702	0.0001749
1714	0.0001914
1726	0.00022
1738	0.0002332
1750	0.000242
1762	0.0002981
1774	0.0004125
1786	0.0006556
1798	0.0007381
1810	0.0004884
1822	0.0003432
1834	0.0003146
1846	0.0003861
1858	0.0004576
1870	0.0003916
1882	0.0002948
1894	0.0002794
1906	0.0002794
1918	0.0003542
1930	0.0004708
1942	0.0005797
1954	0.0006699
1966	0.0004125
1978	0.0001617
1990	9.68e-05
2002	7.59e-05
2014	3.85e-05
2026	2.97e-05
2038	3.74e-05
2050	3.52e-05
2062	1.87e-05
2074	2.31e-05
2086	4.18e-05
2098	5.94e-05
2110	4.62e-05
2122	2.64e-05
2134	4.18e-05
2146	2.86e-05
2158	1.54e-05
2170	1.65e-05
2182	3.74e-05
2194	1.32e-05
2206	2.75e-05
2218	5.5e-05
2230	0.0001254
2242	0.0002541
2254	0.0004587
2266	0.0003652
2278	0.0001881
2290	0.0001276
2302	0.0001507
2314	0.0001617
2326	0.0001837
2338	0.0001441
2350	0.0001749
2362	0.0001551
2374	0.0001188
2386	8.8e-05
2398	7.81e-05
2410	9.02e-05
2422	9.13e-05
2434	7.15e-05
2446	5.28e-05
2458	6.49e-05
2470	9.13e-05
2482	6.93e-05
2494	7.26e-05
2506	7.48e-05
2518	7.59e-05
2530	7.48e-05
2542	9.02e-05
2554	0.000121
2566	0.0001298
2578	0.0001364
2590	0.0001738
2602	0.00022
2614	0.0001419
2626	0.0001353
2638	0.0001595
2650	0.0001056
2662	0.0001111
2674	0.0001265
2686	9.68e-05
2698	0.0001045
2710	0.0001232
2722	0.0001342
2734	9.57e-05
2746	0.0001551
2758	9.57e-05
2770	0.0001408
2782	0.0001419
2794	0.0001639
2806	0.0001782
2818	0.000231
2830	0.0002882
2842	0.0003322
2854	0.0003003
2866	0.0002068
2878	0.0001881
2890	0.0002497
2902	0.0004026
2914	0.0008316
2926	0.0012012
2938	0.0012342
2950	0.0008602
2962	0.0006237
2974	0.0005049
2986	0.0004279
2998	0.0005577
3010	0.0011913
3022	0.0026455
3034	0.0046739
3046	0.0050424
3058	0.0038775
3070	0.0053592
3082	0.0054373
3094	0.0032769
3106	0.0023628
3118	0.0012848
3130	0.0005577
3142	0.0002893
3154	0.0002057
3166	0.0001903
3178	0.0002486
3190	0.0002552
3202	0.0002167
3214	0.0001705
3226	0.0001188
3238	0.000121
3250	6.6e-05
3262	0.0001045
3274	7.37e-05
3286	8.36e-05
3298	9.02e-05
3310	6.93e-05
3322	9.35e-05
3334	8.03e-05
3346	5.5e-05
3358	0.0001276
3370	5.17e-05
3382	7.15e-05
3394	9.13e-05
3406	6.71e-05
3418	3.74e-05
3430	4.84e-05
3442	0.0001133
3454	0.0001364
3466	8.03e-05
3478	4.95e-05
3490	0
3502	9.02e-05
3514	5.94e-05
3526	0.0001276
3538	8.8e-05
3550	9.02e-05
3562	0.0001089
3574	6.05e-05
3586	9.24e-05
3598	1.32e-05
3610	7.92e-05
3622	0.000132
3634	0.0001441
3646	0.0001199
3658	0.0001276
3670	0.0001089
3682	0.000165
3694	0.0001188
3706	8.58e-05
3718	0.0001298
3730	0.0001617
3742	0.0001111
3754	9.35e-05
3766	0.0001331
3778	0.0001155
3790	0.000143
3802	0.0001485
3814	0.0001056
3826	0.0001463
3838	0.0001397
