Infrared Spectrum: (P-CHLOROPHENYL)-ACETONITRILE
Formula: C8 H6 Cl N
CAS: 140-53-4
State: LIQUID
Melting point: 28-30 C
Class: COBLENTZ
Instrument: Not specified, most likely a prism, grating, or hybrid spectrometer.
Sampling: TRANSMISSION
Path length: 0.003 CM
Resolution: 4
Origin: WYANDOTTE CHEMICALS CORP., WYANDOTTE, MICHIGAN, USA
MICROMETERS	TRANSMITTANCE
2.063	0.966
2.10285	0.976
2.14271	0.98
2.18256	0.98
2.22242	0.961
2.26227	0.973
2.30213	0.973
2.34198	0.971
2.38183	0.951
2.42169	0.978
2.46154	0.98
2.5014	0.981
2.54125	0.978
2.58111	0.981
2.62096	0.985
2.66081	0.98
2.70067	0.955
2.74052	0.961
2.78038	0.973
2.82023	0.958
2.86009	0.971
2.89994	0.983
2.9398	0.985
2.97965	0.988
3.0195	0.985
3.05936	0.98
3.09921	0.971
3.13907	0.93
3.17892	0.93
3.21878	0.88
3.25863	0.828
3.29848	0.871
3.33834	0.866
3.37819	0.793
3.41805	0.811
3.4579	0.928
3.49776	0.961
3.53761	0.97
3.57746	0.973
3.61732	0.981
3.65717	0.99
3.69703	0.988
3.73688	0.988
3.77674	0.991
3.81659	0.993
3.85644	0.975
3.8963	0.973
3.93615	0.993
3.97601	1.005
4.01586	1.003
4.05572	1
4.09557	1.001
4.13543	1.003
4.17528	0.995
4.21513	0.991
4.25499	0.998
4.29484	1.006
4.3347	1.001
4.37455	0.978
4.41441	0.971
4.45426	0.936
4.49411	0.65
4.53397	0.785
4.57382	0.966
4.61368	1.001
4.65353	1.011
4.69339	1.013
4.73324	1.013
4.77309	1.011
4.81295	1.011
4.8528	1.011
4.89266	1.011
4.93251	1.011
4.97237	1.013
5.01222	1.013
5.05207	1.01
5.09193	1.011
5.13178	1.011
5.17164	1.01
5.21149	0.986
5.25135	0.918
5.2912	0.918
5.33105	0.963
5.37091	0.968
5.41076	0.993
5.45062	1.006
5.49047	1.006
5.53033	1.001
5.57018	0.983
5.61004	0.948
5.64989	0.943
5.68974	0.955
5.7296	0.963
5.76945	0.981
5.80931	0.99
5.84916	0.99
5.88902	0.988
5.92887	0.98
5.96872	0.966
6.00858	0.931
6.04843	0.913
6.08829	0.89
6.12814	0.861
6.168	0.9
6.20785	0.751
6.2477	0.911
6.28756	0.866
6.32741	0.94
6.36727	0.96
6.40712	0.958
6.44698	0.958
6.48683	0.958
6.52668	0.946
6.56654	0.883
6.60639	0.665
6.64625	0.156
6.6861	0.126
6.72596	0.545
6.76581	0.745
6.80567	0.843
6.84552	0.881
6.88537	0.865
6.92523	0.833
6.96508	0.74
7.00494	0.475
7.04479	0.096
7.08465	0.228
7.1245	0.718
7.16435	0.875
7.20421	0.913
7.24406	0.928
7.28392	0.93
7.32377	0.921
7.36363	0.931
7.40348	0.948
7.44333	0.96
7.48319	0.953
7.52304	0.931
7.5629	0.921
7.60275	0.916
7.64261	0.92
7.68246	0.91
7.72231	0.903
7.76217	0.926
7.80202	0.908
7.84188	0.898
7.88173	0.896
7.92159	0.905
7.96144	0.926
8.0013	0.921
8.04115	0.901
8.081	0.886
8.12086	0.888
8.16071	0.895
8.20057	0.888
8.24042	0.885
8.28028	0.881
8.32013	0.865
8.35998	0.836
8.39984	0.8
8.43969	0.781
8.47955	0.865
8.5194	0.921
8.55926	0.94
8.59911	0.935
8.63896	0.94
8.67882	0.948
8.71867	0.96
8.75853	0.958
8.79838	0.938
8.83824	0.931
8.87809	0.891
8.91794	0.793
8.9578	0.665
8.99765	0.538
9.03751	0.49
9.07736	0.175
9.11722	0.043
9.15707	0.13
9.19692	0.575
9.23678	0.715
9.27663	0.748
9.31649	0.758
9.35634	0.811
9.3962	0.855
9.43605	0.875
9.47591	0.89
9.51576	0.901
9.55561	0.905
9.59547	0.906
9.63532	0.915
9.67518	0.91
9.71503	0.878
9.75489	0.75
9.79474	0.381
9.83459	0.093
9.87445	0.441
9.9143	0.726
9.95416	0.868
9.99401	0.908
10.0339	0.923
10.0737	0.93
10.1136	0.931
10.1534	0.93
10.1933	0.923
10.2331	0.91
10.273	0.898
10.3128	0.875
10.3527	0.855
10.3926	0.841
10.4324	0.826
10.4723	0.795
10.5121	0.751
10.552	0.773
10.5918	0.795
10.6317	0.808
10.6715	0.816
10.7114	0.826
10.7512	0.825
10.7911	0.798
10.831	0.775
10.8708	0.726
10.9107	0.618
10.9505	0.495
10.9904	0.498
11.0302	0.653
11.0701	0.781
11.1099	0.843
11.1498	0.858
11.1896	0.861
11.2295	0.858
11.2694	0.856
11.3092	0.855
11.3491	0.853
11.3889	0.851
11.4288	0.851
11.4686	0.853
11.5085	0.851
11.5483	0.848
11.5882	0.838
11.628	0.831
11.6679	0.806
11.7077	0.78
11.7476	0.71
11.7875	0.643
11.8273	0.551
11.8672	0.42
11.907	0.265
11.9469	0.263
11.9867	0.403
12.0266	0.476
12.0664	0.523
12.1063	0.54
12.1461	0.51
12.186	0.46
12.2259	0.406
12.2657	0.39
12.3056	0.393
12.3454	0.381
12.3853	0.326
12.4251	0.196
12.465	0.106
12.5048	0.065
12.5447	0.061
12.5845	0.085
12.6244	0.24
12.6643	0.418
12.7041	0.496
12.744	0.573
12.7838	0.64
12.8237	0.705
12.8635	0.746
12.9034	0.775
12.9432	0.796
12.9831	0.813
13.0229	0.823
13.0628	0.828
13.1026	0.835
13.1425	0.838
13.1824	0.84
13.2222	0.84
13.2621	0.84
13.3019	0.843
13.3418	0.85
13.3816	0.85
13.4215	0.85
13.4613	0.851
13.5012	0.851
13.541	0.851
13.5809	0.85
13.6208	0.848
13.6606	0.841
13.7005	0.835
13.7403	0.815
13.7802	0.788
13.82	0.761
13.8599	0.748
13.8997	0.743
13.9396	0.733
13.9794	0.698
14.0193	0.683
14.0592	0.718
14.099	0.761
14.1389	0.785
14.1787	0.796
14.2186	0.805
14.2584	0.811
14.2983	0.816
14.3381	0.815
14.378	0.815
14.4178	0.818
14.4577	0.811
14.4976	0.803
14.5374	0.796
14.5773	0.785
14.6171	0.79
14.657	0.79
14.6968	0.79
14.7367	0.778
14.7765	0.75
14.8164	0.696
14.8562	0.613
14.8961	0.535
14.9359	0.53
14.9758	0.58
15.0157	0.628
15.0555	0.648
15.0954	0.65
15.1352	0.61
15.1751	0.581
15.2149	0.593
15.2548	0.638
15.2946	0.678
15.3345	0.708
15.3743	0.716
15.4142	0.728
15.4541	0.726
15.4939	0.728
15.5338	0.731
15.5736	0.731
15.6135	0.731
15.6533	0.728
15.6932	0.726
15.733	0.725
15.7729	0.72
15.8127	0.706
15.8526	0.698
15.8925	0.695
15.9323	0.698
15.9722	0.695
16.012	0.695
