Infrared Spectrum: 3-Cyclopentylpropanoic acid
Formula: C 8 H 14 O 2
CAS: 140-77-2
State: gas
Instrument: HP-GC/MS/IRD
Origin: NIST Mass Spectrometry Data Center
1/CM	ABSORBANCE
550	0.0017484
562	0.0020628
574	0.001974
586	0.0018624
598	0.0019068
610	0.0018804
622	0.001818
634	0.0015552
646	0.0011124
658	0.0007704
670	0.000576
682	0.0004416
694	0.0003852
706	0.0003204
718	0.0002736
730	0.0002184
742	0.0001236
754	0.00012
766	0.0001452
778	0.000186
790	0.0001116
802	4.44e-05
814	1.2e-06
826	2.04e-05
838	1.32e-05
850	1.92e-05
862	3.24e-05
874	7.44e-05
886	0.0001824
898	0.000192
910	0.00021
922	0.000192
934	0.0001788
946	0.0001764
958	0.0002148
970	0.000306
982	0.0003816
994	0.0004452
1006	0.0005052
1018	0.0005424
1030	0.0006396
1042	0.0007968
1054	0.001254
1066	0.0021372
1078	0.00318
1090	0.0040656
1102	0.0054096
1114	0.0067248
1126	0.006
1138	0.0044664
1150	0.0037224
1162	0.0033084
1174	0.0027912
1186	0.0021324
1198	0.0016572
1210	0.0014256
1222	0.0012564
1234	0.001074
1246	0.0010524
1258	0.0010704
1270	0.0010392
1282	0.000948
1294	0.00087
1306	0.0008508
1318	0.00084
1330	0.0008964
1342	0.0010644
1354	0.0014256
1366	0.001626
1378	0.0016992
1390	0.0013944
1402	0.0008844
1414	0.0006888
1426	0.0007656
1438	0.00084
1450	0.0009672
1462	0.0008724
1474	0.0005148
1486	0.0003168
1498	0.0001764
1510	0.000108
1522	5.04e-05
1534	2.16e-05
1546	2.28e-05
1558	2.4e-06
1570	1.2e-06
1582	1.44e-05
1594	2.04e-05
1606	1.32e-05
1618	2.64e-05
1630	3.48e-05
1642	3.12e-05
1654	3.96e-05
1666	9.6e-05
1678	0.0001332
1690	0.0002136
1702	0.0003468
1714	0.0006468
1726	0.0012372
1738	0.0023844
1750	0.0043764
1762	0.0079632
1774	0.0118344
1786	0.0100116
1798	0.0053532
1810	0.0025884
1822	0.001158
1834	0.00054
1846	0.0002976
1858	0.0001992
1870	0.0001416
1882	0.0001212
1894	8.64e-05
1906	9.36e-05
1918	6.84e-05
1930	4.92e-05
1942	4.44e-05
1954	4.2e-05
1966	4.08e-05
1978	1.92e-05
1990	3.12e-05
2002	2.4e-05
2014	2.04e-05
2026	1.2e-05
2038	3.12e-05
2050	2.4e-05
2062	8.4e-06
2074	2.4e-05
2086	1.08e-05
2098	1.56e-05
2110	2.4e-05
2122	1.8e-05
2134	2.52e-05
2146	1.68e-05
2158	4.08e-05
2170	4.8e-05
2182	5.16e-05
2194	5.52e-05
2206	6.48e-05
2218	4.44e-05
2230	5.04e-05
2242	5.52e-05
2254	4.44e-05
2266	4.32e-05
2278	4.68e-05
2290	5.04e-05
2302	4.32e-05
2314	3.84e-05
2326	3.72e-05
2338	4.32e-05
2350	3.72e-05
2362	3.96e-05
2374	3.12e-05
2386	3.12e-05
2398	2.88e-05
2410	3.12e-05
2422	3.36e-05
2434	4.68e-05
2446	3.12e-05
2458	3.48e-05
2470	4.44e-05
2482	1.56e-05
2494	1.68e-05
2506	4.8e-06
2518	3.24e-05
2530	3.84e-05
2542	3.6e-05
2554	5.4e-05
2566	5.76e-05
2578	3.84e-05
2590	6e-05
2602	5.52e-05
2614	5.76e-05
2626	5.76e-05
2638	6.36e-05
2650	7.92e-05
2662	6.72e-05
2674	7.68e-05
2686	7.8e-05
2698	9.24e-05
2710	0.000102
2722	0.000102
2734	0.0001092
2746	0.0001104
2758	0.000126
2770	0.0001452
2782	0.0001788
2794	0.0002244
2806	0.0002616
2818	0.000366
2830	0.00054
2842	0.0008928
2854	0.0016752
2866	0.0030312
2878	0.0040608
2890	0.0035268
2902	0.0030732
2914	0.0039096
2926	0.0055416
2938	0.0073044
2950	0.0094608
2962	0.0098904
2974	0.0061296
2986	0.0029184
2998	0.0015084
3010	0.000846
3022	0.0005268
3034	0.0003264
3046	0.00024
3058	0.0001872
3070	0.0001704
3082	0.000132
3094	0.0001236
3106	9.6e-05
3118	9e-05
3130	8.52e-05
3142	9.84e-05
3154	5.64e-05
3166	6.24e-05
3178	5.4e-05
3190	5.88e-05
3202	4.68e-05
3214	2.88e-05
3226	5.4e-05
3238	4.68e-05
3250	1.32e-05
3262	2.88e-05
3274	3.84e-05
3286	2.88e-05
3298	3.12e-05
3310	2.16e-05
3322	3.24e-05
3334	3.96e-05
3346	1.2e-05
3358	2.76e-05
3370	1.8e-05
3382	1.32e-05
3394	6e-05
3406	2.64e-05
3418	2.88e-05
3430	5.16e-05
3442	2.28e-05
3454	4.56e-05
3466	3e-05
3478	6.96e-05
3490	8.4e-05
3502	0.000102
3514	0.0001428
3526	0.0002088
3538	0.0002844
3550	0.0004992
3562	0.0016092
3574	0.004644
3586	0.0022308
3598	0.0004704
3610	0.0002304
3622	0.0001356
3634	9.84e-05
3646	5.52e-05
3658	4.92e-05
3670	1.2e-06
3682	3.96e-05
3694	6.12e-05
3706	3.48e-05
3718	2.76e-05
3730	1.2e-06
3742	2.4e-05
3754	1.68e-05
3766	2.16e-05
3778	2.4e-06
3790	3.84e-05
3802	8.4e-06
3814	2.16e-05
3826	4.8e-05
3838	2.04e-05
