Infrared Spectrum: 2-METHYL-5-VINYL-PYRIDINE
Formula: C8 H9 N
CAS: 140-76-1
Class: COBLENTZ
Instrument: Not specified, most likely a prism, grating, or hybrid spectrometer.
Sampling: TRANSMISSION
Path length: SMEAR
Resolution: 4
Origin: TENNESSEE EASTMAN COMPANY, RESEARCH LABORATORIES
MICROMETERS	TRANSMITTANCE
1.993	0.979
2.0339	0.984
2.07479	0.989
2.11569	0.988
2.15659	0.988
2.19748	0.976
2.23838	0.952
2.27928	0.938
2.32017	0.94
2.36107	0.953
2.40197	0.96
2.44286	0.948
2.48376	0.95
2.52466	0.965
2.56555	0.974
2.60645	0.974
2.64735	0.981
2.68824	0.979
2.72914	0.976
2.77004	0.953
2.81093	0.936
2.85183	0.912
2.89273	0.873
2.93362	0.854
2.97452	0.861
3.01542	0.875
3.05631	0.88
3.09721	0.883
3.13811	0.861
3.179	0.837
3.2199	0.66
3.2608	0.46
3.30169	0.271
3.34259	0.296
3.38349	0.38
3.42438	0.535
3.46528	0.651
3.50618	0.846
3.54707	0.88
3.58797	0.919
3.62887	0.924
3.66976	0.894
3.71066	0.938
3.75156	0.941
3.79245	0.947
3.83335	0.93
3.87425	0.947
3.91514	0.952
3.95604	0.952
3.99694	0.945
4.03783	0.933
4.07873	0.941
4.11963	0.935
4.16052	0.923
4.20142	0.941
4.24232	0.945
4.28321	0.94
4.32411	0.941
4.36501	0.947
4.4059	0.933
4.4468	0.953
4.4877	0.952
4.52859	0.952
4.56949	0.955
4.61039	0.955
4.65128	0.957
4.69218	0.957
4.73308	0.95
4.77397	0.952
4.81487	0.952
4.85577	0.952
4.89666	0.952
4.93756	0.952
4.97846	0.952
5.01936	0.931
5.06025	0.887
5.10115	0.88
5.14205	0.872
5.18294	0.861
5.22384	0.904
5.26474	0.902
5.30563	0.887
5.34653	0.831
5.38743	0.754
5.42832	0.72
5.46922	0.718
5.51012	0.776
5.55101	0.841
5.59191	0.873
5.63281	0.887
5.6737	0.911
5.7146	0.902
5.7555	0.873
5.79639	0.873
5.83729	0.861
5.87819	0.839
5.91908	0.812
5.95998	0.773
6.00088	0.75
6.04177	0.744
6.08267	0.645
6.12357	0.088
6.16446	0.411
6.20536	0.353
6.24626	0.052
6.28715	0.221
6.32805	0.498
6.36895	0.366
6.40984	0.327
6.45074	0.535
6.49164	0.66
6.53253	0.672
6.57343	0.624
6.61433	0.373
6.65522	0.069
6.69612	0.032
6.73702	0.187
6.77791	0.36
6.81881	0.339
6.85971	0.257
6.9006	0.228
6.9415	0.264
6.9824	0.249
7.02329	0.187
7.06419	0.421
7.10509	0.469
7.14598	0.447
7.18688	0.331
7.22778	0.1
7.26867	0.051
7.30957	0.061
7.35047	0.39
7.39136	0.616
7.43226	0.706
7.47316	0.732
7.51405	0.742
7.55495	0.744
7.59585	0.656
7.63674	0.31
7.67764	0.36
7.71854	0.37
7.75943	0.53
7.80033	0.744
7.84123	0.786
7.88212	0.79
7.92302	0.774
7.96392	0.737
8.00481	0.638
8.04571	0.401
8.08661	0.573
8.1275	0.704
8.1684	0.677
8.2093	0.733
8.25019	0.67
8.29109	0.612
8.33199	0.747
8.37288	0.795
8.41378	0.808
8.45468	0.819
8.49557	0.819
8.53647	0.819
8.57737	0.802
8.61826	0.784
8.65916	0.742
8.70006	0.639
8.74095	0.462
8.78185	0.291
8.82275	0.484
8.86364	0.665
8.90454	0.728
8.94544	0.754
8.98633	0.761
9.02723	0.766
9.06813	0.767
9.10902	0.766
9.14992	0.761
9.19082	0.754
9.23171	0.74
9.27261	0.723
9.31351	0.706
9.3544	0.682
9.3953	0.662
9.4362	0.626
9.47709	0.564
9.51799	0.411
9.55889	0.288
9.59978	0.23
9.64068	0.216
9.68158	0.221
9.72247	0.095
9.76337	0.119
9.80427	0.23
9.84516	0.406
9.88606	0.43
9.92696	0.375
9.96785	0.281
10.0088	0.172
10.0496	0.066
10.0905	0.044
10.1314	0.08
10.1723	0.23
10.2132	0.387
10.2541	0.481
10.295	0.532
10.3359	0.573
10.3768	0.6
10.4177	0.624
10.4586	0.634
10.4995	0.639
10.5404	0.627
10.5813	0.6
10.6222	0.566
10.6631	0.501
10.704	0.399
10.7449	0.298
10.7858	0.209
10.8267	0.138
10.8676	0.085
10.9085	0.042
10.9494	0.032
10.9903	0.027
11.0312	0.039
11.0721	0.085
11.113	0.201
11.1539	0.37
11.1948	0.493
11.2357	0.581
11.2765	0.645
11.3174	0.682
11.3583	0.709
11.3992	0.728
11.4401	0.733
11.481	0.735
11.5219	0.73
11.5628	0.711
11.6037	0.684
11.6446	0.619
11.6855	0.537
11.7264	0.402
11.7673	0.296
11.8082	0.194
11.8491	0.107
11.89	0.054
11.9309	0.039
11.9718	0.034
12.0127	0.052
12.0536	0.143
12.0945	0.312
12.1354	0.476
12.1763	0.581
12.2172	0.658
12.2581	0.701
12.299	0.738
12.3399	0.759
12.3808	0.783
12.4217	0.805
12.4626	0.815
12.5034	0.827
12.5443	0.841
12.5852	0.846
12.6261	0.849
12.667	0.853
12.7079	0.856
12.7488	0.86
12.7897	0.861
12.8306	0.863
12.8715	0.865
12.9124	0.865
12.9533	0.866
12.9942	0.868
13.0351	0.866
13.076	0.865
13.1169	0.861
13.1578	0.858
13.1987	0.846
13.2396	0.836
13.2805	0.812
13.3214	0.774
13.3623	0.691
13.4032	0.529
13.4441	0.261
13.485	0.182
13.5259	0.296
13.5668	0.5
13.6077	0.617
13.6486	0.701
13.6895	0.73
13.7303	0.728
13.7712	0.679
13.8121	0.576
13.853	0.488
13.8939	0.549
13.9348	0.672
13.9757	0.752
14.0166	0.802
14.0575	0.813
14.0984	0.825
14.1393	0.831
14.1802	0.832
14.2211	0.836
14.262	0.836
14.3029	0.837
14.3438	0.837
14.3847	0.836
14.4256	0.834
14.4665	0.831
14.5074	0.829
14.5483	0.824
14.5892	0.819
14.6301	0.813
14.671	0.81
14.7119	0.805
14.7528	0.795
14.7937	0.788
14.8346	0.773
14.8755	0.755
14.9164	0.737
14.9573	0.704
14.9981	0.665
15.039	0.627
15.0799	0.6
15.1208	0.59
15.1617	0.592
15.2026	0.616
15.2435	0.639
15.2844	0.658
15.3253	0.665
15.3662	0.662
15.4071	0.627
15.448	0.573
15.4889	0.522
15.5298	0.496
15.5707	0.501
15.6116	0.544
15.6525	0.59
15.6934	0.629
15.7343	0.651
15.7752	0.658
15.8161	0.663
15.857	0.665
15.8979	0.665
15.9388	0.663
15.9797	0.663
