Infrared Spectrum: 2-Amino-5-diethylaminopentane
Formula: C 9 H 22 N 2
CAS: 140-80-7
State: gas
Instrument: HP-GC/MS/IRD
Origin: NIST Mass Spectrometry Data Center
1/CM	ABSORBANCE
550	0.000325
562	7.5e-05
574	2.75e-05
586	0.000115
598	0.0002275
610	0.0002675
622	0.00025
634	0.00027
646	0.0002425
658	0.000485
670	0.0006375
682	0.00075
694	0.00102
706	0.00138
718	0.0017675
730	0.0021125
742	0.0027075
754	0.0034925
766	0.0045825
778	0.00554
790	0.0057475
802	0.0046025
814	0.00318
826	0.0022675
838	0.0017225
850	0.0013425
862	0.0010675
874	0.0008375
886	0.0006525
898	0.0006325
910	0.00064
922	0.000635
934	0.00056
946	0.0005425
958	0.0006275
970	0.0008975
982	0.001205
994	0.0013975
1006	0.0013825
1018	0.001495
1030	0.0018775
1042	0.00259
1054	0.00388
1066	0.0055625
1078	0.006215
1090	0.005805
1102	0.0047275
1114	0.0037375
1126	0.0029925
1138	0.0025575
1150	0.0021875
1162	0.0020475
1174	0.00207
1186	0.002495
1198	0.004095
1210	0.003885
1222	0.002405
1234	0.0019125
1246	0.0016575
1258	0.0014425
1270	0.00144
1282	0.00197
1294	0.00272
1306	0.002915
1318	0.00275
1330	0.0031
1342	0.0040575
1354	0.00506
1366	0.00615
1378	0.007805
1390	0.0055075
1402	0.002475
1414	0.0014775
1426	0.00136
1438	0.0019525
1450	0.0031
1462	0.003805
1474	0.0031375
1486	0.0016725
1498	0.0009525
1510	0.0007175
1522	0.0005775
1534	0.000515
1546	0.0005175
1558	0.0005375
1570	0.00058
1582	0.0007125
1594	0.0009825
1606	0.0014875
1618	0.0020475
1630	0.0016875
1642	0.0009975
1654	0.0006025
1666	0.0003725
1678	0.0002475
1690	0.000165
1702	0.000145
1714	6e-05
1726	6.75e-05
1738	8.25e-05
1750	7.25e-05
1762	8e-05
1774	5.25e-05
1786	4.5e-05
1798	7.5e-05
1810	9.25e-05
1822	7.75e-05
1834	8.75e-05
1846	8.5e-05
1858	6.25e-05
1870	5e-05
1882	4.75e-05
1894	3.5e-05
1906	2.5e-05
1918	4.25e-05
1930	3e-05
1942	1.75e-05
1954	2.25e-05
1966	4.75e-05
1978	1.75e-05
1990	2.5e-05
2002	2e-05
2014	4e-05
2026	2.5e-05
2038	2.25e-05
2050	2.75e-05
2062	4.25e-05
2074	4e-05
2086	2.25e-05
2098	2.5e-05
2110	3.75e-05
2122	5.5e-05
2134	3e-05
2146	1.75e-05
2158	3e-05
2170	1.25e-05
2182	1.5e-05
2194	2.75e-05
2206	1.5e-05
2218	2.25e-05
2230	1.75e-05
2242	4.75e-05
2254	3.5e-05
2266	5.75e-05
2278	0.0001
2290	4.75e-05
2302	5.25e-05
2314	8e-05
2326	7e-05
2338	9.5e-05
2350	7e-05
2362	7.25e-05
2374	8e-05
2386	8.25e-05
2398	9.5e-05
2410	0.000115
2422	9e-05
2434	9e-05
2446	0.0001
2458	5e-05
2470	8.5e-05
2482	9.75e-05
2494	0.000135
2506	0.0001625
2518	0.0001675
2530	0.0002075
2542	0.0002825
2554	0.0002975
2566	0.00037
2578	0.0004425
2590	0.0004725
2602	0.0005425
2614	0.0006125
2626	0.0007175
2638	0.00087
2650	0.0010175
2662	0.00117
2674	0.0013575
2686	0.00149
2698	0.0017475
2710	0.0020775
2722	0.002385
2734	0.0026925
2746	0.00296
2758	0.0036675
2770	0.0044875
2782	0.006
2794	0.009125
2806	0.0120075
2818	0.011325
2830	0.009
2842	0.0077625
2854	0.0079925
2866	0.0088525
2878	0.0105825
2890	0.0110775
2902	0.01237
2914	0.014865
2926	0.0179675
2938	0.02175
2950	0.0206375
2962	0.0223175
2974	0.024905
2986	0.0152925
2998	0.0057625
3010	0.0028675
3022	0.0018825
3034	0.001325
3046	0.001005
3058	0.0008775
3070	0.0007875
3082	0.0006625
3094	0.0005625
3106	0.0005275
3118	0.00046
3130	0.000475
3142	0.00039
3154	0.00042
3166	0.0003875
3178	0.00031
3190	0.0003025
3202	0.000235
3214	0.000225
3226	0.0001425
3238	0.000205
3250	9.75e-05
3262	0.000165
3274	0.0001475
3286	0.0001575
3298	0.0001275
3310	0.00017
3322	0.0002825
3334	0.00027
3346	0.000245
3358	0.0001225
3370	0.000135
3382	0.0001025
3394	9.25e-05
3406	0.00016
3418	4e-05
3430	1e-05
3442	0.000125
3454	7.25e-05
3466	5e-05
3478	7.5e-06
3490	8.75e-05
3502	5.5e-05
3514	3.25e-05
3526	9.25e-05
3538	5.5e-05
3550	7.5e-06
3562	3.75e-05
3574	4e-05
3586	4.75e-05
3598	4.75e-05
3610	3e-05
3622	9.25e-05
3634	0.0001
3646	6.5e-05
3658	0.0001375
3670	8.75e-05
3682	8.75e-05
3694	9.75e-05
3706	9.25e-05
3718	0.0001625
3730	0.0001525
3742	0.00014
3754	0.0001175
3766	0.0001175
3778	9.25e-05
3790	0.0001525
3802	0.0002025
3814	0.000105
3826	0.000105
3838	0.0001325
