Infrared Spectrum: TETRAHYDROXY-ETHYL-ETHYLENE-DIAMINE
Formula: C10 H24 N2 O4
CAS: 140-07-8
State: LIQUID
Class: COBLENTZ
Instrument: Not specified, most likely a prism, grating, or hybrid spectrometer.
Sampling: TRANSMISSION
Path length: CAPILLARY
Resolution: 4
Origin: WYANDOTTE CHEMICALS CORP., WYANDOTTE, MICHIGAN, USA
MICROMETERS	TRANSMITTANCE
2.035	0.966
2.07491	0.971
2.11482	0.978
2.15473	0.971
2.19465	0.953
2.23456	0.948
2.27447	0.953
2.31438	0.954
2.35429	0.949
2.3942	0.931
2.43412	0.931
2.47403	0.931
2.51394	0.943
2.55385	0.956
2.59376	0.941
2.63367	0.932
2.67358	0.891
2.7135	0.775
2.75341	0.551
2.79332	0.323
2.83323	0.155
2.87314	0.085
2.91305	0.05
2.95297	0.041
2.99288	0.033
3.03279	0.035
3.0727	0.048
3.11261	0.067
3.15252	0.115
3.19244	0.201
3.23235	0.278
3.27226	0.378
3.31217	0.415
3.35208	0.107
3.39199	0.095
3.4319	0.1
3.47182	0.088
3.51173	0.088
3.55164	0.087
3.59155	0.227
3.63146	0.36
3.67137	0.417
3.71129	0.487
3.7512	0.574
3.79111	0.623
3.83102	0.67
3.87093	0.7
3.91084	0.726
3.95075	0.745
3.99067	0.757
4.03058	0.778
4.07049	0.793
4.1104	0.809
4.15031	0.825
4.19022	0.844
4.23014	0.854
4.27005	0.857
4.30996	0.881
4.34987	0.901
4.38978	0.907
4.42969	0.897
4.4696	0.899
4.50952	0.902
4.54943	0.906
4.58934	0.907
4.62925	0.907
4.66916	0.906
4.70907	0.904
4.74899	0.906
4.7889	0.904
4.82881	0.906
4.86872	0.911
4.90863	0.916
4.94854	0.924
4.98846	0.927
5.02837	0.932
5.06828	0.932
5.10819	0.931
5.1481	0.932
5.18801	0.922
5.22792	0.922
5.26784	0.926
5.30775	0.932
5.34766	0.936
5.38757	0.938
5.42748	0.938
5.46739	0.939
5.50731	0.936
5.54722	0.934
5.58713	0.932
5.62704	0.927
5.66695	0.926
5.70686	0.921
5.74677	0.911
5.78669	0.906
5.8266	0.887
5.86651	0.859
5.90642	0.825
5.94633	0.775
5.98624	0.74
6.02616	0.723
6.06607	0.738
6.10598	0.763
6.14589	0.798
6.1858	0.815
6.22571	0.829
6.26562	0.835
6.30554	0.835
6.34545	0.837
6.38536	0.835
6.42527	0.832
6.46518	0.825
6.50509	0.819
6.54501	0.798
6.58492	0.768
6.62483	0.711
6.66474	0.604
6.70465	0.455
6.74456	0.338
6.78448	0.274
6.82439	0.259
6.8643	0.271
6.90421	0.296
6.94412	0.338
6.98403	0.361
7.02394	0.368
7.06386	0.363
7.10377	0.363
7.14368	0.398
7.18359	0.408
7.2235	0.383
7.26341	0.329
7.30333	0.288
7.34324	0.274
7.38315	0.313
7.42306	0.365
7.46297	0.355
7.50288	0.348
7.54279	0.345
7.58271	0.355
7.62262	0.366
7.66253	0.343
7.70244	0.336
7.74235	0.356
7.78226	0.4
7.82218	0.415
7.86209	0.432
7.902	0.445
7.94191	0.465
7.98182	0.469
8.02173	0.472
8.06164	0.47
8.10156	0.474
8.14147	0.482
8.18138	0.494
8.22129	0.53
8.2612	0.574
8.30111	0.609
8.34103	0.651
8.38094	0.664
8.42085	0.649
8.46076	0.613
8.50067	0.596
8.54058	0.581
8.5805	0.547
8.62041	0.502
8.66032	0.479
8.70023	0.465
8.74014	0.452
8.78005	0.435
8.81996	0.4
8.85988	0.338
8.89979	0.294
8.9397	0.304
8.97961	0.358
9.01952	0.423
9.05943	0.398
9.09935	0.301
9.13926	0.201
9.17917	0.132
9.21908	0.093
9.25899	0.083
9.2989	0.065
9.33881	0.07
9.37873	0.07
9.41864	0.073
9.45855	0.083
9.49846	0.083
9.53837	0.08
9.57828	0.077
9.6182	0.063
9.65811	0.067
9.69802	0.072
9.73793	0.098
9.77784	0.115
9.81775	0.152
9.85766	0.199
9.89758	0.257
9.93749	0.328
9.9774	0.432
10.0173	0.514
10.0572	0.524
10.0971	0.537
10.137	0.549
10.177	0.564
10.2169	0.591
10.2568	0.606
10.2967	0.626
10.3366	0.636
10.3765	0.643
10.4164	0.649
10.4563	0.651
10.4962	0.651
10.5362	0.653
10.5761	0.653
10.616	0.648
10.6559	0.631
10.6958	0.619
10.7357	0.594
10.7756	0.569
10.8155	0.522
10.8555	0.479
10.8954	0.407
10.9353	0.35
10.9752	0.336
11.0151	0.336
11.055	0.341
11.0949	0.341
11.1348	0.355
11.1747	0.381
11.2147	0.443
11.2546	0.475
11.2945	0.484
11.3344	0.453
11.3743	0.417
11.4142	0.37
11.4541	0.355
11.494	0.363
11.534	0.403
11.5739	0.45
11.6138	0.492
11.6537	0.524
11.6936	0.557
11.7335	0.586
11.7734	0.613
11.8133	0.636
11.8532	0.648
11.8932	0.658
11.9331	0.661
11.973	0.666
12.0129	0.661
12.0528	0.663
12.0927	0.658
12.1326	0.651
12.1725	0.643
12.2124	0.639
12.2524	0.638
12.2923	0.631
12.3322	0.624
12.3721	0.618
12.412	0.609
12.4519	0.604
12.4918	0.603
12.5317	0.592
12.5717	0.589
12.6116	0.582
12.6515	0.576
12.6914	0.566
12.7313	0.556
12.7712	0.546
12.8111	0.536
12.851	0.532
12.8909	0.524
12.9309	0.519
12.9708	0.512
13.0107	0.51
13.0506	0.507
13.0905	0.505
13.1304	0.504
13.1703	0.504
13.2102	0.504
13.2501	0.502
13.2901	0.495
13.33	0.487
13.3699	0.477
13.4098	0.465
13.4497	0.458
13.4896	0.455
13.5295	0.452
13.5694	0.447
13.6094	0.445
13.6493	0.44
13.6892	0.44
13.7291	0.44
13.769	0.445
13.8089	0.453
13.8488	0.463
13.8887	0.47
13.9286	0.474
13.9686	0.475
14.0085	0.479
14.0484	0.48
14.0883	0.479
14.1282	0.482
14.1681	0.484
14.208	0.484
14.2479	0.485
14.2878	0.482
14.3278	0.48
14.3677	0.48
14.4076	0.482
14.4475	0.482
14.4874	0.484
14.5273	0.484
14.5672	0.485
14.6071	0.485
14.6471	0.49
14.687	0.49
14.7269	0.492
14.7668	0.494
14.8067	0.499
14.8466	0.504
14.8865	0.507
14.9264	0.505
14.9663	0.507
15.0063	0.524
15.0462	0.536
15.0861	0.551
15.126	0.544
15.1659	0.52
15.2058	0.527
15.2457	0.537
15.2856	0.546
15.3255	0.551
15.3655	0.556
15.4054	0.561
15.4453	0.566
15.4852	0.581
15.5251	0.587
15.565	0.591
15.6049	0.594
15.6448	0.603
15.6848	0.608
15.7247	0.609
15.7646	0.614
15.8045	0.619
15.8444	0.629
15.8843	0.641
15.9242	0.641
15.9641	0.648
16.004	0.653
