Infrared Spectrum: 3-Methyl-2-quinoxalinol
Formula: C 9 H 8 N 2 O
CAS: 14003-34-0
State: gas
Origin: EPA-IR VAPOR PHASE LIBRARY
1/CM	ABSORBANCE
549.8	0.0009511
559.445	0.000785
569.09	0.0011586
578.734	0.0012775
588.379	0.00215
598.024	0.00225
607.669	0.00183
617.313	0.00259
626.958	0.00394
636.603	0.00275
646.248	0.0012044
655.893	0.0005639
665.537	0.0009037
675.182	0.0008552
684.827	0.00059
694.472	0.0006603
704.116	0.0008544
713.761	0.0008408
723.406	0.00173
733.051	0.00428
742.695	0.00717
752.34	0.00698
761.985	0.00375
771.63	0.0012497
781.275	0.0007335
790.919	0.0006055
800.564	0.0005847
810.209	0.0006114
819.854	0.00047054
829.498	0.0006794
839.143	0.0006216
848.788	0.00048049
858.433	0.00044589
868.078	0.00041123
877.722	0.000566
887.367	0.0005007
897.012	0.0004572
906.657	0.0007105
916.301	0.0007502
925.946	0.0008061
935.591	0.0007525
945.236	0.0006877
954.88	0.0007427
964.525	0.000317
974.17	0.000611
983.815	0.0006356
993.46	0.0011742
1003.1	0.00151
1012.75	0.0011182
1022.39	0.0009773
1032.04	0.0008409
1041.68	0.0006471
1051.33	0.0005909
1060.97	0.00047334
1070.62	0.00047351
1080.26	0.00017
1089.91	4.6e-05
1099.55	0.0003868
1109.2	0.002
1118.84	0.0012905
1128.49	0.00046446
1138.13	0.0008364
1147.78	0.00205
1157.42	0.00377
1167.07	0.00511
1176.71	0.00464
1186.36	0.00256
1196	0.0013974
1205.64	0.0011995
1215.29	0.0009147
1224.93	0.0008823
1234.58	0.0013763
1244.22	0.0012388
1253.87	0.0008959
1263.51	0.0011459
1273.16	0.0008502
1282.8	0.0011
1292.45	0.0011081
1302.09	0.0014122
1311.74	0.00188
1321.38	0.00266
1331.03	0.00265
1340.67	0.00172
1350.32	0.0009876
1359.96	0.0010079
1369.61	0.00112
1379.25	0.00144
1388.9	0.0012435
1398.54	0.0010043
1408.18	0.0009443
1417.83	0.0012068
1427.47	0.00161
1437.12	0.0015
1446.76	0.001149
1456.41	0.001049
1466.05	0.0012972
1475.7	0.00244
1485.34	0.00284
1494.99	0.00159
1504.63	0.0010358
1514.28	0.0008336
1523.92	0.0007608
1533.57	0.0008048
1543.21	0.0008338
1552.86	0.0008491
1562.5	0.0008727
1572.15	0.0009263
1581.79	0.00144
1591.44	0.00252
1601.08	0.00312
1610.73	0.00396
1620.37	0.00355
1630.01	0.0016
1639.66	0.0011237
1649.3	0.0010886
1658.95	0.00164
1668.59	0.00243
1678.24	0.00353
1687.88	0.00758
1697.53	0.02553
1707.17	0.047
1716.82	0.03104
1726.46	0.0065
1736.11	0.00335
1745.75	0.00238
1755.4	0.00155
1765.04	0.0012843
1774.69	0.00157
1784.33	0.00142
1793.98	0.0010829
1803.62	0.0008884
1813.27	0.000795
1822.91	0.0007608
1832.55	0.0006949
1842.2	0.00050266
1851.84	0.0005244
1861.49	0.0006391
1871.13	0.0006309
1880.78	0.0007785
1890.42	0.0006588
1900.07	0.0007178
1909.71	0.0007442
1919.36	0.0007116
1929	0.0007994
1938.65	0.000739
1948.29	0.000607
1957.94	0.0005265
1967.58	0.00051501
1977.23	0.00047559
1986.87	0.0005204
1996.52	0.00048035
2006.16	0.0004854
2015.81	0.0005586
2025.45	0.00050988
2035.1	0.00049752
2044.74	0.00049069
2054.38	0.00049516
2064.03	0.0005331
2073.67	0.00051596
2083.32	0.0005487
2092.96	0.00047422
2102.61	0.00050075
2112.25	0.00045925
2121.9	0.0004421
2131.54	0.0005536
2141.19	0.00049499
2150.83	0.0004152
2160.48	0.0005351
2170.12	0.0005579
2179.77	0.0005533
2189.41	0.0004411
2199.06	0.00048257
2208.7	0.00050354
2218.35	0.0005381
2227.99	0.00045414
2237.64	0.00044395
2247.28	0.00048489
2256.92	0.0005262
2266.57	0.0005446
2276.21	0.00046185
2285.86	0.00044223
2295.5	0.00048508
2305.15	0.0005336
2314.79	0.0005247
2324.44	0.0005314
2334.08	0.0005641
2343.73	0.0005362
2353.37	0.0004571
2363.02	0.00046747
2372.66	0.0005659
2382.31	0.0006
2391.95	0.0005234
2401.6	0.0006216
2411.24	0.0005858
2420.89	0.0006094
2430.53	0.0006053
2440.18	0.0005808
2449.82	0.0005381
2459.47	0.0005392
2469.11	0.0005822
2478.75	0.0006133
2488.4	0.000688
2498.04	0.00063
2507.69	0.0006794
2517.33	0.0006055
2526.98	0.0005938
2536.62	0.0005873
2546.27	0.000553
2555.91	0.0006952
2565.56	0.0006238
2575.2	0.0007097
2584.85	0.0006848
2594.49	0.0006149
2604.14	0.00051221
2613.78	0.000561
2623.43	0.0006707
2633.07	0.0006754
2642.72	0.0007215
2652.36	0.0007117
2662.01	0.0007256
2671.65	0.000639
2681.29	0.0005279
2690.94	0.000581
2700.58	0.00048079
2710.23	0.0007139
2719.87	0.0005912
2729.52	0.0006052
2739.16	0.00051575
2748.81	0.0006075
2758.45	0.0005217
2768.1	0.00051344
2777.74	0.0006007
2787.39	0.0005851
2797.03	0.0006954
2806.68	0.0006718
2816.32	0.0005914
2825.97	0.0007128
2835.61	0.0006964
2845.26	0.0007459
2854.9	0.000765
2864.55	0.0007063
2874.19	0.0006979
2883.84	0.0005718
2893.48	0.0008038
2903.12	0.000734
2912.77	0.0008975
2922.41	0.0010451
2932.06	0.0012467
2941.7	0.0012512
2951.35	0.0010998
2960.99	0.0008978
2970.64	0.0008587
2980.28	0.0007561
2989.93	0.000858
2999.57	0.0007505
3009.22	0.0007652
3018.86	0.0009495
3028.51	0.0009585
3038.15	0.0010453
3047.8	0.0013779
3057.44	0.00163
3067.09	0.00179
3076.73	0.00198
3086.38	0.00157
3096.02	0.0013107
3105.67	0.0009448
3115.31	0.0006844
3124.95	0.0006296
3134.6	0.0007267
3144.24	0.0006325
3153.89	0.0005735
3163.53	0.0006034
3173.18	0.0006362
3182.82	0.0005637
3192.47	0.0006604
3202.11	0.000420776
3211.76	0.0005426
3221.4	0.0005739
3231.05	0.0006607
3240.69	0.0006249
3250.34	0.0005813
3259.98	0.0005809
3269.63	0.0006279
3279.27	0.0005288
3288.92	0.0007048
3298.56	0.0007534
3308.21	0.0006514
3317.85	0.0006812
3327.49	0.0006895
3337.14	0.0006545
3346.78	0.0005603
3356.43	0.0007935
3366.07	0.0007492
3375.72	0.0007194
3385.36	0.0008652
3395.01	0.0012539
3404.65	0.00161
3414.3	0.00263
3423.94	0.00331
3433.59	0.00235
3443.23	0.0008675
3452.88	0.0006986
3462.52	0.0006552
3472.17	0.0006411
3481.81	0.0008232
3491.46	0.0005926
3501.1	0.0005654
3510.75	0.0006062
3520.39	0.0005361
3530.04	0.0005467
3539.68	0.0006218
3549.32	0.0006879
3558.97	0.0007619
3568.61	0.0006423
3578.26	0.0009754
3587.9	0.0006545
3597.55	0.0006988
3607.19	0.0006565
3616.84	0.000587
3626.48	0.00050376
3636.13	0.0006773
3645.77	0.0006655
3655.42	0.000659
3665.06	0.0006024
3674.71	0.0007422
3684.35	0.0007573
3694	0.00050032
3703.64	0.00045277
3713.29	0.0007193
3722.93	0.0005485
3732.58	0.000555
3742.22	0.0005926
3751.86	0.0007546
3761.51	0.0007514
3771.15	0.0005541
3780.8	0.0005766
3790.44	0.0006162
3800.09	0.000653
3809.73	0.0007447
3819.38	0.00047968
3829.02	0.0005442
3838.67	0.0005717
3848.31	0.0006493
3857.96	0.0006355
3867.6	0.0006237
3877.25	0.0006161
3886.89	0.0006104
3896.54	0.0005454
3906.18	0.0007027
3915.83	0.0005776
3925.47	0.0006568
3935.12	0.0005563
3944.76	0.0007153
3954.41	0.0005871
3964.05	0.0006334
3973.69	0.0006688
3983.34	0.0006287
3992.98	0.0005626
