Infrared Spectrum: IMIDAZOLE, 4-METHYL-5-NITRO-
Formula: C4 H5 N3 O2
CAS: 14003-66-8
State: SOLID (SPLIT MULL)
Class: COBLENTZ III
Instrument: DOW KBr FOREPRISM-GRATING
Instrument parameters: BLAZED AT 3.5, 12.0, 20.0 MICRON AND CHANGED AT 5.0, 7.5, 14.9 MICRON
Sampling: TRANSMISSION
Resolution: 2
Origin: DOW CHEMICAL COMPANY
1/CM	TRANSMITTANCE
3804	0.7285
3795	0.7307
3786	0.7334
3777	0.7358
3768	0.7371
3759	0.7388
3750	0.741
3741	0.7431
3732	0.7443
3723	0.7449
3714	0.7455
3705	0.746
3696	0.7465
3687	0.7468
3678	0.7478
3669	0.749
3660	0.7501
3651	0.7515
3642	0.7533
3633	0.7551
3624	0.7565
3615	0.7575
3606	0.7584
3597	0.7589
3588	0.7578
3579	0.7582
3570	0.7596
3561	0.7608
3552	0.7625
3543	0.7642
3534	0.7658
3525	0.7675
3516	0.7688
3507	0.7699
3498	0.7711
3489	0.7722
3480	0.7735
3471	0.7748
3462	0.7767
3453	0.7786
3444	0.7805
3435	0.7825
3426	0.785
3417	0.7875
3408	0.79
3399	0.7918
3390	0.7938
3381	0.7955
3372	0.7967
3363	0.7978
3354	0.7987
3345	0.7989
3336	0.7989
3327	0.7978
3318	0.7942
3309	0.7864
3300	0.7775
3291	0.7668
3282	0.7539
3273	0.7345
3264	0.7043
3255	0.6678
3246	0.639
3237	0.6162
3228	0.5912
3219	0.5707
3210	0.5495
3201	0.5309
3192	0.5153
3183	0.5152
3174	0.5204
3165	0.5045
3156	0.4785
3147	0.4516
3138	0.4215
3129	0.3842
3120	0.3994
3111	0.3934
3102	0.3902
3093	0.3897
3084	0.391
3075	0.3902
3066	0.3876
3057	0.385
3048	0.3847
3039	0.3918
3030	0.4127
3021	0.4355
3012	0.4594
3003	0.4832
2994	0.4885
2985	0.4312
2976	0.4158
2967	0.4088
2958	0.4043
2949	0.4202
2940	0.4403
2931	0.4527
2922	0.4618
2913	0.4679
2904	0.4729
2895	0.4767
2886	0.4803
2877	0.483
2868	0.4879
2859	0.4958
2850	0.5066
2841	0.5158
2832	0.5208
2823	0.5208
2814	0.5024
2805	0.4721
2796	0.4659
2787	0.4708
2778	0.4902
2769	0.5141
2760	0.5347
2751	0.5516
2742	0.5662
2733	0.5823
2724	0.5955
2715	0.6034
2706	0.6052
2697	0.6042
2688	0.6028
2679	0.6088
2670	0.6258
2661	0.6342
2652	0.6403
2643	0.6521
2634	0.6682
2625	0.6841
2616	0.6939
2607	0.6985
2598	0.7026
2589	0.7061
2580	0.7107
2571	0.7165
2562	0.7228
2553	0.7297
2544	0.7346
2535	0.7392
2526	0.7412
2517	0.7421
2508	0.7425
2499	0.7451
2490	0.7557
2481	0.7617
2472	0.7648
2463	0.7678
2454	0.7715
2445	0.7754
2436	0.7786
2427	0.7815
2418	0.7845
2409	0.7869
2400	0.7893
2391	0.7914
2382	0.7936
2373	0.7958
2364	0.7976
2355	0.7995
2346	0.8015
2337	0.8036
2328	0.8058
2319	0.8084
2310	0.8111
2301	0.8139
2292	0.8167
2283	0.8194
2274	0.8218
2265	0.8241
2256	0.8264
2247	0.8286
2238	0.831
2229	0.8334
2220	0.8355
2211	0.8373
2202	0.838
2193	0.8385
2184	0.8393
2175	0.8437
2166	0.8481
2157	0.8521
2148	0.8546
2139	0.8568
2130	0.8592
2121	0.8604
2112	0.8616
2103	0.8634
2094	0.8655
2085	0.8671
2076	0.8678
2067	0.8687
2058	0.8701
2049	0.8713
2040	0.8724
2031	0.8739
2022	0.8758
2013	0.8777
2004	0.8782
1995	0.8356
1986	0.8457
1977	0.8483
1968	0.8468
1959	0.8575
1950	0.8543
1941	0.8538
1932	0.8554
1923	0.8573
1914	0.8591
1905	0.8603
1896	0.8594
1887	0.8573
1878	0.8557
1869	0.8553
1860	0.8552
1851	0.8535
1842	0.8515
1833	0.8493
1824	0.8432
1815	0.8374
1806	0.834
1797	0.833
1788	0.8325
1779	0.8328
1770	0.8336
1761	0.8347
1752	0.8363
1743	0.8375
1734	0.8383
1725	0.8391
1716	0.8401
1707	0.8466
1698	0.849
1689	0.8383
1680	0.8103
1671	0.8417
1662	0.864
1653	0.8778
1644	0.8881
1635	0.8958
1626	0.8968
1617	0.8847
1608	0.7065
1599	0.2422
1590	0.5035
1581	0.7334
1572	0.7868
1563	0.8214
1554	0.8571
1545	0.8738
1536	0.8688
1527	0.7353
1518	0.4702
1509	0.4896
1500	0.3709
1491	0.3006
1482	0.1798
1473	0.4126
1464	0.5887
1455	0.6399
1446	0.6751
1437	0.6656
1428	0.4909
1419	0.3753
1410	0.48
1401	0.6231
1392	0.7031
1383	0.3886
1374	0.2375
1365	0.0725
1356	0.0954
1347	0.1804
1338	0.2618
1329	0.4464
1320	0.5103
1311	0.5615
1302	0.6032
1293	0.6044
1284	0.5978
1275	0.4696
1266	0.4928
1257	0.6938
1248	0.7493
1239	0.3886
1230	0.4821
1221	0.6548
1212	0.7403
1203	0.7755
1194	0.7875
1185	0.7931
1176	0.7898
1167	0.7018
1158	0.5705
1149	0.6764
1140	0.7612
1131	0.7901
1122	0.8064
1113	0.8075
1104	0.734
1095	0.7808
1086	0.8115
1077	0.8251
1068	0.8282
1059	0.8377
1050	0.8394
1041	0.8323
1032	0.8303
1023	0.849
1014	0.8645
1005	0.8734
996	0.8757
987	0.8238
978	0.753
969	0.8028
960	0.7571
951	0.2138
942	0.5894
933	0.7075
924	0.7675
915	0.7898
906	0.7989
897	0.7897
888	0.7668
879	0.7446
870	0.7433
861	0.8019
852	0.8547
843	0.4307
834	0.1195
825	0.7392
816	0.8257
807	0.8612
798	0.8889
789	0.9035
780	0.9123
771	0.9093
762	0.8885
753	0.9275
744	0.9293
735	0.9127
726	0.8999
717	0.8978
708	0.9428
699	0.9561
690	0.9418
681	0.9399
672	0.957
663	0.9288
654	0.6104
645	0.8095
636	0.9098
627	0.9353
618	0.9431
609	0.938
600	0.9358
591	0.9325
582	0.9275
573	0.9232
564	0.9195
555	0.9174
546	0.9187
537	0.9209
528	0.921
519	0.9207
510	0.9209
501	0.9118
492	0.9032
483	0.8952
474	0.8791
465	0.826
456	0.7941
447	0.7989
438	0.7928
429	0.7858
420	0.7794
411	0.7778
402	0.7744
393	0.7714
384	0.7665
