Infrared Spectrum: 9H-PURINE-6(1H)-ONE, 9-BENZYL-
Formula: C12 H10 N4 O
CAS: 14013-11-7
State: SOLID (1 mg / 650 mg KBr DISC)
Class: COBLENTZ III
Instrument: PERKIN-ELMER 21 (GRATING)
Instrument parameters: FILTER CHANGE AT 1090 CM^-^1
Sampling: TRANSMISSION
Resolution: 2
Origin: SOUTHERN RESEARCH INSTITUTE, W.C. Coburn, Jr.
1/CM	TRANSMITTANCE
605.713	0.9309
614.756	0.9283
623.799	0.9236
632.843	0.9015
641.886	0.8212
650.929	0.362
659.972	0.874
669.015	0.8799
678.059	0.8573
687.102	0.8074
696.145	0.7148
705.188	0.5587
714.231	0.446
723.275	0.6613
732.318	0.4601
741.361	0.1044
750.404	0.5018
759.447	0.7519
768.491	0.7832
777.534	0.7891
786.577	0.6759
795.62	0.4791
804.663	0.7421
813.707	0.715
822.75	0.5945
831.793	0.7251
840.836	0.7164
849.879	0.5462
858.923	0.6367
867.966	0.6972
877.009	0.681
886.052	0.6102
895.095	0.5583
904.139	0.5635
913.182	0.5378
922.225	0.4678
931.268	0.4999
940.311	0.5883
949.355	0.6375
958.398	0.6395
967.441	0.7705
976.484	0.7712
985.527	0.7509
994.571	0.7391
1003.61	0.6924
1012.66	0.7415
1021.7	0.7389
1030.74	0.7107
1039.79	0.6506
1048.83	0.7224
1057.87	0.7145
1066.92	0.6759
1075.96	0.5593
1085	0.4773
1094.05	0.6985
1103.09	0.6732
1112.13	0.6065
1121.18	0.5504
1130.22	0.248
1139.26	0.4957
1148.31	0.619
1157.35	0.6348
1166.39	0.7017
1175.43	0.6917
1184.48	0.6737
1193.52	0.6089
1202.56	0.1874
1211.61	0.3798
1220.65	0.2013
1229.69	0.5362
1238.74	0.7425
1247.78	0.7405
1256.82	0.727
1265.87	0.714
1274.91	0.689
1283.95	0.5909
1293	0.5557
1302.04	0.5626
1311.08	0.6139
1320.13	0.5805
1329.17	0.4528
1338.21	0.2399
1347.26	0.2564
1356.3	0.367
1365.34	0.3474
1374.39	0.5933
1383.43	0.5732
1392.47	0.5474
1401.51	0.5174
1410.56	0.4614
1419.6	0.1162
1428.64	0.2561
1437.69	0.4523
1446.73	0.5246
1455.77	0.4683
1464.82	0.4168
1473.86	0.5214
1482.9	0.3287
1491.95	0.3651
1500.99	0.4981
1510.03	0.5123
1519.08	0.4042
1528.12	0.386
1537.16	0.4661
1546.21	0.2853
1555.25	0.1584
1564.29	0.3774
1573.34	0.3288
1582.38	0.2481
1591.42	0.1169
1600.47	0.2929
1609.51	0.5161
1618.55	0.6024
1627.59	0.5983
1636.64	0.5512
1645.68	0.4709
1654.72	0.3623
1663.77	0.3308
1672.81	0.1644
1681.85	0.0268
1690.9	0.0211
1699.94	0.0263
1708.98	0.0698
1718.03	0.2809
1727.07	0.4918
1736.11	0.528
1745.16	0.5493
1754.2	0.6616
1763.24	0.7086
1772.29	0.7257
1781.33	0.7277
1790.37	0.7112
1799.42	0.719
1808.46	0.7165
1817.5	0.7104
1826.55	0.6975
1835.59	0.7027
1844.63	0.7237
1853.67	0.7241
1862.72	0.7243
1871.76	0.7316
1880.8	0.7308
1889.85	0.7198
1898.89	0.7175
1907.93	0.7176
1916.98	0.7171
1926.02	0.717
1935.06	0.7227
1944.11	0.7236
1953.15	0.7152
1962.19	0.6967
1971.24	0.6925
1980.28	0.6972
1989.32	0.7075
1998.37	0.7205
2007.41	0.7225
2016.45	0.7229
2025.5	0.7316
2034.54	0.7349
2043.58	0.7351
2052.63	0.7354
2061.67	0.7348
2070.71	0.7342
2079.75	0.7332
2088.8	0.7323
2097.84	0.7321
2106.88	0.7317
2115.93	0.7296
2124.97	0.7267
2134.01	0.7241
2143.06	0.7215
2152.1	0.7173
2161.14	0.7173
2170.19	0.7194
2179.23	0.7175
2188.27	0.7143
2197.32	0.7123
2206.36	0.7094
2215.4	0.7056
2224.45	0.7019
2233.49	0.6987
2242.53	0.6959
2251.58	0.6915
2260.62	0.6877
2269.66	0.6854
2278.71	0.6823
2287.75	0.6754
2296.79	0.6673
2305.83	0.6571
2314.88	0.6482
2323.92	0.6398
2332.96	0.6337
2342.01	0.6286
2351.05	0.6304
2360.09	0.6333
2369.14	0.6332
2378.18	0.6316
2387.22	0.629
2396.27	0.6219
2405.31	0.612
2414.35	0.6078
2423.4	0.6024
2432.44	0.5952
2441.48	0.5864
2450.53	0.5795
2459.57	0.5713
2468.61	0.5626
2477.66	0.5515
2486.7	0.5346
2495.74	0.5283
2504.79	0.521
2513.83	0.5115
2522.87	0.5013
2531.91	0.494
2540.96	0.4894
2550	0.4769
2559.04	0.4621
2568.09	0.445
2577.13	0.4255
2586.17	0.4079
2595.22	0.3918
2604.26	0.3775
2613.3	0.364
2622.35	0.3673
2631.39	0.37
2640.43	0.356
2649.48	0.3384
2658.52	0.3369
2667.56	0.3456
2676.61	0.3477
2685.65	0.3389
2694.69	0.32
2703.74	0.3142
2712.78	0.3091
2721.82	0.3071
2730.87	0.3009
2739.91	0.2981
2748.95	0.2718
2757.99	0.2604
2767.04	0.2553
2776.08	0.2352
2785.12	0.2214
2794.17	0.2186
2803.21	0.2163
2812.25	0.2037
2821.3	0.1992
2830.34	0.196
2839.38	0.1959
2848.43	0.1939
2857.47	0.2023
2866.51	0.2345
2875.56	0.2538
2884.6	0.2706
2893.64	0.2757
2902.69	0.2789
2911.73	0.3081
2920.77	0.3484
2929.82	0.3558
2938.86	0.3589
2947.9	0.3502
2956.95	0.3355
2965.99	0.3416
2975.03	0.346
2984.08	0.3325
2993.12	0.3022
3002.16	0.2794
3011.2	0.2876
3020.25	0.2797
3029.29	0.2425
3038.33	0.2076
3047.38	0.1964
3056.42	0.2088
3065.46	0.2585
3074.51	0.3057
3083.55	0.3319
3092.59	0.3438
3101.64	0.3628
3110.68	0.3629
3119.72	0.3901
3128.77	0.4275
3137.81	0.4509
3146.85	0.4546
3155.9	0.4583
3164.94	0.4643
3173.98	0.4771
3183.03	0.4851
3192.07	0.4869
3201.11	0.4879
3210.16	0.4884
3219.2	0.4897
3228.24	0.4924
3237.28	0.502
3246.33	0.5137
3255.37	0.5156
3264.41	0.5156
3273.46	0.5132
3282.5	0.5101
3291.54	0.5022
3300.59	0.4927
3309.63	0.4898
3318.67	0.4841
3327.72	0.4761
3336.76	0.4695
3345.8	0.4694
3354.85	0.4763
3363.89	0.4911
3372.93	0.5005
3381.98	0.5035
3391.02	0.4894
3400.06	0.4767
3409.11	0.4734
3418.15	0.5133
3427.19	0.5418
3436.24	0.5449
3445.28	0.5457
3454.32	0.5472
3463.36	0.55
3472.41	0.5448
3481.45	0.5404
3490.49	0.5435
3499.54	0.5523
3508.58	0.5548
3517.62	0.5562
3526.67	0.5578
3535.71	0.561
3544.75	0.5634
3553.8	0.5763
3562.84	0.5772
3571.88	0.5751
3580.93	0.575
3589.97	0.5783
3599.01	0.5849
3608.06	0.5949
3617.1	0.599
3626.14	0.6022
3635.19	0.605
3644.23	0.6084
3653.27	0.6093
3662.32	0.606
3671.36	0.6036
3680.4	0.6008
3689.44	0.5997
3698.49	0.606
3707.53	0.6054
3716.57	0.6046
3725.62	0.6054
3734.66	0.6019
3743.7	0.5974
3752.75	0.5918
3761.79	0.5874
3770.83	0.5941
3779.88	0.5978
3788.92	0.5972
3797.96	0.5959
3807.01	0.5941
3816.05	0.5915
3825.09	0.5878
3834.14	0.5838
3843.18	0.5827
3852.22	0.5804
3861.27	0.5822
3870.31	0.5808
3879.35	0.5772
3888.4	0.5724
3897.44	0.5672
3906.48	0.5764
3915.52	0.5791
3924.57	0.5765
3933.61	0.5742
3942.65	0.5735
3951.7	0.5749
3960.74	0.5714
3969.78	0.5767
3978.83	0.5757
3987.87	0.5717
3996.91	0.5682
4005.96	0.5585
4015	0.4711
