Infrared Spectrum: P-CRESOL, 2,2'-METHYLENE BIS(6-(1,1,3,3-TETRAMETHYLBUTYL))-
Formula: C31 H48 O2
CAS: 14020-52-1
State: SOLID (KBr PELLET)
Class: COBLENTZ
Instrument: Not specified, most likely a prism, grating, or hybrid spectrometer.
Sampling: TRANSMISSION
Resolution: 4
Origin: TENNESSEE EASTMAN COMPANY, RESEARCH LABORATORIES
MICROMETERS	TRANSMITTANCE
2.014	0.929
2.05514	0.929
2.09628	0.927
2.13741	0.927
2.17855	0.927
2.21969	0.925
2.26083	0.912
2.30197	0.903
2.34311	0.905
2.38424	0.908
2.42538	0.912
2.46652	0.913
2.50766	0.917
2.5488	0.919
2.58994	0.919
2.63107	0.92
2.67221	0.924
2.71335	0.919
2.75449	0.826
2.79563	0.709
2.83676	0.189
2.8779	0.328
2.91904	0.602
2.96018	0.674
3.00132	0.741
3.04246	0.784
3.08359	0.805
3.12473	0.827
3.16587	0.853
3.20701	0.877
3.24815	0.882
3.28929	0.834
3.33042	0.461
3.37156	0.079
3.4127	0.234
3.45384	0.314
3.49498	0.619
3.53611	0.841
3.57725	0.9
3.61839	0.924
3.65953	0.919
3.70067	0.922
3.74181	0.931
3.78294	0.929
3.82408	0.931
3.86522	0.938
3.90636	0.943
3.9475	0.95
3.98864	0.951
4.02977	0.944
4.07091	0.946
4.11205	0.95
4.15319	0.951
4.19433	0.955
4.23546	0.955
4.2766	0.951
4.31774	0.951
4.35888	0.956
4.40002	0.972
4.44116	0.977
4.48229	0.977
4.52343	0.977
4.56457	0.977
4.60571	0.977
4.64685	0.977
4.68799	0.977
4.72912	0.977
4.77026	0.977
4.8114	0.977
4.85254	0.977
4.89368	0.977
4.93481	0.975
4.97595	0.975
5.01709	0.981
5.05823	0.979
5.09937	0.975
5.14051	0.975
5.18164	0.975
5.22278	0.975
5.26392	0.975
5.30506	0.979
5.3462	0.979
5.38734	0.979
5.42847	0.981
5.46961	0.979
5.51075	0.975
5.55189	0.969
5.59303	0.956
5.63416	0.934
5.6753	0.92
5.71644	0.905
5.75758	0.905
5.79872	0.896
5.83986	0.881
5.88099	0.891
5.92213	0.912
5.96327	0.917
6.00441	0.915
6.04555	0.907
6.08669	0.87
6.12782	0.853
6.16896	0.851
6.2101	0.836
6.25124	0.864
6.29238	0.912
6.33351	0.925
6.37465	0.924
6.41579	0.905
6.45693	0.91
6.49807	0.905
6.53921	0.903
6.58034	0.882
6.62148	0.846
6.66262	0.772
6.70376	0.547
6.7449	0.24
6.78604	0.146
6.82717	0.209
6.86831	0.199
6.90945	0.318
6.95059	0.528
6.99173	0.578
7.03286	0.571
7.074	0.729
7.11514	0.767
7.15628	0.602
7.19742	0.619
7.23856	0.771
7.27969	0.781
7.32083	0.413
7.36197	0.672
7.40311	0.795
7.44425	0.726
7.48539	0.74
7.52652	0.401
7.56766	0.648
7.6088	0.746
7.64994	0.784
7.69108	0.827
7.73221	0.771
7.77335	0.74
7.81449	0.779
7.85563	0.826
7.89677	0.834
7.93791	0.774
7.97904	0.659
8.02018	0.5
8.06132	0.466
8.10246	0.442
8.1436	0.223
8.18474	0.45
8.22587	0.602
8.26701	0.555
8.30815	0.476
8.34929	0.234
8.39043	0.146
8.43156	0.275
8.4727	0.433
8.51384	0.554
8.55498	0.595
8.59612	0.547
8.63726	0.609
8.67839	0.728
8.71953	0.776
8.76067	0.798
8.80181	0.795
8.84295	0.808
8.88409	0.826
8.92522	0.803
8.96636	0.722
9.0075	0.788
9.04864	0.822
9.08978	0.848
9.13091	0.857
9.17205	0.87
9.21319	0.881
9.25433	0.884
9.29547	0.884
9.33661	0.884
9.37774	0.884
9.41888	0.884
9.46002	0.879
9.50116	0.86
9.5423	0.829
9.58344	0.8
9.62457	0.803
9.66571	0.815
9.70685	0.802
9.74799	0.805
9.78913	0.807
9.83026	0.807
9.8714	0.802
9.91254	0.82
9.95368	0.853
9.99482	0.867
10.036	0.87
10.0771	0.87
10.1182	0.857
10.1594	0.815
10.2005	0.791
10.2416	0.819
10.2828	0.857
10.3239	0.877
10.3651	0.889
10.4062	0.893
10.4473	0.893
10.4885	0.888
10.5296	0.877
10.5708	0.874
10.6119	0.874
10.653	0.876
10.6942	0.853
10.7353	0.838
10.7764	0.848
10.8176	0.834
10.8587	0.808
10.8999	0.81
10.941	0.851
10.9821	0.895
11.0233	0.907
11.0644	0.908
11.1056	0.915
11.1467	0.91
11.1878	0.888
11.229	0.874
11.2701	0.834
11.3112	0.822
11.3524	0.822
11.3935	0.838
11.4347	0.815
11.4758	0.645
11.5169	0.612
11.5581	0.581
11.5992	0.507
11.6403	0.55
11.6815	0.745
11.7226	0.829
11.7638	0.865
11.8049	0.886
11.846	0.889
11.8872	0.893
11.9283	0.896
11.9695	0.903
12.0106	0.907
12.0517	0.905
12.0929	0.905
12.134	0.893
12.1751	0.895
12.2163	0.889
12.2574	0.874
12.2986	0.824
12.3397	0.765
12.3808	0.753
12.422	0.824
12.4631	0.855
12.5043	0.872
12.5454	0.877
12.5865	0.882
12.6277	0.882
12.6688	0.879
12.7099	0.874
12.7511	0.85
12.7922	0.834
12.8334	0.814
12.8745	0.767
12.9156	0.611
12.9568	0.466
12.9979	0.535
13.039	0.702
13.0802	0.781
13.1213	0.807
13.1625	0.807
13.2036	0.755
13.2447	0.779
13.2859	0.831
13.327	0.857
13.3682	0.867
13.4093	0.874
13.4504	0.882
13.4916	0.901
13.5327	0.907
13.5738	0.912
13.615	0.917
13.6561	0.917
13.6973	0.919
13.7384	0.919
13.7795	0.922
13.8207	0.925
13.8618	0.927
13.903	0.932
13.9441	0.934
13.9852	0.936
14.0264	0.938
14.0675	0.938
14.1086	0.939
14.1498	0.939
14.1909	0.941
14.2321	0.948
14.2732	0.95
14.3143	0.953
14.3555	0.953
14.3966	0.951
14.4377	0.951
14.4789	0.951
14.52	0.953
14.5612	0.951
14.6023	0.955
14.6434	0.956
14.6846	0.956
14.7257	0.958
14.7669	0.96
14.808	0.963
14.8491	0.965
14.8903	0.967
14.9314	0.967
14.9725	0.958
15.0137	0.956
15.0548	0.956
15.096	0.958
15.1371	0.958
15.1782	0.956
15.2194	0.958
15.2605	0.955
15.3017	0.946
15.3428	0.934
15.3839	0.929
15.4251	0.92
15.4662	0.913
15.5073	0.913
15.5485	0.908
15.5896	0.898
15.6308	0.893
15.6719	0.891
15.713	0.882
15.7542	0.864
15.7953	0.846
15.8364	0.836
15.8776	0.829
15.9187	0.82
15.9599	0.808
16.001	0.795
