Infrared Spectrum: MANGANESE BIS-ACETYL ACETONATE
Formula: C10 H14 O4 Mn
CAS: 14024-58-9
State: SOLID (0.5% IN KBr PELLET)
Class: COBLENTZ
Instrument: Not specified, most likely a grating spectrometer.
Sampling: TRANSMISSION
Resolution: 4
Origin: STANDARD OIL OF OHIO
MICROMETERS	TRANSMITTANCE
2.013	0.932
2.04659	0.939
2.08019	0.949
2.11378	0.957
2.14737	0.966
2.18097	0.969
2.21456	0.973
2.24815	0.969
2.28174	0.964
2.31534	0.969
2.34893	0.978
2.38252	0.986
2.41612	0.989
2.44971	0.989
2.4833	0.984
2.5169	0.981
2.55049	0.984
2.58408	0.989
2.61767	0.998
2.65127	0.998
2.68486	0.989
2.71845	0.915
2.75205	0.711
2.78564	0.451
2.81923	0.337
2.85283	0.258
2.88642	0.215
2.92001	0.227
2.9536	0.338
2.9872	0.485
3.02079	0.603
3.05438	0.664
3.08798	0.731
3.12157	0.801
3.15516	0.839
3.18876	0.851
3.22235	0.853
3.25594	0.856
3.28954	0.807
3.32313	0.753
3.35672	0.775
3.39031	0.807
3.42391	0.831
3.4575	0.9
3.49109	0.925
3.52469	0.947
3.55828	0.961
3.59187	0.971
3.62547	0.976
3.65906	0.989
3.69265	0.996
3.72624	1
3.75984	1
3.79343	0.993
3.82702	0.991
3.86062	0.989
3.89421	0.989
3.9278	0.988
3.9614	0.983
3.99499	0.986
4.02858	0.981
4.06217	0.962
4.09577	0.957
4.12936	0.974
4.16295	0.973
4.19655	0.966
4.23014	0.967
4.26373	0.974
4.29733	0.971
4.33092	0.952
4.36451	0.939
4.39811	0.954
4.4317	0.971
4.46529	0.983
4.49888	0.979
4.53248	0.971
4.56607	0.969
4.59966	0.973
4.63326	0.969
4.66685	0.961
4.70044	0.947
4.73404	0.956
4.76763	0.962
4.80122	0.961
4.83481	0.951
4.86841	0.944
4.902	0.94
4.93559	0.942
4.96919	0.947
5.00278	0.951
5.03637	0.939
5.06997	0.924
5.10356	0.917
5.13715	0.925
5.17074	0.949
5.20434	0.961
5.23793	0.969
5.27152	0.974
5.30512	0.973
5.33871	0.967
5.3723	0.964
5.4059	0.967
5.43949	0.971
5.47308	0.973
5.50668	0.967
5.54027	0.961
5.57386	0.952
5.60745	0.947
5.64105	0.939
5.67464	0.93
5.70823	0.913
5.74183	0.87
5.77542	0.775
5.80901	0.75
5.84261	0.725
5.8762	0.723
5.90979	0.733
5.94338	0.73
5.97698	0.684
6.01057	0.58
6.04416	0.468
6.07776	0.381
6.11135	0.266
6.14494	0.166
6.17854	0.048
6.21213	0.013
6.24572	0.005
6.27931	0.001
6.31291	0.001
6.3465	0.001
6.38009	0.005
6.41369	0.01
6.44728	0.018
6.48087	0.016
6.51447	0.006
6.54806	0.001
6.58165	0.001
6.61524	0.003
6.64884	0.008
6.68243	0.035
6.71602	0.156
6.74962	0.204
6.78321	0.224
6.8168	0.198
6.8504	0.151
6.88399	0.126
6.91758	0.116
6.95118	0.102
6.98477	0.074
7.01836	0.052
7.05195	0.038
7.08555	0.018
7.11914	0.01
7.15273	0.003
7.18633	0.001
7.21992	0
7.25351	0
7.28711	0.001
7.3207	0.005
7.35429	0.006
7.38788	0.013
7.42148	0.016
7.45507	0.026
7.48866	0.079
7.52226	0.195
7.55585	0.288
7.58944	0.354
7.62304	0.408
7.65663	0.44
7.69022	0.455
7.72381	0.445
7.75741	0.369
7.791	0.318
7.82459	0.288
7.85819	0.227
7.89178	0.151
7.92537	0.082
7.95897	0.067
7.99256	0.153
8.02615	0.408
8.05975	0.482
8.09334	0.553
8.12693	0.605
8.16052	0.639
8.19412	0.662
8.22771	0.671
8.2613	0.672
8.2949	0.654
8.32849	0.613
8.36208	0.554
8.39568	0.548
8.42927	0.612
8.46286	0.666
8.49645	0.711
8.53005	0.731
8.56364	0.743
8.59723	0.75
8.63083	0.76
8.66442	0.763
8.69801	0.77
8.73161	0.777
8.7652	0.784
8.79879	0.789
8.83238	0.784
8.86598	0.785
8.89957	0.794
8.93316	0.799
8.96676	0.804
9.00035	0.807
9.03394	0.811
9.06754	0.816
9.10113	0.809
9.13472	0.797
9.16832	0.794
9.20191	0.792
9.2355	0.792
9.26909	0.792
9.30269	0.792
9.33628	0.792
9.36987	0.79
9.40347	0.785
9.43706	0.775
9.47065	0.76
9.50425	0.748
9.53784	0.721
9.57143	0.684
9.60502	0.596
9.63862	0.5
9.67221	0.367
9.7058	0.261
9.7394	0.192
9.77299	0.133
9.80658	0.133
9.84018	0.158
9.87377	0.296
9.90736	0.409
9.94095	0.509
9.97455	0.591
10.0081	0.649
10.0417	0.688
10.0753	0.72
10.1089	0.74
10.1425	0.755
10.1761	0.767
10.2097	0.774
10.2433	0.782
10.2769	0.789
10.3105	0.789
10.3441	0.78
10.3777	0.772
10.4113	0.757
10.4449	0.745
10.4784	0.703
10.512	0.634
10.5456	0.602
10.5792	0.532
10.6128	0.472
10.6464	0.401
10.68	0.3
10.7136	0.242
10.7472	0.202
10.7808	0.182
10.8144	0.185
10.848	0.237
10.8816	0.305
10.9152	0.421
10.9487	0.502
10.9823	0.566
11.0159	0.634
11.0495	0.672
11.0831	0.708
11.1167	0.736
11.1503	0.753
11.1839	0.772
11.2175	0.789
11.2511	0.802
11.2847	0.811
11.3183	0.817
11.3519	0.826
11.3855	0.831
11.419	0.834
11.4526	0.834
11.4862	0.838
11.5198	0.843
11.5534	0.846
11.587	0.846
11.6206	0.846
11.6542	0.846
11.6878	0.846
11.7214	0.844
11.755	0.841
11.7886	0.838
11.8222	0.836
11.8558	0.833
11.8894	0.827
11.9229	0.826
11.9565	0.824
11.9901	0.817
12.0237	0.811
12.0573	0.802
12.0909	0.79
12.1245	0.78
12.1581	0.765
12.1917	0.752
12.2253	0.738
12.2589	0.725
12.2925	0.711
12.3261	0.698
12.3597	0.684
12.3932	0.667
12.4268	0.654
12.4604	0.645
12.494	0.635
12.5276	0.627
12.5612	0.623
12.5948	0.62
12.6284	0.617
12.662	0.608
12.6956	0.596
12.7292	0.581
12.7628	0.559
12.7964	0.536
12.83	0.517
12.8635	0.487
12.8971	0.472
12.9307	0.463
12.9643	0.463
12.9979	0.485
13.0315	0.522
13.0651	0.564
13.0987	0.615
13.1323	0.644
13.1659	0.684
13.1995	0.711
13.2331	0.741
13.2667	0.753
13.3003	0.768
13.3339	0.775
13.3674	0.78
13.401	0.784
13.4346	0.785
13.4682	0.785
13.5018	0.785
13.5354	0.785
13.569	0.785
13.6026	0.785
13.6362	0.784
13.6698	0.785
13.7034	0.784
13.737	0.779
13.7706	0.777
13.8042	0.772
13.8377	0.77
13.8713	0.77
13.9049	0.77
13.9385	0.763
13.9721	0.758
14.0057	0.755
14.0393	0.753
14.0729	0.745
14.1065	0.741
14.1401	0.736
14.1737	0.733
14.2073	0.726
14.2409	0.715
14.2745	0.704
14.308	0.696
14.3416	0.686
14.3752	0.669
14.4088	0.65
14.4424	0.634
14.476	0.608
14.5096	0.588
14.5432	0.566
14.5768	0.539
14.6104	0.504
14.644	0.477
14.6776	0.443
14.7112	0.419
14.7448	0.399
14.7784	0.384
14.8119	0.369
14.8455	0.354
14.8791	0.349
14.9127	0.349
14.9463	0.36
14.9799	0.381
15.0135	0.406
15.0471	0.428
15.0807	0.448
15.1143	0.475
15.1479	0.495
15.1815	0.502
15.2151	0.505
15.2487	0.509
15.2822	0.512
15.3158	0.521
15.3494	0.537
15.383	0.568
