Infrared Spectrum: BIS(2,4-PENTANEDIONATO) IRON
Formula: C10 H14 Fe O4
CAS: 14024-17-0
State: SOLID (KBr WAFER)
Class: COBLENTZ
Instrument: BECKMAN IR-4 (HYBRID PRISM-GRATING)
Sampling: TRANSMISSION
Resolution: 4
Origin: MACKENZIE CHEMICAL WORKS, INC., LONG ISLAND, NEW YORK
MICROMETERS	TRANSMITTANCE
2.025	0.866
2.05996	0.87
2.09492	0.867
2.12988	0.87
2.16484	0.865
2.1998	0.87
2.23476	0.88
2.26972	0.88
2.30468	0.881
2.33964	0.887
2.3746	0.886
2.40956	0.887
2.44452	0.89
2.47948	0.892
2.51443	0.899
2.54939	0.905
2.58435	0.909
2.61931	0.907
2.65427	0.899
2.68923	0.894
2.72419	0.896
2.75915	0.884
2.79411	0.856
2.82907	0.841
2.86403	0.818
2.89899	0.795
2.93395	0.792
2.96891	0.795
3.00387	0.809
3.03883	0.835
3.07379	0.849
3.10875	0.853
3.14371	0.854
3.17867	0.853
3.21363	0.851
3.24859	0.851
3.28355	0.871
3.31851	0.884
3.35347	0.872
3.38843	0.871
3.42339	0.88
3.45834	0.899
3.4933	0.922
3.52826	0.919
3.56322	0.91
3.59818	0.911
3.63314	0.922
3.6681	0.924
3.70306	0.931
3.73802	0.938
3.77298	0.936
3.80794	0.936
3.8429	0.935
3.87786	0.932
3.91282	0.931
3.94778	0.931
3.98274	0.931
4.0177	0.931
4.05266	0.931
4.08762	0.93
4.12258	0.93
4.15754	0.931
4.1925	0.932
4.22746	0.937
4.26242	0.937
4.29738	0.932
4.33234	0.929
4.3673	0.929
4.40225	0.926
4.43721	0.922
4.47217	0.917
4.50713	0.917
4.54209	0.917
4.57705	0.92
4.61201	0.921
4.64697	0.921
4.68193	0.92
4.71689	0.921
4.75185	0.927
4.78681	0.929
4.82177	0.929
4.85673	0.929
4.89169	0.927
4.92665	0.925
4.96161	0.925
4.99657	0.925
5.03153	0.925
5.06649	0.925
5.10145	0.927
5.13641	0.93
5.17137	0.927
5.20633	0.929
5.24129	0.93
5.27625	0.932
5.31121	0.937
5.34616	0.941
5.38112	0.943
5.41608	0.942
5.45104	0.955
5.486	0.946
5.52096	0.932
5.55592	0.945
5.59088	0.948
5.62584	0.946
5.6608	0.95
5.69576	0.924
5.73072	0.929
5.76568	0.92
5.80064	0.92
5.8356	0.914
5.87056	0.894
5.90552	0.905
5.94048	0.891
5.97544	0.869
6.0104	0.866
6.04536	0.84
6.08032	0.826
6.11528	0.81
6.15024	0.784
6.1852	0.753
6.22016	0.687
6.25512	0.636
6.29007	0.483
6.32503	0.149
6.35999	0.018
6.39495	0.118
6.42991	0.326
6.46487	0.325
6.49983	0.146
6.53479	0.127
6.56975	0.325
6.60471	0.52
6.63967	0.683
6.67463	0.723
6.70959	0.747
6.74455	0.757
6.77951	0.755
6.81447	0.734
6.84943	0.661
6.88439	0.596
6.91935	0.55
6.95431	0.524
6.98927	0.504
7.02423	0.503
7.05919	0.52
7.09415	0.496
7.12911	0.384
7.16407	0.26
7.19903	0.255
7.23399	0.297
7.26894	0.268
7.3039	0.265
7.33886	0.281
7.37382	0.399
7.40878	0.564
7.44374	0.696
7.4787	0.777
7.51366	0.804
7.54862	0.829
7.58358	0.845
7.61854	0.855
7.6535	0.858
7.68846	0.864
7.72342	0.866
7.75838	0.838
7.79334	0.789
7.8283	0.514
7.86326	0.518
7.89822	0.803
7.93318	0.859
7.96814	0.871
8.0031	0.877
8.03806	0.879
8.07302	0.881
8.10798	0.877
8.14294	0.88
8.1779	0.88
8.21285	0.879
8.24781	0.879
8.28277	0.881
8.31773	0.87
8.35269	0.856
8.38765	0.846
8.42261	0.85
8.45757	0.867
8.49253	0.874
8.52749	0.871
8.56245	0.863
8.59741	0.841
8.63237	0.831
8.66733	0.821
8.70229	0.805
8.73725	0.772
8.77221	0.749
8.80717	0.748
8.84213	0.739
8.87709	0.711
8.91205	0.697
8.94701	0.724
8.98197	0.759
9.01693	0.806
9.05189	0.83
9.08685	0.84
9.12181	0.841
9.15676	0.846
9.19172	0.856
9.22668	0.861
9.26164	0.869
9.2966	0.87
9.33156	0.869
9.36652	0.875
9.40148	0.874
9.43644	0.87
9.4714	0.871
9.50636	0.87
9.54132	0.863
9.57628	0.861
9.61124	0.85
9.6462	0.838
9.68116	0.801
9.71612	0.738
9.75108	0.662
9.78604	0.633
9.821	0.647
9.85596	0.692
9.89092	0.738
9.92588	0.777
9.96084	0.825
9.9958	0.854
10.0308	0.866
10.0657	0.88
10.1007	0.884
10.1356	0.892
10.1706	0.89
10.2056	0.892
10.2405	0.904
10.2755	0.907
10.3104	0.907
10.3454	0.907
10.3804	0.902
10.4153	0.9
10.4503	0.901
10.4852	0.895
10.5202	0.895
10.5551	0.879
10.5901	0.856
10.6251	0.831
10.66	0.816
10.695	0.769
10.7299	0.734
10.7649	0.732
10.7999	0.762
10.8348	0.815
10.8698	0.854
10.9047	0.872
10.9397	0.896
10.9747	0.904
11.0096	0.914
11.0446	0.919
11.0795	0.922
11.1145	0.926
11.1495	0.93
11.1844	0.927
11.2194	0.927
11.2543	0.929
11.2893	0.931
11.3243	0.93
11.3592	0.93
11.3942	0.929
11.4291	0.932
11.4641	0.933
11.4991	0.938
11.534	0.941
11.569	0.942
11.6039	0.943
11.6389	0.94
11.6739	0.936
11.7088	0.938
11.7438	0.941
11.7787	0.941
11.8137	0.932
11.8487	0.932
11.8836	0.931
11.9186	0.929
11.9535	0.929
11.9885	0.927
12.0235	0.927
12.0584	0.926
12.0934	0.925
12.1283	0.922
12.1633	0.92
12.1983	0.917
12.2332	0.915
12.2682	0.911
12.3031	0.905
12.3381	0.896
12.3731	0.89
12.408	0.876
12.443	0.866
12.4779	0.854
12.5129	0.853
12.5478	0.863
12.5828	0.867
12.6178	0.874
12.6527	0.869
12.6877	0.879
12.7226	0.867
12.7576	0.867
12.7926	0.855
12.8275	0.851
12.8625	0.846
12.8974	0.826
12.9324	0.805
12.9674	0.798
13.0023	0.804
13.0373	0.815
13.0722	0.836
13.1072	0.858
13.1422	0.871
13.1771	0.885
13.2121	0.887
13.247	0.891
13.282	0.887
13.317	0.889
13.3519	0.891
13.3869	0.891
13.4218	0.889
13.4568	0.89
13.4918	0.889
13.5267	0.887
13.5617	0.886
13.5966	0.886
13.6316	0.886
13.6666	0.885
13.7015	0.886
13.7365	0.885
13.7714	0.882
13.8064	0.876
13.8414	0.871
13.8763	0.872
13.9113	0.875
13.9462	0.876
13.9812	0.869
14.0162	0.869
14.0511	0.866
14.0861	0.865
14.121	0.861
14.156	0.859
14.191	0.859
14.2259	0.86
14.2609	0.854
14.2958	0.856
14.3308	0.849
14.3657	0.843
14.4007	0.835
14.4357	0.833
14.4706	0.841
14.5056	0.833
14.5405	0.824
14.5755	0.814
14.6105	0.805
14.6454	0.803
14.6804	0.801
14.7153	0.795
14.7503	0.78
14.7853	0.762
14.8202	0.75
14.8552	0.735
14.8901	0.724
14.9251	0.719
14.9601	0.714
14.995	0.719
