Infrared Spectrum: BIS(2,4-PENTANEDIONATO) ZINC
Formula: C10 H14 O4 Zn
CAS: 14024-63-6
State: SOLID (KBr WAFER)
Melting point: 138 C
Class: COBLENTZ
Instrument: BECKMAN IR-4 (HYBRID PRISM-GRATING)
Sampling: TRANSMISSION
Resolution: 4
Origin: MAC KENZIE CHEMICAL WORKS, INC., LONG ISLAND, NEW YORK
MICROMETERS	TRANSMITTANCE
2.035	0.964
2.07005	0.971
2.10511	0.968
2.14016	0.961
2.17522	0.963
2.21027	0.969
2.24532	0.969
2.28038	0.969
2.31543	0.971
2.35049	0.971
2.38554	0.973
2.42059	0.979
2.45565	0.974
2.4907	0.973
2.52576	0.973
2.56081	0.962
2.59586	0.959
2.63092	0.959
2.66597	0.933
2.70103	0.928
2.73608	0.891
2.77113	0.846
2.80619	0.78
2.84124	0.694
2.8763	0.639
2.91135	0.575
2.9464	0.561
2.98146	0.589
3.01651	0.659
3.05157	0.69
3.08662	0.694
3.12167	0.712
3.15673	0.731
3.19178	0.761
3.22684	0.78
3.26189	0.787
3.29694	0.812
3.332	0.811
3.36705	0.822
3.40211	0.85
3.43716	0.858
3.47221	0.898
3.50727	0.913
3.54232	0.942
3.57738	0.947
3.61243	0.949
3.64748	0.961
3.68254	0.959
3.71759	0.961
3.75265	0.958
3.7877	0.958
3.82275	0.961
3.85781	0.958
3.89286	0.961
3.92792	0.959
3.96297	0.968
3.99802	0.969
4.03308	0.964
4.06813	0.956
4.10319	0.956
4.13824	0.959
4.17329	0.963
4.20835	0.962
4.2434	0.959
4.27846	0.961
4.31351	0.959
4.34856	0.957
4.38362	0.958
4.41867	0.964
4.45373	0.957
4.48878	0.953
4.52383	0.954
4.55889	0.949
4.59394	0.949
4.629	0.953
4.66405	0.949
4.6991	0.947
4.73416	0.945
4.76921	0.949
4.80427	0.952
4.83932	0.951
4.87437	0.945
4.90943	0.944
4.94448	0.952
4.97954	0.948
5.01459	0.939
5.04964	0.935
5.0847	0.932
5.11975	0.937
5.15481	0.939
5.18986	0.938
5.22491	0.933
5.25997	0.937
5.29502	0.943
5.33008	0.939
5.36513	0.942
5.40018	0.944
5.43524	0.942
5.47029	0.943
5.50535	0.938
5.5404	0.938
5.57545	0.932
5.61051	0.92
5.64556	0.918
5.68062	0.908
5.71567	0.904
5.75072	0.898
5.78578	0.88
5.82083	0.871
5.85589	0.858
5.89094	0.85
5.92599	0.814
5.96105	0.801
5.9961	0.785
6.03116	0.75
6.06621	0.721
6.10126	0.67
6.13632	0.57
6.17137	0.312
6.20642	0.169
6.24148	0.126
6.27653	0.169
6.31159	0.246
6.34664	0.399
6.38169	0.507
6.41675	0.518
6.4518	0.481
6.48686	0.256
6.52191	0.163
6.55696	0.114
6.59202	0.184
6.62707	0.375
6.66213	0.467
6.69718	0.566
6.73223	0.554
6.76729	0.471
6.80234	0.347
6.8374	0.304
6.87245	0.32
6.9075	0.341
6.94256	0.345
6.97761	0.315
7.01267	0.25
7.04772	0.189
7.08277	0.123
7.11783	0.096
7.15288	0.143
7.18794	0.224
7.22299	0.31
7.25804	0.378
7.2931	0.414
7.32815	0.457
7.36321	0.566
7.39826	0.657
7.43331	0.688
7.46837	0.738
7.50342	0.76
7.53848	0.781
7.57353	0.797
7.60858	0.8
7.64364	0.802
7.67869	0.807
7.71375	0.807
7.7488	0.811
7.78385	0.807
7.81891	0.771
7.85396	0.695
7.88902	0.518
7.92407	0.541
7.95912	0.675
7.99418	0.773
8.02923	0.807
8.06429	0.814
8.09934	0.825
8.13439	0.826
8.16945	0.829
8.2045	0.827
8.23956	0.824
8.27461	0.812
8.30966	0.787
8.34472	0.765
8.37977	0.78
8.41483	0.804
8.44988	0.82
8.48493	0.83
8.51999	0.83
8.55504	0.829
8.5901	0.83
8.62515	0.831
8.6602	0.837
8.69526	0.832
8.73031	0.83
8.76537	0.829
8.80042	0.83
8.83547	0.829
8.87053	0.827
8.90558	0.834
8.94064	0.829
8.97569	0.831
9.01074	0.829
9.0458	0.822
9.08085	0.827
9.11591	0.822
9.15096	0.827
9.18601	0.822
9.22107	0.827
9.25612	0.822
9.29118	0.826
9.32623	0.822
9.36128	0.825
9.39634	0.824
9.43139	0.822
9.46645	0.814
9.5015	0.811
9.53655	0.809
9.57161	0.801
9.60666	0.793
9.64172	0.775
9.67677	0.752
9.71182	0.709
9.74688	0.626
9.78193	0.516
9.81699	0.516
9.85204	0.577
9.88709	0.658
9.92215	0.736
9.9572	0.785
9.99226	0.798
10.0273	0.81
10.0624	0.812
10.0974	0.82
10.1325	0.825
10.1675	0.825
10.2026	0.824
10.2376	0.827
10.2727	0.829
10.3077	0.827
10.3428	0.825
10.3778	0.821
10.4129	0.816
10.448	0.812
10.483	0.811
10.5181	0.807
10.5531	0.797
10.5882	0.771
10.6232	0.737
10.6583	0.69
10.6933	0.613
10.7284	0.587
10.7634	0.59
10.7985	0.623
10.8336	0.66
10.8686	0.699
10.9037	0.734
10.9387	0.771
10.9738	0.787
11.0088	0.797
11.0439	0.801
11.0789	0.806
11.114	0.809
11.149	0.811
11.1841	0.814
11.2191	0.817
11.2542	0.819
11.2893	0.815
11.3243	0.815
11.3594	0.817
11.3944	0.821
11.4295	0.825
11.4645	0.82
11.4996	0.822
11.5346	0.821
11.5697	0.824
11.6047	0.825
11.6398	0.824
11.6748	0.822
11.7099	0.82
11.745	0.817
11.78	0.815
11.8151	0.814
11.8501	0.811
11.8852	0.807
11.9202	0.802
11.9553	0.8
11.9903	0.802
12.0254	0.807
12.0604	0.81
12.0955	0.812
12.1305	0.812
12.1656	0.809
12.2007	0.811
12.2357	0.809
12.2708	0.811
12.3058	0.812
12.3409	0.807
12.3759	0.805
12.411	0.809
12.446	0.802
12.4811	0.798
12.5161	0.795
12.5512	0.79
12.5863	0.788
12.6213	0.783
12.6564	0.778
12.6914	0.768
12.7265	0.755
12.7615	0.751
12.7966	0.728
12.8316	0.706
12.8667	0.699
12.9017	0.67
12.9368	0.597
12.9718	0.59
13.0069	0.645
13.042	0.683
13.077	0.713
13.1121	0.743
13.1471	0.76
13.1822	0.775
13.2172	0.785
13.2523	0.788
13.2873	0.791
13.3224	0.79
13.3574	0.791
13.3925	0.79
13.4275	0.788
13.4626	0.788
13.4977	0.788
13.5327	0.788
13.5678	0.787
13.6028	0.786
13.6379	0.785
13.6729	0.783
13.708	0.782
13.743	0.781
13.7781	0.78
13.8131	0.777
13.8482	0.776
13.8832	0.773
13.9183	0.77
13.9534	0.766
13.9884	0.761
14.0235	0.757
14.0585	0.755
14.0936	0.753
14.1286	0.752
14.1637	0.751
14.1987	0.752
14.2338	0.751
14.2688	0.748
14.3039	0.752
14.339	0.751
14.374	0.75
14.4091	0.747
14.4441	0.752
14.4792	0.746
14.5142	0.741
14.5493	0.737
14.5843	0.734
14.6194	0.738
14.6544	0.741
14.6895	0.734
14.7245	0.727
14.7596	0.723
14.7947	0.731
14.8297	0.724
14.8648	0.724
14.8998	0.736
14.9349	0.748
14.9699	0.753
15.005	0.756
