Infrared Spectrum: BIS(2,4-PENTANEDIONATO) MAGNESIUM
Formula: C10 H14 Mg O4
CAS: 14024-56-7
State: SOLID (KBr WAFER)
Melting point: 262-263 C
Class: COBLENTZ
Instrument: BECKMAN IR-4 (HYBRID PRISM-GRATING)
Sampling: TRANSMISSION
Resolution: 4
Origin: MACKENZIE CHEMICAL WORKS, INC., LONG ISLAND, NEW YORK
MICROMETERS	TRANSMITTANCE
2.015	0.755
2.04997	0.77
2.08495	0.789
2.11992	0.783
2.15489	0.78
2.18987	0.787
2.22484	0.802
2.25981	0.812
2.29479	0.814
2.32976	0.827
2.36473	0.841
2.3997	0.844
2.43468	0.847
2.46965	0.854
2.50462	0.864
2.5396	0.866
2.57457	0.867
2.60954	0.857
2.64452	0.856
2.67949	0.867
2.71446	0.864
2.74944	0.858
2.78441	0.842
2.81938	0.822
2.85436	0.807
2.88933	0.797
2.9243	0.792
2.95927	0.795
2.99425	0.812
3.02922	0.828
3.06419	0.833
3.09917	0.852
3.13414	0.868
3.16911	0.884
3.20409	0.896
3.23906	0.893
3.27403	0.894
3.30901	0.891
3.34398	0.876
3.37895	0.896
3.41393	0.901
3.4489	0.918
3.48387	0.921
3.51884	0.931
3.55382	0.941
3.58879	0.946
3.62376	0.947
3.65874	0.947
3.69371	0.947
3.72868	0.944
3.76366	0.942
3.79863	0.941
3.8336	0.941
3.86858	0.941
3.90355	0.941
3.93852	0.941
3.9735	0.941
4.00847	0.943
4.04344	0.947
4.07841	0.948
4.11339	0.948
4.14836	0.948
4.18333	0.948
4.21831	0.947
4.25328	0.947
4.28825	0.947
4.32323	0.946
4.3582	0.946
4.39317	0.947
4.42815	0.947
4.46312	0.948
4.49809	0.948
4.53307	0.948
4.56804	0.947
4.60301	0.949
4.63798	0.952
4.67296	0.957
4.70793	0.957
4.7429	0.957
4.77788	0.951
4.81285	0.958
4.84782	0.958
4.8828	0.954
4.91777	0.949
4.95274	0.948
4.98772	0.948
5.02269	0.948
5.05766	0.947
5.09264	0.948
5.12761	0.957
5.16258	0.959
5.19755	0.958
5.23253	0.958
5.2675	0.959
5.30247	0.962
5.33745	0.962
5.37242	0.962
5.40739	0.962
5.44237	0.961
5.47734	0.961
5.51231	0.959
5.54729	0.958
5.58226	0.953
5.61723	0.949
5.65221	0.949
5.68718	0.934
5.72215	0.932
5.75712	0.922
5.7921	0.906
5.82707	0.868
5.86204	0.819
5.89702	0.792
5.93199	0.743
5.96696	0.713
6.00194	0.66
6.03691	0.535
6.07188	0.453
6.10686	0.284
6.14183	0.15
6.1768	0.122
6.21178	0.207
6.24675	0.32
6.28172	0.45
6.31669	0.53
6.35167	0.52
6.38664	0.485
6.42161	0.389
6.45659	0.319
6.49156	0.191
6.52653	0.155
6.56151	0.147
6.59648	0.172
6.63145	0.23
6.66643	0.198
6.7014	0.098
6.73637	0.093
6.77135	0.132
6.80632	0.186
6.84129	0.269
6.87626	0.282
6.91124	0.259
6.94621	0.2
6.98118	0.166
7.01616	0.126
7.05113	0.127
7.0861	0.167
7.12108	0.29
7.15605	0.419
7.19102	0.523
7.226	0.602
7.26097	0.618
7.29594	0.607
7.33092	0.625
7.36589	0.689
7.40086	0.75
7.43583	0.819
7.47081	0.852
7.50578	0.879
7.54075	0.904
7.57573	0.907
7.6107	0.906
7.64567	0.897
7.68065	0.891
7.71562	0.883
7.75059	0.858
7.78557	0.826
7.82054	0.749
7.85551	0.581
7.89049	0.499
7.92546	0.425
7.96043	0.614
7.9954	0.829
8.03038	0.883
8.06535	0.901
8.10032	0.903
8.1353	0.907
8.17027	0.903
8.20524	0.896
8.24022	0.879
8.27519	0.858
8.31016	0.784
8.34514	0.748
8.38011	0.868
8.41508	0.897
8.45006	0.901
8.48503	0.906
8.52	0.907
8.55498	0.908
8.58995	0.907
8.62492	0.908
8.65989	0.908
8.69487	0.907
8.72984	0.904
8.76481	0.906
8.79979	0.903
8.83476	0.893
8.86973	0.891
8.90471	0.892
8.93968	0.896
8.97465	0.908
9.00963	0.917
9.0446	0.919
9.07957	0.921
9.11455	0.922
9.14952	0.921
9.18449	0.919
9.21946	0.917
9.25444	0.908
9.28941	0.907
9.32438	0.907
9.35936	0.903
9.39433	0.896
9.4293	0.891
9.46428	0.871
9.49925	0.831
9.53422	0.739
9.5692	0.727
9.60417	0.762
9.63914	0.773
9.67412	0.71
9.70909	0.634
9.74406	0.57
9.77903	0.478
9.81401	0.429
9.84898	0.496
9.88395	0.591
9.91893	0.722
9.9539	0.859
9.98887	0.928
10.0238	0.946
10.0588	0.948
10.0938	0.948
10.1288	0.948
10.1637	0.949
10.1987	0.949
10.2337	0.952
10.2687	0.952
10.3036	0.952
10.3386	0.949
10.3736	0.949
10.4086	0.934
10.4435	0.912
10.4785	0.903
10.5135	0.879
10.5484	0.831
10.5834	0.78
10.6184	0.754
10.6534	0.744
10.6883	0.729
10.7233	0.66
10.7583	0.571
10.7933	0.519
10.8282	0.55
10.8632	0.682
10.8982	0.769
10.9331	0.837
10.9681	0.888
11.0031	0.912
11.0381	0.919
11.073	0.938
11.108	0.941
11.143	0.941
11.178	0.941
11.2129	0.941
11.2479	0.943
11.2829	0.943
11.3179	0.942
11.3528	0.943
11.3878	0.942
11.4228	0.942
11.4577	0.941
11.4927	0.943
11.5277	0.943
11.5627	0.943
11.5976	0.943
11.6326	0.944
11.6676	0.946
11.7026	0.947
11.7375	0.947
11.7725	0.947
11.8075	0.946
11.8424	0.941
11.8774	0.932
11.9124	0.929
11.9474	0.929
11.9823	0.922
12.0173	0.919
12.0523	0.919
12.0873	0.912
12.1222	0.908
12.1572	0.908
12.1922	0.908
12.2272	0.908
12.2621	0.907
12.2971	0.907
12.3321	0.907
12.367	0.907
12.402	0.903
12.437	0.901
12.472	0.896
12.5069	0.891
12.5419	0.882
12.5769	0.868
12.6119	0.843
12.6468	0.816
12.6818	0.811
12.7168	0.808
12.7518	0.798
12.7867	0.797
12.8217	0.797
12.8567	0.774
12.8916	0.75
12.9266	0.7
12.9616	0.649
12.9966	0.609
13.0315	0.608
13.0665	0.619
13.1015	0.697
13.1365	0.78
13.1714	0.828
13.2064	0.848
13.2414	0.866
13.2763	0.872
13.3113	0.876
13.3463	0.876
13.3813	0.878
13.4162	0.878
13.4512	0.874
13.4862	0.871
13.5212	0.866
13.5561	0.864
13.5911	0.861
13.6261	0.859
13.6611	0.859
13.696	0.859
13.731	0.857
13.766	0.854
13.8009	0.848
13.8359	0.846
13.8709	0.844
13.9059	0.843
13.9408	0.843
13.9758	0.841
14.0108	0.831
14.0458	0.822
14.0807	0.816
14.1157	0.813
14.1507	0.806
14.1856	0.801
14.2206	0.794
14.2556	0.794
14.2906	0.792
14.3255	0.787
14.3605	0.782
14.3955	0.779
14.4305	0.773
14.4654	0.77
14.5004	0.763
14.5354	0.759
14.5704	0.758
14.6053	0.76
14.6403	0.762
14.6753	0.768
14.7102	0.774
14.7452	0.782
14.7802	0.784
14.8152	0.787
14.8501	0.787
14.8851	0.789
14.9201	0.793
14.9551	0.799
14.99	0.801
15.025	0.799
