Infrared Spectrum: BIS(2,4-PENTANEDIONATO) COBALT
Formula: C10 H14 Co O4
CAS: 14024-48-7
State: SOLID (KBr WAFER)
Melting point: SUBLIMES
Class: COBLENTZ
Instrument: BECKMAN IR-4 (HYBRID PRISM-GRATING)
Sampling: TRANSMISSION
Resolution: 4
Origin: MACKENZIE CHEMICAL WORKS, INC., LONG ISLAND, NEW YORK
MICROMETERS	TRANSMITTANCE
2.02	0.739
2.05493	0.761
2.08987	0.792
2.1248	0.803
2.15973	0.817
2.19466	0.838
2.2296	0.83
2.26453	0.842
2.29946	0.855
2.33439	0.866
2.36933	0.87
2.40426	0.88
2.43919	0.883
2.47412	0.886
2.50906	0.891
2.54399	0.9
2.57892	0.91
2.61385	0.907
2.64879	0.912
2.68372	0.917
2.71865	0.908
2.75358	0.902
2.78852	0.902
2.82345	0.903
2.85838	0.897
2.89332	0.897
2.92825	0.901
2.96318	0.901
2.99811	0.9
3.03305	0.906
3.06798	0.908
3.10291	0.908
3.13784	0.906
3.17278	0.902
3.20771	0.911
3.24264	0.92
3.27757	0.922
3.31251	0.922
3.34744	0.921
3.38237	0.921
3.4173	0.925
3.45224	0.931
3.48717	0.94
3.5221	0.942
3.55703	0.95
3.59197	0.958
3.6269	0.961
3.66183	0.971
3.69677	0.972
3.7317	0.972
3.76663	0.976
3.80156	0.977
3.8365	0.978
3.87143	0.98
3.90636	0.981
3.94129	0.982
3.97623	0.982
4.01116	0.983
4.04609	0.982
4.08102	0.98
4.11596	0.975
4.15089	0.962
4.18582	0.942
4.22075	0.938
4.25569	0.937
4.29062	0.941
4.32555	0.942
4.36048	0.942
4.39542	0.94
4.43035	0.94
4.46528	0.938
4.50021	0.938
4.53515	0.943
4.57008	0.947
4.60501	0.948
4.63995	0.95
4.67488	0.95
4.70981	0.95
4.74474	0.952
4.77968	0.958
4.81461	0.956
4.84954	0.951
4.88447	0.951
4.91941	0.95
4.95434	0.95
4.98927	0.95
5.0242	0.953
5.05914	0.958
5.09407	0.958
5.129	0.962
5.16393	0.961
5.19887	0.962
5.2338	0.958
5.26873	0.953
5.30366	0.95
5.3386	0.95
5.37353	0.95
5.40846	0.958
5.4434	0.958
5.47833	0.958
5.51326	0.957
5.54819	0.953
5.58313	0.95
5.61806	0.948
5.65299	0.942
5.68792	0.933
5.72286	0.928
5.75779	0.921
5.79272	0.91
5.82765	0.892
5.86259	0.882
5.89752	0.873
5.93245	0.87
5.96738	0.841
6.00232	0.81
6.03725	0.767
6.07218	0.707
6.10711	0.677
6.14205	0.621
6.17698	0.504
6.21191	0.352
6.24685	0.269
6.28178	0.218
6.31671	0.233
6.35164	0.309
6.38658	0.383
6.42151	0.399
6.45644	0.39
6.49137	0.314
6.52631	0.235
6.56124	0.258
6.59617	0.308
6.6311	0.421
6.66604	0.506
6.70097	0.569
6.7359	0.583
6.77083	0.553
6.80577	0.488
6.8407	0.46
6.87563	0.443
6.91056	0.431
6.9455	0.413
6.98043	0.374
7.01536	0.337
7.0503	0.302
7.08523	0.26
7.12016	0.22
7.15509	0.213
7.19003	0.254
7.22496	0.318
7.25989	0.399
7.29482	0.45
7.32976	0.458
7.36469	0.491
7.39962	0.558
7.43455	0.639
7.46949	0.699
7.50442	0.729
7.53935	0.78
7.57428	0.784
7.60922	0.795
7.64415	0.801
7.67908	0.805
7.71401	0.816
7.74895	0.818
7.78388	0.812
7.81881	0.802
7.85374	0.749
7.88868	0.664
7.92361	0.585
7.95854	0.563
7.99348	0.616
8.02841	0.71
8.06334	0.787
8.09827	0.807
8.13321	0.826
8.16814	0.841
8.20307	0.841
8.238	0.841
8.27294	0.836
8.30787	0.817
8.3428	0.806
8.37773	0.811
8.41267	0.833
8.4476	0.851
8.48253	0.851
8.51746	0.852
8.5524	0.838
8.58733	0.818
8.62226	0.805
8.65719	0.777
8.69213	0.74
8.72706	0.719
8.76199	0.719
8.79693	0.722
8.83186	0.712
8.86679	0.687
8.90172	0.672
8.93666	0.701
8.97159	0.749
9.00652	0.795
9.04145	0.821
9.07639	0.843
9.11132	0.855
9.14625	0.868
9.18118	0.882
9.21612	0.882
9.25105	0.882
9.28598	0.892
9.32091	0.892
9.35585	0.891
9.39078	0.892
9.42571	0.892
9.46064	0.886
9.49558	0.872
9.53051	0.868
9.56544	0.853
9.60038	0.841
9.63531	0.818
9.67024	0.784
9.70517	0.749
9.74011	0.714
9.77504	0.692
9.80997	0.702
9.8449	0.729
9.87984	0.781
9.91477	0.84
9.9497	0.878
9.98463	0.893
10.0196	0.907
10.0545	0.911
10.0894	0.918
10.1244	0.921
10.1593	0.922
10.1942	0.925
10.2292	0.925
10.2641	0.927
10.299	0.931
10.334	0.931
10.3689	0.93
10.4038	0.93
10.4388	0.928
10.4737	0.926
10.5086	0.918
10.5436	0.9
10.5785	0.877
10.6134	0.848
10.6484	0.811
10.6833	0.762
10.7182	0.732
10.7532	0.704
10.7881	0.694
10.823	0.7
10.8579	0.732
10.8929	0.779
10.9278	0.831
10.9627	0.871
10.9977	0.893
11.0326	0.907
11.0675	0.918
11.1025	0.922
11.1374	0.931
11.1723	0.938
11.2073	0.945
11.2422	0.95
11.2771	0.951
11.3121	0.948
11.347	0.952
11.3819	0.952
11.4169	0.953
11.4518	0.958
11.4867	0.967
11.5217	0.97
11.5566	0.97
11.5915	0.97
11.6265	0.967
11.6614	0.967
11.6963	0.965
11.7313	0.966
11.7662	0.973
11.8011	0.976
11.8361	0.988
11.871	0.992
11.9059	0.996
11.9409	0.995
11.9758	0.988
12.0107	0.986
12.0457	0.983
12.0806	0.983
12.1155	0.986
12.1505	0.991
12.1854	0.992
12.2203	0.996
12.2553	0.995
12.2902	0.991
12.3251	0.988
12.3601	0.987
12.395	0.986
12.4299	0.986
12.4648	0.985
12.4998	0.985
12.5347	0.985
12.5696	0.985
12.6046	0.983
12.6395	0.981
12.6744	0.977
12.7094	0.973
12.7443	0.97
12.7792	0.968
12.8142	0.961
12.8491	0.957
12.884	0.948
12.919	0.943
12.9539	0.932
12.9888	0.93
13.0238	0.927
13.0587	0.93
13.0936	0.932
13.1286	0.938
13.1635	0.948
13.1984	0.953
13.2334	0.965
13.2683	0.972
13.3032	0.976
13.3382	0.981
13.3731	0.983
13.408	0.982
13.443	0.983
13.4779	0.983
13.5128	0.983
13.5478	0.985
13.5827	0.983
13.6176	0.978
13.6526	0.973
13.6875	0.971
13.7224	0.965
13.7574	0.962
13.7923	0.961
13.8272	0.961
13.8622	0.961
13.8971	0.961
13.932	0.962
13.967	0.962
14.0019	0.967
14.0368	0.97
14.0717	0.97
14.1067	0.97
14.1416	0.97
14.1765	0.97
14.2115	0.971
14.2464	0.978
14.2813	0.975
14.3163	0.98
14.3512	0.977
14.3861	0.975
14.4211	0.977
14.456	0.968
14.4909	0.956
14.5259	0.94
14.5608	0.94
14.5957	0.958
14.6307	0.971
14.6656	0.963
14.7005	0.958
14.7355	0.95
14.7704	0.937
14.8053	0.932
14.8403	0.93
14.8752	0.922
14.9101	0.92
14.9451	0.932
14.98	0.946
15.0149	0.948
