Infrared Spectrum: TRIS(2,4-PENTANEDIONATO) IRON
Formula: C15 H21 Fe O6
CAS: 14024-18-1
State: SOLID (KBr WAFER)
Melting point: 179 C
Class: COBLENTZ
Instrument: BECKMAN IR-4 (HYBRID PRISM-GRATING)
Sampling: TRANSMISSION
Resolution: 4
Origin: MACKENZIE CHEMICAL WORKS, INC., LONG ISLAND, NEW YORK
MICROMETERS	TRANSMITTANCE
2.025	0.769
2.05995	0.783
2.09489	0.794
2.12984	0.803
2.16478	0.811
2.19973	0.814
2.23468	0.821
2.26962	0.827
2.30457	0.838
2.33952	0.854
2.37446	0.863
2.40941	0.869
2.44435	0.866
2.4793	0.872
2.51425	0.881
2.54919	0.881
2.58414	0.887
2.61909	0.892
2.65403	0.891
2.68898	0.891
2.72392	0.889
2.75887	0.889
2.79382	0.884
2.82876	0.881
2.86371	0.876
2.89866	0.874
2.9336	0.877
2.96855	0.882
3.00349	0.886
3.03844	0.887
3.07339	0.891
3.10833	0.894
3.14328	0.899
3.17823	0.901
3.21317	0.902
3.24812	0.903
3.28306	0.911
3.31801	0.898
3.35296	0.892
3.3879	0.897
3.42285	0.908
3.4578	0.927
3.49274	0.949
3.52769	0.954
3.56263	0.957
3.59758	0.958
3.63253	0.962
3.66747	0.966
3.70242	0.964
3.73737	0.951
3.77231	0.946
3.80726	0.943
3.8422	0.947
3.87715	0.948
3.9121	0.946
3.94704	0.944
3.98199	0.946
4.01694	0.948
4.05188	0.948
4.08683	0.944
4.12177	0.947
4.15672	0.948
4.19167	0.951
4.22661	0.962
4.26156	0.962
4.29651	0.961
4.33145	0.959
4.3664	0.954
4.40134	0.953
4.43629	0.953
4.47124	0.954
4.50618	0.956
4.54113	0.957
4.57608	0.957
4.61102	0.957
4.64597	0.957
4.68091	0.958
4.71586	0.959
4.75081	0.962
4.78575	0.966
4.8207	0.968
4.85565	0.968
4.89059	0.966
4.92554	0.962
4.96048	0.961
4.99543	0.958
5.03038	0.952
5.06532	0.952
5.10027	0.958
5.13522	0.961
5.17016	0.961
5.20511	0.962
5.24005	0.959
5.275	0.958
5.30995	0.964
5.34489	0.966
5.37984	0.961
5.41478	0.962
5.44973	0.962
5.48468	0.961
5.51962	0.961
5.55457	0.959
5.58952	0.958
5.62446	0.958
5.65941	0.952
5.69435	0.947
5.7293	0.946
5.76425	0.943
5.79919	0.936
5.83414	0.929
5.86909	0.922
5.90403	0.919
5.93898	0.918
5.97392	0.911
6.00887	0.899
6.04382	0.891
6.07876	0.891
6.11371	0.868
6.14866	0.834
6.1836	0.802
6.21855	0.749
6.25349	0.694
6.28844	0.623
6.32339	0.381
6.35833	0.146
6.39328	0.232
6.42823	0.471
6.46317	0.474
6.49812	0.327
6.53306	0.266
6.56801	0.454
6.60296	0.629
6.6379	0.765
6.67285	0.79
6.7078	0.809
6.74274	0.813
6.77769	0.819
6.81263	0.801
6.84758	0.742
6.88253	0.709
6.91747	0.678
6.95242	0.659
6.98737	0.644
7.02231	0.622
7.05726	0.657
7.0922	0.633
7.12715	0.569
7.1621	0.463
7.19704	0.44
7.23199	0.46
7.26694	0.444
7.30188	0.426
7.33683	0.441
7.37177	0.528
7.40672	0.688
7.44167	0.779
7.47661	0.847
7.51156	0.856
7.54651	0.882
7.58145	0.899
7.6164	0.912
7.65134	0.918
7.68629	0.919
7.72124	0.917
7.75618	0.899
7.79113	0.839
7.82608	0.655
7.86102	0.629
7.89597	0.864
7.93091	0.918
7.96586	0.928
8.00081	0.932
8.03575	0.933
8.0707	0.933
8.10565	0.933
8.14059	0.932
8.17554	0.931
8.21048	0.931
8.24543	0.932
8.28038	0.932
8.31532	0.929
8.35027	0.924
8.38522	0.918
8.42016	0.919
8.45511	0.924
8.49005	0.932
8.525	0.934
8.55995	0.934
8.59489	0.933
8.62984	0.931
8.66478	0.929
8.69973	0.928
8.73468	0.928
8.76962	0.928
8.80457	0.928
8.83952	0.928
8.87446	0.926
8.90941	0.922
8.94435	0.921
8.9793	0.922
9.01425	0.919
9.04919	0.919
9.08414	0.919
9.11909	0.919
9.15403	0.919
9.18898	0.921
9.22392	0.921
9.25887	0.921
9.29382	0.922
9.32876	0.921
9.36371	0.919
9.39866	0.919
9.4336	0.923
9.46855	0.923
9.50349	0.922
9.53844	0.916
9.57339	0.908
9.60833	0.896
9.64328	0.871
9.67823	0.839
9.71317	0.804
9.74812	0.719
9.78306	0.702
9.81801	0.719
9.85296	0.74
9.8879	0.785
9.92285	0.819
9.9578	0.889
9.99274	0.918
10.0277	0.921
10.0626	0.923
10.0976	0.923
10.1325	0.923
10.1675	0.922
10.2024	0.921
10.2374	0.921
10.2723	0.921
10.3073	0.919
10.3422	0.919
10.3772	0.918
10.4121	0.919
10.447	0.919
10.482	0.917
10.5169	0.906
10.5519	0.894
10.5868	0.888
10.6218	0.853
10.6567	0.843
10.6917	0.814
10.7266	0.785
10.7616	0.779
10.7965	0.794
10.8315	0.829
10.8664	0.881
10.9013	0.891
10.9363	0.903
10.9712	0.918
11.0062	0.922
11.0411	0.921
11.0761	0.922
11.111	0.922
11.146	0.922
11.1809	0.926
11.2159	0.927
11.2508	0.928
11.2858	0.929
11.3207	0.928
11.3556	0.927
11.3906	0.923
11.4255	0.923
11.4605	0.924
11.4954	0.927
11.5304	0.927
11.5653	0.926
11.6003	0.922
11.6352	0.921
11.6702	0.922
11.7051	0.922
11.7401	0.921
11.775	0.921
11.8099	0.919
11.8449	0.919
11.8798	0.919
11.9148	0.919
11.9497	0.919
11.9847	0.919
12.0196	0.919
12.0546	0.913
12.0895	0.909
12.1245	0.908
12.1594	0.908
12.1944	0.908
12.2293	0.904
12.2642	0.896
12.2992	0.893
12.3341	0.893
12.3691	0.879
12.404	0.869
12.439	0.859
12.4739	0.852
12.5089	0.858
12.5438	0.877
12.5788	0.882
12.6137	0.886
12.6487	0.883
12.6836	0.873
12.7185	0.869
12.7535	0.868
12.7884	0.868
12.8234	0.867
12.8583	0.853
12.8933	0.849
12.9282	0.829
12.9632	0.823
12.9981	0.848
13.0331	0.883
13.068	0.901
13.103	0.911
13.1379	0.918
13.1728	0.921
13.2078	0.919
13.2427	0.919
13.2777	0.919
13.3126	0.921
13.3476	0.921
13.3825	0.919
13.4175	0.912
13.4524	0.911
13.4874	0.911
13.5223	0.909
13.5573	0.908
13.5922	0.909
13.6272	0.909
13.6621	0.911
13.697	0.911
13.732	0.911
13.7669	0.909
13.8019	0.909
13.8368	0.909
13.8718	0.916
13.9067	0.919
13.9417	0.918
13.9766	0.916
14.0116	0.918
14.0465	0.922
14.0815	0.921
14.1164	0.921
14.1513	0.921
14.1863	0.918
14.2212	0.913
14.2562	0.909
14.2911	0.904
14.3261	0.903
14.361	0.906
14.396	0.908
14.4309	0.908
14.4659	0.908
14.5008	0.908
14.5358	0.908
14.5707	0.908
14.6056	0.909
14.6406	0.911
14.6755	0.917
14.7105	0.918
14.7454	0.908
14.7804	0.903
14.8153	0.899
14.8503	0.889
14.8852	0.882
14.9202	0.883
14.9551	0.893
14.9901	0.911
15.025	0.918
