Infrared Spectrum: Neomycin sulfate (MORE THAN 75% B FORM)
Formula: C23 H46 N6 O13  * H2 S O4
CAS: 1405-10-3
State: SOLID (MINERAL OIL MULL)
Class: COBLENTZ III
Instrument: PERKIN-ELMER 21 (GRATING)
Resolution: 2
Origin: THE SQUIBB INSTITUTE FOR MEDICAL RESEARCH
1/CM	TRANSMITTANCE
664	0.7325
673	0.7311
682	0.7335
691	0.7338
700	0.7306
709	0.7225
718	0.7161
727	0.7285
736	0.7358
745	0.7444
754	0.7427
763	0.7384
772	0.74
781	0.7621
790	0.7814
799	0.7983
808	0.7989
817	0.7961
826	0.7914
835	0.7843
844	0.7759
853	0.772
862	0.773
871	0.7745
880	0.7684
889	0.756
898	0.7487
907	0.738
916	0.7189
925	0.6728
934	0.6382
943	0.6303
952	0.5873
961	0.5302
970	0.4853
979	0.4857
988	0.4455
997	0.3744
1006	0.2743
1015	0.2059
1024	0.1725
1033	0.1463
1042	0.1061
1051	0.0943
1060	0.0917
1069	0.0896
1078	0.0872
1087	0.0889
1096	0.1079
1105	0.1306
1114	0.1534
1123	0.1696
1132	0.1953
1141	0.2299
1150	0.281
1159	0.3439
1168	0.4134
1177	0.4949
1186	0.5713
1195	0.6579
1204	0.7089
1213	0.7455
1222	0.7528
1231	0.7533
1240	0.7537
1249	0.7557
1258	0.7555
1267	0.7511
1276	0.7458
1285	0.7401
1294	0.7324
1303	0.7238
1312	0.7127
1321	0.6957
1330	0.6816
1339	0.6805
1348	0.6771
1357	0.6367
1366	0.5885
1375	0.5264
1384	0.6538
1393	0.7182
1402	0.7198
1411	0.7185
1420	0.7111
1429	0.6695
1438	0.5564
1447	0.4463
1456	0.4265
1465	0.4782
1474	0.6742
1483	0.6833
1492	0.6573
1501	0.6117
1510	0.5699
1519	0.5387
1528	0.5378
1537	0.5729
1546	0.6203
1555	0.6845
1564	0.7179
1573	0.7126
1582	0.6927
1591	0.6558
1600	0.6243
1609	0.6064
1618	0.6035
1627	0.6112
1636	0.651
1645	0.6937
1654	0.7455
1663	0.7979
1672	0.8369
1681	0.8541
1690	0.8804
1699	0.9097
1708	0.9299
1717	0.9375
1726	0.9423
1735	0.9456
1744	0.9477
1753	0.9483
1762	0.949
1771	0.9487
1780	0.9483
1789	0.9478
1798	0.9471
1807	0.9465
1816	0.9459
1825	0.9449
1834	0.944
1843	0.9429
1852	0.9419
1861	0.9409
1870	0.9399
1879	0.9388
1888	0.9374
1897	0.9359
1906	0.9341
1915	0.9314
1924	0.9288
1933	0.9262
1942	0.9225
1951	0.9187
1960	0.9145
1969	0.9093
1978	0.9042
1987	0.899
1996	0.8934
2005	0.8875
2014	0.8825
2023	0.8793
2032	0.8781
2041	0.8779
2050	0.8777
2059	0.878
2068	0.8799
2077	0.8818
2086	0.8835
2095	0.8851
2104	0.8853
2113	0.8855
2122	0.8857
2131	0.8859
2140	0.8861
2149	0.8863
2158	0.8867
2167	0.8866
2176	0.8859
2185	0.8814
2194	0.8771
2203	0.8763
2212	0.8765
2221	0.8769
2230	0.8774
2239	0.8765
2248	0.8734
2257	0.8694
2266	0.8641
2275	0.8585
2284	0.8517
2293	0.8354
2302	0.8229
2311	0.817
2320	0.8132
2329	0.8113
2338	0.8098
2347	0.8083
2356	0.8069
2365	0.8061
2374	0.8052
2383	0.8026
2392	0.7949
2401	0.7798
2410	0.7679
2419	0.7578
2428	0.7471
2437	0.7367
2446	0.7266
2455	0.7141
2464	0.7015
2473	0.6898
2482	0.6794
2491	0.6657
2500	0.6495
2509	0.6392
2518	0.6292
2527	0.6209
2536	0.6132
2545	0.6056
2554	0.5957
2563	0.585
2572	0.5761
2581	0.5677
2590	0.5623
2599	0.5567
2608	0.5513
2617	0.5462
2626	0.5418
2635	0.5373
2644	0.5329
2653	0.5272
2662	0.5207
2671	0.5127
2680	0.5053
2689	0.4979
2698	0.4921
2707	0.4865
2716	0.4816
2725	0.4789
2734	0.477
2743	0.472
2752	0.4595
2761	0.443
2770	0.4279
2779	0.4132
2788	0.3972
2797	0.3741
2806	0.355
2815	0.2676
2824	0.1417
2833	0.1109
2842	0.0983
2851	0.0931
2860	0.0893
2869	0.0855
2878	0.0827
2887	0.0809
2896	0.0809
2905	0.0814
2914	0.0836
2923	0.09
2932	0.1009
2941	0.1197
2950	0.1583
2959	0.2031
2968	0.2573
2977	0.2998
2986	0.3225
2995	0.3236
3004	0.3242
3013	0.3241
3022	0.3228
3031	0.3199
3040	0.3164
3049	0.3138
3058	0.3129
3067	0.3123
3076	0.3116
3085	0.3106
3094	0.3095
3103	0.3079
3112	0.3059
3121	0.3041
3130	0.3037
3139	0.3037
3148	0.3045
3157	0.3055
3166	0.3069
3175	0.3083
3184	0.3102
3193	0.3124
3202	0.3146
3211	0.3168
3220	0.3191
3229	0.3213
3238	0.3238
3247	0.3263
3256	0.3289
3265	0.332
3274	0.3364
3283	0.3412
3292	0.3488
3301	0.3564
3310	0.3634
3319	0.3703
3328	0.3771
3337	0.3839
3346	0.3906
3355	0.3976
3364	0.4048
3373	0.4119
3382	0.4239
3391	0.4394
3400	0.4525
3409	0.4666
3418	0.484
3427	0.5016
3436	0.5192
3445	0.5422
3454	0.5588
3463	0.5678
3472	0.5772
3481	0.5879
3490	0.6387
3499	0.6674
3508	0.6832
3517	0.6981
3526	0.7114
3535	0.7203
3544	0.731
3553	0.7586
3562	0.7914
3571	0.8078
3580	0.8238
3589	0.8396
3598	0.8557
3607	0.8749
3616	0.8884
3625	0.9004
3634	0.9095
3643	0.9159
3652	0.9211
3661	0.9245
3670	0.9263
3679	0.9278
3688	0.9289
3697	0.9294
3706	0.9299
3715	0.9303
3724	0.9304
3733	0.9306
3742	0.9306
3751	0.9308
3760	0.931
3769	0.9309
3778	0.9307
3787	0.9306
3796	0.9305
3805	0.9304
3814	0.9302
3823	0.9301
3832	0.93
3841	0.9299
3850	0.9299
3859	0.9297
3868	0.9297
3877	0.9296
3886	0.9293
3895	0.9285
3904	0.9277
3913	0.9268
3922	0.9245
3931	0.9217
3940	0.9211
3949	0.9209
3958	0.9206
3967	0.9202
3976	0.9195
3985	0.9176
3994	0.9158
