Infrared Spectrum: 4-Hydroxy-4'-nitrostilbene
Formula: C 14 H 11 N O 3
CAS: 14064-83-6
State: gas
Origin: EPA-IR VAPOR PHASE LIBRARY
1/CM	ABSORBANCE
549.8	0.0009788
559.445	0.0009409
569.09	0.0006994
578.734	0.0006664
588.379	0.0006791
598.024	0.0009274
607.669	0.0007213
617.313	0.0003117
626.958	0.0003322
636.603	0.0004728
646.248	0.0005176
655.893	0.0007733
665.537	0.0019146
675.182	0.0015546
684.827	0.0018746
694.472	0.0015146
704.116	0.0012346
713.761	0.0011846
723.406	0.0009213
733.051	0.0012146
742.695	0.0019446
752.34	0.0017346
761.985	0.0013246
771.63	0.0013446
781.275	0.0013246
790.919	0.0018846
800.564	0.0029846
810.209	0.0036246
819.854	0.0054746
829.498	0.0131346
839.143	0.0095346
848.788	0.0068046
858.433	0.0067546
868.078	0.0037946
877.722	0.0037446
887.367	0.0022246
897.012	0.0015946
906.657	0.0012246
916.301	0.0009663
925.946	0.0012246
935.591	0.0015846
945.236	0.0030446
954.88	0.0045746
964.525	0.0037246
974.17	0.0018246
983.815	0.0010578
993.46	0.0009443
1003.1	0.0008968
1012.75	0.0019946
1022.39	0.0006175
1032.04	0.0006764
1041.68	0.0005188
1051.33	0.0006234
1060.97	0.0006165
1070.62	0.0010625
1080.26	0.0015246
1089.91	0.0024146
1099.55	0.0043446
1109.2	0.0062146
1118.84	0.0035246
1128.49	0.0027246
1138.13	0.0025946
1147.78	0.0042246
1157.42	0.0077246
1167.07	0.0326446
1176.71	0.0223446
1186.36	0.0113846
1196	0.0058146
1205.64	0.0049546
1215.29	0.0054346
1224.93	0.0040946
1234.58	0.0036546
1244.22	0.0048846
1253.87	0.0125346
1263.51	0.0231746
1273.16	0.0053046
1282.8	0.0025846
1292.45	0.0028446
1302.09	0.0037546
1311.74	0.0054746
1321.38	0.0075646
1331.03	0.0129746
1340.67	0.0319746
1350.32	0.0450846
1359.96	0.0135746
1369.61	0.0065346
1379.25	0.0040546
1388.9	0.0030346
1398.54	0.0023346
1408.18	0.0020346
1417.83	0.0020346
1427.47	0.0035446
1437.12	0.0030846
1446.76	0.0016146
1456.41	0.0016446
1466.05	0.0018146
1475.7	0.0027046
1485.34	0.0038846
1494.99	0.0056046
1504.63	0.0146446
1514.28	0.0323646
1523.92	0.0192146
1533.57	0.0230946
1543.21	0.0166746
1552.86	0.0083746
1562.5	0.0056446
1572.15	0.0064646
1581.79	0.0123346
1591.44	0.0232146
1601.08	0.0182946
1610.73	0.0136246
1620.37	0.0060646
1630.01	0.0045446
1639.66	0.0035346
1649.3	0.0017446
1658.95	0.0012646
1668.59	0.0009197
1678.24	0.0007505
1687.88	0.0007055
1697.53	0.0007042
1707.17	0.0006334
1716.82	0.0006672
1726.46	0.0005541
1736.11	0.0005863
1745.75	0.0007033
1755.4	0.000675
1765.04	0.0008312
1774.69	0.0008778
1784.33	0.0008559
1793.98	0.0006613
1803.62	0.000479
1813.27	0.0005049
1822.91	0.0005125
1832.55	0.0004457
1842.2	0.0003899
1851.84	0.0004417
1861.49	0.0004995
1871.13	0.000546
1880.78	0.0005062
1890.42	0.0005087
1900.07	0.0005643
1909.71	0.00065
1919.36	0.0005804
1929	0.0004929
1938.65	0.0004206
1948.29	0.0003583
1957.94	0.0003099
1967.58	0.000276
1977.23	0.0002496
1986.87	0.0002753
1996.52	0.0002846
2006.16	0.0002757
2015.81	0.0003437
2025.45	0.0004331
2035.1	0.0003474
2044.74	0.0004305
2054.38	0.0002841
2064.03	0.0003126
2073.67	0.0002913
2083.32	0.0002911
2092.96	0.0003768
2102.61	0.0003056
2112.25	0.0002961
2121.9	0.0002859
2131.54	0.00013933
2141.19	0.0001771
2150.83	0.0002253
2160.48	0.0001989
2170.12	0.00017563
2179.77	0.00016677
2189.41	0.00017396
2199.06	0.0002187
2208.7	0.0002356
2218.35	0.00027
2227.99	0.000217
2237.64	0.0002026
2247.28	0.00018225
2256.92	0.0001604
2266.57	0.0003289
2276.21	0.000286
2285.86	0.0002772
2295.5	0.0003227
2305.15	0.0003289
2314.79	0.0002622
2324.44	0.0003212
2334.08	0.0003047
2343.73	0.000374
2353.37	0.0004425
2363.02	0.0004893
2372.66	0.0003394
2382.31	0.0003057
2391.95	0.0002956
2401.6	0.0003181
2411.24	0.0003152
2420.89	0.0005617
2430.53	0.0007335
2440.18	0.000691
2449.82	0.0006577
2459.47	0.0005717
2469.11	0.0004329
2478.75	0.0004217
2488.4	0.0003825
2498.04	0.000287
2507.69	0.000398
2517.33	0.0004343
2526.98	0.0004533
2536.62	0.0003367
2546.27	0.0003262
2555.91	0.0002476
2565.56	0.0003498
2575.2	0.0003626
2584.85	0.0003629
2594.49	0.000392
2604.14	0.0003781
2613.78	0.0003353
2623.43	0.0002672
2633.07	0.0002736
2642.72	0.0002598
2652.36	0.0002763
2662.01	0.0001985
2671.65	0.0002141
2681.29	0.0003097
2690.94	0.0003594
2700.58	0.0002844
2710.23	0.0002979
2719.87	0.00016257
2729.52	0.0002271
2739.16	0.0002687
2748.81	0.0002987
2758.45	0.0002302
2768.1	0.000368
2777.74	0.0002623
2787.39	0.0002388
2797.03	0.0002051
2806.68	0.0003464
2816.32	0.0003707
2825.97	0.0003764
2835.61	0.0003911
2845.26	0.0004305
2854.9	0.000376
2864.55	0.0006489
2874.19	0.0006159
2883.84	0.0005513
2893.48	0.0006388
2903.12	0.0006634
2912.77	0.0005405
2922.41	0.0004913
2932.06	0.0007995
2941.7	0.0008225
2951.35	0.0006207
2960.99	0.0004649
2970.64	0.0004419
2980.28	0.0005432
2989.93	0.0008279
2999.57	0.0011546
3009.22	0.0020146
3018.86	0.0027346
3028.51	0.0045546
3038.15	0.0054346
3047.8	0.0032246
3057.44	0.0027846
3067.09	0.0025246
3076.73	0.0020746
3086.38	0.0013346
3096.02	0.0008277
3105.67	0.0006016
3115.31	0.0006114
3124.95	0.0006195
3134.6	0.0003376
3144.24	0.0002392
3153.89	0.000288
3163.53	0.00018315
3173.18	0.00011929
3182.82	0.0003908
3192.47	0.0003997
3202.11	0.0002726
3211.76	0.0002408
3221.4	0.0002607
3231.05	0.0002342
3240.69	5.26e-05
3250.34	0.00013729
3259.98	0.0001818
3269.63	0.00013676
3279.27	0.00010652
3288.92	0.00016905
3298.56	0.0002372
3308.21	0.00017901
3317.85	0.0002091
3327.49	0.0002924
3337.14	0.0002921
3346.78	0.0002679
3356.43	0.0002785
3366.07	0.0002244
3375.72	0.0002224
3385.36	0.00014858
3395.01	0.0002666
3404.65	0.0001893
3414.3	0.00014512
3423.94	0.0003385
3433.59	0.0003349
3443.23	0.0003033
3452.88	4.99e-05
3462.52	0.00012327
3472.17	0.0001971
3481.81	0.0002363
3491.46	0.0002588
3501.1	0.000185
3510.75	0.0004277
3520.39	0.0001966
3530.04	0.00011856
3539.68	2.75e-05
3549.32	0.00017514
3558.97	0.0002181
3568.61	0.0002784
3578.26	0.0003045
3587.9	0.0002381
3597.55	0.0002919
3607.19	0.0004094
3616.84	0.0006048
3626.48	0.0010386
3636.13	0.0034346
3645.77	0.0139146
3655.42	0.0101846
3665.06	0.0015646
3674.71	0.0005638
3684.35	0.000591
3694	0.000334
3703.64	8.847e-05
3713.29	0.000188
3722.93	0.0002658
3732.58	0.00017255
3742.22	5.57e-05
3751.86	0.0001943
3761.51	0.0002052
3771.15	0.0001977
3780.8	0.00019
3790.44	0.00015186
3800.09	0.0002079
3809.73	0.00010962
3819.38	6.61e-05
3829.02	0.00013928
3838.67	0.00016883
3848.31	0.00014217
3857.96	0.0002713
3867.6	0.000291
3877.25	0.0002196
3886.89	0.0003942
3896.54	0.0002335
3906.18	0.0002567
3915.83	0.0002524
3925.47	0.0002271
3935.12	0
3944.76	0.0003092
3954.41	0.000507
3964.05	0.00011162
3973.69	0.0004115
3983.34	0.0003344
3992.98	0.00014642
