Infrared Spectrum: Ethyl-p-tolyl acetate
Formula: C 11 H 14 O 2
CAS: 14062-19-2
State: gas
Origin: EPA-IR VAPOR PHASE LIBRARY
1/CM	ABSORBANCE
501.5	0.0099778
513.074	0.0085178
524.648	0.0051978
536.222	0.0025378
547.796	0.0013978
559.37	0.0013078
570.944	0.0016878
582.518	0.0025778
594.092	0.0039578
605.666	0.0060978
617.24	0.0062078
628.814	0.0041978
640.388	0.0026478
651.962	0.0022078
663.536	0.0022478
675.11	0.0028578
686.684	0.0041378
698.258	0.0047178
709.832	0.0074278
721.406	0.0113378
732.98	0.0070078
744.554	0.0072478
756.128	0.0120678
767.702	0.0194478
779.276	0.0240978
790.85	0.0239678
802.423	0.0233978
813.997	0.0194478
825.571	0.0121278
837.145	0.0088378
848.719	0.0079578
860.293	0.0067278
871.867	0.0058478
883.441	0.0054678
895.015	0.0052078
906.589	0.0068778
918.163	0.0108378
929.737	0.0123178
941.311	0.0101178
952.885	0.0075978
964.459	0.0058178
976.033	0.0055478
987.607	0.0062678
999.181	0.0089178
1010.76	0.0194578
1022.33	0.0505778
1033.9	0.0730378
1045.48	0.0531678
1057.05	0.0256278
1068.63	0.0177078
1080.2	0.0193978
1091.77	0.0301678
1103.35	0.0422278
1114.92	0.0596378
1126.49	0.107018
1138.07	0.175358
1149.64	0.178298
1161.22	0.118648
1172.79	0.0783778
1184.36	0.0631078
1195.94	0.0558878
1207.51	0.0646978
1219.09	0.0819378
1230.66	0.108948
1242.23	0.136058
1253.81	0.127758
1265.38	0.0852678
1276.96	0.0572078
1288.53	0.0508678
1300.1	0.0522878
1311.68	0.0495178
1323.25	0.0463978
1334.83	0.0418178
1346.4	0.0279478
1357.97	0.0216478
1369.55	0.0300278
1381.12	0.0205578
1392.7	0.0162278
1404.27	0.0162578
1415.84	0.0193478
1427.42	0.0229578
1438.99	0.0226578
1450.57	0.0193478
1462.14	0.0191878
1473.71	0.0190778
1485.29	0.0149778
1496.86	0.0165278
1508.44	0.0365478
1520.01	0.0428978
1531.58	0.0116278
1543.16	0.0065378
1554.73	0.0051478
1566.31	0.0046778
1577.88	0.0046578
1589.45	0.0046878
1601.03	0.0048078
1612.6	0.0050978
1624.18	0.0050278
1635.75	0.0047678
1647.32	0.0045278
1658.9	0.0044978
1670.47	0.0051578
1682.05	0.0069378
1693.62	0.0103978
1705.19	0.0161678
1716.77	0.0261078
1728.34	0.0522678
1739.92	0.126818
1751.49	0.212568
1763.06	0.168708
1774.64	0.0761278
1786.21	0.0295378
1797.79	0.0135378
1809.36	0.0079878
1820.93	0.0056678
1832.51	0.0045378
1844.08	0.0039878
1855.66	0.0039078
1867.23	0.0043578
1878.8	0.0050978
1890.38	0.0054478
1901.95	0.0047978
1913.53	0.0035578
1925.1	0.0026978
1936.67	0.0024078
1948.25	0.0023978
1959.82	0.0024578
1971.4	0.0024578
1982.97	0.0022978
1994.54	0.0019978
2006.12	0.0017778
2017.69	0.0016978
2029.27	0.0016078
2040.84	0.0014878
2052.41	0.0014878
2063.99	0.0015778
2075.56	0.0016478
2087.14	0.0016778
2098.71	0.0015678
2110.28	0.0012578
2121.86	0.001022
2133.43	0.000902
2145.01	0.0008421
2156.58	0.000775
2168.15	0.0006843
2179.73	0.000672
2191.3	0.0006478
2202.88	0.0007201
2214.45	0.0007253
2226.02	0.0007515
2237.6	0.0007947
2249.17	0.0007953
2260.74	0.0008205
2272.32	0.0007898
2283.89	0.0008478
2295.47	0.0010503
2307.04	0.0012178
2318.61	0.0011678
2330.19	0.0010407
2341.76	0.0009913
2353.34	0.0009253
2364.91	0.0008398
2376.48	0.0008332
2388.06	0.0007972
2399.63	0.0007701
2411.21	0.0007961
2422.78	0.0008108
2434.35	0.0007544
2445.93	0.0006625
2457.5	0.0006553
2469.08	0.0006618
2480.65	0.0005957
2492.22	0.0005399
2503.8	0.000503
2515.37	0.000458
2526.95	0.0004615
2538.52	0.0004362
2550.09	0.0004038
2561.67	0.0004339
2573.24	0.0005253
2584.82	0.0006621
2596.39	0.0007253
2607.96	0.0006615
2619.54	0.0006091
2631.11	0.0006267
2642.69	0.0004823
2654.26	0.0003979
2665.83	0.0004732
2677.41	0.0005774
2688.98	0.0006442
2700.56	0.0007917
2712.13	0.0009615
2723.7	0.0014178
2735.28	0.0021378
2746.85	0.0024178
2758.43	0.0017278
2770	0.0016678
2781.57	0.0018178
2793.15	0.0020778
2804.72	0.0026078
2816.3	0.0034578
2827.87	0.0045978
2839.44	0.0060878
2851.02	0.0087278
2862.59	0.0135878
2874.17	0.0213678
2885.74	0.0247978
2897.31	0.0245478
2908.89	0.0291778
2920.46	0.0394978
2932.04	0.0569078
2943.61	0.0568178
2955.18	0.0420978
2966.76	0.0426678
2978.33	0.0589778
2989.91	0.0679378
3001.48	0.0528178
3013.05	0.0458978
3024.63	0.0477878
3036.2	0.0391578
3047.78	0.0282978
3059.35	0.0245378
3070.92	0.0167578
3082.5	0.0114378
3094.07	0.0092878
3105.65	0.0070078
3117.22	0.0047878
3128.79	0.0038578
3140.37	0.0031278
3151.94	0.0018578
3163.52	0.0013578
3175.09	0.0011278
3186.66	0.0008549
3198.24	0.0006956
3209.81	0.0006049
3221.39	0.0005107
3232.96	0.0004601
3244.53	0.0003624
3256.11	0.0003161
3267.68	0.0003043
3279.26	0.0002463
3290.83	0.000213
3302.4	0.000201
3313.98	0.0002144
3325.55	0.0002425
3337.13	0.0002274
3348.7	0.0002031
3360.27	0.0001907
3371.85	0.0003187
3383.42	0.0002896
3395	0.0003357
3406.57	0.0003401
3418.14	0.0003599
3429.72	0.0004156
3441.29	0.0005119
3452.86	0.0006534
3464.44	0.0009718
3476.01	0.0017078
3487.59	0.0022378
3499.16	0.0019578
3510.73	0.0013278
3522.31	0.0007501
3533.88	0.0004935
3545.46	0.0003747
3557.03	0.0001753
3568.6	0.0001695
3580.18	0.00013623
3591.75	9.58e-05
3603.33	1.34e-05
3614.9	8.373e-05
3626.47	0.00015883
3638.05	0.00016466
3649.62	0.000194
3661.2	0.0003534
3672.77	0.0003364
3684.34	0.0002574
3695.92	0.0002083
3707.49	0.0001993
3719.07	0.0002173
3730.64	0.0002551
3742.21	0.0002738
3753.79	0.0002691
3765.36	0.0003462
3776.94	0.0003483
3788.51	0.0003467
3800.08	0.0003032
3811.66	0.0003561
3823.23	0.0003724
3834.81	0.0003888
3846.38	0.0004629
3857.95	0.0004202
3869.53	0.0004267
3881.1	0.0005141
3892.68	0.0004621
3904.25	0.0004668
3915.82	0.000444
3927.4	0.0004511
3938.97	0.0004521
3950.55	0.0004169
3962.12	0.0004324
3973.69	0.0004375
3985.27	0.0004954
3996.84	0.0004134
