Infrared Spectrum: 2,4-Bis(trifluoromethyl)benzyl bromide
Formula: C 9 H 5 Br F 6
CAS: 140690-56-8
State: gas
Origin: EPA-IR VAPOR PHASE LIBRARY
1/CM	ABSORBANCE
549.8	0.003
559.445	0.00314
569.09	0.00432
578.734	0.00409
588.379	0.00563
598.024	0.00752
607.669	0.01092
617.313	0.0258
626.958	0.0473
636.603	0.02597
646.248	0.0127
655.893	0.01276
665.537	0.03437
675.182	0.06311
684.827	0.03305
694.472	0.01397
704.116	0.00959
713.761	0.00723
723.406	0.00575
733.051	0.00484
742.695	0.01144
752.34	0.02583
761.985	0.01303
771.63	0.00971
781.275	0.00439
790.919	0.00367
800.564	0.00491
810.209	0.00425
819.854	0.00761
829.498	0.01886
839.143	0.03185
848.788	0.02825
858.433	0.04713
868.078	0.03191
877.722	0.02183
887.367	0.01438
897.012	0.01206
906.657	0.03051
916.301	0.05296
925.946	0.01008
935.591	0.00429
945.236	0.00328
954.88	0.00421
964.525	0.00321
974.17	0.00324
983.815	0.00389
993.46	0.00458
1003.1	0.00465
1012.75	0.0054
1022.39	0.0072
1032.04	0.01016
1041.68	0.02031
1051.33	0.09034
1060.97	0.12583
1070.62	0.04188
1080.26	0.09092
1089.91	0.0972
1099.55	0.03522
1109.2	0.03781
1118.84	0.05616
1128.49	0.12774
1138.13	0.37879
1147.78	0.79179
1157.42	0.70886
1167.07	0.27146
1176.71	0.40831
1186.36	0.51281
1196	0.22248
1205.64	0.12568
1215.29	0.07482
1224.93	0.07377
1234.58	0.06052
1244.22	0.06083
1253.87	0.09851
1263.51	0.22491
1273.16	0.63129
1282.8	0.49792
1292.45	0.31948
1302.09	0.27561
1311.74	0.15815
1321.38	0.06841
1331.03	0.1236
1340.67	0.35265
1350.32	0.21887
1359.96	0.04479
1369.61	0.0229
1379.25	0.01656
1388.9	0.01152
1398.54	0.0086
1408.18	0.00798
1417.83	0.0085
1427.47	0.00903
1437.12	0.00803
1446.76	0.00728
1456.41	0.00815
1466.05	0.00788
1475.7	0.00549
1485.34	0.00558
1494.99	0.00665
1504.63	0.00661
1514.28	0.0043
1523.92	0.00347
1533.57	0.00367
1543.21	0.00348
1552.86	0.00409
1562.5	0.00548
1572.15	0.01011
1581.79	0.01794
1591.44	0.01471
1601.08	0.00958
1610.73	0.01246
1620.37	0.02738
1630.01	0.03365
1639.66	0.01309
1649.3	0.00665
1658.95	0.005
1668.59	0.00486
1678.24	0.00519
1687.88	0.00474
1697.53	0.00397
1707.17	0.00342
1716.82	0.00318
1726.46	0.00298
1736.11	0.00286
1745.75	0.00283
1755.4	0.00293
1765.04	0.00263
1774.69	0.00274
1784.33	0.00292
1793.98	0.00392
1803.62	0.00452
1813.27	0.00516
1822.91	0.00764
1832.55	0.00433
1842.2	0.00217
1851.84	0.00211
1861.49	0.00228
1871.13	0.00238
1880.78	0.00275
1890.42	0.00327
1900.07	0.00337
1909.71	0.00302
1919.36	0.00346
1929	0.00476
1938.65	0.00391
1948.29	0.00201
1957.94	0.0018059
1967.58	0.00198
1977.23	0.00193
1986.87	0.00199
1996.52	0.00217
2006.16	0.0023
2015.81	0.00244
2025.45	0.00276
2035.1	0.00242
2044.74	0.00249
2054.38	0.00237
2064.03	0.00209
2073.67	0.0016237
2083.32	0.00197
2092.96	0.00192
2102.61	0.0018354
2112.25	0.0017305
2121.9	0.0015515
2131.54	0.0012435
2141.19	0.0014
2150.83	0.0015311
2160.48	0.0015947
2170.12	0.0016283
2179.77	0.0018162
2189.41	0.00188
2199.06	0.00268
2208.7	0.0029
2218.35	0.00247
2227.99	0.0029
2237.64	0.00317
2247.28	0.00315
2256.92	0.00305
2266.57	0.00356
2276.21	0.00388
2285.86	0.00439
2295.5	0.00425
2305.15	0.00383
2314.79	0.00341
2324.44	0.00354
2334.08	0.0032
2343.73	0.00302
2353.37	0.003
2363.02	0.00294
2372.66	0.00269
2382.31	0.00243
2391.95	0.00223
2401.6	0.00206
2411.24	0.00189
2420.89	0.00211
2430.53	0.00197
2440.18	0.00192
2449.82	0.00202
2459.47	0.0015752
2469.11	0.0014701
2478.75	0.0017329
2488.4	0.00198
2498.04	0.0016239
2507.69	0.0015539
2517.33	0.0014805
2526.98	0.00189
2536.62	0.0017571
2546.27	0.001692
2555.91	0.00191
2565.56	0.0017241
2575.2	0.0016413
2584.85	0.0014898
2594.49	0.0014509
2604.14	0.0014076
2613.78	0.00201
2623.43	0.00187
2633.07	0.0013804
2642.72	0.0017402
2652.36	0.0015864
2662.01	0.0014868
2671.65	0.0011493
2681.29	0.0015703
2690.94	0.0011328
2700.58	0.0013774
2710.23	0.0012144
2719.87	0.0013761
2729.52	0.0016129
2739.16	0.0008454
2748.81	0.000759
2758.45	0.0017068
2768.1	0.00088492
2777.74	0.000715
2787.39	0.0014051
2797.03	0.0010637
2806.68	0.0014575
2816.32	0.000603
2825.97	0.0010435
2835.61	0.00187
2845.26	0.0013243
2854.9	0.000594
2864.55	0.000652
2874.19	0.0012296
2883.84	0.0017491
2893.48	0.0013902
2903.12	0.00199
2912.77	0.0017268
2922.41	0.0010179
2932.06	0.0016658
2941.7	0.001768
2951.35	0.00201
2960.99	0.00294
2970.64	0.00257
2980.28	0.00317
2989.93	0.00528
2999.57	0.00611
3009.22	0.00302
3018.86	0.0016813
3028.51	0.00249
3038.15	0.00279
3047.8	0.00302
3057.44	0.00324
3067.09	0.00378
3076.73	0.00423
3086.38	0.00515
3096.02	0.00465
3105.67	0.00216
3115.31	0.0017744
3124.95	0.0015249
3134.6	0.001639
3144.24	0.0013336
3153.89	0.0011481
3163.53	0.001706
3173.18	0.0007917
3182.82	0.0012988
3192.47	0.0009748
3202.11	0.0013764
3211.76	0.0007719
3221.4	0.00214
3231.05	0.0014167
3240.69	0.001565
3250.34	0.0012299
3259.98	0.000633
3269.63	0.000537
3279.27	0.0013151
3288.92	0.000598
3298.56	0.000861108
3308.21	0.0010463
3317.85	0.000833
3327.49	0.0012609
3337.14	0.000608
3346.78	0.0008408
3356.43	0.00085881
3366.07	0.0011077
3375.72	0.0010889
3385.36	0.00093838
3395.01	0.000695
3404.65	0.000603
3414.3	0.0013857
3423.94	0.0011066
3433.59	0.001174
3443.23	0.001392
3452.88	0.0013991
3462.52	0.0011573
3472.17	0.0012318
3481.81	0.0009753
3491.46	0.0019
3501.1	0.0014132
3510.75	0.0016039
3520.39	0.0010328
3530.04	0.0012712
3539.68	0.0016715
3549.32	0.0007858
3558.97	0.00028
3568.61	0.000668
3578.26	0.0015102
3587.9	0.0017909
3597.55	0.00199
3607.19	0.00094519
3616.84	0.0007807
3626.48	0.0011405
3636.13	0.0016292
3645.77	0.00087688
3655.42	0.0010116
3665.06	0.000729
3674.71	0.0013441
3684.35	0.0013807
3694	0.0010632
3703.64	0.0013249
3713.29	0.0007671
3722.93	0.000981
3732.58	0.0011711
3742.22	0.00198
3751.86	0.0009642
3761.51	0.0013429
3771.15	0.0013309
3780.8	0.0007927
3790.44	0.0012483
3800.09	0.0015179
3809.73	0.0016504
3819.38	0.0011597
3829.02	0.0017567
3838.67	0.0010516
3848.31	0.000594
3857.96	0.001248
3867.6	0.000604
3877.25	0.0012758
3886.89	0.0011683
3896.54	0.0016278
3906.18	0.00211
3915.83	0.0012216
3925.47	0.001445
3935.12	0.0017767
3944.76	0.0014605
3954.41	0.000479
3964.05	0.000511
3973.69	0.0011026
3983.34	0.000664
3992.98	0.00094554
