Infrared Spectrum: 3-Aminobenzhydrazide
Formula: C 7 H 9 N 3 O
CAS: 14062-34-1
State: gas
Origin: EPA-IR VAPOR PHASE LIBRARY
1/CM	ABSORBANCE
549.8	0.00365
559.445	0.00349
569.09	0.00344
578.734	0.00345
588.379	0.00314
598.024	0.00319
607.669	0.00317
617.313	0.00334
626.958	0.00353
636.603	0.00423
646.248	0.00518
655.893	0.00593
665.537	0.00595
675.182	0.00652
684.827	0.00724
694.472	0.00614
704.116	0.00501
713.761	0.00442
723.406	0.00446
733.051	0.00535
742.695	0.00643
752.34	0.00605
761.985	0.00485
771.63	0.00428
781.275	0.0044
790.919	0.00462
800.564	0.00429
810.209	0.00379
819.854	0.0039
829.498	0.00405
839.143	0.00391
848.788	0.00396
858.433	0.00442
868.078	0.00484
877.722	0.0052
887.367	0.00566
897.012	0.00579
906.657	0.00582
916.301	0.00524
925.946	0.00411
935.591	0.00353
945.236	0.00389
954.88	0.00509
964.525	0.00552
974.17	0.00447
983.815	0.0032
993.46	0.00292
1003.1	0.00255
1012.75	0.00228
1022.39	0.00194
1032.04	0.00204
1041.68	0.00197
1051.33	0.002
1060.97	0.00202
1070.62	0.00195
1080.26	0.0021
1089.91	0.0023
1099.55	0.00227
1109.2	0.00238
1118.84	0.00229
1128.49	0.00202
1138.13	0.00204
1147.78	0.00173
1157.42	0.00203
1167.07	0.00195
1176.71	0.00179
1186.36	0.0017
1196	0.00189
1205.64	0.00187
1215.29	0.0022
1224.93	0.00304
1234.58	0.00465
1244.22	0.00622
1253.87	0.00593
1263.51	0.00457
1273.16	0.00445
1282.8	0.00703
1292.45	0.01034
1302.09	0.0118
1311.74	0.01175
1321.38	0.00781
1331.03	0.00397
1340.67	0.00288
1350.32	0.00257
1359.96	0.00235
1369.61	0.00219
1379.25	0.00208
1388.9	0.00224
1398.54	0.00268
1408.18	0.00366
1417.83	0.00574
1427.47	0.00917
1437.12	0.01167
1446.76	0.0116
1456.41	0.01239
1466.05	0.01337
1475.7	0.01203
1485.34	0.00968
1494.99	0.00721
1504.63	0.00572
1514.28	0.00431
1523.92	0.00343
1533.57	0.00305
1543.21	0.00287
1552.86	0.00287
1562.5	0.00334
1572.15	0.00487
1581.79	0.00781
1591.44	0.00945
1601.08	0.00915
1610.73	0.01032
1620.37	0.01487
1630.01	0.01583
1639.66	0.01088
1649.3	0.0068
1658.95	0.00523
1668.59	0.00537
1678.24	0.0066
1687.88	0.01095
1697.53	0.01732
1707.17	0.01648
1716.82	0.00815
1726.46	0.0051
1736.11	0.00399
1745.75	0.00286
1755.4	0.00223
1765.04	0.00193
1774.69	0.00183
1784.33	0.00173
1793.98	0.00169
1803.62	0.00157
1813.27	0.00158
1822.91	0.00161
1832.55	0.00166
1842.2	0.00163
1851.84	0.00157
1861.49	0.0015
1871.13	0.00141
1880.78	0.0014
1890.42	0.00141
1900.07	0.00145
1909.71	0.00152
1919.36	0.0015
1929	0.00142
1938.65	0.00132
1948.29	0.00128
1957.94	0.00123
1967.58	0.00127
1977.23	0.00123
1986.87	0.00122
1996.52	0.00117
2006.16	0.00119
2015.81	0.00116
2025.45	0.00113
2035.1	0.00106
2044.74	0.00108
2054.38	0.00107
2064.03	0.00101
2073.67	0.00101
2083.32	0.0009302
2092.96	0.0008929
2102.61	0.0008658
2112.25	0.000854
2121.9	0.0008814
2131.54	0.0008154
2141.19	0.0008387
2150.83	0.000829
2160.48	0.0008302
2170.12	0.0008495
2179.77	0.0008624
2189.41	0.0008608
2199.06	0.0008554
2208.7	0.0008369
2218.35	0.0008274
2227.99	0.0008389
2237.64	0.0008505
2247.28	0.0008157
2256.92	0.0008068
2266.57	0.0008121
2276.21	0.0007931
2285.86	0.0007927
2295.5	0.0008009
2305.15	0.0008103
2314.79	0.0007828
2324.44	0.0007596
2334.08	0.0008372
2343.73	0.0008454
2353.37	0.0008584
2363.02	0.0008557
2372.66	0.0008408
2382.31	0.0008486
2391.95	0.0008521
2401.6	0.0008477
2411.24	0.0008687
2420.89	0.0008241
2430.53	0.0008701
2440.18	0.0008553
2449.82	0.0008175
2459.47	0.0008304
2469.11	0.0008152
2478.75	0.0008288
2488.4	0.0008128
2498.04	0.000825
2507.69	0.0007753
2517.33	0.0008383
2526.98	0.000856
2536.62	0.0007814
2546.27	0.0008501
2555.91	0.0008486
2565.56	0.0008129
2575.2	0.0008131
2584.85	0.0008545
2594.49	0.0009444
2604.14	0.0009107
2613.78	0.0008859
2623.43	0.0008849
2633.07	0.0008151
2642.72	0.0007914
2652.36	0.0008113
2662.01	0.000817
2671.65	0.0007889
2681.29	0.0007969
2690.94	0.0008019
2700.58	0.0008518
2710.23	0.0008147
2719.87	0.0008672
2729.52	0.0008593
2739.16	0.0008429
2748.81	0.0008409
2758.45	0.0008069
2768.1	0.0008608
2777.74	0.000813
2787.39	0.0008046
2797.03	0.000814
2806.68	0.0008367
2816.32	0.0008131
2825.97	0.0008336
2835.61	0.0009067
2845.26	0.0008778
2854.9	0.0008564
2864.55	0.0008588
2874.19	0.0009166
2883.84	0.0009736
2893.48	0.00107
2903.12	0.00109
2912.77	0.00102
2922.41	0.0009489
2932.06	0.0009681
2941.7	0.000928
2951.35	0.0008697
2960.99	0.0009207
2970.64	0.0009033
2980.28	0.0009456
2989.93	0.0009767
2999.57	0.00105
3009.22	0.00147
3018.86	0.00187
3028.51	0.0023
3038.15	0.00249
3047.8	0.00306
3057.44	0.00327
3067.09	0.0028
3076.73	0.00224
3086.38	0.00187
3096.02	0.00156
3105.67	0.00133
3115.31	0.00129
3124.95	0.00113
3134.6	0.0009925
3144.24	0.0008856
3153.89	0.0008413
3163.53	0.0009245
3173.18	0.00101
3182.82	0.000951
3192.47	0.00114
3202.11	0.00119
3211.76	0.00117
3221.4	0.00122
3231.05	0.00112
3240.69	0.00112
3250.34	0.00102
3259.98	0.00102
3269.63	0.0009205
3279.27	0.00103
3288.92	0.00108
3298.56	0.00104
3308.21	0.00113
3317.85	0.00107
3327.49	0.00117
3337.14	0.00125
3346.78	0.00122
3356.43	0.00117
3366.07	0.00118
3375.72	0.00136
3385.36	0.00162
3395.01	0.00167
3404.65	0.00209
3414.3	0.0026
3423.94	0.00235
3433.59	0.00202
3443.23	0.00208
3452.88	0.00234
3462.52	0.00316
3472.17	0.00396
3481.81	0.00375
3491.46	0.00297
3501.1	0.00247
3510.75	0.00208
3520.39	0.00164
3530.04	0.00125
3539.68	0.00116
3549.32	0.00103
3558.97	0.00101
3568.61	0.0009835
3578.26	0.0011
3587.9	0.0009395
3597.55	0.0009439
3607.19	0.00111
3616.84	0.00114
3626.48	0.001
3636.13	0.00102
3645.77	0.00101
3655.42	0.0009962
3665.06	0.0009628
3674.71	0.0009684
3684.35	0.00114
3694	0.00102
3703.64	0.0009825
3713.29	0.0009891
3722.93	0.00105
3732.58	0.0009339
3742.22	0.00102
3751.86	0.00114
3761.51	0.00102
3771.15	0.0009977
3780.8	0.0009784
3790.44	0.00108
3800.09	0.00101
3809.73	0.00103
3819.38	0.0009237
3829.02	0.0009373
3838.67	0.00102
3848.31	0.00103
3857.96	0.00111
3867.6	0.0011
3877.25	0.00103
3886.89	0.000898
3896.54	0.00103
3906.18	0.00108
3915.83	0.00105
3925.47	0.001
3935.12	0.00105
3944.76	0.0008994
3954.41	0.0009496
3964.05	0.0009321
3973.69	0.001
3983.34	0.00101
3992.98	0.00103
