Infrared Spectrum: 1-CYCLOHEXENE, 4,4-DIMETHYL-
Formula: C8 H14
CAS: 14072-86-7
State: SOLUTION (10% IN CCl4 FOR 3800-1300, 10% IN CS2 FOR 1300-600, AND 10% IN CCl4 FOR 600-250 CM^-^1) VERSUS SOLVENT
Class: COBLENTZ III
Instrument: PERKIN-ELMER 521 (GRATING)
Instrument parameters: FILTERS AT 3150, 2500, 2000, 1150, 700, 410; GRATING CHANGES AT 2000, 630 CM^-^1
Sampling: TRANSMISSION
Path length: 0.011, 0.011, AND 0.020 CM (CsBr CELL)
Resolution: 4
Origin: DOW CORNING CORP.
1/CM	TRANSMITTANCE
209.127	0.902
218.094	0.902
227.061	0.902
236.029	0.9
244.996	0.9
253.963	0.9
262.93	0.902
271.898	0.903
280.865	0.905
289.832	0.902
298.799	0.909
307.766	0.909
316.734	0.907
325.701	0.907
334.668	0.905
343.635	0.907
352.603	0.905
361.57	0.896
370.537	0.895
379.504	0.888
388.471	0.882
397.439	0.882
406.406	0.884
415.373	0.888
424.34	0.9
433.308	0.903
442.275	0.903
451.242	0.898
460.209	0.895
469.176	0.895
478.144	0.881
487.111	0.881
496.078	0.886
505.045	0.881
514.013	0.861
522.98	0.874
531.947	0.886
540.914	0.886
549.881	0.886
558.849	0.886
567.816	0.886
576.783	0.882
585.75	0.881
594.718	0.877
603.685	0.865
612.652	0.842
621.619	0.802
630.586	0.7391
639.554	0.5902
648.521	0.2231
657.488	0.1432
666.455	0.5268
675.423	0.687
684.39	0.797
693.357	0.844
702.324	0.868
711.291	0.879
720.259	0.877
729.226	0.879
738.193	0.881
747.16	0.872
756.128	0.7532
765.095	0.6688
774.062	0.875
783.029	0.889
791.996	0.886
800.964	0.889
809.931	0.898
818.898	0.907
827.865	0.912
836.833	0.912
845.8	0.9
854.767	0.849
863.734	0.7181
872.702	0.8141
881.669	0.699
890.636	0.856
899.603	0.895
908.57	0.889
917.538	0.853
926.505	0.6571
935.472	0.835
944.439	0.832
953.407	0.699
962.374	0.816
971.341	0.797
980.308	0.5539
989.275	0.7668
998.243	0.851
1007.21	0.8
1016.18	0.818
1025.14	0.783
1034.11	0.832
1043.08	0.7479
1052.05	0.7388
1061.01	0.874
1069.98	0.886
1078.95	0.886
1087.91	0.882
1096.88	0.882
1105.85	0.874
1114.82	0.849
1123.78	0.704
1132.75	0.715
1141.72	0.8459
1150.69	0.874
1159.65	0.853
1168.62	0.7881
1177.59	0.596
1186.55	0.6251
1195.52	0.839
1204.49	0.865
1213.46	0.861
1222.42	0.811
1231.39	0.7009
1240.36	0.847
1249.32	0.851
1258.29	0.814
1267.26	0.839
1276.23	0.807
1285.19	0.753
1294.16	0.818
1303.13	0.851
1312.1	0.8109
1321.06	0.7649
1330.03	0.8
1339	0.77
1347.96	0.6551
1356.93	0.748
1365.9	0.2182
1374.87	0.7199
1383.83	0.517
1392.8	0.709
1401.77	0.784
1410.73	0.779
1419.7	0.748
1428.67	0.5959
1437.64	0.407
1446.6	0.519
1455.57	0.339
1464.54	0.4333
1473.51	0.435
1482.47	0.7021
1491.44	0.835
1500.41	0.861
1509.37	0.874
1518.34	0.884
1527.31	0.893
1536.28	0.896
1545.24	0.896
1554.21	0.898
1563.18	0.895
1572.14	0.889
1581.11	0.886
1590.08	0.884
1599.05	0.877
1608.01	0.847
1616.98	0.814
1625.95	0.832
1634.92	0.854
1643.88	0.8089
1652.85	0.566
1661.82	0.814
1670.78	0.86
1679.75	0.863
1688.72	0.87
1697.69	0.872
1706.65	0.872
1715.62	0.867
1724.59	0.853
1733.55	0.863
1742.52	0.879
1751.49	0.881
1760.46	0.877
1769.42	0.879
1778.39	0.875
1787.36	0.874
1796.33	0.882
1805.29	0.888
1814.26	0.884
1823.23	0.884
1832.19	0.877
1841.16	0.877
1850.13	0.872
1859.1	0.879
1868.06	0.875
1877.03	0.879
1886	0.879
1894.96	0.877
1903.93	0.875
1912.9	0.87
1921.87	0.865
1930.83	0.872
1939.8	0.884
1948.77	0.879
1957.74	0.877
1966.7	0.875
1975.67	0.875
1984.64	0.875
1993.6	0.881
2002.57	0.888
2011.54	0.886
2020.51	0.888
2029.47	0.889
2038.44	0.888
2047.41	0.886
2056.37	0.884
2065.34	0.882
2074.31	0.882
2083.28	0.879
2092.24	0.879
2101.21	0.882
2110.18	0.881
2119.15	0.886
2128.11	0.8809
2137.08	0.8759
2146.05	0.875
2155.01	0.8779
2163.98	0.875
2172.95	0.8761
2181.92	0.881
2190.88	0.8779
2199.85	0.8751
2208.82	0.8816
2217.78	0.882
2226.75	0.879
2235.72	0.879
2244.69	0.8779
2253.65	0.877
2262.62	0.874
2271.59	0.874
2280.56	0.874
2289.52	0.8738
2298.49	0.872
2307.46	0.872
2316.42	0.87
2325.39	0.8722
2334.36	0.875
2343.33	0.875
2352.29	0.874
2361.26	0.875
2370.23	0.875
2379.19	0.8749
2388.16	0.872
2397.13	0.872
2406.1	0.875
2415.06	0.874
2424.03	0.875
2433	0.875
2441.97	0.875
2450.93	0.874
2459.9	0.872
2468.87	0.87
2477.83	0.87
2486.8	0.8697
2495.77	0.868
2504.74	0.8678
2513.7	0.867
2522.67	0.868
2531.64	0.8693
2540.6	0.87
2549.57	0.87
2558.54	0.8678
2567.51	0.865
2576.47	0.867
2585.44	0.868
2594.41	0.8608
2603.38	0.8533
2612.34	0.8486
2621.31	0.8446
2630.28	0.8424
2639.24	0.846
2648.21	0.8324
2657.18	0.8085
2666.15	0.8273
2675.11	0.8362
2684.08	0.83
2693.05	0.83
2702.01	0.8215
2710.98	0.8061
2719.95	0.8196
2728.92	0.828
2737.88	0.832
2746.85	0.83
2755.82	0.8198
2764.79	0.8044
2773.75	0.8005
2782.72	0.799
2791.69	0.7853
2800.65	0.7485
2809.62	0.6635
2818.59	0.5794
2827.56	0.3281
2836.52	0.1835
2845.49	0.1305
2854.46	0.1879
2863.43	0.1424
2872.39	0.0644
2881.36	0.071
2890.33	0.0496
2899.29	0.0242
2908.26	0.0014
2917.23	0.012
2926.2	0.0306
2935.16	0.064
2944.13	0.0293
2953.1	0.0115
2962.06	0.0452
2971.03	0.0982
2980	0.3631
2988.97	0.5465
2997.93	0.6283
3006.9	0.5988
3015.87	0.4648
3024.84	0.1628
3033.8	0.3117
3042.77	0.6468
3051.74	0.7461
3060.7	0.7361
3069.67	0.7587
3078.64	0.8217
3087.61	0.8434
3096.57	0.854
3105.54	0.856
3114.51	0.856
3123.47	0.854
3132.44	0.861
3141.41	0.8543
3150.38	0.854
3159.34	0.853
3168.31	0.853
3177.28	0.853
3186.25	0.853
3195.21	0.853
3204.18	0.853
3213.15	0.8595
3222.11	0.863
3231.08	0.8668
3240.05	0.868
3249.02	0.8718
3257.98	0.872
3266.95	0.872
3275.92	0.87
3284.88	0.8583
3293.85	0.8568
3302.82	0.8668
3311.79	0.87
3320.75	0.872
3329.72	0.874
3338.69	0.8768
3347.66	0.875
3356.62	0.874
3365.59	0.8803
3374.56	0.882
3383.52	0.884
3392.49	0.884
3401.46	0.886
3410.43	0.886
3419.39	0.8851
3428.36	0.886
3437.33	0.886
3446.29	0.8861
3455.26	0.888
3464.23	0.891
3473.2	0.8899
3482.16	0.891
3491.13	0.891
3500.1	0.8881
3509.07	0.893
3518.03	0.891
3527	0.8871
3535.97	0.886
3544.93	0.884
3553.9	0.886
3562.87	0.893
3571.84	0.891
3580.8	0.8994
3589.77	0.895
3598.74	0.889
3607.7	0.895
3616.67	0.893
3625.64	0.909
3634.61	0.8875
3643.57	0.9031
3652.54	0.8984
3661.51	0.882
3670.48	0.8946
3679.44	0.8841
3688.41	0.8869
3697.38	0.889
3706.34	0.8946
3715.31	0.8861
3724.28	0.8921
3733.25	0.8981
3742.21	0.902
3751.18	0.8909
3760.15	0.889
3769.11	0.884
3778.08	0.8814
3787.05	0.8821
