Infrared Spectrum: Alpha-BENZIL MONOXIME
Formula: C14 H11 N O2
CAS: 14090-77-8
State: SOLID (SPLIT MULL)
Class: COBLENTZ III
Instrument: BECKMAN IR-9 (GRATING)
Instrument parameters: ORDER CHANGES: 670, 1200, 2000 CM^-^1
Sampling: TRANSMISSION
Resolution: 2
Origin: DOW CHEMICAL COMPANY
1/CM	TRANSMITTANCE
398	0.7348
407	0.6924
416	0.6728
425	0.6772
434	0.6942
443	0.7261
452	0.7546
461	0.7744
470	0.7762
479	0.7911
488	0.8356
497	0.8293
506	0.8611
515	0.8701
524	0.8761
533	0.88
542	0.8824
551	0.8848
560	0.8845
569	0.8768
578	0.8833
587	0.884
596	0.8795
605	0.8273
614	0.8736
623	0.873
632	0.8723
641	0.8631
650	0.8449
659	0.8062
668	0.4381
677	0.5682
686	0.4041
695	0.0597
704	0.4123
713	0.382
722	0.4268
731	0.4507
740	0.7561
749	0.8004
758	0.8188
767	0.7841
776	0.8125
785	0.8574
794	0.8591
803	0.8416
812	0.8755
821	0.8791
830	0.8757
839	0.8546
848	0.8454
857	0.7868
866	0.6606
875	0.1961
884	0.8025
893	0.8736
902	0.8805
911	0.874
920	0.8477
929	0.743
938	0.8564
947	0.868
956	0.8577
965	0.8288
974	0.7015
983	0.7785
992	0.6742
1001	0.4218
1010	0.0797
1019	0.5905
1028	0.5825
1037	0.8111
1046	0.8512
1055	0.8534
1064	0.8064
1073	0.7735
1082	0.8208
1091	0.8455
1100	0.8353
1109	0.8551
1118	0.8712
1127	0.8678
1136	0.8655
1145	0.8623
1154	0.8467
1163	0.848
1172	0.8491
1181	0.8261
1190	0.8244
1199	0.7824
1208	0.422
1217	0.606
1226	0.7126
1235	0.8143
1244	0.8119
1253	0.8176
1262	0.7953
1271	0.7715
1280	0.724
1289	0.5907
1298	0.5367
1307	0.3322
1316	0.571
1325	0.396
1334	0.5233
1343	0.4962
1352	0.4875
1361	0.3452
1370	0.2313
1379	0.4156
1388	0.6129
1397	0.66
1406	0.7353
1415	0.7722
1424	0.7841
1433	0.7918
1442	0.6948
1451	0.3291
1460	0.818
1469	0.8315
1478	0.8301
1487	0.8225
1496	0.7211
1505	0.8277
1514	0.8403
1523	0.8378
1532	0.8296
1541	0.8167
1550	0.8068
1559	0.8075
1568	0.7939
1577	0.7425
1586	0.7457
1595	0.6835
1604	0.581
1613	0.7175
1622	0.6751
1631	0.648
1640	0.3644
1649	0.1508
1658	0.1693
1667	0.7753
1676	0.8349
1685	0.876
1694	0.8788
1703	0.8762
1712	0.8731
1721	0.8745
1730	0.8705
1739	0.8666
1748	0.8565
1757	0.8545
1766	0.8525
1775	0.8436
1784	0.8316
1793	0.8364
1802	0.843
1811	0.8424
1820	0.8317
1829	0.8346
1838	0.8343
1847	0.8358
1856	0.8362
1865	0.835
1874	0.832
1883	0.8295
1892	0.8259
1901	0.8143
1910	0.8053
1919	0.8112
1928	0.8185
1937	0.8202
1946	0.8176
1955	0.8032
1964	0.7914
1973	0.8015
1982	0.805
1991	0.8071
2000	0.8025
2009	0.7975
2018	0.7984
2027	0.8025
2036	0.8019
2045	0.8005
2054	0.798
2063	0.7955
2072	0.7931
2081	0.7891
2090	0.7851
2099	0.7806
2108	0.7761
2117	0.7719
2126	0.7686
2135	0.7651
2144	0.7618
2153	0.7584
2162	0.7553
2171	0.7521
2180	0.7491
2189	0.7451
2198	0.7411
2207	0.7368
2216	0.7328
2225	0.7286
2234	0.7243
2243	0.7199
2252	0.7156
2261	0.7117
2270	0.7086
2279	0.7054
2288	0.7022
2297	0.6976
2306	0.6932
2315	0.6896
2324	0.6867
2333	0.6847
2342	0.6835
2351	0.6822
2360	0.6817
2369	0.6812
2378	0.6814
2387	0.6815
2396	0.6818
2405	0.6811
2414	0.6805
2423	0.6797
2432	0.6789
2441	0.6781
2450	0.6771
2459	0.676
2468	0.6742
2477	0.6726
2486	0.6728
2495	0.6728
2504	0.6724
2513	0.6715
2522	0.6705
2531	0.6695
2540	0.6686
2549	0.6661
2558	0.6638
2567	0.6614
2576	0.6592
2585	0.6569
2594	0.6549
2603	0.6526
2612	0.6494
2621	0.6458
2630	0.6428
2639	0.6401
2648	0.6374
2657	0.6347
2666	0.6312
2675	0.6276
2684	0.624
2693	0.6201
2702	0.616
2711	0.6119
2720	0.6078
2729	0.6004
2738	0.5944
2747	0.5924
2756	0.5938
2765	0.5996
2774	0.6043
2783	0.6056
2792	0.605
2801	0.6038
2810	0.6021
2819	0.5997
2828	0.5975
2837	0.5952
2846	0.5929
2855	0.5899
2864	0.5862
2873	0.5827
2882	0.5794
2891	0.576
2900	0.5728
2909	0.5692
2918	0.5659
2927	0.5624
2936	0.5589
2945	0.5554
2954	0.5482
2963	0.5412
2972	0.5375
2981	0.5364
2990	0.5345
2999	0.5304
3008	0.5271
3017	0.5229
3026	0.5119
3035	0.4991
3044	0.4819
3053	0.4576
3062	0.4526
3071	0.4665
3080	0.5022
3089	0.5024
3098	0.501
3107	0.4989
3116	0.4968
3125	0.4944
3134	0.4906
3143	0.4852
3152	0.4791
3161	0.4728
3170	0.4665
3179	0.4585
3188	0.4499
3197	0.4458
3206	0.4417
3215	0.4334
3224	0.4236
3233	0.4107
3242	0.3984
3251	0.388
3260	0.3776
3269	0.3642
3278	0.3502
3287	0.3309
3296	0.3268
3305	0.32
3314	0.3102
3323	0.2973
3332	0.2782
3341	0.2562
3350	0.2288
3359	0.1974
3368	0.1571
3377	0.1114
3386	0.0764
3395	0.0585
3404	0.0639
3413	0.1148
3422	0.1926
3431	0.3387
3440	0.4018
3449	0.465
3458	0.4951
3467	0.5117
3476	0.5275
3485	0.5469
3494	0.5585
3503	0.5615
3512	0.5617
3521	0.5609
3530	0.5592
3539	0.5559
3548	0.5517
3557	0.5476
3566	0.5433
3575	0.5383
3584	0.5325
3593	0.5251
3602	0.5221
3611	0.5197
3620	0.5174
3629	0.5148
3638	0.5121
3647	0.5074
3656	0.5024
3665	0.4996
3674	0.4982
3683	0.4972
3692	0.4943
3701	0.4898
3710	0.4856
3719	0.4815
3728	0.4796
3737	0.4784
3746	0.4766
3755	0.4739
3764	0.4708
3773	0.4668
3782	0.465
3791	0.4634
3800	0.4619
