Infrared Spectrum: tert-Butyl methyl sulphoxide
Formula: C 5 H 12 O S
CAS: 14094-11-2
State: gas
Origin: EPA-IR VAPOR PHASE LIBRARY
1/CM	ABSORBANCE
549.8	0.0016374
559.445	0.0013577
569.09	0.00303
578.734	0.00172
588.379	0.00199
598.024	0.0008879
607.669	0.0012521
617.313	0.0015963
626.958	0.0008967
636.603	0.0012139
646.248	0.0012134
655.893	0.00184
665.537	0.00181
675.182	0.00301
684.827	0.00278
694.472	0.00214
704.116	0.00251
713.761	0.00403
723.406	0.00492
733.051	0.00809
742.695	0.01028
752.34	0.00985
761.985	0.01137
771.63	0.01039
781.275	0.0093
790.919	0.00576
800.564	0.00267
810.209	0.00197
819.854	0.0008118
829.498	0.0015799
839.143	0.00257
848.788	0.00404
858.433	0.00622
868.078	0.00642
877.722	0.00762
887.367	0.02329
897.012	0.00768
906.657	0.00751
916.301	0.00748
925.946	0.00582
935.591	0.004
945.236	0.00331
954.88	0.00262
964.525	0.00234
974.17	0.00213
983.815	0.00238
993.46	0.00242
1003.1	0.00186
1012.75	0.0013868
1022.39	0.00284
1032.04	0.001563
1041.68	0.0017077
1051.33	0.00255
1060.97	0.00333
1070.62	0.00655
1080.26	0.00866
1089.91	0.00775
1099.55	0.00343
1109.2	0.001191
1118.84	0.00379
1128.49	0.00433
1138.13	0.00719
1147.78	0.00681
1157.42	0.0064
1167.07	0.00687
1176.71	0.00756
1186.36	0.00934
1196	0.00536
1205.64	0.0013292
1215.29	0.00289
1224.93	0.00213
1234.58	0.0013872
1244.22	0.0016984
1253.87	0.00198
1263.51	0.00215
1273.16	0.00245
1282.8	0.00182
1292.45	0.00276
1302.09	0.00265
1311.74	0.00229
1321.38	0.00254
1331.03	0.00287
1340.67	0.00364
1350.32	0.00423
1359.96	0.00561
1369.61	0.00654
1379.25	0.00755
1388.9	0.007
1398.54	0.00727
1408.18	0.00566
1417.83	0.00622
1427.47	0.00648
1437.12	0.00811
1446.76	0.00832
1456.41	0.00893
1466.05	0.00723
1475.7	0.00694
1485.34	0.00537
1494.99	0.00395
1504.63	0.00352
1514.28	0.00278
1523.92	0.0029
1533.57	0.00236
1543.21	0.00305
1552.86	0.00248
1562.5	0.00233
1572.15	0.00203
1581.79	0.00212
1591.44	0.00187
1601.08	0.00173
1610.73	0.00227
1620.37	0.00315
1630.01	0.00391
1639.66	0.00464
1649.3	0.00541
1658.95	0.00486
1668.59	0.00484
1678.24	0.00385
1687.88	0.0025
1697.53	0.00213
1707.17	0.0015274
1716.82	0.00191
1726.46	0.0011494
1736.11	0.0012283
1745.75	0.0013975
1755.4	0.0014421
1765.04	0.00175
1774.69	0.00181
1784.33	0.00199
1793.98	0.00177
1803.62	0.0016541
1813.27	0.0012028
1822.91	0.0012514
1832.55	0.0010868
1842.2	0.0011695
1851.84	0.0008487
1861.49	0.000895
1871.13	0.0010613
1880.78	0.0008793
1890.42	0.0009753
1900.07	0.00077445
1909.71	0.0009327
1919.36	0.0010699
1929	0.0008791
1938.65	0.0010844
1948.29	0.00072296
1957.94	0.0009514
1967.58	0.0009048
1977.23	0.0010681
1986.87	0.0010286
1996.52	0.0008908
2006.16	0.0009464
2015.81	0.000836
2025.45	0.0010397
2035.1	0.0011049
2044.74	0.0008737
2054.38	0.001012
2064.03	0.0009014
2073.67	0.0010293
2083.32	0.0009479
2092.96	0.0008312
2102.61	0.0009344
2112.25	0.000934
2121.9	0.0010853
2131.54	0.0010248
2141.19	0.0011058
2150.83	0.0008994
2160.48	0.0009938
2170.12	0.0011305
2179.77	0.0009679
2189.41	0.0012073
2199.06	0.001099
2208.7	0.0011881
2218.35	0.0012171
2227.99	0.0010391
2237.64	0.0012128
2247.28	0.0015327
2256.92	0.0009669
2266.57	0.0011548
2276.21	0.0011439
2285.86	0.0012248
2295.5	0.0013976
2305.15	0.0017043
2314.79	0.0013335
2324.44	0.0015161
2334.08	0.0013842
2343.73	0.0012944
2353.37	0.0013402
2363.02	0.001069
2372.66	0.001278
2382.31	0.0008691
2391.95	0.00079264
2401.6	0.0013947
2411.24	0.0010411
2420.89	0.00073287
2430.53	0.0009444
2440.18	0.0008525
2449.82	0.0011154
2459.47	0.0009821
2469.11	0.0008884
2478.75	0.0011493
2488.4	0.0011515
2498.04	0.00094
2507.69	0.0011699
2517.33	0.000972
2526.98	0.0009747
2536.62	0.0009063
2546.27	0.0008286
2555.91	0.00077052
2565.56	0.0011733
2575.2	0.0009401
2584.85	0.0012092
2594.49	0.00075329
2604.14	0.0008606
2613.78	0.0009784
2623.43	0.0008715
2633.07	0.0006512
2642.72	0.0010389
2652.36	0.0012437
2662.01	0.0008632
2671.65	0.0010622
2681.29	0.00078703
2690.94	0.0012802
2700.58	0.0014698
2710.23	0.0014483
2719.87	0.001463
2729.52	0.00244
2739.16	0.00176
2748.81	0.0013114
2758.45	0.0015672
2768.1	0.00167
2777.74	0.00216
2787.39	0.0016964
2797.03	0.00233
2806.68	0.00218
2816.32	0.00321
2825.97	0.00298
2835.61	0.00396
2845.26	0.00553
2854.9	0.00631
2864.55	0.00831
2874.19	0.00952
2883.84	0.01137
2893.48	0.01362
2903.12	0.01574
2912.77	0.01724
2922.41	0.0185
2932.06	0.01865
2941.7	0.02451
2951.35	0.02008
2960.99	0.02087
2970.64	0.02045
2980.28	0.01939
2989.93	0.0163
2999.57	0.0135
3009.22	0.00915
3018.86	0.00642
3028.51	0.00444
3038.15	0.00437
3047.8	0.00451
3057.44	0.0058
3067.09	0.00724
3076.73	0.0072
3086.38	0.00792
3096.02	0.00687
3105.67	0.00619
3115.31	0.00368
3124.95	0.00233
3134.6	0.0019
3144.24	0.00196
3153.89	0.0013997
3163.53	0.0013082
3173.18	0.0013707
3182.82	0.000588
3192.47	0.0006622
3202.11	0.0008751
3211.76	0.00075187
3221.4	0.0012206
3231.05	0.000527
3240.69	0.0010318
3250.34	0.0006323
3259.98	0.0008989
3269.63	0.000261
3279.27	0.00080357
3288.92	0.0011828
3298.56	0.0015418
3308.21	0.0010666
3317.85	0.0016246
3327.49	0.0016715
3337.14	0.0011606
3346.78	0.00080852
3356.43	0.0014962
3366.07	0.0006844
3375.72	0.0010608
3385.36	0.0011121
3395.01	0.0006123
3404.65	0.00073086
3414.3	0.0009808
3423.94	0.000408
3433.59	0.00076213
3443.23	0.000404
3452.88	0.0015541
3462.52	0.0009207
3472.17	0.000487
3481.81	0.0009948
3491.46	0.0011592
3501.1	0.0011493
3510.75	0.0008633
3520.39	0.0008164
3530.04	0.0008902
3539.68	0.0012446
3549.32	0.00186
3558.97	0.0023
3568.61	0.00299
3578.26	0.00416
3587.9	0.00588
3597.55	0.00548
3607.19	0.00824
3616.84	0.0053
3626.48	0.00619
3636.13	0.00455
3645.77	0.00306
3655.42	0.0016511
3665.06	0.001121
3674.71	0.0009687
3684.35	0.0010319
3694	0.00049
3703.64	0.0007629
3713.29	0.0013161
3722.93	0.0014038
3732.58	0.0014504
3742.22	0.0011893
3751.86	0.0013781
3761.51	0.00115
3771.15	0.0006366
3780.8	0.000715386
3790.44	0.0011183
3800.09	0.0009747
3809.73	0.0010723
3819.38	0.0015217
3829.02	0.001021
3838.67	0.0012589
3848.31	0.0012308
3857.96	0.001443
3867.6	0.00199
3877.25	0.00080575
3886.89	0.00077042
3896.54	0.0014866
3906.18	0.002
3915.83	0.0015382
3925.47	0.0014936
3935.12	0.0010842
3944.76	0.0008833
3954.41	0.0013842
3964.05	0.0011219
3973.69	0.00079655
3983.34	0.0015273
3992.98	0.001362
