Infrared Spectrum: 4-Methoxy-4-methyl-2-pentanol
Formula: C 7 H 16 O 2
CAS: 141-73-1
State: gas
Origin: EPA-IR VAPOR PHASE LIBRARY
1/CM	ABSORBANCE
549.8	0.0026
559.445	0.00242
569.09	0.00222
578.734	0.00196
588.379	0.00187
598.024	0.00141
607.669	0.00129
617.313	0.00118
626.958	0.00105
636.603	0.00117
646.248	0.00107
655.893	0.0009931
665.537	0.0008611
675.182	0.00106
684.827	0.000976
694.472	0.00111
704.116	0.00145
713.761	0.00224
723.406	0.00339
733.051	0.00397
742.695	0.00316
752.34	0.00195
761.985	0.0013
771.63	0.00105
781.275	0.00139
790.919	0.00152
800.564	0.0022
810.209	0.00348
819.854	0.00551
829.498	0.00727
839.143	0.0066
848.788	0.0049
858.433	0.00367
868.078	0.00344
877.722	0.00357
887.367	0.00435
897.012	0.00458
906.657	0.00405
916.301	0.00402
925.946	0.00474
935.591	0.00544
945.236	0.0052
954.88	0.00478
964.525	0.00494
974.17	0.00468
983.815	0.00427
993.46	0.00423
1003.1	0.00432
1012.75	0.00528
1022.39	0.00811
1032.04	0.01361
1041.68	0.01906
1051.33	0.02208
1060.97	0.02599
1070.62	0.03656
1080.26	0.04411
1089.91	0.03752
1099.55	0.02311
1109.2	0.0159
1118.84	0.0143
1128.49	0.01575
1138.13	0.02018
1147.78	0.02904
1157.42	0.03633
1167.07	0.03614
1176.71	0.03058
1186.36	0.02629
1196	0.02137
1205.64	0.0168
1215.29	0.01546
1224.93	0.01693
1234.58	0.01795
1244.22	0.01573
1253.87	0.01258
1263.51	0.01099
1273.16	0.01094
1282.8	0.01115
1292.45	0.01027
1302.09	0.00873
1311.74	0.00735
1321.38	0.00676
1331.03	0.00633
1340.67	0.00679
1350.32	0.00986
1359.96	0.01702
1369.61	0.02635
1379.25	0.02763
1388.9	0.02147
1398.54	0.01463
1408.18	0.01154
1417.83	0.00961
1427.47	0.00754
1437.12	0.00695
1446.76	0.00803
1456.41	0.00993
1466.05	0.01055
1475.7	0.00877
1485.34	0.00558
1494.99	0.00321
1504.63	0.00217
1514.28	0.00173
1523.92	0.00143
1533.57	0.0013
1543.21	0.00122
1552.86	0.00122
1562.5	0.00115
1572.15	0.00102
1581.79	0.0009881
1591.44	0.0008182
1601.08	0.000782
1610.73	0.0007622
1620.37	0.0007683
1630.01	0.0007181
1639.66	0.000666
1649.3	0.0006173
1658.95	0.0006323
1668.59	0.0006168
1678.24	0.0006512
1687.88	0.0005896
1697.53	0.0005401
1707.17	0.0004936
1716.82	0.0004633
1726.46	0.0004267
1736.11	0.0003895
1745.75	0.0003548
1755.4	0.0004023
1765.04	0.0004952
1774.69	0.0004854
1784.33	0.0004789
1793.98	0.0005896
1803.62	0.0006164
1813.27	0.0006563
1822.91	0.0005278
1832.55	0.0005289
1842.2	0.0004327
1851.84	0.0003918
1861.49	0.0004176
1871.13	0.0004458
1880.78	0.0004726
1890.42	0.0005051
1900.07	0.0005494
1909.71	0.0005954
1919.36	0.0005623
1929	0.0005353
1938.65	0.0004635
1948.29	0.0004416
1957.94	0.0004092
1967.58	0.0003916
1977.23	0.0003998
1986.87	0.0003621
1996.52	0.0003264
2006.16	0.000352
2015.81	0.000363
2025.45	0.0003628
2035.1	0.0002659
2044.74	0.0002575
2054.38	0.0002502
2064.03	0.0002641
2073.67	0.0003209
2083.32	0.0003516
2092.96	0.0004332
2102.61	0.0004651
2112.25	0.0006109
2121.9	0.000694
2131.54	0.0007265
2141.19	0.0007656
2150.83	0.0007624
2160.48	0.0006704
2170.12	0.000619
2179.77	0.0004169
2189.41	0.0003669
2199.06	0.000392
2208.7	0.0003064
2218.35	0.0003562
2227.99	0.0003573
2237.64	0.0003806
2247.28	0.000268
2256.92	0.0003242
2266.57	0.0002592
2276.21	0.0003514
2285.86	0.0003801
2295.5	0.000316
2305.15	0.0003662
2314.79	0.0002932
2324.44	0.0003411
2334.08	0.0003338
2343.73	0.0003335
2353.37	0.0003464
2363.02	0.0003473
2372.66	0.0003397
2382.31	0.0003278
2391.95	0.0003241
2401.6	0.0004504
2411.24	0.0003846
2420.89	0.0003621
2430.53	0.0003696
2440.18	0.0003502
2449.82	0.0003623
2459.47	0.0002942
2469.11	0.0003191
2478.75	0.000316
2488.4	0.0003498
2498.04	0.0003416
2507.69	0.0002755
2517.33	0.0003581
2526.98	0.0003923
2536.62	0.0004942
2546.27	0.0004638
2555.91	0.0005338
2565.56	0.000524
2575.2	0.000639
2584.85	0.0007034
2594.49	0.0007859
2604.14	0.0008344
2613.78	0.0008264
2623.43	0.0008682
2633.07	0.00101
2642.72	0.00109
2652.36	0.0011
2662.01	0.00111
2671.65	0.001
2681.29	0.000974
2690.94	0.00108
2700.58	0.00104
2710.23	0.00113
2719.87	0.00128
2729.52	0.00136
2739.16	0.00156
2748.81	0.00159
2758.45	0.00179
2768.1	0.00198
2777.74	0.00216
2787.39	0.00267
2797.03	0.0034
2806.68	0.00481
2816.32	0.00726
2825.97	0.01172
2835.61	0.01486
2845.26	0.01322
2854.9	0.01008
2864.55	0.01118
2874.19	0.0156
2883.84	0.02037
2893.48	0.02383
2903.12	0.02794
2912.77	0.03312
2922.41	0.03868
2932.06	0.04604
2941.7	0.0487
2951.35	0.04265
2960.99	0.04248
2970.64	0.06356
2980.28	0.07704
2989.93	0.05583
2999.57	0.02543
3009.22	0.01194
3018.86	0.00693
3028.51	0.00486
3038.15	0.00377
3047.8	0.00307
3057.44	0.00263
3067.09	0.00254
3076.73	0.00229
3086.38	0.00204
3096.02	0.00205
3105.67	0.00183
3115.31	0.00165
3124.95	0.00143
3134.6	0.00138
3144.24	0.00115
3153.89	0.00121
3163.53	0.00112
3173.18	0.00113
3182.82	0.00106
3192.47	0.0009334
3202.11	0.00101
3211.76	0.00117
3221.4	0.0009468
3231.05	0.000806
3240.69	0.0008153
3250.34	0.000747
3259.98	0.0005465
3269.63	0.0006681
3279.27	0.000692
3288.92	0.0006394
3298.56	0.0005402
3308.21	0.0006477
3317.85	0.0006889
3327.49	0.0005697
3337.14	0.0006469
3346.78	0.0006701
3356.43	0.0007356
3366.07	0.0007182
3375.72	0.0007707
3385.36	0.0007855
3395.01	0.000845
3404.65	0.0009048
3414.3	0.0012
3423.94	0.00117
3433.59	0.00128
3443.23	0.00152
3452.88	0.00124
3462.52	0.00139
3472.17	0.00126
3481.81	0.00137
3491.46	0.00157
3501.1	0.00161
3510.75	0.00234
3520.39	0.0032
3530.04	0.0038
3539.68	0.00546
3549.32	0.01001
3558.97	0.016
3568.61	0.01744
3578.26	0.01326
3587.9	0.00854
3597.55	0.00544
3607.19	0.00386
3616.84	0.00312
3626.48	0.00251
3636.13	0.00254
3645.77	0.00309
3655.42	0.00315
3665.06	0.00227
3674.71	0.00134
3684.35	0.0009735
3694	0.0007013
3703.64	0.0006839
3713.29	0.0005357
3722.93	0.0004005
3732.58	0.0003815
3742.22	0.0004062
3751.86	0.0005897
3761.51	0.0003861
3771.15	0.0004772
3780.8	0.0005003
3790.44	0.0002524
3800.09	0.0004497
3809.73	0.0003666
3819.38	0.0004194
3829.02	0.0003211
3838.67	0.0004874
3848.31	0.0003939
3857.96	0.0005739
3867.6	0.0005595
3877.25	0.000532
3886.89	0.0004837
3896.54	0.0004756
3906.18	0.0005815
3915.83	0.0004323
3925.47	0.0004985
3935.12	0.0004968
3944.76	0.0003883
3954.41	0.0005382
3964.05	0.0004652
3973.69	0.0005901
3983.34	0.0006082
3992.98	0.0007138
