Infrared Spectrum: Methyl ricinoleate
Formula: C 19 H 36 O 3
CAS: 141-24-2
State: gas
Origin: EPA-IR VAPOR PHASE LIBRARY
1/CM	ABSORBANCE
549.8	0.0008643
559.445	0.00166
569.09	0.00163
578.734	0.00196
588.379	0.00158
598.024	0.0021
607.669	0.00206
617.313	0.00208
626.958	0.00181
636.603	0.00183
646.248	0.00183
655.893	0.00215
665.537	0.00226
675.182	0.00297
684.827	0.00353
694.472	0.00471
704.116	0.0057
713.761	0.00684
723.406	0.00726
733.051	0.00626
742.695	0.00494
752.34	0.00402
761.985	0.00359
771.63	0.00307
781.275	0.00266
790.919	0.00271
800.564	0.00305
810.209	0.00331
819.854	0.00389
829.498	0.00442
839.143	0.00517
848.788	0.00574
858.433	0.00605
868.078	0.00611
877.722	0.00521
887.367	0.00439
897.012	0.00369
906.657	0.00338
916.301	0.00304
925.946	0.00282
935.591	0.00282
945.236	0.00317
954.88	0.00371
964.525	0.00476
974.17	0.00535
983.815	0.00658
993.46	0.00802
1003.1	0.01021
1012.75	0.01282
1022.39	0.01472
1032.04	0.01522
1041.68	0.0157
1051.33	0.0151
1060.97	0.01372
1070.62	0.01302
1080.26	0.01186
1089.91	0.01263
1099.55	0.01213
1109.2	0.01316
1118.84	0.01454
1128.49	0.01659
1138.13	0.02099
1147.78	0.02688
1157.42	0.03261
1167.07	0.03716
1176.71	0.03809
1186.36	0.03454
1196	0.03314
1205.64	0.03128
1215.29	0.02961
1224.93	0.02905
1234.58	0.02949
1244.22	0.02962
1253.87	0.0269
1263.51	0.02285
1273.16	0.01913
1282.8	0.01656
1292.45	0.0148
1302.09	0.01382
1311.74	0.01339
1321.38	0.01306
1331.03	0.01307
1340.67	0.01478
1350.32	0.01742
1359.96	0.01767
1369.61	0.01531
1379.25	0.01264
1388.9	0.01026
1398.54	0.00892
1408.18	0.00885
1417.83	0.00784
1427.47	0.01104
1437.12	0.01916
1446.76	0.01785
1456.41	0.01751
1466.05	0.01514
1475.7	0.0089
1485.34	0.00514
1494.99	0.0035
1504.63	0.00265
1514.28	0.0022
1523.92	0.00196
1533.57	0.00181
1543.21	0.00161
1552.86	0.00162
1562.5	0.00151
1572.15	0.00149
1581.79	0.0013
1591.44	0.00124
1601.08	0.00108
1610.73	0.00116
1620.37	0.00116
1630.01	0.00123
1639.66	0.00146
1649.3	0.00188
1658.95	0.0017
1668.59	0.00157
1678.24	0.00178
1687.88	0.00215
1697.53	0.00288
1707.17	0.00448
1716.82	0.00733
1726.46	0.01314
1736.11	0.02343
1745.75	0.03817
1755.4	0.05578
1765.04	0.04783
1774.69	0.02804
1784.33	0.01421
1793.98	0.00638
1803.62	0.00324
1813.27	0.00192
1822.91	0.00135
1832.55	0.00108
1842.2	0.0009347
1851.84	0.0007857
1861.49	0.0007267
1871.13	0.0007445
1880.78	0.0007533
1890.42	0.0006877
1900.07	0.0006204
1909.71	0.0005542
1919.36	0.0006739
1929	0.0006417
1938.65	0.0007152
1948.29	0.0007571
1957.94	0.0007305
1967.58	0.0007673
1977.23	0.0008297
1986.87	0.0009265
1996.52	0.0009737
2006.16	0.00101
2015.81	0.0009947
2025.45	0.00106
2035.1	0.00114
2044.74	0.00104
2054.38	0.0011
2064.03	0.0009908
2073.67	0.0008196
2083.32	0.0008723
2092.96	0.0008383
2102.61	0.0006717
2112.25	0.0006197
2121.9	0.0005556
2131.54	0.0005632
2141.19	0.0004983
2150.83	0.0004847
2160.48	0.000499
2170.12	0.0005001
2179.77	0.0004985
2189.41	0.0004879
2199.06	0.0005469
2208.7	0.0004833
2218.35	0.0004316
2227.99	0.0006055
2237.64	0.0004624
2247.28	0.0004419
2256.92	0.0004536
2266.57	0.0004551
2276.21	0.000519
2285.86	0.0004818
2295.5	0.0005
2305.15	0.0006046
2314.79	0.0005911
2324.44	0.0005408
2334.08	0.0005145
2343.73	0.0004549
2353.37	0.0004715
2363.02	0.000447
2372.66	0.0005065
2382.31	0.0006089
2391.95	0.0005984
2401.6	0.0005146
2411.24	0.0005467
2420.89	0.0005411
2430.53	0.0005428
2440.18	0.0005359
2449.82	0.0005644
2459.47	0.00058
2469.11	0.000529
2478.75	0.0004477
2488.4	0.0006278
2498.04	0.0005973
2507.69	0.0006226
2517.33	0.0007226
2526.98	0.0007456
2536.62	0.0008616
2546.27	0.0008016
2555.91	0.0008261
2565.56	0.000789
2575.2	0.0008877
2584.85	0.00105
2594.49	0.00108
2604.14	0.00114
2613.78	0.00125
2623.43	0.00129
2633.07	0.00138
2642.72	0.00161
2652.36	0.00166
2662.01	0.00172
2671.65	0.00193
2681.29	0.00197
2690.94	0.00195
2700.58	0.00193
2710.23	0.00185
2719.87	0.00192
2729.52	0.00188
2739.16	0.00205
2748.81	0.00233
2758.45	0.00224
2768.1	0.00255
2777.74	0.00295
2787.39	0.00336
2797.03	0.00406
2806.68	0.00476
2816.32	0.00628
2825.97	0.00845
2835.61	0.01231
2845.26	0.02052
2854.9	0.03709
2864.55	0.05514
2874.19	0.04732
2883.84	0.03866
2893.48	0.03611
2903.12	0.04487
2912.77	0.06441
2922.41	0.09547
2932.06	0.13279
2941.7	0.12058
2951.35	0.08435
2960.99	0.06847
2970.64	0.05154
2980.28	0.0287
2989.93	0.01829
2999.57	0.01577
3009.22	0.01924
3018.86	0.01977
3028.51	0.01201
3038.15	0.00685
3047.8	0.00485
3057.44	0.00401
3067.09	0.00341
3076.73	0.00295
3086.38	0.00244
3096.02	0.00202
3105.67	0.00172
3115.31	0.00151
3124.95	0.00137
3134.6	0.00119
3144.24	0.00112
3153.89	0.0009681
3163.53	0.0007195
3173.18	0.0009513
3182.82	0.000843
3192.47	0.0008844
3202.11	0.0006553
3211.76	0.0006427
3221.4	0.0006004
3231.05	0.0003994
3240.69	0.0004958
3250.34	0.0004798
3259.98	0.0004512
3269.63	0.0005812
3279.27	0.0003565
3288.92	0.0003477
3298.56	0.0003809
3308.21	0.0003856
3317.85	0.0002933
3327.49	0.0004625
3337.14	0.0002734
3346.78	0.0004517
3356.43	0.0002847
3366.07	0.0003759
3375.72	0.0004328
3385.36	0.0005387
3395.01	0.0003537
3404.65	0.0003605
3414.3	0.0004682
3423.94	0.000475
3433.59	0.0004018
3443.23	0.0005212
3452.88	0.0004565
3462.52	0.0006988
3472.17	0.0007593
3481.81	0.0007575
3491.46	0.0008228
3501.1	0.0009826
3510.75	0.0008896
3520.39	0.0007861
3530.04	0.0004931
3539.68	0.0003929
3549.32	0.000353
3558.97	0.000533
3568.61	0.0004529
3578.26	0.0007365
3587.9	0.0009182
3597.55	0.00158
3607.19	0.00217
3616.84	0.00259
3626.48	0.00226
3636.13	0.00246
3645.77	0.00309
3655.42	0.00326
3665.06	0.00173
3674.71	0.0008951
3684.35	0.0008112
3694	0.0003871
3703.64	0.0003696
3713.29	0.0003432
3722.93	0.0001166
3732.58	0.0002941
3742.22	0.0003191
3751.86	0.0004203
3761.51	0.0004633
3771.15	0.0004963
3780.8	0.0003602
3790.44	0.0005448
3800.09	0.0004473
3809.73	0.0004862
3819.38	0.0005907
3829.02	0.0003048
3838.67	0.0005437
3848.31	0.0005865
3857.96	0.0006115
3867.6	0.0006059
3877.25	0.0005506
3886.89	0.000853
3896.54	0.0004365
3906.18	0.0005277
3915.83	0.0002986
3925.47	0.0004135
3935.12	0.0003216
3944.76	0.0003353
3954.41	0.000454
3964.05	0.0005214
3973.69	0.0007047
3983.34	0.0005264
3992.98	0.0004284
