Infrared Spectrum: 7-OXABICYCLO[4.1.0]HEPTANE-3-CARBOXYLIC ACID, 4-METHYL-, 4-METHYL-7-OXABICYCLO-[4.1.0]HEPTYL METHYL ESTER
Formula: C16 H24 O4
CAS: 141-37-7
State: LIQUID (NEAT)
Class: COBLENTZ
Instrument: PERKIN-ELMER 521 (GRATING)
Instrument parameters: FILTERS AT 3150, 2500, 2000, 1150, 700, 410; GRATING CHANGES AT 2000, 630 CM^-^1
Sampling: TRANSMISSION
Path length: 0.0019 CM
Resolution: 4
Origin: STANDARD OIL OF OHIO
1/CM	TRANSMITTANCE
517.806	0.2
527.273	0.201
536.739	0.205
546.206	0.215
555.672	0.242
565.139	0.3159
574.606	0.393
584.072	0.444
593.539	0.484
603.006	0.525
612.472	0.571
621.939	0.6229
631.405	0.667
640.872	0.693
650.339	0.689
659.805	0.6569
669.272	0.7159
678.739	0.788
688.205	0.815
697.672	0.7661
707.138	0.727
716.605	0.7769
726.072	0.794
735.538	0.789
745.005	0.749
754.472	0.6471
763.938	0.538
773.405	0.549
782.871	0.4671
792.338	0.513
801.805	0.427
811.271	0.1742
820.738	0.227
830.204	0.337
839.671	0.7348
849.138	0.827
858.604	0.789
868.071	0.706
877.538	0.6841
887.004	0.622
896.471	0.608
905.937	0.5061
915.404	0.51
924.871	0.555
934.337	0.505
943.804	0.583
953.271	0.586
962.737	0.5792
972.204	0.4
981.67	0.298
991.137	0.255
1000.6	0.2711
1010.07	0.215
1019.54	0.218
1029	0.408
1038.47	0.357
1047.94	0.327
1057.4	0.279
1066.87	0.3788
1076.34	0.432
1085.8	0.394
1095.27	0.461
1104.74	0.494
1114.2	0.547
1123.67	0.5001
1133.14	0.2471
1142.6	0.144
1152.07	0.1911
1161.54	0.069
1171	0.047
1180.47	0.098
1189.94	0.208
1199.4	0.279
1208.87	0.32
1218.34	0.1671
1227.8	0.15
1237.27	0.083
1246.74	0.0979
1256.2	0.098
1265.67	0.1
1275.14	0.288
1284.6	0.289
1294.07	0.245
1303.54	0.2029
1313	0.11
1322.47	0.3369
1331.94	0.522
1341.4	0.474
1350.87	0.4541
1360.34	0.298
1369.8	0.277
1379.27	0.272
1388.74	0.33
1398.2	0.4031
1407.67	0.601
1417.13	0.525
1426.6	0.261
1436.07	0.1939
1445.53	0.316
1455	0.24
1464.47	0.283
1473.93	0.506
1483.4	0.661
1492.87	0.803
1502.33	0.837
1511.8	0.859
1521.27	0.869
1530.73	0.883
1540.2	0.896
1549.67	0.903
1559.13	0.908
1568.6	0.908
1578.07	0.906
1587.53	0.906
1597	0.905
1606.47	0.898
1615.93	0.893
1625.4	0.888
1634.87	0.883
1644.33	0.874
1653.8	0.854
1663.27	0.84
1672.73	0.8
1682.2	0.725
1691.67	0.615
1701.13	0.481
1710.6	0.1719
1720.07	0.045
1729.53	0.04
1739	0.052
1748.47	0.2911
1757.93	0.5549
1767.4	0.683
1776.87	0.774
1786.33	0.815
1795.8	0.854
1805.27	0.879
1814.73	0.898
1824.2	0.908
1833.67	0.92
1843.13	0.925
1852.6	0.932
1862.07	0.935
1871.53	0.938
1881	0.938
1890.47	0.94
1899.93	0.94
1909.4	0.94
1918.87	0.94
1928.33	0.94
1937.8	0.94
1947.27	0.942
1956.73	0.94
1966.2	0.94
1975.67	0.938
1985.13	0.94
1994.6	0.942
2004.07	0.942
2013.53	0.942
2023	0.942
2032.47	0.94
2041.93	0.94
2051.4	0.938
2060.87	0.9375
2070.33	0.935
2079.8	0.937
2089.26	0.9371
2098.73	0.938
2108.2	0.9368
2117.66	0.932
2127.13	0.935
2136.6	0.935
2146.06	0.937
2155.53	0.938
2165	0.9371
2174.46	0.938
2183.93	0.938
2193.4	0.9373
2202.86	0.9383
2212.33	0.94
2221.8	0.94
2231.26	0.942
2240.73	0.94
2250.2	0.9414
2259.66	0.94
2269.13	0.94
2278.6	0.938
2288.06	0.9336
2297.53	0.928
2307	0.927
2316.46	0.927
2325.93	0.9295
2335.4	0.9305
2344.86	0.937
2354.33	0.937
2363.8	0.9384
2373.26	0.938
2382.73	0.938
2392.2	0.938
2401.66	0.9396
2411.13	0.938
2420.6	0.937
2430.06	0.938
2439.53	0.937
2449	0.9377
2458.46	0.937
2467.93	0.9374
2477.4	0.938
2486.86	0.9389
2496.33	0.9315
2505.8	0.9388
2515.26	0.942
2524.73	0.938
2534.2	0.94
2543.66	0.9392
2553.13	0.937
2562.6	0.9361
2572.06	0.935
2581.53	0.9311
2591	0.928
2600.46	0.928
2609.93	0.9251
2619.4	0.923
2628.86	0.92
2638.33	0.923
2647.8	0.92
2657.26	0.918
2666.73	0.915
2676.2	0.9089
2685.66	0.9049
2695.13	0.8969
2704.6	0.9
2714.06	0.8949
2723.53	0.8838
2733	0.876
2742.46	0.8812
2751.93	0.886
2761.4	0.8839
2770.86	0.881
2780.33	0.876
2789.79	0.8664
2799.26	0.8496
2808.73	0.8295
2818.19	0.7917
2827.66	0.6732
2837.13	0.4263
2846.59	0.4019
2856.06	0.4378
2865.53	0.3229
2874.99	0.249
2884.46	0.2282
2893.93	0.1144
2903.39	0.0802
2912.86	0.074
2922.33	0.072
2931.79	0.0783
2941.26	0.0946
2950.73	0.0858
2960.19	0.0782
2969.66	0.0972
2979.13	0.1173
2988.59	0.1483
2998.06	0.2162
3007.53	0.3222
3016.99	0.5159
3026.46	0.6813
3035.93	0.7851
3045.39	0.8445
3054.86	0.8742
3064.33	0.8897
3073.79	0.9
3083.26	0.9087
3092.73	0.9155
3102.19	0.9207
3111.66	0.9265
3121.13	0.93
3130.59	0.932
3140.06	0.932
3149.53	0.932
3158.99	0.932
3168.46	0.932
3177.93	0.933
3187.39	0.935
3196.86	0.937
3206.33	0.9379
3215.79	0.94
3225.26	0.94
3234.73	0.938
3244.19	0.938
3253.66	0.94
3263.13	0.937
3272.59	0.933
3282.06	0.93
3291.53	0.929
3300.99	0.927
3310.46	0.924
3319.93	0.922
3329.39	0.9169
3338.86	0.9129
3348.33	0.9089
3357.79	0.9048
3367.26	0.8989
3376.73	0.8877
3386.19	0.8773
3395.66	0.8688
3405.13	0.8522
3414.59	0.8411
3424.06	0.8238
3433.53	0.8026
3442.99	0.796
3452.46	0.7982
3461.92	0.801
3471.39	0.7997
3480.86	0.7967
3490.32	0.7927
3499.79	0.789
3509.26	0.791
3518.72	0.7954
3528.19	0.8052
3537.66	0.8202
3547.12	0.8418
3556.59	0.8619
3566.06	0.8894
3575.52	0.8995
3584.99	0.9107
3594.46	0.9245
3603.92	0.9272
3613.39	0.9315
3622.86	0.9378
3632.32	0.9435
3641.79	0.9455
3651.26	0.952
3660.72	0.9576
3670.19	0.9574
3679.66	0.9547
3689.12	0.952
3698.59	0.95
3708.06	0.949
3717.52	0.9463
3726.99	0.944
3736.46	0.94
3745.92	0.9353
3755.39	0.9337
3764.86	0.9379
3774.32	0.94
3783.79	0.942
3793.26	0.9428
3802.72	0.944
3812.19	0.944
3821.66	0.944
3831.12	0.944
3840.59	0.942
3850.06	0.942
3859.52	0.9401
3868.99	0.94
3878.46	0.94
3887.92	0.938
