Infrared Spectrum: 4,4-Dimethyl-2-neopentyl-1-pentene
Formula: C 12 H 24
CAS: 141-70-8
State: gas
Instrument: HP-GC/MS/IRD
Origin: NIST Mass Spectrometry Data Center
1/CM	ABSORBANCE
550	0
562	1.08e-05
574	6.48e-05
586	2.88e-05
598	7.56e-05
610	0.0001116
622	0.00027
634	0.0003564
646	0.0002088
658	0.0001476
670	0.0001188
682	0.0001584
694	8.64e-05
706	6.12e-05
718	7.92e-05
730	0.0001044
742	0.00018
754	0.0003456
766	0.0004932
778	0.000198
790	0.000108
802	0.0001116
814	9.36e-05
826	7.92e-05
838	0.0001656
850	0.000198
862	0.0003996
874	0.0007848
886	0.0027612
898	0.004914
910	0.0027972
922	0.0006732
934	0.0003492
946	0.0002124
958	0.0002016
970	0.0002664
982	0.0004104
994	0.0001908
1006	0.0001548
1018	0.0001836
1030	0.0001692
1042	0.0001908
1054	0.0001152
1066	0.0001368
1078	0.0001368
1090	0.0001512
1102	0.0001584
1114	0.0001476
1126	0.0002124
1138	0.0002772
1150	0.0003312
1162	0.0005616
1174	0.0008568
1186	0.001368
1198	0.0017748
1210	0.001314
1222	0.0021456
1234	0.0027432
1246	0.0014868
1258	0.000828
1270	0.0005436
1282	0.0004968
1294	0.0004572
1306	0.00045
1318	0.0007164
1330	0.00126
1342	0.0013716
1354	0.0024732
1366	0.00558
1378	0.0034812
1390	0.0025308
1402	0.0024372
1414	0.001278
1426	0.0011232
1438	0.0015984
1450	0.0021744
1462	0.0034056
1474	0.0051984
1486	0.0039456
1498	0.00126
1510	0.0005724
1522	0.0003528
1534	0.0002664
1546	0.0002304
1558	0.000198
1570	0.0001872
1582	0.0002016
1594	0.0002736
1606	0.0004716
1618	0.0009576
1630	0.00171
1642	0.0013608
1654	0.0005076
1666	0.000252
1678	0.0002016
1690	0.0001296
1702	0.0001368
1714	0.0001044
1726	9.36e-05
1738	8.64e-05
1750	9.36e-05
1762	8.64e-05
1774	0.0001188
1786	0.0001692
1798	0.000288
1810	0.0003636
1822	0.000216
1834	0.000108
1846	9.72e-05
1858	0.0001008
1870	8.64e-05
1882	0.0001008
1894	8.28e-05
1906	8.28e-05
1918	5.04e-05
1930	7.2e-05
1942	6.48e-05
1954	6.12e-05
1966	4.32e-05
1978	5.76e-05
1990	4.68e-05
2002	4.32e-05
2014	3.6e-05
2026	7.2e-05
2038	7.92e-05
2050	4.68e-05
2062	3.96e-05
2074	2.88e-05
2086	4.32e-05
2098	3.96e-05
2110	4.32e-05
2122	5.04e-05
2134	5.04e-05
2146	3.24e-05
2158	3.24e-05
2170	1.8e-05
2182	2.16e-05
2194	1.8e-05
2206	2.16e-05
2218	1.44e-05
2230	2.16e-05
2242	2.52e-05
2254	2.16e-05
2266	2.16e-05
2278	2.16e-05
2290	5.76e-05
2302	6.48e-05
2314	5.04e-05
2326	2.52e-05
2338	1.08e-05
2350	3.6e-05
2362	2.88e-05
2374	2.88e-05
2386	4.68e-05
2398	4.68e-05
2410	5.76e-05
2422	5.04e-05
2434	3.96e-05
2446	3.96e-05
2458	4.32e-05
2470	4.32e-05
2482	3.96e-05
2494	6.84e-05
2506	6.84e-05
2518	7.56e-05
2530	6.84e-05
2542	7.92e-05
2554	9e-05
2566	0.0001116
2578	8.64e-05
2590	9.36e-05
2602	0.0001008
2614	0.0001332
2626	0.0001656
2638	0.0001944
2650	0.0001872
2662	0.0001908
2674	0.000234
2686	0.000234
2698	0.0002808
2710	0.000342
2722	0.000486
2734	0.000468
2746	0.0004788
2758	0.0004572
2770	0.0004572
2782	0.0005256
2794	0.0006372
2806	0.000846
2818	0.0010944
2830	0.0015552
2842	0.0024192
2854	0.0042012
2866	0.00765
2878	0.0102672
2890	0.0096156
2902	0.0108504
2914	0.0136296
2926	0.0141192
2938	0.0170388
2950	0.027252
2962	0.036
2974	0.0204408
2986	0.0085608
2998	0.0035928
3010	0.0019296
3022	0.0012096
3034	0.0009864
3046	0.0009036
3058	0.0009972
3070	0.001818
3082	0.0025272
3094	0.0010692
3106	0.0007956
3118	0.0005652
3130	0.0004176
3142	0.0003636
3154	0.0003564
3166	0.0003492
3178	0.0004104
3190	0.0004284
3202	0.0004032
3214	0.0003852
3226	0.0003672
3238	0.0003384
3250	0.000324
3262	0.0002556
3274	0.0002016
3286	0.00018
3298	0.00018
3310	0.0001476
3322	0.0001332
3334	0.000162
3346	0.000198
3358	0.0002052
3370	0.0002016
3382	0.0001404
3394	0.0001368
3406	0.0001368
3418	7.2e-05
3430	0.0001116
3442	7.56e-05
3454	7.2e-05
3466	8.28e-05
3478	8.28e-05
3490	5.04e-05
3502	6.48e-05
3514	5.4e-05
3526	4.68e-05
3538	9.36e-05
3550	3.96e-05
3562	7.92e-05
3574	8.64e-05
3586	6.48e-05
3598	7.92e-05
3610	6.84e-05
3622	5.4e-05
3634	3.96e-05
3646	3.96e-05
3658	6.84e-05
3670	9.36e-05
3682	0.000108
3694	7.2e-05
3706	7.92e-05
3718	0.0001044
3730	8.28e-05
3742	7.92e-05
3754	9.72e-05
3766	8.64e-05
3778	9.36e-05
3790	0.0001152
3802	0.000108
3814	0.0001332
3826	0.0001404
3838	0.0001116
