Infrared Spectrum: Dicrotophos
Formula: C 8 H 16 N O 5 P
CAS: 141-66-2
State: gas
Instrument: HP-GC/MS/IRD
Origin: NIST Mass Spectrometry Data Center
1/CM	ABSORBANCE
550	0.0088231
562	0.0056342
574	0.0027885
586	0.0009152
598	0.0002002
610	0.0002288
622	0.0010439
634	0.0028886
646	0.0017732
658	0.0006435
670	0.000572
682	0.0007722
694	0.0010439
706	0.0014157
718	0.0019591
730	0.0032747
742	0.0054483
754	0.0058201
766	0.0040326
778	0.0045617
790	0.0095524
802	0.0221221
814	0.0235092
826	0.0169455
838	0.0249678
850	0.0371371
862	0.0282139
874	0.0135278
886	0.0094809
898	0.0124696
910	0.0286
922	0.0599313
934	0.0346346
946	0.0132847
958	0.0097812
970	0.0114686
982	0.018733
994	0.0411697
1006	0.0597025
1018	0.0545259
1030	0.0911053
1042	0.134163
1054	0.143
1066	0.124238
1078	0.0930072
1090	0.0534677
1102	0.0442013
1114	0.0489203
1126	0.0452023
1138	0.0335049
1150	0.0257257
1162	0.0240097
1174	0.0290862
1186	0.0359645
1198	0.0298155
1210	0.0180752
1222	0.0121836
1234	0.0102674
1246	0.0104962
1258	0.0132132
1270	0.0166452
1282	0.0269555
1294	0.0400543
1306	0.0448877
1318	0.0420849
1330	0.0261404
1342	0.0168311
1354	0.0156585
1366	0.0228657
1378	0.0350779
1390	0.0356785
1402	0.0318175
1414	0.0245388
1426	0.0181038
1438	0.015873
1450	0.019734
1462	0.0192621
1474	0.015015
1486	0.0120406
1498	0.0099528
1510	0.008294
1522	0.0073216
1534	0.0068783
1546	0.0066209
1558	0.006292
1570	0.0058344
1582	0.0056485
1594	0.0062062
1606	0.0082225
1618	0.0132132
1630	0.0253682
1642	0.0501358
1654	0.0553839
1666	0.0726583
1678	0.0902902
1690	0.0464607
1702	0.0184327
1714	0.0084084
1726	0.0044473
1738	0.0028743
1750	0.0021736
1762	0.0018733
1774	0.0018304
1786	0.0016731
1798	0.0014586
1810	0.0012298
1822	0.0009581
1834	0.0008723
1846	0.0009724
1858	0.0010153
1870	0.0009724
1882	0.0009438
1894	0.0010439
1906	0.0012155
1918	0.0013585
1930	0.0014157
1942	0.0014729
1954	0.001287
1966	0.0008437
1978	0.0005863
1990	0.0005005
2002	0.0003718
2014	0.000286
2026	0.0002145
2038	0.0002145
2050	0.0001716
2062	0.0001001
2074	8.58e-05
2086	0.0001001
2098	0.0001716
2110	0.0002431
2122	0.0003146
2134	0.0003146
2146	0.000286
2158	0.0001716
2170	7.15e-05
2182	5.72e-05
2194	0.0001001
2206	7.15e-05
2218	0.0001001
2230	0.0001001
2242	4.29e-05
2254	0
2266	0
2278	1.43e-05
2290	4.29e-05
2302	8.58e-05
2314	0.0001144
2326	8.58e-05
2338	1.43e-05
2350	2.86e-05
2362	8.58e-05
2374	8.58e-05
2386	7.15e-05
2398	4.29e-05
2410	2.86e-05
2422	4.29e-05
2434	4.29e-05
2446	5.72e-05
2458	5.72e-05
2470	5.72e-05
2482	0.0001287
2494	0.000143
2506	0.000143
2518	0.0001287
2530	0.0001859
2542	0.0001573
2554	0.000143
2566	0.0002288
2578	0.0002002
2590	0.0002002
2602	0.0002288
2614	0.0002574
2626	0.0002431
2638	0.0002288
2650	0.0002431
2662	0.0002574
2674	0.0002574
2686	0.0003003
2698	0.0003146
2710	0.0003718
2722	0.0003861
2734	0.0005005
2746	0.0006149
2758	0.0008437
2770	0.0011726
2782	0.0015444
2794	0.0022165
2806	0.0031031
2818	0.0039468
2830	0.0050336
2842	0.0065208
2854	0.0104247
2866	0.0150436
2878	0.0121693
2890	0.0118976
2902	0.0137137
2914	0.0170456
2926	0.0218361
2938	0.023595
2950	0.0226369
2962	0.0279708
2974	0.0192335
2986	0.0112827
2998	0.0098956
3010	0.0094809
3022	0.0090376
3034	0.0077506
3046	0.0060203
3058	0.0049478
3070	0.0042757
3082	0.0036751
3094	0.003003
3106	0.0024024
3118	0.0017875
3130	0.0014014
3142	0.0009724
3154	0.0007436
3166	0.0005577
3178	0.0004147
3190	0.0003861
3202	0.0002574
3214	0.0002145
3226	0.0002145
3238	0.0002145
3250	0.0002574
3262	0.0003289
3274	0.0003861
3286	0.0005434
3298	0.000572
3310	0.0006006
3322	0.0006006
3334	0.0005291
3346	0.0004862
3358	0.000429
3370	0.0003146
3382	0.0001287
3394	0.0001287
3406	0.0001001
3418	8.58e-05
3430	7.15e-05
3442	7.15e-05
3454	8.58e-05
3466	8.58e-05
3478	8.58e-05
3490	7.15e-05
3502	4.29e-05
3514	0.0001287
3526	5.72e-05
3538	0.000143
3550	8.58e-05
3562	0.0001287
3574	0.0001716
3586	0.0001287
3598	5.72e-05
3610	0.0002002
3622	0.000143
3634	0.000143
3646	0.0002574
3658	0.0005863
3670	0.001001
3682	0.0007436
3694	0.0003289
3706	0.0001859
3718	0.000143
3730	0.0001144
3742	0.0001144
3754	8.58e-05
3766	8.58e-05
3778	8.58e-05
3790	0.000143
3802	0.0001716
3814	0.0002145
3826	0.0002145
3838	0.0001859
