Infrared Spectrum: TRIETHYLENE GLYCOL, DIPROPIONATE
Formula: C12 H22 O6
CAS: 141-34-4
State: SOLUTION (10% CCl4 FOR 2.7-7.5, 10% CS2 FOR 7.5-26 MICRON) VS SOLVENT
Class: COBLENTZ III
Instrument: DOW KBr FOREPRISM-GRATING
Instrument parameters: BLAZED AT 3.5, 12.0, 20.0 MICRON AND CHANGED AT 5.0, 7.5, 14.9 MICRON
Sampling: TRANSMISSION
Path length: 0.011 CM, 0.011 CM
Resolution: 2
Origin: DOW CHEMICAL COMPANY
1/CM	TRANSMITTANCE
3796	0.8696
3787	0.869
3778	0.8683
3769	0.8683
3760	0.8686
3751	0.8688
3742	0.8691
3733	0.8694
3724	0.8696
3715	0.8691
3706	0.8687
3697	0.8678
3688	0.8668
3679	0.8617
3670	0.8405
3661	0.83
3652	0.8328
3643	0.8375
3634	0.8357
3625	0.8292
3616	0.8193
3607	0.8074
3598	0.7861
3589	0.7617
3580	0.7585
3571	0.7578
3562	0.7549
3553	0.7408
3544	0.7208
3535	0.699
3526	0.6795
3517	0.666
3508	0.6562
3499	0.6501
3490	0.6471
3481	0.6443
3472	0.6418
3463	0.6374
3454	0.631
3445	0.6302
3436	0.6435
3427	0.6574
3418	0.6699
3409	0.6808
3400	0.6892
3391	0.6965
3382	0.7031
3373	0.7093
3364	0.7153
3355	0.7184
3346	0.7214
3337	0.7233
3328	0.7253
3319	0.7268
3310	0.728
3301	0.7291
3292	0.73
3283	0.7305
3274	0.731
3265	0.7312
3256	0.7315
3247	0.7311
3238	0.7301
3229	0.729
3220	0.7265
3211	0.7242
3202	0.7225
3193	0.7218
3184	0.7211
3175	0.7204
3166	0.7196
3157	0.7193
3148	0.7191
3139	0.7184
3130	0.7175
3121	0.7165
3112	0.716
3103	0.7153
3094	0.7148
3085	0.7128
3076	0.711
3067	0.7096
3058	0.7053
3049	0.6998
3040	0.6938
3031	0.6862
3022	0.6708
3013	0.6391
3004	0.5833
2995	0.4276
2986	0.1894
2977	0.2172
2968	0.2584
2959	0.2534
2950	0.1861
2941	0.1446
2932	0.2084
2923	0.2364
2914	0.2344
2905	0.2293
2896	0.2201
2887	0.1812
2878	0.1658
2869	0.1799
2860	0.2494
2851	0.3225
2842	0.4651
2833	0.5148
2824	0.5401
2815	0.5722
2806	0.6015
2797	0.6249
2788	0.649
2779	0.6725
2770	0.693
2761	0.7115
2752	0.7224
2743	0.7253
2734	0.7251
2725	0.7278
2716	0.7357
2707	0.744
2698	0.7521
2689	0.7593
2680	0.7667
2671	0.7753
2662	0.7861
2653	0.7907
2644	0.7914
2635	0.7918
2626	0.7922
2617	0.7956
2608	0.7991
2599	0.8026
2590	0.8057
2581	0.8085
2572	0.811
2563	0.8124
2554	0.8146
2545	0.8191
2536	0.8237
2527	0.8268
2518	0.8299
2509	0.8328
2500	0.8362
2491	0.8395
2482	0.8428
2473	0.846
2464	0.8493
2455	0.8525
2446	0.8554
2437	0.8575
2428	0.8598
2419	0.8614
2410	0.8625
2401	0.863
2392	0.8621
2383	0.861
2374	0.8602
2365	0.8596
2356	0.859
2347	0.8594
2338	0.8614
2329	0.8635
2320	0.8658
2311	0.8668
2302	0.8659
2293	0.8648
2284	0.8637
2275	0.8638
2266	0.8648
2257	0.8658
2248	0.8666
2239	0.867
2230	0.8675
2221	0.8681
2212	0.8686
2203	0.8691
2194	0.869
2185	0.8691
2176	0.876
2167	0.8753
2158	0.8718
2149	0.8718
2140	0.8718
2131	0.872
2122	0.8721
2113	0.8718
2104	0.8714
2095	0.8703
2086	0.8668
2077	0.8625
2068	0.8589
2059	0.8556
2050	0.8537
2041	0.8533
2032	0.8532
2023	0.8533
2014	0.8539
2005	0.8551
1996	0.8563
1987	0.8546
1978	0.854
1969	0.8549
1960	0.8557
1951	0.8535
1942	0.848
1933	0.8454
1924	0.8488
1915	0.8521
1906	0.8548
1897	0.8573
1888	0.8592
1879	0.8615
1870	0.8625
1861	0.8621
1852	0.8607
1843	0.8575
1834	0.8499
1825	0.8403
1816	0.8274
1807	0.8081
1798	0.7889
1789	0.7653
1780	0.7233
1771	0.6375
1762	0.4495
1753	0.2205
1744	0.0109
1735	0.0025
1726	0.0074
1717	0.0859
1708	0.2271
1699	0.4
1690	0.5292
1681	0.6175
1672	0.6764
1663	0.7194
1654	0.7476
1645	0.7674
1636	0.7768
1627	0.7835
1618	0.7912
1609	0.8022
1600	0.8174
1591	0.8324
1582	0.8445
1573	0.8494
1564	0.8497
1555	0.8512
1546	0.8571
1537	0.8543
1528	0.8423
1519	0.8351
1510	0.8215
1501	0.8034
1492	0.7668
1483	0.665
1474	0.5373
1465	0.1627
1456	0.2972
1447	0.4012
1438	0.4391
1429	0.4567
1420	0.443
1411	0.5062
1402	0.5003
1393	0.3962
1384	0.2601
1375	0.3491
1366	0.3559
1357	0.302
1348	0.1912
1339	0.2661
1330	0.3774
1321	0.3878
1312	0.4962
1303	0.4878
1294	0.3768
1285	0.3096
1276	0.2423
1267	0.2307
1258	0.2664
1249	0.2447
1240	0.222
1231	0.223
1222	0.2164
1213	0.1614
1204	0.1081
1195	0.0549
1186	0.01
1177	0.006
1168	0.0343
1159	0.1482
1150	0.1421
1141	0.0587
1132	0.0434
1123	0.0493
1114	0.077
1105	0.1335
1096	0.1844
1087	0.1005
1078	0.0449
1069	0.0945
1060	0.1816
1051	0.2668
1042	0.2759
1033	0.2879
1024	0.4039
1015	0.4562
1006	0.5573
997	0.5587
988	0.5494
979	0.5936
970	0.6378
961	0.668
952	0.5784
943	0.4856
934	0.4891
925	0.516
916	0.5606
907	0.606
898	0.6296
889	0.6138
880	0.5726
871	0.5562
862	0.498
853	0.5421
844	0.5972
835	0.6247
826	0.6138
817	0.6144
808	0.4824
799	0.5457
790	0.7368
781	0.7845
772	0.8101
763	0.8228
754	0.8265
745	0.8294
736	0.8321
727	0.8354
718	0.8371
709	0.8365
700	0.8343
691	0.8317
682	0.826
673	0.8158
664	0.8246
655	0.8162
646	0.8065
637	0.8058
628	0.8026
619	0.7885
610	0.7747
601	0.7618
592	0.7603
583	0.7532
574	0.7395
565	0.7315
556	0.7341
547	0.7335
538	0.7319
529	0.7222
520	0.7104
511	0.6995
502	0.6974
493	0.7015
484	0.7078
475	0.7162
466	0.7258
457	0.7345
448	0.7368
439	0.7368
430	0.7369
421	0.7368
412	0.7378
403	0.7389
394	0.7374
