Infrared Spectrum: Pyridazine, 3,6-dichloro-
Formula: C4 H2 Cl2 N2
CAS: 141-30-0
State: SOLUTION (8% CCl4 FOR 3800-1330, 9% CS2 FOR 1330-450 CM^-^1)
Class: COBLENTZ III
Instrument: DOW KBr FOREPRISM-GRATING
Instrument parameters: BLAZED AT 3.5, 12.0, 20.0 MICRON AND CHANGED AT 5.0, 7.5, 14.9 MICRON
Sampling: TRANSMISSION
Path length: 0.011 CM, 0.011 CM
Resolution: 2
Origin: DOW CHEMICAL COMPANY
1/CM	TRANSMITTANCE
3800	0.913
3791	0.914
3782	0.9129
3773	0.9146
3764	0.9151
3755	0.9154
3746	0.9156
3737	0.9167
3728	0.9166
3719	0.915
3710	0.9171
3701	0.9183
3692	0.9166
3683	0.9148
3674	0.9142
3665	0.9139
3656	0.9137
3647	0.9133
3638	0.9132
3629	0.9135
3620	0.9152
3611	0.915
3602	0.9142
3593	0.915
3584	0.9123
3575	0.9104
3566	0.9107
3557	0.9113
3548	0.9125
3539	0.912
3530	0.9128
3521	0.9116
3512	0.9118
3503	0.912
3494	0.9126
3485	0.9131
3476	0.9137
3467	0.9142
3458	0.915
3449	0.9162
3440	0.9174
3431	0.9185
3422	0.9194
3413	0.9205
3404	0.9214
3395	0.9223
3386	0.9226
3377	0.9228
3368	0.923
3359	0.9231
3350	0.9231
3341	0.923
3332	0.9235
3323	0.9239
3314	0.924
3305	0.9253
3296	0.9238
3287	0.9238
3278	0.9244
3269	0.9236
3260	0.9234
3251	0.923
3242	0.9225
3233	0.9217
3224	0.9207
3215	0.9197
3206	0.9163
3197	0.9152
3188	0.9133
3179	0.9094
3170	0.9072
3161	0.9061
3152	0.9039
3143	0.8964
3134	0.8828
3125	0.831
3116	0.833
3107	0.8495
3098	0.8779
3089	0.8839
3080	0.7863
3071	0.8255
3062	0.8497
3053	0.8291
3044	0.8321
3035	0.8779
3026	0.8869
3017	0.8944
3008	0.8955
2999	0.8973
2990	0.8998
2981	0.9004
2972	0.9021
2963	0.9036
2954	0.9039
2945	0.9031
2936	0.9023
2927	0.8981
2918	0.8972
2909	0.8995
2900	0.9036
2891	0.9051
2882	0.9062
2873	0.9069
2864	0.9075
2855	0.9079
2846	0.9083
2837	0.9087
2828	0.9075
2819	0.9024
2810	0.9003
2801	0.9024
2792	0.903
2783	0.9033
2774	0.9042
2765	0.9037
2756	0.9048
2747	0.9059
2738	0.9069
2729	0.9079
2720	0.9085
2711	0.9074
2702	0.898
2693	0.877
2684	0.8729
2675	0.8904
2666	0.8905
2657	0.8879
2648	0.8958
2639	0.901
2630	0.9039
2621	0.9061
2612	0.9072
2603	0.9083
2594	0.9079
2585	0.903
2576	0.903
2567	0.9029
2558	0.9025
2549	0.8992
2540	0.8833
2531	0.8781
2522	0.8897
2513	0.8893
2504	0.8935
2495	0.8973
2486	0.8997
2477	0.9028
2468	0.9044
2459	0.9057
2450	0.9053
2441	0.9067
2432	0.9072
2423	0.9076
2414	0.9081
2405	0.9095
2396	0.9087
2387	0.909
2378	0.9109
2369	0.9094
2360	0.9101
2351	0.9138
2342	0.9133
2333	0.9043
2324	0.8968
2315	0.8947
2306	0.8917
2297	0.8876
2288	0.8903
2279	0.8945
2270	0.8973
2261	0.9007
2252	0.9035
2243	0.9061
2234	0.9083
2225	0.9108
2216	0.9088
2207	0.9042
2198	0.8996
2189	0.8959
2180	0.9023
2171	0.9069
2162	0.9018
2153	0.9038
2144	0.907
2135	0.9084
2126	0.9102
2117	0.9109
2108	0.9109
2099	0.9112
2090	0.9117
2081	0.911
2072	0.9094
2063	0.908
2054	0.9081
2045	0.9077
2036	0.9104
2027	0.9117
2018	0.9119
2009	0.9115
2000	0.9103
1991	0.9004
1982	0.8971
1973	0.8947
1964	0.9066
1955	0.8932
1946	0.868
1937	0.8782
1928	0.8839
1919	0.8868
1910	0.8889
1901	0.892
1892	0.8938
1883	0.8945
1874	0.8957
1865	0.8953
1856	0.8962
1847	0.8962
1838	0.8966
1829	0.8952
1820	0.8941
1811	0.8941
1802	0.8914
1793	0.8921
1784	0.892
1775	0.8907
1766	0.8904
1757	0.8914
1748	0.8913
1739	0.8914
1730	0.8915
1721	0.8913
1712	0.8908
1703	0.8909
1694	0.8916
1685	0.8924
1676	0.8883
1667	0.8765
1658	0.8848
1649	0.9095
1640	0.9155
1631	0.9117
1622	0.9043
1613	0.8799
1604	0.8487
1595	0.8057
1586	0.7912
1577	0.8004
1568	0.7491
1559	0.492
1550	0.6696
1541	0.7661
1532	0.4325
1523	0.742
1514	0.8286
1505	0.8499
1496	0.8433
1487	0.8485
1478	0.8689
1469	0.8734
1460	0.8801
1451	0.8849
1442	0.8871
1433	0.8874
1424	0.8849
1415	0.8225
1406	0.7038
1397	0.7104
1388	0.0244
1379	0.0392
1370	0.6384
1361	0.8053
1352	0.8479
1343	0.8645
1334	0.8511
1325	0.868
1316	0.8844
1307	0.8886
1298	0.88
1289	0.8796
1280	0.8851
1271	0.8872
1262	0.8716
1253	0.8764
1244	0.877
1235	0.8835
1226	0.8935
1217	0.9008
1208	0.9011
1199	0.8976
1190	0.8881
1181	0.848
1172	0.8256
1163	0.7245
1154	0.4322
1145	0.0106
1136	0.0079
1127	0.0646
1118	0.2043
1109	0.7035
1100	0.8074
1091	0.8355
1082	0.8457
1073	0.8462
1064	0.8423
1055	0.8409
1046	0.6137
1037	0.7026
1028	0.7816
1019	0.8479
1010	0.8529
1001	0.852
992	0.8777
983	0.8799
974	0.868
965	0.8704
956	0.8787
947	0.8846
938	0.8844
929	0.8843
920	0.8836
911	0.8781
902	0.8737
893	0.8739
884	0.8723
875	0.8479
866	0.8203
857	0.7774
848	0.6313
839	0.4158
830	0.0763
821	0.6307
812	0.7911
803	0.8058
794	0.8006
785	0.825
776	0.533
767	0.8277
758	0.8574
749	0.8647
740	0.868
731	0.8691
722	0.8726
713	0.8732
704	0.8735
695	0.8753
686	0.8746
677	0.8765
668	0.919
659	0.8976
650	0.8639
641	0.8767
632	0.8897
623	0.8802
614	0.9039
605	0.9085
596	0.913
587	0.9143
578	0.9154
569	0.9134
560	0.8742
551	0.0972
542	0.8439
533	0.8898
524	0.905
515	0.9079
506	0.9018
497	0.8896
488	0.8886
479	0.8893
470	0.8891
461	0.8874
452	0.8871
