Infrared Spectrum: Rhodanine
Formula: C 3 H 3 N O S 2
CAS: 141-84-4
State: gas
Instrument: HP-GC/MS/IRD
Origin: NIST Mass Spectrometry Data Center
1/CM	ABSORBANCE
550	0.0014174
562	0.0003914
574	8.36e-05
586	0.0001862
598	0.0006802
610	0.0015428
622	0.002831
634	0.0041534
646	0.0045638
658	0.0038228
670	0.0032604
682	0.0021242
694	0.0011742
706	0.00038
718	0.0001824
730	0.0001482
742	0.000266
754	0.000304
766	0.0005434
778	0.0006118
790	0.0003952
802	0.0002128
814	1.52e-05
826	0.0001596
838	0.000551
850	0.0017176
862	0.0018848
874	0.000779
886	0.0004636
898	0.0002508
910	0.0001292
922	7.22e-05
934	8.74e-05
946	5.32e-05
958	0.0001178
970	0.0001558
982	0.0003002
994	0.0005396
1006	0.0005472
1018	0.0004332
1030	0.0004408
1042	0.0010032
1054	0.0024016
1066	0.003819
1078	0.0040926
1090	0.0040014
1102	0.0036024
1114	0.0022914
1126	0.0021736
1138	0.005168
1150	0.0127604
1162	0.0165034
1174	0.0138168
1186	0.0113772
1198	0.0123538
1210	0.0185896
1222	0.0165718
1234	0.005111
1246	0.0025194
1258	0.0022496
1270	0.00209
1282	0.0021546
1294	0.0026676
1306	0.0027246
1318	0.0018278
1330	0.0009348
1342	0.0006916
1354	0.0008208
1366	0.0016834
1378	0.0061446
1390	0.0225606
1402	0.0366624
1414	0.02565
1426	0.0059888
1438	0.0012388
1450	0.0005358
1462	0.000304
1474	0.000209
1486	0.00019
1498	0.000209
1510	0.000285
1522	0.000361
1534	0.0004104
1546	0.0004674
1558	0.0004218
1570	0.0004598
1582	0.0003952
1594	0.0002204
1606	0.0001368
1618	0.0002014
1630	0.0003648
1642	0.0005016
1654	0.0006156
1666	0.0006878
1678	0.0007752
1690	0.0012122
1702	0.0018924
1714	0.0023028
1726	0.002869
1738	0.0041382
1750	0.0083182
1762	0.0208886
1774	0.0363584
1786	0.0334096
1798	0.0140372
1810	0.0034086
1822	0.0010906
1834	0.0005092
1846	0.0002622
1858	0.0001976
1870	0.000171
1882	0.0002166
1894	0.000228
1906	0.000171
1918	0.0001596
1930	0.0001862
1942	0.0002356
1954	0.0003002
1966	0.000342
1978	0.0003268
1990	0.000342
2002	0.0002356
2014	7.6e-05
2026	6.08e-05
2038	7.98e-05
2050	7.98e-05
2062	3.04e-05
2074	9.88e-05
2086	3.8e-05
2098	1.52e-05
2110	2.28e-05
2122	2.66e-05
2134	2.28e-05
2146	5.32e-05
2158	7.98e-05
2170	8.36e-05
2182	4.18e-05
2194	6.84e-05
2206	3.42e-05
2218	6.08e-05
2230	7.98e-05
2242	0.000114
2254	0.0001558
2266	0.0001672
2278	0.0001938
2290	0.0001786
2302	0.0002546
2314	0.0002812
2326	0.0002774
2338	0.0002508
2350	0.0002166
2362	0.000266
2374	0.0002394
2386	0.0001406
2398	0.000114
2410	0.0001026
2422	0.0001254
2434	0.0001178
2446	0.0001254
2458	0.0001406
2470	0.0001368
2482	0.000114
2494	0.0001216
2506	9.88e-05
2518	8.36e-05
2530	8.36e-05
2542	7.98e-05
2554	9.5e-05
2566	0.0001368
2578	7.22e-05
2590	3.8e-05
2602	6.08e-05
2614	8.74e-05
2626	0.0001026
2638	0.000114
2650	0.0001102
2662	0.0001102
2674	0.0001064
2686	9.5e-05
2698	5.7e-05
2710	8.36e-05
2722	3.8e-05
2734	2.66e-05
2746	4.56e-05
2758	2.28e-05
2770	9.12e-05
2782	9.12e-05
2794	6.84e-05
2806	0.0001026
2818	0.0001178
2830	9.5e-05
2842	6.46e-05
2854	5.7e-05
2866	9.5e-05
2878	8.36e-05
2890	5.7e-05
2902	1.52e-05
2914	4.94e-05
2926	0.0001026
2938	0.0002014
2950	0.0004598
2962	0.0003952
2974	6.46e-05
2986	6.46e-05
2998	6.46e-05
3010	5.32e-05
3022	7.6e-06
3034	2.28e-05
3046	7.6e-05
3058	6.08e-05
3070	3.8e-05
3082	7.22e-05
3094	9.88e-05
3106	8.36e-05
3118	4.56e-05
3130	4.94e-05
3142	4.94e-05
3154	0
3166	9.88e-05
3178	0.000133
3190	4.94e-05
3202	6.46e-05
3214	9.5e-05
3226	4.94e-05
3238	1.14e-05
3250	6.84e-05
3262	4.56e-05
3274	2.66e-05
3286	3.04e-05
3298	6.84e-05
3310	0
3322	7.22e-05
3334	7.6e-05
3346	4.18e-05
3358	4.94e-05
3370	0.0001064
3382	0.000152
3394	0.000418
3406	0.0012806
3418	0.003591
3430	0.0054986
3442	0.0044384
3454	0.0012236
3466	0.0003268
3478	0.000285
3490	0.000323
3502	0.0003078
3514	0.0003876
3526	0.0004636
3538	0.000589
3550	0.0005624
3562	0.0002394
3574	0.0002052
3586	0.000209
3598	0.0001634
3610	0.0001482
3622	0.0001178
3634	0.0001216
3646	0.0001558
3658	8.74e-05
3670	0.0001558
3682	0.0001862
3694	0.0001444
3706	0.000133
3718	0.00019
3730	0.000133
3742	0.0001976
3754	0.0001672
3766	0.0001368
3778	0.0001976
3790	0.0001976
3802	0.000152
3814	0.0001178
3826	0.000171
3838	0.0002014
