Infrared Spectrum: Di-(2-butoxyethyl) sebacate
Formula: C22 H42 O6
CAS: 141-19-5
State: SOLUTION (10% CCl4 FOR 2.7-7.5, 10% CS2 FOR 7.5-26 MICRON) VS SOLVENT
Class: COBLENTZ III
Instrument: DOW KBr FOREPRISM-GRATING
Instrument parameters: BLAZED AT 3.5, 12.0, 20.0 MICRON AND CHANGED AT 5.0, 7.5, 14.9 MICRON
Sampling: TRANSMISSION
Path length: 0.011 CM, 0.011 CM
Resolution: 2
Origin: DOW CHEMICAL COMPANY
1/CM	TRANSMITTANCE
3794	0.8494
3785	0.8495
3776	0.8496
3767	0.8497
3758	0.8496
3749	0.8493
3740	0.8491
3731	0.8487
3722	0.8485
3713	0.8481
3704	0.848
3695	0.8478
3686	0.8475
3677	0.847
3668	0.8471
3659	0.8474
3650	0.8477
3641	0.848
3632	0.8485
3623	0.8488
3614	0.8492
3605	0.8494
3596	0.8498
3587	0.8506
3578	0.8528
3569	0.8599
3560	0.8623
3551	0.8617
3542	0.8612
3533	0.8609
3524	0.8607
3515	0.8615
3506	0.8625
3497	0.8651
3488	0.8668
3479	0.8671
3470	0.8665
3461	0.8599
3452	0.8531
3443	0.8492
3434	0.8536
3425	0.8621
3416	0.8694
3407	0.8731
3398	0.8756
3389	0.8767
3380	0.8771
3371	0.8775
3362	0.8781
3353	0.8784
3344	0.8786
3335	0.8788
3326	0.879
3317	0.8787
3308	0.8782
3299	0.8777
3290	0.8771
3281	0.8768
3272	0.8765
3263	0.8765
3254	0.8771
3245	0.8771
3236	0.8766
3227	0.875
3218	0.8725
3209	0.8697
3200	0.8655
3191	0.864
3182	0.8628
3173	0.8611
3164	0.86
3155	0.8595
3146	0.8599
3137	0.8597
3128	0.8595
3119	0.8591
3110	0.8589
3101	0.8565
3092	0.8542
3083	0.8518
3074	0.8481
3065	0.8435
3056	0.8363
3047	0.8278
3038	0.8174
3029	0.8021
3020	0.7846
3011	0.7639
3002	0.7236
2993	0.6212
2984	0.4534
2975	0.2876
2966	0.1219
2957	0.0582
2948	0.0592
2939	0.0546
2930	0.0378
2921	0.0425
2912	0.0964
2903	0.1522
2894	0.208
2885	0.2191
2876	0.1483
2867	0.0828
2858	0.0814
2849	0.1237
2840	0.3275
2831	0.5312
2822	0.5773
2813	0.576
2804	0.5836
2795	0.6461
2786	0.6846
2777	0.7141
2768	0.7355
2759	0.7534
2750	0.7586
2741	0.7578
2732	0.7574
2723	0.7608
2714	0.7698
2705	0.7778
2696	0.7818
2687	0.7869
2678	0.7955
2669	0.8038
2660	0.8108
2651	0.8175
2642	0.8233
2633	0.8268
2624	0.8277
2615	0.8287
2606	0.8299
2597	0.8313
2588	0.8331
2579	0.8349
2570	0.837
2561	0.8396
2552	0.8423
2543	0.8449
2534	0.847
2525	0.849
2516	0.851
2507	0.8528
2498	0.8545
2489	0.8561
2480	0.8578
2471	0.8596
2462	0.8614
2453	0.8632
2444	0.8638
2435	0.8641
2426	0.8644
2417	0.8635
2408	0.8616
2399	0.8588
2390	0.8573
2381	0.8557
2372	0.8542
2363	0.853
2354	0.8518
2345	0.8507
2336	0.8501
2327	0.8494
2318	0.8491
2309	0.8491
2300	0.8491
2291	0.8493
2282	0.85
2273	0.8507
2264	0.8512
2255	0.8516
2246	0.8521
2237	0.8528
2228	0.8536
2219	0.855
2210	0.8567
2201	0.8578
2192	0.8587
2183	0.8625
2174	0.8678
2165	0.8608
2156	0.8604
2147	0.8603
2138	0.8602
2129	0.859
2120	0.8571
2111	0.8555
2102	0.8543
2093	0.8531
2084	0.8523
2075	0.8512
2066	0.8502
2057	0.8496
2048	0.8493
2039	0.8489
2030	0.8487
2021	0.8483
2012	0.8481
2003	0.8478
1994	0.8481
1985	0.8487
1976	0.8495
1967	0.8505
1958	0.8508
1949	0.8511
1940	0.8513
1931	0.8513
1922	0.8513
1913	0.8505
1904	0.8497
1895	0.8489
1886	0.8487
1877	0.8485
1868	0.8484
1859	0.8488
1850	0.8487
1841	0.8473
1832	0.8436
1823	0.8378
1814	0.8304
1805	0.82
1796	0.8065
1787	0.7854
1778	0.7585
1769	0.7189
1760	0.6133
1751	0.2885
1742	0.0348
1733	0.006
1724	0.0267
1715	0.3284
1706	0.4671
1697	0.5827
1688	0.6735
1679	0.7283
1670	0.7714
1661	0.7997
1652	0.8136
1643	0.824
1634	0.8321
1625	0.8368
1616	0.8402
1607	0.8416
1598	0.8425
1589	0.8428
1580	0.8425
1571	0.8413
1562	0.8405
1553	0.8414
1544	0.8418
1535	0.8416
1526	0.8368
1517	0.8328
1508	0.8235
1499	0.8084
1490	0.7755
1481	0.6308
1472	0.5408
1463	0.3144
1454	0.3464
1445	0.4688
1436	0.4802
1427	0.5731
1418	0.5075
1409	0.6289
1400	0.6382
1391	0.3982
1382	0.3355
1373	0.4277
1364	0.4179
1355	0.4134
1346	0.403
1337	0.4748
1328	0.5247
1319	0.5275
1310	0.4799
1301	0.418
1292	0.3907
1283	0.3839
1274	0.3582
1265	0.3339
1256	0.2918
1247	0.2319
1238	0.221
1229	0.2478
1220	0.2879
1211	0.3008
1202	0.2851
1193	0.2342
1184	0.1654
1175	0.117
1166	0.0909
1157	0.1431
1148	0.1754
1139	0.1598
1130	0.0572
1121	0.0413
1112	0.0892
1103	0.1873
1094	0.1923
1085	0.3043
1076	0.4603
1067	0.466
1058	0.483
1049	0.4429
1040	0.3922
1031	0.4828
1022	0.5001
1013	0.5276
1004	0.6042
995	0.6408
986	0.6418
977	0.5786
968	0.6374
959	0.671
950	0.6748
941	0.6901
932	0.7044
923	0.7225
914	0.7454
905	0.7497
896	0.7301
887	0.7301
878	0.759
869	0.7344
860	0.7187
851	0.739
842	0.7594
833	0.7704
824	0.7865
815	0.7894
806	0.8035
797	0.8221
788	0.8318
779	0.8355
770	0.8285
761	0.8323
752	0.8115
743	0.8074
734	0.7622
725	0.7731
716	0.8071
707	0.8478
698	0.8674
689	0.8775
680	0.8757
671	0.8753
662	0.8778
653	0.8688
644	0.8627
635	0.8625
626	0.8608
617	0.8577
608	0.8523
599	0.8435
590	0.8294
581	0.8207
572	0.8235
563	0.8253
554	0.8262
545	0.8221
536	0.8105
527	0.8061
518	0.8025
509	0.7997
500	0.8034
491	0.8108
482	0.8168
473	0.8214
464	0.8233
455	0.8206
446	0.8223
437	0.8212
428	0.8204
419	0.8193
410	0.8182
