Infrared Spectrum: cis-2,6-Dimethylmorpholine
Formula: C 6 H 13 N O
CAS: 141-91-3
State: gas
Origin: EPA-IR VAPOR PHASE LIBRARY
1/CM	ABSORBANCE
549.9	0.003783
559.547	0.006713
569.193	0.007433
578.84	0.005613
588.486	0.002993
598.133	0.0015062
607.779	0.0011634
617.426	0.0010527
627.072	0.0011445
636.719	0.0011508
646.365	0.001307
656.012	0.001643
665.658	0.002213
675.305	0.002733
684.951	0.003273
694.598	0.003903
704.245	0.005313
713.891	0.007853
723.538	0.012193
733.184	0.017243
742.831	0.018723
752.477	0.016053
762.124	0.008713
771.77	0.004173
781.417	0.002033
791.063	0.0014745
800.71	0.0014834
810.356	0.001943
820.003	0.003493
829.649	0.005503
839.296	0.006803
848.943	0.006233
858.589	0.004493
868.236	0.003343
877.882	0.003673
887.529	0.004513
897.175	0.004013
906.822	0.003123
916.468	0.002283
926.115	0.001823
935.761	0.001983
945.408	0.003123
955.054	0.005313
964.701	0.006713
974.347	0.006453
983.994	0.004243
993.64	0.002723
1003.29	0.001773
1012.93	0.0014457
1022.58	0.001543
1032.23	0.002123
1041.87	0.004723
1051.52	0.011633
1061.17	0.019683
1070.81	0.028673
1080.46	0.028413
1090.11	0.024213
1099.75	0.016063
1109.4	0.017373
1119.05	0.022493
1128.69	0.024133
1138.34	0.024623
1147.99	0.023343
1157.63	0.016993
1167.28	0.011973
1176.92	0.007563
1186.57	0.005083
1196.22	0.004023
1205.86	0.005283
1215.51	0.005013
1225.16	0.003663
1234.8	0.001613
1244.45	0.001543
1254.1	0.002783
1263.74	0.003733
1273.39	0.004083
1283.04	0.003193
1292.68	0.003803
1302.33	0.006663
1311.98	0.011923
1321.62	0.012813
1331.27	0.008583
1340.92	0.006343
1350.56	0.006173
1360.21	0.007093
1369.86	0.009693
1379.5	0.011513
1389.15	0.009783
1398.79	0.005303
1408.44	0.003483
1418.09	0.002503
1427.73	0.003523
1437.38	0.005893
1447.03	0.008213
1456.67	0.007903
1466.32	0.005163
1475.97	0.002893
1485.61	0.0014465
1495.26	0.0007544
1504.91	0.00051423
1514.55	0.0005048
1524.2	0.0004775
1533.85	0.0004618
1543.49	0.0004741
1553.14	0.000398
1562.79	0.0004358
1572.43	0.0004895
1582.08	0.00060517
1591.73	0.0006461
1601.37	0.0006535
1611.02	0.0006434
1620.67	0.0006549
1630.31	0.00056274
1639.96	0.0005923
1649.6	0.00058103
1659.25	0.000532899
1668.9	0.0004923
1678.54	0.0004978
1688.19	0.00051356
1697.84	0.00045
1707.48	0.000531222
1717.13	0.0004463
1726.78	0.0004838
1736.42	0.000396
1746.07	0.000378
1755.72	0.000307
1765.36	0.000307
1775.01	0.000326
1784.66	0.0004866
1794.3	0.00051376
1803.95	0.000511
1813.6	0.0005109
1823.24	0.00056382
1832.89	0.0004505
1842.54	0.0004471
1852.18	0.00053772
1861.83	0.0004552
1871.47	0.0004355
1881.12	0.0004424
1890.77	0.000447
1900.41	0.0004477
1910.06	0.000421
1919.71	0.0004541
1929.35	0.0004765
1939	0.0004711
1948.65	0.0004719
1958.29	0.0005047
1967.94	0.00054244
1977.59	0.00041
1987.23	0.000369
1996.88	0.000384
2006.53	0.000363
2016.17	0.000274
2025.82	0.000377
2035.47	0.000359
2045.11	0.000347
2054.76	0.000353
2064.41	0.000316
2074.05	0.000305
2083.7	0.000298
2093.35	0.000222
2102.99	0.000244
2112.64	0.000194
2122.28	0.000241
2131.93	0.000227
2141.58	0.000183
2151.22	0.000254
2160.87	0.000142
2170.52	0.000182
2180.16	0.000183
2189.81	0.000174
2199.46	0.000137
2209.1	0.000252
2218.75	0.000322
2228.4	0.000284
2238.04	0.000411
2247.69	0.000285
2257.34	0.000358
2266.98	0.000317
2276.63	0.000255
2286.28	0.00029
2295.92	0.000314
2305.57	0.00028
2315.22	0.000224
2324.86	0.000183
2334.51	0.000218
2344.16	0.000151
2353.8	0.000176
2363.45	8.8e-05
2373.09	0.000146
2382.74	0.000187
2392.39	9.3e-05
2402.03	0.000215
2411.68	0.000147
2421.33	0.000254
2430.97	0.000212
2440.62	0.000259
2450.27	0.000238
2459.91	0.000379
2469.56	0.000299
2479.21	0.000262
2488.85	0.000307
2498.5	0.000284
2508.15	0.0002
2517.79	0.000231
2527.44	0.000336
2537.09	0.000403
2546.73	0.000398
2556.38	0.000458
2566.03	0.00056925
2575.67	0.0006914
2585.32	0.0010769
2594.96	0.0014576
2604.61	0.001663
2614.26	0.001422
2623.9	0.0012357
2633.55	0.0010833
2643.2	0.0010138
2652.84	0.0010899
2662.49	0.0013096
2672.14	0.0014734
2681.78	0.001573
2691.43	0.002003
2701.08	0.002173
2710.72	0.002423
2720.37	0.002733
2730.02	0.002933
2739.66	0.003013
2749.31	0.003453
2758.96	0.004503
2768.6	0.005553
2778.25	0.005853
2787.9	0.007163
2797.54	0.010363
2807.19	0.013673
2816.84	0.017333
2826.48	0.021613
2836.13	0.022593
2845.77	0.023303
2855.42	0.021493
2865.07	0.022133
2874.71	0.023383
2884.36	0.019833
2894.01	0.018603
2903.65	0.018023
2913.3	0.018573
2922.95	0.017363
2932.59	0.029413
2942.24	0.037833
2951.89	0.033983
2961.53	0.021963
2971.18	0.023653
2980.83	0.032723
2990.47	0.024303
3000.12	0.011363
3009.77	0.003213
3019.41	0.0012705
3029.06	0.0007347
3038.71	0.0004964
3048.35	0.0005135
3058	0.00057416
3067.64	0.00055699
3077.29	0.0007404
3086.94	0.0008027
3096.58	0.0009036
3106.23	0.0009355
3115.88	0.0008754
3125.52	0.0007761
3135.17	0.0006575
3144.82	0.0004819
3154.46	0.00059527
3164.11	0.000326
3173.76	0.0004512
3183.4	0.0004505
3193.05	0.000387
3202.7	0.000335
3212.34	0.000409
3221.99	0.000317
3231.64	0.000201
3241.28	0.000196
3250.93	0.0002
3260.58	7.8e-05
3270.22	0.000102
3279.87	0.000205
3289.52	0.000348
3299.16	0.000183
3308.81	0.000165
3318.45	0.000357
3328.1	0.000391
3337.75	0.000363
3347.39	0.0004445
3357.04	0.0004755
3366.69	0.000335
3376.33	0.000233
3385.98	0.000173
3395.63	0.000317
3405.27	0.000238
3414.92	0.000308
3424.57	0.000342
3434.21	0.0004926
3443.86	0.000375
3453.51	0.0004923
3463.15	0.000341
3472.8	0.000278
3482.45	0.000302
3492.09	0.000358
3501.74	0.000354
3511.39	0.000366
3521.03	0.000372
3530.68	0.000469
3540.33	0.00037
3549.97	0.0004281
3559.62	0.000449
3569.26	0.000157
3578.91	0.000287
3588.56	0.000295
3598.2	0.000296
3607.85	0.000405
3617.5	0.000309
3627.14	0.000252
3636.79	0.000326
3646.44	0.000163
3656.08	0.000334
3665.73	0.00025
3675.38	0.000292
3685.02	0.000343
3694.67	0.00051425
3704.32	0.000293
3713.96	0.000391
3723.61	0.000355
3733.26	0.000304
3742.9	7.5e-05
3752.55	0.000281
3762.2	0.000291
3771.84	0.000252
3781.49	0.000249
3791.13	0.000345
3800.78	0.000201
3810.43	0.000219
3820.07	0.000264
3829.72	0.000321
3839.37	0.000239
3849.01	0.000149
3858.66	0.000276
3868.31	0.000255
3877.95	0.000289
3887.6	0.000396
3897.25	0.000378
3906.89	0.000322
3916.54	0.0004272
3926.19	0.000382
3935.83	0.000403
3945.48	0.000306
3955.13	0.000343
3964.77	0.000232
3974.42	0.000366
3984.07	0.000381
3993.71	0.000308
