Infrared Spectrum: 3-PENTEN-2-ONE, 4-METHYL-
Formula: C6 H10 O
CAS: 141-79-7
State: VAPOR (15 MICROLITER AT 150 C)
Boiling point: 131 C
Class: COBLENTZ
Instrument: PERKIN-ELMER 180
Sampling: TRANSMISSION
Path length: 5 CM KBr CELL, CELL VOLUME: 80 CM^3
Resolution: 2-3 CM^-^1
Origin: PERKIN-ELMER CORP. (M. ZELLER)
1/CM	TRANSMITTANCE
403.714	0.451
412.813	0.505
421.913	0.561
431.012	0.617
440.112	0.654
449.211	0.686
458.31	0.715
467.41	0.765
476.509	0.813
485.609	0.842
494.708	0.86
503.807	0.857
512.907	0.857
522.006	0.864
531.106	0.865
540.205	0.875
549.305	0.881
558.404	0.89
567.503	0.89
576.603	0.882
585.702	0.865
594.802	0.834
603.901	0.6931
613	0.567
622.1	0.584
631.199	0.7319
640.299	0.869
649.398	0.896
658.497	0.899
667.597	0.902
676.696	0.903
685.796	0.902
694.895	0.902
703.994	0.898
713.094	0.891
722.193	0.894
731.293	0.89
740.392	0.889
749.492	0.887
758.591	0.877
767.69	0.872
776.79	0.864
785.889	0.852
794.989	0.831
804.088	0.788
813.187	0.751
822.287	0.725
831.386	0.776
840.486	0.813
849.585	0.828
858.684	0.836
867.784	0.847
876.883	0.857
885.983	0.861
895.082	0.852
904.181	0.847
913.281	0.852
922.38	0.855
931.48	0.851
940.579	0.806
949.678	0.6869
958.778	0.545
967.877	0.53
976.977	0.629
986.076	0.763
995.176	0.806
1004.27	0.815
1013.37	0.798
1022.47	0.771
1031.57	0.765
1040.67	0.767
1049.77	0.781
1058.87	0.785
1067.97	0.796
1077.07	0.81
1086.17	0.832
1095.27	0.849
1104.37	0.844
1113.47	0.842
1122.57	0.828
1131.67	0.808
1140.77	0.7161
1149.87	0.488
1158.96	0.347
1168.06	0.34
1177.16	0.481
1186.26	0.579
1195.36	0.554
1204.46	0.412
1213.56	0.344
1222.66	0.3981
1231.76	0.5909
1240.86	0.699
1249.96	0.725
1259.06	0.745
1268.16	0.762
1277.26	0.785
1286.36	0.802
1295.46	0.812
1304.56	0.812
1313.65	0.797
1322.75	0.774
1331.85	0.736
1340.95	0.6329
1350.05	0.4551
1359.15	0.353
1368.25	0.339
1377.35	0.412
1386.45	0.442
1395.55	0.497
1404.65	0.577
1413.75	0.605
1422.85	0.584
1431.95	0.548
1441.05	0.49
1450.15	0.464
1459.25	0.501
1468.34	0.574
1477.44	0.663
1486.54	0.712
1495.64	0.731
1504.74	0.738
1513.84	0.738
1522.94	0.736
1532.04	0.738
1541.14	0.732
1550.24	0.733
1559.34	0.725
1568.44	0.72
1577.54	0.701
1586.64	0.673
1595.74	0.626
1604.84	0.519
1613.94	0.3349
1623.03	0.171
1632.13	0.087
1641.23	0.103
1650.33	0.2039
1659.43	0.442
1668.53	0.583
1677.63	0.5649
1686.73	0.385
1695.83	0.148
1704.93	0.1221
1714.03	0.125
1723.13	0.3521
1732.23	0.5711
1741.33	0.695
1750.43	0.733
1759.53	0.759
1768.63	0.78
1777.72	0.789
1786.82	0.802
1795.92	0.813
1805.02	0.83
1814.12	0.844
1823.22	0.849
1832.32	0.857
1841.42	0.853
1850.52	0.856
1859.62	0.852
1868.72	0.86
1877.82	0.861
1886.92	0.862
1896.02	0.865
1905.12	0.862
1914.22	0.864
1923.32	0.857
1932.41	0.86
1941.51	0.857
1950.61	0.86
1959.71	0.856
1968.81	0.859
1977.91	0.855
1987.01	0.855
1996.11	0.856
2005.21	0.856
2014.31	0.8526
2023.41	0.851
2032.51	0.8486
2041.61	0.8489
2050.71	0.849
2059.81	0.8482
2068.91	0.845
2078.01	0.8477
2087.1	0.8478
2096.2	0.847
2105.3	0.8467
2114.4	0.8444
2123.5	0.844
2132.6	0.844
2141.7	0.843
2150.8	0.842
2159.9	0.839
2169	0.838
2178.1	0.8399
2187.2	0.84
2196.3	0.838
2205.4	0.836
2214.5	0.836
2223.6	0.836
2232.7	0.8389
2241.79	0.8344
2250.89	0.833
2259.99	0.834
2269.09	0.836
2278.19	0.839
2287.29	0.84
2296.39	0.838
2305.49	0.834
2314.59	0.832
2323.69	0.8291
2332.79	0.828
2341.89	0.828
2350.99	0.828
2360.09	0.828
2369.19	0.828
2378.29	0.827
2387.38	0.828
2396.48	0.828
2405.58	0.827
2414.68	0.8229
2423.78	0.8226
2432.88	0.823
2441.98	0.8209
2451.08	0.821
2460.18	0.8185
2469.28	0.8209
2478.38	0.8224
2487.48	0.827
2496.58	0.822
2505.68	0.819
2514.78	0.818
2523.88	0.817
2532.98	0.814
2542.07	0.8164
2551.17	0.817
2560.27	0.818
2569.37	0.8168
2578.47	0.8162
2587.57	0.819
2596.67	0.819
2605.77	0.817
2614.87	0.8179
2623.97	0.819
2633.07	0.8146
2642.17	0.8149
2651.27	0.8163
2660.37	0.8122
2669.47	0.8133
2678.57	0.817
2687.67	0.8075
2696.76	0.8043
2705.86	0.8008
2714.96	0.7974
2724.06	0.7919
2733.16	0.7853
2742.26	0.781
2751.36	0.783
2760.46	0.785
2769.56	0.7875
2778.66	0.787
2787.76	0.7836
2796.86	0.7754
2805.96	0.7693
2815.06	0.7618
2824.16	0.7464
2833.26	0.7211
2842.36	0.6898
2851.45	0.6526
2860.55	0.6257
2869.65	0.6204
2878.75	0.6113
2887.85	0.5904
2896.95	0.5209
2906.05	0.4115
2915.15	0.3693
2924.25	0.3959
2933.35	0.4489
2942.45	0.4839
2951.55	0.4906
2960.65	0.4775
2969.75	0.4753
2978.85	0.4923
2987.95	0.523
2997.05	0.5434
3006.14	0.551
3015.24	0.5675
3024.34	0.6035
3033.44	0.6269
3042.54	0.6543
3051.64	0.667
3060.74	0.6745
3069.84	0.6819
3078.94	0.6979
3088.04	0.7145
3097.14	0.7298
3106.24	0.741
3115.34	0.7486
3124.44	0.751
3133.54	0.754
3142.64	0.7577
3151.74	0.759
3160.83	0.7617
3169.93	0.763
3179.03	0.763
3188.13	0.765
3197.23	0.765
3206.33	0.765
3215.43	0.763
3224.53	0.762
3233.63	0.7626
3242.73	0.762
3251.83	0.763
3260.93	0.765
3270.03	0.767
3279.13	0.7635
3288.23	0.7628
3297.33	0.7617
3306.43	0.7607
3315.52	0.7584
3324.62	0.757
3333.72	0.757
3342.82	0.757
3351.92	0.756
3361.02	0.75
3370.12	0.7495
3379.22	0.7375
3388.32	0.7364
3397.42	0.737
3406.52	0.7454
3415.62	0.7538
3424.72	0.759
3433.82	0.759
3442.92	0.758
3452.02	0.759
3461.12	0.761
3470.21	0.759
3479.31	0.758
3488.41	0.757
3497.51	0.755
3506.61	0.7585
3515.71	0.759
3524.81	0.757
3533.91	0.7541
3543.01	0.753
3552.11	0.751
3561.21	0.7537
3570.31	0.754
3579.41	0.753
3588.51	0.753
3597.61	0.751
3606.71	0.751
3615.81	0.749
3624.9	0.7486
3634	0.75
3643.1	0.7484
3652.2	0.749
3661.3	0.75
3670.4	0.742
3679.5	0.7504
3688.6	0.7481
3697.7	0.745
3706.8	0.744
3715.9	0.748
3725	0.7426
3734.1	0.7413
3743.2	0.738
3752.3	0.741
3761.4	0.742
3770.49	0.741
3779.59	0.738
3788.69	0.741
3797.79	0.7375
3806.89	0.734
3815.99	0.7325
3825.09	0.737
3834.19	0.7336
3843.29	0.732
3852.39	0.729
3861.49	0.728
3870.59	0.728
3879.69	0.729
3888.79	0.729
3897.89	0.728
3906.99	0.727
3916.09	0.727
3925.18	0.727
3934.28	0.727
3943.38	0.727
3952.48	0.727
3961.58	0.727
3970.68	0.7245
3979.78	0.72
3988.88	0.723
3997.98	0.721
