Infrared Spectrum: Silane, trichloro-n-propyl-,
Formula: C3 H7 Cl3 Si
CAS: 141-57-1
State: SOLUTION (10% CCl4 FOR 3800-1300, 10% CS2 FOR 1300-650, AND 10% CCl4 FOR 650-250)
Boiling point: 123 C
Class: COBLENTZ III
Instrument: PERKIN-ELMER 521 (GRATING)
Instrument parameters: FILTERS AT 3150, 2500, 2000, 1150, 700, 410. GRATING CHANGES: 2000, 630
Path length: 0.011 CM, 0.011 CM, AND 0.020 CM
Resolution: 2
Origin: DOW CORNING CORP.
1/CM	TRANSMITTANCE
249	0.8404
258	0.8357
267	0.8295
276	0.8231
285	0.8206
294	0.8272
303	0.823
312	0.8165
321	0.8037
330	0.7771
339	0.8251
348	0.8325
357	0.8224
366	0.8104
375	0.8038
384	0.7737
393	0.7666
402	0.7558
411	0.7488
420	0.7338
429	0.7354
438	0.7001
447	0.6055
456	0.4518
465	0.5011
474	0.1313
483	0.2875
492	0.6405
501	0.6719
510	0.6633
519	0.5416
528	0.5787
537	0.5716
546	0.4377
555	0.141
564	0.0001
573	0
582	0
591	0
600	0.1529
609	0.2149
618	0.4324
627	0.5521
636	0.5715
645	0.6215
654	0.7222
663	0.6782
672	0.6318
681	0.4707
690	0.0877
699	0.2735
708	0.5161
717	0.5711
726	0.4159
735	0.4809
744	0.4043
753	0.1678
762	0.4768
771	0.7114
780	0.7503
789	0.7379
798	0.6351
807	0.664
816	0.7974
825	0.826
834	0.8328
843	0.8249
852	0.8155
861	0.8122
870	0.7923
879	0.7665
888	0.6994
897	0.6786
906	0.8331
915	0.8419
924	0.8443
933	0.8435
942	0.8437
951	0.8476
960	0.8385
969	0.8246
978	0.799
987	0.7534
996	0.5868
1005	0.4959
1014	0.6757
1023	0.6668
1032	0.6549
1041	0.6261
1050	0.5705
1059	0.372
1068	0.3468
1077	0.626
1086	0.6584
1095	0.6591
1104	0.6987
1113	0.7032
1122	0.6999
1131	0.7261
1140	0.7486
1149	0.7689
1158	0.7967
1167	0.8034
1176	0.7979
1185	0.7732
1194	0.7301
1203	0.6408
1212	0.7073
1221	0.7562
1230	0.8058
1239	0.823
1248	0.8264
1257	0.8272
1266	0.8343
1275	0.8318
1284	0.8284
1293	0.8241
1302	0.8759
1311	0.8705
1320	0.8627
1329	0.8237
1338	0.6632
1347	0.8563
1356	0.8479
1365	0.8071
1374	0.7096
1383	0.7457
1392	0.752
1401	0.7081
1410	0.8368
1419	0.8417
1428	0.8219
1437	0.784
1446	0.6667
1455	0.5606
1464	0.559
1473	0.8255
1482	0.8494
1491	0.8507
1500	0.8504
1509	0.8499
1518	0.8512
1527	0.8517
1536	0.8502
1545	0.8485
1554	0.8525
1563	0.8579
1572	0.8594
1581	0.8614
1590	0.8672
1599	0.8702
1608	0.8703
1617	0.8704
1626	0.8703
1635	0.8699
1644	0.869
1653	0.8697
1662	0.8702
1671	0.8698
1680	0.8661
1689	0.8623
1698	0.8602
1707	0.8499
1716	0.85
1725	0.8641
1734	0.8646
1743	0.8654
1752	0.866
1761	0.8663
1770	0.8679
1779	0.8714
1788	0.8746
1797	0.8715
1806	0.8698
1815	0.8692
1824	0.8692
1833	0.8695
1842	0.8702
1851	0.8712
1860	0.8717
1869	0.8721
1878	0.8727
1887	0.8736
1896	0.8737
1905	0.8735
1914	0.8755
1923	0.8726
1932	0.8699
1941	0.8674
1950	0.8661
1959	0.8687
1968	0.8716
1977	0.8721
1986	0.8741
1995	0.8512
2004	0.8764
2013	0.8761
2022	0.875
2031	0.8741
2040	0.8735
2049	0.8726
2058	0.8714
2067	0.8701
2076	0.8689
2085	0.8677
2094	0.8673
2103	0.8682
2112	0.8693
2121	0.8691
2130	0.8687
2139	0.8682
2148	0.8679
2157	0.8678
2166	0.8678
2175	0.8676
2184	0.8673
2193	0.8668
2202	0.8664
2211	0.8654
2220	0.8643
2229	0.8634
2238	0.8631
2247	0.8628
2256	0.8626
2265	0.8625
2274	0.8625
2283	0.8625
2292	0.8624
2301	0.8622
2310	0.8619
2319	0.8617
2328	0.8614
2337	0.8609
2346	0.8606
2355	0.8601
2364	0.8597
2373	0.8593
2382	0.859
2391	0.8587
2400	0.8585
2409	0.8582
2418	0.8581
2427	0.8584
2436	0.8586
2445	0.8589
2454	0.8592
2463	0.8596
2472	0.86
2481	0.8604
2490	0.8608
2499	0.8611
2508	0.8614
2517	0.8616
2526	0.8619
2535	0.8613
2544	0.8608
2553	0.8601
2562	0.8595
2571	0.8589
2580	0.8583
2589	0.8577
2598	0.8571
2607	0.8565
2616	0.856
2625	0.8554
2634	0.8549
2643	0.8544
2652	0.8546
2661	0.8547
2670	0.8549
2679	0.8553
2688	0.8563
2697	0.8559
2706	0.8547
2715	0.8528
2724	0.8502
2733	0.8496
2742	0.8512
2751	0.8512
2760	0.8494
2769	0.846
2778	0.8405
2787	0.8352
2796	0.8346
2805	0.8342
2814	0.8334
2823	0.8265
2832	0.8129
2841	0.7966
2850	0.781
2859	0.746
2868	0.6208
2877	0.3713
2886	0.4856
2895	0.6228
2904	0.6367
2913	0.6534
2922	0.6026
2931	0.4433
2940	0.3776
2949	0.5333
2958	0.3755
2967	0.1697
2976	0.2727
2985	0.585
2994	0.7088
3003	0.783
3012	0.8174
3021	0.8326
3030	0.8436
3039	0.8485
3048	0.853
3057	0.8554
3066	0.857
3075	0.8577
3084	0.8585
3093	0.8592
3102	0.86
3111	0.8605
3120	0.8611
3129	0.8616
3138	0.8618
3147	0.8609
3156	0.8599
3165	0.8589
3174	0.8578
3183	0.8575
3192	0.86
3201	0.8624
3210	0.8649
3219	0.8689
3228	0.8712
3237	0.8714
3246	0.8717
3255	0.8714
3264	0.8712
3273	0.8712
3282	0.8717
3291	0.8721
3300	0.8726
3309	0.873
3318	0.8735
3327	0.8737
3336	0.874
3345	0.8742
3354	0.8742
3363	0.8738
3372	0.8735
3381	0.8732
3390	0.8729
3399	0.8729
3408	0.8731
3417	0.8732
3426	0.8735
3435	0.8739
3444	0.8744
3453	0.8748
3462	0.8753
3471	0.8757
3480	0.8762
3489	0.8763
3498	0.8766
3507	0.8767
3516	0.877
3525	0.8771
3534	0.8774
3543	0.8778
3552	0.8782
3561	0.8786
3570	0.8794
3579	0.8801
3588	0.8808
3597	0.881
3606	0.8806
3615	0.8797
3624	0.881
3633	0.8856
3642	0.8768
3651	0.8782
3660	0.8844
3669	0.8751
3678	0.8804
3687	0.8829
3696	0.88
3705	0.8811
3714	0.8823
3723	0.8835
3732	0.8856
3741	0.888
3750	0.893
3759	0.8963
3768	0.886
3777	0.8842
3786	0.8851
3795	0.8861
3804	0.8893
3813	0.8928
