Infrared Spectrum: BENZENAMINE, 3-CHLORO-, HYDROCHLORIDE
Formula: C6 H7 Cl2 N
CAS: 141-85-5
State: SOLID (KBr DISC)
Class: COBLENTZ
Instrument: PERKIN-ELMER 157
Sampling: TRANSMISSION
Resolution: 2
Origin: BRITISH PETROLEUM CO. LTD., ENGLAND
1/CM	TRANSMITTANCE
668	0.1491
677	0.3368
686	0.8714
695	0.9384
704	0.908
713	0.8799
722	0.8478
731	0.8151
740	0.7918
749	0.7557
758	0.6905
767	0.5761
776	0.2612
785	0.0267
794	0.6447
803	0.7876
812	0.7871
821	0.7785
830	0.7591
839	0.7216
848	0.6542
857	0.4123
866	0.1107
875	0.262
884	0.8284
893	0.8217
902	0.7871
911	0.7985
920	0.8205
929	0.801
938	0.7906
947	0.775
956	0.7516
965	0.7033
974	0.6124
983	0.7182
992	0.693
1001	0.6667
1010	0.7104
1019	0.6856
1028	0.6338
1037	0.5926
1046	0.4915
1055	0.2815
1064	0.1582
1073	0.1483
1082	0.0755
1091	0.3111
1100	0.4624
1109	0.4026
1118	0.5514
1127	0.68
1136	0.6966
1145	0.6914
1154	0.6611
1163	0.5127
1172	0.6729
1181	0.6594
1190	0.635
1199	0.5329
1208	0.6098
1217	0.6038
1226	0.6287
1235	0.6301
1244	0.6213
1253	0.6107
1262	0.591
1271	0.55
1280	0.4646
1289	0.5591
1298	0.5055
1307	0.5565
1316	0.5567
1325	0.5517
1334	0.5256
1343	0.5164
1352	0.5198
1361	0.504
1370	0.4668
1379	0.4187
1388	0.3903
1397	0.3432
1406	0.3159
1415	0.3074
1424	0.2356
1433	0.1482
1442	0.2246
1451	0.2142
1460	0.1009
1469	0.051
1478	0.1506
1487	0.1703
1496	0.0421
1505	0.1096
1514	0.2345
1523	0.2246
1532	0.1344
1541	0.0458
1550	0.0389
1559	0.0578
1568	0.1305
1577	0.2771
1586	0.2553
1595	0.1705
1604	0.422
1613	0.5735
1622	0.5942
1631	0.5937
1640	0.6006
1649	0.6022
1658	0.6008
1667	0.5847
1676	0.5644
1685	0.5587
1694	0.5664
1703	0.562
1712	0.5455
1721	0.5236
1730	0.4963
1739	0.4826
1748	0.4952
1757	0.4929
1766	0.4831
1775	0.4699
1784	0.4514
1793	0.4328
1802	0.4039
1811	0.4035
1820	0.4022
1829	0.3899
1838	0.3697
1847	0.3508
1856	0.3281
1865	0.2972
1874	0.2846
1883	0.2836
1892	0.2823
1901	0.2814
1910	0.2813
1919	0.2832
1928	0.295
1937	0.3026
1946	0.3116
1955	0.3542
1964	0.3793
1973	0.3947
1982	0.3993
1991	0.4015
2000	0.4036
2009	0.4085
2018	0.4164
2027	0.4162
2036	0.4153
2045	0.4125
2054	0.4081
2063	0.4066
2072	0.4056
2081	0.4025
2090	0.3961
2099	0.3876
2108	0.3771
2117	0.3704
2126	0.3666
2135	0.3561
2144	0.3418
2153	0.3378
2162	0.3362
2171	0.3308
2180	0.323
2189	0.3222
2198	0.3216
2207	0.3211
2216	0.3208
2225	0.3201
2234	0.3179
2243	0.3124
2252	0.3059
2261	0.2994
2270	0.2929
2279	0.2864
2288	0.2802
2297	0.2741
2306	0.2674
2315	0.2602
2324	0.2509
2333	0.239
2342	0.2275
2351	0.2196
2360	0.2161
2369	0.2142
2378	0.2131
2387	0.209
2396	0.2011
2405	0.19
2414	0.1764
2423	0.165
2432	0.1548
2441	0.1454
2450	0.1365
2459	0.1233
2468	0.108
2477	0.0932
2486	0.0765
2495	0.0596
2504	0.0469
2513	0.0385
2522	0.0334
2531	0.032
2540	0.0319
2549	0.032
2558	0.0332
2567	0.0356
2576	0.0381
2585	0.0404
2594	0.0419
2603	0.0419
2612	0.0412
2621	0.0405
2630	0.0408
2639	0.0427
2648	0.0452
2657	0.0445
2666	0.0406
2675	0.0359
2684	0.0316
2693	0.027
2702	0.021
2711	0.0162
2720	0.0118
2729	0.0102
2738	0.0095
2747	0.0094
2756	0.0093
2765	0.0093
2774	0.0093
2783	0.0095
2792	0.0096
2801	0.0101
2810	0.0107
2819	0.0137
2828	0.0187
2837	0.0212
2846	0.0214
2855	0.0213
2864	0.0213
2873	0.0212
2882	0.0212
2891	0.0211
2900	0.0211
2909	0.0211
2918	0.0211
2927	0.0212
2936	0.0215
2945	0.0223
2954	0.0231
2963	0.024
2972	0.025
2981	0.0259
2990	0.0271
2999	0.0286
3008	0.0301
3017	0.0328
3026	0.0357
3035	0.0431
3044	0.0663
3053	0.0791
3062	0.097
3071	0.1099
3080	0.1274
3089	0.1416
3098	0.1544
3107	0.1717
3116	0.1983
3125	0.2255
3134	0.2545
3143	0.2717
3152	0.3069
3161	0.3156
3170	0.3184
3179	0.32
3188	0.321
3197	0.3219
3206	0.3221
3215	0.3221
3224	0.3216
3233	0.321
3242	0.3201
3251	0.3182
3260	0.3143
3269	0.3094
3278	0.3043
3287	0.3007
3296	0.2982
3305	0.2948
3314	0.2886
3323	0.286
3332	0.2839
3341	0.2809
3350	0.2756
3359	0.2699
3368	0.2656
3377	0.2619
3386	0.2603
3395	0.2594
3404	0.2586
3413	0.2581
3422	0.2579
3431	0.2576
3440	0.2573
3449	0.2571
3458	0.257
3467	0.257
3476	0.2569
3485	0.2568
3494	0.2568
3503	0.257
3512	0.2571
3521	0.2572
3530	0.2573
3539	0.2574
3548	0.2575
3557	0.2576
3566	0.2573
3575	0.2567
3584	0.2561
3593	0.2545
3602	0.2525
3611	0.2505
3620	0.2485
3629	0.2463
3638	0.2442
3647	0.242
3656	0.2399
3665	0.2381
3674	0.2363
3683	0.2352
3692	0.2349
3701	0.2345
3710	0.2342
3719	0.2339
3728	0.2336
3737	0.2332
3746	0.2329
3755	0.2326
3764	0.2323
3773	0.232
3782	0.2317
3791	0.2313
3800	0.2309
3809	0.2296
3818	0.2274
3827	0.2252
3836	0.2219
3845	0.2186
3854	0.2159
3863	0.2137
3872	0.2123
3881	0.2109
3890	0.2095
3899	0.2082
3908	0.2071
3917	0.206
3926	0.205
3935	0.204
3944	0.2027
3953	0.2009
3962	0.1991
3971	0.1974
3980	0.1957
3989	0.1939
3998	0.1924
