Infrared Spectrum: Propyl pentanoate
Formula: C 8 H 16 O 2
CAS: 141-06-0
State: gas
Instrument: HP-GC/MS/IRD
Origin: NIST Mass Spectrometry Data Center
1/CM	ABSORBANCE
550	5.7e-05
562	5.7e-05
574	0.0001292
586	0.000228
598	0.00038
610	0.0003838
622	0.000437
634	0.0004636
646	0.000437
658	0.0003952
670	0.000323
682	0.0003078
694	0.0004256
706	0.0004066
718	0.000513
730	0.0006384
742	0.0009462
754	0.0013604
766	0.00133
778	0.0007828
790	0.0005928
802	0.0005852
814	0.0006042
826	0.0007334
838	0.0008208
850	0.000912
862	0.0009842
874	0.0010868
886	0.001368
898	0.0016834
910	0.0018924
922	0.00209
934	0.0025498
946	0.003515
958	0.0046018
970	0.0050882
982	0.0047348
994	0.0044726
1006	0.0043548
1018	0.0032946
1030	0.0029944
1042	0.0040128
1054	0.0058672
1066	0.0074404
1078	0.008379
1090	0.010963
1102	0.0122208
1114	0.010792
1126	0.0085234
1138	0.009937
1150	0.0167428
1162	0.0300276
1174	0.0359518
1186	0.0256386
1198	0.0165034
1210	0.0134254
1222	0.0145844
1234	0.0178942
1246	0.0187416
1258	0.0153824
1270	0.0116508
1282	0.0087172
1294	0.0073074
1306	0.0070566
1318	0.0070186
1330	0.0069426
1342	0.0071858
1354	0.0069274
1366	0.0056392
1378	0.005187
1390	0.0051186
1402	0.003686
1414	0.0028424
1426	0.0033744
1438	0.004161
1450	0.0052288
1462	0.0061712
1474	0.004959
1486	0.0029108
1498	0.0016264
1510	0.0010868
1522	0.000798
1534	0.0006764
1546	0.0005624
1558	0.000532
1570	0.000494
1582	0.0004788
1594	0.0004636
1606	0.0004674
1618	0.0004674
1630	0.0004864
1642	0.0005624
1654	0.0006346
1666	0.000779
1678	0.0010032
1690	0.0015086
1702	0.002546
1714	0.004389
1726	0.0086602
1738	0.0212838
1750	0.0370196
1762	0.0308446
1774	0.0120156
1786	0.0045828
1798	0.0022724
1810	0.0013262
1822	0.0009006
1834	0.0006422
1846	0.0005206
1858	0.000437
1870	0.0004028
1882	0.000342
1894	0.0003116
1906	0.0003002
1918	0.0002812
1930	0.0002964
1942	0.0002888
1954	0.000266
1966	0.0002394
1978	0.0002508
1990	0.0002812
2002	0.000285
2014	0.0002926
2026	0.0002698
2038	0.0002812
2050	0.0002736
2062	0.000266
2074	0.0002394
2086	0.0002432
2098	0.0002052
2110	0.000171
2122	0.0001292
2134	0.0001254
2146	0.0001178
2158	9.5e-05
2170	9.88e-05
2182	0.0001064
2194	9.12e-05
2206	0.000114
2218	9.12e-05
2230	8.36e-05
2242	8.36e-05
2254	8.36e-05
2266	0.0001026
2278	0.0001064
2290	0.0001254
2302	9.5e-05
2314	0.0001026
2326	8.74e-05
2338	0.0001406
2350	0.0001064
2362	8.74e-05
2374	7.22e-05
2386	9.12e-05
2398	8.74e-05
2410	0.0001102
2422	0.0001026
2434	7.98e-05
2446	6.46e-05
2458	2.28e-05
2470	1.9e-05
2482	2.66e-05
2494	2.28e-05
2506	3.04e-05
2518	3.42e-05
2530	2.66e-05
2542	4.56e-05
2554	6.46e-05
2566	2.28e-05
2578	7.22e-05
2590	7.6e-05
2602	9.5e-05
2614	0.000114
2626	0.0001292
2638	0.0001254
2650	0.0001596
2662	0.0001748
2674	0.0002394
2686	0.0002888
2698	0.0003002
2710	0.0002812
2722	0.000342
2734	0.0004636
2746	0.0005966
2758	0.0006536
2770	0.0006422
2782	0.000703
2794	0.0008056
2806	0.000988
2818	0.0012692
2830	0.001691
2842	0.0024814
2854	0.0040622
2866	0.0070908
2878	0.0105564
2890	0.012141
2902	0.0109402
2914	0.0119092
2926	0.0165072
2938	0.0226708
2950	0.0255588
2962	0.0284962
2974	0.0303962
2986	0.0201058
2998	0.009006
3010	0.0044878
3022	0.0027892
3034	0.001976
3046	0.0014744
3058	0.001159
3070	0.0009538
3082	0.0008398
3094	0.000722
3106	0.0006878
3118	0.0005396
3130	0.0004712
3142	0.0004218
3154	0.0003876
3166	0.0003382
3178	0.000323
3190	0.0003002
3202	0.000228
3214	0.0002052
3226	0.000133
3238	0.000114
3250	0.0001102
3262	0.0001102
3274	0.0001178
3286	8.74e-05
3298	6.46e-05
3310	4.94e-05
3322	7.6e-05
3334	7.22e-05
3346	3.8e-05
3358	1.9e-05
3370	0.0001026
3382	8.74e-05
3394	5.7e-05
3406	0.0001102
3418	7.98e-05
3430	0.0001292
3442	0.0001672
3454	0.00019
3466	0.0002736
3478	0.000399
3490	0.0005054
3502	0.0003078
3514	0.0002014
3526	0.0001558
3538	4.18e-05
3550	7.6e-05
3562	9.12e-05
3574	4.18e-05
3586	2.28e-05
3598	4.18e-05
3610	4.56e-05
3622	6.46e-05
3634	3.8e-05
3646	3.8e-05
3658	9.5e-05
3670	6.84e-05
3682	5.32e-05
3694	7.98e-05
3706	8.74e-05
3718	8.74e-05
3730	6.84e-05
3742	0.0001026
3754	9.12e-05
3766	2.66e-05
3778	0.0001026
3790	7.6e-05
3802	0.0001026
3814	7.98e-05
3826	0.0001254
3838	0.0001862
