Infrared Spectrum: 2,6-DIMETHYL HENDECA-2,6,8-TRIEN-10-ONE
Formula: C13 H20 O
CAS: 141-10-6
Class: COBLENTZ
Instrument: Not specified, most likely a prism, grating, or hybrid spectrometer.
Sampling: TRANSMISSION
Resolution: 4
Origin: INFRACORD
MICROMETERS	TRANSMITTANCE
2.524	0.914
2.55946	0.906
2.59492	0.901
2.63038	0.901
2.66584	0.894
2.7013	0.871
2.73676	0.853
2.77222	0.828
2.80768	0.793
2.84314	0.778
2.8786	0.773
2.91406	0.777
2.94952	0.791
2.98498	0.799
3.02044	0.816
3.0559	0.832
3.09136	0.836
3.12682	0.836
3.16228	0.834
3.19774	0.796
3.2332	0.725
3.26866	0.543
3.30412	0.395
3.33958	0.196
3.37504	0.146
3.4105	0.108
3.44596	0.196
3.48142	0.277
3.51688	0.566
3.55234	0.724
3.5878	0.793
3.62326	0.803
3.65872	0.803
3.69418	0.835
3.72964	0.849
3.7651	0.854
3.80056	0.859
3.83602	0.864
3.87148	0.866
3.90694	0.865
3.9424	0.866
3.97786	0.865
4.01332	0.865
4.04878	0.865
4.08424	0.866
4.1197	0.868
4.15516	0.869
4.19062	0.872
4.22608	0.879
4.26154	0.88
4.297	0.88
4.33246	0.881
4.36792	0.881
4.40338	0.882
4.43884	0.882
4.4743	0.882
4.50976	0.882
4.54522	0.882
4.58068	0.882
4.61615	0.882
4.65161	0.882
4.68707	0.886
4.72253	0.89
4.75799	0.89
4.79345	0.891
4.82891	0.892
4.86437	0.893
4.89983	0.893
4.93529	0.894
4.97075	0.894
5.00621	0.894
5.04167	0.895
5.07713	0.895
5.11259	0.895
5.14805	0.895
5.18351	0.895
5.21897	0.895
5.25443	0.895
5.28989	0.895
5.32535	0.894
5.36081	0.892
5.39627	0.888
5.43173	0.886
5.46719	0.878
5.50265	0.865
5.53811	0.852
5.57357	0.834
5.60903	0.83
5.64449	0.83
5.67995	0.806
5.71541	0.777
5.75087	0.734
5.78633	0.562
5.82179	0.308
5.85725	0.287
5.89271	0.374
5.92817	0.197
5.96363	0.098
5.99909	0.068
6.03455	0.023
6.07001	0.074
6.10547	0.158
6.14093	0.046
6.17639	0.02
6.21185	0.19
6.24731	0.282
6.28277	0.098
6.31823	0.039
6.35369	0.263
6.38915	0.51
6.42461	0.617
6.46007	0.709
6.49553	0.732
6.53099	0.743
6.56645	0.749
6.60191	0.75
6.63737	0.752
6.67283	0.752
6.70829	0.744
6.74375	0.705
6.77921	0.658
6.81467	0.536
6.85013	0.403
6.88559	0.276
6.92105	0.182
6.95651	0.163
6.99197	0.166
7.02743	0.232
7.06289	0.297
7.09835	0.401
7.13381	0.447
7.16927	0.466
7.20473	0.369
7.24019	0.228
7.27565	0.159
7.31111	0.141
7.34657	0.082
7.38203	0.061
7.41749	0.147
7.45295	0.34
7.48841	0.51
7.52387	0.541
7.55933	0.541
7.59479	0.543
7.63025	0.544
7.66571	0.544
7.70117	0.544
7.73663	0.543
7.77209	0.485
7.80755	0.339
7.84301	0.14
7.87847	0.053
7.91393	0.046
7.94939	0.043
7.98485	0.035
8.02031	0.016
8.05577	0.099
8.09123	0.333
8.12669	0.439
8.16215	0.475
8.19761	0.509
8.23307	0.536
8.26853	0.542
8.30399	0.542
8.33945	0.553
8.37491	0.563
8.41037	0.566
8.44583	0.552
8.48129	0.489
8.51675	0.398
8.55221	0.316
8.58767	0.286
8.62313	0.283
8.65859	0.287
8.69405	0.366
8.72951	0.45
8.76498	0.477
8.80044	0.473
8.8359	0.479
8.87136	0.587
8.90682	0.643
8.94228	0.654
8.97774	0.652
9.0132	0.604
9.04866	0.552
9.08412	0.562
9.11958	0.614
9.15504	0.658
9.1905	0.686
9.22596	0.711
9.26142	0.725
9.29688	0.729
9.33234	0.729
9.3678	0.73
9.40326	0.73
9.43872	0.729
9.47418	0.71
9.50964	0.657
9.5451	0.614
9.58056	0.594
9.61602	0.586
9.65148	0.574
9.68694	0.569
9.7224	0.569
9.75786	0.568
9.79332	0.554
9.82878	0.541
9.86424	0.535
9.8997	0.51
9.93516	0.456
9.97062	0.41
10.0061	0.345
10.0415	0.302
10.077	0.265
10.1125	0.215
10.1479	0.164
10.1834	0.137
10.2188	0.125
10.2543	0.122
10.2898	0.125
10.3252	0.163
10.3607	0.204
10.3961	0.236
10.4316	0.252
10.4671	0.3
10.5025	0.414
10.538	0.526
10.5734	0.601
10.6089	0.653
10.6444	0.67
10.6798	0.684
10.7153	0.693
10.7507	0.704
10.7862	0.711
10.8217	0.724
10.8571	0.734
10.8926	0.734
10.928	0.734
10.9635	0.729
10.999	0.705
11.0344	0.674
11.0699	0.653
11.1053	0.631
11.1408	0.614
11.1763	0.579
11.2117	0.55
11.2472	0.527
11.2826	0.526
11.3181	0.547
11.3536	0.595
11.389	0.631
11.4245	0.64
11.4599	0.644
11.4954	0.654
11.5309	0.67
11.5663	0.683
11.6018	0.706
11.6372	0.713
11.6727	0.721
11.7082	0.722
11.7436	0.722
11.7791	0.712
11.8145	0.696
11.85	0.671
11.8855	0.657
11.9209	0.635
11.9564	0.626
11.9918	0.612
12.0273	0.598
12.0628	0.593
12.0982	0.591
12.1337	0.596
12.1691	0.62
12.2046	0.646
12.2401	0.672
12.2755	0.682
12.311	0.685
12.3464	0.687
12.3819	0.69
12.4174	0.693
12.4528	0.704
12.4883	0.71
12.5237	0.725
12.5592	0.739
12.5947	0.755
12.6301	0.774
12.6656	0.79
12.701	0.794
12.7365	0.8
12.772	0.813
12.8074	0.815
12.8429	0.815
12.8783	0.815
12.9138	0.816
12.9493	0.816
12.9847	0.816
13.0202	0.815
13.0556	0.815
13.0911	0.807
13.1266	0.8
13.162	0.793
13.1975	0.787
13.2329	0.78
13.2684	0.773
13.3039	0.761
13.3393	0.75
13.3748	0.747
13.4102	0.745
13.4457	0.745
13.4812	0.748
13.5166	0.751
13.5521	0.763
13.5875	0.774
13.623	0.784
13.6585	0.787
13.6939	0.79
13.7294	0.795
13.7648	0.799
13.8003	0.801
13.8358	0.802
13.8712	0.802
13.9067	0.802
13.9421	0.802
13.9776	0.802
14.0131	0.802
14.0485	0.802
14.084	0.802
14.1194	0.802
14.1549	0.802
14.1904	0.803
14.2258	0.795
14.2613	0.795
14.2967	0.79
14.3322	0.782
14.3677	0.778
14.4031	0.774
14.4386	0.77
14.474	0.767
14.5095	0.764
14.545	0.757
14.5804	0.751
14.6159	0.742
14.6513	0.738
14.6868	0.738
14.7223	0.737
14.7577	0.734
14.7932	0.728
14.8286	0.723
14.8641	0.717
14.8996	0.715
14.935	0.713
14.9705	0.708
