Infrared Spectrum: PROPANEDIOIC ACID
Formula: C3 H4 O4
CAS: 141-82-2
State: SOLID (SPLIT MULL, FLUOROLUBE FOR 3800-1333 AND NUJOL FOR 1333-450 CM ^-^1)
Class: COBLENTZ III
Instrument: DOW KBr FOREPRISM-GRATING
Instrument parameters: BLAZED AT 3.5, 12.0, 20.0 MICRON, CHANGED AT 5.0, 7.5, 14.9 MICRON
Sampling: TRANSMISSION
Resolution: 4
Origin: DOW CHEMICAL COMPANY
1/CM	TRANSMITTANCE
447.923	0.899
456.46	0.938
464.998	1.002
473.535	1.032
482.072	1.045
490.61	1.049
499.147	1.049
507.684	1.053
516.221	1.05
524.759	1.054
533.296	1.054
541.833	1.05
550.371	1.048
558.908	1.042
567.445	1.018
575.983	0.967
584.52	0.981
593.057	0.876
601.595	1.004
610.132	1.025
618.669	1.033
627.206	1.026
635.744	1.004
644.281	0.937
652.818	0.548
661.356	0.7
669.893	0.95
678.43	1
686.968	1.001
695.505	1.001
704.042	0.998
712.58	0.977
721.117	0.942
729.654	0.959
738.191	0.965
746.729	0.962
755.266	0.945
763.803	0.898
772.341	0.801
780.878	0.943
789.415	0.965
797.953	0.962
806.49	0.961
815.027	0.953
823.565	0.947
832.102	0.935
840.639	0.923
849.176	0.912
857.714	0.891
866.251	0.855
874.788	0.797
883.326	0.741
891.863	0.68
900.4	0.602
908.938	0.576
917.475	0.427
926.012	0.502
934.55	0.504
943.087	0.552
951.624	0.668
960.161	0.701
968.699	0.751
977.236	0.825
985.773	0.874
994.311	0.895
1002.85	0.911
1011.39	0.919
1019.92	0.922
1028.46	0.923
1037	0.925
1045.53	0.923
1054.07	0.919
1062.61	0.918
1071.15	0.911
1079.68	0.907
1088.22	0.908
1096.76	0.906
1105.3	0.907
1113.83	0.912
1122.37	0.906
1130.91	0.896
1139.44	0.874
1147.98	0.848
1156.52	0.807
1165.06	0.6799
1173.59	0.295
1182.13	0.544
1190.67	0.753
1199.21	0.755
1207.74	0.5669
1216.28	0.2
1224.82	0.234
1233.36	0.6101
1241.89	0.808
1250.43	0.779
1258.97	0.677
1267.5	0.708
1276.04	0.684
1284.58	0.689
1293.12	0.618
1301.65	0.522
1310.19	0.431
1318.73	0.432
1327.27	0.631
1335.8	0.741
1344.34	0.777
1352.88	0.793
1361.41	0.783
1369.95	0.745
1378.49	0.643
1387.03	0.53
1395.56	0.451
1404.1	0.4559
1412.64	0.306
1421.18	0.338
1429.71	0.361
1438.25	0.267
1446.79	0.685
1455.33	0.815
1463.86	0.86
1472.4	0.879
1480.94	0.888
1489.47	0.886
1498.01	0.888
1506.55	0.882
1515.09	0.88
1523.62	0.9
1532.16	0.911
1540.7	0.917
1549.24	0.917
1557.77	0.914
1566.31	0.915
1574.85	0.91
1583.38	0.907
1591.92	0.899
1600.46	0.891
1609	0.882
1617.53	0.868
1626.07	0.838
1634.61	0.823
1643.15	0.799
1651.68	0.76
1660.22	0.733
1668.76	0.672
1677.3	0.555
1685.83	0.3959
1694.37	0.2029
1702.91	0.06
1711.44	0.068
1719.98	0.078
1728.52	0.058
1737.06	0.046
1745.59	0.06
1754.13	0.1721
1762.67	0.365
1771.21	0.6301
1779.74	0.734
1788.28	0.775
1796.82	0.797
1805.35	0.827
1813.89	0.851
1822.43	0.862
1830.97	0.866
1839.5	0.871
1848.04	0.876
1856.58	0.872
1865.12	0.864
1873.65	0.874
1882.19	0.902
1890.73	0.91
1899.27	0.915
1907.8	0.918
1916.34	0.921
1924.88	0.923
1933.41	0.925
1941.95	0.926
1950.49	0.935
1959.03	0.955
1967.56	0.942
1976.1	0.941
1984.64	0.941
1993.18	0.949
2001.71	0.957
2010.25	0.958
2018.79	0.958
2027.32	0.961
2035.86	0.954
2044.4	0.9501
2052.94	0.947
2061.47	0.943
2070.01	0.939
2078.55	0.934
2087.09	0.934
2095.62	0.933
2104.16	0.933
2112.7	0.9349
2121.24	0.9352
2129.77	0.935
2138.31	0.935
2146.85	0.935
2155.38	0.935
2163.92	0.933
2172.46	0.9312
2181	0.93
2189.53	0.9253
2198.07	0.9193
2206.61	0.914
2215.15	0.9071
2223.68	0.9
2232.22	0.8923
2240.76	0.8843
2249.29	0.887
2257.83	0.8878
2266.37	0.888
2274.91	0.887
2283.44	0.887
2291.98	0.883
2300.52	0.882
2309.06	0.8782
2317.59	0.8702
2326.13	0.863
2334.67	0.859
2343.21	0.8512
2351.74	0.8485
2360.28	0.8437
2368.82	0.842
2377.35	0.84
2385.89	0.8383
2394.43	0.8313
2402.97	0.8226
2411.5	0.8163
2420.04	0.8076
2428.58	0.7941
2437.12	0.7793
2445.65	0.7763
2454.19	0.7696
2462.73	0.7582
2471.26	0.7439
2479.8	0.7285
2488.34	0.707
2496.88	0.694
2505.41	0.6853
2513.95	0.6763
2522.49	0.6624
2531.03	0.6551
2539.56	0.6428
2548.1	0.6241
2556.64	0.6071
2565.18	0.5938
2573.71	0.5808
2582.25	0.5675
2590.79	0.5544
2599.32	0.5584
2607.86	0.5728
2616.4	0.5866
2624.94	0.595
2633.47	0.597
2642.01	0.5904
2650.55	0.5843
2659.09	0.5754
2667.62	0.5669
2676.16	0.5625
2684.7	0.56
2693.23	0.56
2701.77	0.5555
2710.31	0.551
2718.85	0.55
2727.38	0.551
2735.92	0.5595
2744.46	0.56
2753	0.5585
2761.53	0.558
2770.07	0.5545
2778.61	0.548
2787.15	0.5395
2795.68	0.526
2804.22	0.512
2812.76	0.4958
2821.29	0.4817
2829.83	0.4603
2838.37	0.4486
2846.91	0.4241
2855.44	0.4086
2863.98	0.3966
2872.52	0.3843
2881.06	0.3652
2889.59	0.3548
2898.13	0.3398
2906.67	0.327
2915.2	0.3256
2923.74	0.323
2932.28	0.323
2940.82	0.325
2949.35	0.3321
2957.89	0.3523
2966.43	0.362
2974.97	0.357
2983.5	0.3419
2992.04	0.3291
3000.58	0.3433
3009.12	0.348
3017.65	0.346
3026.19	0.3486
3034.73	0.356
3043.26	0.3626
3051.8	0.3693
3060.34	0.3763
3068.88	0.3826
3077.41	0.388
3085.95	0.3925
3094.49	0.3985
3103.03	0.4093
3111.56	0.4206
3120.1	0.4338
3128.64	0.4483
3137.17	0.465
3145.71	0.4815
3154.25	0.4997
3162.79	0.5176
3171.32	0.5364
3179.86	0.5469
3188.4	0.5606
3196.94	0.5796
3205.47	0.5994
3214.01	0.6226
3222.55	0.6454
3231.09	0.6639
3239.62	0.6809
3248.16	0.7043
3256.7	0.7242
3265.23	0.7412
3273.77	0.7576
3282.31	0.7753
3290.85	0.7926
3299.38	0.8094
3307.92	0.8255
3316.46	0.8421
3325	0.8505
3333.53	0.8642
3342.07	0.8742
3350.61	0.8883
3359.14	0.8962
3367.68	0.9043
3376.22	0.911
3384.76	0.9192
3393.29	0.9291
3401.83	0.937
3410.37	0.9451
3418.91	0.9511
3427.44	0.9551
3435.98	0.9591
3444.52	0.966
3453.06	0.969
3461.59	0.97
3470.13	0.973
3478.67	0.975
3487.2	0.978
3495.74	0.982
3504.28	0.985
3512.82	0.985
3521.35	0.985
3529.89	0.985
3538.43	0.987
3546.97	0.9871
3555.5	0.989
3564.04	0.99
3572.58	0.9861
3581.11	0.9869
3589.65	0.994
3598.19	0.994
3606.73	0.991
3615.26	0.991
3623.8	0.993
3632.34	0.991
3640.88	0.991
3649.41	0.991
3657.95	0.991
3666.49	0.993
3675.03	0.9968
3683.56	0.9979
3692.1	0.998
3700.64	0.998
3709.17	0.997
3717.71	0.995
3726.25	0.995
3734.79	0.994
3743.32	0.994
3751.86	0.993
3760.4	0.993
3768.94	0.993
3777.47	0.993
3786.01	0.991
