Infrared Spectrum: Ethyl acetoacetate
Formula: C 6 H 10 O 3
CAS: 141-97-9
State: gas
Instrument: HP-GC/MS/IRD
Origin: NIST Mass Spectrometry Data Center
1/CM	ABSORBANCE
550	0.0003724
562	0.0003605
574	0.0002604
586	0.0002737
598	0.0002205
610	0.0002632
622	0.0003227
634	0.0002569
646	0.0002212
658	4.9e-05
670	0.0001281
682	6.23e-05
694	7e-07
706	5.67e-05
718	5.32e-05
730	5.32e-05
742	5.81e-05
754	9.52e-05
766	7.63e-05
778	0.0001204
790	8.33e-05
802	0.0001645
814	7.98e-05
826	0.0001372
838	0.0001673
850	0.0001904
862	0.0002331
874	0.0002226
886	0.000259
898	0.0001673
910	0.0001925
922	0.0002408
934	0.0002534
946	0.0002793
958	0.0002051
970	0.0003024
982	0.000252
994	0.0004403
1006	0.0006377
1018	0.0011221
1030	0.0019894
1042	0.0025382
1054	0.00203
1066	0.0012817
1078	0.0010332
1090	0.0011417
1102	0.00126
1114	0.0014448
1126	0.0020335
1138	0.0034559
1150	0.0046704
1162	0.0049
1174	0.0046445
1186	0.004361
1198	0.0037058
1210	0.0032473
1222	0.0032557
1234	0.0033201
1246	0.0032487
1258	0.0030926
1270	0.0030212
1282	0.0030464
1294	0.0031374
1306	0.0034335
1318	0.003171
1330	0.0023037
1342	0.0018494
1354	0.0021273
1366	0.0028063
1378	0.0025361
1390	0.0017213
1402	0.0012369
1414	0.0011543
1426	0.0009681
1438	0.0007518
1450	0.000686
1462	0.0006167
1474	0.0005166
1486	0.000364
1498	0.0002345
1510	0.0001547
1522	0.0001246
1534	0.0001379
1546	0.0001029
1558	0.0001309
1570	0.0001512
1582	0.0001526
1594	0.0001918
1606	0.0002499
1618	0.0002639
1630	0.0004123
1642	0.0005229
1654	0.000525
1666	0.0007343
1678	0.0012614
1690	0.0019495
1702	0.003003
1714	0.0038906
1726	0.0053298
1738	0.0067515
1750	0.0068334
1762	0.0057554
1774	0.0037128
1786	0.0016905
1798	0.000756
1810	0.0004312
1822	0.0002821
1834	0.0001988
1846	0.0001498
1858	0.0001064
1870	7.91e-05
1882	7.49e-05
1894	8.89e-05
1906	3.57e-05
1918	3.99e-05
1930	3.78e-05
1942	2.1e-05
1954	1.68e-05
1966	4.9e-06
1978	3.5e-05
1990	4.69e-05
2002	3.29e-05
2014	6.02e-05
2026	4.9e-05
2038	6.72e-05
2050	6.86e-05
2062	7.28e-05
2074	0.0001442
2086	0.0002429
2098	0.0004991
2110	0.0013412
2122	0.0030338
2134	0.0048405
2146	0.0045269
2158	0.0025585
2170	0.0004543
2182	0.0001316
2194	0.0001127
2206	6.23e-05
2218	5.6e-05
2230	9.45e-05
2242	5.81e-05
2254	5.67e-05
2266	7.91e-05
2278	8.19e-05
2290	0.0001533
2302	0.0002527
2314	0.0004095
2326	0.0004634
2338	0.0003983
2350	0.0003773
2362	0.0006384
2374	0.0004767
2386	0.000133
2398	6.3e-05
2410	5.95e-05
2422	4.55e-05
2434	3.5e-05
2446	5.32e-05
2458	2.8e-05
2470	2.24e-05
2482	6.02e-05
2494	4.83e-05
2506	1.75e-05
2518	4.48e-05
2530	3.43e-05
2542	3.85e-05
2554	4.9e-05
2566	4.06e-05
2578	2.52e-05
2590	5.6e-06
2602	4.83e-05
2614	2.31e-05
2626	4.27e-05
2638	9.1e-06
2650	1.68e-05
2662	4.2e-05
2674	4.83e-05
2686	3.92e-05
2698	7.42e-05
2710	3.78e-05
2722	2.38e-05
2734	5.39e-05
2746	5.32e-05
2758	7.98e-05
2770	3.78e-05
2782	6.09e-05
2794	5.39e-05
2806	0.0001099
2818	0.0001043
2830	0.000168
2842	0.0001848
2854	0.00028
2866	0.0003493
2878	0.0004494
2890	0.0006055
2902	0.0007252
2914	0.0008386
2926	0.0009429
2938	0.0011018
2950	0.0012208
2962	0.001197
2974	0.0014322
2986	0.0018053
2998	0.0015253
3010	0.0010906
3022	0.0006965
3034	0.0004627
3046	0.0002814
3058	0.0002555
3070	0.0001967
3082	0.0001673
3094	0.0002331
3106	0.0001064
3118	0.0001337
3130	6.86e-05
3142	8.19e-05
3154	5.95e-05
3166	6.93e-05
3178	6.02e-05
3190	4.06e-05
3202	2.31e-05
3214	9.24e-05
3226	7.21e-05
3238	2.45e-05
3250	3.71e-05
3262	6.37e-05
3274	3.85e-05
3286	1.61e-05
3298	6.37e-05
3310	7.49e-05
3322	0
3334	4.13e-05
3346	0.0001169
3358	7.21e-05
3370	9.59e-05
3382	9.73e-05
3394	6.44e-05
3406	9.52e-05
3418	0.000126
3430	9.94e-05
3442	0.0001596
3454	0.0001533
3466	0.0002135
3478	0.0001743
3490	0.0001267
3502	0.0001435
3514	0.0001379
3526	6.51e-05
3538	5.6e-05
3550	5.95e-05
3562	6.09e-05
3574	7.49e-05
3586	4.76e-05
3598	0.0001106
3610	4.06e-05
3622	7.77e-05
3634	0.0001365
3646	0.0001344
3658	0.0001344
3670	0.0001246
3682	0.0001484
3694	0.0001414
3706	0.0001652
3718	2.87e-05
3730	0.000105
3742	5.18e-05
3754	3.36e-05
3766	1.82e-05
3778	8.96e-05
3790	1.96e-05
3802	7.28e-05
3814	9.52e-05
3826	8.12e-05
3838	6.3e-06
