Infrared Spectrum: DODECAMETHYLPENTASILOXANE
Formula: C12 H36 O4 Si5
CAS: 141-63-9
State: SOLUTION (5% IN CCl4 FOR 3800-1300, 2% IN CS2 FOR 1300-630, AND 5% IN CCl4 FOR 630-220 CM^-^1)
Boiling point: 229 C
Class: COBLENTZ III
Instrument: PERKIN-ELMER 521 (GRATING)
Instrument parameters: FILTERS AT 3150, 2500, 2000, 1150, 700, 410. GRATING CHANGES: 2000, 630 CM^-^1
Sampling: TRANSMISSION
Path length: 0.011 CM, 0.011 CM, AND 0.021 CM
Resolution: 2
Origin: DOW CORNING CORP.
1/CM	TRANSMITTANCE
225.659	0.61
235.032	0.639
244.405	0.668
253.778	0.676
263.152	0.684
272.525	0.689
281.898	0.687
291.271	0.686
300.644	0.69
310.017	0.68
319.391	0.659
328.764	0.643
338.137	0.645
347.51	0.601
356.883	0.483
366.256	0.431
375.63	0.358
385.003	0.275
394.376	0.348
403.749	0.509
413.122	0.715
422.495	0.833
431.869	0.851
441.242	0.859
450.615	0.861
459.988	0.861
469.361	0.856
478.734	0.841
488.108	0.816
497.481	0.796
506.854	0.789
516.227	0.784
525.6	0.784
534.973	0.797
544.347	0.812
553.72	0.809
563.093	0.798
572.466	0.816
581.839	0.84
591.212	0.831
600.586	0.802
609.959	0.801
619.332	0.847
628.705	0.839
638.078	0.802
647.451	0.833
656.825	0.843
666.198	0.815
675.571	0.768
684.944	0.736
694.317	0.746
703.69	0.786
713.064	0.812
722.437	0.811
731.81	0.802
741.183	0.769
750.556	0.594
759.929	0.729
769.303	0.741
778.676	0.648
788.049	0.408
797.422	0.144
806.795	0.24
816.168	0.267
825.542	0.367
834.915	0.208
844.288	0.213
853.661	0.497
863.034	0.562
872.407	0.58
881.781	0.631
891.154	0.741
900.527	0.788
909.9	0.812
919.273	0.825
928.646	0.829
938.019	0.827
947.393	0.825
956.766	0.813
966.139	0.803
975.512	0.78
984.885	0.738
994.258	0.681
1003.63	0.572
1013	0.388
1022.38	0.158
1031.75	0.094
1041.12	0.166
1050.5	0.181
1059.87	0.153
1069.24	0.154
1078.62	0.146
1087.99	0.165
1097.36	0.279
1106.74	0.436
1116.11	0.55
1125.48	0.636
1134.86	0.673
1144.23	0.73
1153.6	0.759
1162.98	0.784
1172.35	0.8
1181.72	0.809
1191.09	0.812
1200.47	0.815
1209.84	0.811
1219.21	0.803
1228.59	0.78
1237.96	0.645
1247.33	0.283
1256.71	0.08
1266.08	0.667
1275.45	0.775
1284.83	0.804
1294.2	0.822
1303.57	0.823
1312.95	0.823
1322.32	0.823
1331.69	0.823
1341.07	0.822
1350.44	0.822
1359.81	0.818
1369.19	0.813
1378.56	0.802
1387.93	0.786
1397.3	0.697
1406.68	0.679
1416.05	0.704
1425.42	0.768
1434.8	0.752
1444.17	0.767
1453.54	0.795
1462.92	0.832
1472.29	0.843
1481.66	0.846
1491.04	0.85
1500.41	0.851
1509.78	0.848
1519.16	0.845
1528.53	0.843
1537.9	0.838
1547.28	0.831
1556.65	0.841
1566.02	0.839
1575.39	0.834
1584.77	0.837
1594.14	0.843
1603.51	0.852
1612.89	0.852
1622.26	0.851
1631.63	0.855
1641.01	0.856
1650.38	0.859
1659.75	0.862
1669.13	0.865
1678.5	0.865
1687.87	0.867
1697.25	0.868
1706.62	0.87
1715.99	0.87
1725.37	0.87
1734.74	0.869
1744.11	0.868
1753.48	0.872
1762.86	0.876
1772.23	0.876
1781.6	0.877
1790.98	0.881
1800.35	0.881
1809.72	0.882
1819.1	0.882
1828.47	0.882
1837.84	0.882
1847.22	0.883
1856.59	0.883
1865.96	0.882
1875.34	0.881
1884.71	0.879
1894.08	0.875
1903.46	0.876
1912.83	0.877
1922.2	0.874
1931.57	0.863
1940.95	0.865
1950.32	0.87
1959.69	0.876
1969.07	0.88
1978.44	0.881
1987.81	0.882
1997.19	0.886
2006.56	0.8895
2015.93	0.89
2025.31	0.89
2034.68	0.8887
2044.05	0.888
2053.43	0.888
2062.8	0.89
2072.17	0.89
2081.55	0.89
2090.92	0.889
2100.29	0.89
2109.67	0.89
2119.04	0.89
2128.41	0.889
2137.78	0.887
2147.16	0.886
2156.53	0.884
2165.9	0.8837
2175.28	0.883
2184.65	0.883
2194.02	0.882
2203.4	0.881
2212.77	0.881
2222.14	0.882
2231.52	0.882
2240.89	0.8836
2250.26	0.886
2259.64	0.888
2269.01	0.8908
2278.38	0.891
2287.76	0.893
2297.13	0.893
2306.5	0.89
2315.87	0.887
2325.25	0.887
2334.62	0.887
2343.99	0.888
2353.37	0.89
2362.74	0.89
2372.11	0.891
2381.49	0.893
2390.86	0.893
2400.23	0.89
2409.61	0.889
2418.98	0.89
2428.35	0.889
2437.73	0.8885
2447.1	0.888
2456.47	0.887
2465.85	0.887
2475.22	0.887
2484.59	0.886
2493.96	0.884
2503.34	0.887
2512.71	0.887
2522.08	0.888
2531.46	0.889
2540.83	0.889
2550.2	0.889
2559.58	0.889
2568.95	0.889
2578.32	0.888
2587.7	0.888
2597.07	0.888
2606.44	0.886
2615.82	0.883
2625.19	0.883
2634.56	0.882
2643.94	0.881
2653.31	0.88
2662.68	0.882
2672.05	0.882
2681.43	0.881
2690.8	0.881
2700.17	0.881
2709.55	0.881
2718.92	0.882
2728.29	0.881
2737.67	0.88
2747.04	0.877
2756.41	0.875
2765.79	0.8689
2775.16	0.8617
2784.53	0.8546
2793.91	0.852
2803.28	0.851
2812.65	0.851
2822.03	0.85
2831.4	0.847
2840.77	0.843
2850.15	0.843
2859.52	0.8395
2868.89	0.8179
2878.26	0.7989
2887.64	0.753
2897.01	0.697
2906.38	0.7396
2915.76	0.7698
2925.13	0.7612
2934.5	0.7103
2943.88	0.5811
2953.25	0.2932
2962.62	0.2293
2972	0.4993
2981.37	0.7412
2990.74	0.7996
3000.12	0.8337
3009.49	0.8472
3018.86	0.853
3028.24	0.853
3037.61	0.8534
3046.98	0.855
3056.35	0.858
3065.73	0.86
3075.1	0.861
3084.47	0.861
3093.85	0.862
3103.22	0.863
3112.59	0.865
3121.97	0.8728
3131.34	0.875
3140.71	0.877
3150.09	0.879
3159.46	0.88
3168.83	0.881
3178.21	0.882
3187.58	0.882
3196.95	0.882
3206.33	0.883
3215.7	0.884
3225.07	0.886
3234.44	0.887
3243.82	0.888
3253.19	0.888
3262.56	0.888
3271.94	0.888
3281.31	0.889
3290.68	0.889
3300.06	0.889
3309.43	0.889
3318.8	0.889
3328.18	0.889
3337.55	0.889
3346.92	0.889
3356.3	0.889
3365.67	0.889
3375.04	0.89
3384.42	0.89
3393.79	0.891
3403.16	0.891
3412.53	0.891
3421.91	0.891
3431.28	0.891
3440.65	0.891
3450.03	0.891
3459.4	0.891
3468.77	0.893
3478.15	0.893
3487.52	0.893
3496.89	0.893
3506.27	0.893
3515.64	0.893
3525.01	0.891
3534.39	0.8903
3543.76	0.89
3553.13	0.89
3562.51	0.889
3571.88	0.889
3581.25	0.889
3590.63	0.889
3600	0.889
3609.37	0.89
3618.74	0.889
3628.12	0.888
3637.49	0.887
3646.86	0.888
3656.24	0.889
3665.61	0.889
3674.98	0.8886
3684.36	0.8852
3693.73	0.882
3703.1	0.8825
3712.48	0.882
3721.85	0.884
3731.22	0.886
3740.6	0.8877
3749.97	0.888
3759.34	0.889
3768.72	0.889
3778.09	0.89
3787.46	0.89
