Infrared Spectrum: DECAMETHYLTETRASILOXANE
Formula: C10 H30 O3 Si4
CAS: 141-62-8
State: SOLUTION (5% IN CCl4 FOR 3800-1300, 2% IN CS2 FOR 1300-600, AND 5% IN CCl4 FOR 600-210 CM^-^1)
Boiling point: 194 C
Class: COBLENTZ III
Instrument: PERKIN-ELMER 521 (GRATING)
Instrument parameters: FILTERS AT 3150, 2500, 2000, 1150, 700, 410. GRATING CHANGES: 2000, 630 CM^-^1
Sampling: TRANSMISSION
Path length: 0.011 CM, 0.021 CM, AND 0.011 CM
Resolution: 2
Origin: DOW CORNING CORP.
1/CM	TRANSMITTANCE
208.787	0.695
218.16	0.695
227.533	0.691
236.907	0.687
246.28	0.684
255.653	0.682
265.026	0.679
274.399	0.672
283.772	0.652
293.146	0.65
302.519	0.655
311.892	0.654
321.265	0.643
330.638	0.594
340.012	0.54
349.385	0.534
358.758	0.517
368.131	0.415
377.504	0.262
386.877	0.319
396.251	0.439
405.624	0.624
414.997	0.756
424.37	0.806
433.743	0.83
443.117	0.832
452.49	0.83
461.863	0.825
471.236	0.811
480.609	0.761
489.983	0.779
499.356	0.753
508.729	0.753
518.102	0.759
527.475	0.755
536.848	0.745
546.222	0.763
555.595	0.801
564.968	0.811
574.341	0.791
583.714	0.767
593.088	0.756
602.461	0.82
611.834	0.873
621.207	0.873
630.58	0.872
639.953	0.846
649.327	0.847
658.7	0.847
668.073	0.837
677.446	0.806
686.819	0.729
696.193	0.795
705.566	0.824
714.939	0.837
724.312	0.831
733.685	0.808
743.058	0.746
752.432	0.584
761.805	0.751
771.178	0.768
780.551	0.674
789.924	0.43
799.298	0.186
808.671	0.36
818.044	0.325
827.417	0.36
836.79	0.14
846.163	0.167
855.537	0.505
864.91	0.562
874.283	0.587
883.656	0.67
893.029	0.775
902.403	0.81
911.776	0.843
921.149	0.846
930.522	0.845
939.895	0.833
949.269	0.829
958.642	0.823
968.015	0.817
977.388	0.795
986.761	0.763
996.134	0.689
1005.51	0.631
1014.88	0.475
1024.25	0.258
1033.63	0.113
1043	0.134
1052.37	0.184
1061.75	0.163
1071.12	0.158
1080.49	0.176
1089.87	0.24
1099.24	0.393
1108.61	0.524
1117.99	0.633
1127.36	0.702
1136.73	0.755
1146.11	0.787
1155.48	0.808
1164.85	0.833
1174.22	0.846
1183.6	0.846
1192.97	0.846
1202.34	0.843
1211.72	0.83
1221.09	0.811
1230.46	0.761
1239.84	0.651
1249.21	0.256
1258.58	0.238
1267.96	0.69
1277.33	0.795
1286.7	0.794
1296.08	0.794
1305.45	0.794
1314.82	0.795
1324.2	0.795
1333.57	0.795
1342.94	0.795
1352.32	0.795
1361.69	0.791
1371.06	0.784
1380.43	0.768
1389.81	0.733
1399.18	0.662
1408.55	0.64
1417.93	0.696
1427.3	0.732
1436.67	0.726
1446.05	0.744
1455.42	0.781
1464.79	0.813
1474.17	0.825
1483.54	0.827
1492.91	0.829
1502.29	0.829
1511.66	0.824
1521.03	0.817
1530.41	0.81
1539.78	0.808
1549.15	0.809
1558.53	0.809
1567.9	0.81
1577.27	0.815
1586.65	0.815
1596.02	0.819
1605.39	0.827
1614.76	0.834
1624.14	0.84
1633.51	0.844
1642.88	0.844
1652.26	0.844
1661.63	0.844
1671	0.844
1680.38	0.85
1689.75	0.852
1699.12	0.852
1708.5	0.852
1717.87	0.851
1727.24	0.848
1736.62	0.848
1745.99	0.848
1755.36	0.852
1764.74	0.856
1774.11	0.858
1783.48	0.859
1792.86	0.861
1802.23	0.862
1811.6	0.861
1820.97	0.86
1830.35	0.86
1839.72	0.859
1849.09	0.859
1858.47	0.859
1867.84	0.859
1877.21	0.859
1886.59	0.859
1895.96	0.858
1905.33	0.856
1914.71	0.853
1924.08	0.847
1933.45	0.84
1942.83	0.843
1952.2	0.852
1961.57	0.858
1970.95	0.865
1980.32	0.862
1989.69	0.859
1999.07	0.87
2008.44	0.8795
2017.81	0.88
2027.18	0.879
2036.56	0.879
2045.93	0.877
2055.3	0.877
2064.68	0.877
2074.05	0.879
2083.42	0.879
2092.8	0.88
2102.17	0.879
2111.54	0.879
2120.92	0.8821
2130.29	0.882
2139.66	0.882
2149.04	0.882
2158.41	0.8823
2167.78	0.883
2177.16	0.883
2186.53	0.885
2195.9	0.888
2205.28	0.889
2214.65	0.8896
2224.02	0.89
2233.39	0.889
2242.77	0.889
2252.14	0.889
2261.51	0.89
2270.89	0.89
2280.26	0.891
2289.63	0.893
2299.01	0.893
2308.38	0.894
2317.75	0.893
2327.13	0.893
2336.5	0.893
2345.87	0.893
2355.25	0.893
2364.62	0.8921
2373.99	0.891
2383.37	0.89
2392.74	0.89
2402.11	0.891
2411.49	0.891
2420.86	0.891
2430.23	0.891
2439.6	0.8902
2448.98	0.8881
2458.35	0.888
2467.72	0.888
2477.1	0.889
2486.47	0.889
2495.84	0.889
2505.22	0.889
2514.59	0.8892
2523.96	0.8903
2533.34	0.8907
2542.71	0.89
2552.08	0.89
2561.46	0.89
2570.83	0.89
2580.2	0.889
2589.58	0.889
2598.95	0.889
2608.32	0.889
2617.7	0.889
2627.07	0.889
2636.44	0.889
2645.81	0.889
2655.19	0.889
2664.56	0.889
2673.93	0.888
2683.31	0.888
2692.68	0.8882
2702.05	0.889
2711.43	0.889
2720.8	0.889
2730.17	0.888
2739.55	0.8852
2748.92	0.881
2758.29	0.8745
2767.67	0.8684
2777.04	0.8614
2786.41	0.8533
2795.79	0.851
2805.16	0.85
2814.53	0.85
2823.91	0.85
2833.28	0.8471
2842.65	0.846
2852.02	0.844
2861.4	0.8369
2870.77	0.8264
2880.14	0.795
2889.52	0.7516
2898.89	0.6875
2908.26	0.7318
2917.64	0.7746
2927.01	0.7589
2936.38	0.6915
2945.76	0.559
2955.13	0.3723
2964.5	0.1773
2973.88	0.4248
2983.25	0.7242
2992.62	0.8051
3002	0.8342
3011.37	0.8509
3020.74	0.858
3030.12	0.861
3039.49	0.863
3048.86	0.866
3058.23	0.867
3067.61	0.8692
3076.98	0.872
3086.35	0.873
3095.73	0.8733
3105.1	0.874
3114.47	0.8754
3123.85	0.8835
3133.22	0.889
3142.59	0.889
3151.97	0.889
3161.34	0.89
3170.71	0.891
3180.09	0.893
3189.46	0.893
3198.83	0.894
3208.21	0.896
3217.58	0.8999
3226.95	0.9
3236.33	0.901
3245.7	0.9
3255.07	0.9
3264.44	0.9
3273.82	0.9013
3283.19	0.903
3292.56	0.903
3301.94	0.903
3311.31	0.903
3320.68	0.903
3330.06	0.902
3339.43	0.904
3348.8	0.904
3358.18	0.904
3367.55	0.904
3376.92	0.904
3386.3	0.904
3395.67	0.904
3405.04	0.903
3414.42	0.903
3423.79	0.903
3433.16	0.903
3442.54	0.902
3451.91	0.9022
3461.28	0.903
3470.65	0.903
3480.03	0.902
3489.4	0.901
3498.77	0.8991
3508.15	0.897
3517.52	0.897
3526.89	0.897
3536.27	0.8963
3545.64	0.897
3555.01	0.8952
3564.39	0.8932
3573.76	0.891
3583.13	0.889
3592.51	0.8929
3601.88	0.893
3611.25	0.893
3620.63	0.891
3630	0.889
3639.37	0.889
3648.75	0.889
3658.12	0.89
3667.49	0.89
3676.86	0.8886
3686.24	0.886
3695.61	0.883
3704.98	0.883
3714.36	0.887
3723.73	0.8887
3733.1	0.89
3742.48	0.89
3751.85	0.89
3761.22	0.89
3770.6	0.891
3779.97	0.891
