Infrared Spectrum: 2,4,6-Trimethoxytoluene
Formula: C 10 H 14 O 3
CAS: 14107-97-2
State: gas
Origin: EPA-IR VAPOR PHASE LIBRARY
1/CM	ABSORBANCE
549.9	0.00559
559.547	0.0052441
569.193	0.0045523
578.84	0.00435101
588.486	0.0042646
598.133	0.004179
607.779	0.0051552
617.426	0.00751
627.072	0.00974
636.719	0.0103
646.365	0.01035
656.012	0.00939
665.658	0.00728
675.305	0.00548
684.951	0.0046099
694.598	0.0044222
704.245	0.0046488
713.891	0.0056
723.538	0.00643
733.184	0.00576
742.831	0.0051647
752.477	0.00771
762.124	0.01243
771.77	0.01139
781.417	0.00876
791.063	0.01005
800.71	0.014
810.356	0.02583
820.003	0.03913
829.649	0.03494
839.296	0.02175
848.943	0.0112
858.589	0.00664
868.236	0.0052877
877.882	0.005036
887.529	0.00547
897.175	0.00647
906.822	0.00731
916.468	0.00884
926.115	0.01293
935.761	0.02643
945.408	0.04237
955.054	0.03044
964.701	0.015
974.347	0.0132
983.994	0.01428
993.64	0.01693
1003.29	0.02043
1012.93	0.02307
1022.58	0.02591
1032.23	0.03582
1041.87	0.06072
1051.52	0.09173
1061.17	0.09029
1070.81	0.0581
1080.46	0.04398
1090.11	0.04965
1099.75	0.06876
1109.4	0.11024
1119.05	0.19743
1128.69	0.35311
1138.34	0.54247
1147.99	0.58866
1157.63	0.36292
1167.28	0.15172
1176.92	0.11523
1186.57	0.13025
1196.22	0.17598
1205.86	0.22143
1215.51	0.19378
1225.16	0.13987
1234.8	0.07077
1244.45	0.03323
1254.1	0.02127
1263.74	0.01626
1273.39	0.01398
1283.04	0.01294
1292.68	0.01321
1302.33	0.01544
1311.98	0.02241
1321.62	0.03502
1331.27	0.03847
1340.92	0.02605
1350.56	0.01785
1360.21	0.01665
1369.86	0.01939
1379.5	0.02954
1389.15	0.04294
1398.79	0.07457
1408.44	0.12947
1418.09	0.14118
1427.73	0.10779
1437.38	0.09822
1447.03	0.09992
1456.67	0.13037
1466.32	0.15751
1475.97	0.13612
1485.61	0.12889
1495.26	0.13843
1504.91	0.08092
1514.55	0.0361
1524.2	0.0278
1533.85	0.02684
1543.49	0.03011
1553.14	0.04018
1562.79	0.06315
1572.43	0.10985
1582.08	0.19423
1591.73	0.29037
1601.37	0.3174
1611.02	0.26585
1620.67	0.16191
1630.31	0.07465
1639.96	0.04092
1649.6	0.02837
1659.25	0.02294
1668.9	0.01919
1678.54	0.01543
1688.19	0.0128
1697.84	0.01152
1707.48	0.01056
1717.13	0.0099
1726.78	0.00893
1736.42	0.00797
1746.07	0.00705
1755.72	0.00652
1765.36	0.00636
1775.01	0.00614
1784.66	0.00582
1794.3	0.00537
1803.95	0.0049674
1813.6	0.0046554
1823.24	0.00434036
1832.89	0.003994
1842.54	0.003719
1852.18	0.003409
1861.83	0.0031
1871.47	0.00304
1881.12	0.00312
1890.77	0.00311
1900.41	0.00321
1910.06	0.00329
1919.71	0.003398
1929.35	0.003815
1939	0.004144
1948.65	0.003977
1958.29	0.00372
1967.94	0.003549
1977.59	0.00363
1987.23	0.003739
1996.88	0.003815
2006.53	0.003995
2016.17	0.0044578
2025.82	0.0051493
2035.47	0.00593
2045.11	0.00614
2054.76	0.00573
2064.41	0.00554
2074.05	0.0062
2083.7	0.00723
2093.35	0.00755
2102.99	0.00679
2112.64	0.00569
2122.28	0.0049848
2131.93	0.0046773
2141.58	0.004863
2151.22	0.0052672
2160.87	0.0055
2170.52	0.0057
2180.16	0.00591
2189.81	0.00587
2199.46	0.0055
2209.1	0.0051338
2218.75	0.0048915
2228.4	0.0044889
2238.04	0.003831
2247.69	0.003538
2257.34	0.003703
2266.98	0.004011
2276.63	0.003865
2286.28	0.00325
2295.92	0.00274
2305.57	0.00262
2315.22	0.00269
2324.86	0.00283
2334.51	0.00304
2344.16	0.003367
2353.8	0.003699
2363.45	0.003662
2373.09	0.003362
2382.74	0.00327
2392.39	0.003374
2402.03	0.003399
2411.68	0.00319
2421.33	0.00315
2430.97	0.0033
2440.62	0.003377
2450.27	0.003319
2459.91	0.0033
2469.56	0.00325
2479.21	0.00302
2488.85	0.00271
2498.5	0.00255
2508.15	0.00287
2517.79	0.00329
2527.44	0.003713
2537.09	0.003841
2546.73	0.003529
2556.38	0.00313
2566.03	0.00277
2575.67	0.00265
2585.32	0.00273
2594.96	0.00325
2604.61	0.003631
2614.26	0.003461
2623.9	0.00315
2633.55	0.00306
2643.2	0.00306
2652.84	0.003
2662.49	0.00287
2672.14	0.00274
2681.78	0.00276
2691.43	0.00294
2701.08	0.00307
2710.72	0.0033
2720.37	0.003407
2730.02	0.003759
2739.66	0.0046122
2749.31	0.0052262
2758.96	0.0051062
2768.6	0.00546
2778.25	0.00667
2787.9	0.00834
2797.54	0.01081
2807.19	0.01445
2816.84	0.02105
2826.48	0.03615
2836.13	0.06722
2845.77	0.08212
2855.42	0.06249
2865.07	0.05131
2874.71	0.05473
2884.36	0.05717
2894.01	0.05739
2903.65	0.06378
2913.3	0.07861
2922.95	0.09156
2932.59	0.11894
2942.24	0.16738
2951.89	0.16164
2961.53	0.11266
2971.18	0.07202
2980.83	0.05681
2990.47	0.07239
3000.12	0.11204
3009.77	0.09154
3019.41	0.04042
3029.06	0.02419
3038.71	0.01872
3048.35	0.01596
3058	0.01425
3067.64	0.01252
3077.29	0.01148
3086.94	0.01129
3096.58	0.01106
3106.23	0.00935
3115.88	0.00703
3125.52	0.0050797
3135.17	0.003949
3144.82	0.00302
3154.46	0.00242
3164.11	0.00209
3173.76	0.00173
3183.4	0.00165
3193.05	0.00121
3202.7	0.00104
3212.34	0.00079
3221.99	0.00072
3231.64	0.00043
3241.28	0.00011
3250.93	0.00019
3260.58	0
3270.22	0.00024
3279.87	3e-05
3289.52	0.00017
3299.16	0.00019
3308.81	9e-05
3318.45	6e-05
3328.1	8e-05
3337.75	7e-05
3347.39	0.00041
3357.04	0.00032
3366.69	0.00044
3376.33	0.00065
3385.98	0.00065
3395.63	0.00047
3405.27	0.00075
3414.92	0.00081
3424.57	0.00065
3434.21	0.00086
3443.86	0.00076
3453.51	0.00095
3463.15	0.00084
3472.8	0.0006
3482.45	0.00089
3492.09	0.00098
3501.74	0.00109
3511.39	0.00111
3521.03	0.00113
3530.68	0.00114
3540.33	0.00109
3549.97	0.00118
3559.62	0.00106
3569.26	0.00124
3578.91	0.00134
3588.56	0.00126
3598.2	0.0012
3607.85	0.00134
3617.5	0.00123
3627.14	0.00139
3636.79	0.00116
3646.44	0.00141
3656.08	0.00141
3665.73	0.00146
3675.38	0.00149
3685.02	0.00144
3694.67	0.00133
3704.32	0.00135
3713.96	0.00168
3723.61	0.00154
3733.26	0.00142
3742.9	0.0016
3752.55	0.00149
3762.2	0.00161
3771.84	0.00143
3781.49	0.00152
3791.13	0.00152
3800.78	0.00172
3810.43	0.00156
3820.07	0.00181
3829.72	0.00177
3839.37	0.00179
3849.01	0.00178
3858.66	0.00202
3868.31	0.00209
3877.95	0.00217
3887.6	0.00205
3897.25	0.00207
3906.89	0.00222
3916.54	0.00203
3926.19	0.00183
3935.83	0.00207
3945.48	0.00214
3955.13	0.00203
3964.77	0.00226
3974.42	0.00244
3984.07	0.00267
3993.71	0.00273
