Infrared Spectrum: 4-Fluoro-2-(trifluoromethyl)benzoic acid
Formula: C 8 H 4 F 4 O 2
CAS: 141179-72-8
State: gas
Origin: EPA-IR VAPOR PHASE LIBRARY
1/CM	ABSORBANCE
549.8	0.014939
559.446	0.019889
569.092	0.021749
578.738	0.020099
588.384	0.016139
598.03	0.014489
607.676	0.020529
617.322	0.019959
626.968	0.011029
636.614	0.005039
646.26	0.003039
655.906	0.003859
665.552	0.005109
675.198	0.002699
684.844	0.002329
694.49	0.002649
704.136	0.003209
713.782	0.005279
723.428	0.008769
733.073	0.008359
742.719	0.008179
752.365	0.012959
762.011	0.007779
771.657	0.007899
781.303	0.011049
790.949	0.008139
800.595	0.005439
810.241	0.004689
819.887	0.004439
829.533	0.006699
839.179	0.010879
848.825	0.006049
858.471	0.002729
868.117	0.002919
877.763	0.008969
887.409	0.022029
897.055	0.015319
906.701	0.023329
916.347	0.025369
925.993	0.008499
935.639	0.003759
945.285	0.002609
954.931	0.002509
964.577	0.002209
974.223	0.001949
983.869	0.002019
993.515	0.002389
1003.16	0.002849
1012.81	0.003759
1022.45	0.006519
1032.1	0.021939
1041.74	0.036489
1051.39	0.018459
1061.04	0.010069
1070.68	0.014269
1080.33	0.027709
1089.97	0.043129
1099.62	0.035469
1109.27	0.018889
1118.91	0.016869
1128.56	0.023609
1138.2	0.030619
1147.85	0.049059
1157.5	0.100699
1167.14	0.207609
1176.79	0.209949
1186.43	0.105859
1196.08	0.052589
1205.73	0.033629
1215.37	0.034339
1225.02	0.026409
1234.66	0.016989
1244.31	0.017429
1253.96	0.028189
1263.6	0.041339
1273.25	0.041169
1282.89	0.042419
1292.54	0.043119
1302.19	0.063189
1311.83	0.112119
1321.48	0.095659
1331.12	0.048779
1340.77	0.035239
1350.42	0.026679
1360.06	0.023359
1369.71	0.026339
1379.35	0.022229
1389	0.013749
1398.65	0.011109
1408.29	0.014339
1417.94	0.024609
1427.58	0.023909
1437.23	0.007789
1446.88	0.004039
1456.52	0.003359
1466.17	0.003439
1475.81	0.004209
1485.46	0.007059
1495.11	0.014509
1504.75	0.015979
1514.4	0.007169
1524.04	0.003639
1533.69	0.002919
1543.34	0.002619
1552.98	0.002669
1562.63	0.003429
1572.27	0.004789
1581.92	0.008979
1591.57	0.018699
1601.21	0.021449
1610.86	0.022549
1620.5	0.018579
1630.15	0.007349
1639.79	0.003999
1649.44	0.002829
1659.09	0.002379
1668.73	0.002609
1678.38	0.002839
1688.02	0.002749
1697.67	0.002919
1707.32	0.003539
1716.96	0.005339
1726.61	0.008419
1736.25	0.012509
1745.9	0.019529
1755.55	0.041219
1765.19	0.074689
1774.84	0.085279
1784.48	0.069409
1794.13	0.033569
1803.78	0.016579
1813.42	0.008469
1823.07	0.004789
1832.71	0.003179
1842.36	0.002469
1852.01	0.001989
1861.65	0.0016567
1871.3	0.0013869
1880.94	0.0013225
1890.59	0.0013413
1900.24	0.0017157
1909.88	0.002229
1919.53	0.002009
1929.17	0.0013816
1938.82	0.0010784
1948.47	0.00096762
1958.11	0.0008698
1967.76	0.000767
1977.4	0.00068
1987.05	0.000641
1996.7	0.000574
2006.34	0.000612
2015.99	0.000697
2025.63	0.000647
2035.28	0.000627
2044.93	0.000552
2054.57	0.000659
2064.22	0.000694
2073.86	0.000696
2083.51	0.00059
2093.16	0.00059
2102.8	0.000575
2112.45	0.000774
2122.09	0.0011174
2131.74	0.0012501
2141.39	0.0009139
2151.03	0.00068
2160.68	0.000681
2170.32	0.000714
2179.97	0.000784
2189.62	0.00076
2199.26	0.000704
2208.91	0.00071
2218.55	0.000632
2228.2	0.000635
2237.85	0.00059
2247.49	0.000633
2257.14	0.000658
2266.78	0.000626
2276.43	0.000603
2286.08	0.000564
2295.72	0.000523
2305.37	0.000609
2315.01	0.000687
2324.66	0.000713
2334.31	0.000754
2343.95	0.0008704
2353.6	0.00091977
2363.24	0.0008458
2372.89	0.000704
2382.53	0.000662
2392.18	0.000752
2401.83	0.000709
2411.47	0.000755
2421.12	0.000722
2430.76	0.000734
2440.41	0.000684
2450.06	0.000528
2459.7	0.000576
2469.35	0.000541
2478.99	0.000623
2488.64	0.000647
2498.29	0.000716
2507.93	0.000734
2517.58	0.000686
2527.22	0.000722
2536.87	0.000724
2546.52	0.000542
2556.16	0.000519
2565.81	0.000434
2575.45	0.000482
2585.1	0.000371
2594.75	0.000459
2604.39	0.000355
2614.04	0.000201
2623.68	0.000148
2633.33	0.000144
2642.98	0.000139
2652.62	8.7e-05
2662.27	0.000203
2671.91	0.000165
2681.56	0.000171
2691.21	0.0002
2700.85	0.000213
2710.5	0.000118
2720.14	0.000182
2729.79	0.000178
2739.44	0.000194
2749.08	0.000187
2758.73	4.3e-05
2768.37	4.1e-05
2778.02	8e-05
2787.67	0.000133
2797.31	0.000128
2806.96	0.000183
2816.6	0.000172
2826.25	0.000229
2835.9	0.000314
2845.54	0.000231
2855.19	0.000262
2864.83	0.000285
2874.48	0.000144
2884.13	0.000224
2893.77	0.00027
2903.42	0.000243
2913.06	0.000219
2922.71	0.000203
2932.36	0.000204
2942	0.000105
2951.65	0.000271
2961.29	0.000164
2970.94	8.4e-05
2980.59	0.000122
2990.23	0.000253
2999.88	0.000271
3009.52	0.000208
3019.17	0.000282
3028.82	0.000189
3038.46	0.000258
3048.11	9.8e-05
3057.75	0.000222
3067.4	0.000279
3077.04	0.000521
3086.69	0.0011522
3096.34	0.0015142
3105.98	0.000795
3115.63	0.000332
3125.27	0.000218
3134.92	0.000273
3144.57	0.000105
3154.21	0.000126
3163.86	0.000206
3173.5	9.3e-05
3183.15	0.000242
3192.8	0.000202
3202.44	0.000217
3212.09	0.000296
3221.73	0.000123
3231.38	9.8e-05
3241.03	0.000167
3250.67	0.000189
3260.32	0.00014
3269.96	0.000104
3279.61	0.00018
3289.26	0.000229
3298.9	0.000243
3308.55	0.000154
3318.19	0.000305
3327.84	0.000214
3337.49	0.000286
3347.13	0.000249
3356.78	0.000171
3366.42	0.000318
3376.07	0.000264
3385.72	0.000301
3395.36	0.000349
3405.01	0.000241
3414.65	0.00041
3424.3	0.000342
3433.95	0.000263
3443.59	0.000383
3453.24	0.000429
3462.88	0.000507
3472.53	0.000482
3482.18	0.00066
3491.82	0.000671
3501.47	0.0008499
3511.11	0.00101202
3520.76	0.0012427
3530.41	0.0016223
3540.05	0.002069
3549.7	0.003439
3559.34	0.012499
3568.99	0.042669
3578.64	0.034749
3588.28	0.006509
3597.93	0.002399
3607.57	0.0018202
3617.22	0.0016642
3626.87	0.0014446
3636.51	0.0010664
3646.16	0.000793
3655.8	0.0008909
3665.45	0.000786
3675.1	0.000731
3684.74	0.00066
3694.39	0.000613
3704.03	0.000609
3713.68	0.000602
3723.33	0.000632
3732.97	0.000614
3742.62	0.000605
3752.26	0.000709
3761.91	0.000478
3771.56	0.000617
3781.2	0.000637
3790.85	0.000487
3800.49	0.000565
3810.14	0.000618
3819.78	0.000635
3829.43	0.000483
3839.08	0.000495
3848.72	0.000495
3858.37	0.000436
3868.01	0.00055
3877.66	0.000648
3887.31	0.000411
3896.95	0.000397
3906.6	0.000591
3916.24	0.000431
3925.89	0.000506
3935.54	0.000466
3945.18	0.000496
3954.83	0.000543
3964.47	0.000332
3974.12	0.000447
3983.77	0.000528
3993.41	0.000471
