Infrared Spectrum: Ethyl hydrogen suberate
Formula: C 10 H 18 O 4
CAS: 14113-01-0
State: gas
Origin: EPA-IR VAPOR PHASE LIBRARY
1/CM	ABSORBANCE
549.9	0.00778
559.547	0.00894
569.193	0.00878
578.84	0.00901
588.486	0.0098
598.133	0.01049
607.779	0.01048
617.426	0.01007
627.072	0.00935
636.719	0.00815
646.365	0.00639
656.012	0.0051
665.658	0.00449
675.305	0.00402
684.951	0.00407
694.598	0.00394
704.245	0.00396
713.891	0.00423
723.538	0.00447
733.184	0.00447
742.831	0.00394
752.477	0.00327
762.124	0.00304
771.77	0.0029
781.417	0.00291
791.063	0.00276
800.71	0.0025733
810.356	0.0025348
820.003	0.0025604
829.649	0.002622
839.296	0.00294
848.943	0.00348
858.589	0.00373
868.236	0.00358
877.882	0.00323
887.529	0.00292
897.175	0.00293
906.822	0.00308
916.468	0.00324
926.115	0.00343
935.761	0.00353
945.408	0.00363
955.054	0.00352
964.701	0.00348
974.347	0.00358
983.994	0.00386
993.64	0.00434
1003.29	0.00547
1012.93	0.00766
1022.58	0.0116
1032.23	0.0162
1041.87	0.01716
1051.52	0.01679
1061.17	0.0182
1070.81	0.02092
1080.46	0.02335
1090.11	0.02654
1099.75	0.03128
1109.4	0.03813
1119.05	0.04566
1128.69	0.04499
1138.34	0.0423
1147.99	0.04532
1157.63	0.04814
1167.28	0.04751
1176.92	0.04527
1186.57	0.04195
1196.22	0.0373
1205.86	0.03298
1215.51	0.03031
1225.16	0.02846
1234.8	0.02839
1244.45	0.02747
1254.1	0.0244
1263.74	0.01987
1273.39	0.01667
1283.04	0.01471
1292.68	0.01417
1302.33	0.01404
1311.98	0.01342
1321.62	0.01243
1331.27	0.01226
1340.92	0.01365
1350.56	0.01443
1360.21	0.01434
1369.86	0.01774
1379.5	0.01681
1389.15	0.01229
1398.79	0.00902
1408.44	0.00724
1418.09	0.00722
1427.73	0.00839
1437.38	0.00873
1447.03	0.00884
1456.67	0.00977
1466.32	0.00938
1475.97	0.0067
1485.61	0.00442
1495.26	0.00322
1504.91	0.002523
1514.55	0.0022423
1524.2	0.0020678
1533.85	0.0019199
1543.49	0.0018838
1553.14	0.0018641
1562.79	0.0018531
1572.43	0.0017946
1582.08	0.0017967
1591.73	0.0017757
1601.37	0.0018234
1611.02	0.0018018
1620.67	0.0018838
1630.31	0.0019077
1639.96	0.00204
1649.6	0.0020693
1659.25	0.0022958
1668.9	0.0025306
1678.54	0.003
1688.19	0.00372
1697.84	0.00492
1707.48	0.0071
1717.13	0.01085
1726.78	0.01843
1736.42	0.03425
1746.07	0.05995
1755.72	0.07512
1765.36	0.06908
1775.01	0.06705
1784.66	0.05194
1794.3	0.03208
1803.95	0.01968
1813.6	0.01115
1823.24	0.00647
1832.89	0.00425
1842.54	0.00325
1852.18	0.00273
1861.83	0.0024294
1871.47	0.0022252
1881.12	0.0021159
1890.77	0.0020481
1900.41	0.0020108
1910.06	0.0019349
1919.71	0.0019088
1929.35	0.0018734
1939	0.0018659
1948.65	0.00183
1958.29	0.0018149
1967.94	0.0017703
1977.59	0.00172706
1987.23	0.0017846
1996.88	0.001737
2006.53	0.0017507
2016.17	0.00171859
2025.82	0.0017435
2035.47	0.00170384
2045.11	0.0017552
2054.76	0.00167723
2064.41	0.00164144
2074.05	0.0016183
2083.7	0.0015916
2093.35	0.001589
2102.99	0.0015752
2112.64	0.001497
2122.28	0.001498
2131.93	0.001511
2141.58	0.001485
2151.22	0.001469
2160.87	0.00146
2170.52	0.001491
2180.16	0.001556
2189.81	0.0015521
2199.46	0.001512
2209.1	0.0015
2218.75	0.001524
2228.4	0.001509
2238.04	0.0015358
2247.69	0.001506
2257.34	0.001482
2266.98	0.001487
2276.63	0.001452
2286.28	0.001466
2295.92	0.001493
2305.57	0.001496
2315.22	0.001508
2324.86	0.001476
2334.51	0.001469
2344.16	0.001401
2353.8	0.001424
2363.45	0.00144
2373.09	0.001458
2382.74	0.001406
2392.39	0.001443
2402.03	0.001433
2411.68	0.001421
2421.33	0.001379
2430.97	0.001348
2440.62	0.001394
2450.27	0.001325
2459.91	0.001303
2469.56	0.001357
2479.21	0.001335
2488.85	0.001305
2498.5	0.001295
2508.15	0.001252
2517.79	0.001247
2527.44	0.001262
2537.09	0.001262
2546.73	0.001237
2556.38	0.001223
2566.03	0.001212
2575.67	0.001183
2585.32	0.001184
2594.96	0.001241
2604.61	0.001248
2614.26	0.001243
2623.9	0.00121
2633.55	0.001222
2643.2	0.001299
2652.84	0.001374
2662.49	0.001302
2672.14	0.001387
2681.78	0.001366
2691.43	0.001392
2701.08	0.001415
2710.72	0.001322
2720.37	0.001361
2730.02	0.001334
2739.66	0.001388
2749.31	0.00137
2758.96	0.001415
2768.6	0.001447
2778.25	0.0015638
2787.9	0.0016401
2797.54	0.00172067
2807.19	0.0019558
2816.84	0.0023034
2826.48	0.00273
2836.13	0.00337
2845.77	0.00463
2855.42	0.00784
2865.07	0.01243
2874.71	0.01359
2884.36	0.01134
2894.01	0.00984
2903.65	0.01158
2913.3	0.01639
2922.95	0.02275
2932.59	0.03068
2942.24	0.03796
2951.89	0.0353
2961.53	0.02612
2971.18	0.02112
2980.83	0.02055
2990.47	0.01751
3000.12	0.01127
3009.77	0.00732
3019.41	0.0048
3029.06	0.00313
3038.71	0.0022959
3048.35	0.0018158
3058	0.00137
3067.64	0.001188
3077.29	0.001164
3086.94	0.000875
3096.58	0.000855
3106.23	0.000746
3115.88	0.000687
3125.52	0.000647
3135.17	0.00058
3144.82	0.000729
3154.46	0.00054
3164.11	0.00048
3173.76	0.0004
3183.4	0.0004
3193.05	0.00033
3202.7	0.00035
3212.34	0.00041
3221.99	0.00018
3231.64	0.0001
3241.28	0.00021
3250.93	0.00019
3260.58	0.00016
3270.22	6e-05
3279.87	0
3289.52	6e-05
3299.16	0.00015
3308.81	0.00032
3318.45	0.0002
3328.1	0.00015
3337.75	0.0002
3347.39	9e-05
3357.04	0.00014
3366.69	0.00025
3376.33	0.00027
3385.98	0.00035
3395.63	0.00024
3405.27	0.00026
3414.92	0.00031
3424.57	0.00034
3434.21	0.00039
3443.86	0.00051
3453.51	0.00055
3463.15	0.00058
3472.8	0.000848
3482.45	0.00106
3492.09	0.001087
3501.74	0.001096
3511.39	0.001088
3521.03	0.00114
3530.68	0.001347
3540.33	0.0017847
3549.97	0.00264
3559.62	0.00561
3569.26	0.01643
3578.91	0.01991
3588.56	0.00616
3598.2	0.0025483
3607.85	0.001397
3617.5	0.001262
3627.14	0.000973
3636.79	0.001013
3646.44	0.000764
3656.08	0.000725
3665.73	0.000728
3675.38	0.000766
3685.02	0.000807
3694.67	0.000776
3704.32	0.000927
3713.96	0.000765
3723.61	0.000693
3733.26	0.000697
3742.9	0.000671
3752.55	0.000717
3762.2	0.000682
3771.84	0.000744
3781.49	0.000775
3791.13	0.000818
3800.78	0.000701
3810.43	0.000883
3820.07	0.00085
3829.72	0.000806
3839.37	0.000814
3849.01	0.000779
3858.66	0.000778
3868.31	0.00069
3877.95	0.000859
3887.6	0.000822
3897.25	0.000825
3906.89	0.000866
3916.54	0.00096
3926.19	0.000953
3935.83	0.000946
3945.48	0.000971
3955.13	0.000965
3964.77	0.000959
3974.42	0.000937
3984.07	0.001048
3993.71	0.00104
