Infrared Spectrum: 2,4-Difluorophenyl isothiocyanate
Formula: C 7 H 3 F 2 N S
CAS: 141106-52-7
State: gas
Origin: EPA-IR VAPOR PHASE LIBRARY
1/CM	ABSORBANCE
549.8	0.019087
559.445	0.021957
569.09	0.038647
578.734	0.038257
588.379	0.037287
598.024	0.043857
607.669	0.041677
617.313	0.021867
626.958	0.012357
636.603	0.011337
646.248	0.016437
655.893	0.021097
665.537	0.015107
675.182	0.007597
684.827	0.005097
694.472	0.004787
704.116	0.003737
713.761	0.003787
723.406	0.006167
733.051	0.011707
742.695	0.010507
752.34	0.004587
761.985	0.003647
771.63	0.003477
781.275	0.003697
790.919	0.011267
800.564	0.031067
810.209	0.047557
819.854	0.027807
829.498	0.012397
839.143	0.027727
848.788	0.063777
858.433	0.070717
868.078	0.034507
877.722	0.008327
887.367	0.006637
897.012	0.008527
906.657	0.008427
916.301	0.009637
925.946	0.015437
935.591	0.018647
945.236	0.014897
954.88	0.021007
964.525	0.077247
974.17	0.120847
983.815	0.037757
993.46	0.009857
1003.1	0.005187
1012.75	0.003637
1022.39	0.001837
1032.04	0.001642
1041.68	0.002387
1051.33	0.004477
1060.97	0.005867
1070.62	0.004447
1080.26	0.009277
1089.91	0.037927
1099.55	0.088957
1109.2	0.049477
1118.84	0.013227
1128.49	0.012757
1138.13	0.070747
1147.78	0.153077
1157.42	0.045437
1167.07	0.008107
1176.71	0.005157
1186.36	0.005487
1196	0.007967
1205.64	0.020887
1215.29	0.043807
1224.93	0.040687
1234.58	0.020407
1244.22	0.026517
1253.87	0.083447
1263.51	0.113137
1273.16	0.059557
1282.8	0.035977
1292.45	0.042927
1302.09	0.065247
1311.74	0.068367
1321.38	0.031027
1331.03	0.010057
1340.67	0.005017
1350.32	0.003697
1359.96	0.003197
1369.61	0.003537
1379.25	0.006227
1388.9	0.008467
1398.54	0.007517
1408.18	0.010157
1417.83	0.017037
1427.47	0.038427
1437.12	0.058847
1446.76	0.038427
1456.41	0.041117
1466.05	0.033197
1475.7	0.020537
1485.34	0.038337
1494.99	0.150937
1504.63	0.365017
1514.28	0.289757
1523.92	0.053377
1533.57	0.029007
1543.21	0.027027
1552.86	0.020117
1562.5	0.018827
1572.15	0.023807
1581.79	0.036757
1591.44	0.055387
1601.08	0.067597
1610.73	0.060957
1620.37	0.042307
1630.01	0.025597
1639.66	0.014277
1649.3	0.010557
1658.95	0.009057
1668.59	0.006817
1678.24	0.004857
1687.88	0.004367
1697.53	0.006187
1707.17	0.007727
1716.82	0.005947
1726.46	0.004947
1736.11	0.005167
1745.75	0.004847
1755.4	0.004157
1765.04	0.004217
1774.69	0.004467
1784.33	0.005097
1793.98	0.005837
1803.62	0.006137
1813.27	0.006777
1822.91	0.008197
1832.55	0.010107
1842.2	0.011487
1851.84	0.013387
1861.49	0.016877
1871.13	0.018217
1880.78	0.017947
1890.42	0.018487
1900.07	0.022457
1909.71	0.029737
1919.36	0.038997
1929	0.050827
1938.65	0.066487
1948.29	0.087187
1957.94	0.114157
1967.58	0.153447
1977.23	0.210367
1986.87	0.280267
1996.52	0.357587
2006.16	0.443407
2015.81	0.573287
2025.45	0.803777
2035.1	0.951327
2044.74	0.832887
2054.38	0.554737
2064.03	0.343937
2073.67	0.278667
2083.32	0.319107
2092.96	0.423787
2102.61	0.470947
2112.25	0.364507
2121.9	0.223497
2131.54	0.145697
2141.19	0.119217
2150.83	0.111797
2160.48	0.103297
2170.12	0.083107
2179.77	0.060787
2189.41	0.048347
2199.06	0.039047
2208.7	0.030097
2218.35	0.024367
2227.99	0.022557
2237.64	0.021707
2247.28	0.017957
2256.92	0.011727
2266.57	0.008027
2276.21	0.006667
2285.86	0.005817
2295.5	0.004897
2305.15	0.004427
2314.79	0.004757
2324.44	0.004597
2334.08	0.004617
2343.73	0.005387
2353.37	0.006417
2363.02	0.006607
2372.66	0.005917
2382.31	0.005537
2391.95	0.006147
2401.6	0.007737
2411.24	0.007877
2420.89	0.006837
2430.53	0.006497
2440.18	0.006077
2449.82	0.005787
2459.47	0.005677
2469.11	0.006037
2478.75	0.006727
2488.4	0.006807
2498.04	0.006927
2507.69	0.007557
2517.33	0.009077
2526.98	0.011227
2536.62	0.012167
2546.27	0.011427
2555.91	0.009157
2565.56	0.007337
2575.2	0.005937
2584.85	0.004627
2594.49	0.003817
2604.14	0.003737
2613.78	0.003487
2623.43	0.003107
2633.07	0.003257
2642.72	0.003897
2652.36	0.004777
2662.01	0.005767
2671.65	0.007167
2681.29	0.009827
2690.94	0.014407
2700.58	0.019447
2710.23	0.019337
2719.87	0.012397
2729.52	0.006777
2739.16	0.004527
2748.81	0.003837
2758.45	0.003557
2768.1	0.003327
2777.74	0.002587
2787.39	0.001927
2797.03	0.0017108
2806.68	0.0016964
2816.32	0.001927
2825.97	0.001847
2835.61	0.001777
2845.26	0.001957
2854.9	0.002167
2864.55	0.001977
2874.19	0.001917
2883.84	0.001867
2893.48	0.001967
2903.12	0.002107
2912.77	0.002427
2922.41	0.002767
2932.06	0.003067
2941.7	0.003487
2951.35	0.004147
2960.99	0.005067
2970.64	0.004857
2980.28	0.004057
2989.93	0.003157
2999.57	0.002527
3009.22	0.002267
3018.86	0.002537
3028.51	0.002977
3038.15	0.002927
3047.8	0.002737
3057.44	0.002987
3067.09	0.003317
3076.73	0.003217
3086.38	0.004037
3096.02	0.003587
3105.67	0.002137
3115.31	0.001418
3124.95	0.000725
3134.6	0.000658
3144.24	0.00063
3153.89	0.000378
3163.53	0.000403
3173.18	0.00017
3182.82	0.000503
3192.47	0.000354
3202.11	0.000169
3211.76	0.000295
3221.4	0.000421
3231.05	0.000309
3240.69	0.000338
3250.34	0.00044
3259.98	0.000365
3269.63	0.000133
3279.27	6.6e-05
3288.92	0.000299
3298.56	0.000296
3308.21	0.00011
3317.85	0.000208
3327.49	0.000288
3337.14	0.00056
3346.78	0.000304
3356.43	0.000331
3366.07	0.000456
3375.72	0.000391
3385.36	0.00034
3395.01	0.00018
3404.65	0.00022
3414.3	0.000372
3423.94	0.000439
3433.59	0.000324
3443.23	0.000264
3452.88	0.000441
3462.52	0.000444
3472.17	0.000296
3481.81	0.000415
3491.46	0.000316
3501.1	0.000488
3510.75	0.000255
3520.39	0.000309
3530.04	0.000416
3539.68	0.000431
3549.32	0.000429
3558.97	0.000475
3568.61	0.000597
3578.26	0.000624
3587.9	0.000465
3597.55	0.0006748
3607.19	0.000565
3616.84	0.000527
3626.48	0.00072955
3636.13	0.000393
3645.77	0.00073562
3655.42	0.0006903
3665.06	0.0006619
3674.71	0.000496
3684.35	0.000571
3694	0.000583
3703.64	0.000615
3713.29	0.0008461
3722.93	0.00052
3732.58	0.00076065
3742.22	0.000536
3751.86	0.0008452
3761.51	0.00075747
3771.15	0.00078298
3780.8	0.00079533
3790.44	0.0008613
3800.09	0.0009109
3809.73	0.0009903
3819.38	0.0008762
3829.02	0.0010266
3838.67	0.0011343
3848.31	0.0008796
3857.96	0.0011932
3867.6	0.0011456
3877.25	0.0014457
3886.89	0.0012812
3896.54	0.001473
3906.18	0.0015592
3915.83	0.0015092
3925.47	0.001827
3935.12	0.001927
3944.76	0.002037
3954.41	0.002217
3964.05	0.002497
3973.69	0.002567
3983.34	0.002807
3992.98	0.002987
