Infrared Spectrum: Manganese, bis(1-phenyl-1,3-butanedionato)-
Formula: C20 H18 Mn O4
CAS: 14128-86-0
State: SOLID (SPLIT MULL), FLUOROLUBE FOR 3800-1340 CM^-^1, NUJOL FOR 1340-400 CM^-^1
Class: COBLENTZ III
Instrument: BECKMAN IR-9 (GRATING)
Instrument parameters: ORDER CHANGES: 670, 1200, 2000 CM^-^1
Sampling: TRANSMISSION
Resolution: 2
Origin: DOW CHEMICAL COMPANY
1/CM	TRANSMITTANCE
409	0.5151
418	0.5163
427	0.5259
436	0.6401
445	0.7011
454	0.7269
463	0.7619
472	0.7919
481	0.8047
490	0.8029
499	0.7979
508	0.787
517	0.7177
526	0.715
535	0.7289
544	0.743
553	0.7638
562	0.773
571	0.7095
580	0.7254
589	0.7863
598	0.8175
607	0.8221
616	0.8416
625	0.8292
634	0.8689
643	0.8757
652	0.8777
661	0.8784
670	0.8752
679	0.8521
688	0.7631
697	0.7019
706	0.7953
715	0.4596
724	0.4744
733	0.814
742	0.8565
751	0.8704
760	0.7958
769	0.5302
778	0.7745
787	0.8649
796	0.8971
805	0.8135
814	0.9067
823	0.913
832	0.9097
841	0.8765
850	0.6227
859	0.8151
868	0.898
877	0.9133
886	0.9114
895	0.9056
904	0.8999
913	0.8982
922	0.8842
931	0.8546
940	0.8372
949	0.8447
958	0.7328
967	0.7763
976	0.822
985	0.825
994	0.8015
1003	0.6341
1012	0.6487
1021	0.7993
1030	0.7036
1039	0.8443
1048	0.8672
1057	0.8705
1066	0.8514
1075	0.7019
1084	0.842
1093	0.8544
1102	0.8024
1111	0.7499
1120	0.8418
1129	0.8494
1138	0.8476
1147	0.8422
1156	0.8162
1165	0.8204
1174	0.8036
1183	0.7668
1192	0.7776
1201	0.7789
1210	0.7596
1219	0.7123
1228	0.8059
1237	0.7975
1246	0.769
1255	0.722
1264	0.6653
1273	0.5477
1282	0.3562
1291	0.4653
1300	0.6187
1309	0.5711
1318	0.6159
1327	0.6997
1336	0.6856
1345	0.5888
1354	0.4694
1363	0.4344
1372	0.373
1381	0.333
1390	0.1975
1399	0.1998
1408	0.1553
1417	0.2124
1426	0.435
1435	0.5111
1444	0.5613
1453	0.5665
1462	0.3181
1471	0.5743
1480	0.6065
1489	0.4653
1498	0.2157
1507	0.4699
1516	0.2325
1525	0.1756
1534	0.2551
1543	0.2755
1552	0.4415
1561	0.3921
1570	0.2208
1579	0.3559
1588	0.6205
1597	0.4823
1606	0.3246
1615	0.5847
1624	0.705
1633	0.7751
1642	0.7906
1651	0.7401
1660	0.8191
1669	0.861
1678	0.8763
1687	0.8807
1696	0.8844
1705	0.8874
1714	0.8896
1723	0.891
1732	0.8907
1741	0.891
1750	0.8908
1759	0.8922
1768	0.8955
1777	0.8937
1786	0.8895
1795	0.8849
1804	0.882
1813	0.8789
1822	0.8725
1831	0.8769
1840	0.8711
1849	0.8763
1858	0.8764
1867	0.8747
1876	0.8722
1885	0.868
1894	0.8647
1903	0.8617
1912	0.8595
1921	0.8566
1930	0.8561
1939	0.8583
1948	0.8571
1957	0.8528
1966	0.8496
1975	0.8445
1984	0.8445
1993	0.8458
2002	0.8463
2011	0.8438
2020	0.8404
2029	0.8456
2038	0.8431
2047	0.8409
2056	0.8387
2065	0.8362
2074	0.8336
2083	0.831
2092	0.8278
2101	0.8248
2110	0.8218
2119	0.8188
2128	0.8158
2137	0.8126
2146	0.8095
2155	0.806
2164	0.8026
2173	0.7999
2182	0.7972
2191	0.7945
2200	0.7918
2209	0.7891
2218	0.7863
2227	0.7834
2236	0.7806
2245	0.7778
2254	0.7753
2263	0.7728
2272	0.7704
2281	0.7679
2290	0.7655
2299	0.7635
2308	0.7613
2317	0.759
2326	0.7567
2335	0.7544
2344	0.7534
2353	0.7523
2362	0.7529
2371	0.7542
2380	0.7562
2389	0.7599
2398	0.7604
2407	0.7526
2416	0.7493
2425	0.7478
2434	0.7466
2443	0.7453
2452	0.7441
2461	0.7428
2470	0.7418
2479	0.7413
2488	0.7411
2497	0.741
2506	0.7408
2515	0.7402
2524	0.7396
2533	0.739
2542	0.7387
2551	0.7384
2560	0.7381
2569	0.7377
2578	0.7371
2587	0.7365
2596	0.7359
2605	0.7352
2614	0.7341
2623	0.733
2632	0.732
2641	0.7306
2650	0.7293
2659	0.7279
2668	0.7266
2677	0.7249
2686	0.7229
2695	0.721
2704	0.7189
2713	0.7156
2722	0.7131
2731	0.7115
2740	0.7102
2749	0.7089
2758	0.7074
2767	0.7049
2776	0.7025
2785	0.7
2794	0.6974
2803	0.6947
2812	0.692
2821	0.6893
2830	0.6865
2839	0.6837
2848	0.6809
2857	0.678
2866	0.6747
2875	0.6705
2884	0.6661
2893	0.6657
2902	0.6654
2911	0.6628
2920	0.6581
2929	0.6518
2938	0.6446
2947	0.6372
2956	0.639
2965	0.6429
2974	0.6459
2983	0.6447
2992	0.6423
3001	0.6397
3010	0.636
3019	0.6297
3028	0.6295
3037	0.6326
3046	0.6306
3055	0.627
3064	0.6218
3073	0.6158
3082	0.6096
3091	0.6082
3100	0.6117
3109	0.6144
3118	0.6154
3127	0.614
3136	0.6127
3145	0.6104
3154	0.608
3163	0.6052
3172	0.6017
3181	0.5979
3190	0.5929
3199	0.5871
3208	0.5816
3217	0.5762
3226	0.5712
3235	0.5667
3244	0.5638
3253	0.5623
3262	0.5612
3271	0.5605
3280	0.5596
3289	0.5582
3298	0.5552
3307	0.5498
3316	0.5431
3325	0.5343
3334	0.5257
3343	0.5184
3352	0.5121
3361	0.5079
3370	0.5063
3379	0.5068
3388	0.5093
3397	0.5136
3406	0.5174
3415	0.5221
3424	0.5273
3433	0.533
3442	0.5391
3451	0.5452
3460	0.5519
3469	0.5584
3478	0.5646
3487	0.5693
3496	0.5739
3505	0.5794
3514	0.5848
3523	0.59
3532	0.5941
3541	0.598
3550	0.6019
3559	0.6051
3568	0.6077
3577	0.6104
3586	0.6127
3595	0.6144
3604	0.6151
3613	0.6159
3622	0.6161
3631	0.6161
3640	0.6158
3649	0.615
3658	0.6141
3667	0.6127
3676	0.6109
3685	0.6088
3694	0.6065
3703	0.6032
3712	0.5977
3721	0.5933
3730	0.5983
3739	0.5993
3748	0.5983
3757	0.597
3766	0.5957
3775	0.5944
3784	0.5934
3793	0.5928
