Infrared Spectrum: 1H-NAPHTH[1,2-d]IMIDAZOLE, 1-(P-BROMOANILINO)-2-(P-NITROPHENYL)-
Formula: C23 H15 Br N4 O2
CAS: 14135-28-5
State: SOLID (KBr DISC)
Class: COBLENTZ III
Instrument: UNICAM SP-200
Sampling: TRANSMISSION
Resolution: 4
Origin: HUNGARIAN ACAD. OF SCI., VIA SCIENTIFIC DOC. CENTRE LTD.
1/CM	TRANSMITTANCE
652.385	0.771
663.516	0.795
674.646	0.774
685.777	0.744
696.908	0.5679
708.039	0.677
719.169	0.754
730.3	0.796
741.431	0.723
752.562	0.5581
763.692	0.729
774.823	0.785
785.954	0.78
797.085	0.781
808.215	0.6071
819.346	0.344
830.477	0.54
841.607	0.705
852.738	0.659
863.869	0.503
875	0.745
886.13	0.794
897.261	0.776
908.392	0.781
919.523	0.8
930.653	0.805
941.784	0.8
952.915	0.785
964.046	0.786
975.176	0.784
986.307	0.783
997.438	0.77
1008.57	0.704
1019.7	0.732
1030.83	0.738
1041.96	0.74
1053.09	0.755
1064.22	0.668
1075.35	0.685
1086.48	0.714
1097.61	0.666
1108.75	0.589
1119.88	0.675
1131.01	0.712
1142.14	0.716
1153.27	0.725
1164.4	0.72
1175.53	0.711
1186.66	0.747
1197.79	0.749
1208.92	0.737
1220.05	0.709
1231.18	0.696
1242.31	0.747
1253.44	0.736
1264.58	0.719
1275.71	0.687
1286.84	0.627
1297.97	0.641
1309.1	0.555
1320.23	0.583
1331.36	0.487
1342.49	0.122
1353.62	0.479
1364.75	0.668
1375.88	0.647
1387.01	0.691
1398.14	0.715
1409.27	0.712
1420.41	0.669
1431.54	0.658
1442.67	0.703
1453.8	0.709
1464.93	0.667
1476.06	0.598
1487.19	0.374
1498.32	0.535
1509.45	0.4041
1520.58	0.283
1531.71	0.479
1542.84	0.745
1553.97	0.766
1565.11	0.764
1576.24	0.669
1587.37	0.4831
1598.5	0.535
1609.63	0.718
1620.76	0.739
1631.89	0.758
1643.02	0.77
1654.15	0.766
1665.28	0.757
1676.41	0.758
1687.54	0.761
1698.67	0.767
1709.8	0.767
1720.94	0.769
1732.07	0.765
1743.2	0.767
1754.33	0.77
1765.46	0.776
1776.59	0.781
1787.72	0.772
1798.85	0.783
1809.98	0.78
1821.11	0.782
1832.24	0.781
1843.37	0.779
1854.5	0.767
1865.63	0.768
1876.77	0.767
1887.9	0.767
1899.03	0.764
1910.16	0.763
1921.29	0.767
1932.42	0.763
1943.55	0.763
1954.68	0.768
1965.81	0.769
1976.94	0.769
1988.07	0.765
1999.2	0.768
2010.33	0.768
2021.47	0.768
2032.6	0.768
2043.73	0.766
2054.86	0.765
2065.99	0.765
2077.12	0.7626
2088.25	0.761
2099.38	0.759
2110.51	0.759
2121.64	0.759
2132.77	0.756
2143.9	0.756
2155.03	0.7561
2166.16	0.756
2177.3	0.753
2188.43	0.7523
2199.56	0.75
2210.69	0.749
2221.82	0.7507
2232.95	0.749
2244.08	0.747
2255.21	0.7431
2266.34	0.742
2277.47	0.741
2288.6	0.7385
2299.73	0.739
2310.86	0.739
2322	0.74
2333.13	0.7406
2344.26	0.744
2355.39	0.7397
2366.52	0.732
2377.65	0.729
2388.78	0.7268
2399.91	0.7275
2411.04	0.725
2422.17	0.7232
2433.3	0.7186
2444.43	0.717
2455.56	0.718
2466.69	0.719
2477.83	0.719
2488.96	0.72
2500.09	0.7195
2511.22	0.717
2522.35	0.715
2533.48	0.7139
2544.61	0.708
2555.74	0.7068
2566.87	0.7033
2578	0.7018
2589.13	0.701
2600.26	0.701
2611.39	0.701
2622.52	0.6997
2633.66	0.699
2644.79	0.6944
2655.92	0.6852
2667.05	0.685
2678.18	0.687
2689.31	0.685
2700.44	0.6799
2711.57	0.68
2722.7	0.6789
2733.83	0.678
2744.96	0.6747
2756.09	0.6744
2767.22	0.6738
2778.36	0.665
2789.49	0.6565
2800.62	0.653
2811.75	0.648
2822.88	0.6442
2834.01	0.638
2845.14	0.6371
2856.27	0.635
2867.4	0.632
2878.53	0.626
2889.66	0.62
2900.79	0.6054
2911.92	0.5999
2923.05	0.5894
2934.19	0.5779
2945.32	0.5743
2956.45	0.5728
2967.58	0.573
2978.71	0.574
2989.84	0.574
3000.97	0.574
3012.1	0.574
3023.23	0.5764
3034.36	0.5798
3045.49	0.581
3056.62	0.581
3067.75	0.5736
3078.88	0.567
3090.02	0.5373
3101.15	0.5165
3112.28	0.5022
3123.41	0.4968
3134.54	0.494
3145.67	0.4967
3156.8	0.5047
3167.93	0.5192
3179.06	0.5273
3190.19	0.5382
3201.32	0.5496
3212.45	0.565
3223.58	0.5747
3234.72	0.578
3245.85	0.5809
3256.98	0.5875
3268.11	0.59
3279.24	0.595
3290.37	0.599
3301.5	0.6057
3312.63	0.6102
3323.76	0.6163
3334.89	0.62
3346.02	0.6207
3357.15	0.6262
3368.28	0.6297
3379.41	0.634
3390.55	0.6356
3401.68	0.637
3412.81	0.637
3423.94	0.636
3435.07	0.635
3446.2	0.6336
3457.33	0.633
3468.46	0.632
3479.59	0.632
3490.72	0.632
3501.85	0.631
3512.98	0.631
3524.11	0.6319
3535.24	0.6303
3546.38	0.629
3557.51	0.629
3568.64	0.629
3579.77	0.6308
3590.9	0.6343
3602.03	0.634
3613.16	0.636
3624.29	0.637
3635.42	0.6356
3646.55	0.635
3657.68	0.6375
3668.81	0.638
3679.94	0.637
3691.08	0.636
3702.21	0.638
3713.34	0.637
3724.47	0.636
3735.6	0.632
3746.73	0.63
3757.86	0.631
3768.99	0.631
3780.12	0.6317
3791.25	0.6292
3802.38	0.627
3813.51	0.6271
3824.64	0.625
3835.77	0.6249
3846.91	0.629
3858.04	0.63
3869.17	0.629
3880.3	0.6229
3891.43	0.6204
3902.56	0.62
3913.69	0.62
3924.82	0.62
3935.95	0.6214
3947.08	0.6236
3958.21	0.6193
3969.34	0.618
3980.47	0.6152
3991.61	0.613
4002.74	0.611
4013.87	0.61
4025	0.61
4036.13	0.61
4047.26	0.61
4058.39	0.609
4069.52	0.611
4080.65	0.61
4091.78	0.608
4102.91	0.6044
4114.04	0.606
4125.17	0.6047
4136.3	0.603
4147.44	0.604
4158.57	0.6037
4169.7	0.6012
4180.83	0.601
4191.96	0.602
4203.09	0.6016
4214.22	0.5981
4225.35	0.596
4236.48	0.597
4247.61	0.5985
4258.74	0.599
4269.87	0.5965
4281	0.597
4292.13	0.597
4303.27	0.5909
4314.4	0.591
4325.53	0.592
4336.66	0.5906
4347.79	0.59
4358.92	0.59
4370.05	0.59
4381.18	0.5872
4392.31	0.587
4403.44	0.587
4414.57	0.5862
4425.7	0.585
4436.83	0.5821
4447.97	0.578
4459.1	0.58
4470.23	0.581
4481.36	0.582
4492.49	0.5799
4503.62	0.5767
4514.75	0.5728
4525.88	0.5734
4537.01	0.575
4548.14	0.574
4559.27	0.574
4570.4	0.5722
4581.53	0.571
4592.66	0.571
4603.8	0.572
4614.93	0.5701
4626.06	0.5665
4637.19	0.565
4648.32	0.564
4659.45	0.564
4670.58	0.563
4681.71	0.563
4692.84	0.563
4703.97	0.563
4715.1	0.563
4726.23	0.562
4737.36	0.562
4748.49	0.562
4759.63	0.561
4770.76	0.56
4781.89	0.559
4793.02	0.558
4804.15	0.557
4815.28	0.557
4826.41	0.557
4837.54	0.56
4848.67	0.56
4859.8	0.5584
4870.93	0.557
4882.06	0.5554
4893.19	0.5549
4904.33	0.554
4915.46	0.553
4926.59	0.553
4937.72	0.553
4948.85	0.553
4959.98	0.553
4971.11	0.553
