Infrared Spectrum: Picloram-methyl ester
Formula: C 7 H 5 Cl 3 N 2 O 2
CAS: 14143-55-6
State: gas
Instrument: HP-GC/MS/IRD
Origin: NIST Mass Spectrometry Data Center
1/CM	ABSORBANCE
550	0.001152
562	0.000224
574	0.0007584
586	0.0011616
598	0.000512
610	0.0002144
622	0.0001184
634	0.0010336
646	0.0028672
658	0.00184
670	0.0012128
682	0.000784
694	0.0005888
706	0.0003712
718	0.0005376
730	0.001184
742	0.002544
754	0.0037056
766	0.0032544
778	0.0024704
790	0.0017536
802	0.0009344
814	0.0007072
826	0.0007296
838	0.0009952
850	0.0011424
862	0.0011136
874	0.001072
886	0.0017536
898	0.0017856
910	0.0012032
922	0.0014048
934	0.0019424
946	0.00384
958	0.0038848
970	0.0012064
982	0.0007552
994	0.0012864
1006	0.0044128
1018	0.0112512
1030	0.00504
1042	0.0012384
1054	0.0010048
1066	0.0018176
1078	0.0030656
1090	0.0051296
1102	0.0081536
1114	0.0058208
1126	0.0040896
1138	0.002544
1150	0.0022112
1162	0.003344
1174	0.007856
1186	0.0144544
1198	0.0191328
1210	0.02424
1222	0.0178496
1234	0.0098624
1246	0.0052832
1258	0.0030976
1270	0.0039392
1282	0.0084512
1294	0.0217952
1306	0.0312192
1318	0.0123648
1330	0.0046784
1342	0.0021184
1354	0.00144
1366	0.0015008
1378	0.0021408
1390	0.0056096
1402	0.006864
1414	0.0041792
1426	0.0064672
1438	0.0091584
1450	0.0068096
1462	0.0023552
1474	0.0014656
1486	0.0010624
1498	0.0008928
1510	0.0010144
1522	0.0026272
1534	0.0079072
1546	0.0069824
1558	0.0019424
1570	0.0011904
1582	0.0022208
1594	0.0077952
1606	0.026832
1618	0.0189984
1630	0.0049216
1642	0.0019104
1654	0.001056
1666	0.0007296
1678	0.0006016
1690	0.0005152
1702	0.0007072
1714	0.0014016
1726	0.0025984
1738	0.005744
1750	0.0094624
1762	0.0190272
1774	0.013056
1786	0.006384
1798	0.00224
1810	0.0010528
1822	0.0005696
1834	0.0003616
1846	0.0002304
1858	0.0002144
1870	0.0002144
1882	0.0001952
1894	0.000128
1906	0.000112
1918	4.8e-05
1930	9.6e-06
1942	3.2e-06
1954	6.72e-05
1966	0.0001504
1978	0.0001632
1990	0.0001408
2002	0.0001312
2014	0.0001376
2026	0.0001184
2038	0.0001024
2050	9.92e-05
2062	7.04e-05
2074	0.0001152
2086	0.0001376
2098	0.0001472
2110	0.0001632
2122	0.00016
2134	0.0001056
2146	0.0001152
2158	9.6e-05
2170	0.0001024
2182	0.000128
2194	0.0001632
2206	0.000112
2218	6.4e-05
2230	5.12e-05
2242	6.72e-05
2254	5.76e-05
2266	7.68e-05
2278	6.08e-05
2290	7.36e-05
2302	5.44e-05
2314	5.76e-05
2326	9.92e-05
2338	0.0001248
2350	0.0001152
2362	0.0001408
2374	0.0001216
2386	0.0001888
2398	0.00016
2410	0.00016
2422	0.000144
2434	0.0001216
2446	0.0001216
2458	8.32e-05
2470	6.08e-05
2482	8.64e-05
2494	9.92e-05
2506	0.0001152
2518	0.000144
2530	0.0002496
2542	0.0002912
2554	0.0002464
2566	0.000208
2578	0.000144
2590	0.0001408
2602	0.0001376
2614	7.04e-05
2626	0.0001056
2638	0.000112
2650	0.0001888
2662	0.0002272
2674	0.0001792
2686	0.000208
2698	0.0002528
2710	0.0002048
2722	0.0001632
2734	0.0001536
2746	8.32e-05
2758	8.96e-05
2770	0.0001056
2782	0.0001152
2794	0.0001312
2806	0.000176
2818	0.0002624
2830	0.000352
2842	0.0005184
2854	0.0006816
2866	0.0006208
2878	0.0003744
2890	0.0004608
2902	0.0005984
2914	0.0006944
2926	0.0006784
2938	0.0007872
2950	0.0016736
2962	0.0049856
2974	0.001824
2986	0.0009312
2998	0.0008864
3010	0.0009568
3022	0.0009056
3034	0.00088
3046	0.0006912
3058	0.0004896
3070	0.0004128
3082	0.0004192
3094	0.000352
3106	0.0002784
3118	0.0003296
3130	0.0002752
3142	0.0002624
3154	0.0002816
3166	0.0001472
3178	0.0001632
3190	0.0001344
3202	0.0002144
3214	0.0002432
3226	0.0002048
3238	0.0002112
3250	0.0001312
3262	0.0001376
3274	9.28e-05
3286	8.32e-05
3298	0.0001184
3310	0.0001504
3322	7.36e-05
3334	0.0001408
3346	0.0001472
3358	0.000176
3370	0.0003584
3382	0.000608
3394	0.0011616
3406	0.0024064
3418	0.00352
3430	0.0047264
3442	0.0030688
3454	0.0008064
3466	0.0006464
3478	0.000848
3490	0.0013248
3502	0.002112
3514	0.0030048
3526	0.0027328
3538	0.0040288
3550	0.003088
3562	0.0006624
3574	0.0003296
3586	0.0002112
3598	0.0001632
3610	0.0001792
3622	0.0001696
3634	0.0001152
3646	0.000128
3658	0.0001184
3670	0.0001024
3682	9.6e-05
3694	0.0001856
3706	0.0001664
3718	0.0001696
3730	0.0001152
3742	0.0001824
3754	0.0002336
3766	0.0001984
3778	8e-05
3790	0.0001408
3802	6.08e-05
3814	8.96e-05
3826	0.000144
3838	0.0001664
