Infrared Spectrum: 2-Fluoro-5-(trifluoromethyl)phenol
Formula: C 7 H 4 F 4 O
CAS: 141483-15-0
State: gas
Origin: EPA-IR VAPOR PHASE LIBRARY
1/CM	ABSORBANCE
549.8	0.00321
559.445	0.00671
569.09	0.00918
578.734	0.0064
588.379	0.00711
598.024	0.01202
607.669	0.01173
617.313	0.05082
626.958	0.07974
636.603	0.03283
646.248	0.02735
655.893	0.02817
665.537	0.0136
675.182	0.00516
684.827	0.00318
694.472	0.00318
704.116	0.00626
713.761	0.01263
723.406	0.01438
733.051	0.01128
742.695	0.02257
752.34	0.02697
761.985	0.04407
771.63	0.10707
781.275	0.06819
790.919	0.01627
800.564	0.03493
810.209	0.06833
819.854	0.06799
829.498	0.03489
839.143	0.01203
848.788	0.00953
858.433	0.01423
868.078	0.02652
877.722	0.04447
887.367	0.05059
897.012	0.04
906.657	0.05606
916.301	0.11502
925.946	0.09637
935.591	0.02652
945.236	0.00985
954.88	0.00583
964.525	0.00491
974.17	0.00458
983.815	0.00517
993.46	0.00648
1003.1	0.0066
1012.75	0.00753
1022.39	0.00801
1032.04	0.00892
1041.68	0.01193
1051.33	0.03262
1060.97	0.0855
1070.62	0.07143
1080.26	0.02789
1089.91	0.02809
1099.55	0.06653
1109.2	0.14129
1118.84	0.15176
1128.49	0.16494
1138.13	0.3252
1147.78	0.58529
1157.42	0.48928
1167.07	0.4606
1176.71	0.58949
1186.36	0.39713
1196	0.19678
1205.64	0.24573
1215.29	0.24362
1224.93	0.16143
1234.58	0.09648
1244.22	0.04466
1253.87	0.04663
1263.51	0.07179
1273.16	0.11157
1282.8	0.15176
1292.45	0.11843
1302.09	0.10546
1311.74	0.23955
1321.38	0.54267
1331.03	0.73226
1340.67	0.49921
1350.32	0.22563
1359.96	0.08252
1369.61	0.04676
1379.25	0.03558
1388.9	0.02592
1398.54	0.01883
1408.18	0.02256
1417.83	0.03089
1427.47	0.04037
1437.12	0.0564
1446.76	0.0871
1456.41	0.13889
1466.05	0.10424
1475.7	0.0337
1485.34	0.02541
1494.99	0.03877
1504.63	0.10776
1514.28	0.2028
1523.92	0.14866
1533.57	0.05972
1543.21	0.03392
1552.86	0.01425
1562.5	0.01057
1572.15	0.01358
1581.79	0.02142
1591.44	0.03096
1601.08	0.05197
1610.73	0.07633
1620.37	0.07205
1630.01	0.05344
1639.66	0.03239
1649.3	0.01602
1658.95	0.00888
1668.59	0.00592
1678.24	0.00468
1687.88	0.00409
1697.53	0.00348
1707.17	0.00299
1716.82	0.00275
1726.46	0.00336
1736.11	0.00505
1745.75	0.00771
1755.4	0.00862
1765.04	0.0083
1774.69	0.00644
1784.33	0.00426
1793.98	0.00336
1803.62	0.00346
1813.27	0.00332
1822.91	0.00307
1832.55	0.00298
1842.2	0.00325
1851.84	0.00393
1861.49	0.00622
1871.13	0.00711
1880.78	0.00554
1890.42	0.00395
1900.07	0.00291
1909.71	0.00269
1919.36	0.00271
1929	0.00215
1938.65	0.00203
1948.29	0.00194
1957.94	0.0019
1967.58	0.00165
1977.23	0.00172
1986.87	0.00164
1996.52	0.00148
2006.16	0.00151
2015.81	0.00166
2025.45	0.00293
2035.1	0.00437
2044.74	0.00415
2054.38	0.00312
2064.03	0.0028
2073.67	0.0032
2083.32	0.00304
2092.96	0.00267
2102.61	0.00247
2112.25	0.0029
2121.9	0.00351
2131.54	0.0034
2141.19	0.00258
2150.83	0.0017
2160.48	0.00163
2170.12	0.00183
2179.77	0.00178
2189.41	0.0019
2199.06	0.00231
2208.7	0.00234
2218.35	0.00247
2227.99	0.00258
2237.64	0.00277
2247.28	0.00284
2256.92	0.00329
2266.57	0.00366
2276.21	0.0047
2285.86	0.00496
2295.5	0.00452
2305.15	0.00378
2314.79	0.0039
2324.44	0.00407
2334.08	0.0037
2343.73	0.00367
2353.37	0.00324
2363.02	0.00314
2372.66	0.00311
2382.31	0.00331
2391.95	0.00372
2401.6	0.00317
2411.24	0.00257
2420.89	0.00229
2430.53	0.00247
2440.18	0.00274
2449.82	0.00319
2459.47	0.00334
2469.11	0.00345
2478.75	0.00302
2488.4	0.00348
2498.04	0.00337
2507.69	0.0029
2517.33	0.0038
2526.98	0.00468
2536.62	0.00481
2546.27	0.00372
2555.91	0.00271
2565.56	0.0024
2575.2	0.00164
2584.85	0.00115
2594.49	0.00158
2604.14	0.00197
2613.78	0.00168
2623.43	0.00216
2633.07	0.00257
2642.72	0.00254
2652.36	0.00367
2662.01	0.00417
2671.65	0.00409
2681.29	0.00274
2690.94	0.00157
2700.58	0.00142
2710.23	0.00113
2719.87	0.00112
2729.52	0.00134
2739.16	0.00111
2748.81	0.00118
2758.45	0.00168
2768.1	0.00242
2777.74	0.00252
2787.39	0.00249
2797.03	0.002
2806.68	0.00183
2816.32	0.00195
2825.97	0.0018
2835.61	0.00224
2845.26	0.00154
2854.9	0.00112
2864.55	0.0007298
2874.19	0.00135
2883.84	0.00114
2893.48	0.0009946
2903.12	0.00134
2912.77	0.00105
2922.41	0.00108
2932.06	0.00143
2941.7	0.00123
2951.35	0.00172
2960.99	0.00151
2970.64	0.00163
2980.28	0.00165
2989.93	0.0008162
2999.57	0.00119
3009.22	0.00112
3018.86	0.00135
3028.51	0.00148
3038.15	0.00161
3047.8	0.00167
3057.44	0.00189
3067.09	0.00207
3076.73	0.00349
3086.38	0.0052
3096.02	0.00407
3105.67	0.00203
3115.31	0.0014
3124.95	0.0009448
3134.6	0.0009239
3144.24	0.0006938
3153.89	0.0009426
3163.53	0.0006681
3173.18	0.0008715
3182.82	0.0007997
3192.47	0.00125
3202.11	0.0008875
3211.76	0.0006019
3221.4	0.0009234
3231.05	0.0017
3240.69	0.00191
3250.34	0.00274
3259.98	0.00229
3269.63	0.00195
3279.27	0.00186
3288.92	0.00231
3298.56	0.00194
3308.21	0.00172
3317.85	0.00173
3327.49	0.0017
3337.14	0.00163
3346.78	0.00165
3356.43	0.00151
3366.07	0.00115
3375.72	0.00185
3385.36	0.0009658
3395.01	0.00122
3404.65	0.00122
3414.3	0.00153
3423.94	0.00117
3433.59	0.00117
3443.23	0.0015
3452.88	0.0009071
3462.52	0.0002298
3472.17	0.00081
3481.81	0.00109
3491.46	0.0006393
3501.1	0.0006545
3510.75	0.00111
3520.39	0.00103
3530.04	0.0007647
3539.68	0.0008959
3549.32	0.0011
3558.97	0.00149
3568.61	0.00203
3578.26	0.00213
3587.9	0.00285
3597.55	0.0051
3607.19	0.01329
3616.84	0.08915
3626.48	0.24751
3636.13	0.13839
3645.77	0.02745
3655.42	0.01942
3665.06	0.00941
3674.71	0.00382
3684.35	0.0018
3694	0.00191
3703.64	0.00142
3713.29	0.00139
3722.93	0.00149
3732.58	0.00112
3742.22	0.0007651
3751.86	0.0006619
3761.51	0.0007439
3771.15	0.0004995
3780.8	0.0006434
3790.44	0.00116
3800.09	8.994e-05
3809.73	0.0009407
3819.38	0.00131
3829.02	0.0011
3838.67	0.0008368
3848.31	0.0006735
3857.96	0.00145
3867.6	0.0014
3877.25	0.00141
3886.89	0.0005381
3896.54	0.00145
3906.18	0.0013
3915.83	0.00166
3925.47	0.00198
3935.12	0.00162
3944.76	0.00128
3954.41	0.00144
3964.05	0.00161
3973.69	0.0014
3983.34	0.00195
3992.98	0.00213
