Infrared Spectrum: 3-HYDROXY-2-QUINOXALINEACETIC ACID, ETHYL ESTER
Formula: C12 H12 N2 O3
CAS: 14152-56-8
State: SOLID (SPLIT MULL), FLUOROLUBE FOR 3800-1330 CM^-^1, NUJOL FOR 1330-450 CM^-^1
Class: COBLENTZ III
Instrument: DOW KBr FOREPRISM-GRATING
Instrument parameters: BLAZED AT 3.5, 12.0, 20.0 MICRON AND CHANGED AT 5.0, 7.5, 14.9 MICRON
Sampling: TRANSMISSION
Resolution: 2
Origin: DOW CHEMICAL COMPANY
1/CM	TRANSMITTANCE
468.328	0.823
477.126	0.839
485.923	0.843
494.721	0.848
503.519	0.849
512.316	0.85
521.114	0.848
529.912	0.841
538.709	0.853
547.507	0.852
556.305	0.843
565.102	0.846
573.9	0.837
582.697	0.763
591.495	0.839
600.293	0.856
609.09	0.83
617.888	0.682
626.686	0.871
635.483	0.875
644.281	0.872
653.079	0.868
661.876	0.866
670.674	0.859
679.472	0.85
688.269	0.83
697.067	0.759
705.865	0.593
714.662	0.602
723.46	0.774
732.258	0.795
741.055	0.693
749.853	0.6
758.651	0.43
767.448	0.828
776.246	0.77
785.043	0.853
793.841	0.854
802.639	0.832
811.436	0.712
820.234	0.799
829.032	0.874
837.829	0.861
846.627	0.812
855.425	0.812
864.222	0.744
873.02	0.636
881.818	0.714
890.615	0.794
899.413	0.842
908.211	0.867
917.008	0.871
925.806	0.843
934.604	0.791
943.401	0.871
952.199	0.878
960.997	0.877
969.794	0.877
978.592	0.879
987.39	0.868
996.187	0.89
1004.98	0.886
1013.78	0.878
1022.58	0.856
1031.38	0.806
1040.18	0.743
1048.97	0.541
1057.77	0.809
1066.57	0.871
1075.37	0.879
1084.16	0.874
1092.96	0.874
1101.76	0.854
1110.56	0.853
1119.35	0.834
1128.15	0.832
1136.95	0.734
1145.75	0.708
1154.54	0.736
1163.34	0.817
1172.14	0.824
1180.94	0.819
1189.74	0.78
1198.53	0.709
1207.33	0.548
1216.13	0.292
1224.93	0.197
1233.72	0.372
1242.52	0.716
1251.32	0.747
1260.12	0.799
1268.91	0.43
1277.71	0.43
1286.51	0.734
1295.31	0.745
1304.11	0.813
1312.9	0.821
1321.7	0.79
1330.5	0.678
1339.3	0.696
1348.09	0.828
1356.89	0.839
1365.69	0.78
1374.49	0.65
1383.28	0.457
1392.08	0.522
1400.88	0.566
1409.68	0.632
1418.47	0.774
1427.27	0.852
1436.07	0.736
1444.87	0.756
1453.67	0.868
1462.46	0.854
1471.26	0.853
1480.06	0.868
1488.86	0.751
1497.65	0.859
1506.45	0.722
1515.25	0.921
1524.05	0.906
1532.84	0.911
1541.64	0.903
1550.44	0.897
1559.24	0.881
1568.03	0.854
1576.83	0.828
1585.63	0.785
1594.43	0.723
1603.23	0.577
1612.02	0.388
1620.82	0.099
1629.62	0.208
1638.42	0.465
1647.21	0.226
1656.01	0.281
1664.81	0.676
1673.61	0.741
1682.4	0.522
1691.2	0.194
1700	0.664
1708.8	0.878
1717.59	0.917
1726.39	0.885
1735.19	0.947
1743.99	0.959
1752.79	0.959
1761.58	0.918
1770.38	0.98
1779.18	0.982
1787.98	0.986
1796.77	0.988
1805.57	0.99
1814.37	0.993
1823.17	0.99
1831.96	0.994
1840.76	0.995
1849.56	0.994
1858.36	0.991
1867.15	0.986
1875.95	0.991
1884.75	0.993
1893.55	0.993
1902.35	0.987
1911.14	0.98
1919.94	0.99
1928.74	0.991
1937.54	0.993
1946.33	0.99
1955.13	0.979
1963.93	1.001
1972.73	0.99
1981.52	0.991
1990.32	0.99
1999.12	0.988
2007.92	0.987
2016.71	0.985
2025.51	0.9825
2034.31	0.98
2043.11	0.977
2051.91	0.975
2060.7	0.972
2069.5	0.969
2078.3	0.966
2087.1	0.963
2095.89	0.9585
2104.69	0.957
2113.49	0.955
2122.29	0.955
2131.08	0.953
2139.88	0.9475
2148.68	0.944
2157.48	0.944
2166.27	0.941
2175.07	0.939
2183.87	0.936
2192.67	0.932
2201.47	0.9255
2210.26	0.919
2219.06	0.919
2227.86	0.919
2236.66	0.918
2245.45	0.9116
2254.25	0.9066
2263.05	0.9021
2271.85	0.899
2280.64	0.897
2289.44	0.893
2298.24	0.892
2307.04	0.8896
2315.84	0.885
2324.63	0.8801
2333.43	0.878
2342.23	0.875
2351.03	0.878
2359.82	0.878
2368.62	0.879
2377.42	0.881
2386.22	0.885
2395.01	0.888
2403.81	0.8894
2412.61	0.89
2421.41	0.89
2430.2	0.89
2439	0.89
2447.8	0.89
2456.6	0.889
2465.4	0.889
2474.19	0.889
2482.99	0.889
2491.79	0.8872
2500.59	0.885
2509.38	0.885
2518.18	0.883
2526.98	0.883
2535.78	0.882
2544.57	0.881
2553.37	0.879
2562.17	0.877
2570.97	0.8746
2579.76	0.874
2588.56	0.8716
2597.36	0.87
2606.16	0.8676
2614.96	0.8653
2623.75	0.864
2632.55	0.864
2641.35	0.8636
2650.15	0.86
2658.94	0.857
2667.74	0.852
2676.54	0.8496
2685.34	0.848
2694.13	0.843
2702.93	0.84
2711.73	0.8333
2720.53	0.826
2729.32	0.8183
2738.12	0.8113
2746.92	0.8097
2755.72	0.809
2764.52	0.805
2773.31	0.7957
2782.11	0.7877
2790.91	0.7823
2799.71	0.7817
2808.5	0.784
2817.3	0.776
2826.1	0.7667
2834.9	0.7557
2843.69	0.743
2852.49	0.7234
2861.29	0.6994
2870.09	0.6761
2878.88	0.6558
2887.68	0.646
2896.48	0.646
2905.28	0.645
2914.08	0.645
2922.87	0.643
2931.67	0.6493
2940.47	0.6531
2949.27	0.6753
2958.06	0.683
2966.86	0.6731
2975.66	0.6266
2984.46	0.6336
2993.25	0.6687
3002.05	0.6656
3010.85	0.665
3019.65	0.6543
3028.44	0.6425
3037.24	0.6798
3046.04	0.6774
3054.84	0.6585
3063.64	0.6743
3072.43	0.7037
3081.23	0.7253
3090.03	0.7293
3098.83	0.732
3107.62	0.7323
3116.42	0.7378
3125.22	0.7435
3134.02	0.75
3142.81	0.7495
3151.61	0.748
3160.41	0.747
3169.21	0.744
3178.01	0.7485
3186.8	0.752
3195.6	0.7508
3204.4	0.743
3213.2	0.7494
3221.99	0.774
3230.79	0.7912
3239.59	0.796
3248.39	0.798
3257.18	0.796
3265.98	0.796
3274.78	0.7982
3283.58	0.8035
3292.37	0.8092
3301.17	0.813
3309.97	0.8162
3318.77	0.819
3327.57	0.82
3336.36	0.82
3345.16	0.82
3353.96	0.82
3362.76	0.82
3371.55	0.82
3380.35	0.82
3389.15	0.82
3397.95	0.82
3406.74	0.82
3415.54	0.82
3424.34	0.82
3433.14	0.82
3441.93	0.819
3450.73	0.819
3459.53	0.819
3468.33	0.819
3477.13	0.817
3485.92	0.816
3494.72	0.816
3503.52	0.816
3512.32	0.816
3521.11	0.816
3529.91	0.816
3538.71	0.816
3547.51	0.816
3556.3	0.816
3565.1	0.816
3573.9	0.816
3582.7	0.816
3591.49	0.814
3600.29	0.814
3609.09	0.813
3617.89	0.8117
3626.69	0.812
3635.48	0.812
3644.28	0.812
3653.08	0.812
3661.88	0.812
3670.67	0.81
3679.47	0.8089
3688.27	0.8077
3697.07	0.8059
3705.86	0.805
3714.66	0.805
3723.46	0.805
3732.26	0.805
3741.05	0.805
3749.85	0.8029
3758.65	0.801
3767.45	0.7989
3776.25	0.7981
3785.04	0.799
3793.84	0.799
