Infrared Spectrum: Disulfide, methyl phenyl
Formula: C7 H8 S2
CAS: 14173-25-2
State: SOLUTION (10% CCl4 FOR 3800-1330, 10% CS2 FOR 1330-400 CM^-^1)
Boiling point: 94 C AT 5 mmHg
Class: COBLENTZ III
Instrument: DOW KBr FOREPRISM-GRATING
Instrument parameters: BLAZED AT 3.5, 12.0, 20.0 MICRON AND CHANGED AT 5.0, 7.5, 14.9 MICRON
Sampling: TRANSMISSION
Path length: 0.011 CM, 0.011 CM
Resolution: 2
Origin: DOW CHEMICAL COMPANY
1/CM	TRANSMITTANCE
391	0.172
400	0.2126
409	0.4532
418	0.619
427	0.6892
436	0.7239
445	0.7512
454	0.7541
463	0.7069
472	0.5341
481	0.6735
490	0.7831
499	0.8077
508	0.7965
517	0.8239
526	0.8478
535	0.8627
544	0.8716
553	0.8766
562	0.8805
571	0.8837
580	0.8856
589	0.8868
598	0.8848
607	0.8801
616	0.8835
625	0.884
634	0.8668
643	0.8444
652	0.8279
661	0.8323
670	0.8057
679	0.6908
688	0.1663
697	0.479
706	0.7755
715	0.8365
724	0.7674
733	0.4769
742	0.0157
751	0.5518
760	0.8125
769	0.8687
778	0.8774
787	0.8784
796	0.874
805	0.8631
814	0.8466
823	0.8415
832	0.8342
841	0.8081
850	0.7671
859	0.7106
868	0.7323
877	0.7696
886	0.8082
895	0.789
904	0.8017
913	0.8322
922	0.8359
931	0.8189
940	0.771
949	0.5753
958	0.6173
967	0.776
976	0.8134
985	0.82
994	0.8111
1003	0.8134
1012	0.807
1021	0.6904
1030	0.652
1039	0.8332
1048	0.8265
1057	0.7897
1066	0.6562
1075	0.6444
1084	0.7799
1093	0.7835
1102	0.8133
1111	0.8142
1120	0.833
1129	0.8337
1138	0.8249
1147	0.8078
1156	0.792
1165	0.803
1174	0.7875
1183	0.8049
1192	0.8218
1201	0.8254
1210	0.8259
1219	0.825
1228	0.82
1237	0.8271
1246	0.8264
1255	0.8206
1264	0.8096
1273	0.7965
1282	0.7943
1291	0.7628
1300	0.6571
1309	0.4732
1318	0.7612
1327	0.7772
1336	0.8321
1345	0.8351
1354	0.831
1363	0.8246
1372	0.8091
1381	0.804
1390	0.8079
1399	0.7961
1408	0.7522
1417	0.5151
1426	0.6377
1435	0.4363
1444	0.1274
1453	0.712
1462	0.7127
1471	0.613
1480	0.1065
1489	0.5395
1498	0.7053
1507	0.6739
1516	0.6271
1525	0.5727
1534	0.5228
1543	0.4462
1552	0.4172
1561	0.4497
1570	0.4627
1579	0.3159
1588	0.3092
1597	0.5552
1606	0.7351
1615	0.7739
1624	0.8003
1633	0.8002
1642	0.8077
1651	0.8239
1660	0.8305
1669	0.8346
1678	0.8371
1687	0.8353
1696	0.8332
1705	0.8299
1714	0.8246
1723	0.8173
1732	0.8111
1741	0.8211
1750	0.8272
1759	0.828
1768	0.8273
1777	0.8288
1786	0.8193
1795	0.7939
1804	0.8176
1813	0.83
1822	0.8336
1831	0.8356
1840	0.8357
1849	0.8261
1858	0.803
1867	0.8033
1876	0.7956
1885	0.8124
1894	0.8309
1903	0.8379
1912	0.841
1921	0.8417
1930	0.8304
1939	0.7997
1948	0.7938
1957	0.8125
1966	0.823
1975	0.8327
1984	0.8328
1993	0.8149
2002	0.8404
2011	0.8433
2020	0.8453
2029	0.8464
2038	0.8477
2047	0.8486
2056	0.8491
2065	0.8501
2074	0.851
2083	0.8518
2092	0.8526
2101	0.8533
2110	0.8534
2119	0.854
2128	0.8546
2137	0.855
2146	0.8553
2155	0.8555
2164	0.8557
2173	0.8555
2182	0.855
2191	0.8545
2200	0.8542
2209	0.8538
2218	0.8531
2227	0.852
2236	0.8509
2245	0.8481
2254	0.8443
2263	0.8339
2272	0.8318
2281	0.8334
2290	0.8354
2299	0.8367
2308	0.836
2317	0.8109
2326	0.8076
2335	0.8309
2344	0.8493
2353	0.8482
2362	0.8448
2371	0.8458
2380	0.8474
2389	0.8496
2398	0.8516
2407	0.8528
2416	0.8535
2425	0.854
2434	0.8546
2443	0.8556
2452	0.8566
2461	0.8576
2470	0.8575
2479	0.8573
2488	0.8568
2497	0.8561
2506	0.8555
2515	0.8549
2524	0.8542
2533	0.8535
2542	0.8528
2551	0.852
2560	0.8513
2569	0.8505
2578	0.85
2587	0.8495
2596	0.8499
2605	0.8506
2614	0.8522
2623	0.8533
2632	0.8536
2641	0.8525
2650	0.8511
2659	0.8502
2668	0.8531
2677	0.855
2686	0.8559
2695	0.8552
2704	0.8544
2713	0.853
2722	0.8517
2731	0.8514
2740	0.8512
2749	0.8507
2758	0.85
2767	0.8489
2776	0.8476
2785	0.8457
2794	0.8411
2803	0.8311
2812	0.814
2821	0.7918
2830	0.8226
2839	0.8214
2848	0.797
2857	0.8016
2866	0.8262
2875	0.8252
2884	0.8212
2893	0.8152
2902	0.8011
2911	0.7621
2920	0.4349
2929	0.6144
2938	0.7905
2947	0.8125
2956	0.8168
2965	0.8156
2974	0.8077
2983	0.7837
2992	0.7287
3001	0.6904
3010	0.737
3019	0.7202
3028	0.7667
3037	0.7669
3046	0.757
3055	0.6781
3064	0.5227
3073	0.558
3082	0.574
3091	0.6929
3100	0.7979
3109	0.8193
3118	0.8288
3127	0.8298
3136	0.8291
3145	0.8276
3154	0.826
3163	0.8285
3172	0.8341
3181	0.8398
3190	0.8433
3199	0.8451
3208	0.8455
3217	0.8458
3226	0.8466
3235	0.8472
3244	0.8479
3253	0.8486
3262	0.8492
3271	0.8494
3280	0.8496
3289	0.8498
3298	0.8501
3307	0.8503
3316	0.8505
3325	0.8507
3334	0.8507
3343	0.8504
3352	0.8502
3361	0.85
3370	0.8497
3379	0.8492
3388	0.8488
3397	0.8484
3406	0.8482
3415	0.8482
3424	0.8488
3433	0.8494
3442	0.8502
3451	0.8512
3460	0.8533
3469	0.8554
3478	0.8575
3487	0.8598
3496	0.8619
3505	0.8631
3514	0.8644
3523	0.8654
3532	0.8664
3541	0.8673
3550	0.868
3559	0.8685
3568	0.8691
3577	0.8696
3586	0.8694
3595	0.8692
3604	0.8691
3613	0.869
3622	0.8692
3631	0.8693
3640	0.8694
3649	0.8702
3658	0.8711
3667	0.8706
3676	0.8697
3685	0.8683
3694	0.8632
3703	0.8581
3712	0.8598
3721	0.8664
3730	0.8728
3739	0.8795
3748	0.8767
3757	0.8744
3766	0.8731
3775	0.8728
3784	0.8714
3793	0.87
