Infrared Spectrum: 3,5-Difluorobenzyl bromide
Formula: C 7 H 5 Br F 2
CAS: 141776-91-2
State: gas
Origin: EPA-IR VAPOR PHASE LIBRARY
1/CM	ABSORBANCE
549.8	0.00318
559.445	0.00278
569.09	0.00384
578.734	0.00455
588.379	0.00777
598.024	0.04038
607.669	0.07531
617.313	0.02997
626.958	0.00974
636.603	0.01201
646.248	0.01759
655.893	0.01379
665.537	0.01757
675.182	0.03777
684.827	0.07249
694.472	0.04577
704.116	0.01253
713.761	0.00562
723.406	0.00361
733.051	0.0015327
742.695	0.0015758
752.34	0.0018016
761.985	0.0016184
771.63	0.0015643
781.275	0.0018244
790.919	0.00233
800.564	0.00253
810.209	0.00421
819.854	0.00699
829.498	0.01152
839.143	0.03473
848.788	0.08318
858.433	0.08198
868.078	0.04137
877.722	0.02063
887.367	0.01201
897.012	0.0077
906.657	0.00553
916.301	0.0049
925.946	0.00372
935.591	0.0031
945.236	0.00362
954.88	0.00574
964.525	0.01427
974.17	0.03555
983.815	0.07079
993.46	0.11437
1003.1	0.08639
1012.75	0.02178
1022.39	0.00532
1032.04	0.00315
1041.68	0.00232
1051.33	0.0039
1060.97	0.00391
1070.62	0.00403
1080.26	0.00667
1089.91	0.01184
1099.55	0.02223
1109.2	0.05869
1118.84	0.15054
1128.49	0.19502
1138.13	0.10196
1147.78	0.02272
1157.42	0.00915
1167.07	0.00578
1176.71	0.00583
1186.36	0.0091
1196	0.0194
1205.64	0.02589
1215.29	0.03676
1224.93	0.04164
1234.58	0.02155
1244.22	0.01101
1253.87	0.00648
1263.51	0.00543
1273.16	0.00591
1282.8	0.00718
1292.45	0.0107
1302.09	0.01776
1311.74	0.04503
1321.38	0.15036
1331.03	0.22104
1340.67	0.09045
1350.32	0.02316
1359.96	0.01424
1369.61	0.00981
1379.25	0.00776
1388.9	0.00772
1398.54	0.00821
1408.18	0.01112
1417.83	0.02053
1427.47	0.05291
1437.12	0.09676
1446.76	0.11045
1456.41	0.11978
1466.05	0.11505
1475.7	0.07235
1485.34	0.03942
1494.99	0.02926
1504.63	0.02616
1514.28	0.02094
1523.92	0.01727
1533.57	0.01662
1543.21	0.01791
1552.86	0.01781
1562.5	0.01872
1572.15	0.03434
1581.79	0.09541
1591.44	0.20072
1601.08	0.22439
1610.73	0.15792
1620.37	0.20502
1630.01	0.19028
1639.66	0.0724
1649.3	0.0321
1658.95	0.02235
1668.59	0.01517
1678.24	0.01018
1687.88	0.00971
1697.53	0.00968
1707.17	0.00809
1716.82	0.0081
1726.46	0.00844
1736.11	0.00669
1745.75	0.00477
1755.4	0.00306
1765.04	0.00218
1774.69	0.0019901
1784.33	0.0018932
1793.98	0.0016639
1803.62	0.0015197
1813.27	0.0016037
1822.91	0.0017168
1832.55	0.0019108
1842.2	0.0018688
1851.84	0.0014748
1861.49	0.0014087
1871.13	0.0014296
1880.78	0.00121377
1890.42	0.001013
1900.07	0.001332
1909.71	0.0016013
1919.36	0.0020262
1929	0.00274
1938.65	0.00291
1948.29	0.00218
1957.94	0.0019132
1967.58	0.0020047
1977.23	0.0017592
1986.87	0.00228
1996.52	0.0020166
2006.16	0.0018211
2015.81	0.00125911
2025.45	0.0013053
2035.1	0.00122832
2044.74	0.00125186
2054.38	0.0014969
2064.03	0.0014969
2073.67	0.0015334
2083.32	0.0017379
2092.96	0.00225
2102.61	0.0027
2112.25	0.00406
2121.9	0.00404
2131.54	0.0029
2141.19	0.0020884
2150.83	0.0016759
2160.48	0.0014035
2170.12	0.0014787
2179.77	0.0013496
2189.41	0.0016064
2199.06	0.001732
2208.7	0.00223
2218.35	0.0020212
2227.99	0.002127
2237.64	0.0019027
2247.28	0.00229
2256.92	0.00233
2266.57	0.0020682
2276.21	0.0018318
2285.86	0.0021544
2295.5	0.0018053
2305.15	0.00223
2314.79	0.00262
2324.44	0.00268
2334.08	0.0019169
2343.73	0.0017454
2353.37	0.0019382
2363.02	0.001489
2372.66	0.0014846
2382.31	0.0012798
2391.95	0.0013048
2401.6	0.0014786
2411.24	0.0018604
2420.89	0.00251
2430.53	0.00342
2440.18	0.00411
2449.82	0.00433
2459.47	0.00388
2469.11	0.00262
2478.75	0.0017984
2488.4	0.00119705
2498.04	0.0012843
2507.69	0.00124183
2517.33	0.00118953
2526.98	0.00143
2536.62	0.0014143
2546.27	0.0014675
2555.91	0.0021231
2565.56	0.0020809
2575.2	0.00275
2584.85	0.00259
2594.49	0.00276
2604.14	0.00246
2613.78	0.00216
2623.43	0.0015792
2633.07	0.0015715
2642.72	0.0016999
2652.36	0.0020843
2662.01	0.00234
2671.65	0.0021503
2681.29	0.0020019
2690.94	0.0015539
2700.58	0.0018578
2710.23	0.0014466
2719.87	0.0017259
2729.52	0.0016141
2739.16	0.0017421
2748.81	0.0017007
2758.45	0.0019505
2768.1	0.0016371
2777.74	0.0010733
2787.39	0.00121668
2797.03	0.0011273
2806.68	0.0016574
2816.32	0.00118149
2825.97	0.001031
2835.61	0.00091
2845.26	0.00105
2854.9	0.0014551
2864.55	0.001493
2874.19	0.0017423
2883.84	0.0013742
2893.48	0.001415
2903.12	0.0014589
2912.77	0.001687
2922.41	0.0016911
2932.06	0.0020889
2941.7	0.00225
2951.35	0.00391
2960.99	0.00476
2970.64	0.0067
2980.28	0.01041
2989.93	0.00831
2999.57	0.00433
3009.22	0.00358
3018.86	0.00336
3028.51	0.00328
3038.15	0.00243
3047.8	0.0019953
3057.44	0.0018147
3067.09	0.00265
3076.73	0.0021511
3086.38	0.00311
3096.02	0.00357
3105.67	0.00279
3115.31	0.000953
3124.95	0.000637
3134.6	0.00118615
3144.24	0.00082
3153.89	0.000711
3163.53	0.000253
3173.18	0.0011172
3182.82	0.000682
3192.47	0.0012691
3202.11	0.000432
3211.76	0.0013441
3221.4	0.00098
3231.05	0.0012098
3240.69	0.00095
3250.34	0.0013179
3259.98	0.0012986
3269.63	0.000735
3279.27	0.00116633
3288.92	0.000752
3298.56	0.000686
3308.21	0.000275
3317.85	0.0012104
3327.49	0.000411
3337.14	3e-05
3346.78	0.000855
3356.43	0.000443
3366.07	0.001006
3375.72	0.000755
3385.36	0
3395.01	0.00120717
3404.65	0.000621
3414.3	0.0011074
3423.94	0.000893
3433.59	0.000684
3443.23	0.000792
3452.88	0.00088
3462.52	0.00059
3472.17	0.000781
3481.81	0.0010695
3491.46	0.000691
3501.1	0.001025
3510.75	0.001055
3520.39	0.00120294
3530.04	0.000821
3539.68	0.001015
3549.32	0.000718
3558.97	0.0010772
3568.61	0.0010912
3578.26	0.00122654
3587.9	0.0011065
3597.55	0.0014752
3607.19	0.0015378
3616.84	0.000828
3626.48	0.00122462
3636.13	0.000929
3645.77	0.000993
3655.42	0.0010987
3665.06	0.0013826
3674.71	0.00116145
3684.35	0.0013014
3694	0.00122115
3703.64	0.000301
3713.29	0.000747
3722.93	0.000864
3732.58	0.00091
3742.22	0.000822
3751.86	0.001097
3761.51	0.000434
3771.15	0.0013694
3780.8	0.001594
3790.44	0.0007
3800.09	0.0011413
3809.73	0.0006
3819.38	0.000799
3829.02	0.000868
3838.67	0.0015298
3848.31	0.000756
3857.96	0.0014572
3867.6	0.000513
3877.25	0.00124092
3886.89	0.000546
3896.54	0.000697
3906.18	0.001336
3915.83	0.0011262
3925.47	0.000583
3935.12	0.00103
3944.76	0.000633
3954.41	0.00016
3964.05	0.00114
3973.69	0.00117387
3983.34	0.00091
3992.98	0.000979
