Infrared Spectrum: 2-Phenoxypyridine-3-carbonitrile
Formula: C 12 H 8 N 2 O
CAS: 14178-15-5
State: gas
Origin: EPA-IR VAPOR PHASE LIBRARY
1/CM	ABSORBANCE
549.8	0.001109
559.445	0.0003075
569.09	9.1e-05
578.734	0.0012469
588.379	0.002446
598.024	0.002736
607.669	0.001526
617.313	0.001074
626.958	0.0013612
636.603	0.001986
646.248	0.001896
655.893	0.003476
665.537	0.004656
675.182	0.007256
684.827	0.013596
694.472	0.010656
704.116	0.006636
713.761	0.007836
723.406	0.010546
733.051	0.010416
742.695	0.011666
752.34	0.013506
761.985	0.018216
771.63	0.017986
781.275	0.018926
790.919	0.025056
800.564	0.015876
810.209	0.007496
819.854	0.005006
829.498	0.003426
839.143	0.002416
848.788	0.002486
858.433	0.002266
868.078	0.002146
877.722	0.005446
887.367	0.015306
897.012	0.024336
906.657	0.018016
916.301	0.006346
925.946	0.002606
935.591	0.002016
945.236	0.002286
954.88	0.001896
964.525	0.001776
974.17	0.002396
983.815	0.002626
993.46	0.002306
1003.1	0.003306
1012.75	0.003936
1022.39	0.007306
1032.04	0.003036
1041.68	0.0012956
1051.33	0.002346
1060.97	0.003296
1070.62	0.004776
1080.26	0.002846
1089.91	0.003726
1099.55	0.007476
1109.2	0.004166
1118.84	0.002346
1128.49	0.003896
1138.13	0.002596
1147.78	0.006486
1157.42	0.018726
1167.07	0.020696
1176.71	0.020526
1186.36	0.043516
1196	0.081956
1205.64	0.070546
1215.29	0.024336
1224.93	0.017126
1234.58	0.016596
1244.22	0.020836
1253.87	0.053196
1263.51	0.091176
1273.16	0.044566
1282.8	0.044686
1292.45	0.089216
1302.09	0.086636
1311.74	0.040856
1321.38	0.019346
1331.03	0.012286
1340.67	0.009656
1350.32	0.008116
1359.96	0.007426
1369.61	0.006986
1379.25	0.007266
1388.9	0.007826
1398.54	0.011176
1408.18	0.026106
1417.83	0.105286
1427.47	0.286996
1437.12	0.157406
1446.76	0.028146
1456.41	0.014826
1466.05	0.011916
1475.7	0.016846
1485.34	0.039126
1494.99	0.048366
1504.63	0.019296
1514.28	0.009256
1523.92	0.006266
1533.57	0.007526
1543.21	0.010436
1552.86	0.017826
1562.5	0.042026
1572.15	0.079346
1581.79	0.057006
1591.44	0.033236
1601.08	0.019656
1610.73	0.008386
1620.37	0.004826
1630.01	0.003456
1639.66	0.002946
1649.3	0.002306
1658.95	0.002176
1668.59	0.001946
1678.24	0.001966
1687.88	0.001966
1697.53	0.002236
1707.17	0.002466
1716.82	0.002976
1726.46	0.002906
1736.11	0.003146
1745.75	0.002626
1755.4	0.002016
1765.04	0.002396
1774.69	0.002306
1784.33	0.001656
1793.98	0.001576
1803.62	0.001476
1813.27	0.0011808
1822.91	0.001133
1832.55	0.001426
1842.2	0.001566
1851.84	0.001726
1861.49	0.001816
1871.13	0.001946
1880.78	0.001976
1890.42	0.002246
1900.07	0.002316
1909.71	0.002706
1919.36	0.003336
1929	0.003196
1938.65	0.003206
1948.29	0.002956
1957.94	0.002016
1967.58	0.001616
1977.23	0.001666
1986.87	0.001846
1996.52	0.001756
2006.16	0.001806
2015.81	0.001886
2025.45	0.001596
2035.1	0.0013342
2044.74	0.0011702
2054.38	0.0013796
2064.03	0.001456
2073.67	0.001456
2083.32	0.001516
2092.96	0.001456
2102.61	0.001546
2112.25	0.001696
2121.9	0.001546
2131.54	0.001416
2141.19	0.001646
2150.83	0.001726
2160.48	0.001616
2170.12	0.0013675
2179.77	0.0012514
2189.41	0.0013763
2199.06	0.001526
2208.7	0.001526
2218.35	0.001846
2227.99	0.003556
2237.64	0.004686
2247.28	0.002746
2256.92	0.0013597
2266.57	0.0011251
2276.21	0.0012239
2285.86	0.0010616
2295.5	0.0011975
2305.15	0.001506
2314.79	0.001906
2324.44	0.001856
2334.08	0.001596
2343.73	0.001496
2353.37	0.001816
2363.02	0.001476
2372.66	0.0012967
2382.31	0.001516
2391.95	0.001393
2401.6	0.0010555
2411.24	0.0010787
2420.89	0.0011906
2430.53	0.0012519
2440.18	0.0011414
2449.82	0.0011507
2459.47	0.0012003
2469.11	0.0013039
2478.75	0.0013296
2488.4	0.0012147
2498.04	0.001396
2507.69	0.0013465
2517.33	0.001446
2526.98	0.001756
2536.62	0.001686
2546.27	0.001506
2555.91	0.0013472
2565.56	0.001416
2575.2	0.0013098
2584.85	0.001556
2594.49	0.0012354
2604.14	0.0013742
2613.78	0.0011986
2623.43	0.0010648
2633.07	0.0008696
2642.72	0.0008152
2652.36	0.0009252
2662.01	0.0008171
2671.65	0.000907
2681.29	0.0009243
2690.94	0.0011296
2700.58	0.0010388
2710.23	0.0011689
2719.87	0.0012556
2729.52	0.001476
2739.16	0.000993
2748.81	0.0009631
2758.45	0.0009342
2768.1	0.0010323
2777.74	0.0010448
2787.39	0.0009144
2797.03	0.000784
2806.68	0.0009192
2816.32	0.0010925
2825.97	0.0007734
2835.61	0.0008462
2845.26	0.0009517
2854.9	0.0007608
2864.55	0.0009581
2874.19	0.0008573
2883.84	0.0005242
2893.48	0.0009826
2903.12	0.0009075
2912.77	0.0008978
2922.41	0.0006834
2932.06	0.0007787
2941.7	0.0007641
2951.35	0.0007515
2960.99	0.0009798
2970.64	0.0012716
2980.28	0.0012982
2989.93	0.001836
2999.57	0.001776
3009.22	0.002096
3018.86	0.002766
3028.51	0.003956
3038.15	0.006586
3047.8	0.011446
3057.44	0.013686
3067.09	0.012936
3076.73	0.013576
3086.38	0.013226
3096.02	0.008366
3105.67	0.005356
3115.31	0.003186
3124.95	0.001876
3134.6	0.001786
3144.24	0.001313
3153.89	0.0012694
3163.53	0.0009146
3173.18	0.0009219
3182.82	0.0008744
3192.47	0.0006788
3202.11	0.001005
3211.76	0.0007281
3221.4	0.0003587
3231.05	0.00045059
3240.69	0.0005589
3250.34	0.000498
3259.98	0.00038702
3269.63	0.00046719
3279.27	0.0009426
3288.92	0.0003566
3298.56	0.000954
3308.21	0.000685
3317.85	0.0005123
3327.49	0.0007145
3337.14	0.0007612
3346.78	0.0005284
3356.43	0.00116
3366.07	0.0005506
3375.72	0.00047064
3385.36	0.0005948
3395.01	0.0005663
3404.65	0.0005557
3414.3	0.0008542
3423.94	0.0007475
3433.59	0.0009483
3443.23	0.0008259
3452.88	0.0006102
3462.52	0.0012064
3472.17	0.0006382
3481.81	0.0005703
3491.46	0.0010186
3501.1	0.0006353
3510.75	0.0006894
3520.39	0.0005114
3530.04	0.0006635
3539.68	0.0008696
3549.32	0.0005849
3558.97	0.0009229
3568.61	0.0008099
3578.26	0.0009049
3587.9	0.000252
3597.55	0.0005919
3607.19	0.0003678
3616.84	0.0006379
3626.48	0.0009047
3636.13	0.0005907
3645.77	0.00048018
3655.42	0.0009281
3665.06	0.0008105
3674.71	0.0008896
3684.35	0.0008024
3694	0.0008014
3703.64	0.0007828
3713.29	0.0006729
3722.93	0.0003827
3732.58	0.000663
3742.22	0.0003857
3751.86	0.0006009
3761.51	0.0006359
3771.15	0.0009699
3780.8	0.0010606
3790.44	0.0005288
3800.09	0.0005621
3809.73	0.0006523
3819.38	0.0003658
3829.02	0.0008274
3838.67	0.0009502
3848.31	0.0007177
3857.96	0.0005085
3867.6	0.0008661
3877.25	0.000921
3886.89	0.000921
3896.54	0.0008043
3906.18	0.000531
3915.83	0.0009788
3925.47	0.00041392
3935.12	0.0010555
3944.76	0.0007967
3954.41	0.0005612
3964.05	0.0003178
3973.69	0.000873
3983.34	0.000655
3992.98	0.0007394
