Infrared Spectrum: Bis(4-methoxyphenyl)phenylphosphine
Formula: C 20 H 19 O 2 P
CAS: 14180-51-9
State: gas
Origin: EPA-IR VAPOR PHASE LIBRARY
1/CM	ABSORBANCE
549.8	0.012515
559.445	0.008315
569.09	0.006125
578.734	0.004225
588.379	0.003935
598.024	0.003435
607.669	0.002775
617.313	0.002885
626.958	0.002585
636.603	0.003005
646.248	0.002235
655.893	0.002565
665.537	0.003825
675.182	0.006235
684.827	0.011965
694.472	0.028795
704.116	0.016455
713.761	0.009095
723.406	0.007585
733.051	0.014705
742.695	0.025775
752.34	0.008485
761.985	0.005065
771.63	0.004895
781.275	0.008885
790.919	0.029525
800.564	0.027385
810.209	0.024195
819.854	0.032895
829.498	0.052715
839.143	0.017255
848.788	0.008795
858.433	0.006085
868.078	0.003735
877.722	0.002515
887.367	0.002185
897.012	0.001955
906.657	0.002295
916.301	0.002025
925.946	0.001655
935.591	0.002025
945.236	0.002285
954.88	0.002905
964.525	0.003425
974.17	0.004355
983.815	0.005175
993.46	0.007785
1003.1	0.012795
1012.75	0.019055
1022.39	0.030815
1032.04	0.055565
1041.68	0.051445
1051.33	0.025815
1060.97	0.018295
1070.62	0.016955
1080.26	0.027835
1089.91	0.073735
1099.55	0.044875
1109.2	0.018755
1118.84	0.010845
1128.49	0.008705
1138.13	0.007645
1147.78	0.009675
1157.42	0.015835
1167.07	0.050685
1176.71	0.171825
1186.36	0.046025
1196	0.018155
1205.64	0.018515
1215.29	0.027565
1224.93	0.052535
1234.58	0.119365
1244.22	0.231925
1253.87	0.163445
1263.51	0.108525
1273.16	0.137675
1282.8	0.139205
1292.45	0.059765
1302.09	0.031875
1311.74	0.019225
1321.38	0.012175
1331.03	0.009385
1340.67	0.007325
1350.32	0.006495
1359.96	0.005705
1369.61	0.005445
1379.25	0.005365
1388.9	0.006935
1398.54	0.010235
1408.18	0.008475
1417.83	0.008265
1427.47	0.013835
1437.12	0.026545
1446.76	0.036145
1456.41	0.029875
1466.05	0.045165
1475.7	0.050665
1485.34	0.075515
1494.99	0.185755
1504.63	0.091685
1514.28	0.022615
1523.92	0.014235
1533.57	0.011725
1543.21	0.012075
1552.86	0.016335
1562.5	0.033295
1572.15	0.044265
1581.79	0.068735
1591.44	0.134155
1601.08	0.079765
1610.73	0.022885
1620.37	0.012025
1630.01	0.008245
1639.66	0.006875
1649.3	0.006695
1658.95	0.005295
1668.59	0.003505
1678.24	0.002765
1687.88	0.002305
1697.53	0.002005
1707.17	0.001915
1716.82	0.002175
1726.46	0.002145
1736.11	0.002485
1745.75	0.002615
1755.4	0.003415
1765.04	0.003685
1774.69	0.003145
1784.33	0.002705
1793.98	0.003035
1803.62	0.004065
1813.27	0.002965
1822.91	0.002355
1832.55	0.001995
1842.2	0.002125
1851.84	0.002705
1861.49	0.003735
1871.13	0.004925
1880.78	0.006095
1890.42	0.007035
1900.07	0.004475
1909.71	0.003285
1919.36	0.002475
1929	0.002145
1938.65	0.002685
1948.29	0.003105
1957.94	0.003135
1967.58	0.003135
1977.23	0.002535
1986.87	0.002035
1996.52	0.001785
2006.16	0.001845
2015.81	0.002465
2025.45	0.003465
2035.1	0.004715
2044.74	0.005435
2054.38	0.005545
2064.03	0.005955
2073.67	0.005295
2083.32	0.003565
2092.96	0.002375
2102.61	0.002105
2112.25	0.001655
2121.9	0.001425
2131.54	0.0011789
2141.19	0.0009297
2150.83	0.0007492
2160.48	0.0007936
2170.12	0.0010605
2179.77	0.0009755
2189.41	0.0010486
2199.06	0.0010745
2208.7	0.0010043
2218.35	0.0009046
2227.99	0.0007651
2237.64	0.0008344
2247.28	0.0009833
2256.92	0.0011377
2266.57	0.001475
2276.21	0.001935
2285.86	0.002175
2295.5	0.001825
2305.15	0.001605
2314.79	0.001475
2324.44	0.0012074
2334.08	0.0009724
2343.73	0.0012904
2353.37	0.001345
2363.02	0.001545
2372.66	0.001805
2382.31	0.001975
2391.95	0.002145
2401.6	0.001905
2411.24	0.001695
2420.89	0.001595
2430.53	0.001485
2440.18	0.0012624
2449.82	0.001385
2459.47	0.001475
2469.11	0.001525
2478.75	0.001595
2488.4	0.001825
2498.04	0.002435
2507.69	0.003215
2517.33	0.003835
2526.98	0.004125
2536.62	0.003155
2546.27	0.002445
2555.91	0.002055
2565.56	0.001475
2575.2	0.001445
2584.85	0.001425
2594.49	0.0012526
2604.14	0.001385
2613.78	0.0011923
2623.43	0.001056
2633.07	0.0011355
2642.72	0.0010996
2652.36	0.0009433
2662.01	0.0011812
2671.65	0.001405
2681.29	0.001405
2690.94	0.001365
2700.58	0.0010368
2710.23	0.0009793
2719.87	0.0010233
2729.52	0.001228
2739.16	0.0012874
2748.81	0.001545
2758.45	0.001555
2768.1	0.001755
2777.74	0.002085
2787.39	0.002365
2797.03	0.003095
2806.68	0.004135
2816.32	0.005895
2825.97	0.008265
2835.61	0.015945
2845.26	0.032675
2854.9	0.016925
2864.55	0.010435
2874.19	0.008695
2883.84	0.008855
2893.48	0.010695
2903.12	0.015555
2912.77	0.021215
2922.41	0.021405
2932.06	0.022895
2941.7	0.033255
2951.35	0.039705
2960.99	0.031685
2970.64	0.020535
2980.28	0.015735
2989.93	0.017145
2999.57	0.028295
3009.22	0.047015
3018.86	0.027525
3028.51	0.020365
3038.15	0.015325
3047.8	0.015795
3057.44	0.033545
3067.09	0.043015
3076.73	0.032085
3086.38	0.024175
3096.02	0.013055
3105.67	0.007605
3115.31	0.004705
3124.95	0.004115
3134.6	0.003835
3144.24	0.002925
3153.89	0.001795
3163.53	0.001375
3173.18	0.0010705
3182.82	0.0009879
3192.47	0.0008035
3202.11	0.0008105
3211.76	0.000732
3221.4	0.0005289
3231.05	0.000457
3240.69	0.0004932
3250.34	0.000315915
3259.98	0.00035834
3269.63	0.00034622
3279.27	0.0005916
3288.92	0.0002351
3298.56	0.0003876
3308.21	0.0006615
3317.85	0.0004477
3327.49	0.0004309
3337.14	0.0004267
3346.78	0.0004784
3356.43	0.00039255
3366.07	0.0001
3375.72	0.000153
3385.36	0.000198
3395.01	0.0004358
3404.65	0.0002184
3414.3	0.000187
3423.94	0.0002192
3433.59	0.000129
3443.23	0.0003006
3452.88	0.0004328
3462.52	0.00035086
3472.17	0.00032601
3481.81	7.3e-05
3491.46	0.00040267
3501.1	0.0002184
3510.75	0.0002943
3520.39	0.0004389
3530.04	0.00039836
3539.68	0.00035536
3549.32	0.00040891
3558.97	0.00033591
3568.61	0.00030728
3578.26	0.0004925
3587.9	0.0004235
3597.55	0.000199
3607.19	0.0003363
3616.84	0.00035261
3626.48	0.00036824
3636.13	0.0007134
3645.77	0.0004693
3655.42	0.0005856
3665.06	0.0002273
3674.71	0.000553
3684.35	0.00036419
3694	0.0006573
3703.64	0.0005397
3713.29	0.0002353
3722.93	0.000558
3732.58	0.0005568
3742.22	0.00033811
3751.86	0.0005397
3761.51	0.0006239
3771.15	0.0004186
3780.8	0.00035876
3790.44	0.000131
3800.09	6.1e-05
3809.73	0.0005146
3819.38	0.000149
3829.02	0.00039845
3838.67	0.0004493
3848.31	0.0005665
3857.96	0.0006692
3867.6	0.0006895
3877.25	0.0008505
3886.89	0.0008588
3896.54	0.00035755
3906.18	0.0004363
3915.83	0.0005886
3925.47	0.000678
3935.12	0.0002744
3944.76	0.000498
3954.41	0.0006573
3964.05	0.0005784
3973.69	0.00037908
3983.34	0.0006473
3992.98	0.0005868
