Infrared Spectrum: ALUMINUM DIACETATE
Formula: C4 H7 Al O5
CAS: 142-03-0
State: SOLID (KBr DISC)
Class: COBLENTZ III
Instrument: PERKIN-ELMER 21 (GRATING)
Instrument parameters: FILTER AT ABOUT 10 MICRONS
Sampling: TRANSMISSION
Resolution: 2
1/CM	TRANSMITTANCE
4000	0.6892
3991	0.6886
3982	0.6881
3973	0.6875
3964	0.6869
3955	0.6862
3946	0.6856
3937	0.6849
3928	0.6842
3919	0.6835
3910	0.6828
3901	0.6818
3892	0.6806
3883	0.6794
3874	0.6782
3865	0.6769
3856	0.6757
3847	0.6745
3838	0.6731
3829	0.6708
3820	0.6686
3811	0.6662
3802	0.6639
3793	0.6615
3784	0.6576
3775	0.6537
3766	0.6498
3757	0.645
3748	0.6391
3739	0.633
3730	0.6268
3721	0.6193
3712	0.6112
3703	0.6022
3694	0.5896
3685	0.5772
3676	0.5658
3667	0.5534
3658	0.5383
3649	0.5267
3640	0.5099
3631	0.4925
3622	0.475
3613	0.4574
3604	0.4397
3595	0.422
3586	0.4041
3577	0.3862
3568	0.368
3559	0.35
3550	0.3349
3541	0.328
3532	0.32
3523	0.309
3514	0.2968
3505	0.2888
3496	0.2821
3487	0.2766
3478	0.2717
3469	0.2669
3460	0.2628
3451	0.2584
3442	0.2546
3433	0.2521
3424	0.2506
3415	0.2498
3406	0.2491
3397	0.2488
3388	0.2494
3379	0.2527
3370	0.2604
3361	0.272
3352	0.2832
3343	0.295
3334	0.3081
3325	0.3184
3316	0.3266
3307	0.3346
3298	0.3422
3289	0.3498
3280	0.3573
3271	0.364
3262	0.3708
3253	0.3777
3244	0.3844
3235	0.391
3226	0.3978
3217	0.4047
3208	0.4117
3199	0.4189
3190	0.426
3181	0.4333
3172	0.4402
3163	0.4471
3154	0.454
3145	0.4604
3136	0.4665
3127	0.4726
3118	0.4777
3109	0.4827
3100	0.4876
3091	0.4925
3082	0.4975
3073	0.5024
3064	0.5073
3055	0.5123
3046	0.5175
3037	0.5228
3028	0.5275
3019	0.5319
3010	0.5362
3001	0.5407
2992	0.5453
2983	0.551
2974	0.5569
2965	0.5627
2956	0.5686
2947	0.5741
2938	0.5797
2929	0.5853
2920	0.5909
2911	0.5965
2902	0.6024
2893	0.6089
2884	0.6156
2875	0.6222
2866	0.6287
2857	0.6347
2848	0.6407
2839	0.6468
2830	0.6517
2821	0.6562
2812	0.661
2803	0.6656
2794	0.6699
2785	0.6742
2776	0.6786
2767	0.6825
2758	0.6861
2749	0.6898
2740	0.6934
2731	0.6968
2722	0.6999
2713	0.7031
2704	0.7064
2695	0.7095
2686	0.7124
2677	0.7151
2668	0.7181
2659	0.7197
2650	0.7211
2641	0.7221
2632	0.7228
2623	0.7234
2614	0.724
2605	0.7243
2596	0.7243
2587	0.7243
2578	0.7243
2569	0.7244
2560	0.7247
2551	0.7251
2542	0.7254
2533	0.7256
2524	0.726
2515	0.7264
2506	0.7271
2497	0.7278
2488	0.7285
2479	0.7293
2470	0.7301
2461	0.7308
2452	0.7317
2443	0.7326
2434	0.7336
2425	0.7339
2416	0.7343
2407	0.7348
2398	0.7351
2389	0.7353
2380	0.7356
2371	0.7356
2362	0.7356
2353	0.7356
2344	0.7358
2335	0.7364
2326	0.7372
2317	0.7383
2308	0.7398
2299	0.7424
2290	0.745
2281	0.7474
2272	0.7497
2263	0.7511
2254	0.7519
2245	0.7525
2236	0.7531
2227	0.7535
2218	0.7537
2209	0.7537
2200	0.7536
2191	0.7536
2182	0.7534
2173	0.7519
2164	0.7506
2155	0.7491
2146	0.7471
2137	0.7451
2128	0.743
2119	0.741
2110	0.7391
2101	0.7371
2092	0.7351
2083	0.7332
2074	0.7311
2065	0.7293
2056	0.7278
2047	0.7264
2038	0.7249
2029	0.7235
2020	0.7221
2011	0.7208
2002	0.7195
1993	0.7184
1984	0.7171
1975	0.7165
1966	0.716
1957	0.7156
1948	0.7149
1939	0.7141
1930	0.713
1921	0.7117
1912	0.7095
1903	0.7061
1894	0.7024
1885	0.7001
1876	0.6972
1867	0.6941
1858	0.691
1849	0.6892
1840	0.6867
1831	0.6825
1822	0.6772
1813	0.6715
1804	0.6648
1795	0.6565
1786	0.6478
1777	0.6385
1768	0.6275
1759	0.6139
1750	0.5962
1741	0.5795
1732	0.5607
1723	0.5385
1714	0.5225
1705	0.5169
1696	0.5114
1687	0.5002
1678	0.4841
1669	0.459
1660	0.4151
1651	0.3587
1642	0.3069
1633	0.2545
1624	0.2015
1615	0.148
1606	0.103
1597	0.093
1588	0.0904
1579	0.0967
1570	0.1338
1561	0.2019
1552	0.2797
1543	0.3589
1534	0.4354
1525	0.4587
1516	0.4626
1507	0.4295
1498	0.3187
1489	0.174
1480	0.1429
1471	0.152
1462	0.2203
1453	0.3005
1444	0.3053
1435	0.2803
1426	0.2349
1417	0.2341
1408	0.2526
1399	0.2737
1390	0.2957
1381	0.3039
1372	0.2738
1363	0.2459
1354	0.2248
1345	0.2096
1336	0.2391
1327	0.293
1318	0.33
1309	0.3446
1300	0.3438
1291	0.342
1282	0.3934
1273	0.4725
1264	0.5477
1255	0.6035
1246	0.6457
1237	0.6761
1228	0.6942
1219	0.7041
1210	0.7117
1201	0.7154
1192	0.714
1183	0.7128
1174	0.7071
1165	0.699
1156	0.6907
1147	0.6822
1138	0.6721
1129	0.6611
1120	0.6501
1111	0.6385
1102	0.6239
1093	0.6056
1084	0.5867
1075	0.5617
1066	0.5236
1057	0.4695
1048	0.4415
1039	0.44
1030	0.4203
1021	0.4269
1012	0.4476
1003	0.4645
994	0.4752
985	0.4849
976	0.4932
967	0.4995
958	0.507
949	0.5192
940	0.5244
931	0.5203
922	0.5149
913	0.5185
904	0.5308
895	0.5379
886	0.5375
877	0.5359
868	0.5356
859	0.5372
850	0.5404
841	0.5581
832	0.5725
823	0.582
814	0.586
805	0.5853
796	0.5754
787	0.5581
778	0.531
769	0.4992
760	0.4579
751	0.4176
742	0.384
733	0.3512
724	0.3275
715	0.3119
706	0.2827
697	0.2405
688	0.2584
679	0.2943
