Infrared Spectrum: HEXANAMINE HYDROCHLORIDE
Formula: C6 H16 Cl N
CAS: 142-81-4
State: SOLID (SPLIT MULL, FLUOROLUBE FOR 3800-1330 AND NUJOL FOR 1330-400 CM ^-^1)
Class: COBLENTZ III
Instrument: DOW KBr FOREPRISM-GRATING
Instrument parameters: BLAZED AT 3.5, 12.0, 20.0 MICRON, CHANGED AT 5.0, 7.5, 14.9 MICRON
Sampling: TRANSMISSION
Resolution: 4
Origin: DOW CHEMICAL COMPANY
1/CM	TRANSMITTANCE
387.696	0.757
396.402	0.755
405.108	0.755
413.813	0.755
422.519	0.756
431.225	0.759
439.931	0.761
448.636	0.774
457.342	0.78
466.048	0.785
474.754	0.787
483.459	0.787
492.165	0.783
500.871	0.797
509.577	0.804
518.282	0.802
526.988	0.804
535.694	0.804
544.4	0.817
553.105	0.821
561.811	0.824
570.517	0.829
579.223	0.831
587.928	0.832
596.634	0.834
605.34	0.836
614.046	0.839
622.752	0.84
631.457	0.844
640.163	0.848
648.869	0.855
657.575	0.858
666.28	0.858
674.986	0.858
683.692	0.862
692.398	0.858
701.103	0.855
709.809	0.846
718.515	0.816
727.221	0.717
735.926	0.779
744.632	0.828
753.338	0.821
762.044	0.832
770.749	0.842
779.455	0.843
788.161	0.82
796.867	0.804
805.572	0.84
814.278	0.848
822.984	0.855
831.69	0.854
840.396	0.85
849.101	0.844
857.807	0.835
866.513	0.829
875.219	0.812
883.924	0.823
892.63	0.839
901.336	0.832
910.042	0.828
918.747	0.824
927.453	0.8
936.159	0.794
944.865	0.793
953.57	0.757
962.276	0.702
970.982	0.726
979.688	0.759
988.393	0.793
997.099	0.816
1005.8	0.81
1014.51	0.795
1023.22	0.775
1031.92	0.763
1040.63	0.774
1049.33	0.795
1058.04	0.795
1066.75	0.787
1075.45	0.779
1084.16	0.757
1092.86	0.749
1101.57	0.823
1110.27	0.831
1118.98	0.832
1127.69	0.829
1136.39	0.812
1145.1	0.748
1153.8	0.697
1162.51	0.733
1171.21	0.761
1179.92	0.805
1188.63	0.828
1197.33	0.831
1206.04	0.829
1214.74	0.82
1223.45	0.812
1232.15	0.808
1240.86	0.804
1249.57	0.808
1258.27	0.81
1266.98	0.808
1275.68	0.793
1284.39	0.782
1293.1	0.774
1301.8	0.765
1310.51	0.76
1319.21	0.78
1327.92	0.771
1336.62	0.765
1345.33	0.798
1354.04	0.806
1362.74	0.8
1371.45	0.786
1380.15	0.738
1388.86	0.794
1397.56	0.733
1406.27	0.746
1414.98	0.812
1423.68	0.812
1432.39	0.794
1441.09	0.746
1449.8	0.688
1458.5	0.591
1467.21	0.537
1475.92	0.593
1484.62	0.666
1493.33	0.659
1502.03	0.643
1510.74	0.636
1519.44	0.661
1528.15	0.749
1536.86	0.84
1545.56	0.844
1554.27	0.834
1562.97	0.809
1571.68	0.752
1580.39	0.689
1589.09	0.636
1597.8	0.586
1606.5	0.6
1615.21	0.689
1623.91	0.829
1632.62	0.908
1641.33	0.93
1650.03	0.938
1658.74	0.945
1667.44	0.949
1676.15	0.953
1684.85	0.956
1693.56	0.963
1702.27	0.967
1710.97	0.97
1719.68	0.97
1728.38	0.971
1737.09	0.971
1745.79	0.972
1754.5	0.971
1763.21	0.971
1771.91	0.97
1780.62	0.967
1789.32	0.965
1798.03	0.963
1806.73	0.96
1815.44	0.957
1824.15	0.955
1832.85	0.955
1841.56	0.955
1850.26	0.953
1858.97	0.951
1867.68	0.948
1876.38	0.944
1885.09	0.941
1893.79	0.933
1902.5	0.93
1911.2	0.925
1919.91	0.921
1928.62	0.917
1937.32	0.911
1946.03	0.906
1954.73	0.902
1963.44	0.895
1972.14	0.888
1980.85	0.878
1989.56	0.87
1998.26	0.877
2006.97	0.877
2015.67	0.874
2024.38	0.87
2033.08	0.869
2041.79	0.869
2050.5	0.87
2059.2	0.877
2067.91	0.8851
2076.61	0.902
2085.32	0.9191
2094.03	0.9382
2102.73	0.9561
2111.44	0.964
2120.14	0.9671
2128.85	0.97
2137.55	0.97
2146.26	0.9701
2154.97	0.97
2163.67	0.97
2172.38	0.97
2181.08	0.9693
2189.79	0.9609
2198.49	0.9587
2207.2	0.955
2215.91	0.9519
2224.61	0.9449
2233.32	0.938
2242.02	0.9335
2250.73	0.9255
2259.43	0.918
2268.14	0.912
2276.85	0.9108
2285.55	0.9068
2294.26	0.9028
2302.96	0.8958
2311.67	0.8906
2320.37	0.8796
2329.08	0.878
2337.79	0.8756
2346.49	0.87
2355.2	0.869
2363.9	0.868
2372.61	0.866
2381.32	0.863
2390.02	0.8585
2398.73	0.854
2407.43	0.8495
2416.14	0.846
2424.84	0.8414
2433.55	0.8317
2442.26	0.8191
2450.96	0.8059
2459.67	0.7876
2468.37	0.7597
2477.08	0.751
2485.78	0.749
2494.49	0.7497
2503.2	0.7503
2511.9	0.7447
2520.61	0.7356
2529.31	0.7227
2538.02	0.6909
2546.72	0.677
2555.43	0.6764
2564.14	0.6787
2572.84	0.6828
2581.55	0.687
2590.25	0.687
2598.96	0.6812
2607.66	0.6726
2616.37	0.657
2625.08	0.6391
2633.78	0.6069
2642.49	0.5922
2651.19	0.59
2659.9	0.587
2668.61	0.583
2677.31	0.5756
2686.02	0.5666
2694.72	0.5542
2703.43	0.5337
2712.13	0.5126
2720.84	0.4917
2729.55	0.4542
2738.25	0.4246
2746.96	0.392
2755.66	0.371
2764.37	0.362
2773.07	0.3565
2781.78	0.345
2790.49	0.332
2799.19	0.3092
2807.9	0.2733
2816.6	0.2448
2825.31	0.2195
2834.01	0.2004
2842.72	0.1614
2851.43	0.1199
2860.13	0.1256
2868.84	0.131
2877.54	0.1304
2886.25	0.1206
2894.95	0.106
2903.66	0.09
2912.37	0.0696
2921.07	0.058
2929.78	0.0622
2938.48	0.0966
2947.19	0.0957
2955.9	0.0804
2964.6	0.0968
2973.31	0.1289
2982.01	0.14
2990.72	0.1447
2999.42	0.15
3008.13	0.1557
3016.84	0.1647
3025.54	0.171
3034.25	0.1814
3042.95	0.1968
3051.66	0.2134
3060.36	0.2319
3069.07	0.2581
3077.78	0.2924
3086.48	0.3249
3095.19	0.3457
3103.89	0.3684
3112.6	0.3867
3121.3	0.408
3130.01	0.4323
3138.72	0.4603
3147.42	0.4981
3156.13	0.5474
3164.83	0.5859
3173.54	0.6129
3182.25	0.6334
3190.95	0.6438
3199.66	0.6524
3208.36	0.6644
3217.07	0.6861
3225.77	0.7219
3234.48	0.7729
3243.19	0.8158
3251.89	0.8558
3260.6	0.8907
3269.3	0.9209
3278.01	0.9454
3286.71	0.9626
3295.42	0.978
3304.13	0.9887
3312.83	0.9927
3321.54	0.998
3330.24	0.9998
3338.95	1
3347.65	1
3356.36	1
3365.07	1
3373.77	1
3382.48	1
3391.18	1
3399.89	1
3408.59	1
3417.3	1
3426.01	1
3434.71	1.001
3443.42	1.001
3452.12	1.001
3460.83	1.001
3469.54	1.001
3478.24	1.004
3486.95	1.005
3495.65	1.008
3504.36	1.009
3513.06	1.01
3521.77	1.01
3530.48	1.01
3539.18	1.01
3547.89	1.01
3556.59	1.01
3565.3	1.01
3574	1.0101
3582.71	1.012
3591.42	1.012
3600.12	1.0101
3608.83	1.01
3617.53	1.01
3626.24	1.008
3634.94	1.0078
3643.65	1.006
3652.36	1.006
3661.06	1.006
3669.77	1.005
3678.47	1.0059
3687.18	1.004
3695.88	1.004
3704.59	1.002
3713.3	1
3722	1
3730.71	1
3739.41	0.998
3748.12	0.9978
3756.83	0.995
3765.53	0.994
3774.24	0.994
3782.94	0.9938
3791.65	0.991
