Infrared Spectrum: N-AMYL AMINE HYDROCHLORIDE
Formula: C5 H13 N  * H Cl
CAS: 142-65-4
State: SOLID (0.7% KBr PELLET)
Class: COBLENTZ
Instrument: Not specified, most likely a grating spectrometer.
Sampling: TRANSMISSION
Resolution: 4
Origin: STANDARD OIL OF OHIO
MICROMETERS	TRANSMITTANCE
2.04	0.644
2.0737	0.653
2.10739	0.651
2.14109	0.643
2.17479	0.638
2.20848	0.638
2.24218	0.644
2.27588	0.641
2.30957	0.639
2.34327	0.644
2.37696	0.661
2.41066	0.664
2.44436	0.666
2.47805	0.68
2.51175	0.695
2.54545	0.698
2.57914	0.7
2.61284	0.705
2.64654	0.708
2.68023	0.713
2.71393	0.71
2.74763	0.695
2.78132	0.663
2.81502	0.612
2.84872	0.547
2.88241	0.503
2.91611	0.476
2.94981	0.474
2.9835	0.5
3.0172	0.505
3.05089	0.432
3.08459	0.205
3.11829	0.109
3.15198	0.062
3.18568	0.013
3.21938	0.005
3.25307	0.003
3.28677	0.003
3.32047	0.003
3.35416	0.001
3.38786	0.001
3.42156	0.001
3.45525	0.003
3.48895	0.006
3.52265	0.025
3.55634	0.077
3.59004	0.141
3.62373	0.159
3.65743	0.259
3.69113	0.378
3.72482	0.388
3.75852	0.387
3.79222	0.388
3.82591	0.437
3.85961	0.498
3.89331	0.511
3.927	0.505
3.9607	0.488
3.9944	0.533
4.02809	0.606
4.06179	0.644
4.09549	0.67
4.12918	0.673
4.16288	0.702
4.19657	0.717
4.23027	0.722
4.26397	0.749
4.29766	0.771
4.33136	0.796
4.36506	0.809
4.39875	0.814
4.43245	0.816
4.46615	0.818
4.49984	0.821
4.53354	0.823
4.56724	0.824
4.60093	0.824
4.63463	0.828
4.66833	0.829
4.70202	0.823
4.73572	0.814
4.76942	0.804
4.80311	0.789
4.83681	0.767
4.8705	0.739
4.9042	0.702
4.9379	0.664
4.97159	0.629
5.00529	0.612
5.03899	0.609
5.07268	0.619
5.10638	0.641
5.14008	0.658
5.17377	0.68
5.20747	0.7
5.24117	0.715
5.27486	0.727
5.30856	0.739
5.34226	0.745
5.37595	0.752
5.40965	0.755
5.44334	0.76
5.47704	0.765
5.51074	0.765
5.54443	0.769
5.57813	0.771
5.61183	0.774
5.64552	0.777
5.67922	0.774
5.71292	0.765
5.74661	0.76
5.78031	0.755
5.81401	0.75
5.8477	0.745
5.8814	0.74
5.9151	0.734
5.94879	0.722
5.98249	0.696
6.01619	0.668
6.04988	0.638
6.08358	0.594
6.11727	0.545
6.15097	0.424
6.18467	0.222
6.21836	0.139
6.25206	0.151
6.28576	0.196
6.31945	0.254
6.35315	0.316
6.38685	0.375
6.42054	0.461
6.45424	0.493
6.48794	0.508
6.52163	0.493
6.55533	0.377
6.58903	0.245
6.62272	0.173
6.65642	0.114
6.69011	0.089
6.72381	0.084
6.75751	0.087
6.7912	0.08
6.8249	0.106
6.8586	0.203
6.89229	0.373
6.92599	0.454
6.95969	0.55
6.99338	0.602
7.02708	0.614
7.06078	0.624
7.09447	0.547
7.12817	0.457
7.16187	0.414
7.19556	0.398
7.22926	0.479
7.26295	0.51
7.29665	0.513
7.33035	0.626
7.36404	0.651
7.39774	0.631
7.43144	0.641
7.46513	0.659
7.49883	0.664
7.53253	0.67
7.56622	0.691
7.59992	0.702
7.63362	0.698
7.66731	0.686
7.70101	0.675
7.73471	0.685
7.7684	0.696
7.8021	0.671
7.8358	0.67
7.86949	0.7
7.90319	0.71
7.93688	0.74
7.97058	0.759
8.00428	0.762
8.03797	0.767
8.07167	0.776
8.10537	0.784
8.13906	0.787
8.17276	0.791
8.20646	0.791
8.24015	0.791
8.27385	0.787
8.30755	0.779
8.34124	0.755
8.37494	0.708
8.40864	0.648
8.44233	0.614
8.47603	0.595
8.50972	0.53
8.54342	0.528
8.57712	0.474
8.61081	0.479
8.64451	0.572
8.67821	0.683
8.7119	0.749
8.7456	0.782
8.7793	0.801
8.81299	0.813
8.84669	0.819
8.88039	0.833
8.91408	0.845
8.94778	0.853
8.98148	0.856
9.01517	0.846
9.04887	0.823
9.08256	0.787
9.11626	0.734
9.14996	0.651
9.18365	0.611
9.21735	0.612
9.25105	0.634
9.28474	0.651
9.31844	0.631
9.35214	0.616
9.38583	0.606
9.41953	0.616
9.45323	0.639
9.48692	0.653
9.52062	0.661
9.55432	0.663
9.58801	0.617
9.62171	0.575
9.65541	0.526
9.6891	0.503
9.7228	0.493
9.75649	0.493
9.79019	0.537
9.82389	0.572
9.85758	0.601
9.89128	0.621
9.92498	0.638
9.95867	0.644
9.99237	0.646
10.0261	0.649
10.0598	0.659
10.0935	0.68
10.1272	0.688
10.1609	0.69
10.1945	0.7
10.2282	0.703
10.2619	0.675
10.2956	0.636
10.3293	0.574
10.363	0.56
10.3967	0.607
10.4304	0.666
10.4641	0.703
10.4978	0.702
10.5315	0.691
10.5652	0.671
10.5989	0.653
10.6326	0.614
10.6663	0.563
10.7	0.526
10.7337	0.521
10.7674	0.563
10.8011	0.604
10.8348	0.632
10.8685	0.636
10.9022	0.629
10.9359	0.599
10.9696	0.57
11.0033	0.57
11.037	0.609
11.0707	0.664
11.1044	0.72
11.1381	0.75
11.1717	0.76
11.2054	0.767
11.2391	0.771
11.2728	0.772
11.3065	0.772
11.3402	0.772
11.3739	0.771
11.4076	0.762
11.4413	0.752
11.475	0.747
11.5087	0.742
11.5424	0.734
11.5761	0.725
11.6098	0.723
11.6435	0.723
11.6772	0.725
11.7109	0.735
11.7446	0.752
11.7783	0.765
11.812	0.777
11.8457	0.782
11.8794	0.784
11.9131	0.782
11.9468	0.779
11.9805	0.777
12.0142	0.776
12.0479	0.772
12.0816	0.774
12.1152	0.781
12.1489	0.787
12.1826	0.804
12.2163	0.819
12.25	0.828
12.2837	0.833
12.3174	0.835
12.3511	0.835
12.3848	0.835
12.4185	0.835
12.4522	0.835
12.4859	0.835
12.5196	0.835
12.5533	0.835
12.587	0.831
12.6207	0.823
12.6544	0.819
12.6881	0.816
12.7218	0.816
12.7555	0.803
12.7892	0.784
12.8229	0.76
12.8566	0.728
12.8903	0.695
12.924	0.67
12.9577	0.658
12.9914	0.653
13.0251	0.651
13.0587	0.654
13.0924	0.658
13.1261	0.671
13.1598	0.688
13.1935	0.707
13.2272	0.734
13.2609	0.765
13.2946	0.781
13.3283	0.796
13.362	0.806
13.3957	0.811
13.4294	0.811
13.4631	0.811
13.4968	0.811
13.5305	0.809
13.5642	0.806
13.5979	0.801
13.6316	0.801
13.6653	0.799
13.699	0.801
13.7327	0.806
13.7664	0.819
13.8001	0.828
13.8338	0.835
13.8675	0.841
13.9012	0.845
13.9349	0.846
13.9686	0.85
14.0023	0.853
14.0359	0.853
14.0696	0.853
14.1033	0.853
14.137	0.853
14.1707	0.853
14.2044	0.853
14.2381	0.853
14.2718	0.853
14.3055	0.853
14.3392	0.853
14.3729	0.853
14.4066	0.853
14.4403	0.853
14.474	0.851
14.5077	0.851
14.5414	0.85
14.5751	0.85
14.6088	0.85
14.6425	0.85
14.6762	0.848
14.7099	0.845
14.7436	0.84
14.7773	0.84
14.811	0.84
14.8447	0.838
14.8784	0.838
14.9121	0.838
14.9458	0.836
14.9794	0.833
15.0131	0.831
15.0468	0.829
15.0805	0.829
15.1142	0.829
15.1479	0.829
15.1816	0.829
15.2153	0.829
15.249	0.829
