Infrared Spectrum: Pimeloyl chloride
Formula: C 7 H 10 Cl 2 O 2
CAS: 142-79-0
State: gas
Origin: EPA-IR VAPOR PHASE LIBRARY
1/CM	ABSORBANCE
549.8	0.012759
559.445	0.019269
569.09	0.027719
578.734	0.028589
588.379	0.025509
598.024	0.020369
607.669	0.014369
617.313	0.009599
626.958	0.007159
636.603	0.007059
646.248	0.007189
655.893	0.008569
665.537	0.011429
675.182	0.019749
684.827	0.027829
694.472	0.020189
704.116	0.016879
713.761	0.019549
723.406	0.026309
733.051	0.030159
742.695	0.027589
752.34	0.023289
761.985	0.017679
771.63	0.013109
781.275	0.010919
790.919	0.009759
800.564	0.008589
810.209	0.007569
819.854	0.007229
829.498	0.007919
839.143	0.008819
848.788	0.009659
858.433	0.010889
868.078	0.012279
877.722	0.014459
887.367	0.017199
897.012	0.021169
906.657	0.023919
916.301	0.026139
925.946	0.031949
935.591	0.041959
945.236	0.051059
954.88	0.051779
964.525	0.050049
974.17	0.049449
983.815	0.050689
993.46	0.050329
1003.1	0.043129
1012.75	0.031449
1022.39	0.023689
1032.04	0.018279
1041.68	0.014469
1051.33	0.012689
1060.97	0.013409
1070.62	0.015339
1080.26	0.017029
1089.91	0.018509
1099.55	0.017319
1109.2	0.012979
1118.84	0.009159
1128.49	0.006579
1138.13	0.005679
1147.78	0.006179
1157.42	0.007599
1167.07	0.008199
1176.71	0.007649
1186.36	0.007149
1196	0.006509
1205.64	0.005439
1215.29	0.005029
1224.93	0.004949
1234.58	0.004579
1244.22	0.004549
1253.87	0.004769
1263.51	0.004879
1273.16	0.004829
1282.8	0.004849
1292.45	0.004739
1302.09	0.004859
1311.74	0.004849
1321.38	0.004919
1331.03	0.005579
1340.67	0.006799
1350.32	0.006909
1359.96	0.006129
1369.61	0.004839
1379.25	0.003579
1388.9	0.003259
1398.54	0.004339
1408.18	0.007419
1417.83	0.009629
1427.47	0.009129
1437.12	0.007499
1446.76	0.007429
1456.41	0.009319
1466.05	0.007779
1475.7	0.003859
1485.34	0.001629
1494.99	0.0007983
1504.63	0.0004274
1514.28	0.0002312
1523.92	0.00019226
1533.57	0.0001045
1543.21	5.78e-05
1552.86	8.74e-05
1562.5	0.00018083
1572.15	0.0002848
1581.79	0.0002805
1591.44	0.0004147
1601.08	0.000546
1610.73	0.0006339
1620.37	0.0006688
1630.01	0.0008272
1639.66	0.000912
1649.3	0.0011003
1658.95	0.001429
1668.59	0.001649
1678.24	0.001819
1687.88	0.001979
1697.53	0.002139
1707.17	0.002549
1716.82	0.003249
1726.46	0.004249
1736.11	0.005649
1745.75	0.008149
1755.4	0.012929
1765.04	0.022179
1774.69	0.038959
1784.33	0.070829
1793.98	0.126589
1803.62	0.186039
1813.27	0.177089
1822.91	0.111279
1832.55	0.059029
1842.2	0.031669
1851.84	0.018839
1861.49	0.012619
1871.13	0.009269
1880.78	0.007259
1890.42	0.005949
1900.07	0.005039
1909.71	0.004279
1919.36	0.003759
1929	0.003239
1938.65	0.002839
1948.29	0.002459
1957.94	0.002149
1967.58	0.001829
1977.23	0.001639
1986.87	0.001509
1996.52	0.001309
2006.16	0.0011381
2015.81	0.0010784
2025.45	0.0009556
2035.1	0.000916
2044.74	0.0008273
2054.38	0.0008302
2064.03	0.000802
2073.67	0.0008317
2083.32	0.0008769
2092.96	0.0011168
2102.61	0.001689
2112.25	0.002749
2121.9	0.004109
2131.54	0.004029
2141.19	0.002329
2150.83	0.0010943
2160.48	0.000729
2170.12	0.0005542
2179.77	0.0004326
2189.41	0.0004426
2199.06	0.0004407
2208.7	0.000515
2218.35	0.0006289
2227.99	0.0007402
2237.64	0.0008974
2247.28	0.0009039
2256.92	0.0008034
2266.57	0.000634
2276.21	0.0006498
2285.86	0.0005908
2295.5	0.000628
2305.15	0.0005838
2314.79	0.0007108
2324.44	0.0007024
2334.08	0.0007277
2343.73	0.0006514
2353.37	0.0007175
2363.02	0.000796
2372.66	0.0007674
2382.31	0.0005823
2391.95	0.0004384
2401.6	0.0004329
2411.24	0.0004257
2420.89	0.0003366
2430.53	0.000349
2440.18	0.0003186
2449.82	0.0003494
2459.47	0.0003369
2469.11	0.0002822
2478.75	0.0002946
2488.4	0.0002856
2498.04	0.00024078
2507.69	0.0003053
2517.33	0.0003029
2526.98	0.0003626
2536.62	0.0003618
2546.27	0.0003159
2555.91	0.0003283
2565.56	0.0002496
2575.2	0.0003244
2584.85	0.0003583
2594.49	0.0002768
2604.14	0.0003526
2613.78	0.0003785
2623.43	0.0004559
2633.07	0.0003536
2642.72	0.0004576
2652.36	0.0006459
2662.01	0.0004839
2671.65	0.0005597
2681.29	0.0006714
2690.94	0.0007481
2700.58	0.0008407
2710.23	0.0007253
2719.87	0.0007483
2729.52	0.0008185
2739.16	0.0007851
2748.81	0.0009931
2758.45	0.000915
2768.1	0.0008971
2777.74	0.0010596
2787.39	0.0010661
2797.03	0.001379
2806.68	0.001449
2816.32	0.001629
2825.97	0.001859
2835.61	0.002249
2845.26	0.002869
2854.9	0.004399
2864.55	0.008059
2874.19	0.011619
2883.84	0.010509
2893.48	0.007749
2903.12	0.007459
2912.77	0.010019
2922.41	0.015379
2932.06	0.021459
2941.7	0.027499
2951.35	0.032879
2960.99	0.029939
2970.64	0.018849
2980.28	0.011399
2989.93	0.006469
2999.57	0.003989
3009.22	0.002459
3018.86	0.001719
3028.51	0.001469
3038.15	0.001043
3047.8	0.0009902
3057.44	0.0007549
3067.09	0.000587
3076.73	0.0005451
3086.38	0.0005239
3096.02	0.000426
3105.67	0.0004816
3115.31	0.0003635
3124.95	0.0004255
3134.6	0.0003948
3144.24	0.0004226
3153.89	0.0004414
3163.53	0.0004602
3173.18	0.0004833
3182.82	0.0003188
3192.47	0.0003273
3202.11	0.0003513
3211.76	0.0003476
3221.4	0.0003698
3231.05	0.0002785
3240.69	0.0002695
3250.34	0.000351
3259.98	0.0004867
3269.63	0.0003017
3279.27	0.0002741
3288.92	0.0002666
3298.56	0.00015419
3308.21	0.00022457
3317.85	9.52e-05
3327.49	0.0002692
3337.14	0.0002561
3346.78	0.0003576
3356.43	0.0003021
3366.07	0.000123
3375.72	0.00021331
3385.36	2.3e-05
3395.01	0.0002676
3404.65	0.0001185
3414.3	0.0001994
3423.94	0.00018285
3433.59	0.00022568
3443.23	0.00016108
3452.88	0.0001354
3462.52	0.00024043
3472.17	0.0002989
3481.81	0.00017913
3491.46	0.00023365
3501.1	0.0003858
3510.75	0.0004526
3520.39	0.0003554
3530.04	0.000505
3539.68	0.0006411
3549.32	0.0009021
3558.97	0.001289
3568.61	0.001729
3578.26	0.002569
3587.9	0.003159
3597.55	0.003459
3607.19	0.002719
3616.84	0.001899
3626.48	0.001319
3636.13	0.0009655
3645.77	0.0008058
3655.42	0.0005566
3665.06	0.000588
3674.71	0.0004407
3684.35	0.0004228
3694	0.0004365
3703.64	0.0004073
3713.29	0.00017761
3722.93	0.00024273
3732.58	0.0003188
3742.22	0.0004514
3751.86	0.00019722
3761.51	0.00020764
3771.15	0.0002376
3780.8	0.0002142
3790.44	0.00023412
3800.09	0.00021389
3809.73	0.0003642
3819.38	0.00017813
3829.02	0.0002515
3838.67	5.19e-05
3848.31	0.0001925
3857.96	0.0003077
3867.6	0.0002508
3877.25	0.0003765
3886.89	0.00019205
3896.54	0.0003673
3906.18	0.0001297
3915.83	0.0004839
3925.47	0.000287
3935.12	0.00019696
3944.76	0.0001348
3954.41	5.43e-05
3964.05	0.0002955
3973.69	0.00024453
3983.34	0.0004112
3992.98	0.000151286
