Infrared Spectrum: 1,2,3-Propanetriol, 1-dodecanate
Formula: C15 H30 O4
CAS: 142-18-7
State: SOLUTION (10% CCl4 FOR 2.7-7.5, 10% CS2 FOR 7.5-26 MICRON) VS SOLVENT
Class: COBLENTZ
Instrument: DOW KBr FOREPRISM-GRATING
Instrument parameters: BLAZED AT 3.5, 12.0, 20.0 MICRON AND CHANGED AT 5.0, 7.5, 14.9 MICRON
Sampling: TRANSMISSION
Path length: 0.011 CM, 0.011 CM
Resolution: 2
Origin: DOW CHEMICAL COMPANY
1/CM	TRANSMITTANCE
392	0.726
401	0.7245
410	0.7211
419	0.7175
428	0.7125
437	0.7072
446	0.7021
455	0.6972
464	0.6925
473	0.6885
482	0.6849
491	0.6798
500	0.6765
509	0.6736
518	0.6708
527	0.6678
536	0.6637
545	0.6585
554	0.6547
563	0.6517
572	0.6526
581	0.6537
590	0.6549
599	0.6561
608	0.659
617	0.6634
626	0.6632
635	0.6621
644	0.6608
653	0.6596
662	0.6507
671	0.649
680	0.6587
689	0.668
698	0.6591
707	0.636
716	0.5612
725	0.61
734	0.6758
743	0.7017
752	0.7205
761	0.7271
770	0.7372
779	0.7476
788	0.7583
797	0.764
806	0.7648
815	0.7586
824	0.7501
833	0.7344
842	0.7128
851	0.6996
860	0.6965
869	0.7106
878	0.73
887	0.7345
896	0.7224
905	0.6948
914	0.6543
923	0.6277
932	0.6467
941	0.6876
950	0.6957
959	0.6833
968	0.6315
977	0.5765
986	0.5353
995	0.5437
1004	0.561
1013	0.5378
1022	0.4781
1031	0.3993
1040	0.3208
1049	0.2963
1058	0.3057
1067	0.3346
1076	0.3912
1085	0.42
1094	0.3762
1103	0.301
1112	0.2637
1121	0.3247
1130	0.4434
1139	0.4824
1148	0.37
1157	0.2666
1166	0.2401
1175	0.2563
1184	0.2863
1193	0.3129
1202	0.3354
1211	0.3406
1220	0.3374
1229	0.3309
1238	0.3325
1247	0.3359
1256	0.3414
1265	0.3496
1274	0.3606
1283	0.3775
1292	0.3906
1301	0.3966
1310	0.4092
1319	0.4171
1328	0.4226
1337	0.4166
1346	0.4076
1355	0.398
1364	0.3882
1373	0.3536
1382	0.3529
1391	0.3543
1400	0.347
1409	0.3382
1418	0.341
1427	0.4053
1436	0.3944
1445	0.3682
1454	0.3009
1463	0.2559
1472	0.3895
1481	0.6411
1490	0.6746
1499	0.6722
1508	0.6565
1517	0.6288
1526	0.5853
1535	0.5323
1544	0.4733
1553	0.4295
1562	0.4348
1571	0.4726
1580	0.5887
1589	0.6661
1598	0.7101
1607	0.7317
1616	0.7384
1625	0.7375
1634	0.7317
1643	0.7203
1652	0.7039
1661	0.6792
1670	0.6435
1679	0.5836
1688	0.4998
1697	0.3473
1706	0.2529
1715	0.2224
1724	0.1904
1733	0.138
1742	0.1683
1751	0.5969
1760	0.7565
1769	0.8025
1778	0.8228
1787	0.8365
1796	0.8445
1805	0.8506
1814	0.8544
1823	0.857
1832	0.8599
1841	0.8606
1850	0.8609
1859	0.8604
1868	0.8598
1877	0.8587
1886	0.8575
1895	0.8567
1904	0.8562
1913	0.8558
1922	0.8553
1931	0.8547
1940	0.8546
1949	0.855
1958	0.8555
1967	0.8558
1976	0.8561
1985	0.8574
1994	0.8602
2003	0.8587
2012	0.8573
2021	0.8558
2030	0.8558
2039	0.8577
2048	0.8597
2057	0.8624
2066	0.8666
2075	0.8686
2084	0.8692
2093	0.8697
2102	0.8698
2111	0.87
2120	0.8704
2129	0.871
2138	0.8716
2147	0.8721
2156	0.8725
2165	0.8742
2174	0.8771
2183	0.8705
2192	0.8701
2201	0.8701
2210	0.8695
2219	0.8678
2228	0.8657
2237	0.8636
2246	0.8618
2255	0.8599
2264	0.8577
2273	0.8554
2282	0.8533
2291	0.851
2300	0.8489
2309	0.8466
2318	0.8444
2327	0.8421
2336	0.8398
2345	0.8375
2354	0.8353
2363	0.8331
2372	0.831
2381	0.8289
2390	0.8267
2399	0.8241
2408	0.8214
2417	0.8182
2426	0.8133
2435	0.8083
2444	0.8035
2453	0.7985
2462	0.7937
2471	0.7888
2480	0.784
2489	0.7796
2498	0.7756
2507	0.7715
2516	0.7675
2525	0.764
2534	0.7605
2543	0.7569
2552	0.754
2561	0.7508
2570	0.748
2579	0.7437
2588	0.7392
2597	0.7347
2606	0.7294
2615	0.7228
2624	0.7165
2633	0.7095
2642	0.7021
2651	0.6961
2660	0.6926
2669	0.6926
2678	0.6922
2687	0.6904
2696	0.6875
2705	0.6811
2714	0.6745
2723	0.669
2732	0.6634
2741	0.6568
2750	0.6474
2759	0.6367
2768	0.6254
2777	0.6082
2786	0.5895
2795	0.5673
2804	0.5418
2813	0.5144
2822	0.4782
2831	0.4144
2840	0.1891
2849	0.0469
2858	0.1142
2867	0.1885
2876	0.2215
2885	0.1828
2894	0.1242
2903	0.0656
2912	0.0178
2921	0.0184
2930	0.0379
2939	0.0795
2948	0.0853
2957	0.1009
2966	0.2714
2975	0.4108
2984	0.4679
2993	0.5192
3002	0.5486
3011	0.562
3020	0.5624
3029	0.5589
3038	0.5532
3047	0.5469
3056	0.5405
3065	0.5326
3074	0.5227
3083	0.5105
3092	0.4975
3101	0.4842
3110	0.4703
3119	0.455
3128	0.4396
3137	0.4244
3146	0.4092
3155	0.3943
3164	0.3794
3173	0.3652
3182	0.3509
3191	0.338
3200	0.325
3209	0.3134
3218	0.3017
3227	0.2892
3236	0.2764
3245	0.2643
3254	0.2526
3263	0.2429
3272	0.2338
3281	0.2281
3290	0.2227
3299	0.218
3308	0.2137
3317	0.2101
3326	0.2085
3335	0.2072
3344	0.2064
3353	0.2058
3362	0.2089
3371	0.2144
3380	0.22
3389	0.2262
3398	0.2332
3407	0.2433
3416	0.2535
3425	0.2655
3434	0.2784
3443	0.2957
3452	0.3126
3461	0.3288
3470	0.3459
3479	0.3643
3488	0.385
3497	0.4064
3506	0.4267
3515	0.4465
3524	0.4762
3533	0.5045
3542	0.5776
3551	0.6454
3560	0.6761
3569	0.7018
3578	0.7231
3587	0.7425
3596	0.7619
3605	0.7837
3614	0.8041
3623	0.821
3632	0.8349
3641	0.8459
3650	0.8553
3659	0.8634
3668	0.8697
3677	0.8732
3686	0.875
3695	0.876
3704	0.877
3713	0.8774
3722	0.8778
3731	0.8781
3740	0.8788
3749	0.8795
3758	0.8802
3767	0.8806
3776	0.8809
3785	0.8812
