Infrared Spectrum: 3,7,11-Trimethyl-1,6,10-dodecatriene-3-ol
Formula: C 15 H 26 O
CAS: 142-50-7
State: gas
Instrument: HP-GC/MS/IRD
Origin: NIST Mass Spectrometry Data Center
1/CM	ABSORBANCE
550	0.0002325
562	0.0002115
574	0.000249
586	0.000216
598	0.0002565
610	0.0001095
622	0.0001755
634	2.85e-05
646	0
658	0.0002655
670	0.000375
682	0.0006075
694	0.000579
706	0.0004365
718	0.000384
730	0.000342
742	0.000447
754	0.000474
766	0.0004245
778	0.000447
790	0.000606
802	0.0007965
814	0.0010125
826	0.0014175
838	0.001509
850	0.001188
862	0.000978
874	0.001044
886	0.001374
898	0.002013
910	0.003234
922	0.005142
934	0.003027
946	0.002106
958	0.0017715
970	0.001659
982	0.00198
994	0.002739
1006	0.0019875
1018	0.001509
1030	0.0013905
1042	0.001281
1054	0.0014235
1066	0.001743
1078	0.002205
1090	0.002691
1102	0.003402
1114	0.0032715
1126	0.002529
1138	0.002124
1150	0.002136
1162	0.002208
1174	0.002172
1186	0.002217
1198	0.0020865
1210	0.001932
1222	0.0018225
1234	0.0017925
1246	0.001746
1258	0.0016965
1270	0.001704
1282	0.0017025
1294	0.001854
1306	0.001926
1318	0.001995
1330	0.001896
1342	0.001932
1354	0.002109
1366	0.002676
1378	0.0038475
1390	0.003066
1402	0.002286
1414	0.0024975
1426	0.0022785
1438	0.0027705
1450	0.0030585
1462	0.002466
1474	0.0014745
1486	0.0009375
1498	0.000696
1510	0.000603
1522	0.0004965
1534	0.000453
1546	0.000447
1558	0.0004125
1570	0.000369
1582	0.0004095
1594	0.0004725
1606	0.000459
1618	0.0004365
1630	0.000591
1642	0.000738
1654	0.0006375
1666	0.0006075
1678	0.000411
1690	0.000252
1702	0.0001905
1714	0.000141
1726	0.000153
1738	0.0001335
1750	0.000141
1762	0.000111
1774	0.000123
1786	0.0001485
1798	0.000138
1810	0.000159
1822	0.00018
1834	0.0002745
1846	0.0003495
1858	0.000276
1870	0.0001665
1882	0.0001305
1894	9.9e-05
1906	0.000114
1918	9.45e-05
1930	7.5e-05
1942	9e-05
1954	7.2e-05
1966	8.25e-05
1978	8.85e-05
1990	6e-05
2002	7.5e-05
2014	6.75e-05
2026	6.3e-05
2038	7.35e-05
2050	7.5e-05
2062	6.75e-05
2074	9e-05
2086	5.4e-05
2098	3.75e-05
2110	3.75e-05
2122	4.05e-05
2134	4.8e-05
2146	8.25e-05
2158	3.15e-05
2170	5.1e-05
2182	6e-05
2194	3.45e-05
2206	3.15e-05
2218	2.55e-05
2230	3.9e-05
2242	4.05e-05
2254	3.6e-05
2266	1.35e-05
2278	4.95e-05
2290	6e-06
2302	2.25e-05
2314	1.5e-05
2326	6e-06
2338	1.2e-05
2350	2.7e-05
2362	3.9e-05
2374	5.4e-05
2386	5.1e-05
2398	9.75e-05
2410	9.75e-05
2422	0.000111
2434	0.000105
2446	9.75e-05
2458	8.55e-05
2470	9.9e-05
2482	8.7e-05
2494	8.25e-05
2506	0.00012
2518	0.000126
2530	0.0001065
2542	0.00015
2554	0.000138
2566	0.000114
2578	0.0001275
2590	0.000156
2602	0.000162
2614	0.0001665
2626	0.0001725
2638	0.00018
2650	0.000222
2662	0.0002475
2674	0.0002625
2686	0.0002865
2698	0.000291
2710	0.0003675
2722	0.0004155
2734	0.0006075
2746	0.000588
2758	0.000549
2770	0.0005715
2782	0.000624
2794	0.000771
2806	0.00093
2818	0.0013095
2830	0.001947
2842	0.0034125
2854	0.0057315
2866	0.00714
2878	0.0070215
2890	0.0076545
2902	0.00933
2914	0.0121695
2926	0.01488
2938	0.013713
2950	0.009981
2962	0.0091425
2974	0.011211
2986	0.010119
2998	0.0064695
3010	0.0045375
3022	0.0035205
3034	0.0026655
3046	0.0021015
3058	0.001815
3070	0.001581
3082	0.001623
3094	0.0019245
3106	0.0009675
3118	0.0005685
3130	0.000402
3142	0.000342
3154	0.0002565
3166	0.0002715
3178	0.000195
3190	0.0002145
3202	0.000216
3214	0.000207
3226	0.000138
3238	0.000126
3250	0.000129
3262	0.000144
3274	0.000123
3286	0.000105
3298	0.00012
3310	0.000135
3322	4.35e-05
3334	9.15e-05
3346	6.45e-05
3358	0.0001515
3370	0.000126
3382	0.000138
3394	9.6e-05
3406	0.000147
3418	0.000138
3430	7.2e-05
3442	0.00012
3454	7.8e-05
3466	6.75e-05
3478	7.2e-05
3490	4.5e-05
3502	3.75e-05
3514	5.7e-05
3526	6e-06
3538	6e-05
3550	0.000159
3562	0.00021
3574	0.0004575
3586	0.000423
3598	0.0004395
3610	0.000381
3622	0.000576
3634	0.000933
3646	0.000681
3658	0.0002985
3670	0.000132
3682	0.000129
3694	4.95e-05
3706	5.4e-05
3718	3.3e-05
3730	3.9e-05
3742	9.6e-05
3754	3.6e-05
3766	9.45e-05
3778	4.65e-05
3790	3.15e-05
3802	3.15e-05
3814	9e-05
3826	9.45e-05
3838	7.95e-05
