Infrared Spectrum: Allyl heptanoate
Formula: C 10 H 18 O 2
CAS: 142-19-8
State: gas
Instrument: HP-GC/MS/IRD
Origin: NIST Mass Spectrometry Data Center
1/CM	ABSORBANCE
550	0.0005075
562	5.6e-05
574	0.0001435
586	0.0001365
598	0.0003745
610	0.000413
622	0.000406
634	0.0002975
646	9.45e-05
658	0.0001715
670	0.000238
682	0.000168
694	0.0001365
706	0.0002415
718	0.0004585
730	0.000623
742	0.000553
754	0.0004025
766	0.0004375
778	0.0003815
790	0.000252
802	0.0003395
814	0.0005355
826	0.000693
838	0.0008855
850	0.000959
862	0.001176
874	0.0014315
886	0.001736
898	0.0021805
910	0.0033495
922	0.0059535
934	0.006797
946	0.004249
958	0.003836
970	0.0052395
982	0.00833
994	0.010808
1006	0.0098245
1018	0.0084525
1030	0.0059955
1042	0.004431
1054	0.0037625
1066	0.003997
1078	0.0051135
1090	0.007714
1102	0.0110005
1114	0.0111965
1126	0.0104055
1138	0.0136745
1150	0.024101
1162	0.031948
1174	0.0247695
1186	0.016779
1198	0.0151515
1210	0.015645
1222	0.0165445
1234	0.016324
1246	0.013286
1258	0.01064
1270	0.0094465
1282	0.008498
1294	0.006881
1306	0.006062
1318	0.0054915
1330	0.0052535
1342	0.0055895
1354	0.005425
1366	0.006237
1378	0.005915
1390	0.003948
1402	0.0027335
1414	0.0029785
1426	0.0038045
1438	0.0043855
1450	0.0053795
1462	0.0055615
1474	0.0035735
1486	0.0018025
1498	0.0010325
1510	0.000721
1522	0.0005565
1534	0.000469
1546	0.000392
1558	0.0003395
1570	0.0003465
1582	0.000343
1594	0.0003745
1606	0.0003815
1618	0.000504
1630	0.000735
1642	0.0011725
1654	0.001225
1666	0.000854
1678	0.00091
1690	0.001253
1702	0.002093
1714	0.003633
1726	0.006804
1738	0.0159845
1750	0.032312
1762	0.0304605
1774	0.0129815
1786	0.0050925
1798	0.0025235
1810	0.0014595
1822	0.000973
1834	0.0007595
1846	0.000693
1858	0.000735
1870	0.000616
1882	0.0004025
1894	0.0003255
1906	0.0002835
1918	0.0002625
1930	0.000252
1942	0.000238
1954	0.000245
1966	0.000252
1978	0.0002695
1990	0.000259
2002	0.0002555
2014	0.000231
2026	0.0002345
2038	0.0002205
2050	0.0001855
2062	0.0001645
2074	0.000175
2086	0.0001365
2098	0.0001085
2110	0.000112
2122	8.4e-05
2134	0.0001015
2146	7e-05
2158	7.35e-05
2170	6.3e-05
2182	5.25e-05
2194	2.8e-05
2206	2.8e-05
2218	3.15e-05
2230	4.2e-05
2242	7.35e-05
2254	8.05e-05
2266	4.55e-05
2278	6.65e-05
2290	5.25e-05
2302	3.85e-05
2314	7.7e-05
2326	6.65e-05
2338	7.7e-05
2350	9.45e-05
2362	5.25e-05
2374	7e-05
2386	6.3e-05
2398	6.3e-05
2410	4.2e-05
2422	5.25e-05
2434	3.85e-05
2446	6.65e-05
2458	5.95e-05
2470	5.6e-05
2482	4.55e-05
2494	4.55e-05
2506	3.85e-05
2518	6.65e-05
2530	6.3e-05
2542	8.75e-05
2554	8.05e-05
2566	0.000112
2578	0.000119
2590	0.000112
2602	0.0001715
2614	0.0001715
2626	0.0001925
2638	0.0001855
2650	0.0002205
2662	0.00028
2674	0.0003185
2686	0.0003185
2698	0.000329
2710	0.0003465
2722	0.0003885
2734	0.000462
2746	0.000525
2758	0.000553
2770	0.0005775
2782	0.0007035
2794	0.0009345
2806	0.0011935
2818	0.0015575
2830	0.002142
2842	0.003332
2854	0.00637
2866	0.0105035
2878	0.0114485
2890	0.010227
2902	0.010213
2914	0.0145705
2926	0.0227675
2938	0.028742
2950	0.0260925
2962	0.022981
2974	0.0186235
2986	0.009569
2998	0.0056455
3010	0.0037485
3022	0.003024
3034	0.002275
3046	0.0015365
3058	0.0013265
3070	0.001463
3082	0.001939
3094	0.0025235
3106	0.00196
3118	0.000959
3130	0.0005635
3142	0.000483
3154	0.000364
3166	0.000301
3178	0.000294
3190	0.000273
3202	0.0002205
3214	0.0002135
3226	8.4e-05
3238	0.000126
3250	0.0001435
3262	9.8e-05
3274	0.0001295
3286	0.0001225
3298	0.000105
3310	0.000119
3322	8.75e-05
3334	0.000105
3346	8.05e-05
3358	7.35e-05
3370	6.65e-05
3382	0.0001085
3394	8.4e-05
3406	0.0001225
3418	0.000147
3430	0.000126
3442	0.00014
3454	8.75e-05
3466	0.0002555
3478	0.000343
3490	0.0004445
3502	0.000385
3514	0.0003185
3526	0.0001715
3538	0.000203
3550	0.0001365
3562	0.0001015
3574	0.0001225
3586	7.7e-05
3598	9.8e-05
3610	6.65e-05
3622	0.000147
3634	0.0001155
3646	0.000161
3658	0.0001295
3670	0.000154
3682	3.15e-05
3694	7.35e-05
3706	0.000154
3718	7.7e-05
3730	8.4e-05
3742	0.0001155
3754	0.0001085
3766	0.000112
3778	0.0001435
3790	0.000133
3802	0.0001645
3814	0.000161
3826	0.0001295
3838	0.00014
