Infrared Spectrum: Isopropyl palmitate
Formula: C 19 H 38 O 2
CAS: 142-91-6
State: gas
Origin: EPA-IR VAPOR PHASE LIBRARY
1/CM	ABSORBANCE
551.7	0.0012
563.274	0.00117
574.848	0.00144
586.421	0.00181
597.995	0.00221
609.569	0.00211
621.143	0.00182
632.717	0.00198
644.291	0.00183
655.864	0.00177
667.438	0.00173
679.012	0.00199
690.586	0.0026
702.16	0.00401
713.734	0.00601
725.307	0.0063
736.881	0.00535
748.455	0.00461
760.029	0.00414
771.603	0.00396
783.177	0.00385
794.75	0.00382
806.324	0.00453
817.898	0.00628
829.472	0.00621
841.046	0.00443
852.619	0.00395
864.193	0.00442
875.767	0.00511
887.341	0.00569
898.915	0.00564
910.489	0.00584
922.062	0.00745
933.636	0.00996
945.21	0.01307
956.784	0.01558
968.358	0.01447
979.932	0.01152
991.505	0.00947
1003.08	0.00816
1014.65	0.00762
1026.23	0.00794
1037.8	0.00901
1049.37	0.01009
1060.95	0.01224
1072.52	0.01579
1084.1	0.02252
1095.67	0.03965
1107.24	0.07986
1118.82	0.08481
1130.39	0.06302
1141.97	0.0597
1153.54	0.05862
1165.11	0.06671
1176.69	0.07458
1188.26	0.06514
1199.83	0.05465
1211.41	0.04908
1222.98	0.04922
1234.56	0.05341
1246.13	0.05533
1257.7	0.04749
1269.28	0.03613
1280.85	0.0297
1292.42	0.02704
1304	0.02662
1315.57	0.02569
1327.15	0.02517
1338.72	0.02763
1350.29	0.02915
1361.87	0.03362
1373.44	0.03778
1385.02	0.03182
1396.59	0.0172
1408.16	0.01104
1419.74	0.01166
1431.31	0.01538
1442.88	0.02115
1454.46	0.03099
1466.03	0.03292
1477.61	0.01886
1489.18	0.00907
1500.75	0.00579
1512.33	0.0044
1523.9	0.00374
1535.48	0.0033
1547.05	0.00298
1558.62	0.00277
1570.2	0.00272
1581.77	0.00267
1593.34	0.00267
1604.92	0.00268
1616.49	0.00276
1628.07	0.00285
1639.64	0.00307
1651.21	0.00332
1662.79	0.0037
1674.36	0.00435
1685.93	0.00573
1697.51	0.00836
1709.08	0.01279
1720.66	0.02417
1732.23	0.05989
1743.8	0.12066
1755.38	0.09694
1766.95	0.0363
1778.53	0.0139
1790.1	0.00802
1801.67	0.00561
1813.25	0.00424
1824.82	0.0034
1836.39	0.00291
1847.97	0.00253
1859.54	0.00229
1871.12	0.0021
1882.69	0.00196
1894.26	0.00188
1905.84	0.00189
1917.41	0.0019
1928.99	0.00195
1940.56	0.0019
1952.13	0.00185
1963.71	0.00177
1975.28	0.00178
1986.85	0.00179
1998.43	0.00183
2010	0.00185
2021.58	0.00188
2033.15	0.00189
2044.72	0.00185
2056.3	0.00182
2067.87	0.00171
2079.44	0.00159
2091.02	0.00146
2102.59	0.00137
2114.17	0.0013
2125.74	0.00124
2137.31	0.00125
2148.89	0.00123
2160.46	0.00123
2172.04	0.00124
2183.61	0.00129
2195.18	0.00131
2206.76	0.00131
2218.33	0.00132
2229.9	0.00134
2241.48	0.00137
2253.05	0.00139
2264.63	0.00145
2276.2	0.00145
2287.77	0.00145
2299.35	0.0015
2310.92	0.00157
2322.5	0.00154
2334.07	0.00151
2345.64	0.00146
2357.22	0.00143
2368.79	0.0014
2380.36	0.00142
2391.94	0.00139
2403.51	0.00137
2415.09	0.00135
2426.66	0.00131
2438.23	0.00128
2449.81	0.00127
2461.38	0.00132
2472.96	0.00133
2484.53	0.00139
2496.1	0.00147
2507.68	0.00158
2519.25	0.00171
2530.82	0.00172
2542.4	0.00181
2553.97	0.00183
2565.55	0.00192
2577.12	0.00203
2588.69	0.00219
2600.27	0.00234
2611.84	0.00258
2623.41	0.00276
2634.99	0.00303
2646.56	0.00326
2658.14	0.00358
2669.71	0.00402
2681.28	0.00431
2692.86	0.00429
2704.43	0.00405
2716.01	0.00397
2727.58	0.00418
2739.15	0.00476
2750.73	0.00503
2762.3	0.0053
2773.87	0.00589
2785.45	0.00701
2797.02	0.00872
2808.6	0.01102
2820.17	0.01491
2831.74	0.02114
2843.32	0.03586
2854.89	0.08812
2866.47	0.12428
2878.04	0.08462
2889.61	0.07181
2901.19	0.08765
2912.76	0.14202
2924.33	0.2631
2935.91	0.33452
2947.48	0.20055
2959.06	0.11731
2970.63	0.09888
2982.2	0.08979
2993.78	0.05578
3005.35	0.02782
3016.92	0.01576
3028.5	0.01085
3040.07	0.00829
3051.65	0.00665
3063.22	0.00564
3074.79	0.0048
3086.37	0.00435
3097.94	0.00408
3109.52	0.00372
3121.09	0.00341
3132.66	0.00315
3144.24	0.0029
3155.81	0.00278
3167.38	0.00273
3178.96	0.00256
3190.53	0.00236
3202.11	0.00212
3213.68	0.00187
3225.25	0.00165
3236.83	0.00152
3248.4	0.00132
3259.98	0.00118
3271.55	0.00112
3283.12	0.00113
3294.7	0.00108
3306.27	0.0011
3317.84	0.00105
3329.42	0.0011
3340.99	0.0011
3352.57	0.00113
3364.14	0.00119
3375.71	0.00118
3387.29	0.00121
3398.86	0.00122
3410.43	0.00115
3422.01	0.00116
3433.58	0.00118
3445.16	0.00128
3456.73	0.00163
3468.3	0.00208
3479.88	0.00216
3491.45	0.00168
3503.03	0.00129
3514.6	0.0011
3526.17	0.0009978
3537.75	0.0008838
3549.32	0.0008857
3560.89	0.0008293
3572.47	0.0008684
3584.04	0.0009147
3595.62	0.0009576
3607.19	0.00109
3618.76	0.00115
3630.34	0.00119
3641.91	0.00122
3653.49	0.00117
3665.06	0.00122
3676.63	0.00109
3688.21	0.00116
3699.78	0.00111
3711.35	0.00111
3722.93	0.00121
3734.5	0.00114
3746.08	0.00113
3757.65	0.0011
3769.22	0.00113
3780.8	0.00117
3792.37	0.00116
3803.94	0.00125
3815.52	0.0013
3827.09	0.00126
3838.67	0.00126
3850.24	0.0013
3861.81	0.0013
3873.39	0.00127
3884.96	0.00138
3896.54	0.00135
3908.11	0.00129
3919.68	0.0014
3931.26	0.00148
3942.83	0.00138
3954.4	0.00134
3965.98	0.00142
3977.55	0.00151
3989.13	0.00152
4000.7	0.00171
