Infrared Spectrum: 2-Bromostearic acid
Formula: C 18 H 35 Br O 2
CAS: 142-94-9
State: gas
Origin: EPA-IR VAPOR PHASE LIBRARY
1/CM	ABSORBANCE
551.7	0.002022
563.274	0.002602
574.848	0.002552
586.421	0.002582
597.995	0.002832
609.569	0.002662
621.143	0.002472
632.717	0.002232
644.291	0.001602
655.864	0.001272
667.438	0.0010667
679.012	0.0009654
690.586	0.0010017
702.16	0.001182
713.734	0.001482
725.307	0.001492
736.881	0.001192
748.455	0.0010457
760.029	0.0006531
771.603	0.0005763
783.177	0.0006573
794.75	0.000454
806.324	0.0003966
817.898	0.0004881
829.472	0.000544
841.046	0.0004142
852.619	0.000424
864.193	0.000452
875.767	0.0003937
887.341	0.0004009
898.915	0.0003673
910.489	0.0004234
922.062	0.0003694
933.636	0.0004717
945.21	0.0003967
956.784	0.0005432
968.358	0.0004888
979.932	0.0004211
991.505	0.0006157
1003.08	0.0008127
1014.65	0.001
1026.23	0.0011518
1037.8	0.001462
1049.37	0.001862
1060.95	0.002522
1072.52	0.003482
1084.1	0.004542
1095.67	0.006132
1107.24	0.007422
1118.82	0.008152
1130.39	0.007802
1141.97	0.006172
1153.54	0.004782
1165.11	0.003862
1176.69	0.003202
1188.26	0.002892
1199.83	0.002352
1211.41	0.001952
1222.98	0.001732
1234.56	0.001632
1246.13	0.001592
1257.7	0.001652
1269.28	0.001692
1280.85	0.001612
1292.42	0.001642
1304	0.001712
1315.57	0.001652
1327.15	0.001702
1338.72	0.002122
1350.29	0.002752
1361.87	0.002872
1373.44	0.002872
1385.02	0.002622
1396.59	0.001822
1408.16	0.001382
1419.74	0.001432
1431.31	0.001682
1442.88	0.002392
1454.46	0.003532
1466.03	0.003662
1477.61	0.001772
1489.18	0.0008625
1500.75	0.0005477
1512.33	0.0003834
1523.9	0.0003077
1535.48	0.0002772
1547.05	0.00024137
1558.62	0.0002774
1570.2	0.00023024
1581.77	0.00020687
1593.34	0.00015447
1604.92	0.00014744
1616.49	0.00018902
1628.07	0.0002913
1639.64	0.0003707
1651.21	0.0002647
1662.79	0.00023719
1674.36	0.0003035
1685.93	0.0003675
1697.51	0.0005194
1709.08	0.0008258
1720.66	0.001362
1732.23	0.002492
1743.8	0.004572
1755.38	0.007842
1766.95	0.011872
1778.53	0.015002
1790.1	0.009862
1801.67	0.005582
1813.25	0.002682
1824.82	0.001252
1836.39	0.0006779
1847.97	0.0004144
1859.54	0.0003023
1871.12	0.00021646
1882.69	0.00021206
1894.26	0.00017162
1905.84	0.0001794
1917.41	0.00016376
1928.99	0.00017043
1940.56	0.00016349
1952.13	0.00016864
1963.71	0.0001225
1975.28	0.0001326
1986.85	0.0001406
1998.43	0.000155551
2010	0.00014277
2021.58	0.0001337
2033.15	0.000157325
2044.72	0.00016793
2056.3	0.00016916
2067.87	0.0001221
2079.44	0.0001351
2091.02	8.43e-05
2102.59	0.0001086
2114.17	0.00015001
2125.74	0.00015049
2137.31	0.0001085
2148.89	0.000159238
2160.46	0.0001343
2172.04	0.0001351
2183.61	0.000156217
2195.18	0.0001673
2206.76	0.0001416
2218.33	0.000158672
2229.9	0.00019313
2241.48	0.000154868
2253.05	0.00017165
2264.63	0.0001381
2276.2	0.0001287
2287.77	0.0001393
2299.35	0.0001443
2310.92	0.00014
2322.5	0.0001279
2334.07	0.000151338
2345.64	0.000123
2357.22	0.00014239
2368.79	0.0001091
2380.36	0.00014853
2391.94	0.0001381
2403.51	0.00014408
2415.09	0.00016756
2426.66	0.0001417
2438.23	0.0001221
2449.81	0.00014554
2461.38	0.0001396
2472.96	0.00014946
2484.53	0.00014863
2496.1	0.00014548
2507.68	0.0001343
2519.25	0.0001275
2530.82	0.00019284
2542.4	0.00018178
2553.97	0.00017622
2565.55	0.00018536
2577.12	0.00021164
2588.69	0.0002533
2600.27	0.0002607
2611.84	0.0003262
2623.41	0.0003284
2634.99	0.0003894
2646.56	0.0003986
2658.14	0.0004805
2669.71	0.0004937
2681.28	0.0005584
2692.86	0.0004865
2704.43	0.0005063
2716.01	0.000467
2727.58	0.0005094
2739.15	0.0005716
2750.73	0.0005391
2762.3	0.0006088
2773.87	0.0007412
2785.45	0.0008682
2797.02	0.0011041
2808.6	0.001452
2820.17	0.002042
2831.74	0.002892
2843.32	0.005092
2854.89	0.012832
2866.47	0.017862
2878.04	0.011462
2889.61	0.009422
2901.19	0.011822
2912.76	0.019762
2924.33	0.038102
2935.91	0.048402
2947.48	0.027142
2959.06	0.014992
2970.63	0.010782
2982.2	0.005652
2993.78	0.003292
3005.35	0.002182
3016.92	0.001512
3028.5	0.0011029
3040.07	0.0009299
3051.65	0.0007294
3063.22	0.000586
3074.79	0.0005229
3086.37	0.0004309
3097.94	0.0003915
3109.52	0.0003969
3121.09	0.0003462
3132.66	0.0003682
3144.24	0.0002178
3155.81	0.00016957
3167.38	0.00019712
3178.96	0.00024316
3190.53	0.00016317
3202.11	0.00020388
3213.68	0.00016139
3225.25	0.00020708
3236.83	0.00014912
3248.4	0.00017993
3259.98	0.00018135
3271.55	0.0001068
3283.12	4.6e-05
3294.7	0.00017424
3306.27	7.83e-05
3317.84	2.8e-05
3329.42	4.8e-05
3340.99	0.00017795
3352.57	0.000123
3364.14	0.00014802
3375.71	0.0001174
3387.29	0.00019122
3398.86	8.14e-05
3410.43	0.00014581
3422.01	0.0001125
3433.58	6.33e-05
3445.16	7.33e-05
3456.73	0.00014384
3468.3	0.000105
3479.88	7.1e-05
3491.45	0.00018258
3503.03	0.0002636
3514.6	0.00023421
3526.17	0.0002539
3537.75	0.0004502
3549.32	0.0008125
3560.89	0.001872
3572.47	0.005822
3584.04	0.003172
3595.62	0.0008768
3607.19	0.0004942
3618.76	0.0003005
3630.34	0.0003291
3641.91	0.0002687
3653.49	0.00019413
3665.06	0.00020279
3676.63	0.0001331
3688.21	0.0001085
3699.78	0.00014856
3711.35	8.07e-05
3722.93	0.00020432
3734.5	6.5e-05
3746.08	7.07e-05
3757.65	5.2e-05
3769.22	0.00014561
3780.8	0.0001145
3792.37	0.00018737
3803.94	0.00014701
3815.52	0.0001279
3827.09	0.0001586
3838.67	0.00020634
3850.24	0.00014221
3861.81	0.00017966
3873.39	0.0001171
3884.96	8.82e-05
3896.54	0.00020588
3908.11	0.0001874
3919.68	8.92e-05
3931.26	0.00021895
3942.83	0.00023288
3954.4	0.0002537
3965.98	0.0001489
3977.55	0.0001916
3989.13	0.000268
4000.7	0.0002657
