Infrared Spectrum: Dodecyl methacrylate
Formula: C 16 H 30 O 2
CAS: 142-90-5
State: gas
Origin: EPA-IR VAPOR PHASE LIBRARY
1/CM	ABSORBANCE
501.5	0.0002311
513.074	0.000118
524.648	0.0004708
536.222	0.0004711
547.796	0.0004406
559.37	0.00030485
570.944	0.00031939
582.518	0.0007994
594.092	0.001263
605.666	0.0011469
617.24	0.0005972
628.814	0.0007332
640.388	0.001263
651.962	0.001803
663.536	0.001763
675.11	0.0011282
686.684	0.0008637
698.258	0.0010767
709.832	0.001913
721.406	0.002433
732.98	0.002173
744.554	0.001733
756.128	0.001603
767.702	0.001593
779.276	0.001643
790.85	0.002433
802.423	0.004373
813.997	0.005613
825.571	0.003653
837.145	0.002643
848.719	0.002283
860.293	0.002083
871.867	0.002223
883.441	0.002523
895.015	0.002933
906.589	0.004053
918.163	0.006553
929.737	0.011423
941.311	0.012053
952.885	0.007123
964.459	0.005683
976.033	0.005953
987.607	0.006523
999.181	0.007013
1010.76	0.009983
1022.33	0.009043
1033.9	0.006813
1045.48	0.005903
1057.05	0.005373
1068.63	0.005123
1080.2	0.004863
1091.77	0.005083
1103.35	0.006113
1114.92	0.008633
1126.49	0.015333
1138.07	0.033743
1149.64	0.084463
1161.22	0.125843
1172.79	0.080683
1184.36	0.041153
1195.94	0.022313
1207.51	0.012983
1219.09	0.008643
1230.66	0.006623
1242.23	0.005963
1253.81	0.006423
1265.38	0.008643
1276.96	0.015073
1288.53	0.033113
1300.1	0.036353
1311.68	0.035093
1323.25	0.028453
1334.83	0.013813
1346.4	0.008983
1357.97	0.007843
1369.55	0.007283
1381.12	0.008133
1392.7	0.008543
1404.27	0.010773
1415.84	0.009153
1427.42	0.007893
1438.99	0.010523
1450.57	0.015933
1462.14	0.020053
1473.71	0.014093
1485.29	0.006793
1496.86	0.003833
1508.44	0.002653
1520.01	0.002143
1531.58	0.001903
1543.16	0.001673
1554.73	0.001623
1566.31	0.001753
1577.88	0.001943
1589.45	0.002193
1601.03	0.002703
1612.6	0.003693
1624.18	0.005253
1635.75	0.007063
1647.32	0.005493
1658.9	0.003243
1670.47	0.003063
1682.05	0.003953
1693.62	0.005703
1705.19	0.009473
1716.77	0.022243
1728.34	0.053773
1739.92	0.066203
1751.49	0.029543
1763.06	0.010373
1774.64	0.005153
1786.21	0.003943
1797.79	0.002903
1809.36	0.001903
1820.93	0.001383
1832.51	0.0011852
1844.08	0.001174
1855.66	0.001353
1867.23	0.001653
1878.8	0.001773
1890.38	0.001453
1901.95	0.0011233
1913.53	0.0009952
1925.1	0.0009303
1936.67	0.0008978
1948.25	0.0008952
1959.82	0.0009289
1971.4	0.0009812
1982.97	0.0009943
1994.54	0.0009509
2006.12	0.0009384
2017.69	0.0009087
2029.27	0.0008985
2040.84	0.0009026
2052.41	0.0008758
2063.99	0.0008467
2075.56	0.0008565
2087.14	0.0008995
2098.71	0.0008443
2110.28	0.0008501
2121.86	0.0007984
2133.43	0.0007836
2145.01	0.0007457
2156.58	0.0007168
2168.15	0.0007169
2179.73	0.0007147
2191.3	0.0006804
2202.88	0.000668
2214.45	0.0006748
2226.02	0.0007038
2237.6	0.0006998
2249.17	0.0007081
2260.74	0.0006864
2272.32	0.0007014
2283.89	0.000688
2295.47	0.0007629
2307.04	0.0008456
2318.61	0.0008969
2330.19	0.0008511
2341.76	0.000783
2353.34	0.0007135
2364.91	0.0006934
2376.48	0.0006484
2388.06	0.0006825
2399.63	0.0006622
2411.21	0.0006792
2422.78	0.0006914
2434.35	0.0006847
2445.93	0.0007093
2457.5	0.000743
2469.08	0.0007269
2480.65	0.0006987
2492.22	0.000691
2503.8	0.0007258
2515.37	0.0007747
2526.95	0.0008529
2538.52	0.0009218
2550.09	0.0009248
2561.67	0.0009501
2573.24	0.0010024
2584.82	0.0010204
2596.39	0.0010983
2607.96	0.0011473
2619.54	0.0012133
2631.11	0.001313
2642.69	0.001423
2654.26	0.001553
2665.83	0.001733
2677.41	0.001873
2688.98	0.001943
2700.56	0.001863
2712.13	0.001823
2723.7	0.001883
2735.28	0.002113
2746.85	0.002353
2758.43	0.002453
2770	0.002643
2781.57	0.003053
2793.15	0.003683
2804.72	0.004573
2816.3	0.006023
2827.87	0.008223
2839.44	0.012813
2851.02	0.027373
2862.59	0.052953
2874.17	0.042813
2885.74	0.033313
2897.31	0.035313
2908.89	0.052493
2920.46	0.089453
2932.04	0.144003
2943.61	0.112493
2955.18	0.067193
2966.76	0.056973
2978.33	0.036573
2989.91	0.022553
3001.48	0.013493
3013.05	0.008863
3024.63	0.006603
3036.2	0.004983
3047.78	0.004153
3059.35	0.003383
3070.92	0.002743
3082.5	0.002553
3094.07	0.002793
3105.65	0.003613
3117.22	0.002553
3128.79	0.001633
3140.37	0.001453
3151.94	0.001333
3163.52	0.0011776
3175.09	0.0011056
3186.66	0.0011201
3198.24	0.0009643
3209.81	0.0008309
3221.39	0.0008544
3232.96	0.0007371
3244.53	0.0007184
3256.11	0.000741
3267.68	0.0006953
3279.26	0.0006274
3290.83	0.0006191
3302.4	0.0006475
3313.98	0.0006505
3325.55	0.0006547
3337.13	0.0006824
3348.7	0.0007498
3360.27	0.0007601
3371.85	0.0007505
3383.42	0.0007018
3395	0.000725
3406.57	0.0006907
3418.14	0.0007961
3429.72	0.0009116
3441.29	0.0011318
3452.86	0.001243
3464.44	0.0012021
3476.01	0.000946
3487.59	0.0007825
3499.16	0.0006279
3510.73	0.0005922
3522.31	0.0005833
3533.88	0.0005601
3545.46	0.0006615
3557.03	0.0005267
3568.6	0.000599
3580.18	0.0005872
3591.75	0.0005257
3603.33	0.0006771
3614.9	0.0007358
3626.47	0.0006877
3638.05	0.0007724
3649.62	0.0006531
3661.2	0.0007481
3672.77	0.0006294
3684.34	0.0006807
3695.92	0.0007489
3707.49	0.0007081
3719.07	0.0007376
3730.64	0.000694
3742.21	0.0006487
3753.79	0.0006996
3765.36	0.0007897
3776.94	0.0007532
3788.51	0.0007159
3800.08	0.0007326
3811.66	0.0007715
3823.23	0.0007139
3834.81	0.0007298
3846.38	0.0007972
3857.95	0.0007245
3869.53	0.0007724
3881.1	0.0008242
3892.68	0.0008595
3904.25	0.0007695
3915.82	0.0007382
3927.4	0.0008982
3938.97	0.000847
3950.55	0.0009257
3962.12	0.0008282
3973.69	0.0009313
3985.27	0.0009481
3996.84	0.0010438
