Infrared Spectrum: Di-2-ethylhexyl maleate
Formula: C20 H36 O4
CAS: 142-16-5
State: SOLUTION (10% CCl4 FOR 2.7-7.5, 10% CS2 FOR 7.5-26 MICRON) VS SOLVENT
Class: COBLENTZ III
Instrument: DOW KBr FOREPRISM-GRATING
Instrument parameters: BLAZED AT 3.5, 12.0, 20.0 MICRON AND CHANGED AT 5.0, 7.5, 14.9 MICRON
Sampling: TRANSMISSION
Path length: 0.011 CM, 0.011 CM
Resolution: 2
Origin: DOW CHEMICAL COMPANY
1/CM	TRANSMITTANCE
3798	0.8561
3789	0.8566
3780	0.8571
3771	0.8582
3762	0.8591
3753	0.8596
3744	0.8598
3735	0.8599
3726	0.8601
3717	0.8604
3708	0.8606
3699	0.8609
3690	0.8608
3681	0.8605
3672	0.8603
3663	0.86
3654	0.8599
3645	0.8597
3636	0.8592
3627	0.8584
3618	0.8582
3609	0.8594
3600	0.8611
3591	0.8633
3582	0.8656
3573	0.8666
3564	0.8675
3555	0.8683
3546	0.8691
3537	0.8698
3528	0.8702
3519	0.8705
3510	0.8704
3501	0.8724
3492	0.8748
3483	0.8762
3474	0.8771
3465	0.8757
3456	0.8695
3447	0.8633
3438	0.859
3429	0.8557
3420	0.8608
3411	0.8694
3402	0.8778
3393	0.8815
3384	0.8828
3375	0.884
3366	0.885
3357	0.8859
3348	0.8868
3339	0.8875
3330	0.8882
3321	0.8888
3312	0.8893
3303	0.8897
3294	0.8902
3285	0.8907
3276	0.8913
3267	0.8918
3258	0.8917
3249	0.8914
3240	0.8907
3231	0.8892
3222	0.8878
3213	0.8833
3204	0.8818
3195	0.8802
3186	0.8787
3177	0.8775
3168	0.8767
3159	0.8759
3150	0.8751
3141	0.8739
3132	0.8725
3123	0.871
3114	0.8689
3105	0.8658
3096	0.8617
3087	0.8567
3078	0.8513
3069	0.846
3060	0.8407
3051	0.8354
3042	0.8288
3033	0.8212
3024	0.8117
3015	0.7917
3006	0.7417
2997	0.6646
2988	0.493
2979	0.2869
2970	0.0643
2961	0.0228
2952	0.0513
2943	0.0963
2934	0.045
2925	0.039
2916	0.1024
2907	0.1628
2898	0.2232
2889	0.2834
2880	0.2188
2871	0.1787
2862	0.1518
2853	0.2803
2844	0.4924
2835	0.6308
2826	0.6906
2817	0.7311
2808	0.7598
2799	0.7776
2790	0.793
2781	0.8084
2772	0.8186
2763	0.8259
2754	0.8306
2745	0.8314
2736	0.8287
2727	0.824
2718	0.8249
2709	0.8314
2700	0.8375
2691	0.8425
2682	0.8461
2673	0.8481
2664	0.8478
2655	0.848
2646	0.8516
2637	0.855
2628	0.856
2619	0.8558
2610	0.8561
2601	0.8568
2592	0.8575
2583	0.8593
2574	0.8627
2565	0.8661
2556	0.8693
2547	0.8723
2538	0.8751
2529	0.877
2520	0.8789
2511	0.8808
2502	0.8817
2493	0.8825
2484	0.8833
2475	0.8831
2466	0.8828
2457	0.8823
2448	0.8816
2439	0.881
2430	0.8805
2421	0.88
2412	0.8796
2403	0.878
2394	0.8765
2385	0.8757
2376	0.8766
2367	0.8774
2358	0.8782
2349	0.879
2340	0.8798
2331	0.8806
2322	0.8814
2313	0.8821
2304	0.883
2295	0.8839
2286	0.8847
2277	0.8855
2268	0.8863
2259	0.887
2250	0.8878
2241	0.8884
2232	0.8883
2223	0.8883
2214	0.8883
2205	0.8888
2196	0.8902
2187	0.891
2178	0.8924
2169	0.8953
2160	0.8914
2151	0.8912
2142	0.8918
2133	0.8923
2124	0.8928
2115	0.893
2106	0.8932
2097	0.8933
2088	0.8935
2079	0.8936
2070	0.893
2061	0.8923
2052	0.8916
2043	0.8913
2034	0.8912
2025	0.891
2016	0.891
2007	0.8913
1998	0.891
1989	0.8877
1980	0.8878
1971	0.8878
1962	0.8877
1953	0.8881
1944	0.8889
1935	0.8877
1926	0.8854
1917	0.8845
1908	0.8852
1899	0.8851
1890	0.8849
1881	0.8844
1872	0.8836
1863	0.8825
1854	0.8804
1845	0.8773
1836	0.8732
1827	0.8686
1818	0.8618
1809	0.8544
1800	0.8445
1791	0.8308
1782	0.8114
1773	0.7761
1764	0.7211
1755	0.5264
1746	0.2383
1737	0.0133
1728	0.0052
1719	0.0322
1710	0.3518
1701	0.5485
1692	0.6391
1683	0.676
1674	0.7371
1665	0.7548
1656	0.6735
1647	0.5082
1638	0.4919
1629	0.683
1620	0.7657
1611	0.8031
1602	0.8318
1593	0.8508
1584	0.8557
1575	0.8578
1566	0.8608
1557	0.864
1548	0.8666
1539	0.867
1530	0.8566
1521	0.8517
1512	0.8445
1503	0.8292
1494	0.8069
1485	0.774
1476	0.5165
1467	0.2166
1458	0.273
1449	0.5207
1440	0.6507
1431	0.7151
1422	0.7137
1413	0.4058
1404	0.2276
1395	0.524
1386	0.3923
1377	0.3925
1368	0.4989
1359	0.6395
1350	0.7118
1341	0.7208
1332	0.7121
1323	0.7106
1314	0.6199
1305	0.4733
1296	0.3266
1287	0.2463
1278	0.2866
1269	0.2683
1260	0.1912
1251	0.1581
1242	0.1634
1233	0.1774
1224	0.1782
1215	0.1207
1206	0.06
1197	0.075
1188	0.2079
1179	0.2661
1170	0.1201
1161	0.0348
1152	0.0589
1143	0.2849
1134	0.549
1125	0.6377
1116	0.6778
1107	0.7305
1098	0.7917
1089	0.8001
1080	0.7758
1071	0.7678
1062	0.776
1053	0.7847
1044	0.7683
1035	0.6865
1026	0.543
1017	0.5117
1008	0.398
999	0.4202
990	0.4547
981	0.4657
972	0.5328
963	0.5768
954	0.6228
945	0.6643
936	0.7217
927	0.7422
918	0.7508
909	0.7378
900	0.7396
891	0.7667
882	0.8033
873	0.8092
864	0.8044
855	0.7745
846	0.7438
837	0.7343
828	0.6845
819	0.6601
810	0.5459
801	0.6098
792	0.7237
783	0.7414
774	0.7288
765	0.7658
756	0.8458
747	0.848
738	0.8252
729	0.7275
720	0.8171
711	0.872
702	0.8889
693	0.8923
684	0.8911
675	0.8767
666	0.8959
657	0.8953
648	0.8865
639	0.8925
630	0.8911
621	0.8817
612	0.8584
603	0.8524
594	0.8554
585	0.8625
576	0.869
567	0.8725
558	0.8728
549	0.8699
540	0.8639
531	0.8481
522	0.8463
513	0.8507
504	0.8486
495	0.8394
486	0.8301
477	0.8297
468	0.8334
459	0.8378
450	0.8435
441	0.8481
432	0.8475
423	0.8471
414	0.847
405	0.8491
396	0.8513
