Infrared Spectrum: Propylene glycol, monolaurate
Formula: C15 H30 O3
CAS: 142-55-2
State: LIQUID (NEAT)
Class: COBLENTZ III
Instrument: BAIRD (PRISM)
Instrument parameters: NaCl PRISM
Sampling: TRANSMISSION
Resolution: 2
Origin: WYANDOTTE CHEMICALS CORP.
1/CM	TRANSMITTANCE
627	0.875
636	0.8747
645	0.8825
654	0.8743
663	0.8892
672	0.8914
681	0.8972
690	0.8917
699	0.8711
708	0.8262
717	0.7204
726	0.7078
735	0.7985
744	0.8431
753	0.8724
762	0.8768
771	0.8935
780	0.9099
789	0.924
798	0.9178
807	0.9064
816	0.8834
825	0.8558
834	0.8125
843	0.8195
852	0.8519
861	0.8767
870	0.8759
879	0.8699
888	0.8547
897	0.8432
906	0.8307
915	0.7795
924	0.7355
933	0.7258
942	0.6878
951	0.6597
960	0.6573
969	0.6904
978	0.7209
987	0.672
996	0.6031
1005	0.6291
1014	0.6262
1023	0.6146
1032	0.5834
1041	0.5062
1050	0.4056
1059	0.3792
1068	0.3864
1077	0.3645
1086	0.3428
1095	0.3767
1104	0.4235
1113	0.3247
1122	0.2488
1131	0.3224
1140	0.3648
1149	0.2674
1158	0.1744
1167	0.1523
1176	0.1203
1185	0.1321
1194	0.148
1203	0.196
1212	0.2416
1221	0.2557
1230	0.2607
1239	0.254
1248	0.257
1257	0.2645
1266	0.2802
1275	0.3108
1284	0.3333
1293	0.363
1302	0.4013
1311	0.4327
1320	0.4481
1329	0.4537
1338	0.471
1347	0.4682
1356	0.4597
1365	0.4339
1374	0.3919
1383	0.3068
1392	0.3426
1401	0.4783
1410	0.5658
1419	0.5731
1428	0.5141
1437	0.5465
1446	0.4866
1455	0.4225
1464	0.3214
1473	0.2402
1482	0.2439
1491	0.6316
1500	0.7837
1509	0.8501
1518	0.8906
1527	0.9062
1536	0.9127
1545	0.9161
1554	0.9185
1563	0.9287
1572	0.9318
1581	0.9366
1590	0.9237
1599	0.9258
1608	0.9258
1617	0.9166
1626	0.9148
1635	0.9003
1644	0.8948
1653	0.8815
1662	0.874
1671	0.8665
1680	0.8556
1689	0.7991
1698	0.7445
1707	0.6353
1716	0.3874
1725	0.1739
1734	0.097
1743	0.084
1752	0.0954
1761	0.2888
1770	0.5697
1779	0.7451
1788	0.8225
1797	0.8624
1806	0.8873
1815	0.8993
1824	0.9146
1833	0.9251
1842	0.9322
1851	0.9357
1860	0.9382
1869	0.9399
1878	0.9386
1887	0.9377
1896	0.9426
1905	0.944
1914	0.9384
1923	0.939
1932	0.9412
1941	0.9417
1950	0.9404
1959	0.9388
1968	0.9372
1977	0.936
1986	0.9347
1995	0.9327
2004	0.9307
2013	0.9314
2022	0.9327
2031	0.9333
2040	0.9301
2049	0.9292
2058	0.9312
2067	0.9335
2076	0.9336
2085	0.9331
2094	0.9304
2103	0.931
2112	0.9317
2121	0.9323
2130	0.9285
2139	0.9267
2148	0.9263
2157	0.9261
2166	0.9254
2175	0.9245
2184	0.9247
2193	0.925
2202	0.9243
2211	0.9224
2220	0.9204
2229	0.918
2238	0.9152
2247	0.9137
2256	0.9134
2265	0.9119
2274	0.9096
2283	0.9034
2292	0.9011
2301	0.9045
2310	0.9084
2319	0.9126
2328	0.9174
2337	0.9219
2346	0.9262
2355	0.9293
2364	0.9304
2373	0.9274
2382	0.9205
2391	0.9111
2400	0.907
2409	0.906
2418	0.9055
2427	0.9051
2436	0.9048
2445	0.9042
2454	0.9036
2463	0.9024
2472	0.9007
2481	0.8987
2490	0.8955
2499	0.8905
2508	0.8841
2517	0.8805
2526	0.8772
2535	0.8758
2544	0.8744
2553	0.8733
2562	0.8723
2571	0.8712
2580	0.8691
2589	0.867
2598	0.8635
2607	0.8595
2616	0.8556
2625	0.8517
2634	0.8479
2643	0.8408
2652	0.8288
2661	0.8207
2670	0.8172
2679	0.8154
2688	0.8138
2697	0.8128
2706	0.8119
2715	0.8109
2724	0.8097
2733	0.8076
2742	0.8041
2751	0.7979
2760	0.7896
2769	0.7772
2778	0.7623
2787	0.7459
2796	0.7235
2805	0.6934
2814	0.6566
2823	0.611
2832	0.5495
2841	0.3119
2850	0.14
2859	0.1248
2868	0.1196
2877	0.1195
2886	0.1127
2895	0.0878
2904	0.0518
2913	0.0341
2922	0.0322
2931	0.034
2940	0.0396
2949	0.0496
2958	0.0693
2967	0.0889
2976	0.187
2985	0.2527
2994	0.3181
3003	0.383
3012	0.4475
3021	0.517
3030	0.5668
3039	0.6275
3048	0.6955
3057	0.7237
3066	0.7449
3075	0.7626
3084	0.7724
3093	0.781
3102	0.7879
3111	0.7935
3120	0.7961
3129	0.7968
3138	0.7954
3147	0.7921
3156	0.7847
3165	0.7764
3174	0.7682
3183	0.7601
3192	0.7525
3201	0.7449
3210	0.7322
3219	0.7174
3228	0.7026
3237	0.6878
3246	0.6733
3255	0.6587
3264	0.6442
3273	0.6299
3282	0.6155
3291	0.6013
3300	0.5872
3309	0.5731
3318	0.5591
3327	0.5444
3336	0.5293
3345	0.5154
3354	0.505
3363	0.4958
3372	0.4853
3381	0.475
3390	0.4659
3399	0.4584
3408	0.4532
3417	0.4502
3426	0.449
3435	0.4484
3444	0.4483
3453	0.4508
3462	0.4565
3471	0.4686
3480	0.4785
3489	0.4859
3498	0.4925
3507	0.5024
3516	0.5247
3525	0.5397
3534	0.5493
3543	0.5568
3552	0.5638
3561	0.572
3570	0.6092
3579	0.6559
3588	0.697
3597	0.7124
3606	0.7501
3615	0.7629
3624	0.7777
3633	0.791
3642	0.8004
3651	0.8095
3660	0.8186
3669	0.8268
3678	0.8327
3687	0.8384
3696	0.842
3705	0.8449
3714	0.8472
3723	0.8487
3732	0.8503
3741	0.8517
3750	0.853
3759	0.854
3768	0.8549
3777	0.8558
3786	0.8568
3795	0.8577
3804	0.8584
3813	0.859
3822	0.8595
3831	0.8581
3840	0.8562
3849	0.8543
3858	0.8524
3867	0.8504
3876	0.8489
3885	0.8484
3894	0.8479
3903	0.8476
3912	0.8486
3921	0.8499
3930	0.8516
3939	0.8537
3948	0.8555
3957	0.8572
3966	0.8575
3975	0.8579
3984	0.8577
3993	0.8573
