Infrared Spectrum: n-Caproyl chloride
Formula: C 6 H 11 Cl O
CAS: 142-61-0
State: gas
Instrument: HP-GC/MS/IRD
Origin: NIST Mass Spectrometry Data Center
1/CM	ABSORBANCE
550	0.0016112
562	0.0020368
574	0.0027037
586	0.0024453
598	0.001786
610	0.0008455
622	0.0002356
634	0.0002014
646	0.000342
658	0.0005605
670	0.001197
682	0.0020843
694	0.0016625
706	0.0016777
718	0.0023807
730	0.0026486
742	0.0020691
754	0.0012787
766	0.0007752
778	0.0008094
790	0.0008474
802	0.0008512
814	0.0006061
826	0.0003553
838	0.0005966
850	0.0006308
862	0.0007125
874	0.0008968
886	0.0014573
898	0.002166
910	0.0031635
922	0.0037829
934	0.0033136
946	0.0037658
958	0.0047386
970	0.0046873
982	0.0045334
994	0.0044365
1006	0.0041667
1018	0.0037487
1030	0.0034618
1042	0.0022838
1054	0.0013015
1066	0.0010336
1078	0.0008797
1090	0.0008284
1102	0.0011438
1114	0.0015998
1126	0.0016834
1138	0.0011647
1150	0.0004693
1162	0.0002166
1174	9.5e-05
1186	0.0002527
1198	0.000456
1210	0.0003591
1222	0.0001558
1234	6.27e-05
1246	2.66e-05
1258	3.23e-05
1270	9.12e-05
1282	0.0001653
1294	0.000285
1306	0.0004161
1318	0.0004845
1330	0.0006441
1342	0.0007467
1354	0.0006612
1366	0.0005662
1378	0.0006536
1390	0.0007296
1402	0.0007999
1414	0.0010393
1426	0.0011229
1438	0.0012046
1450	0.0015371
1462	0.0018411
1474	0.0014497
1486	0.0008284
1498	0.0005206
1510	0.0003876
1522	0.0003325
1534	0.000304
1546	0.0002812
1558	0.0002565
1570	0.000247
1582	0.0002413
1594	0.000209
1606	0.0001672
1618	0.0001957
1630	0.0001767
1642	0.0001615
1654	0.0001843
1666	0.0001881
1678	0.0002071
1690	0.0002451
1702	0.0002508
1714	0.000323
1726	0.0004579
1738	0.0006783
1750	0.0011286
1762	0.0020596
1774	0.0039292
1786	0.0081624
1798	0.0154166
1810	0.019
1822	0.0135907
1834	0.0064296
1846	0.0031198
1858	0.0017898
1870	0.0011818
1882	0.0009006
1894	0.0007144
1906	0.0006118
1918	0.0005092
1930	0.0004427
1942	0.0003895
1954	0.0003515
1966	0.0003173
1978	0.0002907
1990	0.0002603
2002	0.0002489
2014	0.0002736
2026	0.0002413
2038	0.0002546
2050	0.000304
2062	0.0003762
2074	0.0005206
2086	0.0007866
2098	0.0015162
2110	0.0029583
2122	0.0041933
2134	0.0033079
2146	0.0013509
2158	0.0006194
2170	0.000399
2182	0.0003382
2194	0.0002793
2206	0.0002736
2218	0.0002451
2230	0.0002318
2242	0.0002394
2254	0.0002603
2266	0.000228
2278	0.0002242
2290	0.0002071
2302	0.0002185
2314	0.0002584
2326	0.0002204
2338	0.0002071
2350	0.0002432
2362	0.0002565
2374	0.0002432
2386	0.0002337
2398	0.0002128
2410	0.0002071
2422	0.0002071
2434	0.0002033
2446	0.0001938
2458	0.0001881
2470	0.0001919
2482	0.0001976
2494	0.0001786
2506	0.0001805
2518	0.0001862
2530	0.0001843
2542	0.0002128
2554	0.0001862
2566	0.0001976
2578	0.0001634
2590	0.00019
2602	0.0002147
2614	0.0001957
2626	0.000228
2638	0.0002489
2650	0.0002679
2662	0.0003116
2674	0.0003059
2686	0.000323
2698	0.0003477
2710	0.0003078
2722	0.0003914
2734	0.0004104
2746	0.0004807
2758	0.0004503
2770	0.0004921
2782	0.0005472
2794	0.0005985
2806	0.0006821
2818	0.0008436
2830	0.0010336
2842	0.0014725
2854	0.0023522
2866	0.0038057
2878	0.0047842
2890	0.0045372
2902	0.004028
2914	0.0051889
2926	0.007809
2938	0.010241
2950	0.0102258
2962	0.0098857
2974	0.0090991
2986	0.0048697
2998	0.0023579
3010	0.0014421
3022	0.0009804
3034	0.0008075
3046	0.0006878
3058	0.0006574
3070	0.0004997
3082	0.0004712
3094	0.0004313
3106	0.0004009
3118	0.0004655
3130	0.0004028
3142	0.0003572
3154	0.0003876
3166	0.0003344
3178	0.0003078
3190	0.0003021
3202	0.000304
3214	0.0002926
3226	0.0003344
3238	0.0003173
3250	0.0002717
3262	0.0003382
3274	0.0002641
3286	0.0002356
3298	0.0002413
3310	0.0002432
3322	0.0002527
3334	0.0002793
3346	0.0002907
3358	0.0002926
3370	0.0001919
3382	0.0002698
3394	0.0002679
3406	0.0002413
3418	0.0002052
3430	0.0002717
3442	0.0001995
3454	0.0002565
3466	0.0002774
3478	0.0002698
3490	0.0002546
3502	0.0002565
3514	0.0002698
3526	0.0003192
3538	0.0002907
3550	0.0003249
3562	0.0003724
3574	0.0004864
3586	0.0006118
3598	0.000627
3610	0.0005035
3622	0.0004484
3634	0.0003458
3646	0.0003724
3658	0.0003154
3670	0.000323
3682	0.0002679
3694	0.0003306
3706	0.0002337
3718	0.0002964
3730	0.0002774
3742	0.0003135
3754	0.0003287
3766	0.0003496
3778	0.0003553
3790	0.0003097
3802	0.0003325
3814	0.0003401
3826	0.000342
3838	0.0003173
