Infrared Spectrum: DODECANAMIDE, N-(2-HYDROXYETHYL)-
Formula: C14 H29 N O2
CAS: 142-78-9
State: SOLID (MULL IN COCONITRILE OIL)
Class: COBLENTZ III
Instrument: PERKIN-ELMER (GRATING)
Sampling: TRANSMISSION
Resolution: 4
Origin: PROCTER AND GAMBLE CO.
1/CM	TRANSMITTANCE
564.706	0.794
573.756	0.788
582.806	0.765
591.855	0.743
600.905	0.708
609.955	0.7
619.005	0.649
628.055	0.588
637.104	0.668
646.154	0.696
655.204	0.703
664.254	0.713
673.304	0.723
682.353	0.713
691.403	0.693
700.453	0.597
709.503	0.448
718.553	0.402
727.602	0.545
736.652	0.672
745.702	0.638
754.752	0.615
763.802	0.676
772.851	0.647
781.901	0.678
790.951	0.763
800.001	0.786
809.051	0.8
818.1	0.827
827.15	0.862
836.2	0.879
845.25	0.883
854.3	0.885
863.349	0.863
872.399	0.889
881.449	0.883
890.499	0.889
899.549	0.89
908.598	0.873
917.648	0.813
926.698	0.686
935.748	0.86
944.798	0.893
953.847	0.893
962.897	0.885
971.947	0.846
980.997	0.874
990.047	0.883
999.096	0.877
1008.15	0.844
1017.2	0.782
1026.25	0.6889
1035.3	0.422
1044.35	0.472
1053.4	0.719
1062.44	0.782
1071.49	0.6761
1080.54	0.825
1089.59	0.859
1098.64	0.836
1107.69	0.838
1116.74	0.817
1125.79	0.712
1134.84	0.844
1143.89	0.86
1152.94	0.859
1161.99	0.852
1171.04	0.843
1180.09	0.828
1189.14	0.815
1198.19	0.765
1207.24	0.6469
1216.29	0.3561
1225.34	0.724
1234.39	0.835
1243.44	0.819
1252.49	0.723
1261.54	0.817
1270.59	0.731
1279.64	0.759
1288.69	0.766
1297.74	0.665
1306.79	0.701
1315.84	0.697
1324.89	0.7
1333.94	0.716
1342.99	0.697
1352.04	0.682
1361.09	0.668
1370.14	0.638
1379.19	0.592
1388.24	0.549
1397.29	0.524
1406.34	0.488
1415.39	0.461
1424.44	0.441
1433.49	0.4
1442.54	0.361
1451.59	0.426
1460.64	0.264
1469.69	0.3632
1478.74	0.568
1487.79	0.596
1496.84	0.596
1505.89	0.581
1514.93	0.566
1523.98	0.534
1533.03	0.456
1542.08	0.2819
1551.13	0.12
1560.18	0.206
1569.23	0.466
1578.28	0.607
1587.33	0.62
1596.38	0.562
1605.43	0.468
1614.48	0.358
1623.53	0.1679
1632.58	0.044
1641.63	0.037
1650.68	0.147
1659.73	0.4041
1668.78	0.603
1677.83	0.763
1686.88	0.827
1695.93	0.854
1704.98	0.871
1714.03	0.887
1723.08	0.9
1732.13	0.908
1741.18	0.913
1750.23	0.916
1759.28	0.923
1768.33	0.929
1777.38	0.933
1786.43	0.936
1795.48	0.941
1804.53	0.941
1813.58	0.943
1822.63	0.943
1831.68	0.941
1840.73	0.941
1849.78	0.941
1858.83	0.943
1867.88	0.943
1876.93	0.944
1885.98	0.941
1895.03	0.941
1904.08	0.943
1913.13	0.946
1922.18	0.944
1931.23	0.946
1940.28	0.947
1949.33	0.944
1958.38	0.944
1967.42	0.947
1976.47	0.95
1985.52	0.95
1994.57	0.9559
2003.62	0.923
2012.67	0.923
2021.72	0.923
2030.77	0.921
2039.82	0.9194
2048.87	0.919
2057.92	0.924
2066.97	0.921
2076.02	0.921
2085.07	0.921
2094.12	0.921
2103.17	0.923
2112.22	0.923
2121.27	0.923
2130.32	0.9203
2139.37	0.9193
2148.42	0.92
2157.47	0.919
2166.52	0.92
2175.57	0.92
2184.62	0.9208
2193.67	0.92
2202.72	0.92
2211.77	0.92
2220.82	0.923
2229.87	0.9315
2238.92	0.9525
2247.97	0.9367
2257.02	0.92
2266.07	0.919
2275.12	0.917
2284.17	0.916
2293.22	0.914
2302.27	0.913
2311.32	0.9102
2320.37	0.91
2329.42	0.91
2338.47	0.91
2347.52	0.9129
2356.57	0.913
2365.62	0.913
2374.67	0.913
2383.72	0.912
2392.77	0.91
2401.82	0.908
2410.87	0.904
2419.91	0.898
2428.96	0.893
2438.01	0.89
2447.06	0.889
2456.11	0.889
2465.16	0.889
2474.21	0.8805
2483.26	0.8813
2492.31	0.8817
2501.36	0.8749
2510.41	0.8699
2519.46	0.867
2528.51	0.869
2537.56	0.87
2546.61	0.8669
2555.66	0.8585
2564.71	0.8563
2573.76	0.86
2582.81	0.8576
2591.86	0.8564
2600.91	0.8588
2609.96	0.8518
2619.01	0.8455
2628.06	0.831
2637.11	0.828
2646.16	0.827
2655.21	0.827
2664.26	0.8295
2673.31	0.8365
2682.36	0.8406
2691.41	0.8446
2700.46	0.8454
2709.51	0.8374
2718.56	0.8334
2727.61	0.8197
2736.66	0.811
2745.71	0.7973
2754.76	0.7762
2763.81	0.7478
2772.86	0.7006
2781.91	0.6881
2790.96	0.6704
2800.01	0.6364
2809.06	0.5878
2818.11	0.5457
2827.16	0.4795
2836.21	0.2475
2845.26	0.0397
2854.31	0.1343
2863.36	0.2741
2872.4	0.2631
2881.45	0.1825
2890.5	0.1296
2899.55	0.0976
2908.6	0.046
2917.65	0.0676
2926.7	0.1188
2935.75	0.1843
2944.8	0.1816
2953.85	0.1369
2962.9	0.3095
2971.95	0.3913
2981	0.4789
2990.05	0.5899
2999.1	0.63
3008.15	0.643
3017.2	0.642
3026.25	0.641
3035.3	0.6361
3044.35	0.6259
3053.4	0.5979
3062.45	0.5547
3071.5	0.5066
3080.55	0.4166
3089.6	0.3381
3098.65	0.3505
3107.7	0.4294
3116.75	0.4636
3125.8	0.468
3134.85	0.4588
3143.9	0.4409
3152.95	0.4095
3162	0.3856
3171.05	0.3532
3180.1	0.3159
3189.15	0.2734
3198.2	0.2462
3207.25	0.233
3216.3	0.234
3225.35	0.236
3234.4	0.236
3243.45	0.2323
3252.5	0.2176
3261.55	0.1739
3270.6	0.1008
3279.65	0.0609
3288.7	0.0412
3297.75	0.036
3306.8	0.075
3315.85	0.1584
3324.89	0.2688
3333.94	0.3508
3342.99	0.4281
3352.04	0.4823
3361.09	0.549
3370.14	0.6045
3379.19	0.6448
3388.24	0.6818
3397.29	0.7319
3406.34	0.77
3415.39	0.7941
3424.44	0.8192
3433.49	0.8381
3442.54	0.8561
3451.59	0.8691
3460.64	0.8782
3469.69	0.8862
3478.74	0.8931
3487.79	0.9022
3496.84	0.9082
3505.89	0.914
3514.94	0.919
3523.99	0.9231
3533.04	0.925
3542.09	0.928
3551.14	0.928
3560.19	0.928
3569.24	0.928
3578.29	0.9267
3587.34	0.927
3596.39	0.924
3605.44	0.925
3614.49	0.9282
3623.54	0.9312
3632.59	0.932
3641.64	0.931
3650.69	0.931
3659.74	0.9313
3668.79	0.932
3677.84	0.9323
3686.89	0.935
3695.94	0.935
3704.99	0.933
3714.04	0.933
3723.09	0.935
3732.14	0.935
3741.19	0.9343
3750.24	0.933
3759.29	0.931
3768.34	0.931
3777.38	0.931
3786.43	0.931
3795.48	0.932
3804.53	0.929
3813.58	0.928
3822.63	0.927
3831.68	0.927
3840.73	0.927
3849.78	0.927
3858.83	0.9275
3867.88	0.927
3876.93	0.927
3885.98	0.926
3895.03	0.9245
3904.08	0.923
3913.13	0.923
3922.18	0.924
3931.23	0.924
3940.28	0.924
3949.33	0.924
3958.38	0.924
3967.43	0.921
3976.48	0.919
3985.53	0.919
3994.58	0.919
