Infrared Spectrum: Phenol, m-(m-phenoxyphenoxy)-
Formula: C18 H14 O3
CAS: 14200-84-1
State: SOLUTION (10% CCl4 FOR 3800-1330, 10% CS2 FOR 1330-400 CM^-^1)
Class: COBLENTZ III
Instrument: BECKMAN IR-9 (GRATING)
Instrument parameters: ORDER CHANGES: 670, 1200, 2000 CM^-^1
Sampling: TRANSMISSION
Path length: 0.010 CM, 0.010 CM
Resolution: 2
Origin: DOW CHEMICAL COMPANY
1/CM	TRANSMITTANCE
403	0.1291
412	0.188
421	0.36
430	0.4685
439	0.5231
448	0.5108
457	0.4821
466	0.6177
475	0.6403
484	0.5606
493	0.6218
502	0.7181
511	0.7521
520	0.7536
529	0.6777
538	0.7556
547	0.7702
556	0.7711
565	0.7624
574	0.7644
583	0.7696
592	0.7717
601	0.7697
610	0.757
619	0.7626
628	0.7662
637	0.7602
646	0.7437
655	0.6925
664	0.7054
673	0.6718
682	0.1921
691	0.0854
700	0.4781
709	0.7048
718	0.7212
727	0.6621
736	0.5551
745	0.5303
754	0.28
763	0.2654
772	0.2076
781	0.259
790	0.4022
799	0.6324
808	0.7418
817	0.7084
826	0.6769
835	0.5494
844	0.4228
853	0.3182
862	0.3246
871	0.4182
880	0.5199
889	0.6741
898	0.737
907	0.7657
916	0.8172
925	0.8125
934	0.6994
943	0.5057
952	0.4466
961	0.6016
970	0.3914
979	0.0612
988	0.3605
997	0.6301
1006	0.7579
1015	0.8052
1024	0.5646
1033	0.8426
1042	0.8556
1051	0.8567
1060	0.8292
1069	0.6229
1078	0.6018
1087	0.7487
1096	0.7858
1105	0.7267
1114	0.5845
1123	0.2283
1132	0.1813
1141	0.0002
1150	0.1743
1159	0.2108
1168	0.0516
1177	0.1236
1186	0.3376
1195	0.3331
1204	0.1848
1213	0.0054
1222	0.0275
1231	0.2511
1240	0.3212
1249	0.347
1258	0.0719
1267	0.0213
1276	0.052
1285	0.1257
1294	0.2272
1303	0.2708
1312	0.3751
1321	0.4218
1330	0.4423
1339	0.5466
1348	0.6423
1357	0.6916
1366	0.707
1375	0.7325
1384	0.7592
1393	0.7699
1402	0.7702
1411	0.7064
1420	0.6947
1429	0.6945
1438	0.555
1447	0.3333
1456	0.1985
1465	0.1643
1474	0.0403
1483	0
1492	0
1501	0.161
1510	0.3922
1519	0.4566
1528	0.4491
1537	0.4352
1546	0.3802
1555	0.3362
1564	0.3194
1573	0.243
1582	0.0414
1591	0.0001
1600	0.0001
1609	0.0288
1618	0.2526
1627	0.491
1636	0.6176
1645	0.7015
1654	0.7572
1663	0.7852
1672	0.7969
1681	0.8189
1690	0.8271
1699	0.8279
1708	0.8241
1717	0.8197
1726	0.8155
1735	0.8139
1744	0.8247
1753	0.8386
1762	0.8466
1771	0.8508
1780	0.8493
1789	0.8497
1798	0.8582
1807	0.8616
1816	0.8593
1825	0.8557
1834	0.8512
1843	0.8454
1852	0.8371
1861	0.8371
1870	0.8385
1879	0.8405
1888	0.8499
1897	0.8516
1906	0.8447
1915	0.824
1924	0.8095
1933	0.8096
1942	0.8218
1951	0.8397
1960	0.8514
1969	0.8603
1978	0.863
1987	0.8595
1996	0.8466
2005	0.8499
2014	0.8631
2023	0.8666
2032	0.8675
2041	0.8674
2050	0.8675
2059	0.8707
2068	0.8761
2077	0.8792
2086	0.8795
2095	0.8796
2104	0.8802
2113	0.8824
2122	0.8875
2131	0.891
2140	0.8925
2149	0.8934
2158	0.894
2167	0.8941
2176	0.8935
2185	0.8918
2194	0.8886
2203	0.8821
2212	0.8752
2221	0.8719
2230	0.8716
2239	0.8709
2248	0.8703
2257	0.8696
2266	0.869
2275	0.8684
2284	0.8672
2293	0.8658
2302	0.8657
2311	0.8651
2320	0.8598
2329	0.855
2338	0.8534
2347	0.8535
2356	0.854
2365	0.8545
2374	0.8517
2383	0.838
2392	0.8285
2401	0.8239
2410	0.8224
2419	0.8187
2428	0.8149
2437	0.8187
2446	0.8347
2455	0.8508
2464	0.861
2473	0.8657
2482	0.8697
2491	0.8737
2500	0.8765
2509	0.8766
2518	0.8756
2527	0.8739
2536	0.8721
2545	0.8702
2554	0.8683
2563	0.8657
2572	0.8632
2581	0.8618
2590	0.8633
2599	0.8662
2608	0.8691
2617	0.8715
2626	0.8739
2635	0.8763
2644	0.879
2653	0.8837
2662	0.8864
2671	0.8876
2680	0.8872
2689	0.886
2698	0.8836
2707	0.8794
2716	0.8779
2725	0.8817
2734	0.8794
2743	0.876
2752	0.8749
2761	0.8746
2770	0.8747
2779	0.8751
2788	0.8757
2797	0.8763
2806	0.8769
2815	0.8772
2824	0.8774
2833	0.8785
2842	0.8786
2851	0.8745
2860	0.8692
2869	0.8677
2878	0.8682
2887	0.8691
2896	0.8707
2905	0.8704
2914	0.8665
2923	0.8606
2932	0.8581
2941	0.8579
2950	0.8592
2959	0.8602
2968	0.8605
2977	0.8603
2986	0.8595
2995	0.8579
3004	0.852
3013	0.8219
3022	0.7697
3031	0.7048
3040	0.6642
3049	0.6625
3058	0.6869
3067	0.668
3076	0.6381
3085	0.6652
3094	0.7319
3103	0.7763
3112	0.7984
3121	0.8155
3130	0.8262
3139	0.8299
3148	0.8295
3157	0.8257
3166	0.8204
3175	0.8142
3184	0.8065
3193	0.7958
3202	0.7889
3211	0.7867
3220	0.7841
3229	0.7806
3238	0.776
3247	0.7708
3256	0.7637
3265	0.7548
3274	0.7466
3283	0.7383
3292	0.7301
3301	0.7217
3310	0.7133
3319	0.7048
3328	0.6957
3337	0.6866
3346	0.6772
3355	0.6656
3364	0.654
3373	0.6429
3382	0.633
3391	0.623
3400	0.6134
3409	0.604
3418	0.5948
3427	0.5868
3436	0.5794
3445	0.572
3454	0.5655
3463	0.5601
3472	0.5596
3481	0.5612
3490	0.566
3499	0.5791
3508	0.5974
3517	0.6116
3526	0.6231
3535	0.6301
3544	0.6339
3553	0.6367
3562	0.6482
3571	0.6627
3580	0.6611
3589	0.6271
3598	0.4972
3607	0.3423
3616	0.5134
3625	0.7456
3634	0.801
3643	0.825
3652	0.8335
3661	0.8347
3670	0.8354
3679	0.8364
3688	0.8415
3697	0.8487
3706	0.8557
3715	0.8623
3724	0.8675
3733	0.8715
3742	0.8726
3751	0.8725
3760	0.8722
3769	0.8717
3778	0.8713
3787	0.8706
3796	0.8701
