Infrared Spectrum: Alanine, N-amino-3-phenyl-, dL-
Formula: C9 H12 N2 O2
CAS: 1421-34-7
State: SOLID (0.95 mg / 650 mg KBr DISC)
Class: COBLENTZ III
Instrument: PERKIN-ELMER 21 (GRATING)
Instrument parameters: FILTER CHANGE ABOUT 1085 CM^-^1
Sampling: TRANSMISSION
Resolution: 2
Origin: SOUTHERN RESEARCH INSTITUTE
1/CM	TRANSMITTANCE
664	0.9748
672.013	0.9004
680.026	0.8555
688.039	0.7284
696.052	0.4093
704.065	0.2605
712.078	0.5909
720.091	0.877
728.104	0.8453
736.117	0.6296
744.13	0.5592
752.144	0.7286
760.157	0.7669
768.17	0.6595
776.183	0.8636
784.196	0.8483
792.209	0.819
800.222	0.5892
808.235	0.5995
816.248	0.4353
824.261	0.6478
832.274	0.8933
840.287	0.8403
848.3	0.8228
856.313	0.7733
864.326	0.6677
872.339	0.7095
880.352	0.7889
888.365	0.7042
896.378	0.5934
904.391	0.8565
912.405	0.8216
920.418	0.7515
928.431	0.914
936.444	0.9333
944.457	0.9257
952.47	0.896
960.483	0.8336
968.496	0.6274
976.509	0.7596
984.522	0.9116
992.535	0.9226
1000.55	0.9089
1008.56	0.9001
1016.57	0.8809
1024.59	0.8214
1032.6	0.7467
1040.61	0.7272
1048.63	0.8082
1056.64	0.6818
1064.65	0.7078
1072.67	0.8339
1080.68	0.658
1088.69	0.7237
1096.7	0.7437
1104.72	0.7268
1112.73	0.6815
1120.74	0.8312
1128.76	0.8603
1136.77	0.8614
1144.78	0.8544
1152.8	0.8369
1160.81	0.8221
1168.82	0.816
1176.84	0.7889
1184.85	0.6838
1192.86	0.7597
1200.87	0.7764
1208.89	0.7472
1216.9	0.7547
1224.91	0.7884
1232.93	0.735
1240.94	0.7128
1248.95	0.7638
1256.97	0.8063
1264.98	0.7821
1272.99	0.7606
1281	0.7378
1289.02	0.7115
1297.03	0.7167
1305.04	0.7174
1313.06	0.6145
1321.07	0.3628
1329.08	0.3118
1337.1	0.3461
1345.11	0.3129
1353.12	0.3628
1361.14	0.5045
1369.15	0.4342
1377.16	0.5947
1385.17	0.5373
1393.19	0.3398
1401.2	0.2372
1409.21	0.1445
1417.23	0.2306
1425.24	0.5083
1433.25	0.5964
1441.27	0.5757
1449.28	0.5303
1457.29	0.4628
1465.3	0.5614
1473.32	0.5202
1481.33	0.4047
1489.34	0.3092
1497.36	0.1255
1505.37	0.0835
1513.38	0.1078
1521.4	0.127
1529.41	0.1393
1537.42	0.1984
1545.44	0.294
1553.45	0.3834
1561.46	0.439
1569.47	0.4089
1577.49	0.3293
1585.5	0.146
1593.51	0.1599
1601.53	0.2196
1609.54	0.2296
1617.55	0.1997
1625.57	0.1106
1633.58	0.165
1641.59	0.2087
1649.6	0.3769
1657.62	0.4961
1665.63	0.6452
1673.64	0.7111
1681.66	0.7632
1689.67	0.8037
1697.68	0.8697
1705.7	0.8747
1713.71	0.9111
1721.72	0.9235
1729.74	0.9397
1737.75	0.9433
1745.76	0.945
1753.77	0.946
1761.79	0.9471
1769.8	0.9457
1777.81	0.9549
1785.83	0.9475
1793.84	0.9388
1801.85	0.9483
1809.87	0.9522
1817.88	0.9542
1825.89	0.9564
1833.91	0.9556
1841.92	0.9548
1849.93	0.9486
1857.94	0.9456
1865.96	0.9453
1873.97	0.9528
1881.98	0.9568
1890	0.9529
1898.01	0.957
1906.02	0.9598
1914.04	0.9562
1922.05	0.9495
1930.06	0.9411
1938.07	0.9374
1946.09	0.9385
1954.1	0.9422
1962.11	0.9476
1970.13	0.9528
1978.14	0.9574
1986.15	0.9585
1994.17	0.9561
2002.18	0.9519
2010.19	0.9479
2018.21	0.9442
2026.22	0.9397
2034.23	0.935
2042.24	0.9297
2050.26	0.9244
2058.27	0.92
2066.28	0.9159
2074.3	0.9033
2082.31	0.8914
2090.32	0.8789
2098.34	0.8683
2106.35	0.8591
2114.36	0.85
2122.37	0.8335
2130.39	0.814
2138.4	0.7858
2146.41	0.7539
2154.43	0.7296
2162.44	0.7191
2170.45	0.6881
2178.47	0.6672
2186.48	0.6417
2194.49	0.629
2202.51	0.6433
2210.52	0.6627
2218.53	0.6968
2226.54	0.7128
2234.56	0.7428
2242.57	0.7718
2250.58	0.7929
2258.6	0.8023
2266.61	0.8118
2274.62	0.8158
2282.64	0.8069
2290.65	0.8115
2298.66	0.8096
2306.67	0.8051
2314.69	0.7946
2322.7	0.7796
2330.71	0.7789
2338.73	0.7742
2346.74	0.764
2354.75	0.752
2362.77	0.7386
2370.78	0.7266
2378.79	0.7148
2386.81	0.7044
2394.82	0.6967
2402.83	0.6847
2410.84	0.6673
2418.86	0.6525
2426.87	0.6379
2434.88	0.6218
2442.9	0.6065
2450.91	0.592
2458.92	0.5776
2466.94	0.5617
2474.95	0.5455
2482.96	0.5297
2490.98	0.5139
2498.99	0.4975
2507	0.4813
2515.01	0.4654
2523.03	0.4464
2531.04	0.4264
2539.05	0.4048
2547.07	0.3823
2555.08	0.3611
2563.09	0.3413
2571.11	0.336
2579.12	0.3325
2587.13	0.3278
2595.14	0.3222
2603.16	0.3145
2611.17	0.3115
2619.18	0.3158
2627.2	0.3146
2635.21	0.3034
2643.22	0.2965
2651.24	0.2768
2659.25	0.2735
2667.26	0.2677
2675.28	0.2611
2683.29	0.2542
2691.3	0.2494
2699.31	0.2526
2707.33	0.2605
2715.34	0.2732
2723.35	0.2865
2731.37	0.2951
2739.38	0.2963
2747.39	0.3062
2755.41	0.3079
2763.42	0.3136
2771.43	0.3167
2779.44	0.3182
2787.46	0.3205
2795.47	0.3239
2803.48	0.3231
2811.5	0.3179
2819.51	0.3154
2827.52	0.3117
2835.54	0.3166
2843.55	0.3188
2851.56	0.3196
2859.58	0.3216
2867.59	0.322
2875.6	0.3145
2883.61	0.3139
2891.63	0.3117
2899.64	0.2922
2907.65	0.279
2915.67	0.2756
2923.68	0.2767
2931.69	0.2713
2939.71	0.264
2947.72	0.2589
2955.73	0.2592
2963.74	0.268
2971.76	0.2662
2979.77	0.2621
2987.78	0.2576
2995.8	0.2546
3003.81	0.2514
3011.82	0.2488
3019.84	0.2531
3027.85	0.2792
3035.86	0.293
3043.88	0.3235
3051.89	0.3473
3059.9	0.3805
3067.91	0.4292
3075.93	0.4656
3083.94	0.5043
3091.95	0.5492
3099.97	0.5721
3107.98	0.6093
3115.99	0.6503
3124.01	0.6757
3132.02	0.7071
3140.03	0.7332
3148.05	0.7482
3156.06	0.7613
3164.07	0.7711
3172.08	0.7725
3180.1	0.7678
3188.11	0.7576
3196.12	0.7495
3204.14	0.7142
3212.15	0.6554
3220.16	0.5598
3228.18	0.5418
3236.19	0.5756
3244.2	0.62
3252.21	0.7038
3260.23	0.785
3268.24	0.8247
3276.25	0.8354
3284.27	0.845
3292.28	0.8464
3300.29	0.8463
3308.31	0.8453
3316.32	0.8428
3324.33	0.839
3332.35	0.8357
3340.36	0.8332
3348.37	0.8306
3356.38	0.818
3364.4	0.8094
3372.41	0.8028
3380.42	0.7959
3388.44	0.7866
3396.45	0.7789
3404.46	0.7731
3412.48	0.77
3420.49	0.7703
3428.5	0.7772
3436.51	0.7842
3444.53	0.7868
3452.54	0.8001
3460.55	0.8089
3468.57	0.8135
3476.58	0.8341
3484.59	0.8376
3492.61	0.8382
3500.62	0.8406
3508.63	0.8595
3516.65	0.8647
3524.66	0.8687
3532.67	0.8744
3540.68	0.8949
3548.7	0.9054
3556.71	0.9076
3564.72	0.9183
3572.74	0.9317
3580.75	0.9462
3588.76	0.964
3596.78	0.9844
3604.79	0.9967
3612.8	1.0082
3620.81	1.0063
3628.83	1.0077
3636.84	1.0108
3644.85	1.0103
3652.87	1.0211
3660.88	1.0293
3668.89	1.0288
3676.91	1.0318
3684.92	1.0319
3692.93	1.0322
3700.95	1.0324
3708.96	1.0326
3716.97	1.0328
3724.98	1.033
3733	1.0332
3741.01	1.0335
3749.02	1.0337
3757.04	1.0339
3765.05	1.0341
3773.06	1.0343
3781.08	1.0345
3789.09	1.0347
3797.1	1.0349
3805.12	1.0351
