Infrared Spectrum: BUTYROPHENONE, 2',4',5'-TRIHYDROXY
Formula: C10 H12 O4
CAS: 1421-63-2
State: SOLID (KBr PELLET)
Melting point: 147-151 C
Class: COBLENTZ
Instrument: Not specified, most likely a prism, grating, or hybrid spectrometer.
Sampling: TRANSMISSION
Resolution: 4
Origin: TENNESSEE EASTMAN COMPANY, RESEARCH LABORATORIES
MICROMETERS	TRANSMITTANCE
2.041	0.672
2.08218	0.681
2.12337	0.684
2.16455	0.693
2.20574	0.71
2.24692	0.718
2.28811	0.722
2.32929	0.73
2.37047	0.735
2.41166	0.749
2.45284	0.751
2.49403	0.756
2.53521	0.763
2.5764	0.766
2.61758	0.77
2.65876	0.783
2.69995	0.788
2.74113	0.768
2.78232	0.691
2.8235	0.558
2.86469	0.236
2.90587	0.345
2.94705	0.354
2.98824	0.34
3.02942	0.287
3.07061	0.32
3.11179	0.427
3.15298	0.545
3.19416	0.637
3.23534	0.676
3.27653	0.693
3.31771	0.698
3.3589	0.477
3.40008	0.649
3.44127	0.664
3.48245	0.701
3.52363	0.722
3.56482	0.725
3.606	0.73
3.64719	0.747
3.68837	0.752
3.72956	0.758
3.77074	0.763
3.81192	0.778
3.85311	0.793
3.89429	0.824
3.93548	0.827
3.97666	0.831
4.01785	0.839
4.05903	0.851
4.10021	0.863
4.1414	0.868
4.18258	0.87
4.22377	0.879
4.26495	0.889
4.30614	0.889
4.34732	0.89
4.3885	0.908
4.42969	0.916
4.47087	0.921
4.51206	0.926
4.55324	0.926
4.59443	0.925
4.63561	0.928
4.67679	0.931
4.71798	0.93
4.75916	0.935
4.80035	0.94
4.84153	0.936
4.88272	0.928
4.9239	0.933
4.96508	0.938
5.00627	0.95
5.04745	0.94
5.08864	0.94
5.12982	0.942
5.17101	0.94
5.21219	0.938
5.25337	0.943
5.29456	0.948
5.33574	0.947
5.37693	0.942
5.41811	0.94
5.4593	0.947
5.50048	0.943
5.54166	0.94
5.58285	0.93
5.62403	0.933
5.66522	0.918
5.7064	0.892
5.74759	0.877
5.78877	0.855
5.82995	0.844
5.87114	0.856
5.91232	0.829
5.95351	0.802
5.99469	0.749
6.03588	0.643
6.07706	0.197
6.11824	0.183
6.15943	0.216
6.20061	0.199
6.2418	0.356
6.28298	0.553
6.32417	0.596
6.36535	0.649
6.40653	0.592
6.44772	0.262
6.4889	0.241
6.53009	0.306
6.57127	0.342
6.61246	0.592
6.65364	0.695
6.69482	0.708
6.73601	0.712
6.77719	0.597
6.81838	0.567
6.85956	0.477
6.90075	0.505
6.94193	0.412
6.98311	0.287
7.0243	0.221
7.06548	0.216
7.10667	0.294
7.14785	0.216
7.18904	0.103
7.23022	0.066
7.2714	0.187
7.31259	0.371
7.35377	0.519
7.39496	0.58
7.43614	0.597
7.47733	0.48
7.51851	0.453
7.55969	0.58
7.60088	0.614
7.64206	0.403
7.68325	0.189
7.72443	0.119
7.76562	0.061
7.8068	0.095
7.84798	0.221
7.88917	0.357
7.93035	0.475
7.97154	0.524
8.01272	0.543
8.05391	0.526
8.09509	0.434
8.13627	0.393
8.17746	0.487
8.21864	0.396
8.25983	0.216
8.30101	0.274
8.3422	0.291
8.38338	0.233
8.42456	0.195
8.46575	0.144
8.50693	0.085
8.54812	0.115
8.5893	0.301
8.63049	0.439
8.67167	0.497
8.71285	0.594
8.75404	0.679
8.79522	0.732
8.83641	0.781
8.87759	0.798
8.91878	0.8
8.95996	0.761
9.00114	0.652
9.04233	0.7
9.08351	0.756
9.1247	0.717
9.16588	0.73
9.20707	0.797
9.24825	0.843
9.28943	0.855
9.33062	0.86
9.3718	0.87
9.41299	0.877
9.45417	0.875
9.49536	0.875
9.53654	0.87
9.57772	0.836
9.61891	0.846
9.66009	0.865
9.70128	0.877
9.74246	0.882
9.78365	0.89
9.82483	0.89
9.86601	0.889
9.9072	0.865
9.94838	0.844
9.98957	0.822
10.0308	0.751
10.0719	0.747
10.1131	0.836
10.1543	0.87
10.1955	0.889
10.2367	0.896
10.2779	0.908
10.319	0.914
10.3602	0.918
10.4014	0.921
10.4426	0.923
10.4838	0.926
10.525	0.921
10.5661	0.919
10.6073	0.928
10.6485	0.93
10.6897	0.928
10.7309	0.926
10.7721	0.931
10.8133	0.926
10.8544	0.919
10.8956	0.919
10.9368	0.916
10.978	0.856
11.0192	0.797
11.0604	0.708
11.1015	0.734
11.1427	0.79
11.1839	0.793
11.2251	0.81
11.2663	0.822
11.3075	0.822
11.3486	0.8
11.3898	0.732
11.431	0.545
11.4722	0.248
11.5134	0.175
11.5546	0.303
11.5958	0.345
11.6369	0.551
11.6781	0.689
11.7193	0.735
11.7605	0.735
11.8017	0.689
11.8429	0.618
11.884	0.434
11.9252	0.255
11.9664	0.247
12.0076	0.512
12.0488	0.701
12.09	0.776
12.1311	0.8
12.1723	0.807
12.2135	0.8
12.2547	0.797
12.2959	0.792
12.3371	0.778
12.3783	0.768
12.4194	0.742
12.4606	0.7
12.5018	0.662
12.543	0.621
12.5842	0.592
12.6254	0.577
12.6665	0.582
12.7077	0.613
12.7489	0.625
12.7901	0.637
12.8313	0.638
12.8725	0.652
12.9137	0.678
12.9548	0.701
12.996	0.729
13.0372	0.754
13.0784	0.792
13.1196	0.816
13.1608	0.829
13.2019	0.844
13.2431	0.848
13.2843	0.841
13.3255	0.838
13.3667	0.841
13.4079	0.86
13.449	0.873
13.4902	0.884
13.5314	0.887
13.5726	0.887
13.6138	0.884
13.655	0.882
13.6962	0.875
13.7373	0.855
13.7785	0.843
13.8197	0.81
13.8609	0.792
13.9021	0.788
13.9433	0.817
13.9844	0.851
14.0256	0.879
14.0668	0.897
14.108	0.913
14.1492	0.918
14.1904	0.919
14.2315	0.921
14.2727	0.921
14.3139	0.916
14.3551	0.894
14.3963	0.858
14.4375	0.838
14.4787	0.841
14.5198	0.867
14.561	0.894
14.6022	0.911
14.6434	0.918
14.6846	0.919
14.7258	0.918
14.7669	0.913
14.8081	0.896
14.8493	0.882
14.8905	0.848
14.9317	0.8
14.9729	0.717
15.014	0.632
15.0552	0.601
15.0964	0.604
15.1376	0.63
15.1788	0.674
15.22	0.705
15.2612	0.732
15.3023	0.744
15.3435	0.751
15.3847	0.752
15.4259	0.751
15.4671	0.749
15.5083	0.747
15.5494	0.742
15.5906	0.741
15.6318	0.732
15.673	0.722
15.7142	0.717
15.7554	0.712
15.7966	0.71
15.8377	0.706
15.8789	0.696
15.9201	0.689
15.9613	0.686
16.0025	0.686
