Infrared Spectrum: SALICYLIC ACID, METHYL CARBONATE
Formula: C9 H8 O5
CAS: 14216-34-3
State: SOLID (SPLIT MULL)
Melting point: 128 C (DECOMP.)
Class: COBLENTZ III
Instrument: DOW KBr FOREPRISM-GRATING
Instrument parameters: BLAZED AT 3.5, 12.0, 20.0 MICRON AND CHANGED AT 5.0, 7.5, 14.9 MICRON
Sampling: TRANSMISSION
Resolution: 2
Origin: DOW CHEMICAL COMPANY
1/CM	TRANSMITTANCE
457	0.8525
466	0.8621
475	0.8681
484	0.8684
493	0.8639
502	0.8558
511	0.8401
520	0.7496
529	0.8565
538	0.8595
547	0.8464
556	0.8247
565	0.7599
574	0.6665
583	0.845
592	0.8852
601	0.8952
610	0.9025
619	0.8951
628	0.9052
637	0.8944
646	0.8386
655	0.3666
664	0.8827
673	0.8927
682	0.8795
691	0.8718
700	0.8538
709	0.7271
718	0.2261
727	0.7735
736	0.832
745	0.8303
754	0.8138
763	0.7703
772	0.2972
781	0.5194
790	0.5547
799	0.6241
808	0.303
817	0.8521
826	0.8475
835	0.828
844	0.7941
853	0.5697
862	0.7393
871	0.795
880	0.7715
889	0.7449
898	0.6861
907	0.5474
916	0.3768
925	0.3826
934	0.3494
943	0.2706
952	0.7503
961	0.7697
970	0.6418
979	0.7943
988	0.804
997	0.8068
1006	0.7989
1015	0.7967
1024	0.7611
1033	0.7428
1042	0.7389
1051	0.6721
1060	0.2477
1069	0.7428
1078	0.7753
1087	0.7607
1096	0.6337
1105	0.7218
1114	0.758
1123	0.7526
1132	0.5897
1141	0.6891
1150	0.6897
1159	0.6394
1168	0.6434
1177	0.5967
1186	0.5164
1195	0.3859
1204	0.2298
1213	0.0448
1222	0.0372
1231	0.2582
1240	0.2095
1249	0.0988
1258	0.0397
1267	0.0487
1276	0.0349
1285	0.0719
1294	0.0921
1303	0.0675
1312	0.0248
1321	0.0687
1330	0.3892
1339	0.5591
1348	0.6419
1357	0.7292
1366	0.7324
1375	0.7225
1384	0.7028
1393	0.6625
1402	0.5994
1411	0.5401
1420	0.4124
1429	0.6167
1438	0.2264
1447	0.5619
1456	0.3704
1465	0.3714
1474	0.7906
1483	0.6819
1492	0.7544
1501	0.8445
1510	0.8356
1519	0.8242
1528	0.809
1537	0.7895
1546	0.7646
1555	0.7449
1564	0.7105
1573	0.6378
1582	0.6788
1591	0.6154
1600	0.5025
1609	0.1349
1618	0.7018
1627	0.6862
1636	0.6408
1645	0.5904
1654	0.5341
1663	0.4228
1672	0.323
1681	0.1709
1690	0.0762
1699	0.1303
1708	0.4089
1717	0.6045
1726	0.6837
1735	0.6631
1744	0.5836
1753	0.331
1762	0.0473
1771	0.1384
1780	0.5706
1789	0.7788
1798	0.8339
1807	0.8584
1816	0.8575
1825	0.851
1834	0.8489
1843	0.844
1852	0.8456
1861	0.8586
1870	0.8597
1879	0.8525
1888	0.8534
1897	0.8573
1906	0.86
1915	0.8604
1924	0.8583
1933	0.8531
1942	0.8462
1951	0.8502
1960	0.8674
1969	0.8425
1978	0.8295
1987	0.8365
1996	0.8571
2005	0.8721
2014	0.8608
2023	0.8703
2032	0.8657
2041	0.8585
2050	0.8506
2059	0.8415
2068	0.8353
2077	0.8361
2086	0.8378
2095	0.8383
2104	0.837
2113	0.834
2122	0.8296
2131	0.8244
2140	0.8176
2149	0.8104
2158	0.8038
2167	0.7991
2176	0.7997
2185	0.7936
2194	0.7872
2203	0.7815
2212	0.7765
2221	0.7714
2230	0.7661
2239	0.7607
2248	0.7554
2257	0.75
2266	0.7446
2275	0.7392
2284	0.7338
2293	0.7284
2302	0.7221
2311	0.7154
2320	0.7108
2329	0.7078
2338	0.7049
2347	0.7011
2356	0.6974
2365	0.6938
2374	0.6897
2383	0.684
2392	0.6784
2401	0.6726
2410	0.6671
2419	0.6608
2428	0.6544
2437	0.6478
2446	0.6414
2455	0.6332
2464	0.6232
2473	0.613
2482	0.6027
2491	0.5922
2500	0.5818
2509	0.5712
2518	0.561
2527	0.5501
2536	0.5417
2545	0.55
2554	0.5648
2563	0.5604
2572	0.5439
2581	0.5312
2590	0.536
2599	0.5587
2608	0.5604
2617	0.5565
2626	0.5477
2635	0.5392
2644	0.5306
2653	0.5272
2662	0.532
2671	0.5356
2680	0.5256
2689	0.5138
2698	0.5118
2707	0.5286
2716	0.5578
2725	0.5699
2734	0.5687
2743	0.5634
2752	0.5568
2761	0.5467
2770	0.5347
2779	0.521
2788	0.5067
2797	0.489
2806	0.4771
2815	0.4694
2824	0.4632
2833	0.4579
2842	0.4548
2851	0.4531
2860	0.4535
2869	0.4538
2878	0.4546
2887	0.4553
2896	0.4564
2905	0.4577
2914	0.4598
2923	0.4632
2932	0.4709
2941	0.4658
2950	0.449
2959	0.4216
2968	0.4048
2977	0.4674
2986	0.4692
2995	0.4654
3004	0.461
3013	0.4622
3022	0.4731
3031	0.485
3040	0.4999
3049	0.5109
3058	0.5137
3067	0.5149
3076	0.5182
3085	0.5336
3094	0.5402
3103	0.5619
3112	0.5714
3121	0.5781
3130	0.5865
3139	0.5951
3148	0.6033
3157	0.6115
3166	0.6196
3175	0.6275
3184	0.6353
3193	0.6425
3202	0.6487
3211	0.6538
3220	0.6584
3229	0.6633
3238	0.6686
3247	0.6735
3256	0.675
3265	0.6761
3274	0.6771
3283	0.6774
3292	0.6775
3301	0.6775
3310	0.6792
3319	0.6814
3328	0.6817
3337	0.6814
3346	0.6798
3355	0.678
3364	0.6761
3373	0.6742
3382	0.6725
3391	0.6712
3400	0.67
3409	0.6683
3418	0.6662
3427	0.6643
3436	0.6624
3445	0.6604
3454	0.6583
3463	0.6561
3472	0.6541
3481	0.6501
3490	0.6441
3499	0.6407
3508	0.6536
3517	0.6532
3526	0.6515
3535	0.6492
3544	0.6468
3553	0.6445
3562	0.6418
3571	0.6417
3580	0.6443
3589	0.6444
3598	0.6434
3607	0.6418
3616	0.64
3625	0.6383
3634	0.6366
3643	0.6351
3652	0.6337
3661	0.6322
3670	0.6305
3679	0.6287
3688	0.6269
3697	0.625
3706	0.6231
3715	0.6212
3724	0.6193
3733	0.6172
3742	0.6151
3751	0.6129
3760	0.6107
3769	0.6083
3778	0.606
3787	0.6042
3796	0.6023
