Infrared Spectrum: 2-CHLOROALLYL ISOTHIOCYANATE
Formula: C4 H4 Cl N S
CAS: 14214-31-4
State: SOLUTION (10% CCl4 FOR 5000-1330, 10% CS2 FOR 1330-625 CM^-^1)
Class: COBLENTZ
Instrument: Not specified, most likely a prism, grating, or hybrid spectrometer.
Sampling: TRANSMISSION
Path length: 0.0123 CM, 0.0120 CM
Resolution: 4
Origin: DOW CHEMICAL COMPANY
MICROMETERS	TRANSMITTANCE
2.021	0.895
2.06214	0.893
2.10327	0.891
2.14441	0.886
2.18554	0.883
2.22668	0.879
2.26781	0.878
2.30895	0.883
2.35009	0.883
2.39122	0.884
2.43236	0.891
2.47349	0.902
2.51463	0.905
2.55577	0.905
2.5969	0.905
2.63804	0.905
2.67917	0.905
2.72031	0.902
2.76144	0.898
2.80258	0.886
2.84372	0.881
2.88485	0.874
2.92599	0.864
2.96712	0.874
3.00826	0.878
3.04939	0.878
3.09053	0.884
3.13167	0.888
3.1728	0.881
3.21394	0.89
3.25507	0.879
3.29621	0.857
3.33734	0.828
3.37848	0.816
3.41962	0.86
3.46075	0.85
3.50189	0.876
3.54302	0.881
3.58416	0.871
3.6253	0.898
3.66643	0.907
3.70757	0.91
3.7487	0.905
3.78984	0.903
3.83097	0.903
3.87211	0.903
3.91325	0.907
3.95438	0.914
3.99552	0.917
4.03665	0.92
4.07779	0.92
4.11892	0.905
4.16006	0.914
4.2012	0.9
4.24233	0.886
4.28347	0.86
4.3246	0.819
4.36574	0.785
4.40687	0.711
4.44801	0.635
4.48915	0.536
4.53028	0.527
4.57142	0.57
4.61255	0.391
4.65369	0.379
4.69483	0.25
4.73596	0.14
4.7771	0.061
4.81823	0.037
4.85937	0.042
4.9005	0.097
4.94164	0.266
4.98278	0.487
5.02391	0.692
5.06505	0.776
5.10618	0.835
5.14732	0.876
5.18845	0.89
5.22959	0.903
5.27073	0.908
5.31186	0.917
5.353	0.92
5.39413	0.92
5.43527	0.914
5.47641	0.893
5.51754	0.862
5.55868	0.89
5.59981	0.912
5.64095	0.912
5.68208	0.9
5.72322	0.876
5.76436	0.888
5.80549	0.908
5.84663	0.922
5.88776	0.92
5.9289	0.908
5.97003	0.879
6.01117	0.831
6.05231	0.635
6.09344	0.422
6.13458	0.663
6.17571	0.797
6.21685	0.728
6.25798	0.668
6.29912	0.627
6.34026	0.597
6.38139	0.544
6.42253	0.469
6.46366	0.47
6.5048	0.554
6.54594	0.599
6.58707	0.664
6.62821	0.752
6.66934	0.821
6.71048	0.855
6.75161	0.862
6.79275	0.872
6.83389	0.847
6.87502	0.757
6.91616	0.601
6.95729	0.683
6.99843	0.678
7.03956	0.597
7.0807	0.623
7.12184	0.694
7.16297	0.692
7.20411	0.69
7.24524	0.721
7.28638	0.761
7.32751	0.771
7.36865	0.67
7.40979	0.58
7.45092	0.62
7.49206	0.51
7.53319	0.73
7.57433	0.848
7.61547	0.874
7.6566	0.881
7.69774	0.888
7.73887	0.891
7.78001	0.883
7.82114	0.855
7.86228	0.841
7.90342	0.819
7.94455	0.776
7.98569	0.707
8.02682	0.673
8.06796	0.73
8.10909	0.829
8.15023	0.824
8.19137	0.733
8.2325	0.556
8.27364	0.494
8.31477	0.702
8.35591	0.773
8.39705	0.804
8.43818	0.81
8.47932	0.797
8.52045	0.719
8.56159	0.656
8.60272	0.683
8.64386	0.678
8.685	0.548
8.72613	0.491
8.76727	0.654
8.8084	0.692
8.84954	0.613
8.89067	0.462
8.93181	0.482
8.97295	0.606
9.01408	0.658
9.05522	0.702
9.09635	0.719
9.13749	0.726
9.17862	0.754
9.21976	0.8
9.2609	0.805
9.30203	0.809
9.34317	0.829
9.3843	0.867
9.42544	0.893
9.46658	0.903
9.50771	0.903
9.54885	0.902
9.58998	0.902
9.63112	0.912
9.67225	0.92
9.71339	0.92
9.75453	0.917
9.79566	0.912
9.8368	0.932
9.87793	0.941
9.91907	0.95
9.9602	0.948
10.0013	0.946
10.0425	0.95
10.0836	0.95
10.1247	0.95
10.1659	0.95
10.207	0.931
10.2482	0.91
10.2893	0.891
10.3304	0.883
10.3716	0.883
10.4127	0.884
10.4538	0.89
10.495	0.903
10.5361	0.902
10.5772	0.884
10.6184	0.874
10.6595	0.864
10.7006	0.86
10.7418	0.855
10.7829	0.821
10.8241	0.774
10.8652	0.747
10.9063	0.719
10.9475	0.664
10.9886	0.584
11.0297	0.453
11.0709	0.266
11.112	0.118
11.1531	0.097
11.1943	0.116
11.2354	0.18
11.2765	0.369
11.3177	0.567
11.3588	0.666
11.4	0.719
11.4411	0.74
11.4822	0.749
11.5234	0.75
11.5645	0.749
11.6056	0.745
11.6468	0.742
11.6879	0.749
11.729	0.771
11.7702	0.797
11.8113	0.833
11.8525	0.86
11.8936	0.89
11.9347	0.903
11.9759	0.912
12.017	0.922
12.0581	0.927
12.0993	0.929
12.1404	0.932
12.1815	0.932
12.2227	0.932
12.2638	0.932
12.3049	0.931
12.3461	0.922
12.3872	0.919
12.4284	0.914
12.4695	0.903
12.5106	0.893
12.5518	0.883
12.5929	0.883
12.634	0.884
12.6752	0.89
12.7163	0.89
12.7574	0.886
12.7986	0.879
12.8397	0.879
12.8808	0.876
12.922	0.874
12.9631	0.872
13.0043	0.872
13.0454	0.869
13.0865	0.862
13.1277	0.855
13.1688	0.85
13.2099	0.835
13.2511	0.826
13.2922	0.819
13.3333	0.804
13.3745	0.793
13.4156	0.785
13.4567	0.771
13.4979	0.752
13.539	0.73
13.5802	0.701
13.6213	0.661
13.6624	0.609
13.7036	0.553
13.7447	0.541
13.7858	0.558
13.827	0.608
13.8681	0.658
13.9092	0.697
13.9504	0.709
13.9915	0.714
14.0326	0.719
14.0738	0.721
14.1149	0.704
14.1561	0.685
14.1972	0.664
14.2383	0.628
14.2795	0.587
14.3206	0.539
14.3617	0.494
14.4029	0.446
14.444	0.398
14.4851	0.371
14.5263	0.352
14.5674	0.347
14.6085	0.367
14.6497	0.398
14.6908	0.429
14.732	0.448
14.7731	0.465
14.8142	0.47
14.8554	0.467
14.8965	0.467
14.9376	0.46
14.9788	0.441
15.0199	0.431
15.061	0.424
15.1022	0.422
15.1433	0.422
15.1844	0.422
15.2256	0.422
15.2667	0.422
15.3079	0.42
15.349	0.4
15.3901	0.386
15.4313	0.367
15.4724	0.348
15.5135	0.324
15.5547	0.305
15.5958	0.304
15.6369	0.298
15.6781	0.288
15.7192	0.288
15.7603	0.283
15.8015	0.283
15.8426	0.281
