Infrared Spectrum: 2-Bromo-4-fluorotoluene
Formula: C 7 H 6 Br F
CAS: 1422-53-3
State: gas
Origin: EPA-IR VAPOR PHASE LIBRARY
1/CM	ABSORBANCE
549.9	0.00443
559.547	0.00776
569.193	0.00726
578.84	0.00404
588.486	0.0019652
598.133	0.0017215
607.779	0.001445
617.426	0.00175154
627.072	0.0018978
636.719	0.00174192
646.365	0.00181551
656.012	0.00295
665.658	0.00808
675.305	0.0134
684.951	0.01284
694.598	0.00479
704.245	0.002628
713.891	0.00366
723.538	0.00887
733.184	0.02781
742.831	0.03348
752.477	0.01154
762.124	0.00378
771.77	0.0039
781.417	0.00567
791.063	0.0184
800.71	0.04264
810.356	0.03937
820.003	0.01869
829.649	0.00631
839.296	0.00739
848.943	0.02654
858.589	0.07032
868.236	0.09759
877.882	0.09039
887.529	0.0739
897.175	0.04296
906.822	0.01066
916.468	0.00695
926.115	0.00614
935.761	0.00549
945.408	0.00393
955.054	0.00305
964.701	0.00356
974.347	0.00529
983.994	0.00884
993.64	0.01305
1003.29	0.01256
1012.93	0.00974
1022.58	0.02286
1032.23	0.04371
1041.87	0.03393
1051.52	0.01321
1061.17	0.0053
1070.81	0.00305
1080.46	0.0021969
1090.11	0.0017035
1099.75	0.00174636
1109.4	0.0020843
1119.05	0.00322
1128.69	0.00487
1138.34	0.00457
1147.99	0.00344
1157.63	0.00476
1167.28	0.01601
1176.92	0.02791
1186.57	0.02524
1196.22	0.01452
1205.86	0.01317
1215.51	0.02379
1225.16	0.07068
1234.8	0.09351
1244.45	0.05423
1254.1	0.03885
1263.74	0.05841
1273.39	0.05818
1283.04	0.03183
1292.68	0.00878
1302.33	0.00369
1311.98	0.00295
1321.62	0.00293
1331.27	0.00331
1340.92	0.0037
1350.56	0.00487
1360.21	0.00801
1369.86	0.01047
1379.5	0.01453
1389.15	0.01837
1398.79	0.01359
1408.44	0.00949
1418.09	0.01477
1427.73	0.02056
1437.38	0.02035
1447.03	0.02154
1456.67	0.0235
1466.32	0.03611
1475.97	0.10343
1485.61	0.22188
1495.26	0.2087
1504.91	0.07775
1514.55	0.02181
1524.2	0.00969
1533.85	0.00839
1543.49	0.01064
1553.14	0.01344
1562.79	0.01695
1572.43	0.02911
1582.08	0.07062
1591.73	0.13915
1601.37	0.12645
1611.02	0.05811
1620.67	0.02167
1630.31	0.01246
1639.96	0.00921
1649.6	0.00651
1659.25	0.00464
1668.9	0.00345
1678.54	0.0028
1688.19	0.0025397
1697.84	0.00292
1707.48	0.00444
1717.13	0.00648
1726.78	0.00677
1736.42	0.00504
1746.07	0.0031
1755.72	0.0020177
1765.36	0.0016671
1775.01	0.001473
1784.66	0.001414
1794.3	0.001398
1803.95	0.001388
1813.6	0.001323
1823.24	0.001332
1832.89	0.001593
1842.54	0.0021539
1852.18	0.00335
1861.83	0.00537
1871.47	0.00513
1881.12	0.00281
1890.77	0.0016794
1900.41	0.001526
1910.06	0.001499
1919.71	0.001477
1929.35	0.001473
1939	0.001597
1948.65	0.0016679
1958.29	0.0019872
1967.94	0.0023349
1977.59	0.0020465
1987.23	0.001442
1996.88	0.00131
2006.53	0.001308
2016.17	0.001305
2025.82	0.001283
2035.47	0.001278
2045.11	0.00153
2054.76	0.0016458
2064.41	0.0016895
2074.05	0.001587
2083.7	0.001425
2093.35	0.001605
2102.99	0.00179144
2112.64	0.0019906
2122.28	0.0019623
2131.93	0.0017074
2141.58	0.001482
2151.22	0.001459
2160.87	0.001405
2170.52	0.001313
2180.16	0.00102
2189.81	0.000943
2199.46	0.00094
2209.1	0.001
2218.75	0.000967
2228.4	0.001008
2238.04	0.001043
2247.69	0.001109
2257.34	0.001186
2266.98	0.001309
2276.63	0.001275
2286.28	0.001234
2295.92	0.001375
2305.57	0.001522
2315.22	0.001367
2324.86	0.001218
2334.51	0.001222
2344.16	0.001333
2353.8	0.001561
2363.45	0.0016555
2373.09	0.00174253
2382.74	0.001636
2392.39	0.001595
2402.03	0.001675
2411.68	0.00173
2421.33	0.001567
2430.97	0.001521
2440.62	0.00173179
2450.27	0.0019699
2459.91	0.002127
2469.56	0.0022892
2479.21	0.0021683
2488.85	0.00239
2498.5	0.0022633
2508.15	0.00175956
2517.79	0.001487
2527.44	0.001334
2537.09	0.001385
2546.73	0.001267
2556.38	0.00108
2566.03	0.00103
2575.67	0.001006
2585.32	0.000974
2594.96	0.000986
2604.61	0.001215
2614.26	0.001368
2623.9	0.001429
2633.55	0.001193
2643.2	0.001131
2652.84	0.001177
2662.49	0.001201
2672.14	0.001078
2681.78	0.001022
2691.43	0.000945
2701.08	0.001109
2710.72	0.001145
2720.37	0.001346
2730.02	0.00148
2739.66	0.001564
2749.31	0.0020605
2758.96	0.0019192
2768.6	0.001319
2778.25	0.001124
2787.9	0.001045
2797.54	0.001098
2807.19	0.001374
2816.84	0.001707
2826.48	0.0022672
2836.13	0.00296
2845.77	0.00381
2855.42	0.00496
2865.07	0.00687
2874.71	0.00854
2884.36	0.00791
2894.01	0.00669
2903.65	0.00683
2913.3	0.00839
2922.95	0.01231
2932.59	0.02047
2942.24	0.02246
2951.89	0.01651
2961.53	0.01417
2971.18	0.01518
2980.83	0.01576
2990.47	0.01421
3000.12	0.01026
3009.77	0.0071
3019.41	0.00718
3029.06	0.0106
3038.71	0.01289
3048.35	0.01035
3058	0.00733
3067.64	0.00973
3077.29	0.01122
3086.94	0.00848
3096.58	0.00518
3106.23	0.00302
3115.88	0.0019174
3125.52	0.001229
3135.17	0.000868
3144.82	0.000745
3154.46	0.00042
3164.11	0.00055
3173.76	0.0005
3183.4	0.00039
3193.05	0.0003
3202.7	0.00035
3212.34	0.00012
3221.99	0.00021
3231.64	0.00026
3241.28	0.00026
3250.93	0
3260.58	0.00035
3270.22	0.00013
3279.87	0.00022
3289.52	0.00016
3299.16	0.00021
3308.81	0.00014
3318.45	0.00018
3328.1	0.00034
3337.75	0.00034
3347.39	0.00018
3357.04	0.00033
3366.69	0.00039
3376.33	0.00026
3385.98	0.00046
3395.63	0.00039
3405.27	0.00048
3414.92	0.00034
3424.57	0.00025
3434.21	0.00044
3443.86	0.00059
3453.51	0.00061
3463.15	0.00037
3472.8	0.00062
3482.45	0.00061
3492.09	0.00054
3501.74	0.00056
3511.39	0.000782
3521.03	0.00068
3530.68	0.00065
3540.33	0.00071
3549.97	0.000895
3559.62	0.00074
3569.26	0.00056
3578.91	0.00056
3588.56	0.000768
3598.2	0.00062
3607.85	0.00063
3617.5	0.00064
3627.14	0.00068
3636.79	0.00069
3646.44	0.000977
3656.08	0.00072
3665.73	0.00068
3675.38	0.000782
3685.02	0.000854
3694.67	0.000836
3704.32	0.001099
3713.96	0.001115
3723.61	0.001012
3733.26	0.00094
3742.9	0.000946
3752.55	0.001082
3762.2	0.001101
3771.84	0.001229
3781.49	0.001123
3791.13	0.001063
3800.78	0.001044
3810.43	0.001037
3820.07	0.001015
3829.72	0.001071
3839.37	0.001098
3849.01	0.001009
3858.66	0.001021
3868.31	0.000949
3877.95	0.000837
3887.6	0.000985
3897.25	0.000924
3906.89	0.000877
3916.54	0.000988
3926.19	0.000984
3935.83	0.000968
3945.48	0.001049
3955.13	0.001211
3964.77	0.001217
3974.42	0.001161
3984.07	0.001038
3993.71	0.000846
