Infrared Spectrum: 2,4,6-Trimethoxynitrobenzene
Formula: C 9 H 11 N O 5
CAS: 14227-18-0
State: gas
Origin: EPA-IR VAPOR PHASE LIBRARY
1/CM	ABSORBANCE
549.8	0.0011501
559.445	0.002895
569.09	0.0017031
578.734	0.002795
588.379	0.002745
598.024	0.003205
607.669	0.003455
617.313	0.004925
626.958	0.005235
636.603	0.005895
646.248	0.005095
655.893	0.002495
665.537	0.003045
675.182	0.003055
684.827	0.002245
694.472	0.002245
704.116	0.0018573
713.761	0.0017945
723.406	0.002065
733.051	0.0014149
742.695	0.002345
752.34	0.002255
761.985	0.002375
771.63	0.002045
781.275	0.002665
790.919	0.002745
800.564	0.003125
810.209	0.003505
819.854	0.006145
829.498	0.007655
839.143	0.010405
848.788	0.005425
858.433	0.0017661
868.078	0.002095
877.722	0.0018178
887.367	0.0014172
897.012	0.002255
906.657	0.002475
916.301	0.003025
925.946	0.003675
935.591	0.004495
945.236	0.005285
954.88	0.004545
964.525	0.003175
974.17	0.002755
983.815	0.002665
993.46	0.003115
1003.1	0.002805
1012.75	0.004305
1022.39	0.003795
1032.04	0.005895
1041.68	0.008015
1051.33	0.009045
1060.97	0.005685
1070.62	0.005785
1080.26	0.005695
1089.91	0.008865
1099.55	0.013845
1109.2	0.022475
1118.84	0.031325
1128.49	0.036155
1138.13	0.036785
1147.78	0.036515
1157.42	0.040035
1167.07	0.031065
1176.71	0.017525
1186.36	0.015255
1196	0.021575
1205.64	0.032385
1215.29	0.034775
1224.93	0.029205
1234.58	0.015965
1244.22	0.008395
1253.87	0.005015
1263.51	0.004655
1273.16	0.003825
1282.8	0.003035
1292.45	0.003305
1302.09	0.003905
1311.74	0.004535
1321.38	0.007095
1331.03	0.013495
1340.67	0.021135
1350.32	0.016595
1359.96	0.011945
1369.61	0.013005
1379.25	0.010125
1388.9	0.007455
1398.54	0.008265
1408.18	0.013445
1417.83	0.018265
1427.47	0.016495
1437.12	0.014515
1446.76	0.013255
1456.41	0.016035
1466.05	0.022215
1475.7	0.018215
1485.34	0.013815
1494.99	0.010665
1504.63	0.009445
1514.28	0.009265
1523.92	0.010845
1533.57	0.018925
1543.21	0.036625
1552.86	0.041765
1562.5	0.022685
1572.15	0.018655
1581.79	0.030495
1591.44	0.052905
1601.08	0.065325
1610.73	0.048425
1620.37	0.027275
1630.01	0.014225
1639.66	0.008435
1649.3	0.005975
1658.95	0.005245
1668.59	0.004015
1678.24	0.003455
1687.88	0.002735
1697.53	0.002555
1707.17	0.002415
1716.82	0.002345
1726.46	0.002355
1736.11	0.002045
1745.75	0.002135
1755.4	0.0018976
1765.04	0.002195
1774.69	0.001965
1784.33	0.002075
1793.98	0.0018341
1803.62	0.0017154
1813.27	0.002005
1822.91	0.001563
1832.55	0.0015207
1842.2	0.0016912
1851.84	0.0016197
1861.49	0.0015453
1871.13	0.0015277
1880.78	0.0016771
1890.42	0.0015466
1900.07	0.0015389
1909.71	0.0015024
1919.36	0.001368
1929	0.001607
1938.65	0.0017976
1948.29	0.0017268
1957.94	0.0014832
1967.58	0.0016305
1977.23	0.0014695
1986.87	0.0013893
1996.52	0.0014009
2006.16	0.001415
2015.81	0.0015568
2025.45	0.0014526
2035.1	0.0014964
2044.74	0.0017246
2054.38	0.0014502
2064.03	0.0016289
2073.67	0.0014697
2083.32	0.0018744
2092.96	0.0019117
2102.61	0.0016134
2112.25	0.001407
2121.9	0.0015052
2131.54	0.0014446
2141.19	0.001663
2150.83	0.0018357
2160.48	0.0016173
2170.12	0.0017515
2179.77	0.001285
2189.41	0.0014114
2199.06	0.0012348
2208.7	0.0011907
2218.35	0.0013302
2227.99	0.0015612
2237.64	0.00094122
2247.28	0.0013991
2256.92	0.0013541
2266.57	0.0017234
2276.21	0.0015994
2285.86	0.0016934
2295.5	0.0012282
2305.15	0.0012803
2314.79	0.001185
2324.44	0.0011794
2334.08	0.00093258
2343.73	0.0010465
2353.37	0.0013257
2363.02	0.0010364
2372.66	0.0012271
2382.31	0.0015228
2391.95	0.0016527
2401.6	0.001154
2411.24	0.0016386
2420.89	0.0011881
2430.53	0.0016003
2440.18	0.0010833
2449.82	0.0010758
2459.47	0.0011446
2469.11	0.0014484
2478.75	0.0011712
2488.4	0.0013143
2498.04	0.001299
2507.69	0.0011566
2517.33	0.0013742
2526.98	0.0013922
2536.62	0.00093319
2546.27	0.0016572
2555.91	0.0017094
2565.56	0.0012036
2575.2	0.0012438
2584.85	0.00101441
2594.49	0.0011394
2604.14	0.0013381
2613.78	0.0012817
2623.43	0.0012316
2633.07	0.001152
2642.72	0.0008435
2652.36	0.0009453
2662.01	0.0012846
2671.65	0.0013653
2681.29	0.0012539
2690.94	0.000815
2700.58	0.0012774
2710.23	0.0015251
2719.87	0.0014274
2729.52	0.0011447
2739.16	0.0013218
2748.81	0.0012449
2758.45	0.0011855
2768.1	0.0012732
2777.74	0.0018034
2787.39	0.0015727
2797.03	0.0017927
2806.68	0.001975
2816.32	0.002375
2825.97	0.002805
2835.61	0.004125
2845.26	0.006365
2854.9	0.007905
2864.55	0.005925
2874.19	0.005145
2883.84	0.005065
2893.48	0.004815
2903.12	0.005755
2912.77	0.006005
2922.41	0.006245
2932.06	0.007685
2941.7	0.011185
2951.35	0.014265
2960.99	0.010905
2970.64	0.009315
2980.28	0.006805
2989.93	0.005495
2999.57	0.005445
3009.22	0.008205
3018.86	0.009055
3028.51	0.004495
3038.15	0.003145
3047.8	0.002555
3057.44	0.002215
3067.09	0.0018427
3076.73	0.001975
3086.38	0.002125
3096.02	0.001965
3105.67	0.0016091
3115.31	0.0012576
3124.95	0.0013594
3134.6	0.0012084
3144.24	0.0010987
3153.89	0.0012817
3163.53	0.0010331
3173.18	0.0010883
3182.82	0.0013305
3192.47	0.0015174
3202.11	0.0011896
3211.76	0.0014726
3221.4	0.0011381
3231.05	0.0011753
3240.69	0.0012913
3250.34	0.0008521
3259.98	0.0010319
3269.63	0.0015382
3279.27	0.0017471
3288.92	0.0013756
3298.56	0.0014319
3308.21	0.00091112
3317.85	0.000627
3327.49	0.00093927
3337.14	0.0010408
3346.78	0.0012419
3356.43	0.0008602
3366.07	0.0010824
3375.72	0.000738
3385.36	0.001514
3395.01	0.0012637
3404.65	0.0010671
3414.3	0.000805
3423.94	0.000462
3433.59	0.00038
3443.23	0.0012303
3452.88	0.00093979
3462.52	0.0012666
3472.17	0.000515
3481.81	0.0013961
3491.46	0.0015182
3501.1	0.0008984
3510.75	0.0014506
3520.39	0.000604
3530.04	0.001223
3539.68	0.0013509
3549.32	0.0012633
3558.97	0.0013203
3568.61	0.0010539
3578.26	0.0012661
3587.9	0.0012129
3597.55	0.000601
3607.19	0.0017323
3616.84	0.0014113
3626.48	0.001565
3636.13	0.0008833
3645.77	0.0008337
3655.42	0.0008213
3665.06	0.000809
3674.71	0.000552
3684.35	0.0013669
3694	0.001945
3703.64	0.00099532
3713.29	0.0012271
3722.93	0.0015541
3732.58	0.0011016
3742.22	0.000463
3751.86	0.000683
3761.51	0.0012875
3771.15	0.00095559
3780.8	0.0014004
3790.44	0.000701
3800.09	0.0010813
3809.73	0.00100725
3819.38	0.000787
3829.02	0.00098901
3838.67	0.0014116
3848.31	0.0016474
3857.96	0.0008386
3867.6	0.0010861
3877.25	0.0011364
3886.89	0.0015801
3896.54	0.0010645
3906.18	0.00078
3915.83	0.0011353
3925.47	0.000804
3935.12	0.0016706
3944.76	0.000723
3954.41	0.00097447
3964.05	0.001024
3973.69	0.002235
3983.34	0.000795
3992.98	0.0013325
