Infrared Spectrum: BENZALDEHYDE, 2-CHLORO-4-DIMETHYLAMINO-
Formula: C9 H10 Cl N O
CAS: 1424-66-4
State: SOLID (SPLIT MULL), FLUOROLUBE FOR 3800-1330 CM^-^1, NUJOL FOR 1330-460 CM^-^1
Class: COBLENTZ III
Instrument: DOW KBr FOREPRISM-GRATING
Instrument parameters: BLAZED AT 3.5, 12.0, 20.0 MICRON AND CHANGED AT 5.0, 7.5, 14.9 MICRON
Sampling: TRANSMISSION
Resolution: 2
Origin: DOW CHEMICAL COMPANY
1/CM	TRANSMITTANCE
467.544	0.912
476.316	0.91
485.088	0.909
493.86	0.906
502.632	0.901
511.404	0.897
520.176	0.876
528.948	0.832
537.72	0.891
546.491	0.909
555.263	0.913
564.035	0.916
572.807	0.916
581.579	0.916
590.351	0.905
599.123	0.901
607.895	0.912
616.667	0.82
625.439	0.909
634.211	0.946
642.983	0.95
651.755	0.967
660.527	0.965
669.299	0.964
678.071	0.782
686.843	0.958
695.615	0.95
704.386	0.956
713.158	0.96
721.93	0.934
730.702	0.945
739.474	0.941
748.246	0.954
757.018	0.924
765.79	0.731
774.562	0.623
783.334	0.841
792.106	0.939
800.878	0.821
809.65	0.7321
818.422	0.2041
827.194	0.916
835.966	0.93
844.738	0.939
853.51	0.85
862.281	0.963
871.053	0.969
879.825	0.967
888.597	0.958
897.369	0.954
906.141	0.939
914.913	0.941
923.685	0.931
932.457	0.92
941.229	0.9
950.001	0.849
958.773	0.771
967.545	0.915
976.317	0.921
985.089	0.92
993.861	0.901
1002.63	0.898
1011.4	0.86
1020.18	0.8039
1028.95	0.645
1037.72	0.364
1046.49	0.882
1055.26	0.924
1064.04	0.882
1072.81	0.746
1081.58	0.913
1090.35	0.917
1099.12	0.9
1107.9	0.872
1116.67	0.832
1125.44	0.853
1134.21	0.815
1142.98	0.767
1151.76	0.631
1160.53	0.841
1169.3	0.783
1178.07	0.643
1186.84	0.639
1195.62	0.738
1204.39	0.78
1213.16	0.773
1221.93	0.708
1230.7	0.473
1239.48	0.558
1248.25	0.595
1257.02	0.502
1265.79	0.365
1274.56	0.208
1283.33	0.4264
1292.11	0.79
1300.88	0.794
1309.65	0.794
1318.42	0.794
1327.19	0.726
1335.97	0.66
1344.74	0.593
1353.51	0.546
1362.28	0.4229
1371.05	0.172
1379.83	0.6493
1388.6	0.743
1397.37	0.605
1406.14	0.683
1414.91	0.6761
1423.69	0.706
1432.46	0.575
1441.23	0.676
1450	0.586
1458.77	0.6281
1467.55	0.663
1476.32	0.712
1485.09	0.701
1493.86	0.697
1502.63	0.638
1511.41	0.549
1520.18	0.4189
1528.95	0.293
1537.72	0.4471
1546.49	0.587
1555.27	0.613
1564.04	0.546
1572.81	0.445
1581.58	0.2759
1590.35	0.112
1599.12	0.063
1607.9	0.076
1616.67	0.1721
1625.44	0.4571
1634.21	0.72
1642.98	0.779
1651.76	0.6759
1660.53	0.4048
1669.3	0.0824
1678.07	0.6831
1686.84	0.878
1695.62	0.921
1704.39	0.958
1713.16	0.965
1721.93	0.993
1730.7	0.993
1739.48	0.984
1748.25	0.976
1757.02	0.975
1765.79	0.975
1774.56	0.971
1783.34	0.967
1792.11	0.96
1800.88	0.957
1809.65	0.953
1818.42	0.953
1827.2	0.952
1835.97	0.946
1844.74	0.941
1853.51	0.935
1862.28	0.931
1871.06	0.93
1879.83	0.927
1888.6	0.92
1897.37	0.913
1906.14	0.913
1914.91	0.916
1923.69	0.915
1932.46	0.913
1941.23	0.906
1950	0.906
1958.77	0.905
1967.55	0.901
1976.32	0.894
1985.09	0.89
1993.86	0.882
2002.63	0.872
2011.41	0.866
2020.18	0.8605
2028.95	0.8545
2037.72	0.853
2046.49	0.8495
2055.27	0.8455
2064.04	0.8425
2072.81	0.839
2081.58	0.8345
2090.35	0.8315
2099.13	0.829
2107.9	0.825
2116.67	0.818
2125.44	0.8125
2134.21	0.8085
2142.99	0.806
2151.76	0.806
2160.53	0.804
2169.3	0.799
2178.07	0.793
2186.85	0.7895
2195.62	0.785
2204.39	0.782
2213.16	0.778
2221.93	0.773
2230.7	0.769
2239.48	0.766
2248.25	0.762
2257.02	0.757
2265.79	0.7525
2274.56	0.7465
2283.34	0.7425
2292.11	0.738
2300.88	0.736
2309.65	0.738
2318.42	0.739
2327.2	0.739
2335.97	0.739
2344.74	0.739
2353.51	0.739
2362.28	0.739
2371.06	0.738
2379.83	0.734
2388.6	0.73
2397.37	0.728
2406.14	0.728
2414.92	0.728
2423.69	0.727
2432.46	0.726
2441.23	0.724
2450	0.721
2458.78	0.7195
2467.55	0.716
2476.32	0.716
2485.09	0.722
2493.86	0.722
2502.64	0.717
2511.41	0.716
2520.18	0.7155
2528.95	0.712
2537.72	0.71
2546.49	0.7085
2555.27	0.706
2564.04	0.7055
2572.81	0.704
2581.58	0.7015
2590.35	0.697
2599.13	0.6945
2607.9	0.6905
2616.67	0.6865
2625.44	0.682
2634.21	0.673
2642.99	0.6655
2651.76	0.653
2660.53	0.6615
2669.3	0.668
2678.07	0.671
2686.85	0.6675
2695.62	0.6635
2704.39	0.6565
2713.16	0.653
2721.93	0.6465
2730.71	0.642
2739.48	0.6355
2748.25	0.622
2757.02	0.5695
2765.79	0.5925
2774.57	0.6225
2783.34	0.628
2792.11	0.6145
2800.88	0.5965
2809.65	0.586
2818.43	0.581
2827.2	0.553
2835.97	0.5185
2844.74	0.4875
2853.51	0.5322
2862.28	0.589
2871.06	0.586
2879.83	0.5795
2888.6	0.5645
2897.37	0.552
2906.14	0.543
2914.92	0.545
2923.69	0.542
2932.46	0.5495
2941.23	0.57
2950	0.582
2958.78	0.5975
2967.55	0.6125
2976.32	0.62
2985.09	0.62
2993.86	0.62
3002.64	0.62
3011.41	0.6165
3020.18	0.613
3028.95	0.609
3037.72	0.607
3046.5	0.6015
3055.27	0.601
3064.04	0.604
3072.81	0.6005
3081.58	0.598
3090.36	0.602
3099.13	0.604
3107.9	0.604
3116.67	0.601
3125.44	0.599
3134.22	0.597
3142.99	0.5945
3151.76	0.593
3160.53	0.59
3169.3	0.588
3178.07	0.584
3186.85	0.583
3195.62	0.582
3204.39	0.58
3213.16	0.578
3221.93	0.577
3230.71	0.575
3239.48	0.572
3248.25	0.569
3257.02	0.568
3265.79	0.567
3274.57	0.564
3283.34	0.562
3292.11	0.557
3300.88	0.5525
3309.65	0.5455
3318.43	0.552
3327.2	0.552
3335.97	0.55
3344.74	0.549
3353.51	0.547
3362.29	0.546
3371.06	0.544
3379.83	0.542
3388.6	0.541
3397.37	0.539
3406.15	0.536
3414.92	0.5345
3423.69	0.532
3432.46	0.531
3441.23	0.529
3450.01	0.527
3458.78	0.526
3467.55	0.5235
3476.32	0.522
3485.09	0.52
3493.86	0.519
3502.64	0.517
3511.41	0.516
3520.18	0.515
3528.95	0.512
3537.72	0.512
3546.5	0.51
3555.27	0.5095
3564.04	0.5095
3572.81	0.5055
3581.58	0.504
3590.36	0.504
3599.13	0.504
3607.9	0.504
3616.67	0.502
3625.44	0.5005
3634.22	0.498
3642.99	0.496
3651.76	0.494
3660.53	0.4935
3669.3	0.491
3678.08	0.4895
3686.85	0.487
3695.62	0.4865
3704.39	0.486
3713.16	0.484
3721.94	0.483
3730.71	0.479
3739.48	0.478
3748.25	0.476
3757.02	0.474
3765.8	0.472
3774.57	0.471
3783.34	0.468
3792.11	0.468
3800.88	0.465
