Infrared Spectrum: 1,3-DIBENZYL-2-THIOUREA
Formula: C15 H16 N2 S
CAS: 1424-14-2
State: SOLID (OIL MULL)
Melting point: 147-149 C
Class: COBLENTZ
Instrument: Not specified, most likely a prism, grating, or hybrid spectrometer.
Sampling: TRANSMISSION
Resolution: 4
Origin: WYANDOTTE CHEMICALS CORP., WYANDOTTE, MICHIGAN, USA
MICROMETERS	TRANSMITTANCE
2.25	0.562
2.28981	0.559
2.32962	0.57
2.36943	0.584
2.40924	0.58
2.44904	0.582
2.48885	0.602
2.52866	0.609
2.56847	0.624
2.60828	0.646
2.64809	0.644
2.6879	0.661
2.72771	0.677
2.76751	0.686
2.80732	0.696
2.84713	0.706
2.88694	0.712
2.92675	0.719
2.96656	0.714
3.00637	0.587
3.04618	0.275
3.08598	0.141
3.12579	0.195
3.1656	0.337
3.20541	0.449
3.24522	0.482
3.28503	0.405
3.32484	0.358
3.36465	0.185
3.40445	0.053
3.44426	0.046
3.48407	0.06
3.52388	0.078
3.56369	0.33
3.6035	0.465
3.64331	0.504
3.68312	0.509
3.72292	0.512
3.76273	0.507
3.80254	0.524
3.84235	0.535
3.88216	0.54
3.92197	0.555
3.96178	0.57
4.00159	0.577
4.04139	0.579
4.0812	0.595
4.12101	0.601
4.16082	0.601
4.20063	0.609
4.24044	0.609
4.28025	0.599
4.32006	0.604
4.35986	0.622
4.39967	0.652
4.43948	0.661
4.47929	0.651
4.5191	0.659
4.55891	0.664
4.59872	0.671
4.63853	0.686
4.67834	0.691
4.71814	0.699
4.75795	0.711
4.79776	0.717
4.83757	0.724
4.87738	0.729
4.91719	0.727
4.957	0.744
4.99681	0.749
5.03661	0.754
5.07642	0.761
5.11623	0.757
5.15604	0.744
5.19585	0.711
5.23566	0.774
5.27547	0.797
5.31528	0.804
5.35508	0.784
5.39489	0.744
5.4347	0.809
5.47451	0.826
5.51432	0.819
5.55413	0.747
5.59394	0.828
5.63375	0.861
5.67355	0.858
5.71336	0.864
5.75317	0.868
5.79298	0.913
5.83279	0.904
5.8726	0.898
5.91241	0.924
5.95222	0.936
5.99202	0.948
6.03183	0.936
6.07164	0.956
6.11145	0.979
6.15126	0.956
6.19107	0.906
6.23088	0.746
6.27069	0.567
6.31049	0.54
6.3503	0.156
6.39011	0.07
6.42992	0.065
6.46973	0.161
6.50954	0.353
6.54935	0.362
6.58916	0.16
6.62896	0.1
6.66877	0.098
6.70858	0.257
6.74839	0.245
6.7882	0.121
6.82801	0.108
6.86782	0.095
6.90763	0.196
6.94743	0.353
6.98724	0.564
7.02705	0.652
7.06686	0.701
7.10667	0.599
7.14648	0.39
7.18629	0.455
7.2261	0.378
7.26591	0.313
7.30571	0.532
7.34552	0.594
7.38533	0.702
7.42514	0.422
7.46495	0.452
7.50476	0.509
7.54457	0.444
7.58438	0.485
7.62418	0.277
7.66399	0.163
7.7038	0.175
7.74361	0.136
7.78342	0.13
7.82323	0.223
7.86304	0.212
7.90285	0.273
7.94265	0.36
7.98246	0.414
8.02227	0.34
8.06208	0.343
8.10189	0.46
8.1417	0.405
8.18151	0.203
8.22132	0.068
8.26112	0.103
8.30093	0.25
8.34074	0.307
8.38055	0.247
8.42036	0.155
8.46017	0.23
8.49998	0.302
8.53979	0.397
8.57959	0.459
8.6194	0.467
8.65921	0.53
8.69902	0.584
8.73883	0.639
8.77864	0.674
8.81845	0.696
8.85826	0.657
8.89806	0.515
8.93787	0.5
8.97768	0.549
9.01749	0.585
9.0573	0.642
9.09711	0.676
9.13692	0.699
9.17673	0.704
9.21653	0.609
9.25634	0.475
9.29615	0.552
9.33596	0.652
9.37577	0.687
9.41558	0.709
9.45539	0.729
9.4952	0.747
9.53501	0.756
9.57481	0.744
9.61462	0.732
9.65443	0.756
9.69424	0.44
9.73405	0.636
9.77386	0.741
9.81367	0.791
9.85348	0.829
9.89328	0.858
9.93309	0.869
9.9729	0.879
10.0127	0.899
10.0525	0.911
10.0923	0.894
10.1321	0.864
10.1719	0.886
10.2118	0.904
10.2516	0.769
10.2914	0.702
10.3312	0.726
10.371	0.629
10.4108	0.387
10.4506	0.163
10.4904	0.178
10.5302	0.358
10.57	0.515
10.6098	0.632
10.6497	0.692
10.6895	0.739
10.7293	0.776
10.7691	0.808
10.8089	0.829
10.8487	0.859
10.8885	0.873
10.9283	0.888
10.9681	0.938
11.0079	0.936
11.0477	0.931
11.0875	0.921
11.1274	0.918
11.1672	0.936
11.207	0.956
11.2468	0.986
11.2866	1.001
11.3264	1.018
11.3662	1.021
11.406	1.023
11.4458	1.025
11.4856	1.025
11.5254	1.025
11.5653	1.023
11.6051	1.026
11.6449	1.025
11.6847	1.025
11.7245	1.011
11.7643	0.984
11.8041	1.025
11.8439	1.015
11.8837	1.02
11.9235	1.028
11.9633	1.03
12.0031	1.025
12.043	1.008
12.0828	1.003
12.1226	0.979
12.1624	0.958
12.2022	0.933
12.242	0.941
12.2818	0.941
12.3216	0.914
12.3614	0.878
12.4012	0.818
12.441	0.828
12.4809	0.876
12.5207	0.946
12.5605	0.998
12.6003	0.986
12.6401	0.991
12.6799	0.998
12.7197	1.003
12.7595	0.983
12.7993	0.973
12.8391	0.946
12.8789	0.893
12.9188	0.803
12.9586	0.659
12.9984	0.524
13.0382	0.472
13.078	0.529
13.1178	0.649
13.1576	0.721
13.1974	0.774
13.2372	0.797
13.277	0.787
13.3168	0.694
13.3566	0.544
13.3965	0.285
13.4363	0.126
13.4761	0.068
13.5159	0.053
13.5557	0.06
13.5955	0.103
13.6353	0.186
13.6751	0.28
13.7149	0.387
13.7547	0.505
13.7945	0.577
13.8344	0.637
13.8742	0.679
13.914	0.712
13.9538	0.756
13.9936	0.796
14.0334	0.824
14.0732	0.843
14.113	0.848
14.1528	0.826
14.1926	0.776
14.2324	0.649
14.2722	0.485
14.3121	0.293
14.3519	0.16
14.3917	0.105
14.4315	0.108
14.4713	0.158
14.5111	0.265
14.5509	0.377
14.5907	0.485
14.6305	0.552
14.6703	0.594
14.7101	0.627
14.75	0.651
14.7898	0.656
14.8296	0.662
14.8694	0.661
14.9092	0.657
14.949	0.661
14.9888	0.651
15.0286	0.629
15.0684	0.595
15.1082	0.597
15.148	0.612
15.1879	0.629
15.2277	0.632
15.2675	0.632
15.3073	0.622
15.3471	0.617
15.3869	0.607
15.4267	0.592
15.4665	0.569
15.5063	0.544
15.5461	0.514
15.5859	0.492
15.6257	0.467
15.6656	0.442
15.7054	0.435
15.7452	0.43
15.785	0.432
15.8248	0.44
15.8646	0.45
15.9044	0.46
15.9442	0.47
15.984	0.48
