Infrared Spectrum: ERYTHRITYL TETRANITRATE
Formula: C4 H6 N4 O12
CAS: 142435-64-1
State: SOLID (KBr DISC)
Melting point: 61 C
Class: COBLENTZ III
Instrument: PERKIN-ELMER 21 (GRATING)
Instrument parameters: FILTER AT ABOUT 10 MICRONS
Sampling: TRANSMISSION
Resolution: 2
1/CM	TRANSMITTANCE
4000	0.7617
3991	0.7618
3982	0.7618
3973	0.7621
3964	0.7621
3955	0.7622
3946	0.7624
3937	0.7625
3928	0.7626
3919	0.7628
3910	0.763
3901	0.7633
3892	0.7635
3883	0.7638
3874	0.764
3865	0.7642
3856	0.7645
3847	0.7647
3838	0.765
3829	0.7651
3820	0.7655
3811	0.7656
3802	0.7658
3793	0.766
3784	0.7661
3775	0.7662
3766	0.7664
3757	0.7665
3748	0.7668
3739	0.7668
3730	0.7671
3721	0.7671
3712	0.7674
3703	0.7675
3694	0.7675
3685	0.7675
3676	0.7675
3667	0.7668
3658	0.7658
3649	0.7651
3640	0.7651
3631	0.7648
3622	0.7646
3613	0.764
3604	0.7633
3595	0.7626
3586	0.7619
3577	0.7608
3568	0.7596
3559	0.7583
3550	0.7571
3541	0.7551
3532	0.7531
3523	0.751
3514	0.748
3505	0.7444
3496	0.7408
3487	0.7358
3478	0.7301
3469	0.7249
3460	0.72
3451	0.7151
3442	0.7108
3433	0.7072
3424	0.7045
3415	0.7022
3406	0.7008
3397	0.6999
3388	0.6991
3379	0.6987
3370	0.6985
3361	0.6982
3352	0.698
3343	0.6978
3334	0.6976
3325	0.6981
3316	0.6986
3307	0.699
3298	0.6996
3289	0.7001
3280	0.7006
3271	0.7015
3262	0.7022
3253	0.7031
3244	0.7039
3235	0.7048
3226	0.7056
3217	0.7064
3208	0.7072
3199	0.7082
3190	0.7091
3181	0.71
3172	0.7108
3163	0.7117
3154	0.7122
3145	0.7128
3136	0.7135
3127	0.7141
3118	0.715
3109	0.7161
3100	0.7172
3091	0.7184
3082	0.7197
3073	0.7208
3064	0.7208
3055	0.7207
3046	0.7203
3037	0.7188
3028	0.7174
3019	0.7149
3010	0.711
3001	0.7062
2992	0.7001
2983	0.6605
2974	0.6593
2965	0.6565
2956	0.6532
2947	0.6488
2938	0.6415
2929	0.6286
2920	0.5972
2911	0.5967
2902	0.5997
2893	0.6142
2884	0.6348
2875	0.6615
2866	0.6705
2857	0.6751
2848	0.6801
2839	0.6864
2830	0.6931
2821	0.7008
2812	0.7097
2803	0.7187
2794	0.7261
2785	0.7305
2776	0.7348
2767	0.7378
2758	0.7405
2749	0.7432
2740	0.7439
2731	0.7445
2722	0.7446
2713	0.7444
2704	0.7441
2695	0.7439
2686	0.7437
2677	0.7435
2668	0.7432
2659	0.7428
2650	0.7426
2641	0.7424
2632	0.7418
2623	0.7411
2614	0.7406
2605	0.74
2596	0.7392
2587	0.7384
2578	0.7376
2569	0.7368
2560	0.7365
2551	0.7368
2542	0.7369
2533	0.7382
2524	0.7394
2515	0.7408
2506	0.7415
2497	0.7424
2488	0.7432
2479	0.7444
2470	0.7456
2461	0.7468
2452	0.7478
2443	0.7489
2434	0.7498
2425	0.7499
2416	0.7501
2407	0.7505
2398	0.7508
2389	0.7512
2380	0.7518
2371	0.7521
2362	0.7526
2353	0.7526
2344	0.7528
2335	0.7528
2326	0.7528
2317	0.7528
2308	0.7528
2299	0.7528
2290	0.7525
2281	0.7518
2272	0.7514
2263	0.7508
2254	0.7503
2245	0.7497
2236	0.7492
2227	0.7486
2218	0.7474
2209	0.7462
2200	0.7447
2191	0.7432
2182	0.7417
2173	0.7401
2164	0.7386
2155	0.7368
2146	0.7351
2137	0.7333
2128	0.7314
2119	0.73
2110	0.7286
2101	0.7271
2092	0.7257
2083	0.7242
2074	0.7225
2065	0.7211
2056	0.7194
2047	0.7168
2038	0.7145
2029	0.7119
2020	0.7095
2011	0.7072
2002	0.7051
1993	0.7032
1984	0.701
1975	0.6984
1966	0.6965
1957	0.6951
1948	0.6934
1939	0.6908
1930	0.6867
1921	0.6825
1912	0.676
1903	0.6698
1894	0.6634
1885	0.6565
1876	0.6499
1867	0.6428
1858	0.6354
1849	0.6288
1840	0.6221
1831	0.6136
1822	0.6041
1813	0.591
1804	0.5702
1795	0.5506
1786	0.531
1777	0.51
1768	0.4874
1759	0.462
1750	0.4367
1741	0.4099
1732	0.3741
1723	0.3382
1714	0.297
1705	0.2629
1696	0.2248
1687	0.1595
1678	0.101
1669	0.0663
1660	0.075
1651	0.1185
1642	0.1346
1633	0.0766
1624	0.1232
1615	0.1992
1606	0.2553
1597	0.308
1588	0.3645
1579	0.4306
1570	0.4742
1561	0.521
1552	0.5554
1543	0.5812
1534	0.5981
1525	0.6104
1516	0.6178
1507	0.6314
1498	0.6515
1489	0.6526
1480	0.6611
1471	0.6557
1462	0.5908
1453	0.4207
1444	0.5781
1435	0.606
1426	0.6079
1417	0.6012
1408	0.5892
1399	0.5688
1390	0.5206
1381	0.4202
1372	0.4703
1363	0.5979
1354	0.5868
1345	0.5222
1336	0.4944
1327	0.4803
1318	0.4022
1309	0.2727
1300	0.1421
1291	0.1575
1282	0.1316
1273	0.0808
1264	0.2341
1255	0.1749
1246	0.3703
1237	0.4918
1228	0.5081
1219	0.5755
1210	0.6139
1201	0.6344
1192	0.6578
1183	0.6807
1174	0.6928
1165	0.6997
1156	0.7055
1147	0.7132
1138	0.7161
1129	0.7118
1120	0.704
1111	0.6953
1102	0.6881
1093	0.6828
1084	0.6757
1075	0.6539
1066	0.581
1057	0.3759
1048	0.5599
1039	0.3597
1030	0.2756
1021	0.479
1012	0.5798
1003	0.5737
994	0.4767
985	0.2583
976	0.4523
967	0.6428
958	0.673
949	0.6519
940	0.6015
931	0.517
922	0.2809
913	0.3608
904	0.4223
895	0.3227
886	0.2134
877	0.1442
868	0.1967
859	0.283
850	0.2677
841	0.1694
832	0.087
823	0.1732
814	0.3002
805	0.3992
796	0.4775
787	0.5512
778	0.6179
769	0.6525
760	0.6327
751	0.5066
742	0.2641
733	0.4305
724	0.5409
715	0.571
706	0.4865
697	0.4185
688	0.5462
679	0.606
