Infrared Spectrum: 10Beta-FLUORO-17Beta-HYDROXY-ESTRA-1,4-DIEN-3-ONE
Formula: C18 H23 F O2
CAS: 1427-61-8
State: SOLID (KBr DISC)
Class: COBLENTZ III
Instrument: BECKMAN IR-7
Sampling: TRANSMISSION
Resolution: 4
Origin: N. L. McNIVEN- THE WORCESTER FOUNDATION FOR EXPERIMENTAL BIOLOGY
1/CM	TRANSMITTANCE
602.65	0.716
611.263	0.78
619.877	0.801
628.49	0.827
637.103	0.815
645.717	0.848
654.33	0.871
662.944	0.866
671.557	0.862
680.17	0.838
688.784	0.819
697.397	0.795
706.01	0.854
714.624	0.6792
723.237	0.809
731.851	0.875
740.464	0.904
749.077	0.909
757.691	0.895
766.304	0.859
774.917	0.538
783.531	0.759
792.144	0.848
800.757	0.828
809.371	0.433
817.984	0.727
826.598	0.752
835.211	0.582
843.824	0.763
852.438	0.777
861.051	0.437
869.664	0.743
878.278	0.733
886.891	0.5971
895.504	0.43
904.118	0.647
912.731	0.7059
921.345	0.522
929.958	0.728
938.571	0.761
947.185	0.671
955.798	0.458
964.411	0.685
973.025	0.625
981.638	0.48
990.251	0.385
998.865	0.401
1007.48	0.359
1016.09	0.291
1024.7	0.411
1033.32	0.533
1041.93	0.442
1050.55	0.359
1059.16	0.178
1067.77	0.137
1076.39	0.324
1085	0.377
1093.61	0.358
1102.23	0.545
1110.84	0.441
1119.45	0.566
1128.07	0.36
1136.68	0.371
1145.29	0.424
1153.91	0.61
1162.52	0.66
1171.13	0.586
1179.75	0.719
1188.36	0.715
1196.97	0.5301
1205.59	0.563
1214.2	0.625
1222.81	0.521
1231.43	0.615
1240.04	0.603
1248.65	0.596
1257.27	0.617
1265.88	0.64
1274.49	0.596
1283.11	0.562
1291.72	0.306
1300.33	0.383
1308.95	0.6
1317.56	0.627
1326.17	0.658
1334.79	0.591
1343.4	0.602
1352.01	0.475
1360.63	0.625
1369.24	0.596
1377.85	0.3409
1386.47	0.312
1395.08	0.326
1403.69	0.267
1412.31	0.322
1420.92	0.545
1429.53	0.609
1438.15	0.456
1446.76	0.388
1455.37	0.467
1463.99	0.566
1472.6	0.554
1481.21	0.704
1489.83	0.739
1498.44	0.761
1507.05	0.76
1515.67	0.756
1524.28	0.749
1532.89	0.754
1541.51	0.747
1550.12	0.732
1558.73	0.718
1567.35	0.706
1575.96	0.671
1584.57	0.621
1593.19	0.565
1601.8	0.397
1610.41	0.295
1619.03	0.32
1627.64	0.169
1636.25	0.1202
1644.87	0.368
1653.48	0.291
1662.09	0.059
1670.71	0.015
1679.32	0.179
1687.93	0.444
1696.55	0.576
1705.16	0.656
1713.77	0.675
1722.39	0.718
1731	0.715
1739.61	0.702
1748.23	0.722
1756.84	0.735
1765.45	0.773
1774.07	0.774
1782.68	0.727
1791.29	0.793
1799.91	0.811
1808.52	0.823
1817.13	0.829
1825.75	0.83
1834.36	0.829
1842.97	0.827
1851.59	0.825
1860.2	0.822
1868.81	0.82
1877.43	0.813
1886.04	0.813
1894.65	0.817
1903.27	0.819
1911.88	0.815
1920.5	0.811
1929.11	0.811
1937.72	0.807
1946.34	0.806
1954.95	0.801
1963.56	0.796
1972.18	0.795
1980.79	0.796
1989.4	0.796
1998.02	0.797
2006.63	0.797
2015.24	0.797
2023.86	0.797
2032.47	0.7967
2041.08	0.796
2049.7	0.796
2058.31	0.7959
2066.92	0.7946
2075.54	0.794
2084.15	0.7921
2092.76	0.791
2101.38	0.7886
2109.99	0.7863
2118.6	0.785
2127.22	0.7837
2135.83	0.7815
2144.44	0.7792
2153.06	0.7769
2161.67	0.7747
2170.28	0.7734
2178.9	0.7721
2187.51	0.772
2196.12	0.771
2204.74	0.77
2213.35	0.769
2221.96	0.768
2230.58	0.7665
2239.19	0.7643
2247.8	0.762
2256.42	0.7597
2265.03	0.7544
2273.64	0.7502
2282.26	0.747
2290.87	0.747
2299.48	0.747
2308.1	0.746
2316.71	0.7458
2325.32	0.7418
2333.94	0.7356
2342.55	0.73
2351.16	0.728
2359.78	0.726
2368.39	0.7242
2377	0.724
2385.62	0.7263
2394.23	0.7286
2402.84	0.73
2411.46	0.728
2420.07	0.7266
2428.68	0.7244
2437.3	0.724
2445.91	0.722
2454.52	0.7216
2463.14	0.7193
2471.75	0.717
2480.36	0.7158
2488.98	0.714
2497.59	0.713
2506.2	0.712
2514.82	0.711
2523.43	0.71
2532.04	0.7062
2540.66	0.6999
2549.27	0.6963
2557.88	0.694
2566.5	0.693
2575.11	0.691
2583.72	0.689
2592.34	0.689
2600.95	0.688
2609.56	0.687
2618.18	0.684
2626.79	0.6779
2635.4	0.6709
2644.02	0.669
2652.63	0.668
2661.24	0.6651
2669.86	0.6629
2678.47	0.6576
2687.08	0.656
2695.7	0.654
2704.31	0.6528
2712.92	0.6457
2721.54	0.6397
2730.15	0.642
2738.76	0.6483
2747.38	0.65
2755.99	0.65
2764.61	0.6409
2773.22	0.6243
2781.83	0.6146
2790.45	0.5986
2799.06	0.5817
2807.67	0.5786
2816.29	0.5763
2824.9	0.5721
2833.51	0.5646
2842.13	0.5238
2850.74	0.3312
2859.35	0.304
2867.97	0.3106
2876.58	0.248
2885.19	0.2641
2893.81	0.2857
2902.42	0.2229
2911.03	0.201
2919.65	0.2255
2928.26	0.1869
2936.87	0.1347
2945.49	0.1308
2954.1	0.1716
2962.71	0.1939
2971.33	0.2053
2979.94	0.2888
2988.55	0.4289
2997.17	0.5201
3005.78	0.5735
3014.39	0.5917
3023.01	0.5962
3031.62	0.601
3040.23	0.6004
3048.85	0.5999
3057.46	0.6012
3066.07	0.6044
3074.69	0.607
3083.3	0.61
3091.91	0.613
3100.53	0.6125
3109.14	0.6112
3117.75	0.611
3126.37	0.61
3134.98	0.609
3143.59	0.608
3152.21	0.6069
3160.82	0.605
3169.43	0.6034
3178.05	0.6021
3186.66	0.5998
3195.27	0.5975
3203.89	0.5933
3212.5	0.59
3221.11	0.588
3229.73	0.583
3238.34	0.5748
3246.95	0.5689
3255.57	0.5604
3264.18	0.5414
3272.79	0.5469
3281.41	0.5551
3290.02	0.5526
3298.63	0.547
3307.25	0.545
3315.86	0.5426
3324.47	0.5371
3333.09	0.5288
3341.7	0.522
3350.31	0.518
3358.93	0.5159
3367.54	0.5076
3376.15	0.4967
3384.77	0.4816
3393.38	0.466
3401.99	0.4496
3410.61	0.4323
3419.22	0.416
3427.83	0.3956
3436.45	0.3782
3445.06	0.3407
3453.67	0.3061
3462.29	0.2745
3470.9	0.2289
3479.51	0.1867
3488.13	0.1331
3496.74	0.0757
3505.35	0.0758
3513.97	0.0984
3522.58	0.1294
3531.19	0.2112
3539.81	0.2741
3548.42	0.3728
3557.03	0.4318
3565.65	0.4983
3574.26	0.5444
3582.87	0.5695
3591.49	0.5936
3600.1	0.6091
3608.71	0.6167
3617.33	0.6139
3625.94	0.61
3634.56	0.6133
3643.17	0.6176
3651.78	0.6157
3660.4	0.6112
3669.01	0.6078
3677.62	0.605
3686.24	0.6023
3694.85	0.601
3703.46	0.6035
3712.08	0.61
3720.69	0.6138
3729.3	0.614
3737.92	0.613
3746.53	0.611
3755.14	0.6102
3763.76	0.611
3772.37	0.612
3780.98	0.612
3789.6	0.6101
3798.21	0.6058
3806.82	0.603
3815.44	0.603
3824.05	0.603
3832.66	0.605
3841.28	0.605
3849.89	0.605
3858.5	0.603
3867.12	0.603
3875.73	0.6014
3884.34	0.5973
3892.96	0.5929
3901.57	0.592
3910.18	0.5903
3918.8	0.588
3927.41	0.584
3936.02	0.582
3944.64	0.582
3953.25	0.582
3961.86	0.583
3970.48	0.5815
3979.09	0.58
