Infrared Spectrum: 3-Ethylheptanoic acid
Formula: C 9 H 18 O 2
CAS: 14272-47-0
State: gas
Instrument: HP-GC/MS/IRD
Origin: NIST Mass Spectrometry Data Center
1/CM	ABSORBANCE
550	0.0013767
562	0.0016809
574	0.0017316
586	0.0015041
598	0.0017537
610	0.0022919
622	0.0023192
634	0.0021021
646	0.0014443
658	0.0010712
670	0.0008476
682	0.0007891
694	0.0008528
706	0.0007072
718	0.0005356
730	0.0003965
742	0.0002522
754	0.0001521
766	0.0001833
778	0.0002678
790	0.0001222
802	4.68e-05
814	3.77e-05
826	1.56e-05
838	7.54e-05
850	9.1e-05
862	0.0001833
874	0.0002067
886	0.0002392
898	0.000208
910	0.0002353
922	0.000247
934	0.0001755
946	0.0002002
958	0.0002132
970	0.0002639
982	0.0002509
994	0.0003081
1006	0.000286
1018	0.0003666
1030	0.0005655
1042	0.0008931
1054	0.0013611
1066	0.0022568
1078	0.003731
1090	0.005993
1102	0.0066196
1114	0.0053183
1126	0.0050206
1138	0.0051766
1150	0.0046787
1162	0.0033761
1174	0.0020969
1186	0.0014859
1198	0.0014768
1210	0.001417
1222	0.0012675
1234	0.0011297
1246	0.001105
1258	0.0010972
1270	0.0010582
1282	0.0010361
1294	0.0009984
1306	0.0009776
1318	0.0009893
1330	0.0011817
1342	0.0014781
1354	0.0015639
1366	0.0018057
1378	0.0023374
1390	0.0019786
1402	0.0010075
1414	0.0007514
1426	0.0008645
1438	0.0009412
1450	0.0011895
1462	0.0016159
1474	0.0012181
1486	0.0004979
1498	0.0002444
1510	0.0001703
1522	0.0001144
1534	8.71e-05
1546	8.06e-05
1558	4.03e-05
1570	3.38e-05
1582	3.51e-05
1594	6.76e-05
1606	6.11e-05
1618	3.12e-05
1630	5.33e-05
1642	3.38e-05
1654	5.59e-05
1666	0.0001027
1678	0.0001677
1690	0.0002574
1702	0.0004511
1714	0.0008073
1726	0.0015015
1738	0.0026546
1750	0.004459
1762	0.0084773
1774	0.013
1786	0.0084669
1798	0.0038051
1810	0.002002
1822	0.0009295
1834	0.0004745
1846	0.0002795
1858	0.000182
1870	0.0001235
1882	7.54e-05
1894	7.02e-05
1906	4.55e-05
1918	4.94e-05
1930	4.29e-05
1942	6.89e-05
1954	5.98e-05
1966	6.11e-05
1978	4.81e-05
1990	3.38e-05
2002	2.99e-05
2014	3.38e-05
2026	2.86e-05
2038	2.6e-05
2050	3.9e-05
2062	1.04e-05
2074	1.95e-05
2086	6.5e-06
2098	2.86e-05
2110	6.5e-06
2122	2.21e-05
2134	2.6e-05
2146	2.73e-05
2158	4.29e-05
2170	3.64e-05
2182	3.9e-05
2194	3.9e-05
2206	5.72e-05
2218	3.64e-05
2230	3.25e-05
2242	4.29e-05
2254	1.17e-05
2266	3.38e-05
2278	3.51e-05
2290	2.34e-05
2302	2.6e-05
2314	4.29e-05
2326	2.21e-05
2338	1.04e-05
2350	5.33e-05
2362	4.03e-05
2374	3.25e-05
2386	3.38e-05
2398	3.9e-05
2410	6.5e-05
2422	3.9e-05
2434	4.03e-05
2446	3.38e-05
2458	2.34e-05
2470	3.25e-05
2482	1.04e-05
2494	2.6e-06
2506	1.3e-05
2518	1.69e-05
2530	4.29e-05
2542	3.38e-05
2554	4.55e-05
2566	3.25e-05
2578	5.33e-05
2590	5.72e-05
2602	6.63e-05
2614	6.24e-05
2626	9.62e-05
2638	7.54e-05
2650	0.0001118
2662	0.0001222
2674	0.0001482
2686	0.0001573
2698	0.000143
2710	0.0001664
2722	0.0001755
2734	0.0001859
2746	0.000208
2758	0.0002171
2770	0.0002171
2782	0.0002704
2794	0.0003276
2806	0.0004238
2818	0.0005317
2830	0.0007267
2842	0.0011232
2854	0.0021398
2866	0.0038896
2878	0.0047047
2890	0.0043667
2902	0.0040248
2914	0.0055913
2926	0.0086866
2938	0.010413
2950	0.0082784
2962	0.0087334
2974	0.0088907
2986	0.0037479
2998	0.0016562
3010	0.0010504
3022	0.0007371
3034	0.0005993
3046	0.0004836
3058	0.0003796
3070	0.0003289
3082	0.0002821
3094	0.0002977
3106	0.0002535
3118	0.0002288
3130	0.0002002
3142	0.0001651
3154	0.0001248
3166	0.0001209
3178	0.0001144
3190	0.000117
3202	0.0001066
3214	7.41e-05
3226	0.0001092
3238	7.93e-05
3250	3.12e-05
3262	5.98e-05
3274	4.29e-05
3286	6.5e-05
3298	5.98e-05
3310	6.76e-05
3322	2.47e-05
3334	4.81e-05
3346	6.76e-05
3358	4.68e-05
3370	5.2e-05
3382	6.63e-05
3394	6.11e-05
3406	5.85e-05
3418	3.12e-05
3430	4.68e-05
3442	6.37e-05
3454	1.69e-05
3466	3.77e-05
3478	7.15e-05
3490	5.72e-05
3502	0.0001053
3514	0.0001859
3526	0.0002119
3538	0.0003068
3550	0.000559
3562	0.0023543
3574	0.004979
3586	0.0015678
3598	0.0003575
3610	0.0002327
3622	0.0001196
3634	0.0001014
3646	7.8e-05
3658	8.58e-05
3670	3.12e-05
3682	7.8e-05
3694	8.71e-05
3706	3.25e-05
3718	4.55e-05
3730	5.46e-05
3742	2.34e-05
3754	8.32e-05
3766	4.68e-05
3778	4.55e-05
3790	4.94e-05
3802	2.08e-05
3814	2.47e-05
3826	4.55e-05
3838	6.11e-05
