Infrared Spectrum: RUTHENIUM, TRIS(2,4-PENTANEDIONATO)-
Formula: C15 H21 O6 Ru
CAS: 14284-93-6
State: SOLID (1.0 mg / 650 mg KBr DISC)
Class: COBLENTZ III
Instrument: PERKIN-ELMER 521 (GRATING)
Instrument parameters: FILTERS AT 3150, 2500, 2000, 1150, 700, 410 AND GRATING CHANGES: 2000, 630 CM^-^1
Sampling: TRANSMISSION
Resolution: 4
Origin: SOUTHERN RESEARCH INSTITUTE
1/CM	TRANSMITTANCE
251.2	0.352
260.802	0.4149
270.404	0.488
280.007	0.545
289.609	0.585
299.211	0.619
308.813	0.652
318.416	0.688
328.018	0.72
337.62	0.751
347.222	0.765
356.825	0.794
366.427	0.815
376.029	0.825
385.631	0.832
395.234	0.835
404.836	0.835
414.438	0.81
424.04	0.801
433.643	0.819
443.245	0.738
452.847	0.585
462.449	0.8139
472.051	0.867
481.654	0.876
491.256	0.88
500.858	0.885
510.46	0.888
520.063	0.889
529.665	0.888
539.267	0.886
548.869	0.885
558.472	0.888
568.074	0.884
577.676	0.879
587.278	0.869
596.881	0.854
606.483	0.803
616.085	0.771
625.687	0.775
635.29	0.728
644.892	0.845
654.494	0.792
664.096	0.853
673.699	0.796
683.301	0.79
692.903	0.898
702.505	0.915
712.107	0.915
721.71	0.917
731.312	0.916
740.914	0.913
750.516	0.901
760.119	0.855
769.721	0.764
779.323	0.792
788.925	0.825
798.528	0.88
808.13	0.907
817.732	0.916
827.334	0.917
836.937	0.917
846.539	0.915
856.141	0.913
865.743	0.911
875.346	0.907
884.948	0.901
894.55	0.89
904.152	0.878
913.754	0.848
923.357	0.778
932.959	0.661
942.561	0.873
952.163	0.904
961.766	0.901
971.368	0.891
980.97	0.876
990.572	0.857
1000.17	0.809
1009.78	0.707
1019.38	0.677
1028.98	0.7799
1038.58	0.865
1048.19	0.878
1057.79	0.88
1067.39	0.882
1076.99	0.883
1086.59	0.883
1096.2	0.882
1105.8	0.879
1115.4	0.882
1125	0.88
1134.61	0.879
1144.21	0.876
1153.81	0.87
1163.41	0.864
1173.01	0.854
1182.62	0.845
1192.22	0.803
1201.82	0.833
1211.42	0.83
1221.03	0.813
1230.63	0.789
1240.23	0.745
1249.83	0.678
1259.44	0.5779
1269.04	0.423
1278.64	0.752
1288.24	0.76
1297.84	0.732
1307.45	0.684
1317.05	0.632
1326.65	0.564
1336.25	0.536
1345.86	0.497
1355.46	0.344
1365.06	0.276
1374.66	0.263
1384.26	0.294
1393.87	0.507
1403.47	0.601
1413.07	0.572
1422.67	0.534
1432.28	0.573
1441.88	0.636
1451.48	0.677
1461.08	0.694
1470.68	0.694
1480.29	0.659
1489.89	0.565
1499.49	0.4349
1509.09	0.1891
1518.7	0.1
1528.3	0.179
1537.9	0.211
1547.5	0.226
1557.1	0.292
1566.71	0.386
1576.31	0.511
1585.91	0.692
1595.51	0.773
1605.12	0.816
1614.72	0.83
1624.32	0.847
1633.92	0.871
1643.52	0.884
1653.13	0.896
1662.73	0.914
1672.33	0.93
1681.93	0.934
1691.54	0.933
1701.14	0.935
1710.74	0.94
1720.34	0.945
1729.94	0.947
1739.55	0.948
1749.15	0.952
1758.75	0.953
1768.35	0.953
1777.96	0.954
1787.56	0.954
1797.16	0.952
1806.76	0.954
1816.36	0.952
1825.97	0.953
1835.57	0.953
1845.17	0.953
1854.77	0.952
1864.38	0.953
1873.98	0.953
1883.58	0.953
1893.18	0.953
1902.79	0.953
1912.39	0.953
1921.99	0.952
1931.59	0.948
1941.19	0.944
1950.8	0.942
1960.4	0.945
1970	0.948
1979.6	0.95
1989.21	0.951
1998.81	0.945
2008.41	0.945
2018.01	0.945
2027.61	0.946
2037.22	0.95
2046.82	0.948
2056.42	0.945
2066.02	0.945
2075.63	0.945
2085.23	0.945
2094.83	0.945
2104.43	0.944
2114.03	0.944
2123.64	0.941
2133.24	0.941
2142.84	0.942
2152.44	0.942
2162.05	0.941
2171.65	0.941
2181.25	0.9391
2190.85	0.938
2200.45	0.9399
2210.06	0.94
2219.66	0.9381
2229.26	0.938
2238.86	0.9362
2248.47	0.9351
2258.07	0.934
2267.67	0.934
2277.27	0.933
2286.87	0.933
2296.48	0.933
2306.08	0.934
2315.68	0.934
2325.28	0.934
2334.89	0.933
2344.49	0.933
2354.09	0.932
2363.69	0.932
2373.29	0.932
2382.9	0.932
2392.5	0.932
2402.1	0.9322
2411.7	0.932
2421.31	0.9282
2430.91	0.926
2440.51	0.921
2450.11	0.9222
2459.71	0.9174
2469.32	0.934
2478.92	0.9262
2488.52	0.925
2498.12	0.9268
2507.73	0.927
2517.33	0.926
2526.93	0.927
2536.53	0.9267
2546.14	0.925
2555.74	0.923
2565.34	0.925
2574.94	0.925
2584.54	0.923
2594.15	0.926
2603.75	0.925
2613.35	0.923
2622.95	0.921
2632.56	0.9217
2642.16	0.923
2651.76	0.925
2661.36	0.922
2670.96	0.9236
2680.57	0.9213
2690.17	0.9177
2699.77	0.915
2709.37	0.9167
2718.98	0.9153
2728.58	0.913
2738.18	0.9103
2747.78	0.9119
2757.38	0.91
2766.99	0.908
2776.59	0.907
2786.19	0.908
2795.79	0.904
2805.4	0.904
2815	0.8964
2824.6	0.888
2834.2	0.8742
2843.8	0.8546
2853.41	0.8558
2863.01	0.867
2872.61	0.869
2882.21	0.8654
2891.82	0.8492
2901.42	0.8288
2911.02	0.7872
2920.62	0.7587
2930.22	0.7988
2939.83	0.8336
2949.43	0.8264
2959.03	0.8265
2968.63	0.8436
2978.24	0.851
2987.84	0.846
2997.44	0.8465
3007.04	0.8626
3016.64	0.879
3026.25	0.884
3035.85	0.886
3045.45	0.885
3055.05	0.883
3064.66	0.879
3074.26	0.883
3083.86	0.886
3093.46	0.8915
3103.06	0.892
3112.67	0.9014
3122.27	0.9001
3131.87	0.8945
3141.47	0.896
3151.08	0.8955
3160.68	0.896
3170.28	0.895
3179.88	0.895
3189.49	0.892
3199.09	0.89
3208.69	0.889
3218.29	0.8846
3227.89	0.882
3237.5	0.878
3247.1	0.877
3256.7	0.875
3266.3	0.873
3275.91	0.8714
3285.51	0.869
3295.11	0.8678
3304.71	0.8646
3314.31	0.861
3323.92	0.854
3333.52	0.8493
3343.12	0.8439
3352.72	0.8343
3362.33	0.8296
3371.93	0.8226
3381.53	0.8153
3391.13	0.8097
3400.73	0.805
3410.34	0.8007
3419.94	0.797
3429.54	0.794
3439.14	0.795
3448.75	0.797
3458.35	0.8003
3467.95	0.804
3477.55	0.8033
3487.15	0.8073
3496.76	0.8116
3506.36	0.813
3515.96	0.8203
3525.56	0.8236
3535.17	0.8285
3544.77	0.8403
3554.37	0.8463
3563.97	0.851
3573.57	0.8555
3583.18	0.86
3592.78	0.867
3602.38	0.8722
3611.98	0.8772
3621.59	0.883
3631.19	0.8892
3640.79	0.892
3650.39	0.894
3659.99	0.896
3669.6	0.892
3679.2	0.8912
3688.8	0.895
3698.4	0.898
3708.01	0.8984
3717.61	0.9
3727.21	0.9
3736.81	0.901
3746.41	0.9008
3756.02	0.9
3765.62	0.901
3775.22	0.901
3784.82	0.902
3794.43	0.901
3804.03	0.901
