Infrared Spectrum: Allyl methallyl ether
Formula: C 7 H 12 O
CAS: 14289-96-4
State: gas
Instrument: HP-GC/MS/IRD
Origin: NIST Mass Spectrometry Data Center
1/CM	ABSORBANCE
550	0.0005082
562	0.0004284
574	0.000147
586	7.14e-05
598	0.0001358
610	0.0001526
622	9.38e-05
634	0.000378
646	0.0002968
658	0.000175
670	4.34e-05
682	0.0001218
694	7.42e-05
706	5.04e-05
718	5.04e-05
730	4.34e-05
742	8.4e-05
754	6.86e-05
766	7.7e-05
778	2.24e-05
790	9.94e-05
802	0.0002128
814	0.000273
826	0.000336
838	0.0004018
850	0.0004046
862	0.0006272
874	0.0011816
886	0.0026838
898	0.0052388
910	0.005908
922	0.0054432
934	0.004123
946	0.0028014
958	0.0023548
970	0.002464
982	0.0029036
994	0.003066
1006	0.0028546
1018	0.002478
1030	0.0026068
1042	0.0028686
1054	0.0039046
1066	0.0059388
1078	0.0089712
1090	0.012789
1102	0.0139944
1114	0.011564
1126	0.0082964
1138	0.0059458
1150	0.0040418
1162	0.0022498
1174	0.001099
1186	0.0007294
1198	0.0005894
1210	0.0005754
1222	0.0006734
1234	0.0009044
1246	0.0012474
1258	0.0013384
1270	0.00112
1282	0.0009282
1294	0.0009002
1306	0.000735
1318	0.0007406
1330	0.0014266
1342	0.002569
1354	0.002744
1366	0.001981
1378	0.0017836
1390	0.0015876
1402	0.0014434
1414	0.0019446
1426	0.0022778
1438	0.0021728
1450	0.0022666
1462	0.0021686
1474	0.001372
1486	0.0007
1498	0.0004228
1510	0.0002884
1522	0.0001904
1534	0.0002058
1546	0.0002212
1558	0.0002296
1570	0.0002366
1582	0.0002394
1594	0.0002632
1606	0.00035
1618	0.0004788
1630	0.0007686
1642	0.0012614
1654	0.0013874
1666	0.0009492
1678	0.0004074
1690	0.0001722
1702	8.4e-05
1714	2.94e-05
1726	3.36e-05
1738	3.78e-05
1750	1.68e-05
1762	3.08e-05
1774	6.44e-05
1786	0.0001232
1798	0.0002282
1810	0.0003178
1822	0.000245
1834	0.0002338
1846	0.0002926
1858	0.0002744
1870	0.0001554
1882	4.34e-05
1894	4.48e-05
1906	2.8e-05
1918	7e-06
1930	9.8e-06
1942	1.4e-05
1954	2.66e-05
1966	6.02e-05
1978	8.4e-05
1990	9.8e-05
2002	9.38e-05
2014	0.0001008
2026	0.0001134
2038	6.72e-05
2050	9.66e-05
2062	0.0001092
2074	0.0001344
2086	0.0001428
2098	9.38e-05
2110	6.16e-05
2122	7.56e-05
2134	4.2e-05
2146	2.24e-05
2158	5.88e-05
2170	7e-06
2182	4.9e-05
2194	5.6e-06
2206	2.38e-05
2218	2.38e-05
2230	4.62e-05
2242	9.8e-06
2254	3.78e-05
2266	4.48e-05
2278	2.1e-05
2290	2.1e-05
2302	4.62e-05
2314	2.52e-05
2326	8.4e-06
2338	6.3e-05
2350	2.94e-05
2362	0
2374	4.9e-05
2386	5.46e-05
2398	4.62e-05
2410	1.54e-05
2422	2.8e-06
2434	4.06e-05
2446	1.4e-06
2458	4.62e-05
2470	8.4e-06
2482	2.66e-05
2494	5.18e-05
2506	2.1e-05
2518	2.8e-05
2530	1.82e-05
2542	2.1e-05
2554	3.92e-05
2566	4.9e-05
2578	5.6e-05
2590	7.14e-05
2602	6.58e-05
2614	7.7e-05
2626	0.000105
2638	0.0001106
2650	0.0001148
2662	0.000126
2674	0.000196
2686	0.0002926
2698	0.0003808
2710	0.0003962
2722	0.0004466
2734	0.000581
2746	0.0006384
2758	0.0006804
2770	0.000784
2782	0.000931
2794	0.0010962
2806	0.001442
2818	0.0021994
2830	0.0034762
2842	0.0051632
2854	0.0063462
2866	0.0063154
2878	0.0054474
2890	0.0047782
2902	0.0046158
2914	0.0050148
2926	0.0054964
2938	0.0051772
2950	0.0039438
2962	0.0030478
2974	0.0034692
2986	0.003885
2998	0.0030954
3010	0.0023128
3022	0.0019432
3034	0.0014238
3046	0.0011662
3058	0.0014826
3070	0.0022666
3082	0.003227
3094	0.002898
3106	0.0016604
3118	0.0007644
3130	0.0004382
3142	0.0003892
3154	0.0002688
3166	0.0002296
3178	0.0001834
3190	0.0001806
3202	0.0001596
3214	0.0001778
3226	0.000161
3238	0.0001526
3250	0.0001792
3262	0.0002002
3274	0.0001652
3286	0.000224
3298	0.0001232
3310	0.0001106
3322	0.0002072
3334	0.0001694
3346	0.0001232
3358	7.42e-05
3370	0.0001092
3382	0.000133
3394	0.0001344
3406	0.0001596
3418	0.0001344
3430	0.0001484
3442	0.0001148
3454	0.0001246
3466	0.000105
3478	0.0001498
3490	0.0001288
3502	8.96e-05
3514	9.38e-05
3526	0.0001232
3538	0.0001204
3550	0.000112
3562	0.0001694
3574	0.0001148
3586	0.0001232
3598	8.4e-05
3610	0.0001106
3622	0.000126
3634	6.86e-05
3646	6.72e-05
3658	4.62e-05
3670	0.000119
3682	0.0001414
3694	0.0001106
3706	0.000112
3718	7.7e-05
3730	5.46e-05
3742	9.38e-05
3754	0.0001106
3766	6.86e-05
3778	0.0001232
3790	0.0001134
3802	2.66e-05
3814	6.44e-05
3826	5.6e-05
3838	0.0001386
