Infrared Spectrum: 2-PROPANONE, (2,5-DIMETHOXY)PHENYL-
Formula: C11 H14 O3
CAS: 14293-24-4
State: SOLID (NEAT)
Class: COBLENTZ III
Instrument: PERKIN-ELMER 521 (GRATING)
Instrument parameters: GRATING CHANGES AT 2000, 620, FILTERS AT 3130, 2475, 2000, 1150, 700, 410 CM^-^1
Sampling: TRANSMISSION
Path length: CAPILLARY
Resolution: 4
Origin: SOUTHERN RESEARCH INSTITUTE
1/CM	TRANSMITTANCE
230.303	0.73
240	0.739
249.697	0.761
259.394	0.8129
269.091	0.833
278.788	0.854
288.485	0.869
298.182	0.879
307.879	0.885
317.576	0.888
327.273	0.892
336.97	0.902
346.667	0.906
356.364	0.907
366.061	0.905
375.758	0.902
385.455	0.898
395.152	0.895
404.849	0.892
414.546	0.888
424.243	0.878
433.94	0.864
443.637	0.845
453.334	0.843
463.031	0.848
472.728	0.85
482.425	0.853
492.122	0.845
501.819	0.804
511.516	0.772
521.213	0.757
530.91	0.796
540.607	0.81
550.304	0.82
560.001	0.841
569.698	0.847
579.395	0.849
589.092	0.86
598.789	0.884
608.486	0.885
618.183	0.887
627.88	0.888
637.577	0.879
647.274	0.886
656.971	0.892
666.668	0.889
676.365	0.878
686.062	0.843
695.759	0.776
705.456	0.682
715.153	0.765
724.85	0.7219
734.547	0.859
744.244	0.883
753.941	0.874
763.638	0.876
773.335	0.873
783.032	0.796
792.729	0.6981
802.426	0.642
812.123	0.701
821.82	0.797
831.517	0.808
841.214	0.81
850.911	0.805
860.608	0.789
870.305	0.791
880.002	0.835
889.699	0.867
899.396	0.869
909.093	0.857
918.79	0.829
928.487	0.829
938.184	0.845
947.881	0.854
957.578	0.849
967.275	0.84
976.972	0.829
986.669	0.799
996.366	0.763
1006.06	0.656
1015.76	0.5971
1025.46	0.507
1035.15	0.4471
1044.85	0.34
1054.55	0.5951
1064.24	0.731
1073.94	0.792
1083.64	0.813
1093.34	0.797
1103.03	0.706
1112.73	0.667
1122.43	0.676
1132.12	0.735
1141.82	0.607
1151.52	0.488
1161.22	0.5859
1170.91	0.536
1180.61	0.5949
1190.31	0.657
1200	0.5759
1209.7	0.3821
1219.4	0.249
1229.09	0.2399
1238.79	0.4019
1248.49	0.569
1258.18	0.573
1267.88	0.558
1277.58	0.507
1287.28	0.596
1296.97	0.611
1306.67	0.63
1316.37	0.617
1326.06	0.678
1335.76	0.703
1345.46	0.5759
1355.16	0.5479
1364.85	0.735
1374.55	0.752
1384.25	0.746
1393.94	0.691
1403.64	0.63
1413.34	0.541
1423.03	0.4911
1432.73	0.565
1442.43	0.522
1452.12	0.492
1461.82	0.455
1471.52	0.5969
1481.22	0.519
1490.91	0.253
1500.61	0.2419
1510.31	0.5681
1520	0.7659
1529.7	0.808
1539.4	0.829
1549.1	0.833
1558.79	0.829
1568.49	0.803
1578.19	0.742
1587.88	0.743
1597.58	0.749
1607.28	0.756
1616.97	0.813
1626.67	0.813
1636.37	0.796
1646.07	0.758
1655.76	0.723
1665.46	0.727
1675.16	0.728
1684.85	0.687
1694.55	0.5431
1704.25	0.3529
1713.94	0.328
1723.64	0.454
1733.34	0.6791
1743.03	0.768
1752.73	0.818
1762.43	0.843
1772.13	0.854
1781.82	0.86
1791.52	0.864
1801.22	0.868
1810.91	0.868
1820.61	0.87
1830.31	0.873
1840.01	0.875
1849.7	0.876
1859.4	0.878
1869.1	0.88
1878.79	0.882
1888.49	0.882
1898.19	0.882
1907.88	0.882
1917.58	0.881
1927.28	0.88
1936.97	0.879
1946.67	0.878
1956.37	0.878
1966.07	0.877
1975.76	0.876
1985.46	0.875
1995.16	0.874
2004.85	0.873
2014.55	0.873
2024.25	0.873
2033.95	0.873
2043.64	0.872
2053.34	0.8738
2063.04	0.8787
2072.73	0.8857
2082.43	0.889
2092.13	0.89
2101.82	0.89
2111.52	0.89
2121.22	0.891
2130.91	0.8906
2140.61	0.889
2150.31	0.89
2160.01	0.8903
2169.7	0.891
2179.4	0.891
2189.1	0.891
2198.79	0.891
2208.49	0.89
2218.19	0.89
2227.89	0.89
2237.58	0.89
2247.28	0.89
2256.98	0.8919
2266.67	0.893
2276.37	0.894
2286.07	0.894
2295.76	0.894
2305.46	0.894
2315.16	0.894
2324.86	0.894
2334.55	0.893
2344.25	0.8925
2353.95	0.892
2363.64	0.891
2373.34	0.89
2383.04	0.89
2392.73	0.889
2402.43	0.8878
2412.13	0.886
2421.82	0.886
2431.52	0.886
2441.22	0.885
2450.92	0.884
2460.61	0.882
2470.31	0.878
2480.01	0.876
2489.7	0.876
2499.4	0.876
2509.1	0.876
2518.8	0.876
2528.49	0.876
2538.19	0.876
2547.89	0.876
2557.58	0.875
2567.28	0.875
2576.98	0.875
2586.67	0.875
2596.37	0.875
2606.07	0.874
2615.76	0.874
2625.46	0.874
2635.16	0.874
2644.86	0.874
2654.55	0.874
2664.25	0.874
2673.95	0.873
2683.64	0.873
2693.34	0.873
2703.04	0.873
2712.74	0.872
2722.43	0.872
2732.13	0.8702
2741.83	0.8672
2751.52	0.8643
2761.22	0.8613
2770.92	0.8574
2780.61	0.8554
2790.31	0.853
2800.01	0.8455
2809.7	0.8316
2819.4	0.7575
2829.1	0.61
2838.8	0.692
2848.49	0.7863
2858.19	0.788
2867.89	0.7794
2877.58	0.765
2887.28	0.7139
2896.98	0.6613
2906.68	0.64
2916.37	0.643
2926.07	0.6123
2935.77	0.5901
2945.46	0.5967
2955.16	0.6171
2964.86	0.6676
2974.55	0.7065
2984.25	0.6875
2993.95	0.6603
3003.64	0.6971
3013.34	0.7569
3023.04	0.7986
3032.74	0.809
3042.43	0.813
3052.13	0.815
3061.83	0.817
3071.52	0.8229
3081.22	0.8343
3090.92	0.8425
3100.62	0.849
3110.31	0.8501
3120.01	0.853
3129.71	0.8561
3139.4	0.857
3149.1	0.854
3158.8	0.853
3168.49	0.853
3178.19	0.8538
3187.89	0.854
3197.59	0.854
3207.28	0.8533
3216.98	0.853
3226.68	0.853
3236.37	0.853
3246.07	0.853
3255.77	0.852
3265.46	0.852
3275.16	0.852
3284.86	0.851
3294.55	0.8497
3304.25	0.8487
3313.95	0.8467
3323.65	0.845
3333.34	0.843
3343.04	0.8409
3352.74	0.838
3362.43	0.835
3372.13	0.831
3381.83	0.826
3391.53	0.814
3401.22	0.8071
3410.92	0.8012
3420.62	0.799
3430.31	0.796
3440.01	0.796
3449.71	0.796
3459.4	0.796
3469.1	0.798
3478.8	0.8031
3488.49	0.809
3498.19	0.8175
3507.89	0.8214
3517.59	0.8264
3527.28	0.831
3536.98	0.8343
3546.68	0.8395
3556.37	0.845
3566.07	0.847
3575.77	0.849
3585.47	0.849
3595.16	0.849
3604.86	0.849
3614.56	0.847
3624.25	0.848
3633.95	0.848
3643.65	0.848
3653.34	0.849
3663.04	0.85
3672.74	0.85
3682.43	0.85
3692.13	0.851
3701.83	0.851
3711.53	0.851
3721.22	0.851
3730.92	0.851
