Infrared Spectrum: Kepone
Formula: C 10 Cl 10 O
CAS: 143-50-0
State: gas
Instrument: HP-GC/MS/IRD
Origin: NIST Mass Spectrometry Data Center
1/CM	ABSORBANCE
550	0.000329
562	0.0004935
574	0.0006545
586	0.000581
598	0.00063
610	0.001036
622	0.0034825
634	0.0069755
646	0.0148575
658	0.0141575
670	0.00245
682	0.001127
694	0.0012145
706	0.0004305
718	0.000371
730	0.0005285
742	0.0004725
754	0.0005635
766	0.0005635
778	0.0043995
790	0.003591
802	0.0019775
814	0.0028875
826	0.002821
838	0.00126
850	0.0030135
862	0.0082495
874	0.002604
886	0.0010325
898	0.000805
910	0.000987
922	0.000819
934	0.0007105
946	0.001743
958	0.0021245
970	0.0009765
982	0.0016695
994	0.003724
1006	0.0054145
1018	0.005474
1030	0.0143605
1042	0.028483
1054	0.01337
1066	0.0045395
1078	0.003759
1090	0.003465
1102	0.0032515
1114	0.009149
1126	0.016793
1138	0.0063875
1150	0.0030135
1162	0.00637
1174	0.007231
1186	0.00224
1198	0.001078
1210	0.0008295
1222	0.000658
1234	0.000574
1246	0.000413
1258	0.0003745
1270	0.000343
1282	0.000252
1294	0.0001995
1306	0.000224
1318	0.0001645
1330	0.000175
1342	0.0001925
1354	0.000154
1366	0.0001715
1378	0.000238
1390	0.0002415
1402	0.000196
1414	0.000119
1426	0.000119
1438	5.95e-05
1450	3.5e-05
1462	8.75e-05
1474	0.000119
1486	4.9e-05
1498	2.8e-05
1510	3.85e-05
1522	5.25e-05
1534	7.7e-05
1546	7.7e-05
1558	7.7e-05
1570	9.8e-05
1582	8.05e-05
1594	9.45e-05
1606	0.0001435
1618	0.000154
1630	0.0001715
1642	0.000154
1654	9.8e-05
1666	0.0001435
1678	9.45e-05
1690	0.0001085
1702	0.000133
1714	0.0002695
1726	0.00028
1738	0.000231
1750	0.000301
1762	0.0006055
1774	0.0012985
1786	0.00196
1798	0.0062685
1810	0.0253505
1822	0.0283745
1834	0.00532
1846	0.00245
1858	0.0015015
1870	0.000714
1882	0.0005075
1894	0.0004795
1906	0.0004585
1918	0.00035
1930	0.0002345
1942	0.0002415
1954	0.0002975
1966	0.0002345
1978	0.000217
1990	0.0003325
2002	0.000322
2014	0.000266
2026	0.000259
2038	0.0003115
2050	0.000224
2062	0.000196
2074	0.000203
2086	0.000154
2098	0.000126
2110	0.000133
2122	0.0001295
2134	0.000112
2146	0.0001505
2158	0.000147
2170	0.0001365
2182	0.0001155
2194	0.000112
2206	0.0001365
2218	0.000105
2230	0.0001015
2242	0.000133
2254	7.7e-05
2266	7.7e-05
2278	8.05e-05
2290	8.4e-05
2302	9.1e-05
2314	9.45e-05
2326	9.8e-05
2338	0.000119
2350	7e-05
2362	8.4e-05
2374	8.4e-05
2386	0.000112
2398	0.0001085
2410	8.4e-05
2422	0.0001015
2434	0.0001015
2446	0.0001715
2458	0.0001155
2470	9.8e-05
2482	0.000105
2494	6.3e-05
2506	7.35e-05
2518	5.6e-05
2530	7.35e-05
2542	7.7e-05
2554	8.05e-05
2566	4.2e-05
2578	0.0001085
2590	8.05e-05
2602	7e-05
2614	7e-05
2626	6.65e-05
2638	8.05e-05
2650	8.4e-05
2662	8.75e-05
2674	6.3e-05
2686	7.7e-05
2698	0.000147
2710	0.0001015
2722	7e-05
2734	3.15e-05
2746	4.2e-05
2758	3.15e-05
2770	5.95e-05
2782	3.85e-05
2794	7e-05
2806	2.1e-05
2818	8.75e-05
2830	1.4e-05
2842	6.3e-05
2854	3.85e-05
2866	9.8e-05
2878	9.1e-05
2890	7e-05
2902	0.0001085
2914	0.000112
2926	0
2938	0.000133
2950	7.7e-05
2962	9.45e-05
2974	0.0001645
2986	8.05e-05
2998	5.6e-05
3010	0.0001085
3022	4.55e-05
3034	0.000112
3046	9.1e-05
3058	5.95e-05
3070	5.95e-05
3082	0.0001015
3094	8.05e-05
3106	4.55e-05
3118	3.5e-05
3130	8.05e-05
3142	5.25e-05
3154	0.0001295
3166	0.000105
3178	8.75e-05
3190	0.0001295
3202	0.000119
3214	0.0001435
3226	0.000133
3238	0.000154
3250	0.000147
3262	8.4e-05
3274	0.000147
3286	0.000112
3298	0.000168
3310	8.75e-05
3322	8.05e-05
3334	7.35e-05
3346	0.000105
3358	0.0001435
3370	0.000175
3382	0.0001575
3394	0.000168
3406	0.0001435
3418	5.25e-05
3430	2.8e-05
3442	6.3e-05
3454	6.3e-05
3466	9.8e-05
3478	9.45e-05
3490	0.000175
3502	0.000133
3514	0.0002065
3526	0.0002065
3538	0.0002555
3550	0.0001645
3562	0.00021
3574	0.0002135
3586	0.0003045
3598	0.0005145
3610	0.0007315
3622	0.000539
3634	0.0003745
3646	0.00021
3658	0.000168
3670	7.35e-05
3682	0.0001295
3694	0.0001645
3706	0.0002345
3718	0.0001715
3730	0.0001645
3742	0.0001575
3754	0.000168
3766	9.1e-05
3778	0.0001225
3790	0.000238
3802	0.0001995
3814	0.000168
3826	0.000105
3838	0.0001015
