Infrared Spectrum: MORPHINONE, METHYLDIHYDRO-
Formula: C18 H21 N O3
CAS: 143-52-2
State: SOLID (1.2 mg / 250 mg KBr DISC)
Melting point: 243-245 C
Class: COBLENTZ III
Instrument: PERKIN-ELMER 21 (GRATING)
Instrument parameters: FILTER AT ABOUT 10 MICRONS
Sampling: TRANSMISSION
Resolution: 2
Origin: BUREAU OF CUSTOMS
1/CM	TRANSMITTANCE
4000	0.9909
3991	0.9908
3982	0.9907
3973	0.9906
3964	0.9903
3955	0.99
3946	0.9897
3937	0.9894
3928	0.9892
3919	0.9889
3910	0.9886
3901	0.9882
3892	0.9878
3883	0.9875
3874	0.9873
3865	0.987
3856	0.9868
3847	0.9868
3838	0.987
3829	0.988
3820	0.9891
3811	0.9901
3802	0.9915
3793	0.993
3784	0.9934
3775	0.9923
3766	0.9904
3757	0.9884
3748	0.9865
3739	0.9854
3730	0.9844
3721	0.9833
3712	0.9821
3703	0.981
3694	0.9775
3685	0.9718
3676	0.9589
3667	0.9411
3658	0.9249
3649	0.9088
3640	0.8934
3631	0.8789
3622	0.8659
3613	0.8538
3604	0.8349
3595	0.804
3586	0.7689
3577	0.7168
3568	0.6868
3559	0.6594
3550	0.6242
3541	0.5825
3532	0.559
3523	0.5377
3514	0.5223
3505	0.5121
3496	0.5029
3487	0.4945
3478	0.4872
3469	0.481
3460	0.4773
3451	0.4745
3442	0.4724
3433	0.4707
3424	0.4695
3415	0.4696
3406	0.4707
3397	0.4776
3388	0.4859
3379	0.4955
3370	0.5058
3361	0.5173
3352	0.529
3343	0.5398
3334	0.5504
3325	0.5581
3316	0.5652
3307	0.5721
3298	0.578
3289	0.5839
3280	0.5894
3271	0.5927
3262	0.595
3253	0.5959
3244	0.5962
3235	0.5962
3226	0.596
3217	0.5959
3208	0.5958
3199	0.5957
3190	0.5956
3181	0.5956
3172	0.5957
3163	0.5958
3154	0.5959
3145	0.5962
3136	0.5967
3127	0.5975
3118	0.5987
3109	0.6003
3100	0.6023
3091	0.6046
3082	0.6054
3073	0.6054
3064	0.5962
3055	0.592
3046	0.5903
3037	0.5885
3028	0.5866
3019	0.5841
3010	0.575
3001	0.5555
2992	0.5162
2983	0.4746
2974	0.4326
2965	0.3903
2956	0.3479
2947	0.3051
2938	0.2733
2929	0.272
2920	0.2753
2911	0.2835
2902	0.296
2893	0.3121
2884	0.3314
2875	0.3657
2866	0.4005
2857	0.4242
2848	0.448
2839	0.4703
2830	0.4899
2821	0.5059
2812	0.5241
2803	0.544
2794	0.5583
2785	0.5724
2776	0.5857
2767	0.5977
2758	0.6089
2749	0.6156
2740	0.6207
2731	0.6244
2722	0.6265
2713	0.6282
2704	0.6293
2695	0.6306
2686	0.6319
2677	0.6342
2668	0.6398
2659	0.6434
2650	0.6457
2641	0.648
2632	0.6495
2623	0.6508
2614	0.6517
2605	0.6521
2596	0.6525
2587	0.6532
2578	0.6538
2569	0.6542
2560	0.6543
2551	0.6545
2542	0.6548
2533	0.6568
2524	0.6592
2515	0.6628
2506	0.6669
2497	0.6726
2488	0.6785
2479	0.6842
2470	0.69
2461	0.6951
2452	0.7004
2443	0.7064
2434	0.7125
2425	0.7191
2416	0.7251
2407	0.7308
2398	0.7346
2389	0.7369
2380	0.7358
2371	0.7322
2362	0.7318
2353	0.7345
2344	0.7395
2335	0.7471
2326	0.7574
2317	0.7683
2308	0.7761
2299	0.7812
2290	0.7861
2281	0.7914
2272	0.7968
2263	0.8021
2254	0.8071
2245	0.8122
2236	0.8165
2227	0.8208
2218	0.8247
2209	0.8283
2200	0.832
2191	0.8351
2182	0.838
2173	0.8406
2164	0.8432
2155	0.8458
2146	0.8483
2137	0.851
2128	0.8536
2119	0.8563
2110	0.8584
2101	0.8603
2092	0.8623
2083	0.8641
2074	0.8658
2065	0.8675
2056	0.8692
2047	0.8705
2038	0.8718
2029	0.8732
2020	0.8745
2011	0.8745
2002	0.8743
1993	0.874
1984	0.8737
1975	0.8735
1966	0.8734
1957	0.8733
1948	0.8718
1939	0.8697
1930	0.8666
1921	0.8634
1912	0.8601
1903	0.8566
1894	0.8532
1885	0.8497
1876	0.846
1867	0.8415
1858	0.8361
1849	0.8335
1840	0.8312
1831	0.8284
1822	0.8271
1813	0.8251
1804	0.8217
1795	0.8185
1786	0.8139
1777	0.8056
1768	0.7908
1759	0.7606
1750	0.7053
1741	0.3574
1732	0.1273
1723	0.2458
1714	0.4256
1705	0.6071
1696	0.7212
1687	0.7347
1678	0.7365
1669	0.7215
1660	0.6861
1651	0.611
1642	0.5273
1633	0.5365
1624	0.4542
1615	0.416
1606	0.5231
1597	0.6437
1588	0.7032
1579	0.7458
1570	0.7725
1561	0.7799
1552	0.7972
1543	0.8111
1534	0.8106
1525	0.7315
1516	0.5369
1507	0.4043
1498	0.4409
1489	0.4009
1480	0.3382
1471	0.2546
1462	0.1869
1453	0.1885
1444	0.2589
1435	0.366
1426	0.4888
1417	0.6209
1408	0.6228
1399	0.5954
1390	0.5357
1381	0.4099
1372	0.4391
1363	0.5149
1354	0.5102
1345	0.402
1336	0.3953
1327	0.405
1318	0.502
1309	0.4442
1300	0.4449
1291	0.5001
1282	0.3816
1273	0.4167
1264	0.3246
1255	0.2134
1246	0.1972
1237	0.2726
1228	0.3402
1219	0.4441
1210	0.426
1201	0.3853
1192	0.5587
1183	0.5121
1174	0.5234
1165	0.5362
1156	0.5254
1147	0.4415
1138	0.3197
1129	0.4183
1120	0.5741
1111	0.6359
1102	0.49
1093	0.4484
1084	0.5975
1075	0.5427
1066	0.5734
1057	0.5515
1048	0.4459
1039	0.4543
1030	0.2465
1021	0.6385
1012	0.7218
1003	0.6038
994	0.7075
985	0.5721
976	0.6774
967	0.5954
958	0.441
949	0.6305
940	0.7168
931	0.7084
922	0.5847
913	0.4882
904	0.709
895	0.7793
886	0.7806
877	0.6999
868	0.6369
859	0.4305
850	0.39
841	0.577
832	0.7121
823	0.6772
814	0.5738
805	0.4343
796	0.5522
787	0.7403
778	0.7399
769	0.4949
760	0.5189
751	0.3528
742	0.5833
733	0.6428
724	0.6821
715	0.6421
706	0.6468
697	0.6818
688	0.6922
679	0.6806
670	0.6532
661	0.6467
652	0.605
