Infrared Spectrum: Dicyclopropyl carbinol
Formula: C 7 H 12 O
CAS: 14300-33-5
State: gas
Origin: EPA-IR VAPOR PHASE LIBRARY
1/CM	ABSORBANCE
549.8	0.001872
559.445	0.001602
569.09	0.0006396
578.734	0.002312
588.379	0.002482
598.024	0.002762
607.669	0.002942
617.313	0.002212
626.958	0.001802
636.603	0.002032
646.248	0.000789
655.893	0.0011048
665.537	0.0012778
675.182	0.0012305
684.827	0.0010917
694.472	0.0010752
704.116	0.001712
713.761	0.001672
723.406	0.001582
733.051	0.002172
742.695	0.002862
752.34	0.003552
761.985	0.003112
771.63	0.004232
781.275	0.003572
790.919	0.004742
800.564	0.005422
810.209	0.010282
819.854	0.012652
829.498	0.013732
839.143	0.012252
848.788	0.010782
858.433	0.009432
868.078	0.007342
877.722	0.005952
887.367	0.007392
897.012	0.011242
906.657	0.016252
916.301	0.020322
925.946	0.020162
935.591	0.016962
945.236	0.013162
954.88	0.014732
964.525	0.021302
974.17	0.031242
983.815	0.043492
993.46	0.055822
1003.1	0.062562
1012.75	0.073262
1022.39	0.078272
1032.04	0.068172
1041.68	0.051272
1051.33	0.037092
1060.97	0.024712
1070.62	0.017212
1080.26	0.013162
1089.91	0.011792
1099.55	0.011642
1109.2	0.012662
1118.84	0.013542
1128.49	0.017382
1138.13	0.018392
1147.78	0.016722
1157.42	0.013342
1167.07	0.012002
1176.71	0.012882
1186.36	0.013962
1196	0.015432
1205.64	0.013972
1215.29	0.012202
1224.93	0.014702
1234.58	0.015892
1244.22	0.020352
1253.87	0.019272
1263.51	0.017732
1273.16	0.017232
1282.8	0.017412
1292.45	0.016962
1302.09	0.015242
1311.74	0.013022
1321.38	0.011572
1331.03	0.010692
1340.67	0.009892
1350.32	0.008782
1359.96	0.008522
1369.61	0.010182
1379.25	0.012062
1388.9	0.014102
1398.54	0.016282
1408.18	0.018142
1417.83	0.017702
1427.47	0.016132
1437.12	0.012412
1446.76	0.009572
1456.41	0.007312
1466.05	0.006242
1475.7	0.004712
1485.34	0.003332
1494.99	0.002382
1504.63	0.002152
1514.28	0.001702
1523.92	0.001752
1533.57	0.001382
1543.21	0.0013222
1552.86	0.0012145
1562.5	0.001392
1572.15	0.0010057
1581.79	0.0012416
1591.44	0.0008939
1601.08	0.0008926
1610.73	0.0010004
1620.37	0.0008647
1630.01	0.0008671
1639.66	0.0009146
1649.3	0.0007752
1658.95	0.0007941
1668.59	0.0007697
1678.24	0.0004814
1687.88	0.0005045
1697.53	0.0005769
1707.17	0.0005904
1716.82	0.0005511
1726.46	0.0006209
1736.11	0.0006886
1745.75	0.0006737
1755.4	0.0007604
1765.04	0.0009905
1774.69	0.001392
1784.33	0.0013389
1793.98	0.001482
1803.62	0.001572
1813.27	0.001822
1822.91	0.001812
1832.55	0.001872
1842.2	0.001962
1851.84	0.001882
1861.49	0.001922
1871.13	0.001882
1880.78	0.001872
1890.42	0.001862
1900.07	0.001892
1909.71	0.002402
1919.36	0.002732
1929	0.002702
1938.65	0.002372
1948.29	0.001952
1957.94	0.001752
1967.58	0.001582
1977.23	0.001422
1986.87	0.0012505
1996.52	0.0012547
2006.16	0.0012736
2015.81	0.0012348
2025.45	0.001482
2035.1	0.001802
2044.74	0.002472
2054.38	0.002992
2064.03	0.003172
2073.67	0.002892
2083.32	0.002682
2092.96	0.002332
2102.61	0.001812
2112.25	0.001532
2121.9	0.00133
2131.54	0.0011024
2141.19	0.0010766
2150.83	0.0009358
2160.48	0.0009516
2170.12	0.0008408
2179.77	0.0008852
2189.41	0.000818
2199.06	0.001018
2208.7	0.0009415
2218.35	0.0010842
2227.99	0.0010687
2237.64	0.0010516
2247.28	0.0009426
2256.92	0.0012134
2266.57	0.0009382
2276.21	0.0006087
2285.86	0.0008624
2295.5	0.0006349
2305.15	0.0004915
2314.79	0.0007517
2324.44	0.0006775
2334.08	0.0008816
2343.73	0.0007445
2353.37	0.0007744
2363.02	0.0006387
2372.66	0.0009127
2382.31	0.0009403
2391.95	0.000679
2401.6	0.0009592
2411.24	0.0007386
2420.89	0.0009514
2430.53	0.0007605
2440.18	0.0009598
2449.82	0.0010025
2459.47	0.0011985
2469.11	0.001742
2478.75	0.001972
2488.4	0.001772
2498.04	0.0012127
2507.69	0.001144
2517.33	0.0011373
2526.98	0.0008759
2536.62	0.0010864
2546.27	0.0011237
2555.91	0.0009212
2565.56	0.0009264
2575.2	0.0011486
2584.85	0.001113
2594.49	0.0011797
2604.14	0.0010826
2613.78	0.0011365
2623.43	0.001392
2633.07	0.001602
2642.72	0.001452
2652.36	0.001772
2662.01	0.001492
2671.65	0.001622
2681.29	0.001392
2690.94	0.001432
2700.58	0.0013486
2710.23	0.001442
2719.87	0.0013308
2729.52	0.001562
2739.16	0.001502
2748.81	0.001422
2758.45	0.002012
2768.1	0.001852
2777.74	0.002332
2787.39	0.002902
2797.03	0.003552
2806.68	0.004342
2816.32	0.005142
2825.97	0.005952
2835.61	0.007812
2845.26	0.011202
2854.9	0.016282
2864.55	0.021662
2874.19	0.023712
2883.84	0.021452
2893.48	0.016192
2903.12	0.011042
2912.77	0.007462
2922.41	0.005442
2932.06	0.004422
2941.7	0.003652
2951.35	0.003562
2960.99	0.003962
2970.64	0.005142
2980.28	0.008182
2989.93	0.016832
2999.57	0.037372
3009.22	0.065632
3018.86	0.074062
3028.51	0.053112
3038.15	0.025372
3047.8	0.011612
3057.44	0.009482
3067.09	0.016582
3076.73	0.034272
3086.38	0.051552
3096.02	0.039232
3105.67	0.018992
3115.31	0.005922
3124.95	0.002082
3134.6	0.0011253
3144.24	0.0012654
3153.89	0.0012668
3163.53	0.0009843
3173.18	0.0008029
3182.82	0.0006776
3192.47	0.0005141
3202.11	0.0003499
3211.76	0.00035756
3221.4	0.0004713
3231.05	0.0009114
3240.69	0.000514
3250.34	0.0008191
3259.98	0.0005203
3269.63	0.0005451
3279.27	0.000245
3288.92	0.0006161
3298.56	0.0006434
3308.21	0.0003119
3317.85	0.0008119
3327.49	0.0008247
3337.14	0.0005048
3346.78	0.0007932
3356.43	0.0009549
3366.07	0.00039788
3375.72	0.0007936
3385.36	0.0008992
3395.01	0.0005875
3404.65	0.0006039
3414.3	0.000368728
3423.94	0.0011215
3433.59	0.0006863
3443.23	0.0008602
3452.88	0.000785
3462.52	0.0009726
3472.17	0.0004628
3481.81	0.00045616
3491.46	0.0005077
3501.1	0.0006923
3510.75	0.000628
3520.39	0.0008681
3530.04	0.0006852
3539.68	0.0008757
3549.32	0.0004868
3558.97	0.0002665
3568.61	0.0009076
3578.26	0.0006461
3587.9	0.0010325
3597.55	0.001119
3607.19	0.001582
3616.84	0.002632
3626.48	0.005292
3636.13	0.009992
3645.77	0.012182
3655.42	0.009952
3665.06	0.006592
3674.71	0.003652
3684.35	0.001422
3694	0.0012693
3703.64	0.0010292
3713.29	0.0009288
3722.93	0.0007421
3732.58	0.0009757
3742.22	0.0004855
3751.86	0.00041482
3761.51	0.0008241
3771.15	0.0008263
3780.8	0.0011563
3790.44	0.0007332
3800.09	0.0005468
3809.73	0.001392
3819.38	0.001412
3829.02	0.001572
3838.67	0.001002
3848.31	0.0013326
3857.96	0.001168
3867.6	0.0012316
3877.25	0.001552
3886.89	0.0012609
3896.54	0.001236
3906.18	0.0013256
3915.83	0.0009864
3925.47	0.001532
3935.12	0.0007744
3944.76	0.0007758
3954.41	0.0008197
3964.05	0.00041108
3973.69	0.00040428
3983.34	0.00037304
3992.98	0.0003366
