Infrared Spectrum: Triphenylmethylazide
Formula: C 19 H 15 N 3
CAS: 14309-25-2
State: gas
Origin: EPA-IR VAPOR PHASE LIBRARY
1/CM	ABSORBANCE
549.8	0.006703
559.445	0.002533
569.09	0.001783
578.734	0.005993
588.379	0.013593
598.024	0.003643
607.669	0.002303
617.313	0.002303
626.958	0.002253
636.603	0.003453
646.248	0.008873
655.893	0.019213
665.537	0.012533
675.182	0.020553
684.827	0.045923
694.472	0.096333
704.116	0.055773
713.761	0.033023
723.406	0.011323
733.051	0.007193
742.695	0.006623
752.34	0.012153
761.985	0.023553
771.63	0.035793
781.275	0.018233
790.919	0.007993
800.564	0.005723
810.209	0.004783
819.854	0.007433
829.498	0.008113
839.143	0.003183
848.788	0.001943
858.433	0.001913
868.078	0.002463
877.722	0.002853
887.367	0.005523
897.012	0.006943
906.657	0.009483
916.301	0.006983
925.946	0.004013
935.591	0.005243
945.236	0.010893
954.88	0.033583
964.525	0.016633
974.17	0.004793
983.815	0.002823
993.46	0.003403
1003.1	0.005343
1012.75	0.003693
1022.39	0.009713
1032.04	0.009203
1041.68	0.002173
1051.33	0.002393
1060.97	0.005653
1070.62	0.008893
1080.26	0.004563
1089.91	0.002383
1099.55	0.002973
1109.2	0.002373
1118.84	0.002463
1128.49	0.005333
1138.13	0.015333
1147.78	0.011563
1157.42	0.003693
1167.07	0.004343
1176.71	0.010773
1186.36	0.007513
1196	0.006333
1205.64	0.012323
1215.29	0.021603
1224.93	0.021963
1234.58	0.017103
1244.22	0.010483
1253.87	0.009483
1263.51	0.013153
1273.16	0.024153
1282.8	0.035883
1292.45	0.031933
1302.09	0.021133
1311.74	0.023233
1321.38	0.017953
1331.03	0.009283
1340.67	0.004653
1350.32	0.003053
1359.96	0.002943
1369.61	0.003173
1379.25	0.002863
1388.9	0.002073
1398.54	0.001853
1408.18	0.002143
1417.83	0.002483
1427.47	0.003963
1437.12	0.008713
1446.76	0.017133
1456.41	0.007753
1466.05	0.006543
1475.7	0.015513
1485.34	0.028293
1494.99	0.017393
1504.63	0.004823
1514.28	0.003573
1523.92	0.003803
1533.57	0.004443
1543.21	0.005643
1552.86	0.007243
1562.5	0.012943
1572.15	0.024673
1581.79	0.040623
1591.44	0.055453
1601.08	0.046813
1610.73	0.045203
1620.37	0.070783
1630.01	0.049013
1639.66	0.018633
1649.3	0.010993
1658.95	0.008303
1668.59	0.006803
1678.24	0.005473
1687.88	0.003993
1697.53	0.003113
1707.17	0.002873
1716.82	0.002823
1726.46	0.002463
1736.11	0.002313
1745.75	0.002683
1755.4	0.002833
1765.04	0.003203
1774.69	0.003803
1784.33	0.003103
1793.98	0.003383
1803.62	0.004133
1813.27	0.002893
1822.91	0.001913
1832.55	0.001663
1842.2	0.002093
1851.84	0.002293
1861.49	0.002583
1871.13	0.002723
1880.78	0.002643
1890.42	0.003103
1900.07	0.002663
1909.71	0.002333
1919.36	0.002863
1929	0.003113
1938.65	0.004163
1948.29	0.004143
1957.94	0.003433
1967.58	0.002463
1977.23	0.001333
1986.87	0.0011365
1996.52	0.0010801
2006.16	0.0008868
2015.81	0.0008372
2025.45	0.0009856
2035.1	0.0011291
2044.74	0.0011354
2054.38	0.0009264
2064.03	0.0006619
2073.67	0.0005131
2083.32	0.0004508
2092.96	0.0004741
2102.61	0.0004985
2112.25	0.0004471
2121.9	0.0004605
2131.54	0.0004007
2141.19	0.0004823
2150.83	0.0004537
2160.48	0.0005723
2170.12	0.0006752
2179.77	0.0006134
2189.41	0.0004528
2199.06	0.0004961
2208.7	0.0004274
2218.35	0.0004995
2227.99	0.0004855
2237.64	0.0004846
2247.28	0.0006012
2256.92	0.000588
2266.57	0.0006088
2276.21	0.0006692
2285.86	0.0005452
2295.5	0.0005531
2305.15	0.0008468
2314.79	0.001373
2324.44	0.0009468
2334.08	0.0009937
2343.73	0.0010066
2353.37	0.0008266
2363.02	0.0007428
2372.66	0.0006877
2382.31	0.0006047
2391.95	0.0007912
2401.6	0.0009093
2411.24	0.0010244
2420.89	0.0011318
2430.53	0.0010792
2440.18	0.0010038
2449.82	0.0007517
2459.47	0.0006511
2469.11	0.0005248
2478.75	0.0004631
2488.4	0.0003916
2498.04	0.0004963
2507.69	0.0004826
2517.33	0.0004694
2526.98	0.0005504
2536.62	0.0006277
2546.27	0.0008031
2555.91	0.0007926
2565.56	0.0006585
2575.2	0.0006529
2584.85	0.0006842
2594.49	0.0007842
2604.14	0.0006621
2613.78	0.000537
2623.43	0.0006454
2633.07	0.0004536
2642.72	0.0003775
2652.36	0.0002892
2662.01	0.00023727
2671.65	0.00022994
2681.29	0.00023471
2690.94	0.00018192
2700.58	0.000232
2710.23	0.0003005
2719.87	0.0003836
2729.52	0.0005148
2739.16	0.0005468
2748.81	0.0005275
2758.45	0.0005054
2768.1	0.0005926
2777.74	0.0003473
2787.39	0.000357
2797.03	0.0004015
2806.68	0.00027
2816.32	0.0004167
2825.97	0.000567
2835.61	0.0006893
2845.26	0.000678
2854.9	0.0008116
2864.55	0.0009375
2874.19	0.0010713
2883.84	0.001243
2893.48	0.001253
2903.12	0.0008799
2912.77	0.0007355
2922.41	0.0008532
2932.06	0.0009902
2941.7	0.0007531
2951.35	0.0006148
2960.99	0.0009177
2970.64	0.0010766
2980.28	0.001303
2989.93	0.001823
2999.57	0.003093
3009.22	0.005983
3018.86	0.013003
3028.51	0.022373
3038.15	0.022823
3047.8	0.016193
3057.44	0.027383
3067.09	0.060063
3076.73	0.047613
3086.38	0.034233
3096.02	0.019003
3105.67	0.009893
3115.31	0.004973
3124.95	0.002703
3134.6	0.002163
3144.24	0.002123
3153.89	0.001893
3163.53	0.001533
3173.18	0.0010357
3182.82	0.0009972
3192.47	0.0009339
3202.11	0.0008592
3211.76	0.0009056
3221.4	0.000964
3231.05	0.0010065
3240.69	0.0006667
3250.34	0.0006352
3259.98	0.0003761
3269.63	0.0004453
3279.27	0.0004122
3288.92	0.0003
3298.56	0.0002786
3308.21	0.00022451
3317.85	0.0002685
3327.49	0.00017107
3337.14	0.00021361
3346.78	0.0001245
3356.43	0.00018419
3366.07	0.00021625
3375.72	0.0003266
3385.36	0.0003312
3395.01	0.00021169
3404.65	0.0001288
3414.3	0.0001678
3423.94	0.00017376
3433.59	0.0003633
3443.23	0.00023589
3452.88	0.0002275
3462.52	0.0004214
3472.17	0.0002569
3481.81	0.00018418
3491.46	0.00020342
3501.1	0.00024979
3510.75	4.7e-05
3520.39	0.0002805
3530.04	0.00014761
3539.68	0.0003311
3549.32	0.00021597
3558.97	0.00024812
3568.61	0.00019782
3578.26	0.000257
3587.9	0.0002806
3597.55	0.0003115
3607.19	0.000223
3616.84	0.0002627
3626.48	0.00022009
3636.13	0.0004406
3645.77	0.0004759
3655.42	0.0006145
3665.06	0.0002971
3674.71	0.0002563
3684.35	0.0003812
3694	0.0004749
3703.64	0.0007052
3713.29	0.0003571
3722.93	0.0005966
3732.58	0.00023855
3742.22	0.00021114
3751.86	0.0003418
3761.51	0.0004553
3771.15	0.0002689
3780.8	0.0002734
3790.44	0.0003882
3800.09	0.0002797
3809.73	0.0002043
3819.38	0.0002848
3829.02	0.00024491
3838.67	0.00018797
3848.31	0.00019692
3857.96	0.0004728
3867.6	0.0003748
3877.25	0.000289
3886.89	0.0004365
3896.54	0.0002941
3906.18	0.00017854
3915.83	0.0003366
3925.47	0.00023559
3935.12	0.0002631
3944.76	0.0003432
3954.41	0.0003472
3964.05	0.0005639
3973.69	0.000371
3983.34	0.0004653
3992.98	0.0004241
