Infrared Spectrum: 1,1,3-Trimethoxypropane
Formula: C 6 H 14 O 3
CAS: 14315-97-0
State: gas
Instrument: HP-GC/MS/IRD
Origin: NIST Mass Spectrometry Data Center
1/CM	ABSORBANCE
550	0.0005184
562	0.0006336
574	0.0008208
586	0.0007272
598	0.0004536
610	0.0001296
622	0.0001512
634	0.000216
646	4.32e-05
658	0
670	5.04e-05
682	0.000108
694	3.6e-05
706	0
718	0.000108
730	0.0002016
742	0.0001512
754	0.0003744
766	0.000972
778	0.0016488
790	0.0015192
802	0.0011016
814	0.000828
826	0.0007704
838	0.0009648
850	0.00144
862	0.0022824
874	0.0031248
886	0.00378
898	0.004968
910	0.0073008
922	0.0087408
934	0.0072792
946	0.0052488
958	0.0049896
970	0.0060768
982	0.0062064
994	0.005688
1006	0.0062496
1018	0.0077112
1030	0.0104328
1042	0.0163728
1054	0.025308
1066	0.0334728
1078	0.0405
1090	0.0476352
1102	0.0543888
1114	0.0668088
1126	0.0696312
1138	0.0460008
1150	0.0260064
1162	0.0181224
1174	0.0171792
1186	0.0199152
1198	0.0192168
1210	0.0134928
1222	0.0083736
1234	0.0057816
1246	0.004284
1258	0.0035352
1270	0.0034056
1282	0.0032184
1294	0.0027648
1306	0.0027576
1318	0.0029808
1330	0.0028512
1342	0.0032328
1354	0.0057384
1366	0.00936
1378	0.0113472
1390	0.0099936
1402	0.0060912
1414	0.0038304
1426	0.0038448
1438	0.004716
1450	0.00594
1462	0.006156
1474	0.005256
1486	0.0035568
1498	0.0020232
1510	0.0013392
1522	0.0010512
1534	0.0009288
1546	0.0008568
1558	0.0008136
1570	0.0007128
1582	0.0005904
1594	0.000504
1606	0.0004608
1618	0.0004032
1630	0.00036
1642	0.00036
1654	0.0003672
1666	0.000288
1678	0.0002448
1690	0.0002016
1702	0.0002448
1714	0.00018
1726	0.0001656
1738	0.0001512
1750	0.0001368
1762	0.0001224
1774	0.0001224
1786	5.76e-05
1798	3.6e-05
1810	6.48e-05
1822	6.48e-05
1834	0.000108
1846	0.0001224
1858	0.000108
1870	0.0001224
1882	0.0001368
1894	0.000216
1906	0.0002448
1918	0.0002448
1930	0.000252
1942	0.0003096
1954	0.0003672
1966	0.0004536
1978	0.0005472
1990	0.0006336
2002	0.0006984
2014	0.0007056
2026	0.0007272
2038	0.0007632
2050	0.0008352
2062	0.0007992
2074	0.0007488
2086	0.0006984
2098	0.0006408
2110	0.0005832
2122	0.0005472
2134	0.0004824
2146	0.0004536
2158	0.000396
2170	0.0003528
2182	0.0003024
2194	0.000216
2206	0.00018
2218	0.0001656
2230	0.000144
2242	0.0001368
2254	0.0001296
2266	0.0001152
2278	9.36e-05
2290	6.48e-05
2302	5.76e-05
2314	7.92e-05
2326	6.48e-05
2338	5.76e-05
2350	5.76e-05
2362	5.76e-05
2374	0.000108
2386	0.0001008
2398	0.0001008
2410	0.0001008
2422	6.48e-05
2434	2.16e-05
2446	5.04e-05
2458	5.76e-05
2470	3.6e-05
2482	6.48e-05
2494	0.0001008
2506	8.64e-05
2518	0.0001368
2530	0.0001368
2542	0.00018
2554	0.0002376
2566	0.000324
2578	0.0004104
2590	0.0004968
2602	0.0005976
2614	0.0006408
2626	0.0006768
2638	0.000756
2650	0.0009
2662	0.0011088
2674	0.001224
2686	0.0012888
2698	0.0012744
2710	0.0013176
2722	0.001584
2734	0.0019296
2746	0.002304
2758	0.002484
2770	0.0028152
2782	0.003564
2794	0.0051984
2806	0.009
2818	0.0154584
2830	0.0221472
2842	0.0233568
2854	0.0189072
2866	0.0189648
2878	0.0219096
2890	0.024516
2902	0.0254448
2914	0.0252288
2926	0.028332
2938	0.0308376
2950	0.0282168
2962	0.025632
2974	0.0229896
2986	0.0212328
2998	0.0174168
3010	0.010224
3022	0.0061272
3034	0.0044496
3046	0.0036648
3058	0.0031896
3070	0.0026568
3082	0.0021744
3094	0.0017568
3106	0.0013464
3118	0.001044
3130	0.0007776
3142	0.0005544
3154	0.0005112
3166	0.0003672
3178	0.000288
3190	0.0002664
3202	0.000252
3214	0.00018
3226	0.0001224
3238	0.0001728
3250	0.0001512
3262	0.0001224
3274	8.64e-05
3286	0.0001224
3298	8.64e-05
3310	0.0001152
3322	7.92e-05
3334	0.0001224
3346	7.2e-05
3358	8.64e-05
3370	3.6e-05
3382	5.76e-05
3394	0.0001152
3406	4.32e-05
3418	7.92e-05
3430	2.88e-05
3442	2.88e-05
3454	4.32e-05
3466	9.36e-05
3478	6.48e-05
3490	2.88e-05
3502	7.2e-05
3514	4.32e-05
3526	0.0001008
3538	3.6e-05
3550	7.2e-05
3562	7.92e-05
3574	3.6e-05
3586	5.76e-05
3598	8.64e-05
3610	5.76e-05
3622	3.6e-05
3634	8.64e-05
3646	6.48e-05
3658	7.2e-05
3670	0
3682	0.0001224
3694	0.0001152
3706	0.0001152
3718	0.00018
3730	0.0001368
3742	0.000144
3754	0.0001656
3766	0.0001152
3778	0.0001872
3790	0.000216
3802	0.0001872
3814	0.0002016
3826	0.0002808
3838	0.0001872
