Infrared Spectrum: N-BENZYL-N-METHYLAMINO-ACETONITRILE
Formula: C10 H12 N2
CAS: 14321-25-6
Class: COBLENTZ
Instrument: PERKIN-ELMER
Sampling: TRANSMISSION
Path length: CAPILLARY
Resolution: 4
Origin: ABBOTT LABORATORIES - WASHBURN
MICROMETERS	TRANSMITTANCE
2.038	0.883
2.07758	0.887
2.11715	0.888
2.15673	0.888
2.1963	0.883
2.23588	0.887
2.27546	0.8851
2.31503	0.8731
2.35461	0.872
2.39418	0.8769
2.43376	0.878
2.47333	0.867
2.51291	0.8799
2.55249	0.883
2.59206	0.885
2.63164	0.883
2.67121	0.893
2.71079	0.8738
2.75037	0.8422
2.78994	0.83
2.82952	0.825
2.86909	0.8317
2.90867	0.837
2.94825	0.835
2.98782	0.8302
3.0274	0.832
3.06697	0.842
3.10655	0.84
3.14612	0.839
3.1857	0.84
3.22528	0.7557
3.26485	0.6612
3.30443	0.6556
3.344	0.6073
3.38358	0.49
3.42316	0.575
3.46273	0.5499
3.50231	0.477
3.54188	0.427
3.58146	0.5142
3.62103	0.7331
3.66061	0.782
3.70019	0.8349
3.73976	0.86
3.77934	0.875
3.81891	0.877
3.85849	0.882
3.89807	0.883
3.93764	0.885
3.97722	0.8901
4.01679	0.89
4.05637	0.8899
4.09595	0.89
4.13552	0.89
4.1751	0.89
4.21467	0.8851
4.25425	0.883
4.29382	0.893
4.3334	0.8834
4.37298	0.8771
4.41255	0.8731
4.45213	0.8594
4.4917	0.8286
4.53128	0.8649
4.57086	0.868
4.61043	0.868
4.65001	0.868
4.68958	0.868
4.72916	0.87
4.76874	0.868
4.80831	0.87
4.84789	0.8679
4.88746	0.867
4.92704	0.865
4.96661	0.865
5.00619	0.8603
5.04577	0.8352
5.08534	0.8154
5.12492	0.8138
5.16449	0.8478
5.20407	0.852
5.24365	0.8416
5.28322	0.8297
5.3228	0.814
5.36237	0.8381
5.40195	0.8497
5.44152	0.8416
5.4811	0.8275
5.52068	0.8208
5.56025	0.8423
5.59983	0.8489
5.6394	0.844
5.67898	0.8372
5.71856	0.839
5.75813	0.839
5.79771	0.837
5.83728	0.8383
5.87686	0.8356
5.91644	0.8237
5.95601	0.81
5.99559	0.8071
6.03516	0.794
6.07474	0.794
6.11431	0.799
6.15389	0.799
6.19347	0.7983
6.23304	0.7384
6.27262	0.759
6.31219	0.7707
6.35177	0.8092
6.39135	0.8162
6.43092	0.8244
6.4705	0.814
6.51007	0.819
6.54965	0.8225
6.58923	0.8218
6.6288	0.8172
6.66838	0.6421
6.70795	0.5145
6.74753	0.6752
6.7871	0.5892
6.82668	0.4032
6.86626	0.3247
6.90583	0.2614
6.94541	0.4321
6.98498	0.5317
7.02456	0.524
7.06414	0.4797
7.10371	0.6326
7.14329	0.7134
7.18286	0.739
7.22244	0.7269
7.26201	0.6033
7.30159	0.3905
7.34117	0.4842
7.38074	0.6548
7.42032	0.7086
7.45989	0.705
7.49947	0.6232
7.53905	0.5086
7.57862	0.5011
7.6182	0.6027
7.65777	0.5871
7.69735	0.6107
7.73693	0.6689
7.7765	0.7258
7.81608	0.7323
7.85565	0.7055
7.89523	0.691
7.9348	0.6939
7.97438	0.6851
8.01396	0.6274
8.05353	0.6952
8.09311	0.7528
8.13268	0.782
8.17226	0.7925
8.21184	0.7901
8.25141	0.7087
8.29099	0.6505
8.33056	0.6388
8.37014	0.621
8.40972	0.6539
8.44929	0.6811
8.48887	0.724
8.52844	0.7462
8.56802	0.761
8.60759	0.774
8.64717	0.7474
8.68675	0.7246
8.72632	0.6968
8.7659	0.5835
8.80547	0.4407
8.84505	0.448
8.88463	0.41
8.9242	0.389
8.96378	0.5897
9.00335	0.6856
9.04293	0.7181
9.0825	0.7443
9.12208	0.7672
9.16166	0.779
9.20123	0.779
9.24081	0.7641
9.28038	0.5869
9.31996	0.5317
9.35954	0.6903
9.39911	0.7189
9.43869	0.734
9.47826	0.7243
9.51784	0.6643
9.55742	0.5462
9.59699	0.332
9.63657	0.222
9.67614	0.2108
9.71572	0.288
9.75529	0.2222
9.79487	0.3581
9.83445	0.5094
9.87402	0.6452
9.9136	0.688
9.95317	0.7101
9.99275	0.713
10.0323	0.708
10.0719	0.6579
10.1115	0.584
10.1511	0.5466
10.1906	0.538
10.2302	0.543
10.2698	0.5644
10.3094	0.592
10.3489	0.622
10.3885	0.6457
10.4281	0.661
10.4677	0.6596
10.5072	0.655
10.5468	0.661
10.5864	0.656
10.626	0.645
10.6655	0.6724
10.7051	0.7119
10.7447	0.7421
10.7843	0.752
10.8238	0.7406
10.8634	0.7182
10.903	0.6731
10.9426	0.6397
10.9821	0.616
11.0217	0.6438
11.0613	0.691
11.1009	0.7266
11.1405	0.7511
11.18	0.7571
11.2196	0.762
11.2592	0.762
11.2988	0.762
11.3383	0.7549
11.3779	0.7289
11.4175	0.6873
11.4571	0.6469
11.4966	0.5811
11.5362	0.5171
11.5758	0.446
11.6154	0.4095
11.6549	0.41
11.6945	0.4483
11.7341	0.4795
11.7737	0.4847
11.8132	0.4449
11.8528	0.3811
11.8924	0.3448
11.932	0.3357
11.9715	0.4142
12.0111	0.4651
12.0507	0.485
12.0903	0.487
12.1298	0.4996
12.1694	0.5452
12.209	0.5972
12.2486	0.6439
12.2882	0.6657
12.3277	0.6802
12.3673	0.6945
12.4069	0.7083
12.4465	0.719
12.486	0.7281
12.5256	0.737
12.5652	0.7438
12.6048	0.749
12.6443	0.754
12.6839	0.756
12.7235	0.7603
12.7631	0.759
12.8026	0.7557
12.8422	0.7541
12.8818	0.752
12.9214	0.7495
12.9609	0.7447
13.0005	0.7399
13.0401	0.7311
13.0797	0.7175
13.1192	0.7001
13.1588	0.6687
13.1984	0.6315
13.238	0.5604
13.2775	0.4512
13.3171	0.3229
13.3567	0.2095
13.3963	0.1508
13.4359	0.1143
13.4754	0.0882
13.515	0.0692
13.5546	0.071
13.5942	0.1132
13.6337	0.1804
13.6733	0.2467
13.7129	0.3749
13.7525	0.4532
13.792	0.4998
13.8316	0.5401
13.8712	0.5679
13.9108	0.5928
13.9503	0.598
13.9899	0.601
14.0295	0.5976
14.0691	0.5794
14.1086	0.5405
14.1482	0.4577
14.1878	0.3323
14.2274	0.2105
14.2669	0.127
14.3065	0.1086
14.3461	0.088
14.3857	0.137
14.4252	0.2503
14.4648	0.3847
14.5044	0.4799
14.544	0.5563
14.5836	0.584
14.6231	0.6041
14.6627	0.6178
14.7023	0.6268
14.7419	0.635
14.7814	0.638
14.821	0.638
14.8606	0.638
14.9002	0.6285
14.9397	0.616
14.9793	0.615
15.0189	0.6216
15.0585	0.626
15.098	0.6263
15.1376	0.626
15.1772	0.6284
15.2168	0.625
15.2563	0.6272
15.2959	0.625
15.3355	0.6192
15.3751	0.613
15.4146	0.61
15.4542	0.598
