Infrared Spectrum: (PENT-3-YL) GLYCINE
Formula: C7 H15 N O2
CAS: 14328-54-2
State: SOLID (KBr PELLET)
Class: COBLENTZ
Instrument: PERKIN-ELMER
Sampling: TRANSMISSION
Resolution: 4
Origin: ABBOTT LABORATORIES - WASHBURN
MICROMETERS	TRANSMITTANCE
2.044	0.759
2.07751	0.757
2.11102	0.76
2.14453	0.759
2.17804	0.752
2.21155	0.752
2.24506	0.75
2.27857	0.749
2.31208	0.749
2.34559	0.74
2.3791	0.742
2.41261	0.745
2.44612	0.752
2.47963	0.747
2.51314	0.75
2.54665	0.749
2.58016	0.755
2.61367	0.747
2.64718	0.74
2.68069	0.739
2.7142	0.7299
2.74771	0.7098
2.78122	0.652
2.81473	0.6173
2.84824	0.5712
2.88175	0.5404
2.91526	0.528
2.94877	0.5376
2.98228	0.5618
3.01579	0.5453
3.0493	0.5121
3.08281	0.4572
3.11632	0.3939
3.14983	0.3365
3.18334	0.2532
3.21685	0.1899
3.25036	0.1445
3.28387	0.1322
3.31738	0.1299
3.35089	0.1055
3.3844	0.1354
3.41791	0.1696
3.45142	0.1827
3.48493	0.2579
3.51844	0.3204
3.55195	0.3722
3.58546	0.4099
3.61897	0.4218
3.65248	0.4268
3.68599	0.449
3.7195	0.451
3.75301	0.446
3.78652	0.4609
3.82003	0.5008
3.85354	0.5109
3.88705	0.5296
3.92056	0.5614
3.95407	0.5864
3.98758	0.6215
4.02109	0.6409
4.0546	0.6587
4.08811	0.6776
4.12162	0.691
4.15513	0.707
4.18864	0.7199
4.22215	0.73
4.25566	0.7388
4.28917	0.7439
4.32268	0.75
4.35619	0.759
4.3897	0.7688
4.42321	0.774
4.45672	0.771
4.49023	0.776
4.52374	0.776
4.55725	0.781
4.59076	0.781
4.62427	0.7721
4.65778	0.759
4.69129	0.749
4.7248	0.7272
4.75831	0.7081
4.79182	0.698
4.82533	0.7069
4.85884	0.713
4.89235	0.7298
4.92586	0.744
4.95937	0.75
4.99288	0.759
5.02639	0.7617
5.0599	0.767
5.09341	0.7707
5.12692	0.7764
5.16043	0.776
5.19394	0.777
5.22745	0.776
5.26096	0.774
5.29447	0.772
5.32798	0.771
5.36149	0.764
5.395	0.767
5.42851	0.759
5.46202	0.7496
5.49553	0.7415
5.52904	0.7337
5.56255	0.7215
5.59606	0.707
5.62957	0.6913
5.66308	0.6736
5.69659	0.6562
5.7301	0.639
5.76361	0.6102
5.79712	0.5836
5.83063	0.5518
5.86414	0.528
5.89765	0.4525
5.93116	0.3559
5.96467	0.196
5.99818	0.112
6.03169	0.1771
6.0652	0.2026
6.09871	0.167
6.13222	0.1851
6.16573	0.1993
6.19924	0.1681
6.23275	0.127
6.26626	0.1231
6.29977	0.1327
6.33328	0.1273
6.36679	0.1523
6.4003	0.2151
6.43381	0.2702
6.46732	0.274
6.50083	0.2046
6.53434	0.1265
6.56785	0.0842
6.60136	0.0557
6.63487	0.077
6.66838	0.1327
6.70189	0.1915
6.7354	0.2461
6.76891	0.292
6.80242	0.2872
6.83593	0.2431
6.86944	0.2893
6.90295	0.335
6.93646	0.3752
6.96997	0.4217
7.00348	0.3799
7.03699	0.2631
7.0705	0.1437
7.10401	0.131
7.13752	0.1237
7.17103	0.1781
7.20454	0.2814
7.23805	0.3375
7.27156	0.3638
7.30507	0.3886
7.33858	0.3985
7.37209	0.3727
7.4056	0.2662
7.43911	0.1685
7.47262	0.2255
7.50613	0.3348
7.53964	0.4098
7.57315	0.4167
7.60666	0.4713
7.64017	0.5233
7.67368	0.5632
7.70719	0.6058
7.7407	0.6211
7.77421	0.6354
7.80772	0.638
7.84123	0.6477
7.87474	0.651
7.90825	0.6664
7.94176	0.6902
7.97527	0.7052
8.00878	0.708
8.04229	0.7067
8.0758	0.7156
8.10931	0.7411
8.14282	0.7496
8.17633	0.755
8.20984	0.7606
8.24335	0.7649
8.27686	0.762
8.31037	0.7619
8.34388	0.7641
8.37739	0.7593
8.4109	0.7503
8.44441	0.7359
8.47792	0.714
8.51143	0.6845
8.54494	0.673
8.57845	0.6855
8.61196	0.717
8.64547	0.7333
8.67898	0.7279
8.71249	0.6842
8.746	0.6474
8.77951	0.6091
8.81302	0.6095
8.84653	0.6412
8.88004	0.658
8.91355	0.6492
8.94706	0.6331
8.98057	0.5855
9.01408	0.5125
9.04759	0.4864
9.0811	0.5026
9.11461	0.5613
9.14812	0.6158
9.18163	0.6612
9.21514	0.6809
9.24865	0.6876
9.28216	0.6944
9.31567	0.691
9.34918	0.693
9.38269	0.6962
9.4162	0.718
9.44971	0.7353
9.48322	0.7541
9.51673	0.765
9.55024	0.7653
9.58375	0.759
9.61726	0.7593
9.65077	0.7439
9.68428	0.7062
9.71779	0.7256
9.7513	0.7475
9.78481	0.7591
9.81832	0.7669
9.85183	0.764
9.88534	0.758
9.91885	0.7581
9.95236	0.7717
9.98587	0.7878
10.0194	0.8032
10.0529	0.8131
10.0864	0.814
10.1199	0.814
10.1534	0.818
10.1869	0.8187
10.2204	0.8197
10.254	0.8149
10.2875	0.8141
10.321	0.8115
10.3545	0.811
10.388	0.7984
10.4215	0.7992
10.455	0.7852
10.4885	0.7642
10.522	0.7302
10.5555	0.7004
10.5891	0.676
10.6226	0.6849
10.6561	0.7098
10.6896	0.7147
10.7231	0.6962
10.7566	0.6777
10.7901	0.6587
10.8236	0.6811
10.8571	0.7331
10.8906	0.7666
10.9242	0.7875
10.9577	0.7923
10.9912	0.803
11.0247	0.813
11.0582	0.8126
11.0917	0.8174
11.1252	0.8146
11.1587	0.8019
11.1922	0.794
11.2257	0.7726
11.2593	0.76
11.2928	0.765
11.3263	0.7669
11.3598	0.772
11.3933	0.7724
11.4268	0.762
11.4603	0.7478
11.4938	0.7349
11.5273	0.7725
11.5608	0.7942
11.5944	0.8033
11.6279	0.813
11.6614	0.8138
11.6949	0.816
11.7284	0.819
11.7619	0.8221
11.7954	0.8203
11.8289	0.8225
11.8624	0.8155
11.8959	0.8108
11.9295	0.803
11.963	0.7945
11.9965	0.796
12.03	0.801
12.0635	0.8135
12.097	0.8168
12.1305	0.8223
12.164	0.8183
12.1975	0.828
12.231	0.8259
12.2646	0.8232
12.2981	0.816
12.3316	0.8148
12.3651	0.8069
12.3986	0.8036
12.4321	0.7955
12.4656	0.7819
12.4991	0.7686
12.5326	0.757
12.5661	0.7636
12.5997	0.772
12.6332	0.779
12.6667	0.776
12.7002	0.7766
12.7337	0.7629
12.7672	0.7413
12.8007	0.7096
12.8342	0.6444
12.8677	0.6212
12.9012	0.6306
12.9348	0.6621
12.9683	0.6991
13.0018	0.7302
13.0353	0.7539
13.0688	0.7655
13.1023	0.7774
13.1358	0.782
13.1693	0.7864
13.2028	0.7826
13.2363	0.7564
13.2699	0.7409
13.3034	0.7305
13.3369	0.716
13.3704	0.6862
13.4039	0.6445
13.4374	0.6026
13.4709	0.5898
13.5044	0.6075
13.5379	0.6394
13.5714	0.667
13.605	0.6976
13.6385	0.7248
13.672	0.7455
13.7055	0.7644
13.739	0.7739
13.7725	0.7808
13.806	0.7862
13.8395	0.789
13.873	0.79
13.9065	0.787
13.9401	0.789
13.9736	0.7837
14.0071	0.779
14.0406	0.779
14.0741	0.779
14.1076	0.7854
14.1411	0.7827
14.1746	0.779
14.2081	0.7751
14.2416	0.7695
14.2752	0.7735
14.3087	0.774
14.3422	0.772
14.3757	0.7693
14.4092	0.767
14.4427	0.764
14.4762	0.758
14.5097	0.7512
14.5432	0.747
14.5767	0.74
14.6103	0.7368
14.6438	0.7231
14.6773	0.7106
14.7108	0.692
14.7443	0.6837
14.7778	0.67
14.8113	0.6599
14.8448	0.647
14.8783	0.6256
14.9118	0.599
14.9454	0.5891
14.9789	0.5724
15.0124	0.5604
15.0459	0.553
15.0794	0.5565
15.1129	0.5765
15.1464	0.5958
15.1799	0.6245
15.2134	0.6511
15.2469	0.6698
15.2805	0.6798
15.314	0.6876
15.3475	0.691
15.381	0.7
15.4145	0.7026
