Infrared Spectrum: 16Beta-CARBOXY-17Alpha-PREGN-5-EN-3Beta-OL-20-ONE-3-ACETATE
Formula: C24 H34 O5
CAS: 1434-62-4
State: SOLUTION (0.2M IN CHCl3)
Class: COBLENTZ
Instrument: PERKIN-ELMER
Sampling: TRANSMISSION
Path length: 0.010 CM CELL
Resolution: 4
Origin: ABBOTT LABORATORIES - WASHBURN
MICROMETERS	TRANSMITTANCE
2.539	0.935
2.57181	0.937
2.60462	0.938
2.63743	0.938
2.67024	0.9398
2.70305	0.943
2.73586	0.948
2.76867	0.955
2.80148	0.9187
2.83429	0.8773
2.8671	0.884
2.89991	0.887
2.93272	0.8791
2.96553	0.8526
2.99834	0.831
3.03115	0.8043
3.06396	0.7661
3.09677	0.7201
3.12958	0.695
3.16239	0.6671
3.1952	0.6485
3.22801	0.6223
3.26082	0.5695
3.29363	0.5244
3.32644	0.3991
3.35925	0.2971
3.39206	0.274
3.42487	0.293
3.45768	0.4136
3.49049	0.4528
3.5233	0.5745
3.55611	0.6926
3.58892	0.731
3.62173	0.743
3.65454	0.7579
3.68735	0.7628
3.72016	0.761
3.75297	0.759
3.78578	0.7609
3.81859	0.759
3.8514	0.7628
3.88421	0.773
3.91702	0.779
3.94983	0.7959
3.98264	0.8088
4.01545	0.819
4.04826	0.8415
4.08107	0.8499
4.11388	0.87
4.14669	0.8886
4.1795	0.915
4.21231	0.913
4.24512	0.912
4.27793	0.912
4.31074	0.913
4.34355	0.913
4.37636	0.915
4.40917	0.918
4.44198	0.923
4.47479	0.925
4.5076	0.932
4.54041	0.9329
4.57322	0.932
4.60603	0.932
4.63884	0.93
4.67165	0.932
4.70446	0.933
4.73727	0.9366
4.77008	0.935
4.80289	0.935
4.8357	0.937
4.86851	0.937
4.90132	0.937
4.93413	0.937
4.96694	0.935
4.99975	0.932
5.03256	0.932
5.06537	0.932
5.09818	0.93
5.13099	0.9239
5.16381	0.922
5.19662	0.92
5.22943	0.922
5.26224	0.92
5.29505	0.9169
5.32786	0.915
5.36067	0.9103
5.39348	0.9073
5.42629	0.9008
5.4591	0.8945
5.49191	0.8782
5.52472	0.875
5.55753	0.8653
5.59034	0.8412
5.62315	0.7939
5.65596	0.6571
5.68877	0.4427
5.72158	0.3062
5.75439	0.1784
5.7872	0.095
5.82001	0.094
5.85282	0.072
5.88563	0.0793
5.91844	0.5297
5.95125	0.6417
5.98406	0.711
6.01687	0.7461
6.04968	0.7933
6.08249	0.8105
6.1153	0.8365
6.14811	0.8477
6.18092	0.8712
6.21373	0.879
6.24654	0.8901
6.27935	0.8899
6.31216	0.8903
6.34497	0.892
6.37778	0.894
6.41059	0.895
6.4434	0.895
6.47621	0.895
6.50902	0.903
6.54183	0.903
6.57464	0.902
6.60745	0.8991
6.64026	0.895
6.67307	0.882
6.70588	0.8552
6.73869	0.7785
6.7715	0.6583
6.80431	0.6299
6.83712	0.6568
6.86993	0.6252
6.90274	0.6126
6.93555	0.5342
6.96836	0.5383
7.00117	0.551
7.03398	0.546
7.06679	0.5499
7.0996	0.6106
7.13241	0.6493
7.16522	0.6528
7.19803	0.5381
7.23084	0.417
7.26365	0.3641
7.29646	0.4
7.32927	0.3266
7.36208	0.3927
7.39489	0.5293
7.4277	0.6314
7.46051	0.6557
7.49332	0.6779
7.52613	0.6871
7.55894	0.6508
7.59175	0.6186
7.62456	0.5923
7.65737	0.5626
7.69018	0.5347
7.72299	0.5046
7.7558	0.4171
7.78861	0.367
7.82142	0.364
7.85423	0.3015
7.88704	0.2257
7.91985	0.1504
7.95266	0.1084
7.98547	0.0955
8.01828	0.0927
8.05109	0.1265
8.0839	0.1759
8.11671	0.2202
8.14952	0.2636
8.18233	0.2976
8.21514	0.342
8.24795	0.3889
8.28076	0.4311
8.31357	0.4924
8.34638	0.5534
8.37919	0.581
8.412	0.5872
8.44481	0.591
8.47762	0.5816
8.51043	0.5163
8.54324	0.4646
8.57605	0.4644
8.60886	0.54
8.64167	0.5773
8.67448	0.6433
8.70729	0.6687
8.7401	0.6667
8.77291	0.6193
8.80572	0.5991
8.83853	0.628
8.87134	0.6813
8.90415	0.7097
8.93696	0.7269
8.96977	0.7257
9.00258	0.7252
9.03539	0.7259
9.0682	0.7281
9.10101	0.79
9.13382	0.8068
9.16663	0.809
9.19944	0.807
9.23225	0.802
9.26506	0.802
9.29787	0.8054
9.33068	0.8011
9.36349	0.7624
9.3963	0.74
9.42911	0.7265
9.46192	0.72
9.49473	0.7109
9.52754	0.6841
9.56035	0.6255
9.59316	0.5588
9.62597	0.444
9.65878	0.3221
9.69159	0.2892
9.7244	0.3408
9.75721	0.4114
9.79002	0.4789
9.82283	0.5244
9.85564	0.5397
9.88845	0.5761
9.92126	0.6606
9.95407	0.7103
9.98688	0.7263
10.0197	0.7361
10.0525	0.7331
10.0853	0.7016
10.1181	0.683
10.1509	0.687
10.1837	0.687
10.2166	0.6498
10.2494	0.6443
10.2822	0.6691
10.315	0.7134
10.3478	0.736
10.3806	0.74
10.4134	0.712
10.4462	0.6529
10.479	0.671
10.5118	0.6975
10.5447	0.7162
10.5775	0.7336
10.6103	0.735
10.6431	0.736
10.6759	0.7539
10.7087	0.7787
10.7415	0.7838
10.7743	0.786
10.8071	0.788
10.8399	0.795
10.8728	0.796
10.9056	0.7975
10.9384	0.796
10.9712	0.794
11.004	0.7484
11.0368	0.7017
11.0696	0.6978
11.1024	0.7505
11.1352	0.7735
11.168	0.7949
11.2009	0.814
11.2337	0.817
11.2665	0.821
11.2993	0.821
11.3321	0.8161
11.3649	0.799
11.3977	0.8005
11.4305	0.8103
11.4633	0.819
11.4961	0.8214
11.529	0.8346
11.5618	0.836
11.5946	0.836
11.6274	0.837
11.6602	0.8388
11.693	0.837
11.7258	0.837
11.7586	0.837
11.7914	0.837
11.8242	0.839
11.8571	0.8499
11.8899	0.8592
11.9227	0.86
11.9555	0.859
11.9883	0.857
12.0211	0.8598
12.0539	0.8683
12.0867	0.872
12.1195	0.88
12.1523	0.8807
12.1852	0.884
12.218	0.88
12.2508	0.8428
12.2836	0.8194
12.3164	0.8252
12.3492	0.8487
12.382	0.865
12.4148	0.875
12.4476	0.8756
12.4804	0.879
12.5133	0.9056
12.5461	0.917
12.5789	0.9071
12.6117	0.9078
12.6445	0.928
12.6773	0.932
12.7101	0.933
12.7429	0.938
12.7757	0.94
12.8085	0.94
12.8414	0.9401
12.8742	0.945
12.907	0.948
12.9398	0.948
12.9726	0.945
13.0054	0.9425
13.0382	0.938
13.071	0.937
13.1038	0.9309
13.1367	0.9282
13.1695	0.933
13.2023	0.9282
13.2351	0.9272
13.2679	0.927
13.3007	0.927
13.3335	0.928
13.3663	0.9276
13.3991	0.927
13.4319	0.9178
13.4648	0.9018
13.4976	0.8901
13.5304	0.8793
13.5632	0.864
13.596	0.8493
13.6288	0.8364
13.6616	0.8331
13.6944	0.8347
13.7272	0.834
13.76	0.832
13.7929	0.8259
13.8257	0.8171
13.8585	0.819
13.8913	0.8235
13.9241	0.8443
13.9569	0.8622
13.9897	0.8659
14.0225	0.8794
14.0553	0.894
14.0881	0.8991
14.121	0.9
14.1538	0.9
14.1866	0.8973
14.2194	0.8876
14.2522	0.877
14.285	0.877
14.3178	0.8794
14.3506	0.884
14.3834	0.885
14.4162	0.8873
14.4491	0.89
14.4819	0.892
14.5147	0.892
14.5475	0.8893
14.5803	0.884
14.6131	0.8736
14.6459	0.867
14.6787	0.869
14.7115	0.87
14.7443	0.872
14.7772	0.874
14.81	0.877
14.8428	0.877
14.8756	0.882
14.9084	0.8744
14.9412	0.8645
14.974	0.8513
