Infrared Spectrum: BENZENE, 1-BROMO-2,5-DICHLORO-
Formula: C6 H3 Br Cl2
CAS: 1435-50-3
State: SOLUTION (10% IN CCl4 FOR 3800-1333 AND 10% IN CS2 FOR 1333-450 CM^-^1)
Class: COBLENTZ III
Instrument: DOW KBr FOREPRISM-GRATING
Instrument parameters: BLAZED AT 3.5, 12.0, 20.0 MICRON, CHANGED AT 5.0, 7.5, 14.9 MICRON
Sampling: TRANSMISSION
Path length: 0.011, 0.010CM
Resolution: 4
Origin: DOW CHEMICAL COMPANY
1/CM	TRANSMITTANCE
450.49	0.968
459.195	0.974
467.9	0.974
476.605	0.982
485.31	0.989
494.016	0.993
502.721	0.995
511.426	1
520.131	1
528.836	0.99
537.541	0.941
546.246	0.942
554.951	0.979
563.656	0.856
572.361	0.2271
581.067	0.95
589.772	0.998
598.477	0.995
607.182	0.993
615.887	0.991
624.592	0.989
633.297	0.971
642.002	0.949
650.707	0.911
659.412	0.833
668.118	0.926
676.823	0.941
685.528	0.858
694.233	0.96
702.938	0.957
711.643	0.96
720.348	0.957
729.053	0.964
737.758	0.963
746.463	0.967
755.169	0.964
763.874	0.953
772.579	0.95
781.284	0.915
789.989	0.495
798.694	0.6421
807.399	0.6259
816.104	0.3861
824.809	0.874
833.515	0.919
842.22	0.885
850.925	0.793
859.63	0.748
868.335	0.2889
877.04	0.753
885.745	0.886
894.45	0.941
903.155	0.959
911.86	0.964
920.566	0.971
929.271	0.969
937.976	0.963
946.681	0.944
955.386	0.968
964.091	0.974
972.796	0.963
981.501	0.959
990.206	0.968
998.911	0.972
1007.62	0.959
1016.32	0.929
1025.03	0.6519
1033.73	0.787
1042.44	0.95
1051.14	0.964
1059.85	0.963
1068.55	0.957
1077.26	0.903
1085.96	0.862
1094.67	0.716
1103.37	0.51
1112.08	0.668
1120.78	0.512
1129.49	0.643
1138.19	0.815
1146.9	0.839
1155.6	0.956
1164.31	0.974
1173.01	0.95
1181.72	0.961
1190.42	0.98
1199.13	0.983
1207.83	0.984
1216.54	0.982
1225.24	0.971
1233.95	0.976
1242.65	0.916
1251.36	0.783
1260.06	0.945
1268.77	0.959
1277.47	0.971
1286.18	0.972
1294.88	0.967
1303.59	0.968
1312.3	0.969
1321	0.967
1329.71	0.961
1338.41	0.961
1347.12	0.953
1355.82	0.862
1364.53	0.819
1373.23	0.369
1381.94	0.84
1390.64	0.934
1399.35	0.959
1408.05	0.879
1416.76	0.708
1425.46	0.929
1434.17	0.888
1442.87	0.66
1451.58	0.308
1460.28	0.02
1468.99	0.753
1477.69	0.885
1486.4	0.825
1495.1	0.851
1503.81	0.826
1512.51	0.773
1521.22	0.724
1529.92	0.687
1538.63	0.6
1547.33	0.478
1556.04	0.349
1564.74	0.41
1573.45	0.414
1582.15	0.564
1590.86	0.672
1599.56	0.77
1608.27	0.854
1616.97	0.912
1625.68	0.919
1634.38	0.937
1643.09	0.982
1651.79	0.994
1660.5	0.978
1669.2	0.96
1677.91	0.964
1686.61	0.96
1695.32	0.956
1704.02	0.971
1712.73	0.965
1721.44	0.963
1730.14	0.953
1738.85	0.923
1747.55	0.926
1756.26	0.937
1764.96	0.956
1773.67	0.972
1782.37	0.972
1791.08	0.969
1799.78	0.968
1808.49	0.963
1817.19	0.96
1825.9	0.957
1834.6	0.963
1843.31	0.963
1852.01	0.963
1860.72	0.963
1869.42	0.961
1878.13	0.959
1886.83	0.93
1895.54	0.912
1904.24	0.959
1912.95	0.968
1921.65	0.968
1930.36	0.968
1939.06	0.961
1947.77	0.969
1956.47	0.967
1965.18	1
1973.88	0.965
1982.59	0.969
1991.29	0.964
2000	0.964
2008.7	0.983
2017.41	0.986
2026.11	0.987
2034.82	0.989
2043.52	0.987
2052.23	0.989
2060.93	0.99
2069.64	0.989
2078.34	0.989
2087.05	0.989
2095.75	0.989
2104.46	0.987
2113.16	0.987
2121.87	0.984
2130.57	0.983
2139.28	0.982
2147.99	0.982
2156.69	0.98
2165.4	0.98
2174.1	0.982
2182.81	0.983
2191.51	0.983
2200.22	0.983
2208.92	0.983
2217.63	0.982
2226.33	0.982
2235.04	0.98
2243.74	0.976
2252.45	0.974
2261.15	0.972
2269.86	0.964
2278.56	0.9589
2287.27	0.9421
2295.97	0.956
2304.68	0.96
2313.38	0.963
2322.09	0.967
2330.79	0.972
2339.5	0.9649
2348.2	0.983
2356.91	0.968
2365.61	0.978
2374.32	0.984
2383.02	0.975
2391.73	0.972
2400.43	0.975
2409.14	0.979
2417.84	0.979
2426.55	0.979
2435.25	0.979
2443.96	0.979
2452.66	0.979
2461.37	0.979
2470.07	0.978
2478.78	0.978
2487.48	0.976
2496.19	0.975
2504.89	0.971
2513.6	0.974
2522.3	0.9761
2531.01	0.979
2539.71	0.98
2548.42	0.98
2557.12	0.98
2565.83	0.978
2574.54	0.976
2583.24	0.974
2591.95	0.976
2600.65	0.9761
2609.36	0.978
2618.06	0.978
2626.77	0.978
2635.47	0.976
2644.18	0.975
2652.88	0.974
2661.59	0.975
2670.29	0.978
2679	0.979
2687.7	0.975
2696.41	0.9679
2705.11	0.9691
2713.82	0.975
2722.52	0.979
2731.23	0.979
2739.93	0.979
2748.64	0.979
2757.34	0.979
2766.05	0.979
2774.75	0.979
2783.46	0.979
2792.16	0.976
2800.87	0.9689
2809.57	0.957
2818.28	0.9721
2826.98	0.978
2835.69	0.9801
2844.39	0.98
2853.1	0.9802
2861.8	0.984
2870.51	0.9839
2879.21	0.9829
2887.92	0.982
2896.62	0.986
2905.33	0.986
2914.03	0.983
2922.74	0.9841
2931.44	0.989
2940.15	0.9839
2948.85	0.986
2957.56	0.986
2966.26	0.984
2974.97	0.982
2983.67	0.982
2992.38	0.978
3001.09	0.974
3009.79	0.9741
3018.5	0.9791
3027.2	0.982
3035.91	0.9829
3044.61	0.9799
3053.32	0.976
3062.02	0.9718
3070.73	0.9529
3079.43	0.9539
3088.14	0.9431
3096.84	0.8941
3105.55	0.9504
3114.25	0.9652
3122.96	0.971
3131.66	0.9741
3140.37	0.976
3149.07	0.98
3157.78	0.983
3166.48	0.9861
3175.19	0.987
3183.89	0.9891
3192.6	0.993
3201.3	0.9941
3210.01	0.997
3218.71	0.997
3227.42	0.997
3236.12	0.997
3244.83	0.998
3253.53	0.998
3262.24	1.002
3270.94	1.0041
3279.65	1.005
3288.35	1.005
3297.06	1.005
3305.76	1.005
3314.47	1.005
3323.17	1.005
3331.88	1.005
3340.58	1.0062
3349.29	1.008
3357.99	1.009
3366.7	1.008
3375.4	1.012
3384.11	1.013
3392.81	1.015
3401.52	1.0161
3410.22	1.016
3418.93	1.013
3427.64	1.0099
3436.34	1.008
3445.05	1.0049
3453.75	1.0038
3462.46	1.002
3471.16	1.001
3479.87	1
3488.57	0.997
3497.28	0.997
3505.98	0.9968
3514.69	0.994
3523.39	0.9928
3532.1	0.991
3540.8	0.991
3549.51	0.9931
3558.21	0.994
3566.92	0.995
3575.62	0.9971
3584.33	0.998
3593.03	0.997
3601.74	0.995
3610.44	0.994
3619.15	0.995
3627.85	0.9952
3636.56	0.997
3645.26	0.997
3653.97	0.997
3662.67	0.997
3671.38	0.998
3680.08	0.9983
3688.79	1.0038
3697.49	1
3706.2	0.9979
3714.9	0.9971
3723.61	0.997
3732.31	0.993
3741.02	0.99
3749.72	0.9912
3758.43	0.9952
3767.13	0.9949
3775.84	0.994
3784.54	0.993
3793.25	0.9952
