Infrared Spectrum: 1,3-Dibromo-5-fluorobenzene
Formula: C 6 H 3 Br 2 F
CAS: 1435-51-4
State: gas
Origin: EPA-IR VAPOR PHASE LIBRARY
1/CM	ABSORBANCE
549.8	0.000615
559.445	0.000478
569.09	0.000547
578.735	0.000117
588.38	0.000271
598.025	0.00039
607.67	0.000403
617.315	0.000646
626.96	0.0009046
636.605	0.0011415
646.251	0.002769
655.896	0.010429
665.541	0.008609
675.186	0.002079
684.831	0.0013505
694.476	0.000852
704.121	0.000865
713.766	0.001129
723.411	0.002079
733.056	0.003469
742.701	0.017519
752.346	0.049239
761.991	0.008009
771.636	0.001494
781.281	0.000773
790.926	0.000843
800.571	0.000765
810.216	0.000621
819.861	0.000970886
829.507	0.002249
839.152	0.013289
848.797	0.032349
858.442	0.016459
868.087	0.007029
877.732	0.004379
887.377	0.013269
897.022	0.048849
906.667	0.047169
916.312	0.007049
925.957	0.0015487
935.602	0.0011171
945.247	0.0011776
954.892	0.0016498
964.537	0.002119
974.182	0.0014014
983.827	0.00104601
993.472	0.00179
1003.12	0.0015078
1012.76	0.000847
1022.41	0.00100366
1032.05	0.0014172
1041.7	0.00102254
1051.34	0.00098407
1060.99	0.002499
1070.63	0.007069
1080.28	0.007339
1089.92	0.005159
1099.57	0.006239
1109.21	0.004299
1118.86	0.0015663
1128.5	0.00067
1138.15	0.000668
1147.79	0.000703
1157.44	0.000839
1167.08	0.000753
1176.73	0.0013086
1186.37	0.0013597
1196.02	0.0016212
1205.66	0.002639
1215.31	0.004549
1224.95	0.009279
1234.6	0.019989
1244.24	0.010889
1253.89	0.0015286
1263.53	0.001071
1273.18	0.001948
1282.82	0.002809
1292.47	0.0012685
1302.11	0.0009108
1311.76	0.000843
1321.4	0.00105947
1331.05	0.0012048
1340.69	0.0015851
1350.34	0.003679
1359.98	0.008049
1369.63	0.006869
1379.27	0.004549
1388.92	0.005519
1398.56	0.016459
1408.21	0.033129
1417.85	0.037699
1427.5	0.050319
1437.14	0.037839
1446.79	0.011919
1456.43	0.005059
1466.08	0.002039
1475.73	0.0019181
1485.37	0.003339
1495.02	0.004109
1504.66	0.003569
1514.31	0.003649
1523.95	0.002819
1533.6	0.002869
1543.24	0.005479
1552.89	0.014879
1562.53	0.039869
1572.18	0.115309
1581.82	0.140879
1591.47	0.053489
1601.11	0.023219
1610.76	0.007449
1620.4	0.003349
1630.05	0.002449
1639.69	0.002539
1649.34	0.003199
1658.98	0.002509
1668.63	0.0014865
1678.27	0.0013084
1687.92	0.0018514
1697.56	0.003349
1707.21	0.004009
1716.85	0.003929
1726.5	0.0018356
1736.14	0.0012515
1745.79	0.0013093
1755.43	0.0011514
1765.08	0.0009554
1774.72	0.0009483
1784.37	0.0009081
1794.01	0.00098564
1803.66	0.000972081
1813.3	0.0010711
1822.95	0.0011334
1832.59	0.0009382
1842.24	0.00099562
1851.88	0.0011928
1861.53	0.0012741
1871.17	0.00105729
1880.82	0.0009077
1890.46	0.0008998
1900.11	0.0009204
1909.75	0.0009186
1919.4	0.000791
1929.04	0.0008757
1938.69	0.0008914
1948.33	0.000809
1957.98	0.000815
1967.62	0.0008948
1977.27	0.00098806
1986.91	0.0009028
1996.56	0.000865
2006.2	0.000833
2015.85	0.0008
2025.49	0.000822
2035.14	0.000789
2044.78	0.000828
2054.43	0.000807
2064.07	0.0008708
2073.72	0.0009136
2083.36	0.0009168
2093.01	0.001076
2102.65	0.00106722
2112.3	0.0011138
2121.94	0.0013142
2131.59	0.0014726
2141.23	0.0012717
2150.88	0.0009133
2160.52	0.0009065
2170.17	0.00100598
2179.81	0.0010767
2189.46	0.000858
2199.1	0.000813
2208.75	0.00081
2218.39	0.000805
2228.04	0.000861
2237.68	0.000819
2247.33	0.000852
2256.97	0.000801
2266.62	0.00083
2276.26	0.000795
2285.91	0.000827
2295.55	0.0008939
2305.2	0.00100312
2314.84	0.00102006
2324.49	0.00103637
2334.13	0.0011861
2343.78	0.0012186
2353.42	0.0012455
2363.07	0.0011875
2372.72	0.001084
2382.36	0.000970135
2392.01	0.0008921
2401.65	0.000835
2411.3	0.0008746
2420.94	0.0008822
2430.59	0.000852
2440.23	0.0009586
2449.88	0.00103992
2459.52	0.0013188
2469.17	0.001482
2478.81	0.0012368
2488.46	0.000857
2498.1	0.0008709
2507.75	0.000805
2517.39	0.00079
2527.04	0.000729
2536.68	0.000775
2546.33	0.000739
2555.97	0.000673
2565.62	0.000804
2575.26	0.000756
2584.91	0.000756
2594.55	0.00076
2604.2	0.000756
2613.84	0.000949
2623.49	0.0010772
2633.13	0.0012181
2642.78	0.0013489
2652.42	0.0012162
2662.07	0.0011051
2671.71	0.0008957
2681.36	0.000786
2691	0.00083
2700.65	0.000681
2710.29	0.000746
2719.94	0.000638
2729.58	0.000558
2739.23	0.000521
2748.87	0.000607
2758.52	0.000524
2768.16	0.000626
2777.81	0.000493
2787.45	0.000664
2797.1	0.000679
2806.74	0.000768
2816.39	0.000715
2826.03	0.000659
2835.68	0.000697
2845.32	0.0009415
2854.97	0.000809
2864.61	0.000679
2874.26	0.000502
2883.9	0.000466
2893.55	0.000406
2903.19	0.000461
2912.84	0.000373
2922.48	0.000365
2932.13	0.000371
2941.77	0.00043
2951.42	0.000381
2961.06	0.000336
2970.71	0.000385
2980.35	0.000425
2990	0.000608
2999.64	0.000619
3009.29	0.000611
3018.93	0.000385
3028.58	0.000343
3038.22	0.000355
3047.87	0.000415
3057.51	0.000277
3067.16	0.000396
3076.8	0.000758
3086.45	0.0017576
3096.09	0.002469
3105.74	0.00061
3115.38	0.000374
3125.03	0.000209
3134.67	0.000406
3144.32	0.000716
3153.96	0.000737
3163.61	0.000567
3173.25	0.000438
3182.9	0.00026
3192.54	0.000326
3202.19	0.000213
3211.83	0.00039
3221.48	0.000248
3231.12	0.000424
3240.77	0.000378
3250.41	0.000257
3260.06	0.00024
3269.7	0.000395
3279.35	0.000264
3289	0.000331
3298.64	0.000357
3308.29	0.000471
3317.93	0.000161
3327.58	0.000261
3337.22	0.0004
3346.87	0.000331
3356.51	0.00041
3366.16	0.000463
3375.8	0.000155
3385.45	0.000175
3395.09	0.000357
3404.74	0.000242
3414.38	0.000202
3424.03	0.000161
3433.67	0.000479
3443.32	0.000331
3452.96	0.000405
3462.61	0.000337
3472.25	0.000287
3481.9	0.000378
3491.54	0.000351
3501.19	0.000447
3510.83	0.000335
3520.48	0.000436
3530.12	0.000409
3539.77	0.000507
3549.41	0.00044
3559.06	0.000499
3568.7	0.000344
3578.35	0.000525
3587.99	0.000389
3597.64	0.000421
3607.28	0.000474
3616.93	0.0004
3626.57	0.0004
3636.22	0.000528
3645.86	0.000514
3655.51	0.000353
3665.15	0.000296
3674.8	0.000414
3684.44	0.000401
3694.09	0.000506
3703.73	0.000334
3713.38	0.000494
3723.02	0.000284
3732.67	0.000393
3742.31	0.000521
3751.96	0.000401
3761.6	0.000353
3771.25	0.000402
3780.89	0.000429
3790.54	0.000178
3800.18	0.000476
3809.83	0.000333
3819.47	0.00046
3829.12	0.000407
3838.76	0.000549
3848.41	0.000675
3858.05	0.000478
3867.7	0.000342
3877.34	0.000518
3886.99	0.000462
3896.63	0.000378
3906.28	0.000362
3915.92	0.000387
3925.57	0.000566
3935.21	0.000425
3944.86	0.000313
3954.5	0.00034
3964.15	0.000439
3973.79	0.000384
3983.44	0.000574
3993.08	0.000518
