Infrared Spectrum: 3,5-Dichlorofluorobenzene
Formula: C 6 H 3 Cl 2 F
CAS: 1435-46-7
State: gas
Origin: EPA-IR VAPOR PHASE LIBRARY
1/CM	ABSORBANCE
549.8	0.0011185
559.445	0.0008568
569.09	0.0012136
578.734	0.0011089
588.379	0.0010006
598.024	0.001018
607.669	0.0009145
617.313	0.0009733
626.958	0.000781
636.603	0.0014481
646.248	0.005966
655.893	0.014976
665.537	0.014476
675.182	0.007166
684.827	0.0014196
694.472	0.001217
704.116	0.0008271
713.761	0.0008699
723.406	0.0008508
733.051	0.0010731
742.695	0.0012023
752.34	0.0012578
761.985	0.001402
771.63	0.002216
781.275	0.007156
790.919	0.024976
800.564	0.048506
810.209	0.045206
819.854	0.033316
829.498	0.034026
839.143	0.039016
848.788	0.062756
858.433	0.040566
868.078	0.016486
877.722	0.004906
887.367	0.003086
897.012	0.004006
906.657	0.007856
916.301	0.022486
925.946	0.073176
935.591	0.083796
945.236	0.027476
954.88	0.005756
964.525	0.003376
974.17	0.0013423
983.815	0.0014727
993.46	0.0015642
1003.1	0.001946
1012.75	0.002086
1022.39	0.0018864
1032.04	0.0018627
1041.68	0.0015844
1051.33	0.002476
1060.97	0.006036
1070.62	0.010836
1080.26	0.025796
1089.91	0.034496
1099.55	0.020676
1109.2	0.005146
1118.84	0.002216
1128.49	0.0010501
1138.13	0.0011568
1147.78	0.0011354
1157.42	0.0011738
1167.07	0.0011892
1176.71	0.0011291
1186.36	0.0017928
1196	0.0018788
1205.64	0.003576
1215.29	0.005036
1224.93	0.007276
1234.58	0.012336
1244.22	0.018526
1253.87	0.015586
1263.51	0.006446
1273.16	0.003056
1282.8	0.003156
1292.45	0.002506
1302.09	0.0012121
1311.74	0.0012132
1321.38	0.0016256
1331.03	0.001966
1340.67	0.001976
1350.32	0.001584
1359.96	0.002126
1369.61	0.006136
1379.25	0.014626
1388.9	0.017556
1398.54	0.019176
1408.18	0.041496
1417.83	0.063866
1427.47	0.072016
1437.12	0.068366
1446.76	0.048946
1456.41	0.018446
1466.05	0.011016
1475.7	0.006636
1485.34	0.003996
1494.99	0.003106
1504.63	0.004446
1514.28	0.006726
1523.92	0.010066
1533.57	0.015716
1543.21	0.015896
1552.86	0.010206
1562.5	0.017976
1572.15	0.067946
1581.79	0.205116
1591.44	0.250746
1601.08	0.074266
1610.73	0.032146
1620.37	0.020786
1630.01	0.011886
1639.66	0.006556
1649.3	0.003536
1658.95	0.002406
1668.59	0.001906
1678.24	0.001986
1687.88	0.003456
1697.53	0.005806
1707.17	0.006626
1716.82	0.004426
1726.46	0.002156
1736.11	0.0016898
1745.75	0.0012348
1755.4	0.0010536
1765.04	0.0010705
1774.69	0.0010009
1784.33	0.00088697
1793.98	0.000796
1803.62	0.00091963
1813.27	0.0010028
1822.91	0.00095718
1832.55	0.00088708
1842.2	0.0008005
1851.84	0.0008381
1861.49	0.0008555
1871.13	0.000715
1880.78	0.00092329
1890.42	0.00097061
1900.07	0.0008788
1909.71	0.000905292
1919.36	0.0008037
1929	0.000900216
1938.65	0.000743
1948.29	0.000658
1957.94	0.000695
1967.58	0.000788
1977.23	0.00094112
1986.87	0.0008728
1996.52	0.0010398
2006.16	0.0010683
2015.81	0.0011759
2025.45	0.00093292
2035.1	0.000754
2044.74	0.000553
2054.38	0.000547
2064.03	0.000634
2073.67	0.000619
2083.32	0.000632
2092.96	0.000685
2102.61	0.000774
2112.25	0.000725
2121.9	0.000516
2131.54	0.000612
2141.19	0.000769
2150.83	0.00089013
2160.48	0.0011981
2170.12	0.0014424
2179.77	0.0014192
2189.41	0.00099324
2199.06	0.000651
2208.7	0.000587
2218.35	0.000561
2227.99	0.000667
2237.64	0.000585
2247.28	0.000561
2256.92	0.000566
2266.57	0.000438
2276.21	0.000439
2285.86	0.000496
2295.5	0.0006
2305.15	0.00062
2314.79	0.000592
2324.44	0.000665
2334.08	0.0008194
2343.73	0.00089017
2353.37	0.0010728
2363.02	0.0014019
2372.66	0.0014933
2382.31	0.0010501
2391.95	0.000646
2401.6	0.000433
2411.24	0.000474
2420.89	0.000488
2430.53	0.000543
2440.18	0.00068
2449.82	0.00069
2459.47	0.000622
2469.11	0.00068
2478.75	0.0008623
2488.4	0.0008505
2498.04	0.0007983
2507.69	0.0008485
2517.33	0.0008022
2526.98	0.000566
2536.62	0.000498
2546.27	0.000357
2555.91	0.000266
2565.56	0.000321
2575.2	0.000511
2584.85	0.00036
2594.49	0.000372
2604.14	0.000512
2613.78	0.000541
2623.43	0.0008154
2633.07	0.00095508
2642.72	0.0010399
2652.36	0.0011048
2662.01	0.00099217
2671.65	0.00098049
2681.29	0.0008603
2690.94	0.000795
2700.58	0.000743
2710.23	0.000712
2719.87	0.000661
2729.52	0.000444
2739.16	0.000285
2748.81	0.000199
2758.45	0.000429
2768.1	0.000363
2777.74	0.00015
2787.39	0.000345
2797.03	0.000349
2806.68	0.000343
2816.32	0.000363
2825.97	0.000362
2835.61	0.000521
2845.26	0.000594
2854.9	0.000711
2864.55	0.00092988
2874.19	0.000694
2883.84	0.000312
2893.48	0.000352
2903.12	0.00021
2912.77	0.000336
2922.41	0.000255
2932.06	0.000223
2941.7	0.0002
2951.35	5e-05
2960.99	0.00019
2970.64	0.00023
2980.28	0.000202
2989.93	0.000448
2999.57	0.000454
3009.22	0.000558
3018.86	0.000508
3028.51	0.000387
3038.15	0.00034
3047.8	0.000145
3057.44	0.000179
3067.09	0.000442
3076.73	0.00053
3086.38	0.0015156
3096.02	0.002756
3105.67	0.001986
3115.31	0.000555
3124.95	0.000441
3134.6	0.000388
3144.24	0.000647
3153.89	0.000446
3163.53	0.000706
3173.18	0.000765
3182.82	0.000632
3192.47	0.000473
3202.11	0.000206
3211.76	0.000449
3221.4	0.000255
3231.05	0.000236
3240.69	0.000275
3250.34	0.000255
3259.98	0.000474
3269.63	9.9e-05
3279.27	0.000269
3288.92	0.000222
3298.56	0.000215
3308.21	0.000323
3317.85	0.000258
3327.49	0.000345
3337.14	0.000329
3346.78	0.00024
3356.43	0.000226
3366.07	0.0001
3375.72	0.000289
3385.36	0.000282
3395.01	0.000407
3404.65	0.000348
3414.3	0.000636
3423.94	0.000155
3433.59	0.000229
3443.23	0.000154
3452.88	0.00036
3462.52	0.000476
3472.17	0.00016
3481.81	0.000275
3491.46	0.000489
3501.1	0.000501
3510.75	0.000489
3520.39	0.00045
3530.04	0.000423
3539.68	0.000417
3549.32	0.000292
3558.97	0.000244
3568.61	0.00035
3578.26	0.000272
3587.9	0.000459
3597.55	0.000336
3607.19	0.000505
3616.84	0.000388
3626.48	0.000402
3636.13	0.000243
3645.77	0.000306
3655.42	0.000279
3665.06	0.00015
3674.71	0.000386
3684.35	0.000408
3694	0.000274
3703.64	0.000431
3713.29	0.000328
3722.93	0.000202
3732.58	0.000184
3742.22	0.000169
3751.86	0.000452
3761.51	0.000264
3771.15	0.000252
3780.8	0.000378
3790.44	0.000267
3800.09	0.000564
3809.73	0.000131
3819.38	0.00025
3829.02	0.000212
3838.67	0.000293
3848.31	0.000416
3857.96	0.000287
3867.6	0.000138
3877.25	0.000552
3886.89	0.000312
3896.54	0.000449
3906.18	0.000494
3915.83	0.000292
3925.47	0.000346
3935.12	0.000464
3944.76	0.000476
3954.41	0.000317
3964.05	0.000217
3973.69	0.00017
3983.34	0.000174
3992.98	0.000218
