Infrared Spectrum: 3,4-Dichlorofluorobenzene
Formula: C 6 H 3 Cl 2 F
CAS: 1435-49-0
State: gas
Origin: EPA-IR VAPOR PHASE LIBRARY
1/CM	ABSORBANCE
549.8	0.0010303
559.445	0.002635
569.09	0.005305
578.734	0.005675
588.379	0.002965
598.024	0.0008391
607.669	0.0011598
617.313	0.002685
626.958	0.012555
636.603	0.053325
646.248	0.060885
655.893	0.013445
665.537	0.003585
675.182	0.005875
684.827	0.010995
694.472	0.008295
704.116	0.002265
713.761	0.0009098
723.406	0.00060928
733.051	0.0008093
742.695	0.0008511
752.34	0.0010309
761.985	0.0013666
771.63	0.001855
781.275	0.003465
790.919	0.011585
800.564	0.025425
810.209	0.036465
819.854	0.018525
829.498	0.006015
839.143	0.004835
848.788	0.018125
858.433	0.040955
868.078	0.034935
877.722	0.026935
887.367	0.022105
897.012	0.047525
906.657	0.059755
916.301	0.026925
925.946	0.005965
935.591	0.002675
945.236	0.001815
954.88	0.001995
964.525	0.001775
974.17	0.0014839
983.815	0.001292
993.46	0.001615
1003.1	0.003935
1012.75	0.007165
1022.39	0.013895
1032.04	0.024935
1041.68	0.023545
1051.33	0.005305
1060.97	0.001525
1070.62	0.001805
1080.26	0.002565
1089.91	0.004485
1099.55	0.013515
1109.2	0.064465
1118.84	0.089405
1128.49	0.040375
1138.13	0.012235
1147.78	0.004965
1157.42	0.002245
1167.07	0.001945
1176.71	0.001555
1186.36	0.002145
1196	0.002945
1205.64	0.014585
1215.29	0.029685
1224.93	0.023295
1234.58	0.011195
1244.22	0.039715
1253.87	0.070165
1263.51	0.067485
1273.16	0.046055
1282.8	0.021295
1292.45	0.005575
1302.09	0.002015
1311.74	0.001855
1321.38	0.002295
1331.03	0.002275
1340.67	0.001565
1350.32	0.001765
1359.96	0.004755
1369.61	0.012005
1379.25	0.015835
1388.9	0.016715
1398.54	0.012185
1408.18	0.005175
1417.83	0.005165
1427.47	0.019995
1437.12	0.031135
1446.76	0.026875
1456.41	0.069855
1466.05	0.205865
1475.7	0.196745
1485.34	0.053955
1494.99	0.015635
1504.63	0.012355
1514.28	0.013885
1523.92	0.010145
1533.57	0.006815
1543.21	0.007705
1552.86	0.008035
1562.5	0.012405
1572.15	0.029125
1581.79	0.064265
1591.44	0.095545
1601.08	0.065275
1610.73	0.020525
1620.37	0.007165
1630.01	0.003895
1639.66	0.002325
1649.3	0.002295
1658.95	0.002855
1668.59	0.002675
1678.24	0.001825
1687.88	0.0014053
1697.53	0.001605
1707.17	0.002555
1716.82	0.004065
1726.46	0.004045
1736.11	0.003235
1745.75	0.002285
1755.4	0.0013795
1765.04	0.000992
1774.69	0.0007211
1784.33	0.0006735
1793.98	0.0011305
1803.62	0.0013325
1813.27	0.0010742
1822.91	0.0008592
1832.55	0.0007978
1842.2	0.001062
1851.84	0.002265
1861.49	0.004015
1871.13	0.004185
1880.78	0.002785
1890.42	0.0012965
1900.07	0.0011532
1909.71	0.0011403
1919.36	0.0009549
1929	0.0009035
1938.65	0.0009549
1948.29	0.0008039
1957.94	0.0006497
1967.58	0.00055628
1977.23	0.000415
1986.87	0.0004775
1996.52	0.000414
2006.16	0.00054398
2015.81	0.0007019
2025.45	0.0008689
2035.1	0.0007266
2044.74	0.00058541
2054.38	0.0004571
2064.03	0.0004798
2073.67	0.00054767
2083.32	0.00058704
2092.96	0.0007027
2102.61	0.0007062
2112.25	0.0010088
2121.9	0.001111
2131.54	0.0009318
2141.19	0.0008965
2150.83	0.0013223
2160.48	0.0013311
2170.12	0.0011679
2179.77	0.0007717
2189.41	0.00059637
2199.06	0.0004461
2208.7	0.0004801
2218.35	0.00055179
2227.99	0.0006693
2237.64	0.0007426
2247.28	0.0007877
2256.92	0.0007191
2266.57	0.0007193
2276.21	0.0007984
2285.86	0.0008047
2295.5	0.0007121
2305.15	0.00057311
2314.79	0.0004974
2324.44	0.0008131
2334.08	0.0008224
2343.73	0.0008343
2353.37	0.0007562
2363.02	0.0008366
2372.66	0.0011453
2382.31	0.0010679
2391.95	0.0008587
2401.6	0.00057673
2411.24	0.00053297
2420.89	0.0007622
2430.53	0.0007724
2440.18	0.0006913
2449.82	0.0006385
2459.47	0.001147
2469.11	0.0014751
2478.75	0.0014595
2488.4	0.0013904
2498.04	0.0014411
2507.69	0.0012525
2517.33	0.0010256
2526.98	0.0008583
2536.62	0.0006731
2546.27	0.0004298
2555.91	0.000399
2565.56	0.000372
2575.2	0.000432
2584.85	0.00058688
2594.49	0.0006385
2604.14	0.00053057
2613.78	0.00059941
2623.43	0.00053086
2633.07	0.000517267
2642.72	0.0005058
2652.36	0.00053644
2662.01	0.000315
2671.65	0.00053966
2681.29	0.0006395
2690.94	0.00057423
2700.58	0.0005928
2710.23	0.0007341
2719.87	0.0006909
2729.52	0.0006489
2739.16	0.00058477
2748.81	0.000333
2758.45	0.000303
2768.1	0.000274
2777.74	0.0004277
2787.39	0.0005137
2797.03	0.0006294
2806.68	0.0006389
2816.32	0.0010996
2825.97	0.0010433
2835.61	0.0010248
2845.26	0.0008319
2854.9	0.000719
2864.55	0.0004272
2874.19	0.000339
2883.84	0.000232
2893.48	0.000222
2903.12	0.000261
2912.77	0.000169
2922.41	0.000134
2932.06	0.000244
2941.7	0.000183
2951.35	7.7e-05
2960.99	0.000221
2970.64	0.000289
2980.28	0.000327
2989.93	0.00028
2999.57	0.000299
3009.22	0.000222
3018.86	0.0004642
3028.51	0.000306
3038.15	0.000378
3047.8	0.00051724
3057.44	0.00059247
3067.09	0.0008794
3076.73	0.002335
3086.38	0.003045
3096.02	0.002035
3105.67	0.0008216
3115.31	0.0004
3124.95	0.000287
3134.6	0.000257
3144.24	0.000328
3153.89	0.000382
3163.53	0.000316
3173.18	0.0004673
3182.82	0.000375
3192.47	0.000247
3202.11	0.000308
3211.76	0.000247
3221.4	0.000255
3231.05	0.000112
3240.69	0.000335
3250.34	0.000163
3259.98	0.00015
3269.63	0.000389
3279.27	0.000391
3288.92	0.00034
3298.56	6.7e-05
3308.21	0.000247
3317.85	0.000244
3327.49	0.000269
3337.14	0.000304
3346.78	8e-05
3356.43	0.0004343
3366.07	0.000258
3375.72	0.000281
3385.36	0.000248
3395.01	0.000332
3404.65	0.000278
3414.3	0.000272
3423.94	0.000242
3433.59	0.000171
3443.23	0.000213
3452.88	0.000329
3462.52	0.000125
3472.17	0.000179
3481.81	0.000308
3491.46	0.00039
3501.1	0.00029
3510.75	0.000139
3520.39	0.000238
3530.04	0.000243
3539.68	0.000272
3549.32	0.000217
3558.97	0.000333
3568.61	0.000204
3578.26	0.00036
3587.9	0.00024
3597.55	0.000307
3607.19	0.000268
3616.84	0.000367
3626.48	0.0004997
3636.13	0.000171
3645.77	0.000237
3655.42	0.000188
3665.06	0.000357
3674.71	0.000153
3684.35	0.000269
3694	0.000158
3703.64	0.000202
3713.29	0.000328
3722.93	0.0004605
3732.58	0.00059698
3742.22	0.000394
3751.86	0.0004169
3761.51	0.000367
3771.15	0.000376
3780.8	0.000519499
3790.44	0.00045
3800.09	0.000383
3809.73	0.000134
3819.38	1.8e-05
3829.02	7.5e-05
3838.67	0.00016
3848.31	0.000214
3857.96	0.000187
3867.6	0.000295
3877.25	0.0004594
3886.89	0.000304
3896.54	0.000254
3906.18	0.000289
3915.83	0.0003
3925.47	0.0004809
3935.12	0.000235
3944.76	0.000223
3954.41	0.000276
3964.05	0.000399
3973.69	0.0004192
3983.34	0.000305
3992.98	0.000265
