Infrared Spectrum: 2,4-Dibromo-1-fluorobenzene
Formula: C6 H3 Br2 F
CAS: 1435-53-6
State: SOLUTION (10% CCl4 FOR 3800-1330, 10% CS2 FOR 1330-460 CM^-^1)
Class: COBLENTZ III
Instrument: DOW KBr FOREPRISM-GRATING
Instrument parameters: BLAZED AT 3.5, 12.0, 20.0 MICRON AND CHANGED AT 5.0, 7.5, 14.9 MICRON
Sampling: TRANSMISSION
Path length: 0.010 CM, 0.010 CM
Resolution: 2
Origin: DOW CHEMICAL COMPANY
1/CM	TRANSMITTANCE
459	0.7513
468	0.7536
477	0.7582
486	0.7529
495	0.5666
504	0.7944
513	0.7992
522	0.7952
531	0.7951
540	0.7805
549	0.5219
558	0.7911
567	0.7469
576	0.7987
585	0.8086
594	0.779
603	0.7546
612	0.733
621	0.2183
630	0.8066
639	0.8293
648	0.8324
657	0.8232
666	0.8043
675	0.7555
684	0.2409
693	0.8454
702	0.8519
711	0.873
720	0.8855
729	0.8805
738	0.8868
747	0.8854
756	0.8828
765	0.866
774	0.8737
783	0.8794
792	0.8587
801	0.7889
810	0.0734
819	0.5895
828	0.7889
837	0.8295
846	0.8458
855	0.7765
864	0.4753
873	0.6515
882	0.8008
891	0.8696
900	0.8731
909	0.8786
918	0.8807
927	0.8739
936	0.8388
945	0.8819
954	0.8918
963	0.8938
972	0.8928
981	0.8961
990	0.8934
999	0.8798
1008	0.8498
1017	0.6597
1026	0.8548
1035	0.8466
1044	0.701
1053	0.6545
1062	0.8195
1071	0.3991
1080	0.7764
1089	0.669
1098	0.7114
1107	0.8549
1116	0.8482
1125	0.827
1134	0.802
1143	0.8329
1152	0.866
1161	0.8571
1170	0.8467
1179	0.8447
1188	0.8656
1197	0.8492
1206	0.8111
1215	0.7679
1224	0.7905
1233	0.3759
1242	0.6911
1251	0.5459
1260	0.0509
1269	0.5831
1278	0.8455
1287	0.8641
1296	0.8664
1305	0.8687
1314	0.8485
1323	0.8403
1332	0.8713
1341	0.8768
1350	0.8768
1359	0.824
1368	0.8164
1377	0.6496
1386	0.6088
1395	0.8623
1404	0.8578
1413	0.7867
1422	0.7913
1431	0.8064
1440	0.8252
1449	0.632
1458	0.5148
1467	0.1729
1476	0.0248
1485	0.2011
1494	0.6664
1503	0.7787
1512	0.8407
1521	0.8597
1530	0.8365
1539	0.839
1548	0.8199
1557	0.7382
1566	0.7465
1575	0.6049
1584	0.3767
1593	0.6244
1602	0.7795
1611	0.8597
1620	0.8517
1629	0.8468
1638	0.8655
1647	0.8651
1656	0.8677
1665	0.8642
1674	0.8694
1683	0.8746
1692	0.8702
1701	0.8785
1710	0.8845
1719	0.8774
1728	0.8646
1737	0.8425
1746	0.855
1755	0.8814
1764	0.8874
1773	0.8929
1782	0.8931
1791	0.8912
1800	0.8851
1809	0.8787
1818	0.89
1827	0.8888
1836	0.8885
1845	0.8866
1854	0.8822
1863	0.872
1872	0.8284
1881	0.8535
1890	0.8855
1899	0.891
1908	0.889
1917	0.8894
1926	0.8898
1935	0.8891
1944	0.8877
1953	0.8942
1962	0.8923
1971	0.8889
1980	0.8899
1989	0.8908
1998	0.9053
2007	0.9224
2016	0.9258
2025	0.9251
2034	0.9244
2043	0.9241
2052	0.9247
2061	0.9233
2070	0.9227
2079	0.9219
2088	0.9214
2097	0.9189
2106	0.9253
2115	0.9318
2124	0.9325
2133	0.9334
2142	0.9335
2151	0.9329
2160	0.9328
2169	0.9343
2178	0.9343
2187	0.9319
2196	0.9331
2205	0.9338
2214	0.9341
2223	0.9362
2232	0.9364
2241	0.9371
2250	0.9333
2259	0.9325
2268	0.9314
2277	0.9321
2286	0.9315
2295	0.9299
2304	0.9285
2313	0.9351
2322	0.9491
2331	0.9488
2340	0.947
2349	0.9439
2358	0.9415
2367	0.9374
2376	0.9366
2385	0.9293
2394	0.9266
2403	0.9259
2412	0.9228
2421	0.9286
2430	0.9292
2439	0.9285
2448	0.9272
2457	0.9244
2466	0.9238
2475	0.923
2484	0.9205
2493	0.9194
2502	0.9187
2511	0.918
2520	0.9174
2529	0.9183
2538	0.9225
2547	0.923
2556	0.9228
2565	0.9226
2574	0.9224
2583	0.9222
2592	0.9217
2601	0.9212
2610	0.9203
2619	0.9188
2628	0.9175
2637	0.9154
2646	0.9166
2655	0.9161
2664	0.9138
2673	0.9131
2682	0.912
2691	0.9101
2700	0.9075
2709	0.9029
2718	0.9019
2727	0.9031
2736	0.9059
2745	0.9074
2754	0.9091
2763	0.9094
2772	0.9077
2781	0.9024
2790	0.9001
2799	0.8981
2808	0.8958
2817	0.8932
2826	0.8935
2835	0.8848
2844	0.8784
2853	0.8795
2862	0.893
2871	0.8945
2880	0.894
2889	0.8933
2898	0.8909
2907	0.8897
2916	0.8853
2925	0.8843
2934	0.8823
2943	0.8842
2952	0.8896
2961	0.8915
2970	0.8925
2979	0.8939
2988	0.8943
2997	0.8932
3006	0.8913
3015	0.8887
3024	0.8859
3033	0.89
3042	0.8915
3051	0.884
3060	0.8801
3069	0.8717
3078	0.857
3087	0.8559
3096	0.8201
3105	0.8282
3114	0.867
3123	0.8763
3132	0.8811
3141	0.8816
3150	0.884
3159	0.8849
3168	0.8837
3177	0.8839
3186	0.8848
3195	0.8861
3204	0.8847
3213	0.8861
3222	0.8859
3231	0.8857
3240	0.8852
3249	0.8845
3258	0.884
3267	0.8833
3276	0.8817
3285	0.8803
3294	0.8792
3303	0.8782
3312	0.8787
3321	0.8766
3330	0.8762
3339	0.876
3348	0.8756
3357	0.8756
3366	0.8759
3375	0.8761
3384	0.8764
3393	0.8767
3402	0.8767
3411	0.8767
3420	0.8767
3429	0.8767
3438	0.8767
3447	0.8768
3456	0.8771
3465	0.8774
3474	0.8778
3483	0.8781
3492	0.8784
3501	0.8789
3510	0.8796
3519	0.8803
3528	0.881
3537	0.8827
3546	0.8838
3555	0.8841
3564	0.8833
3573	0.8852
3582	0.8858
3591	0.8858
3600	0.8849
3609	0.885
3618	0.8849
3627	0.8845
3636	0.8826
3645	0.882
3654	0.8817
3663	0.8811
3672	0.8809
3681	0.8811
3690	0.8833
3699	0.8853
3708	0.8858
3717	0.8848
3726	0.8854
3735	0.8854
3744	0.8838
3753	0.8838
3762	0.884
3771	0.8842
3780	0.8844
3789	0.8842
3798	0.8823
