Infrared Spectrum: 2,4-Dichlorofluorobenzene
Formula: C 6 H 3 Cl 2 F
CAS: 1435-48-9
State: gas
Origin: EPA-IR VAPOR PHASE LIBRARY
1/CM	ABSORBANCE
549.8	0.006718
559.445	0.011248
569.09	0.005608
578.734	0.002318
588.379	0.0009647
598.024	0.0005503
607.669	0.0010806
617.313	0.0010954
626.958	0.002728
636.603	0.020468
646.248	0.040458
655.893	0.021088
665.537	0.003298
675.182	0.002268
684.827	0.003018
694.472	0.004628
704.116	0.019638
713.761	0.082358
723.406	0.104788
733.051	0.040488
742.695	0.010698
752.34	0.004628
761.985	0.001958
771.63	0.002618
781.275	0.005308
790.919	0.010128
800.564	0.032458
810.209	0.070588
819.854	0.043368
829.498	0.017118
839.143	0.012418
848.788	0.035868
858.433	0.045688
868.078	0.041928
877.722	0.020478
887.367	0.007798
897.012	0.003458
906.657	0.001918
916.301	0.001638
925.946	0.002018
935.591	0.002298
945.236	0.0013116
954.88	0.0007967
964.525	0.0008992
974.17	0.001598
983.815	0.001478
993.46	0.001548
1003.1	0.001538
1012.75	0.0013528
1022.39	0.0013177
1032.04	0.001628
1041.68	0.005148
1051.33	0.016778
1060.97	0.026458
1070.62	0.022438
1080.26	0.021808
1089.91	0.044658
1099.55	0.067328
1109.2	0.051188
1118.84	0.014758
1128.49	0.012438
1138.13	0.018008
1147.78	0.015658
1157.42	0.004818
1167.07	0.001618
1176.71	0.0010974
1186.36	0.001828
1196	0.002488
1205.64	0.004158
1215.29	0.008098
1224.93	0.015548
1234.58	0.020678
1244.22	0.034228
1253.87	0.088218
1263.51	0.139588
1273.16	0.073958
1282.8	0.010048
1292.45	0.004198
1302.09	0.002798
1311.74	0.001888
1321.38	0.001828
1331.03	0.001778
1340.67	0.001468
1350.32	0.002308
1359.96	0.006258
1369.61	0.012518
1379.25	0.021208
1388.9	0.019928
1398.54	0.013318
1408.18	0.007918
1417.83	0.016748
1427.47	0.022708
1437.12	0.014738
1446.76	0.019348
1456.41	0.038778
1466.05	0.082188
1475.7	0.251868
1485.34	0.330808
1494.99	0.175038
1504.63	0.075958
1514.28	0.026078
1523.92	0.011168
1533.57	0.007468
1543.21	0.003358
1552.86	0.003298
1562.5	0.006348
1572.15	0.012178
1581.79	0.018138
1591.44	0.017808
1601.08	0.011138
1610.73	0.005548
1620.37	0.004848
1630.01	0.003658
1639.66	0.001848
1649.3	0.0010726
1658.95	0.0007846
1668.59	0.0009366
1678.24	0.0009451
1687.88	0.001234
1697.53	0.001838
1707.17	0.002888
1716.82	0.003308
1726.46	0.004838
1736.11	0.006398
1745.75	0.004948
1755.4	0.001998
1765.04	0.0011127
1774.69	0.0009693
1784.33	0.0011094
1793.98	0.001353
1803.62	0.0012861
1813.27	0.0010411
1822.91	0.000837
1832.55	0.0008404
1842.2	0.0012196
1851.84	0.002688
1861.49	0.004928
1871.13	0.004848
1880.78	0.002618
1890.42	0.0010736
1900.07	0.0008755
1909.71	0.0008971
1919.36	0.0005997
1929	0.00045445
1938.65	0.0006957
1948.29	0.0008983
1957.94	0.0010706
1967.58	0.0012589
1977.23	0.001638
1986.87	0.001608
1996.52	0.0010791
2006.16	0.0007358
2015.81	0.0005134
2025.45	0.0003992
2035.1	0.0004784
2044.74	0.00045
2054.38	0.0003002
2064.03	0.0003462
2073.67	0.00046161
2083.32	0.0005376
2092.96	0.0006307
2102.61	0.0007701
2112.25	0.0011331
2121.9	0.0011146
2131.54	0.0006626
2141.19	0.0005364
2150.83	0.0005127
2160.48	0.000498
2170.12	0.0004096
2179.77	0.00042847
2189.41	0.0006474
2199.06	0.0009014
2208.7	0.0008427
2218.35	0.0007734
2227.99	0.000895
2237.64	0.000953
2247.28	0.0007649
2256.92	0.0005848
2266.57	0.0004781
2276.21	0.0007852
2285.86	0.0009234
2295.5	0.0009377
2305.15	0.0009082
2314.79	0.0010731
2324.44	0.001223
2334.08	0.0013405
2343.73	0.0011409
2353.37	0.0008748
2363.02	0.0006856
2372.66	0.0005215
2382.31	0.0005373
2391.95	0.00045838
2401.6	0.0004881
2411.24	0.0004816
2420.89	0.000559
2430.53	0.0006936
2440.18	0.0008721
2449.82	0.0008475
2459.47	0.0008192
2469.11	0.0008341
2478.75	0.0008951
2488.4	0.0010393
2498.04	0.0010995
2507.69	0.001628
2517.33	0.001898
2526.98	0.001798
2536.62	0.0011594
2546.27	0.0007567
2555.91	0.0004912
2565.56	0.00046909
2575.2	0.00045117
2584.85	0.000387799
2594.49	0.00046534
2604.14	0.0004143
2613.78	0.0005756
2623.43	0.00047633
2633.07	0.0005348
2642.72	0.0005579
2652.36	0.0005401
2662.01	0.0005226
2671.65	0.00043579
2681.29	0.00042268
2690.94	0.0004049
2700.58	0.0005165
2710.23	0.0004959
2719.87	0.0007188
2729.52	0.0007975
2739.16	0.0007703
2748.81	0.0007122
2758.45	0.0004983
2768.1	0.000382538
2777.74	0.0003132
2787.39	0.00041583
2797.03	0.00043738
2806.68	0.0007158
2816.32	0.0011225
2825.97	0.001418
2835.61	0.001538
2845.26	0.001618
2854.9	0.0011751
2864.55	0.0006629
2874.19	0.000377477
2883.84	0.000137
2893.48	0.000161
2903.12	0.000228
2912.77	0.000147
2922.41	0.00017
2932.06	0.000262
2941.7	0.00026
2951.35	0.0003509
2960.99	0.000259
2970.64	0.000218
2980.28	0.00022
2989.93	0.000116
2999.57	0.000247
3009.22	0.00037434
3018.86	0.000182
3028.51	0.00039704
3038.15	0.0005331
3047.8	0.000788
3057.44	0.0005515
3067.09	0.0011913
3076.73	0.002458
3086.38	0.002148
3096.02	0.0012245
3105.67	0.0006745
3115.31	0.0002923
3124.95	0.0003429
3134.6	0.000155
3144.24	0.0003079
3153.89	0.000305
3163.53	0.0002848
3173.18	0.0002925
3182.82	0.0002787
3192.47	0.000221
3202.11	0.000271
3211.76	0.00016
3221.4	0.000293
3231.05	0.000385115
3240.69	0.000277
3250.34	0.000136
3259.98	0.000215
3269.63	0
3279.27	0.000241
3288.92	7.7e-05
3298.56	0.000177
3308.21	0.000258
3317.85	0.00043919
3327.49	0.0002935
3337.14	0.000244
3346.78	0.0003338
3356.43	0.000273
3366.07	0.000132
3375.72	0.0005303
3385.36	0.0003197
3395.01	0.000192
3404.65	0.000146
3414.3	0.000246
3423.94	0.000264
3433.59	0.000266
3443.23	0.0003224
3452.88	0.000231
3462.52	0.000166
3472.17	0.0003082
3481.81	0.000265
3491.46	0.000274
3501.1	0.0003107
3510.75	0.000213
3520.39	4.9e-05
3530.04	0.0002926
3539.68	0.000224
3549.32	0.0003059
3558.97	0.00042238
3568.61	0.000137
3578.26	0.000243
3587.9	0.0003024
3597.55	0.000217
3607.19	0.00040237
3616.84	0.00044243
3626.48	0.000271
3636.13	0.0003158
3645.77	0.000183
3655.42	0.00043715
3665.06	0.0003484
3674.71	0.000222
3684.35	0.00037376
3694	0.000233
3703.64	0.0005469
3713.29	0.0003571
3722.93	0.00046409
3732.58	0.0005381
3742.22	0.0006756
3751.86	0.0006833
3761.51	0.0006857
3771.15	0.0002794
3780.8	0.0003003
3790.44	0.000331
3800.09	0.000173
3809.73	0.00046048
3819.38	0.0002998
3829.02	0.0003588
3838.67	0.0003272
3848.31	0.0002828
3857.96	0.000277
3867.6	0.000195
3877.25	0.000226
3886.89	0.000143
3896.54	0.0006388
3906.18	0.0003317
3915.83	0.00047698
3925.47	0.0005914
3935.12	0.0007766
3944.76	0.0008343
3954.41	0.0005628
3964.05	0.0004985
3973.69	0.0003535
3983.34	0.0003264
3992.98	0.000274
