Infrared Spectrum: 2-Hexanoylfuran
Formula: C 10 H 14 O 2
CAS: 14360-50-0
State: gas
Origin: EPA-IR VAPOR PHASE LIBRARY
1/CM	ABSORBANCE
549.9	0.0009899
559.547	0.0009883
569.193	0.0010716
578.84	0.0015004
588.486	0.00254
598.133	0.00311
607.779	0.00196
617.426	0.0013933
627.072	0.0013337
636.719	0.0014957
646.365	0.001423
656.012	0.0010244
665.658	0.000911
675.305	0.0007909
684.951	0.0009518
694.598	0.0010462
704.245	0.0012099
713.891	0.0013886
723.538	0.00201
733.184	0.0044
742.831	0.01082
752.477	0.0133
762.124	0.00625
771.77	0.00261
781.417	0.00186
791.063	0.00179
800.71	0.00172
810.356	0.00183
820.003	0.00216
829.649	0.00236
839.296	0.0017
848.943	0.0013184
858.589	0.0012967
868.236	0.002
877.882	0.00475
887.529	0.00639
897.175	0.00404
906.822	0.0038
916.468	0.00226
926.115	0.0013258
935.761	0.0012124
945.408	0.0012718
955.054	0.0015101
964.701	0.00209
974.347	0.00252
983.994	0.00286
993.64	0.00365
1003.29	0.00752
1012.93	0.00975
1022.58	0.00677
1032.23	0.0071
1041.87	0.00602
1051.52	0.00294
1061.17	0.00182
1070.81	0.00187
1080.46	0.00258
1090.11	0.00258
1099.75	0.0015452
1109.4	0.0013189
1119.05	0.0010788
1128.69	0.00062004
1138.34	0.0010945
1147.99	0.00347
1157.63	0.00669
1167.28	0.0038
1176.92	0.0016117
1186.57	0.0010679
1196.22	0.000881
1205.86	0.0012689
1215.51	0.00237
1225.16	0.00466
1234.8	0.00534
1244.45	0.00662
1254.1	0.00746
1263.74	0.0068
1273.39	0.00616
1283.04	0.00572
1292.68	0.00514
1302.33	0.00456
1311.98	0.00383
1321.62	0.00324
1331.27	0.00304
1340.92	0.00319
1350.56	0.00322
1360.21	0.003
1369.86	0.00274
1379.5	0.00344
1389.15	0.00412
1398.79	0.00315
1408.44	0.00216
1418.09	0.0022
1427.73	0.00223
1437.38	0.00253
1447.03	0.00347
1456.67	0.00586
1466.32	0.0103
1475.97	0.01292
1485.61	0.00762
1495.26	0.00365
1504.91	0.00218
1514.55	0.0012408
1524.2	0.0010949
1533.85	0.0011227
1543.49	0.00164
1553.14	0.00348
1562.79	0.00881
1572.43	0.0118
1582.08	0.00513
1591.73	0.002
1601.37	0.0012273
1611.02	0.0011117
1620.67	0.0012464
1630.31	0.0012578
1639.96	0.0012595
1649.6	0.0015445
1659.25	0.00206
1668.9	0.00322
1678.54	0.00704
1688.19	0.01721
1697.84	0.02516
1707.48	0.01835
1717.13	0.00719
1726.78	0.00282
1736.42	0.0015748
1746.07	0.0012933
1755.72	0.0012388
1765.36	0.0009877
1775.01	0.0007413
1784.66	0.000635563
1794.3	0.000588
1803.95	0.000521
1813.6	0.000487
1823.24	0.000483
1832.89	0.000512
1842.54	0.000519
1852.18	0.000509
1861.83	0.000458
1871.47	0.000505
1881.12	0.000471
1890.77	0.000422
1900.41	0.000419
1910.06	0.000432
1919.71	0.000432
1929.35	0.00045
1939	0.000391
1948.65	0.000397
1958.29	0.000395
1967.94	0.000436
1977.59	0.000381
1987.23	0.000406
1996.88	0.000387
2006.53	0.000456
2016.17	0.000448
2025.82	0.000436
2035.47	0.000408
2045.11	0.000468
2054.76	0.000442
2064.41	0.000455
2074.05	0.000478
2083.7	0.000497
2093.35	0.0005543
2102.99	0.0005323
2112.64	0.000478
2122.28	0.000472
2131.93	0.000476
2141.58	0.000457
2151.22	0.000507
2160.87	0.000484
2170.52	0.000484
2180.16	0.000476
2189.81	0.000501
2199.46	0.000468
2209.1	0.000505
2218.75	0.000483
2228.4	0.000513
2238.04	0.0005596
2247.69	0.000509
2257.34	0.000467
2266.98	0.000518
2276.63	0.000487
2286.28	0.000481
2295.92	0.000488
2305.57	0.000474
2315.22	0.0005322
2324.86	0.000502
2334.51	0.000503
2344.16	0.0005
2353.8	0.0005342
2363.45	0.0005584
2373.09	0.00062784
2382.74	0.0005897
2392.39	0.0005897
2402.03	0.0005751
2411.68	0.0005521
2421.33	0.000484
2430.97	0.0005661
2440.62	0.00059
2450.27	0.0005876
2459.91	0.0005442
2469.56	0.0005987
2479.21	0.00053
2488.85	0.000529
2498.5	0.0005347
2508.15	0.000513
2517.79	0.000508
2527.44	0.000526
2537.09	0.0005769
2546.73	0.000637042
2556.38	0.000635685
2566.03	0.00068111
2575.67	0.00065224
2585.32	0.0005721
2594.96	0.0005514
2604.61	0.0006173
2614.26	0.0006071
2623.9	0.00069205
2633.55	0.00068102
2643.2	0.00072994
2652.84	0.0007458
2662.49	0.00072957
2672.14	0.00068924
2681.78	0.000757
2691.43	0.0007648
2701.08	0.0007952
2710.72	0.00070712
2720.37	0.0007603
2730.02	0.0007926
2739.66	0.0008178
2749.31	0.0008056
2758.96	0.0008515
2768.6	0.0008945
2778.25	0.0009724
2787.9	0.0010137
2797.54	0.0010819
2807.19	0.0012005
2816.84	0.0013862
2826.48	0.0015829
2836.13	0.00208
2845.77	0.00283
2855.42	0.00447
2865.07	0.00662
2874.71	0.00775
2884.36	0.0077
2894.01	0.00682
2903.65	0.00734
2913.3	0.00912
2922.95	0.01229
2932.59	0.01589
2942.24	0.01691
2951.89	0.01483
2961.53	0.01501
2971.18	0.01492
2980.83	0.00858
2990.47	0.00445
3000.12	0.00272
3009.77	0.00197
3019.41	0.0015629
3029.06	0.0011946
3038.71	0.0010577
3048.35	0.0009584
3058	0.0008041
3067.64	0.00084
3077.29	0.00070582
3086.94	0.00065913
3096.58	0.00068019
3106.23	0.0006018
3115.88	0.0008018
3125.52	0.0008798
3135.17	0.0007553
3144.82	0.00067198
3154.46	0.0005609
3164.11	0.000638215
3173.76	0.000437
3183.4	0.00046
3193.05	0.000423
3202.7	0.000374
3212.34	0.00027
3221.99	0.000351
3231.64	0.000188
3241.28	0.000297
3250.93	0.000476
3260.58	0.000199
3270.22	0.000224
3279.87	0.000264
3289.52	0.000287
3299.16	0.000249
3308.81	7e-05
3318.45	0.000212
3328.1	0.000204
3337.75	0.000145
3347.39	0.000247
3357.04	0.000362
3366.69	0.0005495
3376.33	0.0005303
3385.98	0.000536
3395.63	0.00034
3405.27	0.00022
3414.92	0.000154
3424.57	0.000329
3434.21	0.000191
3443.86	0.00017
3453.51	0.000317
3463.15	0.000169
3472.8	0.000135
3482.45	0.000135
3492.09	0.000349
3501.74	0.000162
3511.39	0.000164
3521.03	9.2e-05
3530.68	0.000294
3540.33	9.7e-05
3549.97	0.00018
3559.62	0.000173
3569.26	0.000219
3578.91	0.000293
3588.56	0.000187
3598.2	0.000209
3607.85	7.2e-05
3617.5	0.000294
3627.14	0.000227
3636.79	0.000225
3646.44	0.000173
3656.08	0.000254
3665.73	0.000191
3675.38	0.000227
3685.02	0.000278
3694.67	0.00026
3704.32	0.000261
3713.96	0.000307
3723.61	0.00037
3733.26	0.000325
3742.9	0.000231
3752.55	0.000193
3762.2	0.000285
3771.84	0.000311
3781.49	0.000363
3791.13	0.00029
3800.78	0.000276
3810.43	0.000243
3820.07	0.000229
3829.72	0.000346
3839.37	0.000353
3849.01	0.000312
3858.66	0.000338
3868.31	0.000383
3877.95	0.000349
3887.6	0.000456
3897.25	0.00034
3906.89	0.000241
3916.54	0.000415
3926.19	0.000385
3935.83	0.000402
3945.48	0.000358
3955.13	0.000456
3964.77	0.000264
3974.42	0.000382
3984.07	0.000438
3993.71	0.000402
