Infrared Spectrum: 1,2-Epoxyhexane
Formula: C 6 H 12 O
CAS: 1436-34-6
State: gas
Instrument: HP-GC/MS/IRD
Origin: NIST Mass Spectrometry Data Center
1/CM	ABSORBANCE
550	0.0002952
562	0.0004469
574	0.0003772
586	0.0003813
598	0.0003239
610	0.0001517
622	0.0001066
634	0.0001476
646	3.28e-05
658	0.0001476
670	0.0001927
682	0.0001722
694	0.0002747
706	0.0004059
718	0.0007257
730	0.0012382
742	0.0019106
754	0.0024764
766	0.0029315
778	0.0031693
790	0.0034235
802	0.0038376
814	0.0051988
826	0.0076383
838	0.0092619
850	0.0073226
862	0.0047273
874	0.0035219
886	0.0031242
898	0.0033333
910	0.0040262
922	0.0044854
934	0.0043009
946	0.0039975
958	0.0035055
970	0.0026773
982	0.0018368
994	0.0012464
1006	0.0009881
1018	0.0009594
1030	0.0010168
1042	0.0008405
1054	0.0007298
1066	0.0006888
1078	0.0006683
1090	0.0006109
1102	0.000902
1114	0.0013776
1126	0.0017384
1138	0.0015949
1150	0.0012177
1162	0.0009348
1174	0.0007462
1186	0.0007257
1198	0.0009512
1210	0.0012218
1222	0.0013079
1234	0.0014555
1246	0.0019188
1258	0.0022632
1270	0.0020254
1282	0.0013981
1294	0.0012013
1306	0.0012259
1318	0.0012464
1330	0.0013366
1342	0.0013735
1354	0.0013571
1366	0.0015334
1378	0.0022878
1390	0.0033579
1402	0.0045141
1414	0.0044895
1426	0.0031406
1438	0.0032636
1450	0.0044362
1462	0.0050922
1474	0.0046986
1486	0.0036695
1498	0.0022181
1510	0.0011726
1522	0.0007913
1534	0.0006068
1546	0.0005289
1558	0.000451
1570	0.0004346
1582	0.0004141
1594	0.0003813
1606	0.0003772
1618	0.0003075
1630	0.0003034
1642	0.0002829
1654	0.000246
1666	0.0002747
1678	0.0002747
1690	0.0002378
1702	0.0002296
1714	0.0002255
1726	0.0002378
1738	0.0003034
1750	0.0002788
1762	0.0002091
1774	0.0001681
1786	0.0001476
1798	0.0001271
1810	0.000123
1822	0.0001189
1834	0.0001066
1846	0.0001066
1858	9.43e-05
1870	0.000123
1882	0.0001189
1894	0.0001189
1906	0.0001312
1918	0.0001271
1930	0.0001107
1942	0.0001353
1954	0.0001271
1966	0.0001435
1978	0.0001517
1990	0.0001312
2002	0.0001271
2014	0.0001353
2026	0.0001394
2038	0.0001722
2050	0.0001558
2062	0.0001394
2074	0.0001189
2086	0.0001271
2098	0.0001312
2110	9.43e-05
2122	9.43e-05
2134	0.0001312
2146	0.0001394
2158	0.0001394
2170	0.0001558
2182	0.0001845
2194	0.0001804
2206	0.0001886
2218	0.0002173
2230	0.0002419
2242	0.000328
2254	0.0003485
2266	0.0003034
2278	0.0002255
2290	0.0002255
2302	0.0001722
2314	0.0001271
2326	0.0001107
2338	6.56e-05
2350	8.2e-05
2362	8.2e-05
2374	9.02e-05
2386	6.97e-05
2398	6.97e-05
2410	7.79e-05
2422	5.74e-05
2434	7.38e-05
2446	3.28e-05
2458	1.64e-05
2470	2.46e-05
2482	2.87e-05
2494	1.64e-05
2506	1.64e-05
2518	6.97e-05
2530	7.79e-05
2542	8.2e-05
2554	9.02e-05
2566	0.0001189
2578	0.0001681
2590	0.0002009
2602	0.0002542
2614	0.0002378
2626	0.0002665
2638	0.0002542
2650	0.0003075
2662	0.0003608
2674	0.0004141
2686	0.0004182
2698	0.0004961
2710	0.0004879
2722	0.0005371
2734	0.0006109
2746	0.0007503
2758	0.0007667
2770	0.0008405
2782	0.0009922
2794	0.0012218
2806	0.0016072
2818	0.0021115
2830	0.0030955
2842	0.005207
2854	0.0087699
2866	0.0132143
2878	0.0167608
2890	0.0167485
2902	0.0170396
2914	0.0234889
2926	0.0338127
2938	0.041
2950	0.0388926
2962	0.0374084
2974	0.0352682
2986	0.0257685
2998	0.0169904
3010	0.0112668
3022	0.0082861
3034	0.0098646
3046	0.0117588
3058	0.008118
3070	0.0034891
3082	0.0017343
3094	0.0011808
3106	0.0009512
3118	0.0007421
3130	0.0006191
3142	0.0005166
3154	0.0004059
3166	0.000369
3178	0.0003362
3190	0.0003034
3202	0.0002419
3214	0.0001763
3226	0.0001435
3238	5.74e-05
3250	8.61e-05
3262	3.28e-05
3274	3.69e-05
3286	7.79e-05
3298	7.38e-05
3310	6.97e-05
3322	0.0001066
3334	4.92e-05
3346	8.61e-05
3358	3.28e-05
3370	2.46e-05
3382	6.56e-05
3394	4.92e-05
3406	6.15e-05
3418	6.56e-05
3430	6.97e-05
3442	3.28e-05
3454	8.2e-05
3466	9.02e-05
3478	6.97e-05
3490	5.33e-05
3502	2.46e-05
3514	8.61e-05
3526	8.2e-05
3538	6.15e-05
3550	2.46e-05
3562	5.74e-05
3574	6.97e-05
3586	4.92e-05
3598	4.1e-05
3610	7.38e-05
3622	7.79e-05
3634	6.97e-05
3646	9.02e-05
3658	0.0001394
3670	0.000123
3682	0.0001763
3694	0.0001312
3706	0.000205
3718	0.000246
3730	0.0002091
3742	0.0002296
3754	0.0002665
3766	0.0002132
3778	0.0002419
3790	0.0002419
3802	0.0003075
3814	0.0002624
3826	0.000287
3838	0.0002337
