Infrared Spectrum: 2-Norbornanamine, hydrochloride
Formula: C7 H14 Cl N
CAS: 14370-45-7
State: SOLID (SPLIT MULL), FLUOROLUBE FOR 3800-1330 CM^-^1, NUJOL FOR 1330-400 CM^-^1
Class: COBLENTZ III
Instrument: DOW KBr FOREPRISM-GRATING
Instrument parameters: BLAZED AT 3.5, 12.0, 20.0 MICRON AND CHANGED AT 5.0, 7.5, 14.9 MICRON
Sampling: TRANSMISSION
Resolution: 2
Origin: DOW CHEMICAL COMPANY
1/CM	TRANSMITTANCE
3796	0.8816
3787	0.8816
3778	0.8816
3769	0.8816
3760	0.8817
3751	0.8816
3742	0.8766
3733	0.8778
3724	0.88
3715	0.8824
3706	0.883
3697	0.8783
3688	0.8771
3679	0.8789
3670	0.8808
3661	0.8827
3652	0.8846
3643	0.8864
3634	0.887
3625	0.8865
3616	0.8847
3607	0.8799
3598	0.8808
3589	0.8837
3580	0.8521
3571	0.8737
3562	0.8821
3553	0.8838
3544	0.8848
3535	0.885
3526	0.8852
3517	0.8854
3508	0.8854
3499	0.8853
3490	0.8852
3481	0.8851
3472	0.8848
3463	0.8844
3454	0.884
3445	0.8836
3436	0.8833
3427	0.8835
3418	0.8839
3409	0.8841
3400	0.8845
3391	0.8847
3382	0.8847
3373	0.8847
3364	0.8847
3355	0.8847
3346	0.8851
3337	0.8854
3328	0.8859
3319	0.886
3310	0.8858
3301	0.8855
3292	0.8847
3283	0.8836
3274	0.8825
3265	0.8805
3256	0.8778
3247	0.8724
3238	0.8657
3229	0.8527
3220	0.82
3211	0.8057
3202	0.8064
3193	0.8136
3184	0.8176
3175	0.8186
3166	0.8169
3157	0.8108
3148	0.7974
3139	0.7774
3130	0.7533
3121	0.7249
3112	0.6855
3103	0.6276
3094	0.6032
3085	0.5867
3076	0.5602
3067	0.5173
3058	0.4795
3049	0.4372
3040	0.3296
3031	0.2854
3022	0.2493
3013	0.1923
3004	0.1834
2995	0.1802
2986	0.1308
2977	0.0825
2968	0.0614
2959	0.0493
2950	0.0489
2941	0.068
2932	0.0846
2923	0.0918
2914	0.1
2905	0.1233
2896	0.1342
2887	0.1384
2878	0.1445
2869	0.1678
2860	0.2417
2851	0.3532
2842	0.4045
2833	0.4399
2824	0.4527
2815	0.456
2806	0.4369
2797	0.4564
2788	0.5028
2779	0.5525
2770	0.564
2761	0.5779
2752	0.5956
2743	0.5977
2734	0.6009
2725	0.6192
2716	0.628
2707	0.6297
2698	0.5876
2689	0.5673
2680	0.6178
2671	0.6811
2662	0.6951
2653	0.6944
2644	0.6935
2635	0.681
2626	0.6381
2617	0.6349
2608	0.6394
2599	0.669
2590	0.6803
2581	0.7143
2572	0.7571
2563	0.7765
2554	0.7782
2545	0.7643
2536	0.7586
2527	0.7303
2518	0.7386
2509	0.7558
2500	0.7821
2491	0.796
2482	0.7932
2473	0.7878
2464	0.8053
2455	0.8185
2446	0.8243
2437	0.8255
2428	0.8232
2419	0.8217
2410	0.8246
2401	0.8307
2392	0.8368
2383	0.8427
2374	0.8482
2365	0.8495
2356	0.8506
2347	0.8504
2338	0.8498
2329	0.8492
2320	0.8484
2311	0.8482
2302	0.8481
2293	0.8483
2284	0.8494
2275	0.8505
2266	0.8516
2257	0.8528
2248	0.8547
2239	0.8566
2230	0.8589
2221	0.8612
2212	0.8636
2203	0.8655
2194	0.8673
2185	0.8688
2176	0.8698
2167	0.8707
2158	0.8706
2149	0.869
2140	0.8674
2131	0.8664
2122	0.8656
2113	0.8649
2104	0.8639
2095	0.8621
2086	0.8517
2077	0.8332
2068	0.798
2059	0.7506
2050	0.7115
2041	0.7201
2032	0.7528
2023	0.7748
2014	0.7903
2005	0.7942
1996	0.7969
1987	0.8171
1978	0.8289
1969	0.8314
1960	0.8561
1951	0.8511
1942	0.8514
1933	0.8525
1924	0.8536
1915	0.854
1906	0.8493
1897	0.8453
1888	0.8497
1879	0.8539
1870	0.8568
1861	0.8555
1852	0.8503
1843	0.8492
1834	0.8501
1825	0.8511
1816	0.8523
1807	0.8521
1798	0.851
1789	0.8454
1780	0.8421
1771	0.8424
1762	0.8428
1753	0.8437
1744	0.8455
1735	0.8457
1726	0.8443
1717	0.8396
1708	0.8364
1699	0.8362
1690	0.8362
1681	0.8357
1672	0.8343
1663	0.8328
1654	0.8318
1645	0.8302
1636	0.8284
1627	0.8257
1618	0.7256
1609	0.6861
1600	0.638
1591	0.7448
1582	0.7886
1573	0.8012
1564	0.8011
1555	0.8006
1546	0.799
1537	0.7971
1528	0.795
1519	0.7843
1510	0.6083
1501	0.3484
1492	0.5486
1483	0.6221
1474	0.6084
1465	0.7201
1456	0.7388
1447	0.7158
1438	0.7718
1429	0.7876
1420	0.7904
1411	0.7903
1402	0.6676
1393	0.5735
1384	0.7211
1375	0.759
1366	0.7614
1357	0.7634
1348	0.7631
1339	0.7504
1330	0.7449
1321	0.7047
1312	0.714
1303	0.678
1294	0.756
1285	0.7219
1276	0.7567
1267	0.7628
1258	0.7515
1249	0.7572
1240	0.7655
1231	0.7721
1222	0.7745
1213	0.7832
1204	0.7462
1195	0.7768
1186	0.791
1177	0.7921
1168	0.7656
1159	0.7864
1150	0.7701
1141	0.6078
1132	0.7825
1123	0.7655
1114	0.7761
1105	0.711
1096	0.7733
1087	0.7946
1078	0.7969
1069	0.8006
1060	0.7404
1051	0.7507
1042	0.7975
1033	0.6861
1024	0.8012
1015	0.7939
1006	0.8085
997	0.811
988	0.8118
979	0.7904
970	0.8131
961	0.8203
952	0.8209
943	0.7942
934	0.8139
925	0.8075
916	0.825
907	0.8321
898	0.834
889	0.8318
880	0.8198
871	0.8353
862	0.8466
853	0.8505
844	0.8521
835	0.8415
826	0.8447
817	0.8552
808	0.8268
799	0.836
790	0.8643
781	0.867
772	0.8624
763	0.8408
754	0.8537
745	0.8545
736	0.8417
727	0.7869
718	0.8213
709	0.8746
700	0.8911
691	0.8975
682	0.9001
673	0.898
664	0.8949
655	0.8949
646	0.8941
637	0.8931
628	0.8909
619	0.8874
610	0.8834
601	0.8792
592	0.8756
583	0.8728
574	0.8703
565	0.8681
556	0.862
547	0.8564
538	0.8493
529	0.8394
520	0.8408
511	0.8406
502	0.8092
493	0.793
484	0.8176
475	0.822
466	0.8032
457	0.7844
448	0.7718
439	0.7645
430	0.7587
421	0.7508
412	0.7349
403	0.7128
394	0.7054
385	0.7005
