Infrared Spectrum: 1-Phenyl-1-heptyne
Formula: C 13 H 16
CAS: 14374-45-9
State: gas
Instrument: HP-GC/MS/IRD
Origin: NIST Mass Spectrometry Data Center
1/CM	ABSORBANCE
550	0.0004675
562	0.0005025
574	0.0003825
586	0.0001975
598	0.00038
610	0.0003825
622	0.00032
634	0.000395
646	0.0005
658	0.0008975
670	0.0023375
682	0.0045875
694	0.0054
706	0.003245
718	0.0019575
730	0.00279
742	0.005705
754	0.0078325
766	0.0048275
778	0.0017325
790	0.0006225
802	0.0003375
814	0.00029
826	0.00022
838	0.000335
850	0.0003525
862	0.0004025
874	0.0004375
886	0.0005025
898	0.00074
910	0.00082
922	0.00057
934	0.0003625
946	0.0002825
958	0.00032
970	0.0004425
982	0.0005025
994	0.0004025
1006	0.0005325
1018	0.00097
1030	0.001095
1042	0.000535
1054	0.0007075
1066	0.0008525
1078	0.0006375
1090	0.00045
1102	0.0004525
1114	0.0003025
1126	7e-05
1138	7e-05
1150	3.5e-05
1162	3.25e-05
1174	5.5e-05
1186	9.75e-05
1198	0.00013
1210	0.00013
1222	0.0002125
1234	0.00029
1246	0.0003725
1258	0.0005525
1270	0.0006475
1282	0.001045
1294	0.0012925
1306	0.0013225
1318	0.001885
1330	0.00326
1342	0.0023825
1354	0.00195
1366	0.001525
1378	0.0011925
1390	0.000995
1402	0.0006125
1414	0.00078
1426	0.0015625
1438	0.0030625
1450	0.00279
1462	0.00279
1474	0.0028425
1486	0.00612
1498	0.0041775
1510	0.0014825
1522	0.0006075
1534	0.000405
1546	0.0003575
1558	0.000455
1570	0.00067
1582	0.0013175
1594	0.00307
1606	0.002305
1618	0.0004375
1630	0.00023
1642	0.000225
1654	0.0003425
1666	0.000395
1678	0.00014
1690	0.0001225
1702	0.00011
1714	0.0001375
1726	0.000235
1738	0.00028
1750	0.000215
1762	0.0001475
1774	0.000205
1786	0.0003625
1798	0.000435
1810	0.0002475
1822	0.0001875
1834	0.0001125
1846	0.0001075
1858	0.0002125
1870	0.0003475
1882	0.0004725
1894	0.000245
1906	0.000105
1918	0.000175
1930	0.000295
1942	0.000435
1954	0.000515
1966	0.0001575
1978	2.5e-05
1990	1.75e-05
2002	3.5e-05
2014	2e-05
2026	4e-05
2038	3.75e-05
2050	2.75e-05
2062	1.25e-05
2074	2.75e-05
2086	2.5e-05
2098	5e-06
2110	2.5e-05
2122	1.25e-05
2134	2.5e-05
2146	2.25e-05
2158	4e-05
2170	9.25e-05
2182	7e-05
2194	0.0001925
2206	0.000425
2218	0.00063
2230	0.000615
2242	0.000555
2254	0.000265
2266	0.0001575
2278	0.0001075
2290	0.0001025
2302	7.5e-05
2314	0.000165
2326	0.0001125
2338	0.000125
2350	0.000125
2362	8.5e-05
2374	7.25e-05
2386	4.25e-05
2398	6.75e-05
2410	1.75e-05
2422	6e-05
2434	2.75e-05
2446	2e-05
2458	3.25e-05
2470	7.5e-06
2482	2.5e-05
2494	3.75e-05
2506	5.75e-05
2518	4.5e-05
2530	4.25e-05
2542	0.0001
2554	0.0001025
2566	9.5e-05
2578	0.0001025
2590	0.00014
2602	0.0001425
2614	0.0001775
2626	0.0001575
2638	0.00023
2650	0.000255
2662	0.00031
2674	0.00031
2686	0.0003125
2698	0.000305
2710	0.0002625
2722	0.0003075
2734	0.00033
2746	0.0003925
2758	0.000435
2770	0.0004825
2782	0.000525
2794	0.000685
2806	0.0008775
2818	0.0011775
2830	0.00174
2842	0.0030575
2854	0.00528
2866	0.00828
2878	0.008605
2890	0.0074325
2902	0.00768
2914	0.0111825
2926	0.01753
2938	0.025
2950	0.01933
2962	0.0150875
2974	0.012535
2986	0.0056425
2998	0.0030325
3010	0.002475
3022	0.0024925
3034	0.0033875
3046	0.00317
3058	0.00426
3070	0.0060475
3082	0.0040475
3094	0.003445
3106	0.0021875
3118	0.0008925
3130	0.0005175
3142	0.0004425
3154	0.00036
3166	0.000335
3178	0.00022
3190	0.00026
3202	0.00026
3214	0.0001925
3226	0.00016
3238	0.0001675
3250	0.00011
3262	9e-05
3274	8.75e-05
3286	0.0001625
3298	0.0001275
3310	0.00013
3322	9.5e-05
3334	5e-05
3346	4.25e-05
3358	8.25e-05
3370	4.25e-05
3382	7.75e-05
3394	8.5e-05
3406	2.75e-05
3418	7.75e-05
3430	6.25e-05
3442	4.5e-05
3454	1.5e-05
3466	4.25e-05
3478	9.25e-05
3490	6.5e-05
3502	0.0001375
3514	8e-05
3526	7.25e-05
3538	8.25e-05
3550	4.25e-05
3562	4.75e-05
3574	2.75e-05
3586	4.5e-05
3598	9.5e-05
3610	6.25e-05
3622	1.75e-05
3634	8.75e-05
3646	0.0001275
3658	7e-05
3670	0.0001675
3682	0.000125
3694	0.0001025
3706	0.000145
3718	0.00016
3730	0.000105
3742	0.00017
3754	0.0002025
3766	0.000155
3778	0.0001975
3790	0.00011
3802	0.00012
3814	0.000135
3826	0.0001575
3838	0.0001375
