Infrared Spectrum: Glycine, hydrazide
Formula: C2 H7 N3 O
CAS: 14379-80-7
State: SOLID (1 mg / 650 mg KBr DISC)
Class: COBLENTZ III
Instrument: PERKIN-ELMER 21 (GRATING)
Instrument parameters: FILTER CHANGE ABOUT 1070 CM^-^1
Resolution: 2
Origin: SOUTHERN RESEARCH INSTITUTE
1/CM	TRANSMITTANCE
607	0.8339
616	0.8197
625	0.8065
634	0.7958
643	0.786
652	0.7747
661	0.7624
670	0.75
679	0.7366
688	0.7244
697	0.715
706	0.7079
715	0.7027
724	0.6992
733	0.6966
742	0.6953
751	0.6962
760	0.6968
769	0.6884
778	0.6751
787	0.6621
796	0.6482
805	0.6307
814	0.6295
823	0.6505
832	0.6654
841	0.6622
850	0.6508
859	0.6355
868	0.6109
877	0.5765
886	0.5353
895	0.4951
904	0.4879
913	0.4897
922	0.5026
931	0.5078
940	0.5025
949	0.4875
958	0.4613
967	0.4525
976	0.4669
985	0.4873
994	0.5112
1003	0.5398
1012	0.5616
1021	0.5906
1030	0.6288
1039	0.6718
1048	0.6957
1057	0.6985
1066	0.692
1075	0.6717
1084	0.6518
1093	0.6389
1102	0.629
1111	0.6207
1120	0.6161
1129	0.6205
1138	0.6279
1147	0.6346
1156	0.6397
1165	0.6368
1174	0.6319
1183	0.6569
1192	0.7221
1201	0.7283
1210	0.7261
1219	0.7149
1228	0.6926
1237	0.6584
1246	0.6191
1255	0.5681
1264	0.4966
1273	0.4508
1282	0.4264
1291	0.413
1300	0.4188
1309	0.4423
1318	0.4634
1327	0.4726
1336	0.4782
1345	0.4966
1354	0.5354
1363	0.5542
1372	0.558
1381	0.5544
1390	0.5484
1399	0.5408
1408	0.5327
1417	0.5223
1426	0.5106
1435	0.4946
1444	0.4643
1453	0.4277
1462	0.4111
1471	0.4119
1480	0.4148
1489	0.3899
1498	0.336
1507	0.3053
1516	0.2907
1525	0.2996
1534	0.3084
1543	0.3027
1552	0.2884
1561	0.2679
1570	0.2406
1579	0.2077
1588	0.1851
1597	0.1729
1606	0.1687
1615	0.1671
1624	0.1677
1633	0.1603
1642	0.1443
1651	0.1269
1660	0.12
1669	0.1296
1678	0.1911
1687	0.3451
1696	0.533
1705	0.6264
1714	0.6745
1723	0.7137
1732	0.7326
1741	0.7547
1750	0.77
1759	0.7843
1768	0.7978
1777	0.8089
1786	0.8197
1795	0.8298
1804	0.8379
1813	0.8447
1822	0.8491
1831	0.8527
1840	0.8564
1849	0.8591
1858	0.8602
1867	0.8597
1876	0.8605
1885	0.86
1894	0.8595
1903	0.8589
1912	0.8582
1921	0.8594
1930	0.8604
1939	0.8578
1948	0.8531
1957	0.8485
1966	0.8466
1975	0.846
1984	0.8463
1993	0.8471
2002	0.8445
2011	0.8397
2020	0.8352
2029	0.8331
2038	0.832
2047	0.8314
2056	0.8308
2065	0.8303
2074	0.8298
2083	0.8296
2092	0.8294
2101	0.8291
2110	0.829
2119	0.8289
2128	0.8288
2137	0.8288
2146	0.8287
2155	0.8287
2164	0.8286
2173	0.8284
2182	0.8279
2191	0.8275
2200	0.827
2209	0.8264
2218	0.8258
2227	0.8237
2236	0.8212
2245	0.8186
2254	0.816
2263	0.8133
2272	0.8124
2281	0.8118
2290	0.8095
2299	0.8071
2308	0.8045
2317	0.8002
2326	0.7952
2335	0.7903
2344	0.7854
2353	0.7805
2362	0.7759
2371	0.7724
2380	0.7688
2389	0.7652
2398	0.7614
2407	0.7576
2416	0.7543
2425	0.7517
2434	0.749
2443	0.7463
2452	0.7433
2461	0.7402
2470	0.7372
2479	0.7343
2488	0.7315
2497	0.7291
2506	0.7274
2515	0.7239
2524	0.7193
2533	0.714
2542	0.7087
2551	0.7034
2560	0.6979
2569	0.6923
2578	0.6868
2587	0.6826
2596	0.6788
2605	0.6751
2614	0.6721
2623	0.6693
2632	0.6666
2641	0.6646
2650	0.6627
2659	0.6621
2668	0.6654
2677	0.6694
2686	0.6707
2695	0.6691
2704	0.6665
2713	0.6619
2722	0.6549
2731	0.6459
2740	0.6357
2749	0.6244
2758	0.6066
2767	0.5886
2776	0.5685
2785	0.5498
2794	0.5378
2803	0.5302
2812	0.525
2821	0.5227
2830	0.5223
2839	0.518
2848	0.5073
2857	0.4981
2866	0.4897
2875	0.483
2884	0.4768
2893	0.4712
2902	0.4665
2911	0.4632
2920	0.459
2929	0.4534
2938	0.4447
2947	0.4361
2956	0.4286
2965	0.4224
2974	0.4169
2983	0.4126
2992	0.4097
3001	0.4074
3010	0.408
3019	0.41
3028	0.4135
3037	0.4188
3046	0.4252
3055	0.4324
3064	0.4355
3073	0.4315
3082	0.423
3091	0.4074
3100	0.3859
3109	0.3615
3118	0.3367
3127	0.3114
3136	0.2895
3145	0.2772
3154	0.2689
3163	0.2607
3172	0.2525
3181	0.2444
3190	0.2356
3199	0.2267
3208	0.2184
3217	0.2103
3226	0.2023
3235	0.1941
3244	0.1919
3253	0.1935
3262	0.197
3271	0.2043
3280	0.2158
3289	0.2304
3298	0.2469
3307	0.2641
3316	0.2825
3325	0.3017
3334	0.325
3343	0.3522
3352	0.3789
3361	0.4043
3370	0.4361
3379	0.4695
3388	0.5058
3397	0.5342
3406	0.5527
3415	0.568
3424	0.5836
3433	0.6
3442	0.6154
3451	0.6277
3460	0.6401
3469	0.6523
3478	0.6642
3487	0.676
3496	0.6866
3505	0.6955
3514	0.7045
3523	0.7136
3532	0.7255
3541	0.7373
3550	0.7509
3559	0.7687
3568	0.7876
3577	0.8041
3586	0.8148
3595	0.8241
3604	0.8312
3613	0.8351
3622	0.8367
3631	0.8388
3640	0.8419
3649	0.845
3658	0.8481
3667	0.8507
3676	0.853
3685	0.8552
3694	0.8575
3703	0.8597
3712	0.8617
3721	0.8637
3730	0.8657
3739	0.8677
3748	0.8691
3757	0.8702
3766	0.8714
3775	0.8726
3784	0.8733
3793	0.8739
3802	0.8745
3811	0.8751
3820	0.8751
3829	0.875
3838	0.8749
3847	0.8747
3856	0.8744
3865	0.8743
3874	0.8744
3883	0.8747
3892	0.8755
