Infrared Spectrum: trans-1,2-Dichlorocyclopentane
Formula: C 5 H 8 Cl 2
CAS: 14376-81-9
State: gas
Instrument: HP-GC/MS/IRD
Origin: NIST Mass Spectrometry Data Center
1/CM	ABSORBANCE
550	0.0003135
562	9.13e-05
574	8.36e-05
586	0.0003729
598	0.0007106
610	0.0012111
622	0.0018909
634	0.0022044
646	0.0023694
658	0.0033836
670	0.0047883
682	0.0048268
694	0.0039435
706	0.003223
718	0.0026631
730	0.0022594
742	0.0018568
754	0.0015092
766	0.0014465
778	0.0017116
790	0.0021296
802	0.0023881
814	0.0021549
826	0.0015719
838	0.0010813
850	0.0009625
862	0.0010252
874	0.00154
886	0.0025399
898	0.0029304
910	0.0020537
922	0.0010615
934	0.0006908
946	0.0006259
958	0.0006292
970	0.0004928
982	0.0003069
994	0.0002684
1006	0.0004818
1018	0.0010494
1030	0.0013497
1042	0.001848
1054	0.0016786
1066	0.0008151
1078	0.0003047
1090	0.0002464
1102	0.0002332
1114	0.0002365
1126	0.0002816
1138	0.0003905
1150	0.0004334
1162	0.0004411
1174	0.0005511
1186	0.0009614
1198	0.0024596
1210	0.0039853
1222	0.0032912
1234	0.0018579
1246	0.0014586
1258	0.0016214
1270	0.0017666
1282	0.0020691
1294	0.0019503
1306	0.0016302
1318	0.002123
1330	0.0019217
1342	0.0009339
1354	0.0003102
1366	0.0002288
1378	0.0002288
1390	0.000198
1402	0.0003025
1414	0.0005346
1426	0.0012078
1438	0.0022528
1450	0.0025377
1462	0.0023001
1474	0.0019393
1486	0.0010989
1498	0.0004972
1510	0.0002574
1522	0.0001738
1534	0.0001452
1546	9.79e-05
1558	6.6e-05
1570	3.08e-05
1582	1.76e-05
1594	1.54e-05
1606	2.31e-05
1618	2.42e-05
1630	3.74e-05
1642	9.9e-06
1654	2.42e-05
1666	5.06e-05
1678	6.38e-05
1690	5.06e-05
1702	3.63e-05
1714	2.42e-05
1726	5.83e-05
1738	6.38e-05
1750	6.05e-05
1762	2.86e-05
1774	4.4e-05
1786	7.59e-05
1798	6.6e-05
1810	5.06e-05
1822	3.52e-05
1834	9.9e-06
1846	6.93e-05
1858	6.05e-05
1870	5.39e-05
1882	6.16e-05
1894	4.62e-05
1906	5.06e-05
1918	8.03e-05
1930	9.02e-05
1942	7.59e-05
1954	5.72e-05
1966	6.27e-05
1978	5.28e-05
1990	4.29e-05
2002	2.86e-05
2014	3.52e-05
2026	4.07e-05
2038	4.51e-05
2050	3.08e-05
2062	6.27e-05
2074	6.16e-05
2086	7.7e-05
2098	9.13e-05
2110	8.8e-05
2122	8.69e-05
2134	8.8e-05
2146	8.69e-05
2158	0.0001254
2170	0.0001023
2182	0.0001122
2194	0.0001232
2206	0.000121
2218	0.0001133
2230	9.35e-05
2242	7.81e-05
2254	9.68e-05
2266	9.68e-05
2278	6.93e-05
2290	9.79e-05
2302	0.0001056
2314	0.000121
2326	0.0001243
2338	0.000187
2350	0.0001826
2362	0.0001474
2374	0.0001243
2386	0.0001034
2398	5.83e-05
2410	7.48e-05
2422	7.04e-05
2434	6.93e-05
2446	6.05e-05
2458	9.02e-05
2470	7.48e-05
2482	7.7e-05
2494	8.25e-05
2506	4.29e-05
2518	6.71e-05
2530	6.38e-05
2542	5.72e-05
2554	6.27e-05
2566	9.24e-05
2578	5.39e-05
2590	2.75e-05
2602	5.06e-05
2614	6.27e-05
2626	7.92e-05
2638	8.03e-05
2650	4.07e-05
2662	3.3e-05
2674	6.16e-05
2686	2.42e-05
2698	7.59e-05
2710	6.27e-05
2722	3.41e-05
2734	5.83e-05
2746	8.25e-05
2758	0.0001023
2770	0.0001397
2782	0.000154
2794	0.0001496
2806	0.0002013
2818	0.0001903
2830	0.0002761
2842	0.0004653
2854	0.0008668
2866	0.0014784
2878	0.0020812
2890	0.002486
2902	0.0024915
2914	0.0025685
2926	0.0032989
2938	0.0045551
2950	0.0062128
2962	0.0083666
2974	0.0102674
2986	0.0109472
2998	0.0081818
3010	0.0041085
3022	0.0019448
3034	0.0008734
3046	0.0005676
3058	0.0003938
3070	0.0002926
3082	0.0003047
3094	0.0002365
3106	0.000176
3118	0.0001122
3130	0.0001034
3142	0.0001089
3154	9.57e-05
3166	0.0001001
3178	6.27e-05
3190	9.46e-05
3202	8.58e-05
3214	7.92e-05
3226	0.0001045
3238	4.4e-05
3250	0.0001012
3262	0.0001089
3274	0.0001089
3286	0.0001067
3298	0.0001034
3310	0.0001023
3322	6.82e-05
3334	9.68e-05
3346	5.83e-05
3358	9.68e-05
3370	8.25e-05
3382	5.39e-05
3394	8.25e-05
3406	7.81e-05
3418	9.9e-05
3430	5.28e-05
3442	8.03e-05
3454	6.16e-05
3466	6.93e-05
3478	5.28e-05
3490	0.0001078
3502	2.42e-05
3514	0.0001045
3526	9.79e-05
3538	9.79e-05
3550	0.0001111
3562	9.79e-05
3574	0.0001111
3586	9.79e-05
3598	8.69e-05
3610	0.0001089
3622	0.0001078
3634	0.0001386
3646	0.0001386
3658	0.0001067
3670	0.0001364
3682	0.000132
3694	0.0001133
3706	0.0001199
3718	0.0001672
3730	0.000121
3742	0.000143
3754	0.0001595
3766	0.0001518
3778	0.0001408
3790	0.0001958
3802	0.0001045
3814	0.0001276
3826	0.0001903
3838	0.0002101
