Infrared Spectrum: 3,3,5,5-Tetramethylcyclohexanone
Formula: C 10 H 18 O
CAS: 14376-79-5
State: gas
Instrument: HP-GC/MS/IRD
Origin: NIST Mass Spectrometry Data Center
1/CM	ABSORBANCE
550	0.000952
562	0.0004305
574	0.000231
586	0.0001225
598	0.000182
610	9.8e-05
622	7e-05
634	5.6e-05
646	0.0001015
658	5.6e-05
670	8.75e-05
682	5.95e-05
694	3.5e-05
706	2.8e-05
718	3.5e-05
730	6.3e-05
742	0.0001295
754	0.0001575
766	0.0001155
778	7.35e-05
790	0.0001085
802	0.0001715
814	0.000112
826	0.0002765
838	0.000329
850	0.000252
862	0.000168
874	0.000203
886	0.000273
898	0.0003745
910	0.000364
922	0.000343
934	0.000399
946	0.0003535
958	0.000434
970	0.0005075
982	0.0003255
994	0.0001855
1006	0.000196
1018	0.000119
1030	0.0002065
1042	0.0003045
1054	0.0004865
1066	0.0003885
1078	0.000364
1090	0.0006685
1102	0.000868
1114	0.000651
1126	0.0005495
1138	0.0006405
1150	0.0007315
1162	0.00084
1174	0.001204
1186	0.0017745
1198	0.001995
1210	0.002835
1222	0.005243
1234	0.004907
1246	0.0032235
1258	0.003094
1270	0.0057365
1282	0.0063525
1294	0.0039865
1306	0.0020475
1318	0.0012005
1330	0.0015225
1342	0.002828
1354	0.0026635
1366	0.003122
1378	0.004039
1390	0.0032235
1402	0.002401
1414	0.00238
1426	0.0030345
1438	0.0025585
1450	0.003283
1462	0.004606
1474	0.003731
1486	0.0020755
1498	0.0009415
1510	0.000455
1522	0.0002975
1534	0.0002345
1546	0.000203
1558	0.0002065
1570	0.000224
1582	0.000217
1594	0.000224
1606	0.000252
1618	0.000329
1630	0.000455
1642	0.0005565
1654	0.0006965
1666	0.0010675
1678	0.001645
1690	0.002485
1702	0.004991
1714	0.0140455
1726	0.024661
1738	0.017535
1750	0.0065905
1762	0.0032935
1774	0.0017465
1786	0.000931
1798	0.0005915
1810	0.0004865
1822	0.000364
1834	0.000245
1846	0.000182
1858	0.000182
1870	0.0001505
1882	0.0001295
1894	0.000147
1906	0.0001225
1918	0.000112
1930	0.0001225
1942	0.0001225
1954	7.7e-05
1966	7e-05
1978	4.2e-05
1990	5.25e-05
2002	6.3e-05
2014	5.25e-05
2026	6.3e-05
2038	7e-05
2050	8.75e-05
2062	9.1e-05
2074	8.75e-05
2086	0.0001015
2098	8.05e-05
2110	0.000133
2122	0.0001085
2134	0.0001155
2146	7.7e-05
2158	8.05e-05
2170	7.35e-05
2182	4.9e-05
2194	8.75e-05
2206	5.6e-05
2218	4.55e-05
2230	4.2e-05
2242	3.5e-05
2254	5.6e-05
2266	2.8e-05
2278	4.2e-05
2290	5.95e-05
2302	4.9e-05
2314	5.6e-05
2326	4.55e-05
2338	2.8e-05
2350	3.15e-05
2362	2.45e-05
2374	4.2e-05
2386	3.15e-05
2398	2.8e-05
2410	3.15e-05
2422	1.05e-05
2434	2.8e-05
2446	2.45e-05
2458	1.75e-05
2470	3.85e-05
2482	3.5e-05
2494	6.65e-05
2506	6.65e-05
2518	5.95e-05
2530	5.95e-05
2542	7.7e-05
2554	7.7e-05
2566	8.4e-05
2578	5.25e-05
2590	4.2e-05
2602	7e-05
2614	5.6e-05
2626	6.3e-05
2638	9.8e-05
2650	0.000133
2662	0.0002065
2674	0.000245
2686	0.0002345
2698	0.000231
2710	0.0002975
2722	0.0004025
2734	0.0004305
2746	0.0003885
2758	0.000308
2770	0.00042
2782	0.000511
2794	0.0005775
2806	0.000826
2818	0.0013125
2830	0.002023
2842	0.0028595
2854	0.003654
2866	0.0060165
2878	0.0094605
2890	0.0112665
2902	0.014224
2914	0.0151935
2926	0.013041
2938	0.0139335
2950	0.021518
2962	0.035
2974	0.0206115
2986	0.007189
2998	0.0046235
3010	0.002681
3022	0.001148
3034	0.0007105
3046	0.0005145
3058	0.000427
3070	0.0003815
3082	0.0003885
3094	0.0003325
3106	0.00028
3118	0.0002485
3130	0.000301
3142	0.00028
3154	0.000287
3166	0.000301
3178	0.0002905
3190	0.0003045
3202	0.0003815
3214	0.0003325
3226	0.0002345
3238	0.0001505
3250	0.000175
3262	0.000105
3274	5.95e-05
3286	9.8e-05
3298	8.4e-05
3310	8.75e-05
3322	0.000119
3334	6.65e-05
3346	9.8e-05
3358	9.45e-05
3370	0.0001085
3382	0.0001225
3394	0.0001365
3406	0.0002345
3418	0.000301
3430	0.0004095
3442	0.00042
3454	0.000301
3466	0.0001645
3478	0.0001365
3490	0.000133
3502	8.75e-05
3514	9.1e-05
3526	1.4e-05
3538	9.8e-05
3550	2.45e-05
3562	5.25e-05
3574	5.25e-05
3586	5.25e-05
3598	6.3e-05
3610	2.45e-05
3622	0
3634	4.55e-05
3646	3.5e-06
3658	2.1e-05
3670	2.1e-05
3682	1.05e-05
3694	4.55e-05
3706	5.25e-05
3718	2.8e-05
3730	1.05e-05
3742	5.6e-05
3754	3.15e-05
3766	4.55e-05
3778	7.35e-05
3790	0.0001015
3802	7e-05
3814	5.25e-05
3826	5.95e-05
3838	5.95e-05
