Infrared Spectrum: RHODANINE, 5-BENZYLIDENE-3-SALICYLIDENEAMINO-
Formula: C17 H12 N2 O2 S2
CAS: 1438-25-1
State: SOLID (KBr PELLET)
Melting point: 151-153 C
Class: COBLENTZ
Instrument: Not specified, most likely a prism, grating, or hybrid spectrometer.
Sampling: TRANSMISSION
Resolution: 4
Origin: TENNESSEE EASTMAN COMPANY, RESEARCH LABORATORIES
MICROMETERS	TRANSMITTANCE
2.007	0.711
2.04803	0.708
2.08905	0.708
2.13008	0.711
2.17111	0.716
2.21213	0.727
2.25316	0.737
2.29418	0.747
2.33521	0.753
2.37624	0.756
2.41726	0.765
2.45829	0.771
2.49932	0.782
2.54034	0.785
2.58137	0.789
2.6224	0.789
2.66342	0.795
2.70445	0.794
2.74548	0.785
2.7865	0.754
2.82753	0.701
2.86855	0.672
2.90958	0.65
2.95061	0.646
2.99163	0.686
3.03266	0.71
3.07369	0.74
3.11471	0.749
3.15574	0.754
3.19677	0.758
3.23779	0.763
3.27882	0.749
3.31984	0.746
3.36087	0.799
3.4019	0.801
3.44292	0.825
3.48395	0.838
3.52498	0.852
3.566	0.866
3.60703	0.873
3.64806	0.879
3.68908	0.89
3.73011	0.891
3.77113	0.893
3.81216	0.902
3.85319	0.91
3.89421	0.912
3.93524	0.919
3.97627	0.921
4.01729	0.924
4.05832	0.927
4.09935	0.929
4.14037	0.931
4.1814	0.933
4.22243	0.933
4.26345	0.933
4.30448	0.933
4.3455	0.933
4.38653	0.934
4.42756	0.943
4.46858	0.946
4.50961	0.95
4.55064	0.951
4.59166	0.951
4.63269	0.951
4.67372	0.957
4.71474	0.957
4.75577	0.957
4.79679	0.957
4.83782	0.958
4.87885	0.96
4.91987	0.96
4.9609	0.962
5.00193	0.963
5.04295	0.958
5.08398	0.958
5.12501	0.958
5.16603	0.958
5.20706	0.958
5.24809	0.958
5.28911	0.958
5.33014	0.958
5.37116	0.958
5.41219	0.951
5.45322	0.95
5.49424	0.946
5.53527	0.934
5.5763	0.927
5.61732	0.914
5.65835	0.909
5.69938	0.879
5.7404	0.761
5.78143	0.493
5.82245	0.219
5.86348	0.476
5.90451	0.79
5.94553	0.825
5.98656	0.838
6.02759	0.852
6.06861	0.843
6.10964	0.813
6.15067	0.638
6.19169	0.413
6.23272	0.169
6.27374	0.574
6.31477	0.778
6.3558	0.548
6.39682	0.77
6.43785	0.871
6.47888	0.876
6.5199	0.888
6.56093	0.886
6.60196	0.883
6.64298	0.782
6.68401	0.646
6.72504	0.809
6.76606	0.792
6.80709	0.782
6.84811	0.758
6.88914	0.598
6.93017	0.799
6.97119	0.789
7.01222	0.773
7.05325	0.766
7.09427	0.785
7.1353	0.794
7.17633	0.759
7.21735	0.571
7.25838	0.703
7.2994	0.811
7.34043	0.818
7.38146	0.818
7.42248	0.766
7.46351	0.703
7.50454	0.68
7.54556	0.48
7.58659	0.512
7.62762	0.343
7.66864	0.286
7.70967	0.377
7.7507	0.416
7.79172	0.418
7.83275	0.377
7.87377	0.456
7.9148	0.439
7.95583	0.233
7.99685	0.054
8.03788	0.049
8.07891	0.049
8.11993	0.111
8.16096	0.279
8.20199	0.329
8.24301	0.181
8.28404	0.128
8.32506	0.161
8.36609	0.368
8.40712	0.533
8.44814	0.638
8.48917	0.701
8.5302	0.732
8.57122	0.744
8.61225	0.72
8.65328	0.739
8.6943	0.79
8.73533	0.794
8.77635	0.794
8.81738	0.794
8.85841	0.749
8.89943	0.66
8.94046	0.665
8.98149	0.612
9.02251	0.579
9.06354	0.663
9.10457	0.639
9.14559	0.488
9.18662	0.547
9.22765	0.686
9.26867	0.694
9.3097	0.675
9.35072	0.723
9.39175	0.773
9.43278	0.778
9.4738	0.753
9.51483	0.663
9.55586	0.648
9.59688	0.734
9.63791	0.771
9.67894	0.78
9.71996	0.782
9.76099	0.802
9.80201	0.825
9.84304	0.833
9.88407	0.838
9.92509	0.831
9.96612	0.819
10.0071	0.825
10.0482	0.831
10.0892	0.831
10.1302	0.831
10.1713	0.823
10.2123	0.783
10.2533	0.78
10.2943	0.71
10.3354	0.641
10.3764	0.684
10.4174	0.698
10.4584	0.727
10.4995	0.778
10.5405	0.801
10.5815	0.804
10.6225	0.83
10.6636	0.838
10.7046	0.845
10.7456	0.845
10.7866	0.845
10.8277	0.783
10.8687	0.753
10.9097	0.828
10.9508	0.852
10.9918	0.861
11.0328	0.837
11.0738	0.83
11.1149	0.849
11.1559	0.84
11.1969	0.831
11.2379	0.849
11.279	0.862
11.32	0.867
11.361	0.869
11.402	0.867
11.4431	0.874
11.4841	0.879
11.5251	0.873
11.5661	0.857
11.6072	0.792
11.6482	0.692
11.6892	0.722
11.7303	0.816
11.7713	0.845
11.8123	0.864
11.8533	0.874
11.8944	0.874
11.9354	0.871
11.9764	0.857
12.0174	0.855
12.0585	0.869
12.0995	0.879
12.1405	0.885
12.1815	0.885
12.2226	0.888
12.2636	0.89
12.3046	0.89
12.3457	0.883
12.3867	0.85
12.4277	0.782
12.4687	0.768
12.5098	0.816
12.5508	0.849
12.5918	0.854
12.6328	0.864
12.6739	0.871
12.7149	0.871
12.7559	0.843
12.7969	0.727
12.838	0.603
12.879	0.528
12.92	0.507
12.961	0.542
13.0021	0.478
13.0431	0.379
13.0841	0.312
13.1252	0.341
13.1662	0.487
13.2072	0.634
13.2482	0.718
13.2893	0.771
13.3303	0.801
13.3713	0.804
13.4123	0.802
13.4534	0.813
13.4944	0.833
13.5354	0.845
13.5764	0.854
13.6175	0.855
13.6585	0.857
13.6995	0.857
13.7405	0.854
13.7816	0.85
13.8226	0.838
13.8636	0.813
13.9047	0.771
13.9457	0.711
13.9867	0.687
14.0277	0.691
14.0688	0.701
14.1098	0.711
14.1508	0.72
14.1918	0.723
14.2329	0.722
14.2739	0.703
14.3149	0.679
14.3559	0.65
14.397	0.643
14.438	0.639
14.479	0.629
14.52	0.588
14.5611	0.514
14.6021	0.454
14.6431	0.444
14.6842	0.511
14.7252	0.614
14.7662	0.706
14.8072	0.77
14.8483	0.816
14.8893	0.837
14.9303	0.843
14.9713	0.847
15.0124	0.847
15.0534	0.852
15.0944	0.852
15.1354	0.852
15.1765	0.838
15.2175	0.823
15.2585	0.816
15.2996	0.816
15.3406	0.821
15.3816	0.825
15.4226	0.828
15.4637	0.83
15.5047	0.831
15.5457	0.831
15.5867	0.83
15.6278	0.83
15.6688	0.83
15.7098	0.826
15.7508	0.821
15.7919	0.809
15.8329	0.801
15.8739	0.79
15.9149	0.782
15.956	0.775
15.997	0.765
