Infrared Spectrum: 2,3,4-Trifluorobenzonitrile
Formula: C 7 H 2 F 3 N
CAS: 143879-80-5
State: gas
Origin: EPA-IR VAPOR PHASE LIBRARY
1/CM	ABSORBANCE
549.8	0.00178
559.445	0.00174
569.09	0.0018
578.734	0.00187
588.379	0.00269
598.024	0.00498
607.669	0.00881
617.313	0.01059
626.958	0.00686
636.603	0.00209
646.248	0.00259
655.893	0.00468
665.537	0.01385
675.182	0.01564
684.827	0.00718
694.472	0.00241
704.116	0.00328
713.761	0.00604
723.406	0.01055
733.051	0.00859
742.695	0.00358
752.34	0.0006444
761.985	0.00153
771.63	0.0014105
781.275	0.00211
790.919	0.00555
800.564	0.01826
810.209	0.03886
819.854	0.02745
829.498	0.01078
839.143	0.00275
848.788	0.00209
858.433	0.0019
868.078	0.00208
877.722	0.00239
887.367	0.00212
897.012	0.00203
906.657	0.00237
916.301	0.00507
925.946	0.00583
935.591	0.00583
945.236	0.02116
954.88	0.04935
964.525	0.04237
974.17	0.01174
983.815	0.00663
993.46	0.00365
1003.1	0.00316
1012.75	0.00356
1022.39	0.00567
1032.04	0.01799
1041.68	0.06721
1051.33	0.08337
1060.97	0.04806
1070.62	0.01564
1080.26	0.00838
1089.91	0.00255
1099.55	0.00355
1109.2	0.0039
1118.84	0.00317
1128.49	0.00232
1138.13	0.00186
1147.78	0.00889
1157.42	0.01703
1167.07	0.0159
1176.71	0.00437
1186.36	0.0027
1196	0.00425
1205.64	0.0033
1215.29	0.00418
1224.93	0.00674
1234.58	0.01578
1244.22	0.01866
1253.87	0.01667
1263.51	0.02599
1273.16	0.03929
1282.8	0.02615
1292.45	0.02363
1302.09	0.05608
1311.74	0.06784
1321.38	0.03169
1331.03	0.00669
1340.67	0.00454
1350.32	0.0052
1359.96	0.00357
1369.61	0.00183
1379.25	0.00188
1388.9	0.00247
1398.54	0.00381
1408.18	0.00406
1417.83	0.00421
1427.47	0.00511
1437.12	0.00748
1446.76	0.0117
1456.41	0.01837
1466.05	0.0269
1475.7	0.05484
1485.34	0.11058
1494.99	0.12822
1504.63	0.16262
1514.28	0.1935
1523.92	0.10911
1533.57	0.02258
1543.21	0.01995
1552.86	0.01864
1562.5	0.01622
1572.15	0.01597
1581.79	0.01492
1591.44	0.0182
1601.08	0.03148
1610.73	0.03963
1620.37	0.04108
1630.01	0.04093
1639.66	0.02365
1649.3	0.00623
1658.95	0.00309
1668.59	0.00235
1678.24	0.00212
1687.88	0.00184
1697.53	0.00162
1707.17	0.00155
1716.82	0.00184
1726.46	0.00191
1736.11	0.00224
1745.75	0.00267
1755.4	0.00225
1765.04	0.00198
1774.69	0.00187
1784.33	0.00162
1793.98	0.001245
1803.62	0.0011749
1813.27	0.001207
1822.91	0.0011947
1832.55	0.0012466
1842.2	0.001104
1851.84	0.0013643
1861.49	0.00235
1871.13	0.00307
1880.78	0.0027
1890.42	0.0015184
1900.07	0.00153
1909.71	0.0013009
1919.36	0.00161
1929	0.0013657
1938.65	0.0014345
1948.29	0.0011587
1957.94	0.0011117
1967.58	0.0010078
1977.23	0.0012908
1986.87	0.001125
1996.52	0.0010977
2006.16	0.0011897
2015.81	0.0011854
2025.45	0.0011441
2035.1	0.0013675
2044.74	0.0009643
2054.38	0.0009732
2064.03	0.0007204
2073.67	0.0009009
2083.32	0.0011417
2092.96	0.0009862
2102.61	0.0012037
2112.25	0.001425
2121.9	0.0011185
2131.54	0.0010065
2141.19	0.0013531
2150.83	0.0008413
2160.48	0.0013413
2170.12	0.001357
2179.77	0.001498
2189.41	0.0014828
2199.06	0.0015121
2208.7	0.0014276
2218.35	0.00205
2227.99	0.00266
2237.64	0.00404
2247.28	0.00458
2256.92	0.00262
2266.57	0.0012344
2276.21	0.0010783
2285.86	0.000972
2295.5	0.0009675
2305.15	0.0011678
2314.79	0.0014683
2324.44	0.00166
2334.08	0.00159
2343.73	0.0018
2353.37	0.00183
2363.02	0.0012832
2372.66	0.0010594
2382.31	0.001115
2391.95	0.0008893
2401.6	0.0010424
2411.24	0.0008435
2420.89	0.0007826
2430.53	0.0010832
2440.18	0.0009547
2449.82	0.0014145
2459.47	0.00161
2469.11	0.00188
2478.75	0.00165
2488.4	0.00165
2498.04	0.00155
2507.69	0.00192
2517.33	0.002
2526.98	0.00229
2536.62	0.00271
2546.27	0.0029
2555.91	0.00295
2565.56	0.00279
2575.2	0.00217
2584.85	0.00198
2594.49	0.002
2604.14	0.0013569
2613.78	0.0011968
2623.43	0.0012156
2633.07	0.0009576
2642.72	0.001288
2652.36	0.0011605
2662.01	0.0011117
2671.65	0.001026
2681.29	0.0010649
2690.94	0.0011298
2700.58	0.0009492
2710.23	0.0006324
2719.87	0.0010084
2729.52	0.0008869
2739.16	0.0008998
2748.81	0.0013898
2758.45	0.00179
2768.1	0.0014463
2777.74	0.0011077
2787.39	0.001157
2797.03	0.0008914
2806.68	0.0009892
2816.32	0.0010447
2825.97	0.0008732
2835.61	0.0011138
2845.26	0.0013184
2854.9	0.00155
2864.55	0.0013874
2874.19	0.0010676
2883.84	0.0011896
2893.48	0.0013748
2903.12	0.0009275
2912.77	0.0010169
2922.41	0.0013483
2932.06	0.0009388
2941.7	0.0008797
2951.35	0.00057711
2960.99	0.000422
2970.64	0.0008816
2980.28	0.0011326
2989.93	0.0009326
2999.57	0.000255
3009.22	0.0010451
3018.86	0.000889
3028.51	0.0006945
3038.15	0.0006344
3047.8	0.0009797
3057.44	0.0007183
3067.09	0.0007431
3076.73	0.0006806
3086.38	0.001376
3096.02	0.0009479
3105.67	0.0006981
3115.31	0.0014108
3124.95	0.0011862
3134.6	0.0010112
3144.24	0.0010937
3153.89	0.0007323
3163.53	0.0004476
3173.18	0.0011133
3182.82	0.0007782
3192.47	0.0008493
3202.11	0.0009299
3211.76	0.0014976
3221.4	0.0008671
3231.05	0.0008965
3240.69	0.0009759
3250.34	0.0010155
3259.98	0.0009472
3269.63	0.000483
3279.27	0.00037
3288.92	0.00055719
3298.56	0.0014147
3308.21	0.0009108
3317.85	0.0007895
3327.49	0.0011018
3337.14	0.000229
3346.78	0.00038
3356.43	0.0009798
3366.07	0.000369
3375.72	0.000394
3385.36	0.0006988
3395.01	0.0006684
3404.65	0.0007369
3414.3	0.0012408
3423.94	0.0013387
3433.59	0.0007088
3443.23	0.0008637
3452.88	0.000418
3462.52	0.0009337
3472.17	0.00164
3481.81	0.00056898
3491.46	0.00062567
3501.1	0.00060285
3510.75	0.0009214
3520.39	0.000354
3530.04	0.0008444
3539.68	0.00161
3549.32	0.00057947
3558.97	0.0009721
3568.61	0.0004875
3578.26	0.0009411
3587.9	0.0008807
3597.55	0.0011268
3607.19	0.000363
3616.84	0.0011242
3626.48	0.0007663
3636.13	0.00054152
3645.77	0.0009136
3655.42	0.0007108
3665.06	0.0008996
3674.71	0.00052802
3684.35	0.0011871
3694	0.0007228
3703.64	0.0008198
3713.29	0.0008882
3722.93	0.000414
3732.58	0.0007278
3742.22	0.0009531
3751.86	0.000357
3761.51	0.000263
3771.15	0.0007801
3780.8	0.0006899
3790.44	0.0008068
3800.09	0.0004632
3809.73	0.0011787
3819.38	0.0014234
3829.02	0.0010382
3838.67	0.00157
3848.31	0.0011852
3857.96	0.0013603
3867.6	0.0008503
3877.25	0.0007837
3886.89	0.000402
3896.54	0.00168
3906.18	0.0007284
3915.83	0.0011361
3925.47	0.0008531
3935.12	0.0008132
3944.76	0.00057769
3954.41	0.0007351
3964.05	4.2e-05
3973.69	0.000828
3983.34	0.00075
3992.98	0.0011375
