Infrared Spectrum: RHODANINE, 3-AMINO-
Formula: C3 H4 N2 O S2
CAS: 1438-16-0
State: SOLID (KBr PELLET)
Melting point: 96-97.5 C
Class: COBLENTZ
Instrument: Not specified, most likely a prism, grating, or hybrid spectrometer.
Sampling: TRANSMISSION
Resolution: 4
Origin: TENNESSEE EASTMAN COMPANY, RESEARCH LABORATORIES
MICROMETERS	TRANSMITTANCE
2.041	0.468
2.08212	0.468
2.12324	0.471
2.16436	0.482
2.20548	0.488
2.2466	0.494
2.28772	0.499
2.32883	0.5
2.36995	0.505
2.41107	0.512
2.45219	0.523
2.49331	0.535
2.53443	0.54
2.57555	0.543
2.61667	0.547
2.65779	0.55
2.69891	0.553
2.74003	0.548
2.78115	0.512
2.82226	0.482
2.86338	0.463
2.9045	0.434
2.94562	0.434
2.98674	0.488
3.02786	0.43
3.06898	0.417
3.1101	0.394
3.15122	0.499
3.19234	0.429
3.23346	0.536
3.27458	0.564
3.31569	0.579
3.35681	0.523
3.39793	0.504
3.43905	0.49
3.48017	0.576
3.52129	0.601
3.56241	0.62
3.60353	0.627
3.64465	0.627
3.68577	0.634
3.72689	0.635
3.76801	0.642
3.80913	0.651
3.85024	0.666
3.89136	0.668
3.93248	0.671
3.9736	0.68
4.01472	0.688
4.05584	0.692
4.09696	0.694
4.13808	0.692
4.1792	0.697
4.22032	0.705
4.26144	0.656
4.30256	0.656
4.34367	0.699
4.38479	0.723
4.42591	0.726
4.46703	0.724
4.50815	0.741
4.54927	0.75
4.59039	0.753
4.63151	0.758
4.67263	0.76
4.71375	0.764
4.75487	0.765
4.79599	0.776
4.83711	0.777
4.87822	0.781
4.91934	0.782
4.96046	0.786
5.00158	0.791
5.0427	0.793
5.08382	0.796
5.12494	0.805
5.16606	0.815
5.20718	0.817
5.2483	0.822
5.28942	0.823
5.33054	0.832
5.37165	0.832
5.41277	0.829
5.45389	0.829
5.49501	0.841
5.53613	0.852
5.57725	0.841
5.61837	0.798
5.65949	0.622
5.70061	0.227
5.74173	0.071
5.78285	0.044
5.82397	0.158
5.86508	0.297
5.9062	0.449
5.94732	0.524
5.98844	0.574
6.02956	0.603
6.07068	0.61
6.1118	0.598
6.15292	0.499
6.19404	0.452
6.23516	0.517
6.27628	0.572
6.3174	0.601
6.35852	0.617
6.39963	0.57
6.44075	0.382
6.48187	0.246
6.52299	0.473
6.56411	0.6
6.60523	0.656
6.64635	0.707
6.68747	0.735
6.72859	0.747
6.76971	0.741
6.81083	0.743
6.85195	0.726
6.89306	0.731
6.93418	0.692
6.9753	0.528
7.01642	0.276
7.05754	0.381
7.09866	0.548
7.13978	0.6
7.1809	0.473
7.22202	0.505
7.26314	0.388
7.30426	0.172
7.34538	0.147
7.3865	0.276
7.42761	0.302
7.46873	0.362
7.50985	0.483
7.55097	0.562
7.59209	0.618
7.63321	0.641
7.67433	0.649
7.71545	0.663
7.75657	0.675
7.79769	0.663
7.83881	0.605
7.87993	0.485
7.92104	0.27
7.96216	0.141
8.00328	0.085
8.0444	0.063
8.08552	0.087
8.12664	0.2
8.16776	0.201
8.20888	0.275
8.25	0.379
8.29112	0.439
8.33224	0.389
8.37336	0.27
8.41447	0.107
8.45559	0.082
8.49671	0.135
8.53783	0.247
8.57895	0.347
8.62007	0.401
8.66119	0.451
8.70231	0.492
8.74343	0.502
8.78455	0.494
8.82567	0.384
8.86679	0.299
8.90791	0.275
8.94902	0.252
8.99014	0.391
9.03126	0.499
9.07238	0.536
9.1135	0.565
9.15462	0.548
9.19574	0.482
9.23686	0.458
9.27798	0.509
9.3191	0.548
9.36022	0.553
9.40134	0.553
9.44245	0.55
9.48357	0.552
9.52469	0.577
9.56581	0.615
9.60693	0.632
9.64805	0.641
9.68917	0.644
9.73029	0.642
9.77141	0.644
9.81253	0.652
9.85365	0.654
9.89477	0.654
9.93589	0.654
9.977	0.637
10.0181	0.601
10.0592	0.55
10.1004	0.471
10.1415	0.364
10.1826	0.29
10.2237	0.287
10.2648	0.336
10.306	0.362
10.3471	0.304
10.3882	0.2
10.4293	0.153
10.4704	0.198
10.5116	0.283
10.5527	0.365
10.5938	0.437
10.6349	0.499
10.676	0.535
10.7171	0.565
10.7583	0.596
10.7994	0.622
10.8405	0.639
10.8816	0.654
10.9227	0.673
10.9639	0.683
11.005	0.692
11.0461	0.7
11.0872	0.704
11.1283	0.711
11.1695	0.709
11.2106	0.709
11.2517	0.687
11.2928	0.651
11.3339	0.528
11.3751	0.362
11.4162	0.365
11.4573	0.5
11.4984	0.589
11.5395	0.641
11.5807	0.671
11.6218	0.697
11.6629	0.714
11.704	0.726
11.7451	0.733
11.7862	0.736
11.8274	0.745
11.8685	0.75
11.9096	0.752
11.9507	0.753
11.9918	0.753
12.033	0.76
12.0741	0.762
12.1152	0.764
12.1563	0.764
12.1974	0.765
12.2386	0.769
12.2797	0.769
12.3208	0.77
12.3619	0.772
12.403	0.776
12.4442	0.779
12.4853	0.781
12.5264	0.784
12.5675	0.786
12.6086	0.788
12.6498	0.788
12.6909	0.767
12.732	0.649
12.7731	0.594
12.8142	0.608
12.8553	0.651
12.8965	0.712
12.9376	0.743
12.9787	0.752
13.0198	0.762
13.0609	0.769
13.1021	0.77
13.1432	0.77
13.1843	0.774
13.2254	0.776
13.2665	0.777
13.3077	0.779
13.3488	0.779
13.3899	0.777
13.431	0.777
13.4721	0.777
13.5133	0.779
13.5544	0.779
13.5955	0.779
13.6366	0.779
13.6777	0.779
13.7189	0.779
13.76	0.779
13.8011	0.779
13.8422	0.779
13.8833	0.779
13.9244	0.779
13.9656	0.779
14.0067	0.779
14.0478	0.779
14.0889	0.777
14.13	0.777
14.1712	0.777
14.2123	0.774
14.2534	0.772
14.2945	0.772
14.3356	0.769
14.3768	0.765
14.4179	0.762
14.459	0.758
14.5001	0.753
14.5412	0.75
14.5824	0.748
14.6235	0.745
14.6646	0.741
14.7057	0.74
14.7468	0.735
14.7879	0.735
14.8291	0.731
14.8702	0.729
14.9113	0.719
14.9524	0.7
14.9935	0.702
15.0347	0.704
15.0758	0.704
15.1169	0.702
15.158	0.699
15.1991	0.694
15.2403	0.683
15.2814	0.673
15.3225	0.663
15.3636	0.651
15.4047	0.629
15.4459	0.613
15.487	0.596
15.5281	0.558
15.5692	0.526
15.6103	0.487
15.6515	0.447
15.6926	0.418
15.7337	0.398
15.7748	0.394
15.8159	0.393
15.857	0.394
15.8982	0.394
15.9393	0.4
