Infrared Spectrum: trans-Stilbene oxide
Formula: C14 H12 O
CAS: 1439-07-2
State: SOLUTION (10% CCl4 FOR 3800-1330, 10% CS2 FOR 1330-400 CM^-^1)
Class: COBLENTZ II
Instrument: BECKMAN IR-9 (GRATING)
Instrument parameters: ORDER CHANGES: 670, 1200, 2000 CM^-^1
Sampling: TRANSMISSION
Path length: 0.011 CM, 0.011 CM
Resolution: 2
Origin: DOW CHEMICAL COMPANY
1/CM	TRANSMITTANCE
3794	0.8602
3785	0.8604
3776	0.8607
3767	0.861
3758	0.8611
3749	0.861
3740	0.8608
3731	0.8606
3722	0.8603
3713	0.8596
3704	0.8589
3695	0.8583
3686	0.8577
3677	0.857
3668	0.8558
3659	0.8544
3650	0.8535
3641	0.8525
3632	0.8517
3623	0.851
3614	0.8518
3605	0.8528
3596	0.8538
3587	0.8558
3578	0.8577
3569	0.8586
3560	0.859
3551	0.8592
3542	0.8588
3533	0.8583
3524	0.8578
3515	0.8573
3506	0.8571
3497	0.8568
3488	0.8568
3479	0.8566
3470	0.8561
3461	0.8555
3452	0.855
3443	0.8543
3434	0.8538
3425	0.8533
3416	0.8528
3407	0.8523
3398	0.8518
3389	0.8516
3380	0.8513
3371	0.8513
3362	0.8518
3353	0.8525
3344	0.8528
3335	0.8528
3326	0.8528
3317	0.8528
3308	0.8528
3299	0.8528
3290	0.8528
3281	0.8527
3272	0.8527
3263	0.8527
3254	0.8534
3245	0.8539
3236	0.8543
3227	0.8542
3218	0.8548
3209	0.8547
3200	0.8532
3191	0.8512
3182	0.8465
3173	0.8421
3164	0.8446
3155	0.8445
3146	0.8425
3137	0.8397
3128	0.8287
3119	0.7849
3110	0.7743
3101	0.7639
3092	0.5796
3083	0.6524
3074	0.4801
3065	0.4893
3056	0.5962
3047	0.5285
3038	0.405
3029	0.4959
3020	0.6508
3011	0.6638
3002	0.673
2993	0.5539
2984	0.5918
2975	0.7117
2966	0.7851
2957	0.8091
2948	0.8218
2939	0.8325
2930	0.8421
2921	0.8453
2912	0.8467
2903	0.8478
2894	0.8509
2885	0.8549
2876	0.8603
2867	0.8655
2858	0.8668
2849	0.8645
2840	0.8621
2831	0.861
2822	0.8609
2813	0.8618
2804	0.8628
2795	0.8641
2786	0.8653
2777	0.8661
2768	0.8668
2759	0.8675
2750	0.8683
2741	0.8687
2732	0.8691
2723	0.8696
2714	0.8704
2705	0.8712
2696	0.872
2687	0.8725
2678	0.8727
2669	0.8725
2660	0.8717
2651	0.8702
2642	0.8686
2633	0.8671
2624	0.8663
2615	0.8655
2606	0.8668
2597	0.8685
2588	0.8699
2579	0.8712
2570	0.8725
2561	0.8738
2552	0.875
2543	0.8755
2534	0.8745
2525	0.8728
2516	0.8716
2507	0.8704
2498	0.8697
2489	0.8689
2480	0.8682
2471	0.8678
2462	0.8678
2453	0.8678
2444	0.8683
2435	0.869
2426	0.8699
2417	0.8715
2408	0.8731
2399	0.8725
2390	0.8664
2381	0.8444
2372	0.8374
2363	0.8399
2354	0.8462
2345	0.8486
2336	0.8525
2327	0.8575
2318	0.8637
2309	0.8701
2300	0.8725
2291	0.8718
2282	0.8696
2273	0.8703
2264	0.872
2255	0.8736
2246	0.8754
2237	0.8777
2228	0.8781
2219	0.875
2210	0.8705
2201	0.8646
2192	0.8621
2183	0.8623
2174	0.8638
2165	0.8681
2156	0.8749
2147	0.8786
2138	0.8804
2129	0.882
2120	0.8828
2111	0.8835
2102	0.8843
2093	0.8847
2084	0.8849
2075	0.8851
2066	0.8853
2057	0.8855
2048	0.8856
2039	0.8852
2030	0.8841
2021	0.883
2012	0.8828
2003	0.8785
1994	0.8713
1985	0.8658
1976	0.8486
1967	0.8075
1958	0.8178
1949	0.751
1940	0.8473
1931	0.8653
1922	0.8698
1913	0.8564
1904	0.8278
1895	0.8165
1886	0.8087
1877	0.8249
1868	0.8614
1859	0.8693
1850	0.8637
1841	0.8554
1832	0.8456
1823	0.841
1814	0.7978
1805	0.8075
1796	0.8528
1787	0.8556
1778	0.8338
1769	0.8274
1760	0.8193
1751	0.8358
1742	0.8436
1733	0.8412
1724	0.8383
1715	0.8468
1706	0.8506
1697	0.851
1688	0.8428
1679	0.8341
1670	0.8251
1661	0.8228
1652	0.8302
1643	0.8366
1634	0.8341
1625	0.8137
1616	0.7808
1607	0.4912
1598	0.7771
1589	0.7915
1580	0.8521
1571	0.868
1562	0.8647
1553	0.8217
1544	0.8086
1535	0.8191
1526	0.8232
1517	0.8149
1508	0.5723
1499	0.4286
1490	0.6166
1481	0.7739
1472	0.7401
1463	0.3394
1454	0.2957
1445	0.7888
1436	0.8352
1427	0.8241
1418	0.6914
1409	0.8055
1400	0.834
1391	0.8249
1382	0.84
1373	0.8388
1364	0.8316
1355	0.7948
1346	0.736
1337	0.7908
1328	0.7839
1319	0.7876
1310	0.6844
1301	0.7637
1292	0.6275
1283	0.7543
1274	0.8216
1265	0.8333
1256	0.8155
1247	0.7919
1238	0.8271
1229	0.8158
1220	0.8172
1211	0.8342
1202	0.8306
1193	0.8175
1184	0.7833
1175	0.7192
1166	0.7765
1157	0.7437
1148	0.8155
1139	0.8405
1130	0.8462
1121	0.8405
1112	0.7875
1103	0.7461
1094	0.6901
1085	0.7954
1076	0.7184
1067	0.6784
1058	0.8302
1049	0.8344
1040	0.8126
1031	0.5392
1022	0.7571
1013	0.8111
1004	0.8206
995	0.8207
986	0.8028
977	0.8141
968	0.813
959	0.8283
950	0.8331
941	0.8251
932	0.8062
923	0.7444
914	0.6381
905	0.743
896	0.6797
887	0.5737
878	0.3169
869	0.2798
860	0.413
851	0.6181
842	0.5012
833	0.6945
824	0.7795
815	0.7582
806	0.6753
797	0.6018
788	0.7788
779	0.7695
770	0.6971
761	0.4836
752	0.021
743	0.0638
734	0.5059
725	0.7361
716	0.7235
707	0.3874
698	0.0011
689	0.5862
680	0.7872
671	0.7718
662	0.8252
653	0.837
644	0.8433
635	0.8393
626	0.7812
617	0.0599
608	0.7847
599	0.8449
590	0.8517
581	0.8525
572	0.8485
563	0.8428
554	0.8377
545	0.8286
536	0.808
527	0.7454
518	0.4473
509	0.4241
500	0.6885
491	0.8018
482	0.8412
473	0.8521
464	0.8532
455	0.8451
446	0.8298
437	0.8022
428	0.7848
419	0.8004
410	0.8107
