Infrared Spectrum: p-Hydroxynonanophenone
Formula: C 15 H 22 O 2
CAS: 14392-69-9
State: gas
Origin: EPA-IR VAPOR PHASE LIBRARY
1/CM	ABSORBANCE
549.9	0.001024
559.547	0.00124495
569.193	0.0013065
578.84	0.001344
588.486	0.0010739
598.133	0.000989
607.779	0.00115021
617.426	0.001024
627.072	0.000917
636.719	0.000961
646.365	0.000898
656.012	0.000818
665.658	0.000783
675.305	0.000795
684.951	0.00077
694.598	0.000893
704.245	0.000866
713.891	0.000934
723.538	0.000944
733.184	0.000912
742.831	0.00102
752.477	0.0011078
762.124	0.00115474
771.77	0.0012654
781.417	0.0012851
791.063	0.0014484
800.71	0.0018232
810.356	0.0020742
820.003	0.00245
829.649	0.00324
839.296	0.00321
848.943	0.00218
858.589	0.001392
868.236	0.0011078
877.882	0.001002
887.529	0.001007
897.175	0.000939
906.822	0.001018
916.468	0.001019
926.115	0.001135
935.761	0.00116153
945.408	0.0013311
955.054	0.0015812
964.701	0.0017844
974.347	0.0017992
983.994	0.0018662
993.64	0.0020893
1003.29	0.0020133
1012.93	0.0015786
1022.58	0.0013807
1032.23	0.0013017
1041.87	0.00119175
1051.52	0.0012739
1061.17	0.00124431
1070.81	0.0010934
1080.46	0.0011409
1090.11	0.0013401
1099.75	0.0018457
1109.4	0.0019009
1119.05	0.0017916
1128.69	0.0018506
1138.34	0.00246
1147.99	0.00412
1157.63	0.00873
1167.28	0.01566
1176.92	0.01018
1186.57	0.01007
1196.22	0.00478
1205.86	0.00348
1215.51	0.00419
1225.16	0.00466
1234.8	0.00434
1244.45	0.0049
1254.1	0.00718
1263.74	0.00927
1273.39	0.00492
1283.04	0.00328
1292.68	0.00282
1302.33	0.00273
1311.98	0.00323
1321.62	0.00393
1331.27	0.00355
1340.92	0.003
1350.56	0.00318
1360.21	0.00283
1369.86	0.0021476
1379.5	0.0016578
1389.15	0.001466
1398.79	0.0014132
1408.44	0.0017716
1418.09	0.0025
1427.73	0.00299
1437.38	0.00251
1447.03	0.00237
1456.67	0.00247
1466.32	0.0023
1475.97	0.0017651
1485.61	0.0015295
1495.26	0.0018424
1504.91	0.00317
1514.55	0.00285
1524.2	0.0015287
1533.85	0.0012315
1543.49	0.00120469
1553.14	0.0013603
1562.79	0.0015772
1572.43	0.00234
1582.08	0.00436
1591.73	0.00711
1601.37	0.00932
1611.02	0.008
1620.67	0.00336
1630.31	0.0019005
1639.96	0.0015223
1649.6	0.0015211
1659.25	0.0016193
1668.9	0.0020057
1678.54	0.00341
1688.19	0.00762
1697.84	0.0097
1707.48	0.00502
1717.13	0.00219
1726.78	0.0015008
1736.42	0.0012732
1746.07	0.00118237
1755.72	0.00121761
1765.36	0.0011477
1775.01	0.0011003
1784.66	0.0010959
1794.3	0.001082
1803.95	0.0010614
1813.6	0.0010749
1823.24	0.0010678
1832.89	0.001028
1842.54	0.0010884
1852.18	0.0010671
1861.83	0.0010822
1871.47	0.001059
1881.12	0.001104
1890.77	0.0010943
1900.41	0.0011194
1910.06	0.001035
1919.71	0.001041
1929.35	0.0010922
1939	0.001064
1948.65	0.001016
1958.29	0.000999
1967.94	0.001025
1977.59	0.001054
1987.23	0.001021
1996.88	0.0010613
2006.53	0.001047
2016.17	0.001047
2025.82	0.0010685
2035.47	0.001036
2045.11	0.001002
2054.76	0.001032
2064.41	0.0010911
2074.05	0.001077
2083.7	0.0010803
2093.35	0.001131
2102.99	0.0010907
2112.64	0.001023
2122.28	0.0010606
2131.93	0.001028
2141.58	0.0010703
2151.22	0.0010668
2160.87	0.0010745
2170.52	0.0010748
2180.16	0.0010763
2189.81	0.0010771
2199.46	0.0011037
2209.1	0.001053
2218.75	0.0010769
2228.4	0.001058
2238.04	0.0010806
2247.69	0.001038
2257.34	0.0010959
2266.98	0.0011135
2276.63	0.0011246
2286.28	0.0011008
2295.92	0.001116
2305.57	0.001126
2315.22	0.00116307
2324.86	0.00116357
2334.51	0.0011205
2344.16	0.0011305
2353.8	0.0011365
2363.45	0.0011626
2373.09	0.0011021
2382.74	0.0011118
2392.39	0.0011384
2402.03	0.00115924
2411.68	0.00115248
2421.33	0.00123956
2430.97	0.00125072
2440.62	0.00123649
2450.27	0.00120518
2459.91	0.00118162
2469.56	0.0011046
2479.21	0.0011406
2488.85	0.00115212
2498.5	0.0011027
2508.15	0.00115075
2517.79	0.00118603
2527.44	0.00115417
2537.09	0.00115287
2546.73	0.0011144
2556.38	0.00115262
2566.03	0.0011384
2575.67	0.0011456
2585.32	0.0011848
2594.96	0.0011456
2604.61	0.00116469
2614.26	0.0012179
2623.9	0.00115969
2633.55	0.00118
2643.2	0.0011332
2652.84	0.0012669
2662.49	0.00119413
2672.14	0.00122
2681.78	0.00120774
2691.43	0.00123504
2701.08	0.0012861
2710.72	0.00120546
2720.37	0.00120657
2730.02	0.00125225
2739.66	0.0013278
2749.31	0.001325
2758.96	0.0012971
2768.6	0.0013336
2778.25	0.0013722
2787.9	0.0013861
2797.54	0.0013967
2807.19	0.0015532
2816.84	0.0016594
2826.48	0.0017511
2836.13	0.0020103
2845.77	0.00274
2855.42	0.00456
2865.07	0.00611
2874.71	0.00548
2884.36	0.00486
2894.01	0.00464
2903.65	0.00552
2913.3	0.00726
2922.95	0.01084
2932.59	0.01416
2942.24	0.01207
2951.89	0.00869
2961.53	0.00786
2971.18	0.00692
2980.83	0.00393
2990.47	0.00253
3000.12	0.0020385
3009.77	0.0017889
3019.41	0.0016464
3029.06	0.0018382
3038.71	0.0020735
3048.35	0.0015551
3058	0.0013166
3067.64	0.0015488
3077.29	0.0015483
3086.94	0.00117492
3096.58	0.0010981
3106.23	0.000998
3115.88	0.000876
3125.52	0.000871
3135.17	0.000688
3144.82	0.000679
3154.46	0.000664
3164.11	0.000676
3173.76	0.000571
3183.4	0.000652
3193.05	0.000495
3202.7	0.000455
3212.34	0.00065
3221.99	0.000496
3231.64	0.000385
3241.28	0.000322
3250.93	0.000429
3260.58	0.000334
3270.22	0.000343
3279.87	0.000197
3289.52	0.00017
3299.16	0.00024
3308.81	0.000256
3318.45	0.00016
3328.1	0.000283
3337.75	0.000274
3347.39	0.000211
3357.04	0.000254
3366.69	0.000488
3376.33	0.000379
3385.98	0.000263
3395.63	0.000174
3405.27	7e-05
3414.92	0.000228
3424.57	0.00015
3434.21	0.000238
3443.86	0
3453.51	0.000278
3463.15	0.000192
3472.8	0.000223
3482.45	0.000313
3492.09	0.000211
3501.74	0.000218
3511.39	0.000328
3521.03	0.000227
3530.68	0.000175
3540.33	0.000268
3549.97	0.000316
3559.62	0.00016
3569.26	0.00014
3578.91	0.000279
3588.56	0.000366
3598.2	0.000378
3607.85	0.000468
3617.5	0.000609
3627.14	0.000932
3636.79	0.00284
3646.44	0.00684
3656.08	0.00274
3665.73	0.000871
3675.38	0.000586
3685.02	0.000542
3694.67	0.000471
3704.32	0.000588
3713.96	0.000468
3723.61	0.000411
3733.26	0.000347
3742.9	0.000488
3752.55	0.000449
3762.2	0.000473
3771.84	0.000535
3781.49	0.000512
3791.13	0.000603
3800.78	0.000448
3810.43	0.000539
3820.07	0.000541
3829.72	0.000554
3839.37	0.000612
3849.01	0.000564
3858.66	0.000645
3868.31	0.000543
3877.95	0.000698
3887.6	0.000639
3897.25	0.000655
3906.89	0.000587
3916.54	0.000713
3926.19	0.000665
3935.83	0.000726
3945.48	0.000728
3955.13	0.000667
3964.77	0.000742
3974.42	0.0007
3984.07	0.000684
3993.71	0.000671
