Infrared Spectrum: Sodium bicarbonate
Formula: Na H C O 3
CAS: 144-55-8
State: solid
Instrument: Bruker Tensor 37 FTIR
Resolution: 0.96450084
Origin: Pacific Northwest National Laboratory Under IARPA Contract
1/cm	Reflectance
7498.03	0.847863
7480.67	0.847342
7463.31	0.843284
7445.95	0.841663
7428.59	0.839586
7411.23	0.83762
7393.87	0.83366
7376.51	0.832917
7359.15	0.828336
7341.79	0.828754
7324.43	0.82374
7307.07	0.819112
7289.71	0.810734
7272.35	0.808961
7254.99	0.802655
7237.63	0.800268
7220.27	0.793241
7202.91	0.788436
7185.55	0.781275
7168.19	0.776884
7150.83	0.771082
7133.47	0.76545
7116.11	0.759762
7098.75	0.753715
7081.39	0.749175
7064.03	0.741667
7046.67	0.736711
7029.31	0.727984
7011.96	0.718624
6994.6	0.708018
6977.24	0.698582
6959.88	0.689211
6942.52	0.67791
6925.16	0.670613
6907.8	0.662718
6890.44	0.650568
6873.08	0.639645
6855.72	0.628982
6838.36	0.616282
6821	0.601967
6803.64	0.588773
6786.28	0.575568
6768.92	0.561846
6751.56	0.547023
6734.2	0.53048
6716.84	0.517287
6699.48	0.505037
6682.12	0.491184
6664.76	0.477677
6647.4	0.466117
6630.04	0.457006
6612.68	0.448671
6595.32	0.438439
6577.96	0.424237
6560.6	0.409414
6543.24	0.39568
6525.88	0.381874
6508.52	0.368257
6491.16	0.35522
6473.8	0.343203
6456.44	0.329961
6439.08	0.318613
6421.72	0.310418
6404.36	0.304393
6387	0.301194
6369.64	0.298533
6352.28	0.294096
6334.92	0.287536
6317.56	0.281289
6300.2	0.275406
6282.84	0.269388
6265.48	0.264237
6248.12	0.258645
6230.76	0.255207
6213.4	0.252948
6196.04	0.252486
6178.68	0.252986
6161.32	0.253836
6143.97	0.251992
6126.61	0.249569
6109.25	0.245139
6091.89	0.237573
6074.53	0.231175
6057.17	0.226129
6039.81	0.22034
6022.45	0.209672
6005.09	0.200338
5987.73	0.194861
5970.37	0.191953
5953.01	0.188049
5935.65	0.183435
5918.29	0.178708
5900.93	0.176145
5883.57	0.175653
5866.21	0.176279
5848.85	0.175188
5831.49	0.169204
5814.13	0.163111
5796.77	0.15725
5779.41	0.150273
5762.05	0.144258
5744.69	0.139987
5727.33	0.135823
5709.97	0.131926
5692.61	0.128589
5675.25	0.124669
5657.89	0.119809
5640.53	0.115099
5623.17	0.110223
5605.81	0.105594
5588.45	0.100732
5571.09	0.0964543
5553.73	0.0921154
5536.37	0.087739
5519.01	0.0825501
5501.65	0.0771884
5484.29	0.0730793
5466.93	0.0709135
5449.57	0.0680217
5432.21	0.0636496
5414.85	0.05721
5397.49	0.0514012
5380.13	0.0459406
5362.77	0.0410079
5345.41	0.0385453
5328.05	0.0358014
5310.69	0.0332542
5293.33	0.0314242
5275.97	0.0308029
5258.62	0.0304754
5241.26	0.0294951
5223.9	0.0282678
5206.54	0.0281849
5189.18	0.0286
5171.82	0.02899
5154.46	0.0298653
5137.1	0.0285604
5119.74	0.0282124
5102.38	0.0275562
5085.02	0.0277755
5067.66	0.0282214
5050.3	0.0290482
5032.94	0.0299694
5015.58	0.0313725
4998.22	0.0318108
4980.86	0.032905
4963.5	0.0339511
4946.14	0.0341887
4928.78	0.0339877
4911.42	0.0335654
4894.06	0.0329896
4876.7	0.0330823
4859.34	0.0331924
4841.98	0.0330045
4824.62	0.0323413
4807.26	0.0312755
4789.9	0.0299341
4772.54	0.0295944
4755.18	0.0292599
4737.82	0.0281596
4720.46	0.025812
4703.1	0.0304833
4685.74	0.0297042
4668.38	0.0271552
4651.02	0.0268965
4633.66	0.0257524
4616.3	0.0219458
4598.94	0.0323834
4581.58	0.0412263
4564.22	0.0818154
4546.86	0.0351031
4529.5	0.0282071
4512.14	0.0261961
4494.78	0.0341347
4477.42	0.0688581
4460.06	0.124937
4442.7	0.13741
4425.34	0.125606
4407.98	0.11101
4390.63	0.0884611
4373.27	0.0641351
4355.91	0.0546964
4338.55	0.0502237
4321.19	0.0450562
4303.83	0.0433735
4286.47	0.0406226
4269.11	0.0363062
4251.75	0.0869396
4234.39	0.0490227
4217.03	0.046695
4199.67	0.0442645
4182.31	0.0413602
4164.95	0.0780933
4147.59	0.070133
4130.23	0.0807286
4112.87	0.0873309
4095.51	0.104199
4078.15	0.0689371
4060.79	0.123071
4043.43	0.846345
4026.07	0.842126
4008.71	0.834739
3991.35	0.833205
3973.99	0.829776
3956.63	0.827226
3939.27	0.823681
3921.91	0.823115
3904.55	0.815909
3887.19	0.816823
3869.83	0.811168
3852.47	0.807763
3835.11	0.802641
3817.75	0.796733
3800.39	0.790767
3783.03	0.788358
3765.67	0.781254
3748.31	0.776633
3730.95	0.76984
3713.59	0.763773
3696.23	0.757972
3678.87	0.751281
3661.51	0.745471
3644.15	0.73987
3626.79	0.733656
3609.43	0.727674
3592.07	0.719543
3574.71	0.711105
3557.35	0.702066
3539.99	0.691275
3522.64	0.681653
3505.28	0.675109
3487.92	0.663586
3470.56	0.652124
3453.2	0.643196
3435.84	0.631982
3418.48	0.621899
3401.12	0.609162
3383.76	0.596488
3366.4	0.582674
3349.04	0.568651
3331.68	0.556544
3314.32	0.541318
3296.96	0.522855
3279.6	0.508397
3262.24	0.495429
3244.88	0.483026
3227.52	0.469246
3210.16	0.456907
3192.8	0.446177
3175.44	0.438
3158.08	0.428446
3140.72	0.416956
3123.36	0.402348
3106	0.388264
3088.64	0.375916
3071.28	0.361276
3053.92	0.348416
3036.56	0.335348
3019.2	0.322964
3001.84	0.310975
2984.48	0.300723
2967.12	0.293765
2949.76	0.289164
2932.4	0.285727
2915.04	0.282988
2897.68	0.27804
2880.32	0.271924
2862.96	0.265118
2845.6	0.260562
2828.24	0.254292
2810.88	0.250223
2793.52	0.245252
2776.16	0.241667
2758.8	0.239985
2741.44	0.240571
2724.08	0.241795
2706.72	0.241378
2689.36	0.239264
2672	0.236344
2654.64	0.231759
2637.29	0.224934
2619.93	0.218407
2602.57	0.214215
2585.21	0.206046
2567.85	0.196068
2550.49	0.188222
2533.13	0.184411
2515.77	0.18102
2498.41	0.176999
2481.05	0.172876
2463.69	0.16864
2446.33	0.167033
2428.97	0.166993
2411.61	0.167769
2394.25	0.165194
2376.89	0.159254
2359.53	0.153032
2342.17	0.147743
2324.81	0.140618
2307.45	0.135299
2290.09	0.131643
2272.73	0.127862
2255.37	0.123881
2238.01	0.120499
2220.65	0.11632
2203.29	0.111308
2185.93	0.107796
2168.57	0.102017
2151.21	0.0990936
2133.85	0.0944188
2116.49	0.0905692
2099.13	0.0861228
2081.77	0.0826037
2064.41	0.0773879
2047.05	0.0729364
2029.69	0.0694667
2012.33	0.0674619
1994.97	0.0643393
1977.61	0.0593605
1960.25	0.0526284
1942.89	0.0481141
1925.53	0.0429266
1908.17	0.0391229
1890.81	0.0366513
1873.45	0.0341353
1856.09	0.0320406
1838.73	0.031024
1821.37	0.0303073
1804.01	0.0298016
1786.65	0.0284612
1769.3	0.0276409
1751.94	0.0278528
1734.58	0.0282147
1717.22	0.0290146
1699.86	0.0292331
1682.5	0.0276557
1665.14	0.0275278
1647.78	0.02736
1630.42	0.0271949
1613.06	0.0282682
1595.7	0.0286697
1578.34	0.0302193
1560.98	0.0308173
1543.62	0.0315571
1526.26	0.0328987
1508.9	0.0334225
1491.54	0.0337122
1474.18	0.0333898
1456.82	0.0328977
1439.46	0.0326116
1422.1	0.0325611
1404.74	0.0328557
1387.38	0.032346
1370.02	0.0315988
1352.66	0.0304216
1335.3	0.0297002
1317.94	0.0292991
1300.58	0.0290396
1283.22	0.0272489
1265.86	0.0272743
1248.5	0.0301763
1231.14	0.0285935
1213.78	0.0267879
1196.42	0.0264649
1179.06	0.0251558
1161.7	0.0238371
1144.34	0.0260385
1126.98	0.0406712
1109.62	0.0656782
1092.26	0.0310717
1074.9	0.0273409
1057.54	0.026769
1040.18	0.0473788
1022.82	0.0746307
1005.46	0.119939
988.104	0.131312
970.744	0.12149
953.384	0.104987
936.025	0.0777797
918.665	0.0596911
901.305	0.0530584
883.945	0.0489348
866.585	0.0443249
849.226	0.0429438
831.866	0.0394426
814.506	0.0471751
797.146	0.0728566
779.786	0.0485483
762.427	0.0462758
745.067	0.0450954
727.707	0.0450598
710.347	0.0544442
692.987	0.0777889
675.628	0.0777554
658.268	0.153737
640.908	0.0813365
623.548	0.0939329
606.188	0.134881
