Infrared Spectrum: CITRIC ACID, TRIS[2-ETHYLHEXYL] ESTER, ACETATE
Formula: C32 H58 O8
CAS: 144-15-0
State: SOLUTION (10% CCl4 FOR 2.7-7.5, 10% CS2 FOR 7.5-26 MICRON) VS SOLVENT
Class: COBLENTZ III
Instrument: DOW KBr FOREPRISM-GRATING
Instrument parameters: BLAZED AT 3.5, 12.0, 20.0 MICRON AND CHANGED AT 5.0, 7.5, 14.9 MICRON
Sampling: TRANSMISSION
Path length: 0.011 CM, 0.011 CM
Resolution: 2
Origin: DOW CHEMICAL COMPANY
1/CM	TRANSMITTANCE
3778	0.8311
3769	0.8398
3760	0.842
3751	0.8433
3742	0.8438
3733	0.8441
3724	0.8444
3715	0.8446
3706	0.8444
3697	0.8441
3688	0.8438
3679	0.8435
3670	0.8432
3661	0.8428
3652	0.8427
3643	0.8427
3634	0.8439
3625	0.845
3616	0.8462
3607	0.8473
3598	0.8487
3589	0.85
3580	0.8514
3571	0.8528
3562	0.8539
3553	0.8548
3544	0.8558
3535	0.8567
3526	0.8568
3517	0.8566
3508	0.8564
3499	0.8556
3490	0.8535
3481	0.8514
3472	0.8483
3463	0.8438
3454	0.84
3445	0.8374
3436	0.8385
3427	0.8451
3418	0.854
3409	0.861
3400	0.8656
3391	0.8685
3382	0.8696
3373	0.8699
3364	0.8699
3355	0.8704
3346	0.8721
3337	0.874
3328	0.8751
3319	0.8758
3310	0.8766
3301	0.8773
3292	0.8775
3283	0.8774
3274	0.8774
3265	0.8773
3256	0.8771
3247	0.8771
3238	0.8771
3229	0.877
3220	0.8764
3211	0.8739
3202	0.8682
3193	0.8662
3184	0.865
3175	0.8638
3166	0.8628
3157	0.8621
3148	0.8618
3139	0.8614
3130	0.8607
3121	0.8598
3112	0.8583
3103	0.8561
3094	0.8533
3085	0.8493
3076	0.8448
3067	0.8403
3058	0.835
3049	0.8271
3040	0.8193
3031	0.8048
3022	0.7911
3013	0.7744
3004	0.7475
2995	0.6628
2986	0.4817
2977	0.2804
2968	0.111
2959	0.0335
2950	0.0564
2941	0.0965
2932	0.0693
2923	0.0449
2914	0.0718
2905	0.1495
2896	0.218
2887	0.2865
2878	0.2904
2869	0.167
2860	0.1754
2851	0.2246
2842	0.5209
2833	0.6448
2824	0.6951
2815	0.7308
2806	0.7528
2797	0.7691
2788	0.7821
2779	0.7943
2770	0.8031
2761	0.8111
2752	0.8181
2743	0.821
2734	0.8151
2725	0.8098
2716	0.8103
2707	0.8144
2698	0.8195
2689	0.8237
2680	0.8274
2671	0.8304
2662	0.8315
2653	0.832
2644	0.834
2635	0.836
2626	0.8378
2617	0.8394
2608	0.841
2599	0.8411
2590	0.841
2581	0.8415
2572	0.8431
2563	0.8447
2554	0.8468
2545	0.849
2536	0.8512
2527	0.8524
2518	0.8536
2509	0.8547
2500	0.8559
2491	0.8566
2482	0.8568
2473	0.857
2464	0.8571
2455	0.857
2446	0.8566
2437	0.8561
2428	0.8554
2419	0.8543
2410	0.8528
2401	0.8512
2392	0.8498
2383	0.8503
2374	0.851
2365	0.8533
2356	0.8555
2347	0.8556
2338	0.8555
2329	0.8544
2320	0.8528
2311	0.8508
2302	0.8494
2293	0.8501
2284	0.8508
2275	0.8515
2266	0.853
2257	0.8543
2248	0.8555
2239	0.8557
2230	0.856
2221	0.8565
2212	0.8571
2203	0.8568
2194	0.8565
2185	0.8564
2176	0.862
2167	0.8603
2158	0.8571
2149	0.8575
2140	0.8571
2131	0.8565
2122	0.856
2113	0.8555
2104	0.855
2095	0.8544
2086	0.854
2077	0.8534
2068	0.853
2059	0.8525
2050	0.8521
2041	0.8523
2032	0.8528
2023	0.8545
2014	0.856
2005	0.8575
1996	0.8586
1987	0.8596
1978	0.8592
1969	0.8586
1960	0.8589
1951	0.8592
1942	0.8586
1933	0.8577
1924	0.8566
1915	0.8545
1906	0.8525
1897	0.8496
1888	0.8463
1879	0.8421
1870	0.8383
1861	0.8344
1852	0.8318
1843	0.8288
1834	0.8246
1825	0.8187
1816	0.8091
1807	0.7956
1798	0.7778
1789	0.7539
1780	0.6896
1771	0.4939
1762	0.1875
1753	0.0276
1744	0.0097
1735	0.006
1726	0.0589
1717	0.2834
1708	0.5214
1699	0.6411
1690	0.7064
1681	0.7425
1672	0.7728
1663	0.7865
1654	0.7951
1645	0.8019
1636	0.8087
1627	0.8149
1618	0.8211
1609	0.8263
1600	0.831
1591	0.8321
1582	0.8328
1573	0.8328
1564	0.8328
1555	0.8323
1546	0.8308
1537	0.827
1528	0.8214
1519	0.8148
1510	0.8065
1501	0.7918
1492	0.766
1483	0.7141
1474	0.3716
1465	0.2133
1456	0.3736
1447	0.4826
1438	0.5114
1429	0.5292
1420	0.5454
1411	0.5176
1402	0.54
1393	0.3853
1384	0.3204
1375	0.309
1366	0.3244
1357	0.3395
1348	0.333
1339	0.4195
1330	0.4796
1321	0.5123
1312	0.5133
1303	0.3993
1294	0.2505
1285	0.1604
1276	0.1629
1267	0.2129
1258	0.2534
1249	0.2559
1240	0.1418
1231	0.1083
1222	0.0971
1213	0.129
1204	0.1388
1195	0.1298
1186	0.0819
1177	0.0551
1168	0.1092
1159	0.2294
1150	0.259
1141	0.2282
1132	0.2492
1123	0.3666
1114	0.4926
1105	0.5754
1096	0.6294
1087	0.6279
1078	0.4737
1069	0.3674
1060	0.3889
1051	0.3729
1042	0.301
1033	0.3832
1024	0.4564
1015	0.4173
1006	0.3666
997	0.4342
988	0.4849
979	0.5403
970	0.548
961	0.5322
952	0.6231
943	0.6796
934	0.7085
925	0.7241
916	0.7301
907	0.7237
898	0.7368
889	0.7685
880	0.7995
871	0.8072
862	0.8184
853	0.8474
844	0.8545
835	0.8402
826	0.8217
817	0.8165
808	0.8101
799	0.7885
790	0.7501
781	0.7078
772	0.7286
763	0.7931
754	0.8427
745	0.8409
736	0.8014
727	0.7407
718	0.8425
709	0.8631
700	0.8734
691	0.8745
682	0.8578
673	0.8381
664	0.8314
655	0.8006
646	0.8028
637	0.8321
628	0.8462
619	0.8439
610	0.8306
601	0.7776
592	0.7995
583	0.8224
574	0.831
565	0.8359
556	0.8388
547	0.8398
538	0.8364
529	0.821
520	0.8164
511	0.8137
502	0.8089
493	0.7939
484	0.7831
475	0.7836
466	0.7948
457	0.7976
448	0.7976
439	0.7962
430	0.7944
421	0.7937
412	0.7946
403	0.7961
394	0.8001
