Infrared Spectrum: 1,3-DIHYDROXY-2,2,4-TRIMETHYL PENTANE
Formula: C8 H18 O2
CAS: 144-19-4
State: SOLUTION (10% CCl4 FOR 2-7.5, 10% CS2 FOR 7.5-16 MICRON)
Melting point: 51.8-53 C
Boiling point: 93 C AT 1.8 mmHg
Class: COBLENTZ
Instrument: Not specified, most likely a prism, grating, or hybrid spectrometer.
Sampling: TRANSMISSION
Resolution: 4
Origin: DOW CHEMICAL COMPANY
MICROMETERS	TRANSMITTANCE
2.226	0.859
2.26714	0.865
2.30827	0.876
2.34941	0.877
2.39054	0.876
2.43168	0.881
2.47282	0.886
2.51395	0.882
2.55509	0.881
2.59623	0.886
2.63736	0.882
2.6785	0.864
2.71963	0.75
2.76077	0.687
2.80191	0.511
2.84304	0.305
2.88418	0.207
2.92531	0.139
2.96645	0.112
3.00759	0.166
3.04872	0.249
3.08986	0.373
3.131	0.507
3.17213	0.606
3.21327	0.682
3.2544	0.704
3.29554	0.607
3.33668	0.269
3.37781	0.069
3.41895	0.139
3.46008	0.21
3.50122	0.534
3.54236	0.65
3.58349	0.724
3.62463	0.738
3.66577	0.757
3.7069	0.775
3.74804	0.797
3.78917	0.808
3.83031	0.82
3.87145	0.838
3.91258	0.859
3.95372	0.86
3.99485	0.865
4.03599	0.869
4.07713	0.869
4.11826	0.869
4.1594	0.864
4.20054	0.859
4.24167	0.857
4.28281	0.86
4.32394	0.865
4.36508	0.872
4.40622	0.882
4.44735	0.886
4.48849	0.891
4.52962	0.893
4.57076	0.893
4.6119	0.893
4.65303	0.891
4.69417	0.889
4.73531	0.887
4.77644	0.757
4.81758	0.915
4.85871	0.886
4.89985	0.887
4.94099	0.886
4.98212	0.882
5.02326	0.884
5.06439	0.889
5.10553	0.889
5.14667	0.893
5.1878	0.894
5.22894	0.894
5.27008	0.891
5.31121	0.889
5.35235	0.889
5.39348	0.887
5.43462	0.882
5.47576	0.886
5.51689	0.887
5.55803	0.887
5.59916	0.887
5.6403	0.887
5.68144	0.887
5.72257	0.879
5.76371	0.877
5.80485	0.872
5.84598	0.865
5.88712	0.86
5.92825	0.859
5.96939	0.864
6.01053	0.857
6.05166	0.852
6.0928	0.847
6.13393	0.828
6.17507	0.803
6.21621	0.736
6.25734	0.674
6.29848	0.623
6.33962	0.59
6.38075	0.536
6.42189	0.466
6.46302	0.477
6.50416	0.555
6.5453	0.575
6.58643	0.599
6.62757	0.609
6.6687	0.585
6.70984	0.424
6.75098	0.22
6.79211	0.156
6.83325	0.252
6.87439	0.332
6.91552	0.348
6.95666	0.359
6.99779	0.375
7.03893	0.412
7.08007	0.441
7.1212	0.443
7.16234	0.366
7.20347	0.336
7.24461	0.436
7.28575	0.373
7.32688	0.482
7.36802	0.56
7.40916	0.567
7.45029	0.594
7.49143	0.604
7.53256	0.611
7.5737	0.601
7.61484	0.575
7.65597	0.56
7.69711	0.538
7.73824	0.522
7.77938	0.517
7.82052	0.517
7.86165	0.521
7.90279	0.553
7.94393	0.582
7.98506	0.614
8.0262	0.641
8.06733	0.655
8.10847	0.658
8.14961	0.65
8.19074	0.617
8.23188	0.587
8.27301	0.594
8.31415	0.602
8.35529	0.592
8.39642	0.57
8.43756	0.55
8.4787	0.504
8.51983	0.492
8.56097	0.529
8.6021	0.561
8.64324	0.584
8.68438	0.611
8.72551	0.636
8.76665	0.645
8.80778	0.645
8.84892	0.582
8.89006	0.528
8.93119	0.46
8.97233	0.424
9.01347	0.434
9.0546	0.5
9.09574	0.567
9.13687	0.578
9.17801	0.619
9.21915	0.658
9.26028	0.684
9.30142	0.684
9.34255	0.641
9.38369	0.57
9.42483	0.432
9.46596	0.293
9.5071	0.161
9.54824	0.083
9.58937	0.047
9.63051	0.047
9.67164	0.059
9.71278	0.064
9.75392	0.066
9.79505	0.101
9.83619	0.203
9.87732	0.331
9.91846	0.405
9.9596	0.404
10.0007	0.346
10.0419	0.3
10.083	0.247
10.1241	0.229
10.1653	0.244
10.2064	0.283
10.2476	0.305
10.2887	0.298
10.3298	0.283
10.371	0.286
10.4121	0.327
10.4532	0.395
10.4944	0.441
10.5355	0.509
10.5766	0.565
10.6178	0.592
10.6589	0.648
10.7	0.706
10.7412	0.731
10.7823	0.723
10.8235	0.696
10.8646	0.711
10.9057	0.741
10.9469	0.733
10.988	0.699
11.0291	0.67
11.0703	0.655
11.1114	0.675
11.1525	0.696
11.1937	0.692
11.2348	0.653
11.276	0.641
11.3171	0.663
11.3582	0.694
11.3994	0.711
11.4405	0.726
11.4816	0.724
11.5228	0.718
11.5639	0.706
11.605	0.697
11.6462	0.689
11.6873	0.684
11.7285	0.685
11.7696	0.702
11.8107	0.726
11.8519	0.745
11.893	0.764
11.9341	0.764
11.9753	0.767
12.0164	0.774
12.0575	0.764
12.0987	0.752
12.1398	0.741
12.1809	0.733
12.2221	0.741
12.2632	0.755
12.3044	0.758
12.3455	0.762
12.3866	0.764
12.4278	0.764
12.4689	0.757
12.51	0.748
12.5512	0.743
12.5923	0.736
12.6334	0.726
12.6746	0.721
12.7157	0.704
12.7569	0.694
12.798	0.68
12.8391	0.67
12.8803	0.655
12.9214	0.634
12.9625	0.617
13.0037	0.606
13.0448	0.606
13.0859	0.621
13.1271	0.633
13.1682	0.643
13.2094	0.65
13.2505	0.653
13.2916	0.658
13.3328	0.657
13.3739	0.653
13.415	0.648
13.4562	0.643
13.4973	0.64
13.5384	0.633
13.5796	0.626
13.6207	0.621
13.6619	0.614
13.703	0.604
13.7441	0.595
13.7853	0.59
13.8264	0.582
13.8675	0.572
13.9087	0.563
13.9498	0.553
13.9909	0.548
14.0321	0.543
14.0732	0.536
14.1143	0.524
14.1555	0.519
14.1966	0.511
14.2378	0.504
14.2789	0.497
14.32	0.488
14.3612	0.478
14.4023	0.473
14.4434	0.468
14.4846	0.46
14.5257	0.449
14.5668	0.444
14.608	0.436
14.6491	0.427
14.6903	0.426
14.7314	0.415
14.7725	0.404
14.8137	0.398
14.8548	0.39
14.8959	0.382
14.9371	0.373
14.9782	0.366
15.0193	0.358
15.0605	0.348
15.1016	0.336
15.1428	0.327
15.1839	0.315
15.225	0.308
15.2662	0.298
15.3073	0.288
15.3484	0.28
15.3896	0.276
15.4307	0.269
15.4718	0.261
15.513	0.252
15.5541	0.249
15.5953	0.241
15.6364	0.23
15.6775	0.23
15.7187	0.227
15.7598	0.224
15.8009	0.219
15.8421	0.21
15.8832	0.207
15.9243	0.208
15.9655	0.222
