Infrared Spectrum: Alpha-i-BUTYL-Alpha-METHYLGLYCINE
Formula: C7 H15 N O2
CAS: 144-24-1
State: SOLID (KBr PELLET)
Class: COBLENTZ
Instrument: PERKIN-ELMER
Sampling: TRANSMISSION
Resolution: 4
Origin: ABBOTT LABORATORIES - WASHBURN
MICROMETERS	TRANSMITTANCE
2.066	0.765
2.1061	0.773
2.14621	0.7721
2.18631	0.7745
2.22642	0.775
2.26652	0.778
2.30662	0.7729
2.34673	0.767
2.38683	0.77
2.42694	0.7771
2.46704	0.777
2.50714	0.778
2.54725	0.7853
2.58735	0.785
2.62746	0.788
2.66756	0.79
2.70766	0.7919
2.74777	0.7829
2.78787	0.7728
2.82798	0.7428
2.86808	0.696
2.90818	0.663
2.94829	0.6327
2.98839	0.6331
3.0285	0.6535
3.0686	0.6589
3.1087	0.608
3.14881	0.5303
3.18891	0.3956
3.22902	0.2887
3.26912	0.2519
3.30922	0.237
3.34933	0.241
3.38943	0.2113
3.42954	0.1479
3.46964	0.1979
3.50974	0.2476
3.54985	0.3023
3.58995	0.3562
3.63006	0.3781
3.67016	0.3981
3.71026	0.422
3.75037	0.433
3.79047	0.445
3.83058	0.4582
3.87068	0.4618
3.91078	0.4516
3.95089	0.445
3.99099	0.4523
4.0311	0.469
4.0712	0.4851
4.1113	0.5101
4.15141	0.534
4.19151	0.552
4.23162	0.5739
4.27172	0.5892
4.31182	0.6031
4.35193	0.6312
4.39203	0.6483
4.43214	0.668
4.47224	0.675
4.51234	0.68
4.55245	0.683
4.59255	0.685
4.63266	0.68
4.67276	0.6759
4.71286	0.6709
4.75297	0.658
4.79307	0.6509
4.83318	0.6431
4.87328	0.648
4.91338	0.6541
4.95349	0.668
4.99359	0.678
5.0337	0.6879
5.0738	0.698
5.1139	0.7108
5.15401	0.715
5.19411	0.721
5.23422	0.726
5.27432	0.729
5.31442	0.735
5.35453	0.742
5.39463	0.7404
5.43474	0.742
5.47484	0.743
5.51494	0.7418
5.55505	0.7402
5.59515	0.738
5.63526	0.7303
5.67536	0.7238
5.71546	0.718
5.75557	0.7047
5.79567	0.6944
5.83578	0.6708
5.87588	0.6458
5.91598	0.6209
5.95609	0.5779
5.99619	0.4352
6.0363	0.2805
6.0764	0.1997
6.1165	0.1188
6.15661	0.087
6.19671	0.087
6.23682	0.0797
6.27692	0.0515
6.31702	0.0748
6.35713	0.1237
6.39723	0.1775
6.43734	0.2305
6.47744	0.2828
6.51754	0.2892
6.55765	0.2627
6.59775	0.2813
6.63786	0.3016
6.67796	0.3286
6.71806	0.3848
6.75817	0.4442
6.79827	0.4388
6.83838	0.3342
6.87848	0.304
6.91858	0.3697
6.95869	0.4393
6.99879	0.4242
7.0389	0.4682
7.079	0.4707
7.1191	0.2652
7.15921	0.1257
7.19931	0.1496
7.23942	0.2449
7.27952	0.3352
7.31962	0.2457
7.35973	0.2856
7.39983	0.3803
7.43994	0.4528
7.48004	0.397
7.52014	0.4394
7.56025	0.5576
7.60035	0.6221
7.64046	0.6012
7.68056	0.5161
7.72066	0.4801
7.76077	0.4061
7.80087	0.3424
7.84098	0.3629
7.88108	0.4749
7.92118	0.5683
7.96129	0.6051
8.00139	0.5959
8.0415	0.577
8.0816	0.594
8.1217	0.6288
8.16181	0.6452
8.20191	0.6372
8.24202	0.6176
8.28212	0.606
8.32222	0.632
8.36233	0.662
8.40243	0.6797
8.44254	0.6648
8.48264	0.6198
8.52274	0.5438
8.56285	0.517
8.60295	0.5366
8.64306	0.5595
8.68316	0.5896
8.72326	0.6543
8.76337	0.6985
8.80347	0.7228
8.84358	0.7309
8.88368	0.731
8.92378	0.725
8.96389	0.718
9.00399	0.711
9.0441	0.7141
9.0842	0.7125
9.1243	0.6977
9.16441	0.688
9.20451	0.6959
9.24462	0.698
9.28472	0.688
9.32482	0.696
9.36493	0.711
9.40503	0.7167
9.44514	0.7205
9.48524	0.725
9.52534	0.728
9.56545	0.73
9.60555	0.735
9.64566	0.7368
9.68576	0.737
9.72586	0.7348
9.76597	0.7302
9.80607	0.7216
9.84618	0.7108
9.88628	0.7067
9.92638	0.7
9.96649	0.698
10.0066	0.7053
10.0467	0.7115
10.0868	0.725
10.1269	0.711
10.167	0.718
10.2071	0.715
10.2472	0.71
10.2873	0.708
10.3274	0.715
10.3675	0.7267
10.4076	0.735
10.4477	0.74
10.4878	0.7435
10.5279	0.7453
10.568	0.7416
10.6082	0.7348
10.6483	0.72
10.6884	0.7153
10.7285	0.7086
10.7686	0.7037
10.8087	0.7004
10.8488	0.6921
10.8889	0.6856
10.929	0.6868
10.9691	0.6991
11.0092	0.7164
11.0493	0.7251
11.0894	0.728
11.1295	0.73
11.1696	0.7308
11.2097	0.7344
11.2498	0.7395
11.2899	0.745
11.33	0.75
11.3701	0.7511
11.4102	0.7363
11.4503	0.713
11.4904	0.6869
11.5305	0.6458
11.5706	0.5964
11.6108	0.5471
11.6509	0.5466
11.691	0.6032
11.7311	0.6463
11.7712	0.6956
11.8113	0.7169
11.8514	0.7217
11.8915	0.721
11.9316	0.7138
11.9717	0.708
12.0118	0.701
12.0519	0.701
12.092	0.7
12.1321	0.7141
12.1722	0.7224
12.2123	0.7345
12.2524	0.754
12.2925	0.7576
12.3326	0.7512
12.3727	0.722
12.4128	0.6923
12.4529	0.6625
12.493	0.6389
12.5331	0.6167
12.5732	0.6036
12.6134	0.606
12.6535	0.6092
12.6936	0.6145
12.7337	0.6716
12.7738	0.7244
12.8139	0.7524
12.854	0.7655
12.8941	0.762
12.9342	0.767
12.9743	0.7651
13.0144	0.765
13.0545	0.7598
13.0946	0.768
13.1347	0.7693
13.1748	0.775
13.2149	0.7734
13.255	0.7724
13.2951	0.7778
13.3352	0.7746
13.3753	0.7716
13.4154	0.7684
13.4555	0.772
13.4956	0.772
13.5357	0.7756
13.5758	0.7736
13.616	0.7763
13.6561	0.775
13.6962	0.775
13.7363	0.772
13.7764	0.768
13.8165	0.777
13.8566	0.77
13.8967	0.775
13.9368	0.775
13.9769	0.77
14.017	0.7758
14.0571	0.77
14.0972	0.773
14.1373	0.7691
14.1774	0.7741
14.2175	0.768
14.2576	0.7695
14.2977	0.768
14.3378	0.7699
14.3779	0.77
14.418	0.7683
14.4581	0.767
14.4982	0.7665
14.5383	0.766
14.5784	0.7671
14.6186	0.767
14.6587	0.76
14.6988	0.762
14.7389	0.7578
14.779	0.758
14.8191	0.7506
14.8592	0.748
14.8993	0.7382
14.9394	0.725
14.9795	0.7365
15.0196	0.7412
15.0597	0.7315
15.0998	0.7305
15.1399	0.7391
15.18	0.7337
15.2201	0.7428
15.2602	0.7353
15.3003	0.7329
15.3404	0.733
15.3805	0.7264
15.4206	0.733
