Infrared Spectrum: TRIHEXYPHENIDYL
Formula: C20 H31 N O
CAS: 144-11-6
State: SOLUTION (1.3% IN CS2 FOR 2-15, 1.3% IN C2Cl4 FOR 5.2-7.3 MICRONS)
Melting point: 114.3-115.0 C
Class: COBLENTZ III
Instrument: PERKIN-ELMER 21 (GRATING)
Instrument parameters: FILTER CHANGE AT 10 MICRON
Sampling: TRANSMISSION
Path length: 0.01 CM, 0.01 CM
Resolution: 2
MICROMETERS	TRANSMITTANCE
2.033	0.968
2.06635	0.968
2.09969	0.968
2.13304	0.97
2.16638	0.968
2.19973	0.967
2.23308	0.967
2.26642	0.968
2.29977	0.966
2.33312	0.959
2.36646	0.949
2.39981	0.951
2.43315	0.954
2.4665	0.952
2.49985	0.945
2.53319	0.948
2.56654	0.952
2.59988	0.957
2.63323	0.958
2.66658	0.96
2.69992	0.963
2.73327	0.959
2.76661	0.959
2.79996	0.964
2.83331	0.965
2.86665	0.951
2.9	0.93
2.93335	0.9
2.96669	0.844
3.00004	0.738
3.03338	0.625
3.06673	0.554
3.10008	0.515
3.13342	0.501
3.16677	0.502
3.20011	0.533
3.23346	0.553
3.26681	0.546
3.30015	0.588
3.3335	0.656
3.36685	0.445
3.40019	0.1
3.43354	0.095
3.46688	0.36
3.50023	0.248
3.53358	0.307
3.56692	0.316
3.60027	0.416
3.63361	0.553
3.66696	0.68
3.70031	0.749
3.73365	0.77
3.767	0.788
3.80034	0.847
3.83369	0.879
3.86704	0.881
3.90038	0.894
3.93373	0.921
3.96708	0.926
4.00042	0.923
4.03377	0.928
4.06711	0.934
4.10046	0.937
4.13381	0.939
4.16715	0.941
4.2005	0.945
4.23384	0.943
4.26719	0.943
4.30054	0.948
4.33388	0.953
4.36723	0.955
4.40058	0.951
4.43392	0.953
4.46727	0.953
4.50061	0.955
4.53396	0.958
4.56731	0.955
4.60065	0.952
4.634	0.955
4.66734	0.955
4.70069	0.955
4.73404	0.952
4.76738	0.952
4.80073	0.961
4.83407	0.97
4.86742	0.966
4.90077	0.967
4.93411	0.966
4.96746	0.966
5.00081	0.965
5.03415	0.965
5.0675	0.964
5.10084	0.961
5.13419	0.946
5.16754	0.937
5.20088	0.959
5.23423	0.96
5.26757	0.96
5.30092	0.957
5.33427	0.936
5.36761	0.951
5.40096	0.959
5.43431	0.963
5.46765	0.965
5.501	0.96
5.53434	0.945
5.56769	0.947
5.60104	0.964
5.63438	0.965
5.66773	0.965
5.70107	0.958
5.73442	0.963
5.76777	0.967
5.80111	0.971
5.83446	0.977
5.8678	0.973
5.90115	0.964
5.9345	0.964
5.96784	0.966
6.00119	0.97
6.03454	0.973
6.06788	0.983
6.10123	0.986
6.13457	0.99
6.16792	0.988
6.20127	0.978
6.23461	0.908
6.26796	0.872
6.3013	0.957
6.33465	0.954
6.368	0.966
6.40134	0.977
6.43469	0.982
6.46804	0.972
6.50138	0.967
6.53473	0.967
6.56807	0.968
6.60142	0.964
6.63477	0.942
6.66811	0.897
6.70146	0.72
6.7348	0.718
6.76815	0.689
6.8015	0.494
6.83484	0.676
6.86819	0.363
6.90153	0.275
6.93488	0.372
6.96823	0.52
7.00157	0.619
7.03492	0.665
7.06827	0.707
7.10161	0.732
7.13496	0.744
7.1683	0.756
7.20165	0.797
7.235	0.775
7.26834	0.619
7.30169	0.653
7.33503	0.674
7.36838	0.668
7.40173	0.482
7.43507	0.593
7.46842	0.647
7.50177	0.627
7.53511	0.655
7.56846	0.693
7.6018	0.719
7.63515	0.667
7.6685	0.588
7.70184	0.544
7.73519	0.687
7.76853	0.75
7.80188	0.662
7.83523	0.613
7.86857	0.692
7.90192	0.584
7.93526	0.607
7.96861	0.595
8.00196	0.485
8.0353	0.704
8.06865	0.729
8.102	0.784
8.13534	0.78
8.16869	0.774
8.20203	0.633
8.23538	0.658
8.26873	0.776
8.30207	0.813
8.33542	0.834
8.36876	0.863
8.40211	0.873
8.43546	0.811
8.4688	0.751
8.50215	0.793
8.5355	0.821
8.56884	0.806
8.60219	0.726
8.63553	0.687
8.66888	0.534
8.70223	0.572
8.73557	0.612
8.76892	0.743
8.80226	0.769
8.83561	0.727
8.86896	0.439
8.9023	0.221
8.93565	0.357
8.96899	0.428
9.00234	0.482
9.03569	0.621
9.06903	0.723
9.10238	0.773
9.13573	0.815
9.16907	0.826
9.20242	0.819
9.23576	0.842
9.26911	0.835
9.30246	0.817
9.3358	0.75
9.36915	0.658
9.40249	0.647
9.43584	0.727
9.46919	0.767
9.50253	0.77
9.53588	0.683
9.56923	0.639
9.60257	0.657
9.63592	0.59
9.66926	0.565
9.70261	0.65
9.73596	0.741
9.7693	0.742
9.80265	0.721
9.83599	0.661
9.86934	0.647
9.90269	0.681
9.93603	0.646
9.96938	0.653
10.0027	0.775
10.0361	0.843
10.0694	0.902
10.1028	0.896
10.1361	0.898
10.1695	0.886
10.2028	0.883
10.2361	0.884
10.2695	0.886
10.3028	0.894
10.3362	0.906
10.3695	0.906
10.4029	0.887
10.4362	0.879
10.4696	0.886
10.5029	0.872
10.5363	0.855
10.5696	0.868
10.603	0.899
10.6363	0.91
10.6696	0.912
10.703	0.909
10.7363	0.899
10.7697	0.868
10.803	0.825
10.8364	0.812
10.8697	0.829
10.9031	0.83
10.9364	0.778
10.9698	0.745
11.0031	0.766
11.0365	0.764
11.0698	0.727
11.1031	0.749
11.1365	0.795
11.1698	0.792
11.2032	0.725
11.2365	0.71
11.2699	0.758
11.3032	0.794
11.3366	0.792
11.3699	0.795
11.4033	0.798
11.4366	0.793
11.47	0.792
11.5033	0.775
11.5366	0.747
11.57	0.731
11.6033	0.738
11.6367	0.742
11.67	0.741
11.7034	0.743
11.7367	0.76
11.7701	0.764
11.8034	0.768
11.8368	0.776
11.8701	0.791
11.9035	0.83
11.9368	0.871
11.9701	0.902
12.0035	0.914
12.0368	0.92
12.0702	0.926
12.1035	0.929
12.1369	0.93
12.1702	0.93
12.2036	0.928
12.2369	0.927
12.2703	0.921
12.3036	0.915
12.337	0.906
12.3703	0.896
12.4036	0.863
12.437	0.854
12.4703	0.846
12.5037	0.867
12.537	0.883
12.5704	0.891
12.6037	0.894
12.6371	0.897
12.6704	0.897
12.7038	0.887
12.7371	0.884
12.7705	0.879
12.8038	0.872
12.8371	0.868
12.8705	0.861
12.9038	0.852
12.9372	0.837
12.9705	0.801
13.0039	0.704
13.0372	0.541
13.0706	0.527
13.1039	0.46
13.1373	0.348
13.1706	0.335
13.204	0.367
13.2373	0.402
13.2706	0.464
13.304	0.532
13.3373	0.579
13.3707	0.601
13.404	0.615
13.4374	0.612
13.4707	0.597
13.5041	0.556
13.5374	0.52
13.5708	0.547
13.6041	0.622
13.6375	0.687
13.6708	0.72
13.7041	0.738
13.7375	0.748
13.7708	0.752
13.8042	0.754
13.8375	0.757
13.8709	0.75
13.9042	0.754
13.9376	0.747
13.9709	0.718
14.0043	0.694
14.0376	0.669
14.071	0.596
14.1043	0.538
14.1376	0.547
14.171	0.558
14.2043	0.468
14.2377	0.286
14.271	0.12
14.3044	0.118
14.3377	0.198
14.3711	0.357
14.4044	0.486
14.4378	0.576
14.4711	0.638
14.5045	0.687
14.5378	0.715
14.5711	0.741
14.6045	0.757
14.6378	0.768
14.6712	0.787
14.7045	0.798
14.7379	0.806
14.7712	0.816
14.8046	0.824
14.8379	0.834
14.8713	0.834
14.9046	0.842
14.938	0.853
14.9713	0.86
15.0046	0.856
15.038	0.856
15.0713	0.856
