Infrared Spectrum: TRIS(2,4-PENTANEDIONATO) INDIUM
Formula: C15 H21 In O6
CAS: 14405-45-9
State: SOLID (KBr WAFER)
Melting point: 186 C
Class: COBLENTZ
Instrument: BECKMAN IR-4 (HYBRID PRISM-GRATING)
Sampling: TRANSMISSION
Resolution: 4
Origin: MACKENZIE CHEMICAL WORKS, INC., LONG ISLAND, NEW YORK
MICROMETERS	TRANSMITTANCE
2.02	0.892
2.05503	0.895
2.09005	0.898
2.12508	0.899
2.16011	0.905
2.19513	0.912
2.23016	0.914
2.26519	0.914
2.30022	0.912
2.33524	0.915
2.37027	0.923
2.4053	0.922
2.44032	0.924
2.47535	0.928
2.51038	0.929
2.5454	0.928
2.58043	0.922
2.61546	0.912
2.65048	0.903
2.68551	0.894
2.72054	0.889
2.75557	0.868
2.79059	0.858
2.82562	0.855
2.86065	0.821
2.89567	0.804
2.9307	0.791
2.96573	0.808
3.00075	0.826
3.03578	0.851
3.07081	0.873
3.10584	0.877
3.14086	0.878
3.17589	0.892
3.21092	0.9
3.24594	0.9
3.28097	0.895
3.316	0.89
3.35102	0.888
3.38605	0.887
3.42108	0.882
3.4561	0.902
3.49113	0.914
3.52616	0.917
3.56119	0.918
3.59621	0.922
3.63124	0.933
3.66627	0.928
3.70129	0.928
3.73632	0.93
3.77135	0.93
3.80637	0.929
3.8414	0.923
3.87643	0.924
3.91145	0.928
3.94648	0.928
3.98151	0.929
4.01654	0.932
4.05156	0.937
4.08659	0.942
4.12162	0.939
4.15664	0.937
4.19167	0.928
4.2267	0.944
4.26172	0.946
4.29675	0.942
4.33178	0.941
4.36681	0.928
4.40183	0.924
4.43686	0.927
4.47189	0.927
4.50691	0.928
4.54194	0.927
4.57697	0.929
4.61199	0.929
4.64702	0.927
4.68205	0.929
4.71707	0.929
4.7521	0.929
4.78713	0.93
4.82216	0.927
4.85718	0.929
4.89221	0.929
4.92724	0.929
4.96226	0.927
4.99729	0.927
5.03232	0.93
5.06734	0.928
5.10237	0.922
5.1374	0.928
5.17242	0.933
5.20745	0.942
5.24248	0.942
5.27751	0.938
5.31253	0.934
5.34756	0.927
5.38259	0.939
5.41761	0.942
5.45264	0.939
5.48767	0.938
5.52269	0.932
5.55772	0.934
5.59275	0.941
5.62778	0.937
5.6628	0.927
5.69783	0.927
5.73286	0.929
5.76788	0.933
5.80291	0.928
5.83794	0.903
5.87296	0.912
5.90799	0.909
5.94302	0.899
5.97804	0.898
6.01307	0.893
6.0481	0.865
6.08313	0.853
6.11815	0.825
6.15318	0.806
6.18821	0.771
6.22323	0.701
6.25826	0.612
6.29329	0.488
6.32831	0.207
6.36334	0.116
6.39837	0.25
6.43339	0.378
6.46842	0.341
6.50345	0.219
6.53848	0.26
6.5735	0.468
6.60853	0.595
6.64356	0.69
6.67858	0.706
6.71361	0.759
6.74864	0.782
6.78366	0.732
6.81869	0.662
6.85372	0.574
6.88875	0.538
6.92377	0.519
6.9588	0.504
6.99383	0.475
7.02885	0.426
7.06388	0.406
7.09891	0.37
7.13393	0.336
7.16896	0.385
7.20399	0.381
7.23901	0.331
7.27404	0.284
7.30907	0.302
7.3441	0.393
7.37912	0.543
7.41415	0.687
7.44918	0.766
7.4842	0.844
7.51923	0.858
7.55426	0.87
7.58928	0.889
7.62431	0.892
7.65934	0.897
7.69436	0.903
7.72939	0.898
7.76442	0.899
7.79945	0.897
7.83447	0.883
7.8695	0.777
7.90453	0.564
7.93955	0.715
7.97458	0.887
8.00961	0.894
8.04463	0.909
8.07966	0.912
8.11469	0.922
8.14972	0.925
8.18474	0.923
8.21977	0.927
8.2548	0.923
8.28982	0.917
8.32485	0.894
8.35988	0.892
8.3949	0.9
8.42993	0.91
8.46496	0.915
8.49998	0.917
8.53501	0.917
8.57004	0.914
8.60507	0.908
8.64009	0.91
8.67512	0.909
8.71015	0.907
8.74517	0.91
8.7802	0.908
8.81523	0.904
8.85025	0.909
8.88528	0.905
8.92031	0.904
8.95533	0.903
8.99036	0.903
9.02539	0.903
9.06042	0.903
9.09544	0.903
9.13047	0.903
9.1655	0.903
9.20052	0.903
9.23555	0.904
9.27058	0.904
9.3056	0.905
9.34063	0.904
9.37566	0.904
9.41069	0.904
9.44571	0.902
9.48074	0.9
9.51577	0.898
9.55079	0.888
9.58582	0.874
9.62085	0.854
9.65587	0.829
9.6909	0.789
9.72593	0.747
9.76095	0.672
9.79598	0.609
9.83101	0.641
9.86604	0.692
9.90106	0.723
9.93609	0.741
9.97112	0.8
10.0061	0.831
10.0412	0.85
10.0762	0.854
10.1112	0.861
10.1463	0.864
10.1813	0.87
10.2163	0.875
10.2513	0.878
10.2864	0.88
10.3214	0.88
10.3564	0.88
10.3914	0.883
10.4265	0.882
10.4615	0.879
10.4965	0.874
10.5315	0.87
10.5666	0.858
10.6016	0.849
10.6366	0.829
10.6717	0.774
10.7067	0.697
10.7417	0.639
10.7767	0.644
10.8118	0.688
10.8468	0.756
10.8818	0.816
10.9168	0.841
10.9519	0.861
10.9869	0.879
11.0219	0.884
11.057	0.888
11.092	0.895
11.127	0.899
11.162	0.9
11.1971	0.9
11.2321	0.902
11.2671	0.904
11.3021	0.904
11.3372	0.905
11.3722	0.905
11.4072	0.907
11.4422	0.908
11.4773	0.908
11.5123	0.909
11.5473	0.909
11.5824	0.913
11.6174	0.915
11.6524	0.912
11.6874	0.91
11.7225	0.914
11.7575	0.91
11.7925	0.912
11.8275	0.908
11.8626	0.91
11.8976	0.913
11.9326	0.91
11.9677	0.905
12.0027	0.913
12.0377	0.908
12.0727	0.91
12.1078	0.909
12.1428	0.904
12.1778	0.908
12.2128	0.908
12.2479	0.904
12.2829	0.905
12.3179	0.902
12.3529	0.897
12.388	0.882
12.423	0.863
12.458	0.843
12.4931	0.849
12.5281	0.867
12.5631	0.873
12.5981	0.869
12.6332	0.856
12.6682	0.835
12.7032	0.808
12.7382	0.787
12.7733	0.779
12.8083	0.742
12.8433	0.731
12.8784	0.764
12.9134	0.795
12.9484	0.815
12.9834	0.839
13.0185	0.848
13.0535	0.855
13.0885	0.87
13.1235	0.873
13.1586	0.878
13.1936	0.878
13.2286	0.879
13.2636	0.885
13.2987	0.888
13.3337	0.888
13.3687	0.892
13.4038	0.895
13.4388	0.897
13.4738	0.897
13.5088	0.897
13.5439	0.897
13.5789	0.899
13.6139	0.9
13.6489	0.902
13.684	0.907
13.719	0.908
13.754	0.909
13.7891	0.912
13.8241	0.914
13.8591	0.918
13.8941	0.919
13.9292	0.923
13.9642	0.923
13.9992	0.919
14.0342	0.923
14.0693	0.925
14.1043	0.923
14.1393	0.925
14.1743	0.924
14.2094	0.929
14.2444	0.93
14.2794	0.936
14.3145	0.938
14.3495	0.937
14.3845	0.938
14.4195	0.934
14.4546	0.933
14.4896	0.936
14.5246	0.938
14.5596	0.939
14.5947	0.946
14.6297	0.947
14.6647	0.943
14.6998	0.946
14.7348	0.936
14.7698	0.927
14.8048	0.925
14.8399	0.924
14.8749	0.929
14.9099	0.936
14.9449	0.943
14.98	0.948
15.015	0.944
