Infrared Spectrum: Pyridine, 2-methyl-, hydrochloride
Formula: C6 H8 Cl N
CAS: 14401-91-3
State: LIQUID (NEAT, HYGROSCOPIC)
Class: COBLENTZ III
Instrument: PERKIN-ELMER 157
Sampling: TRANSMISSION
Resolution: 2
Origin: BRITISH PETROLEUM CO. LTD.
1/CM	TRANSMITTANCE
667	0.5322
676	0.5271
685	0.5287
694	0.5357
703	0.4932
712	0.4855
721	0.5608
730	0.5555
739	0.5459
748	0.4867
757	0.3376
766	0.1825
775	0.1628
784	0.2488
793	0.4139
802	0.5697
811	0.627
820	0.6891
829	0.7001
838	0.7015
847	0.7003
856	0.6927
865	0.686
874	0.6798
883	0.66
892	0.6478
901	0.6477
910	0.6458
919	0.6343
928	0.608
937	0.5776
946	0.5483
955	0.5359
964	0.5468
973	0.5469
982	0.5066
991	0.4305
1000	0.4452
1009	0.4472
1018	0.5219
1027	0.5571
1036	0.5262
1045	0.4128
1054	0.3918
1063	0.42
1072	0.4821
1081	0.5332
1090	0.5452
1099	0.4902
1108	0.5054
1117	0.527
1126	0.5914
1135	0.6008
1144	0.5985
1153	0.559
1162	0.4912
1171	0.4506
1180	0.5485
1189	0.6113
1198	0.6349
1207	0.6352
1216	0.6235
1225	0.5887
1234	0.5038
1243	0.5068
1252	0.5366
1261	0.5541
1270	0.5852
1279	0.4944
1288	0.3526
1297	0.3634
1306	0.5478
1315	0.6293
1324	0.6384
1333	0.639
1342	0.6366
1351	0.6213
1360	0.6204
1369	0.6053
1378	0.549
1387	0.4815
1396	0.3319
1405	0.282
1414	0.3973
1423	0.4808
1432	0.4746
1441	0.4603
1450	0.456
1459	0.4205
1468	0.3261
1477	0.2298
1486	0.2849
1495	0.4644
1504	0.5141
1513	0.5041
1522	0.4582
1531	0.3908
1540	0.3347
1549	0.3807
1558	0.4269
1567	0.5382
1576	0.5401
1585	0.5248
1594	0.4824
1603	0.4393
1612	0.3294
1621	0.1414
1630	0.1134
1639	0.1234
1648	0.1762
1657	0.267
1666	0.3315
1675	0.4237
1684	0.5018
1693	0.5604
1702	0.5746
1711	0.6105
1720	0.6339
1729	0.643
1738	0.6654
1747	0.6717
1756	0.6726
1765	0.6729
1774	0.6727
1783	0.671
1792	0.6617
1801	0.6557
1810	0.6485
1819	0.6432
1828	0.628
1837	0.6213
1846	0.6037
1855	0.5985
1864	0.5945
1873	0.5906
1882	0.5692
1891	0.5628
1900	0.5474
1909	0.5281
1918	0.5081
1927	0.4877
1936	0.4715
1945	0.4515
1954	0.4197
1963	0.3713
1972	0.3468
1981	0.322
1990	0.3031
1999	0.2929
2008	0.2774
2017	0.2683
2026	0.2668
2035	0.2662
2044	0.261
2053	0.2535
2062	0.2469
2071	0.2454
2080	0.2453
2089	0.2486
2098	0.2589
2107	0.2667
2116	0.2778
2125	0.2891
2134	0.3136
2143	0.3367
2152	0.3484
2161	0.3522
2170	0.3532
2179	0.3536
2188	0.3539
2197	0.3542
2206	0.3543
2215	0.3532
2224	0.3502
2233	0.3399
2242	0.3282
2251	0.3196
2260	0.309
2269	0.2961
2278	0.2764
2287	0.2582
2296	0.2455
2305	0.23
2314	0.2151
2323	0.1929
2332	0.1776
2341	0.171
2350	0.1661
2359	0.1631
2368	0.1601
2377	0.1548
2386	0.145
2395	0.135
2404	0.1259
2413	0.1151
2422	0.1073
2431	0.1016
2440	0.0929
2449	0.0868
2458	0.085
2467	0.0837
2476	0.0824
2485	0.0818
2494	0.0813
2503	0.081
2512	0.081
2521	0.0809
2530	0.0808
2539	0.0808
2548	0.0807
2557	0.081
2566	0.0812
2575	0.0814
2584	0.0816
2593	0.0818
2602	0.0821
2611	0.0824
2620	0.0826
2629	0.0829
2638	0.0832
2647	0.0839
2656	0.0848
2665	0.0864
2674	0.0892
2683	0.0918
2692	0.0942
2701	0.0958
2710	0.0969
2719	0.0969
2728	0.0969
2737	0.0969
2746	0.1001
2755	0.1047
2764	0.1082
2773	0.1105
2782	0.1132
2791	0.1156
2800	0.1163
2809	0.1167
2818	0.1168
2827	0.1197
2836	0.1245
2845	0.1282
2854	0.1319
2863	0.1358
2872	0.1398
2881	0.1463
2890	0.1515
2899	0.152
2908	0.1522
2917	0.1523
2926	0.1525
2935	0.1541
2944	0.1582
2953	0.1623
2962	0.1668
2971	0.1711
2980	0.1742
2989	0.1721
2998	0.1694
3007	0.1621
3016	0.1527
3025	0.1449
3034	0.1404
3043	0.1396
3052	0.1402
3061	0.1434
3070	0.1516
3079	0.1605
3088	0.1682
3097	0.1766
3106	0.1833
3115	0.1903
3124	0.1992
3133	0.2037
3142	0.2021
3151	0.1994
3160	0.1923
3169	0.1854
3178	0.1793
3187	0.1727
3196	0.1656
3205	0.1572
3214	0.1495
3223	0.1422
3232	0.1348
3241	0.1269
3250	0.121
3259	0.117
3268	0.116
3277	0.1158
3286	0.1157
3295	0.1154
3304	0.1149
3313	0.1134
3322	0.1095
3331	0.1033
3340	0.0983
3349	0.0933
3358	0.0885
3367	0.0867
3376	0.0851
3385	0.0844
3394	0.0838
3403	0.0838
3412	0.0841
3421	0.0849
3430	0.0874
3439	0.0898
3448	0.0909
3457	0.0912
3466	0.0914
3475	0.0918
3484	0.0924
3493	0.0929
3502	0.0937
3511	0.0949
3520	0.0964
3529	0.0985
3538	0.1025
3547	0.1096
3556	0.1524
3565	0.1735
3574	0.2393
3583	0.2755
3592	0.3237
3601	0.3741
3610	0.4242
3619	0.4741
3628	0.5238
3637	0.5731
3646	0.6223
3655	0.6712
3664	0.7199
3673	0.7645
3682	0.7854
3691	0.7932
3700	0.7961
3709	0.7978
3718	0.7988
3727	0.7994
3736	0.7995
3745	0.7997
3754	0.7998
3763	0.7997
3772	0.7995
3781	0.7993
3790	0.799
3799	0.7984
3808	0.7969
3817	0.7927
3826	0.7883
3835	0.7847
3844	0.7814
3853	0.78
3862	0.7796
3871	0.7792
3880	0.7789
3889	0.7787
3898	0.7785
3907	0.7783
3916	0.7781
3925	0.7778
3934	0.7776
3943	0.7774
3952	0.777
3961	0.7741
3970	0.769
3979	0.7638
3988	0.7587
3997	0.7541
