Infrared Spectrum: 1-t-Butyl-3-ethylbenzene
Formula: C 12 H 18
CAS: 14411-56-4
State: gas
Instrument: HP-GC/MS/IRD
Origin: NIST Mass Spectrometry Data Center
1/CM	ABSORBANCE
550	7.98e-05
562	0.0001008
574	4.62e-05
586	0.0001512
598	0.000168
610	0.000189
622	0.0002646
634	0.0001764
646	0.0002478
658	0.000336
670	0.000525
682	0.0009702
694	0.0038934
706	0.0065688
718	0.0027384
730	0.0007896
742	0.0005964
754	0.0007686
766	0.0011928
778	0.0028896
790	0.0043512
802	0.0022806
814	0.0008652
826	0.0004872
838	0.0003906
850	0.000483
862	0.0013944
874	0.003024
886	0.0022512
898	0.0012348
910	0.000693
922	0.0006258
934	0.0005586
946	0.0004032
958	0.0003738
970	0.0004704
982	0.0004704
994	0.0004662
1006	0.0004704
1018	0.0005418
1030	0.0005586
1042	0.0006132
1054	0.0008652
1066	0.0009576
1078	0.0008778
1090	0.0014406
1102	0.0013608
1114	0.000609
1126	0.0004158
1138	0.0003528
1150	0.0004032
1162	0.0004368
1174	0.0006594
1186	0.0013944
1198	0.0028476
1210	0.0016044
1222	0.0007812
1234	0.0008862
1246	0.0013104
1258	0.00252
1270	0.004053
1282	0.0022638
1294	0.0009198
1306	0.0008316
1318	0.00105
1330	0.0010752
1342	0.0011508
1354	0.002205
1366	0.0040614
1378	0.003486
1390	0.002499
1402	0.0023394
1414	0.0020496
1426	0.0026838
1438	0.0028182
1450	0.0032382
1462	0.0043764
1474	0.0054054
1486	0.0070224
1498	0.0036582
1510	0.0012474
1522	0.0008022
1534	0.0006258
1546	0.000525
1558	0.0007266
1570	0.0012432
1582	0.0025326
1594	0.0044688
1606	0.0053046
1618	0.0020748
1630	0.0006426
1642	0.0004074
1654	0.0004116
1666	0.0003948
1678	0.0004872
1690	0.000462
1702	0.0003486
1714	0.0002646
1726	0.00021
1738	0.000273
1750	0.0003192
1762	0.0004368
1774	0.000504
1786	0.000441
1798	0.0003276
1810	0.0002016
1822	0.0001554
1834	0.000189
1846	0.0003528
1858	0.0005586
1870	0.0003444
1882	0.0001554
1894	0.0001344
1906	0.000147
1918	0.0002982
1930	0.0004158
1942	0.0002478
1954	0.000126
1966	8.82e-05
1978	5.46e-05
1990	7.56e-05
2002	8.4e-05
2014	7.56e-05
2026	8.82e-05
2038	9.24e-05
2050	6.72e-05
2062	6.3e-05
2074	5.88e-05
2086	3.78e-05
2098	8.4e-06
2110	8.4e-06
2122	1.26e-05
2134	2.94e-05
2146	4.62e-05
2158	6.72e-05
2170	7.14e-05
2182	5.04e-05
2194	3.78e-05
2206	2.94e-05
2218	3.36e-05
2230	4.62e-05
2242	5.04e-05
2254	4.2e-05
2266	6.3e-05
2278	6.72e-05
2290	0.0001092
2302	5.88e-05
2314	6.3e-05
2326	7.56e-05
2338	0.000105
2350	0.0001302
2362	0.0001764
2374	0.0001134
2386	0.0001134
2398	8.82e-05
2410	7.56e-05
2422	9.24e-05
2434	8.4e-05
2446	8.82e-05
2458	6.72e-05
2470	7.98e-05
2482	7.56e-05
2494	9.66e-05
2506	0.000105
2518	0.0001092
2530	0.0001008
2542	0.0001176
2554	0.0001092
2566	0.0001344
2578	0.0001386
2590	0.0001554
2602	0.0001428
2614	0.0001596
2626	0.0001638
2638	0.000231
2650	0.0002268
2662	0.0002184
2674	0.000231
2686	0.0002268
2698	0.0002436
2710	0.0003528
2722	0.000441
2734	0.000483
2746	0.0005124
2758	0.0005418
2770	0.0005124
2782	0.0006342
2794	0.000714
2806	0.000861
2818	0.0010836
2830	0.001449
2842	0.0021084
2854	0.0035742
2866	0.0070224
2878	0.0102186
2890	0.0105966
2902	0.0109578
2914	0.0122472
2926	0.0131712
2938	0.016401
2950	0.0211806
2962	0.0358932
2974	0.0383418
2986	0.0153174
2998	0.0061026
3010	0.0039984
3022	0.0042294
3034	0.0052164
3046	0.0057834
3058	0.0052752
3070	0.004494
3082	0.0035406
3094	0.0022596
3106	0.0015876
3118	0.0010962
3130	0.0007686
3142	0.0006594
3154	0.0005754
3166	0.0005586
3178	0.000546
3190	0.0005586
3202	0.0004788
3214	0.0003948
3226	0.000378
3238	0.0003402
3250	0.0003486
3262	0.0002772
3274	0.000273
3286	0.0002268
3298	0.0002016
3310	0.0001932
3322	0.0001596
3334	0.000105
3346	0.0001344
3358	0.0001596
3370	0.0001638
3382	0.0001218
3394	7.98e-05
3406	0.0001218
3418	7.98e-05
3430	7.98e-05
3442	9.66e-05
3454	7.98e-05
3466	4.62e-05
3478	5.88e-05
3490	7.14e-05
3502	0.0001176
3514	9.66e-05
3526	4.2e-05
3538	7.56e-05
3550	5.46e-05
3562	3.78e-05
3574	0.0001008
3586	5.88e-05
3598	6.72e-05
3610	8.82e-05
3622	7.98e-05
3634	3.78e-05
3646	2.52e-05
3658	8.4e-05
3670	0.0001176
3682	0.000147
3694	0.0001008
3706	0.0001134
3718	0.0001176
3730	0.0001344
3742	0.0001554
3754	0.0001722
3766	0.0001008
3778	0.0001092
3790	0.000105
3802	0.0001554
3814	0.000147
3826	0.0001218
3838	0.0001428
