Infrared Spectrum: 2,4,5-Trifluorobenzyl alcohol
Formula: C 7 H 5 F 3 O
CAS: 144284-25-3
State: gas
Origin: EPA-IR VAPOR PHASE LIBRARY
1/CM	ABSORBANCE
549.8	0.003436
559.445	0.001796
569.09	0.0012848
578.734	0.001576
588.379	0.00040917
598.024	0.001456
607.669	0.002426
617.313	0.001556
626.958	0.001956
636.603	0.001846
646.248	0.002066
655.893	0.002266
665.537	0.003786
675.182	0.006046
684.827	0.007316
694.472	0.007396
704.116	0.005116
713.761	0.006136
723.406	0.005456
733.051	0.004266
742.695	0.006266
752.34	0.009066
761.985	0.006746
771.63	0.003686
781.275	0.002196
790.919	0.001726
800.564	0.003576
810.209	0.003196
819.854	0.006856
829.498	0.016986
839.143	0.026816
848.788	0.027846
858.433	0.022266
868.078	0.025246
877.722	0.031216
887.367	0.019676
897.012	0.008546
906.657	0.004576
916.301	0.003436
925.946	0.003906
935.591	0.004466
945.236	0.005046
954.88	0.006286
964.525	0.007426
974.17	0.006916
983.815	0.006056
993.46	0.008516
1003.1	0.011016
1012.75	0.016816
1022.39	0.021126
1032.04	0.021606
1041.68	0.018476
1051.33	0.014286
1060.97	0.010186
1070.62	0.008346
1080.26	0.008186
1089.91	0.017706
1099.55	0.035156
1109.2	0.037146
1118.84	0.020916
1128.49	0.017006
1138.13	0.024556
1147.78	0.036556
1157.42	0.029656
1167.07	0.013756
1176.71	0.013866
1186.36	0.014996
1196	0.020446
1205.64	0.030556
1215.29	0.038566
1224.93	0.032116
1234.58	0.021286
1244.22	0.013266
1253.87	0.011956
1263.51	0.010596
1273.16	0.010086
1282.8	0.008656
1292.45	0.008536
1302.09	0.008756
1311.74	0.012236
1321.38	0.024426
1331.03	0.038466
1340.67	0.030426
1350.32	0.013706
1359.96	0.010226
1369.61	0.011566
1379.25	0.012886
1388.9	0.012586
1398.54	0.011616
1408.18	0.014056
1417.83	0.025266
1427.47	0.036386
1437.12	0.028936
1446.76	0.012076
1456.41	0.009106
1466.05	0.011176
1475.7	0.012356
1485.34	0.015786
1494.99	0.034386
1504.63	0.072286
1514.28	0.126246
1523.92	0.124656
1533.57	0.051946
1543.21	0.012146
1552.86	0.006716
1562.5	0.005636
1572.15	0.005206
1581.79	0.005316
1591.44	0.005476
1601.08	0.006506
1610.73	0.010876
1620.37	0.019286
1630.01	0.022636
1639.66	0.014926
1649.3	0.007446
1658.95	0.004126
1668.59	0.003046
1678.24	0.002806
1687.88	0.002986
1697.53	0.002346
1707.17	0.002506
1716.82	0.003006
1726.46	0.002696
1736.11	0.002256
1745.75	0.002036
1755.4	0.001976
1765.04	0.001976
1774.69	0.001416
1784.33	0.001856
1793.98	0.001776
1803.62	0.001486
1813.27	0.001426
1822.91	0.001486
1832.55	0.001466
1842.2	0.001506
1851.84	0.0012569
1861.49	0.0012042
1871.13	0.0013224
1880.78	0.001376
1890.42	0.001386
1900.07	0.001396
1909.71	0.0012023
1919.36	0.0010617
1929	0.0012096
1938.65	0.001313
1948.29	0.001456
1957.94	0.0012356
1967.58	0.001526
1977.23	0.001446
1986.87	0.0013511
1996.52	0.0013116
2006.16	0.0011942
2015.81	0.001456
2025.45	0.001406
2035.1	0.001416
2044.74	0.0012865
2054.38	0.0011737
2064.03	0.001171
2073.67	0.0011558
2083.32	0.001406
2092.96	0.001456
2102.61	0.0010193
2112.25	0.0012876
2121.9	0.0009596
2131.54	0.0012415
2141.19	0.0011406
2150.83	0.0012084
2160.48	0.001062
2170.12	0.001366
2179.77	0.0013526
2189.41	0.0011488
2199.06	0.0011895
2208.7	0.0011918
2218.35	0.0008564
2227.99	0.0010414
2237.64	0.0010372
2247.28	0.0011467
2256.92	0.0013555
2266.57	0.001696
2276.21	0.0012203
2285.86	0.0012893
2295.5	0.0013085
2305.15	0.001376
2314.79	0.001706
2324.44	0.001486
2334.08	0.001546
2343.73	0.0008543
2353.37	0.001856
2363.02	0.001294
2372.66	0.001486
2382.31	0.0013038
2391.95	0.0011282
2401.6	0.0013006
2411.24	0.0011611
2420.89	0.001426
2430.53	0.0012622
2440.18	0.001154
2449.82	0.001131
2459.47	0.0009825
2469.11	0.001406
2478.75	0.001686
2488.4	0.001546
2498.04	0.0011345
2507.69	0.001172
2517.33	0.001496
2526.98	0.001676
2536.62	0.001436
2546.27	0.001516
2555.91	0.0012126
2565.56	0.0007534
2575.2	0.001656
2584.85	0.0011271
2594.49	0.001261
2604.14	0.0011648
2613.78	0.0011186
2623.43	0.001496
2633.07	0.001486
2642.72	0.001436
2652.36	0.0010815
2662.01	0.0009244
2671.65	0.0013477
2681.29	0.0012144
2690.94	0.0010817
2700.58	0.0010242
2710.23	0.0013391
2719.87	0.0009145
2729.52	0.001626
2739.16	0.001126
2748.81	0.001956
2758.45	0.0011191
2768.1	0.0011065
2777.74	0.001586
2787.39	0.001406
2797.03	0.001406
2806.68	0.001846
2816.32	0.001546
2825.97	0.001966
2835.61	0.002116
2845.26	0.002186
2854.9	0.003656
2864.55	0.003946
2874.19	0.005216
2883.84	0.006556
2893.48	0.008136
2903.12	0.008326
2912.77	0.006786
2922.41	0.006146
2932.06	0.005986
2941.7	0.006826
2951.35	0.007136
2960.99	0.006246
2970.64	0.005836
2980.28	0.004196
2989.93	0.003556
2999.57	0.002966
3009.22	0.001766
3018.86	0.001606
3028.51	0.001526
3038.15	0.001386
3047.8	0.001396
3057.44	0.001456
3067.09	0.0011601
3076.73	0.0013496
3086.38	0.001746
3096.02	0.0013552
3105.67	0.001666
3115.31	0.0012603
3124.95	0.0013291
3134.6	0.0004917
3144.24	0.001406
3153.89	0.00036857
3163.53	0.0011058
3173.18	0.0009299
3182.82	0.0005401
3192.47	0.0009418
3202.11	0.0003416
3211.76	0.0006444
3221.4	0.0006986
3231.05	0.0007946
3240.69	0.0010026
3250.34	0.0012633
3259.98	0.0011324
3269.63	0.0012785
3279.27	0.0010636
3288.92	0.0012367
3298.56	0.0012363
3308.21	0.0010676
3317.85	0.0006667
3327.49	3.8e-05
3337.14	0.0009142
3346.78	0.0009224
3356.43	0.000361
3366.07	0.0011376
3375.72	0.0004888
3385.36	0.0006614
3395.01	0.0012194
3404.65	0.000512
3414.3	0.0005958
3423.94	0.0010904
3433.59	0.0007432
3443.23	0.001506
3452.88	0.001486
3462.52	0.0011956
3472.17	0.001436
3481.81	0.001656
3491.46	0.0012261
3501.1	0.0008635
3510.75	0.0011609
3520.39	0.001736
3530.04	0.001526
3539.68	0.0012781
3549.32	0.0012564
3558.97	0.0010039
3568.61	0.001356
3578.26	0.0012978
3587.9	0.0011284
3597.55	0.001586
3607.19	0.002246
3616.84	0.002286
3626.48	0.003586
3636.13	0.003736
3645.77	0.005326
3655.42	0.009256
3665.06	0.009186
3674.71	0.007256
3684.35	0.005496
3694	0.004356
3703.64	0.002936
3713.29	0.002286
3722.93	0.001436
3732.58	0.0011396
3742.22	0.001776
3751.86	0.000859
3761.51	0.0011528
3771.15	0.001516
3780.8	0.0009309
3790.44	0.0009408
3800.09	0.0013338
3809.73	0.0012093
3819.38	0.00122
3829.02	0.002016
3838.67	0.000217
3848.31	0.0009958
3857.96	0.0012897
3867.6	0.0009204
3877.25	0.001786
3886.89	0.0010703
3896.54	0.0010154
3906.18	0.0007558
3915.83	0.001406
3925.47	8.7e-05
3935.12	0.001896
3944.76	0.0010497
3954.41	0.0009274
3964.05	0.0012332
3973.69	0.001446
3983.34	0.0008751
3992.98	0.0011758
