Infrared Spectrum: ETHANOL, 2,2'-IMINODI-, HYDROCHLORIDE
Formula: C4 H12 Cl N O2
CAS: 14426-21-2
State: LIQUID (NEAT)
Class: COBLENTZ III
Instrument: BAIRD (GRATING)
Instrument parameters: NaCl PRISM
Sampling: TRANSMISSION
Path length: CAPILLARY
Resolution: 2
Origin: WYANDOTTE CHEMICALS CORP.
1/CM	TRANSMITTANCE
4000	0.9497
3991	0.9499
3982	0.9504
3973	0.9512
3964	0.9521
3955	0.9528
3946	0.954
3937	0.9551
3928	0.9561
3919	0.9573
3910	0.9586
3901	0.96
3892	0.9614
3883	0.9625
3874	0.9638
3865	0.9648
3856	0.9652
3847	0.9647
3838	0.9624
3829	0.9591
3820	0.9562
3811	0.9537
3802	0.9534
3793	0.9544
3784	0.9553
3775	0.9561
3766	0.9563
3757	0.9565
3748	0.9567
3739	0.9556
3730	0.9544
3721	0.9525
3712	0.9496
3703	0.9463
3694	0.9421
3685	0.9381
3676	0.9338
3667	0.9278
3658	0.922
3649	0.9158
3640	0.9067
3631	0.8953
3622	0.8637
3613	0.8105
3604	0.7795
3595	0.7647
3586	0.6878
3577	0.6218
3568	0.5964
3559	0.5815
3550	0.5668
3541	0.5323
3532	0.497
3523	0.4615
3514	0.4258
3505	0.39
3496	0.3543
3487	0.3129
3478	0.2884
3469	0.2702
3460	0.2509
3451	0.2326
3442	0.2137
3433	0.1981
3424	0.1825
3415	0.1642
3406	0.1519
3397	0.1428
3388	0.1267
3379	0.109
3370	0.0903
3361	0.075
3352	0.063
3343	0.0544
3334	0.0483
3325	0.0446
3316	0.0425
3307	0.0405
3298	0.0382
3289	0.0365
3280	0.0361
3271	0.0364
3262	0.0368
3253	0.0394
3244	0.0421
3235	0.0467
3226	0.0514
3217	0.0571
3208	0.0631
3199	0.069
3190	0.0758
3181	0.0845
3172	0.0925
3163	0.1006
3154	0.1088
3145	0.1176
3136	0.1266
3127	0.1331
3118	0.1394
3109	0.1442
3100	0.1475
3091	0.1496
3082	0.1505
3073	0.1495
3064	0.145
3055	0.14
3046	0.1344
3037	0.1283
3028	0.1223
3019	0.1162
3010	0.1102
3001	0.104
2992	0.0979
2983	0.0922
2974	0.0879
2965	0.0864
2956	0.086
2947	0.0887
2938	0.0989
2929	0.112
2920	0.1237
2911	0.133
2902	0.1378
2893	0.1423
2884	0.1461
2875	0.1486
2866	0.1505
2857	0.1522
2848	0.1527
2839	0.1512
2830	0.1456
2821	0.1392
2812	0.1332
2803	0.1303
2794	0.1287
2785	0.1275
2776	0.1262
2767	0.1294
2758	0.1346
2749	0.141
2740	0.1496
2731	0.1601
2722	0.1777
2713	0.1982
2704	0.2204
2695	0.2385
2686	0.2617
2677	0.2843
2668	0.3089
2659	0.3316
2650	0.353
2641	0.3977
2632	0.4172
2623	0.437
2614	0.4569
2605	0.4769
2596	0.4971
2587	0.5174
2578	0.5378
2569	0.5584
2560	0.5791
2551	0.6
2542	0.6087
2533	0.6096
2524	0.6095
2515	0.6078
2506	0.6055
2497	0.603
2488	0.6019
2479	0.602
2470	0.6092
2461	0.6191
2452	0.6292
2443	0.64
2434	0.6507
2425	0.6593
2416	0.6675
2407	0.6743
2398	0.6811
2389	0.6867
2380	0.6917
2371	0.6965
2362	0.7015
2353	0.7075
2344	0.7141
2335	0.7248
2326	0.7389
2317	0.7574
2308	0.7789
2299	0.8056
2290	0.8362
2281	0.8655
2272	0.8837
2263	0.8933
2254	0.8975
2245	0.9004
2236	0.9034
2227	0.9065
2218	0.9093
2209	0.9118
2200	0.9144
2191	0.9165
2182	0.9184
2173	0.9204
2164	0.9218
2155	0.9224
2146	0.9224
2137	0.9209
2128	0.919
2119	0.9166
2110	0.9138
2101	0.912
2092	0.9112
2083	0.9109
2074	0.9112
2065	0.9118
2056	0.9134
2047	0.9165
2038	0.9199
2029	0.9245
2020	0.9278
2011	0.9295
2002	0.9308
1993	0.932
1984	0.9321
1975	0.9288
1966	0.9282
1957	0.9291
1948	0.9295
1939	0.93
1930	0.9302
1921	0.9304
1912	0.9306
1903	0.9307
1894	0.9306
1885	0.9304
1876	0.9298
1867	0.9291
1858	0.9284
1849	0.9277
1840	0.9271
1831	0.9264
1822	0.9256
1813	0.9248
1804	0.9237
1795	0.9227
1786	0.9213
1777	0.9194
1768	0.9175
1759	0.9154
1750	0.9124
1741	0.9068
1732	0.8981
1723	0.8908
1714	0.883
1705	0.8771
1696	0.8701
1687	0.8552
1678	0.8286
1669	0.7928
1660	0.7725
1651	0.7325
1642	0.6764
1633	0.6395
1624	0.5768
1615	0.5138
1606	0.4721
1597	0.4924
1588	0.5309
1579	0.5752
1570	0.6201
1561	0.6655
1552	0.7115
1543	0.7472
1534	0.7634
1525	0.7689
1516	0.7586
1507	0.7303
1498	0.6281
1489	0.5162
1480	0.436
1471	0.3495
1462	0.2643
1453	0.2316
1444	0.256
1435	0.2847
1426	0.3035
1417	0.3255
1408	0.3545
1399	0.3791
1390	0.4152
1381	0.46
1372	0.4976
1363	0.4956
1354	0.4908
1345	0.5012
1336	0.499
1327	0.5098
1318	0.541
1309	0.5733
1300	0.5964
1291	0.6192
1282	0.6289
1273	0.6274
1264	0.626
1255	0.6284
1246	0.6272
1237	0.6265
1228	0.6268
1219	0.6426
1210	0.661
1201	0.6636
1192	0.6622
1183	0.6741
1174	0.7162
1165	0.7465
1156	0.7667
1147	0.7736
1138	0.7646
1129	0.7267
1120	0.6567
1111	0.501
1102	0.2818
1093	0.2306
1084	0.2528
1075	0.1546
1066	0.1075
1057	0.1604
1048	0.3222
1039	0.3094
1030	0.2662
1021	0.3095
1012	0.386
1003	0.5183
994	0.6612
985	0.7065
976	0.6964
967	0.6421
958	0.5893
949	0.5295
940	0.4592
931	0.4196
922	0.5381
913	0.6511
904	0.6571
895	0.6561
886	0.6953
877	0.7328
868	0.7425
859	0.7735
850	0.7917
841	0.7975
832	0.7803
823	0.7651
814	0.748
805	0.7281
796	0.7047
787	0.6749
778	0.6745
769	0.7014
760	0.7228
751	0.7278
742	0.7208
733	0.71
724	0.6995
715	0.6855
706	0.6672
697	0.6498
688	0.6327
679	0.6133
670	0.6
661	0.5801
652	0.58
643	0.5748
634	0.577
