Infrared Spectrum: 3Beta,6Alpha-DIHYDROXY-5Alpha-PREGN-16-EN-20-ONE
Formula: C21 H32 O3
CAS: 14424-67-0
State: SOLID (KBr DISC)
Class: COBLENTZ III
Instrument: BECKMAN IR-4 (HYBRID PRISM-GRATING)
Sampling: TRANSMISSION
Resolution: 4
Origin: THE WORCESTER FOUNDATION FOR EXPERIMENTAL BIOLOGY, Neal L. McNiven
1/CM	TRANSMITTANCE
597.81	0.617
609.489	0.587
621.168	0.571
632.846	0.574
644.525	0.596
656.204	0.642
667.883	0.73
679.562	0.79
691.241	0.851
702.919	0.812
714.598	0.76
726.277	0.77
737.956	0.762
749.635	0.755
761.314	0.735
772.992	0.719
784.671	0.71
796.35	0.712
808.029	0.713
819.708	0.632
831.387	0.714
843.065	0.759
854.744	0.733
866.423	0.769
878.102	0.79
889.781	0.76
901.46	0.678
913.138	0.759
924.817	0.771
936.496	0.695
948.175	0.694
959.854	0.632
971.533	0.611
983.211	0.692
994.89	0.611
1006.57	0.542
1018.25	0.513
1029.93	0.412
1041.61	0.306
1053.28	0.322
1064.96	0.483
1076.64	0.564
1088.32	0.661
1100	0.6929
1111.68	0.72
1123.36	0.651
1135.04	0.698
1146.72	0.646
1158.39	0.732
1170.07	0.738
1181.75	0.681
1193.43	0.763
1205.11	0.766
1216.79	0.68
1228.47	0.503
1240.15	0.722
1251.82	0.716
1263.5	0.701
1275.18	0.716
1286.86	0.699
1298.54	0.695
1310.22	0.658
1321.9	0.673
1333.58	0.65
1345.26	0.632
1356.93	0.529
1368.61	0.405
1380.29	0.496
1391.97	0.629
1403.65	0.686
1415.33	0.63
1427.01	0.531
1438.69	0.509
1450.36	0.514
1462.04	0.602
1473.72	0.712
1485.4	0.78
1497.08	0.822
1508.76	0.822
1520.44	0.832
1532.12	0.832
1543.8	0.841
1555.47	0.841
1567.15	0.818
1578.83	0.614
1590.51	0.761
1602.19	0.783
1613.87	0.777
1625.55	0.711
1637.23	0.61
1648.9	0.358
1660.58	0.347
1672.26	0.573
1683.94	0.665
1695.62	0.703
1707.3	0.75
1718.98	0.812
1730.66	0.828
1742.34	0.843
1754.01	0.87
1765.69	0.874
1777.37	0.886
1789.05	0.901
1800.73	0.912
1812.41	0.915
1824.09	0.907
1835.77	0.915
1847.45	0.92
1859.12	0.916
1870.8	0.925
1882.48	0.916
1894.16	0.915
1905.84	0.914
1917.52	0.921
1929.2	0.915
1940.88	0.919
1952.55	0.919
1964.23	0.915
1975.91	0.919
1987.59	0.928
1999.27	0.928
2010.95	0.9255
2022.63	0.9232
2034.31	0.923
2045.99	0.923
2057.66	0.9202
2069.34	0.9134
2081.02	0.91
2092.7	0.91
2104.38	0.912
2116.06	0.9111
2127.74	0.9101
2139.42	0.909
2151.09	0.91
2162.77	0.9099
2174.45	0.9061
2186.13	0.903
2197.81	0.902
2209.49	0.904
2221.17	0.908
2232.85	0.911
2244.53	0.913
2256.2	0.916
2267.88	0.918
2279.56	0.92
2291.24	0.92
2302.92	0.922
2314.6	0.923
2326.28	0.918
2337.96	0.9159
2349.63	0.915
2361.31	0.9109
2372.99	0.8967
2384.67	0.8995
2396.35	0.904
2408.03	0.907
2419.71	0.908
2431.39	0.9092
2443.07	0.91
2454.74	0.909
2466.42	0.908
2478.1	0.907
2489.78	0.9067
2501.46	0.9034
2513.14	0.8997
2524.82	0.898
2536.5	0.896
2548.18	0.894
2559.85	0.8913
2571.53	0.8796
2583.21	0.8746
2594.89	0.8718
2606.57	0.8642
2618.25	0.8606
2629.93	0.8596
2641.61	0.859
2653.28	0.8541
2664.96	0.8441
2676.64	0.837
2688.32	0.8345
2700	0.834
2711.68	0.833
2723.36	0.832
2735.04	0.8294
2746.72	0.828
2758.39	0.827
2770.07	0.825
2781.75	0.8172
2793.43	0.8134
2805.11	0.8104
2816.79	0.8067
2828.47	0.7934
2840.15	0.7593
2851.82	0.7012
2863.5	0.6092
2875.18	0.5146
2886.86	0.4708
2898.54	0.4623
2910.22	0.4563
2921.9	0.4542
2933.58	0.4477
2945.26	0.4176
2956.93	0.3597
2968.61	0.3193
2980.29	0.2998
2991.97	0.3442
3003.65	0.4144
3015.33	0.461
3027.01	0.5427
3038.69	0.6235
3050.36	0.661
3062.04	0.6973
3073.72	0.7108
3085.4	0.712
3097.08	0.711
3108.76	0.7021
3120.44	0.6851
3132.12	0.678
3143.8	0.662
3155.47	0.6479
3167.15	0.6219
3178.83	0.5997
3190.51	0.5816
3202.19	0.5381
3213.87	0.5036
3225.55	0.4837
3237.23	0.4689
3248.91	0.4483
3260.58	0.4289
3272.26	0.4174
3283.94	0.4048
3295.62	0.3993
3307.3	0.3796
3318.98	0.3724
3330.66	0.3648
3342.34	0.3632
3354.01	0.3662
3365.69	0.3715
3377.37	0.375
3389.05	0.375
3400.73	0.3796
3412.41	0.3896
3424.09	0.4009
3435.77	0.4037
3447.45	0.4003
3459.12	0.394
3470.8	0.3906
3482.48	0.3894
3494.16	0.3968
3505.84	0.407
3517.52	0.4143
3529.2	0.417
3540.88	0.42
3552.55	0.4175
3564.23	0.416
3575.91	0.417
3587.59	0.42
3599.27	0.4295
3610.95	0.4541
3622.63	0.47
3634.31	0.4952
3645.99	0.5081
3657.66	0.541
3669.34	0.5771
3681.02	0.6098
3692.7	0.6371
3704.38	0.6713
3716.06	0.6965
3727.74	0.7279
3739.42	0.7583
3751.09	0.7807
3762.77	0.7984
3774.45	0.8047
3786.13	0.8111
3797.81	0.8273
3809.49	0.835
3821.17	0.8385
3832.85	0.841
3844.53	0.842
3856.2	0.841
3867.88	0.84
3879.56	0.838
3891.24	0.8427
3902.92	0.8508
3914.6	0.8518
3926.28	0.853
3937.96	0.8492
3949.63	0.846
3961.31	0.848
3972.99	0.853
3984.67	0.8491
3996.35	0.847
4008.03	0.846
4019.71	0.849
4031.39	0.855
4043.07	0.855
4054.74	0.848
4066.42	0.847
4078.1	0.8511
4089.78	0.856
4101.46	0.856
4113.14	0.8507
4124.82	0.843
4136.5	0.843
4148.18	0.8464
4159.85	0.851
4171.53	0.8509
4183.21	0.8438
4194.89	0.842
4206.57	0.843
4218.25	0.8456
4229.93	0.8408
4241.61	0.838
4253.28	0.8412
4264.96	0.8425
4276.64	0.8377
4288.32	0.8357
4300	0.833
4311.68	0.8317
4323.36	0.8323
4335.04	0.833
4346.72	0.834
4358.39	0.8337
4370.07	0.829
4381.75	0.828
4393.43	0.828
4405.11	0.829
4416.79	0.8314
4428.47	0.8292
4440.15	0.825
4451.82	0.8259
4463.5	0.83
4475.18	0.831
4486.86	0.83
4498.54	0.8285
4510.22	0.8275
4521.9	0.828
4533.58	0.83
4545.26	0.83
4556.93	0.8294
4568.61	0.8284
4580.29	0.827
4591.97	0.828
4603.65	0.8296
4615.33	0.83
4627.01	0.8326
4638.69	0.838
4650.36	0.838
4662.04	0.837
4673.72	0.835
4685.4	0.835
4697.08	0.8333
4708.76	0.8323
4720.44	0.83
4732.12	0.8287
4743.8	0.83
4755.47	0.832
4767.15	0.833
4778.83	0.8338
4790.51	0.835
4802.19	0.834
4813.87	0.8322
4825.55	0.8281
4837.23	0.825
4848.91	0.8276
4860.58	0.831
4872.26	0.828
4883.94	0.8261
4895.62	0.826
4907.3	0.8231
4918.98	0.823
4930.66	0.826
4942.34	0.826
4954.01	0.826
4965.69	0.829
4977.37	0.828
4989.05	0.826
