Infrared Spectrum: Ethanol, 2-diethylamino-, hydrochloride
Formula: C6 H16 Cl N O
CAS: 14426-20-1
State: SOLID (KBr DISC, 0.9% WT.)
Class: COBLENTZ III
Instrument: PERKIN-ELMER 157
Sampling: TRANSMISSION
Resolution: 2
Origin: BRITISH PETROLEUM CO. LTD., ENGLAND
1/CM	TRANSMITTANCE
668	0.7296
677	0.7416
686	0.7528
695	0.7598
704	0.7656
713	0.7728
722	0.774
731	0.7718
740	0.7688
749	0.7598
758	0.7594
767	0.7733
776	0.7592
785	0.7385
794	0.6379
803	0.4017
812	0.5544
821	0.3738
830	0.6092
839	0.7086
848	0.7146
857	0.7048
866	0.5835
875	0.7049
884	0.6873
893	0.5913
902	0.5303
911	0.6902
920	0.701
929	0.688
938	0.6862
947	0.6849
956	0.6775
965	0.6444
974	0.5752
983	0.5521
992	0.4959
1001	0.2925
1010	0.1391
1019	0.1271
1028	0.0576
1037	0.1756
1046	0.2078
1055	0.1437
1064	0.0622
1073	0.0388
1082	0.0995
1091	0.3193
1100	0.4997
1109	0.5372
1118	0.5198
1127	0.5157
1136	0.5634
1145	0.5474
1154	0.4311
1163	0.4417
1172	0.3904
1181	0.4769
1190	0.6233
1199	0.648
1208	0.6325
1217	0.594
1226	0.5176
1235	0.4556
1244	0.5219
1253	0.5476
1262	0.4438
1271	0.523
1280	0.5222
1289	0.5296
1298	0.5471
1307	0.5219
1316	0.497
1325	0.4804
1334	0.4748
1343	0.436
1352	0.3782
1361	0.3333
1370	0.3277
1379	0.215
1388	0.1739
1397	0.075
1406	0.1153
1415	0.1691
1424	0.1787
1433	0.1902
1442	0.1704
1451	0.1705
1460	0.1256
1469	0.0957
1478	0.0919
1487	0.285
1496	0.4606
1505	0.5322
1514	0.5428
1523	0.5659
1532	0.571
1541	0.5811
1550	0.5833
1559	0.5859
1568	0.5899
1577	0.5915
1586	0.5928
1595	0.5906
1604	0.5808
1613	0.57
1622	0.5657
1631	0.5661
1640	0.5756
1649	0.5924
1658	0.6012
1667	0.6267
1676	0.6368
1685	0.6432
1694	0.6481
1703	0.6515
1712	0.6545
1721	0.6584
1730	0.6691
1739	0.6713
1748	0.6716
1757	0.6717
1766	0.6718
1775	0.6721
1784	0.6725
1793	0.6728
1802	0.673
1811	0.6732
1820	0.6733
1829	0.6728
1838	0.6718
1847	0.6691
1856	0.664
1865	0.6594
1874	0.656
1883	0.6532
1892	0.651
1901	0.6488
1910	0.647
1919	0.6452
1928	0.6439
1937	0.6426
1946	0.6413
1955	0.64
1964	0.6388
1973	0.6376
1982	0.6371
1991	0.6356
2000	0.6326
2009	0.6285
2018	0.6283
2027	0.6278
2036	0.6271
2045	0.6252
2054	0.62
2063	0.6137
2072	0.6113
2081	0.6091
2090	0.6076
2099	0.6061
2108	0.6037
2117	0.5995
2126	0.5946
2135	0.594
2144	0.5948
2153	0.5945
2162	0.5936
2171	0.5914
2180	0.589
2189	0.5832
2198	0.5753
2207	0.5719
2216	0.5655
2225	0.5538
2234	0.5498
2243	0.5477
2252	0.5384
2261	0.531
2270	0.5243
2279	0.5236
2288	0.5235
2297	0.5233
2306	0.5219
2315	0.5179
2324	0.5106
2333	0.4944
2342	0.4789
2351	0.4774
2360	0.4761
2369	0.475
2378	0.474
2387	0.4704
2396	0.4548
2405	0.4385
2414	0.419
2423	0.3903
2432	0.3676
2441	0.3369
2450	0.3028
2459	0.2689
2468	0.2352
2477	0.2104
2486	0.2108
2495	0.234
2504	0.2589
2513	0.2694
2522	0.2658
2531	0.2558
2540	0.2455
2549	0.2278
2558	0.2031
2567	0.1785
2576	0.1541
2585	0.131
2594	0.1031
2603	0.0872
2612	0.0731
2621	0.0592
2630	0.0471
2639	0.0408
2648	0.0367
2657	0.0355
2666	0.0354
2675	0.0362
2684	0.0396
2693	0.0473
2702	0.0496
2711	0.0467
2720	0.0427
2729	0.0399
2738	0.0377
2747	0.0368
2756	0.0374
2765	0.052
2774	0.0804
2783	0.1086
2792	0.1261
2801	0.1377
2810	0.1429
2819	0.1443
2828	0.1214
2837	0.1061
2846	0.091
2855	0.0758
2864	0.0655
2873	0.0645
2882	0.0632
2891	0.0591
2900	0.0497
2909	0.0415
2918	0.0362
2927	0.0331
2936	0.0319
2945	0.0319
2954	0.033
2963	0.0361
2972	0.0596
2981	0.0916
2990	0.1232
2999	0.1535
3008	0.167
3017	0.1803
3026	0.1953
3035	0.2103
3044	0.2253
3053	0.2404
3062	0.2471
3071	0.2526
3080	0.2599
3089	0.2645
3098	0.2668
3107	0.2678
3116	0.2676
3125	0.2615
3134	0.2512
3143	0.2411
3152	0.231
3161	0.221
3170	0.2109
3179	0.201
3188	0.1911
3197	0.1813
3206	0.1716
3215	0.1635
3224	0.1558
3233	0.1467
3242	0.1366
3251	0.1231
3260	0.1114
3269	0.1002
3278	0.0905
3287	0.0815
3296	0.0734
3305	0.0607
3314	0.0449
3323	0.0373
3332	0.0331
3341	0.0297
3350	0.0274
3359	0.0271
3368	0.0274
3377	0.0289
3386	0.0311
3395	0.0334
3404	0.0358
3413	0.0383
3422	0.0411
3431	0.0468
3440	0.0586
3449	0.0704
3458	0.079
3467	0.0907
3476	0.1051
3485	0.1194
3494	0.1333
3503	0.1479
3512	0.1626
3521	0.1773
3530	0.192
3539	0.2065
3548	0.221
3557	0.2354
3566	0.2497
3575	0.264
3584	0.2777
3593	0.2968
3602	0.3135
3611	0.3291
3620	0.3368
3629	0.3422
3638	0.3464
3647	0.3487
3656	0.3507
3665	0.3519
3674	0.3527
3683	0.3537
3692	0.3541
3701	0.3544
3710	0.3546
3719	0.3545
3728	0.3539
3737	0.3531
3746	0.3526
3755	0.3523
3764	0.352
3773	0.3517
3782	0.3516
3791	0.3513
3800	0.3502
3809	0.3489
3818	0.3473
3827	0.3455
3836	0.3435
3845	0.3417
3854	0.3405
3863	0.3394
3872	0.3391
3881	0.339
3890	0.3387
3899	0.3386
3908	0.3383
3917	0.3382
3926	0.3376
3935	0.3367
3944	0.3354
3953	0.3339
3962	0.3323
3971	0.3307
3980	0.3291
3989	0.3275
3998	0.3262
