Infrared Spectrum: 5,6-Dimethoxyindole
Formula: C10 H11 N O2
CAS: 14430-23-0
State: gas
Origin: EPA-IR VAPOR PHASE LIBRARY
1/CM	ABSORBANCE
549.8	0.0005523
559.445	0.0008232
569.09	0.0009875
578.734	0.0006479
588.379	0.00127
598.024	0.00156
607.669	0.00158
617.313	0.00212
626.958	0.00245
636.603	0.00227
646.248	0.00187
655.893	0.00176
665.537	0.00177
675.182	0.00309
684.827	0.00794
694.472	0.0155
704.116	0.01356
713.761	0.00908
723.406	0.0082
733.051	0.01217
742.695	0.0189
752.34	0.01279
761.985	0.00524
771.63	0.00325
781.275	0.00375
790.919	0.00558
800.564	0.00762
810.209	0.00953
819.854	0.01167
829.498	0.01859
839.143	0.02405
848.788	0.021
858.433	0.01393
868.078	0.01005
877.722	0.00616
887.367	0.00366
897.012	0.00493
906.657	0.00699
916.301	0.00404
925.946	0.00237
935.591	0.002
945.236	0.00225
954.88	0.00276
964.525	0.00341
974.17	0.00508
983.815	0.00935
993.46	0.01464
1003.1	0.01515
1012.75	0.01513
1022.39	0.01776
1032.04	0.01739
1041.68	0.01198
1051.33	0.00726
1060.97	0.00866
1070.62	0.00681
1080.26	0.00601
1089.91	0.00672
1099.55	0.00696
1109.2	0.00991
1118.84	0.01962
1128.49	0.03732
1138.13	0.04132
1147.78	0.02789
1157.42	0.02892
1167.07	0.03444
1176.71	0.02382
1186.36	0.02055
1196	0.02665
1205.64	0.02888
1215.29	0.03787
1224.93	0.03902
1234.58	0.0266
1244.22	0.0169
1253.87	0.00972
1263.51	0.00751
1273.16	0.00877
1282.8	0.01872
1292.45	0.04818
1302.09	0.0586
1311.74	0.04626
1321.38	0.03936
1331.03	0.02472
1340.67	0.01012
1350.32	0.00496
1359.96	0.00318
1369.61	0.00289
1379.25	0.00379
1388.9	0.00586
1398.54	0.00592
1408.18	0.00428
1417.83	0.00465
1427.47	0.00866
1437.12	0.01722
1446.76	0.01966
1456.41	0.02332
1466.05	0.05219
1475.7	0.06389
1485.34	0.03563
1494.99	0.01739
1504.63	0.01347
1514.28	0.02046
1523.92	0.01582
1533.57	0.00892
1543.21	0.00621
1552.86	0.00454
1562.5	0.00425
1572.15	0.00528
1581.79	0.00501
1591.44	0.00358
1601.08	0.00296
1610.73	0.00345
1620.37	0.00436
1630.01	0.00522
1639.66	0.00439
1649.3	0.00304
1658.95	0.00281
1668.59	0.00318
1678.24	0.0034
1687.88	0.00251
1697.53	0.00168
1707.17	0.00127
1716.82	0.0010962
1726.46	0.0010918
1736.11	0.0011868
1745.75	0.0011552
1755.4	0.0009629
1765.04	0.0007389
1774.69	0.0005846
1784.33	0.0005972
1793.98	0.0005797
1803.62	0.0005627
1813.27	0.0006741
1822.91	0.0006145
1832.55	0.0006889
1842.2	0.0008017
1851.84	0.0007976
1861.49	0.0008355
1871.13	0.0008513
1880.78	0.0008612
1890.42	0.0008552
1900.07	0.0008189
1909.71	0.0007885
1919.36	0.0007094
1929	0.0007608
1938.65	0.0007943
1948.29	0.0007823
1957.94	0.0008894
1967.58	0.0010329
1977.23	0.0010949
1986.87	0.0011495
1996.52	0.0011289
2006.16	0.0010659
2015.81	0.0011477
2025.45	0.0012
2035.1	0.00133
2044.74	0.0013
2054.38	0.00123
2064.03	0.0010814
2073.67	0.0009725
2083.32	0.0008031
2092.96	0.0007367
2102.61	0.0007304
2112.25	0.0008632
2121.9	0.0009703
2131.54	0.0010115
2141.19	0.0009137
2150.83	0.000845
2160.48	0.0008749
2170.12	0.0008612
2179.77	0.0008146
2189.41	0.0008502
2199.06	0.0008393
2208.7	0.0008703
2218.35	0.0007763
2227.99	0.0007229
2237.64	0.0006797
2247.28	0.0006465
2256.92	0.0004962
2266.57	0.0005991
2276.21	0.0004818
2285.86	0.0004568
2295.5	0.0005169
2305.15	0.0005106
2314.79	0.0005542
2324.44	0.000482
2334.08	0.0006284
2343.73	0.0007404
2353.37	0.0007614
2363.02	0.000755
2372.66	0.0007264
2382.31	0.0007508
2391.95	0.0006547
2401.6	0.0006017
2411.24	0.0005028
2420.89	0.0005059
2430.53	0.0004655
2440.18	0.0006869
2449.82	0.0007054
2459.47	0.0006938
2469.11	0.0007346
2478.75	0.0008893
2488.4	0.0008128
2498.04	0.000679
2507.69	0.0005093
2517.33	0.0007008
2526.98	0.0006057
2536.62	0.0008526
2546.27	0.0006533
2555.91	0.0006793
2565.56	0.0007763
2575.2	0.0007674
2584.85	0.0009722
2594.49	0.0010172
2604.14	0.0011237
2613.78	0.001161
2623.43	0.001155
2633.07	0.0009994
2642.72	0.0010722
2652.36	0.0010253
2662.01	0.0009296
2671.65	0.00073
2681.29	0.0007897
2690.94	0.0006687
2700.58	0.0006751
2710.23	0.0006274
2719.87	0.0006955
2729.52	0.0005308
2739.16	0.0007426
2748.81	0.0007258
2758.45	0.0007558
2768.1	0.0009267
2777.74	0.00122
2787.39	0.00158
2797.03	0.00202
2806.68	0.00296
2816.32	0.00479
2825.97	0.00879
2835.61	0.01479
2845.26	0.01377
2854.9	0.0081
2864.55	0.00614
2874.19	0.00701
2883.84	0.00902
2893.48	0.01044
2903.12	0.01145
2912.77	0.01288
2922.41	0.01394
2932.06	0.01903
2941.7	0.02437
2951.35	0.02187
2960.99	0.01646
2970.64	0.01281
2980.28	0.01153
2989.93	0.01419
2999.57	0.01765
3009.22	0.01298
3018.86	0.00659
3028.51	0.00516
3038.15	0.00548
3047.8	0.00574
3057.44	0.00462
3067.09	0.00381
3076.73	0.0031
3086.38	0.00276
3096.02	0.00245
3105.67	0.00271
3115.31	0.00273
3124.95	0.00255
3134.6	0.00292
3144.24	0.002
3153.89	0.0009597
3163.53	0.0008466
3173.18	0.0006577
3182.82	0.0005639
3192.47	0.0004428
3202.11	0.0003972
3211.76	0.00023916
3221.4	0.0003735
3231.05	0.0004113
3240.69	0.0003625
3250.34	0.0002671
3259.98	0.00019165
3269.63	0.0001612
3279.27	0.0001738
3288.92	0.000127
3298.56	0.00021982
3308.21	5.3e-05
3317.85	0.00023267
3327.49	0.0001837
3337.14	0.00025876
3346.78	4.6e-05
3356.43	4.6e-05
3366.07	0.00024953
3375.72	6.8e-05
3385.36	0.00021141
3395.01	0.0001575
3404.65	0.000328
3414.3	0.0003296
3423.94	0.0003662
3433.59	0.0003447
3443.23	0.0006041
3452.88	0.0007438
3462.52	0.0010758
3472.17	0.0018
3481.81	0.00283
3491.46	0.00501
3501.1	0.00957
3510.75	0.01479
3520.39	0.01449
3530.04	0.00782
3539.68	0.00307
3549.32	0.00149
3558.97	0.0009473
3568.61	0.0006975
3578.26	0.0003417
3587.9	0.0003097
3597.55	0.0001624
3607.19	0.0003379
3616.84	0.0003544
3626.48	0.0001783
3636.13	0.0003875
3645.77	0.000216
3655.42	0.00023223
3665.06	0.0002873
3674.71	0.0001864
3684.35	0.00023383
3694	8.9e-05
3703.64	0.0001315
3713.29	0.0002292
3722.93	3.8e-05
3732.58	0.00024134
3742.22	2.3e-05
3751.86	0.0003518
3761.51	8.1e-05
3771.15	0.00027685
3780.8	0.0001292
3790.44	0.0004332
3800.09	0.0003011
3809.73	0.0001272
3819.38	0.00027054
3829.02	0.0004238
3838.67	0.0004008
3848.31	0.0005971
3857.96	0.0004603
3867.6	0.0004187
3877.25	0.0004406
3886.89	0.0005374
3896.54	0.0004111
3906.18	0.0003331
3915.83	0.0003413
3925.47	0.0003677
3935.12	0.0003582
3944.76	0.0005476
3954.41	0.0003283
3964.05	0.0004678
3973.69	0.0005428
3983.34	0.0003508
3992.98	0.0005547
