Infrared Spectrum: 2-Amino-3,5-dimethylbenzoic acid
Formula: C 9 H 11 N O 2
CAS: 14438-32-5
State: gas
Origin: EPA-IR VAPOR PHASE LIBRARY
1/CM	ABSORBANCE
549.8	0.018429
559.445	0.019119
569.09	0.022139
578.734	0.017879
588.379	0.012219
598.024	0.008009
607.669	0.006499
617.313	0.006219
626.958	0.006239
636.603	0.005959
646.248	0.006019
655.893	0.008599
665.537	0.017599
675.182	0.026169
684.827	0.017589
694.472	0.006509
704.116	0.005559
713.761	0.005259
723.406	0.005129
733.051	0.004709
742.695	0.004549
752.34	0.004729
761.985	0.004699
771.63	0.005229
781.275	0.008089
790.919	0.012949
800.564	0.010259
810.209	0.006129
819.854	0.004489
829.498	0.003839
839.143	0.003329
848.788	0.003889
858.433	0.004959
868.078	0.007129
877.722	0.005979
887.367	0.004319
897.012	0.003079
906.657	0.002769
916.301	0.002719
925.946	0.002699
935.591	0.002649
945.236	0.002869
954.88	0.003679
964.525	0.003169
974.17	0.003759
983.815	0.003999
993.46	0.004989
1003.1	0.006329
1012.75	0.007069
1022.39	0.006849
1032.04	0.006979
1041.68	0.007489
1051.33	0.011969
1060.97	0.019039
1070.62	0.031099
1080.26	0.041899
1089.91	0.040559
1099.55	0.026549
1109.2	0.018349
1118.84	0.014119
1128.49	0.011139
1138.13	0.014419
1147.78	0.022489
1157.42	0.045559
1167.07	0.076019
1176.71	0.055759
1186.36	0.013349
1196	0.007119
1205.64	0.004719
1215.29	0.005569
1224.93	0.007969
1234.58	0.011199
1244.22	0.015119
1253.87	0.015839
1263.51	0.012159
1273.16	0.010899
1282.8	0.013709
1292.45	0.014359
1302.09	0.011319
1311.74	0.011089
1321.38	0.012079
1331.03	0.011009
1340.67	0.011399
1350.32	0.013659
1359.96	0.013609
1369.61	0.012259
1379.25	0.014119
1388.9	0.014299
1398.54	0.008009
1408.18	0.004839
1417.83	0.005289
1427.47	0.006529
1437.12	0.008869
1446.76	0.013209
1456.41	0.015629
1466.05	0.016389
1475.7	0.020429
1485.34	0.018689
1494.99	0.010269
1504.63	0.005439
1514.28	0.004199
1523.92	0.003839
1533.57	0.003929
1543.21	0.004469
1552.86	0.006809
1562.5	0.013479
1572.15	0.024849
1581.79	0.027179
1591.44	0.026569
1601.08	0.027639
1610.73	0.022489
1620.37	0.021689
1630.01	0.020769
1639.66	0.013459
1649.3	0.007619
1658.95	0.006469
1668.59	0.006619
1678.24	0.006749
1687.88	0.007319
1697.53	0.011269
1707.17	0.030239
1716.82	0.082579
1726.46	0.092679
1736.11	0.041599
1745.75	0.023469
1755.4	0.016859
1765.04	0.009809
1774.69	0.007859
1784.33	0.006809
1793.98	0.004449
1803.62	0.002979
1813.27	0.002249
1822.91	0.001959
1832.55	0.001789
1842.2	0.001609
1851.84	0.001439
1861.49	0.0011355
1871.13	0.0009491
1880.78	0.0008868
1890.42	0.0010491
1900.07	0.0010371
1909.71	0.0011882
1919.36	0.0011466
1929	0.0010818
1938.65	0.0008822
1948.29	0.0008245
1957.94	0.0008314
1967.58	0.0006827
1977.23	0.0007939
1986.87	0.0007453
1996.52	0.0007312
2006.16	0.0007415
2015.81	0.0007698
2025.45	0.000809
2035.1	0.0011174
2044.74	0.0010874
2054.38	0.0008273
2064.03	0.0007754
2073.67	0.0006024
2083.32	0.0006257
2092.96	0.0007273
2102.61	0.0007568
2112.25	0.0007462
2121.9	0.0007264
2131.54	0.0006706
2141.19	0.0008818
2150.83	0.0008006
2160.48	0.0007876
2170.12	0.0007218
2179.77	0.0006717
2189.41	0.0005572
2199.06	0.0004868
2208.7	0.0006696
2218.35	0.0006371
2227.99	0.0007531
2237.64	0.0007334
2247.28	0.0007314
2256.92	0.0007435
2266.57	0.0007157
2276.21	0.0004015
2285.86	0.0007564
2295.5	0.000622
2305.15	0.0006912
2314.79	0.0007246
2324.44	0.000862
2334.08	0.0010144
2343.73	0.0009209
2353.37	0.0009094
2363.02	0.0009849
2372.66	0.000788
2382.31	0.0007838
2391.95	0.0006974
2401.6	0.0006758
2411.24	0.0008463
2420.89	0.0008375
2430.53	0.0008481
2440.18	0.0007024
2449.82	0.0005487
2459.47	0.0004906
2469.11	0.0005596
2478.75	0.0004561
2488.4	0.0006488
2498.04	0.0006462
2507.69	0.0005123
2517.33	0.0007261
2526.98	0.0005606
2536.62	0.0005778
2546.27	0.0005867
2555.91	0.0007955
2565.56	0.000658
2575.2	0.0006388
2584.85	0.0004075
2594.49	0.0006044
2604.14	0.0006829
2613.78	0.0007417
2623.43	0.0007222
2633.07	0.0006148
2642.72	0.0008457
2652.36	0.0007262
2662.01	0.0006581
2671.65	0.000552
2681.29	0.0006038
2690.94	0.0008826
2700.58	0.0007983
2710.23	0.0009345
2719.87	0.0008437
2729.52	0.001112
2739.16	0.001439
2748.81	0.001389
2758.45	0.0011116
2768.1	0.00092
2777.74	0.0008788
2787.39	0.0008296
2797.03	0.001045
2806.68	0.0010088
2816.32	0.001329
2825.97	0.001679
2835.61	0.001719
2845.26	0.002849
2854.9	0.004109
2864.55	0.006899
2874.19	0.009579
2883.84	0.008649
2893.48	0.007429
2903.12	0.007859
2912.77	0.010019
2922.41	0.013439
2932.06	0.014989
2941.7	0.011869
2951.35	0.007059
2960.99	0.005329
2970.64	0.005469
2980.28	0.006329
2989.93	0.005899
2999.57	0.005829
3009.22	0.008269
3018.86	0.008129
3028.51	0.005009
3038.15	0.003519
3047.8	0.003159
3057.44	0.003049
3067.09	0.002879
3076.73	0.002399
3086.38	0.001649
3096.02	0.001569
3105.67	0.001085
3115.31	0.0012012
3124.95	0.0008179
3134.6	0.0006228
3144.24	0.0006624
3153.89	0.0008217
3163.53	0.0008765
3173.18	0.0008089
3182.82	0.0008988
3192.47	0.0007882
3202.11	0.0008146
3211.76	0.0009196
3221.4	0.0008673
3231.05	0.0008357
3240.69	0.0006141
3250.34	0.0006723
3259.98	0.0008365
3269.63	0.000743
3279.27	0.0006229
3288.92	0.0011519
3298.56	0.001399
3308.21	0.001409
3317.85	0.001869
3327.49	0.001799
3337.14	0.001989
3346.78	0.002229
3356.43	0.003499
3366.07	0.006249
3375.72	0.013119
3385.36	0.016939
3395.01	0.010579
3404.65	0.004279
3414.3	0.002669
3423.94	0.002889
3433.59	0.003049
3443.23	0.002089
3452.88	0.001629
3462.52	0.001409
3472.17	0.001819
3481.81	0.002409
3491.46	0.004359
3501.1	0.006929
3510.75	0.010089
3520.39	0.010679
3530.04	0.007259
3539.68	0.003829
3549.32	0.002679
3558.97	0.003289
3568.61	0.009849
3578.26	0.029999
3587.9	0.030179
3597.55	0.007679
3607.19	0.001569
3616.84	0.0010656
3626.48	0.0007499
3636.13	0.0007305
3645.77	0.0007114
3655.42	0.0006675
3665.06	0.0007598
3674.71	0.0006635
3684.35	0.0005688
3694	0.0007712
3703.64	0.00029671
3713.29	0.00030732
3722.93	0.000357
3732.58	0.0006484
3742.22	0.0003505
3751.86	0.00030507
3761.51	0.0004805
3771.15	0.0008105
3780.8	0.00029835
3790.44	0.0001386
3800.09	0
3809.73	0.0003974
3819.38	0.0004117
3829.02	0.0003803
3838.67	0.0005882
3848.31	0.0003759
3857.96	0.000115
3867.6	0.0006221
3877.25	0.0005859
3886.89	0.0004836
3896.54	0.000805
3906.18	0.0007237
3915.83	0.0005836
3925.47	0.00032213
3935.12	0.00030344
3944.76	0.0005787
3954.41	0.000528
3964.05	0.0007499
3973.69	0.0009104
3983.34	0.000581
3992.98	0.000646
