Infrared Spectrum: N,N-Dimethyldecanamide
Formula: C 12 H 25 N O
CAS: 14433-76-2
State: gas
Origin: EPA-IR VAPOR PHASE LIBRARY
1/CM	ABSORBANCE
501.5	0.0001856
513.074	7.386e-05
524.648	0.0001772
536.222	0.0003752
547.796	0.0004785
559.37	0.0005723
570.944	0.0011282
582.518	0.0013382
594.092	0.0015882
605.666	0.0019082
617.24	0.0013082
628.814	0.0005253
640.388	0.0002297
651.962	0.0001713
663.536	0.0001925
675.11	0.0003416
686.684	0.0005463
698.258	0.0010782
709.832	0.0018182
721.406	0.0022982
732.98	0.0019582
744.554	0.0016882
756.128	0.0014682
767.702	0.0014582
779.276	0.0013282
790.85	0.0009637
802.423	0.0008349
813.997	0.0007513
825.571	0.0007577
837.145	0.000857
848.719	0.000829
860.293	0.0008784
871.867	0.000968
883.441	0.0010482
895.015	0.0010482
906.589	0.0009873
918.163	0.0009912
929.737	0.0010482
941.311	0.0013082
952.885	0.0019382
964.459	0.0026682
976.033	0.0028882
987.607	0.0028582
999.181	0.0028782
1010.76	0.0035482
1022.33	0.0050282
1033.9	0.0077082
1045.48	0.0102482
1057.05	0.0103882
1068.63	0.0096382
1080.2	0.0104982
1091.77	0.0134982
1103.35	0.0159382
1114.92	0.0154082
1126.49	0.0173682
1138.07	0.0229782
1149.64	0.0217682
1161.22	0.0159082
1172.79	0.0123882
1184.36	0.0101082
1195.94	0.0080482
1207.51	0.0065382
1219.09	0.0059982
1230.66	0.0063182
1242.23	0.0080582
1253.81	0.0125682
1265.38	0.0164482
1276.96	0.0125882
1288.53	0.0090882
1300.1	0.0088982
1311.68	0.0105882
1323.25	0.0127982
1334.83	0.0137682
1346.4	0.0162982
1357.97	0.0200982
1369.55	0.0281982
1381.12	0.0448882
1392.7	0.0538782
1404.27	0.0391782
1415.84	0.0261182
1427.42	0.0187282
1438.99	0.0204182
1450.57	0.0307582
1462.14	0.0342482
1473.71	0.0249282
1485.29	0.0171682
1496.86	0.0134982
1508.44	0.0113082
1520.01	0.0099582
1531.58	0.0090182
1543.16	0.0080582
1554.73	0.0069082
1566.31	0.0058482
1577.88	0.0049382
1589.45	0.0043182
1601.03	0.0040982
1612.6	0.0044582
1624.18	0.0058482
1635.75	0.0094182
1647.32	0.0171782
1658.9	0.0381282
1670.47	0.0878482
1682.05	0.123958
1693.62	0.0667882
1705.19	0.0240282
1716.77	0.0101582
1728.34	0.0053782
1739.92	0.0034182
1751.49	0.0024082
1763.06	0.0018482
1774.64	0.0015382
1786.21	0.0013282
1797.79	0.0011082
1809.36	0.0009426
1820.93	0.0007732
1832.51	0.0006794
1844.08	0.0006054
1855.66	0.0005314
1867.23	0.0004914
1878.8	0.0004985
1890.38	0.0004529
1901.95	0.0004318
1913.53	0.0004067
1925.1	0.0003828
1936.67	0.0003562
1948.25	0.000309
1959.82	0.0003007
1971.4	0.0002975
1982.97	0.0003094
1994.54	0.0003101
2006.12	0.0003347
2017.69	0.0003871
2029.27	0.0003758
2040.84	0.0004252
2052.41	0.0004245
2063.99	0.0004389
2075.56	0.0004553
2087.14	0.0004658
2098.71	0.0004405
2110.28	0.0004068
2121.86	0.0004183
2133.43	0.0004239
2145.01	0.0004367
2156.58	0.0004529
2168.15	0.0004389
2179.73	0.0004363
2191.3	0.0004646
2202.88	0.0004617
2214.45	0.000439
2226.02	0.0004076
2237.6	0.0003784
2249.17	0.0003115
2260.74	0.0002948
2272.32	0.0002706
2283.89	0.0002956
2295.47	0.0003174
2307.04	0.0003121
2318.61	0.0002983
2330.19	0.0002876
2341.76	0.0002928
2353.34	0.0003261
2364.91	0.0003148
2376.48	0.0003175
2388.06	0.0003413
2399.63	0.0003327
2411.21	0.0003435
2422.78	0.0003456
2434.35	0.0003519
2445.93	0.0003548
2457.5	0.0003957
2469.08	0.0004205
2480.65	0.0004072
2492.22	0.000467
2503.8	0.0005109
2515.37	0.0005789
2526.95	0.0006204
2538.52	0.0006492
2550.09	0.0006556
2561.67	0.0007339
2573.24	0.0007716
2584.82	0.0008237
2596.39	0.0008881
2607.96	0.0009929
2619.54	0.0010582
2631.11	0.0011582
2642.69	0.0013282
2654.26	0.0014482
2665.83	0.0016382
2677.41	0.0017782
2688.98	0.0018482
2700.56	0.0018082
2712.13	0.0018682
2723.7	0.0020482
2735.28	0.0023182
2746.85	0.0026682
2758.43	0.0030582
2770	0.0037182
2781.57	0.0048182
2793.15	0.0064882
2804.72	0.0085782
2816.3	0.0110182
2827.87	0.0141582
2839.44	0.0197082
2851.02	0.0360282
2862.59	0.0591182
2874.17	0.0554782
2885.74	0.0501782
2897.31	0.0533682
2908.89	0.0733182
2920.46	0.111328
2932.04	0.149848
2943.61	0.119918
2955.18	0.0814482
2966.76	0.0686582
2978.33	0.0415682
2989.91	0.0228282
3001.48	0.0153882
3013.05	0.0121582
3024.63	0.0107282
3036.2	0.0092782
3047.78	0.0073182
3059.35	0.0055382
3070.92	0.0042482
3082.5	0.0034182
3094.07	0.0027282
3105.65	0.0021682
3117.22	0.0017782
3128.79	0.0014882
3140.37	0.0012982
3151.94	0.0010982
3163.52	0.0009537
3175.09	0.0008622
3186.66	0.0007362
3198.24	0.0005721
3209.81	0.0005118
3221.39	0.0004154
3232.96	0.000324
3244.53	0.0002844
3256.11	0.0002398
3267.68	0.0002606
3279.26	0.0002972
3290.83	0.0002627
3302.4	0.0003246
3313.98	0.0005409
3325.55	0.0008254
3337.13	0.0012282
3348.7	0.0012482
3360.27	0.0009305
3371.85	0.0005351
3383.42	0.0003851
3395	0.0002051
3406.57	0.0002492
3418.14	0.0001432
3429.72	0.0001746
3441.29	0.0001895
3452.86	0.00010719
3464.44	9.063e-05
3476.01	0.00012099
3487.59	8.585e-05
3499.16	5.222e-05
3510.73	4.776e-05
3522.31	4.021e-05
3533.88	2.489e-05
3545.46	2.83005e-05
3557.03	7.94e-05
3568.6	0.00010352
3580.18	0.00011347
3591.75	0.00011604
3603.33	0.0001498
3614.9	0.000165
3626.47	0.0001515
3638.05	0.0001666
3649.62	0.000146
3661.2	0.0001637
3672.77	0.0001785
3684.34	0.0001914
3695.92	0.0001448
3707.49	0.0001828
3719.07	0.0001591
3730.64	0.0001487
3742.21	0.0001832
3753.79	0.000172
3765.36	0.0001706
3776.94	0.0002151
3788.51	0.0002433
3800.08	0.0002213
3811.66	0.0002448
3823.23	0.0002336
3834.81	0.0002305
3846.38	0.0002082
3857.95	0.0002803
3869.53	0.0003149
3881.1	0.0002731
3892.68	0.0002178
3904.25	0.0002746
3915.82	0.0002732
3927.4	0.0003708
3938.97	0.0002633
3950.55	0.0002977
3962.12	0.0004218
3973.69	0.0004523
3985.27	0.0004569
3996.84	0.0005021
