Infrared Spectrum: 3,5-Dimethoxy-4-hydroxybenzhydrazide
Formula: C 9 H 12 N 2 O 4
CAS: 1443-76-1
State: gas
Origin: EPA-IR VAPOR PHASE LIBRARY
1/CM	ABSORBANCE
549.8	0.0008723
559.445	0.0006609
569.09	0.0008968
578.734	0.0007946
588.379	0.0010737
598.024	0.0005346
607.669	0.0006719
617.313	0.0007988
626.958	0.0006668
636.603	0.0005523
646.248	0.000848
655.893	0.0007929
665.537	0.0006909
675.182	0.0007857
684.827	0.00061
694.472	0.0007087
704.116	0.0005814
713.761	0.0007308
723.406	0.001334
733.051	0.002544
742.695	0.003434
752.34	0.002384
761.985	0.002784
771.63	0.002294
781.275	0.0009075
790.919	0.001078
800.564	0.001354
810.209	0.0011509
819.854	0.0009044
829.498	0.0007671
839.143	0.0008734
848.788	0.0009267
858.433	0.0010405
868.078	0.001344
877.722	0.001544
887.367	0.002034
897.012	0.001814
906.657	0.001444
916.301	0.001514
925.946	0.0011415
935.591	0.0009364
945.236	0.001118
954.88	0.0007347
964.525	0.0009648
974.17	0.0011013
983.815	0.001354
993.46	0.002214
1003.1	0.003044
1012.75	0.002304
1022.39	0.002144
1032.04	0.003744
1041.68	0.004234
1051.33	0.002964
1060.97	0.001874
1070.62	0.003004
1080.26	0.005154
1089.91	0.007934
1099.55	0.011274
1109.2	0.011094
1118.84	0.009474
1128.49	0.006094
1138.13	0.003274
1147.78	0.002374
1157.42	0.002074
1167.07	0.003134
1176.71	0.005294
1186.36	0.007954
1196	0.010374
1205.64	0.017744
1215.29	0.021574
1224.93	0.019184
1234.58	0.011554
1244.22	0.006894
1253.87	0.006384
1263.51	0.005964
1273.16	0.005084
1282.8	0.004054
1292.45	0.003784
1302.09	0.005614
1311.74	0.011374
1321.38	0.020184
1331.03	0.018974
1340.67	0.010604
1350.32	0.005254
1359.96	0.003874
1369.61	0.004354
1379.25	0.003674
1388.9	0.002234
1398.54	0.002024
1408.18	0.002944
1417.83	0.005324
1427.47	0.006794
1437.12	0.007194
1446.76	0.004294
1456.41	0.004644
1466.05	0.005204
1475.7	0.003644
1485.34	0.002914
1494.99	0.004384
1504.63	0.006154
1514.28	0.004474
1523.92	0.002104
1533.57	0.001404
1543.21	0.0012467
1552.86	0.0011762
1562.5	0.0011806
1572.15	0.001544
1581.79	0.002074
1591.44	0.002944
1601.08	0.004794
1610.73	0.005394
1620.37	0.003894
1630.01	0.002204
1639.66	0.001594
1649.3	0.0012155
1658.95	0.001004
1668.59	0.0008574
1678.24	0.0009247
1687.88	0.001202
1697.53	0.001554
1707.17	0.001494
1716.82	0.001964
1726.46	0.005684
1736.11	0.015114
1745.75	0.010784
1755.4	0.002594
1765.04	0.001424
1774.69	0.001304
1784.33	0.001444
1793.98	0.0009606
1803.62	0.0006968
1813.27	0.0005937
1822.91	0.0004662
1832.55	0.0005851
1842.2	0.0005978
1851.84	0.0005932
1861.49	0.0005079
1871.13	0.0004368
1880.78	0.000474
1890.42	0.0005459
1900.07	0.0004903
1909.71	0.000471
1919.36	0.0004345
1929	0.0004513
1938.65	0.0005298
1948.29	0.0005819
1957.94	0.000509
1967.58	0.0005206
1977.23	0.0005259
1986.87	0.0005301
1996.52	0.0004741
2006.16	0.0005576
2015.81	0.0005567
2025.45	0.0004759
2035.1	0.0005216
2044.74	0.0005189
2054.38	0.0005381
2064.03	0.0005774
2073.67	0.0004995
2083.32	0.0005915
2092.96	0.0006178
2102.61	0.0005859
2112.25	0.000685
2121.9	0.0006021
2131.54	0.0006827
2141.19	0.000462
2150.83	0.0004615
2160.48	0.0004151
2170.12	0.00040198
2179.77	0.0004739
2189.41	0.00039377
2199.06	0.00037899
2208.7	0.00036321
2218.35	0.0004658
2227.99	0.00035841
2237.64	0.0005014
2247.28	0.00035972
2256.92	0.0004646
2266.57	0.000439
2276.21	0.00032975
2285.86	0.00039779
2295.5	0.0003733
2305.15	0.00041
2314.79	0.0004189
2324.44	0.00037211
2334.08	0.00037546
2343.73	0.0004477
2353.37	0.0004087
2363.02	0.00038939
2372.66	0.0004623
2382.31	0.0004319
2391.95	0.00037516
2401.6	0.000411
2411.24	0.0004083
2420.89	0.0005404
2430.53	0.00033243
2440.18	0.0004396
2449.82	0.0005012
2459.47	0.0004695
2469.11	0.0004719
2478.75	0.00038545
2488.4	0.0004824
2498.04	0.0005145
2507.69	0.0004667
2517.33	0.00039792
2526.98	0.0003259
2536.62	0.0005031
2546.27	0.0004508
2555.91	0.000310881
2565.56	0.0004721
2575.2	0.0002693
2584.85	0.00039387
2594.49	0.0004135
2604.14	0.0002455
2613.78	0.0004412
2623.43	0.0004633
2633.07	0.0004532
2642.72	0.00040135
2652.36	0.000441
2662.01	0.0004189
2671.65	0.00038108
2681.29	0.00036712
2690.94	0.00034506
2700.58	0.0004079
2710.23	0.0004935
2719.87	0.00034306
2729.52	0.0005417
2739.16	0.0004777
2748.81	0.0004437
2758.45	0.000307179
2768.1	0.0003643
2777.74	0.0002782
2787.39	0.0004364
2797.03	0.0004321
2806.68	0.0006581
2816.32	0.000761
2825.97	0.0009044
2835.61	0.0011197
2845.26	0.001984
2854.9	0.002014
2864.55	0.001474
2874.19	0.0012427
2883.84	0.001314
2893.48	0.001454
2903.12	0.001344
2912.77	0.001634
2922.41	0.001884
2932.06	0.002204
2941.7	0.003094
2951.35	0.004634
2960.99	0.005104
2970.64	0.003214
2980.28	0.002124
2989.93	0.001964
2999.57	0.002414
3009.22	0.002884
3018.86	0.002034
3028.51	0.0011948
3038.15	0.0009096
3047.8	0.0008828
3057.44	0.0007094
3067.09	0.0007254
3076.73	0.0006883
3086.38	0.0007011
3096.02	0.0007959
3105.67	0.0004924
3115.31	0.000589
3124.95	0.00035921
3134.6	0.000309137
3144.24	0.00038207
3153.89	0.00035117
3163.53	0.00031964
3173.18	0.00030155
3182.82	0.00033667
3192.47	0.00037586
3202.11	0.0005762
3211.76	0.0005089
3221.4	0.00036526
3231.05	0.00031419
3240.69	0.0002383
3250.34	0.00034363
3259.98	0.00037662
3269.63	0.00039843
3279.27	0.0002736
3288.92	0.00033553
3298.56	0.00040361
3308.21	0.000142
3317.85	0.000174
3327.49	0.0002295
3337.14	0.00034572
3346.78	0.0002937
3356.43	0.0002442
3366.07	0.000171
3375.72	0.0005306
3385.36	0.0004429
3395.01	0.00036505
3404.65	0.00038914
3414.3	0.0004433
3423.94	0.00038921
3433.59	0.00033956
3443.23	0.000136
3452.88	0.000592
3462.52	0.0005317
3472.17	0.00038859
3481.81	0.0004459
3491.46	0.0004902
3501.1	0.0005682
3510.75	0.00029567
3520.39	0.00035917
3530.04	0.0005985
3539.68	0.0007001
3549.32	0.001394
3558.97	0.003334
3568.61	0.005664
3578.26	0.004704
3587.9	0.001874
3597.55	0.0009193
3607.19	0.0006628
3616.84	0.0002545
3626.48	0.0002503
3636.13	0.00031694
3645.77	0.0004504
3655.42	0.0002842
3665.06	0.00036007
3674.71	0.0005461
3684.35	0.0002796
3694	0.0004067
3703.64	0.0002443
3713.29	0.000313445
3722.93	0.0002511
3732.58	0.0004799
3742.22	0.00043
3751.86	0.000383
3761.51	0
3771.15	0.0002446
3780.8	0.00035335
3790.44	0.0006027
3800.09	0.00034954
3809.73	0.00029808
3819.38	0.00031527
3829.02	0.0004949
3838.67	0.00034786
3848.31	0.00035621
3857.96	0.00038359
3867.6	0.00033875
3877.25	0.000309764
3886.89	0.0002624
3896.54	0.0005542
3906.18	0.00032401
3915.83	0.00040379
3925.47	0.00038312
3935.12	0.000435
3944.76	0.00036827
3954.41	0.0004416
3964.05	0.0005151
3973.69	0.000124
3983.34	0.0004636
3992.98	0.0003846
