Infrared Spectrum: Diethyl phenyl orthoformate
Formula: C 11 H 16 O 3
CAS: 14444-77-0
State: gas
Origin: EPA-IR VAPOR PHASE LIBRARY
1/CM	ABSORBANCE
549.8	0.002807
559.445	0.002507
569.09	0.002197
578.735	0.002027
588.38	0.001857
598.025	0.0016139
607.67	0.0014695
617.315	0.0017016
626.96	0.0015595
636.605	0.0015203
646.251	0.001887
655.896	0.002337
665.541	0.003617
675.186	0.005927
684.831	0.012027
694.476	0.014057
704.121	0.008567
713.766	0.005917
723.411	0.005047
733.056	0.006467
742.701	0.013157
752.346	0.020397
761.991	0.014397
771.636	0.008287
781.281	0.005447
790.926	0.003887
800.571	0.003497
810.216	0.003557
819.861	0.003897
829.507	0.004677
839.152	0.005857
848.797	0.006367
858.442	0.005807
868.087	0.005187
877.732	0.005597
887.377	0.006717
897.022	0.007977
906.667	0.009597
916.312	0.011687
925.957	0.014357
935.602	0.020167
945.247	0.030627
954.892	0.044107
964.537	0.051887
974.182	0.048197
983.827	0.039837
993.472	0.037867
1003.12	0.043427
1012.76	0.046427
1022.41	0.057607
1032.05	0.077427
1041.7	0.096537
1051.34	0.105467
1060.99	0.099607
1070.63	0.094907
1080.28	0.093817
1089.92	0.096157
1099.57	0.110437
1109.21	0.127037
1118.86	0.122917
1128.5	0.109647
1138.15	0.106637
1147.79	0.099757
1157.44	0.088137
1167.08	0.080717
1176.73	0.068847
1186.37	0.056857
1196.02	0.044077
1205.66	0.038627
1215.31	0.040197
1224.95	0.045487
1234.6	0.054607
1244.24	0.037177
1253.89	0.018357
1263.53	0.014267
1273.18	0.013877
1282.82	0.013837
1292.47	0.012227
1302.11	0.011477
1311.76	0.010877
1321.4	0.010517
1331.05	0.012317
1340.69	0.017237
1350.34	0.020137
1359.98	0.016487
1369.63	0.020907
1379.27	0.025777
1388.92	0.016597
1398.56	0.010027
1408.21	0.007497
1417.85	0.006267
1427.5	0.005637
1437.14	0.006137
1446.79	0.007307
1456.43	0.008177
1466.08	0.009737
1475.73	0.015437
1485.37	0.033927
1495.02	0.053377
1504.66	0.022947
1514.31	0.007597
1523.95	0.004687
1533.6	0.003607
1543.24	0.003237
1552.89	0.003427
1562.53	0.004407
1572.18	0.008247
1581.82	0.017197
1591.47	0.029247
1601.11	0.026167
1610.76	0.011117
1620.4	0.004667
1630.05	0.002877
1639.69	0.002307
1649.34	0.002057
1658.98	0.001907
1668.63	0.001897
1678.27	0.001917
1687.92	0.002067
1697.56	0.002327
1707.21	0.002667
1716.85	0.002887
1726.5	0.003527
1736.14	0.004417
1745.79	0.005007
1755.43	0.004957
1765.08	0.004947
1774.72	0.003727
1784.37	0.002657
1794.01	0.002007
1803.66	0.0016629
1813.3	0.0013932
1822.95	0.0014195
1832.59	0.0015419
1842.24	0.001807
1851.88	0.001847
1861.53	0.001787
1871.17	0.0014292
1880.82	0.0012829
1890.46	0.0012735
1900.11	0.0013681
1909.75	0.0017483
1919.4	0.002267
1929.04	0.002457
1938.69	0.002347
1948.33	0.001957
1957.98	0.001568
1967.62	0.0014863
1977.27	0.0015014
1986.91	0.0014796
1996.56	0.0014373
2006.2	0.0013415
2015.85	0.0012799
2025.49	0.0012836
2035.14	0.0012518
2044.78	0.0013161
2054.43	0.0013453
2064.07	0.0015341
2073.72	0.0016179
2083.36	0.0015706
2093.01	0.0015059
2102.65	0.0013558
2112.3	0.0013395
2121.94	0.0012723
2131.59	0.0013006
2141.23	0.0013055
2150.88	0.0013487
2160.52	0.0012009
2170.17	0.0010825
2179.81	0.00106
2189.46	0.0009716
2199.1	0.0009629
2208.75	0.000868
2218.39	0.0008689
2228.04	0.00084263
2237.68	0.0009305
2247.33	0.0009008
2256.97	0.0010343
2266.62	0.0011027
2276.26	0.0012053
2285.91	0.0013119
2295.55	0.0016242
2305.2	0.002157
2314.84	0.002607
2324.49	0.002867
2334.13	0.002777
2343.78	0.002567
2353.42	0.002697
2363.07	0.003357
2372.72	0.002787
2382.36	0.0014843
2392.01	0.0009336
2401.65	0.00084618
2411.3	0.00084381
2420.94	0.0008863
2430.59	0.0009427
2440.23	0.0009636
2449.88	0.0009465
2459.52	0.0008953
2469.17	0.00080592
2478.81	0.000621
2488.46	0.000538
2498.1	0.000421
2507.75	0.000478
2517.39	0.000452
2527.04	0.000487
2536.68	0.000564
2546.33	0.000398
2555.97	0.000452
2565.62	0.000513
2575.26	0.00043
2584.91	0.000363
2594.55	0.000485
2604.2	0.000524
2613.84	0.00057
2623.49	0.000627
2633.13	0.000639
2642.78	0.0007131
2652.42	0.0009682
2662.07	0.0009831
2671.71	0.0011013
2681.36	0.0009159
2691	0.0009578
2700.65	0.001015
2710.29	0.0011356
2719.94	0.0015063
2729.58	0.0016209
2739.23	0.0017236
2748.87	0.001937
2758.52	0.002057
2768.16	0.002337
2777.81	0.002627
2787.45	0.002637
2797.1	0.003157
2806.74	0.003407
2816.39	0.003647
2826.03	0.003907
2835.68	0.004487
2845.32	0.005557
2854.97	0.007237
2864.61	0.010457
2874.26	0.015567
2883.9	0.020407
2893.55	0.021147
2903.19	0.022277
2912.84	0.025417
2922.48	0.026937
2932.13	0.029187
2941.77	0.030987
2951.42	0.025057
2961.06	0.020967
2970.71	0.025697
2980.35	0.039047
2990	0.038757
2999.64	0.020797
3009.29	0.012487
3018.93	0.010057
3028.58	0.009807
3038.22	0.011227
3047.87	0.011647
3057.51	0.009317
3067.16	0.010897
3076.8	0.013007
3086.45	0.008657
3096.09	0.005937
3105.74	0.004617
3115.38	0.002587
3125.03	0.0014201
3134.67	0.0008957
3144.32	0.0007346
3153.96	0.00058
3163.61	0.000628
3173.25	0.000505
3182.9	0.000582
3192.54	0.000424
3202.19	0.000571
3211.83	0.000453
3221.48	0.000273
3231.12	0.000146
3240.77	0.000144
3250.41	0.000191
3260.06	6.7e-05
3269.7	0.000187
3279.35	5.5e-05
3289	4.4e-05
3298.64	6e-05
3308.29	9.5e-05
3317.93	0.000189
3327.58	0.000185
3337.22	0.000126
3346.87	0.00027
3356.51	0.000328
3366.16	0.000183
3375.8	8e-06
3385.45	0.000171
3395.09	4.9e-05
3404.74	7.6e-05
3414.38	0.000169
3424.03	0.000185
3433.67	0.000275
3443.32	0.000239
3452.96	0.000214
3462.61	0.000262
3472.25	0.000324
3481.9	0.000297
3491.54	0.000396
3501.19	0.00032
3510.83	0.000226
3520.48	0.00017
3530.12	0.000307
3539.77	0.000305
3549.41	0.000319
3559.06	0.000303
3568.7	0.000336
3578.35	0.000406
3587.99	0.000302
3597.64	0.000355
3607.28	0.000429
3616.93	0.000472
3626.57	0.00048
3636.22	0.000655
3645.86	0.0007284
3655.51	0.0007172
3665.15	0.000652
3674.8	0.000405
3684.44	0.000452
3694.09	0.000499
3703.73	0.000438
3713.38	0.000536
3723.02	0.000415
3732.67	0.000419
3742.31	0.000559
3751.96	0.00055
3761.6	0.000394
3771.25	0.000468
3780.89	0.000385
3790.54	0.00044
3800.18	0.000532
3809.83	0.000287
3819.47	0.00045
3829.12	0.000499
3838.76	0.000466
3848.41	0.000329
3858.05	0.000395
3867.7	0.000588
3877.34	0.000377
3886.99	0.00046
3896.63	0.000363
3906.28	0.000387
3915.92	0.00044
3925.57	0.000286
3935.21	0.000373
3944.86	0.000262
3954.5	0.000452
3964.15	0.000421
3973.79	0.000506
3983.44	0.000607
3993.08	0.00055
