Infrared Spectrum: ETHYL 2-CYANO-3-PHENYL Delta^2-PENTENOATE
Formula: C14 H15 N O2
CAS: 14442-48-9
State: LIQUID
Class: COBLENTZ
Instrument: Not specified, most likely a prism, grating, or hybrid spectrometer.
Sampling: TRANSMISSION
Path length: 0.00125 CM
Resolution: 4
MICROMETERS	TRANSMITTANCE
1.999	0.897
2.03282	0.899
2.06664	0.897
2.10047	0.9
2.13429	0.9
2.16811	0.897
2.20193	0.89
2.23575	0.89
2.26957	0.889
2.3034	0.871
2.33722	0.862
2.37104	0.862
2.40486	0.872
2.43868	0.874
2.4725	0.871
2.50633	0.859
2.54015	0.872
2.57397	0.884
2.60779	0.887
2.64161	0.89
2.67543	0.887
2.70926	0.889
2.74308	0.889
2.7769	0.88
2.81072	0.874
2.84454	0.867
2.87836	0.859
2.91219	0.847
2.94601	0.829
2.97983	0.829
3.01365	0.844
3.04747	0.847
3.08129	0.857
3.11512	0.861
3.14894	0.857
3.18276	0.851
3.21658	0.844
3.2504	0.834
3.28422	0.743
3.31805	0.647
3.35187	0.593
3.38569	0.252
3.41951	0.404
3.45333	0.452
3.48715	0.548
3.52098	0.571
3.5548	0.753
3.58862	0.814
3.62244	0.842
3.65626	0.859
3.69008	0.861
3.72391	0.861
3.75773	0.866
3.79155	0.872
3.82537	0.874
3.85919	0.872
3.89302	0.872
3.92684	0.866
3.96066	0.871
3.99448	0.876
4.0283	0.872
4.06212	0.872
4.09595	0.872
4.12977	0.872
4.16359	0.874
4.19741	0.874
4.23123	0.862
4.26505	0.859
4.29888	0.864
4.3327	0.867
4.36652	0.871
4.40034	0.864
4.43416	0.861
4.46798	0.857
4.50181	0.831
4.53563	0.666
4.56945	0.57
4.60327	0.808
4.63709	0.866
4.67091	0.874
4.70474	0.874
4.73856	0.874
4.77238	0.874
4.8062	0.869
4.84002	0.869
4.87384	0.871
4.90767	0.876
4.94149	0.874
4.97531	0.877
5.00913	0.876
5.04295	0.871
5.07677	0.856
5.1106	0.842
5.14442	0.831
5.17824	0.821
5.21206	0.846
5.24588	0.856
5.2797	0.854
5.31353	0.833
5.34735	0.826
5.38117	0.823
5.41499	0.846
5.44881	0.852
5.48263	0.847
5.51646	0.829
5.55028	0.803
5.5841	0.786
5.61792	0.775
5.65174	0.748
5.68557	0.695
5.71939	0.58
5.75321	0.262
5.78703	0.044
5.82085	0.018
5.85467	0.016
5.8885	0.024
5.92232	0.219
5.95614	0.457
5.98996	0.54
6.02378	0.639
6.0576	0.712
6.09143	0.74
6.12525	0.745
6.15907	0.738
6.19289	0.702
6.22671	0.598
6.26053	0.36
6.29436	0.257
6.32818	0.123
6.362	0.3
6.39582	0.315
6.42964	0.396
6.46346	0.552
6.49729	0.656
6.53111	0.73
6.56493	0.753
6.59875	0.778
6.63257	0.783
6.66639	0.781
6.70022	0.735
6.73404	0.578
6.76786	0.457
6.80168	0.552
6.8355	0.459
6.86932	0.352
6.90315	0.242
6.93697	0.299
6.97079	0.213
7.00461	0.208
7.03843	0.543
7.07225	0.634
7.10608	0.676
7.1399	0.676
7.17372	0.656
7.20754	0.606
7.24136	0.476
7.27518	0.48
7.30901	0.451
7.34283	0.319
7.37665	0.216
7.41047	0.492
7.44429	0.657
7.47812	0.676
7.51194	0.634
7.54576	0.502
7.57958	0.32
7.6134	0.163
7.64722	0.157
7.68105	0.186
7.71487	0.188
7.74869	0.186
7.78251	0.231
7.81633	0.289
7.85015	0.272
7.88398	0.231
7.9178	0.175
7.95162	0.08
7.98544	0.019
8.01926	0.011
8.05308	0.013
8.08691	0.013
8.12073	0.013
8.15455	0.009
8.18837	0.013
8.22219	0.018
8.25601	0.119
8.28984	0.234
8.32366	0.361
8.35748	0.447
8.3913	0.489
8.42512	0.514
8.45894	0.519
8.49277	0.482
8.52659	0.438
8.56041	0.368
8.59423	0.332
8.62805	0.386
8.66187	0.381
8.6957	0.325
8.72952	0.274
8.76334	0.193
8.79716	0.15
8.83098	0.12
8.8648	0.095
8.89863	0.135
8.93245	0.226
8.96627	0.353
9.00009	0.418
9.03391	0.404
9.06773	0.408
9.10156	0.428
9.13538	0.378
9.1692	0.304
9.20302	0.249
9.23684	0.269
9.27066	0.226
9.30449	0.176
9.33831	0.261
9.37213	0.347
9.40595	0.353
9.43977	0.333
9.4736	0.381
9.50742	0.456
9.54124	0.467
9.57506	0.388
9.60888	0.307
9.6427	0.214
9.67653	0.186
9.71035	0.239
9.74417	0.3
9.77799	0.3
9.81181	0.317
9.84563	0.328
9.87946	0.312
9.91328	0.304
9.9471	0.33
9.98092	0.411
10.0147	0.451
10.0486	0.482
10.0824	0.609
10.1162	0.685
10.15	0.709
10.1839	0.745
10.2177	0.766
10.2515	0.783
10.2853	0.791
10.3191	0.785
10.353	0.791
10.3868	0.8
10.4206	0.804
10.4544	0.809
10.4882	0.813
10.5221	0.811
10.5559	0.811
10.5897	0.808
10.6235	0.776
10.6574	0.748
10.6912	0.745
10.725	0.765
10.7588	0.781
10.7926	0.786
10.8265	0.781
10.8603	0.758
10.8941	0.722
10.9279	0.702
10.9617	0.7
10.9956	0.72
11.0294	0.747
11.0632	0.755
11.097	0.745
11.1309	0.725
11.1647	0.709
11.1985	0.697
11.2323	0.7
11.2661	0.717
11.3	0.747
11.3338	0.765
11.3676	0.776
11.4014	0.793
11.4353	0.796
11.4691	0.795
11.5029	0.771
11.5367	0.743
11.5705	0.702
11.6044	0.669
11.6382	0.614
11.672	0.563
11.7058	0.519
11.7396	0.52
11.7735	0.547
11.8073	0.618
11.8411	0.649
11.8749	0.695
11.9088	0.725
11.9426	0.752
11.9764	0.768
12.0102	0.78
12.044	0.785
12.0779	0.788
12.1117	0.778
12.1455	0.765
12.1793	0.743
12.2132	0.715
12.247	0.69
12.2808	0.671
12.3146	0.659
12.3484	0.647
12.3823	0.641
12.4161	0.634
12.4499	0.624
12.4837	0.629
12.5175	0.634
12.5514	0.638
12.5852	0.626
12.619	0.598
12.6528	0.548
12.6867	0.474
12.7205	0.423
12.7543	0.411
12.7881	0.416
12.8219	0.419
12.8558	0.418
12.8896	0.39
12.9234	0.34
12.9572	0.259
12.9911	0.188
13.0249	0.138
13.0587	0.125
13.0925	0.13
13.1263	0.132
13.1602	0.161
13.194	0.206
13.2278	0.262
13.2616	0.348
13.2954	0.398
13.3293	0.431
13.3631	0.462
13.3969	0.512
13.4307	0.545
13.4646	0.578
13.4984	0.614
13.5322	0.646
13.566	0.676
13.5998	0.695
13.6337	0.712
13.6675	0.719
13.7013	0.733
13.7351	0.732
13.769	0.73
13.8028	0.728
13.8366	0.725
13.8704	0.715
13.9042	0.707
13.9381	0.687
13.9719	0.666
14.0057	0.613
14.0395	0.545
14.0733	0.447
14.1072	0.338
14.141	0.246
14.1748	0.148
14.2086	0.107
14.2425	0.052
14.2763	0.024
14.3101	0.031
14.3439	0.064
14.3777	0.18
14.4116	0.284
14.4454	0.395
14.4792	0.484
14.513	0.525
14.5468	0.558
14.5807	0.573
14.6145	0.578
14.6483	0.593
14.6821	0.596
14.716	0.595
14.7498	0.598
14.7836	0.601
14.8174	0.601
14.8512	0.601
14.8851	0.609
14.9189	0.614
14.9527	0.614
14.9865	0.616
15.0204	0.626
15.0542	0.626
15.088	0.629
15.1218	0.628
15.1556	0.628
15.1895	0.629
15.2233	0.624
15.2571	0.618
15.2909	0.616
15.3247	0.609
15.3586	0.6
15.3924	0.595
15.4262	0.586
15.46	0.57
