Infrared Spectrum: 2-Phenylcyclohexanol
Formula: C 12 H 16 O
CAS: 1444-64-0
State: gas
Instrument: HP-GC/MS/IRD
Origin: NIST Mass Spectrometry Data Center
1/CM	ABSORBANCE
550	0.0013209
562	8.51e-05
574	8.14e-05
586	9.62e-05
598	0
610	5.92e-05
622	9.99e-05
634	0.0003404
646	0.0005809
658	0.0013949
670	0.0015466
682	0.0021645
694	0.0059163
706	0.0056055
718	0.0020387
730	0.0018167
742	0.0027417
754	0.0021867
766	0.001998
778	0.0010286
790	0.0002664
802	0.000185
814	0.0003848
826	0.0005809
838	0.0003811
850	0.0003367
862	0.0006993
874	0.0004625
886	0.0005402
898	0.0007178
910	0.0005735
922	0.0004144
934	0.0003663
946	0.0009139
958	0.0032412
970	0.0063196
982	0.0043216
994	0.0027639
1006	0.0017723
1018	0.0014208
1030	0.0019425
1042	0.0021497
1054	0.0026381
1066	0.0023421
1078	0.0017723
1090	0.0012136
1102	0.001554
1114	0.0022644
1126	0.0021571
1138	0.0014689
1150	0.0010619
1162	0.0011914
1174	0.0016613
1186	0.001961
1198	0.0015059
1210	0.0016391
1222	0.0026566
1234	0.0029415
1246	0.0021349
1258	0.0022126
1270	0.0017168
1282	0.0012173
1294	0.0011581
1306	0.001258
1318	0.0014652
1330	0.0015725
1342	0.0016613
1354	0.0014467
1366	0.0014134
1378	0.0016909
1390	0.0014245
1402	0.0008066
1414	0.0006327
1426	0.0009472
1438	0.0024679
1450	0.0040885
1462	0.0026603
1474	0.0014911
1486	0.0016983
1498	0.0029785
1510	0.0009657
1522	0.0003367
1534	0.0002294
1546	0.0002072
1558	0.000148
1570	0.0002738
1582	0.0006364
1594	0.0015577
1606	0.0014837
1618	0.0002997
1630	0.0001073
1642	8.88e-05
1654	5.92e-05
1666	7.77e-05
1678	4.81e-05
1690	4.81e-05
1702	2.22e-05
1714	4.44e-05
1726	8.88e-05
1738	0.0001073
1750	0.0001369
1762	0.0001147
1774	0.0001258
1786	0.0002627
1798	0.0004144
1810	0.0002294
1822	0.0001221
1834	7.03e-05
1846	0.0001332
1858	0.0001924
1870	0.0002294
1882	0.000222
1894	0.0001998
1906	0.0001332
1918	0.0001369
1930	0.0003034
1942	0.0004514
1954	0.0003589
1966	0.000148
1978	7.03e-05
1990	1.48e-05
2002	1.85e-05
2014	3.33e-05
2026	3.33e-05
2038	2.96e-05
2050	3.7e-06
2062	2.59e-05
2074	2.59e-05
2086	1.85e-05
2098	4.07e-05
2110	4.07e-05
2122	2.96e-05
2134	3.7e-06
2146	1.48e-05
2158	3.7e-05
2170	4.81e-05
2182	6.29e-05
2194	5.92e-05
2206	7.4e-05
2218	4.81e-05
2230	5.55e-05
2242	4.81e-05
2254	4.81e-05
2266	5.92e-05
2278	4.44e-05
2290	3.7e-05
2302	4.81e-05
2314	9.25e-05
2326	8.51e-05
2338	9.62e-05
2350	0.0001073
2362	0.0001295
2374	9.62e-05
2386	6.66e-05
2398	4.07e-05
2410	5.18e-05
2422	7.4e-05
2434	7.03e-05
2446	2.96e-05
2458	2.22e-05
2470	4.07e-05
2482	4.07e-05
2494	7.77e-05
2506	7.77e-05
2518	5.92e-05
2530	5.55e-05
2542	7.4e-05
2554	9.62e-05
2566	0.0001147
2578	0.0001554
2590	0.0001406
2602	0.0002109
2614	0.0001998
2626	0.0002257
2638	0.000296
2650	0.0004181
2662	0.0005106
2674	0.0004699
2686	0.0004329
2698	0.0003478
2710	0.0002886
2722	0.0002627
2734	0.000259
2746	0.0002738
2758	0.000333
2770	0.0003848
2782	0.0004847
2794	0.0005143
2806	0.0005994
2818	0.0007659
2830	0.0011396
2842	0.0024013
2854	0.0064195
2866	0.0105524
2878	0.0117438
2890	0.0097791
2902	0.0089688
2914	0.010508
2926	0.0173271
2938	0.0346505
2950	0.0271432
2962	0.0066489
2974	0.0017131
2986	0.0009324
2998	0.0009102
3010	0.0014763
3022	0.0031413
3034	0.0042328
3046	0.0030451
3058	0.0036445
3070	0.0053946
3082	0.0034669
3094	0.0023865
3106	0.0014319
3118	0.0006475
3130	0.0002627
3142	0.0001628
3154	0.0001665
3166	0.0001147
3178	5.92e-05
3190	7.03e-05
3202	4.07e-05
3214	4.07e-05
3226	5.18e-05
3238	8.88e-05
3250	5.92e-05
3262	4.81e-05
3274	4.07e-05
3286	4.81e-05
3298	7.03e-05
3310	7.77e-05
3322	9.62e-05
3334	7.77e-05
3346	7.4e-05
3358	8.14e-05
3370	2.96e-05
3382	3.33e-05
3394	2.22e-05
3406	7.03e-05
3418	0.0001258
3430	8.51e-05
3442	3.33e-05
3454	3.7e-05
3466	7.03e-05
3478	4.44e-05
3490	3.33e-05
3502	5.18e-05
3514	3.7e-05
3526	4.07e-05
3538	7.4e-05
3550	0.0001813
3562	0.0001036
3574	0.0001517
3586	0.0002294
3598	0.0003552
3610	0.0008843
3622	0.0023865
3634	0.0020017
3646	0.001295
3658	0.0008547
3670	0.0004551
3682	0.0002257
3694	0.0001998
3706	0.0002294
3718	0.0001369
3730	0.0001036
3742	8.14e-05
3754	9.62e-05
3766	0.0001221
3778	7.77e-05
3790	3.33e-05
3802	7.03e-05
3814	0.000111
3826	0.0001443
3838	8.51e-05
