Infrared Spectrum: Trimethyl orthoacetate
Formula: C 5 H 12 O 3
CAS: 1445-45-0
State: gas
Origin: EPA-IR VAPOR PHASE LIBRARY
1/CM	ABSORBANCE
549.8	0.002472
559.445	0.002542
569.09	0.002122
578.734	0.001722
588.379	0.001752
598.024	0.002472
607.669	0.004172
617.313	0.006012
626.958	0.005332
636.603	0.003402
646.248	0.001592
655.893	0.0006516
665.537	0.0004789
675.182	0.0008002
684.827	0.0007028
694.472	0.0008613
704.116	0.0009245
713.761	0.001642
723.406	0.001822
733.051	0.002652
742.695	0.002502
752.34	0.001622
761.985	0.001372
771.63	0.001392
781.275	0.0012382
790.919	0.001672
800.564	0.001402
810.209	0.002172
819.854	0.002762
829.498	0.003872
839.143	0.005552
848.788	0.008782
858.433	0.016662
868.078	0.036132
877.722	0.072502
887.367	0.101892
897.012	0.082312
906.657	0.038212
916.301	0.016552
925.946	0.009952
935.591	0.007472
945.236	0.005902
954.88	0.005122
964.525	0.005182
974.17	0.005602
983.815	0.006812
993.46	0.008912
1003.1	0.013202
1012.75	0.022402
1022.39	0.045902
1032.04	0.089812
1041.68	0.140832
1051.33	0.178822
1060.97	0.178352
1070.62	0.150352
1080.26	0.107452
1089.91	0.075652
1099.55	0.069392
1109.2	0.082482
1118.84	0.113052
1128.49	0.154342
1138.13	0.194472
1147.78	0.222932
1157.42	0.242942
1167.07	0.263262
1176.71	0.255112
1186.36	0.206032
1196	0.149322
1205.64	0.120332
1215.29	0.114632
1224.93	0.111132
1234.58	0.105342
1244.22	0.092132
1253.87	0.068802
1263.51	0.043012
1273.16	0.026272
1282.8	0.018202
1292.45	0.014242
1302.09	0.010762
1311.74	0.008302
1321.38	0.006692
1331.03	0.006222
1340.67	0.006932
1350.32	0.009282
1359.96	0.017812
1369.61	0.038302
1379.25	0.053822
1388.9	0.045772
1398.54	0.030612
1408.18	0.011472
1417.83	0.010102
1427.47	0.014232
1437.12	0.019672
1446.76	0.021782
1456.41	0.020632
1466.05	0.018202
1475.7	0.016012
1485.34	0.012812
1494.99	0.009682
1504.63	0.007422
1514.28	0.006022
1523.92	0.005342
1533.57	0.004912
1543.21	0.004712
1552.86	0.004512
1562.5	0.004232
1572.15	0.004002
1581.79	0.003782
1591.44	0.003652
1601.08	0.003832
1610.73	0.004232
1620.37	0.004232
1630.01	0.003972
1639.66	0.003472
1649.3	0.003142
1658.95	0.002922
1668.59	0.002502
1678.24	0.002092
1687.88	0.001662
1697.53	0.0013028
1707.17	0.0012982
1716.82	0.001392
1726.46	0.001472
1736.11	0.001632
1745.75	0.001932
1755.4	0.002482
1765.04	0.002942
1774.69	0.003492
1784.33	0.003352
1793.98	0.002982
1803.62	0.002312
1813.27	0.001752
1822.91	0.0012772
1832.55	0.0011884
1842.2	0.0012057
1851.84	0.0012323
1861.49	0.0012846
1871.13	0.001482
1880.78	0.001542
1890.42	0.001762
1900.07	0.002012
1909.71	0.002292
1919.36	0.002582
1929	0.002822
1938.65	0.002822
1948.29	0.002742
1957.94	0.002562
1967.58	0.002312
1977.23	0.001992
1986.87	0.001762
1996.52	0.001702
2006.16	0.001642
2015.81	0.001542
2025.45	0.001482
2035.1	0.001792
2044.74	0.001982
2054.38	0.002232
2064.03	0.002642
2073.67	0.002952
2083.32	0.003222
2092.96	0.003512
2102.61	0.003762
2112.25	0.004192
2121.9	0.004432
2131.54	0.004222
2141.19	0.003722
2150.83	0.002692
2160.48	0.001942
2170.12	0.001522
2179.77	0.0013042
2189.41	0.0013028
2199.06	0.0011645
2208.7	0.0011051
2218.35	0.00101
2227.99	0.001061
2237.64	0.0010494
2247.28	0.0008815
2256.92	0.0011246
2266.57	0.0011885
2276.21	0.0011997
2285.86	0.0012315
2295.5	0.0011871
2305.15	0.0011399
2314.79	0.0012062
2324.44	0.0012609
2334.08	0.0012467
2343.73	0.0010324
2353.37	0.0009669
2363.02	0.0010229
2372.66	0.0010234
2382.31	0.0009278
2391.95	0.0010711
2401.6	0.0009732
2411.24	0.0009343
2420.89	0.0007907
2430.53	0.0008592
2440.18	0.0008027
2449.82	0.0008013
2459.47	0.0006135
2469.11	0.0006272
2478.75	0.0005502
2488.4	0.0006441
2498.04	0.0006647
2507.69	0.0007749
2517.33	0.0007477
2526.98	0.0006988
2536.62	0.0008401
2546.27	0.000889
2555.91	0.0008854
2565.56	0.0010734
2575.2	0.0012861
2584.85	0.001472
2594.49	0.001762
2604.14	0.001842
2613.78	0.001802
2623.43	0.001762
2633.07	0.001822
2642.72	0.001592
2652.36	0.001542
2662.01	0.001422
2671.65	0.001422
2681.29	0.001432
2690.94	0.001362
2700.58	0.001492
2710.23	0.001492
2719.87	0.001592
2729.52	0.001752
2739.16	0.001992
2748.81	0.002192
2758.45	0.002512
2768.1	0.002912
2777.74	0.003612
2787.39	0.004712
2797.03	0.006282
2806.68	0.008902
2816.32	0.013962
2825.97	0.026372
2835.61	0.045812
2845.26	0.058152
2854.9	0.046032
2864.55	0.027862
2874.19	0.023202
2883.84	0.027112
2893.48	0.033892
2903.12	0.042142
2912.77	0.050452
2922.41	0.059552
2932.06	0.075422
2941.7	0.101232
2951.35	0.121042
2960.99	0.114642
2970.64	0.093672
2980.28	0.076912
2989.93	0.073092
2999.57	0.076192
3009.22	0.072262
3018.86	0.052192
3028.51	0.031162
3038.15	0.020412
3047.8	0.016642
3057.44	0.014532
3067.09	0.013042
3076.73	0.011392
3086.38	0.010142
3096.02	0.008862
3105.67	0.007062
3115.31	0.005642
3124.95	0.004892
3134.6	0.003832
3144.24	0.002972
3153.89	0.002502
3163.53	0.002192
3173.18	0.001772
3182.82	0.001822
3192.47	0.001492
3202.11	0.0012895
3211.76	0.0012081
3221.4	0.001048
3231.05	0.0009637
3240.69	0.0008671
3250.34	0.0007392
3259.98	0.0006694
3269.63	0.0007349
3279.27	0.0005226
3288.92	0.00041302
3298.56	0.0006133
3308.21	0.0005089
3317.85	0.0007058
3327.49	0.00043565
3337.14	0.0003091
3346.78	0.0005138
3356.43	0.0004824
3366.07	0.00038474
3375.72	0.0006209
3385.36	0.0006185
3395.01	0.000255
3404.65	0.0005273
3414.3	0.0003302
3423.94	0.0002899
3433.59	0.00039
3443.23	0.000126
3452.88	0.0002708
3462.52	0.000234
3472.17	0.000222
3481.81	0.00035706
3491.46	0.00011
3501.1	0.000173
3510.75	0.000464
3520.39	0.000193
3530.04	0.000301
3539.68	0.000242
3549.32	0.000364495
3558.97	0.00040937
3568.61	0.00045973
3578.26	0.0006336
3587.9	0.0004048
3597.55	0.0002943
3607.19	0.00040993
3616.84	0.00037319
3626.48	0.0005243
3636.13	0.000253
3645.77	0.000167
3655.42	0.000237
3665.06	0.00044954
3674.71	0.00039514
3684.35	0.00043747
3694	0.0007019
3703.64	0.00040615
3713.29	0.0005076
3722.93	0.000237
3732.58	0.0004849
3742.22	0.0005096
3751.86	0.0005234
3761.51	0.0003452
3771.15	0.00043076
3780.8	0.000234
3790.44	0.000253
3800.09	0.0005781
3809.73	0.00035708
3819.38	0.0007921
3829.02	0.0009624
3838.67	0.0005832
3848.31	0.00043473
3857.96	0.0005841
3867.6	0.0004694
3877.25	0.0006808
3886.89	0.0006206
3896.54	0.0007371
3906.18	0.0006913
3915.83	0.0006946
3925.47	0.0006875
3935.12	0.0009124
3944.76	0.0008542
3954.41	0.0010441
3964.05	0.0009864
3973.69	0.0011359
3983.34	0.001392
3992.98	0.001502
