Infrared Spectrum: 3-Bromo-2-fluorobenzotrifluoride
Formula: C 7 H 3 Br F 4
CAS: 144584-67-8
State: gas
Origin: EPA-IR VAPOR PHASE LIBRARY
1/CM	ABSORBANCE
549.8	0.002672
559.445	0.005782
569.09	0.004862
578.735	0.002012
588.38	0.0016288
598.025	0.002292
607.67	0.002362
617.315	0.001534
626.96	0.0009813
636.605	0.00086816
646.251	0.001024
655.896	0.0011389
665.541	0.001992
675.186	0.003262
684.831	0.020692
694.476	0.040072
704.121	0.005572
713.766	0.003672
723.411	0.008282
733.056	0.018962
742.701	0.010892
752.346	0.002592
761.991	0.0016896
771.636	0.005012
781.281	0.016442
790.926	0.024272
800.571	0.014522
810.216	0.003922
819.861	0.004322
829.507	0.011112
839.152	0.009772
848.797	0.002942
858.442	0.0015158
868.087	0.0011221
877.732	0.001051
887.377	0.00098
897.022	0.0011765
906.667	0.0013195
916.312	0.0013583
925.957	0.001022
935.602	0.0010322
945.247	0.0015275
954.892	0.0013635
964.537	0.0016706
974.182	0.001882
983.827	0.0012719
993.472	0.0011841
1003.12	0.0015459
1012.76	0.0015865
1022.41	0.001802
1032.05	0.002352
1041.7	0.004182
1051.34	0.009722
1060.99	0.016942
1070.63	0.021162
1080.28	0.030242
1089.92	0.018782
1099.57	0.006612
1109.21	0.006412
1118.86	0.010322
1128.5	0.018482
1138.15	0.038552
1147.79	0.082552
1157.44	0.120002
1167.08	0.161032
1176.73	0.117902
1186.37	0.039082
1196.02	0.021932
1205.66	0.030572
1215.31	0.061202
1224.95	0.021932
1234.6	0.010472
1244.24	0.020122
1253.89	0.033202
1263.53	0.022662
1273.18	0.013292
1282.82	0.011532
1292.47	0.014222
1302.11	0.039502
1311.76	0.144422
1321.4	0.197892
1331.05	0.046382
1340.69	0.016522
1350.34	0.008892
1359.98	0.004892
1369.63	0.003142
1379.27	0.002782
1388.92	0.003162
1398.56	0.003652
1408.21	0.003212
1417.85	0.003202
1427.5	0.004432
1437.14	0.008902
1446.79	0.023702
1456.43	0.060782
1466.08	0.076882
1475.73	0.037062
1485.37	0.010842
1495.02	0.004892
1504.66	0.003722
1514.31	0.002822
1523.95	0.002072
1533.6	0.0015252
1543.24	0.0015721
1552.89	0.002082
1562.53	0.003452
1572.18	0.005312
1581.82	0.005462
1591.47	0.006182
1601.11	0.011752
1610.76	0.013072
1620.4	0.006362
1630.05	0.004132
1639.69	0.003112
1649.34	0.002492
1658.98	0.002132
1668.63	0.001872
1678.27	0.0014461
1687.92	0.001922
1697.56	0.002802
1707.21	0.001651
1716.85	0.0009271
1726.5	0.0009393
1736.14	0.0009858
1745.79	0.0010115
1755.43	0.0010653
1765.08	0.0010063
1774.72	0.0010179
1784.37	0.0008928
1794.01	0.00088291
1803.66	0.0010533
1813.3	0.0015014
1822.95	0.001634
1832.59	0.0011722
1842.24	0.0009344
1851.88	0.0009492
1861.53	0.0011844
1871.17	0.002162
1880.82	0.002402
1890.46	0.0011526
1900.11	0.0009065
1909.75	0.0009602
1919.4	0.0011313
1929.04	0.0015812
1938.69	0.0016415
1948.33	0.0011572
1957.98	0.0010109
1967.62	0.0009564
1977.27	0.00087718
1986.91	0.00080768
1996.56	0.00084699
2006.2	0.0009261
2015.85	0.0009122
2025.49	0.0007785
2035.14	0.0007039
2044.78	0.0007772
2054.43	0.000798636
2064.07	0.000692
2073.72	0.000794876
2083.36	0.0009299
2093.01	0.00088392
2102.65	0.0009686
2112.3	0.0011234
2121.94	0.0009642
2131.59	0.00083368
2141.23	0.00080913
2150.88	0.00081872
2160.52	0.000798671
2170.17	0.0007053
2179.81	0.000688
2189.46	0.000666
2199.1	0.000692
2208.75	0.0007675
2218.39	0.0008065
2228.04	0.0009422
2237.68	0.0009543
2247.33	0.0010645
2256.97	0.0010827
2266.62	0.0009757
2276.26	0.0009716
2285.91	0.0011585
2295.55	0.0013352
2305.2	0.0013354
2314.84	0.0011609
2324.49	0.0010571
2334.13	0.0009733
2343.78	0.0009348
2353.42	0.0009178
2363.07	0.00086711
2372.72	0.0008033
2382.36	0.0009175
2392.01	0.00085887
2401.65	0.0009061
2411.3	0.00074
2420.94	0.0007441
2430.59	0.000689
2440.23	0.000677
2449.88	0.000688
2459.52	0.000624
2469.17	0.0007792
2478.81	0.000758
2488.46	0.00081665
2498.1	0.0010128
2507.75	0.0010379
2517.39	0.000731
2527.04	0.0007534
2536.68	0.00082585
2546.33	0.000797782
2555.97	0.0007745
2565.62	0.000665
2575.26	0.000586
2584.91	0.000558
2594.55	0.000513
2604.2	0.000493
2613.84	0.000497
2623.49	0.000411
2633.13	0.000503
2642.78	0.000481
2652.42	0.000317
2662.07	0.00035
2671.71	0.000385
2681.36	0.000472
2691	0.000474
2700.65	0.000388
2710.29	0.000533
2719.94	0.000488
2729.58	0.000541
2739.23	0.000505
2748.87	0.000481
2758.52	0.000499
2768.16	0.000411
2777.81	0.000383
2787.45	0.000403
2797.1	0.000379
2806.74	0.000292
2816.39	0.000429
2826.03	0.000261
2835.68	0.000341
2845.32	0.000249
2854.97	0.000296
2864.61	0.000354
2874.26	0.000305
2883.9	0.000259
2893.55	0.000344
2903.19	0.000297
2912.84	0.000345
2922.48	0.000421
2932.13	0.000306
2941.77	0.000271
2951.42	0.000186
2961.06	0.000149
2970.71	0.000177
2980.35	0.000193
2990	0.000214
2999.64	0.000144
3009.29	0.000221
3018.93	0.000287
3028.58	0.000438
3038.22	0.000665
3047.87	0.000661
3057.51	0.000571
3067.16	0.000659
3076.8	0.0009626
3086.45	0.001812
3096.09	0.002002
3105.74	0.0012098
3115.38	0.000493
3125.03	0.000247
3134.67	0.000365
3144.32	0.000299
3153.96	0.000186
3163.61	0.000164
3173.25	0.000228
3182.9	0.000284
3192.54	0.000328
3202.19	0.000127
3211.83	0.000248
3221.48	0.000371
3231.12	0.000277
3240.77	0.000231
3250.41	0.000179
3260.06	5.9e-05
3269.7	6.3e-05
3279.35	0.000163
3289	0.000165
3298.64	0.000264
3308.29	0.000274
3317.93	0.000172
3327.58	0.000357
3337.22	8.6e-05
3346.87	0.000257
3356.51	0.000249
3366.16	0.000293
3375.8	0.000213
3385.45	0.000187
3395.09	0.000246
3404.74	0.000269
3414.38	0.000428
3424.03	0.000367
3433.67	0.000295
3443.32	0.000339
3452.96	0.000236
3462.61	0.000269
3472.25	0.000359
3481.9	0.000359
3491.54	0.000302
3501.19	0.000441
3510.83	0.000308
3520.48	0.000288
3530.12	0.000324
3539.77	0.000357
3549.41	0.000289
3559.06	0.000349
3568.7	0.000298
3578.35	0.000292
3587.99	0.000291
3597.64	0.000308
3607.28	0.000363
3616.93	0.000295
3626.57	0.000397
3636.22	0.000323
3645.86	0.000351
3655.51	0.000511
3665.15	0.000326
3674.8	0.000307
3684.44	0.000303
3694.09	0.000355
3703.73	0.000238
3713.38	0.000324
3723.02	0.000287
3732.67	0.000415
3742.31	0.000285
3751.96	0.000363
3761.6	0.000344
3771.25	0.000368
3780.89	0.000272
3790.54	0.000325
3800.18	0.000275
3809.83	0.000397
3819.47	0.000399
3829.12	0.000402
3838.76	0.000481
3848.41	0.000318
3858.05	0.000416
3867.7	0.000237
3877.34	0.000388
3886.99	0.000336
3896.63	0.000256
3906.28	0.000355
3915.92	0.000455
3925.57	0.000522
3935.21	0.000411
3944.86	0.00041
3954.5	0.000148
3964.15	0.000216
3973.79	0.000396
3983.44	0.000364
3993.08	0.000299
