Infrared Spectrum: 3-ANILINO-2,2,4,4-TETRAMETHYL CYCLOBUTANOL
Formula: C14 H21 N O
CAS: 1445-32-5
State: SOLID (MELT)
Boiling point: 131-132 C AT 1.5 mmHg
Class: COBLENTZ
Instrument: Not specified, most likely a prism, grating, or hybrid spectrometer.
Sampling: TRANSMISSION
Resolution: 4
Origin: TENNESSEE EASTMAN COMPANY, RESEARCH LABORATORIES
MICROMETERS	TRANSMITTANCE
2.027	0.984
2.06792	0.986
2.10884	0.986
2.14975	0.988
2.19067	0.988
2.23159	0.981
2.27251	0.97
2.31342	0.97
2.35434	0.974
2.39526	0.974
2.43618	0.969
2.4771	0.962
2.51801	0.969
2.55893	0.969
2.59985	0.969
2.64077	0.967
2.68168	0.964
2.7226	0.906
2.76352	0.67
2.80444	0.629
2.84536	0.612
2.88627	0.515
2.92719	0.467
2.96811	0.646
3.00903	0.745
3.04994	0.812
3.09086	0.849
3.13178	0.865
3.1727	0.882
3.21362	0.88
3.25453	0.761
3.29545	0.699
3.33637	0.506
3.37729	0.117
3.4182	0.329
3.45912	0.327
3.50004	0.745
3.54096	0.825
3.58188	0.875
3.62279	0.892
3.66371	0.897
3.70463	0.897
3.74555	0.916
3.78646	0.921
3.82738	0.928
3.8683	0.93
3.90922	0.918
3.95014	0.933
3.99105	0.943
4.03197	0.945
4.07289	0.947
4.11381	0.943
4.15472	0.947
4.19564	0.952
4.23656	0.959
4.27748	0.94
4.3184	0.936
4.35931	0.95
4.40023	0.959
4.44115	0.959
4.48207	0.957
4.52298	0.957
4.5639	0.957
4.60482	0.953
4.64574	0.952
4.68666	0.953
4.72757	0.955
4.76849	0.955
4.80941	0.957
4.85033	0.955
4.89124	0.952
4.93216	0.948
4.97308	0.95
5.014	0.955
5.05492	0.952
5.09583	0.945
5.13675	0.93
5.17767	0.914
5.21859	0.901
5.2595	0.93
5.30042	0.941
5.34134	0.94
5.38226	0.938
5.42318	0.923
5.46409	0.911
5.50501	0.902
5.54593	0.916
5.58685	0.912
5.62776	0.897
5.66868	0.877
5.7096	0.878
5.75052	0.854
5.79144	0.837
5.83235	0.822
5.87327	0.817
5.91419	0.815
5.95511	0.82
5.99602	0.836
6.03694	0.843
6.07786	0.815
6.11878	0.781
6.1597	0.617
6.20061	0.363
6.24153	0.056
6.28245	0.343
6.32337	0.656
6.36428	0.755
6.4052	0.757
6.44612	0.764
6.48704	0.679
6.52796	0.542
6.56887	0.213
6.60979	0.073
6.65071	0.136
6.69163	0.385
6.73254	0.441
6.77346	0.226
6.81438	0.302
6.8553	0.392
6.89622	0.496
6.93713	0.482
6.97805	0.435
7.01897	0.597
7.05989	0.656
7.1008	0.663
7.14172	0.67
7.18264	0.602
7.22356	0.445
7.26448	0.441
7.30539	0.412
7.34631	0.605
7.38723	0.65
7.42815	0.614
7.46906	0.6
7.50998	0.551
7.5509	0.341
7.59182	0.182
7.63273	0.225
7.67365	0.341
7.71457	0.431
7.75549	0.491
7.79641	0.486
7.83732	0.472
7.87824	0.438
7.91916	0.37
7.96008	0.322
8.00099	0.421
8.04191	0.544
8.08283	0.633
8.12375	0.675
8.16467	0.691
8.20558	0.668
8.2465	0.617
8.28742	0.569
8.32834	0.542
8.36925	0.568
8.41017	0.561
8.45109	0.476
8.49201	0.549
8.53293	0.629
8.57384	0.626
8.61476	0.547
8.65568	0.537
8.6966	0.607
8.73751	0.643
8.77843	0.653
8.81935	0.697
8.86027	0.692
8.90119	0.672
8.9421	0.633
8.98302	0.576
9.02394	0.522
9.06486	0.47
9.10577	0.402
9.14669	0.313
9.18761	0.245
9.22853	0.175
9.26945	0.174
9.31036	0.148
9.35128	0.116
9.3922	0.158
9.43312	0.264
9.47403	0.411
9.51495	0.542
9.55587	0.631
9.59679	0.667
9.63771	0.677
9.67862	0.655
9.71954	0.655
9.76046	0.696
9.80138	0.713
9.84229	0.711
9.88321	0.633
9.92413	0.52
9.96505	0.435
10.006	0.452
10.0469	0.482
10.0878	0.544
10.1287	0.619
10.1696	0.639
10.2106	0.636
10.2515	0.653
10.2924	0.668
10.3333	0.684
10.3742	0.716
10.4151	0.747
10.4561	0.757
10.497	0.759
10.5379	0.761
10.5788	0.774
10.6197	0.798
10.6607	0.812
10.7016	0.831
10.7425	0.839
10.7834	0.843
10.8243	0.846
10.8652	0.846
10.9062	0.848
10.9471	0.848
10.988	0.846
11.0289	0.843
11.0698	0.832
11.1107	0.822
11.1517	0.81
11.1926	0.802
11.2335	0.793
11.2744	0.791
11.3153	0.788
11.3563	0.779
11.3972	0.767
11.4381	0.737
11.479	0.697
11.5199	0.672
11.5608	0.694
11.6018	0.723
11.6427	0.732
11.6836	0.733
11.7245	0.744
11.7654	0.764
11.8063	0.773
11.8473	0.773
11.8882	0.773
11.9291	0.769
11.97	0.767
12.0109	0.766
12.0519	0.769
12.0928	0.769
12.1337	0.761
12.1746	0.754
12.2155	0.745
12.2564	0.74
12.2974	0.733
12.3383	0.73
12.3792	0.733
12.4201	0.738
12.461	0.742
12.502	0.744
12.5429	0.744
12.5838	0.74
12.6247	0.737
12.6656	0.733
12.7065	0.726
12.7475	0.715
12.7884	0.703
12.8293	0.687
12.8702	0.66
12.9111	0.638
12.952	0.612
12.993	0.598
13.0339	0.578
13.0748	0.539
13.1157	0.457
13.1566	0.343
13.1976	0.23
13.2385	0.148
13.2794	0.11
13.3203	0.104
13.3612	0.15
13.4021	0.245
13.4431	0.387
13.484	0.508
13.5249	0.583
13.5658	0.633
13.6067	0.662
13.6476	0.674
13.6886	0.682
13.7295	0.689
13.7704	0.687
13.8113	0.689
13.8522	0.687
13.8932	0.682
13.9341	0.679
13.975	0.675
14.0159	0.668
14.0568	0.658
14.0977	0.645
14.1387	0.627
14.1796	0.604
14.2205	0.559
14.2614	0.506
14.3023	0.433
14.3432	0.348
14.3842	0.261
14.4251	0.216
14.466	0.206
14.5069	0.257
14.5478	0.339
14.5888	0.426
14.6297	0.496
14.6706	0.539
14.7115	0.558
14.7524	0.566
14.7933	0.569
14.8343	0.573
14.8752	0.571
14.9161	0.569
14.957	0.566
14.9979	0.568
15.0389	0.566
15.0798	0.558
15.1207	0.552
15.1616	0.551
15.2025	0.551
15.2434	0.549
15.2844	0.549
15.3253	0.547
15.3662	0.549
15.4071	0.546
15.448	0.544
15.4889	0.546
15.5299	0.542
15.5708	0.542
15.6117	0.542
15.6526	0.542
15.6935	0.542
15.7345	0.54
15.7754	0.54
15.8163	0.542
15.8572	0.546
15.8981	0.547
15.939	0.549
15.98	0.554
