Infrared Spectrum: 1,3-CYCLOBUTANEDIAMINE, N,N'-DIPHENYL-2,2,4,4-TETRAMETHYL-
Formula: C20 H26 N2
CAS: 1445-33-6
State: SOLID (PELLET)
Melting point: 109-111 C
Class: COBLENTZ
Instrument: Not specified, most likely a prism, grating, or hybrid spectrometer.
Sampling: TRANSMISSION
Resolution: 4
Origin: TENNESSEE EASTMAN COMPANY, RESEARCH LABORATORIES
MICROMETERS	TRANSMITTANCE
2.033	0.772
2.07289	0.77
2.11278	0.768
2.15267	0.772
2.19255	0.777
2.23244	0.775
2.27233	0.775
2.31222	0.778
2.35211	0.78
2.392	0.782
2.43189	0.78
2.47177	0.785
2.51166	0.793
2.55155	0.798
2.59144	0.798
2.63133	0.801
2.67122	0.801
2.71111	0.777
2.75099	0.673
2.79088	0.595
2.83077	0.532
2.87066	0.382
2.91055	0.465
2.95044	0.599
2.99033	0.675
3.03021	0.722
3.0701	0.74
3.10999	0.77
3.14988	0.81
3.18977	0.82
3.22966	0.625
3.26955	0.45
3.30943	0.678
3.34932	0.236
3.38921	0.376
3.4291	0.324
3.46899	0.643
3.50888	0.808
3.54877	0.878
3.58865	0.908
3.62854	0.916
3.66843	0.925
3.70832	0.926
3.74821	0.928
3.7881	0.935
3.82799	0.943
3.86787	0.901
3.90776	0.931
3.94765	0.965
3.98754	0.975
4.02743	0.985
4.06732	0.99
4.10721	0.988
4.14709	0.99
4.18698	0.993
4.22687	0.993
4.26676	0.991
4.30665	0.991
4.34654	0.991
4.38643	0.991
4.42631	0.988
4.4662	0.991
4.50609	0.993
4.54598	0.993
4.58587	0.988
4.62576	0.99
4.66565	0.993
4.70554	0.996
4.74542	0.998
4.78531	0.998
4.8252	0.998
4.86509	0.991
4.90498	0.981
4.94487	0.973
4.98476	0.981
5.02464	0.981
5.06453	0.985
5.10442	0.981
5.14431	0.965
5.1842	0.911
5.22409	0.86
5.26398	0.951
5.30386	0.973
5.34375	0.973
5.38364	0.978
5.42353	0.961
5.46342	0.938
5.50331	0.913
5.5432	0.925
5.58308	0.961
5.62297	0.958
5.66286	0.926
5.70275	0.915
5.74264	0.921
5.78253	0.921
5.82242	0.905
5.8623	0.888
5.90219	0.87
5.94208	0.855
5.98197	0.806
6.02186	0.797
6.06175	0.788
6.10164	0.703
6.14152	0.469
6.18141	0.061
6.2213	0.034
6.26119	0.079
6.30108	0.387
6.34097	0.678
6.38086	0.695
6.42074	0.688
6.46063	0.668
6.50052	0.542
6.54041	0.301
6.5803	0.096
6.62019	0.044
6.66008	0.171
6.69996	0.445
6.73985	0.412
6.77974	0.114
6.81963	0.236
6.85952	0.552
6.89941	0.615
6.9393	0.552
6.97918	0.128
7.01907	0.58
7.05896	0.757
7.09885	0.803
7.13874	0.81
7.17863	0.73
7.21852	0.381
7.2584	0.286
7.29829	0.302
7.33818	0.697
7.37807	0.66
7.41796	0.544
7.45785	0.519
7.49774	0.272
7.53762	0.098
7.57751	0.086
7.6174	0.326
7.65729	0.575
7.69718	0.697
7.73707	0.725
7.77696	0.603
7.81684	0.246
7.85673	0.059
7.89662	0.119
7.93651	0.459
7.9764	0.69
8.01629	0.78
8.05618	0.65
8.09606	0.757
8.13595	0.825
8.17584	0.821
8.21573	0.831
8.25562	0.831
8.29551	0.762
8.3354	0.79
8.37528	0.826
8.41517	0.625
8.45506	0.382
8.49495	0.743
8.53484	0.632
8.57473	0.618
8.61462	0.665
8.6545	0.687
8.69439	0.838
8.73428	0.846
8.77417	0.843
8.81406	0.821
8.85395	0.795
8.89384	0.723
8.93372	0.525
8.97361	0.246
9.0135	0.188
9.05339	0.099
9.09328	0.254
9.13317	0.638
9.17306	0.752
9.21294	0.77
9.25283	0.605
9.29272	0.324
9.33261	0.61
9.3725	0.795
9.41239	0.846
9.45228	0.863
9.49216	0.881
9.53205	0.91
9.57194	0.92
9.61183	0.921
9.65172	0.893
9.69161	0.768
9.7315	0.83
9.77138	0.876
9.81127	0.913
9.85116	0.923
9.89105	0.93
9.93094	0.933
9.97083	0.928
10.0107	0.688
10.0506	0.371
10.0905	0.75
10.1304	0.81
10.1703	0.828
10.2102	0.825
10.25	0.8
10.2899	0.795
10.3298	0.826
10.3697	0.875
10.4096	0.893
10.4495	0.9
10.4894	0.883
10.5293	0.742
10.5692	0.747
10.609	0.797
10.6489	0.86
10.6888	0.901
10.7287	0.918
10.7686	0.923
10.8085	0.93
10.8484	0.933
10.8883	0.936
10.9282	0.935
10.968	0.935
11.0079	0.936
11.0478	0.936
11.0877	0.936
11.1276	0.935
11.1675	0.935
11.2074	0.935
11.2473	0.923
11.2872	0.91
11.327	0.858
11.3669	0.763
11.4068	0.539
11.4467	0.427
11.4866	0.465
11.5265	0.59
11.5664	0.502
11.6063	0.582
11.6461	0.795
11.686	0.843
11.7259	0.865
11.7658	0.875
11.8057	0.88
11.8456	0.88
11.8855	0.888
11.9254	0.898
11.9653	0.901
12.0051	0.911
12.045	0.916
12.0849	0.92
12.1248	0.918
12.1647	0.918
12.2046	0.92
12.2445	0.92
12.2844	0.92
12.3243	0.913
12.3641	0.888
12.404	0.888
12.4439	0.9
12.4838	0.903
12.5237	0.903
12.5636	0.903
12.6035	0.9
12.6434	0.9
12.6833	0.9
12.7231	0.893
12.763	0.876
12.8029	0.838
12.8428	0.787
12.8827	0.722
12.9226	0.74
12.9625	0.783
13.0024	0.79
13.0422	0.792
13.0821	0.772
13.122	0.717
13.1619	0.632
13.2018	0.492
13.2417	0.314
13.2816	0.156
13.3215	0.088
13.3614	0.071
13.4012	0.073
13.4411	0.086
13.481	0.214
13.5209	0.369
13.5608	0.577
13.6007	0.677
13.6406	0.73
13.6805	0.765
13.7204	0.787
13.7602	0.801
13.8001	0.81
13.84	0.813
13.8799	0.816
13.9198	0.818
13.9597	0.82
13.9996	0.816
14.0395	0.816
14.0794	0.818
14.1192	0.818
14.1591	0.805
14.199	0.778
14.2389	0.745
14.2788	0.685
14.3187	0.618
14.3586	0.504
14.3985	0.392
14.4383	0.267
14.4782	0.186
14.5181	0.159
14.558	0.198
14.5979	0.314
14.6378	0.449
14.6777	0.587
14.7176	0.653
14.7575	0.692
14.7973	0.713
14.8372	0.728
14.8771	0.735
14.917	0.735
14.9569	0.735
14.9968	0.735
15.0367	0.733
15.0766	0.733
15.1165	0.73
15.1563	0.728
15.1962	0.727
15.2361	0.727
15.276	0.728
15.3159	0.727
15.3558	0.727
15.3957	0.727
15.4356	0.728
15.4755	0.728
15.5153	0.728
15.5552	0.728
15.5951	0.722
15.635	0.708
15.6749	0.682
15.7148	0.65
15.7547	0.625
15.7946	0.608
15.8344	0.6
15.8743	0.597
15.9142	0.594
15.9541	0.592
15.994	0.592
