Infrared Spectrum: CYCLOBUTANONE, 2,2,4,4-TETRAMETHYL-3-PHENYLIMINO-
Formula: C14 H17 N O
CAS: 1445-29-0
State: LIQUID
Boiling point: 124-125 C AT 7 mmHg
Class: COBLENTZ
Instrument: Not specified, most likely a prism, grating, or hybrid spectrometer.
Sampling: TRANSMISSION
Path length: SMEAR
Resolution: 4
Origin: TENNESSEE EASTMAN COMPANY, RESEARCH LABORATORIES
MICROMETERS	TRANSMITTANCE
2.02	0.926
2.0609	0.925
2.10179	0.918
2.14269	0.902
2.18359	0.902
2.22448	0.867
2.26538	0.821
2.30628	0.831
2.34717	0.839
2.38807	0.846
2.42897	0.848
2.46986	0.827
2.51076	0.86
2.55165	0.863
2.59255	0.87
2.63345	0.882
2.67434	0.897
2.71524	0.897
2.75614	0.838
2.79703	0.858
2.83793	0.855
2.87883	0.81
2.91972	0.868
2.96062	0.858
3.00152	0.88
3.04241	0.889
3.08331	0.887
3.12421	0.865
3.1651	0.831
3.206	0.827
3.2469	0.541
3.28779	0.54
3.32869	0.495
3.36959	0.231
3.41048	0.194
3.45138	0.379
3.49228	0.742
3.53317	0.836
3.57407	0.88
3.61496	0.899
3.65586	0.901
3.69676	0.902
3.73765	0.928
3.77855	0.928
3.81945	0.925
3.86034	0.928
3.90124	0.926
3.94214	0.911
3.98303	0.923
4.02393	0.931
4.06483	0.931
4.10572	0.914
4.14662	0.89
4.18752	0.918
4.22841	0.93
4.26931	0.931
4.31021	0.925
4.3511	0.93
4.392	0.943
4.4329	0.943
4.47379	0.942
4.51469	0.931
4.55559	0.931
4.59648	0.94
4.63738	0.942
4.67827	0.943
4.71917	0.943
4.76007	0.942
4.80096	0.93
4.84186	0.919
4.88276	0.928
4.92365	0.93
4.96455	0.896
5.00545	0.88
5.04634	0.884
5.08724	0.868
5.12814	0.836
5.16903	0.853
5.20993	0.846
5.25083	0.809
5.29172	0.822
5.33262	0.822
5.37352	0.798
5.41441	0.8
5.45531	0.741
5.49621	0.407
5.5371	0.059
5.578	0.403
5.6189	0.494
5.65979	0.601
5.70069	0.511
5.74158	0.557
5.78248	0.304
5.82338	0.115
5.86427	0.047
5.90517	0.057
5.94607	0.117
5.98696	0.216
6.02786	0.565
6.06876	0.746
6.10965	0.8
6.15055	0.822
6.19145	0.804
6.23234	0.553
6.27324	0.282
6.31414	0.557
6.35503	0.821
6.39593	0.858
6.43683	0.851
6.47772	0.836
6.51862	0.841
6.55952	0.839
6.60041	0.821
6.64131	0.73
6.68221	0.189
6.7231	0.429
6.764	0.529
6.80489	0.218
6.84579	0.202
6.88669	0.255
6.92758	0.48
6.96848	0.708
7.00938	0.749
7.05027	0.78
7.09117	0.8
7.13207	0.807
7.17296	0.787
7.21386	0.507
7.25476	0.592
7.29565	0.737
7.33655	0.39
7.37745	0.737
7.41834	0.844
7.45924	0.867
7.50014	0.87
7.54103	0.868
7.58193	0.868
7.62283	0.865
7.66372	0.831
7.70462	0.781
7.74552	0.727
7.78641	0.565
7.82731	0.332
7.8682	0.279
7.9091	0.407
7.95	0.458
7.99089	0.386
8.03179	0.453
8.07269	0.524
8.11358	0.449
8.15448	0.275
8.19538	0.291
8.23627	0.495
8.27717	0.664
8.31807	0.725
8.35896	0.729
8.39986	0.71
8.44076	0.718
8.48165	0.558
8.52255	0.555
8.56345	0.562
8.60434	0.528
8.64524	0.55
8.68614	0.729
8.72703	0.805
8.76793	0.839
8.80883	0.86
8.84972	0.872
8.89062	0.873
8.93151	0.873
8.97241	0.862
9.01331	0.853
9.0542	0.853
9.0951	0.848
9.136	0.81
9.17689	0.758
9.21779	0.698
9.25869	0.58
9.29958	0.456
9.34048	0.41
9.38138	0.456
9.42227	0.342
9.46317	0.175
9.50407	0.109
9.54496	0.141
9.58586	0.264
9.62676	0.415
9.66765	0.509
9.70855	0.533
9.74945	0.623
9.79034	0.696
9.83124	0.735
9.87214	0.759
9.91303	0.766
9.95393	0.717
9.99482	0.701
10.0357	0.783
10.0766	0.804
10.1175	0.807
10.1584	0.809
10.1993	0.81
10.2402	0.814
10.2811	0.816
10.322	0.8
10.3629	0.77
10.4038	0.742
10.4447	0.718
10.4856	0.674
10.5265	0.662
10.5674	0.729
10.6083	0.793
10.6492	0.822
10.6901	0.841
10.731	0.862
10.7719	0.867
10.8128	0.873
10.8537	0.873
10.8945	0.865
10.9354	0.829
10.9763	0.773
11.0172	0.698
11.0581	0.625
11.099	0.643
11.1399	0.751
11.1808	0.826
11.2217	0.87
11.2626	0.89
11.3035	0.902
11.3444	0.906
11.3853	0.906
11.4262	0.906
11.4671	0.906
11.508	0.906
11.5489	0.906
11.5898	0.904
11.6307	0.904
11.6716	0.884
11.7125	0.851
11.7534	0.798
11.7943	0.652
11.8352	0.415
11.8761	0.431
11.917	0.616
11.9579	0.698
11.9988	0.717
12.0397	0.746
12.0805	0.807
12.1214	0.839
12.1623	0.853
12.2032	0.863
12.2441	0.872
12.285	0.877
12.3259	0.879
12.3668	0.882
12.4077	0.884
12.4486	0.884
12.4895	0.884
12.5304	0.88
12.5713	0.87
12.6122	0.862
12.6531	0.846
12.694	0.829
12.7349	0.797
12.7758	0.729
12.8167	0.592
12.8576	0.402
12.8985	0.223
12.9394	0.139
12.9803	0.126
13.0212	0.226
13.0621	0.367
13.103	0.473
13.1439	0.5
13.1848	0.509
13.2257	0.505
13.2665	0.453
13.3074	0.379
13.3483	0.299
13.3892	0.265
13.4301	0.303
13.471	0.41
13.5119	0.514
13.5528	0.614
13.5937	0.669
13.6346	0.705
13.6755	0.727
13.7164	0.739
13.7573	0.746
13.7982	0.751
13.8391	0.751
13.88	0.751
13.9209	0.751
13.9618	0.73
14.0027	0.705
14.0436	0.654
14.0845	0.562
14.1254	0.434
14.1663	0.296
14.2072	0.194
14.2481	0.134
14.289	0.115
14.3299	0.129
14.3708	0.206
14.4117	0.32
14.4525	0.439
14.4934	0.524
14.5343	0.589
14.5752	0.62
14.6161	0.64
14.657	0.649
14.6979	0.65
14.7388	0.65
14.7797	0.65
14.8206	0.64
14.8615	0.628
14.9024	0.618
14.9433	0.618
14.9842	0.618
15.0251	0.618
15.066	0.618
15.1069	0.621
15.1478	0.633
15.1887	0.642
15.2296	0.649
15.2705	0.65
15.3114	0.652
15.3523	0.654
15.3932	0.654
15.4341	0.654
15.475	0.654
15.5159	0.652
15.5568	0.647
15.5977	0.638
15.6385	0.62
15.6794	0.604
15.7203	0.592
15.7612	0.587
15.8021	0.586
15.843	0.586
15.8839	0.592
15.9248	0.599
15.9657	0.603
