Infrared Spectrum: 3'-Iodoacetophenone
Formula: C 8 H 7 I O
CAS: 14452-30-3
State: gas
Origin: EPA-IR VAPOR PHASE LIBRARY
1/CM	ABSORBANCE
549.8	0.0010086
559.445	0.0012266
569.09	0.002496
578.734	0.008486
588.379	0.018416
598.024	0.011416
607.669	0.003696
617.313	0.0013132
626.958	0.0014062
636.603	0.002586
646.248	0.010726
655.893	0.013006
665.537	0.003706
675.182	0.008356
684.827	0.013466
694.472	0.007736
704.116	0.003006
713.761	0.001606
723.406	0.001223
733.051	0.0011676
742.695	0.002206
752.34	0.006176
761.985	0.010946
771.63	0.012616
781.275	0.016786
790.919	0.012936
800.564	0.004396
810.209	0.0012275
819.854	0.0008921
829.498	0.0007496
839.143	0.0007902
848.788	0.001088
858.433	0.0008293
868.078	0.001586
877.722	0.002676
887.367	0.002336
897.012	0.002336
906.657	0.002506
916.301	0.002186
925.946	0.001856
935.591	0.002956
945.236	0.005776
954.88	0.008256
964.525	0.005386
974.17	0.002586
983.815	0.002826
993.46	0.007206
1003.1	0.005146
1012.75	0.002486
1022.39	0.002406
1032.04	0.002596
1041.68	0.003446
1051.33	0.007436
1060.97	0.010026
1070.62	0.004756
1080.26	0.004296
1089.91	0.003466
1099.55	0.002076
1109.2	0.002286
1118.84	0.002176
1128.49	0.002076
1138.13	0.001976
1147.78	0.001966
1157.42	0.002106
1167.07	0.004436
1176.71	0.004526
1186.36	0.003826
1196	0.004426
1205.64	0.005726
1215.29	0.011456
1224.93	0.022796
1234.58	0.053406
1244.22	0.110976
1253.87	0.077676
1263.51	0.027476
1273.16	0.024926
1282.8	0.010836
1292.45	0.004856
1302.09	0.003336
1311.74	0.002596
1321.38	0.002756
1331.03	0.003236
1340.67	0.005386
1350.32	0.011556
1359.96	0.022246
1369.61	0.016596
1379.25	0.007456
1388.9	0.006736
1398.54	0.011986
1408.18	0.019976
1417.83	0.016776
1427.47	0.006836
1437.12	0.005296
1446.76	0.004256
1456.41	0.004296
1466.05	0.006296
1475.7	0.004516
1485.34	0.002286
1494.99	0.001746
1504.63	0.001976
1514.28	0.002426
1523.92	0.002766
1533.57	0.003646
1543.21	0.006656
1552.86	0.014806
1562.5	0.022846
1572.15	0.013026
1581.79	0.005466
1591.44	0.003406
1601.08	0.002376
1610.73	0.001886
1620.37	0.001736
1630.01	0.001926
1639.66	0.001896
1649.3	0.002376
1658.95	0.003896
1668.59	0.007006
1678.24	0.008476
1687.88	0.013986
1697.53	0.041596
1707.17	0.088846
1716.82	0.048696
1726.46	0.012486
1736.11	0.007616
1745.75	0.007976
1755.4	0.005696
1765.04	0.002726
1774.69	0.001666
1784.33	0.00126
1793.98	0.0013231
1803.62	0.0013667
1813.27	0.0014198
1822.91	0.001576
1832.55	0.001546
1842.2	0.0013203
1851.84	0.0010066
1861.49	0.0010695
1871.13	0.0013313
1880.78	0.0012898
1890.42	0.0012345
1900.07	0.0011466
1909.71	0.0008208
1919.36	0.000674
1929	0.0010029
1938.65	0.0011627
1948.29	0.0010598
1957.94	0.0009478
1967.58	0.0006442
1977.23	0.00057285
1986.87	0.0006338
1996.52	0.0006793
2006.16	0.0007239
2015.81	0.0007495
2025.45	0.00051483
2035.1	0.00048789
2044.74	0.0004638
2054.38	0.0004299
2064.03	0.000392
2073.67	0.000373
2083.32	0.000311
2092.96	0.000428
2102.61	0.00033
2112.25	0.0004627
2121.9	0.0004403
2131.54	0.0004393
2141.19	0.0004659
2150.83	0.0004019
2160.48	0.0004401
2170.12	0.0004769
2179.77	0.000377
2189.41	0.0004288
2199.06	0.0004614
2208.7	0.0004047
2218.35	0.000355
2227.99	0.00050618
2237.64	0.0004105
2247.28	0.000444
2256.92	0.0004412
2266.57	0.0004413
2276.21	0.0004279
2285.86	0.0004352
2295.5	0.00053719
2305.15	0.00055656
2314.79	0.0006733
2324.44	0.00056
2334.08	0.00056234
2343.73	0.0006657
2353.37	0.0006047
2363.02	0.0006285
2372.66	0.00056091
2382.31	0.00053557
2391.95	0.0004771
2401.6	0.0004376
2411.24	0.00051582
2420.89	0.00042
2430.53	0.0004713
2440.18	0.0004614
2449.82	0.0004614
2459.47	0.0003983
2469.11	0.00049266
2478.75	0.00057321
2488.4	0.000501758
2498.04	0.0004475
2507.69	0.00052107
2517.33	0.0007731
2526.98	0.00048714
2536.62	0.00057085
2546.27	0.0004073
2555.91	0.00038
2565.56	0.0004151
2575.2	0.00048821
2584.85	0.00051779
2594.49	0.0003988
2604.14	0.0004541
2613.78	0.00053404
2623.43	0.0004083
2633.07	0.00055201
2642.72	0.0004585
2652.36	0.00051097
2662.01	0.0004568
2671.65	0.000343
2681.29	0.0004624
2690.94	0.00037
2700.58	0.00048784
2710.23	0.000322
2719.87	0.0004028
2729.52	0.0004316
2739.16	0.000373
2748.81	0.0004285
2758.45	0.000254
2768.1	0.0004192
2777.74	0.000385
2787.39	0.00055757
2797.03	0.0004369
2806.68	0.0007277
2816.32	0.0006015
2825.97	0.0007534
2835.61	0.0006758
2845.26	0.0008055
2854.9	0.0007876
2864.55	0.0007419
2874.19	0.0006437
2883.84	0.0006003
2893.48	0.0007417
2903.12	0.0007138
2912.77	0.0007596
2922.41	0.0011972
2932.06	0.001776
2941.7	0.001756
2951.35	0.001516
2960.99	0.0014163
2970.64	0.002066
2980.28	0.002346
2989.93	0.001876
2999.57	0.002316
3009.22	0.003726
3018.86	0.004076
3028.51	0.002526
3038.15	0.001816
3047.8	0.002076
3057.44	0.003746
3067.09	0.006786
3076.73	0.007156
3086.38	0.004926
3096.02	0.002936
3105.67	0.001506
3115.31	0.0011555
3124.95	0.0011703
3134.6	0.0008721
3144.24	0.0008089
3153.89	0.0006403
3163.53	0.0004289
3173.18	0.000372
3182.82	0.0004191
3192.47	0.0006135
3202.11	0.0004676
3211.76	0.0004073
3221.4	0.00057859
3231.05	0.000377
3240.69	0.0004398
3250.34	0.000309
3259.98	0.000189
3269.63	0.0003988
3279.27	0.00029
3288.92	0.0003977
3298.56	0.000287
3308.21	0.000351
3317.85	0.000143
3327.49	0.000151
3337.14	0.0004568
3346.78	0.000267
3356.43	0.00052762
3366.07	0.0006183
3375.72	0.0007147
3385.36	0.0012234
3395.01	0.001946
3404.65	0.0014637
3414.3	0.0007331
3423.94	0.0004307
3433.59	0.00051225
3443.23	0.000392
3452.88	0.00028
3462.52	0.000224
3472.17	0.000343
3481.81	0.000500577
3491.46	0.000107
3501.1	0.000283
3510.75	7.3e-05
3520.39	0.000187
3530.04	0.000187
3539.68	0.000254
3549.32	0.000231
3558.97	0.000336
3568.61	0.000252
3578.26	0.000107
3587.9	0.00051068
3597.55	0.0004053
3607.19	0.000393
3616.84	0.000377
3626.48	0.000374
3636.13	0.000327
3645.77	0.000238
3655.42	0.000107
3665.06	0.000122
3674.71	0.000238
3684.35	0.000148
3694	0.000251
3703.64	0.000157
3713.29	0.0004334
3722.93	0.000327
3732.58	0.00050845
3742.22	0.000374
3751.86	0.000371
3761.51	0.0004057
3771.15	0.000355
3780.8	0.000302
3790.44	0.000385
3800.09	0.000142
3809.73	0.000375
3819.38	0.0004768
3829.02	0.0004557
3838.67	0.000294
3848.31	0.0004786
3857.96	0.000159
3867.6	0.0004395
3877.25	0.000212
3886.89	0.000114
3896.54	0.000383
3906.18	0.000288
3915.83	0.0004014
3925.47	0.000323
3935.12	0.000151
3944.76	0.000308
3954.41	0.000469
3964.05	0.000252
3973.69	0.0004626
3983.34	0.000295
3992.98	0.00031
