Infrared Spectrum: PHOSPHONIC ACID, METHYL-, o,o-BIS-ISOPROPYL ESTER
Formula: C7 H17 O3 P
CAS: 1445-75-6
State: LIQUID
Class: COBLENTZ
Instrument: Not specified, most likely a prism, grating, or hybrid spectrometer.
Sampling: TRANSMISSION
Path length: LIQUID FILM BETWEEN KBr PLATES
Resolution: 4
Origin: G. A. M. S.
1/CM	TRANSMITTANCE
599.355	0.741
608.505	0.743
617.654	0.747
626.804	0.755
635.953	0.764
645.103	0.773
654.252	0.775
663.402	0.772
672.552	0.763
681.701	0.747
690.851	0.718
700	0.672
709.15	0.476
718.3	0.367
727.449	0.675
736.599	0.66
745.748	0.547
754.898	0.6329
764.047	0.675
773.197	0.626
782.347	0.2549
791.496	0.184
800.646	0.406
809.795	0.6799
818.945	0.735
828.094	0.741
837.244	0.735
846.394	0.709
855.543	0.672
864.693	0.598
873.842	0.489
882.992	0.392
892.142	0.204
901.291	0.189
910.441	0.135
919.59	0.201
928.74	0.332
937.889	0.326
947.039	0.287
956.189	0.16
965.338	0.023
974.488	0.007
983.637	0.007
992.787	0.012
1001.94	0.013
1011.09	0.023
1020.24	0.063
1029.39	0.218
1038.53	0.321
1047.68	0.39
1056.83	0.48
1065.98	0.536
1075.13	0.547
1084.28	0.498
1093.43	0.392
1102.58	0.12
1111.73	0.167
1120.88	0.286
1130.03	0.269
1139.18	0.195
1148.33	0.376
1157.48	0.369
1166.63	0.289
1175.78	0.23
1184.93	0.4199
1194.08	0.581
1203.23	0.566
1212.38	0.489
1221.53	0.273
1230.68	0.076
1239.83	0.021
1248.98	0.06
1258.12	0.146
1267.27	0.306
1276.42	0.48
1285.57	0.5
1294.72	0.429
1303.87	0.221
1313.02	0.183
1322.17	0.513
1331.32	0.523
1340.47	0.48
1349.62	0.426
1358.77	0.415
1367.92	0.266
1377.07	0.17
1386.22	0.183
1395.37	0.424
1404.52	0.58
1413.67	0.552
1422.82	0.555
1431.97	0.583
1441.12	0.527
1450.27	0.435
1459.42	0.396
1468.57	0.389
1477.71	0.604
1486.86	0.735
1496.01	0.78
1505.16	0.801
1514.31	0.815
1523.46	0.818
1532.61	0.82
1541.76	0.821
1550.91	0.821
1560.06	0.823
1569.21	0.823
1578.36	0.823
1587.51	0.821
1596.66	0.818
1605.81	0.81
1614.96	0.803
1624.11	0.79
1633.26	0.78
1642.41	0.773
1651.56	0.773
1660.71	0.772
1669.86	0.76
1679.01	0.74
1688.15	0.733
1697.3	0.73
1706.45	0.729
1715.6	0.736
1724.75	0.743
1733.9	0.747
1743.05	0.747
1752.2	0.763
1761.35	0.789
1770.5	0.81
1779.65	0.823
1788.8	0.827
1797.95	0.832
1807.1	0.833
1816.25	0.835
1825.4	0.835
1834.55	0.836
1843.7	0.835
1852.85	0.835
1862	0.835
1871.15	0.835
1880.3	0.836
1889.45	0.84
1898.6	0.841
1907.74	0.841
1916.89	0.843
1926.04	0.844
1935.19	0.843
1944.34	0.836
1953.49	0.821
1962.64	0.847
1971.79	0.85
1980.94	0.85
1990.09	0.85
1999.24	0.847
2008.39	0.847
2017.54	0.847
2026.69	0.847
2035.84	0.847
2044.99	0.847
2054.14	0.846
2063.29	0.846
2072.44	0.844
2081.59	0.843
2090.74	0.8427
2099.89	0.8439
2109.04	0.8457
2118.19	0.846
2127.33	0.846
2136.48	0.847
2145.63	0.847
2154.78	0.847
2163.93	0.847
2173.08	0.847
2182.23	0.849
2191.38	0.849
2200.53	0.849
2209.68	0.847
2218.83	0.847
2227.98	0.847
2237.13	0.847
2246.28	0.847
2255.43	0.847
2264.58	0.847
2273.73	0.847
2282.88	0.847
2292.03	0.847
2301.18	0.847
2310.33	0.8469
2319.48	0.847
2328.63	0.8461
2337.78	0.8469
2346.92	0.846
2356.07	0.846
2365.22	0.846
2374.37	0.846
2383.52	0.846
2392.67	0.846
2401.82	0.8456
2410.97	0.844
2420.12	0.843
2429.27	0.841
2438.42	0.841
2447.57	0.841
2456.72	0.841
2465.87	0.84
2475.02	0.84
2484.17	0.84
2493.32	0.84
2502.47	0.84
2511.62	0.838
2520.77	0.838
2529.92	0.8373
2539.07	0.836
2548.22	0.8356
2557.37	0.8343
2566.51	0.832
2575.66	0.83
2584.81	0.8282
2593.96	0.8266
2603.11	0.8252
2612.26	0.824
2621.41	0.821
2630.56	0.8191
2639.71	0.8171
2648.86	0.815
2658.01	0.811
2667.16	0.808
2676.31	0.805
2685.46	0.802
2694.61	0.799
2703.76	0.796
2712.91	0.795
2722.06	0.795
2731.21	0.7939
2740.36	0.795
2749.51	0.793
2758.66	0.792
2767.81	0.7872
2776.95	0.7776
2786.1	0.7653
2795.25	0.742
2804.4	0.721
2813.55	0.7064
2822.7	0.69
2831.85	0.6376
2841	0.5831
2850.15	0.4984
2859.3	0.4658
2868.45	0.4532
2877.6	0.4388
2886.75	0.3664
2895.9	0.3204
2905.05	0.281
2914.2	0.2795
2923.35	0.2868
2932.5	0.2837
2941.65	0.2132
2950.8	0.1602
2959.95	0.158
2969.1	0.1676
2978.25	0.1979
2987.4	0.3148
2996.54	0.4073
3005.69	0.5261
3014.84	0.6239
3023.99	0.7204
3033.14	0.7486
3042.29	0.7719
3051.44	0.7895
3060.59	0.7997
3069.74	0.8058
3078.89	0.8089
3088.04	0.81
3097.19	0.812
3106.34	0.812
3115.49	0.81
3124.64	0.81
3133.79	0.81
3142.94	0.809
3152.09	0.809
3161.24	0.807
3170.39	0.806
3179.54	0.806
3188.69	0.8042
3197.84	0.8061
3206.99	0.8091
3216.13	0.812
3225.28	0.8132
3234.43	0.816
3243.58	0.818
3252.73	0.82
3261.88	0.8197
3271.03	0.818
3280.18	0.816
3289.33	0.813
3298.48	0.812
3307.63	0.809
3316.78	0.8056
3325.93	0.8008
3335.08	0.7951
3344.23	0.7868
3353.38	0.7795
3362.53	0.7715
3371.68	0.7637
3380.83	0.7574
3389.98	0.7497
3399.13	0.7444
3408.28	0.7374
3417.43	0.7314
3426.58	0.7257
3435.72	0.72
3444.87	0.7143
3454.02	0.7113
3463.17	0.709
3472.32	0.7066
3481.47	0.704
3490.62	0.7064
3499.77	0.7108
3508.92	0.7168
3518.07	0.7232
3527.22	0.7338
3536.37	0.7507
3545.52	0.7712
3554.67	0.7965
3563.82	0.8075
3572.97	0.8165
3582.12	0.8225
3591.27	0.8295
3600.42	0.8341
3609.57	0.8405
3618.72	0.844
3627.87	0.847
3637.02	0.849
3646.16	0.852
3655.31	0.8526
3664.46	0.853
3673.61	0.853
3682.76	0.853
3691.91	0.853
3701.06	0.853
3710.21	0.853
3719.36	0.853
3728.51	0.852
3737.66	0.852
3746.81	0.852
3755.96	0.85
3765.11	0.85
3774.26	0.849
3783.41	0.849
3792.56	0.849
3801.71	0.847
3810.86	0.847
3820.01	0.847
3829.16	0.847
3838.31	0.847
3847.46	0.847
3856.61	0.847
3865.75	0.847
3874.9	0.847
3884.05	0.847
3893.2	0.847
3902.35	0.847
3911.5	0.847
3920.65	0.847
3929.8	0.847
3938.95	0.847
3948.1	0.849
3957.25	0.849
3966.4	0.849
