Infrared Spectrum: CYCLOBUTANEDIIMINE, 2,2,4,4-TETRAMETHYL-N,N'-DIPHENYL
Formula: C20 H22 N2
CAS: 1445-28-9
State: SOLID (KBr PELLET)
Melting point: 141 C
Class: COBLENTZ
Instrument: Not specified, most likely a prism, grating, or hybrid spectrometer.
Sampling: TRANSMISSION
Resolution: 4
Origin: TENNESSEE EASTMAN COMPANY, RESEARCH LABORATORIES
MICROMETERS	TRANSMITTANCE
2.026	0.816
2.06572	0.821
2.10543	0.818
2.14515	0.819
2.18487	0.824
2.22459	0.828
2.2643	0.828
2.30402	0.824
2.34374	0.826
2.38346	0.831
2.42317	0.831
2.46289	0.828
2.50261	0.834
2.54232	0.838
2.58204	0.838
2.62176	0.839
2.66148	0.847
2.70119	0.833
2.74091	0.732
2.78063	0.647
2.82035	0.59
2.86006	0.53
2.89978	0.48
2.9395	0.533
2.97921	0.624
3.01893	0.704
3.05865	0.732
3.09837	0.76
3.13808	0.78
3.1778	0.801
3.21752	0.813
3.25724	0.639
3.29695	0.705
3.33667	0.505
3.37639	0.525
3.4161	0.649
3.45582	0.613
3.49554	0.869
3.53526	0.866
3.57497	0.879
3.61469	0.887
3.65441	0.895
3.69413	0.899
3.73384	0.899
3.77356	0.9
3.81328	0.904
3.85299	0.904
3.89271	0.904
3.93243	0.9
3.97215	0.904
4.01186	0.909
4.05158	0.909
4.0913	0.897
4.13102	0.867
4.17073	0.902
4.21045	0.905
4.25017	0.889
4.28988	0.88
4.3296	0.879
4.36932	0.914
4.40904	0.912
4.44875	0.915
4.48847	0.914
4.52819	0.912
4.56791	0.919
4.60762	0.919
4.64734	0.915
4.68706	0.912
4.72677	0.912
4.76649	0.91
4.80621	0.867
4.84593	0.857
4.88564	0.89
4.92536	0.9
4.96508	0.902
5.0048	0.907
5.04451	0.902
5.08423	0.895
5.12395	0.838
5.16366	0.866
5.20338	0.904
5.2431	0.91
5.28282	0.902
5.32253	0.879
5.36225	0.847
5.40197	0.899
5.44169	0.851
5.4814	0.882
5.52112	0.844
5.56084	0.816
5.60055	0.871
5.64027	0.869
5.67999	0.786
5.71971	0.747
5.75942	0.722
5.79914	0.717
5.83886	0.52
5.87857	0.089
5.91829	0.038
5.95801	0.029
5.99773	0.198
6.03744	0.489
6.07716	0.684
6.11688	0.712
6.1566	0.742
6.19631	0.72
6.23603	0.505
6.27575	0.046
6.31546	0.36
6.35518	0.781
6.3949	0.831
6.43462	0.834
6.47433	0.824
6.51405	0.844
6.55377	0.857
6.59349	0.836
6.6332	0.814
6.67292	0.528
6.71264	0.274
6.75235	0.563
6.79207	0.631
6.83179	0.338
6.87151	0.28
6.91122	0.429
6.95094	0.753
6.99066	0.824
7.03038	0.839
7.07009	0.866
7.10981	0.867
7.14953	0.851
7.18924	0.831
7.22896	0.669
7.26868	0.699
7.3084	0.798
7.34811	0.386
7.38783	0.72
7.42755	0.864
7.46727	0.884
7.50698	0.889
7.5467	0.894
7.58642	0.895
7.62613	0.9
7.66585	0.9
7.70557	0.884
7.74529	0.847
7.785	0.747
7.82472	0.573
7.86444	0.517
7.90416	0.671
7.94387	0.768
7.98359	0.747
8.02331	0.58
8.06302	0.484
8.10274	0.338
8.14246	0.074
8.18218	0.15
8.22189	0.555
8.26161	0.723
8.30133	0.778
8.34105	0.796
8.38076	0.753
8.42048	0.748
8.4602	0.753
8.49991	0.728
8.53963	0.808
8.57935	0.719
8.61907	0.561
8.65878	0.712
8.6985	0.819
8.73822	0.854
8.77794	0.869
8.81765	0.876
8.85737	0.88
8.89709	0.882
8.9368	0.866
8.97652	0.842
9.01624	0.852
9.05596	0.864
9.09567	0.867
9.13539	0.866
9.17511	0.841
9.21483	0.808
9.25454	0.732
9.29426	0.383
9.33398	0.262
9.37369	0.314
9.41341	0.099
9.45313	0.107
9.49285	0.398
9.53256	0.652
9.57228	0.75
9.612	0.795
9.65172	0.796
9.69143	0.679
9.73115	0.618
9.77087	0.715
9.81058	0.803
9.8503	0.828
9.89002	0.849
9.92974	0.849
9.96945	0.806
10.0092	0.813
10.0489	0.849
10.0886	0.856
10.1283	0.854
10.168	0.866
10.2078	0.866
10.2475	0.876
10.2872	0.894
10.3269	0.894
10.3666	0.841
10.4063	0.842
10.4461	0.879
10.4858	0.88
10.5255	0.894
10.5652	0.905
10.6049	0.907
10.6446	0.907
10.6844	0.905
10.7241	0.904
10.7638	0.9
10.8035	0.899
10.8432	0.899
10.883	0.897
10.9227	0.864
10.9624	0.811
11.0021	0.566
11.0418	0.636
11.0815	0.727
11.1213	0.841
11.161	0.889
11.2007	0.905
11.2404	0.909
11.2801	0.91
11.3198	0.91
11.3596	0.91
11.3993	0.907
11.439	0.909
11.4787	0.909
11.5184	0.912
11.5581	0.914
11.5979	0.914
11.6376	0.91
11.6773	0.871
11.717	0.776
11.7567	0.527
11.7964	0.396
11.8362	0.641
11.8759	0.773
11.9156	0.79
11.9553	0.758
11.995	0.813
12.0348	0.872
12.0745	0.889
12.1142	0.899
12.1539	0.907
12.1936	0.902
12.2333	0.899
12.2731	0.907
12.3128	0.905
12.3525	0.902
12.3922	0.905
12.4319	0.907
12.4716	0.905
12.5114	0.905
12.5511	0.905
12.5908	0.902
12.6305	0.899
12.6702	0.892
12.7099	0.874
12.7497	0.859
12.7894	0.839
12.8291	0.806
12.8688	0.763
12.9085	0.679
12.9482	0.53
12.988	0.285
13.0277	0.062
13.0674	0.041
13.1071	0.266
13.1468	0.552
13.1866	0.704
13.2263	0.761
13.266	0.788
13.3057	0.796
13.3454	0.796
13.3851	0.796
13.4249	0.788
13.4646	0.765
13.5043	0.733
13.544	0.697
13.5837	0.641
13.6234	0.573
13.6632	0.505
13.7029	0.403
13.7426	0.28
13.7823	0.17
13.822	0.125
13.8617	0.157
13.9015	0.314
13.9412	0.48
13.9809	0.585
14.0206	0.641
14.0603	0.652
14.1	0.629
14.1398	0.557
14.1795	0.447
14.2192	0.307
14.2589	0.18
14.2986	0.105
14.3384	0.089
14.3781	0.188
14.4178	0.373
14.4575	0.555
14.4972	0.659
14.5369	0.735
14.5767	0.771
14.6164	0.788
14.6561	0.795
14.6958	0.8
14.7355	0.808
14.7752	0.809
14.815	0.813
14.8547	0.813
14.8944	0.813
14.9341	0.814
14.9738	0.809
15.0135	0.8
15.0533	0.791
15.093	0.791
15.1327	0.793
15.1724	0.798
15.2121	0.798
15.2519	0.798
15.2916	0.798
15.3313	0.798
15.371	0.796
15.4107	0.795
15.4504	0.793
15.4902	0.786
15.5299	0.785
15.5696	0.783
15.6093	0.778
15.649	0.771
15.6887	0.766
15.7285	0.761
15.7682	0.757
15.8079	0.75
15.8476	0.748
15.8873	0.743
15.927	0.74
15.9668	0.738
