Infrared Spectrum: SUCCINIMIDE, N-ACETOXY-
Formula: C6 H7 N O4
CAS: 14464-29-0
State: SOLID (NUJOL MULL)
Class: COBLENTZ III
Instrument: PERKIN-ELMER 21 (GRATING)
Instrument parameters: FILTER AT ABOUT 10 MICRONS
Resolution: 2
Origin: ABBOTT LABORATORIES
1/CM	TRANSMITTANCE
666	0.5074
675	0.6101
684	0.6648
693	0.6837
702	0.6888
711	0.6673
720	0.6338
729	0.6751
738	0.6947
747	0.7095
756	0.6761
765	0.5352
774	0.7335
783	0.7389
792	0.6993
801	0.5919
810	0.3882
819	0.5317
828	0.3581
837	0.176
846	0.5725
855	0.7231
864	0.7476
873	0.7558
882	0.7589
891	0.7552
900	0.7516
909	0.7456
918	0.7377
927	0.7284
936	0.718
945	0.7149
954	0.7033
963	0.689
972	0.6749
981	0.6535
990	0.5631
999	0.626
1008	0.5368
1017	0.6158
1026	0.5803
1035	0.511
1044	0.3046
1053	0.3377
1062	0.2522
1071	0.3115
1080	0.3779
1089	0.5376
1098	0.6321
1107	0.6351
1116	0.6197
1125	0.5802
1134	0.5074
1143	0.3953
1152	0.217
1161	0.1301
1170	0.0921
1179	0.2294
1188	0.2597
1197	0.2597
1206	0.1691
1215	0.1327
1224	0.148
1233	0.2832
1242	0.4543
1251	0.4336
1260	0.5649
1269	0.6232
1278	0.6467
1287	0.6324
1296	0.5521
1305	0.6189
1314	0.6447
1323	0.6337
1332	0.5792
1341	0.5475
1350	0.502
1359	0.3451
1368	0.291
1377	0.135
1386	0.4184
1395	0.5497
1404	0.5812
1413	0.5296
1422	0.3872
1431	0.2939
1440	0.2907
1449	0.2032
1458	0.1856
1467	0.326
1476	0.5508
1485	0.674
1494	0.6987
1503	0.7021
1512	0.7034
1521	0.7036
1530	0.7036
1539	0.7039
1548	0.7034
1557	0.702
1566	0.6987
1575	0.6931
1584	0.6827
1593	0.6707
1602	0.6562
1611	0.6387
1620	0.6187
1629	0.6025
1638	0.5729
1647	0.5424
1656	0.5099
1665	0.4811
1674	0.4371
1683	0.3856
1692	0.3315
1701	0.2892
1710	0.2467
1719	0.1861
1728	0.117
1737	0.0808
1746	0.0806
1755	0.1162
1764	0.1553
1773	0.182
1782	0.1912
1791	0.1714
1800	0.2291
1809	0.2957
1818	0.2085
1827	0.1935
1836	0.4064
1845	0.4657
1854	0.524
1863	0.5604
1872	0.5771
1881	0.598
1890	0.6364
1899	0.6623
1908	0.682
1917	0.7034
1926	0.7147
1935	0.7259
1944	0.7372
1953	0.7482
1962	0.7545
1971	0.7545
1980	0.7538
1989	0.7532
1998	0.7596
2007	0.7662
2016	0.7721
2025	0.7772
2034	0.7822
2043	0.7869
2052	0.7909
2061	0.7948
2070	0.7967
2079	0.7984
2088	0.8002
2097	0.802
2106	0.8039
2115	0.8049
2124	0.8058
2133	0.8067
2142	0.8075
2151	0.8082
2160	0.8089
2169	0.8096
2178	0.81
2187	0.8099
2196	0.8099
2205	0.8099
2214	0.8095
2223	0.8084
2232	0.8066
2241	0.8042
2250	0.8002
2259	0.7964
2268	0.7932
2277	0.7914
2286	0.7902
2295	0.7891
2304	0.7881
2313	0.7875
2322	0.7872
2331	0.7868
2340	0.7859
2349	0.7851
2358	0.7844
2367	0.7848
2376	0.7853
2385	0.7858
2394	0.7863
2403	0.7868
2412	0.7874
2421	0.788
2430	0.7887
2439	0.7891
2448	0.7886
2457	0.7873
2466	0.786
2475	0.7849
2484	0.7834
2493	0.7809
2502	0.777
2511	0.7716
2520	0.7658
2529	0.7611
2538	0.7567
2547	0.7533
2556	0.7484
2565	0.7396
2574	0.7296
2583	0.7278
2592	0.7267
2601	0.7258
2610	0.7247
2619	0.7235
2628	0.7221
2637	0.72
2646	0.7174
2655	0.7148
2664	0.7127
2673	0.7106
2682	0.7083
2691	0.706
2700	0.7036
2709	0.7014
2718	0.6993
2727	0.6973
2736	0.6948
2745	0.692
2754	0.6858
2763	0.6751
2772	0.6558
2781	0.634
2790	0.6028
2799	0.5748
2808	0.5237
2817	0.4237
2826	0.2959
2835	0.1682
2844	0.0485
2853	0.0424
2862	0.0375
2871	0.0295
2880	0.0238
2889	0.0206
2898	0.0185
2907	0.0171
2916	0.0169
2925	0.0188
2934	0.0234
2943	0.0309
2952	0.0875
2961	0.1596
2970	0.2312
2979	0.3025
2988	0.4149
2997	0.4475
3006	0.479
3015	0.5149
3024	0.6051
3033	0.6293
3042	0.635
3051	0.6373
3060	0.6408
3069	0.6568
3078	0.6683
3087	0.678
3096	0.6843
3105	0.6881
3114	0.691
3123	0.6937
3132	0.6962
3141	0.6987
3150	0.7011
3159	0.7035
3168	0.706
3177	0.7096
3186	0.714
3195	0.7182
3204	0.7194
3213	0.7196
3222	0.7196
3231	0.7194
3240	0.7192
3249	0.7183
3258	0.7169
3267	0.7155
3276	0.7139
3285	0.7123
3294	0.7106
3303	0.7092
3312	0.7083
3321	0.7073
3330	0.7076
3339	0.7082
3348	0.7086
3357	0.7086
3366	0.7087
3375	0.7087
3384	0.7087
3393	0.7083
3402	0.7065
3411	0.7048
3420	0.7029
3429	0.7011
3438	0.6992
3447	0.6974
3456	0.6955
3465	0.6941
3474	0.6958
3483	0.6987
3492	0.7031
3501	0.7079
3510	0.7121
3519	0.7154
3528	0.7187
3537	0.7206
3546	0.7218
3555	0.7231
3564	0.7238
3573	0.7238
3582	0.7238
3591	0.7237
3600	0.7236
3609	0.7235
3618	0.7233
3627	0.7233
3636	0.7231
3645	0.7196
3654	0.7221
3663	0.7217
3672	0.7212
3681	0.7208
3690	0.7203
3699	0.7198
3708	0.7194
3717	0.7187
3726	0.718
3735	0.7174
3744	0.7167
3753	0.716
3762	0.7154
3771	0.7146
3780	0.7135
3789	0.7124
3798	0.7113
3807	0.7101
3816	0.709
3825	0.708
3834	0.7069
3843	0.7058
3852	0.7048
3861	0.7038
3870	0.7027
3879	0.7017
3888	0.7007
3897	0.6995
3906	0.6982
3915	0.697
3924	0.6956
3933	0.6944
3942	0.6931
3951	0.6919
3960	0.6906
3969	0.6894
3978	0.6882
3987	0.687
3996	0.6859
