Infrared Spectrum: ACETIC ACID, ISO-BUTENYL ESTER
Formula: C6 H10 O2
CAS: 14478-14-9
Class: COBLENTZ
Instrument: Not specified, most likely a prism, grating, or hybrid spectrometer.
Sampling: TRANSMISSION
Path length: SMEAR
Resolution: 4
Origin: TENNESSEE EASTMAN COMPANY, RESEARCH LABORATORIES
MICROMETERS	TRANSMITTANCE
2.034	0.924
2.0749	0.928
2.11579	0.929
2.15669	0.931
2.19759	0.931
2.23849	0.928
2.27938	0.921
2.32028	0.917
2.36118	0.919
2.40207	0.922
2.44297	0.922
2.48387	0.926
2.52476	0.928
2.56566	0.929
2.60656	0.929
2.64746	0.929
2.68835	0.931
2.72925	0.929
2.77015	0.921
2.81104	0.907
2.85194	0.89
2.89284	0.854
2.93373	0.852
2.97463	0.861
3.01553	0.861
3.05643	0.866
3.09732	0.875
3.13822	0.883
3.17912	0.888
3.22001	0.883
3.26091	0.797
3.30181	0.821
3.3427	0.772
3.3836	0.589
3.4245	0.431
3.4654	0.628
3.50629	0.669
3.54719	0.857
3.58809	0.905
3.62898	0.916
3.66988	0.885
3.71078	0.922
3.75167	0.934
3.79257	0.936
3.83347	0.946
3.87437	0.95
3.91526	0.948
3.95616	0.95
3.99706	0.952
4.03795	0.952
4.07885	0.95
4.11975	0.94
4.16065	0.934
4.20154	0.941
4.24244	0.953
4.28334	0.952
4.32423	0.945
4.36513	0.945
4.40603	0.952
4.44692	0.957
4.48782	0.946
4.52872	0.934
4.56962	0.94
4.61051	0.914
4.65141	0.89
4.69231	0.912
4.7332	0.94
4.7741	0.946
4.815	0.953
4.85589	0.953
4.89679	0.943
4.93769	0.941
4.97859	0.946
5.01948	0.965
5.06038	0.96
5.10128	0.953
5.14217	0.957
5.18307	0.955
5.22397	0.953
5.26486	0.952
5.30576	0.95
5.34666	0.945
5.38756	0.919
5.42845	0.871
5.46935	0.844
5.51025	0.808
5.55114	0.731
5.59204	0.513
5.63294	0.279
5.67383	0.147
5.71473	0.065
5.75563	0.08
5.79653	0.395
5.83742	0.604
5.87832	0.652
5.91922	0.481
5.96011	0.657
6.00101	0.801
6.04191	0.809
6.0828	0.801
6.1237	0.792
6.1646	0.799
6.2055	0.816
6.24639	0.851
6.28729	0.869
6.32819	0.893
6.36908	0.885
6.40998	0.866
6.45088	0.871
6.49178	0.863
6.53267	0.869
6.57357	0.852
6.61447	0.852
6.65536	0.84
6.69626	0.84
6.73716	0.821
6.77805	0.796
6.81895	0.696
6.85985	0.575
6.90075	0.443
6.94164	0.482
6.98254	0.566
7.02344	0.66
7.06433	0.712
7.10523	0.732
7.14613	0.71
7.18702	0.559
7.22792	0.363
7.26882	0.222
7.30972	0.16
7.35061	0.27
7.39151	0.595
7.43241	0.767
7.4733	0.816
7.5142	0.818
7.5551	0.833
7.59599	0.849
7.63689	0.852
7.67779	0.849
7.71869	0.823
7.75958	0.797
7.80048	0.744
7.84138	0.654
7.88227	0.563
7.92317	0.46
7.96407	0.34
8.00496	0.208
8.04586	0.107
8.08676	0.044
8.12766	0.032
8.16855	0.03
8.20945	0.035
8.25035	0.056
8.29124	0.126
8.33214	0.205
8.37304	0.323
8.41394	0.438
8.45483	0.566
8.49573	0.657
8.53663	0.71
8.57752	0.729
8.61842	0.731
8.65932	0.72
8.70021	0.69
8.74111	0.631
8.78201	0.534
8.82291	0.342
8.8638	0.171
8.9047	0.083
8.9456	0.053
8.98649	0.058
9.02739	0.118
9.06829	0.231
9.10918	0.359
9.15008	0.486
9.19098	0.575
9.23188	0.626
9.27277	0.643
9.31367	0.659
9.35457	0.671
9.39546	0.672
9.43636	0.648
9.47726	0.577
9.51815	0.465
9.55905	0.381
9.59995	0.426
9.64085	0.577
9.68174	0.683
9.72264	0.75
9.76354	0.784
9.80443	0.804
9.84533	0.818
9.88623	0.821
9.92712	0.823
9.96802	0.811
10.0089	0.789
10.0498	0.746
10.0907	0.72
10.1316	0.72
10.1725	0.751
10.2134	0.796
10.2543	0.825
10.2952	0.833
10.3361	0.832
10.377	0.797
10.4179	0.785
10.4588	0.815
10.4997	0.842
10.5406	0.852
10.5815	0.857
10.6224	0.857
10.6633	0.842
10.7042	0.813
10.7451	0.753
10.786	0.643
10.8269	0.53
10.8678	0.462
10.9087	0.517
10.9496	0.642
10.9904	0.724
11.0313	0.796
11.0722	0.833
11.1131	0.857
11.154	0.875
11.1949	0.886
11.2358	0.893
11.2767	0.904
11.3176	0.91
11.3585	0.916
11.3994	0.917
11.4403	0.921
11.4812	0.921
11.5221	0.922
11.563	0.924
11.6039	0.924
11.6448	0.924
11.6857	0.922
11.7266	0.921
11.7675	0.912
11.8084	0.907
11.8493	0.89
11.8902	0.875
11.9311	0.854
11.972	0.83
12.0129	0.787
12.0538	0.726
12.0947	0.63
12.1356	0.585
12.1765	0.582
12.2174	0.558
12.2583	0.541
12.2992	0.544
12.34	0.597
12.3809	0.645
12.4218	0.712
12.4627	0.78
12.5036	0.818
12.5445	0.839
12.5854	0.856
12.6263	0.866
12.6672	0.875
12.7081	0.88
12.749	0.881
12.7899	0.888
12.8308	0.89
12.8717	0.892
12.9126	0.895
12.9535	0.898
12.9944	0.902
13.0353	0.904
13.0762	0.907
13.1171	0.909
13.158	0.909
13.1989	0.909
13.2398	0.909
13.2807	0.91
13.3216	0.912
13.3625	0.912
13.4034	0.912
13.4443	0.912
13.4852	0.912
13.5261	0.91
13.567	0.907
13.6079	0.905
13.6488	0.902
13.6897	0.902
13.7305	0.9
13.7714	0.898
13.8123	0.893
13.8532	0.892
13.8941	0.888
13.935	0.888
13.9759	0.885
14.0168	0.881
14.0577	0.878
14.0986	0.878
14.1395	0.876
14.1804	0.869
14.2213	0.866
14.2622	0.864
14.3031	0.859
14.344	0.856
14.3849	0.854
14.4258	0.847
14.4667	0.845
14.5076	0.839
14.5485	0.835
14.5894	0.833
14.6303	0.828
14.6712	0.825
14.7121	0.823
14.753	0.818
14.7939	0.815
14.8348	0.811
14.8757	0.809
14.9166	0.799
14.9575	0.791
14.9984	0.787
15.0393	0.782
15.0801	0.779
15.121	0.773
15.1619	0.765
15.2028	0.758
15.2437	0.75
15.2846	0.743
15.3255	0.738
15.3664	0.724
15.4073	0.715
15.4482	0.702
15.4891	0.691
15.53	0.681
15.5709	0.662
15.6118	0.647
15.6527	0.631
15.6936	0.625
15.7345	0.623
15.7754	0.63
15.8163	0.64
15.8572	0.659
15.8981	0.667
15.939	0.671
15.9799	0.672
