Infrared Spectrum: 4-Methoxytrityl chloride
Formula: C 20 H 17 Cl O
CAS: 14470-28-1
State: gas
Origin: EPA-IR VAPOR PHASE LIBRARY
1/CM	ABSORBANCE
549.9	0.0012052
559.547	0.001858
569.193	0.003468
578.84	0.002108
588.486	0.0012097
598.133	0.002198
607.779	0.002858
617.426	0.0014728
627.072	0.0011018
636.719	0.001122
646.365	0.0010391
656.012	0.0010886
665.658	0.0014258
675.305	0.001888
684.951	0.002518
694.598	0.007668
704.245	0.007178
713.891	0.004178
723.538	0.002758
733.184	0.003278
742.831	0.003398
752.477	0.002128
762.124	0.0013505
771.77	0.001618
781.417	0.002958
791.063	0.002298
800.71	0.002398
810.356	0.002228
820.003	0.001988
829.649	0.002668
839.296	0.002308
848.943	0.0013866
858.589	0.0013791
868.236	0.0014196
877.882	0.0008808
887.529	0.0007478
897.175	0.0007726
906.822	0.0007993
916.468	0.0008344
926.115	0.000656
935.761	0.0006534
945.408	0.0006456
955.054	0.0006851
964.701	0.000799
974.347	0.0008264
983.994	0.0008522
993.64	0.001034
1003.29	0.0014541
1012.93	0.001888
1022.58	0.002888
1032.23	0.005758
1041.87	0.005568
1051.52	0.003388
1061.17	0.001848
1070.81	0.001768
1080.46	0.0013906
1090.11	0.0010599
1099.75	0.0011653
1109.4	0.001528
1119.05	0.0011848
1128.69	0.0009514
1138.34	0.0009726
1147.99	0.0012078
1157.63	0.001868
1167.28	0.003968
1176.92	0.008728
1186.57	0.004058
1196.22	0.002108
1205.86	0.001998
1215.51	0.002638
1225.16	0.004418
1234.8	0.008618
1244.45	0.016498
1254.1	0.016558
1263.74	0.008568
1273.39	0.005208
1283.04	0.004298
1292.68	0.004418
1302.33	0.003588
1311.98	0.002178
1321.62	0.001718
1331.27	0.001558
1340.92	0.0013432
1350.56	0.0011496
1360.21	0.0010707
1369.86	0.0010369
1379.5	0.0009704
1389.15	0.0008869
1398.79	0.0009623
1408.44	0.0011305
1418.09	0.0012448
1427.73	0.001568
1437.38	0.002378
1447.03	0.004038
1456.67	0.003328
1466.32	0.003488
1475.97	0.003328
1485.61	0.004408
1495.26	0.008498
1504.91	0.014898
1514.55	0.015598
1524.2	0.003518
1533.85	0.001938
1543.49	0.001548
1553.14	0.0014046
1562.79	0.001475
1572.43	0.002008
1582.08	0.002818
1591.73	0.003878
1601.37	0.005198
1611.02	0.004938
1620.67	0.002938
1630.31	0.0014464
1639.96	0.0011124
1649.6	0.0010168
1659.25	0.000931
1668.9	0.0007729
1678.54	0.0007298
1688.19	0.0007165
1697.84	0.0006806
1707.48	0.0007113
1717.13	0.0006717
1726.78	0.0007142
1736.42	0.000708
1746.07	0.0008642
1755.72	0.0009606
1765.36	0.0007642
1775.01	0.0008044
1784.66	0.0007971
1794.3	0.0010246
1803.95	0.0010359
1813.6	0.0008197
1823.24	0.0007234
1832.89	0.0006925
1842.54	0.0006427
1852.18	0.0007014
1861.83	0.000763
1871.47	0.0008974
1881.12	0.0010535
1890.77	0.0010224
1900.41	0.0007313
1910.06	0.0006594
1919.71	0.0006321
1929.35	0.0007425
1939	0.0009098
1948.65	0.0009646
1958.29	0.0008565
1967.94	0.0006568
1977.59	0.00058894
1987.23	0.00052606
1996.88	0.00051795
2006.53	0.00056735
2016.17	0.00055891
2025.82	0.0006237
2035.47	0.0006983
2045.11	0.0006141
2054.76	0.0006324
2064.41	0.0006783
2074.05	0.0006854
2083.7	0.0006231
2093.35	0.000500548
2102.99	0.000384
2112.64	0.00044
2122.28	0.0004166
2131.93	0.000376
2141.58	0.000357
2151.22	0.000361
2160.87	0.000396
2170.52	0.000372
2180.16	0.000364
2189.81	0.00034
2199.46	0.000367
2209.1	0.000374
2218.75	0.000384
2228.4	0.000327
2238.04	0.000306
2247.69	0.000355
2257.34	0.000342
2266.98	0.000352
2276.63	0.0004231
2286.28	0.0004
2295.92	0.0004085
2305.57	0.0004265
2315.22	0.000393
2324.86	0.000312
2334.51	0.000318
2344.16	0.000337
2353.8	0.000336
2363.45	0.000322
2373.09	0.000361
2382.74	0.000368
2392.39	0.000322
2402.03	0.000393
2411.68	0.000387
2421.33	0.000338
2430.97	0.000356
2440.62	0.000342
2450.27	0.000343
2459.91	0.000302
2469.56	0.000361
2479.21	0.000308
2488.85	0.000357
2498.5	0.000354
2508.15	0.000338
2517.79	0.000347
2527.44	0.000363
2537.09	0.000331
2546.73	0.000326
2556.38	0.000344
2566.03	0.000239
2575.67	0.000257
2585.32	0.00027
2594.96	0.000221
2604.61	0.000194
2614.26	0.000201
2623.9	0.000247
2633.55	0.000258
2643.2	0.000211
2652.84	0.000157
2662.49	0.000186
2672.14	0.000165
2681.78	5.5e-05
2691.43	0.00017
2701.08	0.000187
2710.72	0.000146
2720.37	0.000149
2730.02	9.8e-05
2739.66	9.5e-05
2749.31	0.000183
2758.96	0.000202
2768.6	0.000144
2778.25	0.000198
2787.9	0.000226
2797.54	0.000272
2807.19	0.000371
2816.84	0.0004344
2826.48	0.0006562
2836.13	0.0013757
2845.77	0.002298
2855.42	0.0011374
2865.07	0.0008461
2874.71	0.0009034
2884.36	0.001758
2894.01	0.001508
2903.65	0.001427
2913.3	0.001788
2922.95	0.001708
2932.59	0.001838
2942.24	0.002748
2951.89	0.002438
2961.53	0.002178
2971.18	0.001548
2980.83	0.0013334
2990.47	0.001608
3000.12	0.002718
3009.77	0.003688
3019.41	0.003368
3029.06	0.005818
3038.71	0.004588
3048.35	0.003198
3058	0.004008
3067.64	0.007738
3077.29	0.004978
3086.94	0.003658
3096.58	0.002478
3106.23	0.001578
3115.88	0.0007785
3125.52	0.0006029
3135.17	0.000205
3144.82	0.000273
3154.46	0.000246
3164.11	0.000375
3173.76	0.000257
3183.4	0.000119
3193.05	0.00021
3202.7	0.000199
3212.34	0.000107
3221.99	0.000125
3231.64	9.2e-05
3241.28	0.000165
3250.93	0.000109
3260.58	0.000117
3270.22	0.000263
3279.87	5.8e-05
3289.52	0.000232
3299.16	0.000332
3308.81	0.000219
3318.45	0.000264
3328.1	0.00051736
3337.75	0.000268
3347.39	0.0004687
3357.04	0.00031
3366.69	0.000277
3376.33	0.000376
3385.98	0.000497166
3395.63	0.000396
3405.27	0.0004531
3414.92	0.0004771
3424.57	0.000361
3434.21	0.000364
3443.86	0.0004257
3453.51	0.000287
3463.15	0.0004413
3472.8	0.0004399
3482.45	0.000377
3492.09	0.0004404
3501.74	0.00019
3511.39	0.00039
3521.03	0.000296
3530.68	0.0004773
3540.33	0.000363
3549.97	0.000433
3559.62	0.000323
3569.26	0.0007534
3578.91	0.00038
3588.56	0.0003
3598.2	0.00049015
3607.85	0.00053464
3617.5	0.0004151
3627.14	0.000448
3636.79	0.000327
3646.44	0.0004741
3656.08	0.0004879
3665.73	0.0004323
3675.38	0.000367
3685.02	0.000392
3694.67	0.0004726
3704.32	0.000368
3713.96	0.00057142
3723.61	0.000349
3733.26	0.000462
3742.9	0.000375
3752.55	0.000277
3762.2	0.0004426
3771.84	0.000391
3781.49	0.0004569
3791.13	0.0004178
3800.78	0.000337
3810.43	0.000428
3820.07	0.000311
3829.72	0.0004178
3839.37	0.000374
3849.01	0.000341
3858.66	0.000345
3868.31	0.0004117
3877.95	0.000302
3887.6	0.000339
3897.25	0.0003997
3906.89	0.0004272
3916.54	0.0006344
3926.19	0.000331
3935.83	0.00028
3945.48	0.000334
3955.13	0.000252
3964.77	0.000355
3974.42	0.0004684
3984.07	0.000367
3993.71	0.000236
