Infrared Spectrum: 2-Amino-3-fluorobenzotrifluoride
Formula: C 7 H 5 F 4 N
CAS: 144851-61-6
State: gas
Origin: EPA-IR VAPOR PHASE LIBRARY
1/CM	ABSORBANCE
549.8	0.006297
559.445	0.006687
569.09	0.005537
578.734	0.006047
588.379	0.006837
598.024	0.007067
607.669	0.009827
617.313	0.012737
626.958	0.011367
636.603	0.008757
646.248	0.008047
655.893	0.008027
665.537	0.007667
675.182	0.008557
684.827	0.009247
694.472	0.010097
704.116	0.012327
713.761	0.023597
723.406	0.046727
733.051	0.052817
742.695	0.028957
752.34	0.015427
761.985	0.015077
771.63	0.022397
781.275	0.034617
790.919	0.024167
800.564	0.013227
810.209	0.008857
819.854	0.007937
829.498	0.007627
839.143	0.005897
848.788	0.005367
858.433	0.008087
868.078	0.021027
877.722	0.039847
887.367	0.033007
897.012	0.016167
906.657	0.009257
916.301	0.006957
925.946	0.005597
935.591	0.005347
945.236	0.006017
954.88	0.006757
964.525	0.006117
974.17	0.005407
983.815	0.005187
993.46	0.005627
1003.1	0.005237
1012.75	0.004787
1022.39	0.005197
1032.04	0.007267
1041.68	0.011127
1051.33	0.024077
1060.97	0.050027
1070.62	0.076117
1080.26	0.069307
1089.91	0.044287
1099.55	0.034597
1109.2	0.046397
1118.84	0.099607
1128.49	0.223697
1138.13	0.261557
1147.78	0.099027
1157.42	0.051787
1167.07	0.081687
1176.71	0.071217
1186.36	0.031707
1196	0.013367
1205.64	0.011487
1215.29	0.015717
1224.93	0.010937
1234.58	0.008627
1244.22	0.010457
1253.87	0.018737
1263.51	0.047407
1273.16	0.078817
1282.8	0.064077
1292.45	0.053237
1302.09	0.131097
1311.74	0.188327
1321.38	0.121147
1331.03	0.103507
1340.67	0.098187
1350.32	0.041107
1359.96	0.010157
1369.61	0.005137
1379.25	0.003957
1388.9	0.003637
1398.54	0.003997
1408.18	0.004107
1417.83	0.003947
1427.47	0.004237
1437.12	0.005207
1446.76	0.007967
1456.41	0.013227
1466.05	0.026857
1475.7	0.064407
1485.34	0.138627
1494.99	0.153827
1504.63	0.093467
1514.28	0.035697
1523.92	0.012427
1533.57	0.006377
1543.21	0.005067
1552.86	0.004717
1562.5	0.004797
1572.15	0.005237
1581.79	0.006957
1591.44	0.007607
1601.08	0.008927
1610.73	0.014397
1620.37	0.027437
1630.01	0.052847
1639.66	0.064607
1649.3	0.041487
1658.95	0.015807
1668.59	0.007617
1678.24	0.006117
1687.88	0.004577
1697.53	0.002837
1707.17	0.002257
1716.82	0.002287
1726.46	0.002487
1736.11	0.002017
1745.75	0.001887
1755.4	0.001717
1765.04	0.001747
1774.69	0.001607
1784.33	0.001947
1793.98	0.002437
1803.62	0.002407
1813.27	0.001747
1822.91	0.001917
1832.55	0.002147
1842.2	0.003237
1851.84	0.003637
1861.49	0.002237
1871.13	0.001697
1880.78	0.0015086
1890.42	0.002217
1900.07	0.002787
1909.71	0.002367
1919.36	0.001607
1929	0.0013528
1938.65	0.0015135
1948.29	0.0012966
1957.94	0.0012606
1967.58	0.0009959
1977.23	0.0011512
1986.87	0.0012466
1996.52	0.0012432
2006.16	0.0014961
2015.81	0.0012607
2025.45	0.0011524
2035.1	0.001146
2044.74	0.0011094
2054.38	0.0013253
2064.03	0.0014774
2073.67	0.001857
2083.32	0.002207
2092.96	0.001847
2102.61	0.0015629
2112.25	0.001138
2121.9	0.0012373
2131.54	0.0011023
2141.19	0.0012849
2150.83	0.0014109
2160.48	0.0011075
2170.12	0.0012435
2179.77	0.001627
2189.41	0.001657
2199.06	0.001667
2208.7	0.001947
2218.35	0.001987
2227.99	0.001837
2237.64	0.001607
2247.28	0.0014548
2256.92	0.0015405
2266.57	0.0013538
2276.21	0.0011512
2285.86	0.001326
2295.5	0.0010487
2305.15	0.0012316
2314.79	0.001617
2324.44	0.001807
2334.08	0.001587
2343.73	0.0015273
2353.37	0.0012923
2363.02	0.0012296
2372.66	0.0008611
2382.31	0.001097
2391.95	0.001045
2401.6	0.0008219
2411.24	0.0008662
2420.89	0.0008744
2430.53	0.000754
2440.18	0.0011108
2449.82	0.0012443
2459.47	0.001607
2469.11	0.0015511
2478.75	0.0015744
2488.4	0.0013515
2498.04	0.0008093
2507.69	0.0008703
2517.33	0.00064386
2526.98	0.0007867
2536.62	0.0008352
2546.27	0.0010755
2555.91	0.0012037
2565.56	0.0011639
2575.2	0.0009166
2584.85	0.0015337
2594.49	0.001637
2604.14	0.0014557
2613.78	0.0014016
2623.43	0.0010984
2633.07	0.001014
2642.72	0.0011359
2652.36	0.0010012
2662.01	0.0011311
2671.65	0.0011466
2681.29	0.0011192
2690.94	0.0010941
2700.58	0.001
2710.23	0.0005373
2719.87	0.00061335
2729.52	0.0012329
2739.16	0.0009927
2748.81	0.0008765
2758.45	0.0012559
2768.1	0.0010556
2777.74	0.0010011
2787.39	0.0012226
2797.03	0.0009534
2806.68	0.0007253
2816.32	0.0009198
2825.97	0.0007737
2835.61	0.0006861
2845.26	0.0009778
2854.9	0.00061501
2864.55	0.00068206
2874.19	0.0008771
2883.84	0.0008153
2893.48	0.00061771
2903.12	0.0007182
2912.77	0.0012146
2922.41	0.0007974
2932.06	0.0010476
2941.7	0.0007206
2951.35	0.0010238
2960.99	0.0013167
2970.64	0.0008893
2980.28	0.0007814
2989.93	0.000297
2999.57	0.0005069
3009.22	0.0008109
3018.86	0.0005169
3028.51	0.000735
3038.15	0.001038
3047.8	0.001797
3057.44	0.001917
3067.09	0.002217
3076.73	0.002827
3086.38	0.004537
3096.02	0.005137
3105.67	0.003357
3115.31	0.001697
3124.95	0.0009084
3134.6	0.00058167
3144.24	0.0007583
3153.89	0.0011213
3163.53	0.000814
3173.18	0.0010653
3182.82	0.0012845
3192.47	0.0013434
3202.11	0.0014413
3211.76	0.0012956
3221.4	0.0013144
3231.05	0.0012615
3240.69	0.0013725
3250.34	0.0012603
3259.98	0.00067499
3269.63	0.001124
3279.27	0.0009167
3288.92	0.001255
3298.56	0.000356
3308.21	0.00068045
3317.85	0.00028
3327.49	0.0005659
3337.14	0.0007606
3346.78	0.0007402
3356.43	0.0008303
3366.07	0.000309
3375.72	0.000459
3385.36	0.000784
3395.01	0.0014136
3404.65	0.002977
3414.3	0.005147
3423.94	0.009357
3433.59	0.017227
3443.23	0.024857
3452.88	0.020727
3462.52	0.011837
3472.17	0.005437
3481.81	0.003157
3491.46	0.003467
3501.1	0.004237
3510.75	0.007207
3520.39	0.012197
3530.04	0.018047
3539.68	0.021727
3549.32	0.019797
3558.97	0.012297
3568.61	0.005937
3578.26	0.002817
3587.9	0.0014983
3597.55	0.0015579
3607.19	0.0015515
3616.84	0.0011965
3626.48	0.0009948
3636.13	0.0009166
3645.77	0.000322
3655.42	0.0011076
3665.06	0.000357
3674.71	0.00066803
3684.35	0.0009303
3694	0.0007851
3703.64	0.0010894
3713.29	0.000595574
3722.93	0.0010809
3732.58	0.0009469
3742.22	0.0009837
3751.86	0.000354
3761.51	0.0012559
3771.15	0.0007999
3780.8	0.0008335
3790.44	0.0010171
3800.09	0.0009698
3809.73	0.00068227
3819.38	0.0011152
3829.02	0.0008269
3838.67	0.0010126
3848.31	0.0009417
3857.96	0.0010533
3867.6	0.0007432
3877.25	0.0009693
3886.89	0.0007461
3896.54	0.0007904
3906.18	0.0013943
3915.83	0.0011094
3925.47	0.0010213
3935.12	0.0010791
3944.76	0.0015747
3954.41	0.00068194
3964.05	0.0008394
3973.69	0.0012177
3983.34	0.0005574
3992.98	0.0010134
