Infrared Spectrum: 1-(2-Cyanoacetyl)urea
Formula: C4 H5 N3 O2
CAS: 1448-98-2
State: SOLID (SPLIT MULL)
Class: COBLENTZ III
Instrument: DOW KBr FOREPRISM-GRATING
Instrument parameters: BLAZED AT 3.5, 12.0, 20.0 MICRON AND CHANGED AT 5.0, 7.5, 14.9 MICRON
Sampling: TRANSMISSION
Resolution: 2
Origin: DOW CHEMICAL COMPANY
1/CM	TRANSMITTANCE
3796	0.759
3787	0.7593
3778	0.7597
3769	0.7598
3760	0.7599
3751	0.7601
3742	0.7604
3733	0.761
3724	0.7618
3715	0.7622
3706	0.7626
3697	0.7591
3688	0.756
3679	0.7608
3670	0.7641
3661	0.7656
3652	0.7671
3643	0.7683
3634	0.7691
3625	0.7694
3616	0.7697
3607	0.77
3598	0.77
3589	0.7699
3580	0.7698
3571	0.7695
3562	0.7694
3553	0.7693
3544	0.7693
3535	0.7697
3526	0.7704
3517	0.7708
3508	0.7714
3499	0.7718
3490	0.7678
3481	0.7621
3472	0.7594
3463	0.7526
3454	0.7411
3445	0.7164
3436	0.6275
3427	0.4356
3418	0.1969
3409	0.2845
3400	0.4639
3391	0.5355
3382	0.572
3373	0.5926
3364	0.6105
3355	0.6008
3346	0.558
3337	0.4804
3328	0.3042
3319	0.1095
3310	0.1793
3301	0.3072
3292	0.3826
3283	0.3084
3274	0.1971
3265	0.3164
3256	0.4082
3247	0.455
3238	0.4912
3229	0.5121
3220	0.5239
3211	0.5307
3202	0.5393
3193	0.5541
3184	0.5714
3175	0.588
3166	0.6044
3157	0.6201
3148	0.6365
3139	0.6534
3130	0.6628
3121	0.6725
3112	0.6825
3103	0.694
3094	0.7021
3085	0.7062
3076	0.7078
3067	0.7098
3058	0.7132
3049	0.7175
3040	0.7225
3031	0.7271
3022	0.7303
3013	0.7335
3004	0.7375
2995	0.7396
2986	0.74
2977	0.7376
2968	0.6387
2959	0.6947
2950	0.7321
2941	0.7387
2932	0.636
2923	0.7183
2914	0.7349
2905	0.7422
2896	0.7487
2887	0.7525
2878	0.7549
2869	0.7571
2860	0.7587
2851	0.7605
2842	0.7625
2833	0.7647
2824	0.7655
2815	0.7654
2806	0.7646
2797	0.7656
2788	0.7681
2779	0.771
2770	0.7736
2761	0.7768
2752	0.7814
2743	0.7854
2734	0.7867
2725	0.7865
2716	0.786
2707	0.7856
2698	0.7854
2689	0.7847
2680	0.784
2671	0.7806
2662	0.7799
2653	0.7814
2644	0.7846
2635	0.7876
2626	0.7906
2617	0.7931
2608	0.7955
2599	0.7971
2590	0.7965
2581	0.7961
2572	0.7971
2563	0.7991
2554	0.8022
2545	0.8044
2536	0.8047
2527	0.8047
2518	0.8048
2509	0.8048
2500	0.8047
2491	0.8047
2482	0.8046
2473	0.8045
2464	0.8045
2455	0.8044
2446	0.8044
2437	0.8043
2428	0.8043
2419	0.8042
2410	0.8042
2401	0.8041
2392	0.8041
2383	0.804
2374	0.8039
2365	0.8039
2356	0.8038
2347	0.8038
2338	0.8037
2329	0.8033
2320	0.8041
2311	0.8043
2302	0.8026
2293	0.8003
2284	0.799
2275	0.636
2266	0.7614
2257	0.7834
2248	0.7934
2239	0.8019
2230	0.8101
2221	0.8145
2212	0.8188
2203	0.8227
2194	0.8268
2185	0.8285
2176	0.8281
2167	0.8277
2158	0.8285
2149	0.8306
2140	0.8332
2131	0.8354
2122	0.837
2113	0.8386
2104	0.8399
2095	0.8412
2086	0.8432
2077	0.8452
2068	0.8475
2059	0.85
2050	0.8527
2041	0.8555
2032	0.8582
2023	0.8609
2014	0.8638
2005	0.8654
1996	0.864
1987	0.859
1978	0.8644
1969	0.8658
1960	0.8665
1951	0.8637
1942	0.8665
1933	0.868
1924	0.8682
1915	0.8675
1906	0.868
1897	0.8602
1888	0.8593
1879	0.8611
1870	0.8582
1861	0.8575
1852	0.8578
1843	0.8585
1834	0.8514
1825	0.8528
1816	0.8507
1807	0.8457
1798	0.8384
1789	0.831
1780	0.8242
1771	0.8131
1762	0.7932
1753	0.7633
1744	0.7208
1735	0.6062
1726	0.4886
1717	0.2184
1708	0.1622
1699	0.0642
1690	0.0325
1681	0.1287
1672	0.266
1663	0.376
1654	0.4781
1645	0.5396
1636	0.5787
1627	0.6009
1618	0.5956
1609	0.4554
1600	0.2992
1591	0.2999
1582	0.3536
1573	0.5666
1564	0.631
1555	0.679
1546	0.696
1537	0.7057
1528	0.7151
1519	0.7147
1510	0.678
1501	0.5668
1492	0.4887
1483	0.4872
1474	0.5568
1465	0.6202
1456	0.6817
1447	0.7001
1438	0.6954
1429	0.6308
1420	0.5788
1411	0.5165
1402	0.4536
1393	0.4237
1384	0.2522
1375	0.4694
1366	0.5174
1357	0.5399
1348	0.5466
1339	0.5094
1330	0.328
1321	0.5294
1312	0.6166
1303	0.6538
1294	0.6724
1285	0.6848
1276	0.6953
1267	0.6938
1258	0.6807
1249	0.6858
1240	0.6967
1231	0.7257
1222	0.7412
1213	0.6398
1204	0.4954
1195	0.3508
1186	0.5838
1177	0.7312
1168	0.7524
1159	0.7684
1150	0.7815
1141	0.7946
1132	0.8067
1123	0.8083
1114	0.8062
1105	0.7083
1096	0.2226
1087	0.4046
1078	0.6771
1069	0.7534
1060	0.7858
1051	0.8036
1042	0.8135
1033	0.7991
1024	0.8126
1015	0.8209
1006	0.8218
997	0.6599
988	0.7611
979	0.8001
970	0.3391
961	0.6831
952	0.7762
943	0.7934
934	0.8021
925	0.6756
916	0.8075
907	0.8146
898	0.8101
889	0.8271
880	0.8378
871	0.8421
862	0.8435
853	0.8399
844	0.8385
835	0.8382
826	0.8251
817	0.7606
808	0.6876
799	0.7621
790	0.7971
781	0.813
772	0.8161
763	0.8149
754	0.7598
745	0.7668
736	0.7608
727	0.7404
718	0.7207
709	0.7065
700	0.6276
691	0.5487
682	0.5506
673	0.5792
664	0.5712
655	0.4584
646	0.3997
637	0.38
628	0.4136
619	0.4977
610	0.5871
601	0.6826
592	0.7265
583	0.6044
574	0.7385
565	0.7881
556	0.7868
547	0.7633
538	0.7985
529	0.8075
520	0.8108
511	0.8124
502	0.8051
493	0.8035
484	0.8015
475	0.7921
466	0.7712
457	0.7401
448	0.6392
439	0.6985
430	0.7042
421	0.6794
412	0.6684
403	0.6685
394	0.6671
385	0.6668
