Infrared Spectrum: BUTANEDIOIC ACID, DIOCTYL ESTER
Formula: C20 H38 O4
CAS: 14491-66-8
State: LIQUID (NEAT)
Class: COBLENTZ III
Instrument: PERKIN-ELMER 521 (GRATING)
Instrument parameters: FILTERS AT 3150, 2500, 2000, 1150, 700, 410 AND GRATING CHANGES AT 2000, 620 CM^-^1
Sampling: TRANSMISSION
Path length: SMEAR
Resolution: 4
Origin: STANDARD OIL OF OHIO
1/CM	TRANSMITTANCE
274.214	0.16
284.277	0.16
294.34	0.172
304.403	0.18
314.466	0.219
324.529	0.271
334.591	0.324
344.654	0.364
354.717	0.462
364.78	0.498
374.843	0.588
384.906	0.63
394.969	0.714
405.032	0.715
415.095	0.763
425.158	0.82
435.22	0.852
445.283	0.872
455.346	0.896
465.409	0.913
475.472	0.926
485.535	0.928
495.598	0.93
505.661	0.93
515.724	0.928
525.787	0.928
535.85	0.928
545.912	0.925
555.975	0.922
566.038	0.922
576.101	0.925
586.164	0.927
596.227	0.927
606.29	0.926
616.353	0.922
626.416	0.918
636.479	0.915
646.542	0.911
656.604	0.907
666.667	0.903
676.73	0.902
686.793	0.896
696.856	0.889
706.919	0.872
716.982	0.817
727.045	0.85
737.108	0.871
747.171	0.884
757.233	0.884
767.296	0.885
777.359	0.885
787.422	0.875
797.485	0.855
807.548	0.861
817.611	0.862
827.674	0.856
837.737	0.854
847.8	0.851
857.863	0.84
867.925	0.832
877.988	0.845
888.051	0.856
898.114	0.861
908.177	0.861
918.24	0.86
928.303	0.856
938.366	0.82
948.429	0.76
958.492	0.735
968.554	0.72
978.617	0.713
988.68	0.704
998.743	0.71
1008.81	0.701
1018.87	0.698
1028.93	0.705
1038.99	0.724
1049.06	0.724
1059.12	0.711
1069.18	0.714
1079.25	0.77
1089.31	0.846
1099.37	0.849
1109.44	0.822
1119.5	0.746
1129.56	0.678
1139.62	0.533
1149.69	0.28
1159.75	0.187
1169.81	0.28
1179.88	0.394
1189.94	0.438
1200	0.433
1210.06	0.438
1220.13	0.483
1230.19	0.492
1240.25	0.493
1250.32	0.491
1260.38	0.485
1270.44	0.532
1280.5	0.591
1290.57	0.632
1300.63	0.608
1310.69	0.582
1320.76	0.629
1330.82	0.672
1340.88	0.63
1350.94	0.548
1361.01	0.617
1371.07	0.662
1381.13	0.673
1391.2	0.635
1401.26	0.7
1411.32	0.662
1421.39	0.683
1431.45	0.7
1441.51	0.701
1451.57	0.594
1461.64	0.532
1471.7	0.705
1481.76	0.85
1491.83	0.882
1501.89	0.89
1511.95	0.895
1522.01	0.899
1532.08	0.9
1542.14	0.9
1552.2	0.9
1562.27	0.899
1572.33	0.899
1582.39	0.899
1592.45	0.896
1602.52	0.891
1612.58	0.889
1622.64	0.889
1632.71	0.887
1642.77	0.884
1652.83	0.879
1662.89	0.874
1672.96	0.86
1683.02	0.839
1693.08	0.754
1703.15	0.713
1713.21	0.594
1723.27	0.3559
1733.34	0.071
1743.4	0.1481
1753.46	0.5121
1763.52	0.726
1773.59	0.812
1783.65	0.849
1793.71	0.867
1803.78	0.885
1813.84	0.891
1823.9	0.897
1833.96	0.9
1844.03	0.901
1854.09	0.901
1864.15	0.901
1874.22	0.901
1884.28	0.901
1894.34	0.901
1904.4	0.901
1914.47	0.901
1924.53	0.901
1934.59	0.901
1944.66	0.901
1954.72	0.9
1964.78	0.9
1974.85	0.899
1984.91	0.897
1994.97	0.896
2005.03	0.8905
2015.1	0.889
2025.16	0.889
2035.22	0.889
2045.29	0.889
2055.35	0.889
2065.41	0.889
2075.47	0.889
2085.54	0.889
2095.6	0.889
2105.66	0.889
2115.73	0.889
2125.79	0.889
2135.85	0.889
2145.91	0.889
2155.98	0.889
2166.04	0.889
2176.1	0.889
2186.17	0.89
2196.23	0.889
2206.29	0.889
2216.35	0.89
2226.42	0.889
2236.48	0.889
2246.54	0.889
2256.61	0.889
2266.67	0.889
2276.73	0.889
2286.8	0.889
2296.86	0.889
2306.92	0.889
2316.98	0.889
2327.05	0.889
2337.11	0.889
2347.17	0.889
2357.24	0.889
2367.3	0.889
2377.36	0.889
2387.42	0.889
2397.49	0.889
2407.55	0.889
2417.61	0.889
2427.68	0.891
2437.74	0.89
2447.8	0.89
2457.86	0.89
2467.93	0.89
2477.99	0.89
2488.05	0.89
2498.12	0.8874
2508.18	0.887
2518.24	0.887
2528.3	0.887
2538.37	0.886
2548.43	0.8852
2558.49	0.885
2568.56	0.8811
2578.62	0.879
2588.68	0.879
2598.75	0.8787
2608.81	0.877
2618.87	0.876
2628.93	0.8751
2639	0.875
2649.06	0.872
2659.12	0.871
2669.19	0.871
2679.25	0.871
2689.31	0.87
2699.37	0.87
2709.44	0.866
2719.5	0.866
2729.56	0.866
2739.63	0.866
2749.69	0.865
2759.75	0.862
2769.81	0.857
2779.88	0.855
2789.94	0.847
2800	0.826
2810.07	0.801
2820.13	0.7689
2830.19	0.7257
2840.25	0.5957
2850.32	0.2982
2860.38	0.3073
2870.44	0.4016
2880.51	0.4949
2890.57	0.4336
2900.63	0.3402
2910.7	0.2507
2920.76	0.1329
2930.82	0.1361
2940.88	0.2316
2950.95	0.224
2961.01	0.2639
2971.07	0.4658
2981.14	0.6176
2991.2	0.7181
3001.26	0.7946
3011.32	0.8333
3021.39	0.8541
3031.45	0.8593
3041.51	0.8691
3051.58	0.8723
3061.64	0.8812
3071.7	0.886
3081.76	0.889
3091.83	0.889
3101.89	0.889
3111.95	0.889
3122.02	0.889
3132.08	0.889
3142.14	0.889
3152.2	0.889
3162.27	0.889
3172.33	0.89
3182.39	0.89
3192.46	0.89
3202.52	0.889
3212.58	0.889
3222.65	0.889
3232.71	0.889
3242.77	0.889
3252.83	0.89
3262.9	0.89
3272.96	0.89
3283.02	0.89
3293.09	0.89
3303.15	0.89
3313.21	0.89
3323.27	0.89
3333.34	0.89
3343.4	0.89
3353.46	0.89
3363.53	0.89
3373.59	0.89
3383.65	0.89
3393.71	0.89
3403.78	0.889
3413.84	0.889
3423.9	0.8856
3433.97	0.8796
3444.03	0.877
3454.09	0.877
3464.16	0.8808
3474.22	0.89
3484.28	0.89
3494.34	0.89
3504.41	0.89
3514.47	0.89
3524.53	0.89
3534.6	0.89
3544.66	0.89
3554.72	0.891
3564.78	0.8929
3574.85	0.899
3584.91	0.901
3594.97	0.902
3605.04	0.902
3615.1	0.902
3625.16	0.903
3635.22	0.903
3645.29	0.903
3655.35	0.903
3665.41	0.9041
3675.48	0.905
3685.54	0.905
3695.6	0.905
3705.66	0.905
3715.73	0.905
3725.79	0.905
3735.85	0.905
3745.92	0.905
3755.98	0.905
3766.04	0.905
3776.11	0.905
3786.17	0.905
3796.23	0.905
3806.29	0.905
3816.36	0.905
3826.42	0.905
3836.48	0.905
3846.55	0.905
3856.61	0.903
3866.67	0.903
3876.73	0.903
3886.8	0.903
3896.86	0.903
