Infrared Spectrum: N-(5-Methylfurfuryl)dimethylamine
Formula: C 8 H 13 N O
CAS: 14496-35-6
State: gas
Origin: EPA-IR VAPOR PHASE LIBRARY
1/CM	ABSORBANCE
549.8	0.000243
559.445	0.000411
569.09	0.000431
578.735	0.000353
588.38	0.000804
598.025	0.0012466
607.67	0.0012055
617.315	0.0012746
626.96	0.0010932
636.605	0.00066062
646.251	0.0008411
655.896	0.0010154
665.541	0.0009683
675.186	0.0007774
684.831	0.00072776
694.476	0.00067572
704.121	0.000788
713.766	0.001111
723.411	0.001787
733.056	0.003177
742.701	0.006377
752.346	0.009877
761.991	0.014887
771.636	0.028287
781.281	0.039497
790.926	0.024027
800.571	0.009807
810.216	0.006057
819.861	0.006237
829.507	0.007317
839.152	0.009357
848.797	0.008247
858.442	0.004507
868.087	0.002717
877.732	0.002337
887.377	0.002297
897.022	0.002887
906.667	0.004497
916.312	0.006237
925.957	0.006917
935.602	0.006467
945.247	0.006637
954.892	0.007397
964.537	0.007807
974.182	0.008657
983.827	0.009537
993.472	0.011717
1003.12	0.018777
1012.76	0.033987
1022.41	0.043987
1032.05	0.043107
1041.7	0.031957
1051.34	0.018157
1060.99	0.010207
1070.63	0.006207
1080.28	0.004887
1089.92	0.005047
1099.57	0.005277
1109.21	0.005207
1118.86	0.006237
1128.5	0.009997
1138.15	0.013757
1147.79	0.012877
1157.44	0.010207
1167.08	0.009597
1176.73	0.009197
1186.37	0.007897
1196.02	0.007907
1205.66	0.011017
1215.31	0.018757
1224.95	0.021757
1234.6	0.016327
1244.24	0.011987
1253.89	0.012677
1263.53	0.014707
1273.18	0.014057
1282.82	0.010907
1292.47	0.007807
1302.11	0.006377
1311.76	0.006537
1321.4	0.007587
1331.05	0.008737
1340.69	0.009667
1350.34	0.011257
1359.98	0.014187
1369.63	0.014837
1379.27	0.012037
1388.92	0.008887
1398.56	0.006147
1408.21	0.004997
1417.85	0.005837
1427.5	0.008327
1437.14	0.012357
1446.79	0.018237
1456.43	0.021367
1466.08	0.018227
1475.73	0.012637
1485.37	0.007687
1495.02	0.005057
1504.66	0.004187
1514.31	0.004027
1523.95	0.004857
1533.6	0.007117
1543.24	0.010967
1552.89	0.015207
1562.53	0.016437
1572.18	0.012967
1581.82	0.007457
1591.47	0.004467
1601.11	0.003867
1610.76	0.004467
1620.4	0.004217
1630.05	0.003467
1639.69	0.003687
1649.34	0.004267
1658.98	0.004177
1668.63	0.003457
1678.27	0.002397
1687.92	0.001647
1697.56	0.0013252
1707.21	0.0012223
1716.85	0.00107
1726.5	0.0009658
1736.14	0.0009436
1745.79	0.0008167
1755.43	0.00071186
1765.08	0.00073543
1774.72	0.0008401
1784.37	0.0007912
1794.01	0.0007582
1803.66	0.0007543
1813.3	0.0007909
1822.95	0.000838
1832.59	0.0009075
1842.24	0.0009122
1851.88	0.0009425
1861.53	0.0010172
1871.17	0.0010333
1880.82	0.0009273
1890.46	0.0008141
1900.11	0.0007957
1909.75	0.00070501
1919.4	0.00071761
1929.04	0.0007533
1938.69	0.00073273
1948.33	0.00074587
1957.98	0.000845
1967.62	0.0009858
1977.27	0.0010277
1986.91	0.0010303
1996.56	0.0009737
2006.2	0.0010249
2015.85	0.0010287
2025.49	0.000994
2035.14	0.0009645
2044.78	0.0010023
2054.43	0.0009168
2064.07	0.0008747
2073.72	0.0010033
2083.36	0.0010157
2093.01	0.0009782
2102.65	0.0009247
2112.3	0.0008987
2121.94	0.0008368
2131.59	0.0007827
2141.23	0.00074697
2150.88	0.000793
2160.52	0.0007898
2170.17	0.0008353
2179.81	0.0009169
2189.46	0.0010119
2199.1	0.0010823
2208.75	0.0011821
2218.39	0.0013494
2228.04	0.0012098
2237.68	0.0010292
2247.33	0.0009076
2256.97	0.0009315
2266.62	0.0008962
2276.26	0.0009108
2285.91	0.0008731
2295.55	0.0007725
2305.2	0.0008343
2314.84	0.000748
2324.49	0.0009185
2334.13	0.0008711
2343.78	0.0009516
2353.42	0.0009222
2363.07	0.0010608
2372.72	0.0010667
2382.36	0.001025
2392.01	0.001167
2401.65	0.0011964
2411.3	0.0012415
2420.94	0.0011738
2430.59	0.0013169
2440.23	0.0012289
2449.88	0.0011516
2459.52	0.0011304
2469.17	0.0011259
2478.81	0.0011566
2488.46	0.0013292
2498.1	0.0012916
2507.75	0.0014184
2517.39	0.0012974
2527.04	0.0013285
2536.68	0.0013828
2546.33	0.0012644
2555.97	0.0012991
2565.62	0.0012762
2575.26	0.0013327
2584.91	0.001344
2594.55	0.0013957
2604.2	0.0015292
2613.84	0.0014846
2623.49	0.001524
2633.13	0.001737
2642.78	0.001687
2652.42	0.001827
2662.07	0.002027
2671.71	0.002287
2681.36	0.002757
2691	0.003607
2700.65	0.004857
2710.29	0.006287
2719.94	0.007967
2729.58	0.009567
2739.23	0.011497
2748.87	0.015567
2758.52	0.026077
2768.16	0.044027
2777.81	0.053677
2787.45	0.048797
2797.1	0.039517
2806.74	0.033417
2816.39	0.034377
2826.03	0.035917
2835.68	0.030017
2845.32	0.023047
2854.97	0.022147
2864.61	0.024527
2874.26	0.025557
2883.9	0.024487
2893.55	0.024297
2903.19	0.025167
2912.84	0.028037
2922.48	0.036037
2932.13	0.048457
2941.77	0.056737
2951.42	0.053187
2961.06	0.044287
2970.71	0.039087
2980.35	0.035837
2990	0.025617
2999.64	0.013767
3009.29	0.007427
3018.93	0.005017
3028.58	0.003977
3038.22	0.003727
3047.87	0.003827
3057.51	0.003807
3067.16	0.003807
3076.8	0.003537
3086.45	0.003807
3096.09	0.005027
3105.74	0.007417
3115.38	0.006717
3125.03	0.003787
3134.67	0.002487
3144.32	0.002187
3153.96	0.001927
3163.61	0.001767
3173.25	0.001667
3182.9	0.0013071
3192.54	0.001523
3202.19	0.0013223
3211.83	0.0011622
3221.48	0.0011313
3231.12	0.0009838
3240.77	0.0010381
3250.41	0.0008801
3260.06	0.0008335
3269.7	0.0008561
3279.35	0.0009439
3289	0.000757
3298.64	0.0006343
3308.29	0.00067974
3317.93	0.00071225
3327.58	0.0008312
3337.22	0.0007585
3346.87	0.00071357
3356.51	0.00073067
3366.16	0.0005868
3375.8	0.00070243
3385.45	0.0007685
3395.09	0.0006174
3404.74	0.0005984
3414.38	0.0005847
3424.03	0.0006238
3433.67	0.00070696
3443.32	0.000788
3452.96	0.000654255
3462.61	0.0008451
3472.25	0.0006246
3481.9	0.0008135
3491.54	0.0005889
3501.19	0.00073205
3510.83	0.00071599
3520.48	0.00066559
3530.12	0.0006345
3539.77	0.00070803
3549.41	0.000655301
3559.06	0.0006134
3568.7	0.00074391
3578.35	0.000604
3587.99	0.00071915
3597.64	0.00070189
3607.28	0.00067182
3616.93	0.0008042
3626.57	0.00074495
3636.22	0.0007611
3645.86	0.00067008
3655.51	0.000526
3665.15	0.0008234
3674.8	0.0007901
3684.44	0.0008417
3694.09	0.0008441
3703.73	0.0005841
3713.38	0.0009735
3723.02	0.0008039
3732.67	0.0009494
3742.31	0.000903
3751.96	0.0008779
3761.6	0.0008689
3771.25	0.0008064
3780.89	0.0010197
3790.54	0.0008737
3800.18	0.0010304
3809.83	0.0011084
3819.47	0.0010929
3829.12	0.0009652
3838.76	0.0008914
3848.41	0.0009324
3858.05	0.0010799
3867.7	0.0011768
3877.34	0.000997
3886.99	0.0010498
3896.63	0.0010991
3906.28	0.0011514
3915.92	0.0011118
3925.57	0.0009159
3935.21	0.0011527
3944.86	0.0010421
3954.5	0.0010013
3964.15	0.0009329
3973.79	0.0010489
3983.44	0.0010247
3993.08	0.0010165
