Infrared Spectrum: Endothal
Formula: C 8 H 10 O 5
CAS: 145-73-3
State: gas
Instrument: HP-GC/MS/IRD
Origin: NIST Mass Spectrometry Data Center
1/CM	ABSORBANCE
550	0.0023542
562	0.0032548
574	0.0033259
586	0.0043529
598	0.002528
610	0.0008058
622	0.0003476
634	0.000237
646	0.000553
658	0.0009006
670	0.0004266
682	0.0001027
694	2.37e-05
706	5.53e-05
718	0.0001106
730	0.0001738
742	0.0002528
754	0.0007663
766	0.0018249
778	0.0013035
790	0.0006083
802	0.0012245
814	0.0038789
826	0.0070152
838	0.0039895
850	0.002054
862	0.0015247
874	0.0022752
886	0.0067387
898	0.0143069
910	0.0194814
922	0.012877
934	0.0077973
946	0.0196552
958	0.0299252
970	0.012956
982	0.0032943
994	0.0052219
1006	0.0123003
1018	0.0121897
1030	0.0037209
1042	0.0024016
1054	0.0031837
1066	0.0060119
1078	0.0113128
1090	0.0206506
1102	0.0169929
1114	0.0060514
1126	0.0040132
1138	0.0023068
1150	0.0016985
1162	0.0017222
1174	0.0036103
1186	0.005846
1198	0.0059961
1210	0.0122213
1222	0.0246401
1234	0.0278949
1246	0.0177039
1258	0.008611
1270	0.004029
1282	0.0028282
1294	0.002054
1306	0.0015958
1318	0.0015326
1330	0.0014615
1342	0.0010902
1354	0.0010349
1366	0.0006873
1378	0.0005688
1390	0.0006873
1402	0.000553
1414	0.0003397
1426	0.000395
1438	0.0006241
1450	0.0010112
1462	0.001343
1474	0.001501
1486	0.0007663
1498	0.0004424
1510	0.0004108
1522	0.0004424
1534	0.0004503
1546	0.0003555
1558	0.0002765
1570	0.0002765
1582	0.0002686
1594	0.0002291
1606	0.0003318
1618	0.0002923
1630	0.0002528
1642	0.0002133
1654	0.0002686
1666	0.0004266
1678	0.0006399
1690	0.0008137
1702	0.001027
1714	0.001264
1726	0.0015721
1738	0.0020461
1750	0.0030889
1762	0.0053641
1774	0.0115893
1786	0.034128
1798	0.073312
1810	0.0692435
1822	0.0329746
1834	0.0176407
1846	0.0117394
1858	0.0091482
1870	0.0108862
1882	0.0148678
1894	0.0086821
1906	0.0031916
1918	0.0017459
1930	0.000948
1942	0.0006004
1954	0.0004819
1966	0.0004424
1978	0.0005214
1990	0.0006004
2002	0.0006162
2014	0.0006004
2026	0.0004266
2038	0.0003081
2050	0.0002686
2062	0.0002844
2074	0.0002765
2086	0.0002923
2098	0.0002844
2110	0.000316
2122	0.0004661
2134	0.0005767
2146	0.0006241
2158	0.0005609
2170	0.0005293
2182	0.0005609
2194	0.0005372
2206	0.0003634
2218	0.0002765
2230	0.0002212
2242	0.0001896
2254	0.0002449
2266	0.000237
2278	0.000237
2290	0.0002291
2302	0.0002844
2314	0.0003239
2326	0.0002923
2338	0.0002212
2350	0.000158
2362	8.69e-05
2374	9.48e-05
2386	0.0001106
2398	0.0001343
2410	0.0001659
2422	0.0001975
2434	0.0001738
2446	7.11e-05
2458	7.11e-05
2470	0.0001027
2482	6.32e-05
2494	9.48e-05
2506	8.69e-05
2518	7.9e-05
2530	2.37e-05
2542	3.95e-05
2554	1.58e-05
2566	7.9e-06
2578	0
2590	1.58e-05
2602	0
2614	1.58e-05
2626	5.53e-05
2638	1.58e-05
2650	3.16e-05
2662	7.11e-05
2674	1.58e-05
2686	3.95e-05
2698	4.74e-05
2710	4.74e-05
2722	7.11e-05
2734	5.53e-05
2746	6.32e-05
2758	9.48e-05
2770	4.74e-05
2782	3.95e-05
2794	6.32e-05
2806	5.53e-05
2818	7.11e-05
2830	0.0001106
2842	0.0001027
2854	0.000158
2866	0.0003239
2878	0.0012245
2890	0.0018723
2902	0.001106
2914	0.0008216
2926	0.0011297
2938	0.0012324
2950	0.0023305
2962	0.005214
2974	0.006004
2986	0.0067229
2998	0.0068335
3010	0.004819
3022	0.0040053
3034	0.0010191
3046	0.0003002
3058	0.0002212
3070	0.0001817
3082	0.0001264
3094	9.48e-05
3106	4.74e-05
3118	3.16e-05
3130	3.95e-05
3142	3.16e-05
3154	7.11e-05
3166	0.0001027
3178	3.16e-05
3190	7.11e-05
3202	7.11e-05
3214	3.95e-05
3226	4.74e-05
3238	0.0001343
3250	9.48e-05
3262	8.69e-05
3274	1.58e-05
3286	7.9e-05
3298	2.37e-05
3310	4.74e-05
3322	3.16e-05
3334	0.0001343
3346	3.95e-05
3358	0.0001027
3370	6.32e-05
3382	0.0001027
3394	3.16e-05
3406	3.16e-05
3418	0
3430	6.32e-05
3442	6.32e-05
3454	0.0001027
3466	8.69e-05
3478	0.0001343
3490	0.0001264
3502	2.37e-05
3514	0.0001027
3526	0.0001422
3538	0.000158
3550	0.0001343
3562	0.0001659
3574	0.0002844
3586	0.000395
3598	0.0005135
3610	0.0005846
3622	0.0006952
3634	0.0008216
3646	0.0008532
3658	0.0008374
3670	0.0006557
3682	0.0005372
3694	0.0004108
3706	0.0003397
3718	0.0002449
3730	0.0002607
3742	0.0002133
3754	0.000237
3766	0.0001817
3778	0.0001343
3790	0.0002449
3802	0.0001659
3814	0.0002212
3826	0.000158
3838	0.0001659
