Infrared Spectrum: 2-Mercaptopyrimidine
Formula: C 4 H 4 N 2 S
CAS: 1450-85-7
State: gas
Origin: EPA-IR VAPOR PHASE LIBRARY
1/CM	ABSORBANCE
549.8	0.00030418
559.445	0.0002305
569.09	0.000367
578.734	0.0004281
588.379	0.00029528
598.024	0.0003509
607.669	0.0006997
617.313	0.001055
626.958	0.0008884
636.603	0.0011963
646.248	0.0004906
655.893	0.0004043
665.537	0.0001912
675.182	0.00027278
684.827	0.0001925
694.472	0.00023675
704.116	0.000131
713.761	0.0001683
723.406	0.0005718
733.051	0.001241
742.695	0.002181
752.34	0.002651
761.985	0.002481
771.63	0.002201
781.275	0.002361
790.919	0.002751
800.564	0.002011
810.209	0.0011756
819.854	0.0008082
829.498	0.0004288
839.143	0.0001622
848.788	0.0001978
858.433	0.0001855
868.078	0.0003345
877.722	0.0003882
887.367	0.0005185
897.012	0.0011413
906.657	0.001281
916.301	0.001391
925.946	0.0009151
935.591	0.0005903
945.236	0.000474
954.88	0.0003833
964.525	0.0003886
974.17	0.00033294
983.815	0.0004136
993.46	0.0003874
1003.1	0.0001676
1012.75	0.0002027
1022.39	0.00025963
1032.04	0.0002053
1041.68	0.0003726
1051.33	0.0004727
1060.97	0.0003622
1070.62	0.00031506
1080.26	0.0005647
1089.91	0.0005921
1099.55	0.00034088
1109.2	0.0004963
1118.84	0.00027747
1128.49	0.0006629
1138.13	0.0006284
1147.78	0.0010045
1157.42	0.001921
1167.07	0.003191
1176.71	0.003611
1186.36	0.003941
1196	0.005991
1205.64	0.009381
1215.29	0.010091
1224.93	0.004941
1234.58	0.001291
1244.22	0.0006854
1253.87	0.0007406
1263.51	0.0007573
1273.16	0.0006382
1282.8	0.0004928
1292.45	0.00044
1302.09	0.000359
1311.74	0.0004111
1321.38	0.0004462
1331.03	0.0004836
1340.67	0.0004788
1350.32	0.0007766
1359.96	0.002161
1369.61	0.008321
1379.25	0.023811
1388.9	0.026161
1398.54	0.021741
1408.18	0.003191
1417.83	0.0011531
1427.47	0.0008167
1437.12	0.0008227
1446.76	0.0007578
1456.41	0.0006655
1466.05	0.0004384
1475.7	0.0004097
1485.34	0.0004611
1494.99	0.0005038
1504.63	0.0007397
1514.28	0.001401
1523.92	0.002761
1533.57	0.005501
1543.21	0.008771
1552.86	0.014631
1562.5	0.020821
1572.15	0.014911
1581.79	0.006541
1591.44	0.001094
1601.08	0.0006165
1610.73	0.0004869
1620.37	0.0004775
1630.01	0.0003577
1639.66	0.00029429
1649.3	0.00029759
1658.95	0.00026802
1668.59	0.00029239
1678.24	0.00023664
1687.88	0.0002577
1697.53	0.00029062
1707.17	0.0003493
1716.82	0.0003905
1726.46	0.0004198
1736.11	0.0003567
1745.75	0.0003452
1755.4	0.0003578
1765.04	0.0003669
1774.69	0.0003595
1784.33	0.00026685
1793.98	0.00023352
1803.62	0.000243132
1813.27	0.00028036
1822.91	0.00027813
1832.55	0.00023155
1842.2	0.0002107
1851.84	0.000185
1861.49	0.0001
1871.13	0.0001513
1880.78	0.0001594
1890.42	0.0002035
1900.07	0.0002547
1909.71	0.00023878
1919.36	0.00027242
1929	0.00027247
1938.65	0.000415
1948.29	0.0004608
1957.94	0.0004257
1967.58	0.0003467
1977.23	0.000245323
1986.87	0.0001973
1996.52	0.0001751
2006.16	0.000193
2015.81	0.0002086
2025.45	0.0002077
2035.1	0.0002026
2044.74	0.0002022
2054.38	0.0002199
2064.03	0.0001821
2073.67	0.0002035
2083.32	0.0001893
2092.96	0.0001802
2102.61	0.000131
2112.25	0.0001583
2121.9	0.000242184
2131.54	0.0002214
2141.19	0.00025329
2150.83	0.0001971
2160.48	0.0002182
2170.12	0.0001625
2179.77	0.0001706
2189.41	0.0001527
2199.06	0.0001667
2208.7	0.0002055
2218.35	0.0002141
2227.99	0.0002237
2237.64	0.00023415
2247.28	0.0001528
2256.92	0.00026374
2266.57	0.0001751
2276.21	0.0001485
2285.86	0.0002068
2295.5	0.000127
2305.15	0.000119
2314.79	0.0002057
2324.44	0.0001675
2334.08	9.1e-05
2343.73	0.00023472
2353.37	0.00023764
2363.02	0.00031699
2372.66	0.00032026
2382.31	0.00029082
2391.95	0.00023884
2401.6	0.0001953
2411.24	0.0002015
2420.89	0.000242574
2430.53	0.0002119
2440.18	0.00023297
2449.82	0.0002268
2459.47	0.0001435
2469.11	0.0001536
2478.75	6.7e-05
2488.4	8.3e-05
2498.04	0.0001627
2507.69	0.0001812
2517.33	0.0001578
2526.98	0.0001726
2536.62	0.00032387
2546.27	0.00025777
2555.91	0.0001781
2565.56	0.0001936
2575.2	0.0001972
2584.85	0.0002899
2594.49	0.00027914
2604.14	0.000248567
2613.78	0.00029628
2623.43	0.0001975
2633.07	0.000228
2642.72	0.0001929
2652.36	0.0001513
2662.01	0.0001699
2671.65	0.000134
2681.29	0.000105
2690.94	0.0001601
2700.58	0.0001644
2710.23	0.000115
2719.87	0.0001696
2729.52	0.0002177
2739.16	0.0001623
2748.81	0.0001477
2758.45	0.0001426
2768.1	0.00019
2777.74	0.0001598
2787.39	0.0001845
2797.03	0.0002125
2806.68	0.000102
2816.32	0.000135
2825.97	0.0001786
2835.61	0.0002081
2845.26	0.000118
2854.9	0.00023782
2864.55	0.000109
2874.19	0.0001847
2883.84	0.0001517
2893.48	0.00023727
2903.12	0.0002014
2912.77	0.000243438
2922.41	0.00031426
2932.06	0.00027062
2941.7	0.0004715
2951.35	0.0005973
2960.99	0.0004726
2970.64	0.0004338
2980.28	0.00032945
2989.93	0.0004096
2999.57	0.0003315
3009.22	0.0002275
3018.86	0.0006155
3028.51	0.0012269
3038.15	0.002191
3047.8	0.002481
3057.44	0.002211
3067.09	0.001271
3076.73	0.0006659
3086.38	0.000496
3096.02	0.0005355
3105.67	0.0006186
3115.31	0.0008158
3124.95	0.0007447
3134.6	0.0005476
3144.24	0.00032171
3153.89	0.00031949
3163.53	0.000134
3173.18	9.2e-05
3182.82	3.1e-05
3192.47	0.0001689
3202.11	0.0001993
3211.76	0.000133
3221.4	6.1e-05
3231.05	0.00023191
3240.69	0.0001475
3250.34	0.0001701
3259.98	0.0001628
3269.63	0.00029269
3279.27	0.000186
3288.92	5.7e-05
3298.56	0.0001721
3308.21	0.000247374
3317.85	0.0002174
3327.49	0.00014
3337.14	0.0002196
3346.78	0.0001511
3356.43	0.0001742
3366.07	0.0002194
3375.72	0.00023591
3385.36	0.0002048
3395.01	0.00029548
3404.65	0.000127
3414.3	0.0001503
3423.94	0.0001854
3433.59	9.4e-05
3443.23	0.0001928
3452.88	0.000208
3462.52	0.0002055
3472.17	0.0001649
3481.81	0.000240346
3491.46	0.00033789
3501.1	0.0003752
3510.75	0.0002019
3520.39	0.000245314
3530.04	0.00033232
3539.68	0.0001502
3549.32	0.000243721
3558.97	0.0001696
3568.61	0.000201
3578.26	0.0001859
3587.9	0.0001905
3597.55	0.0001717
3607.19	5.9e-05
3616.84	0.000250504
3626.48	0.0001677
3636.13	0.000103
3645.77	0.00030928
3655.42	7.8e-05
3665.06	0.0001869
3674.71	0.0001691
3684.35	0.000137
3694	9.7e-05
3703.64	0.0002178
3713.29	0.0001771
3722.93	0.00030244
3732.58	0.0001847
3742.22	9.7e-05
3751.86	0.00028376
3761.51	0.000139
3771.15	0.00014
3780.8	0.0001564
3790.44	3.5e-05
3800.09	0.00027378
3809.73	9.3e-05
3819.38	0.00029001
3829.02	0.0002148
3838.67	0.00024467
3848.31	0.0002047
3857.96	0.0002249
3867.6	0.0003555
3877.25	0.0001594
3886.89	0.0002175
3896.54	0.0001936
3906.18	0.00025417
3915.83	0.000124
3925.47	9.6e-05
3935.12	0.000132
3944.76	8.6e-05
3954.41	0.00033779
3964.05	0.000137
3973.69	0.0002137
3983.34	0.00027494
3992.98	0.0002192
