Infrared Spectrum: 2,4-Decadien-1-ol
Formula: C 10 H 18 O
CAS: 14507-02-9
State: gas
Origin: EPA-IR VAPOR PHASE LIBRARY
1/CM	ABSORBANCE
549.8	0.0014728
559.445	0.0011016
569.09	0.0006126
578.734	0.0011108
588.379	0.0008303
598.024	0.0008954
607.669	0.00067298
617.313	0.000536
626.958	0.0012014
636.603	0.0010965
646.248	0.0008997
655.893	0.000361
665.537	0.0007687
675.182	0.0008373
684.827	0.0013877
694.472	0.0008349
704.116	0.0013328
713.761	0.001827
723.406	0.0015198
733.051	0.001647
742.695	0.001707
752.34	0.0014891
761.985	0.0012916
771.63	0.001887
781.275	0.002047
790.919	0.0013496
800.564	0.001375
810.209	0.001687
819.854	0.0016095
829.498	0.001687
839.143	0.0016023
848.788	0.0014272
858.433	0.002067
868.078	0.002397
877.722	0.002497
887.367	0.002317
897.012	0.003307
906.657	0.003847
916.301	0.004737
925.946	0.005237
935.591	0.006597
945.236	0.008447
954.88	0.011507
964.525	0.017307
974.17	0.025337
983.815	0.032177
993.46	0.029767
1003.1	0.026417
1012.75	0.020127
1022.39	0.013637
1032.04	0.009187
1041.68	0.007897
1051.33	0.007437
1060.97	0.007637
1070.62	0.010017
1080.26	0.013417
1089.91	0.011707
1099.55	0.009927
1109.2	0.006097
1118.84	0.005227
1128.49	0.002747
1138.13	0.001877
1147.78	0.003497
1157.42	0.003857
1167.07	0.003907
1176.71	0.003447
1186.36	0.003547
1196	0.003307
1205.64	0.002637
1215.29	0.003557
1224.93	0.002867
1234.58	0.003187
1244.22	0.003267
1253.87	0.004397
1263.51	0.003967
1273.16	0.004217
1282.8	0.004277
1292.45	0.005037
1302.09	0.005307
1311.74	0.005297
1321.38	0.005457
1331.03	0.006207
1340.67	0.007287
1350.32	0.007847
1359.96	0.009197
1369.61	0.011607
1379.25	0.014437
1388.9	0.012537
1398.54	0.008367
1408.18	0.006077
1417.83	0.004847
1427.47	0.004467
1437.12	0.005397
1446.76	0.006327
1456.41	0.006667
1466.05	0.006677
1475.7	0.004847
1485.34	0.003027
1494.99	0.002207
1504.63	0.001647
1514.28	0.001767
1523.92	0.001296
1533.57	0.0011139
1543.21	0.0011542
1552.86	0.0010746
1562.5	0.0009785
1572.15	0.0009291
1581.79	0.0009808
1591.44	0.0010238
1601.08	0.0009325
1610.73	0.0009463
1620.37	0.0012932
1630.01	0.0015266
1639.66	0.001907
1649.3	0.002927
1658.95	0.003507
1668.59	0.002127
1678.24	0.0012307
1687.88	0.0011807
1697.53	0.0013378
1707.17	0.0015861
1716.82	0.0012841
1726.46	0.0011642
1736.11	0.0008823
1745.75	0.0009361
1755.4	0.0008951
1765.04	0.0008019
1774.69	0.0008414
1784.33	0.0009509
1793.98	0.0009253
1803.62	0.0010821
1813.27	0.0011853
1822.91	0.0012751
1832.55	0.0012364
1842.2	0.0012513
1851.84	0.0011001
1861.49	0.0007795
1871.13	0.0007697
1880.78	0.0006068
1890.42	0.0009739
1900.07	0.00066486
1909.71	0.0005872
1919.36	0.0007448
1929	0.0007388
1938.65	0.0008019
1948.29	0.0007498
1957.94	0.0008603
1967.58	0.0008393
1977.23	0.0009142
1986.87	0.00070347
1996.52	0.0010653
2006.16	0.0008383
2015.81	0.00072163
2025.45	0.0008069
2035.1	0.000689
2044.74	0.00066717
2054.38	0.000644771
2064.03	0.00067728
2073.67	0.0007373
2083.32	0.00073003
2092.96	0.00067267
2102.61	0.0007805
2112.25	0.0008166
2121.9	0.0005914
2131.54	0.0005895
2141.19	0.000507
2150.83	0.00063533
2160.48	0.0006115
2170.12	0.00070728
2179.77	0.0008009
2189.41	0.00068672
2199.06	0.00067732
2208.7	0.0006122
2218.35	0.0007046
2227.99	0.00066667
2237.64	0.000492
2247.28	0.000778
2256.92	0.0009354
2266.57	0.0008099
2276.21	0.00070322
2285.86	0.0006257
2295.5	0.0005793
2305.15	0.000642985
2314.79	0.0007671
2324.44	0.00071206
2334.08	0.00068358
2343.73	0.00067403
2353.37	0.00071762
2363.02	0.00072489
2372.66	0.0007519
2382.31	0.0007498
2391.95	0.0008895
2401.6	0.0008942
2411.24	0.00070413
2420.89	0.0009048
2430.53	0.0009063
2440.18	0.000643164
2449.82	0.0006259
2459.47	0.00063147
2469.11	0.00074
2478.75	0.0008624
2488.4	0.00063441
2498.04	0.0006054
2507.69	0.00069768
2517.33	0.0007957
2526.98	0.0007469
2536.62	0.0010955
2546.27	0.0009103
2555.91	0.0010112
2565.56	0.0009318
2575.2	0.0010475
2584.85	0.0010977
2594.49	0.0010054
2604.14	0.0007431
2613.78	0.0009902
2623.43	0.0012618
2633.07	0.0011386
2642.72	0.001116
2652.36	0.0012943
2662.01	0.0016336
2671.65	0.0015357
2681.29	0.001486
2690.94	0.0013917
2700.58	0.0014197
2710.23	0.001727
2719.87	0.001817
2729.52	0.001677
2739.16	0.001887
2748.81	0.002147
2758.45	0.002137
2768.1	0.002247
2777.74	0.002427
2787.39	0.002667
2797.03	0.003307
2806.68	0.003657
2816.32	0.004387
2825.97	0.006577
2835.61	0.008947
2845.26	0.013607
2854.9	0.021527
2864.55	0.029857
2874.19	0.030937
2883.84	0.028017
2893.48	0.024437
2903.12	0.026277
2912.77	0.033527
2922.41	0.049427
2932.06	0.063567
2941.7	0.056057
2951.35	0.039387
2960.99	0.036587
2970.64	0.035597
2980.28	0.022157
2989.93	0.015007
2999.57	0.013417
3009.22	0.014697
3018.86	0.015937
3028.51	0.013597
3038.15	0.008467
3047.8	0.005367
3057.44	0.003947
3067.09	0.002687
3076.73	0.002497
3086.38	0.001957
3096.02	0.0014718
3105.67	0.0011848
3115.31	0.0013118
3124.95	0.0015369
3134.6	0.0015213
3144.24	0.0014012
3153.89	0.0011722
3163.53	0.0011575
3173.18	0.0009915
3182.82	0.0011272
3192.47	0.000456
3202.11	0.0005934
3211.76	0.0008372
3221.4	0.0009332
3231.05	0.0006331
3240.69	0.0010542
3250.34	0.0008536
3259.98	0.0009124
3269.63	0.00072102
3279.27	0.000514
3288.92	0.00067
3298.56	0.0008388
3308.21	0.0006178
3317.85	0.000511
3327.49	0.000526
3337.14	0.0007779
3346.78	0.0010915
3356.43	0.0005729
3366.07	0.00071485
3375.72	0.0011077
3385.36	0.0012041
3395.01	0.0008561
3404.65	0.00070087
3414.3	0.0008025
3423.94	0.00069042
3433.59	0.00066038
3443.23	0.00045
3452.88	0.00070865
3462.52	0.000489
3472.17	0.000472
3481.81	0.0005508
3491.46	0.0004
3501.1	0.000279
3510.75	0.0009689
3520.39	0.000377
3530.04	0.000502
3539.68	0.00071611
3549.32	0.0006216
3558.97	0.000511
3568.61	0.0007865
3578.26	0.0011545
3587.9	0.00073646
3597.55	0.0008804
3607.19	0.001078
3616.84	0.001315
3626.48	0.002187
3636.13	0.003057
3645.77	0.002767
3655.42	0.003967
3665.06	0.004387
3674.71	0.003207
3684.35	0.002557
3694	0.0011965
3703.64	0.0013612
3713.29	0.0009221
3722.93	0.00070303
3732.58	0.0011125
3742.22	0.00062932
3751.86	0.0010908
3761.51	0.000501
3771.15	0.0008306
3780.8	0.0006237
3790.44	0.0011462
3800.09	0.0008129
3809.73	0.0012519
3819.38	0.00039
3829.02	0.00052
3838.67	0.0009439
3848.31	0.0012315
3857.96	0.0008655
3867.6	0.00068567
3877.25	0.0005774
3886.89	0.000277
3896.54	0.0005371
3906.18	0.000704
3915.83	0.00064934
3925.47	0.0011433
3935.12	0.000773
3944.76	0.00062831
3954.41	0.0011515
3964.05	0.0008347
3973.69	0.000368
3983.34	0.0008054
3992.98	0
