Infrared Spectrum: Disilane, hexamethyl-
Formula: C6 H18 Si2
CAS: 1450-14-2
State: SOLUTION (10% CCl4 FOR 3800-1300, 2% CS2 FOR 1300-650, AND 10% CCl4 FOR 650-250)
Boiling point: 113 C
Class: COBLENTZ II
Instrument: PERKIN-ELMER 521 (GRATING)
Instrument parameters: FILTERS AT 3150, 2500, 2000, 1150, 700, 410. GRATING CHANGES: 2000, 630
Path length: 0.010 CM, 0.011 CM, AND 0.010 CM
Resolution: 2
Origin: DOW CORNING CORP.
1/CM	TRANSMITTANCE
225	0.8544
234	0.8831
243	0.9522
252	0.9647
261	0.9599
270	0.9472
279	0.936
288	0.9365
297	0.943
306	0.9426
315	0.9405
324	0.9409
333	0.9404
342	0.9392
351	0.9368
360	0.9342
369	0.9313
378	0.9305
387	0.9152
396	0.9201
405	0.9289
414	0.9322
423	0.9336
432	0.9376
441	0.9366
450	0.9297
459	0.9229
468	0.9196
477	0.921
486	0.9195
495	0.915
504	0.9129
513	0.9131
522	0.9151
531	0.9139
540	0.9115
549	0.9109
558	0.9094
567	0.906
576	0.8972
585	0.8467
594	0.5955
603	0.2351
612	0.8047
621	0.8681
630	0.863
639	0.8573
648	0.8533
657	0.8491
666	0.844
675	0.8315
684	0.6533
693	0.6044
702	0.742
711	0.599
720	0.4176
729	0.6433
738	0.769
747	0.8173
756	0.8221
765	0.8219
774	0.8079
783	0.7585
792	0.706
801	0.6134
810	0.2378
819	0.1513
828	0.0949
837	0.1705
846	0.544
855	0.6857
864	0.7572
873	0.8208
882	0.8552
891	0.8758
900	0.8846
909	0.8906
918	0.8974
927	0.8981
936	0.8996
945	0.9039
954	0.9052
963	0.9058
972	0.9061
981	0.9055
990	0.9049
999	0.9039
1008	0.9028
1017	0.9
1026	0.8964
1035	0.89
1044	0.8845
1053	0.8843
1062	0.8871
1071	0.8906
1080	0.895
1089	0.9011
1098	0.903
1107	0.9029
1116	0.9011
1125	0.9017
1134	0.9074
1143	0.9117
1152	0.9135
1161	0.9084
1170	0.9045
1179	0.9013
1188	0.8935
1197	0.8915
1206	0.8727
1215	0.8444
1224	0.799
1233	0.5634
1242	0.3336
1251	0.6763
1260	0.8286
1269	0.8548
1278	0.8563
1287	0.8447
1296	0.874
1305	0.8389
1314	0.8306
1323	0.8108
1332	0.836
1341	0.8352
1350	0.8182
1359	0.7935
1368	0.7779
1377	0.7172
1386	0.592
1395	0.5171
1404	0.5219
1413	0.4969
1422	0.6063
1431	0.6355
1440	0.6083
1449	0.741
1458	0.8104
1467	0.8185
1476	0.8344
1485	0.8598
1494	0.8563
1503	0.86
1512	0.869
1521	0.8818
1530	0.904
1539	0.9035
1548	0.9018
1557	0.8983
1566	0.8957
1575	0.8985
1584	0.9067
1593	0.9058
1602	0.8968
1611	0.8952
1620	0.8942
1629	0.8948
1638	0.8963
1647	0.8981
1656	0.9001
1665	0.903
1674	0.9056
1683	0.9077
1692	0.9093
1701	0.9106
1710	0.9114
1719	0.9117
1728	0.9119
1737	0.9118
1746	0.9115
1755	0.9111
1764	0.911
1773	0.9107
1782	0.9102
1791	0.9092
1800	0.908
1809	0.9067
1818	0.9051
1827	0.9033
1836	0.8846
1845	0.8602
1854	0.8933
1863	0.8945
1872	0.878
1881	0.8675
1890	0.8921
1899	0.8933
1908	0.8884
1917	0.8617
1926	0.8261
1935	0.8653
1944	0.8845
1953	0.8916
1962	0.8877
1971	0.8844
1980	0.8859
1989	0.8916
1998	0.8977
2007	0.9036
2016	0.9063
2025	0.9066
2034	0.9064
2043	0.9046
2052	0.9012
2061	0.8958
2070	0.8865
2079	0.8763
2088	0.8772
2097	0.8882
2106	0.8955
2115	0.8963
2124	0.8979
2133	0.899
2142	0.8993
2151	0.9002
2160	0.9011
2169	0.9019
2178	0.9021
2187	0.9012
2196	0.9008
2205	0.9006
2214	0.9004
2223	0.9002
2232	0.9005
2241	0.9017
2250	0.9023
2259	0.9028
2268	0.9033
2277	0.9038
2286	0.9044
2295	0.9064
2304	0.9081
2313	0.9072
2322	0.9044
2331	0.9036
2340	0.903
2349	0.9023
2358	0.902
2367	0.902
2376	0.9021
2385	0.9015
2394	0.9009
2403	0.9003
2412	0.8995
2421	0.8987
2430	0.8975
2439	0.8955
2448	0.8936
2457	0.8843
2466	0.8675
2475	0.8756
2484	0.8856
2493	0.8926
2502	0.8968
2511	0.8998
2520	0.9012
2529	0.9023
2538	0.9028
2547	0.9029
2556	0.9025
2565	0.9015
2574	0.9
2583	0.898
2592	0.896
2601	0.894
2610	0.892
2619	0.8886
2628	0.8853
2637	0.8831
2646	0.8815
2655	0.8823
2664	0.8836
2673	0.8833
2682	0.8791
2691	0.8766
2700	0.8768
2709	0.877
2718	0.8774
2727	0.8763
2736	0.8749
2745	0.871
2754	0.8614
2763	0.837
2772	0.805
2781	0.7694
2790	0.7421
2799	0.7194
2808	0.702
2817	0.6878
2826	0.6822
2835	0.6819
2844	0.677
2853	0.6647
2862	0.6437
2871	0.5976
2880	0.5069
2889	0.2709
2898	0.1854
2907	0.3577
2916	0.501
2925	0.4298
2934	0.2671
2943	0.1045
2952	0.0014
2961	0.1305
2970	0.3589
2979	0.5832
2988	0.6993
2997	0.7382
3006	0.7702
3015	0.7813
3024	0.7838
3033	0.7862
3042	0.7885
3051	0.7914
3060	0.7976
3069	0.8062
3078	0.809
3087	0.8074
3096	0.8044
3105	0.8045
3114	0.8072
3123	0.8154
3132	0.8259
3141	0.8379
3150	0.8487
3159	0.8548
3168	0.8576
3177	0.8579
3186	0.8576
3195	0.8568
3204	0.863
3213	0.8704
3222	0.8751
3231	0.8788
3240	0.883
3249	0.8875
3258	0.8908
3267	0.8926
3276	0.8942
3285	0.8948
3294	0.8955
3303	0.8963
3312	0.8972
3321	0.8979
3330	0.8974
3339	0.8965
3348	0.8942
3357	0.8954
3366	0.8986
3375	0.9017
3384	0.9031
3393	0.904
3402	0.9044
3411	0.9044
3420	0.9043
3429	0.9037
3438	0.9031
3447	0.9025
3456	0.9019
3465	0.9013
3474	0.9007
3483	0.9001
3492	0.8996
3501	0.899
3510	0.8986
3519	0.8981
3528	0.8976
3537	0.896
3546	0.8938
3555	0.8915
3564	0.8885
3573	0.8847
3582	0.8896
3591	0.8936
3600	0.8842
3609	0.8784
3618	0.8735
3627	0.8698
3636	0.8686
3645	0.8705
3654	0.8762
3663	0.8774
3672	0.8763
3681	0.8738
3690	0.8705
3699	0.8672
3708	0.8642
3717	0.8613
3726	0.8611
3735	0.8729
3744	0.8828
3753	0.8924
3762	0.8899
3771	0.878
3780	0.8661
3789	0.8735
3798	0.8871
3807	0.8967
