Infrared Spectrum: Disilane, hexaphenyl-,
Formula: C36 H30 Si2
CAS: 1450-23-3
State: SOLID (MULL)
Melting point: 369 C
Class: COBLENTZ III
Instrument: PERKIN-ELMER 521 (GRATING)
Instrument parameters: FILTERS AT 3150, 2500, 2000, 1150, 700, 410. GRATING CHANGES: 2000, 630
Resolution: 2
Origin: DOW CORNING CORP.
1/CM	TRANSMITTANCE
226	0.6224
235	0.6466
244	0.6869
253	0.7296
262	0.7844
271	0.8318
280	0.8623
289	0.9002
298	0.9206
307	0.9352
316	0.9445
325	0.949
334	0.946
343	0.9053
352	0.8121
361	0.9445
370	0.9664
379	0.9679
388	0.9624
397	0.9647
406	0.9608
415	0.9396
424	0.8722
433	0.9388
442	0.9482
451	0.9397
460	0.9125
469	0.8252
478	0.4098
487	0.8465
496	0.9131
505	0.9291
514	0.9337
523	0.9354
532	0.9368
541	0.938
550	0.94
559	0.9425
568	0.9456
577	0.9485
586	0.9507
595	0.9518
604	0.9464
613	0.9511
622	0.9255
631	0.9194
640	0.9191
649	0.9212
658	0.9053
667	0.8693
676	0.8888
685	0.8596
694	0.4284
703	0.6892
712	0.8615
721	0.8522
730	0.535
739	0.7205
748	0.8899
757	0.9031
766	0.9029
775	0.912
784	0.9139
793	0.9141
802	0.914
811	0.9134
820	0.9128
829	0.9124
838	0.9122
847	0.912
856	0.9124
865	0.9131
874	0.9101
883	0.9045
892	0.8999
901	0.8957
910	0.8916
919	0.8937
928	0.8984
937	0.8943
946	0.8886
955	0.8834
964	0.8713
973	0.8554
982	0.8496
991	0.7457
1000	0.8543
1009	0.8327
1018	0.7854
1027	0.8022
1036	0.8393
1045	0.8435
1054	0.8384
1063	0.8475
1072	0.8539
1081	0.8487
1090	0.7196
1099	0.5219
1108	0.8226
1117	0.8581
1126	0.8666
1135	0.871
1144	0.8668
1153	0.8683
1162	0.8683
1171	0.8675
1180	0.8576
1189	0.8731
1198	0.8887
1207	0.8904
1216	0.8885
1225	0.8849
1234	0.8795
1243	0.8693
1252	0.8465
1261	0.8563
1270	0.8569
1279	0.8544
1288	0.8555
1297	0.8606
1306	0.8703
1315	0.8721
1324	0.8615
1333	0.862
1342	0.8531
1351	0.8374
1360	0.803
1369	0.6844
1378	0.8079
1387	0.8694
1396	0.8804
1405	0.8736
1414	0.8286
1423	0.5294
1432	0.7378
1441	0.641
1450	0.5342
1459	0.522
1468	0.6854
1477	0.8019
1486	0.8816
1495	0.8982
1504	0.9023
1513	0.905
1522	0.9079
1531	0.9093
1540	0.9081
1549	0.9051
1558	0.8901
1567	0.9105
1576	0.8901
1585	0.9059
1594	0.9093
1603	0.91
1612	0.9096
1621	0.9088
1630	0.9069
1639	0.9031
1648	0.9018
1657	0.9029
1666	0.9065
1675	0.9104
1684	0.9119
1693	0.9125
1702	0.913
1711	0.9131
1720	0.9136
1729	0.9144
1738	0.9155
1747	0.9171
1756	0.9154
1765	0.9094
1774	0.9132
1783	0.9163
1792	0.918
1801	0.9184
1810	0.9113
1819	0.9037
1828	0.904
1837	0.9143
1846	0.9192
1855	0.9199
1864	0.9175
1873	0.912
1882	0.9024
1891	0.9034
1900	0.9069
1909	0.9112
1918	0.9155
1927	0.9191
1936	0.9167
1945	0.9067
1954	0.901
1963	0.9033
1972	0.9084
1981	0.9166
1990	0.9206
1999	0.9204
2008	0.9103
2017	0.9093
2026	0.9088
2035	0.9086
2044	0.9083
2053	0.9083
2062	0.9084
2071	0.9084
2080	0.9085
2089	0.9078
2098	0.907
2107	0.9062
2116	0.9054
2125	0.9047
2134	0.9041
2143	0.9034
2152	0.9028
2161	0.9022
2170	0.902
2179	0.902
2188	0.9024
2197	0.9023
2206	0.9016
2215	0.9009
2224	0.9003
2233	0.9004
2242	0.9006
2251	0.9004
2260	0.9002
2269	0.8999
2278	0.8997
2287	0.8992
2296	0.8989
2305	0.8984
2314	0.8978
2323	0.8971
2332	0.8965
2341	0.8956
2350	0.8947
2359	0.8938
2368	0.8931
2377	0.8925
2386	0.892
2395	0.8914
2404	0.8908
2413	0.8901
2422	0.889
2431	0.8878
2440	0.8862
2449	0.8845
2458	0.883
2467	0.8857
2476	0.8859
2485	0.8806
2494	0.8796
2503	0.8786
2512	0.8775
2521	0.8764
2530	0.8748
2539	0.8731
2548	0.8713
2557	0.8703
2566	0.8741
2575	0.8669
2584	0.858
2593	0.857
2602	0.8562
2611	0.8564
2620	0.8566
2629	0.856
2638	0.8535
2647	0.8499
2656	0.8465
2665	0.8456
2674	0.8469
2683	0.8493
2692	0.8523
2701	0.8497
2710	0.8461
2719	0.846
2728	0.8476
2737	0.8496
2746	0.851
2755	0.8511
2764	0.849
2773	0.8415
2782	0.8319
2791	0.8183
2800	0.8004
2809	0.7806
2818	0.7556
2827	0.7161
2836	0.5881
2845	0.3797
2854	0.1473
2863	0.1853
2872	0.2239
2881	0.2973
2890	0.2718
2899	0.2026
2908	0.1334
2917	0.047
2926	0.015
2935	0.0387
2944	0.1099
2953	0.1008
2962	0.1268
2971	0.3416
2980	0.6055
2989	0.6891
2998	0.7145
3007	0.7652
3016	0.7792
3025	0.789
3034	0.8055
3043	0.7708
3052	0.7569
3061	0.73
3070	0.6982
3079	0.8282
3088	0.8522
3097	0.8573
3106	0.8592
3115	0.8602
3124	0.8613
3133	0.8622
3142	0.8633
3151	0.8643
3160	0.8654
3169	0.8663
3178	0.867
3187	0.8677
3196	0.8683
3205	0.8686
3214	0.8689
3223	0.8692
3232	0.8692
3241	0.8691
3250	0.8688
3259	0.8682
3268	0.8677
3277	0.8672
3286	0.8668
3295	0.8663
3304	0.866
3313	0.8655
3322	0.865
3331	0.8643
3340	0.8636
3349	0.8629
3358	0.8622
3367	0.8617
3376	0.8614
3385	0.8611
3394	0.8608
3403	0.8605
3412	0.8604
3421	0.8605
3430	0.8607
3439	0.8608
3448	0.8609
3457	0.861
3466	0.8612
3475	0.8614
3484	0.8616
3493	0.8618
3502	0.862
3511	0.8622
3520	0.8625
3529	0.8627
3538	0.8629
3547	0.8632
3556	0.8634
3565	0.8635
3574	0.8634
3583	0.8633
3592	0.8632
3601	0.8631
3610	0.863
3619	0.863
3628	0.8629
3637	0.8629
3646	0.8629
3655	0.8628
3664	0.8628
3673	0.8627
3682	0.8627
3691	0.8628
3700	0.8628
3709	0.8629
3718	0.8627
3727	0.8623
3736	0.862
3745	0.8613
3754	0.8598
3763	0.8483
3772	0.8625
3781	0.8633
3790	0.8633
3799	0.8629
3808	0.8625
3817	0.8621
