Infrared Spectrum: Methyl 2,5-dichlorothiophene-3-carboxylate
Formula: C 6 H 4 Cl 2 O 2 S
CAS: 145129-54-0
State: gas
Origin: EPA-IR VAPOR PHASE LIBRARY
1/CM	ABSORBANCE
549.8	0.002477
559.445	0.005327
569.09	0.005867
578.734	0.009077
588.379	0.012397
598.024	0.009227
607.669	0.007877
617.313	0.013257
626.958	0.018257
636.603	0.013257
646.248	0.006197
655.893	0.003947
665.537	0.003537
675.182	0.007147
684.827	0.011377
694.472	0.005897
704.116	0.002747
713.761	0.002257
723.406	0.003157
733.051	0.007037
742.695	0.012807
752.34	0.038347
761.985	0.064037
771.63	0.065397
781.275	0.028787
790.919	0.011987
800.564	0.007367
810.209	0.005067
819.854	0.007337
829.498	0.018057
839.143	0.027327
848.788	0.021597
858.433	0.014147
868.078	0.015817
877.722	0.014597
887.367	0.022527
897.012	0.017737
906.657	0.006437
916.301	0.004007
925.946	0.004037
935.591	0.005847
945.236	0.008357
954.88	0.012657
964.525	0.024247
974.17	0.059997
983.815	0.091337
993.46	0.101587
1003.1	0.114097
1012.75	0.053247
1022.39	0.024477
1032.04	0.042927
1041.68	0.101017
1051.33	0.129547
1060.97	0.077157
1070.62	0.028257
1080.26	0.013847
1089.91	0.012327
1099.55	0.014227
1109.2	0.020007
1118.84	0.028317
1128.49	0.045387
1138.13	0.095457
1147.78	0.142087
1157.42	0.088567
1167.07	0.042437
1176.71	0.037287
1186.36	0.052537
1196	0.091127
1205.64	0.161077
1215.29	0.328527
1224.93	0.598247
1234.58	0.642087
1244.22	0.313547
1253.87	0.105887
1263.51	0.057707
1273.16	0.032237
1282.8	0.019807
1292.45	0.014197
1302.09	0.012297
1311.74	0.014157
1321.38	0.019877
1331.03	0.032307
1340.67	0.055737
1350.32	0.077497
1359.96	0.129037
1369.61	0.142557
1379.25	0.053037
1388.9	0.023547
1398.54	0.019097
1408.18	0.021027
1417.83	0.035027
1427.47	0.066947
1437.12	0.167587
1446.76	0.310597
1456.41	0.126377
1466.05	0.032297
1475.7	0.021517
1485.34	0.016287
1494.99	0.013087
1504.63	0.012507
1514.28	0.016737
1523.92	0.036037
1533.57	0.063467
1543.21	0.050567
1552.86	0.024437
1562.5	0.017707
1572.15	0.013127
1581.79	0.009287
1591.44	0.007627
1601.08	0.007657
1610.73	0.008437
1620.37	0.007737
1630.01	0.006757
1639.66	0.007027
1649.3	0.007897
1658.95	0.008537
1668.59	0.011467
1678.24	0.015927
1687.88	0.019717
1697.53	0.028017
1707.17	0.049167
1716.82	0.079767
1726.46	0.145737
1736.11	0.288457
1745.75	0.380047
1755.4	0.294307
1765.04	0.105057
1774.69	0.063687
1784.33	0.048187
1793.98	0.026147
1803.62	0.011327
1813.27	0.006577
1822.91	0.005067
1832.55	0.004567
1842.2	0.004647
1851.84	0.004977
1861.49	0.005147
1871.13	0.004287
1880.78	0.003117
1890.42	0.002357
1900.07	0.002227
1909.71	0.002397
1919.36	0.002447
1929	0.002527
1938.65	0.002667
1948.29	0.003007
1957.94	0.003537
1967.58	0.003567
1977.23	0.003627
1986.87	0.004297
1996.52	0.004417
2006.16	0.003667
2015.81	0.003377
2025.45	0.003467
2035.1	0.003157
2044.74	0.002957
2054.38	0.002977
2064.03	0.002947
2073.67	0.003097
2083.32	0.003667
2092.96	0.004077
2102.61	0.003847
2112.25	0.003587
2121.9	0.003547
2131.54	0.002907
2141.19	0.002017
2150.83	0.001597
2160.48	0.0012171
2170.12	0.0010407
2179.77	0.0010375
2189.41	0.0011227
2199.06	0.0012453
2208.7	0.0013204
2218.35	0.0010442
2227.99	0.0008082
2237.64	0.0009939
2247.28	0.0010394
2256.92	0.0012065
2266.57	0.0011459
2276.21	0.0010193
2285.86	0.0009145
2295.5	0.0010329
2305.15	0.0010069
2314.79	0.0010175
2324.44	0.0012205
2334.08	0.001272
2343.73	0.0012046
2353.37	0.0012247
2363.02	0.0012374
2372.66	0.0011953
2382.31	0.0011553
2391.95	0.0013664
2401.6	0.0012798
2411.24	0.001637
2420.89	0.001697
2430.53	0.001477
2440.18	0.001437
2449.82	0.001577
2459.47	0.0011977
2469.11	0.0013296
2478.75	0.0008331
2488.4	0.0008095
2498.04	0.0007329
2507.69	0.0006479
2517.33	0.0008278
2526.98	0.0008991
2536.62	0.0007664
2546.27	0.0009679
2555.91	0.0009437
2565.56	0.0010603
2575.2	0.0013608
2584.85	0.001477
2594.49	0.001477
2604.14	0.0013706
2613.78	0.0011103
2623.43	0.0012394
2633.07	0.0010476
2642.72	0.0010077
2652.36	0.0011845
2662.01	0.0013722
2671.65	0.0012267
2681.29	0.0011561
2690.94	0.0007203
2700.58	0.0006373
2710.23	0.0007513
2719.87	0.0006738
2729.52	0.0009339
2739.16	0.0006549
2748.81	0.0009635
2758.45	0.0010113
2768.1	0.0011145
2777.74	0.0011515
2787.39	0.001507
2797.03	0.001427
2806.68	0.001787
2816.32	0.002287
2825.97	0.002987
2835.61	0.004817
2845.26	0.010747
2854.9	0.012147
2864.55	0.006617
2874.19	0.006257
2883.84	0.007907
2893.48	0.009307
2903.12	0.010327
2912.77	0.011827
2922.41	0.011707
2932.06	0.011027
2941.7	0.014177
2951.35	0.033597
2960.99	0.077057
2970.64	0.048777
2980.28	0.016867
2989.93	0.013387
2999.57	0.016677
3009.22	0.017227
3018.86	0.013537
3028.51	0.013537
3038.15	0.012307
3047.8	0.007807
3057.44	0.006187
3067.09	0.005437
3076.73	0.004887
3086.38	0.004697
3096.02	0.005417
3105.67	0.007737
3115.31	0.009627
3124.95	0.005037
3134.6	0.002407
3144.24	0.001567
3153.89	0.001597
3163.53	0.0012532
3173.18	0.0013104
3182.82	0.0013361
3192.47	0.0011332
3202.11	0.0012776
3211.76	0.0005436
3221.4	0.0007658
3231.05	0.0006611
3240.69	0.0008841
3250.34	0.0003481
3259.98	0.0005899
3269.63	0.0005549
3279.27	0.0009496
3288.92	0.0005627
3298.56	0.0003902
3308.21	0.0005683
3317.85	0.0006561
3327.49	0.00042408
3337.14	0.0005208
3346.78	0.000131
3356.43	0.000144
3366.07	0.00047642
3375.72	0.000272
3385.36	0.000317
3395.01	0.00046584
3404.65	0.00062
3414.3	0.0010066
3423.94	0.0013075
3433.59	0.001627
3443.23	0.002037
3452.88	0.002617
3462.52	0.002837
3472.17	0.002847
3481.81	0.002837
3491.46	0.002787
3501.1	0.001917
3510.75	0.0011743
3520.39	0.001266
3530.04	0.0005855
3539.68	0.00044017
3549.32	0.0006123
3558.97	0.000255
3568.61	0.0003628
3578.26	0.0005258
3587.9	0.000102
3597.55	0.0006309
3607.19	0.000184
3616.84	0.000243
3626.48	0.0005412
3636.13	0.0005208
3645.77	0.0005589
3655.42	0.0003668
3665.06	0.00048555
3674.71	0.0003592
3684.35	0.0003783
3694	0.00046194
3703.64	0.000156
3713.29	0.00043171
3722.93	0.000163
3732.58	0.0004436
3742.22	0.00046404
3751.86	0.00040195
3761.51	0.0006138
3771.15	0.0003262
3780.8	0.00043649
3790.44	0.0005785
3800.09	0.0008376
3809.73	0.0008891
3819.38	0.00045021
3829.02	0.0004177
3838.67	0.000514
3848.31	0.0008678
3857.96	0.0006852
3867.6	0.0007883
3877.25	0.0003065
3886.89	0.0007836
3896.54	0.00045526
3906.18	0.0005496
3915.83	0.00048306
3925.47	0.000357
3935.12	0.0006437
3944.76	0.0006698
3954.41	0.0009631
3964.05	0.000839
3973.69	0.0007181
3983.34	0.0008555
3992.98	0.000897
