Infrared Spectrum: IRON, TRIS(1,1,1-TRIFLUORO-2,4-PENTANEDIONATO)-
Formula: C15 H12 F9 Fe O6
CAS: 14526-22-8
State: SOLID (SPLIT MULL)
Class: COBLENTZ III
Instrument: DOW KBr FOREPRISM-GRATING
Instrument parameters: BLAZED AT 3.5, 12.0, 20.0 MICRON AND CHANGED AT 5.0, 7.5, 14.9 MICRON
Sampling: TRANSMISSION
Resolution: 2
Origin: DOW CHEMICAL COMPANY
1/CM	TRANSMITTANCE
469	0.8771
478	0.8689
487	0.8517
496	0.8308
505	0.8087
514	0.8449
523	0.8656
532	0.8904
541	0.8888
550	0.8865
559	0.8828
568	0.8589
577	0.7232
586	0.3936
595	0.7008
604	0.7895
613	0.7938
622	0.8724
631	0.8914
640	0.9039
649	0.9114
658	0.9102
667	0.9065
676	0.9033
685	0.8971
694	0.8875
703	0.8812
712	0.8628
721	0.8189
730	0.5968
739	0.8111
748	0.8423
757	0.8539
766	0.8636
775	0.8587
784	0.8268
793	0.5994
802	0.591
811	0.8381
820	0.8666
829	0.8663
838	0.8597
847	0.8467
856	0.7741
865	0.5144
874	0.8437
883	0.8694
892	0.8675
901	0.8645
910	0.8588
919	0.8505
928	0.8392
937	0.8042
946	0.6611
955	0.6978
964	0.8364
973	0.8444
982	0.8495
991	0.8435
1000	0.804
1009	0.7569
1018	0.8076
1027	0.8107
1036	0.8492
1045	0.8564
1054	0.8528
1063	0.8475
1072	0.8399
1081	0.828
1090	0.8042
1099	0.7715
1108	0.714
1117	0.6082
1126	0.3994
1135	0.0878
1144	0.0649
1153	0.0552
1162	0.1324
1171	0.3698
1180	0.4944
1189	0.2847
1198	0.1972
1207	0.3148
1216	0.3746
1225	0.1764
1234	0.2993
1243	0.5326
1252	0.5856
1261	0.5844
1270	0.4627
1279	0.3182
1288	0.0389
1297	0.0294
1306	0.2551
1315	0.4862
1324	0.6578
1333	0.7021
1342	0.7667
1351	0.7305
1360	0.5672
1369	0.3441
1378	0.615
1387	0.7574
1396	0.7386
1405	0.6606
1414	0.5612
1423	0.5723
1432	0.5433
1441	0.5203
1450	0.4766
1459	0.5247
1468	0.6746
1477	0.7697
1486	0.7826
1495	0.7599
1504	0.704
1513	0.6453
1522	0.385
1531	0.3259
1540	0.3737
1549	0.5599
1558	0.6005
1567	0.6525
1576	0.6312
1585	0.5138
1594	0.3374
1603	0.1683
1612	0.0585
1621	0.109
1630	0.355
1639	0.6694
1648	0.7928
1657	0.819
1666	0.8311
1675	0.8378
1684	0.8431
1693	0.8456
1702	0.8466
1711	0.8478
1720	0.8442
1729	0.8415
1738	0.8436
1747	0.8512
1756	0.8607
1765	0.8625
1774	0.8632
1783	0.8628
1792	0.8625
1801	0.8624
1810	0.8637
1819	0.8649
1828	0.8643
1837	0.8635
1846	0.8628
1855	0.8623
1864	0.8618
1873	0.8621
1882	0.8624
1891	0.8625
1900	0.8641
1909	0.8662
1918	0.8695
1927	0.8687
1936	0.8686
1945	0.8692
1954	0.8697
1963	0.8702
1972	0.8708
1981	0.8716
1990	0.8704
1999	0.8658
2008	0.8686
2017	0.8684
2026	0.8682
2035	0.8673
2044	0.8663
2053	0.8654
2062	0.8644
2071	0.8631
2080	0.8618
2089	0.8609
2098	0.86
2107	0.859
2116	0.8581
2125	0.8583
2134	0.8585
2143	0.8587
2152	0.8589
2161	0.8585
2170	0.8582
2179	0.8577
2188	0.8556
2197	0.8535
2206	0.8516
2215	0.8493
2224	0.8464
2233	0.8423
2242	0.8366
2251	0.8348
2260	0.8336
2269	0.8328
2278	0.8321
2287	0.8314
2296	0.8309
2305	0.8309
2314	0.8309
2323	0.8309
2332	0.8311
2341	0.8314
2350	0.8316
2359	0.8311
2368	0.8305
2377	0.8302
2386	0.8299
2395	0.8296
2404	0.8297
2413	0.8299
2422	0.83
2431	0.83
2440	0.8299
2449	0.8292
2458	0.8284
2467	0.8282
2476	0.8282
2485	0.8287
2494	0.8296
2503	0.831
2512	0.8324
2521	0.8333
2530	0.8337
2539	0.8341
2548	0.834
2557	0.8338
2566	0.8336
2575	0.8334
2584	0.8333
2593	0.8328
2602	0.8325
2611	0.8321
2620	0.8317
2629	0.8313
2638	0.8308
2647	0.83
2656	0.8293
2665	0.8285
2674	0.8278
2683	0.8271
2692	0.8267
2701	0.8261
2710	0.8248
2719	0.8234
2728	0.8225
2737	0.8233
2746	0.824
2755	0.8246
2764	0.8252
2773	0.8257
2782	0.8252
2791	0.8245
2800	0.8237
2809	0.8221
2818	0.8208
2827	0.8188
2836	0.8161
2845	0.8134
2854	0.8118
2863	0.8108
2872	0.8095
2881	0.8071
2890	0.8025
2899	0.7975
2908	0.7911
2917	0.7821
2926	0.7757
2935	0.7747
2944	0.7903
2953	0.8039
2962	0.8055
2971	0.8068
2980	0.8084
2989	0.8095
2998	0.8105
3007	0.8111
3016	0.8111
3025	0.8111
3034	0.8111
3043	0.811
3052	0.8108
3061	0.8105
3070	0.8101
3079	0.8098
3088	0.8091
3097	0.8082
3106	0.8074
3115	0.8044
3124	0.7996
3133	0.7958
3142	0.7936
3151	0.7939
3160	0.7968
3169	0.8012
3178	0.8055
3187	0.8093
3196	0.8114
3205	0.8119
3214	0.8125
3223	0.8128
3232	0.813
3241	0.8131
3250	0.8133
3259	0.8132
3268	0.8128
3277	0.8125
3286	0.8124
3295	0.8121
3304	0.8118
3313	0.8118
3322	0.8117
3331	0.8115
3340	0.8115
3349	0.8114
3358	0.8114
3367	0.8114
3376	0.8114
3385	0.8114
3394	0.8114
3403	0.8114
3412	0.8115
3421	0.8115
3430	0.8115
3439	0.8117
3448	0.8118
3457	0.8118
3466	0.8118
3475	0.8121
3484	0.8124
3493	0.8125
3502	0.8128
3511	0.813
3520	0.8133
3529	0.8135
3538	0.814
3547	0.8144
3556	0.8149
3565	0.8151
3574	0.8157
3583	0.816
3592	0.8164
3601	0.8167
3610	0.8168
3619	0.8168
3628	0.8167
3637	0.8167
3646	0.8168
3655	0.8168
3664	0.816
3673	0.8151
3682	0.8142
3691	0.8133
3700	0.8133
3709	0.8151
3718	0.8174
3727	0.8189
3736	0.8142
3745	0.8115
3754	0.8115
3763	0.8118
3772	0.8112
3781	0.8108
3790	0.8107
