Infrared Spectrum: 2-Pyridinecarboxamide
Formula: C6 H6 N2 O
CAS: 1452-77-3
State: gas
Origin: EPA-IR VAPOR PHASE LIBRARY
1/CM	ABSORBANCE
549.8	0.0016233
559.445	0.0018033
569.09	0.0018933
578.734	0.0019533
588.379	0.0036533
598.024	0.0114633
607.669	0.0138133
617.313	0.0113333
626.958	0.0038733
636.603	0.0033133
646.248	0.0027233
655.893	0.0023633
665.537	0.0026433
675.182	0.0039933
684.827	0.0072333
694.472	0.0121133
704.116	0.0124233
713.761	0.0101933
723.406	0.0088333
733.051	0.0118233
742.695	0.0170633
752.34	0.0154733
761.985	0.0117133
771.63	0.0068233
781.275	0.0057833
790.919	0.0063133
800.564	0.0070233
810.209	0.0079333
819.854	0.0083333
829.498	0.0070933
839.143	0.0063433
848.788	0.0060633
858.433	0.0063433
868.078	0.0066033
877.722	0.0065233
887.367	0.0069533
897.012	0.0068733
906.657	0.0064033
916.301	0.0067733
925.946	0.0070233
935.591	0.0069433
945.236	0.0064733
954.88	0.0058733
964.525	0.0055533
974.17	0.0053333
983.815	0.0055233
993.46	0.0067633
1003.1	0.0065333
1012.75	0.0052333
1022.39	0.0050133
1032.04	0.0068233
1041.68	0.0058433
1051.33	0.0049533
1060.97	0.0022433
1070.62	0.0032033
1080.26	0.0042233
1089.91	0.0045333
1099.55	0.0037233
1109.2	0.0024533
1118.84	0.0015833
1128.49	0.0027933
1138.13	0.0042233
1147.78	0.0068833
1157.42	0.0070633
1167.07	0.0066533
1176.71	0.0033233
1186.36	0.0020633
1196	0.0024833
1205.64	0.0026733
1215.29	0.0031333
1224.93	0.0029033
1234.58	0.0054733
1244.22	0.0059333
1253.87	0.0049433
1263.51	0.0025533
1273.16	0.0027833
1282.8	0.0044033
1292.45	0.0044733
1302.09	0.0036533
1311.74	0.0025133
1321.38	0.0030633
1331.03	0.0060133
1340.67	0.0172033
1350.32	0.0488233
1359.96	0.0635933
1369.61	0.0509233
1379.25	0.0138133
1388.9	0.0061233
1398.54	0.0038733
1408.18	0.0028233
1417.83	0.0029533
1427.47	0.0045533
1437.12	0.0058733
1446.76	0.0067033
1456.41	0.0059833
1466.05	0.0062133
1475.7	0.0053133
1485.34	0.0030333
1494.99	0.0021333
1504.63	0.0023733
1514.28	0.0032633
1523.92	0.0047233
1533.57	0.0081933
1543.21	0.0207933
1552.86	0.0484533
1562.5	0.0732833
1572.15	0.0685233
1581.79	0.0391233
1591.44	0.0165833
1601.08	0.0087733
1610.73	0.0050633
1620.37	0.0038033
1630.01	0.0035733
1639.66	0.0038633
1649.3	0.0044333
1658.95	0.0051033
1668.59	0.0049133
1678.24	0.0058033
1687.88	0.0074433
1697.53	0.0141133
1707.17	0.0357033
1716.82	0.0938033
1726.46	0.113043
1736.11	0.116913
1745.75	0.0395633
1755.4	0.0108533
1765.04	0.0039133
1774.69	0.0032333
1784.33	0.0035533
1793.98	0.0039733
1803.62	0.0036533
1813.27	0.0022433
1822.91	0.0013033
1832.55	0.0010473
1842.2	0.0012033
1851.84	0.0014533
1861.49	0.0015033
1871.13	0.0013133
1880.78	0.0010633
1890.42	0.0011633
1900.07	0.0010272
1909.71	0.0009944
1919.36	0.0013133
1929	0.0013633
1938.65	0.0013133
1948.29	0.0013733
1957.94	0.0013433
1967.58	0.0012233
1977.23	0.0009886
1986.87	0.0009819
1996.52	0.0008019
2006.16	0.0005717
2015.81	0.000468
2025.45	0.0004521
2035.1	0.0003388
2044.74	0.0004886
2054.38	0.0004734
2064.03	0.0003909
2073.67	0.0003833
2083.32	0.0004125
2092.96	0.0005076
2102.61	0.0005288
2112.25	0.0004964
2121.9	0.0004131
2131.54	0.0003577
2141.19	0.000347
2150.83	0.0003579
2160.48	0.0003874
2170.12	0.0004501
2179.77	0.0003624
2189.41	0.0004062
2199.06	0.0003073
2208.7	0.0003127
2218.35	0.0003025
2227.99	0.0004222
2237.64	0.0003234
2247.28	0.0004711
2256.92	0.0004255
2266.57	0.0003484
2276.21	0.000331
2285.86	0.0005191
2295.5	0.0004086
2305.15	0.0002797
2314.79	0.0003172
2324.44	0.0003663
2334.08	0.000332
2343.73	0.0001988
2353.37	0.00014863
2363.02	0.0002157
2372.66	0.0002623
2382.31	0.0002266
2391.95	0.0002525
2401.6	0.0002989
2411.24	0.0002046
2420.89	0.0002346
2430.53	0.0003763
2440.18	0.0004123
2449.82	0.0004889
2459.47	0.0004256
2469.11	0.0003927
2478.75	0.0003605
2488.4	0.0003271
2498.04	0.000285
2507.69	0.0003441
2517.33	0.0002671
2526.98	0.0002787
2536.62	0.0002302
2546.27	0.0002206
2555.91	0.0002866
2565.56	0.0002656
2575.2	0.0003381
2584.85	0.000319
2594.49	0.000447
2604.14	0.0004032
2613.78	0.000389
2623.43	0.000286
2633.07	0.0003652
2642.72	0.0002789
2652.36	0.0003972
2662.01	0.0003391
2671.65	0.0003737
2681.29	0.0004355
2690.94	0.000269
2700.58	0.0003484
2710.23	0.00035
2719.87	0.0005329
2729.52	0.0003366
2739.16	0.0003216
2748.81	0.0003101
2758.45	0.0003716
2768.1	0.0002914
2777.74	0.0002859
2787.39	0.0003932
2797.03	0.000315
2806.68	0.000685
2816.32	0.0006052
2825.97	0.0006295
2835.61	0.0003972
2845.26	0.0003766
2854.9	0.0003371
2864.55	0.0002382
2874.19	0.000304
2883.84	0.0003156
2893.48	0.000419
2903.12	0.0005303
2912.77	0.000671
2922.41	0.0010933
2932.06	0.0006207
2941.7	0.0006828
2951.35	0.0005882
2960.99	0.0006308
2970.64	0.000683
2980.28	0.000529
2989.93	0.0008107
2999.57	0.0013033
3009.22	0.0019833
3018.86	0.0027833
3028.51	0.0028533
3038.15	0.0028033
3047.8	0.0046733
3057.44	0.0079833
3067.09	0.0109833
3076.73	0.0101933
3086.38	0.0061533
3096.02	0.0022933
3105.67	0.0015333
3115.31	0.0010278
3124.95	0.0011233
3134.6	0.0010137
3144.24	0.0009447
3153.89	0.0007747
3163.53	0.0006162
3173.18	0.0004604
3182.82	0.0005728
3192.47	0.0004182
3202.11	0.0004693
3211.76	0.000545
3221.4	0.0002176
3231.05	0.00014793
3240.69	0.00013144
3250.34	0.0004156
3259.98	0.0004178
3269.63	0.0005891
3279.27	0.0003924
3288.92	0.0005186
3298.56	0.0004533
3308.21	0.0004759
3317.85	0.0003731
3327.49	0.0003933
3337.14	0.0004632
3346.78	0.0005263
3356.43	0.0004543
3366.07	0.0006887
3375.72	0.0011133
3385.36	0.0021633
3395.01	0.0049633
3404.65	0.0091633
3414.3	0.0136333
3423.94	0.0120833
3433.59	0.0094833
3443.23	0.0038833
3452.88	0.0016733
3462.52	0.0011233
3472.17	0.0010471
3481.81	0.0015833
3491.46	0.0020233
3501.1	0.0036533
3510.75	0.0066133
3520.39	0.0111133
3530.04	0.0160633
3539.68	0.0227633
3549.32	0.0232233
3558.97	0.0156533
3568.61	0.0042733
3578.26	0.0011333
3587.9	0.0009291
3597.55	0.0004801
3607.19	0.0005737
3616.84	0.0005023
3626.48	0.0005531
3636.13	0.0005564
3645.77	0.0002962
3655.42	0.0006098
3665.06	0.0004844
3674.71	0.0003322
3684.35	0.0005158
3694	0.0002849
3703.64	0.0004272
3713.29	0.0002593
3722.93	0.000251
3732.58	0.0003002
3742.22	0.0002907
3751.86	0.0007111
3761.51	0.0006858
3771.15	0.0003546
3780.8	0.0004773
3790.44	0.0003587
3800.09	0.0003202
3809.73	0.0002531
3819.38	0.0004855
3829.02	0.0003282
3838.67	0.0005287
3848.31	0.0002638
3857.96	0.0002685
3867.6	0.0001571
3877.25	0.000262
3886.89	0.0003208
3896.54	0.0002696
3906.18	0.00012218
3915.83	0.0003661
3925.47	0.000428
3935.12	0.0003388
3944.76	9.609e-05
3954.41	0.0002193
3964.05	0.0003483
3973.69	0.0002552
3983.34	0.0001657
3992.98	0.0002733
