Infrared Spectrum: DICYCLOPROPYL KETOXIME
Formula: C7 H11 N O
CAS: 1453-52-7
State: SOLUTION (10% CHCl3)
Class: COBLENTZ
Instrument: Not specified, most likely a grating spectrometer.
Sampling: TRANSMISSION
Path length: 0.010 CM CELL
Resolution: 4
Origin: ABBOTT LABORATORIES
MICROMETERS	TRANSMITTANCE
2.021	0.97
2.05599	0.965
2.09098	0.965
2.12597	0.965
2.16096	0.958
2.19595	0.934
2.23094	0.95
2.26593	0.951
2.30092	0.943
2.33591	0.937
2.3709	0.937
2.40589	0.939
2.44088	0.943
2.47586	0.944
2.51085	0.944
2.54584	0.946
2.58083	0.946
2.61582	0.946
2.65081	0.943
2.6858	0.927
2.72079	0.829
2.75578	0.662
2.79077	0.77
2.82576	0.762
2.86075	0.651
2.89574	0.513
2.93073	0.331
2.96572	0.26
3.00071	0.229
3.0357	0.222
3.07069	0.255
3.10568	0.312
3.14067	0.348
3.17566	0.337
3.21065	0.324
3.24564	0.37
3.28063	0.346
3.31562	0.394
3.3506	0.427
3.38559	0.446
3.42058	0.468
3.45557	0.5
3.49056	0.618
3.52555	0.7
3.56054	0.741
3.59553	0.765
3.63052	0.779
3.66551	0.801
3.7005	0.824
3.73549	0.843
3.77048	0.851
3.80547	0.858
3.84046	0.865
3.87545	0.872
3.91044	0.877
3.94543	0.877
3.98042	0.875
4.01541	0.872
4.0504	0.868
4.08539	0.87
4.12038	0.875
4.15537	0.881
4.19036	0.881
4.22535	0.882
4.26033	0.884
4.29532	0.889
4.33031	0.889
4.3653	0.889
4.40029	0.889
4.43528	0.889
4.47027	0.887
4.50526	0.887
4.54025	0.886
4.57524	0.886
4.61023	0.884
4.64522	0.882
4.68021	0.881
4.7152	0.872
4.75019	0.868
4.78518	0.863
4.82017	0.865
4.85516	0.87
4.89015	0.884
4.92514	0.889
4.96013	0.891
4.99512	0.889
5.03011	0.886
5.0651	0.881
5.10009	0.875
5.13507	0.868
5.17006	0.867
5.20505	0.867
5.24004	0.867
5.27503	0.867
5.31002	0.868
5.34501	0.868
5.38	0.867
5.41499	0.865
5.44998	0.865
5.48497	0.865
5.51996	0.868
5.55495	0.87
5.58994	0.872
5.62493	0.872
5.65992	0.872
5.69491	0.865
5.7299	0.86
5.76489	0.855
5.79988	0.85
5.83487	0.841
5.86986	0.831
5.90485	0.815
5.93984	0.803
5.97483	0.772
6.00981	0.712
6.0448	0.636
6.07979	0.593
6.11478	0.601
6.14977	0.687
6.18476	0.76
6.21975	0.801
6.25474	0.815
6.28973	0.824
6.32472	0.829
6.35971	0.831
6.3947	0.832
6.42969	0.832
6.46468	0.832
6.49967	0.831
6.53466	0.825
6.56965	0.81
6.60464	0.805
6.63963	0.791
6.67462	0.765
6.70961	0.748
6.7446	0.724
6.77959	0.689
6.81458	0.625
6.84957	0.587
6.88456	0.582
6.91954	0.581
6.95453	0.51
6.98952	0.47
7.02451	0.562
7.0595	0.589
7.09449	0.558
7.12948	0.358
7.16447	0.284
7.19946	0.42
7.23445	0.546
7.26944	0.579
7.30443	0.562
7.33942	0.663
7.37441	0.698
7.4094	0.691
7.44439	0.627
7.47938	0.612
7.51437	0.653
7.54936	0.613
7.58435	0.579
7.61934	0.675
7.65433	0.701
7.68932	0.731
7.72431	0.744
7.7593	0.748
7.79428	0.744
7.82927	0.737
7.86426	0.725
7.89925	0.706
7.93424	0.641
7.96923	0.498
8.00422	0.291
8.03921	0.308
8.0742	0.331
8.10919	0.337
8.14418	0.377
8.17917	0.418
8.21416	0.444
8.24915	0.474
8.28414	0.508
8.31913	0.539
8.35412	0.589
8.38911	0.643
8.4241	0.693
8.45909	0.717
8.49408	0.71
8.52907	0.66
8.56406	0.705
8.59905	0.737
8.63404	0.762
8.66902	0.772
8.70401	0.775
8.739	0.772
8.77399	0.767
8.80898	0.758
8.84397	0.755
8.87896	0.748
8.91395	0.741
8.94894	0.731
8.98393	0.715
9.01892	0.624
9.05391	0.584
9.0889	0.568
9.12389	0.57
9.15888	0.61
9.19387	0.693
9.22886	0.712
9.26385	0.729
9.29884	0.732
9.33383	0.729
9.36882	0.71
9.40381	0.66
9.4388	0.572
9.47379	0.475
9.50878	0.412
9.54377	0.487
9.57875	0.529
9.61374	0.413
9.64873	0.206
9.68372	0.112
9.71871	0.175
9.7537	0.198
9.78869	0.336
9.82368	0.425
9.85867	0.446
9.89366	0.534
9.92865	0.656
9.96364	0.691
9.99863	0.708
10.0336	0.724
10.0686	0.725
10.1036	0.724
10.1386	0.718
10.1736	0.712
10.2086	0.705
10.2436	0.693
10.2785	0.677
10.3135	0.651
10.3485	0.612
10.3835	0.548
10.4185	0.474
10.4535	0.381
10.4885	0.305
10.5235	0.196
10.5585	0.131
10.5935	0.086
10.6284	0.07
10.6634	0.077
10.6984	0.089
10.7334	0.086
10.7684	0.075
10.8034	0.082
10.8384	0.12
10.8734	0.174
10.9084	0.239
10.9433	0.308
10.9783	0.37
11.0133	0.413
11.0483	0.429
11.0833	0.413
11.1183	0.4
11.1533	0.406
11.1883	0.446
11.2233	0.493
11.2583	0.553
11.2932	0.572
11.3282	0.577
11.3632	0.565
11.3982	0.544
11.4332	0.522
11.4682	0.505
11.5032	0.47
11.5382	0.422
11.5732	0.367
11.6082	0.365
11.6431	0.379
11.6781	0.403
11.7131	0.446
11.7481	0.486
11.7831	0.546
11.8181	0.587
11.8531	0.606
11.8881	0.627
11.9231	0.637
11.958	0.637
11.993	0.625
12.028	0.608
12.063	0.572
12.098	0.512
12.133	0.463
12.168	0.418
12.203	0.396
12.238	0.425
12.273	0.493
12.3079	0.555
12.3429	0.593
12.3779	0.622
12.4129	0.644
12.4479	0.66
12.4829	0.672
12.5179	0.679
12.5529	0.687
12.5879	0.693
12.6229	0.696
12.6578	0.703
12.6928	0.712
12.7278	0.718
12.7628	0.725
12.7978	0.737
12.8328	0.748
12.8678	0.753
12.9028	0.765
12.9378	0.774
12.9727	0.781
13.0077	0.787
13.0427	0.801
13.0777	0.808
13.1127	0.82
13.1477	0.831
13.1827	0.837
13.2177	0.85
13.2527	0.862
13.2877	0.868
13.3226	0.875
13.3576	0.884
13.3926	0.893
13.4276	0.898
13.4626	0.905
13.4976	0.908
13.5326	0.913
13.5676	0.918
13.6026	0.925
13.6375	0.932
13.6725	0.941
13.7075	0.948
13.7425	0.956
13.7775	0.963
13.8125	0.972
13.8475	0.974
13.8825	0.97
13.9175	0.963
13.9525	0.944
13.9874	0.922
14.0224	0.881
14.0574	0.824
14.0924	0.755
14.1274	0.687
14.1624	0.644
14.1974	0.546
14.2324	0.503
14.2674	0.487
14.3024	0.486
14.3373	0.491
14.3723	0.51
14.4073	0.534
14.4423	0.558
14.4773	0.582
14.5123	0.596
14.5473	0.62
14.5823	0.632
14.6173	0.65
14.6522	0.665
14.6872	0.681
14.7222	0.691
14.7572	0.698
14.7922	0.706
14.8272	0.72
14.8622	0.732
14.8972	0.743
14.9322	0.753
14.9672	0.763
15.0021	0.772
15.0371	0.777
15.0721	0.779
15.1071	0.779
15.1421	0.767
15.1771	0.682
15.2121	0.608
15.2471	0.594
15.2821	0.594
15.317	0.61
15.352	0.617
15.387	0.634
15.422	0.644
15.457	0.648
