Infrared Spectrum: 1-Ethylcyclohexene
Formula: C 8 H 14
CAS: 1453-24-3
State: gas
Instrument: HP-GC/MS/IRD
Origin: NIST Mass Spectrometry Data Center
1/CM	ABSORBANCE
550	0.0004332
562	0.0002109
574	0.0001425
586	0.0002394
598	0.0001881
610	0.0002508
622	0.0002736
634	0.0001311
646	0.0001596
658	0.000114
670	6.27e-05
682	0.0001596
694	9.12e-05
706	0.0001026
718	0.000171
730	0.0002679
742	0.0004845
754	0.0005187
766	0.0004902
778	0.0006726
790	0.0011628
802	0.0016929
814	0.0014877
826	0.0014307
838	0.0017955
850	0.001596
862	0.0010488
874	0.0004617
886	0.000627
898	0.0013167
910	0.0021261
922	0.0024339
934	0.001539
946	0.0007239
958	0.0004047
970	0.0004161
982	0.000513
994	0.0004845
1006	0.000342
1018	0.0003705
1030	0.000627
1042	0.0008664
1054	0.0008208
1066	0.0006213
1078	0.0005358
1090	0.0006669
1102	0.0006213
1114	0.0005757
1126	0.0009405
1138	0.0013965
1150	0.0011742
1162	0.0007524
1174	0.0005016
1186	0.0002907
1198	0.0002166
1210	0.000228
1222	0.0003705
1234	0.0005244
1246	0.000741
1258	0.0008721
1270	0.0010431
1282	0.0009576
1294	0.0010659
1306	0.0016188
1318	0.0019722
1330	0.0016188
1342	0.0012483
1354	0.0009462
1366	0.0009861
1378	0.001311
1390	0.00114
1402	0.0009234
1414	0.0010602
1426	0.0019551
1438	0.0038304
1450	0.0053181
1462	0.0048336
1474	0.0031008
1486	0.0012312
1498	0.0006042
1510	0.0004218
1522	0.000342
1534	0.0002622
1546	0.0002337
1558	0.0002166
1570	0.0002109
1582	0.0001995
1594	0.0002109
1606	0.0002166
1618	0.0002337
1630	0.0002451
1642	0.0003135
1654	0.0004446
1666	0.0004959
1678	0.0003876
1690	0.0002508
1702	0.0002052
1714	0.0001995
1726	0.0002052
1738	0.0001653
1750	0.0001482
1762	0.0001425
1774	0.0001197
1786	7.41e-05
1798	7.41e-05
1810	8.55e-05
1822	6.27e-05
1834	9.12e-05
1846	7.41e-05
1858	6.84e-05
1870	6.27e-05
1882	7.41e-05
1894	5.7e-05
1906	7.41e-05
1918	6.27e-05
1930	8.55e-05
1942	0.0001083
1954	6.27e-05
1966	6.84e-05
1978	4.56e-05
1990	2.28e-05
2002	5.7e-06
2014	1.71e-05
2026	1.14e-05
2038	1.71e-05
2050	2.28e-05
2062	1.71e-05
2074	3.42e-05
2086	3.99e-05
2098	3.42e-05
2110	1.14e-05
2122	0
2134	0
2146	3.99e-05
2158	3.99e-05
2170	4.56e-05
2182	6.84e-05
2194	6.84e-05
2206	5.13e-05
2218	8.55e-05
2230	7.98e-05
2242	6.27e-05
2254	6.27e-05
2266	5.7e-05
2278	5.7e-05
2290	5.13e-05
2302	5.7e-05
2314	5.13e-05
2326	2.28e-05
2338	3.99e-05
2350	8.55e-05
2362	9.69e-05
2374	6.27e-05
2386	5.7e-05
2398	3.99e-05
2410	6.27e-05
2422	5.13e-05
2434	4.56e-05
2446	2.85e-05
2458	3.42e-05
2470	5.7e-05
2482	0.0001026
2494	9.69e-05
2506	0.000114
2518	0.0001026
2530	0.0001026
2542	0.0001083
2554	0.0001026
2566	0.0001197
2578	0.0001596
2590	0.0002052
2602	0.0002451
2614	0.0003021
2626	0.0003762
2638	0.0004902
2650	0.0007068
2662	0.0008607
2674	0.0007923
2686	0.0006441
2698	0.0005244
2710	0.0005016
2722	0.0005301
2734	0.0005814
2746	0.0007125
2758	0.0008322
2770	0.0010488
2782	0.001311
2794	0.0016815
2806	0.002223
2818	0.0035454
2830	0.0079287
2842	0.0157833
2854	0.0209703
2866	0.0215346
2878	0.0212268
2890	0.0234384
2902	0.0271149
2914	0.0351519
2926	0.0461985
2938	0.0561792
2950	0.043434
2962	0.02622
2974	0.0217797
2986	0.0133722
2998	0.0075981
3010	0.0055119
3022	0.0042294
3034	0.0036366
3046	0.0029925
3058	0.0020805
3070	0.0012996
3082	0.000912
3094	0.0007353
3106	0.0006555
3118	0.0005871
3130	0.0004959
3142	0.0004446
3154	0.0004218
3166	0.0004332
3178	0.0004275
3190	0.000399
3202	0.0002736
3214	0.0002394
3226	0.0002337
3238	0.0001995
3250	0.0001368
3262	0.0001197
3274	0.0001311
3286	7.98e-05
3298	8.55e-05
3310	0.0001197
3322	9.69e-05
3334	6.84e-05
3346	4.56e-05
3358	8.55e-05
3370	0.0001026
3382	6.84e-05
3394	6.84e-05
3406	6.27e-05
3418	7.41e-05
3430	8.55e-05
3442	6.84e-05
3454	5.7e-05
3466	4.56e-05
3478	5.7e-05
3490	5.7e-05
3502	2.85e-05
3514	5.7e-05
3526	1.14e-05
3538	5.13e-05
3550	3.99e-05
3562	6.27e-05
3574	7.41e-05
3586	7.41e-05
3598	6.27e-05
3610	7.98e-05
3622	9.12e-05
3634	4.56e-05
3646	9.12e-05
3658	7.41e-05
3670	0.0001083
3682	0.0001083
3694	0.0001311
3706	0.0001539
3718	0.0001197
3730	0.0001482
3742	0.0001311
3754	0.0001596
3766	0.000114
3778	0.0001596
3790	0.0001482
3802	0.0001824
3814	0.0001653
3826	0.0001539
3838	0.000171
