Infrared Spectrum: 1-Methylcycloheptene
Formula: C 8 H 14
CAS: 1453-25-4
State: gas
Instrument: HP-GC/MS/IRD
Origin: NIST Mass Spectrometry Data Center
1/CM	ABSORBANCE
550	5.04e-05
562	4.8e-05
574	0.0001032
586	8.4e-05
598	0.00012
610	0.0001296
622	0.000132
634	0.0001512
646	5.76e-05
658	9.6e-05
670	0.0001776
682	0.0001992
694	7.68e-05
706	2.64e-05
718	0.0001272
730	7.92e-05
742	6.48e-05
754	0.0001272
766	0.0001872
778	0.0002736
790	0.0004152
802	0.000456
814	0.0003744
826	0.0005928
838	0.0009816
850	0.0009168
862	0.0005688
874	0.0003288
886	0.0003216
898	0.0002616
910	0.0001488
922	0.0001848
934	0.0001872
946	0.0002184
958	0.000336
970	0.0003432
982	0.0002496
994	0.0001968
1006	0.000252
1018	0.0002832
1030	0.0002352
1042	0.0001704
1054	0.0001968
1066	0.0002376
1078	0.0003576
1090	0.0003816
1102	0.0003192
1114	0.0001536
1126	0.0001056
1138	0.000132
1150	0.0001608
1162	0.0001512
1174	9.6e-05
1186	0.000132
1198	0.0001608
1210	0.0002424
1222	0.0003408
1234	0.0002976
1246	0.0002136
1258	0.00024
1270	0.0004176
1282	0.000348
1294	0.000228
1306	0.0001608
1318	0.0001608
1330	0.0002328
1342	0.000312
1354	0.0003816
1366	0.0004056
1378	0.000444
1390	0.000432
1402	0.0002904
1414	0.0004248
1426	0.000924
1438	0.0019032
1450	0.0025056
1462	0.0018624
1474	0.000948
1486	0.0003528
1498	0.0001968
1510	0.0001488
1522	0.0001224
1534	7.92e-05
1546	0.0001008
1558	0.0001248
1570	8.88e-05
1582	0.00012
1594	0.0001512
1606	0.0001608
1618	0.0001824
1630	0.0002184
1642	0.0002232
1654	0.0002136
1666	0.0001824
1678	0.0001512
1690	7.68e-05
1702	6.48e-05
1714	5.52e-05
1726	1.44e-05
1738	6.24e-05
1750	6.72e-05
1762	3.6e-05
1774	6.72e-05
1786	6.48e-05
1798	6e-05
1810	6.48e-05
1822	4.56e-05
1834	5.28e-05
1846	3.84e-05
1858	5.76e-05
1870	5.28e-05
1882	4.32e-05
1894	3.84e-05
1906	1.2e-05
1918	3.84e-05
1930	3.36e-05
1942	4.8e-05
1954	3.12e-05
1966	3.36e-05
1978	5.04e-05
1990	3.36e-05
2002	1.92e-05
2014	3.12e-05
2026	2.64e-05
2038	6.24e-05
2050	2.16e-05
2062	4.08e-05
2074	2.16e-05
2086	4.56e-05
2098	2.4e-05
2110	2.64e-05
2122	2.16e-05
2134	3.12e-05
2146	4.08e-05
2158	4.8e-05
2170	3.12e-05
2182	3.12e-05
2194	5.76e-05
2206	3.6e-05
2218	3.12e-05
2230	4.08e-05
2242	3.36e-05
2254	3.6e-05
2266	3.12e-05
2278	2.64e-05
2290	2.64e-05
2302	2.4e-05
2314	2.16e-05
2326	2.16e-05
2338	3.84e-05
2350	4.8e-05
2362	5.28e-05
2374	2.64e-05
2386	3.6e-05
2398	2.64e-05
2410	4.56e-05
2422	4.8e-05
2434	3.36e-05
2446	3.12e-05
2458	4.32e-05
2470	3.36e-05
2482	4.32e-05
2494	2.16e-05
2506	4.56e-05
2518	4.56e-05
2530	3.12e-05
2542	3.6e-05
2554	0
2566	6.96e-05
2578	5.28e-05
2590	7.2e-05
2602	7.44e-05
2614	8.4e-05
2626	8.4e-05
2638	0.0001272
2650	0.0001728
2662	0.0002496
2674	0.0003144
2686	0.0002976
2698	0.0003504
2710	0.0003072
2722	0.0002904
2734	0.0003048
2746	0.0002808
2758	0.0002544
2770	0.0003288
2782	0.000396
2794	0.0005208
2806	0.0006936
2818	0.00102
2830	0.0020064
2842	0.004236
2854	0.0067416
2866	0.007008
2878	0.0058824
2890	0.0056184
2902	0.0072816
2914	0.0141216
2926	0.024
2938	0.0205608
2950	0.010284
2962	0.005076
2974	0.0037392
2986	0.0027336
2998	0.0017664
3010	0.0014328
3022	0.001128
3034	0.0009744
3046	0.0008376
3058	0.0006288
3070	0.0004992
3082	0.0003864
3094	0.0002976
3106	0.000228
3118	0.0002352
3130	0.0002064
3142	0.0001872
3154	0.0001776
3166	0.0001536
3178	0.000144
3190	0.0001416
3202	0.0001176
3214	0.0001128
3226	9.36e-05
3238	0.0001128
3250	0.000132
3262	0.0001032
3274	7.2e-05
3286	0.0001152
3298	0.0001176
3310	0.000108
3322	0.0001272
3334	9.12e-05
3346	0.0001104
3358	6.72e-05
3370	9.84e-05
3382	5.76e-05
3394	8.16e-05
3406	9.6e-05
3418	9.6e-05
3430	0.0001056
3442	0.00012
3454	7.44e-05
3466	9.6e-05
3478	7.68e-05
3490	7.68e-05
3502	0.0001176
3514	0.0001152
3526	8.16e-05
3538	8.16e-05
3550	3.84e-05
3562	6.72e-05
3574	7.44e-05
3586	6e-05
3598	9.6e-06
3610	9.84e-05
3622	7.92e-05
3634	6.72e-05
3646	8.4e-05
3658	7.2e-05
3670	4.08e-05
3682	6.48e-05
3694	8.4e-05
3706	9.36e-05
3718	6e-05
3730	8.16e-05
3742	0.0001008
3754	9.6e-05
3766	7.92e-05
3778	7.2e-05
3790	0.0001056
3802	8.64e-05
3814	9.36e-05
3826	0.00012
3838	0.0001488
