Infrared Spectrum: N-CYCLOPROPYLCYCLOPROPANECARBOXAMIDE
Formula: C7 H11 N O
CAS: 1453-50-5
State: SOLUTION (7% IN CHCl3)
Class: COBLENTZ
Instrument: PERKIN-ELMER
Sampling: TRANSMISSION
Path length: 0.010 CM
Resolution: 4
Origin: ABBOTT LABORATORIES - WASHBURN
MICROMETERS	TRANSMITTANCE
2.051	0.983
2.09058	0.985
2.13015	0.981
2.16973	0.978
2.2093	0.978
2.24888	0.978
2.28846	0.9602
2.32803	0.968
2.36761	0.973
2.40718	0.971
2.44676	0.9649
2.48634	0.971
2.52591	0.973
2.56549	0.971
2.60506	0.9759
2.64464	0.973
2.68422	0.9759
2.72379	0.9711
2.76337	0.9656
2.80294	0.9809
2.84252	0.9513
2.8821	0.904
2.92167	0.6138
2.96125	0.666
3.00082	0.6358
3.0404	0.5525
3.07998	0.6379
3.11955	0.7762
3.15913	0.8324
3.19871	0.8622
3.23828	0.8497
3.27786	0.805
3.31743	0.7797
3.35701	0.5097
3.39659	0.7081
3.43616	0.8363
3.47574	0.8926
3.51531	0.9109
3.55489	0.9272
3.59447	0.9347
3.63404	0.945
3.67362	0.9477
3.71319	0.946
3.75277	0.9497
3.79235	0.951
3.83192	0.951
3.8715	0.95
3.91107	0.956
3.95065	0.9561
3.99023	0.9511
4.0298	0.935
4.06938	0.9112
4.10895	0.906
4.14853	0.9276
4.18811	0.9607
4.22768	0.973
4.26726	0.98
4.30683	0.976
4.34641	0.9681
4.38599	0.9611
4.42556	0.96
4.46514	0.9562
4.50471	0.951
4.54429	0.9528
4.58387	0.95
4.62344	0.9528
4.66302	0.9482
4.70259	0.946
4.74217	0.9459
4.78175	0.9353
4.82132	0.933
4.8609	0.9359
4.90047	0.948
4.94005	0.948
4.97963	0.948
5.0192	0.9547
5.05878	0.946
5.09835	0.948
5.13793	0.9441
5.17751	0.9403
5.21708	0.941
5.25666	0.94
5.29623	0.94
5.33581	0.9444
5.37539	0.9405
5.41496	0.933
5.45454	0.9343
5.49412	0.9301
5.53369	0.926
5.57327	0.923
5.61284	0.9086
5.65242	0.9167
5.692	0.92
5.73157	0.9173
5.77115	0.915
5.81072	0.8877
5.8503	0.8603
5.88988	0.8244
5.92945	0.5406
5.96903	0.202
6.0086	0.0837
6.04818	0.0373
6.08776	0.0367
6.12733	0.1583
6.16691	0.4785
6.20648	0.6589
6.24606	0.6956
6.28564	0.7092
6.32521	0.6788
6.36479	0.6346
6.40436	0.5947
6.44394	0.4968
6.48352	0.3724
6.52309	0.3176
6.56267	0.2727
6.60224	0.2506
6.64182	0.1799
6.6814	0.1227
6.72097	0.173
6.76055	0.3367
6.80012	0.5067
6.8397	0.589
6.87928	0.5534
6.91885	0.444
6.95843	0.4387
6.998	0.4318
7.03758	0.4779
7.07716	0.4897
7.11673	0.62
7.15631	0.6127
7.19588	0.6283
7.23546	0.71
7.27504	0.7699
7.31461	0.7692
7.35419	0.6786
7.39376	0.4743
7.43334	0.6051
7.47292	0.7665
7.51249	0.8313
7.55207	0.84
7.59164	0.8446
7.63122	0.846
7.6708	0.8338
7.71037	0.8148
7.74995	0.7903
7.78953	0.7485
7.8291	0.6967
7.86868	0.6366
7.90825	0.5847
7.94783	0.5351
7.98741	0.4723
8.02698	0.4269
8.06656	0.3624
8.10613	0.3442
8.14571	0.3908
8.18529	0.4474
8.22486	0.465
8.26444	0.472
8.30401	0.4777
8.34359	0.4875
8.38317	0.4783
8.42274	0.4487
8.46232	0.5996
8.50189	0.7122
8.54147	0.7465
8.58105	0.7441
8.62062	0.7051
8.6602	0.6393
8.69977	0.6466
8.73935	0.7093
8.77893	0.754
8.8185	0.7775
8.85808	0.7813
8.89765	0.771
8.93723	0.7476
8.97681	0.737
9.01638	0.7238
9.05596	0.6775
9.09553	0.5956
9.13511	0.5558
9.17469	0.6374
9.21426	0.6875
9.25384	0.7178
9.29341	0.77
9.33299	0.7961
9.37257	0.8361
9.41214	0.8112
9.45172	0.7346
9.49129	0.7257
9.53087	0.7481
9.57045	0.7385
9.61002	0.735
9.6496	0.738
9.68917	0.6707
9.72875	0.5518
9.76833	0.5165
9.8079	0.516
9.84748	0.6129
9.88706	0.7181
9.92663	0.771
9.96621	0.799
10.0058	0.7987
10.0454	0.77
10.0849	0.644
10.1245	0.3026
10.1641	0.3648
10.2037	0.6019
10.2432	0.743
10.2828	0.791
10.3224	0.8206
10.362	0.8401
10.4015	0.8499
10.4411	0.8576
10.4807	0.861
10.5203	0.8568
10.5598	0.8572
10.5994	0.8507
10.639	0.8351
10.6786	0.8161
10.7182	0.818
10.7577	0.8269
10.7973	0.836
10.8369	0.8267
10.8765	0.7676
10.916	0.6287
10.9556	0.542
10.9952	0.5771
11.0348	0.6718
11.0743	0.747
11.1139	0.7873
11.1535	0.8
11.1931	0.795
11.2326	0.7921
11.2722	0.8096
11.3118	0.8356
11.3514	0.8536
11.3909	0.867
11.4305	0.8822
11.4701	0.891
11.5097	0.888
11.5492	0.881
11.5888	0.87
11.6284	0.8603
11.668	0.86
11.7076	0.867
11.7471	0.8753
11.7867	0.888
11.8263	0.901
11.8659	0.9099
11.9054	0.9085
11.945	0.8968
11.9846	0.8792
12.0242	0.8428
12.0637	0.7874
12.1033	0.7035
12.1429	0.6196
12.1825	0.5752
12.222	0.5819
12.2616	0.6242
12.3012	0.6917
12.3408	0.7417
12.3803	0.787
12.4199	0.8145
12.4595	0.8454
12.4991	0.873
12.5386	0.8894
12.5782	0.905
12.6178	0.913
12.6574	0.918
12.697	0.925
12.7365	0.925
12.7761	0.93
12.8157	0.934
12.8553	0.943
12.8948	0.9466
12.9344	0.9532
12.974	0.958
13.0136	0.958
13.0531	0.96
13.0927	0.965
13.1323	0.97
13.1719	0.968
13.2114	0.9701
13.251	0.9761
13.2906	0.9849
13.3302	0.981
13.3697	0.98
13.4093	0.981
13.4489	0.9816
13.4885	0.985
13.5281	0.983
13.5676	0.981
13.6072	0.9845
13.6468	0.9891
13.6864	0.9918
13.7259	0.991
13.7655	0.995
13.8051	0.993
13.8447	0.9959
13.8842	0.995
13.9238	0.996
13.9634	0.993
14.003	0.993
14.0425	0.996
14.0821	0.9929
14.1217	0.993
14.1613	0.99
14.2008	0.9804
14.2404	0.974
14.28	0.9656
14.3196	0.9525
14.3591	0.943
14.3987	0.9329
14.4383	0.926
14.4779	0.923
14.5175	0.916
14.557	0.908
14.5966	0.913
14.6362	0.9095
14.6758	0.911
14.7153	0.911
14.7549	0.911
14.7945	0.913
14.8341	0.924
14.8736	0.926
14.9132	0.925
14.9528	0.9232
14.9924	0.9248
15.0319	0.9202
15.0715	0.9015
15.1111	0.8522
15.1507	0.7575
15.1902	0.7058
15.2298	0.6922
15.2694	0.7146
15.309	0.7374
15.3485	0.7622
15.3881	0.7838
15.4277	0.7976
