Infrared Spectrum: 2, 6-Dibromo-4-methoxytoluene
Formula: C 8 H 8 Br 2 O
CAS: 14542-71-3
State: gas
Origin: EPA-IR VAPOR PHASE LIBRARY
1/CM	ABSORBANCE
549.8	0.001782
559.445	0.002812
569.09	0.003642
578.734	0.002482
588.379	0.002522
598.024	0.002362
607.669	0.001752
617.313	0.001612
626.958	0.0011404
636.603	0.0011132
646.248	0.001562
655.893	0.001712
665.537	0.002142
675.182	0.005412
684.827	0.008102
694.472	0.003632
704.116	0.003522
713.761	0.006662
723.406	0.020252
733.051	0.040572
742.695	0.047882
752.34	0.029062
761.985	0.007632
771.63	0.003502
781.275	0.002692
790.919	0.002552
800.564	0.002262
810.209	0.001932
819.854	0.003552
829.498	0.010152
839.143	0.012122
848.788	0.011132
858.433	0.022532
868.078	0.020082
877.722	0.022422
887.367	0.028602
897.012	0.013212
906.657	0.005892
916.301	0.003642
925.946	0.002742
935.591	0.002972
945.236	0.003442
954.88	0.004872
964.525	0.009092
974.17	0.016122
983.815	0.023362
993.46	0.025002
1003.1	0.019662
1012.75	0.020602
1022.39	0.032952
1032.04	0.059332
1041.68	0.084212
1051.33	0.079812
1060.97	0.046262
1070.62	0.017812
1080.26	0.009522
1089.91	0.006752
1099.55	0.004542
1109.2	0.005322
1118.84	0.003742
1128.49	0.004772
1138.13	0.004602
1147.78	0.004682
1157.42	0.005102
1167.07	0.007552
1176.71	0.012382
1186.36	0.014512
1196	0.016412
1205.64	0.015472
1215.29	0.012952
1224.93	0.021182
1234.58	0.047432
1244.22	0.068462
1253.87	0.046522
1263.51	0.044842
1273.16	0.067092
1282.8	0.069742
1292.45	0.030852
1302.09	0.013842
1311.74	0.007642
1321.38	0.005262
1331.03	0.004752
1340.67	0.005882
1350.32	0.007152
1359.96	0.009912
1369.61	0.014582
1379.25	0.019502
1388.9	0.025202
1398.54	0.016102
1408.18	0.016832
1417.83	0.031162
1427.47	0.057462
1437.12	0.085222
1446.76	0.055972
1456.41	0.053492
1466.05	0.105582
1475.7	0.072402
1485.34	0.021852
1494.99	0.012512
1504.63	0.010002
1514.28	0.011762
1523.92	0.020252
1533.57	0.046092
1543.21	0.079242
1552.86	0.063692
1562.5	0.030472
1572.15	0.029552
1581.79	0.061322
1591.44	0.126642
1601.08	0.109882
1610.73	0.040842
1620.37	0.017872
1630.01	0.009612
1639.66	0.005872
1649.3	0.004372
1658.95	0.004302
1668.59	0.004002
1678.24	0.003252
1687.88	0.002822
1697.53	0.002832
1707.17	0.003662
1716.82	0.004292
1726.46	0.003302
1736.11	0.002372
1745.75	0.001982
1755.4	0.001792
1765.04	0.001952
1774.69	0.001692
1784.33	0.0014467
1793.98	0.001582
1803.62	0.0012373
1813.27	0.0011433
1822.91	0.0009175
1832.55	0.001073
1842.2	0.0012129
1851.84	0.0013514
1861.49	0.0010553
1871.13	0.0011086
1880.78	0.0009327
1890.42	0.0010008
1900.07	0.0012116
1909.71	0.0009493
1919.36	0.0013055
1929	0.0014194
1938.65	0.0011736
1948.29	0.0012967
1957.94	0.0012345
1967.58	0.0013832
1977.23	0.001552
1986.87	0.001582
1996.52	0.001682
2006.16	0.001792
2015.81	0.001812
2025.45	0.001722
2035.1	0.0013567
2044.74	0.0014592
2054.38	0.001952
2064.03	0.002212
2073.67	0.002482
2083.32	0.002552
2092.96	0.002342
2102.61	0.001962
2112.25	0.001922
2121.9	0.002042
2131.54	0.001952
2141.19	0.001972
2150.83	0.001782
2160.48	0.001712
2170.12	0.001492
2179.77	0.0010904
2189.41	0.0009439
2199.06	0.0008543
2208.7	0.0008674
2218.35	0.0008024
2227.99	0.0008208
2237.64	0.0006324
2247.28	0.0007445
2256.92	0.0008397
2266.57	0.0010306
2276.21	0.0010695
2285.86	0.000878
2295.5	0.0007867
2305.15	0.0009426
2314.79	0.0009553
2324.44	0.0011199
2334.08	0.0012075
2343.73	0.0013625
2353.37	0.001433
2363.02	0.0009992
2372.66	0.0009024
2382.31	0.0007946
2391.95	0.0009601
2401.6	0.0010705
2411.24	0.0010873
2420.89	0.0011325
2430.53	0.0012967
2440.18	0.0013494
2449.82	0.0011787
2459.47	0.0013865
2469.11	0.001702
2478.75	0.001732
2488.4	0.001742
2498.04	0.001375
2507.69	0.002002
2517.33	0.002122
2526.98	0.001872
2536.62	0.0011011
2546.27	0.0010001
2555.91	0.0011668
2565.56	0.001036
2575.2	0.0011385
2584.85	0.0012275
2594.49	0.0011062
2604.14	0.0012133
2613.78	0.0010652
2623.43	0.001235
2633.07	0.0012958
2642.72	0.0012548
2652.36	0.0011043
2662.01	0.0010066
2671.65	0.0010263
2681.29	0.0010144
2690.94	0.0009954
2700.58	0.0014417
2710.23	0.0013243
2719.87	0.0011855
2729.52	0.0013407
2739.16	0.001722
2748.81	0.001882
2758.45	0.001862
2768.1	0.001892
2777.74	0.001892
2787.39	0.002302
2797.03	0.002732
2806.68	0.002792
2816.32	0.003272
2825.97	0.004892
2835.61	0.009092
2845.26	0.014762
2854.9	0.010822
2864.55	0.008702
2874.19	0.009152
2883.84	0.009492
2893.48	0.009932
2903.12	0.010742
2912.77	0.013012
2922.41	0.014752
2932.06	0.018262
2941.7	0.027902
2951.35	0.031552
2960.99	0.023732
2970.64	0.017402
2980.28	0.010752
2989.93	0.009322
2999.57	0.011632
3009.22	0.019902
3018.86	0.018552
3028.51	0.008392
3038.15	0.005652
3047.8	0.004512
3057.44	0.003902
3067.09	0.003182
3076.73	0.002822
3086.38	0.003352
3096.02	0.003232
3105.67	0.002672
3115.31	0.001812
3124.95	0.001622
3134.6	0.0013672
3144.24	0.0011895
3153.89	0.0012452
3163.53	0.0013033
3173.18	0.0009492
3182.82	0.0007487
3192.47	0.0008904
3202.11	0.0007624
3211.76	0.00056437
3221.4	0.0006155
3231.05	0.00058016
3240.69	0.0003846
3250.34	0.0006873
3259.98	0.0006322
3269.63	0.0007468
3279.27	0.0007403
3288.92	0.000483836
3298.56	0.00068
3308.21	0.00054074
3317.85	0.0004274
3327.49	0.0003829
3337.14	0.0006558
3346.78	0.000233
3356.43	0.0003876
3366.07	0.0006379
3375.72	0.000255
3385.36	0.0004395
3395.01	0.0004148
3404.65	0.00052378
3414.3	0.0003886
3423.94	0.0005828
3433.59	0.0003994
3443.23	0.0003945
3452.88	0.0005964
3462.52	0.000592
3472.17	0.0004091
3481.81	0.0007576
3491.46	0.0009237
3501.1	0.0004101
3510.75	0.000108
3520.39	0.000287
3530.04	0.00057242
3539.68	0.0006002
3549.32	0.000291
3558.97	0.000481449
3568.61	0.00057941
3578.26	0.0005453
3587.9	0.000246
3597.55	0.0004063
3607.19	0.00055115
3616.84	0.0004118
3626.48	0.0006432
3636.13	0.0004119
3645.77	0.00051437
3655.42	0.0006075
3665.06	0.0006194
3674.71	0.000481448
3684.35	1.3e-05
3694	0.0005996
3703.64	0.0004481
3713.29	0.00057246
3722.93	0.00053014
3732.58	0.000382
3742.22	7.7e-05
3751.86	0.00054148
3761.51	0.000297
3771.15	0.0004042
3780.8	0.0006185
3790.44	0.0004267
3800.09	0.000584
3809.73	0.0006058
3819.38	0.0010749
3829.02	0.0009094
3838.67	0.0006279
3848.31	0.0003866
3857.96	0.0008238
3867.6	0.00017
3877.25	0.000482883
3886.89	0.0004163
3896.54	0.0006079
3906.18	0.0006264
3915.83	0.0006991
3925.47	0.0008028
3935.12	0.000302
3944.76	0.0009386
3954.41	0.0006316
3964.05	0.00054673
3973.69	0.0009368
3983.34	0.0009196
3992.98	0.0008081
