Infrared Spectrum: 1-Nonadecanol
Formula: C 19 H 40 O
CAS: 1454-84-8
State: gas
Instrument: HP-GC/MS/IRD
Origin: NIST Mass Spectrometry Data Center
1/CM	ABSORBANCE
550	0.000182
562	0.000147
574	8.4e-05
586	0.000182
598	0.000105
610	0.000147
622	0.000147
634	0.000203
646	0.000119
658	0.000238
670	0.000343
682	0.00035
694	0.000469
706	0.000875
718	0.001134
730	0.00098
742	0.000812
754	0.000623
766	0.00056
778	0.000497
790	0.000462
802	0.000455
814	0.000371
826	0.000273
838	0.000448
850	0.000518
862	0.000574
874	0.000651
886	0.000672
898	0.000672
910	0.000735
922	0.000735
934	0.000812
946	0.000917
958	0.001071
970	0.001211
982	0.001456
994	0.001848
1006	0.002303
1018	0.003066
1030	0.004067
1042	0.004641
1054	0.004466
1066	0.00343
1078	0.002436
1090	0.001673
1102	0.001148
1114	0.000861
1126	0.000742
1138	0.000665
1150	0.000693
1162	0.000658
1174	0.000721
1186	0.000756
1198	0.000875
1210	0.000896
1222	0.000994
1234	0.001029
1246	0.001071
1258	0.001148
1270	0.001225
1282	0.001309
1294	0.001428
1306	0.001547
1318	0.001498
1330	0.001498
1342	0.002058
1354	0.002415
1366	0.00224
1378	0.002065
1390	0.001925
1402	0.001379
1414	0.001141
1426	0.001225
1438	0.002114
1450	0.003584
1462	0.004732
1474	0.003073
1486	0.0014
1498	0.000847
1510	0.000805
1522	0.000616
1534	0.000413
1546	0.000427
1558	0.00056
1570	0.000245
1582	0.00014
1594	0.000105
1606	0.000119
1618	0.000203
1630	0.000133
1642	0.000168
1654	0.000371
1666	0.000168
1678	0.000189
1690	0.000182
1702	0.000329
1714	0.000245
1726	0.000112
1738	0.00021
1750	0.000252
1762	0.000147
1774	0.000161
1786	0.000112
1798	0.000119
1810	5.6e-05
1822	5.6e-05
1834	7.7e-05
1846	0.000105
1858	2.8e-05
1870	8.4e-05
1882	2.1e-05
1894	3.5e-05
1906	2.8e-05
1918	4.2e-05
1930	2.1e-05
1942	4.9e-05
1954	2.1e-05
1966	2.8e-05
1978	3.5e-05
1990	4.2e-05
2002	4.2e-05
2014	7.7e-05
2026	9.8e-05
2038	9.8e-05
2050	9.1e-05
2062	5.6e-05
2074	5.6e-05
2086	4.9e-05
2098	4.9e-05
2110	2.1e-05
2122	2.8e-05
2134	2.1e-05
2146	0
2158	4.9e-05
2170	2.8e-05
2182	4.9e-05
2194	3.5e-05
2206	2.1e-05
2218	2.1e-05
2230	3.5e-05
2242	4.2e-05
2254	4.2e-05
2266	4.9e-05
2278	4.9e-05
2290	6.3e-05
2302	9.1e-05
2314	0.000119
2326	0.00014
2338	0.000154
2350	0.000133
2362	0.000161
2374	0.000133
2386	7.7e-05
2398	7e-05
2410	7.7e-05
2422	8.4e-05
2434	8.4e-05
2446	7e-05
2458	7e-05
2470	5.6e-05
2482	8.4e-05
2494	0.000119
2506	0.000119
2518	0.000154
2530	0.000182
2542	0.000175
2554	0.000203
2566	0.00021
2578	0.000231
2590	0.000287
2602	0.000322
2614	0.000357
2626	0.00042
2638	0.000462
2650	0.000546
2662	0.000609
2674	0.000679
2686	0.000756
2698	0.000728
2710	0.000714
2722	0.000749
2734	0.000798
2746	0.000903
2758	0.00098
2770	0.00112
2782	0.001337
2794	0.001694
2806	0.002128
2818	0.002912
2830	0.004158
2842	0.007224
2854	0.01785
2866	0.025809
2878	0.017325
2890	0.014749
2902	0.018949
2914	0.031185
2926	0.05978
2938	0.062937
2950	0.030828
2962	0.017479
2974	0.011109
2986	0.005488
2998	0.003255
3010	0.002205
3022	0.00161
3034	0.001225
3046	0.000987
3058	0.000805
3070	0.000644
3082	0.000546
3094	0.000455
3106	0.000448
3118	0.000364
3130	0.000343
3142	0.000308
3154	0.000287
3166	0.000273
3178	0.000245
3190	0.000217
3202	0.000196
3214	0.000154
3226	0.000147
3238	0.000154
3250	8.4e-05
3262	0.000112
3274	8.4e-05
3286	6.3e-05
3298	4.9e-05
3310	4.9e-05
3322	9.8e-05
3334	5.6e-05
3346	6.3e-05
3358	7e-05
3370	7.7e-05
3382	6.3e-05
3394	7.7e-05
3406	4.9e-05
3418	7e-05
3430	4.2e-05
3442	7e-05
3454	9.1e-05
3466	4.2e-05
3478	3.5e-05
3490	4.2e-05
3502	7e-05
3514	2.8e-05
3526	8.4e-05
3538	7e-06
3550	8.4e-05
3562	9.8e-05
3574	2.8e-05
3586	0.000161
3598	0.000133
3610	0.000266
3622	0.000287
3634	0.000329
3646	0.000679
3658	0.001078
3670	0.001379
3682	0.000728
3694	0.000371
3706	0.000217
3718	0.000196
3730	0.000238
3742	0.000294
3754	0.000196
3766	0.000126
3778	9.1e-05
3790	5.6e-05
3802	0.000154
3814	0.000147
3826	0.000126
3838	0.000252
