Infrared Spectrum: 1-Heptadecanol
Formula: C 17 H 36 O
CAS: 1454-85-9
State: gas
Instrument: HP-GC/MS/IRD
Origin: NIST Mass Spectrometry Data Center
1/CM	ABSORBANCE
550	0.001107
562	0.0002337
574	0.0001353
586	6.15e-05
598	0.0001476
610	0.0001107
622	0.0002214
634	0.0002091
646	0.0001107
658	0.0002829
670	0.0002091
682	0.0002829
694	0.0005535
706	0.0011562
718	0.0017466
730	0.0014268
742	0.0011193
754	0.0007995
766	0.0007011
778	0.0006642
790	0.0005535
802	0.0005658
814	0.0005166
826	0.0005289
838	0.0005535
850	0.0006765
862	0.000738
874	0.0008733
886	0.0010209
898	0.0010332
910	0.0011316
922	0.0011562
934	0.0013038
946	0.0014514
958	0.0016974
970	0.0019434
982	0.0024846
994	0.0031488
1006	0.0040959
1018	0.0056211
1030	0.0075153
1042	0.0087945
1054	0.0086469
1066	0.0065805
1078	0.0047232
1090	0.0031611
1102	0.0021648
1114	0.0016482
1126	0.001353
1138	0.0012669
1150	0.0011808
1162	0.0012792
1174	0.001353
1186	0.0014514
1198	0.0015375
1210	0.001722
1222	0.0017835
1234	0.0018696
1246	0.0020172
1258	0.002091
1270	0.0022017
1282	0.0023124
1294	0.0025707
1306	0.0027429
1318	0.0025584
1330	0.0026568
1342	0.0035547
1354	0.0042435
1366	0.0038745
1378	0.0037146
1390	0.0034317
1402	0.0023985
1414	0.0019065
1426	0.002091
1438	0.0034317
1450	0.0061623
1462	0.0080688
1474	0.0051537
1486	0.0023001
1498	0.0012054
1510	0.0007011
1522	0.0005043
1534	0.000369
1546	0.0002583
1558	0.0002214
1570	0.0002337
1582	0.0001845
1594	0.0001722
1606	9.84e-05
1618	0.0001107
1630	0.0001107
1642	9.84e-05
1654	3.69e-05
1666	7.38e-05
1678	7.38e-05
1690	7.38e-05
1702	2.46e-05
1714	0
1726	3.69e-05
1738	1.23e-05
1750	6.15e-05
1762	3.69e-05
1774	4.92e-05
1786	4.92e-05
1798	3.69e-05
1810	6.15e-05
1822	2.46e-05
1834	4.92e-05
1846	2.46e-05
1858	4.92e-05
1870	1.23e-05
1882	2.46e-05
1894	3.69e-05
1906	6.15e-05
1918	3.69e-05
1930	6.15e-05
1942	7.38e-05
1954	4.92e-05
1966	7.38e-05
1978	7.38e-05
1990	8.61e-05
2002	0.0001353
2014	0.0001599
2026	0.0001845
2038	0.0001845
2050	0.0001722
2062	0.0001599
2074	0.0001476
2086	0.0001476
2098	0.000123
2110	7.38e-05
2122	7.38e-05
2134	7.38e-05
2146	0.0001107
2158	9.84e-05
2170	0.0001107
2182	0.000123
2194	9.84e-05
2206	8.61e-05
2218	7.38e-05
2230	8.61e-05
2242	9.84e-05
2254	9.84e-05
2266	9.84e-05
2278	0.0001107
2290	0.0001353
2302	0.000123
2314	0.0001107
2326	9.84e-05
2338	9.84e-05
2350	8.61e-05
2362	6.15e-05
2374	0.0001107
2386	9.84e-05
2398	0.0001353
2410	7.38e-05
2422	8.61e-05
2434	9.84e-05
2446	0.0001107
2458	0.000123
2470	6.15e-05
2482	9.84e-05
2494	0.0001353
2506	0.0001722
2518	0.0001845
2530	0.000246
2542	0.0002583
2554	0.0002829
2566	0.0002952
2578	0.000369
2590	0.0004059
2602	0.000492
2614	0.0005535
2626	0.0006396
2638	0.0007626
2650	0.0008364
2662	0.0010086
2674	0.0011808
2686	0.0012177
2698	0.0012054
2710	0.0011316
2722	0.0012054
2734	0.0013899
2746	0.0015375
2758	0.0016728
2770	0.0019065
2782	0.0023124
2794	0.0028782
2806	0.0037392
2818	0.0050922
2830	0.0073554
2842	0.0127182
2854	0.0309714
2866	0.045264
2878	0.0314388
2890	0.0266787
2902	0.0336897
2914	0.0550671
2926	0.104636
2938	0.111561
2950	0.0560019
2962	0.0324597
2974	0.0209715
2986	0.0101229
2998	0.0058671
3010	0.0039237
3022	0.0027921
3034	0.0020664
3046	0.0015621
3058	0.0012546
3070	0.0010332
3082	0.0008364
3094	0.000738
3106	0.0006396
3118	0.0005289
3130	0.000492
3142	0.0004551
3154	0.0004059
3166	0.0003321
3178	0.0002952
3190	0.0002583
3202	0.0001968
3214	0.0001722
3226	0.0001353
3238	9.84e-05
3250	3.69e-05
3262	7.38e-05
3274	0.000123
3286	6.15e-05
3298	9.84e-05
3310	7.38e-05
3322	0.0001107
3334	0.0001107
3346	9.84e-05
3358	8.61e-05
3370	0.0001107
3382	0.0001107
3394	8.61e-05
3406	0.000123
3418	0.000123
3430	0.0001353
3442	0.0001107
3454	0.0001599
3466	0.0001599
3478	0.0001476
3490	0.0001107
3502	0.000123
3514	7.38e-05
3526	0.0001599
3538	0.0001476
3550	4.92e-05
3562	9.84e-05
3574	0.0001722
3586	0.0002091
3598	0.0002337
3610	0.0003198
3622	0.000492
3634	0.0006273
3646	0.0011439
3658	0.0021402
3670	0.0024108
3682	0.0015252
3694	0.0007995
3706	0.0004305
3718	0.0003444
3730	0.0003444
3742	0.0002583
3754	0.0002952
3766	0.0003198
3778	0.0002952
3790	0.0003567
3802	0.0002829
3814	0.0003567
3826	0.0003075
3838	0.0003321
