Infrared Spectrum: 3,9-Bis(1,1-Dimethyl-2-hydroxyethyl)2,4,8,10-tetraoxaspiro[5,5]undecane
Formula: C 15 H 28 O 6
CAS: 1455-42-1
State: gas
Origin: EPA-IR VAPOR PHASE LIBRARY
1/CM	ABSORBANCE
549.9	0.0006109
559.547	0.0004618
569.193	0.00037067
578.84	0.0002922
588.486	0.000592
598.133	0.0004831
607.779	0.0004099
617.426	0.00040658
627.072	0.0003027
636.719	0.00041456
646.365	0.00040697
656.012	0.0004628
665.658	0.0003239
675.305	0.0004757
684.951	0.00043263
694.598	0.0005177
704.245	0.0008279
713.891	0.002584
723.538	0.0010069
733.184	0.0006604
742.831	0.0004698
752.477	0.0004679
762.124	0.0005117
771.77	0.000452
781.417	0.0006421
791.063	0.0006876
800.71	0.000531
810.356	0.0005603
820.003	0.0005625
829.649	0.0005066
839.296	0.0005698
848.943	0.0005417
858.589	0.0005204
868.236	0.0006612
877.882	0.0007297
887.529	0.0008791
897.175	0.0011381
906.822	0.001344
916.468	0.001484
926.115	0.001494
935.761	0.002294
945.408	0.003094
955.054	0.003434
964.701	0.002454
974.347	0.001994
983.994	0.002154
993.64	0.002544
1003.29	0.003374
1012.93	0.003874
1022.58	0.005064
1032.23	0.007274
1041.87	0.008854
1051.52	0.009764
1061.17	0.008094
1070.81	0.006534
1080.46	0.010324
1090.11	0.019294
1099.75	0.010184
1109.4	0.004994
1119.05	0.004114
1128.69	0.005154
1138.34	0.004584
1147.99	0.004894
1157.63	0.008204
1167.28	0.010294
1176.92	0.005644
1186.57	0.004764
1196.22	0.005674
1205.86	0.003994
1215.51	0.002404
1225.16	0.002084
1234.8	0.001864
1244.45	0.001894
1254.1	0.001834
1263.74	0.0013169
1273.39	0.0010887
1283.04	0.0011216
1292.68	0.0010619
1302.33	0.001057
1311.98	0.0010212
1321.62	0.0013108
1331.27	0.001674
1340.92	0.001374
1350.56	0.0012925
1360.21	0.002044
1369.86	0.003424
1379.5	0.003854
1389.15	0.002694
1398.79	0.002664
1408.44	0.002494
1418.09	0.002134
1427.73	0.001384
1437.38	0.0011973
1447.03	0.001384
1456.67	0.002304
1466.32	0.002764
1475.97	0.003234
1485.61	0.002144
1495.26	0.0009443
1504.91	0.0006354
1514.55	0.0005919
1524.2	0.000554
1533.85	0.0005429
1543.49	0.0004868
1553.14	0.0004476
1562.79	0.00042475
1572.43	0.00043373
1582.08	0.00036862
1591.73	0.00036206
1601.37	0.00038225
1611.02	0.00036482
1620.67	0.00036386
1630.31	0.000344637
1639.96	0.000345995
1649.6	0.00035883
1659.25	0.0003334
1668.9	0.00037994
1678.54	0.00036936
1688.19	0.000349136
1697.84	0.00041304
1707.48	0.0003775
1717.13	0.0004476
1726.78	0.00041456
1736.42	0.000381
1746.07	0.00040316
1755.72	0.00041132
1765.36	0.00035917
1775.01	0.00033591
1784.66	0.00039631
1794.3	0.0003326
1803.95	0.00034289
1813.6	0.0003768
1823.24	0.0003854
1832.89	0.0003334
1842.54	0.0003318
1852.18	0.0002904
1861.83	0.0002756
1871.47	0.0003174
1881.12	0.000351975
1890.77	0.0003204
1900.41	0.000345565
1910.06	0.0003179
1919.71	0.0003109
1929.35	0.0002759
1939	0.000344954
1948.65	0.0003139
1958.29	0.000312
1967.94	0.0003101
1977.59	0.00034229
1987.23	0.00040002
1996.88	0.00038369
2006.53	0.000351089
2016.17	0.00036117
2025.82	0.00036287
2035.47	0.00036897
2045.11	0.00033851
2054.76	0.00036071
2064.41	0.00036854
2074.05	0.0003395
2083.7	0.0003156
2093.35	0.000324
2102.99	0.0002795
2112.64	0.0003124
2122.28	0.0002724
2131.93	0.0002448
2141.58	0.0002518
2151.22	0.0002771
2160.87	0.00022
2170.52	0.0002454
2180.16	0.000211
2189.81	0.0002882
2199.46	0.000241
2209.1	0.000232
2218.75	0.000191
2228.4	0.0002444
2238.04	0.000201
2247.69	0.000205
2257.34	0.000239
2266.98	0.0002785
2276.63	0.000231
2286.28	0.000222
2295.92	0.0002501
2305.57	0.000226
2315.22	0.000232
2324.86	0.0002514
2334.51	0.000239
2344.16	0.000191
2353.8	0.0002612
2363.45	0.000239
2373.09	0.000266
2382.74	0.000177
2392.39	0.000182
2402.03	0.000224
2411.68	0.000181
2421.33	0.000187
2430.97	0.000179
2440.62	0.000211
2450.27	0.000161
2459.91	0.000149
2469.56	0.000167
2479.21	0.000177
2488.85	0.000165
2498.5	0.000125
2508.15	0.000107
2517.79	0.000126
2527.44	0.000171
2537.09	0.000148
2546.73	0.000193
2556.38	0.000181
2566.03	0.000149
2575.67	0.000221
2585.32	0.000211
2594.96	0.00017
2604.61	0.000181
2614.26	0.000205
2623.9	0.0002631
2633.55	0.0002655
2643.2	0.000346054
2652.84	0.0005027
2662.49	0.0004629
2672.14	0.0004521
2681.78	0.00040312
2691.43	0.0004127
2701.08	0.0005145
2710.72	0.0006563
2720.37	0.0006453
2730.02	0.0005696
2739.66	0.0006176
2749.31	0.0006125
2758.96	0.0006178
2768.6	0.000729
2778.25	0.0007425
2787.9	0.0008379
2797.54	0.0009799
2807.19	0.0012326
2816.84	0.001594
2826.48	0.002344
2836.13	0.004244
2845.77	0.007254
2855.42	0.006894
2865.07	0.003794
2874.71	0.003294
2884.36	0.003774
2894.01	0.003184
2903.65	0.002884
2913.3	0.003424
2922.95	0.003774
2932.59	0.004604
2942.24	0.004964
2951.89	0.006394
2961.53	0.006634
2971.18	0.005384
2980.83	0.004304
2990.47	0.004614
3000.12	0.001964
3009.77	0.0006218
3019.41	0.0003247
3029.06	0.0002883
3038.71	9.8e-05
3048.35	0.000154
3058	0.000239
3067.64	0.000206
3077.29	0.000146
3086.94	0.000192
3096.58	9.9e-05
3106.23	9.7e-05
3115.88	6.6e-05
3125.52	0.0002507
3135.17	0.0002
3144.82	0.0002643
3154.46	0.000221
3164.11	0.0002486
3173.76	0.000196
3183.4	0.000241
3193.05	7.3e-05
3202.7	0.000167
3212.34	0.000151
3221.99	0.000199
3231.64	0.000187
3241.28	0.0003212
3250.93	0.00040185
3260.58	0.000234
3270.22	9.9e-05
3279.87	0.0002544
3289.52	0.00011
3299.16	0.000189
3308.81	0.000199
3318.45	0.000144
3328.1	0.000312
3337.75	0.0002613
3347.39	0.0002986
3357.04	0.0002501
3366.69	0.000237
3376.33	0.0002652
3385.98	0.000409
3395.63	0.00033777
3405.27	0.000289
3414.92	0.00044207
3424.57	0.0004614
3434.21	0.0002843
3443.86	0.00036561
3453.51	0.00036
3463.15	0.0004969
3472.8	0.00040593
3482.45	0.00039758
3492.09	0.00035782
3501.74	0.0004448
3511.39	0.00043579
3521.03	0.000347411
3530.68	0.00043572
3540.33	0.0004794
3549.97	0.00035488
3559.62	0.00039818
3569.26	0.0005102
3578.91	0.0005312
3588.56	0.0007232
3598.2	0.002114
3607.85	0.002994
3617.5	0.001954
3627.14	0.0012486
3636.79	0.0008991
3646.44	0.0005727
3656.08	0.0006586
3665.73	0.0009624
3675.38	0.0010534
3685.02	0.0007556
3694.67	0.0003568
3704.32	0.0002634
3713.96	0.00040189
3723.61	0.00040622
3733.26	0.00039643
3742.9	0.0004614
3752.55	0.0002697
3762.2	0.000301
3771.84	0.00037709
3781.49	0.000169
3791.13	0.0003297
3800.78	0.0002787
3810.43	0.0002588
3820.07	0.0002748
3829.72	0.000184
3839.37	0.0002548
3849.01	0.00036449
3858.66	0.000191
3868.31	0.000229
3877.95	0.0002442
3887.6	0.000181
3897.25	0.000239
3906.89	0.000185
3916.54	0.000105
3926.19	0.000164
3935.83	0.000189
3945.48	0.0002536
3955.13	0.0002759
3964.77	0.000109
3974.42	0.000206
3984.07	0.0002
3993.71	0.000158
