Infrared Spectrum: 3-Methylbenzo[b]thiophene
Formula: C 9 H 8 S
CAS: 1455-18-1
State: gas
Origin: EPA-IR VAPOR PHASE LIBRARY
1/CM	ABSORBANCE
549.8	0.00387
559.445	0.00266
569.09	0.002227
578.734	0.003401
588.379	0.002405
598.024	0.0032125
607.669	0.00195
617.313	0.0028896
626.958	0.0032181
636.603	0.0029784
646.248	0.0030279
655.893	0.0029183
665.537	0.00279003
675.182	0.0034535
684.827	0.0031232
694.472	0.0058
704.116	0.00961
713.761	0.01961
723.406	0.03362
733.051	0.02455
742.695	0.02216
752.34	0.0283
761.985	0.02864
771.63	0.01918
781.275	0.01163
790.919	0.00412
800.564	0.0028832
810.209	0.0033166
819.854	0.00541
829.498	0.01293
839.143	0.01537
848.788	0.01067
858.433	0.00433
868.078	0.002561
877.722	0.0032169
887.367	0.0030617
897.012	0.0031547
906.657	0.0031956
916.301	0.0037906
925.946	0.0037815
935.591	0.00398
945.236	0.0031628
954.88	0.0031457
964.525	0.00436
974.17	0.00492
983.815	0.00479
993.46	0.00444
1003.1	0.00382
1012.75	0.00776
1022.39	0.00643
1032.04	0.00463
1041.68	0.0033617
1051.33	0.00382
1060.97	0.0064
1070.62	0.00698
1080.26	0.01034
1089.91	0.01175
1099.55	0.00549
1109.2	0.00285229
1118.84	0.002691
1128.49	0.00474
1138.13	0.00528
1147.78	0.00553
1157.42	0.0057
1167.07	0.00436
1176.71	0.0033007
1186.36	0.002134
1196	0.001991
1205.64	0.00142
1215.29	0.0032543
1224.93	0.0027894
1234.58	0.0034
1244.22	0.00466
1253.87	0.00656
1263.51	0.00769
1273.16	0.00633
1282.8	0.0048
1292.45	0.00433
1302.09	0.00497
1311.74	0.00549
1321.38	0.00545
1331.03	0.00545
1340.67	0.00747
1350.32	0.00839
1359.96	0.00675
1369.61	0.00422
1379.25	0.0049
1388.9	0.00497
1398.54	0.00438
1408.18	0.00607
1417.83	0.01112
1427.47	0.01408
1437.12	0.01281
1446.76	0.01168
1456.41	0.01184
1466.05	0.01049
1475.7	0.00714
1485.34	0.00542
1494.99	0.0052
1504.63	0.00556
1514.28	0.00684
1523.92	0.00779
1533.57	0.00694
1543.21	0.00491
1552.86	0.0036981
1562.5	0.00433
1572.15	0.0042
1581.79	0.00486
1591.44	0.00463
1601.08	0.00424
1610.73	0.003736
1620.37	0.0031858
1630.01	0.0031284
1639.66	0.0031689
1649.3	0.0034366
1658.95	0.0034791
1668.59	0.00407
1678.24	0.00416
1687.88	0.00392
1697.53	0.0034141
1707.17	0.0029139
1716.82	0.00288156
1726.46	0.0030193
1736.11	0.0030188
1745.75	0.00280035
1755.4	0.0032216
1765.04	0.0037811
1774.69	0.00417
1784.33	0.00384
1793.98	0.0034714
1803.62	0.0037946
1813.27	0.0036858
1822.91	0.0031044
1832.55	0.0027897
1842.2	0.002594
1851.84	0.0030307
1861.49	0.0032335
1871.13	0.0033131
1880.78	0.0033959
1890.42	0.00401
1900.07	0.00381
1909.71	0.0033151
1919.36	0.0037525
1929	0.00406
1938.65	0.0036867
1948.29	0.002539
1957.94	0.0025
1967.58	0.002525
1977.23	0.0027034
1986.87	0.002642
1996.52	0.0029341
2006.16	0.0029838
2015.81	0.0027073
2025.45	0.002604
2035.1	0.002212
2044.74	0.002346
2054.38	0.002273
2064.03	0.002579
2073.67	0.002584
2083.32	0.0027798
2092.96	0.002554
2102.61	0.002672
2112.25	0.002562
2121.9	0.002458
2131.54	0.002382
2141.19	0.002481
2150.83	0.002443
2160.48	0.002533
2170.12	0.002221
2179.77	0.00280452
2189.41	0.002666
2199.06	0.002566
2208.7	0.002415
2218.35	0.002548
2227.99	0.0027158
2237.64	0.0027795
2247.28	0.002732
2256.92	0.002581
2266.57	0.002446
2276.21	0.0027452
2285.86	0.002488
2295.5	0.002647
2305.15	0.002374
2314.79	0.0027114
2324.44	0.002964
2334.08	0.0031064
2343.73	0.0030472
2353.37	0.0030041
2363.02	0.0030681
2372.66	0.00282893
2382.31	0.002453
2391.95	0.0030078
2401.6	0.0027579
2411.24	0.002683
2420.89	0.0027413
2430.53	0.0027005
2440.18	0.0027142
2449.82	0.002508
2459.47	0.002594
2469.11	0.002696
2478.75	0.00233
2488.4	0.002409
2498.04	0.002581
2507.69	0.0030597
2517.33	0.002622
2526.98	0.002459
2536.62	0.002607
2546.27	0.002664
2555.91	0.00284872
2565.56	0.0029595
2575.2	0.002178
2584.85	0.0027552
2594.49	0.00281035
2604.14	0.0030224
2613.78	0.0029542
2623.43	0.002648
2633.07	0.0029386
2642.72	0.002658
2652.36	0.002488
2662.01	0.002395
2671.65	0.002615
2681.29	0.0027724
2690.94	0.002613
2700.58	0.002666
2710.23	0.002653
2719.87	0.00287686
2729.52	0.00280488
2739.16	0.0033408
2748.81	0.0029896
2758.45	0.0031679
2768.1	0.0027308
2777.74	0.00279759
2787.39	0.002643
2797.03	0.0027258
2806.68	0.002687
2816.32	0.0027558
2825.97	0.0031941
2835.61	0.0034766
2845.26	0.0041
2854.9	0.0056
2864.55	0.00737
2874.19	0.00864
2883.84	0.00868
2893.48	0.00686
2903.12	0.00697
2912.77	0.00947
2922.41	0.0146
2932.06	0.0169
2941.7	0.01484
2951.35	0.01293
2960.99	0.00985
2970.64	0.00908
2980.28	0.01109
2989.93	0.00967
2999.57	0.00613
3009.22	0.00624
3018.86	0.00675
3028.51	0.00745
3038.15	0.00842
3047.8	0.00904
3057.44	0.01558
3067.09	0.02512
3076.73	0.02457
3086.38	0.01541
3096.02	0.00771
3105.67	0.00559
3115.31	0.00445
3124.95	0.0033145
3134.6	0.0029957
3144.24	0.002201
3153.89	0.002236
3163.53	0.002081
3173.18	0.002386
3182.82	0.002421
3192.47	0.002437
3202.11	0.0032523
3211.76	0.002448
3221.4	0.002637
3231.05	0.0029653
3240.69	0.002544
3250.34	0.002261
3259.98	0.002317
3269.63	0.002342
3279.27	0.00288067
3288.92	0.002281
3298.56	0.002696
3308.21	0.0029001
3317.85	0.0029331
3327.49	0.003048
3337.14	0.0027772
3346.78	0.0029759
3356.43	0.002471
3366.07	0.0029241
3375.72	0.0030958
3385.36	0.002403
3395.01	0.002077
3404.65	0.002163
3414.3	0.0027783
3423.94	0.002636
3433.59	0.0026
3443.23	0.002338
3452.88	0.0027751
3462.52	0.002259
3472.17	0.0033343
3481.81	0.002001
3491.46	0.001991
3501.1	0.002329
3510.75	0.002479
3520.39	0.002326
3530.04	0.00284159
3539.68	0.00279157
3549.32	0.002558
3558.97	0.00253
3568.61	0.0030323
3578.26	0.0027439
3587.9	0.0027458
3597.55	0.002668
3607.19	0.0027596
3616.84	0.0029743
3626.48	0.001823
3636.13	0.002316
3645.77	0.0030257
3655.42	0.0029265
3665.06	0.002348
3674.71	0.0027527
3684.35	0.003123
3694	0.0034747
3703.64	0.00155
3713.29	0.00284251
3722.93	0.0032096
3732.58	0.002667
3742.22	0.002587
3751.86	0.002209
3761.51	0.0030188
3771.15	0.002455
3780.8	0.0030456
3790.44	0.001882
3800.09	0.00279268
3809.73	0.0027119
3819.38	0.0027133
3829.02	0.00223
3838.67	0.0032598
3848.31	0.002411
3857.96	0.0027183
3867.6	0.0029585
3877.25	0.002556
3886.89	0.0030258
3896.54	0.0027846
3906.18	0.0030916
3915.83	0.002554
3925.47	0.002308
3935.12	0.0030093
3944.76	0.0029948
3954.41	0.00285218
3964.05	0.002393
3973.69	0.002282
3983.34	0.002059
3992.98	0.002384
