Infrared Spectrum: 2,3-Difluorophenylacetonitrile
Formula: C 8 H 5 F 2 N
CAS: 145689-34-5
State: gas
Origin: EPA-IR VAPOR PHASE LIBRARY
1/CM	ABSORBANCE
549.8	0.00249
559.445	0.00372
569.09	0.00352
578.734	0.00315
588.379	0.00346
598.024	0.00483
607.669	0.00352
617.313	0.00297
626.958	0.0019466
636.603	0.001203
646.248	0.0023992
655.893	0.00274
665.537	0.0026
675.182	0.00389
684.827	0.00502
694.472	0.00795
704.116	0.00989
713.761	0.01426
723.406	0.01718
733.051	0.01532
742.695	0.01254
752.34	0.012
761.985	0.01781
771.63	0.02691
781.275	0.02497
790.919	0.01439
800.564	0.00668
810.209	0.00759
819.854	0.014
829.498	0.01432
839.143	0.00758
848.788	0.00395
858.433	0.00293
868.078	0.00283
877.722	0.00314
887.367	0.00368
897.012	0.00743
906.657	0.01353
916.301	0.01326
925.946	0.00592
935.591	0.00312
945.236	0.00367
954.88	0.00247
964.525	0.00292
974.17	0.00407
983.815	0.00708
993.46	0.01572
1003.1	0.01962
1012.75	0.0122
1022.39	0.00653
1032.04	0.00461
1041.68	0.00265
1051.33	0.00411
1060.97	0.00787
1070.62	0.00861
1080.26	0.00483
1089.91	0.002149
1099.55	0.00344
1109.2	0.00272
1118.84	0.0019536
1128.49	0.000669
1138.13	0.00321
1147.78	0.00150604
1157.42	0.00317
1167.07	0.00351
1176.71	0.00491
1186.36	0.00969
1196	0.01454
1205.64	0.02113
1215.29	0.02389
1224.93	0.01997
1234.58	0.01396
1244.22	0.00994
1253.87	0.01233
1263.51	0.01494
1273.16	0.0259
1282.8	0.0487
1292.45	0.0551
1302.09	0.03516
1311.74	0.01915
1321.38	0.01465
1331.03	0.01059
1340.67	0.00582
1350.32	0.00359
1359.96	0.00287
1369.61	0.00259
1379.25	0.00254
1388.9	0.00254
1398.54	0.00315
1408.18	0.00434
1417.83	0.00737
1427.47	0.00956
1437.12	0.00827
1446.76	0.0065
1456.41	0.01015
1466.05	0.0222
1475.7	0.04755
1485.34	0.08595
1494.99	0.11837
1504.63	0.09856
1514.28	0.04047
1523.92	0.01521
1533.57	0.00715
1543.21	0.00591
1552.86	0.00604
1562.5	0.00586
1572.15	0.00577
1581.79	0.00755
1591.44	0.0111
1601.08	0.01349
1610.73	0.01239
1620.37	0.01761
1630.01	0.01765
1639.66	0.00823
1649.3	0.00338
1658.95	0.00265
1668.59	0.00271
1678.24	0.00261
1687.88	0.0023861
1697.53	0.0021828
1707.17	0.0022902
1716.82	0.0022125
1726.46	0.0023956
1736.11	0.0019591
1745.75	0.0021627
1755.4	0.0022247
1765.04	0.00256
1774.69	0.0019375
1784.33	0.0019078
1793.98	0.0019203
1803.62	0.0017595
1813.27	0.0020678
1822.91	0.0018721
1832.55	0.00258
1842.2	0.00289
1851.84	0.00258
1861.49	0.0020381
1871.13	0.001877
1880.78	0.0020652
1890.42	0.0021212
1900.07	0.002032
1909.71	0.0024042
1919.36	0.0023561
1929	0.002346
1938.65	0.0019327
1948.29	0.0016387
1957.94	0.00144786
1967.58	0.00146056
1977.23	0.00140124
1986.87	0.0017552
1996.52	0.0016724
2006.16	0.0018422
2015.81	0.0017627
2025.45	0.0017418
2035.1	0.0017183
2044.74	0.00145682
2054.38	0.0013741
2064.03	0.0018639
2073.67	0.001396
2083.32	0.00140258
2092.96	0.0016859
2102.61	0.0018285
2112.25	0.0016528
2121.9	0.00145112
2131.54	0.0016486
2141.19	0.0015701
2150.83	0.0015427
2160.48	0.00146261
2170.12	0.0015664
2179.77	0.0019192
2189.41	0.0013585
2199.06	0.0016393
2208.7	0.0016854
2218.35	0.001571
2227.99	0.0017142
2237.64	0.0016935
2247.28	0.0016905
2256.92	0.0019457
2266.57	0.0016061
2276.21	0.0014258
2285.86	0.0015927
2295.5	0.00141252
2305.15	0.0018128
2314.79	0.0018658
2324.44	0.0018042
2334.08	0.0019368
2343.73	0.001811
2353.37	0.0018035
2363.02	0.0017032
2372.66	0.00127
2382.31	0.001307
2391.95	0.001285
2401.6	0.0016197
2411.24	0.0018131
2420.89	0.0015933
2430.53	0.0019998
2440.18	0.0016261
2449.82	0.001695
2459.47	0.0016828
2469.11	0.0015476
2478.75	0.0021843
2488.4	0.0016963
2498.04	0.002107
2507.69	0.0018362
2517.33	0.0016251
2526.98	0.001662
2536.62	0.0018998
2546.27	0.0017662
2555.91	0.00127
2565.56	0.0016495
2575.2	0.0016755
2584.85	0.00147843
2594.49	0.002094
2604.14	0.0013556
2613.78	0.0016335
2623.43	0.0017496
2633.07	0.0016281
2642.72	0.001244
2652.36	0.0015335
2662.01	0.000965
2671.65	0.000904
2681.29	0.00125
2690.94	0.000702
2700.58	0.001207
2710.23	0.00140217
2719.87	0.001194
2729.52	0.0012
2739.16	0.0015733
2748.81	0.001134
2758.45	0.001292
2768.1	0.00145931
2777.74	0.001157
2787.39	0.001173
2797.03	0.001122
2806.68	0.001061
2816.32	0.00141558
2825.97	0.001196
2835.61	0.0018755
2845.26	0.0015455
2854.9	0.00142085
2864.55	0.0019519
2874.19	0.001036
2883.84	0.001259
2893.48	0.00144955
2903.12	0.0013535
2912.77	0.0016105
2922.41	0.001639
2932.06	0.00251
2941.7	0.00272
2951.35	0.00246
2960.99	0.0018223
2970.64	0.0017143
2980.28	0.0015334
2989.93	0.0017882
2999.57	0.0016136
3009.22	0.001158
3018.86	0.0016237
3028.51	0.0019179
3038.15	0.0022119
3047.8	0.00306
3057.44	0.00327
3067.09	0.00367
3076.73	0.00374
3086.38	0.00315
3096.02	0.0023156
3105.67	0.0020504
3115.31	0.0019033
3124.95	0.0015976
3134.6	0.0018496
3144.24	0.000952
3153.89	0.000771
3163.53	0.0013562
3173.18	0.0015467
3182.82	0.000662
3192.47	0.000936
3202.11	0.0013235
3211.76	0.001227
3221.4	0.000938
3231.05	0.00142924
3240.69	0.001217
3250.34	0.001041
3259.98	0.0016634
3269.63	0.001124
3279.27	0.000831
3288.92	0.0013294
3298.56	0.000825
3308.21	0.00038
3317.85	0.001155
3327.49	0.00145234
3337.14	0.001155
3346.78	0.001117
3356.43	0.000795
3366.07	0.00148734
3375.72	0.0009
3385.36	0.001263
3395.01	0.0017356
3404.65	0.001194
3414.3	0.0013602
3423.94	0.000497
3433.59	0.0016112
3443.23	0.000472
3452.88	0.000875
3462.52	0.00116
3472.17	0.00106
3481.81	0.000584
3491.46	0.0015575
3501.1	0.001018
3510.75	0.001193
3520.39	0.0014027
3530.04	0.0016161
3539.68	0.001219
3549.32	0.000921
3558.97	0.00148051
3568.61	0.0017485
3578.26	0.001049
3587.9	0.0018265
3597.55	0.000944
3607.19	0.000688
3616.84	0.0013641
3626.48	0.00148113
3636.13	0.0017225
3645.77	0.001109
3655.42	0.0017024
3665.06	0.0016481
3674.71	0.001175
3684.35	0.0016195
3694	0.00142609
3703.64	0.00122
3713.29	0.001062
3722.93	0.00147046
3732.58	0.000796
3742.22	0.001372
3751.86	0.001199
3761.51	0.0017594
3771.15	0.0013424
3780.8	0.00114
3790.44	0.000905
3800.09	0.001095
3809.73	0.0013108
3819.38	0.001165
3829.02	0.0015956
3838.67	0.000961
3848.31	0.000979
3857.96	0.001235
3867.6	0.0016833
3877.25	0.000972
3886.89	0.000509
3896.54	0.000868
3906.18	0.0018202
3915.83	0.00106
3925.47	0.001135
3935.12	0.0013241
3944.76	0.0013426
3954.41	0.001007
3964.05	0.000771
3973.69	0.001105
3983.34	0.0016136
3992.98	0.000757
