Infrared Spectrum: Ethyl oxanilate
Formula: C 10 H 11 N O 3
CAS: 1457-85-8
State: gas
Origin: EPA-IR VAPOR PHASE LIBRARY
1/CM	ABSORBANCE
549.8	0.012769
559.445	0.014619
569.09	0.017009
578.735	0.017159
588.38	0.014049
598.025	0.011679
607.67	0.010769
617.315	0.010819
626.96	0.010019
636.605	0.009219
646.251	0.007459
655.896	0.006699
665.541	0.008639
675.186	0.015149
684.831	0.024669
694.476	0.022289
704.121	0.013279
713.766	0.009349
723.411	0.010509
733.056	0.019259
742.701	0.037289
752.346	0.042159
761.991	0.027009
771.636	0.017479
781.281	0.011979
790.926	0.008229
800.571	0.006769
810.216	0.006269
819.861	0.005909
829.507	0.007119
839.152	0.012179
848.797	0.012849
858.442	0.007889
868.087	0.008029
877.732	0.007349
887.377	0.006369
897.022	0.007309
906.667	0.008309
916.312	0.009969
925.957	0.010309
935.602	0.009089
945.247	0.005929
954.892	0.004199
964.537	0.004009
974.182	0.004609
983.827	0.006099
993.472	0.009219
1003.12	0.016779
1012.76	0.032499
1022.41	0.038129
1032.05	0.021259
1041.7	0.012679
1051.34	0.010059
1060.99	0.011169
1070.63	0.015789
1080.28	0.016479
1089.92	0.018059
1099.57	0.027389
1109.21	0.028249
1118.86	0.033459
1128.5	0.054659
1138.15	0.092479
1147.79	0.150529
1157.44	0.150729
1167.08	0.084749
1176.73	0.049649
1186.37	0.032239
1196.02	0.022769
1205.66	0.023989
1215.31	0.032599
1224.95	0.039319
1234.6	0.042569
1244.24	0.042699
1253.89	0.052259
1263.53	0.089789
1273.18	0.181709
1282.82	0.256999
1292.47	0.181919
1302.11	0.105489
1311.76	0.066399
1321.4	0.036349
1331.05	0.021929
1340.69	0.015509
1350.34	0.012959
1359.98	0.014389
1369.63	0.028989
1379.27	0.025689
1388.92	0.015399
1398.56	0.015849
1408.21	0.015479
1417.85	0.016009
1427.5	0.022569
1437.14	0.047119
1446.79	0.057429
1456.43	0.025199
1466.08	0.021919
1475.73	0.024919
1485.37	0.028899
1495.02	0.049739
1504.66	0.077839
1514.31	0.112949
1523.95	0.162719
1533.6	0.148129
1543.24	0.066459
1552.89	0.029859
1562.53	0.020249
1572.18	0.018959
1581.82	0.025329
1591.47	0.050009
1601.11	0.082109
1610.76	0.043579
1620.4	0.014349
1630.05	0.008489
1639.69	0.006899
1649.34	0.006799
1658.98	0.007259
1668.63	0.008649
1678.27	0.011179
1687.92	0.016339
1697.56	0.025539
1707.21	0.041919
1716.85	0.085519
1726.5	0.193319
1736.14	0.298109
1745.79	0.199619
1755.43	0.076449
1765.08	0.041059
1774.72	0.038109
1784.37	0.041059
1794.01	0.027899
1803.66	0.013869
1813.3	0.008849
1822.95	0.006299
1832.59	0.004899
1842.24	0.004319
1851.88	0.004209
1861.53	0.004019
1871.17	0.003689
1880.82	0.003199
1890.46	0.002449
1900.11	0.002019
1909.75	0.001999
1919.4	0.002079
1929.04	0.002609
1938.69	0.002639
1948.33	0.002449
1957.98	0.001879
1967.62	0.0010326
1977.27	0.00091267
1986.91	0.00088097
1996.56	0.00094271
2006.2	0.0009997
2015.85	0.000986
2025.49	0.0009825
2035.14	0.00089098
2044.78	0.00088258
2054.43	0.00089068
2064.07	0.0010486
2073.72	0.0010572
2083.36	0.0009982
2093.01	0.0009941
2102.65	0.00093628
2112.3	0.00092217
2121.94	0.00092538
2131.59	0.00085547
2141.23	0.00089414
2150.88	0.00087924
2160.52	0.0008355
2170.17	0.000668
2179.81	0.00053
2189.46	0.00048
2199.1	0.000468
2208.75	0.000548
2218.39	0.000513
2228.04	0.000387
2237.68	0.000394
2247.33	0.000408
2256.97	0.000452
2266.62	0.00041
2276.26	0.000474
2285.91	0.000429
2295.55	0.000442
2305.2	0.000523
2314.84	0.0007648
2324.49	0.000629
2334.13	0.000635
2343.78	0.000662
2353.42	0.000748
2363.07	0.0008174
2372.72	0.0008333
2382.36	0.000757
2392.01	0.000758
2401.65	0.000758
2411.3	0.000739
2420.94	0.000673
2430.59	0.0007887
2440.23	0.0008284
2449.88	0.0008458
2459.52	0.0007753
2469.17	0.000755
2478.81	0.000665
2488.46	0.000468
2498.1	0.000526
2507.75	0.000573
2517.39	0.000621
2527.04	0.000637
2536.68	0.000564
2546.33	0.000664
2555.97	0.000644
2565.62	0.000604
2575.26	0.000616
2584.91	0.00064
2594.55	0.000561
2604.2	0.000507
2613.84	0.000458
2623.49	0.000458
2633.13	0.00035
2642.78	0.000628
2652.42	0.00088382
2662.07	0.00095524
2671.71	0.0010398
2681.36	0.0010059
2691	0.000607
2700.65	0.000369
2710.29	0.000304
2719.94	0.000325
2729.58	0.000436
2739.23	0.000541
2748.87	0.000511
2758.52	0.000587
2768.16	0.000637
2777.81	0.00074
2787.45	0.000692
2797.1	0.000612
2806.74	0.000739
2816.39	0.0008412
2826.03	0.00090948
2835.68	0.00095182
2845.32	0.0010746
2854.97	0.0013986
2864.61	0.001879
2874.26	0.002949
2883.9	0.004529
2893.55	0.005049
2903.19	0.005269
2912.84	0.006629
2922.48	0.006449
2932.13	0.007409
2941.77	0.012409
2951.42	0.013289
2961.06	0.009899
2970.71	0.013769
2980.35	0.020969
2990	0.028859
2999.64	0.019949
3009.29	0.015069
3018.93	0.012729
3028.58	0.013759
3038.22	0.015349
3047.87	0.011139
3057.51	0.012429
3067.16	0.019179
3076.8	0.016929
3086.45	0.010509
3096.09	0.007819
3105.74	0.005959
3115.38	0.004129
3125.03	0.002339
3134.67	0.0012221
3144.32	0.00090641
3153.96	0.000669
3163.61	0.000575
3173.25	0.000489
3182.9	0.000518
3192.54	0.000472
3202.19	0.000315
3211.83	0.000199
3221.48	0.000262
3231.12	0.000166
3240.77	0.000103
3250.41	0.000216
3260.06	0.000217
3269.7	0.000266
3279.35	0.000139
3289	0.00013
3298.64	0.000256
3308.29	0.00029
3317.93	0.000548
3327.58	0.0008148
3337.22	0.0007906
3346.87	0.00088827
3356.51	0.0009762
3366.16	0.0012727
3375.8	0.0018536
3385.45	0.003309
3395.09	0.007259
3404.74	0.019159
3414.38	0.035579
3424.03	0.028499
3433.67	0.013479
3443.32	0.009939
3452.96	0.009069
3462.61	0.005409
3472.25	0.003079
3481.9	0.001989
3491.54	0.0010697
3501.19	0.000709
3510.83	0.000489
3520.48	0.00034
3530.12	0.000545
3539.77	0.000481
3549.41	0.000474
3559.06	0.000347
3568.7	0.000392
3578.35	0.000247
3587.99	0.000271
3597.64	0.000254
3607.28	0.000277
3616.93	0.000311
3626.57	0.000238
3636.22	0.000341
3645.86	0.000515
3655.51	0.000474
3665.15	0.000286
3674.8	0.000333
3684.44	0.000359
3694.09	0.000206
3703.73	0.000288
3713.38	0.000159
3723.02	0.000528
3732.67	0.000487
3742.31	0.000531
3751.96	0.00027
3761.6	0.00028
3771.25	0.000331
3780.89	0.000198
3790.54	0.000361
3800.18	0.00049
3809.83	0.000295
3819.47	0.000476
3829.12	0.000513
3838.76	0.000594
3848.41	0.000253
3858.05	0.000414
3867.7	0.000265
3877.34	0.000437
3886.99	0.000395
3896.63	0.000453
3906.28	0.000308
3915.92	0.000136
3925.57	0.000263
3935.21	0.000428
3944.86	0.000317
3954.5	0.000263
3964.15	0.000367
3973.79	0.000351
3983.44	0.000325
3993.08	0.000423
