Infrared Spectrum: RHODANINE, 3-PHENYL
Formula: C9 H7 N O S2
CAS: 1457-46-1
State: SOLID (KBr PELLET)
Melting point: 192-193.5 C
Class: COBLENTZ
Instrument: Not specified, most likely a prism, grating, or hybrid spectrometer.
Sampling: TRANSMISSION
Resolution: 4
Origin: TENNESSEE EASTMAN COMPANY, RESEARCH LABORATORIES
MICROMETERS	TRANSMITTANCE
2.075	0.829
2.11616	0.831
2.15733	0.834
2.19849	0.834
2.23965	0.841
2.28082	0.841
2.32198	0.844
2.36315	0.846
2.40431	0.848
2.44547	0.848
2.48664	0.851
2.5278	0.856
2.56896	0.861
2.61013	0.86
2.65129	0.863
2.69245	0.863
2.73362	0.865
2.77478	0.853
2.81595	0.841
2.85711	0.82
2.89827	0.79
2.93944	0.803
2.9806	0.832
3.02176	0.854
3.06293	0.861
3.10409	0.872
3.14526	0.875
3.18642	0.877
3.22758	0.865
3.26875	0.834
3.30991	0.849
3.35107	0.752
3.39224	0.873
3.4334	0.88
3.47456	0.916
3.51573	0.923
3.55689	0.924
3.59806	0.928
3.63922	0.93
3.68038	0.933
3.72155	0.94
3.76271	0.941
3.80387	0.943
3.84504	0.943
3.8862	0.94
3.92736	0.938
3.96853	0.943
4.00969	0.947
4.05086	0.948
4.09202	0.95
4.13318	0.95
4.17435	0.95
4.21551	0.95
4.25667	0.955
4.29784	0.955
4.339	0.955
4.38016	0.955
4.42133	0.953
4.46249	0.953
4.50366	0.959
4.54482	0.964
4.58598	0.965
4.62715	0.965
4.66831	0.967
4.70947	0.967
4.75064	0.967
4.7918	0.969
4.83296	0.969
4.87413	0.967
4.91529	0.97
4.95646	0.97
4.99762	0.97
5.03878	0.964
5.07995	0.95
5.12111	0.969
5.16227	0.969
5.20344	0.96
5.2446	0.952
5.28577	0.935
5.32693	0.952
5.36809	0.964
5.40926	0.965
5.45042	0.953
5.49158	0.95
5.53275	0.95
5.57391	0.921
5.61507	0.895
5.65624	0.742
5.6974	0.37
5.73857	0.037
5.77973	0.127
5.82089	0.54
5.86206	0.766
5.90322	0.812
5.94438	0.872
5.98555	0.875
6.02671	0.873
6.06787	0.877
6.10904	0.914
6.1502	0.909
6.19137	0.906
6.23253	0.904
6.27369	0.752
6.31486	0.904
6.35602	0.952
6.39718	0.955
6.43835	0.953
6.47951	0.952
6.52067	0.955
6.56184	0.907
6.603	0.709
6.64417	0.447
6.68533	0.689
6.72649	0.784
6.76766	0.902
6.80882	0.89
6.84998	0.764
6.89115	0.928
6.93231	0.955
6.97347	0.96
7.01464	0.96
7.0558	0.96
7.09697	0.948
7.13813	0.909
7.17929	0.67
7.22046	0.812
7.26162	0.87
7.30278	0.868
7.34395	0.725
7.38511	0.305
7.42628	0.134
7.46744	0.433
7.5086	0.776
7.54977	0.793
7.59093	0.723
7.63209	0.853
7.67326	0.853
7.71442	0.699
7.75558	0.472
7.79675	0.616
7.83791	0.614
7.87908	0.612
7.92024	0.346
7.9614	0.08
8.00257	0.03
8.04373	0.03
8.08489	0.034
8.12606	0.03
8.16722	0.063
8.20838	0.293
8.24955	0.151
8.29071	0.354
8.33188	0.619
8.37304	0.638
8.4142	0.319
8.45537	0.312
8.49653	0.43
8.53769	0.29
8.57886	0.609
8.62002	0.665
8.66118	0.795
8.70235	0.836
8.74351	0.853
8.78468	0.863
8.82584	0.87
8.867	0.87
8.90817	0.815
8.94933	0.827
8.99049	0.861
9.03166	0.877
9.07282	0.885
9.11398	0.887
9.15515	0.882
9.19631	0.863
9.23748	0.755
9.27864	0.677
9.3198	0.703
9.36097	0.716
9.40213	0.592
9.44329	0.273
9.48446	0.525
9.52562	0.803
9.56679	0.848
9.60795	0.861
9.64911	0.873
9.69028	0.872
9.73144	0.872
9.7726	0.883
9.81377	0.904
9.85493	0.919
9.89609	0.909
9.93726	0.849
9.97842	0.895
10.0196	0.912
10.0607	0.919
10.1019	0.923
10.1431	0.919
10.1842	0.912
10.2254	0.921
10.2666	0.928
10.3077	0.93
10.3489	0.93
10.3901	0.924
10.4312	0.931
10.4724	0.933
10.5135	0.936
10.5547	0.935
10.5959	0.935
10.637	0.936
10.6782	0.938
10.7194	0.941
10.7605	0.945
10.8017	0.952
10.8429	0.95
10.884	0.938
10.9252	0.94
10.9663	0.948
11.0075	0.953
11.0487	0.955
11.0898	0.955
11.131	0.957
11.1722	0.947
11.2133	0.802
11.2545	0.617
11.2957	0.846
11.3368	0.906
11.378	0.931
11.4191	0.947
11.4603	0.952
11.5015	0.955
11.5426	0.952
11.5838	0.952
11.625	0.95
11.6661	0.931
11.7073	0.935
11.7485	0.943
11.7896	0.952
11.8308	0.95
11.8719	0.931
11.9131	0.909
11.9543	0.825
11.9954	0.583
12.0366	0.436
12.0778	0.624
12.1189	0.713
12.1601	0.784
12.2013	0.831
12.2424	0.858
12.2836	0.877
12.3247	0.904
12.3659	0.926
12.4071	0.931
12.4482	0.933
12.4894	0.931
12.5306	0.931
12.5717	0.924
12.6129	0.822
12.6541	0.697
12.6952	0.725
12.7364	0.834
12.7776	0.873
12.8187	0.901
12.8599	0.914
12.901	0.921
12.9422	0.923
12.9834	0.909
13.0245	0.824
13.0657	0.609
13.1069	0.397
13.148	0.513
13.1892	0.68
13.2304	0.793
13.2715	0.841
13.3127	0.868
13.3538	0.897
13.395	0.926
13.4362	0.94
13.4773	0.948
13.5185	0.95
13.5597	0.952
13.6008	0.953
13.642	0.953
13.6832	0.953
13.7243	0.953
13.7655	0.955
13.8066	0.955
13.8478	0.955
13.889	0.955
13.9301	0.957
13.9713	0.957
14.0125	0.957
14.0536	0.957
14.0948	0.957
14.136	0.93
14.1771	0.895
14.2183	0.807
14.2594	0.656
14.3006	0.517
14.3418	0.358
14.3829	0.267
14.4241	0.284
14.4653	0.426
14.5064	0.621
14.5476	0.781
14.5888	0.865
14.6299	0.914
14.6711	0.938
14.7122	0.952
14.7534	0.959
14.7946	0.962
14.8357	0.962
14.8769	0.962
14.9181	0.955
14.9592	0.923
15.0004	0.878
15.0416	0.836
15.0827	0.79
15.1239	0.735
15.165	0.701
15.2062	0.692
15.2474	0.723
15.2885	0.774
15.3297	0.796
15.3709	0.827
15.412	0.836
15.4532	0.839
15.4944	0.839
15.5355	0.841
15.5767	0.839
15.6178	0.841
15.659	0.839
15.7002	0.831
15.7413	0.82
15.7825	0.815
15.8237	0.796
15.8648	0.773
15.906	0.762
15.9472	0.752
15.9883	0.745
16.0295	0.749
