Infrared Spectrum: 4-Androsten-3-one, 4,17Beta-dihydroxy-17Alpha-methyl-
Formula: C20 H30 O3
CAS: 145841-84-5
State: SOLID (OIL MULL)
Class: COBLENTZ III
Instrument: PERKIN-ELMER 21 (GRATING)
Instrument parameters: NaCl PRISM
Sampling: TRANSMISSION
Resolution: 2
Origin: SMITH, KLINE & FRENCH LABS.
1/CM	TRANSMITTANCE
651	0.4147
660	0.4858
669	0.481
678	0.5992
687	0.6339
696	0.6722
705	0.6921
714	0.6591
723	0.5399
732	0.6662
741	0.7234
750	0.7562
759	0.7686
768	0.7697
777	0.7613
786	0.7012
795	0.742
804	0.7829
813	0.7851
822	0.7708
831	0.7245
840	0.6476
849	0.7338
858	0.7181
867	0.6823
876	0.4427
885	0.6997
894	0.7028
903	0.6436
912	0.5808
921	0.4552
930	0.2265
939	0.6025
948	0.6432
957	0.5952
966	0.5401
975	0.5617
984	0.6149
993	0.5456
1002	0.6251
1011	0.6051
1020	0.4504
1029	0.3689
1038	0.569
1047	0.5297
1056	0.377
1065	0.4124
1074	0.2898
1083	0.139
1092	0.1864
1101	0.3031
1110	0.3983
1119	0.4772
1128	0.3436
1137	0.373
1146	0.2238
1155	0.2266
1164	0.2201
1173	0.4177
1182	0.4637
1191	0.4436
1200	0.334
1209	0.2964
1218	0.2651
1227	0.3332
1236	0.3439
1245	0.4015
1254	0.4074
1263	0.4227
1272	0.4363
1281	0.2581
1290	0.2273
1299	0.4984
1308	0.5139
1317	0.4224
1326	0.3671
1335	0.3156
1344	0.2011
1353	0.2212
1362	0.1775
1371	0.1156
1380	0.0905
1389	0.2608
1398	0.5285
1407	0.5829
1416	0.4728
1425	0.4627
1434	0.2506
1443	0.1139
1452	0.1098
1461	0.1178
1470	0.3158
1479	0.5456
1488	0.6814
1497	0.7315
1506	0.7459
1515	0.7503
1524	0.7552
1533	0.7469
1542	0.7426
1551	0.7307
1560	0.717
1569	0.7115
1578	0.6937
1587	0.6671
1596	0.6242
1605	0.5695
1614	0.3644
1623	0.2157
1632	0.3206
1641	0.3708
1650	0.2141
1659	0.1008
1668	0.1621
1677	0.5008
1686	0.7255
1695	0.7809
1704	0.7999
1713	0.8
1722	0.8033
1731	0.8066
1740	0.8072
1749	0.8082
1758	0.8131
1767	0.8119
1776	0.8094
1785	0.808
1794	0.8061
1803	0.8045
1812	0.803
1821	0.8007
1830	0.7982
1839	0.795
1848	0.7918
1857	0.7888
1866	0.7858
1875	0.7827
1884	0.7796
1893	0.7766
1902	0.7735
1911	0.7701
1920	0.7667
1929	0.7635
1938	0.7602
1947	0.7571
1956	0.7539
1965	0.7508
1974	0.7477
1983	0.7446
1992	0.7416
2001	0.7386
2010	0.7357
2019	0.7329
2028	0.73
2037	0.7272
2046	0.7246
2055	0.722
2064	0.7195
2073	0.717
2082	0.7147
2091	0.7128
2100	0.7096
2109	0.7064
2118	0.7033
2127	0.7002
2136	0.6975
2145	0.6948
2154	0.6921
2163	0.6896
2172	0.6872
2181	0.6848
2190	0.6827
2199	0.6793
2208	0.6755
2217	0.6719
2226	0.6682
2235	0.6664
2244	0.6643
2253	0.6617
2262	0.6549
2271	0.6486
2280	0.6426
2289	0.6376
2298	0.6326
2307	0.628
2316	0.6239
2325	0.6197
2334	0.6147
2343	0.6108
2352	0.6094
2361	0.612
2370	0.616
2379	0.6218
2388	0.6222
2397	0.6203
2406	0.6147
2415	0.6119
2424	0.6098
2433	0.6077
2442	0.6054
2451	0.603
2460	0.6005
2469	0.598
2478	0.5954
2487	0.5926
2496	0.5898
2505	0.5871
2514	0.5844
2523	0.5809
2532	0.5774
2541	0.5728
2550	0.5638
2559	0.5536
2568	0.5459
2577	0.5393
2586	0.5346
2595	0.5299
2604	0.5252
2613	0.5208
2622	0.5163
2631	0.5126
2640	0.5092
2649	0.5059
2658	0.5031
2667	0.5009
2676	0.4987
2685	0.4958
2694	0.4918
2703	0.4921
2712	0.4949
2721	0.4958
2730	0.4953
2739	0.4944
2748	0.492
2757	0.4879
2766	0.4792
2775	0.4691
2784	0.4532
2793	0.4307
2802	0.3427
2811	0.2667
2820	0.1727
2829	0.092
2838	0.0749
2847	0.0709
2856	0.0693
2865	0.069
2874	0.0691
2883	0.0692
2892	0.0694
2901	0.0698
2910	0.0702
2919	0.0708
2928	0.0719
2937	0.0731
2946	0.076
2955	0.0875
2964	0.1026
2973	0.1185
2982	0.168
2991	0.2357
3000	0.2998
3009	0.3247
3018	0.3439
3027	0.3517
3036	0.3554
3045	0.3571
3054	0.358
3063	0.3581
3072	0.3573
3081	0.3563
3090	0.355
3099	0.352
3108	0.3459
3117	0.3375
3126	0.3268
3135	0.3168
3144	0.3072
3153	0.2974
3162	0.2886
3171	0.2812
3180	0.2759
3189	0.2705
3198	0.2641
3207	0.2568
3216	0.2486
3225	0.2423
3234	0.2364
3243	0.2306
3252	0.2264
3261	0.2226
3270	0.2187
3279	0.2165
3288	0.2132
3297	0.2068
3306	0.2009
3315	0.1977
3324	0.1974
3333	0.1976
3342	0.1999
3351	0.2097
3360	0.2173
3369	0.2267
3378	0.2354
3387	0.2472
3396	0.2682
3405	0.2953
3414	0.3541
3423	0.3732
3432	0.3802
3441	0.3838
3450	0.3846
3459	0.3844
3468	0.3821
3477	0.3792
3486	0.3741
3495	0.3694
3504	0.3637
3513	0.3471
3522	0.3198
3531	0.3087
3540	0.2984
3549	0.2894
3558	0.2864
3567	0.2859
3576	0.3044
3585	0.3419
3594	0.3793
3603	0.4166
3612	0.4494
3621	0.4567
3630	0.4579
3639	0.4584
3648	0.4583
3657	0.4579
3666	0.4567
3675	0.455
3684	0.4525
3693	0.45
3702	0.4472
3711	0.4443
3720	0.4414
3729	0.4389
3738	0.4364
3747	0.434
3756	0.4315
3765	0.4289
3774	0.4261
3783	0.4234
3792	0.4207
3801	0.4182
3810	0.4162
3819	0.4142
3828	0.4121
3837	0.4101
3846	0.408
3855	0.4058
3864	0.4036
3873	0.4015
3882	0.3993
3891	0.3972
3900	0.395
3909	0.3929
3918	0.3907
3927	0.3885
3936	0.3864
3945	0.3842
3954	0.3821
3963	0.38
3972	0.3779
3981	0.3757
3990	0.3737
3999	0.3717
