Infrared Spectrum: Desyl benzoate
Formula: C 21 H 16 O 3
CAS: 1459-20-7
State: gas
Origin: EPA-IR VAPOR PHASE LIBRARY
1/CM	ABSORBANCE
549.8	0.005827
559.445	0.002897
569.09	0.002397
578.734	0.002807
588.379	0.006747
598.024	0.011837
607.669	0.012537
617.313	0.010587
626.958	0.003937
636.603	0.003327
646.248	0.003677
655.893	0.005687
665.537	0.009797
675.182	0.017087
684.827	0.030367
694.472	0.053747
704.116	0.054887
713.761	0.042607
723.406	0.021327
733.051	0.014597
742.695	0.014027
752.34	0.016737
761.985	0.012077
771.63	0.007527
781.275	0.005107
790.919	0.004007
800.564	0.004257
810.209	0.004667
819.854	0.004677
829.498	0.006287
839.143	0.005667
848.788	0.007907
858.433	0.008367
868.078	0.006007
877.722	0.006477
887.367	0.006967
897.012	0.007487
906.657	0.008247
916.301	0.007987
925.946	0.008707
935.591	0.008877
945.236	0.010757
954.88	0.017737
964.525	0.016647
974.17	0.009887
983.815	0.007357
993.46	0.008177
1003.1	0.011977
1012.75	0.011277
1022.39	0.028957
1032.04	0.021327
1041.68	0.011107
1051.33	0.014557
1060.97	0.024717
1070.62	0.026707
1080.26	0.030187
1089.91	0.070027
1099.55	0.076607
1109.2	0.080217
1118.84	0.028397
1128.49	0.010857
1138.13	0.008797
1147.78	0.007397
1157.42	0.008097
1167.07	0.009207
1176.71	0.037857
1186.36	0.024237
1196	0.013507
1205.64	0.020317
1215.29	0.033947
1224.93	0.041387
1234.58	0.060897
1244.22	0.081097
1253.87	0.116367
1263.51	0.114927
1273.16	0.084897
1282.8	0.046827
1292.45	0.029577
1302.09	0.024577
1311.74	0.026217
1321.38	0.021417
1331.03	0.018057
1340.67	0.016107
1350.32	0.015417
1359.96	0.011247
1369.61	0.007607
1379.25	0.006357
1388.9	0.004747
1398.54	0.003647
1408.18	0.003197
1417.83	0.003287
1427.47	0.003977
1437.12	0.006047
1446.76	0.016227
1456.41	0.012767
1466.05	0.004777
1475.7	0.004467
1485.34	0.005317
1494.99	0.009257
1504.63	0.006117
1514.28	0.003447
1523.92	0.003307
1533.57	0.003437
1543.21	0.003397
1552.86	0.003817
1562.5	0.003967
1572.15	0.005587
1581.79	0.008597
1591.44	0.009467
1601.08	0.012447
1610.73	0.006497
1620.37	0.004047
1630.01	0.003377
1639.66	0.003467
1649.3	0.003687
1658.95	0.004177
1668.59	0.005407
1678.24	0.007857
1687.88	0.013547
1697.53	0.024007
1707.17	0.042727
1716.82	0.064217
1726.46	0.043517
1736.11	0.075907
1745.75	0.074447
1755.4	0.029167
1765.04	0.014227
1774.69	0.008867
1784.33	0.006647
1793.98	0.006207
1803.62	0.006187
1813.27	0.005157
1822.91	0.003277
1832.55	0.002447
1842.2	0.002017
1851.84	0.002087
1861.49	0.002247
1871.13	0.002377
1880.78	0.002427
1890.42	0.002697
1900.07	0.003007
1909.71	0.003107
1919.36	0.002757
1929	0.002447
1938.65	0.002587
1948.29	0.003437
1957.94	0.003887
1967.58	0.003297
1977.23	0.002197
1986.87	0.001554
1996.52	0.001727
2006.16	0.001827
2015.81	0.0014554
2025.45	0.0016478
2035.1	0.0015378
2044.74	0.001657
2054.38	0.0016156
2064.03	0.001727
2073.67	0.0016375
2083.32	0.0016221
2092.96	0.0014525
2102.61	0.0016121
2112.25	0.0015373
2121.9	0.0016019
2131.54	0.001747
2141.19	0.001652
2150.83	0.001468
2160.48	0.0013964
2170.12	0.0015526
2179.77	0.0015753
2189.41	0.0014708
2199.06	0.0013447
2208.7	0.0013096
2218.35	0.0013662
2227.99	0.0013093
2237.64	0.0013685
2247.28	0.0014969
2256.92	0.0013672
2266.57	0.0014478
2276.21	0.0015238
2285.86	0.001687
2295.5	0.0012654
2305.15	0.0013954
2314.79	0.001957
2324.44	0.001967
2334.08	0.001877
2343.73	0.001837
2353.37	0.001827
2363.02	0.0015282
2372.66	0.0014756
2382.31	0.0013697
2391.95	0.0014935
2401.6	0.0012817
2411.24	0.0012276
2420.89	0.0014043
2430.53	0.0014001
2440.18	0.0014483
2449.82	0.0013396
2459.47	0.0014887
2469.11	0.0014337
2478.75	0.0014783
2488.4	0.0010294
2498.04	0.0016016
2507.69	0.0015033
2517.33	0.0014135
2526.98	0.0014803
2536.62	0.0014958
2546.27	0.0014526
2555.91	0.0012713
2565.56	0.0015991
2575.2	0.0016295
2584.85	0.001452
2594.49	0.0015691
2604.14	0.0013582
2613.78	0.0015448
2623.43	0.0016164
2633.07	0.001687
2642.72	0.0013159
2652.36	0.0013072
2662.01	0.0015112
2671.65	0.0011584
2681.29	0.0013546
2690.94	0.0015451
2700.58	0.0015211
2710.23	0.0014532
2719.87	0.001212
2729.52	0.0014047
2739.16	0.0015476
2748.81	0.0016273
2758.45	0.00146
2768.1	0.0014107
2777.74	0.001797
2787.39	0.0013255
2797.03	0.0016107
2806.68	0.001707
2816.32	0.0016254
2825.97	0.0010035
2835.61	0.001877
2845.26	0.001887
2854.9	0.001777
2864.55	0.001757
2874.19	0.002417
2883.84	0.0014487
2893.48	0.002087
2903.12	0.002137
2912.77	0.002467
2922.41	0.002727
2932.06	0.003287
2941.7	0.003577
2951.35	0.003757
2960.99	0.003727
2970.64	0.003327
2980.28	0.002907
2989.93	0.002957
2999.57	0.003017
3009.22	0.003867
3018.86	0.005147
3028.51	0.009327
3038.15	0.014877
3047.8	0.013387
3057.44	0.013967
3067.09	0.027067
3076.73	0.031487
3086.38	0.015467
3096.02	0.013517
3105.67	0.008187
3115.31	0.005097
3124.95	0.002317
3134.6	0.001777
3144.24	0.001747
3153.89	0.001591
3163.53	0.001947
3173.18	0.002117
3182.82	0.0014244
3192.47	0.0009591
3202.11	0.001667
3211.76	0.0014778
3221.4	0.0011739
3231.05	0.0008552
3240.69	0.00072364
3250.34	0.0009371
3259.98	0.001052
3269.63	0.0011265
3279.27	0.0010598
3288.92	0.000951
3298.56	0.0009346
3308.21	0.0009143
3317.85	0.001877
3327.49	0.0015974
3337.14	0.0013904
3346.78	0.0010917
3356.43	0.000861
3366.07	0.0008139
3375.72	0.0014676
3385.36	0.0012171
3395.01	0.0013102
3404.65	0.0013321
3414.3	0.001987
3423.94	0.0013044
3433.59	0.0015995
3443.23	0.0011357
3452.88	0.0014392
3462.52	0.0013462
3472.17	0.0012568
3481.81	0.0008541
3491.46	0.0015967
3501.1	0.000997
3510.75	0.000429
3520.39	0.0009636
3530.04	0.0010904
3539.68	0.0008972
3549.32	0.00074559
3558.97	0.0005737
3568.61	0.0006386
3578.26	0.0009571
3587.9	0.0008511
3597.55	0.00072568
3607.19	0.0009203
3616.84	0.0010035
3626.48	0.0008555
3636.13	0.0006143
3645.77	0.0008514
3655.42	0.000628
3665.06	0.0005626
3674.71	0.001687
3684.35	0.0012504
3694	0.0007582
3703.64	0.00074865
3713.29	0.0013802
3722.93	0.0009509
3732.58	0.000997
3742.22	0.0009553
3751.86	0.0009587
3761.51	0.0009064
3771.15	0.0015008
3780.8	0.000661854
3790.44	0.0008999
3800.09	0.0007594
3809.73	0.0007588
3819.38	0.0012009
3829.02	0.0008911
3838.67	0.0009197
3848.31	0.0012122
3857.96	0.0010089
3867.6	0.0016061
3877.25	0.001027
3886.89	0.000968
3896.54	0.000836
3906.18	0.0010271
3915.83	0.0007865
3925.47	0.000552
3935.12	0.0005674
3944.76	0.0011854
3954.41	0.0006958
3964.05	0.0006416
3973.69	0.0011417
3983.34	0.0015057
3992.98	0.0013935
