Infrared Spectrum: Tetradecylbenzene
Formula: C 20 H 34
CAS: 1459-10-5
State: gas
Instrument: HP-GC/MS/IRD
Origin: NIST Mass Spectrometry Data Center
1/CM	ABSORBANCE
550	0.000169
562	0.000273
574	0.0003315
586	0.000221
598	0.000117
610	1.95e-05
622	3.9e-05
634	9.1e-05
646	0.00013
658	0.0003315
670	0.000858
682	0.0019955
694	0.0053365
706	0.004355
718	0.0036075
730	0.0039975
742	0.0042055
754	0.00221
766	0.0011505
778	0.0006565
790	0.0005005
802	0.0003705
814	0.0003445
826	0.0003055
838	0.0002795
850	0.0002535
862	0.000234
874	0.0002925
886	0.0003315
898	0.0003965
910	0.0004225
922	0.000312
934	0.00026
946	0.0002405
958	0.000208
970	0.0002275
982	0.0002275
994	0.0002145
1006	0.000273
1018	0.000494
1030	0.0010335
1042	0.000455
1054	0.0004485
1066	0.0005655
1078	0.000572
1090	0.0004225
1102	0.0003445
1114	0.000351
1126	0.0002275
1138	0.0002275
1150	0.000195
1162	0.0002015
1174	0.0002795
1186	0.0003055
1198	0.000351
1210	0.000351
1222	0.000377
1234	0.0004225
1246	0.000416
1258	0.000494
1270	0.0005655
1282	0.000715
1294	0.000923
1306	0.0010725
1318	0.0010205
1330	0.001144
1342	0.001612
1354	0.0019695
1366	0.001573
1378	0.0011765
1390	0.000819
1402	0.0006435
1414	0.000689
1426	0.001001
1438	0.002041
1450	0.004264
1462	0.0050375
1474	0.002951
1486	0.002028
1498	0.002782
1510	0.000689
1522	0.0003185
1534	0.0003055
1546	0.000208
1558	0.00013
1570	0.0003705
1582	0.0006565
1594	0.001131
1606	0.001352
1618	0.0004095
1630	0.000221
1642	0.0001885
1654	3.9e-05
1666	0.0001105
1678	5.85e-05
1690	7.8e-05
1702	1.95e-05
1714	3.25e-05
1726	0.0001365
1738	9.75e-05
1750	3.25e-05
1762	7.8e-05
1774	0.000104
1786	0.0002665
1798	0.0002925
1810	0.0001755
1822	0.000104
1834	0.0001105
1846	0.0001105
1858	0.000221
1870	0.000208
1882	0.0001885
1894	0.000104
1906	7.15e-05
1918	0.0001105
1930	0.000273
1942	0.0003055
1954	0.0002405
1966	5.85e-05
1978	3.9e-05
1990	3.9e-05
2002	5.2e-05
2014	7.15e-05
2026	7.15e-05
2038	7.15e-05
2050	5.85e-05
2062	4.55e-05
2074	1.3e-05
2086	3.25e-05
2098	6.5e-06
2110	2.6e-05
2122	1.3e-05
2134	6.5e-06
2146	1.95e-05
2158	1.95e-05
2170	1.95e-05
2182	1.3e-05
2194	2.6e-05
2206	1.3e-05
2218	1.95e-05
2230	2.6e-05
2242	1.95e-05
2254	4.55e-05
2266	1.3e-05
2278	1.95e-05
2290	3.25e-05
2302	3.9e-05
2314	5.2e-05
2326	6.5e-06
2338	6.5e-06
2350	1.3e-05
2362	1.3e-05
2374	1.95e-05
2386	3.9e-05
2398	4.55e-05
2410	5.85e-05
2422	7.8e-05
2434	7.8e-05
2446	3.9e-05
2458	8.45e-05
2470	6.5e-05
2482	7.15e-05
2494	8.45e-05
2506	0.000104
2518	0.000143
2530	0.0001755
2542	0.000182
2554	0.0001495
2566	0.0001885
2578	0.000234
2590	0.0002795
2602	0.000312
2614	0.0003575
2626	0.00039
2638	0.0004615
2650	0.000481
2662	0.0005525
2674	0.000611
2686	0.0006175
2698	0.0005655
2710	0.0005265
2722	0.0005655
2734	0.000598
2746	0.000676
2758	0.0007475
2770	0.000871
2782	0.001079
2794	0.001391
2806	0.001768
2818	0.002418
2830	0.0035295
2842	0.0062075
2854	0.01612
2866	0.023673
2878	0.014794
2890	0.0123435
2902	0.016237
2914	0.027664
2926	0.0543855
2938	0.0591695
2950	0.028431
2962	0.0165425
2974	0.01118
2986	0.005499
2998	0.0036335
3010	0.003315
3022	0.0043355
3034	0.005642
3046	0.0033605
3058	0.003315
3070	0.0048555
3082	0.003159
3094	0.0021775
3106	0.0014495
3118	0.0008775
3130	0.000533
3142	0.0004225
3154	0.0003965
3166	0.000338
3178	0.000312
3190	0.0002275
3202	0.0002405
3214	0.0001885
3226	0.0002015
3238	0.000169
3250	0.000156
3262	0.0001495
3274	0.0001495
3286	0.0001495
3298	0.0001105
3310	9.1e-05
3322	0.00013
3334	0.0001105
3346	9.75e-05
3358	0.00013
3370	0.00013
3382	0.0001235
3394	0.0001365
3406	0.0001105
3418	0.0001105
3430	0.000117
3442	0.0001235
3454	9.1e-05
3466	0.000117
3478	9.1e-05
3490	7.8e-05
3502	5.2e-05
3514	8.45e-05
3526	2.6e-05
3538	8.45e-05
3550	7.15e-05
3562	7.15e-05
3574	0.000104
3586	6.5e-05
3598	9.1e-05
3610	9.1e-05
3622	0.0001495
3634	0.0001365
3646	0.000156
3658	0.0001755
3670	9.1e-05
3682	0.0001625
3694	0.0001755
3706	0.0001495
3718	0.000169
3730	0.000104
3742	7.15e-05
3754	0.00013
3766	0.0001885
3778	0.0001885
3790	0.000221
3802	0.0001755
3814	0.000208
3826	0.0002145
3838	0.000182
