Infrared Spectrum: 3,4-Dimethoxybenzyl isothiocyanate
Formula: C 10 H 11 N O 2 S
CAS: 14596-50-0
State: gas
Origin: EPA-IR VAPOR PHASE LIBRARY
1/CM	ABSORBANCE
549.9	0.0207
559.547	0.01817
569.193	0.01415
578.84	0.01171
588.486	0.01065
598.133	0.01007
607.779	0.00945
617.426	0.00883
627.072	0.00807
636.719	0.00703
646.365	0.00616
656.012	0.00599
665.658	0.00637
675.305	0.00788
684.951	0.01226
694.598	0.01957
704.245	0.02639
713.891	0.0292
723.538	0.02648
733.184	0.01953
742.831	0.01616
752.477	0.01604
762.124	0.01594
771.77	0.01235
781.417	0.0094
791.063	0.01073
800.71	0.01459
810.356	0.01679
820.003	0.01517
829.649	0.01073
839.296	0.00877
848.943	0.00945
858.589	0.00876
868.236	0.00821
877.882	0.00773
887.529	0.00652
897.175	0.00647
906.822	0.00753
916.468	0.00853
926.115	0.00866
935.761	0.00825
945.408	0.00781
955.054	0.00792
964.701	0.00846
974.347	0.00928
983.994	0.0112
993.64	0.01541
1003.29	0.02498
1012.93	0.04549
1022.58	0.07251
1032.23	0.08182
1041.87	0.05771
1051.52	0.02715
1061.17	0.01448
1070.81	0.01078
1080.46	0.00976
1090.11	0.01012
1099.75	0.01257
1109.4	0.01919
1119.05	0.03723
1128.69	0.0582
1138.34	0.06111
1147.99	0.05825
1157.63	0.05476
1167.28	0.03768
1176.92	0.02488
1186.57	0.02202
1196.22	0.02127
1205.86	0.02748
1215.51	0.04599
1225.16	0.07327
1234.8	0.09375
1244.45	0.09825
1254.1	0.1079
1263.74	0.15558
1273.39	0.18863
1283.04	0.1629
1292.68	0.11381
1302.33	0.07682
1311.98	0.05778
1321.62	0.05411
1331.27	0.07281
1340.92	0.07639
1350.56	0.04216
1360.21	0.02419
1369.86	0.01669
1379.5	0.01388
1389.15	0.01534
1398.79	0.02364
1408.44	0.04316
1418.09	0.05476
1427.73	0.04113
1437.38	0.03961
1447.03	0.05503
1456.67	0.06562
1466.32	0.05113
1475.97	0.03994
1485.61	0.03505
1495.26	0.05923
1504.91	0.13533
1514.55	0.17111
1524.2	0.07673
1533.85	0.02907
1543.49	0.01648
1553.14	0.01287
1562.79	0.01291
1572.43	0.01669
1582.08	0.02295
1591.73	0.02457
1601.37	0.02435
1611.02	0.02138
1620.67	0.01342
1630.31	0.0082
1639.96	0.00636
1649.6	0.00548
1659.25	0.0048691
1668.9	0.004646
1678.54	0.0046039
1688.19	0.0045761
1697.84	0.0045512
1707.48	0.0045016
1717.13	0.0045597
1726.78	0.0044595
1736.42	0.0043541
1746.07	0.0043645
1755.72	0.0043144
1765.36	0.0041863
1775.01	0.0040577
1784.66	0.0041048
1794.3	0.00406929
1803.95	0.0041374
1813.6	0.0040974
1823.24	0.0042214
1832.89	0.0044806
1842.54	0.0049687
1852.18	0.00538
1861.83	0.00594
1871.47	0.00642
1881.12	0.00696
1890.77	0.00759
1900.41	0.00848
1910.06	0.00986
1919.71	0.01176
1929.35	0.01433
1939	0.01773
1948.65	0.02222
1958.29	0.02858
1967.94	0.03768
1977.59	0.05063
1987.23	0.06944
1996.88	0.09558
2006.53	0.12997
2016.17	0.1718
2025.82	0.21718
2035.47	0.25816
2045.11	0.28813
2054.76	0.30227
2064.41	0.29373
2074.05	0.26143
2083.7	0.20521
2093.35	0.1449
2102.99	0.09973
2112.64	0.07085
2122.28	0.0541
2131.93	0.04509
2141.58	0.0418
2151.22	0.04302
2160.87	0.04768
2170.52	0.0536
2180.16	0.05641
2189.81	0.05124
2199.46	0.04149
2209.1	0.03147
2218.75	0.02322
2228.4	0.01766
2238.04	0.01427
2247.69	0.01211
2257.34	0.01051
2266.98	0.0092
2276.63	0.00805
2286.28	0.00711
2295.92	0.00614
2305.57	0.00538
2315.22	0.0047786
2324.86	0.0041833
2334.51	0.003663
2344.16	0.003387
2353.8	0.00314
2363.45	0.003144
2373.09	0.003056
2382.74	0.00286
2392.39	0.00268
2402.03	0.00257
2411.68	0.00255
2421.33	0.00252
2430.97	0.00251
2440.62	0.00258
2450.27	0.00256
2459.91	0.00262
2469.56	0.00269
2479.21	0.00285
2488.85	0.002982
2498.5	0.003243
2508.15	0.003296
2517.79	0.003463
2527.44	0.003676
2537.09	0.0038824
2546.73	0.00399322
2556.38	0.0041811
2566.03	0.0042303
2575.67	0.0041735
2585.32	0.0038859
2594.96	0.003714
2604.61	0.003441
2614.26	0.00319
2623.9	0.00296
2633.55	0.00283
2643.2	0.00285
2652.84	0.00282
2662.49	0.00284
2672.14	0.00279
2681.78	0.00286
2691.43	0.00289
2701.08	0.00291
2710.72	0.00287
2720.37	0.003146
2730.02	0.003425
2739.66	0.003759
2749.31	0.00406218
2758.96	0.0044193
2768.6	0.0048339
2778.25	0.00536
2787.9	0.00599
2797.54	0.00625
2807.19	0.00727
2816.84	0.00955
2826.48	0.01463
2836.13	0.02546
2845.77	0.03229
2855.42	0.0237
2865.07	0.01978
2874.71	0.02075
2884.36	0.02172
2894.01	0.02181
2903.65	0.023
2913.3	0.02802
2922.95	0.03496
2932.59	0.04747
2942.24	0.06248
2951.89	0.06097
2961.53	0.04934
2971.18	0.03554
2980.83	0.02655
2990.47	0.02553
3000.12	0.03307
3009.77	0.03876
3019.41	0.02395
3029.06	0.01504
3038.71	0.014
3048.35	0.01336
3058	0.01248
3067.64	0.01037
3077.29	0.00765
3086.94	0.00538
3096.58	0.00398572
3106.23	0.00296
3115.88	0.00249
3125.52	0.00199
3135.17	0.00145
3144.82	0.00077
3154.46	0.00052
3164.11	0.00059
3173.76	0.00041
3183.4	0.00054
3193.05	0.00021
3202.7	0.00037
3212.34	0.00021
3221.99	0.00017
3231.64	7e-05
3241.28	0.00011
3250.93	0.00038
3260.58	0.00029
3270.22	0.00026
3279.87	0.00029
3289.52	0.00036
3299.16	0.00048
3308.81	0.00059
3318.45	0.00054
3328.1	0.00056
3337.75	0.00058
3347.39	0.00063
3357.04	0.00067
3366.69	0.00058
3376.33	0.00061
3385.98	0.00081
3395.63	0.00078
3405.27	0.001
3414.92	0.0009
3424.57	0.0009
3434.21	0.00095
3443.86	0.00124
3453.51	0.0011
3463.15	0.00137
3472.8	0.00128
3482.45	0.00138
3492.09	0.00131
3501.74	0.00145
3511.39	0.00148
3521.03	0.00163
3530.68	0.00151
3540.33	0.00153
3549.97	0.00154
3559.62	0.00161
3569.26	0.00165
3578.91	0.00163
3588.56	0.00176
3598.2	0.00175
3607.85	0.00177
3617.5	0.00175
3627.14	0.00205
3636.79	0.00189
3646.44	0.00192
3656.08	0.00191
3665.73	0.00197
3675.38	0.00207
3685.02	0.00201
3694.67	0.00196
3704.32	0.00194
3713.96	0.00195
3723.61	0.00193
3733.26	0.00221
3742.9	0.00206
3752.55	0.00225
3762.2	0.00211
3771.84	0.00216
3781.49	0.00207
3791.13	0.00221
3800.78	0.00237
3810.43	0.00213
3820.07	0.00223
3829.72	0.00231
3839.37	0.00244
3849.01	0.0023
3858.66	0.00252
3868.31	0.00259
3877.95	0.00237
3887.6	0.00261
3897.25	0.00238
3906.89	0.00249
3916.54	0.00242
3926.19	0.0026
3935.83	0.00265
3945.48	0.00261
3955.13	0.00295
3964.77	0.003034
3974.42	0.00314
3984.07	0.003043
3993.71	0.003249
