Infrared Spectrum: Hexadecylbenzene
Formula: C 22 H 38
CAS: 1459-09-2
State: gas
Instrument: HP-GC/MS/IRD
Origin: NIST Mass Spectrometry Data Center
1/CM	ABSORBANCE
550	0.0006336
562	0.000176
574	5.44e-05
586	7.68e-05
598	0.00016
610	6.08e-05
622	2.56e-05
634	8.96e-05
646	0.0001184
658	0.0002144
670	0.0004544
682	0.0009152
694	0.0022976
706	0.001952
718	0.0016256
730	0.0017888
742	0.0018208
754	0.0010464
766	0.0005728
778	0.0003904
790	0.000336
802	0.0002464
814	0.000288
826	0.0002016
838	0.0002368
850	0.0002112
862	0.000208
874	0.0001536
886	0.0002656
898	0.0002976
910	0.0002528
922	0.0001888
934	0.000176
946	0.0001824
958	0.0001632
970	0.0002304
982	0.0002432
994	0.0002912
1006	0.0002944
1018	0.0003872
1030	0.0005472
1042	0.0002624
1054	0.000224
1066	0.0002048
1078	0.0001408
1090	9.28e-05
1102	7.04e-05
1114	9.28e-05
1126	8.96e-05
1138	7.04e-05
1150	5.44e-05
1162	0.0001184
1174	0.0001088
1186	0.000208
1198	0.000224
1210	0.0002016
1222	0.0002112
1234	0.0002016
1246	0.0001728
1258	0.0001888
1270	0.00024
1282	0.00032
1294	0.000432
1306	0.000512
1318	0.000528
1330	0.0005568
1342	0.000864
1354	0.0009568
1366	0.0008064
1378	0.0005888
1390	0.0004864
1402	0.0003712
1414	0.0004064
1426	0.0005184
1438	0.0011104
1450	0.002032
1462	0.002432
1474	0.0015296
1486	0.0009952
1498	0.0013216
1510	0.000688
1522	0.000432
1534	0.0003008
1546	0.000288
1558	0.0003296
1570	0.0002272
1582	0.0002688
1594	0.0004736
1606	0.000576
1618	0.0002528
1630	0.0001344
1642	0.00016
1654	0.0002496
1666	0.00016
1678	0.0001856
1690	0.00016
1702	0.0002336
1714	0.000224
1726	0.000144
1738	0.0002144
1750	0.0002624
1762	0.0001664
1774	0.0001792
1786	0.0002464
1798	0.0002432
1810	0.0001248
1822	0.0001184
1834	0.0001184
1846	0.0001696
1858	0.0001376
1870	0.0001728
1882	0.0001088
1894	8.64e-05
1906	6.4e-05
1918	0.0001184
1930	0.0001472
1942	0.0001952
1954	0.0001184
1966	4.48e-05
1978	4.16e-05
1990	6.4e-05
2002	3.52e-05
2014	5.44e-05
2026	7.04e-05
2038	7.36e-05
2050	6.08e-05
2062	5.76e-05
2074	6.08e-05
2086	5.76e-05
2098	4.48e-05
2110	6.72e-05
2122	4.48e-05
2134	4.16e-05
2146	4.48e-05
2158	4.8e-05
2170	6.08e-05
2182	5.12e-05
2194	3.84e-05
2206	4.16e-05
2218	3.2e-05
2230	3.52e-05
2242	4.48e-05
2254	3.52e-05
2266	5.12e-05
2278	5.44e-05
2290	5.76e-05
2302	7.36e-05
2314	0.0001088
2326	0.0001024
2338	8e-05
2350	7.68e-05
2362	9.92e-05
2374	9.28e-05
2386	6.08e-05
2398	5.12e-05
2410	3.84e-05
2422	5.44e-05
2434	6.08e-05
2446	2.56e-05
2458	3.84e-05
2470	5.12e-05
2482	6.08e-05
2494	6.4e-05
2506	6.72e-05
2518	8.96e-05
2530	0.0001184
2542	0.0001088
2554	0.0001376
2566	0.0001184
2578	0.0001376
2590	0.0001568
2602	0.00016
2614	0.0002016
2626	0.0002048
2638	0.0002496
2650	0.000272
2662	0.0002752
2674	0.0003456
2686	0.0003456
2698	0.000304
2710	0.0003264
2722	0.0003072
2734	0.0002688
2746	0.0003712
2758	0.0003936
2770	0.000432
2782	0.0005408
2794	0.0007008
2806	0.000832
2818	0.0011936
2830	0.0016992
2842	0.0030048
2854	0.0078688
2866	0.0114624
2878	0.0069216
2890	0.0057792
2902	0.0077664
2914	0.0133408
2926	0.0267008
2938	0.0287968
2950	0.0133152
2962	0.0074176
2974	0.0049248
2986	0.0024448
2998	0.0016704
3010	0.0014784
3022	0.001904
3034	0.0024352
3046	0.0014816
3058	0.0014368
3070	0.0021216
3082	0.0013824
3094	0.001008
3106	0.000672
3118	0.0003904
3130	0.0002304
3142	0.0002208
3154	0.0002112
3166	0.0002208
3178	0.0002016
3190	0.000224
3202	0.0001952
3214	0.0001664
3226	0.000144
3238	0.0001504
3250	0.000144
3262	0.0001024
3274	0.0001184
3286	0.000144
3298	0.0001024
3310	0.0001376
3322	5.76e-05
3334	6.72e-05
3346	0.0001056
3358	7.04e-05
3370	9.6e-05
3382	8.96e-05
3394	0.000128
3406	4.48e-05
3418	6.72e-05
3430	7.68e-05
3442	3.2e-05
3454	4.16e-05
3466	7.36e-05
3478	9.28e-05
3490	5.76e-05
3502	8.64e-05
3514	1.28e-05
3526	0.0001024
3538	4.8e-05
3550	4.8e-05
3562	5.76e-05
3574	0
3586	0.0001504
3598	9.6e-05
3610	0.0001408
3622	0.0001184
3634	8.96e-05
3646	0.0001152
3658	6.08e-05
3670	0.0001152
3682	1.6e-05
3694	3.52e-05
3706	2.56e-05
3718	8.64e-05
3730	7.04e-05
3742	0.000112
3754	5.12e-05
3766	3.2e-05
3778	6.4e-06
3790	5.12e-05
3802	8.64e-05
3814	5.76e-05
3826	9.92e-05
3838	7.36e-05
