Infrared Spectrum: Triflupromazine
Formula: C 18 H 19 F 3 N 2 S
CAS: 146-54-3
State: gas
Instrument: HP-GC/MS/IRD
Origin: NIST Mass Spectrometry Data Center
1/CM	ABSORBANCE
550	0.0003013
562	5.98e-05
574	0.0001081
586	0.0001265
598	0.0001771
610	0.000207
622	0.0003496
634	0.0002346
646	0.0002691
658	0.0005336
670	0.0001587
682	0.0003243
694	0.000345
706	0.0005405
718	0.0017043
730	0.0024472
742	0.0051198
754	0.0018032
766	0.0006463
778	0.0005198
790	0.0004968
802	0.0007659
814	0.0028083
826	0.0010051
838	0.0007751
850	0.0007429
862	0.0011799
874	0.0019895
886	0.0008671
898	0.0006164
910	0.0009223
922	0.0023759
934	0.0024932
946	0.0010948
958	0.0007153
970	0.0008487
982	0.0007406
994	0.0006233
1006	0.0008372
1018	0.0009936
1030	0.0019481
1042	0.0028359
1054	0.0026634
1066	0.0031142
1078	0.0053866
1090	0.0046805
1102	0.0045839
1114	0.0042228
1126	0.0069575
1138	0.020539
1150	0.0122935
1162	0.0072358
1174	0.0144417
1186	0.0044137
1198	0.0022977
1210	0.0027922
1222	0.0046368
1234	0.0087768
1246	0.0098923
1258	0.0048438
1270	0.0037582
1282	0.0039146
1294	0.0040526
1306	0.0071024
1318	0.0153341
1330	0.0192832
1342	0.0110607
1354	0.0037835
1366	0.002553
1378	0.0027186
1390	0.0024955
1402	0.0031579
1414	0.0080086
1426	0.0113068
1438	0.0049473
1450	0.0059087
1462	0.0102626
1474	0.0068172
1486	0.0031648
1498	0.0022172
1510	0.0009476
1522	0.0005681
1534	0.0005129
1546	0.0005543
1558	0.0010626
1570	0.0018676
1582	0.0014651
1594	0.0016698
1606	0.0016813
1618	0.0005911
1630	0.0004554
1642	0.0002714
1654	0.0001886
1666	0.0003151
1678	0.0002461
1690	0.0002346
1702	0.0001449
1714	0.0001357
1726	0.0001863
1738	0.0002277
1750	0.0002944
1762	0.0002392
1774	0.0001702
1786	0.0001265
1798	0.0001403
1810	0.0001403
1822	8.28e-05
1834	9.66e-05
1846	0.0001587
1858	0.0001587
1870	0.0002553
1882	0.0003611
1894	0.0001656
1906	8.51e-05
1918	0.000161
1930	0.0001219
1942	3.22e-05
1954	1.38e-05
1966	1.84e-05
1978	1.84e-05
1990	2.99e-05
2002	2.53e-05
2014	2.3e-05
2026	2.53e-05
2038	3.68e-05
2050	2.3e-06
2062	2.99e-05
2074	3.22e-05
2086	3.45e-05
2098	5.29e-05
2110	4.83e-05
2122	3.22e-05
2134	2.3e-05
2146	4.6e-05
2158	2.53e-05
2170	2.53e-05
2182	9.2e-06
2194	2.3e-05
2206	9.2e-06
2218	2.3e-05
2230	2.99e-05
2242	3.45e-05
2254	4.6e-05
2266	5.75e-05
2278	4.14e-05
2290	3.91e-05
2302	5.29e-05
2314	4.6e-05
2326	6.67e-05
2338	4.83e-05
2350	4.6e-05
2362	4.37e-05
2374	5.06e-05
2386	5.29e-05
2398	4.37e-05
2410	5.06e-05
2422	8.97e-05
2434	5.75e-05
2446	9.43e-05
2458	0.0001035
2470	0.0001012
2482	0.000115
2494	0.0001403
2506	0.0001633
2518	0.0001817
2530	0.0001771
2542	0.0002116
2554	0.0002484
2566	0.0002668
2578	0.0002668
2590	0.0002484
2602	0.0002162
2614	0.0002001
2626	0.0001955
2638	0.0002438
2650	0.0002852
2662	0.0002921
2674	0.0003312
2686	0.0003933
2698	0.0004347
2710	0.0006371
2722	0.0008855
2734	0.0010718
2746	0.0012926
2758	0.0018285
2770	0.003657
2782	0.0046
2794	0.0036846
2806	0.0032154
2818	0.0032959
2830	0.0033143
2842	0.0021206
2854	0.0021643
2866	0.0026174
2878	0.0022195
2890	0.0019849
2902	0.0020217
2914	0.002162
2926	0.0025898
2938	0.0033235
2950	0.0042297
2962	0.003496
2974	0.003772
2986	0.0027669
2998	0.0012512
3010	0.0008234
3022	0.0007153
3034	0.000598
3046	0.0006279
3058	0.0008671
3070	0.0018791
3082	0.0015134
3094	0.0006693
3106	0.0003611
3118	0.0002553
3130	0.0002231
3142	0.0001748
3154	0.0001587
3166	0.000138
3178	0.0001334
3190	0.0001449
3202	0.0001426
3214	6.67e-05
3226	9.66e-05
3238	8.51e-05
3250	8.28e-05
3262	6.67e-05
3274	7.59e-05
3286	5.29e-05
3298	3.68e-05
3310	5.98e-05
3322	4.6e-05
3334	6.67e-05
3346	5.06e-05
3358	3.68e-05
3370	7.13e-05
3382	5.06e-05
3394	8.51e-05
3406	2.3e-05
3418	6.21e-05
3430	0.0001012
3442	5.75e-05
3454	6.67e-05
3466	1.38e-05
3478	7.82e-05
3490	8.05e-05
3502	8.74e-05
3514	4.37e-05
3526	4.6e-05
3538	0.0001104
3550	5.52e-05
3562	8.97e-05
3574	0.0001012
3586	4.37e-05
3598	5.52e-05
3610	3.45e-05
3622	6.21e-05
3634	5.52e-05
3646	6.9e-05
3658	5.29e-05
3670	9.2e-06
3682	6.67e-05
3694	9.66e-05
3706	4.37e-05
3718	7.36e-05
3730	9.43e-05
3742	7.82e-05
3754	3.45e-05
3766	6.44e-05
3778	9.2e-05
3790	0.0001127
3802	9.2e-05
3814	0.0001265
3826	0.0001127
3838	4.14e-05
