Infrared Spectrum: ADENOSINE, 2-CHLORO-
Formula: C10 H12 Cl N5 O4
CAS: 146-77-0
State: SOLID (0.7 mg / 650 mg KBr DISC)
Class: COBLENTZ III
Instrument: PERKIN-ELMER 21 (GRATING)
Instrument parameters: NaCl PRISM
Sampling: TRANSMISSION
Resolution: 4
Origin: SOUTHERN RESEARCH INSTITUTE
1/CM	TRANSMITTANCE
622.6	0.792
630.909	0.8049
639.217	0.8188
647.526	0.819
655.834	0.8161
664.143	0.7994
672.452	0.7536
680.76	0.7712
689.069	0.7741
697.377	0.771
705.686	0.768
713.995	0.7652
722.303	0.758
730.612	0.7506
738.92	0.749
747.229	0.7548
755.538	0.771
763.846	0.7528
772.155	0.7163
780.464	0.6976
788.772	0.6839
797.081	0.7487
805.389	0.7667
813.698	0.772
822.007	0.759
830.315	0.7321
838.624	0.7218
846.932	0.7084
855.241	0.696
863.55	0.7086
871.858	0.7295
880.167	0.736
888.475	0.7205
896.784	0.724
905.093	0.7425
913.401	0.7435
921.71	0.7267
930.018	0.6856
938.327	0.6742
946.636	0.7189
954.944	0.772
963.253	0.7655
971.561	0.7368
979.87	0.7093
988.179	0.704
996.487	0.6937
1004.8	0.6385
1013.1	0.5592
1021.41	0.4829
1029.72	0.4386
1038.03	0.4247
1046.34	0.4168
1054.65	0.4175
1062.96	0.434
1071.26	0.4307
1079.57	0.3893
1087.88	0.384
1096.19	0.3973
1104.5	0.4134
1112.81	0.4377
1121.12	0.4672
1129.42	0.506
1137.73	0.6172
1146.04	0.7244
1154.35	0.743
1162.66	0.7219
1170.97	0.6609
1179.28	0.589
1187.59	0.569
1195.89	0.5461
1204.2	0.517
1212.51	0.5257
1220.82	0.5686
1229.13	0.5592
1237.44	0.5291
1245.75	0.4893
1254.05	0.5106
1262.36	0.5363
1270.67	0.6115
1278.98	0.6142
1287.29	0.5542
1295.6	0.4453
1303.91	0.3329
1312.21	0.3068
1320.52	0.3642
1328.83	0.4591
1337.14	0.4585
1345.45	0.437
1353.76	0.4454
1362.07	0.4929
1370.37	0.6054
1378.68	0.6906
1386.99	0.692
1395.3	0.6861
1403.61	0.6658
1411.92	0.6444
1420.23	0.64
1428.53	0.6446
1436.84	0.6655
1445.15	0.6585
1453.46	0.5985
1461.77	0.59
1470.08	0.6266
1478.39	0.7317
1486.69	0.78
1495	0.7632
1503.31	0.7554
1511.62	0.7766
1519.93	0.826
1528.24	0.8192
1536.55	0.7913
1544.86	0.7793
1553.16	0.6582
1561.47	0.5818
1569.78	0.4304
1578.09	0.4187
1586.4	0.3484
1594.71	0.3123
1603.02	0.4199
1611.32	0.4885
1619.63	0.4167
1627.94	0.2708
1636.25	0.1942
1644.56	0.2077
1652.87	0.2407
1661.18	0.3799
1669.48	0.6106
1677.79	0.7282
1686.1	0.7992
1694.41	0.8421
1702.72	0.8552
1711.03	0.8681
1719.34	0.8892
1727.64	0.903
1735.95	0.909
1744.26	0.913
1752.57	0.92
1760.88	0.9249
1769.19	0.933
1777.5	0.934
1785.8	0.9379
1794.11	0.94
1802.42	0.944
1810.73	0.9431
1819.04	0.9439
1827.35	0.944
1835.66	0.944
1843.97	0.941
1852.27	0.9384
1860.58	0.938
1868.89	0.941
1877.2	0.944
1885.51	0.943
1893.82	0.94
1902.13	0.94
1910.43	0.9383
1918.74	0.938
1927.05	0.938
1935.36	0.9383
1943.67	0.938
1951.98	0.934
1960.29	0.934
1968.59	0.934
1976.9	0.934
1985.21	0.934
1993.52	0.934
2001.83	0.9335
2010.14	0.9335
2018.45	0.933
2026.75	0.932
2035.06	0.932
2043.37	0.932
2051.68	0.933
2059.99	0.932
2068.3	0.932
2076.61	0.931
2084.91	0.931
2093.22	0.931
2101.53	0.932
2109.84	0.9305
2118.15	0.931
2126.46	0.931
2134.77	0.931
2143.07	0.931
2151.38	0.931
2159.69	0.931
2168	0.931
2176.31	0.931
2184.62	0.931
2192.93	0.931
2201.24	0.931
2209.54	0.931
2217.85	0.931
2226.16	0.9275
2234.47	0.926
2242.78	0.9275
2251.09	0.931
2259.4	0.927
2267.7	0.921
2276.01	0.922
2284.32	0.922
2292.63	0.9215
2300.94	0.9205
2309.25	0.918
2317.56	0.916
2325.86	0.916
2334.17	0.915
2342.48	0.915
2350.79	0.915
2359.1	0.913
2367.41	0.913
2375.72	0.912
2384.02	0.911
2392.33	0.9101
2400.64	0.9125
2408.95	0.912
2417.26	0.903
2425.57	0.902
2433.88	0.8935
2442.18	0.892
2450.49	0.8909
2458.8	0.8911
2467.11	0.889
2475.42	0.892
2483.73	0.8909
2492.04	0.89
2500.34	0.886
2508.65	0.881
2516.96	0.8765
2525.27	0.871
2533.58	0.868
2541.89	0.8635
2550.2	0.862
2558.51	0.86
2566.81	0.857
2575.12	0.8495
2583.43	0.85
2591.74	0.8485
2600.05	0.845
2608.36	0.842
2616.67	0.838
2624.97	0.833
2633.28	0.833
2641.59	0.833
2649.9	0.8315
2658.21	0.8305
2666.52	0.829
2674.83	0.827
2683.13	0.825
2691.44	0.8185
2699.75	0.8115
2708.06	0.8079
2716.37	0.804
2724.68	0.801
2732.99	0.799
2741.29	0.792
2749.6	0.7889
2757.91	0.782
2766.22	0.781
2774.53	0.7735
2782.84	0.766
2791.15	0.7504
2799.45	0.7395
2807.76	0.7335
2816.07	0.722
2824.38	0.7145
2832.69	0.7069
2841	0.7015
2849.31	0.6965
2857.61	0.6925
2865.92	0.6885
2874.23	0.6825
2882.54	0.6809
2890.85	0.671
2899.16	0.666
2907.47	0.6681
2915.78	0.671
2924.08	0.6771
2932.39	0.6855
2940.7	0.6905
2949.01	0.6905
2957.32	0.69
2965.63	0.688
2973.94	0.6825
2982.24	0.6749
2990.55	0.664
2998.86	0.659
3007.17	0.6499
3015.48	0.6259
3023.79	0.6145
3032.1	0.5919
3040.4	0.5675
3048.71	0.5585
3057.02	0.5469
3065.33	0.5273
3073.64	0.511
3081.95	0.4911
3090.26	0.4659
3098.56	0.4469
3106.87	0.432
3115.18	0.4103
3123.49	0.403
3131.8	0.3725
3140.11	0.361
3148.42	0.3559
3156.72	0.354
3165.03	0.3535
3173.34	0.3499
3181.65	0.3465
3189.96	0.346
3198.27	0.3409
3206.58	0.335
3214.88	0.3285
3223.19	0.322
3231.5	0.317
3239.81	0.308
3248.12	0.3025
3256.43	0.298
3264.74	0.2794
3273.05	0.2715
3281.35	0.2629
3289.66	0.2555
3297.97	0.25
3306.28	0.251
3314.59	0.256
3322.9	0.259
3331.21	0.263
3339.51	0.264
3347.82	0.265
3356.13	0.268
3364.44	0.2745
3372.75	0.281
3381.06	0.2845
3389.37	0.2895
3397.67	0.2945
3405.98	0.3081
3414.29	0.3195
3422.6	0.3291
3430.91	0.3542
3439.22	0.3666
3447.53	0.3897
3455.83	0.4207
3464.14	0.4537
3472.45	0.494
3480.76	0.5141
3489.07	0.5597
3497.38	0.5916
3505.69	0.6056
3513.99	0.6341
3522.3	0.6488
3530.61	0.6698
3538.92	0.7017
3547.23	0.7235
3555.54	0.7587
3563.85	0.7871
3572.15	0.8046
3580.46	0.8181
3588.77	0.8463
3597.08	0.8635
3605.39	0.8721
3613.7	0.881
3622.01	0.887
3630.32	0.892
3638.62	0.8995
3646.93	0.901
3655.24	0.903
3663.55	0.9025
3671.86	0.903
3680.17	0.903
3688.48	0.902
3696.78	0.9005
3705.09	0.899
3713.4	0.9
3721.71	0.901
3730.02	0.903
3738.33	0.9055
3746.64	0.906
3754.94	0.9075
3763.25	0.911
3771.56	0.914
3779.87	0.9135
3788.18	0.911
3796.49	0.908
3804.8	0.909
3813.1	0.909
3821.41	0.9055
3829.72	0.907
3838.03	0.906
3846.34	0.903
3854.65	0.903
3862.96	0.903
3871.26	0.906
3879.57	0.9065
3887.88	0.903
3896.19	0.899
3904.5	0.9025
