Infrared Spectrum: 2-Fluoro-4-(trifluoromethyl)benzonitrile
Formula: C 8 H 3 F 4 N
CAS: 146070-34-0
State: gas
Origin: EPA-IR VAPOR PHASE LIBRARY
1/CM	ABSORBANCE
549.8	0.00177556
559.445	0.0026717
569.09	0.00563
578.734	0.00378
588.379	0.00954
598.024	0.01535
607.669	0.00938
617.313	0.00625
626.958	0.00677
636.603	0.00368
646.248	0.00477
655.893	0.01227
665.537	0.01706
675.182	0.0097
684.827	0.00415
694.472	0.0022783
704.116	0.0022774
713.761	0.002619
723.406	0.00515
733.051	0.00852
742.695	0.03619
752.34	0.04309
761.985	0.00711
771.63	0.00311
781.275	0.0024491
790.919	0.00337
800.564	0.00463
810.209	0.00772
819.854	0.02063
829.498	0.03825
839.143	0.03476
848.788	0.01661
858.433	0.00652
868.078	0.01242
877.722	0.03184
887.367	0.05285
897.012	0.03857
906.657	0.04395
916.301	0.09827
925.946	0.05665
935.591	0.01695
945.236	0.00944
954.88	0.00621
964.525	0.00438
974.17	0.00293
983.815	0.00373
993.46	0.00464
1003.1	0.00418
1012.75	0.00339
1022.39	0.00326
1032.04	0.00329
1041.68	0.00668
1051.33	0.02076
1060.97	0.06985
1070.62	0.06395
1080.26	0.01905
1089.91	0.01285
1099.55	0.01338
1109.2	0.03128
1118.84	0.07081
1128.49	0.09642
1138.13	0.10064
1147.78	0.18837
1157.42	0.3804
1167.07	0.3628
1176.71	0.31817
1186.36	0.3374
1196	0.16354
1205.64	0.06584
1215.29	0.0683
1224.93	0.13422
1234.58	0.08053
1244.22	0.02298
1253.87	0.01732
1263.51	0.01981
1273.16	0.02768
1282.8	0.03402
1292.45	0.0344
1302.09	0.03643
1311.74	0.08115
1321.38	0.28255
1331.03	0.52472
1340.67	0.22438
1350.32	0.04935
1359.96	0.02042
1369.61	0.01634
1379.25	0.01715
1388.9	0.02586
1398.54	0.0432
1408.18	0.04234
1417.83	0.06288
1427.47	0.16678
1437.12	0.1937
1446.76	0.06232
1456.41	0.01791
1466.05	0.00762
1475.7	0.00762
1485.34	0.01071
1494.99	0.02007
1504.63	0.02927
1514.28	0.02523
1523.92	0.01276
1533.57	0.00642
1543.21	0.00548
1552.86	0.00594
1562.5	0.01132
1572.15	0.02228
1581.79	0.0266
1591.44	0.01633
1601.08	0.01046
1610.73	0.00999
1620.37	0.00848
1630.01	0.00796
1639.66	0.00683
1649.3	0.0046
1658.95	0.00397
1668.59	0.00365
1678.24	0.0027258
1687.88	0.0022081
1697.53	0.0021606
1707.17	0.0024604
1716.82	0.0023807
1726.46	0.0022012
1736.11	0.0018723
1745.75	0.002702
1755.4	0.00429
1765.04	0.00631
1774.69	0.006
1784.33	0.00542
1793.98	0.00401
1803.62	0.0023328
1813.27	0.00279
1822.91	0.0021474
1832.55	0.0016423
1842.2	0.00174217
1851.84	0.001608
1861.49	0.001599
1871.13	0.00175134
1880.78	0.0019393
1890.42	0.0023711
1900.07	0.00313
1909.71	0.00435
1919.36	0.00438
1929	0.00302
1938.65	0.0020602
1948.29	0.0017941
1957.94	0.0017012
1967.58	0.001529
1977.23	0.001517
1986.87	0.00148
1996.52	0.001318
2006.16	0.001143
2015.81	0.001178
2025.45	0.001222
2035.1	0.001258
2044.74	0.001359
2054.38	0.001429
2064.03	0.002003
2073.67	0.0022727
2083.32	0.0022997
2092.96	0.00178245
2102.61	0.001618
2112.25	0.00175143
2121.9	0.0016482
2131.54	0.0022316
2141.19	0.0026306
2150.83	0.0019593
2160.48	0.001359
2170.12	0.001532
2179.77	0.001669
2189.41	0.001502
2199.06	0.001201
2208.7	0.0016759
2218.35	0.00182291
2227.99	0.0026541
2237.64	0.00388
2247.28	0.00399
2256.92	0.00277
2266.57	0.00175444
2276.21	0.0016549
2285.86	0.0020937
2295.5	0.0025557
2305.15	0.002523
2314.79	0.0027099
2324.44	0.0027221
2334.08	0.0026349
2343.73	0.00319
2353.37	0.00314
2363.02	0.00282
2372.66	0.0024605
2382.31	0.0020892
2391.95	0.0016952
2401.6	0.0017006
2411.24	0.00172526
2420.89	0.00182705
2430.53	0.001517
2440.18	0.0016931
2449.82	0.001556
2459.47	0.001529
2469.11	0.001498
2478.75	0.0019112
2488.4	0.0020385
2498.04	0.0021239
2507.69	0.0021945
2517.33	0.0020583
2526.98	0.002064
2536.62	0.001879
2546.27	0.0019396
2555.91	0.001866
2565.56	0.001649
2575.2	0.001408
2584.85	0.0016
2594.49	0.001208
2604.14	0.000938
2613.78	0.001174
2623.43	0.00132
2633.07	0.001479
2642.72	0.00173069
2652.36	0.0018718
2662.01	0.001525
2671.65	0.001311
2681.29	0.001071
2690.94	0.001202
2700.58	0.001072
2710.23	0.001071
2719.87	0.001385
2729.52	0.001439
2739.16	0.0016562
2748.81	0.001252
2758.45	0.001377
2768.1	0.00138
2777.74	0.001126
2787.39	0.001441
2797.03	0.001404
2806.68	0.001049
2816.32	0.001134
2825.97	0.001502
2835.61	0.00129
2845.26	0.001112
2854.9	0.000943
2864.55	0.001007
2874.19	0.001072
2883.84	0.001012
2893.48	0.001079
2903.12	0.001186
2912.77	0.001511
2922.41	0.001359
2932.06	0.0018373
2941.7	0.001035
2951.35	0.00178948
2960.99	0.001586
2970.64	0.001222
2980.28	0.001441
2989.93	0.00061
2999.57	0.00068
3009.22	0.000894
3018.86	0.000966
3028.51	0.001008
3038.15	0.001001
3047.8	0.0007
3057.44	0.000897
3067.09	0.0018198
3076.73	0.002239
3086.38	0.00466
3096.02	0.00468
3105.67	0.0023921
3115.31	0.001463
3124.95	0.00062
3134.6	0.001014
3144.24	0.000944
3153.89	0.000948
3163.53	0.000967
3173.18	0.000731
3182.82	0.00055
3192.47	0.00109
3202.11	0.000744
3211.76	0.00108
3221.4	0.001009
3231.05	0.00045
3240.69	0.0002
3250.34	0.000739
3259.98	0.001099
3269.63	0.000977
3279.27	0.000958
3288.92	0.000767
3298.56	0.000998
3308.21	0.001194
3317.85	0.000878
3327.49	0.000803
3337.14	0.000789
3346.78	0.00054
3356.43	0.00065
3366.07	0.000993
3375.72	0.001029
3385.36	0.001085
3395.01	0.001059
3404.65	0.00048
3414.3	0.000927
3423.94	0.00081
3433.59	0.000876
3443.23	0.000941
3452.88	0.001373
3462.52	0.001133
3472.17	0.000977
3481.81	0.000904
3491.46	0.000875
3501.1	0.001082
3510.75	0.00064
3520.39	0.000917
3530.04	0.000944
3539.68	0.00067
3549.32	0.00086
3558.97	0.0003
3568.61	0.000746
3578.26	0.001164
3587.9	0.001004
3597.55	0.00069
3607.19	0.00068
3616.84	0.00022
3626.48	0.00068
3636.13	0.000947
3645.77	0.00063
3655.42	0.001013
3665.06	0.001509
3674.71	0.000937
3684.35	0.00069
3694	0.00068
3703.64	0.001076
3713.29	0.001162
3722.93	0.00066
3732.58	0.00072
3742.22	0.001249
3751.86	0.001372
3761.51	0.001507
3771.15	0.000804
3780.8	0.000757
3790.44	0.000889
3800.09	0.0016714
3809.73	0.001362
3819.38	0.00115
3829.02	0.001384
3838.67	0
3848.31	0.00064
3857.96	0.001198
3867.6	0.000849
3877.25	0.00132
3886.89	0.000837
3896.54	0.000775
3906.18	0.000865
3915.83	0.000872
3925.47	0.00061
3935.12	0.00032
3944.76	0.00065
3954.41	0.00068
3964.05	0.000883
3973.69	0.00056
3983.34	0.00053
3992.98	0.001396
