Infrared Spectrum: 2,4-DIISOPROPYL TOLUENE
Formula: C13 H20
CAS: 1460-98-6
State: SOLUTION (10% CCl4 FOR 5000-1330, 10% CS2 FOR 1330-625 CM^-^1)
Class: COBLENTZ
Instrument: Not specified, most likely a prism, grating, or hybrid spectrometer.
Sampling: TRANSMISSION
Path length: 0.0124 CM, 0.0124 CM
Resolution: 4
Origin: DOW CHEMICAL COMPANY
MICROMETERS	TRANSMITTANCE
2.034	0.862
2.07514	0.86
2.11627	0.86
2.15741	0.862
2.19854	0.864
2.23968	0.838
2.28081	0.823
2.32195	0.838
2.36308	0.85
2.40422	0.848
2.44536	0.847
2.48649	0.865
2.52763	0.865
2.56876	0.869
2.6099	0.862
2.65103	0.874
2.69217	0.867
2.73331	0.872
2.77444	0.864
2.81558	0.862
2.85671	0.857
2.89785	0.853
2.93898	0.852
2.98012	0.853
3.02125	0.845
3.06239	0.838
3.10353	0.82
3.14466	0.813
3.1858	0.799
3.22693	0.765
3.26807	0.687
3.3092	0.536
3.35034	0.329
3.39148	0.069
3.43261	0.217
3.47375	0.283
3.51488	0.741
3.55602	0.784
3.59715	0.825
3.63829	0.823
3.67942	0.837
3.72056	0.869
3.7617	0.867
3.80283	0.874
3.84397	0.865
3.8851	0.874
3.92624	0.884
3.96737	0.882
4.00851	0.887
4.04964	0.886
4.09078	0.894
4.13192	0.891
4.17305	0.889
4.21419	0.872
4.25532	0.869
4.29646	0.872
4.33759	0.877
4.37873	0.889
4.41987	0.899
4.461	0.908
4.50214	0.899
4.54327	0.923
4.58441	0.921
4.62554	0.918
4.66668	0.92
4.70781	0.925
4.74895	0.921
4.79009	0.928
4.83122	0.925
4.87236	0.92
4.91349	0.923
4.95463	0.918
4.99576	0.921
5.0369	0.923
5.07804	0.923
5.11917	0.928
5.16031	0.923
5.20144	0.918
5.24258	0.882
5.28371	0.862
5.32485	0.899
5.36598	0.903
5.40712	0.908
5.44826	0.901
5.48939	0.908
5.53053	0.91
5.57166	0.899
5.6128	0.889
5.65393	0.859
5.69507	0.87
5.7362	0.889
5.77734	0.898
5.81848	0.901
5.85961	0.893
5.90075	0.881
5.94188	0.874
5.98302	0.865
6.02415	0.85
6.06529	0.843
6.10643	0.85
6.14756	0.791
6.1887	0.697
6.22983	0.709
6.27097	0.631
6.3121	0.578
6.35324	0.536
6.39437	0.495
6.43551	0.443
6.47665	0.471
6.51778	0.563
6.55892	0.567
6.60005	0.5
6.64119	0.382
6.68232	0.448
6.72346	0.636
6.76459	0.519
6.80573	0.285
6.84687	0.247
6.888	0.402
6.92914	0.592
6.97027	0.679
7.01141	0.629
7.05254	0.553
7.09368	0.718
7.13482	0.748
7.17595	0.658
7.21709	0.487
7.25822	0.68
7.29936	0.592
7.34049	0.691
7.38163	0.762
7.42276	0.723
7.4639	0.733
7.50504	0.721
7.54617	0.767
7.58731	0.811
7.62844	0.796
7.66958	0.813
7.71071	0.774
7.75185	0.775
7.79299	0.842
7.83412	0.855
7.87526	0.886
7.91639	0.889
7.95753	0.898
7.99866	0.886
8.0398	0.857
8.08093	0.889
8.12207	0.911
8.16321	0.921
8.20434	0.896
8.24548	0.896
8.28661	0.92
8.32775	0.921
8.36888	0.916
8.41002	0.913
8.45115	0.83
8.49229	0.814
8.53343	0.884
8.57456	0.877
8.6157	0.881
8.65683	0.886
8.69797	0.872
8.7391	0.874
8.78024	0.865
8.82138	0.874
8.86251	0.882
8.90365	0.874
8.94478	0.845
8.98592	0.779
9.02705	0.74
9.06819	0.728
9.10932	0.672
9.15046	0.643
9.1916	0.716
9.23273	0.78
9.27387	0.784
9.315	0.641
9.35614	0.507
9.39727	0.726
9.43841	0.794
9.47955	0.719
9.52068	0.782
9.56182	0.842
9.60295	0.867
9.64409	0.848
9.68522	0.811
9.72636	0.84
9.76749	0.886
9.80863	0.908
9.84977	0.923
9.8909	0.926
9.93204	0.918
9.97317	0.876
10.0143	0.816
10.0554	0.806
10.0966	0.887
10.1377	0.933
10.1789	0.949
10.22	0.954
10.2611	0.962
10.3023	0.96
10.3434	0.957
10.3845	0.949
10.4257	0.938
10.4668	0.932
10.5079	0.926
10.5491	0.918
10.5902	0.903
10.6313	0.862
10.6725	0.823
10.7136	0.806
10.7547	0.837
10.7959	0.838
10.837	0.814
10.8782	0.82
10.9193	0.859
10.9604	0.877
11.0016	0.886
11.0427	0.882
11.0838	0.877
11.125	0.865
11.1661	0.848
11.2072	0.789
11.2484	0.736
11.2895	0.633
11.3306	0.492
11.3718	0.412
11.4129	0.636
11.4541	0.704
11.4952	0.718
11.5363	0.713
11.5775	0.699
11.6186	0.685
11.6597	0.679
11.7009	0.679
11.742	0.697
11.7831	0.719
11.8243	0.75
11.8654	0.76
11.9065	0.76
11.9477	0.74
11.9888	0.684
12.03	0.551
12.0711	0.356
12.1122	0.112
12.1534	0.185
12.1945	0.448
12.2356	0.68
12.2768	0.762
12.3179	0.789
12.359	0.799
12.4002	0.811
12.4413	0.816
12.4824	0.818
12.5236	0.818
12.5647	0.816
12.6059	0.816
12.647	0.82
12.6881	0.825
12.7293	0.83
12.7704	0.833
12.8115	0.842
12.8527	0.845
12.8938	0.848
12.9349	0.85
12.9761	0.852
13.0172	0.855
13.0583	0.855
13.0995	0.855
13.1406	0.852
13.1817	0.847
13.2229	0.848
13.264	0.843
13.3052	0.837
13.3463	0.825
13.3874	0.808
13.4286	0.779
13.4697	0.782
13.5108	0.806
13.552	0.809
13.5931	0.813
13.6342	0.804
13.6754	0.796
13.7165	0.779
13.7576	0.769
13.7988	0.777
13.8399	0.779
13.8811	0.779
13.9222	0.779
13.9633	0.775
14.0045	0.769
14.0456	0.767
14.0867	0.764
14.1279	0.753
14.169	0.75
14.2101	0.745
14.2513	0.738
14.2924	0.731
14.3335	0.724
14.3747	0.714
14.4158	0.709
14.457	0.699
14.4981	0.694
14.5392	0.685
14.5804	0.675
14.6215	0.667
14.6626	0.65
14.7038	0.64
14.7449	0.628
14.786	0.616
14.8272	0.607
14.8683	0.599
14.9094	0.585
14.9506	0.582
14.9917	0.584
15.0329	0.573
15.074	0.561
15.1151	0.55
15.1563	0.538
15.1974	0.526
15.2385	0.511
15.2797	0.5
15.3208	0.495
15.3619	0.485
15.4031	0.477
15.4442	0.471
15.4853	0.466
15.5265	0.46
15.5676	0.455
15.6088	0.446
15.6499	0.438
15.691	0.431
15.7322	0.421
15.7733	0.41
15.8144	0.402
15.8556	0.397
15.8967	0.405
