Infrared Spectrum: 1,3,5-Tri-t-butylbenzene
Formula: C 18 H 30
CAS: 1460-02-2
State: gas
Origin: EPA-IR VAPOR PHASE LIBRARY
1/CM	ABSORBANCE
551.7	0.000701
563.274	0.000262
574.848	0.0002142
586.421	0.0003132
597.995	0
609.569	0.0002468
621.143	0.0003629
632.717	0.0003365
644.291	0.0002211
655.864	0.0003344
667.438	0.000689
679.012	0.000959
690.586	0.0017265
702.16	0.0095165
713.734	0.0324465
725.307	0.0068965
736.881	0.0014165
748.455	0.0009854
760.029	0.0012265
771.603	0.0007247
783.177	0.0004759
794.75	0.0003365
806.324	0.000401
817.898	0.0003843
829.472	0.0007142
841.046	0.0011565
852.619	0.0023465
864.193	0.0128565
875.767	0.0284265
887.341	0.0266965
898.915	0.0311265
910.489	0.0108265
922.062	0.0073565
933.636	0.0066065
945.21	0.0033065
956.784	0.0016465
968.358	0.0010591
979.932	0.0009694
991.505	0.0013665
1003.08	0.0018365
1014.65	0.0020665
1026.23	0.0016365
1037.8	0.0011365
1049.37	0.0010031
1060.95	0.0011765
1072.52	0.0009148
1084.1	0.0010865
1095.67	0.0012865
1107.24	0.0014465
1118.82	0.0014165
1130.39	0.0016265
1141.97	0.0021365
1153.54	0.0026665
1165.11	0.0039965
1176.69	0.0060965
1188.26	0.0126165
1199.83	0.0210765
1211.41	0.0150865
1222.98	0.0186865
1234.56	0.0559165
1246.13	0.113977
1257.7	0.0434965
1269.28	0.0135965
1280.85	0.0071165
1292.42	0.0041165
1304	0.0031465
1315.57	0.0033565
1327.15	0.0043665
1338.72	0.0088365
1350.29	0.0246565
1361.87	0.0581765
1373.44	0.0511165
1385.02	0.0320765
1396.59	0.0463365
1408.16	0.0195565
1419.74	0.0273465
1431.31	0.0372465
1442.88	0.0369365
1454.46	0.0397465
1466.03	0.0492865
1477.61	0.0700465
1489.18	0.0378465
1500.75	0.0133365
1512.33	0.0084265
1523.9	0.0099165
1535.48	0.0082265
1547.05	0.0057565
1558.62	0.0073965
1570.2	0.0126065
1581.77	0.0353665
1593.34	0.0964565
1604.92	0.0496265
1616.49	0.0107265
1628.07	0.0042265
1639.64	0.0027965
1651.21	0.0024665
1662.79	0.0020465
1674.36	0.0017265
1685.93	0.0016965
1697.51	0.0016365
1709.08	0.0016565
1720.66	0.0020065
1732.23	0.0021965
1743.8	0.0030565
1755.38	0.0055065
1766.95	0.0053665
1778.53	0.0044865
1790.1	0.0022265
1801.67	0.0014465
1813.25	0.0011365
1824.82	0.0009581
1836.39	0.0009517
1847.97	0.0009211
1859.54	0.0007028
1871.12	0.0005781
1882.69	0.0006487
1894.26	0.0007549
1905.84	0.0007671
1917.41	0.0006864
1928.99	0.0007528
1940.56	0.0008286
1952.13	0.0007262
1963.71	0.0005907
1975.28	0.000433
1986.85	0.0003799
1998.43	0.0005092
2010	0.0005697
2021.58	0.0005835
2033.15	0.0006471
2044.72	0.0005019
2056.3	0.0004367
2067.87	0.0003787
2079.44	0.0003091
2091.02	0.000285
2102.59	0.0002872
2114.17	0.000501
2125.74	0.0005854
2137.31	0.0006323
2148.89	0.0007132
2160.46	0.0006493
2172.04	0.0005079
2183.61	0.0005584
2195.18	0.0004377
2206.76	0.0004154
2218.33	0.0003868
2229.9	0.000385
2241.48	0.0004304
2253.05	0.0004599
2264.63	0.0004694
2276.2	0.0005862
2287.77	0.0007471
2299.35	0.0006399
2310.92	0.0004551
2322.5	0.0003542
2334.07	0.0003796
2345.64	0.0003936
2357.22	0.0004609
2368.79	0.0007385
2380.36	0.0012565
2391.94	0.0013965
2403.51	0.0009154
2415.09	0.0007411
2426.66	0.0006208
2438.23	0.0004993
2449.81	0.0004752
2461.38	0.0004656
2472.96	0.0005194
2484.53	0.0006218
2496.1	0.0006718
2507.68	0.0006902
2519.25	0.0007338
2530.82	0.0008049
2542.4	0.0010047
2553.97	0.0013465
2565.55	0.0016065
2577.12	0.0014865
2588.69	0.0015665
2600.27	0.0015365
2611.84	0.0013865
2623.41	0.0013965
2634.99	0.0015665
2646.56	0.0018765
2658.14	0.0022965
2669.71	0.0024865
2681.28	0.0025265
2692.86	0.0026665
2704.43	0.0032165
2716.01	0.0045565
2727.58	0.0049665
2739.15	0.0047065
2750.73	0.0048865
2762.3	0.0043365
2773.87	0.0045165
2785.45	0.0061265
2797.02	0.0066265
2808.6	0.0082965
2820.17	0.0103765
2831.74	0.0139265
2843.32	0.0202665
2854.89	0.0375765
2866.47	0.0815165
2878.04	0.114417
2889.61	0.107977
2901.19	0.125087
2912.76	0.152577
2924.33	0.142807
2935.91	0.149057
2947.48	0.226987
2959.06	0.462666
2970.63	0.497797
2982.2	0.179707
2993.78	0.0615365
3005.35	0.0225165
3016.92	0.0128865
3028.5	0.0104865
3040.07	0.0098365
3051.65	0.0103865
3063.22	0.0140065
3074.79	0.0189265
3086.37	0.0205665
3097.94	0.0152765
3109.52	0.0080765
3121.09	0.0053065
3132.66	0.0043665
3144.24	0.0041165
3155.81	0.0042765
3167.38	0.0048465
3178.96	0.0057465
3190.53	0.0058765
3202.11	0.0054665
3213.68	0.0050465
3225.25	0.0045465
3236.83	0.0041465
3248.4	0.0037365
3259.98	0.0034265
3271.55	0.0029465
3283.12	0.0024565
3294.7	0.0020165
3306.27	0.0015265
3317.84	0.0013865
3329.42	0.0015265
3340.99	0.0015465
3352.57	0.0014865
3364.14	0.0013765
3375.71	0.0013065
3387.29	0.0010366
3398.86	0.0008992
3410.43	0.0008635
3422.01	0.0007788
3433.58	0.0007414
3445.16	0.000393
3456.73	0.0003466
3468.3	0.0003095
3479.88	0.0003731
3491.45	0.0005213
3503.03	0.0006562
3514.6	0.0006276
3526.17	0.000501
3537.75	0.0003471
3549.32	0.0002693
3560.89	0.0001948
3572.47	6.818e-05
3584.04	0.00011856
3595.62	0.0002959
3607.19	0.0002389
3618.76	0.0002153
3630.34	0.0002112
3641.91	0.00010297
3653.49	0.00010418
3665.06	8.9e-06
3676.63	8.1972e-05
3688.21	9.903e-05
3699.78	6.31e-05
3711.35	0.00012007
3722.93	0.00015411
3734.5	0.0003212
3746.08	0.0003355
3757.65	0.0003081
3769.22	0.0003167
3780.8	0.0004129
3792.37	0.0006259
3803.94	0.0006323
3815.52	0.0006196
3827.09	0.000821
3838.67	0.0007209
3850.24	0.0008265
3861.81	0.0008706
3873.39	0.0009757
3884.96	0.0013165
3896.54	0.0013965
3908.11	0.0011765
3919.68	0.0009481
3931.26	0.000835
3942.83	0.0008806
3954.4	0.0008969
3965.98	0.0007881
3977.55	0.0009582
3989.13	0.0010251
4000.7	0.000842
