Infrared Spectrum: 2-Fluoro-3-(trifluoromethyl)benzonitrile
Formula: C 8 H 3 F 4 N
CAS: 146070-35-1
State: gas
Origin: EPA-IR VAPOR PHASE LIBRARY
1/CM	ABSORBANCE
549.8	0.0020496
559.445	0.0013984
569.09	0.0014202
578.734	0.00233
588.379	0.00283
598.024	0.00338
607.669	0.00834
617.313	0.00831
626.958	0.00342
636.603	0.0014687
646.248	0.00213
655.893	0.00219
665.537	0.0019371
675.182	0.0018827
684.827	0.0019383
694.472	0.0014482
704.116	0.00243
713.761	0.00832
723.406	0.01965
733.051	0.01681
742.695	0.02393
752.34	0.01277
761.985	0.00314
771.63	0.00284
781.275	0.00377
790.919	0.01081
800.564	0.02273
810.209	0.01129
819.854	0.00793
829.498	0.01043
839.143	0.01215
848.788	0.00988
858.433	0.01011
868.078	0.00987
877.722	0.00996
887.367	0.00453
897.012	0.00288
906.657	0.0013047
916.301	0.00209
925.946	0.00222
935.591	0.00247
945.236	0.00239
954.88	0.0020601
964.525	0.00242
974.17	0.0026
983.815	0.0020237
993.46	0.000941
1003.1	0.00244
1012.75	0.00214
1022.39	0.0018397
1032.04	0.0028
1041.68	0.0035
1051.33	0.00408
1060.97	0.00991
1070.62	0.01393
1080.26	0.01686
1089.91	0.0126
1099.55	0.00838
1109.2	0.02672
1118.84	0.06366
1128.49	0.05195
1138.13	0.03761
1147.78	0.05454
1157.42	0.08966
1167.07	0.16018
1176.71	0.20128
1186.36	0.08852
1196	0.03379
1205.64	0.01554
1215.29	0.00968
1224.93	0.00679
1234.58	0.00875
1244.22	0.01814
1253.87	0.03578
1263.51	0.03387
1273.16	0.01777
1282.8	0.01367
1292.45	0.01275
1302.09	0.01781
1311.74	0.05261
1321.38	0.15386
1331.03	0.17549
1340.67	0.05679
1350.32	0.01925
1359.96	0.00881
1369.61	0.00538
1379.25	0.00357
1388.9	0.00317
1398.54	0.00241
1408.18	0.00245
1417.83	0.00226
1427.47	0.00293
1437.12	0.00481
1446.76	0.00844
1456.41	0.02062
1466.05	0.05444
1475.7	0.07722
1485.34	0.04349
1494.99	0.01289
1504.63	0.00545
1514.28	0.00419
1523.92	0.00383
1533.57	0.0028
1543.21	0.00256
1552.86	0.0025
1562.5	0.00338
1572.15	0.00598
1581.79	0.01081
1591.44	0.01567
1601.08	0.01575
1610.73	0.0171
1620.37	0.01603
1630.01	0.00833
1639.66	0.00408
1649.3	0.00356
1658.95	0.00318
1668.59	0.00355
1678.24	0.00295
1687.88	0.00221
1697.53	0.0020199
1707.17	0.0016947
1716.82	0.00246
1726.46	0.00326
1736.11	0.00229
1745.75	0.0016912
1755.4	0.0015548
1765.04	0.0013791
1774.69	0.0014713
1784.33	0.0015675
1793.98	0.0014033
1803.62	0.0016902
1813.27	0.0016008
1822.91	0.0015083
1832.55	0.0017684
1842.2	0.0020545
1851.84	0.00232
1861.49	0.0019161
1871.13	0.0017343
1880.78	0.0017865
1890.42	0.00248
1900.07	0.00338
1909.71	0.00255
1919.36	0.0016421
1929	0.0015707
1938.65	0.00218
1948.29	0.00262
1957.94	0.00247
1967.58	0.0018556
1977.23	0.001662
1986.87	0.0013525
1996.52	0.0015211
2006.16	0.0016756
2015.81	0.0016741
2025.45	0.0017025
2035.1	0.001697
2044.74	0.0020672
2054.38	0.0018625
2064.03	0.0014933
2073.67	0.0018653
2083.32	0.0020212
2092.96	0.0019051
2102.61	0.0015695
2112.25	0.0013478
2121.9	0.0014706
2131.54	0.0013766
2141.19	0.0014646
2150.83	0.0014993
2160.48	0.0019211
2170.12	0.0015505
2179.77	0.0016964
2189.41	0.0017763
2199.06	0.0020158
2208.7	0.0016939
2218.35	0.001877
2227.99	0.002047
2237.64	0.00248
2247.28	0.00276
2256.92	0.00242
2266.57	0.0020335
2276.21	0.0016557
2285.86	0.0018565
2295.5	0.0022
2305.15	0.00243
2314.79	0.00253
2324.44	0.00212
2334.08	0.0020929
2343.73	0.0021026
2353.37	0.00233
2363.02	0.00231
2372.66	0.0016686
2382.31	0.0019115
2391.95	0.0016398
2401.6	0.0018727
2411.24	0.001883
2420.89	0.0018607
2430.53	0.0016773
2440.18	0.0016856
2449.82	0.00214
2459.47	0.0019621
2469.11	0.0020409
2478.75	0.0017875
2488.4	0.001966
2498.04	0.0021054
2507.69	0.00221
2517.33	0.0020844
2526.98	0.0018535
2536.62	0.0015254
2546.27	0.0018622
2555.91	0.0019322
2565.56	0.0020424
2575.2	0.00195
2584.85	0.001923
2594.49	0.0016752
2604.14	0.0018363
2613.78	0.001722
2623.43	0.001567
2633.07	0.0015432
2642.72	0.001685
2652.36	0.0017283
2662.01	0.0015157
2671.65	0.0016274
2681.29	0.0013899
2690.94	0.0015502
2700.58	0.0017287
2710.23	0.0017195
2719.87	0.0014338
2729.52	0.0014951
2739.16	0.0018267
2748.81	0.0016853
2758.45	0.00234
2768.1	0.0018782
2777.74	0.0015129
2787.39	0.0013294
2797.03	0.0020916
2806.68	0.0019174
2816.32	0.0014661
2825.97	0.0019331
2835.61	0.0010478
2845.26	0.0015444
2854.9	0.001878
2864.55	0.0016851
2874.19	0.0018479
2883.84	0.0014805
2893.48	0.0018445
2903.12	0.0018205
2912.77	0.0013334
2922.41	0.0016833
2932.06	0.0020061
2941.7	0.0015595
2951.35	0.0015346
2960.99	0.0019815
2970.64	0.0018778
2980.28	0.0015165
2989.93	0.0014104
2999.57	0.00163
3009.22	0.0018004
3018.86	0.00111115
3028.51	0.0019023
3038.15	0.0013178
3047.8	0.001483
3057.44	0.00228
3067.09	0.00214
3076.73	0.0018111
3086.38	0.00219
3096.02	0.00235
3105.67	0.00243
3115.31	0.0020506
3124.95	0.0012558
3134.6	0.0016346
3144.24	0.0014656
3153.89	0.0020102
3163.53	0.0016967
3173.18	0.0010938
3182.82	0.0012965
3192.47	0.0010926
3202.11	0.001681
3211.76	0.00120193
3221.4	0.0010847
3231.05	0.0016438
3240.69	0.00119453
3250.34	0.0014129
3259.98	0.0016592
3269.63	0.0014014
3279.27	0.0018248
3288.92	0.0012696
3298.56	0.0015201
3308.21	0.0010348
3317.85	0.0012652
3327.49	0.0018208
3337.14	0.0016135
3346.78	0.00119027
3356.43	0.0017525
3366.07	0.0015262
3375.72	0.0013536
3385.36	0.0016151
3395.01	0.0016519
3404.65	0.000751
3414.3	0.0016746
3423.94	0.0012638
3433.59	0.0018162
3443.23	0.0013658
3452.88	0.0014548
3462.52	0.0014937
3472.17	0.0016252
3481.81	0.0016809
3491.46	0.001639
3501.1	0.0014245
3510.75	0.000707
3520.39	0.0020287
3530.04	0.00211
3539.68	0.0015536
3549.32	0.000916
3558.97	0.0014178
3568.61	0.00111644
3578.26	0.0015282
3587.9	0.0017185
3597.55	0.00116719
3607.19	0.000989
3616.84	0.0013032
3626.48	0.00119316
3636.13	0.0016052
3645.77	0.0012932
3655.42	0.0015801
3665.06	0.000976
3674.71	0.000797
3684.35	0.000507
3694	0.0014186
3703.64	0.0015607
3713.29	0.0020885
3722.93	0.0012017
3732.58	0.000836
3742.22	0.00119688
3751.86	0.0015438
3761.51	0.001259
3771.15	0.000441
3780.8	0.000475
3790.44	0.0014729
3800.09	0.0015124
3809.73	0.0016719
3819.38	0.0013832
3829.02	0.0015479
3838.67	0.0015248
3848.31	0.0010387
3857.96	0.001444
3867.6	0.0016999
3877.25	0.0015558
3886.89	0.0017794
3896.54	0.0020484
3906.18	0.0010761
3915.83	0.0017986
3925.47	0.0014235
3935.12	0.0017287
3944.76	0.0018981
3954.41	0.0015686
3964.05	0.000642
3973.69	0.0016428
3983.34	0.0010813
3992.98	0.0013441
