Infrared Spectrum: trans-1,2-Cyclohexanediol
Formula: C 6 H 12 O 2
CAS: 1460-57-7
State: gas
Instrument: HP-GC/MS/IRD
Origin: NIST Mass Spectrometry Data Center
1/CM	ABSORBANCE
550	0.000312
562	0.000368
574	0.0002912
586	0.0002496
598	0.0001648
610	8.16e-05
622	0.0001472
634	0
646	5.6e-05
658	6.4e-05
670	7.04e-05
682	9.6e-05
694	0.000128
706	5.44e-05
718	8.48e-05
730	0.000112
742	0.0001008
754	7.04e-05
766	0.00012
778	0.000128
790	0.0001104
802	0.0001184
814	0.0001552
826	0.0003472
838	0.0010048
850	0.0014544
862	0.0011184
874	0.0005312
886	0.0004048
898	0.0004784
910	0.0005952
922	0.000856
934	0.0008624
946	0.0007328
958	0.0006464
970	0.0007216
982	0.00088
994	0.0012016
1006	0.0017744
1018	0.0029136
1030	0.0052736
1042	0.0074224
1054	0.008824
1066	0.0090464
1078	0.0070112
1090	0.0038048
1102	0.0022048
1114	0.0017424
1126	0.0014864
1138	0.00128
1150	0.0012816
1162	0.0012752
1174	0.001144
1186	0.0010864
1198	0.001152
1210	0.0013744
1222	0.0016704
1234	0.0018704
1246	0.00188
1258	0.0019488
1270	0.001928
1282	0.001696
1294	0.0014816
1306	0.001504
1318	0.001568
1330	0.0016144
1342	0.00152
1354	0.001416
1366	0.0013312
1378	0.001392
1390	0.0013056
1402	0.0010144
1414	0.0007312
1426	0.0006784
1438	0.0010304
1450	0.0016272
1462	0.0015696
1474	0.000936
1486	0.0003728
1498	0.0001744
1510	7.52e-05
1522	5.44e-05
1534	8e-05
1546	4.64e-05
1558	3.2e-05
1570	4.64e-05
1582	7.68e-05
1594	6.08e-05
1606	6.72e-05
1618	4.48e-05
1630	4.32e-05
1642	4.32e-05
1654	2.08e-05
1666	2.08e-05
1678	6.4e-06
1690	1.76e-05
1702	0
1714	1.44e-05
1726	3.2e-05
1738	2.4e-05
1750	1.76e-05
1762	1.6e-05
1774	1.12e-05
1786	1.92e-05
1798	1.12e-05
1810	2.4e-05
1822	0
1834	3.52e-05
1846	1.76e-05
1858	2.24e-05
1870	1.92e-05
1882	3.68e-05
1894	2.56e-05
1906	2.4e-05
1918	3.36e-05
1930	3.68e-05
1942	2.88e-05
1954	4.48e-05
1966	2.88e-05
1978	4.64e-05
1990	2.24e-05
2002	3.36e-05
2014	1.28e-05
2026	1.6e-05
2038	2.08e-05
2050	1.92e-05
2062	2.72e-05
2074	2.4e-05
2086	5.28e-05
2098	3.84e-05
2110	7.2e-05
2122	7.68e-05
2134	5.6e-05
2146	6.72e-05
2158	8e-05
2170	5.76e-05
2182	4.96e-05
2194	3.04e-05
2206	4.8e-05
2218	3.36e-05
2230	3.84e-05
2242	4.32e-05
2254	3.84e-05
2266	3.36e-05
2278	1.6e-06
2290	1.6e-05
2302	2.88e-05
2314	3.2e-05
2326	4.8e-05
2338	8e-05
2350	7.04e-05
2362	8.16e-05
2374	8.64e-05
2386	5.6e-05
2398	4.48e-05
2410	6.56e-05
2422	4.16e-05
2434	2.4e-05
2446	2.88e-05
2458	3.84e-05
2470	4.32e-05
2482	5.76e-05
2494	6.88e-05
2506	5.28e-05
2518	6.24e-05
2530	4.8e-05
2542	6.88e-05
2554	8.96e-05
2566	0.0001072
2578	0.0001264
2590	0.0001104
2602	0.000128
2614	0.0001584
2626	0.0001712
2638	0.0001936
2650	0.000208
2662	0.0002352
2674	0.0002544
2686	0.0002416
2698	0.0002512
2710	0.0002064
2722	0.0002368
2734	0.00024
2746	0.0002704
2758	0.0002816
2770	0.0003136
2782	0.0003728
2794	0.0004496
2806	0.0005216
2818	0.0006176
2830	0.0009072
2842	0.0015296
2854	0.0031872
2866	0.005624
2878	0.0062464
2890	0.0045104
2902	0.0033888
2914	0.0043712
2926	0.0081744
2938	0.0148864
2950	0.0138352
2962	0.0070192
2974	0.0015376
2986	0.0004688
2998	0.0002592
3010	0.0001728
3022	0.0001216
3034	9.92e-05
3046	6.88e-05
3058	8.8e-05
3070	8.32e-05
3082	0.0001008
3094	6.72e-05
3106	7.52e-05
3118	7.36e-05
3130	4.96e-05
3142	4.8e-06
3154	5.6e-05
3166	4.64e-05
3178	6.56e-05
3190	1.92e-05
3202	7.04e-05
3214	4.64e-05
3226	5.92e-05
3238	7.36e-05
3250	7.04e-05
3262	0.000112
3274	7.52e-05
3286	6.72e-05
3298	2.72e-05
3310	4.48e-05
3322	0
3334	5.44e-05
3346	2.4e-05
3358	8.16e-05
3370	8.8e-05
3382	7.84e-05
3394	5.76e-05
3406	3.84e-05
3418	4.32e-05
3430	4.48e-05
3442	3.52e-05
3454	5.12e-05
3466	4.32e-05
3478	6.88e-05
3490	6.56e-05
3502	0.0001088
3514	9.28e-05
3526	9.44e-05
3538	0.0001168
3550	8.96e-05
3562	0.0001312
3574	0.0002016
3586	0.0002288
3598	0.000472
3610	0.0010608
3622	0.0019824
3634	0.0022448
3646	0.0017056
3658	0.0012736
3670	0.0009168
3682	0.0004432
3694	0.0002352
3706	0.0001808
3718	0.0001056
3730	9.44e-05
3742	5.76e-05
3754	0.0001088
3766	5.28e-05
3778	9.44e-05
3790	7.84e-05
3802	8.96e-05
3814	9.76e-05
3826	4.96e-05
3838	8.64e-05
