Infrared Spectrum: 2-Fluoro-5-(trifluoromethyl)benzaldehyde
Formula: C 8 H 4 F 4 O
CAS: 146137-78-2
State: gas
Origin: EPA-IR VAPOR PHASE LIBRARY
1/CM	ABSORBANCE
549.8	0.00325
559.445	0.00519
569.09	0.00528
578.734	0.01387
588.379	0.02113
598.024	0.01885
607.669	0.00684
617.313	0.00702
626.958	0.00579
636.603	0.00715
646.248	0.00443
655.893	0.0020542
665.537	0.001426
675.182	0.0017019
684.827	0.0023247
694.472	0.00351
704.116	0.00282
713.761	0.001621
723.406	0.00316
733.051	0.0035
742.695	0.00359
752.34	0.00278
761.985	0.0027055
771.63	0.0024603
781.275	0.0021883
790.919	0.0024142
800.564	0.00435
810.209	0.00638
819.854	0.01061
829.498	0.01975
839.143	0.013
848.788	0.00418
858.433	0.00371
868.078	0.0021964
877.722	0.0026618
887.367	0.00331
897.012	0.00464
906.657	0.00806
916.301	0.00954
925.946	0.00662
935.591	0.00335
945.236	0.0027182
954.88	0.0013
964.525	0.0021492
974.17	0.001414
983.815	0.00291
993.46	0.00327
1003.1	0.0023886
1012.75	0.001481
1022.39	0.001593
1032.04	0.0024925
1041.68	0.0023253
1051.33	0.00426
1060.97	0.01196
1070.62	0.02006
1080.26	0.01362
1089.91	0.00791
1099.55	0.01418
1109.2	0.03761
1118.84	0.04194
1128.49	0.02572
1138.13	0.05484
1147.78	0.10592
1157.42	0.13041
1167.07	0.10663
1176.71	0.14149
1186.36	0.08897
1196	0.02806
1205.64	0.01485
1215.29	0.0114
1224.93	0.01743
1234.58	0.022
1244.22	0.01658
1253.87	0.02062
1263.51	0.06623
1273.16	0.04984
1282.8	0.01328
1292.45	0.01064
1302.09	0.01527
1311.74	0.03074
1321.38	0.09389
1331.03	0.13548
1340.67	0.0556
1350.32	0.01446
1359.96	0.00836
1369.61	0.00678
1379.25	0.00592
1388.9	0.00677
1398.54	0.00711
1408.18	0.00385
1417.83	0.00313
1427.47	0.00313
1437.12	0.00291
1446.76	0.00295
1456.41	0.00327
1466.05	0.00301
1475.7	0.00411
1485.34	0.00639
1494.99	0.01533
1504.63	0.01911
1514.28	0.0062
1523.92	0.00324
1533.57	0.00303
1543.21	0.00301
1552.86	0.00317
1562.5	0.00297
1572.15	0.00401
1581.79	0.00622
1591.44	0.01212
1601.08	0.02031
1610.73	0.02991
1620.37	0.03008
1630.01	0.0187
1639.66	0.011
1649.3	0.0069
1658.95	0.00592
1668.59	0.00563
1678.24	0.00581
1687.88	0.00849
1697.53	0.01812
1707.17	0.03565
1716.82	0.05021
1726.46	0.04652
1736.11	0.03362
1745.75	0.01043
1755.4	0.00405
1765.04	0.0027752
1774.69	0.0027173
1784.33	0.0025318
1793.98	0.0025251
1803.62	0.0025028
1813.27	0.00297
1822.91	0.0027476
1832.55	0.0025981
1842.2	0.0024464
1851.84	0.0018547
1861.49	0.001563
1871.13	0.001632
1880.78	0.0021626
1890.42	0.00185717
1900.07	0.0027516
1909.71	0.00301
1919.36	0.0027134
1929	0.0019193
1938.65	0.00163
1948.29	0.001576
1957.94	0.001524
1967.58	0.001659
1977.23	0.001354
1986.87	0.001413
1996.52	0.001592
2006.16	0.001357
2015.81	0.00164
2025.45	0.001458
2035.1	0.0016895
2044.74	0.0019594
2054.38	0.001519
2064.03	0.00184348
2073.67	0.0022329
2083.32	0.0017647
2092.96	0.001374
2102.61	0.001434
2112.25	0.001171
2121.9	0.001427
2131.54	0.001474
2141.19	0.001453
2150.83	0.001558
2160.48	0.001302
2170.12	0.001395
2179.77	0.0018156
2189.41	0.001655
2199.06	0.001281
2208.7	0.001636
2218.35	0.00138
2227.99	0.0016931
2237.64	0.00185149
2247.28	0.001743
2256.92	0.001448
2266.57	0.0021137
2276.21	0.00179154
2285.86	0.0020076
2295.5	0.0019674
2305.15	0.0020046
2314.79	0.00181257
2324.44	0.0019933
2334.08	0.0020469
2343.73	0.0019122
2353.37	0.0020035
2363.02	0.002003
2372.66	0.001656
2382.31	0.0019516
2391.95	0.001291
2401.6	0.0016999
2411.24	0.001378
2420.89	0.00166
2430.53	0.001491
2440.18	0.00180288
2449.82	0.0019298
2459.47	0.001374
2469.11	0.001483
2478.75	0.001481
2488.4	0.00184654
2498.04	0.00183489
2507.69	0.0017165
2517.33	0.001705
2526.98	0.001648
2536.62	0.001385
2546.27	0.001264
2555.91	0.001247
2565.56	0.001045
2575.2	0.001303
2584.85	0.0016914
2594.49	0.0020945
2604.14	0.001649
2613.78	0.001636
2623.43	0.001568
2633.07	0.001468
2642.72	0.0019505
2652.36	0.001641
2662.01	0.001423
2671.65	0.0020738
2681.29	0.0017288
2690.94	0.0021005
2700.58	0.0023343
2710.23	0.00283
2719.87	0.00316
2729.52	0.00366
2739.16	0.0024531
2748.81	0.00306
2758.45	0.00534
2768.1	0.00624
2777.74	0.00391
2787.39	0.00325
2797.03	0.0026555
2806.68	0.0024934
2816.32	0.002562
2825.97	0.00349
2835.61	0.0037
2845.26	0.00404
2854.9	0.00804
2864.55	0.01887
2874.19	0.01402
2883.84	0.00384
2893.48	0.0026414
2903.12	0.00304
2912.77	0.001329
2922.41	0.0017373
2932.06	0.001667
2941.7	0.00293
2951.35	0.002225
2960.99	0.001624
2970.64	0.001593
2980.28	0.001121
2989.93	0.001427
2999.57	0.001488
3009.22	0.00109
3018.86	0.001471
3028.51	0.0023181
3038.15	0.001512
3047.8	0.001676
3057.44	0.0020546
3067.09	0.002324
3076.73	0.0020822
3086.38	0.0019112
3096.02	0.0020498
3105.67	0.001631
3115.31	0.00148
3124.95	0.001248
3134.6	0.00183453
3144.24	0.001623
3153.89	0.00134
3163.53	0.001678
3173.18	0.001552
3182.82	0.00097
3192.47	0.0017473
3202.11	0.001052
3211.76	0.001509
3221.4	0.001578
3231.05	0.001243
3240.69	0.000999
3250.34	0.000871
3259.98	0.000943
3269.63	0.00053
3279.27	0.000866
3288.92	0.0021392
3298.56	0.001663
3308.21	0.001221
3317.85	0.00042
3327.49	0.0017435
3337.14	0.000994
3346.78	0.000864
3356.43	0.001364
3366.07	0.000872
3375.72	0.00018
3385.36	0.00031
3395.01	0.001536
3404.65	0.0026655
3414.3	0.0020315
3423.94	0.0019692
3433.59	0.001569
3443.23	0.00186976
3452.88	0.001527
3462.52	0.001198
3472.17	0.001326
3481.81	0.001365
3491.46	0.00109
3501.1	0.000979
3510.75	0.000987
3520.39	0.001132
3530.04	0.0016959
3539.68	0.001281
3549.32	0.000808
3558.97	0.00026
3568.61	0.00038
3578.26	0.001527
3587.9	0.00081
3597.55	0.00065
3607.19	0.00052
3616.84	0.000857
3626.48	0.00074
3636.13	0.001508
3645.77	0.0020103
3655.42	0.000955
3665.06	0.001404
3674.71	0.0021019
3684.35	0.001513
3694	0.001296
3703.64	0.001104
3713.29	0.000887
3722.93	0.001628
3732.58	0.001241
3742.22	0.001279
3751.86	0.001182
3761.51	0.000882
3771.15	0.001391
3780.8	0.001021
3790.44	0.000912
3800.09	0.0021264
3809.73	0.00114
3819.38	0.0024888
3829.02	0.001354
3838.67	0.00132
3848.31	0.001433
3857.96	0.00067
3867.6	0.00032
3877.25	0.001276
3886.89	0.001297
3896.54	0.001017
3906.18	0.001201
3915.83	0
3925.47	0.001111
3935.12	0.00029
3944.76	0.001274
3954.41	0.001667
3964.05	0.00076
3973.69	0.000847
3983.34	0.0017525
3992.98	0.000943
