Infrared Spectrum: Acetamide, 2,2'-thiobis-
Formula: C4 H8 N2 O2 S
CAS: 14618-65-6
State: SOLID (SPLIT MULL), FLUOROLUBE FOR 3800-1330 CM^-^1, NUJOL FOR 1330-400 CM^-^1
Melting point: 172 C
Class: COBLENTZ II
Instrument: BECKMAN IR-9 (GRATING)
Instrument parameters: ORDER CHANGES: 670, 1200, 2000 CM^-^1
Sampling: TRANSMISSION
Resolution: 2
Origin: DOW CHEMICAL COMPANY
1/CM	TRANSMITTANCE
3800	0.7912
3791	0.7928
3782	0.7944
3773	0.7956
3764	0.7972
3755	0.7988
3746	0.8001
3737	0.8012
3728	0.8025
3719	0.8037
3710	0.8053
3701	0.8068
3692	0.8086
3683	0.8103
3674	0.8121
3665	0.8138
3656	0.815
3647	0.8161
3638	0.8171
3629	0.8182
3620	0.8191
3611	0.82
3602	0.8208
3593	0.8216
3584	0.8223
3575	0.823
3566	0.8237
3557	0.8239
3548	0.8242
3539	0.8242
3530	0.8239
3521	0.8236
3512	0.8234
3503	0.8228
3494	0.8218
3485	0.821
3476	0.8191
3467	0.8151
3458	0.8088
3449	0.7934
3440	0.7708
3431	0.7465
3422	0.7135
3413	0.6396
3404	0.5787
3395	0.3104
3386	0.0613
3377	0.0576
3368	0.1452
3359	0.2063
3350	0.2887
3341	0.3709
3332	0.4414
3323	0.4622
3314	0.4721
3305	0.481
3296	0.4898
3287	0.4984
3278	0.5066
3269	0.5129
3260	0.5141
3251	0.5041
3242	0.4753
3233	0.4381
3224	0.3882
3215	0.3382
3206	0.2883
3197	0.2383
3188	0.2191
3179	0.2234
3170	0.2745
3161	0.3239
3152	0.3562
3143	0.374
3134	0.388
3125	0.4023
3116	0.422
3107	0.4525
3098	0.4845
3089	0.5166
3080	0.5435
3071	0.5693
3062	0.5873
3053	0.6089
3044	0.6277
3035	0.6408
3026	0.6549
3017	0.6665
3008	0.6783
2999	0.6901
2990	0.7004
2981	0.7011
2972	0.6701
2963	0.6826
2954	0.7003
2945	0.7292
2936	0.7149
2927	0.7043
2918	0.6651
2909	0.7308
2900	0.7511
2891	0.7592
2882	0.7605
2873	0.7607
2864	0.7604
2855	0.7599
2846	0.7615
2837	0.7647
2828	0.768
2819	0.7711
2810	0.7733
2801	0.7718
2792	0.7681
2783	0.7636
2774	0.7601
2765	0.761
2756	0.7674
2747	0.7735
2738	0.7805
2729	0.7875
2720	0.7936
2711	0.8008
2702	0.8065
2693	0.8105
2684	0.8139
2675	0.8162
2666	0.8183
2657	0.8203
2648	0.8223
2639	0.8236
2630	0.8246
2621	0.8251
2612	0.8255
2603	0.826
2594	0.8268
2585	0.8274
2576	0.8278
2567	0.8282
2558	0.8292
2549	0.8304
2540	0.8309
2531	0.8309
2522	0.8305
2513	0.829
2504	0.8277
2495	0.8261
2486	0.8248
2477	0.8248
2468	0.8266
2459	0.8289
2450	0.8305
2441	0.8316
2432	0.8321
2423	0.8324
2414	0.8328
2405	0.833
2396	0.8328
2387	0.8328
2378	0.8325
2369	0.8308
2360	0.8275
2351	0.8239
2342	0.8213
2333	0.82
2324	0.8194
2315	0.8204
2306	0.8228
2297	0.828
2288	0.8295
2279	0.8294
2270	0.8291
2261	0.8298
2252	0.8317
2243	0.8347
2234	0.8392
2225	0.8433
2216	0.8465
2207	0.8488
2198	0.8511
2189	0.8532
2180	0.8553
2171	0.8568
2162	0.8584
2153	0.8599
2144	0.8615
2135	0.8628
2126	0.8642
2117	0.8654
2108	0.8665
2099	0.8671
2090	0.8677
2081	0.8692
2072	0.8714
2063	0.8746
2054	0.8768
2045	0.8791
2036	0.8815
2027	0.884
2018	0.8847
2009	0.8839
2000	0.8746
1991	0.8727
1982	0.881
1973	0.8859
1964	0.888
1955	0.8881
1946	0.8878
1937	0.8881
1928	0.8886
1919	0.8895
1910	0.8895
1901	0.8889
1892	0.8878
1883	0.8874
1874	0.8871
1865	0.8873
1856	0.8863
1847	0.8847
1838	0.8816
1829	0.8775
1820	0.8754
1811	0.8736
1802	0.8717
1793	0.8651
1784	0.8546
1775	0.8561
1766	0.85
1757	0.8332
1748	0.8324
1739	0.8288
1730	0.8065
1721	0.7714
1712	0.7511
1703	0.6799
1694	0.4345
1685	0.3443
1676	0.3595
1667	0.0618
1658	0.0343
1649	0.0687
1640	0.0708
1631	0.1636
1622	0.2441
1613	0.3255
1604	0.4376
1595	0.5583
1586	0.604
1577	0.6586
1568	0.6895
1559	0.7115
1550	0.7287
1541	0.7408
1532	0.7491
1523	0.7561
1514	0.7617
1505	0.7648
1496	0.7648
1487	0.7621
1478	0.7557
1469	0.7436
1460	0.7247
1451	0.6893
1442	0.6801
1433	0.628
1424	0.4825
1415	0.3657
1406	0.3671
1397	0.4593
1388	0.4615
1379	0.3065
1370	0.5498
1361	0.6371
1352	0.6381
1343	0.6029
1334	0.615
1325	0.6305
1316	0.6358
1307	0.6346
1298	0.6455
1289	0.6639
1280	0.6825
1271	0.7004
1262	0.7011
1253	0.5651
1244	0.6014
1235	0.5384
1226	0.6551
1217	0.6077
1208	0.6717
1199	0.4829
1190	0.5056
1181	0.6528
1172	0.6771
1163	0.4687
1154	0.6611
1145	0.7089
1136	0.7157
1127	0.7047
1118	0.6804
1109	0.6949
1100	0.6905
1091	0.7119
1082	0.7544
1073	0.7686
1064	0.7751
1055	0.7801
1046	0.7857
1037	0.7915
1028	0.7958
1019	0.7986
1010	0.8001
1001	0.8008
992	0.8006
983	0.7984
974	0.7965
965	0.7975
956	0.7933
947	0.7026
938	0.763
929	0.8049
920	0.808
911	0.8078
902	0.8068
893	0.8035
884	0.7865
875	0.798
866	0.7911
857	0.744
848	0.7704
839	0.7575
830	0.6991
821	0.603
812	0.5823
803	0.6898
794	0.6451
785	0.5881
776	0.5754
767	0.6895
758	0.7148
749	0.7303
740	0.7274
731	0.7115
722	0.6858
713	0.713
704	0.6937
695	0.6326
686	0.5524
677	0.4815
668	0.5642
659	0.6476
650	0.6173
641	0.4476
632	0.3764
623	0.4651
614	0.5065
605	0.5276
596	0.5929
587	0.715
578	0.7731
569	0.7757
560	0.659
551	0.7394
542	0.7171
533	0.7062
524	0.7555
515	0.7944
506	0.8057
497	0.8033
488	0.7958
479	0.7793
470	0.7407
461	0.5373
452	0.6949
443	0.671
434	0.6278
425	0.6227
416	0.6504
