Infrared Spectrum: 1-Cyclohexanol-1-butanone
Formula: C 10 H 18 O
CAS: 1462-27-7
State: gas
Instrument: HP-GC/MS/IRD
Origin: NIST Mass Spectrometry Data Center
1/CM	ABSORBANCE
550	0.00011
562	0.000145
574	0.00016
586	0.000195
598	0.000165
610	0.00011
622	8e-05
634	4.5e-05
646	4.5e-05
658	0.00018
670	0.000175
682	0.00014
694	0.0002
706	0.00022
718	0.000205
730	0.00022
742	0.000195
754	0.00036
766	0.000425
778	0.00049
790	0.00073
802	0.00063
814	0.000375
826	0.00034
838	0.000315
850	0.00031
862	0.000505
874	0.000705
886	0.00101
898	0.00116
910	0.000895
922	0.000525
934	0.00035
946	0.000285
958	0.00034
970	0.000745
982	0.00205
994	0.003625
1006	0.002695
1018	0.002035
1030	0.001895
1042	0.00183
1054	0.001865
1066	0.0014
1078	0.00108
1090	0.00104
1102	0.001335
1114	0.00209
1126	0.002675
1138	0.003635
1150	0.00445
1162	0.00328
1174	0.002425
1186	0.001605
1198	0.001
1210	0.00087
1222	0.001065
1234	0.001545
1246	0.00173
1258	0.001745
1270	0.00185
1282	0.001825
1294	0.002435
1306	0.002475
1318	0.00227
1330	0.002325
1342	0.002905
1354	0.003765
1366	0.00421
1378	0.00305
1390	0.001925
1402	0.001645
1414	0.00175
1426	0.00187
1438	0.003
1450	0.005665
1462	0.004885
1474	0.002435
1486	0.00107
1498	0.000565
1510	0.000355
1522	0.000265
1534	0.000195
1546	0.00016
1558	0.00018
1570	0.000155
1582	0.00014
1594	0.000165
1606	0.000175
1618	0.000235
1630	0.000235
1642	0.00032
1654	0.000485
1666	0.000755
1678	0.00146
1690	0.00316
1702	0.00808
1714	0.01598
1726	0.014565
1738	0.005585
1750	0.0018
1762	0.000785
1774	0.00045
1786	0.00029
1798	0.00021
1810	0.00017
1822	0.00014
1834	0.000105
1846	9.5e-05
1858	7e-05
1870	7e-05
1882	7e-05
1894	5e-05
1906	3.5e-05
1918	4.5e-05
1930	2.5e-05
1942	2e-05
1954	2e-05
1966	2e-05
1978	2e-05
1990	2.5e-05
2002	1.5e-05
2014	0
2026	2.5e-05
2038	3.5e-05
2050	3e-05
2062	2.5e-05
2074	2.5e-05
2086	1.5e-05
2098	2.5e-05
2110	1.5e-05
2122	4e-05
2134	4.5e-05
2146	6e-05
2158	4e-05
2170	6.5e-05
2182	5e-05
2194	6e-05
2206	6.5e-05
2218	5.5e-05
2230	6.5e-05
2242	7e-05
2254	5e-05
2266	3.5e-05
2278	3.5e-05
2290	4.5e-05
2302	4.5e-05
2314	2e-05
2326	5.5e-05
2338	7e-05
2350	7e-05
2362	0.0001
2374	8e-05
2386	4.5e-05
2398	5e-05
2410	5.5e-05
2422	6.5e-05
2434	4e-05
2446	0
2458	3e-05
2470	3e-05
2482	5e-05
2494	7e-05
2506	5.5e-05
2518	5.5e-05
2530	4.5e-05
2542	4e-05
2554	8e-05
2566	7e-05
2578	9.5e-05
2590	0.00014
2602	0.00019
2614	0.000175
2626	0.00021
2638	0.000275
2650	0.00037
2662	0.00054
2674	0.00053
2686	0.000435
2698	0.00036
2710	0.000325
2722	0.00031
2734	0.00031
2746	0.00042
2758	0.000465
2770	0.00053
2782	0.000705
2794	0.00096
2806	0.00119
2818	0.00144
2830	0.00202
2842	0.003775
2854	0.01004
2866	0.016105
2878	0.01255
2890	0.01041
2902	0.011455
2914	0.016595
2926	0.030625
2938	0.05
2950	0.035335
2962	0.01773
2974	0.01343
2986	0.007045
2998	0.003305
3010	0.0019
3022	0.001275
3034	0.000945
3046	0.00069
3058	0.00055
3070	0.00044
3082	0.00038
3094	0.000335
3106	0.000315
3118	0.00028
3130	0.00025
3142	0.000235
3154	0.000305
3166	0.00027
3178	0.00023
3190	0.00015
3202	0.00017
3214	0.00011
3226	0.000105
3238	6e-05
3250	7.5e-05
3262	5e-05
3274	5e-05
3286	7.5e-05
3298	6.5e-05
3310	5e-06
3322	6e-05
3334	0.0001
3346	9e-05
3358	9.5e-05
3370	9.5e-05
3382	0.000115
3394	0.00019
3406	0.00025
3418	0.000385
3430	0.00038
3442	0.00023
3454	0.000155
3466	0.000115
3478	7e-05
3490	7.5e-05
3502	5e-05
3514	5e-05
3526	5.5e-05
3538	2e-05
3550	4e-05
3562	4e-05
3574	5e-06
3586	5.5e-05
3598	7e-05
3610	1.5e-05
3622	6.5e-05
3634	6e-05
3646	6e-05
3658	4e-05
3670	7.5e-05
3682	0.0001
3694	8e-05
3706	0.0001
3718	9e-05
3730	0.00014
3742	0.0001
3754	0.000135
3766	0.00011
3778	0.00012
3790	9e-05
3802	0.000125
3814	0.00017
3826	0.00013
3838	0.00013
