Infrared Spectrum: 1-Butylcyclopentanol
Formula: C 9 H 18 O
CAS: 1462-97-1
State: gas
Instrument: HP-GC/MS/IRD
Origin: NIST Mass Spectrometry Data Center
1/CM	ABSORBANCE
550	0.0001178
562	8.74e-05
574	0.0001786
586	0.0002394
598	0.0002546
610	0.0002584
622	0.0003002
634	0.00019
646	0.0002242
658	0.0002774
670	0.0002204
682	0.0002166
694	0.0001596
706	0.0001938
718	0.0002812
730	0.0003762
742	0.0004902
754	0.0005966
766	0.0005852
778	0.0007106
790	0.0008056
802	0.0006992
814	0.0006992
826	0.0006802
838	0.000684
850	0.0007676
862	0.0010488
874	0.0014478
886	0.0019266
898	0.0020558
910	0.0017518
922	0.0013718
934	0.0012996
946	0.0014174
958	0.00152
970	0.0020672
982	0.0034694
994	0.0051186
1006	0.0048336
1018	0.0033098
1030	0.0024928
1042	0.0022268
1054	0.0021318
1066	0.0018164
1078	0.0016302
1090	0.0016226
1102	0.0018278
1114	0.0021812
1126	0.0023028
1138	0.0022686
1150	0.0024434
1162	0.0028462
1174	0.0032262
1186	0.003382
1198	0.0032756
1210	0.0033706
1222	0.0034846
1234	0.003287
1246	0.0031046
1258	0.003097
1270	0.00304
1282	0.0027626
1294	0.0024662
1306	0.0023104
1318	0.0024662
1330	0.0028994
1342	0.0030628
1354	0.0027094
1366	0.0023978
1378	0.002375
1390	0.0020748
1402	0.0013946
1414	0.0012882
1426	0.0016378
1438	0.0024966
1450	0.003173
1462	0.003363
1474	0.0028728
1486	0.0017404
1498	0.0009196
1510	0.0006612
1522	0.000513
1534	0.0003496
1546	0.0003116
1558	0.0002926
1570	0.0001748
1582	0.0001216
1594	0.0001102
1606	0.000114
1618	0.0001292
1630	9.12e-05
1642	0.0001026
1654	0.0001596
1666	9.88e-05
1678	9.88e-05
1690	7.6e-05
1702	0.0001026
1714	0.000114
1726	5.7e-05
1738	9.12e-05
1750	8.36e-05
1762	6.08e-05
1774	7.22e-05
1786	4.94e-05
1798	5.32e-05
1810	1.14e-05
1822	5.32e-05
1834	2.66e-05
1846	5.32e-05
1858	4.56e-05
1870	4.94e-05
1882	4.94e-05
1894	3.8e-05
1906	3.04e-05
1918	5.32e-05
1930	1.14e-05
1942	1.9e-05
1954	1.52e-05
1966	1.14e-05
1978	0
1990	1.9e-05
2002	2.66e-05
2014	1.9e-05
2026	1.52e-05
2038	4.56e-05
2050	5.7e-05
2062	5.7e-05
2074	3.04e-05
2086	4.56e-05
2098	4.18e-05
2110	3.42e-05
2122	3.42e-05
2134	5.32e-05
2146	6.08e-05
2158	6.08e-05
2170	7.98e-05
2182	9.5e-05
2194	8.36e-05
2206	0.0001026
2218	0.0001102
2230	0.0001102
2242	8.36e-05
2254	0.0001102
2266	7.98e-05
2278	9.5e-05
2290	7.22e-05
2302	0.0001026
2314	9.12e-05
2326	0.000133
2338	0.0001786
2350	0.0001482
2362	0.0001216
2374	0.0001102
2386	0.0001026
2398	8.74e-05
2410	7.6e-05
2422	7.22e-05
2434	6.46e-05
2446	4.94e-05
2458	5.32e-05
2470	5.32e-05
2482	4.56e-05
2494	6.46e-05
2506	7.98e-05
2518	7.6e-05
2530	9.12e-05
2542	7.6e-05
2554	0.000114
2566	0.0001444
2578	0.0001558
2590	0.000171
2602	0.000171
2614	0.0001824
2626	0.0002014
2638	0.0002014
2650	0.000247
2662	0.0002774
2674	0.000285
2686	0.0003154
2698	0.0003382
2710	0.0003838
2722	0.000399
2734	0.0004788
2746	0.000551
2758	0.00057
2770	0.000627
2782	0.0007714
2794	0.000969
2806	0.001254
2818	0.001672
2830	0.0025612
2842	0.0045486
2854	0.0077672
2866	0.0115368
2878	0.014972
2890	0.014421
2902	0.013661
2914	0.0176966
2926	0.0247836
2938	0.0320948
2950	0.0327978
2962	0.0374338
2974	0.0310688
2986	0.0131366
2998	0.005928
3010	0.0035226
3022	0.0023636
3034	0.0016986
3046	0.001273
3058	0.0009956
3070	0.000779
3082	0.000646
3094	0.0005624
3106	0.000475
3118	0.0003838
3130	0.0003306
3142	0.0002926
3154	0.000285
3166	0.0002774
3178	0.000247
3190	0.0002242
3202	0.0001748
3214	0.0001482
3226	0.0001444
3238	7.98e-05
3250	7.6e-05
3262	3.42e-05
3274	6.46e-05
3286	5.7e-05
3298	7.98e-05
3310	4.94e-05
3322	4.56e-05
3334	8.36e-05
3346	6.46e-05
3358	0.000114
3370	8.36e-05
3382	0.000114
3394	9.5e-05
3406	0.000133
3418	7.6e-05
3430	7.6e-05
3442	6.08e-05
3454	5.7e-05
3466	6.84e-05
3478	9.12e-05
3490	5.7e-05
3502	8.36e-05
3514	6.46e-05
3526	8.74e-05
3538	9.88e-05
3550	0.0001064
3562	8.74e-05
3574	8.74e-05
3586	0.0001178
3598	0.000114
3610	0.0002926
3622	0.0006802
3634	0.0014288
3646	0.0015238
3658	0.0007296
3670	0.0002926
3682	0.0001292
3694	0.0001178
3706	0.0001558
3718	0.0001596
3730	0.000114
3742	0.0001368
3754	0.0001406
3766	0.0001444
3778	0.0001064
3790	7.22e-05
3802	0.0001558
3814	0.000171
3826	0.000171
3838	0.0001786
