Infrared Spectrum: 1-Isopropylcyclopentene
Formula: C 8 H 14
CAS: 1462-07-3
State: gas
Instrument: HP-GC/MS/IRD
Origin: NIST Mass Spectrometry Data Center
1/CM	ABSORBANCE
550	0.000972
562	0.00058
574	0.000496
586	0.000324
598	0.000328
610	0.000212
622	0.000228
634	0.000152
646	8e-05
658	0.000116
670	0.00014
682	8.4e-05
694	4.8e-05
706	5.6e-05
718	0.000144
730	6.4e-05
742	0.0001
754	0.00018
766	0.000308
778	0.000656
790	0.001392
802	0.002312
814	0.002492
826	0.001688
838	0.000964
850	0.000472
862	0.000392
874	0.000384
886	0.000588
898	0.000676
910	0.000616
922	0.00064
934	0.001044
946	0.001308
958	0.001076
970	0.000552
982	0.000332
994	0.00042
1006	0.000912
1018	0.00138
1030	0.001568
1042	0.001228
1054	0.00088
1066	0.000872
1078	0.00084
1090	0.0008
1102	0.000824
1114	0.00082
1126	0.00062
1138	0.000544
1150	0.000552
1162	0.000636
1174	0.000892
1186	0.000832
1198	0.000672
1210	0.000768
1222	0.000728
1234	0.000812
1246	0.000992
1258	0.000996
1270	0.000924
1282	0.0014
1294	0.001844
1306	0.00192
1318	0.001424
1330	0.00104
1342	0.001248
1354	0.001624
1366	0.00214
1378	0.002588
1390	0.002124
1402	0.001148
1414	0.00078
1426	0.000976
1438	0.001576
1450	0.002496
1462	0.003392
1474	0.003048
1486	0.001728
1498	0.00076
1510	0.000488
1522	0.000348
1534	0.00022
1546	0.000204
1558	0.000184
1570	0.000132
1582	0.00018
1594	0.000256
1606	0.000328
1618	0.000464
1630	0.000604
1642	0.000632
1654	0.000484
1666	0.000268
1678	0.000224
1690	0.000208
1702	0.000196
1714	0.000136
1726	0.000112
1738	7.6e-05
1750	8e-05
1762	0.000104
1774	8e-05
1786	0.000104
1798	0.000104
1810	8e-05
1822	0.000128
1834	0.000168
1846	0.000184
1858	0.000152
1870	8.8e-05
1882	6.4e-05
1894	6.8e-05
1906	4.4e-05
1918	8e-05
1930	5.2e-05
1942	4.8e-05
1954	2.8e-05
1966	3.6e-05
1978	4.8e-05
1990	3.2e-05
2002	1.6e-05
2014	2.4e-05
2026	4.4e-05
2038	2.4e-05
2050	1.6e-05
2062	3.2e-05
2074	4e-06
2086	2e-05
2098	8e-06
2110	3.2e-05
2122	1.2e-05
2134	3.6e-05
2146	1.6e-05
2158	2.8e-05
2170	6e-05
2182	5.6e-05
2194	6e-05
2206	5.6e-05
2218	6.4e-05
2230	9.2e-05
2242	9.6e-05
2254	8.8e-05
2266	8e-05
2278	3.2e-05
2290	6e-05
2302	6.4e-05
2314	8e-05
2326	9.2e-05
2338	7.2e-05
2350	6.4e-05
2362	6.8e-05
2374	5.6e-05
2386	3.2e-05
2398	3.2e-05
2410	3.6e-05
2422	2e-05
2434	0
2446	8e-06
2458	5.6e-05
2470	5.2e-05
2482	4.8e-05
2494	4.8e-05
2506	5.2e-05
2518	3.6e-05
2530	4e-05
2542	6.4e-05
2554	9.6e-05
2566	0.000164
2578	0.000232
2590	0.000248
2602	0.000188
2614	0.000112
2626	0.000116
2638	0.000108
2650	0.000148
2662	0.00014
2674	0.000144
2686	0.000196
2698	0.00024
2710	0.000316
2722	0.000432
2734	0.000524
2746	0.00058
2758	0.000668
2770	0.00074
2782	0.000812
2794	0.001056
2806	0.001576
2818	0.00242
2830	0.004144
2842	0.008816
2854	0.015132
2866	0.018336
2878	0.017652
2890	0.01728
2902	0.018188
2914	0.01936
2926	0.021404
2938	0.025292
2950	0.03146
2962	0.04
2974	0.032624
2986	0.014264
2998	0.00536
3010	0.002896
3022	0.002236
3034	0.0026
3046	0.003504
3058	0.003772
3070	0.002736
3082	0.001352
3094	0.000788
3106	0.000604
3118	0.000488
3130	0.00044
3142	0.000348
3154	0.000348
3166	0.000336
3178	0.000352
3190	0.000264
3202	0.00026
3214	0.00026
3226	0.000184
3238	0.00012
3250	0.000108
3262	8.8e-05
3274	0.000116
3286	6e-05
3298	2.8e-05
3310	0
3322	1.2e-05
3334	4.4e-05
3346	3.2e-05
3358	2.8e-05
3370	2.4e-05
3382	4.8e-05
3394	8.8e-05
3406	8e-05
3418	2e-05
3430	5.6e-05
3442	4.8e-05
3454	1.6e-05
3466	3.2e-05
3478	8.4e-05
3490	6.4e-05
3502	6.8e-05
3514	8.8e-05
3526	0.000128
3538	8.4e-05
3550	7.6e-05
3562	8.8e-05
3574	6.4e-05
3586	9.2e-05
3598	7.2e-05
3610	0.0001
3622	7.2e-05
3634	9.6e-05
3646	0.000136
3658	9.6e-05
3670	0.000116
3682	0.000124
3694	0.000116
3706	0.000124
3718	7.2e-05
3730	0.000164
3742	0.00016
3754	0.000136
3766	0.000132
3778	0.000136
3790	0.000148
3802	0.00018
3814	0.000184
3826	0.000156
3838	0.000124
