Infrared Spectrum: 1-Methylcyclopentanol
Formula: C 6 H 12 O
CAS: 1462-03-9
State: gas
Instrument: HP-GC/MS/IRD
Origin: NIST Mass Spectrometry Data Center
1/CM	ABSORBANCE
550	0.0003425
562	0.0002
574	0.0003525
586	0.000465
598	0.00038
610	0.0002225
622	0.0001475
634	7e-05
646	5.25e-05
658	0.00011
670	7e-05
682	0
694	5.5e-05
706	4.75e-05
718	8.25e-05
730	6.25e-05
742	0.00012
754	0.0001875
766	0.00014
778	0.000245
790	0.000265
802	0.000285
814	0.000395
826	0.000415
838	0.00051
850	0.000575
862	0.0008275
874	0.001325
886	0.001875
898	0.0023025
910	0.002805
922	0.00316
934	0.0029875
946	0.0020725
958	0.0012225
970	0.000795
982	0.0008275
994	0.0010675
1006	0.00168
1018	0.0024275
1030	0.0027975
1042	0.0025275
1054	0.00194
1066	0.0016
1078	0.001915
1090	0.00277
1102	0.00334
1114	0.003175
1126	0.00262
1138	0.00248
1150	0.00257
1162	0.002835
1174	0.0032275
1186	0.003785
1198	0.004535
1210	0.0048225
1222	0.0041275
1234	0.0031575
1246	0.0026275
1258	0.00253
1270	0.0025
1282	0.0024
1294	0.002225
1306	0.00207
1318	0.002
1330	0.0021025
1342	0.00224
1354	0.0023075
1366	0.002565
1378	0.0029475
1390	0.0022925
1402	0.0012925
1414	0.000965
1426	0.0012825
1438	0.001815
1450	0.0021575
1462	0.00196
1474	0.00151
1486	0.000995
1498	0.00057
1510	0.000345
1522	0.0002375
1534	0.000155
1546	9.5e-05
1558	8e-05
1570	4.75e-05
1582	3.75e-05
1594	2.75e-05
1606	2e-05
1618	2.5e-05
1630	2.25e-05
1642	3.75e-05
1654	4.25e-05
1666	4.5e-05
1678	6.5e-05
1690	6.25e-05
1702	8.25e-05
1714	5e-05
1726	4e-05
1738	1.75e-05
1750	1.75e-05
1762	1.75e-05
1774	3.25e-05
1786	2.25e-05
1798	2.5e-05
1810	1e-05
1822	4.5e-05
1834	3.5e-05
1846	3e-05
1858	6.25e-05
1870	3.75e-05
1882	2.5e-06
1894	2e-05
1906	2.75e-05
1918	3.25e-05
1930	2.75e-05
1942	2.75e-05
1954	2.25e-05
1966	3.5e-05
1978	7.5e-06
1990	2.5e-05
2002	1e-05
2014	1e-05
2026	2.5e-05
2038	1e-05
2050	5.75e-05
2062	4.75e-05
2074	3.5e-05
2086	4e-05
2098	4.25e-05
2110	4.5e-05
2122	5e-05
2134	5.25e-05
2146	5.75e-05
2158	6.25e-05
2170	7.75e-05
2182	8e-05
2194	6.5e-05
2206	7.5e-05
2218	4.25e-05
2230	5.75e-05
2242	7.25e-05
2254	6e-05
2266	4.75e-05
2278	7.25e-05
2290	7.5e-05
2302	5.75e-05
2314	8e-05
2326	4.75e-05
2338	7.5e-05
2350	6.75e-05
2362	7.75e-05
2374	6e-05
2386	2.5e-05
2398	4.25e-05
2410	3e-05
2422	3e-05
2434	4.5e-05
2446	1.75e-05
2458	3.5e-05
2470	2.75e-05
2482	4.25e-05
2494	2.25e-05
2506	2.5e-05
2518	2.5e-05
2530	1e-05
2542	3e-05
2554	3.75e-05
2566	2.5e-05
2578	4.5e-05
2590	6.75e-05
2602	6.25e-05
2614	6.75e-05
2626	5.5e-05
2638	5.75e-05
2650	4e-05
2662	6.75e-05
2674	6e-05
2686	9e-05
2698	0.000125
2710	0.00014
2722	0.0001625
2734	0.0002075
2746	0.0001975
2758	0.0002375
2770	0.00026
2782	0.0003025
2794	0.000395
2806	0.0005075
2818	0.000745
2830	0.0011275
2842	0.00192
2854	0.003335
2866	0.005505
2878	0.0071375
2890	0.0075
2902	0.0075125
2914	0.0087625
2926	0.0117775
2938	0.0153425
2950	0.0197025
2962	0.0243975
2974	0.022665
2986	0.0136025
2998	0.0056425
3010	0.0022775
3022	0.0012475
3034	0.00077
3046	0.0005275
3058	0.0003875
3070	0.000285
3082	0.0002425
3094	0.0002375
3106	0.0001425
3118	0.0001525
3130	0.00011
3142	0.0001275
3154	0.0001025
3166	9.25e-05
3178	0.000105
3190	0.00013
3202	0.0001075
3214	0.0001225
3226	9.5e-05
3238	5.25e-05
3250	3e-05
3262	5.25e-05
3274	4.5e-05
3286	2.25e-05
3298	3.25e-05
3310	2.25e-05
3322	5.25e-05
3334	2.25e-05
3346	4.75e-05
3358	5.25e-05
3370	9.5e-05
3382	0.000135
3394	0.0001025
3406	9.25e-05
3418	8.25e-05
3430	9e-05
3442	7.75e-05
3454	9e-05
3466	6.75e-05
3478	6.5e-05
3490	5.75e-05
3502	5.75e-05
3514	8.75e-05
3526	6.75e-05
3538	6.5e-05
3550	7.25e-05
3562	4.25e-05
3574	5.75e-05
3586	0.0001075
3598	0.00012
3610	0.0002725
3622	0.000675
3634	0.001245
3646	0.00146
3658	0.0008875
3670	0.0003125
3682	0.0001525
3694	6.75e-05
3706	9.75e-05
3718	5e-05
3730	5.5e-05
3742	7.75e-05
3754	0.0001075
3766	7.25e-05
3778	8.75e-05
3790	7.5e-05
3802	9.75e-05
3814	8.25e-05
3826	0.0001275
3838	0.00013
