Infrared Spectrum: 1-Ethylcyclopentanol
Formula: C 7 H 14 O
CAS: 1462-96-0
State: gas
Instrument: HP-GC/MS/IRD
Origin: NIST Mass Spectrometry Data Center
1/CM	ABSORBANCE
550	0.0002889
562	0.0002052
574	0.0002457
586	0.0002052
598	0.0003726
610	0.0001674
622	0.000162
634	0.0001107
646	0.0001674
658	9.72e-05
670	5.94e-05
682	2.43e-05
694	6.75e-05
706	0.0001701
718	3.51e-05
730	0.0001161
742	0.0001485
754	0.000108
766	0.0001674
778	0.00027
790	0.0003807
802	0.0003996
814	0.000459
826	0.0006048
838	0.000594
850	0.0006669
862	0.001053
874	0.0013851
886	0.0016389
898	0.0014742
910	0.0012717
922	0.0012933
934	0.0017874
946	0.0026487
958	0.0038259
970	0.0051975
982	0.0051948
994	0.0036585
1006	0.0020979
1018	0.0015957
1030	0.0016524
1042	0.0014661
1054	0.0012798
1066	0.0012798
1078	0.0014202
1090	0.001782
1102	0.0020817
1114	0.0022734
1126	0.0021438
1138	0.0020304
1150	0.0020682
1162	0.0023895
1174	0.0029052
1186	0.0034344
1198	0.0035748
1210	0.0031428
1222	0.0025677
1234	0.0023409
1246	0.0024786
1258	0.0025812
1270	0.0025326
1282	0.002349
1294	0.0020601
1306	0.0018495
1318	0.001944
1330	0.0020979
1342	0.0020655
1354	0.0019008
1366	0.0018873
1378	0.0018954
1390	0.001674
1402	0.0011421
1414	0.0009315
1426	0.0012447
1438	0.0019035
1450	0.0025326
1462	0.0027054
1474	0.0022572
1486	0.0013986
1498	0.0007047
1510	0.0004725
1522	0.0003051
1534	0.0002484
1546	0.0002106
1558	0.0002241
1570	0.0001728
1582	0.000162
1594	0.0001161
1606	0.0001296
1618	0.0001026
1630	9.18e-05
1642	8.91e-05
1654	0.0001323
1666	7.83e-05
1678	9.18e-05
1690	5.94e-05
1702	9.18e-05
1714	6.48e-05
1726	2.7e-05
1738	6.48e-05
1750	7.56e-05
1762	4.05e-05
1774	4.59e-05
1786	4.59e-05
1798	4.86e-05
1810	3.78e-05
1822	4.86e-05
1834	6.48e-05
1846	8.64e-05
1858	5.13e-05
1870	5.4e-05
1882	3.24e-05
1894	5.67e-05
1906	2.43e-05
1918	3.51e-05
1930	4.59e-05
1942	5.13e-05
1954	4.05e-05
1966	4.05e-05
1978	3.24e-05
1990	3.51e-05
2002	5.4e-06
2014	8.1e-06
2026	3.24e-05
2038	4.59e-05
2050	4.59e-05
2062	6.48e-05
2074	1.35e-05
2086	4.59e-05
2098	1.35e-05
2110	4.05e-05
2122	1.35e-05
2134	4.32e-05
2146	5.13e-05
2158	5.13e-05
2170	7.56e-05
2182	7.29e-05
2194	7.29e-05
2206	7.29e-05
2218	7.56e-05
2230	8.1e-05
2242	8.91e-05
2254	6.48e-05
2266	8.1e-05
2278	5.67e-05
2290	5.13e-05
2302	5.94e-05
2314	6.75e-05
2326	8.37e-05
2338	6.48e-05
2350	7.83e-05
2362	7.29e-05
2374	5.4e-05
2386	5.67e-05
2398	5.13e-05
2410	4.59e-05
2422	1.08e-05
2434	1.08e-05
2446	2.97e-05
2458	1.08e-05
2470	1.89e-05
2482	3.24e-05
2494	6.21e-05
2506	3.78e-05
2518	2.97e-05
2530	1.62e-05
2542	3.78e-05
2554	3.78e-05
2566	6.48e-05
2578	7.02e-05
2590	9.99e-05
2602	7.29e-05
2614	8.91e-05
2626	8.1e-05
2638	0.0001053
2650	0.0001296
2662	0.0001296
2674	0.0001242
2686	0.0001593
2698	0.0001593
2710	0.0001728
2722	0.0002214
2734	0.0002673
2746	0.0003483
2758	0.0003672
2770	0.0003861
2782	0.0004644
2794	0.0005913
2806	0.0006939
2818	0.0009855
2830	0.0015039
2842	0.0027405
2854	0.004725
2866	0.0067203
2878	0.0086805
2890	0.0096687
2902	0.0096066
2914	0.0111861
2926	0.0152199
2938	0.0188676
2950	0.0220104
2962	0.0264762
2974	0.0242919
2986	0.0139752
2998	0.0057402
3010	0.0027891
3022	0.0016875
3034	0.0011826
3046	0.0009018
3058	0.0007668
3070	0.0006399
3082	0.0005319
3094	0.0004671
3106	0.0003375
3118	0.0002538
3130	0.0002106
3142	0.0002052
3154	0.0001971
3166	0.0001809
3178	0.0001944
3190	0.0001188
3202	0.0001026
3214	5.13e-05
3226	9.45e-05
3238	9.18e-05
3250	4.32e-05
3262	0.0001161
3274	4.59e-05
3286	6.75e-05
3298	8.91e-05
3310	7.29e-05
3322	7.56e-05
3334	2.97e-05
3346	3.78e-05
3358	7.83e-05
3370	0.0001269
3382	6.75e-05
3394	8.64e-05
3406	0.0001269
3418	7.56e-05
3430	0.0001134
3442	8.91e-05
3454	7.56e-05
3466	0.0001323
3478	0.0001269
3490	7.02e-05
3502	0.0001728
3514	0.0001107
3526	0.000135
3538	0.0001053
3550	9.72e-05
3562	0.0001188
3574	0.0001269
3586	0.0001296
3598	0.0001593
3610	0.0002727
3622	0.0006885
3634	0.0013041
3646	0.0014148
3658	0.0007911
3670	0.0004185
3682	0.0002133
3694	0.0001458
3706	0.000135
3718	0.000108
3730	0.0001458
3742	0.0001485
3754	0.0001836
3766	8.64e-05
3778	0.0001215
3790	0.0001512
3802	0.0001053
3814	8.1e-05
3826	0.0001107
3838	0.0001404
