Infrared Spectrum: 2-PYRIMIDINETHIOL, 4,5-DIAMINO-
Formula: C4 H6 N4 S
CAS: 14623-58-6
State: SOLID (0.8 mg / 650 mg KBr DISC)
Class: COBLENTZ III
Instrument: PERKIN-ELMER 21 (GRATING)
Instrument parameters: FILTER CHANGE ABOUT 1020 CM^-^1
Sampling: TRANSMISSION
Resolution: 4
Origin: SOUTHERN RESEARCH INSTITUTE
1/CM	TRANSMITTANCE
602.478	0.484
611.08	0.4751
619.682	0.4682
628.284	0.4603
636.887	0.4429
645.489	0.4206
654.091	0.3927
662.693	0.3754
671.295	0.3478
679.897	0.3135
688.499	0.323
697.102	0.3244
705.704	0.3503
714.306	0.3432
722.908	0.2948
731.51	0.2384
740.112	0.2041
748.714	0.2245
757.317	0.3546
765.919	0.4162
774.521	0.4137
783.123	0.4464
791.725	0.4288
800.327	0.417
808.93	0.4156
817.532	0.4393
826.134	0.454
834.736	0.453
843.338	0.436
851.94	0.4103
860.542	0.4143
869.145	0.4452
877.747	0.4862
886.349	0.4704
894.951	0.452
903.553	0.4911
912.155	0.5575
920.757	0.5906
929.36	0.6393
937.962	0.6548
946.564	0.6493
955.166	0.6277
963.768	0.5777
972.37	0.6413
980.972	0.6835
989.575	0.6816
998.177	0.6689
1006.78	0.6547
1015.38	0.6445
1023.98	0.636
1032.59	0.6288
1041.19	0.6207
1049.79	0.6057
1058.39	0.5621
1066.99	0.5747
1075.6	0.6119
1084.2	0.6102
1092.8	0.5995
1101.4	0.5868
1110	0.5691
1118.61	0.5342
1127.21	0.4883
1135.81	0.458
1144.41	0.4608
1153.02	0.4171
1161.62	0.2888
1170.22	0.2717
1178.82	0.508
1187.42	0.4939
1196.03	0.4212
1204.63	0.2807
1213.23	0.1324
1221.83	0.1539
1230.43	0.2906
1239.04	0.4236
1247.64	0.3572
1256.24	0.1791
1264.84	0.4463
1273.45	0.5901
1282.05	0.583
1290.65	0.5411
1299.25	0.4667
1307.85	0.382
1316.46	0.2427
1325.06	0.0897
1333.66	0.1556
1342.26	0.2962
1350.86	0.5357
1359.47	0.455
1368.07	0.24
1376.67	0.3793
1385.27	0.615
1393.88	0.632
1402.48	0.6203
1411.08	0.5977
1419.68	0.5586
1428.28	0.5128
1436.89	0.4806
1445.49	0.44
1454.09	0.3933
1462.69	0.3472
1471.29	0.2744
1479.9	0.1423
1488.5	0.0957
1497.1	0.1046
1505.7	0.1664
1514.31	0.2538
1522.91	0.3078
1531.51	0.3063
1540.11	0.2852
1548.71	0.2655
1557.32	0.1722
1565.92	0.1336
1574.52	0.1877
1583.12	0.2427
1591.72	0.302
1600.33	0.351
1608.93	0.3536
1617.53	0.3216
1626.13	0.2888
1634.74	0.2309
1643.34	0.1991
1651.94	0.2232
1660.54	0.225
1669.14	0.2101
1677.75	0.2198
1686.35	0.2847
1694.95	0.4378
1703.55	0.5955
1712.15	0.723
1720.76	0.761
1729.36	0.7938
1737.96	0.806
1746.56	0.817
1755.17	0.8136
1763.77	0.811
1772.37	0.81
1780.97	0.808
1789.57	0.807
1798.18	0.807
1806.78	0.803
1815.38	0.796
1823.98	0.7922
1832.58	0.7873
1841.19	0.781
1849.79	0.7792
1858.39	0.7723
1866.99	0.77
1875.6	0.7618
1884.2	0.7565
1892.8	0.752
1901.4	0.751
1910	0.751
1918.61	0.751
1927.21	0.751
1935.81	0.747
1944.41	0.745
1953.01	0.741
1961.62	0.738
1970.22	0.736
1978.82	0.735
1987.42	0.729
1996.03	0.7262
2004.63	0.7232
2013.23	0.7135
2021.83	0.709
2030.43	0.708
2039.04	0.707
2047.64	0.704
2056.24	0.702
2064.84	0.699
2073.45	0.694
2082.05	0.6872
2090.65	0.6835
2099.25	0.6785
2107.85	0.674
2116.46	0.67
2125.06	0.667
2133.66	0.6642
2142.26	0.6582
2150.86	0.655
2159.47	0.654
2168.07	0.654
2176.67	0.6455
2185.27	0.642
2193.88	0.638
2202.48	0.6372
2211.08	0.6332
2219.68	0.631
2228.28	0.628
2236.89	0.627
2245.49	0.625
2254.09	0.6172
2262.69	0.6162
2271.29	0.6127
2279.9	0.6112
2288.5	0.61
2297.1	0.605
2305.7	0.6002
2314.31	0.5992
2322.91	0.599
2331.51	0.6
2340.11	0.6
2348.71	0.6
2357.32	0.6
2365.92	0.599
2374.52	0.595
2383.12	0.5902
2391.72	0.5822
2400.33	0.5742
2408.93	0.572
2417.53	0.5665
2426.13	0.561
2434.74	0.557
2443.34	0.5512
2451.94	0.5352
2460.54	0.5302
2469.14	0.5237
2477.75	0.5147
2486.35	0.511
2494.95	0.506
2503.55	0.503
2512.15	0.4985
2520.76	0.4885
2529.36	0.486
2537.96	0.48
2546.56	0.475
2555.17	0.4665
2563.77	0.459
2572.37	0.4542
2580.97	0.4472
2589.57	0.4432
2598.18	0.4375
2606.78	0.427
2615.38	0.416
2623.98	0.4052
2632.58	0.397
2641.19	0.386
2649.79	0.3772
2658.39	0.3677
2666.99	0.3512
2675.6	0.3355
2684.2	0.3272
2692.8	0.3182
2701.4	0.314
2710	0.3105
2718.61	0.306
2727.21	0.2977
2735.81	0.2912
2744.41	0.286
2753.01	0.279
2761.62	0.2752
2770.22	0.2672
2778.82	0.257
2787.42	0.2477
2796.03	0.2357
2804.63	0.2165
2813.23	0.2035
2821.83	0.1882
2830.43	0.1679
2839.04	0.159
2847.64	0.1492
2856.24	0.143
2864.84	0.143
2873.44	0.143
2882.05	0.139
2890.65	0.1372
2899.25	0.134
2907.85	0.132
2916.46	0.132
2925.06	0.132
2933.66	0.131
2942.26	0.129
2950.86	0.131
2959.47	0.1312
2968.07	0.131
2976.67	0.131
2985.27	0.131
2993.87	0.128
3002.48	0.1252
3011.08	0.1235
3019.68	0.118
3028.28	0.116
3036.89	0.1122
3045.49	0.11
3054.09	0.112
3062.69	0.115
3071.29	0.117
3079.9	0.1208
3088.5	0.123
3097.1	0.123
3105.7	0.123
3114.3	0.1202
3122.91	0.116
3131.51	0.115
3140.11	0.118
3148.71	0.122
3157.32	0.122
3165.92	0.121
3174.52	0.121
3183.12	0.121
3191.72	0.122
3200.33	0.126
3208.93	0.131
3217.53	0.1415
3226.13	0.153
3234.73	0.1651
3243.34	0.1951
3251.94	0.2375
3260.54	0.2605
3269.14	0.2858
3277.75	0.3108
3286.35	0.3263
3294.95	0.333
3303.55	0.3232
3312.15	0.3162
3320.76	0.3102
3329.36	0.312
3337.96	0.3361
3346.56	0.3718
3355.16	0.4031
3363.77	0.4238
3372.37	0.433
3380.97	0.436
3389.57	0.436
3398.18	0.435
3406.78	0.4352
3415.38	0.436
3423.98	0.436
3432.58	0.436
3441.19	0.436
3449.79	0.4378
3458.39	0.4438
3466.99	0.4478
3475.59	0.4528
3484.2	0.457
3492.8	0.465
3501.4	0.4748
3510	0.4768
3518.61	0.4855
3527.21	0.4908
3535.81	0.501
3544.41	0.5088
3553.01	0.515
3561.62	0.5273
3570.22	0.5358
3578.82	0.5485
3587.42	0.5593
3596.02	0.5655
3604.63	0.5778
3613.23	0.5861
3621.83	0.591
3630.43	0.5995
3639.04	0.604
3647.64	0.604
3656.24	0.605
3664.84	0.604
3673.44	0.604
3682.05	0.604
3690.65	0.6025
3699.25	0.602
3707.85	0.602
3716.46	0.601
3725.06	0.601
3733.66	0.601
3742.26	0.601
3750.86	0.601
3759.47	0.6002
3768.07	0.598
3776.67	0.596
3785.27	0.596
3793.87	0.594
3802.48	0.591
3811.08	0.5842
3819.68	0.5792
3828.28	0.578
3836.89	0.577
3845.49	0.577
3854.09	0.5722
3862.69	0.566
3871.29	0.564
3879.9	0.564
3888.5	0.564
3897.1	0.564
3905.7	0.566
