Infrared Spectrum: Cyclopropylphenyl sulfide
Formula: C 9 H 10 S
CAS: 14633-54-6
State: gas
Instrument: HP-GC/MS/IRD
Origin: NIST Mass Spectrometry Data Center
1/CM	ABSORBANCE
550	0.00038
562	0.000103
574	0.000144
586	0.000143
598	0.000233
610	7.8e-05
622	0.000107
634	0.000206
646	0.000508
658	0.001184
670	0.00278
682	0.005543
694	0.007339
706	0.006293
718	0.005083
730	0.008483
742	0.009243
754	0.00504
766	0.001766
778	0.00066
790	0.000681
802	0.001099
814	0.002103
826	0.002233
838	0.001019
850	0.000765
862	0.001361
874	0.002723
886	0.002789
898	0.001337
910	0.000795
922	0.000595
934	0.000434
946	0.000333
958	0.000336
970	0.000337
982	0.000408
994	0.000604
1006	0.001334
1018	0.004366
1030	0.005785
1042	0.002823
1054	0.002679
1066	0.002321
1078	0.002183
1090	0.004024
1102	0.00309
1114	0.000876
1126	0.000521
1138	0.000443
1150	0.000399
1162	0.000589
1174	0.000746
1186	0.001159
1198	0.001114
1210	0.000397
1222	0.000447
1234	0.000473
1246	0.000571
1258	0.001231
1270	0.003515
1282	0.005941
1294	0.003198
1306	0.001222
1318	0.000707
1330	0.000448
1342	0.000341
1354	0.000357
1366	0.000347
1378	0.000296
1390	0.000327
1402	0.000429
1414	0.000994
1426	0.002175
1438	0.002753
1450	0.002566
1462	0.002756
1474	0.006405
1486	0.006332
1498	0.001288
1510	0.000529
1522	0.000403
1534	0.000399
1546	0.000539
1558	0.001082
1570	0.002759
1582	0.005593
1594	0.003542
1606	0.001167
1618	0.00057
1630	0.000432
1642	0.000325
1654	0.00027
1666	0.000208
1678	0.000191
1690	0.000221
1702	0.000327
1714	0.000375
1726	0.000373
1738	0.000329
1750	0.000341
1762	0.000378
1774	0.000581
1786	0.000766
1798	0.000631
1810	0.0004
1822	0.000299
1834	0.000302
1846	0.000417
1858	0.000507
1870	0.00052
1882	0.000476
1894	0.000419
1906	0.000514
1918	0.000642
1930	0.000686
1942	0.000709
1954	0.000514
1966	0.000224
1978	0.000115
1990	5.8e-05
2002	5.7e-05
2014	2.8e-05
2026	3e-05
2038	8.9e-05
2050	0.00013
2062	0.000222
2074	0.000311
2086	0.000272
2098	0.000211
2110	0.000169
2122	9.5e-05
2134	5.7e-05
2146	5.1e-05
2158	2.7e-05
2170	2.1e-05
2182	2.7e-05
2194	1.8e-05
2206	6.6e-05
2218	9.9e-05
2230	9e-05
2242	7.1e-05
2254	8.6e-05
2266	7e-05
2278	2.6e-05
2290	1.6e-05
2302	2.4e-05
2314	0.000125
2326	0.000114
2338	0.000123
2350	7.1e-05
2362	7.3e-05
2374	3.6e-05
2386	1e-06
2398	2.6e-05
2410	3e-05
2422	1.3e-05
2434	1.9e-05
2446	3.9e-05
2458	7.7e-05
2470	0.000143
2482	0.000127
2494	7.7e-05
2506	4.6e-05
2518	5.3e-05
2530	5.1e-05
2542	2.3e-05
2554	3.4e-05
2566	6.3e-05
2578	9.4e-05
2590	9.6e-05
2602	7.8e-05
2614	8.4e-05
2626	7.4e-05
2638	6.2e-05
2650	6.6e-05
2662	6e-05
2674	8.3e-05
2686	4.7e-05
2698	6e-06
2710	2.6e-05
2722	1.8e-05
2734	1.1e-05
2746	4.3e-05
2758	3.3e-05
2770	2.9e-05
2782	3e-05
2794	4.6e-05
2806	6.3e-05
2818	6e-05
2830	8e-05
2842	0.000148
2854	0.00017
2866	0.000231
2878	0.000218
2890	0.000174
2902	0.000207
2914	0.000192
2926	0.000194
2938	0.000249
2950	0.000287
2962	0.000358
2974	0.000639
2986	0.001253
2998	0.002682
3010	0.005472
3022	0.008416
3034	0.005763
3046	0.003188
3058	0.005591
3070	0.009246
3082	0.008487
3094	0.0068
3106	0.002623
3118	0.000786
3130	0.000419
3142	0.000403
3154	0.000288
3166	0.000235
3178	0.00018
3190	0.000102
3202	9.5e-05
3214	0.00013
3226	7.4e-05
3238	7.4e-05
3250	2.3e-05
3262	9.2e-05
3274	6e-05
3286	5.3e-05
3298	0.000119
3310	7.4e-05
3322	8.4e-05
3334	4.6e-05
3346	5.5e-05
3358	0.000104
3370	7e-05
3382	0.000134
3394	0.0001
3406	8.4e-05
3418	0.00011
3430	0.000119
3442	0.000112
3454	9.5e-05
3466	7.5e-05
3478	0.00011
3490	6.9e-05
3502	0.000114
3514	0.000103
3526	8.4e-05
3538	5.5e-05
3550	9.1e-05
3562	6.4e-05
3574	6.2e-05
3586	0.000109
3598	6.3e-05
3610	0.000107
3622	8.2e-05
3634	0.000122
3646	9.6e-05
3658	0.00012
3670	0.000163
3682	0.000232
3694	0.000199
3706	0.000184
3718	0.000127
3730	0.000106
3742	0.000116
3754	0.000143
3766	0.000175
3778	0.000154
3790	0.000103
3802	0.000118
3814	0.000118
3826	0.000132
3838	0.000154
