Infrared Spectrum: 2,8-Dimethylquinoline
Formula: C 11 H 11 N
CAS: 1463-17-8
State: gas
Origin: EPA-IR VAPOR PHASE LIBRARY
1/CM	ABSORBANCE
549.8	0.005759
559.445	0.001929
569.09	0.0009305
578.734	0.001749
588.379	0.000532
598.024	0.0015302
607.669	0.0015399
617.313	0.0014702
626.958	0.001257
636.603	0.0011015
646.248	0.001899
655.893	0.0016012
665.537	0.0010491
675.182	0.0012812
684.827	0.002859
694.472	0.003589
704.116	0.002599
713.761	0.004569
723.406	0.004739
733.051	0.004659
742.695	0.015679
752.34	0.036059
761.985	0.019819
771.63	0.010779
781.275	0.017679
790.919	0.034279
800.564	0.015899
810.209	0.012479
819.854	0.027179
829.498	0.043849
839.143	0.021209
848.788	0.007619
858.433	0.005939
868.078	0.003579
877.722	0.002769
887.367	0.002319
897.012	0.002759
906.657	0.001839
916.301	0.0016301
925.946	0.001909
935.591	0.001859
945.236	0.002979
954.88	0.002999
964.525	0.003659
974.17	0.003849
983.815	0.003499
993.46	0.004909
1003.1	0.005619
1012.75	0.003659
1022.39	0.002729
1032.04	0.003659
1041.68	0.005529
1051.33	0.005959
1060.97	0.006699
1070.62	0.007199
1080.26	0.005889
1089.91	0.003629
1099.55	0.003209
1109.2	0.002499
1118.84	0.004909
1128.49	0.012099
1138.13	0.011649
1147.78	0.004739
1157.42	0.004649
1167.07	0.004439
1176.71	0.003359
1186.36	0.002589
1196	0.004409
1205.64	0.007459
1215.29	0.009959
1224.93	0.010769
1234.58	0.010719
1244.22	0.006249
1253.87	0.003889
1263.51	0.003559
1273.16	0.003189
1282.8	0.004059
1292.45	0.007039
1302.09	0.013719
1311.74	0.021679
1321.38	0.017009
1331.03	0.008249
1340.67	0.006139
1350.32	0.007729
1359.96	0.011249
1369.61	0.015909
1379.25	0.017559
1388.9	0.012439
1398.54	0.007739
1408.18	0.009289
1417.83	0.017519
1427.47	0.026449
1437.12	0.025709
1446.76	0.020409
1456.41	0.016729
1466.05	0.012879
1475.7	0.010669
1485.34	0.018909
1494.99	0.037639
1504.63	0.042749
1514.28	0.026479
1523.92	0.013679
1533.57	0.010569
1543.21	0.010469
1552.86	0.012399
1562.5	0.019339
1572.15	0.023429
1581.79	0.020599
1591.44	0.022999
1601.08	0.036989
1610.73	0.049499
1620.37	0.035349
1630.01	0.013449
1639.66	0.006489
1649.3	0.005749
1658.95	0.003849
1668.59	0.002959
1678.24	0.002519
1687.88	0.002439
1697.53	0.002719
1707.17	0.003699
1716.82	0.004419
1726.46	0.003199
1736.11	0.002279
1745.75	0.002389
1755.4	0.002209
1765.04	0.001929
1774.69	0.003359
1784.33	0.004299
1793.98	0.003069
1803.62	0.001819
1813.27	0.0015069
1822.91	0.0015093
1832.55	0.001819
1842.2	0.002999
1851.84	0.003449
1861.49	0.002269
1871.13	0.0014283
1880.78	0.0013469
1890.42	0.0015764
1900.07	0.002409
1909.71	0.004379
1919.36	0.005759
1929	0.004769
1938.65	0.002509
1948.29	0.0015044
1957.94	0.0012527
1967.58	0.0011029
1977.23	0.0010266
1986.87	0.0012228
1996.52	0.0012302
2006.16	0.0013983
2015.81	0.0012232
2025.45	0.0010536
2035.1	0.0011197
2044.74	0.0012613
2054.38	0.0013681
2064.03	0.0013366
2073.67	0.0012504
2083.32	0.0011755
2092.96	0.0013626
2102.61	0.0012784
2112.25	0.0010402
2121.9	0.0011032
2131.54	0.0009834
2141.19	0.0010225
2150.83	0.0009647
2160.48	0.0010444
2170.12	0.0011105
2179.77	0.0010399
2189.41	0.0010227
2199.06	0.0009872
2208.7	0.0007937
2218.35	0.0009366
2227.99	0.0010786
2237.64	0.0010298
2247.28	0.0010303
2256.92	0.0013201
2266.57	0.0014684
2276.21	0.001325
2285.86	0.0013845
2295.5	0.0012173
2305.15	0.0012827
2314.79	0.0011277
2324.44	0.0013336
2334.08	0.0012296
2343.73	0.0012868
2353.37	0.001088
2363.02	0.0010485
2372.66	0.0013019
2382.31	0.0011345
2391.95	0.0011019
2401.6	0.0013347
2411.24	0.0013428
2420.89	0.0014435
2430.53	0.0016198
2440.18	0.0015886
2449.82	0.0014765
2459.47	0.0013899
2469.11	0.001064
2478.75	0.0013039
2488.4	0.001232
2498.04	0.0012634
2507.69	0.0013114
2517.33	0.0012183
2526.98	0.0011264
2536.62	0.0010905
2546.27	0.0011848
2555.91	0.0010842
2565.56	0.0009985
2575.2	0.0012192
2584.85	0.0011962
2594.49	0.0013094
2604.14	0.0013656
2613.78	0.001218
2623.43	0.0012834
2633.07	0.0011489
2642.72	0.0009132
2652.36	0.0009803
2662.01	0.0009004
2671.65	0.0011587
2681.29	0.0012669
2690.94	0.0008726
2700.58	0.0010433
2710.23	0.0009461
2719.87	0.001211
2729.52	0.001789
2739.16	0.001999
2748.81	0.001709
2758.45	0.0011087
2768.1	0.001495
2777.74	0.0016202
2787.39	0.001759
2797.03	0.001869
2806.68	0.002339
2816.32	0.002719
2825.97	0.003319
2835.61	0.004459
2845.26	0.006329
2854.9	0.009839
2864.55	0.011289
2874.19	0.010699
2883.84	0.010209
2893.48	0.010849
2903.12	0.012869
2912.77	0.018509
2922.41	0.033179
2932.06	0.044879
2941.7	0.035239
2951.35	0.021189
2960.99	0.018699
2970.64	0.017839
2980.28	0.016709
2989.93	0.013729
2999.57	0.012979
3009.22	0.016089
3018.86	0.019719
3028.51	0.023909
3038.15	0.035469
3047.8	0.054429
3057.44	0.054539
3067.09	0.036029
3076.73	0.019639
3086.38	0.012249
3096.02	0.008029
3105.67	0.006829
3115.31	0.004909
3124.95	0.003389
3134.6	0.002219
3144.24	0.001949
3153.89	0.0015575
3163.53	0.001759
3173.18	0.001829
3182.82	0.0015929
3192.47	0.0015037
3202.11	0.0011622
3211.76	0.0012979
3221.4	0.0011216
3231.05	0.0009629
3240.69	0.0008997
3250.34	0.001168
3259.98	0.0008204
3269.63	0.0008306
3279.27	0.0010004
3288.92	0.0009459
3298.56	0.000643
3308.21	0.000954
3317.85	0.00068563
3327.49	0.0006093
3337.14	0.000695399
3346.78	0.0006694
3356.43	0.000462
3366.07	0.0008344
3375.72	0.00070318
3385.36	0.000443
3395.01	0.00077543
3404.65	0.0009321
3414.3	0.0009202
3423.94	0.0008666
3433.59	0.00072493
3443.23	0.0006773
3452.88	0.0007928
3462.52	0.00071233
3472.17	0.0007995
3481.81	0.0006434
3491.46	0.0008283
3501.1	0.00054
3510.75	0.000586
3520.39	0.000529
3530.04	0.000691599
3539.68	0.0006514
3549.32	0.0010337
3558.97	0.0008102
3568.61	0.0008049
3578.26	0.0008819
3587.9	0.000525
3597.55	0.000567
3607.19	0.00071045
3616.84	0.0009481
3626.48	0.0008265
3636.13	0.0009557
3645.77	0.0008856
3655.42	0.0006219
3665.06	0.0008021
3674.71	0.000468
3684.35	0.0008228
3694	0.0006315
3703.64	0.0008814
3713.29	0.0008811
3722.93	0.00071904
3732.58	0.0011464
3742.22	0.0010232
3751.86	0.0010889
3761.51	0.0009754
3771.15	0.0008068
3780.8	0.001025
3790.44	0.0010036
3800.09	0.0008537
3809.73	0.000537
3819.38	0.0010867
3829.02	0.0008815
3838.67	0.0011022
3848.31	0.0008872
3857.96	0.000816
3867.6	0.0008023
3877.25	0.0012481
3886.89	0.0009021
3896.54	0.0012102
3906.18	0.0011283
3915.83	0.0010983
3925.47	0.001546
3935.12	0.0010682
3944.76	0.0010977
3954.41	0.0011875
3964.05	0.0013112
3973.69	0.001367
3983.34	0.000958
3992.98	0.0011726
