Infrared Spectrum: SALICYLIC ANHYDRIDE, DIACETATE
Formula: C18 H14 O7
CAS: 1466-82-6
State: SOLID (KBr DISC)
Melting point: 83 C
Class: COBLENTZ III
Instrument: PERKIN-ELMER 21 (GRATING)
Instrument parameters: FILTER AT ABOUT 10 MICRONS
Sampling: TRANSMISSION
Resolution: 2
1/CM	TRANSMITTANCE
4000	0.808
3991	0.8084
3982	0.809
3973	0.8094
3964	0.81
3955	0.8106
3946	0.8111
3937	0.8117
3928	0.8121
3919	0.8126
3910	0.8133
3901	0.8139
3892	0.8144
3883	0.815
3874	0.8156
3865	0.8161
3856	0.8167
3847	0.8172
3838	0.8178
3829	0.8185
3820	0.819
3811	0.8196
3802	0.8203
3793	0.8209
3784	0.8214
3775	0.8218
3766	0.8221
3757	0.8224
3748	0.8227
3739	0.823
3730	0.8233
3721	0.8235
3712	0.8238
3703	0.8241
3694	0.8242
3685	0.8245
3676	0.8247
3667	0.8249
3658	0.8251
3649	0.8254
3640	0.8255
3631	0.8252
3622	0.825
3613	0.8248
3604	0.8246
3595	0.8237
3586	0.8225
3577	0.8213
3568	0.8201
3559	0.8185
3550	0.8168
3541	0.8151
3532	0.8122
3523	0.8068
3514	0.7975
3505	0.794
3496	0.7925
3487	0.7898
3478	0.7862
3469	0.7825
3460	0.778
3451	0.7736
3442	0.7707
3433	0.7684
3424	0.7669
3415	0.7665
3406	0.7683
3397	0.7703
3388	0.7725
3379	0.7751
3370	0.7776
3361	0.7804
3352	0.783
3343	0.7858
3334	0.7885
3325	0.7912
3316	0.7941
3307	0.7965
3298	0.7989
3289	0.8012
3280	0.8036
3271	0.806
3262	0.8082
3253	0.8103
3244	0.8122
3235	0.8137
3226	0.8145
3217	0.8151
3208	0.8144
3199	0.8134
3190	0.8132
3181	0.8132
3172	0.8132
3163	0.8137
3154	0.8143
3145	0.8149
3136	0.8151
3127	0.8141
3118	0.8121
3109	0.8085
3100	0.8054
3091	0.8024
3082	0.7999
3073	0.798
3064	0.7981
3055	0.8
3046	0.8018
3037	0.8039
3028	0.806
3019	0.8081
3010	0.8103
3001	0.8125
2992	0.8148
2983	0.8171
2974	0.8189
2965	0.8198
2956	0.8197
2947	0.8195
2938	0.819
2929	0.8184
2920	0.8178
2911	0.8168
2902	0.8158
2893	0.815
2884	0.8161
2875	0.8174
2866	0.8187
2857	0.8199
2848	0.8238
2839	0.8283
2830	0.8327
2821	0.837
2812	0.8407
2803	0.8443
2794	0.8466
2785	0.8489
2776	0.8497
2767	0.8501
2758	0.8504
2749	0.8508
2740	0.8511
2731	0.8516
2722	0.8537
2713	0.8557
2704	0.8577
2695	0.8597
2686	0.8613
2677	0.863
2668	0.8646
2659	0.8657
2650	0.8666
2641	0.8673
2632	0.8675
2623	0.8675
2614	0.8666
2605	0.8662
2596	0.8664
2587	0.8665
2578	0.8666
2569	0.8668
2560	0.867
2551	0.868
2542	0.8689
2533	0.8698
2524	0.8709
2515	0.872
2506	0.8731
2497	0.8738
2488	0.8743
2479	0.8738
2470	0.8733
2461	0.8728
2452	0.8728
2443	0.8727
2434	0.8723
2425	0.872
2416	0.8709
2407	0.8698
2398	0.8678
2389	0.8649
2380	0.8671
2371	0.87
2362	0.8703
2353	0.871
2344	0.8724
2335	0.8737
2326	0.8762
2317	0.879
2308	0.8817
2299	0.884
2290	0.8864
2281	0.8883
2272	0.8898
2263	0.8911
2254	0.8916
2245	0.892
2236	0.8916
2227	0.8909
2218	0.8901
2209	0.8897
2200	0.8895
2191	0.8892
2182	0.8889
2173	0.8888
2164	0.8889
2155	0.8899
2146	0.8889
2137	0.8849
2128	0.8808
2119	0.8774
2110	0.8747
2101	0.8746
2092	0.8801
2083	0.883
2074	0.883
2065	0.8818
2056	0.8802
2047	0.8768
2038	0.8637
2029	0.8444
2020	0.8437
2011	0.8458
2002	0.8428
1993	0.8361
1984	0.8365
1975	0.8352
1966	0.8252
1957	0.8213
1948	0.8259
1939	0.8308
1930	0.835
1921	0.8346
1912	0.83
1903	0.8237
1894	0.8154
1885	0.8021
1876	0.7855
1867	0.7667
1858	0.7389
1849	0.6978
1840	0.6657
1831	0.6223
1822	0.6062
1813	0.5525
1804	0.4652
1795	0.2228
1786	0.0611
1777	0.1679
1768	0.1221
1759	0.078
1750	0.2127
1741	0.3487
1732	0.1736
1723	0.2678
1714	0.5022
1705	0.5883
1696	0.6667
1687	0.7142
1678	0.7489
1669	0.776
1660	0.7917
1651	0.7965
1642	0.8047
1633	0.7954
1624	0.7889
1615	0.7697
1606	0.2332
1597	0.4499
1588	0.6941
1579	0.5758
1570	0.7336
1561	0.7882
1552	0.824
1543	0.8234
1534	0.8275
1525	0.8247
1516	0.8064
1507	0.7856
1498	0.7444
1489	0.4722
1480	0.36
1471	0.6273
1462	0.75
1453	0.4616
1444	0.5704
1435	0.7047
1426	0.7158
1417	0.7424
1408	0.7574
1399	0.7681
1390	0.7451
1381	0.6454
1372	0.4009
1363	0.532
1354	0.7474
1345	0.8039
1336	0.8115
1327	0.8032
1318	0.7834
1309	0.7244
1300	0.6971
1291	0.6483
1282	0.5878
1273	0.4607
1264	0.531
1255	0.4804
1246	0.4417
1237	0.3364
1228	0.2076
1219	0.074
1210	0.0493
1201	0.0365
1192	0.0427
1183	0.1175
1174	0.2711
1165	0.3927
1156	0.3258
1147	0.5126
1138	0.644
1129	0.5992
1120	0.266
1111	0.5439
1102	0.6745
1093	0.7151
1084	0.7261
1075	0.7244
1066	0.7147
1057	0.6551
1048	0.5136
1039	0.5351
1030	0.4468
1021	0.2704
1012	0.1588
1003	0.0919
994	0.0511
985	0.0534
976	0.1275
967	0.2342
958	0.3065
949	0.4253
940	0.538
931	0.6184
922	0.4029
913	0.2665
904	0.4998
895	0.6045
886	0.6171
877	0.5717
868	0.6703
859	0.6818
850	0.7401
841	0.6874
832	0.4685
823	0.6498
814	0.7515
805	0.7854
796	0.7418
787	0.6911
778	0.5041
769	0.4888
760	0.6701
751	0.2926
742	0.5772
733	0.7362
724	0.793
715	0.6338
706	0.6778
697	0.7698
688	0.7611
679	0.3458
670	0.6668
661	0.6441
