Infrared Spectrum: 2,3,5-Trimethylpyrazine
Formula: C 7 H 10 N 2
CAS: 14667-55-1
State: gas
Instrument: HP-GC/MS/IRD
Origin: NIST Mass Spectrometry Data Center
1/CM	ABSORBANCE
550	0.0002544
562	0.0005148
574	0.0003684
586	0.0001644
598	5.28e-05
610	5.04e-05
622	8.04e-05
634	0.000168
646	0.0002256
658	0.0002196
670	0.0001428
682	0.0001524
694	0.0002976
706	0.0003936
718	0.000318
730	0.0007836
742	0.0014412
754	0.001032
766	0.000366
778	0.0002652
790	0.0002232
802	0.000204
814	0.0001392
826	0.00018
838	0.000246
850	0.0002004
862	0.0002736
874	0.0005256
886	0.0009444
898	0.0010596
910	0.0008328
922	0.0013188
934	0.00264
946	0.0027672
958	0.001758
970	0.0015048
982	0.0018372
994	0.0023484
1006	0.0024552
1018	0.0021492
1030	0.0017796
1042	0.0012816
1054	0.0010932
1066	0.0010584
1078	0.000936
1090	0.0007632
1102	0.0006264
1114	0.000678
1126	0.000834
1138	0.0019224
1150	0.0047172
1162	0.0068568
1174	0.0057456
1186	0.0023928
1198	0.0009552
1210	0.0007668
1222	0.000804
1234	0.0010716
1246	0.00153
1258	0.0021636
1270	0.0032184
1282	0.0029352
1294	0.0012864
1306	0.000984
1318	0.0010332
1330	0.0013296
1342	0.0030072
1354	0.0065616
1366	0.0075396
1378	0.0073332
1390	0.0092112
1402	0.0071484
1414	0.0047928
1426	0.0063948
1438	0.0093072
1450	0.0117804
1462	0.0109224
1474	0.0065652
1486	0.0032832
1498	0.0025116
1510	0.0024276
1522	0.00273
1534	0.0031272
1546	0.0029148
1558	0.0021636
1570	0.0015768
1582	0.001014
1594	0.000666
1606	0.0004728
1618	0.0003732
1630	0.0003828
1642	0.0003564
1654	0.0002868
1666	0.0002628
1678	0.0001896
1690	0.000174
1702	0.0001392
1714	0.000132
1726	0.0001884
1738	0.0001428
1750	0.00015
1762	0.000246
1774	0.0003768
1786	0.0003492
1798	0.000222
1810	0.0001392
1822	0.0001128
1834	0.0001128
1846	8.88e-05
1858	9.96e-05
1870	8.88e-05
1882	9.6e-05
1894	0.0001092
1906	0.0001392
1918	0.000108
1930	0.0001284
1942	0.0001488
1954	0.000126
1966	0.0001044
1978	9.24e-05
1990	9.24e-05
2002	7.32e-05
2014	4.68e-05
2026	4.32e-05
2038	5.88e-05
2050	8.28e-05
2062	0.0001308
2074	0.0001464
2086	0.0001488
2098	0.0001152
2110	0.0001236
2122	0.0001272
2134	0.0001176
2146	9.96e-05
2158	5.4e-05
2170	5.88e-05
2182	3e-05
2194	1.8e-05
2206	6e-06
2218	2.64e-05
2230	1.8e-05
2242	2.04e-05
2254	2.04e-05
2266	3.6e-06
2278	4.68e-05
2290	3.84e-05
2302	7.32e-05
2314	8.64e-05
2326	9.24e-05
2338	3.72e-05
2350	6.24e-05
2362	4.08e-05
2374	0.0001284
2386	0.0001176
2398	0.000138
2410	0.0001428
2422	9.84e-05
2434	9.96e-05
2446	0.0001068
2458	8.4e-05
2470	9.24e-05
2482	8.52e-05
2494	9.48e-05
2506	7.32e-05
2518	9.6e-05
2530	0.0001068
2542	0.0001056
2554	8.52e-05
2566	4.08e-05
2578	6.72e-05
2590	3.72e-05
2602	4.8e-05
2614	9.48e-05
2626	9.6e-05
2638	9.36e-05
2650	7.56e-05
2662	7.8e-05
2674	0.0001104
2686	6.36e-05
2698	4.44e-05
2710	8.28e-05
2722	0.0001824
2734	0.000324
2746	0.0003084
2758	0.0002304
2770	0.0002112
2782	0.00021
2794	0.0002868
2806	0.000384
2818	0.0005268
2830	0.0007548
2842	0.0011052
2854	0.00168
2866	0.0024252
2878	0.00261
2890	0.0024924
2902	0.0027732
2914	0.0040104
2926	0.0075264
2938	0.0092784
2950	0.0068916
2962	0.0046068
2974	0.0037056
2986	0.0035064
2998	0.0039096
3010	0.0039204
3022	0.00381
3034	0.0042204
3046	0.0044508
3058	0.003378
3070	0.0021468
3082	0.001422
3094	0.0009756
3106	0.000642
3118	0.0005412
3130	0.0003972
3142	0.00036
3154	0.0002448
3166	0.0001536
3178	0.0001152
3190	0.0001224
3202	7.56e-05
3214	7.08e-05
3226	0.0001248
3238	0.0001044
3250	0.0001908
3262	0.000102
3274	7.32e-05
3286	8.88e-05
3298	9e-05
3310	5.04e-05
3322	4.92e-05
3334	2.04e-05
3346	4.8e-05
3358	7.92e-05
3370	5.52e-05
3382	6.36e-05
3394	9.12e-05
3406	0.000114
3418	7.68e-05
3430	0.0001116
3442	9.12e-05
3454	5.88e-05
3466	5.76e-05
3478	0.000102
3490	7.44e-05
3502	0.0001068
3514	0.000126
3526	8.16e-05
3538	5.76e-05
3550	8.52e-05
3562	9.24e-05
3574	1.2e-06
3586	3.36e-05
3598	0.0001488
3610	0.0001296
3622	3.72e-05
3634	8.4e-05
3646	2.88e-05
3658	5.76e-05
3670	9.6e-06
3682	7.2e-05
3694	6.36e-05
3706	2.76e-05
3718	7.2e-05
3730	6.84e-05
3742	1.56e-05
3754	6.96e-05
3766	0.0001092
3778	9.72e-05
3790	4.68e-05
3802	6.96e-05
3814	6.48e-05
3826	8.4e-05
3838	6.6e-05
