Infrared Spectrum: 5-Amino-3-methylisooxazole
Formula: C 4h 6 N 2 O
CAS: 14678-02-5
State: gas
Origin: EPA-IR VAPOR PHASE LIBRARY
1/CM	ABSORBANCE
551.7	0.00806
563.274	0.0087
574.848	0.01028
586.421	0.01129
597.995	0.01104
609.569	0.00931
621.143	0.00897
632.717	0.00932
644.291	0.00904
655.864	0.00942
667.438	0.00971
679.012	0.01009
690.586	0.01049
702.16	0.01088
713.734	0.01116
725.307	0.01214
736.881	0.01291
748.455	0.01225
760.029	0.01091
771.603	0.00913
783.177	0.00795
794.75	0.00738
806.324	0.00707
817.898	0.0068
829.472	0.00684
841.046	0.00701
852.619	0.0076
864.193	0.00846
875.767	0.00912
887.341	0.00894
898.915	0.00775
910.489	0.00691
922.062	0.00644
933.636	0.00624
945.21	0.00628
956.784	0.00641
968.358	0.00655
979.932	0.00657
991.505	0.00719
1003.08	0.0081
1014.65	0.00864
1026.23	0.00732
1037.8	0.00617
1049.37	0.00586
1060.95	0.00579
1072.52	0.00589
1084.1	0.00587
1095.67	0.00588
1107.24	0.00569
1118.82	0.00547
1130.39	0.00537
1141.97	0.00544
1153.54	0.00585
1165.11	0.00582
1176.69	0.00518
1188.26	0.00456
1199.83	0.0045
1211.41	0.00451
1222.98	0.00455
1234.56	0.0048
1246.13	0.0049
1257.7	0.00494
1269.28	0.00498
1280.85	0.00516
1292.42	0.00531
1304	0.00562
1315.57	0.00577
1327.15	0.00596
1338.72	0.00622
1350.29	0.00627
1361.87	0.00635
1373.44	0.00655
1385.02	0.00666
1396.59	0.00714
1408.16	0.00875
1419.74	0.01317
1431.31	0.01825
1442.88	0.02208
1454.46	0.01985
1466.03	0.0136
1477.61	0.01022
1489.18	0.01203
1500.75	0.01471
1512.33	0.01437
1523.9	0.01146
1535.48	0.0081
1547.05	0.00741
1558.62	0.00767
1570.2	0.0085
1581.77	0.01035
1593.34	0.01268
1604.92	0.0164
1616.49	0.02797
1628.07	0.04651
1639.64	0.04782
1651.21	0.03161
1662.79	0.01155
1674.36	0.00769
1685.93	0.0066
1697.51	0.00617
1709.08	0.00608
1720.66	0.00622
1732.23	0.00638
1743.8	0.00637
1755.38	0.00605
1766.95	0.00571
1778.53	0.00549
1790.1	0.00536
1801.67	0.00517
1813.25	0.00506
1824.82	0.00505
1836.39	0.00506
1847.97	0.00507
1859.54	0.00506
1871.12	0.00499
1882.69	0.00488
1894.26	0.00487
1905.84	0.00479
1917.41	0.00468
1928.99	0.00458
1940.56	0.00447
1952.13	0.00443
1963.71	0.00443
1975.28	0.00438
1986.85	0.00437
1998.43	0.00433
2010	0.00428
2021.58	0.00421
2033.15	0.00407
2044.72	0.0039
2056.3	0.00366
2067.87	0.00349
2079.44	0.00334
2091.02	0.00317
2102.59	0.00307
2114.17	0.00297
2125.74	0.00297
2137.31	0.00293
2148.89	0.00291
2160.46	0.00289
2172.04	0.0029
2183.61	0.00292
2195.18	0.00299
2206.76	0.00304
2218.33	0.00307
2229.9	0.00307
2241.48	0.00296
2253.05	0.00286
2264.63	0.00282
2276.2	0.00282
2287.77	0.00284
2299.35	0.00282
2310.92	0.00288
2322.5	0.00291
2334.07	0.00292
2345.64	0.00287
2357.22	0.00286
2368.79	0.00287
2380.36	0.00289
2391.94	0.00291
2403.51	0.0029
2415.09	0.00292
2426.66	0.00291
2438.23	0.00288
2449.81	0.0029
2461.38	0.0029
2472.96	0.0029
2484.53	0.00285
2496.1	0.0028
2507.68	0.00279
2519.25	0.00279
2530.82	0.0028
2542.4	0.00276
2553.97	0.00275
2565.55	0.00273
2577.12	0.00273
2588.69	0.00278
2600.27	0.00282
2611.84	0.00279
2623.41	0.00282
2634.99	0.00284
2646.56	0.00288
2658.14	0.00286
2669.71	0.00287
2681.28	0.00288
2692.86	0.00289
2704.43	0.00288
2716.01	0.00294
2727.58	0.00288
2739.15	0.0029
2750.73	0.00288
2762.3	0.00289
2773.87	0.00297
2785.45	0.00307
2797.02	0.00313
2808.6	0.0031
2820.17	0.00311
2831.74	0.00326
2843.32	0.00329
2854.89	0.00338
2866.47	0.00348
2878.04	0.00364
2889.61	0.00378
2901.19	0.00398
2912.76	0.00425
2924.33	0.00482
2935.91	0.00555
2947.48	0.00562
2959.06	0.005
2970.63	0.00449
2982.2	0.00451
2993.78	0.00459
3005.35	0.00434
3016.92	0.00422
3028.5	0.00417
3040.07	0.00431
3051.65	0.00425
3063.22	0.00436
3074.79	0.00426
3086.37	0.00419
3097.94	0.004
3109.52	0.00378
3121.09	0.00361
3132.66	0.00359
3144.24	0.00346
3155.81	0.0033
3167.38	0.00319
3178.96	0.00317
3190.53	0.00308
3202.11	0.00304
3213.68	0.00301
3225.25	0.00298
3236.83	0.00293
3248.4	0.00298
3259.98	0.00299
3271.55	0.0031
3283.12	0.00316
3294.7	0.00321
3306.27	0.00318
3317.84	0.00306
3329.42	0.00307
3340.99	0.00312
3352.57	0.00309
3364.14	0.00321
3375.71	0.00347
3387.29	0.00396
3398.86	0.00513
3410.43	0.00709
3422.01	0.00785
3433.58	0.00684
3445.16	0.00491
3456.73	0.00402
3468.3	0.00415
3479.88	0.00472
3491.45	0.00542
3503.03	0.00603
3514.6	0.00613
3526.17	0.0056
3537.75	0.00477
3549.32	0.00395
3560.89	0.00335
3572.47	0.00306
3584.04	0.00298
3595.62	0.00298
3607.19	0.00302
3618.76	0.00295
3630.34	0.00304
3641.91	0.00306
3653.49	0.00305
3665.06	0.00313
3676.63	0.00316
3688.21	0.00318
3699.78	0.00307
3711.35	0.00295
3722.93	0.00286
3734.5	0.00288
3746.08	0.00281
3757.65	0.00282
3769.22	0.00279
3780.8	0.00283
3792.37	0.00276
3803.94	0.0028
3815.52	0.00277
3827.09	0.00281
3838.67	0.00279
3850.24	0.00282
3861.81	0.00289
3873.39	0.0029
3884.96	0.00282
3896.54	0.00287
3908.11	0.00279
3919.68	0.0028
3931.26	0.00285
3942.83	0.00283
3954.4	0.00286
3965.98	0.00289
3977.55	0.00278
3989.13	0.00286
4000.7	0.00281
