Infrared Spectrum: 3-Ethyl-2-methylheptane
Formula: C 10 H 22
CAS: 14676-29-0
State: gas
Instrument: HP-GC/MS/IRD
Origin: NIST Mass Spectrometry Data Center
1/CM	ABSORBANCE
550	1.15e-05
562	6.67e-05
574	0.0001426
586	3.22e-05
598	2.3e-05
610	0.0001058
622	6.67e-05
634	0.0001127
646	9.43e-05
658	0.0001541
670	7.59e-05
682	8.51e-05
694	0.000115
706	0.0002116
718	0.0003128
730	0.0002438
742	0.00023
754	0.0002668
766	0.0002484
778	0.0003151
790	0.0002921
802	0.000184
814	0.0002208
826	0.00023
838	0.0001794
850	0.0002231
862	0.0002185
874	0.0002346
886	0.0002507
898	0.0002875
910	0.0003289
922	0.0003864
934	0.0004347
946	0.000529
958	0.0005819
970	0.0006325
982	0.0006624
994	0.0007498
1006	0.0010948
1018	0.0016491
1030	0.0019665
1042	0.0016422
1054	0.0011155
1066	0.0006785
1078	0.0004554
1090	0.0004508
1102	0.0004232
1114	0.0004761
1126	0.0005658
1138	0.0004784
1150	0.0004071
1162	0.0004715
1174	0.0004209
1186	0.0003841
1198	0.0003496
1210	0.0004025
1222	0.000391
1234	0.0004209
1246	0.0004462
1258	0.0004577
1270	0.0004692
1282	0.0004784
1294	0.0005497
1306	0.0005819
1318	0.0006256
1330	0.00069
1342	0.0007015
1354	0.0008878
1366	0.0014996
1378	0.0023023
1390	0.0022977
1402	0.0011431
1414	0.0006647
1426	0.0006279
1438	0.0009131
1450	0.0017871
1462	0.0028658
1474	0.0025921
1486	0.0013294
1498	0.0005934
1510	0.0003243
1522	0.0002415
1534	0.0002001
1546	0.0001426
1558	9.43e-05
1570	0.0001403
1582	0.0001564
1594	0.0001173
1606	0.0001472
1618	0.0001104
1630	0.0001127
1642	0.0001173
1654	5.98e-05
1666	8.05e-05
1678	5.98e-05
1690	6.21e-05
1702	2.99e-05
1714	3.91e-05
1726	6.44e-05
1738	5.06e-05
1750	4.14e-05
1762	3.68e-05
1774	3.22e-05
1786	3.91e-05
1798	3.22e-05
1810	1.84e-05
1822	3.22e-05
1834	2.99e-05
1846	2.53e-05
1858	3.68e-05
1870	2.99e-05
1882	4.83e-05
1894	2.3e-05
1906	2.76e-05
1918	2.53e-05
1930	4.14e-05
1942	2.76e-05
1954	3.22e-05
1966	1.84e-05
1978	2.99e-05
1990	3.68e-05
2002	4.83e-05
2014	3.45e-05
2026	4.83e-05
2038	5.52e-05
2050	4.6e-05
2062	2.99e-05
2074	3.45e-05
2086	2.07e-05
2098	1.84e-05
2110	3.91e-05
2122	1.84e-05
2134	4.37e-05
2146	6.9e-06
2158	3.91e-05
2170	5.52e-05
2182	3.22e-05
2194	3.45e-05
2206	4.14e-05
2218	2.07e-05
2230	5.29e-05
2242	4.6e-05
2254	4.83e-05
2266	5.98e-05
2278	5.06e-05
2290	5.29e-05
2302	4.37e-05
2314	7.59e-05
2326	6.44e-05
2338	6.44e-05
2350	6.21e-05
2362	7.82e-05
2374	9.89e-05
2386	9.43e-05
2398	0.0001035
2410	0.0001104
2422	9.89e-05
2434	0.0001058
2446	8.74e-05
2458	9.89e-05
2470	9.66e-05
2482	0.0001219
2494	0.0001196
2506	0.000115
2518	0.0001403
2530	0.0001472
2542	0.0001564
2554	0.0001656
2566	0.0001886
2578	0.0002185
2590	0.0002829
2602	0.0003013
2614	0.000299
2626	0.0002898
2638	0.0003289
2650	0.0003174
2662	0.0003243
2674	0.0003473
2686	0.0003726
2698	0.0004048
2710	0.0003956
2722	0.0004807
2734	0.0005727
2746	0.000621
2758	0.0006026
2770	0.0006371
2782	0.0006923
2794	0.0008027
2806	0.0009591
2818	0.0011891
2830	0.001518
2842	0.0022563
2854	0.0041929
2866	0.0077947
2878	0.0109986
2890	0.0107134
2902	0.0093656
2914	0.0110009
2926	0.0151547
2938	0.0177123
2950	0.0168636
2962	0.0219282
2974	0.0191498
2986	0.0085215
2998	0.0036593
3010	0.0020907
3022	0.0014858
3034	0.0011661
3046	0.0009476
3058	0.000805
3070	0.0007015
3082	0.0006118
3094	0.0006118
3106	0.0005382
3118	0.0005313
3130	0.0004439
3142	0.0004577
3154	0.0004002
3166	0.000414
3178	0.0003381
3190	0.0003036
3202	0.0002668
3214	0.0002185
3226	0.0002047
3238	0.0001495
3250	0.000161
3262	0.0001702
3274	0.0001518
3286	0.000184
3298	0.0001334
3310	0.0001449
3322	0.0001702
3334	0.0001311
3346	0.0001242
3358	0.0001058
3370	0.0001587
3382	0.0001495
3394	9.89e-05
3406	0.0001012
3418	0.0001265
3430	0.0001403
3442	0.0001472
3454	0.000115
3466	6.9e-05
3478	0.0001058
3490	9.2e-05
3502	0.0001173
3514	6.44e-05
3526	6.44e-05
3538	5.52e-05
3550	8.28e-05
3562	8.51e-05
3574	7.36e-05
3586	8.74e-05
3598	7.82e-05
3610	7.82e-05
3622	0.0001334
3634	0.0001311
3646	0.0002093
3658	0.0003358
3670	0.0003841
3682	0.0003197
3694	0.0001909
3706	0.0001702
3718	8.74e-05
3730	0.0001058
3742	5.98e-05
3754	8.74e-05
3766	0.0001012
3778	0.0001472
3790	0.0001357
3802	0.0001104
3814	9.2e-05
3826	0.0001311
3838	0.0001104
