Infrared Spectrum: BENZENE, 1-CHLOROMETHYL-4-ETHYL-
Formula: C9 H11 Cl
CAS: 1467-05-6
State: SOLUTION (10% IN CCl4 FOR 3800-1300, 10% IN CS2 FOR 1300-450 CM^-^1)
Class: COBLENTZ III
Instrument: DOW KBr FOREPRISM-GRATING
Instrument parameters: BLAZED AT 3.5, 12.0, 20.0 MICRON; GRATING CHANGES AT 5.0, 7.5, 14.9 MICRON
Sampling: TRANSMISSION
Path length: 0.01, AND 0.01 CM
Resolution: 4
Origin: DOW CHEMICAL COMPANY
1/CM	TRANSMITTANCE
449.216	0.883
457.68	0.876
466.144	0.861
474.608	0.838
483.072	0.77
491.536	0.9039
500	1.002
508.464	1.01
516.928	1.019
525.392	1.013
533.856	1.01
542.32	0.9881
550.784	0.8042
559.248	0.8069
567.712	1.022
576.176	1.057
584.64	1.063
593.104	1.036
601.568	1.067
610.032	1.064
618.496	1.05
626.96	1.041
635.424	1.016
643.888	0.979
652.352	0.923
660.816	0.889
669.28	0.6291
677.744	0.539
686.208	0.495
694.672	0.016
703.136	0.385
711.6	0.475
720.064	0.445
728.528	0.447
736.992	0.335
745.456	0.31
753.919	0.502
762.383	0.695
770.847	0.654
779.311	0.758
787.775	0.733
796.239	0.8499
804.703	0.925
813.167	0.902
821.631	0.861
830.095	0.829
838.559	0.817
847.023	0.838
855.487	0.826
863.951	0.851
872.415	0.897
880.879	0.933
889.343	0.957
897.807	0.888
906.271	0.9548
914.735	1.011
923.199	1.022
931.663	1.02
940.127	1.008
948.591	1.004
957.055	0.947
965.519	0.898
973.983	0.97
982.447	1
990.911	1.011
999.375	1.008
1007.84	1.004
1016.3	0.98
1024.77	0.873
1033.23	0.777
1041.7	0.892
1050.16	0.908
1058.62	0.861
1067.09	0.905
1075.55	0.966
1084.01	0.9
1092.48	0.945
1100.94	0.979
1109.41	0.957
1117.87	1.004
1126.33	1.023
1134.8	1.02
1143.26	0.997
1151.73	0.973
1160.19	0.973
1168.65	0.975
1177.12	0.935
1185.58	0.95
1194.05	1
1202.51	1
1210.97	0.997
1219.44	1.007
1227.9	1.022
1236.37	1.011
1244.83	0.986
1253.29	0.95
1261.76	0.67
1270.22	0.835
1278.69	0.955
1287.15	0.954
1295.61	0.944
1304.08	0.929
1312.54	0.923
1321.01	0.916
1329.47	0.922
1337.93	0.941
1346.4	0.954
1354.86	0.973
1363.33	0.963
1371.79	0.8669
1380.25	0.875
1388.72	0.938
1397.18	0.96
1405.65	0.951
1414.11	0.908
1422.57	0.886
1431.04	0.848
1439.5	0.7789
1447.97	0.5439
1456.43	0.3662
1464.89	0.6041
1473.36	0.78
1481.82	0.777
1490.29	0.5351
1498.75	0.505
1507.21	0.729
1515.68	0.672
1524.14	0.689
1532.61	0.61
1541.07	0.523
1549.53	0.501
1558	0.576
1566.46	0.66
1574.93	0.669
1583.39	0.664
1591.85	0.725
1600.32	0.655
1608.78	0.8321
1617.25	0.929
1625.71	0.966
1634.17	0.988
1642.64	0.994
1651.1	0.983
1659.57	0.982
1668.03	0.985
1676.49	0.986
1684.96	0.988
1693.42	0.985
1701.89	0.991
1710.35	0.991
1718.81	0.986
1727.28	0.982
1735.74	0.958
1744.21	0.961
1752.67	0.985
1761.13	0.991
1769.6	0.986
1778.06	0.983
1786.53	0.973
1794.99	0.919
1803.45	0.936
1811.92	0.957
1820.38	0.972
1828.85	0.988
1837.31	0.989
1845.77	0.975
1854.24	0.955
1862.7	0.917
1871.17	0.954
1879.63	0.932
1888.09	0.976
1896.56	0.969
1905.02	0.979
1913.49	0.975
1921.95	0.975
1930.41	0.955
1938.88	0.902
1947.34	0.955
1955.81	0.945
1964.27	0.979
1972.73	0.988
1981.2	0.983
1989.66	0.989
1998.13	0.973
2006.59	0.975
2015.05	0.976
2023.52	0.9795
2031.98	0.982
2040.45	0.98
2048.91	0.982
2057.37	0.982
2065.84	0.983
2074.3	0.9855
2082.77	0.986
2091.23	0.986
2099.69	0.986
2108.16	0.985
2116.62	0.986
2125.09	0.986
2133.55	0.986
2142.01	0.986
2150.48	0.986
2158.94	0.986
2167.41	0.986
2175.87	0.985
2184.33	0.983
2192.8	0.983
2201.26	0.982
2209.73	0.9805
2218.19	0.98
2226.65	0.979
2235.12	0.979
2243.58	0.977
2252.05	0.976
2260.51	0.9685
2268.97	0.964
2277.44	0.959
2285.9	0.958
2294.36	0.957
2302.83	0.957
2311.29	0.957
2319.76	0.957
2328.22	0.9575
2336.68	0.96
2345.15	0.9635
2353.61	0.966
2362.08	0.9695
2370.54	0.975
2379	0.976
2387.47	0.985
2395.93	0.983
2404.4	0.983
2412.86	0.983
2421.32	0.983
2429.79	0.983
2438.25	0.988
2446.72	0.988
2455.18	0.988
2463.64	0.988
2472.11	0.986
2480.57	0.985
2489.04	0.985
2497.5	0.985
2505.96	0.985
2514.43	0.984
2522.89	0.983
2531.36	0.985
2539.82	0.985
2548.28	0.986
2556.75	0.985
2565.21	0.984
2573.68	0.983
2582.14	0.9825
2590.6	0.98
2599.07	0.979
2607.53	0.977
2616	0.976
2624.46	0.976
2632.92	0.98
2641.39	0.983
2649.85	0.985
2658.32	0.985
2666.78	0.985
2675.24	0.983
2683.71	0.982
2692.17	0.98
2700.64	0.98
2709.1	0.977
2717.56	0.9745
2726.03	0.969
2734.49	0.975
2742.96	0.976
2751.42	0.9725
2759.88	0.966
2768.35	0.9605
2776.81	0.954
2785.28	0.958
2793.74	0.954
2802.2	0.9515
2810.67	0.933
2819.13	0.918
2827.6	0.888
2836.06	0.8495
2844.52	0.7971
2852.99	0.678
2861.45	0.5412
2869.92	0.4214
2878.38	0.561
2886.84	0.6185
2895.31	0.594
2903.77	0.623
2912.24	0.567
2920.7	0.444
2929.16	0.252
2937.63	0.3854
2946.09	0.517
2954.56	0.3162
2963.02	0.057
2971.48	0.1799
2979.95	0.4042
2988.41	0.6044
2996.88	0.72
3005.34	0.717
3013.8	0.6771
3022.27	0.3554
3030.73	0.3158
3039.2	0.6227
3047.66	0.751
3056.12	0.6825
3064.59	0.5379
3073.05	0.6721
3081.52	0.711
3089.98	0.686
3098.44	0.875
3106.91	0.8685
3115.37	0.955
3123.84	0.979
3132.3	0.983
3140.76	0.985
3149.23	0.988
3157.69	0.983
3166.16	0.986
3174.62	0.991
3183.08	0.994
3191.55	0.999
3200.01	1
3208.48	1.0015
3216.94	1.005
3225.4	1.008
3233.87	1.011
3242.33	1.01
3250.8	1.011
3259.26	1.013
3267.72	1.016
3276.19	1.016
3284.65	1.019
3293.12	1.021
3301.58	1.022
3310.04	1.022
3318.51	1.022
3326.97	1.021
3335.44	1.022
3343.9	1.022
3352.36	1.022
3360.83	1.023
3369.29	1.023
3377.76	1.023
3386.22	1.025
3394.68	1.023
3403.15	1.026
3411.61	1.024
3420.08	1.023
3428.54	1.023
3437	1.022
3445.47	1.02
3453.93	1.019
3462.39	1.017
3470.86	1.016
3479.32	1.014
3487.79	1.014
3496.25	1.014
3504.71	1.01
3513.18	1.008
3521.64	1.008
3530.11	1.008
3538.57	1.008
3547.03	1.01
3555.5	1.01
3563.96	1.012
3572.43	1.01
3580.89	1.008
3589.35	1.01
3597.82	1.0105
3606.28	1.008
3614.75	1.007
3623.21	1.005
3631.67	1.003
3640.14	1.001
3648.6	1.001
3657.07	1
3665.53	1.0005
3673.99	1.004
3682.46	1.005
3690.92	1.002
3699.39	1
3707.85	1.002
3716.31	1.005
3724.78	1.005
3733.24	1.007
3741.71	1.007
3750.17	1.004
3758.63	1.004
3767.1	1.0015
3775.56	1.001
3784.03	0.999
