Infrared Spectrum: Imidazole hydrochloride
Formula: C3 H5 Cl N2
CAS: 1467-16-9
State: SOLID (SPLIT MULL), FLUOROLUBE FOR 3800-1333 CM^-^1, NUJOL FOR 1333-400 CM^-^1
Class: COBLENTZ III
Instrument: BECKMAN IR-9 (GRATING)
Instrument parameters: ORDER CHANGES: 670, 1200, 2000 CM^-^1
Sampling: TRANSMISSION
Resolution: 2
Origin: DOW CHEMICAL COMPANY
1/CM	TRANSMITTANCE
3796	0.7282
3787	0.7295
3778	0.7308
3769	0.7315
3760	0.7322
3751	0.7346
3742	0.7369
3733	0.7392
3724	0.7411
3715	0.7425
3706	0.744
3697	0.745
3688	0.7453
3679	0.7439
3670	0.7412
3661	0.7364
3652	0.7274
3643	0.7121
3634	0.6941
3625	0.6783
3616	0.6635
3607	0.6485
3598	0.631
3589	0.6116
3580	0.5914
3571	0.5676
3562	0.5384
3553	0.5133
3544	0.4904
3535	0.4739
3526	0.4591
3517	0.4459
3508	0.4327
3499	0.4193
3490	0.4055
3481	0.3909
3472	0.3766
3463	0.3659
3454	0.3554
3445	0.3455
3436	0.3388
3427	0.3353
3418	0.3341
3409	0.3332
3400	0.3326
3391	0.3322
3382	0.332
3373	0.3316
3364	0.3316
3355	0.3312
3346	0.3309
3337	0.3304
3328	0.3292
3319	0.3259
3310	0.3184
3301	0.3093
3292	0.2989
3283	0.2892
3274	0.2812
3265	0.2742
3256	0.2668
3247	0.2597
3238	0.2551
3229	0.2515
3220	0.2478
3211	0.2437
3202	0.2388
3193	0.2213
3184	0.1887
3175	0.1648
3166	0.1405
3157	0.115
3148	0.088
3139	0.0719
3130	0.0672
3121	0.0693
3112	0.0719
3103	0.0727
3094	0.073
3085	0.0729
3076	0.0728
3067	0.0717
3058	0.0683
3049	0.0642
3040	0.0616
3031	0.0627
3022	0.0988
3013	0.1182
3004	0.1265
2995	0.1133
2986	0.0872
2977	0.0745
2968	0.0672
2959	0.0623
2950	0.0605
2941	0.0603
2932	0.0607
2923	0.0614
2914	0.0649
2905	0.0779
2896	0.1108
2887	0.1402
2878	0.1414
2869	0.1198
2860	0.0778
2851	0.0633
2842	0.054
2833	0.0484
2824	0.0469
2815	0.0462
2806	0.0477
2797	0.0496
2788	0.052
2779	0.0547
2770	0.0563
2761	0.0562
2752	0.0559
2743	0.0564
2734	0.0586
2725	0.0638
2716	0.0729
2707	0.0881
2698	0.1057
2689	0.1174
2680	0.1296
2671	0.144
2662	0.1546
2653	0.1562
2644	0.1266
2635	0.0835
2626	0.0799
2617	0.0996
2608	0.1241
2599	0.142
2590	0.1567
2581	0.167
2572	0.1757
2563	0.1849
2554	0.1958
2545	0.2068
2536	0.2154
2527	0.2245
2518	0.238
2509	0.2609
2500	0.2831
2491	0.3038
2482	0.3276
2473	0.3482
2464	0.369
2455	0.3914
2446	0.4131
2437	0.4322
2428	0.4494
2419	0.4615
2410	0.4686
2401	0.4724
2392	0.4809
2383	0.4954
2374	0.5714
2365	0.5778
2356	0.5782
2347	0.5852
2338	0.6033
2329	0.6083
2320	0.6112
2311	0.6179
2302	0.626
2293	0.6339
2284	0.6418
2275	0.6496
2266	0.6568
2257	0.6642
2248	0.6715
2239	0.6776
2230	0.6837
2221	0.6895
2212	0.6954
2203	0.7011
2194	0.7068
2185	0.7121
2176	0.7174
2167	0.7225
2158	0.7278
2149	0.7331
2140	0.7378
2131	0.7425
2122	0.7471
2113	0.7511
2104	0.7536
2095	0.7567
2086	0.7599
2077	0.7632
2068	0.7667
2059	0.7708
2050	0.7753
2041	0.7795
2032	0.7836
2023	0.7871
2014	0.7897
2005	0.7903
1996	0.7956
1987	0.8022
1978	0.8046
1969	0.8067
1960	0.8083
1951	0.81
1942	0.8128
1933	0.8143
1924	0.8142
1915	0.8106
1906	0.8047
1897	0.7994
1888	0.7953
1879	0.7899
1870	0.7792
1861	0.766
1852	0.7568
1843	0.7489
1834	0.7401
1825	0.7315
1816	0.7275
1807	0.7281
1798	0.7265
1789	0.724
1780	0.7185
1771	0.7128
1762	0.7096
1753	0.7083
1744	0.7084
1735	0.7106
1726	0.714
1717	0.7171
1708	0.7196
1699	0.7191
1690	0.7065
1681	0.6853
1672	0.6607
1663	0.6382
1654	0.6169
1645	0.6129
1636	0.6256
1627	0.6554
1618	0.6767
1609	0.6825
1600	0.6504
1591	0.5148
1582	0.2063
1573	0.3016
1564	0.601
1555	0.7051
1546	0.7371
1537	0.7204
1528	0.7336
1519	0.7703
1510	0.7861
1501	0.8014
1492	0.8128
1483	0.8139
1474	0.8018
1465	0.7689
1456	0.7181
1447	0.5133
1438	0.524
1429	0.5876
1420	0.5869
1411	0.5453
1402	0.5744
1393	0.6798
1384	0.7294
1375	0.7591
1366	0.7774
1357	0.7889
1348	0.7926
1339	0.7931
1330	0.785
1321	0.7636
1312	0.6153
1303	0.73
1294	0.7821
1285	0.7897
1276	0.7908
1267	0.7933
1258	0.7957
1249	0.7928
1240	0.8065
1231	0.8205
1222	0.8221
1213	0.8018
1204	0.6817
1195	0.6746
1186	0.6555
1177	0.6526
1168	0.6842
1159	0.7054
1150	0.7305
1141	0.7418
1132	0.7561
1123	0.7104
1114	0.7022
1105	0.6907
1096	0.4938
1087	0.4405
1078	0.5345
1069	0.6668
1060	0.5935
1051	0.454
1042	0.333
1033	0.5852
1024	0.6793
1015	0.7339
1006	0.766
997	0.7837
988	0.7904
979	0.7915
970	0.7908
961	0.7857
952	0.7765
943	0.7615
934	0.7411
925	0.6951
916	0.5951
907	0.5618
898	0.581
889	0.6174
880	0.6539
871	0.6878
862	0.6803
853	0.6007
844	0.5205
835	0.4301
826	0.3396
817	0.2513
808	0.2338
799	0.2494
790	0.3078
781	0.3616
772	0.353
763	0.2551
754	0.283
745	0.4632
736	0.5906
727	0.6373
718	0.6692
709	0.6932
700	0.7108
691	0.7241
682	0.7351
673	0.7694
664	0.7971
655	0.8049
646	0.7995
637	0.7601
628	0.3244
619	0.1589
610	0.6625
601	0.7315
592	0.7493
583	0.7574
574	0.7582
565	0.7561
556	0.7518
547	0.7451
538	0.7322
529	0.7158
520	0.695
511	0.6708
502	0.6567
493	0.6521
484	0.6454
475	0.6372
466	0.6256
457	0.6119
448	0.5949
439	0.5737
430	0.5521
421	0.5322
412	0.5233
403	0.528
