Infrared Spectrum: Isovaleric anhydride
Formula: C 10 H 18 O 3
CAS: 1468-39-9
State: gas
Origin: EPA-IR VAPOR PHASE LIBRARY
1/CM	ABSORBANCE
501.5	0.0006178
513.074	0.000945
524.648	0.001415
536.222	0.002115
547.796	0.003135
559.37	0.003905
570.944	0.003965
582.518	0.003715
594.092	0.003285
605.666	0.002965
617.24	0.002535
628.814	0.002245
640.388	0.002165
651.962	0.002145
663.536	0.002295
675.11	0.002385
686.684	0.002415
698.258	0.002475
709.832	0.002595
721.406	0.002955
732.98	0.003435
744.554	0.004085
756.128	0.004905
767.702	0.006055
779.276	0.006835
790.85	0.007565
802.423	0.008535
813.997	0.009155
825.571	0.009465
837.145	0.010055
848.719	0.010485
860.293	0.012445
871.867	0.016775
883.441	0.020115
895.015	0.019835
906.589	0.019205
918.163	0.019585
929.737	0.021495
941.311	0.022205
952.885	0.032745
964.459	0.039505
976.033	0.028675
987.607	0.025795
999.181	0.035105
1010.76	0.057265
1022.33	0.107675
1033.9	0.162345
1045.48	0.128355
1057.05	0.068945
1068.63	0.041575
1080.2	0.033555
1091.77	0.031385
1103.35	0.030425
1114.92	0.030465
1126.49	0.035845
1138.07	0.038845
1149.64	0.032235
1161.22	0.025325
1172.79	0.020855
1184.36	0.017315
1195.94	0.013585
1207.51	0.010825
1219.09	0.010715
1230.66	0.013635
1242.23	0.014595
1253.81	0.011795
1265.38	0.010125
1276.96	0.013775
1288.53	0.019745
1300.1	0.013755
1311.68	0.009425
1323.25	0.008975
1334.83	0.011855
1346.4	0.015315
1357.97	0.019865
1369.55	0.018235
1381.12	0.014435
1392.7	0.010955
1404.27	0.008215
1415.84	0.007755
1427.42	0.008505
1438.99	0.008105
1450.57	0.008865
1462.14	0.012205
1473.71	0.012045
1485.29	0.006745
1496.86	0.003675
1508.44	0.002435
1520.01	0.001855
1531.58	0.001595
1543.16	0.001485
1554.73	0.001405
1566.31	0.001365
1577.88	0.001345
1589.45	0.001355
1601.03	0.001415
1612.6	0.001525
1624.18	0.001645
1635.75	0.001715
1647.32	0.001825
1658.9	0.001995
1670.47	0.002185
1682.05	0.002455
1693.62	0.002945
1705.19	0.003865
1716.77	0.005795
1728.34	0.009505
1739.92	0.018155
1751.49	0.037765
1763.06	0.051645
1774.64	0.037495
1786.21	0.026465
1797.79	0.029515
1809.36	0.047725
1820.93	0.067345
1832.51	0.053615
1844.08	0.026615
1855.66	0.012435
1867.23	0.006545
1878.8	0.004035
1890.38	0.002815
1901.95	0.002145
1913.53	0.001735
1925.1	0.001455
1936.67	0.001235
1948.25	0.001125
1959.82	0.0010286
1971.4	0.0009866
1982.97	0.0009507
1994.54	0.0008569
2006.12	0.0007572
2017.69	0.0007111
2029.27	0.0007289
2040.84	0.0007973
2052.41	0.0008946
2063.99	0.0010098
2075.56	0.001165
2087.14	0.001545
2098.71	0.002705
2110.28	0.004555
2121.86	0.005345
2133.43	0.004235
2145.01	0.001695
2156.58	0.0008153
2168.15	0.0006363
2179.73	0.0005264
2191.3	0.0005081
2202.88	0.00045
2214.45	0.0004289
2226.02	0.0003868
2237.6	0.0003577
2249.17	0.0003316
2260.74	0.0003011
2272.32	0.0003037
2283.89	0.0003106
2295.47	0.0002599
2307.04	0.000296
2318.61	0.0002409
2330.19	0.0002449
2341.76	0.00020334
2353.34	0.00016665
2364.91	0.00014988
2376.48	0.00019942
2388.06	0.0002593
2399.63	0.0002405
2411.21	0.00018141
2422.78	0.00019376
2434.35	0.00019554
2445.93	0.00016124
2457.5	0.00019276
2469.08	0.00019378
2480.65	0.00017212
2492.22	0.00016076
2503.8	0.00019598
2515.37	0.00017722
2526.95	0.00015855
2538.52	0.00015716
2550.09	0.00019604
2561.67	0.00020149
2573.24	0.00020207
2584.82	0.0002335
2596.39	0.0002611
2607.96	0.0002753
2619.54	0.000352
2631.11	0.0003997
2642.69	0.0004585
2654.26	0.0004019
2665.83	0.0003596
2677.41	0.0003595
2688.98	0.0004167
2700.56	0.0004573
2712.13	0.0005481
2723.7	0.0007597
2735.28	0.001155
2746.85	0.001195
2758.43	0.001115
2770	0.0010975
2781.57	0.001235
2793.15	0.001295
2804.72	0.001565
2816.3	0.002015
2827.87	0.002625
2839.44	0.003235
2851.02	0.004435
2862.59	0.007065
2874.17	0.014565
2885.74	0.021685
2897.31	0.019495
2908.89	0.020555
2920.46	0.023385
2932.04	0.029965
2943.61	0.036955
2955.18	0.043625
2966.76	0.068585
2978.33	0.060325
2989.91	0.028085
3001.48	0.010775
3013.05	0.004965
3024.63	0.002915
3036.2	0.002065
3047.78	0.001725
3059.35	0.001485
3070.92	0.001395
3082.5	0.001275
3094.07	0.001235
3105.65	0.001145
3117.22	0.0010072
3128.79	0.0009299
3140.37	0.0008736
3151.94	0.0009004
3163.52	0.0008932
3175.09	0.000971
3186.66	0.0008758
3198.24	0.0007748
3209.81	0.0006563
3221.39	0.0005095
3232.96	0.000331
3244.53	0.00018195
3256.11	9.931e-05
3267.68	0.000113249
3279.26	0.00011742
3290.83	0.000112357
3302.4	0.00012136
3313.98	0.00012021
3325.55	0.00012258
3337.13	0.00020133
3348.7	0.000114106
3360.27	9.11e-05
3371.85	0.000112075
3383.42	0.00013964
3395	0.0002171
3406.57	0.00011598
3418.14	0.00011673
3429.72	6.71e-05
3441.29	8.56e-05
3452.86	0.00014846
3464.44	0.00017666
3476.01	0.0002422
3487.59	0.0003475
3499.16	0.0004979
3510.73	0.0006048
3522.31	0.0005605
3533.88	0.0005611
3545.46	0.0004763
3557.03	0.0007662
3568.6	0.001155
3580.18	0.001225
3591.75	0.0007541
3603.33	0.000572
3614.9	0.0006019
3626.47	0.0005754
3638.05	0.0005622
3649.62	0.0004532
3661.2	0.0003559
3672.77	0.0002235
3684.34	0.00015491
3695.92	0.00011963
3707.49	0.00010357
3719.07	1.51e-05
3730.64	0
3742.21	0.00014195
3753.79	0.00011915
3765.36	6.9e-05
3776.94	0.000107117
3788.51	0.00013363
3800.08	0.000105389
3811.66	0.00017715
3823.23	0.00012574
3834.81	0.00018391
3846.38	0.0002102
3857.95	0.00017704
3869.53	0.00018841
3881.1	0.00015369
3892.68	0.00018586
3904.25	0.00013311
3915.82	0.00014684
3927.4	0.000114827
3938.97	0.000108249
3950.55	0.00010389
3962.12	0.00015765
3973.69	0.00020368
3985.27	0.0001629
3996.84	0.0002587
