Infrared Spectrum: 9-Anthracenemethanol
Formula: C 15 H 12 O
CAS: 1468-95-7
State: gas
Instrument: HP-GC/MS/IRD
Origin: NIST Mass Spectrometry Data Center
1/CM	ABSORBANCE
550	0.0005676
562	0.0003084
574	0.0001332
586	0.0001212
598	0.0010728
610	0.000714
622	0.000276
634	0.0008016
646	0.0007392
658	0.0005268
670	0.0001812
682	0.0002664
694	0.0011376
706	0.0011808
718	0.0048552
730	0.012
742	0.002934
754	0.000444
766	0.0002784
778	0.0006876
790	0.001176
802	0.0003348
814	0.0001608
826	0.000762
838	0.0017988
850	0.0012192
862	0.0014976
874	0.002592
886	0.003606
898	0.0009372
910	0.0003588
922	0.0002988
934	0.0005124
946	0.0009528
958	0.0015288
970	0.0030708
982	0.007278
994	0.00864
1006	0.0031128
1018	0.0013908
1030	0.0018204
1042	0.0032964
1054	0.0033372
1066	0.0012564
1078	0.0006792
1090	0.0004728
1102	0.0003876
1114	0.0003636
1126	0.0004068
1138	0.0004872
1150	0.0008472
1162	0.0013956
1174	0.0007488
1186	0.0008148
1198	0.0008388
1210	0.0008628
1222	0.0010116
1234	0.001038
1246	0.0011592
1258	0.0013488
1270	0.0012216
1282	0.001062
1294	0.0009732
1306	0.0008232
1318	0.0006852
1330	0.0007644
1342	0.001242
1354	0.0010296
1366	0.001362
1378	0.0021384
1390	0.0023496
1402	0.0016728
1414	0.0009684
1426	0.000534
1438	0.000804
1450	0.0010008
1462	0.0005556
1474	0.0008064
1486	0.0005988
1498	0.0006
1510	0.000762
1522	0.0010692
1534	0.0005184
1546	0.0002148
1558	0.0003156
1570	0.0002904
1582	0.0002424
1594	0.0001872
1606	0.000168
1618	0.0004836
1630	0.0005016
1642	0.0001512
1654	0.0001464
1666	0.0003036
1678	0.0006528
1690	0.0008856
1702	0.0011784
1714	0.000486
1726	0.0003
1738	0.0002784
1750	0.0003924
1762	0.000396
1774	0.0003264
1786	0.0004728
1798	0.000552
1810	0.0005364
1822	0.000186
1834	0.000192
1846	0.0001212
1858	9.48e-05
1870	7.08e-05
1882	0.0001428
1894	0.0003792
1906	0.0004188
1918	0.0004692
1930	0.0006624
1942	0.000492
1954	0.0001248
1966	9.12e-05
1978	6.36e-05
1990	6.6e-05
2002	4.92e-05
2014	4.44e-05
2026	7.56e-05
2038	7.32e-05
2050	3.84e-05
2062	5.4e-05
2074	3.84e-05
2086	1.68e-05
2098	2.4e-05
2110	6e-06
2122	1.92e-05
2134	1.32e-05
2146	1.08e-05
2158	3.24e-05
2170	2.76e-05
2182	4.8e-05
2194	3.96e-05
2206	4.8e-05
2218	4.2e-05
2230	2.28e-05
2242	3.24e-05
2254	5.76e-05
2266	7.08e-05
2278	9.12e-05
2290	8.4e-05
2302	8.04e-05
2314	9e-05
2326	0.0001092
2338	8.04e-05
2350	8.28e-05
2362	9.36e-05
2374	9.12e-05
2386	7.44e-05
2398	7.08e-05
2410	4.44e-05
2422	5.04e-05
2434	5.04e-05
2446	4.8e-05
2458	5.4e-05
2470	6.72e-05
2482	4.8e-05
2494	5.4e-05
2506	7.68e-05
2518	5.28e-05
2530	5.28e-05
2542	4.92e-05
2554	5.4e-05
2566	1.44e-05
2578	3.72e-05
2590	3.24e-05
2602	2.52e-05
2614	2.04e-05
2626	2.04e-05
2638	2.52e-05
2650	3.24e-05
2662	4.8e-05
2674	6.12e-05
2686	7.2e-05
2698	7.68e-05
2710	5.64e-05
2722	8.28e-05
2734	8.76e-05
2746	8.52e-05
2758	0.0001404
2770	0.0001644
2782	0.0001452
2794	0.00015
2806	0.0001596
2818	0.0001944
2830	0.0002568
2842	0.0002928
2854	0.0003864
2866	0.0005352
2878	0.0008736
2890	0.0012828
2902	0.0016128
2914	0.0017172
2926	0.0017664
2938	0.0015756
2950	0.0015
2962	0.0015
2974	0.0016452
2986	0.001596
2998	0.0014724
3010	0.0016332
3022	0.0018888
3034	0.002928
3046	0.0041472
3058	0.0070332
3070	0.0061512
3082	0.0050064
3094	0.0037044
3106	0.0011868
3118	0.0004368
3130	0.0002472
3142	0.0001848
3154	0.0001824
3166	0.0001356
3178	0.0001248
3190	0.0001392
3202	0.0001044
3214	7.68e-05
3226	5.52e-05
3238	9e-05
3250	5.88e-05
3262	5.4e-05
3274	2.4e-05
3286	6e-05
3298	4.44e-05
3310	5.76e-05
3322	3.24e-05
3334	9.6e-06
3346	2.28e-05
3358	1.8e-05
3370	4.68e-05
3382	2.16e-05
3394	4.8e-05
3406	3.48e-05
3418	6.84e-05
3430	9.96e-05
3442	6.48e-05
3454	9.24e-05
3466	6.72e-05
3478	7.56e-05
3490	9.84e-05
3502	9.84e-05
3514	0.000138
3526	0.0001212
3538	9.72e-05
3550	0.0001128
3562	0.0001284
3574	0.0001212
3586	0.0001368
3598	0.0001296
3610	0.0001596
3622	0.000252
3634	0.0006576
3646	0.0021912
3658	0.0010212
3670	0.000324
3682	0.0002124
3694	0.0001788
3706	0.0001656
3718	0.0001248
3730	0.00015
3742	0.0001596
3754	0.0001428
3766	0.0001428
3778	0.00012
3790	0.0001332
3802	0.0001584
3814	0.0001488
3826	0.000102
3838	0.0001068
