Infrared Spectrum: trans-3-Heptene
Formula: C 7 H 14
CAS: 14686-14-7
State: gas
Instrument: HP-GC/MS/IRD
Origin: NIST Mass Spectrometry Data Center
1/CM	ABSORBANCE
550	0.0004107
562	0.0003737
574	0.0004884
586	0.0002294
598	0.0001813
610	0.0001628
622	5.92e-05
634	6.66e-05
646	0.0002627
658	5.18e-05
670	3.7e-06
682	7.03e-05
694	0.0001776
706	4.81e-05
718	0.0002072
730	0.000222
742	0.0003034
754	0.0004403
766	0.000629
778	0.0006993
790	0.0006808
802	0.0004884
814	0.0004292
826	0.0002923
838	0.0003182
850	0.0003367
862	0.0004255
874	0.0005402
886	0.0007326
898	0.0008991
910	0.0011396
922	0.001221
934	0.0019721
946	0.0038961
958	0.006438
970	0.006882
982	0.0045473
994	0.0023569
1006	0.0013431
1018	0.0010175
1030	0.0010064
1042	0.0011359
1054	0.0013024
1066	0.0012728
1078	0.0012617
1090	0.001221
1102	0.000888
1114	0.0005587
1126	0.0004107
1138	0.0002849
1150	0.0003626
1162	0.0003182
1174	0.0002886
1186	0.0002923
1198	0.0003034
1210	0.0003515
1222	0.0003515
1234	0.0003404
1246	0.000444
1258	0.0006623
1270	0.0009583
1282	0.0011803
1294	0.0014097
1306	0.0014097
1318	0.0013653
1330	0.0017057
1342	0.0017723
1354	0.0013357
1366	0.0012173
1378	0.001739
1390	0.0018611
1402	0.0013394
1414	0.0013061
1426	0.0018204
1438	0.0028749
1450	0.0039553
1462	0.0043438
1474	0.0033226
1486	0.0019092
1498	0.0010545
1510	0.0005994
1522	0.0003848
1534	0.0002738
1546	0.0002146
1558	0.0001554
1570	0.0001813
1582	0.0001776
1594	0.0002183
1606	0.0001554
1618	0.0001591
1630	0.0001295
1642	0.0001554
1654	0.0001517
1666	0.0002035
1678	0.0001776
1690	0.0001924
1702	0.0002109
1714	0.0001887
1726	0.0001887
1738	0.000185
1750	0.0002072
1762	0.0002368
1774	0.0002516
1786	0.0001998
1798	0.0001406
1810	0.0001332
1822	0.0001443
1834	0.0001443
1846	0.0001221
1858	4.81e-05
1870	4.44e-05
1882	3.7e-05
1894	1.48e-05
1906	1.11e-05
1918	7.4e-06
1930	1.11e-05
1942	1.85e-05
1954	2.22e-05
1966	1.48e-05
1978	1.48e-05
1990	3.7e-06
2002	3.33e-05
2014	2.22e-05
2026	5.92e-05
2038	7.77e-05
2050	5.92e-05
2062	4.81e-05
2074	2.96e-05
2086	2.59e-05
2098	7.4e-06
2110	1.85e-05
2122	7.4e-06
2134	0
2146	4.07e-05
2158	2.22e-05
2170	3.7e-05
2182	1.85e-05
2194	4.07e-05
2206	3.33e-05
2218	3.7e-05
2230	3.7e-05
2242	4.44e-05
2254	2.22e-05
2266	1.11e-05
2278	4.44e-05
2290	1.11e-05
2302	4.44e-05
2314	2.96e-05
2326	4.81e-05
2338	3.33e-05
2350	8.14e-05
2362	6.66e-05
2374	6.66e-05
2386	6.66e-05
2398	9.99e-05
2410	8.51e-05
2422	5.92e-05
2434	8.51e-05
2446	4.44e-05
2458	1.11e-05
2470	2.59e-05
2482	7.4e-06
2494	3.33e-05
2506	7.03e-05
2518	0.0001036
2530	9.62e-05
2542	0.0001073
2554	0.0001147
2566	0.0001295
2578	0.0001184
2590	0.0001369
2602	0.0001665
2614	0.0001258
2626	0.0001332
2638	0.0001739
2650	0.0001924
2662	0.0002146
2674	0.0002627
2686	0.0002849
2698	0.0003182
2710	0.0003478
2722	0.000444
2734	0.0006068
2746	0.0006956
2758	0.0006956
2770	0.0008103
2782	0.0009694
2794	0.0011396
2806	0.0015281
2818	0.0021682
2830	0.003552
2842	0.0061087
2854	0.009472
2866	0.0127687
2878	0.0165723
2890	0.0177045
2902	0.0180153
2914	0.0211825
2926	0.0261442
2938	0.0306545
2950	0.0302031
2962	0.0338883
2974	0.0356125
2986	0.0221371
2998	0.0120287
3010	0.0080031
3022	0.0060865
3034	0.0046842
3046	0.0033115
3058	0.0022903
3070	0.0016909
3082	0.0013949
3094	0.0011655
3106	0.0009398
3118	0.0007992
3130	0.0007289
3142	0.0006401
3154	0.0005698
3166	0.0005143
3178	0.0004699
3190	0.00037
3202	0.0003108
3214	0.0002664
3226	0.0002146
3238	0.0001036
3250	0.0001147
3262	8.14e-05
3274	7.77e-05
3286	0.0001036
3298	4.81e-05
3310	6.29e-05
3322	7.77e-05
3334	5.18e-05
3346	7.03e-05
3358	6.66e-05
3370	7.03e-05
3382	9.99e-05
3394	7.77e-05
3406	0.0001147
3418	9.99e-05
3430	8.14e-05
3442	0.0001221
3454	7.03e-05
3466	7.4e-05
3478	0.0001295
3490	0.000111
3502	8.88e-05
3514	0
3526	5.55e-05
3538	2.96e-05
3550	8.88e-05
3562	8.88e-05
3574	7.03e-05
3586	5.18e-05
3598	0.000111
3610	0.0001184
3622	8.51e-05
3634	8.51e-05
3646	0.0001554
3658	0.0001591
3670	0.0001517
3682	0.0001776
3694	0.0002146
3706	0.0001998
3718	0.0001554
3730	0.0001628
3742	0.0001628
3754	0.0001961
3766	0.0001813
3778	0.0001591
3790	0.0001591
3802	0.0002331
3814	0.0001665
3826	0.0002035
3838	0.0001665
