Infrared Spectrum: Tetrahydrophthalimide
Formula: C 8 H 9 N O 2
CAS: 1469-48-3
State: gas
Instrument: HP-GC/MS/IRD
Origin: NIST Mass Spectrometry Data Center
1/CM	ABSORBANCE
550	0.004466
562	0.002016
574	0.000966
586	0.001624
598	0.003486
610	0.00679
622	0.010122
634	0.012054
646	0.010766
658	0.012432
670	0.0161
682	0.01232
694	0.006132
706	0.003234
718	0.002926
730	0.002842
742	0.001974
754	0.001526
766	0.00161
778	0.00147
790	0.000826
802	0.000336
814	0.000154
826	8.4e-05
838	1.4e-05
850	0.00014
862	0.000126
874	0.00021
886	0.000518
898	0.001204
910	0.001806
922	0.003276
934	0.00511
946	0.004522
958	0.003066
970	0.002534
982	0.002016
994	0.001498
1006	0.002044
1018	0.003556
1030	0.00378
1042	0.003234
1054	0.003948
1066	0.002982
1078	0.001666
1090	0.001638
1102	0.002156
1114	0.003514
1126	0.00742
1138	0.015022
1150	0.02156
1162	0.017038
1174	0.00868
1186	0.007826
1198	0.007448
1210	0.005642
1222	0.00427
1234	0.00385
1246	0.00406
1258	0.004592
1270	0.005712
1282	0.008134
1294	0.013188
1306	0.020846
1318	0.024906
1330	0.021574
1342	0.015512
1354	0.010948
1366	0.005838
1378	0.002828
1390	0.001974
1402	0.001848
1414	0.001862
1426	0.001974
1438	0.003388
1450	0.004046
1462	0.00203
1474	0.000686
1486	0.000462
1498	0.00035
1510	0.00028
1522	0.000308
1534	0.000392
1546	0.000406
1558	0.000364
1570	0.000364
1582	0.000462
1594	0.000602
1606	0.000756
1618	0.00098
1630	0.001372
1642	0.001722
1654	0.001946
1666	0.002198
1678	0.002394
1690	0.003052
1702	0.004914
1714	0.009114
1726	0.019516
1738	0.055272
1750	0.126616
1762	0.128674
1774	0.064078
1786	0.040124
1798	0.03206
1810	0.019082
1822	0.007364
1834	0.004172
1846	0.002884
1858	0.002198
1870	0.001736
1882	0.001316
1894	0.00105
1906	0.00084
1918	0.00084
1930	0.00098
1942	0.000868
1954	0.000504
1966	0.00028
1978	0.00021
1990	0.000182
2002	0.000154
2014	0.00014
2026	0.000112
2038	9.8e-05
2050	9.8e-05
2062	8.4e-05
2074	5.6e-05
2086	9.8e-05
2098	9.8e-05
2110	0.000112
2122	0.000168
2134	0.000112
2146	7e-05
2158	4.2e-05
2170	2.8e-05
2182	1.4e-05
2194	2.8e-05
2206	8.4e-05
2218	8.4e-05
2230	0.000112
2242	0.000154
2254	0.000154
2266	0.000154
2278	0.00014
2290	0.000112
2302	9.8e-05
2314	7e-05
2326	5.6e-05
2338	0.000154
2350	0.000224
2362	0.00028
2374	0.000322
2386	0.000294
2398	0.000224
2410	0.00021
2422	0.000238
2434	0.000224
2446	0.000224
2458	0.000238
2470	0.00021
2482	0.000182
2494	0.000112
2506	7e-05
2518	5.6e-05
2530	2.8e-05
2542	1.4e-05
2554	1.4e-05
2566	4.2e-05
2578	4.2e-05
2590	7e-05
2602	0.000112
2614	0.000154
2626	0.000196
2638	0.000252
2650	0.00021
2662	0.000196
2674	8.4e-05
2686	9.8e-05
2698	2.8e-05
2710	2.8e-05
2722	1.4e-05
2734	2.8e-05
2746	4.2e-05
2758	7e-05
2770	5.6e-05
2782	0.000112
2794	0.000168
2806	0.000294
2818	0.000462
2830	0.000742
2842	0.001456
2854	0.003738
2866	0.004648
2878	0.003262
2890	0.003444
2902	0.004452
2914	0.004396
2926	0.004214
2938	0.005586
2950	0.00518
2962	0.00476
2974	0.004354
2986	0.002674
2998	0.001358
3010	0.000728
3022	0.000714
3034	0.001904
3046	0.005558
3058	0.005908
3070	0.002058
3082	0.000658
3094	0.000434
3106	0.000364
3118	0.000322
3130	0.000308
3142	0.00021
3154	0.00014
3166	9.8e-05
3178	4.2e-05
3190	1.4e-05
3202	0
3214	1.4e-05
3226	4.2e-05
3238	4.2e-05
3250	0
3262	0
3274	8.4e-05
3286	4.2e-05
3298	2.8e-05
3310	7e-05
3322	9.8e-05
3334	5.6e-05
3346	0
3358	2.8e-05
3370	0.000112
3382	2.8e-05
3394	0.000112
3406	0.000336
3418	0.000924
3430	0.003626
3442	0.011648
3454	0.014084
3466	0.00504
3478	0.000938
3490	0.000714
3502	0.000826
3514	0.000994
3526	0.00126
3538	0.00154
3550	0.00119
3562	0.000644
3574	0.000434
3586	0.000336
3598	0.00028
3610	0.00021
3622	0.000196
3634	0.00014
3646	0.000112
3658	0.000112
3670	9.8e-05
3682	9.8e-05
3694	0.00014
3706	9.8e-05
3718	0.000112
3730	0.00014
3742	9.8e-05
3754	0.00014
3766	0.000126
3778	0.000112
3790	0.000154
3802	0.000112
3814	9.8e-05
3826	0.000126
3838	0.000126
