Infrared Spectrum: Allylethyl carbonate
Formula: C 6 H 10 O 3
CAS: 1469-70-1
State: gas
Instrument: HP-GC/MS/IRD
Origin: NIST Mass Spectrometry Data Center
1/CM	ABSORBANCE
550	0.0003796
562	0.0001606
574	4.38e-05
586	0.0001168
598	0.0001168
610	0.0002482
622	0.0002628
634	0.000292
646	0.0003358
658	0.0003796
670	0.000438
682	0.0003066
694	0.0002774
706	0.0002336
718	0.0002628
730	0.0002482
742	0.0002336
754	0.000365
766	0.0008614
778	0.0018834
790	0.0031244
802	0.0031682
814	0.0021608
826	0.0013724
838	0.0011242
850	0.0016206
862	0.0031974
874	0.0051392
886	0.0041902
898	0.0035478
910	0.004818
922	0.007519
934	0.0091688
946	0.007738
958	0.0062488
970	0.0063656
982	0.0093878
994	0.0156658
1006	0.0207466
1018	0.0173886
1030	0.009855
1042	0.0057524
1054	0.004161
1066	0.0042778
1078	0.005183
1090	0.0057378
1102	0.0051538
1114	0.0041172
1126	0.0031536
1138	0.0028032
1150	0.0030806
1162	0.0034894
1174	0.003869
1186	0.0049202
1198	0.0077964
1210	0.013724
1222	0.0236666
1234	0.0446176
1246	0.0979368
1258	0.146
1270	0.097309
1282	0.0430554
1294	0.0248346
1306	0.0148044
1318	0.0076212
1330	0.0047012
1342	0.0044092
1354	0.005767
1366	0.0109938
1378	0.016133
1390	0.0102054
1402	0.0071102
1414	0.0052706
1426	0.0043654
1438	0.004526
1450	0.0055626
1462	0.0060006
1474	0.0050808
1486	0.003139
1498	0.0017666
1510	0.0011826
1522	0.0010074
1534	0.000949
1546	0.0008614
1558	0.0009636
1570	0.0011534
1582	0.0012994
1594	0.0012848
1606	0.0011826
1618	0.0011972
1630	0.0013724
1642	0.0017374
1654	0.0017228
1666	0.0014016
1678	0.0013724
1690	0.0016498
1702	0.0022484
1714	0.003285
1726	0.0058254
1738	0.0135634
1750	0.0305432
1762	0.0432744
1774	0.0357554
1786	0.0203962
1798	0.0103076
1810	0.00365
1822	0.0020002
1834	0.0014892
1846	0.001241
1858	0.0011096
1870	0.000949
1882	0.0006716
1894	0.0004964
1906	0.0004088
1918	0.0003796
1930	0.000365
1942	0.0003942
1954	0.0004234
1966	0.0004526
1978	0.0004672
1990	0.0004526
2002	0.000365
2014	0.0002628
2026	0.0002482
2038	0.0002044
2050	0.0001898
2062	0.0002044
2074	0.0002336
2086	0.0002482
2098	0.0002482
2110	0.0003066
2122	0.000365
2134	0.0003504
2146	0.0003358
2158	0.0003212
2170	0.000365
2182	0.0003796
2194	0.0004234
2206	0.000438
2218	0.0003942
2230	0.0003066
2242	0.0002482
2254	0.0002336
2266	0.0002482
2278	0.000219
2290	0.0002482
2302	0.0002628
2314	0.0003358
2326	0.0003942
2338	0.0004088
2350	0.000438
2362	0.000511
2374	0.0004234
2386	0.000292
2398	0.0002336
2410	0.000219
2422	0.0001606
2434	0.0001606
2446	0.000146
2458	0.0001314
2470	0.0001606
2482	0.0001022
2494	0.0001022
2506	8.76e-05
2518	5.84e-05
2530	5.84e-05
2542	5.84e-05
2554	2.92e-05
2566	2.92e-05
2578	1.46e-05
2590	0
2602	4.38e-05
2614	4.38e-05
2626	4.38e-05
2638	7.3e-05
2650	4.38e-05
2662	5.84e-05
2674	4.38e-05
2686	8.76e-05
2698	0.0001022
2710	0.0001168
2722	0.000146
2734	0.0001752
2746	0.000146
2758	0.000146
2770	0.000219
2782	0.0002628
2794	0.0003066
2806	0.0003796
2818	0.0004672
2830	0.000511
2842	0.0006278
2854	0.000803
2866	0.0011388
2878	0.001752
2890	0.0023652
2902	0.002628
2914	0.0029638
2926	0.003504
2938	0.0052706
2950	0.006935
2962	0.0069058
2974	0.0075044
2986	0.0094316
2998	0.0085848
3010	0.0059276
3022	0.0040004
3034	0.002555
3046	0.0015038
3058	0.001168
3070	0.0012118
3082	0.0016352
3094	0.0020732
3106	0.0017666
3118	0.0008614
3130	0.0004964
3142	0.000365
3154	0.0003212
3166	0.0002628
3178	0.0001898
3190	0.0001314
3202	0.0001606
3214	0.0001168
3226	8.76e-05
3238	7.3e-05
3250	2.92e-05
3262	4.38e-05
3274	0.0001022
3286	4.38e-05
3298	1.46e-05
3310	2.92e-05
3322	2.92e-05
3334	0
3346	5.84e-05
3358	1.46e-05
3370	2.92e-05
3382	8.76e-05
3394	4.38e-05
3406	2.92e-05
3418	2.92e-05
3430	4.38e-05
3442	4.38e-05
3454	7.3e-05
3466	5.84e-05
3478	8.76e-05
3490	0.0002044
3502	0.0002774
3514	0.0003358
3526	0.0002336
3538	0.000146
3550	0.0001606
3562	0.0002044
3574	0.0001168
3586	5.84e-05
3598	4.38e-05
3610	4.38e-05
3622	5.84e-05
3634	2.92e-05
3646	1.46e-05
3658	2.92e-05
3670	2.92e-05
3682	5.84e-05
3694	7.3e-05
3706	1.46e-05
3718	4.38e-05
3730	2.92e-05
3742	7.3e-05
3754	8.76e-05
3766	7.3e-05
3778	0.0001022
3790	4.38e-05
3802	7.3e-05
3814	7.3e-05
3826	0.0001168
3838	0.0001168
