Infrared Spectrum: 1-(o-Hydroxyphenyl)-3-phenyl-1,3-propanedione
Formula: C 15 H 12 O 3
CAS: 1469-94-9
State: gas
Origin: EPA-IR VAPOR PHASE LIBRARY
1/CM	ABSORBANCE
549.8	0.001764
559.445	0.003724
569.09	0.004314
578.734	0.004254
588.379	0.005434
598.024	0.007634
607.669	0.013724
617.313	0.026994
626.958	0.015434
636.603	0.008084
646.248	0.006554
655.893	0.005524
665.537	0.007684
675.182	0.011714
684.827	0.017244
694.472	0.016524
704.116	0.013464
713.761	0.014244
723.406	0.016264
733.051	0.017104
742.695	0.027484
752.34	0.048564
761.985	0.030144
771.63	0.016554
781.275	0.008954
790.919	0.005504
800.564	0.004514
810.209	0.004854
819.854	0.005214
829.498	0.005354
839.143	0.006294
848.788	0.006324
858.433	0.005484
868.078	0.004604
877.722	0.004204
887.367	0.004894
897.012	0.005524
906.657	0.005574
916.301	0.005394
925.946	0.006444
935.591	0.006174
945.236	0.004504
954.88	0.004034
964.525	0.004344
974.17	0.005894
983.815	0.007794
993.46	0.009054
1003.1	0.010024
1012.75	0.011924
1022.39	0.018564
1032.04	0.017984
1041.68	0.023904
1051.33	0.010724
1060.97	0.005994
1070.62	0.004914
1080.26	0.006224
1089.91	0.007064
1099.55	0.006504
1109.2	0.006424
1118.84	0.008754
1128.49	0.010794
1138.13	0.014484
1147.78	0.025284
1157.42	0.045984
1167.07	0.024174
1176.71	0.022154
1186.36	0.031164
1196	0.048084
1205.64	0.045074
1215.29	0.030834
1224.93	0.027564
1234.58	0.035564
1244.22	0.049424
1253.87	0.045304
1263.51	0.041904
1273.16	0.042714
1282.8	0.043384
1292.45	0.055264
1302.09	0.070514
1311.74	0.054254
1321.38	0.043344
1331.03	0.040364
1340.67	0.030094
1350.32	0.023934
1359.96	0.019804
1369.61	0.016724
1379.25	0.015984
1388.9	0.016354
1398.54	0.017694
1408.18	0.019764
1417.83	0.020894
1427.47	0.020644
1437.12	0.022604
1446.76	0.031214
1456.41	0.033114
1466.05	0.029324
1475.7	0.041384
1485.34	0.067254
1494.99	0.051574
1504.63	0.031364
1514.28	0.022404
1523.92	0.022944
1533.57	0.026544
1543.21	0.033564
1552.86	0.046294
1562.5	0.067704
1572.15	0.099714
1581.79	0.097234
1591.44	0.066184
1601.08	0.073644
1610.73	0.097464
1620.37	0.095124
1630.01	0.065494
1639.66	0.055434
1649.3	0.050764
1658.95	0.036304
1668.59	0.023134
1678.24	0.016764
1687.88	0.017484
1697.53	0.023064
1707.17	0.025634
1716.82	0.016274
1726.46	0.008334
1736.11	0.005454
1745.75	0.004614
1755.4	0.004334
1765.04	0.003914
1774.69	0.003694
1784.33	0.003884
1793.98	0.004674
1803.62	0.004534
1813.27	0.003714
1822.91	0.003344
1832.55	0.003204
1842.2	0.002864
1851.84	0.002464
1861.49	0.002394
1871.13	0.002504
1880.78	0.002634
1890.42	0.002624
1900.07	0.002644
1909.71	0.002894
1919.36	0.002474
1929	0.002234
1938.65	0.002764
1948.29	0.003154
1957.94	0.002554
1967.58	0.002344
1977.23	0.001814
1986.87	0.001654
1996.52	0.001574
2006.16	0.001614
2015.81	0.001664
2025.45	0.001474
2035.1	0.001484
2044.74	0.001614
2054.38	0.001654
2064.03	0.001694
2073.67	0.001624
2083.32	0.001644
2092.96	0.001494
2102.61	0.001364
2112.25	0.001344
2121.9	0.001254
2131.54	0.001374
2141.19	0.001494
2150.83	0.001344
2160.48	0.001354
2170.12	0.001484
2179.77	0.001414
2189.41	0.001394
2199.06	0.001344
2208.7	0.001394
2218.35	0.001514
2227.99	0.001524
2237.64	0.001374
2247.28	0.001504
2256.92	0.001514
2266.57	0.001574
2276.21	0.001624
2285.86	0.001714
2295.5	0.001714
2305.15	0.001614
2314.79	0.001694
2324.44	0.001944
2334.08	0.001764
2343.73	0.002014
2353.37	0.001924
2363.02	0.001764
2372.66	0.001714
2382.31	0.001764
2391.95	0.001704
2401.6	0.001764
2411.24	0.001784
2420.89	0.001724
2430.53	0.001754
2440.18	0.001804
2449.82	0.001964
2459.47	0.002004
2469.11	0.002014
2478.75	0.002124
2488.4	0.002114
2498.04	0.002244
2507.69	0.002334
2517.33	0.002254
2526.98	0.002334
2536.62	0.002494
2546.27	0.002414
2555.91	0.002584
2565.56	0.002534
2575.2	0.002684
2584.85	0.002714
2594.49	0.002964
2604.14	0.002964
2613.78	0.003124
2623.43	0.003134
2633.07	0.003204
2642.72	0.003114
2652.36	0.003034
2662.01	0.003004
2671.65	0.002884
2681.29	0.003234
2690.94	0.003274
2700.58	0.003354
2710.23	0.003334
2719.87	0.003344
2729.52	0.003334
2739.16	0.003584
2748.81	0.003544
2758.45	0.003494
2768.1	0.003334
2777.74	0.003414
2787.39	0.003304
2797.03	0.003424
2806.68	0.003494
2816.32	0.003624
2825.97	0.003634
2835.61	0.003684
2845.26	0.003554
2854.9	0.003644
2864.55	0.003594
2874.19	0.003674
2883.84	0.003664
2893.48	0.003584
2903.12	0.003724
2912.77	0.003824
2922.41	0.004064
2932.06	0.003984
2941.7	0.003974
2951.35	0.003994
2960.99	0.004054
2970.64	0.004054
2980.28	0.004504
2989.93	0.004654
2999.57	0.005164
3009.22	0.005644
3018.86	0.006674
3028.51	0.008364
3038.15	0.010674
3047.8	0.012604
3057.44	0.015284
3067.09	0.020614
3076.73	0.020814
3086.38	0.016444
3096.02	0.014294
3105.67	0.011234
3115.31	0.009744
3124.95	0.008584
3134.6	0.008134
3144.24	0.007974
3153.89	0.007954
3163.53	0.007854
3173.18	0.008024
3182.82	0.007774
3192.47	0.007664
3202.11	0.007604
3211.76	0.007084
3221.4	0.007224
3231.05	0.007214
3240.69	0.007084
3250.34	0.007074
3259.98	0.006954
3269.63	0.006614
3279.27	0.006494
3288.92	0.006424
3298.56	0.006304
3308.21	0.005884
3317.85	0.005794
3327.49	0.005304
3337.14	0.005364
3346.78	0.005284
3356.43	0.004924
3366.07	0.004794
3375.72	0.004504
3385.36	0.004394
3395.01	0.004264
3404.65	0.003944
3414.3	0.003664
3423.94	0.003464
3433.59	0.003274
3443.23	0.003354
3452.88	0.002814
3462.52	0.002774
3472.17	0.002594
3481.81	0.002314
3491.46	0.002134
3501.1	0.002194
3510.75	0.001874
3520.39	0.001794
3530.04	0.001634
3539.68	0.001524
3549.32	0.001354
3558.97	0.001324
3568.61	0.001214
3578.26	0.001284
3587.9	0.0009223
3597.55	0.001164
3607.19	0.000849
3616.84	0.0009507
3626.48	0.000743
3636.13	0.0005971
3645.77	0.0005843
3655.42	0.0005663
3665.06	0.0003929
3674.71	0.000445
3684.35	0.0003687
3694	0.0006009
3703.64	0.0004037
3713.29	0.0003614
3722.93	0.0004299
3732.58	0.000274
3742.22	0.0002986
3751.86	0.0006337
3761.51	0.0003031
3771.15	0.00019156
3780.8	0.0002948
3790.44	0.0004783
3800.09	0.000133095
3809.73	0.0003919
3819.38	0.00017379
3829.02	7.88e-05
3838.67	0.00019969
3848.31	0.0003591
3857.96	0
3867.6	0.0002458
3877.25	0.00018047
3886.89	0.000346
3896.54	0.0003136
3906.18	0.0004385
3915.83	0.0003639
3925.47	0.0005731
3935.12	0.0003482
3944.76	0.0002977
3954.41	0.0004583
3964.05	0.0004094
3973.69	0.0002582
3983.34	0.0003306
3992.98	0.0002874
