Infrared Spectrum: Arbutin pentaacetate
Formula: C22 H26 O12
CAS: 14698-56-7
State: SOLID (SPLIT MULL), FLUOROLUBE FOR 3800-1330 CM^-^1, NUJOL FOR 1330-400 CM^-^1
Class: COBLENTZ III
Instrument: BECKMAN IR-9 (GRATING)
Instrument parameters: ORDER CHANGES: 670, 1200, 2000 CM^-^1
Sampling: TRANSMISSION
Resolution: 2
Origin: DOW CHEMICAL COMPANY
1/CM	TRANSMITTANCE
3798	0.8664
3789	0.8671
3780	0.8678
3771	0.8682
3762	0.8686
3753	0.8689
3744	0.8689
3735	0.8689
3726	0.8689
3717	0.869
3708	0.8691
3699	0.8694
3690	0.8698
3681	0.8702
3672	0.8701
3663	0.8697
3654	0.8694
3645	0.8691
3636	0.8688
3627	0.8685
3618	0.8682
3609	0.8678
3600	0.8675
3591	0.8673
3582	0.867
3573	0.8666
3564	0.8662
3555	0.8658
3546	0.8654
3537	0.8648
3528	0.864
3519	0.863
3510	0.8613
3501	0.8578
3492	0.8525
3483	0.849
3474	0.8514
3465	0.8535
3456	0.8557
3447	0.8578
3438	0.8587
3429	0.8594
3420	0.8601
3411	0.8607
3402	0.8615
3393	0.8621
3384	0.863
3375	0.8637
3366	0.8646
3357	0.8655
3348	0.8663
3339	0.8671
3330	0.868
3321	0.8689
3312	0.8694
3303	0.8698
3294	0.8703
3285	0.8707
3276	0.8712
3267	0.8716
3258	0.8721
3249	0.8725
3240	0.8733
3231	0.874
3222	0.8747
3213	0.8754
3204	0.8761
3195	0.8768
3186	0.8778
3177	0.8786
3168	0.8795
3159	0.8803
3150	0.8809
3141	0.8815
3132	0.8821
3123	0.8825
3114	0.8824
3105	0.8821
3096	0.8802
3087	0.8745
3078	0.8687
3069	0.8707
3060	0.873
3051	0.8738
3042	0.87
3033	0.8668
3024	0.8664
3015	0.863
3006	0.8553
2997	0.856
2988	0.8578
2979	0.8383
2970	0.8204
2961	0.841
2952	0.856
2943	0.8567
2934	0.8582
2925	0.8598
2916	0.8621
2907	0.8645
2898	0.8668
2889	0.8689
2880	0.8708
2871	0.8727
2862	0.8745
2853	0.8762
2844	0.878
2835	0.8797
2826	0.8812
2817	0.8818
2808	0.8825
2799	0.8833
2790	0.8838
2781	0.8842
2772	0.8846
2763	0.885
2754	0.8855
2745	0.8861
2736	0.8868
2727	0.8875
2718	0.8883
2709	0.8889
2700	0.8897
2691	0.8904
2682	0.8911
2673	0.8918
2664	0.8925
2655	0.8932
2646	0.8936
2637	0.8939
2628	0.8943
2619	0.8945
2610	0.8945
2601	0.8944
2592	0.8945
2583	0.894
2574	0.8937
2565	0.8934
2556	0.8923
2547	0.8909
2538	0.8895
2529	0.888
2520	0.8866
2511	0.8845
2502	0.8825
2493	0.8805
2484	0.8789
2475	0.8774
2466	0.876
2457	0.8746
2448	0.8735
2439	0.8724
2430	0.8718
2421	0.8715
2412	0.8717
2403	0.8721
2394	0.8725
2385	0.8724
2376	0.8714
2367	0.8698
2358	0.8678
2349	0.8657
2340	0.8636
2331	0.8613
2322	0.8591
2313	0.8568
2304	0.8548
2295	0.8541
2286	0.8546
2277	0.8553
2268	0.8568
2259	0.8588
2250	0.8618
2241	0.8657
2232	0.8706
2223	0.8753
2214	0.8797
2205	0.8806
2196	0.8814
2187	0.8818
2178	0.8825
2169	0.8828
2160	0.883
2151	0.8828
2142	0.8825
2133	0.8815
2124	0.8799
2115	0.8783
2106	0.8789
2097	0.8802
2088	0.8828
2079	0.8853
2070	0.8875
2061	0.8894
2052	0.8909
2043	0.8918
2034	0.8925
2025	0.8928
2016	0.8931
2007	0.8925
1998	0.8701
1989	0.8934
1980	0.8957
1971	0.8967
1962	0.8977
1953	0.8987
1944	0.8998
1935	0.8998
1926	0.8982
1917	0.8967
1908	0.8917
1899	0.8892
1890	0.8908
1881	0.891
1872	0.8903
1863	0.8886
1854	0.8848
1845	0.881
1836	0.8762
1827	0.8668
1818	0.8521
1809	0.8282
1800	0.8212
1791	0.808
1782	0.7736
1773	0.6428
1764	0.3123
1755	0.0958
1746	0.1096
1737	0.2692
1728	0.6166
1719	0.6984
1710	0.7512
1701	0.7874
1692	0.811
1683	0.8263
1674	0.8356
1665	0.8368
1656	0.8375
1647	0.8404
1638	0.8532
1629	0.8701
1620	0.8607
1611	0.8412
1602	0.8363
1593	0.8444
1584	0.8628
1575	0.8646
1566	0.8615
1557	0.8604
1548	0.8588
1539	0.8531
1530	0.845
1521	0.8352
1512	0.8006
1503	0.3882
1494	0.7646
1485	0.8139
1476	0.8207
1467	0.7953
1458	0.7941
1449	0.7491
1440	0.7272
1431	0.6811
1422	0.7328
1413	0.751
1404	0.7632
1395	0.6678
1386	0.6096
1377	0.4708
1368	0.5
1359	0.7381
1350	0.7936
1341	0.7833
1332	0.7728
1323	0.7776
1314	0.7732
1305	0.7555
1296	0.7245
1287	0.6961
1278	0.6035
1269	0.5171
1260	0.2994
1251	0.3854
1242	0.1781
1233	0.0492
1224	0.0667
1215	0.2752
1206	0.4891
1197	0.4986
1188	0.3
1179	0.3629
1170	0.6606
1161	0.7562
1152	0.7811
1143	0.7726
1134	0.6654
1125	0.7447
1116	0.7625
1107	0.6889
1098	0.7153
1089	0.7219
1080	0.6421
1071	0.5135
1062	0.4255
1053	0.3259
1044	0.1391
1035	0.3209
1026	0.6109
1017	0.6434
1008	0.719
999	0.8054
990	0.7901
981	0.8068
972	0.8041
963	0.8086
954	0.8458
945	0.7703
936	0.8446
927	0.8157
918	0.786
909	0.6868
900	0.6474
891	0.8273
882	0.855
873	0.8533
864	0.7975
855	0.8218
846	0.8491
837	0.8355
828	0.8314
819	0.84
810	0.8873
801	0.8874
792	0.845
783	0.8718
774	0.8797
765	0.8805
756	0.8746
747	0.8673
738	0.8578
729	0.8457
720	0.8323
711	0.8511
702	0.852
693	0.8546
684	0.8377
675	0.8447
666	0.8474
657	0.83
648	0.8378
639	0.8217
630	0.8398
621	0.8168
612	0.8088
603	0.7901
594	0.7088
585	0.8257
576	0.8133
567	0.8278
558	0.7886
549	0.8346
540	0.7856
531	0.8212
522	0.7961
513	0.81
504	0.7424
495	0.7678
486	0.7551
477	0.7699
468	0.756
459	0.7262
450	0.7161
441	0.6765
432	0.641
423	0.6005
414	0.5731
405	0.5332
396	0.5318
