Infrared Spectrum: 4-Acetamido-2,2,6,6-tetramethylpiperidino-1-
Formula: C 11 H 21 N 2 O 2
CAS: 14691-89-5
State: gas
Instrument: HP-GC/MS/IRD
Origin: NIST Mass Spectrometry Data Center
1/CM	ABSORBANCE
550	0.0003672
562	0.0002988
574	0.0001665
586	0.0001269
598	9.63e-05
610	0.0001107
622	7.92e-05
634	5.58e-05
646	7.2e-06
658	7.2e-06
670	3.78e-05
682	8.01e-05
694	0.0001575
706	8.01e-05
718	4.32e-05
730	8.46e-05
742	0.0001485
754	0.0001026
766	5.31e-05
778	0.0001071
790	0.0001908
802	0.0001962
814	0.0002754
826	0.000333
838	0.0002925
850	0.0002025
862	0.0002151
874	0.0002844
886	0.0002574
898	0.0002466
910	0.000144
922	0.0001656
934	0.000153
946	0.0002016
958	0.0002673
970	0.0004059
982	0.0004527
994	0.0003933
1006	0.0002637
1018	0.0002223
1030	0.0002097
1042	0.0002898
1054	0.0002016
1066	0.0002385
1078	0.0004392
1090	0.0007209
1102	0.0006183
1114	0.0004284
1126	0.0004014
1138	0.0002745
1150	0.0003879
1162	0.0006831
1174	0.0014328
1186	0.0014688
1198	0.0010467
1210	0.0015129
1222	0.0032517
1234	0.0040896
1246	0.002574
1258	0.0012906
1270	0.0009387
1282	0.0011979
1294	0.0022131
1306	0.0032589
1318	0.0018378
1330	0.0009225
1342	0.0008739
1354	0.0017829
1366	0.0035379
1378	0.0027027
1390	0.0016146
1402	0.0009432
1414	0.0008982
1426	0.0011808
1438	0.0016965
1450	0.0024372
1462	0.0036045
1474	0.0048294
1486	0.0068346
1498	0.006309
1510	0.0030978
1522	0.0014832
1534	0.0008208
1546	0.0005715
1558	0.0004527
1570	0.0003771
1582	0.0003402
1594	0.0002925
1606	0.0002484
1618	0.0002457
1630	0.0002736
1642	0.0003195
1654	0.0004059
1666	0.0005454
1678	0.0008883
1690	0.0015912
1702	0.0041841
1714	0.009
1726	0.0041508
1738	0.0013986
1750	0.0006921
1762	0.0003762
1774	0.00027
1786	0.0002403
1798	0.0001449
1810	0.0001134
1822	6.12e-05
1834	5.85e-05
1846	4.23e-05
1858	6.93e-05
1870	4.14e-05
1882	5.13e-05
1894	2.52e-05
1906	5.67e-05
1918	4.95e-05
1930	4.41e-05
1942	5.31e-05
1954	5.22e-05
1966	2.97e-05
1978	5.67e-05
1990	2.52e-05
2002	5.49e-05
2014	2.16e-05
2026	4.05e-05
2038	4.77e-05
2050	3.42e-05
2062	3.42e-05
2074	3.06e-05
2086	4.5e-05
2098	3.06e-05
2110	3.78e-05
2122	2.61e-05
2134	3.69e-05
2146	5.31e-05
2158	1.89e-05
2170	2.61e-05
2182	3.42e-05
2194	4.86e-05
2206	1.89e-05
2218	5.22e-05
2230	3.51e-05
2242	2.61e-05
2254	5.13e-05
2266	3.6e-05
2278	5.31e-05
2290	3.87e-05
2302	5.76e-05
2314	4.05e-05
2326	5.04e-05
2338	4.14e-05
2350	3.96e-05
2362	7.02e-05
2374	6.12e-05
2386	5.58e-05
2398	4.5e-05
2410	4.77e-05
2422	4.41e-05
2434	6.03e-05
2446	6.39e-05
2458	2.97e-05
2470	3.33e-05
2482	1.71e-05
2494	6.3e-06
2506	3.51e-05
2518	3.24e-05
2530	4.14e-05
2542	6.3e-05
2554	4.5e-05
2566	6.12e-05
2578	2.7e-05
2590	5.58e-05
2602	6.39e-05
2614	7.92e-05
2626	5.94e-05
2638	5.85e-05
2650	9.9e-05
2662	0.0001053
2674	0.0001008
2686	0.0001116
2698	0.0001242
2710	0.0001278
2722	0.0001431
2734	0.0001341
2746	0.0001305
2758	0.0001161
2770	0.0001485
2782	0.0001674
2794	0.0001719
2806	0.0001962
2818	0.0002565
2830	0.0002556
2842	0.0003627
2854	0.0007542
2866	0.0011799
2878	0.001188
2890	0.0012609
2902	0.0016416
2914	0.0019098
2926	0.0025938
2938	0.0035172
2950	0.0034533
2962	0.0025047
2974	0.0038961
2986	0.0036963
2998	0.0027171
3010	0.0015363
3022	0.0005319
3034	0.000306
3046	0.0002781
3058	0.0002304
3070	0.0001836
3082	0.0001638
3094	0.0001368
3106	0.0001215
3118	0.0001485
3130	0.0001404
3142	9.45e-05
3154	0.0001098
3166	0.0001584
3178	8.28e-05
3190	9.9e-05
3202	0.0001503
3214	9.99e-05
3226	0.0001017
3238	5.49e-05
3250	3.42e-05
3262	0.0001071
3274	5.76e-05
3286	8.82e-05
3298	1.89e-05
3310	5.58e-05
3322	6.93e-05
3334	4.59e-05
3346	8.55e-05
3358	7.02e-05
3370	9.81e-05
3382	9.99e-05
3394	0.0001107
3406	0.0002142
3418	0.0002142
3430	0.0002709
3442	0.0003762
3454	0.0004545
3466	0.0003888
3478	0.0002268
3490	0.0001656
3502	0.0001161
3514	6.39e-05
3526	4.95e-05
3538	5.85e-05
3550	8.64e-05
3562	3.42e-05
3574	5.31e-05
3586	5.85e-05
3598	9.81e-05
3610	3.24e-05
3622	0.0001224
3634	8.19e-05
3646	4.5e-05
3658	5.58e-05
3670	2.97e-05
3682	6.39e-05
3694	6.66e-05
3706	9.63e-05
3718	7.29e-05
3730	7.47e-05
3742	4.41e-05
3754	2.79e-05
3766	9.27e-05
3778	0.0001188
3790	0.0001413
3802	8.1e-05
3814	7.92e-05
3826	0.0001161
3838	0.0001188
