Infrared Spectrum: BENZOPHENONE, 2,4,4'-TRIHYDROXY-
Formula: C13 H10 O4
CAS: 1470-79-7
State: SOLID (OIL MULL)
Class: COBLENTZ
Instrument: Not specified, most likely a prism, grating, or hybrid spectrometer.
Sampling: TRANSMISSION
Resolution: 4
Origin: TENNESSEE EASTMAN COMPANY, RESEARCH LABORATORIES
MICROMETERS	TRANSMITTANCE
2.014	0.309
2.05503	0.319
2.09606	0.331
2.13709	0.341
2.17812	0.355
2.21915	0.36
2.26018	0.362
2.30121	0.365
2.34224	0.378
2.38326	0.396
2.42429	0.402
2.46532	0.412
2.50635	0.436
2.54738	0.45
2.58841	0.458
2.62944	0.462
2.67047	0.484
2.7115	0.517
2.75253	0.532
2.79356	0.537
2.83459	0.503
2.87562	0.403
2.91665	0.324
2.95768	0.216
2.99871	0.192
3.03974	0.221
3.08077	0.225
3.12179	0.266
3.16282	0.293
3.20385	0.317
3.24488	0.329
3.28591	0.328
3.32694	0.226
3.36797	0.03
3.409	0.027
3.45003	0.063
3.49106	0.106
3.53209	0.4
3.57312	0.453
3.61415	0.474
3.65518	0.472
3.69621	0.472
3.73724	0.47
3.77827	0.475
3.8193	0.503
3.86032	0.508
3.90135	0.517
3.94238	0.544
3.98341	0.553
4.02444	0.568
4.06547	0.582
4.1065	0.594
4.14753	0.599
4.18856	0.62
4.22959	0.632
4.27062	0.632
4.31165	0.632
4.35268	0.658
4.39371	0.675
4.43474	0.685
4.47577	0.699
4.5168	0.701
4.55783	0.711
4.59885	0.723
4.63988	0.735
4.68091	0.74
4.72194	0.743
4.76297	0.752
4.804	0.768
4.84503	0.776
4.88606	0.776
4.92709	0.781
4.96812	0.786
5.00915	0.795
5.05018	0.8
5.09121	0.807
5.13224	0.812
5.17327	0.812
5.2143	0.821
5.25533	0.836
5.29636	0.848
5.33738	0.852
5.37841	0.86
5.41944	0.867
5.46047	0.879
5.5015	0.89
5.54253	0.891
5.58356	0.898
5.62459	0.902
5.66562	0.91
5.70665	0.914
5.74768	0.92
5.78871	0.929
5.82974	0.929
5.87077	0.929
5.9118	0.912
5.95283	0.867
5.99386	0.797
6.03488	0.671
6.07591	0.353
6.11694	0.295
6.15797	0.328
6.199	0.218
6.24003	0.194
6.28106	0.19
6.32209	0.352
6.36312	0.362
6.40415	0.336
6.44518	0.41
6.48621	0.508
6.52724	0.438
6.56827	0.271
6.6093	0.271
6.65033	0.326
6.69136	0.439
6.73239	0.446
6.77341	0.249
6.81444	0.207
6.85547	0.219
6.8965	0.278
6.93753	0.422
6.97856	0.584
7.01959	0.663
7.06062	0.699
7.10165	0.694
7.14268	0.579
7.18371	0.434
7.22474	0.293
7.26577	0.242
7.3068	0.202
7.34783	0.23
7.38886	0.273
7.42989	0.269
7.47092	0.285
7.51194	0.335
7.55297	0.281
7.594	0.345
7.63503	0.364
7.67606	0.329
7.71709	0.201
7.75812	0.19
7.79915	0.219
7.84018	0.278
7.88121	0.34
7.92224	0.367
7.96327	0.36
8.0043	0.274
8.04533	0.23
8.08636	0.23
8.12739	0.221
8.16842	0.204
8.20945	0.204
8.25047	0.228
8.2915	0.345
8.33253	0.388
8.37356	0.402
8.41459	0.429
8.45562	0.36
8.49665	0.298
8.53768	0.257
8.57871	0.317
8.61974	0.3
8.66077	0.42
8.7018	0.489
8.74283	0.544
8.78386	0.567
8.82489	0.517
8.86592	0.388
8.90695	0.419
8.94797	0.419
8.989	0.427
9.03003	0.493
9.07106	0.548
9.11209	0.572
9.15312	0.596
9.19415	0.616
9.23518	0.628
9.27621	0.634
9.31724	0.644
9.35827	0.651
9.3993	0.661
9.44033	0.666
9.48136	0.675
9.52239	0.685
9.56342	0.69
9.60445	0.699
9.64548	0.702
9.6865	0.709
9.72753	0.714
9.76856	0.721
9.80959	0.731
9.85062	0.731
9.89165	0.735
9.93268	0.742
9.97371	0.752
10.0147	0.759
10.0558	0.759
10.0968	0.721
10.1378	0.621
10.1789	0.627
10.2199	0.651
10.2609	0.671
10.3019	0.699
10.343	0.707
10.384	0.685
10.425	0.68
10.4661	0.719
10.5071	0.731
10.5481	0.735
10.5892	0.742
10.6302	0.757
10.6712	0.769
10.7122	0.771
10.7533	0.713
10.7943	0.472
10.8353	0.522
10.8764	0.652
10.9174	0.702
10.9584	0.73
10.9994	0.75
11.0405	0.764
11.0815	0.776
11.1225	0.778
11.1636	0.78
11.2046	0.781
11.2456	0.783
11.2867	0.786
11.3277	0.786
11.3687	0.786
11.4097	0.788
11.4508	0.786
11.4918	0.781
11.5328	0.74
11.5739	0.671
11.6149	0.689
11.6559	0.689
11.6969	0.634
11.738	0.577
11.779	0.529
11.82	0.47
11.8611	0.415
11.9021	0.4
11.9431	0.486
11.9842	0.548
12.0252	0.575
12.0662	0.575
12.1072	0.572
12.1483	0.573
12.1893	0.587
12.2303	0.606
12.2714	0.627
12.3124	0.625
12.3534	0.591
12.3944	0.579
12.4355	0.58
12.4765	0.587
12.5175	0.597
12.5586	0.601
12.5996	0.603
12.6406	0.604
12.6817	0.604
12.7227	0.599
12.7637	0.587
12.8047	0.577
12.8458	0.577
12.8868	0.577
12.9278	0.577
12.9689	0.579
13.0099	0.599
13.0509	0.649
13.0919	0.689
13.133	0.713
13.174	0.721
13.215	0.723
13.2561	0.704
13.2971	0.692
13.3381	0.701
13.3792	0.719
13.4202	0.723
13.4612	0.725
13.5022	0.725
13.5433	0.725
13.5843	0.718
13.6253	0.69
13.6664	0.652
13.7074	0.637
13.7484	0.644
13.7894	0.661
13.8305	0.675
13.8715	0.692
13.9125	0.699
13.9536	0.699
13.9946	0.702
14.0356	0.702
14.0767	0.701
14.1177	0.701
14.1587	0.699
14.1997	0.697
14.2408	0.692
14.2818	0.689
14.3228	0.678
14.3639	0.666
14.4049	0.644
14.4459	0.618
14.4869	0.579
14.528	0.546
14.569	0.518
14.61	0.513
14.6511	0.518
14.6921	0.549
14.7331	0.563
14.7742	0.567
14.8152	0.558
14.8562	0.541
14.8972	0.532
14.9383	0.532
14.9793	0.551
15.0203	0.584
15.0614	0.587
15.1024	0.587
15.1434	0.585
15.1844	0.584
15.2255	0.58
15.2665	0.57
15.3075	0.561
15.3486	0.554
15.3896	0.553
15.4306	0.551
15.4717	0.553
15.5127	0.551
15.5537	0.553
15.5947	0.553
15.6358	0.551
15.6768	0.548
15.7178	0.548
15.7589	0.544
15.7999	0.542
15.8409	0.541
15.8819	0.539
15.923	0.537
15.964	0.536
