Infrared Spectrum: ETHYLPHOSPHONOSELENOIC DICHLORIDE
Formula: C2 H5 Cl2 P Se
CAS: 14705-46-5
State: LIQUID
Class: COBLENTZ
Instrument: Not specified, most likely a prism, grating, or hybrid spectrometer.
Sampling: TRANSMISSION
Path length: LIQUID FILM BETWEEN KBr PLATES
Resolution: 4
Origin: G. A. M. S.
1/CM	TRANSMITTANCE
599.706	0.646
608.893	0.654
618.081	0.662
627.268	0.675
636.455	0.692
645.642	0.717
654.83	0.753
664.017	0.768
673.204	0.763
682.392	0.745
691.579	0.5769
700.766	0.447
709.954	0.225
719.141	0.6548
728.328	0.716
737.515	0.577
746.703	0.489
755.89	0.174
765.077	0.3698
774.265	0.78
783.452	0.837
792.639	0.873
801.827	0.89
811.014	0.904
820.201	0.905
829.388	0.908
838.576	0.905
847.763	0.905
856.95	0.905
866.138	0.902
875.325	0.898
884.512	0.888
893.7	0.87
902.887	0.861
912.074	0.864
921.261	0.867
930.449	0.871
939.636	0.87
948.823	0.864
958.011	0.856
967.198	0.841
976.385	0.825
985.573	0.833
994.76	0.811
1003.95	0.6691
1013.13	0.625
1022.32	0.745
1031.51	0.458
1040.7	0.523
1049.88	0.831
1059.07	0.875
1068.26	0.891
1077.45	0.899
1086.63	0.901
1095.82	0.898
1105.01	0.896
1114.19	0.896
1123.38	0.898
1132.57	0.901
1141.76	0.901
1150.94	0.901
1160.13	0.898
1169.32	0.895
1178.51	0.89
1187.69	0.884
1196.88	0.879
1206.07	0.873
1215.26	0.853
1224.44	0.804
1233.63	0.8
1242.82	0.814
1252	0.762
1261.19	0.819
1270.38	0.864
1279.57	0.87
1288.75	0.87
1297.94	0.89
1307.13	0.908
1316.32	0.912
1325.5	0.91
1334.69	0.907
1343.88	0.904
1353.06	0.899
1362.25	0.891
1371.44	0.845
1380.63	0.621
1389.81	0.663
1399	0.655
1408.19	0.802
1417.38	0.848
1426.56	0.842
1435.75	0.831
1444.94	0.757
1454.12	0.472
1463.31	0.631
1472.5	0.793
1481.69	0.867
1490.87	0.893
1500.06	0.898
1509.25	0.899
1518.44	0.904
1527.62	0.902
1536.81	0.89
1546	0.885
1555.19	0.905
1564.37	0.907
1573.56	0.907
1582.75	0.904
1591.93	0.904
1601.12	0.902
1610.31	0.899
1619.5	0.896
1628.68	0.895
1637.87	0.893
1647.06	0.895
1656.25	0.896
1665.43	0.896
1674.62	0.898
1683.81	0.899
1692.99	0.902
1702.18	0.905
1711.37	0.907
1720.56	0.91
1729.74	0.91
1738.93	0.907
1748.12	0.908
1757.31	0.908
1766.49	0.91
1775.68	0.913
1784.87	0.913
1794.05	0.915
1803.24	0.915
1812.43	0.915
1821.62	0.915
1830.8	0.915
1839.99	0.916
1849.18	0.918
1858.37	0.918
1867.55	0.918
1876.74	0.918
1885.93	0.918
1895.12	0.918
1904.3	0.919
1913.49	0.921
1922.68	0.918
1931.86	0.916
1941.05	0.912
1950.24	0.908
1959.43	0.912
1968.61	0.918
1977.8	0.921
1986.99	0.922
1996.18	0.921
2005.36	0.921
2014.55	0.921
2023.74	0.921
2032.92	0.921
2042.11	0.919
2051.3	0.918
2060.49	0.9164
2069.67	0.916
2078.86	0.915
2088.05	0.913
2097.24	0.9122
2106.42	0.912
2115.61	0.9104
2124.8	0.91
2133.98	0.91
2143.17	0.91
2152.36	0.9116
2161.55	0.91
2170.73	0.91
2179.92	0.908
2189.11	0.9072
2198.3	0.9078
2207.48	0.908
2216.67	0.907
2225.86	0.908
2235.05	0.908
2244.23	0.908
2253.42	0.908
2262.61	0.91
2271.79	0.91
2280.98	0.91
2290.17	0.908
2299.36	0.907
2308.54	0.902
2317.73	0.8981
2326.92	0.893
2336.11	0.8882
2345.29	0.885
2354.48	0.884
2363.67	0.885
2372.85	0.8879
2382.04	0.8909
2391.23	0.893
2400.42	0.8959
2409.6	0.8979
2418.79	0.898
2427.98	0.899
2437.17	0.901
2446.35	0.901
2455.54	0.901
2464.73	0.901
2473.91	0.901
2483.1	0.901
2492.29	0.901
2501.48	0.901
2510.66	0.901
2519.85	0.899
2529.04	0.899
2538.23	0.898
2547.41	0.898
2556.6	0.898
2565.79	0.896
2574.98	0.896
2584.16	0.896
2593.35	0.896
2602.54	0.896
2611.72	0.896
2620.91	0.896
2630.1	0.896
2639.29	0.895
2648.47	0.895
2657.66	0.895
2666.85	0.895
2676.04	0.893
2685.22	0.893
2694.41	0.891
2703.6	0.891
2712.78	0.89
2721.97	0.888
2731.16	0.887
2740.35	0.8868
2749.53	0.8849
2758.72	0.8838
2767.91	0.882
2777.1	0.882
2786.28	0.882
2795.47	0.881
2804.66	0.8778
2813.85	0.875
2823.03	0.8698
2832.22	0.8649
2841.41	0.8586
2850.59	0.8509
2859.78	0.8403
2868.97	0.8213
2878.16	0.803
2887.34	0.7794
2896.53	0.7589
2905.72	0.7194
2914.91	0.6967
2924.09	0.6936
2933.28	0.6853
2942.47	0.6787
2951.65	0.6826
2960.84	0.7191
2970.03	0.7409
2979.22	0.752
2988.4	0.7238
2997.59	0.6982
3006.78	0.696
3015.97	0.7535
3025.15	0.8206
3034.34	0.8547
3043.53	0.8687
3052.71	0.8765
3061.9	0.8842
3071.09	0.8885
3080.28	0.8935
3089.46	0.896
3098.65	0.899
3107.84	0.8995
3117.03	0.9013
3126.21	0.902
3135.4	0.904
3144.59	0.904
3153.78	0.904
3162.96	0.904
3172.15	0.904
3181.34	0.905
3190.52	0.905
3199.71	0.905
3208.9	0.905
3218.09	0.905
3227.27	0.905
3236.46	0.907
3245.65	0.907
3254.84	0.907
3264.02	0.907
3273.21	0.9063
3282.4	0.907
3291.58	0.907
3300.77	0.907
3309.96	0.907
3319.15	0.907
3328.33	0.907
3337.52	0.9074
3346.71	0.907
3355.9	0.9061
3365.08	0.907
3374.27	0.907
3383.46	0.9058
3392.64	0.9074
3401.83	0.905
3411.02	0.905
3420.21	0.905
3429.39	0.905
3438.58	0.905
3447.77	0.905
3456.96	0.905
3466.14	0.905
3475.33	0.905
3484.52	0.905
3493.71	0.905
3502.89	0.905
3512.08	0.905
3521.27	0.904
3530.45	0.904
3539.64	0.904
3548.83	0.904
3558.02	0.904
3567.2	0.904
3576.39	0.904
3585.58	0.904
3594.77	0.904
3603.95	0.905
3613.14	0.905
3622.33	0.905
3631.51	0.905
3640.7	0.905
3649.89	0.905
3659.08	0.906
3668.26	0.905
3677.45	0.907
3686.64	0.905
3695.83	0.905
3705.01	0.907
3714.2	0.908
3723.39	0.91
3732.57	0.9111
3741.76	0.912
3750.95	0.9089
3760.14	0.9059
3769.32	0.902
3778.51	0.8999
3787.7	0.898
3796.89	0.899
3806.07	0.9032
3815.26	0.9076
3824.45	0.9126
3833.64	0.9142
3842.82	0.915
3852.01	0.9124
3861.2	0.91
3870.38	0.907
3879.57	0.905
3888.76	0.9028
3897.95	0.9014
3907.13	0.8984
3916.32	0.896
3925.51	0.8937
3934.7	0.893
3943.88	0.8956
3953.07	0.896
3962.26	0.898
3971.44	0.898
3980.63	0.899
