Infrared Spectrum: Allypropyl ether
Formula: C 6 H 12 O
CAS: 1471-03-0
State: gas
Instrument: HP-GC/MS/IRD
Origin: NIST Mass Spectrometry Data Center
1/CM	ABSORBANCE
550	0.000602
562	0.0001428
574	2.8e-05
586	0.0001148
598	0.0002212
610	0.0004144
622	0.0004284
634	0.000546
646	0.0004956
658	0.0002884
670	0.0002324
682	0.0002072
694	8.12e-05
706	8.4e-05
718	9.52e-05
730	0.0001708
742	0.0002128
754	0.000252
766	0.0003472
778	0.00021
790	0.0001736
802	0.0001456
814	0.0002828
826	0.0003668
838	0.0004956
850	0.0007756
862	0.0010612
874	0.0014896
886	0.0022288
898	0.0035028
910	0.0060424
922	0.0090244
934	0.008456
946	0.006048
958	0.004844
970	0.0046116
982	0.0052164
994	0.0059584
1006	0.0060088
1018	0.005964
1030	0.0063336
1042	0.0064708
1054	0.0065576
1066	0.0084308
1078	0.0134428
1090	0.0211372
1102	0.026992
1114	0.0275352
1126	0.0235004
1138	0.0168028
1150	0.0113876
1162	0.007168
1174	0.0041748
1186	0.0024976
1198	0.0017388
1210	0.0014196
1222	0.0013916
1234	0.0014896
1246	0.0019488
1258	0.0025564
1270	0.0027636
1282	0.0024864
1294	0.002156
1306	0.0017584
1318	0.0015792
1330	0.0026824
1342	0.0047992
1354	0.005684
1366	0.0043036
1378	0.0033236
1390	0.0035
1402	0.0033628
1414	0.0032956
1426	0.0034188
1438	0.003136
1450	0.0032956
1462	0.0036176
1474	0.0031976
1486	0.0021448
1498	0.0011564
1510	0.0006664
1522	0.0004508
1534	0.000392
1546	0.0003808
1558	0.0002632
1570	0.0002604
1582	0.000266
1594	0.0003052
1606	0.0003276
1618	0.0004704
1630	0.0007
1642	0.0010108
1654	0.0009128
1666	0.00042
1678	0.0001708
1690	8.12e-05
1702	3.92e-05
1714	3.64e-05
1726	6.72e-05
1738	3.08e-05
1750	3.64e-05
1762	3.36e-05
1774	3.36e-05
1786	6.16e-05
1798	7.28e-05
1810	0.0001148
1822	0.0001904
1834	0.0004368
1846	0.0006132
1858	0.000616
1870	0.0003612
1882	0.0002128
1894	0.0001708
1906	0.0001484
1918	0.0001092
1930	9.52e-05
1942	0.0001232
1954	0.0001624
1966	0.000168
1978	0.0002548
1990	0.0002576
2002	0.0002716
2014	0.0002688
2026	0.0002632
2038	0.0002716
2050	0.0002716
2062	0.0002884
2074	0.0002688
2086	0.00021
2098	0.0001736
2110	9.52e-05
2122	9.24e-05
2134	7.56e-05
2146	6.44e-05
2158	7.56e-05
2170	3.08e-05
2182	6.44e-05
2194	6.16e-05
2206	6.16e-05
2218	5.6e-05
2230	8.68e-05
2242	6.72e-05
2254	5.04e-05
2266	4.2e-05
2278	3.08e-05
2290	2.52e-05
2302	2.8e-05
2314	1.96e-05
2326	8.4e-06
2338	8.4e-06
2350	8.4e-06
2362	8.4e-06
2374	3.64e-05
2386	7e-05
2398	7e-05
2410	8.4e-05
2422	7e-05
2434	5.88e-05
2446	6.72e-05
2458	4.76e-05
2470	7.56e-05
2482	5.88e-05
2494	3.36e-05
2506	4.2e-05
2518	7.84e-05
2530	8.4e-05
2542	0.0001148
2554	0.0001344
2566	0.0001596
2578	0.0002044
2590	0.00028
2602	0.0002632
2614	0.0002856
2626	0.0003136
2638	0.00035
2650	0.0003808
2662	0.0004564
2674	0.000616
2686	0.0007784
2698	0.0009212
2710	0.0011032
2722	0.0013188
2734	0.0015176
2746	0.00175
2758	0.0020132
2770	0.0022988
2782	0.00259
2794	0.0029708
2806	0.0036764
2818	0.0051828
2830	0.0081844
2842	0.0124236
2854	0.0166264
2866	0.0184716
2878	0.0178864
2890	0.0158172
2902	0.0134456
2914	0.0133168
2926	0.0155848
2938	0.0184464
2950	0.0184156
2962	0.0172284
2974	0.0170772
2986	0.0135856
2998	0.0082348
3010	0.0052892
3022	0.0041244
3034	0.0030268
3046	0.0022568
3058	0.0022512
3070	0.0026992
3082	0.0035896
3094	0.0037688
3106	0.0026096
3118	0.0014532
3130	0.0009436
3142	0.0006776
3154	0.0005768
3166	0.0005236
3178	0.0004536
3190	0.0003724
3202	0.0003444
3214	0.0002184
3226	0.00028
3238	0.0001932
3250	0.000266
3262	0.0002016
3274	0.0002604
3286	0.0001652
3298	0.0001848
3310	0.0001848
3322	0.0001596
3334	0.0001288
3346	0.0001512
3358	0.000154
3370	0.0001624
3382	0.0001736
3394	0.0001512
3406	0.0001456
3418	0.0001232
3430	0.0001092
3442	0.0001512
3454	0.0001092
3466	9.8e-05
3478	0.000126
3490	7.28e-05
3502	3.08e-05
3514	7.84e-05
3526	7.56e-05
3538	6.72e-05
3550	7.84e-05
3562	7.28e-05
3574	0.0001232
3586	8.4e-05
3598	7.84e-05
3610	8.12e-05
3622	0.0001232
3634	3.92e-05
3646	0.000112
3658	0.0001484
3670	0.000112
3682	1.96e-05
3694	0.000154
3706	9.24e-05
3718	0.0001176
3730	0.00014
3742	9.8e-05
3754	0.0001008
3766	0.0001008
3778	0.0001092
3790	0.0001204
3802	9.8e-05
3814	0.0002016
3826	0.0001484
3838	0.000182
