Infrared Spectrum: 3-Aminothiophene-2-carboxamide
Formula: C 5 H 6 N 2 O S
CAS: 147123-47-5
State: gas
Origin: EPA-IR VAPOR PHASE LIBRARY
1/CM	ABSORBANCE
549.8	0.0066
559.445	0.00632
569.09	0.00621
578.734	0.00425
588.379	0.00362
598.024	0.00514
607.669	0.0047
617.313	0.00574
626.958	0.00595
636.603	0.0074
646.248	0.00776
655.893	0.007
665.537	0.00552
675.182	0.00415
684.827	0.00467
694.472	0.00407
704.116	0.00537
713.761	0.00577
723.406	0.00567
733.051	0.00502
742.695	0.00499
752.34	0.00544
761.985	0.00744
771.63	0.0081
781.275	0.00679
790.919	0.005
800.564	0.00457
810.209	0.00392
819.854	0.00411
829.498	0.00523
839.143	0.00535
848.788	0.00497
858.433	0.00381
868.078	0.00422
877.722	0.00358
887.367	0.00305
897.012	0.00293
906.657	0.00286
916.301	0.00274
925.946	0.0019763
935.591	0.00235
945.236	0.00264
954.88	0.00259
964.525	0.00254
974.17	0.00284
983.815	0.0038
993.46	0.00223
1003.1	0.00233
1012.75	0.00278
1022.39	0.0015717
1032.04	0.0018092
1041.68	0.000988
1051.33	0.0014428
1060.97	0.00513
1070.62	0.00382
1080.26	0.00332
1089.91	0.00509
1099.55	0.00417
1109.2	0.00332
1118.84	0.00399
1128.49	0.00603
1138.13	0.00376
1147.78	0.00244
1157.42	0.00351
1167.07	0.00272
1176.71	0.00289
1186.36	0.00389
1196	0.00263
1205.64	0.00215
1215.29	0.0015567
1224.93	0.00556
1234.58	0.00408
1244.22	0.00258
1253.87	0.00452
1263.51	0.0053
1273.16	0.00717
1282.8	0.00588
1292.45	0.00424
1302.09	0.00367
1311.74	0.00349
1321.38	0.00466
1331.03	0.00817
1340.67	0.01785
1350.32	0.02522
1359.96	0.02127
1369.61	0.00771
1379.25	0.00369
1388.9	0.00308
1398.54	0.00358
1408.18	0.00502
1417.83	0.00536
1427.47	0.00551
1437.12	0.00634
1446.76	0.00867
1456.41	0.00796
1466.05	0.00449
1475.7	0.0024
1485.34	0.00257
1494.99	0.00281
1504.63	0.00302
1514.28	0.0042
1523.92	0.00927
1533.57	0.01215
1543.21	0.01124
1552.86	0.00685
1562.5	0.0061
1572.15	0.00985
1581.79	0.01864
1591.44	0.02608
1601.08	0.02795
1610.73	0.02337
1620.37	0.01546
1630.01	0.00936
1639.66	0.0066
1649.3	0.00583
1658.95	0.0086
1668.59	0.02051
1678.24	0.02963
1687.88	0.02707
1697.53	0.01091
1707.17	0.0053
1716.82	0.0037
1726.46	0.0032
1736.11	0.00352
1745.75	0.00316
1755.4	0.00266
1765.04	0.00216
1774.69	0.00226
1784.33	0.0019131
1793.98	0.0017047
1803.62	0.001669
1813.27	0.0018234
1822.91	0.001537
1832.55	0.0013215
1842.2	0.0015687
1851.84	0.0014905
1861.49	0.0015157
1871.13	0.0016902
1880.78	0.0014962
1890.42	0.0013312
1900.07	0.0013828
1909.71	0.00110391
1919.36	0.0012832
1929	0.0011294
1938.65	0.0013854
1948.29	0.0013723
1957.94	0.00113757
1967.58	0.0013992
1977.23	0.0010275
1986.87	0.0012567
1996.52	0.0013118
2006.16	0.0013192
2015.81	0.00096
2025.45	0.00119976
2035.1	0.0013882
2044.74	0.0012489
2054.38	0.001393
2064.03	0.001485
2073.67	0.0014409
2083.32	0.0012067
2092.96	0.0012868
2102.61	0.0014688
2112.25	0.0010297
2121.9	0.0010047
2131.54	0.00115953
2141.19	0.000842
2150.83	0.0010315
2160.48	0.00111555
2170.12	0.000882
2179.77	0.0010319
2189.41	0.0010284
2199.06	0.0012846
2208.7	0.00115574
2218.35	0.000742
2227.99	0.0010946
2237.64	0.0013079
2247.28	0.0010432
2256.92	0.0012807
2266.57	0.0013932
2276.21	0.001142
2285.86	0.000997
2295.5	0.00092
2305.15	0.000583
2314.79	0.000939
2324.44	0.000229
2334.08	0.000858
2343.73	0.000799
2353.37	0.0012445
2363.02	0.0010285
2372.66	0.0010526
2382.31	0.000897
2391.95	0.00111975
2401.6	0.00111799
2411.24	0.00112861
2420.89	0.000846
2430.53	0.000989
2440.18	0.00112279
2449.82	0.000662
2459.47	0.000776
2469.11	0.000853
2478.75	0.000596
2488.4	0.000759
2498.04	0.00110575
2507.69	0.00109004
2517.33	0.0010365
2526.98	0.0010697
2536.62	0.001008
2546.27	0.000923
2555.91	0.00034
2565.56	0.0013029
2575.2	0.000965
2584.85	0.0014098
2594.49	0.000908
2604.14	0.00113184
2613.78	0.0010204
2623.43	0.001046
2633.07	0.0014266
2642.72	0.000854
2652.36	0.00110349
2662.01	0.00116022
2671.65	0.0013624
2681.29	0.000964
2690.94	0.000897
2700.58	0.0010856
2710.23	0.000937
2719.87	0.000792
2729.52	0.0010822
2739.16	0.0012707
2748.81	0.000275
2758.45	0.0012106
2768.1	0.000969
2777.74	0.000925
2787.39	0.001284
2797.03	0.000641
2806.68	0.00053
2816.32	0.000753
2825.97	0.000716
2835.61	0.0012201
2845.26	0.0012001
2854.9	0.00083
2864.55	0.000573
2874.19	0.00112516
2883.84	0.000614
2893.48	0.000695
2903.12	0.000649
2912.77	0.00109297
2922.41	0.000507
2932.06	0.00086
2941.7	0.000554
2951.35	0.000191
2960.99	0.0010567
2970.64	0.00078
2980.28	0.00079
2989.93	0.000906
2999.57	0.000399
3009.22	0.00096
3018.86	0.000878
3028.51	0.0007
3038.15	0.000935
3047.8	0.000339
3057.44	0.001516
3067.09	0.000605
3076.73	0.0010604
3086.38	0.0010178
3096.02	0.00111
3105.67	0.000559
3115.31	0.0016239
3124.95	0.000926
3134.6	0.00063
3144.24	0.0012378
3153.89	0.000863
3163.53	0.0010184
3173.18	0.00114065
3182.82	0.000964
3192.47	0.0012043
3202.11	0.0015608
3211.76	0.0014504
3221.4	0.00118651
3231.05	0.000668
3240.69	0.000756
3250.34	0.0015865
3259.98	0.000335
3269.63	0.000655
3279.27	0.0013035
3288.92	0.0013087
3298.56	0.000563
3308.21	0.00116479
3317.85	0.0014353
3327.49	0.0010789
3337.14	0.00266
3346.78	0.00431
3356.43	0.00575
3366.07	0.00551
3375.72	0.0035
3385.36	0.00329
3395.01	0.00268
3404.65	0.00252
3414.3	0.00339
3423.94	0.00384
3433.59	0.00322
3443.23	0.0029
3452.88	0.0015931
3462.52	0.000994
3472.17	0.00244
3481.81	0.00253
3491.46	0.0042
3501.1	0.00519
3510.75	0.0044
3520.39	0.00427
3530.04	0.00381
3539.68	0.00366
3549.32	0.00331
3558.97	0.0019977
3568.61	0.00085
3578.26	0.0013807
3587.9	0.000877
3597.55	0.0012499
3607.19	0.0013981
3616.84	0.0016086
3626.48	0.0017535
3636.13	0.0014256
3645.77	0.001246
3655.42	0.000474
3665.06	0.0016463
3674.71	0.000464
3684.35	0.000758
3694	0.000972
3703.64	0.000968
3713.29	0.0013994
3722.93	0.0013071
3732.58	0.00067
3742.22	0.00118278
3751.86	0.0013522
3761.51	0.0016913
3771.15	0.001804
3780.8	0.000447
3790.44	0.000924
3800.09	0.0013142
3809.73	0.0010138
3819.38	0.00072
3829.02	0.0014727
3838.67	0.000784
3848.31	0.000817
3857.96	0.0010032
3867.6	0.0010182
3877.25	0.0013087
3886.89	0.0015653
3896.54	0.00094
3906.18	0.0019374
3915.83	0.0018401
3925.47	0.000386
3935.12	0.000527
3944.76	0.00111856
3954.41	0.000491
3964.05	0.000821
3973.69	0.000583
3983.34	0.00076
3992.98	0.000733
