Infrared Spectrum: 1,4-Bis(acetoxymethyl)benzene
Formula: C 12 H 14 O 4
CAS: 14720-70-8
State: gas
Origin: EPA-IR VAPOR PHASE LIBRARY
1/CM	ABSORBANCE
549.8	0.006525
559.445	0.005855
569.09	0.004825
578.734	0.005375
588.379	0.005335
598.024	0.007145
607.669	0.008525
617.313	0.008845
626.958	0.009055
636.603	0.008415
646.248	0.006015
655.893	0.003855
665.537	0.003175
675.182	0.002595
684.827	0.002755
694.472	0.002425
704.116	0.003125
713.761	0.002745
723.406	0.003775
733.051	0.003305
742.695	0.004875
752.34	0.006255
761.985	0.009465
771.63	0.009985
781.275	0.011645
790.919	0.013355
800.564	0.016285
810.209	0.018085
819.854	0.016925
829.498	0.016635
839.143	0.017805
848.788	0.017615
858.433	0.014355
868.078	0.010455
877.722	0.008825
887.367	0.009435
897.012	0.010535
906.657	0.012305
916.301	0.012335
925.946	0.010035
935.591	0.008895
945.236	0.012315
954.88	0.016405
964.525	0.024185
974.17	0.025055
983.815	0.021485
993.46	0.029335
1003.1	0.047765
1012.75	0.079145
1022.39	0.085175
1032.04	0.084175
1041.68	0.068665
1051.33	0.046065
1060.97	0.034545
1070.62	0.029915
1080.26	0.027225
1089.91	0.024535
1099.55	0.020355
1109.2	0.015955
1118.84	0.011355
1128.49	0.010535
1138.13	0.009905
1147.78	0.009625
1157.42	0.010845
1167.07	0.015815
1176.71	0.022655
1186.36	0.037995
1196	0.073115
1205.64	0.161095
1215.29	0.362125
1224.93	0.415675
1234.58	0.255345
1244.22	0.147145
1253.87	0.092075
1263.51	0.067565
1273.16	0.043565
1282.8	0.026675
1292.45	0.018745
1302.09	0.014875
1311.74	0.012185
1321.38	0.010805
1331.03	0.010825
1340.67	0.012235
1350.32	0.020825
1359.96	0.051995
1369.61	0.056525
1379.25	0.056725
1388.9	0.039535
1398.54	0.020935
1408.18	0.013795
1417.83	0.012405
1427.47	0.012855
1437.12	0.013795
1446.76	0.015825
1456.41	0.017125
1466.05	0.015505
1475.7	0.011295
1485.34	0.008655
1494.99	0.007705
1504.63	0.008515
1514.28	0.011545
1523.92	0.009375
1533.57	0.005855
1543.21	0.005155
1552.86	0.004655
1562.5	0.004705
1572.15	0.004325
1581.79	0.004385
1591.44	0.004675
1601.08	0.004775
1610.73	0.004775
1620.37	0.004875
1630.01	0.004565
1639.66	0.005095
1649.3	0.005455
1658.95	0.005945
1668.59	0.006295
1678.24	0.006935
1687.88	0.008005
1697.53	0.010575
1707.17	0.013665
1716.82	0.019465
1726.46	0.028235
1736.11	0.047805
1745.75	0.088895
1755.4	0.164935
1765.04	0.236415
1774.69	0.141345
1784.33	0.072345
1793.98	0.036905
1803.62	0.020805
1813.27	0.014065
1822.91	0.010655
1832.55	0.008385
1842.2	0.006425
1851.84	0.004995
1861.49	0.004525
1871.13	0.004085
1880.78	0.003935
1890.42	0.004075
1900.07	0.004385
1909.71	0.004175
1919.36	0.003765
1929	0.003325
1938.65	0.003445
1948.29	0.003185
1957.94	0.003185
1967.58	0.002945
1977.23	0.002885
1986.87	0.002525
1996.52	0.002655
2006.16	0.002805
2015.81	0.002925
2025.45	0.002855
2035.1	0.002915
2044.74	0.003045
2054.38	0.003055
2064.03	0.002785
2073.67	0.002415
2083.32	0.002325
2092.96	0.002155
2102.61	0.002295
2112.25	0.002425
2121.9	0.002185
2131.54	0.002165
2141.19	0.002485
2150.83	0.002125
2160.48	0.001909
2170.12	0.0014367
2179.77	0.0016601
2189.41	0.0015747
2199.06	0.0015681
2208.7	0.001975
2218.35	0.0016777
2227.99	0.0016343
2237.64	0.0016576
2247.28	0.0013193
2256.92	0.0010751
2266.57	0.0014142
2276.21	0.0013735
2285.86	0.0013516
2295.5	0.00100385
2305.15	0.0013005
2314.79	0.0014366
2324.44	0.0012266
2334.08	0.0012852
2343.73	0.0012175
2353.37	0.0011002
2363.02	0.0012015
2372.66	0.0013621
2382.31	0.001208
2391.95	0.0013744
2401.6	0.0012835
2411.24	0.0012254
2420.89	0.0015321
2430.53	0.0014023
2440.18	0.0013056
2449.82	0.00177
2459.47	0.0017055
2469.11	0.001605
2478.75	0.001617
2488.4	0.0010431
2498.04	0.00096516
2507.69	0.0008887
2517.33	0.000862
2526.98	0.000748
2536.62	0.000799
2546.27	0.000618
2555.91	0.00097804
2565.56	0.0009102
2575.2	0.0011298
2584.85	0.00092159
2594.49	0.00099823
2604.14	0.00099555
2613.78	0.0010065
2623.43	0.0008608
2633.07	0.00097599
2642.72	0.0010848
2652.36	0.0008813
2662.01	0.0011659
2671.65	0.0011159
2681.29	0.000808
2690.94	0.0011968
2700.58	0.000648
2710.23	0.0013848
2719.87	0.0013197
2729.52	0.001316
2739.16	0.0017321
2748.81	0.0012866
2758.45	0.0008619
2768.1	0.0010298
2777.74	0.0010884
2787.39	0.0012598
2797.03	0.0013805
2806.68	0.0016758
2816.32	0.0018029
2825.97	0.001995
2835.61	0.002415
2845.26	0.002115
2854.9	0.002615
2864.55	0.002585
2874.19	0.004105
2883.84	0.005375
2893.48	0.006465
2903.12	0.006625
2912.77	0.005655
2922.41	0.006725
2932.06	0.008205
2941.7	0.013275
2951.35	0.019935
2960.99	0.021655
2970.64	0.018765
2980.28	0.013715
2989.93	0.010965
2999.57	0.009165
3009.22	0.008735
3018.86	0.010235
3028.51	0.012585
3038.15	0.013575
3047.8	0.009935
3057.44	0.009705
3067.09	0.008705
3076.73	0.006795
3086.38	0.005375
3096.02	0.004995
3105.67	0.003765
3115.31	0.003215
3124.95	0.002595
3134.6	0.002285
3144.24	0.002215
3153.89	0.0013296
3163.53	0.0012257
3173.18	0.00097251
3182.82	0.0014063
3192.47	0.000737
3202.11	0.0010301
3211.76	0.000176
3221.4	0.000572
3231.05	0.000589
3240.69	0.000618
3250.34	0.0012668
3259.98	0.000325
3269.63	0.0012781
3279.27	0.000778
3288.92	0.000611
3298.56	0.000463
3308.21	0.0008592
3317.85	0.000397
3327.49	0.0008418
3337.14	0.0011304
3346.78	0.000874
3356.43	0.0010481
3366.07	0.00102274
3375.72	0.00096653
3385.36	0.000565
3395.01	0.0011895
3404.65	0.000744
3414.3	0.000359
3423.94	0.000712
3433.59	0.000845
3443.23	0.0011848
3452.88	0.0011518
3462.52	0.0011511
3472.17	0.0013648
3481.81	0.002125
3491.46	0.002455
3501.1	0.002535
3510.75	0.003385
3520.39	0.003045
3530.04	0.002205
3539.68	0.0017805
3549.32	0.0016385
3558.97	0.001975
3568.61	0.00097757
3578.26	0.0017956
3587.9	0.0015652
3597.55	0.0011027
3607.19	0.0010619
3616.84	0.00052
3626.48	0.0009084
3636.13	0.0014726
3645.77	0.000907
3655.42	0.000554
3665.06	0.000822
3674.71	0.0012494
3684.35	0.0010784
3694	0.00101768
3703.64	0.0011099
3713.29	0.0013699
3722.93	0.00051
3732.58	0.000593
3742.22	0.0008905
3751.86	0.000497
3761.51	0.0008509
3771.15	0.0008817
3780.8	0.000671
3790.44	0.0012203
3800.09	0.000756
3809.73	0.000535
3819.38	0.0013061
3829.02	0.0008707
3838.67	0.0012242
3848.31	0.0010874
3857.96	0.001028
3867.6	0.000781
3877.25	0.000661
3886.89	0.000493
3896.54	0.000636
3906.18	0.000179
3915.83	0.0014769
3925.47	0.000819
3935.12	0.000589
3944.76	0.000696
3954.41	0.0010301
3964.05	0.000437
3973.69	0.001141
3983.34	0.000667
3992.98	0.001482
