Infrared Spectrum: 1-IMIDAZOLIDINECARBOXAMIDE, 2-OXO-
Formula: C4 H7 N3 O2
CAS: 14746-98-6
State: SOLID (1 mg / 650 mg KBr DISC)
Class: COBLENTZ III
Instrument: PERKIN-ELMER 521 (GRATING)
Instrument parameters: FILTERS AT 3150, 2500, 2000, 1150, 700, 410 CM ^-^1, GRATING CHANGES AT 2000, 630 CM ^-^1
Sampling: TRANSMISSION
Resolution: 4
Origin: SOUTHERN RES. INSTITUTE
1/CM	TRANSMITTANCE
242.93	0.258
252.086	0.28
261.241	0.294
270.397	0.3
279.553	0.325
288.708	0.5
297.864	0.631
307.019	0.656
316.175	0.68
325.331	0.705
334.486	0.723
343.642	0.747
352.798	0.758
361.953	0.778
371.109	0.791
380.265	0.798
389.42	0.804
398.576	0.791
407.732	0.785
416.887	0.782
426.043	0.788
435.198	0.775
444.354	0.641
453.51	0.751
462.665	0.736
471.821	0.77
480.977	0.753
490.132	0.732
499.288	0.696
508.444	0.668
517.599	0.653
526.755	0.639
535.91	0.614
545.066	0.601
554.222	0.612
563.377	0.634
572.533	0.639
581.689	0.63
590.844	0.604
600	0.505
609.156	0.411
618.311	0.286
627.467	0.446
636.623	0.449
645.778	0.414
654.934	0.404
664.089	0.474
673.245	0.562
682.401	0.619
691.556	0.649
700.712	0.649
709.868	0.638
719.023	0.611
728.179	0.607
737.335	0.619
746.49	0.489
755.646	0.478
764.801	0.674
773.957	0.705
783.113	0.739
792.268	0.766
801.424	0.795
810.58	0.81
819.735	0.822
828.891	0.827
838.047	0.83
847.202	0.833
856.358	0.836
865.514	0.838
874.669	0.84
883.825	0.84
892.98	0.842
902.136	0.842
911.292	0.842
920.447	0.841
929.603	0.84
938.759	0.837
947.914	0.83
957.07	0.799
966.226	0.819
975.381	0.827
984.537	0.816
993.693	0.81
1002.85	0.805
1012	0.792
1021.16	0.784
1030.32	0.773
1039.47	0.757
1048.63	0.725
1057.78	0.604
1066.94	0.544
1076.09	0.54
1085.25	0.533
1094.4	0.687
1103.56	0.684
1112.72	0.678
1121.87	0.694
1131.03	0.699
1140.18	0.686
1149.34	0.685
1158.49	0.688
1167.65	0.683
1176.81	0.67
1185.96	0.658
1195.12	0.638
1204.27	0.594
1213.43	0.555
1222.58	0.514
1231.74	0.47
1240.89	0.426
1250.05	0.373
1259.21	0.297
1268.36	0.182
1277.52	0.176
1286.67	0.354
1295.83	0.655
1304.98	0.678
1314.14	0.649
1323.3	0.603
1332.45	0.556
1341.61	0.528
1350.76	0.478
1359.92	0.395
1369.07	0.311
1378.23	0.203
1387.39	0.122
1396.54	0.143
1405.7	0.25
1414.85	0.334
1424.01	0.455
1433.16	0.519
1442.32	0.587
1451.47	0.621
1460.63	0.632
1469.79	0.595
1478.94	0.557
1488.1	0.542
1497.25	0.463
1506.41	0.64
1515.56	0.68
1524.72	0.647
1533.88	0.61
1543.03	0.551
1552.19	0.484
1561.34	0.41
1570.5	0.321
1579.65	0.207
1588.81	0.185
1597.96	0.268
1607.12	0.415
1616.28	0.586
1625.43	0.656
1634.59	0.664
1643.74	0.623
1652.9	0.552
1662.05	0.382
1671.21	0.219
1680.37	0.168
1689.52	0.371
1698.68	0.49
1707.83	0.366
1716.99	0.234
1726.14	0.122
1735.3	0.084
1744.46	0.066
1753.61	0.139
1762.77	0.256
1771.92	0.429
1781.08	0.524
1790.23	0.601
1799.39	0.647
1808.54	0.68
1817.7	0.707
1826.86	0.726
1836.01	0.745
1845.17	0.761
1854.32	0.776
1863.48	0.779
1872.63	0.791
1881.79	0.802
1890.95	0.812
1900.1	0.825
1909.26	0.832
1918.41	0.836
1927.57	0.84
1936.72	0.843
1945.88	0.846
1955.03	0.851
1964.19	0.854
1973.35	0.857
1982.5	0.858
1991.66	0.858
2000.81	0.861
2009.97	0.863
2019.12	0.864
2028.28	0.865
2037.44	0.865
2046.59	0.866
2055.75	0.867
2064.9	0.868
2074.06	0.869
2083.21	0.87
2092.37	0.87
2101.52	0.869
2110.68	0.868
2119.84	0.868
2128.99	0.868
2138.15	0.869
2147.3	0.87
2156.46	0.87
2165.61	0.87
2174.77	0.871
2183.93	0.871
2193.08	0.871
2202.24	0.872
2211.39	0.873
2220.55	0.873
2229.7	0.873
2238.86	0.873
2248.02	0.872
2257.17	0.872
2266.33	0.872
2275.48	0.871
2284.64	0.871
2293.79	0.871
2302.95	0.87
2312.1	0.87
2321.26	0.869
2330.42	0.869
2339.57	0.869
2348.73	0.869
2357.88	0.869
2367.04	0.87
2376.19	0.87
2385.35	0.871
2394.51	0.87
2403.66	0.871
2412.82	0.871
2421.97	0.871
2431.13	0.871
2440.28	0.871
2449.44	0.87
2458.59	0.868
2467.75	0.867
2476.91	0.865
2486.06	0.864
2495.22	0.864
2504.37	0.862
2513.53	0.861
2522.68	0.861
2531.84	0.863
2541	0.864
2550.15	0.864
2559.31	0.863
2568.46	0.861
2577.62	0.861
2586.77	0.86
2595.93	0.86
2605.09	0.859
2614.24	0.858
2623.4	0.856
2632.55	0.852
2641.71	0.85
2650.86	0.848
2660.02	0.846
2669.17	0.846
2678.33	0.845
2687.49	0.843
2696.64	0.837
2705.8	0.829
2714.95	0.82
2724.11	0.813
2733.26	0.806
2742.42	0.79
2751.58	0.779
2760.73	0.769
2769.89	0.766
2779.04	0.766
2788.2	0.773
2797.35	0.779
2806.51	0.775
2815.66	0.771
2824.82	0.757
2833.98	0.741
2843.13	0.715
2852.29	0.693
2861.44	0.674
2870.6	0.66
2879.75	0.631
2888.91	0.616
2898.07	0.604
2907.22	0.604
2916.38	0.639
2925.53	0.671
2934.69	0.67
2943.84	0.67
2953	0.685
2962.16	0.688
2971.31	0.676
2980.47	0.671
2989.62	0.668
2998.78	0.677
3007.93	0.689
3017.09	0.683
3026.24	0.674
3035.4	0.663
3044.56	0.643
3053.71	0.627
3062.87	0.61
3072.02	0.591
3081.18	0.57
3090.33	0.549
3099.49	0.527
3108.65	0.506
3117.8	0.501
3126.96	0.491
3136.11	0.47
3145.27	0.447
3154.42	0.433
3163.58	0.423
3172.73	0.411
3181.89	0.387
3191.05	0.358
3200.2	0.327
3209.36	0.304
3218.51	0.305
3227.67	0.314
3236.82	0.314
3245.98	0.305
3255.14	0.303
3264.29	0.296
3273.45	0.291
3282.6	0.294
3291.76	0.303
3300.91	0.309
3310.07	0.322
3319.23	0.341
3328.38	0.349
3337.54	0.342
3346.69	0.322
3355.85	0.253
3365	0.242
3374.16	0.255
3383.31	0.272
3392.47	0.292
3401.63	0.337
3410.78	0.395
3419.94	0.458
3429.09	0.509
3438.25	0.557
3447.4	0.591
3456.56	0.621
3465.72	0.65
3474.87	0.673
3484.03	0.694
3493.18	0.708
3502.34	0.726
3511.49	0.741
3520.65	0.753
3529.8	0.763
3538.96	0.776
3548.12	0.786
3557.27	0.792
3566.43	0.796
3575.58	0.806
3584.74	0.81
3593.89	0.822
3603.05	0.828
3612.21	0.831
3621.36	0.837
3630.52	0.842
3639.67	0.847
3648.83	0.837
3657.98	0.848
3667.14	0.845
3676.3	0.843
3685.45	0.852
3694.61	0.855
3703.76	0.852
3712.92	0.854
3722.07	0.858
3731.23	0.854
3740.38	0.847
3749.54	0.846
3758.7	0.86
3767.85	0.865
3777.01	0.867
3786.16	0.865
3795.32	0.86
3804.47	0.857
