Infrared Spectrum: Heptadecylbenzene
Formula: C 23 H 40
CAS: 14752-75-1
State: gas
Instrument: HP-GC/MS/IRD
Origin: NIST Mass Spectrometry Data Center
1/CM	ABSORBANCE
550	0.0018315
562	0.0003404
574	0.0004329
586	0.0001702
598	0.0001517
610	8.51e-05
622	0.0001739
634	0.0001628
646	0.000148
658	0.0002516
670	0.0003885
682	0.0009694
694	0.0025197
706	0.0021016
718	0.0017834
730	0.0019388
742	0.0019721
754	0.00111
766	0.0006327
778	0.000444
790	0.0003404
802	0.000259
814	0.0003034
826	0.0002294
838	0.0002109
850	0.0002035
862	0.0002146
874	0.0002479
886	0.0003182
898	0.0003071
910	0.0003367
922	0.0002775
934	0.0002516
946	0.0002294
958	0.0002553
970	0.0003182
982	0.0003922
994	0.0004736
1006	0.0005217
1018	0.0006438
1030	0.0008732
1042	0.0004958
1054	0.0003885
1066	0.0003848
1078	0.0002849
1090	0.0002553
1102	0.0002072
1114	0.0001739
1126	0.0001369
1138	0.0001369
1150	0.0001184
1162	0.0001369
1174	0.0001776
1186	0.0001924
1198	0.000185
1210	0.0001702
1222	0.0001443
1234	6.66e-05
1246	9.25e-05
1258	0.0001443
1270	0.0002109
1282	0.0002701
1294	0.0004218
1306	0.0005698
1318	0.0006068
1330	0.0006216
1342	0.0009472
1354	0.00111
1366	0.0009139
1378	0.0007067
1390	0.0005217
1402	0.0004366
1414	0.0004403
1426	0.0005772
1438	0.0011655
1450	0.002294
1462	0.0027454
1474	0.0015762
1486	0.001036
1498	0.0013246
1510	0.0004625
1522	0.0002368
1534	0.0002442
1546	0.0002368
1558	0.0001147
1570	0.0002257
1582	0.0003626
1594	0.0005624
1606	0.0006586
1618	0.0002146
1630	0.0001406
1642	0.0001073
1654	3.7e-06
1666	9.25e-05
1678	0.0001184
1690	0.0001221
1702	5.18e-05
1714	9.99e-05
1726	0.0001369
1738	0.0001258
1750	0.0001258
1762	0.000111
1774	9.99e-05
1786	0.0002072
1798	0.0002516
1810	0.0001628
1822	0.0001406
1834	0.0001517
1846	0.0001406
1858	0.0001776
1870	0.0001813
1882	0.0001702
1894	0.0001295
1906	0.0001184
1918	0.0001443
1930	0.0002183
1942	0.0002257
1954	0.0001924
1966	0.0001147
1978	8.51e-05
1990	0.000111
2002	0.0001073
2014	0.0001147
2026	0.0001258
2038	0.0001517
2050	0.0001221
2062	0.000111
2074	0.0001147
2086	0.0001184
2098	0.0001073
2110	7.77e-05
2122	8.14e-05
2134	0.0001184
2146	9.25e-05
2158	9.25e-05
2170	9.99e-05
2182	7.4e-05
2194	0.0001036
2206	0.0001147
2218	0.0001073
2230	9.25e-05
2242	0.0001036
2254	0.0001036
2266	9.25e-05
2278	0.0001184
2290	0.0001073
2302	0.0001147
2314	0.0001184
2326	6.29e-05
2338	5.55e-05
2350	5.18e-05
2362	3.7e-06
2374	7.4e-06
2386	6.29e-05
2398	9.25e-05
2410	9.25e-05
2422	8.51e-05
2434	0.0001073
2446	7.03e-05
2458	0.0001036
2470	7.4e-05
2482	8.14e-05
2494	0.0001036
2506	0.0001184
2518	0.0001258
2530	0.0001295
2542	0.0001443
2554	0.0001665
2566	0.0001443
2578	0.0001924
2590	0.0001998
2602	0.0001998
2614	0.0002331
2626	0.0002331
2638	0.0002738
2650	0.000333
2662	0.0003441
2674	0.0003589
2686	0.0003922
2698	0.0003441
2710	0.0003256
2722	0.0003108
2734	0.0004144
2746	0.0004107
2758	0.0004551
2770	0.0005106
2782	0.0006438
2794	0.0008103
2806	0.0010212
2818	0.0013912
2830	0.0020128
2842	0.0034706
2854	0.0091168
2866	0.0132016
2878	0.007844
2890	0.0065934
2902	0.0090169
2914	0.0154401
2926	0.0309875
2938	0.0331113
2950	0.0150331
2962	0.008251
2974	0.0054168
2986	0.0027121
2998	0.0018389
3010	0.001628
3022	0.0020572
3034	0.0025937
3046	0.0015725
3058	0.0015059
3070	0.0022274
3082	0.00148
3094	0.0010508
3106	0.0007437
3118	0.0004884
3130	0.0003367
3142	0.0002479
3154	0.0002812
3166	0.0002553
3178	0.000222
3190	0.0002516
3202	0.0002035
3214	0.0001961
3226	0.0001961
3238	0.0001702
3250	0.0001443
3262	0.0001813
3274	0.0001628
3286	0.000185
3298	0.0001517
3310	0.0001554
3322	0.0001517
3334	0.0001443
3346	0.0001554
3358	0.0001554
3370	0.0001554
3382	0.0001443
3394	0.0001406
3406	0.0001332
3418	0.0001369
3430	0.0001295
3442	0.0001591
3454	0.0001628
3466	0.0001332
3478	0.0001406
3490	0.0001295
3502	0.0001406
3514	0.0001073
3526	0.0001369
3538	9.25e-05
3550	0.0001517
3562	0.0001073
3574	0.0001147
3586	0.0001295
3598	0.0001369
3610	0.0001628
3622	0.0001554
3634	0.0001665
3646	0.0001221
3658	0.0001702
3670	0.0001221
3682	0.0001443
3694	0.0001295
3706	0.0001369
3718	0.0001887
3730	0.0001887
3742	0.0001406
3754	7.4e-05
3766	0.0001184
3778	0.0001924
3790	0.0001591
3802	0.0001665
3814	0.000148
3826	0.0001628
3838	0.0001369
