Infrared Spectrum: 2-Thiopheneacrolein
Formula: C7 H6 O S
CAS: 14756-03-7
State: SOLUTION (10% CCl4 FOR 3800-1330, 10% CS2 FOR 1330-460 CM^-^1) VS SOLVENT
Class: COBLENTZ III
Instrument: DOW KBr FOREPRISM-GRATING
Instrument parameters: BLAZED AT 3.5, 12.0, 20.0 MICRON AND CHANGED AT 5.0, 7.5, 14.9 MICRON
Sampling: TRANSMISSION
Path length: 0.011 CM, 0.011 CM
Resolution: 2
Origin: DOW CHEMICAL COMPANY
1/CM	TRANSMITTANCE
3800	0.8647
3791	0.8657
3782	0.867
3773	0.8678
3764	0.8683
3755	0.8678
3746	0.8675
3737	0.8668
3728	0.8665
3719	0.8666
3710	0.867
3701	0.8675
3692	0.8674
3683	0.8658
3674	0.8568
3665	0.855
3656	0.8615
3647	0.8659
3638	0.8655
3629	0.8642
3620	0.8625
3611	0.8547
3602	0.8503
3593	0.8545
3584	0.8566
3575	0.8436
3566	0.8475
3557	0.8452
3548	0.8399
3539	0.8358
3530	0.8347
3521	0.8358
3512	0.8357
3503	0.8347
3494	0.8334
3485	0.8327
3476	0.8337
3467	0.8348
3458	0.8378
3449	0.8424
3440	0.8436
3431	0.8453
3422	0.8478
3413	0.8513
3404	0.8548
3395	0.8586
3386	0.8601
3377	0.8595
3368	0.8504
3359	0.8245
3350	0.8025
3341	0.7911
3332	0.7947
3323	0.8259
3314	0.8409
3305	0.8502
3296	0.8564
3287	0.8618
3278	0.8664
3269	0.8709
3260	0.875
3251	0.8771
3242	0.8758
3233	0.8746
3224	0.8736
3215	0.8732
3206	0.8725
3197	0.8714
3188	0.8698
3179	0.868
3170	0.8658
3161	0.8634
3152	0.858
3143	0.8516
3134	0.8423
3125	0.8198
3116	0.7421
3107	0.7337
3098	0.765
3089	0.7418
3080	0.7537
3071	0.7856
3062	0.8125
3053	0.8215
3044	0.7908
3035	0.795
3026	0.8044
3017	0.8055
3008	0.8131
2999	0.8001
2990	0.7547
2981	0.7587
2972	0.796
2963	0.8125
2954	0.8147
2945	0.795
2936	0.7785
2927	0.7825
2918	0.79
2909	0.7934
2900	0.7968
2891	0.7997
2882	0.7958
2873	0.7799
2864	0.7651
2855	0.7108
2846	0.6425
2837	0.5298
2828	0.4942
2819	0.4029
2810	0.4866
2801	0.5732
2792	0.5458
2783	0.7095
2774	0.7392
2765	0.6318
2756	0.5793
2747	0.6406
2738	0.6775
2729	0.6336
2720	0.5671
2711	0.6388
2702	0.7431
2693	0.7869
2684	0.8115
2675	0.8318
2666	0.8492
2657	0.8596
2648	0.8557
2639	0.8563
2630	0.8686
2621	0.8736
2612	0.883
2603	0.8892
2594	0.8928
2585	0.8965
2576	0.8952
2567	0.891
2558	0.8952
2549	0.9003
2540	0.9025
2531	0.9014
2522	0.9044
2513	0.908
2504	0.9091
2495	0.9087
2486	0.9071
2477	0.9007
2468	0.8854
2459	0.8858
2450	0.8955
2441	0.8978
2432	0.9
2423	0.9032
2414	0.903
2405	0.9043
2396	0.9071
2387	0.9094
2378	0.9108
2369	0.9105
2360	0.9111
2351	0.9134
2342	0.9116
2333	0.9114
2324	0.9125
2315	0.915
2306	0.9182
2297	0.9205
2288	0.9181
2279	0.9137
2270	0.9093
2261	0.905
2252	0.9023
2243	0.9032
2234	0.8835
2225	0.8744
2216	0.8825
2207	0.8955
2198	0.9088
2189	0.9132
2180	0.9121
2171	0.908
2162	0.9049
2153	0.9171
2144	0.9174
2135	0.9173
2126	0.9168
2117	0.9153
2108	0.9125
2099	0.9045
2090	0.8994
2081	0.9124
2072	0.9162
2063	0.9163
2054	0.9157
2045	0.9153
2036	0.9208
2027	0.9196
2018	0.9156
2009	0.9164
2000	0.9034
1991	0.867
1982	0.8616
1973	0.8561
1964	0.852
1955	0.8582
1946	0.8661
1937	0.8633
1928	0.8631
1919	0.862
1910	0.8659
1901	0.8598
1892	0.8491
1883	0.8438
1874	0.8138
1865	0.8267
1856	0.846
1847	0.8604
1838	0.8606
1829	0.8527
1820	0.8361
1811	0.8143
1802	0.7951
1793	0.8218
1784	0.8286
1775	0.8187
1766	0.8101
1757	0.7897
1748	0.6658
1739	0.5956
1730	0.6725
1721	0.6678
1712	0.5359
1703	0.3625
1694	0.0184
1685	0.0005
1676	0
1667	0.0642
1658	0.2161
1649	0.4678
1640	0.4351
1631	0.4569
1622	0.1377
1613	0.0225
1604	0.3464
1595	0.4476
1586	0.5314
1577	0.7318
1568	0.7697
1559	0.7872
1550	0.8295
1541	0.8507
1532	0.7985
1523	0.525
1514	0.6453
1505	0.8011
1496	0.8108
1487	0.8367
1478	0.8282
1469	0.8216
1460	0.7933
1451	0.7422
1442	0.7261
1433	0.5607
1424	0.0416
1415	0.2453
1406	0.592
1397	0.601
1388	0.6072
1379	0.6938
1370	0.7051
1361	0.493
1352	0.7293
1343	0.7772
1334	0.7631
1325	0.7294
1316	0.7771
1307	0.7431
1298	0.7451
1289	0.7578
1280	0.7667
1271	0.7385
1262	0.7618
1253	0.5437
1244	0.5044
1235	0.3255
1226	0.243
1217	0.2631
1208	0.2453
1199	0.5557
1190	0.6889
1181	0.6345
1172	0.7333
1163	0.7262
1154	0.5235
1145	0.5256
1136	0.5635
1127	0.4118
1118	0.0313
1109	0.0539
1100	0.4604
1091	0.6406
1082	0.6102
1073	0.686
1064	0.7338
1055	0.6887
1046	0.1296
1037	0.5884
1028	0.6656
1019	0.7289
1010	0.7428
1001	0.6622
992	0.7375
983	0.7375
974	0.6018
965	0.3868
956	0.2477
947	0.7418
938	0.7684
929	0.7996
920	0.8155
911	0.8174
902	0.8136
893	0.8211
884	0.8377
875	0.825
866	0.5655
857	0.4386
848	0.6707
839	0.5179
830	0.6658
821	0.5188
812	0.3992
803	0.7438
794	0.7944
785	0.7839
776	0.7882
767	0.7804
758	0.3262
749	0.5921
740	0.5908
731	0.3456
722	0.0803
713	0.2007
704	0.0851
695	0.4014
686	0.7221
677	0.7331
668	0.2914
659	0.5089
650	0.7057
641	0.7798
632	0.7958
623	0.7962
614	0.8014
605	0.7862
596	0.8001
587	0.7038
578	0.7418
569	0.5547
560	0.5982
551	0.7638
542	0.7806
533	0.7814
524	0.7814
515	0.7808
506	0.7711
497	0.7374
488	0.7408
479	0.7468
470	0.6746
461	0.6749
