Infrared Spectrum: 2-sec-Butylcyclohexanone
Formula: C 10 H 18 O
CAS: 14765-30-1
State: gas
Origin: EPA-IR VAPOR PHASE LIBRARY
1/CM	ABSORBANCE
549.9	0.002825
559.547	0.001795
569.193	0.002015
578.84	0.002365
588.486	0.0014905
598.133	0.0009024
607.779	0.00069798
617.426	0.0006415
627.072	0.000423
636.719	0.00045
646.365	0.0005769
656.012	0.00068026
665.658	0.00064444
675.305	0.00069579
684.951	0.0007254
694.598	0.000571
704.245	0.00068193
713.891	0.0013838
723.538	0.001955
733.184	0.002385
742.831	0.002335
752.477	0.001845
762.124	0.001865
771.77	0.002945
781.417	0.003895
791.063	0.003595
800.71	0.003035
810.356	0.002905
820.003	0.003205
829.649	0.005605
839.296	0.005855
848.943	0.003205
858.589	0.002595
868.236	0.003805
877.882	0.004945
887.529	0.003605
897.175	0.002255
906.822	0.002695
916.468	0.003435
926.115	0.003405
935.761	0.003485
945.408	0.002935
955.054	0.002465
964.701	0.003145
974.347	0.003665
983.994	0.004305
993.64	0.006555
1003.29	0.010015
1012.93	0.011375
1022.58	0.009745
1032.23	0.008485
1041.87	0.010225
1051.52	0.012845
1061.17	0.010875
1070.81	0.007505
1080.46	0.006545
1090.11	0.006935
1099.75	0.009355
1109.4	0.018535
1119.05	0.030545
1128.69	0.027555
1138.34	0.016595
1147.99	0.012155
1157.63	0.009395
1167.28	0.006595
1176.92	0.004745
1186.57	0.005325
1196.22	0.008885
1205.86	0.012785
1215.51	0.013485
1225.16	0.011515
1234.8	0.010975
1244.45	0.010615
1254.1	0.009725
1263.74	0.008715
1273.39	0.008945
1283.04	0.009855
1292.68	0.010905
1302.33	0.013355
1311.98	0.016035
1321.62	0.013645
1331.27	0.013135
1340.92	0.014255
1350.56	0.012305
1360.21	0.011905
1369.86	0.014975
1379.5	0.020485
1389.15	0.018105
1398.79	0.009435
1408.44	0.006905
1418.09	0.009465
1427.73	0.013995
1437.38	0.017715
1447.03	0.027175
1456.67	0.035615
1466.32	0.031555
1475.97	0.019845
1485.61	0.009265
1495.26	0.004655
1504.91	0.003055
1514.55	0.002345
1524.2	0.001945
1533.85	0.001635
1543.49	0.0015782
1553.14	0.0014938
1562.79	0.0014159
1572.43	0.0013847
1582.08	0.0014709
1591.73	0.0015098
1601.37	0.001665
1611.02	0.001765
1620.67	0.001995
1630.31	0.002345
1639.96	0.002765
1649.6	0.003415
1659.25	0.004485
1668.9	0.006185
1678.54	0.009085
1688.19	0.013855
1697.84	0.026995
1707.48	0.071155
1717.13	0.150325
1726.78	0.165005
1736.42	0.083665
1746.07	0.029475
1755.72	0.013925
1765.36	0.008705
1775.01	0.006035
1784.66	0.004515
1794.3	0.003325
1803.95	0.002545
1813.6	0.001865
1823.24	0.0014284
1832.89	0.0011805
1842.54	0.0010428
1852.18	0.0009189
1861.83	0.0008227
1871.47	0.00068619
1881.12	0.00062944
1890.77	0.000506
1900.41	0.000473
1910.06	0.000431
1919.71	0.000467
1929.35	0.000445
1939	0.000365
1948.65	0.000318
1958.29	0.00032
1967.94	0.000206
1977.59	0.000141
1987.23	0.000162
1996.88	0.000173
2006.53	0.000122
2016.17	8.5e-05
2025.82	9.4e-05
2035.47	0.000136
2045.11	0.000147
2054.76	6.1e-05
2064.41	2.9e-05
2074.05	9.6e-05
2083.7	0.000102
2093.35	9.6e-05
2102.99	6.4e-05
2112.64	5.9e-05
2122.28	0.000109
2131.93	5.8e-05
2141.58	9.4e-05
2151.22	0.000167
2160.87	0.000134
2170.52	0.000156
2180.16	0.000213
2189.81	0.000212
2199.46	0.000166
2209.1	0.000158
2218.75	0.000133
2228.4	0.000135
2238.04	8e-05
2247.69	0.000111
2257.34	0.000185
2266.98	0.000148
2276.63	0.000159
2286.28	0.000223
2295.92	0.000214
2305.57	0.000208
2315.22	0.000226
2324.86	0.000225
2334.51	0.000242
2344.16	0.000303
2353.8	0.000324
2363.45	0.000272
2373.09	0.000344
2382.74	0.000325
2392.39	0.00036
2402.03	0.00038
2411.68	0.000369
2421.33	0.000347
2430.97	0.000214
2440.62	0.000173
2450.27	0.000152
2459.91	7.9e-05
2469.56	0.000171
2479.21	9.2e-05
2488.85	0.000104
2498.5	0.000115
2508.15	0.000132
2517.79	0.000174
2527.44	0.00019
2537.09	0.000225
2546.73	0.000232
2556.38	0.000353
2566.03	0.000456
2575.67	0.0005628
2585.32	0.0007473
2594.96	0.000838
2604.61	0.0008987
2614.26	0.0009758
2623.9	0.0009929
2633.55	0.0011043
2643.2	0.0013248
2652.84	0.001715
2662.49	0.002125
2672.14	0.002325
2681.78	0.001885
2691.43	0.0015541
2701.08	0.0014671
2710.72	0.0014315
2720.37	0.001735
2730.02	0.002205
2739.66	0.002695
2749.31	0.002705
2758.96	0.002665
2768.6	0.002985
2778.25	0.003525
2787.9	0.004445
2797.54	0.005495
2807.19	0.006485
2816.84	0.007835
2826.48	0.010605
2836.13	0.016275
2845.77	0.026365
2855.42	0.046565
2865.07	0.081935
2874.71	0.103595
2884.36	0.093155
2894.01	0.072215
2903.65	0.067855
2913.3	0.085435
2922.95	0.123905
2932.59	0.192835
2942.24	0.254615
2951.89	0.217835
2961.53	0.185955
2971.18	0.177305
2980.83	0.110535
2990.47	0.048965
3000.12	0.023235
3009.77	0.013805
3019.41	0.009855
3029.06	0.007605
3038.71	0.006335
3048.35	0.005445
3058	0.004745
3067.64	0.004095
3077.29	0.003565
3086.94	0.003005
3096.58	0.002735
3106.23	0.002575
3115.88	0.002225
3125.52	0.002045
3135.17	0.001945
3144.82	0.001865
3154.46	0.001765
3164.11	0.0015545
3173.76	0.0013595
3183.4	0.0012922
3193.05	0.0012645
3202.7	0.0008408
3212.34	0.0007984
3221.99	0.0005673
3231.64	0.000763
3241.28	0.00063638
3250.93	0.0005467
3260.58	0.000267
3270.22	0.000256
3279.87	0.000146
3289.52	0.000239
3299.16	0.000163
3308.81	0.000179
3318.45	0.000209
3328.1	0.000286
3337.75	0.00035
3347.39	0.000348
3357.04	0.0005238
3366.69	0.000401
3376.33	0.0005607
3385.98	0.0010474
3395.63	0.0010028
3405.27	0.0015747
3414.92	0.002475
3424.57	0.002885
3434.21	0.002825
3443.86	0.001815
3453.51	0.0009493
3463.15	0.0005819
3472.8	0.000504
3482.45	0.0005261
3492.09	0.000426
3501.74	0.000415
3511.39	0.000289
3521.03	0.000235
3530.68	0.000197
3540.33	8.9e-05
3549.97	0.000288
3559.62	0.000174
3569.26	0.000202
3578.91	0.000197
3588.56	8.7e-05
3598.2	0.000161
3607.85	8.1e-05
3617.5	9.4e-05
3627.14	0.000126
3636.79	9.6e-05
3646.44	0.000116
3656.08	9.3e-05
3665.73	0.000197
3675.38	0.000121
3685.02	0.000267
3694.67	0.000277
3704.32	0.000299
3713.96	0.000304
3723.61	0.000183
3733.26	9.8e-05
3742.9	0.000221
3752.55	0.000193
3762.2	0.000251
3771.84	0.000352
3781.49	0.000375
3791.13	0.000305
3800.78	0.000214
3810.43	0.000241
3820.07	0.000222
3829.72	0.000334
3839.37	0.000272
3849.01	0.00027
3858.66	0.00043
3868.31	0.000323
3877.95	0.000326
3887.6	0.000323
3897.25	0.000405
3906.89	0.000379
3916.54	0.000439
3926.19	0.000313
3935.83	0.000362
3945.48	0.000324
3955.13	0.00049
3964.77	0.000343
3974.42	0.000483
3984.07	0.000507
3993.71	0.0005532
