Infrared Spectrum: 2-Amino-4-methylbenzothiazole
Formula: C 8 H 8 N 2 S
CAS: 1477-42-5
State: gas
Origin: EPA-IR VAPOR PHASE LIBRARY
1/CM	ABSORBANCE
549.8	0.009361
559.445	0.008001
569.09	0.005171
578.734	0.003331
588.379	0.003451
598.024	0.004141
607.669	0.004471
617.313	0.005341
626.958	0.005441
636.603	0.006291
646.248	0.008791
655.893	0.010621
665.537	0.011371
675.182	0.011181
684.827	0.010301
694.472	0.009101
704.116	0.007851
713.761	0.007221
723.406	0.007981
733.051	0.013821
742.695	0.027341
752.34	0.026171
761.985	0.021901
771.63	0.014551
781.275	0.008871
790.919	0.007231
800.564	0.006331
810.209	0.005191
819.854	0.004831
829.498	0.004251
839.143	0.003791
848.788	0.004521
858.433	0.007591
868.078	0.009711
877.722	0.008791
887.367	0.008531
897.012	0.006321
906.657	0.003341
916.301	0.002711
925.946	0.002651
935.591	0.002651
945.236	0.002671
954.88	0.002841
964.525	0.003011
974.17	0.003511
983.815	0.003401
993.46	0.003351
1003.1	0.003001
1012.75	0.002011
1022.39	0.002051
1032.04	0.002471
1041.68	0.003041
1051.33	0.004501
1060.97	0.007681
1070.62	0.009821
1080.26	0.009591
1089.91	0.007441
1099.55	0.007401
1109.2	0.006111
1118.84	0.003701
1128.49	0.002281
1138.13	0.002581
1147.78	0.002961
1157.42	0.003461
1167.07	0.003251
1176.71	0.004091
1186.36	0.004081
1196	0.002951
1205.64	0.002411
1215.29	0.003151
1224.93	0.004521
1234.58	0.006751
1244.22	0.007851
1253.87	0.008051
1263.51	0.012871
1273.16	0.021341
1282.8	0.031251
1292.45	0.036461
1302.09	0.029051
1311.74	0.020031
1321.38	0.017451
1331.03	0.015561
1340.67	0.011161
1350.32	0.006631
1359.96	0.004241
1369.61	0.003511
1379.25	0.004001
1388.9	0.004981
1398.54	0.012051
1408.18	0.024271
1417.83	0.021541
1427.47	0.009411
1437.12	0.006021
1446.76	0.006871
1456.41	0.009221
1466.05	0.010231
1475.7	0.008471
1485.34	0.005611
1494.99	0.004421
1504.63	0.005851
1514.28	0.009111
1523.92	0.018001
1533.57	0.051871
1543.21	0.076851
1552.86	0.049071
1562.5	0.021611
1572.15	0.018071
1581.79	0.020281
1591.44	0.027231
1601.08	0.053281
1610.73	0.085241
1620.37	0.070561
1630.01	0.029511
1639.66	0.012611
1649.3	0.006971
1658.95	0.004221
1668.59	0.002841
1678.24	0.002051
1687.88	0.001871
1697.53	0.001811
1707.17	0.001531
1716.82	0.001361
1726.46	0.001471
1736.11	0.001741
1745.75	0.002191
1755.4	0.002671
1765.04	0.002121
1774.69	0.001441
1784.33	0.001161
1793.98	0.0010635
1803.62	0.0011152
1813.27	0.001371
1822.91	0.001761
1832.55	0.001581
1842.2	0.0009466
1851.84	0.00083
1861.49	0.0006269
1871.13	0.0008071
1880.78	0.001068
1890.42	0.001761
1900.07	0.001881
1909.71	0.0010835
1919.36	0.0007651
1929	0.0008359
1938.65	0.0007817
1948.29	0.0007173
1957.94	0.0007383
1967.58	0.0007595
1977.23	0.0007349
1986.87	0.0006751
1996.52	0.0006957
2006.16	0.0007389
2015.81	0.0007335
2025.45	0.0006439
2035.1	0.0005364
2044.74	0.0005081
2054.38	0.0005575
2064.03	0.0006792
2073.67	0.0008188
2083.32	0.0007901
2092.96	0.0006644
2102.61	0.0007048
2112.25	0.0006544
2121.9	0.0005924
2131.54	0.0006072
2141.19	0.0005646
2150.83	0.000587
2160.48	0.0005979
2170.12	0.0005715
2179.77	0.0005604
2189.41	0.0004948
2199.06	0.0004451
2208.7	0.0005111
2218.35	0.0006142
2227.99	0.0004945
2237.64	0.0005277
2247.28	0.0005075
2256.92	0.0005225
2266.57	0.0006569
2276.21	0.0007334
2285.86	0.0006282
2295.5	0.0005447
2305.15	0.0004745
2314.79	0.0004489
2324.44	0.0003967
2334.08	0.0003841
2343.73	0.0004073
2353.37	0.0004906
2363.02	0.0005308
2372.66	0.0005121
2382.31	0.0004821
2391.95	0.0003581
2401.6	0.000424
2411.24	0.0004577
2420.89	0.0004024
2430.53	0.0003039
2440.18	0.0002803
2449.82	0.000307
2459.47	0.0003883
2469.11	0.0004056
2478.75	0.0004303
2488.4	0.0003779
2498.04	0.0004413
2507.69	0.0003048
2517.33	0.0003465
2526.98	0.0003485
2536.62	0.0003208
2546.27	0.0004227
2555.91	0.0004371
2565.56	0.0004173
2575.2	0.0003801
2584.85	0.0004085
2594.49	0.0005706
2604.14	0.0007954
2613.78	0.0007982
2623.43	0.0006002
2633.07	0.0006561
2642.72	0.000625
2652.36	0.0005125
2662.01	0.0005207
2671.65	0.0006107
2681.29	0.0006871
2690.94	0.000854
2700.58	0.0008835
2710.23	0.0008251
2719.87	0.0007792
2729.52	0.0006529
2739.16	0.0006892
2748.81	0.0005419
2758.45	0.0004379
2768.1	0.0004808
2777.74	0.0004936
2787.39	0.0004248
2797.03	0.0006051
2806.68	0.0006169
2816.32	0.0008128
2825.97	0.001102
2835.61	0.001511
2845.26	0.002001
2854.9	0.002661
2864.55	0.003421
2874.19	0.003501
2883.84	0.003101
2893.48	0.003611
2903.12	0.004311
2912.77	0.005501
2922.41	0.007401
2932.06	0.009861
2941.7	0.008361
2951.35	0.004891
2960.99	0.004411
2970.64	0.004361
2980.28	0.004191
2989.93	0.003461
2999.57	0.002751
3009.22	0.003421
3018.86	0.004431
3028.51	0.004861
3038.15	0.006171
3047.8	0.007731
3057.44	0.008711
3067.09	0.009931
3076.73	0.008981
3086.38	0.005121
3096.02	0.002001
3105.67	0.001371
3115.31	0.001201
3124.95	0.001161
3134.6	0.0010418
3144.24	0.0009013
3153.89	0.0007228
3163.53	0.0006665
3173.18	0.0006489
3182.82	0.0005599
3192.47	0.0006039
3202.11	0.0006473
3211.76	0.0007022
3221.4	0.0006469
3231.05	0.0007552
3240.69	0.0004497
3250.34	0.0003314
3259.98	0.0003011
3269.63	0.0001215
3279.27	0.0003291
3288.92	0.00023695
3298.56	0.0002561
3308.21	0.0002727
3317.85	0.0002878
3327.49	0.0003623
3337.14	0.0003016
3346.78	0.0003631
3356.43	0.0003838
3366.07	0.0006281
3375.72	0.001201
3385.36	0.002281
3395.01	0.006291
3404.65	0.014471
3414.3	0.018421
3423.94	0.012901
3433.59	0.005971
3443.23	0.002621
3452.88	0.001361
3462.52	0.001211
3472.17	0.001361
3481.81	0.001811
3491.46	0.003881
3501.1	0.007571
3510.75	0.009001
3520.39	0.006981
3530.04	0.004631
3539.68	0.002871
3549.32	0.001221
3558.97	0.0008723
3568.61	0.0004924
3578.26	0.00023021
3587.9	0.0002947
3597.55	0.0003069
3607.19	0.0003024
3616.84	0.0002824
3626.48	0.0003695
3636.13	0.00024777
3645.77	0.00017786
3655.42	0.0003577
3665.06	0.0003148
3674.71	1e-05
3684.35	0.0004681
3694	0.0002567
3703.64	0.0003351
3713.29	0.0003414
3722.93	0.0003291
3732.58	0.0004406
3742.22	0.00024567
3751.86	0.0004178
3761.51	0.0005938
3771.15	0.0004095
3780.8	0.0004784
3790.44	0.0003062
3800.09	0.00024295
3809.73	0.0002588
3819.38	0.0003127
3829.02	0.0003068
3838.67	0.0003259
3848.31	0.0003474
3857.96	0.0003876
3867.6	0.0004511
3877.25	0.0006639
3886.89	0.0005767
3896.54	0.0004031
3906.18	0.0004314
3915.83	0.0006754
3925.47	0.0004448
3935.12	0.0006571
3944.76	0.0004233
3954.41	0.0004596
3964.05	0.0002756
3973.69	0.00022161
3983.34	0.0003657
3992.98	0.00022152
