Infrared Spectrum: Indole-2-carboxylic acid
Formula: C 9 H 7 N O 2
CAS: 1477-50-5
State: gas
Origin: EPA-IR VAPOR PHASE LIBRARY
1/CM	ABSORBANCE
501.5	0.008107
513.074	0.012517
524.648	0.018747
536.222	0.021187
547.796	0.011737
559.37	0.006007
570.944	0.009547
582.518	0.005567
594.092	0.001877
605.666	0.002347
617.24	0.001837
628.814	0.0009768
640.388	0.0008956
651.962	0.0007968
663.536	0.001437
675.11	0.006377
686.684	0.009347
698.258	0.004257
709.832	0.002257
721.406	0.005707
732.98	0.015457
744.554	0.020557
756.128	0.013247
767.702	0.010207
779.276	0.006777
790.85	0.003617
802.423	0.002957
813.997	0.003657
825.571	0.004017
837.145	0.003127
848.719	0.002607
860.293	0.001957
871.867	0.002197
883.441	0.002867
895.015	0.002507
906.589	0.002087
918.163	0.002617
929.737	0.003207
941.311	0.003397
952.885	0.002977
964.459	0.002827
976.033	0.003007
987.607	0.002907
999.181	0.002507
1010.76	0.002527
1022.33	0.002687
1033.9	0.002537
1045.48	0.002527
1057.05	0.004057
1068.63	0.007587
1080.2	0.010457
1091.77	0.013217
1103.35	0.015457
1114.92	0.021987
1126.49	0.050007
1138.07	0.072877
1149.64	0.040767
1161.22	0.031917
1172.79	0.013967
1184.36	0.007547
1195.94	0.011387
1207.51	0.008897
1219.09	0.007347
1230.66	0.007767
1242.23	0.006767
1253.81	0.006057
1265.38	0.006917
1276.96	0.006117
1288.53	0.008197
1300.1	0.017397
1311.68	0.015807
1323.25	0.013577
1334.83	0.012677
1346.4	0.011067
1357.97	0.009937
1369.55	0.010527
1381.12	0.015957
1392.7	0.011687
1404.27	0.006177
1415.84	0.007827
1427.42	0.006587
1438.99	0.003567
1450.57	0.002867
1462.14	0.001827
1473.71	0.001587
1485.29	0.001537
1496.86	0.001967
1508.44	0.002837
1520.01	0.006197
1531.58	0.013787
1543.16	0.021887
1554.73	0.012717
1566.31	0.005117
1577.88	0.005197
1589.45	0.002927
1601.03	0.002287
1612.6	0.003257
1624.18	0.003337
1635.75	0.001837
1647.32	0.001967
1658.9	0.002697
1670.47	0.002737
1682.05	0.002497
1693.62	0.003247
1705.19	0.004667
1716.77	0.007507
1728.34	0.021197
1739.92	0.074817
1751.49	0.087967
1763.06	0.051777
1774.64	0.035417
1786.21	0.007837
1797.79	0.002957
1809.36	0.002277
1820.93	0.002307
1832.51	0.002057
1844.08	0.001667
1855.66	0.001367
1867.23	0.0011294
1878.8	0.001777
1890.38	0.002157
1901.95	0.001367
1913.53	0.001317
1925.1	0.001277
1936.67	0.0006446
1948.25	0.0004415
1959.82	0.0003579
1971.4	0.00029561
1982.97	0.00027227
1994.54	0.0003402
2006.12	0.00032441
2017.69	0.0003556
2029.27	0.0003691
2040.84	0.0003758
2052.41	0.0003558
2063.99	0.0003874
2075.56	0.000481
2087.14	0.0005608
2098.71	0.0005391
2110.28	0.0005082
2121.86	0.0004499
2133.43	0.0003823
2145.01	0.00031009
2156.58	0.0003258
2168.15	0.0003046
2179.73	0.00030323
2191.3	0.00027692
2202.88	0.00031039
2214.45	0.0003956
2226.02	0.0004923
2237.6	0.0005205
2249.17	0.0004976
2260.74	0.0004931
2272.32	0.0004728
2283.89	0.0004638
2295.47	0.000551
2307.04	0.000628
2318.61	0.0006671
2330.19	0.0007386
2341.76	0.0006891
2353.34	0.0006934
2364.91	0.0008306
2376.48	0.0006232
2388.06	0.0004273
2399.63	0.00029961
2411.21	0.0003274
2422.78	0.0003737
2434.35	0.0003645
2445.93	0.000387
2457.5	0.0003528
2469.08	0.00032692
2480.65	0.00033534
2492.22	0.000449
2503.8	0.0004887
2515.37	0.0005862
2526.95	0.0004423
2538.52	0.0004604
2550.09	0.0004731
2561.67	0.0004989
2573.24	0.0005502
2584.82	0.0005464
2596.39	0.0004314
2607.96	0.0004171
2619.54	0.0003483
2631.11	0.00029618
2642.69	0.00031647
2654.26	0.00029736
2665.83	0.00033178
2677.41	0.0003925
2688.98	0.0003605
2700.56	0.0003822
2712.13	0.0003785
2723.7	0.00032431
2735.28	0.00028058
2746.85	0.00029607
2758.43	0.00030561
2770	0.00028375
2781.57	0.00031099
2793.15	0.0001988
2804.72	0.00025755
2816.3	0.0003391
2827.87	0.0003821
2839.44	0.0003867
2851.02	0.0004215
2862.59	0.0005488
2874.17	0.0005169
2885.74	0.0005275
2897.31	0.0004353
2908.89	0.0004045
2920.46	0.0004461
2932.04	0.0006258
2943.61	0.0007825
2955.18	0.000794
2966.76	0.000779
2978.33	0.0007497
2989.91	0.0006985
3001.48	0.0007063
3013.05	0.0009986
3024.63	0.001637
3036.2	0.002447
3047.78	0.003027
3059.35	0.005217
3070.92	0.008227
3082.5	0.005187
3094.07	0.002707
3105.65	0.0010437
3117.22	0.0005731
3128.79	0.0005212
3140.37	0.0004061
3151.94	0.00029713
3163.52	0.00031697
3175.09	0.0003446
3186.66	0.00027278
3198.24	0.00027402
3209.81	0.00024882
3221.39	0.0001573
3232.96	0.00013
3244.53	0.0001892
3256.11	0.0001953
3267.68	0.00030106
3279.26	0.0003415
3290.83	0.0004413
3302.4	0.00030496
3313.98	0.00031171
3325.55	0.00024804
3337.13	0.000239594
3348.7	0.0002198
3360.27	0.0001956
3371.85	0.0001852
3383.42	0.000123
3395	8.3e-05
3406.57	0.0001659
3418.14	0.00029359
3429.72	0.0005617
3441.29	0.0009343
3452.86	0.002047
3464.44	0.004237
3476.01	0.008737
3487.59	0.015737
3499.16	0.014967
3510.73	0.007627
3522.31	0.002737
3533.88	0.000927
3545.46	0.0006937
3557.03	0.0010457
3568.6	0.003667
3580.18	0.025557
3591.75	0.027367
3603.33	0.002967
3614.9	0.0007668
3626.47	0.0004905
3638.05	0.0003967
3649.62	0.0003376
3661.2	0.000239118
3672.77	0.00023563
3684.34	0.00018
3695.92	0.0001867
3707.49	9.1e-05
3719.07	0.0001606
3730.64	0.00030075
3742.21	0.0001592
3753.79	9.7e-05
3765.36	0
3776.94	2.6e-05
3788.51	0.000134
3800.08	9.5e-05
3811.66	0.0001537
3823.23	7.6e-05
3834.81	3.4e-05
3846.38	0.000105
3857.95	7.5e-05
3869.53	0.000132
3881.1	8e-05
3892.68	0.000111
3904.25	0.0001787
3915.82	0.0001932
3927.4	0.00026214
3938.97	0.000241782
3950.55	0.0002026
3962.12	0.000236283
3973.69	2.2e-05
3985.27	4e-05
3996.84	4.4e-05
