Infrared Spectrum: 2-Amino-5-bromo-2'-fluoro-benzophenone
Formula: C 13 H 9 Br F N O
CAS: 1479-58-9
State: gas
Origin: EPA-IR VAPOR PHASE LIBRARY
1/CM	ABSORBANCE
549.8	0.01399
559.445	0.01339
569.09	0.01472
578.734	0.01303
588.379	0.01218
598.024	0.0132
607.669	0.01604
617.313	0.02081
626.958	0.03441
636.603	0.034
646.248	0.05301
655.893	0.01988
665.537	0.01365
675.182	0.01306
684.827	0.01482
694.472	0.01517
704.116	0.01476
713.761	0.01439
723.406	0.01553
733.051	0.01821
742.695	0.0282
752.34	0.09279
761.985	0.04253
771.63	0.02092
781.275	0.01499
790.919	0.01383
800.564	0.02145
810.209	0.04839
819.854	0.02894
829.498	0.0158
839.143	0.02337
848.788	0.01522
858.433	0.01303
868.078	0.0113
877.722	0.01097
887.367	0.01291
897.012	0.01239
906.657	0.0114
916.301	0.01368
925.946	0.02128
935.591	0.05605
945.236	0.06563
954.88	0.03114
964.525	0.01042
974.17	0.00751
983.815	0.00663
993.46	0.00592
1003.1	0.00579
1012.75	0.00501
1022.39	0.00596
1032.04	0.00849
1041.68	0.00759
1051.33	0.00852
1060.97	0.00871
1070.62	0.00894
1080.26	0.00982
1089.91	0.01637
1099.55	0.02207
1109.2	0.01895
1118.84	0.01336
1128.49	0.01532
1138.13	0.02531
1147.78	0.03338
1157.42	0.07359
1167.07	0.02937
1176.71	0.0114
1186.36	0.01321
1196	0.01909
1205.64	0.02914
1215.29	0.06644
1224.93	0.11619
1234.58	0.13832
1244.22	0.09049
1253.87	0.04201
1263.51	0.04088
1273.16	0.03497
1282.8	0.04012
1292.45	0.08829
1302.09	0.12218
1311.74	0.06664
1321.38	0.04056
1331.03	0.02543
1340.67	0.00925
1350.32	0.00678
1359.96	0.0061
1369.61	0.0058
1379.25	0.00591
1388.9	0.00881
1398.54	0.02168
1408.18	0.02499
1417.83	0.01185
1427.47	0.01126
1437.12	0.01742
1446.76	0.04164
1456.41	0.05285
1466.05	0.0563
1475.7	0.08255
1485.34	0.06798
1494.99	0.03592
1504.63	0.02058
1514.28	0.01889
1523.92	0.02232
1533.57	0.03484
1543.21	0.06105
1552.86	0.0547
1562.5	0.0392
1572.15	0.05267
1581.79	0.08629
1591.44	0.09114
1601.08	0.10053
1610.73	0.1784
1620.37	0.11135
1630.01	0.04435
1639.66	0.03725
1649.3	0.07274
1658.95	0.13591
1668.59	0.07864
1678.24	0.03496
1687.88	0.02172
1697.53	0.01585
1707.17	0.01094
1716.82	0.00807
1726.46	0.00627
1736.11	0.00514
1745.75	0.00441
1755.4	0.00444
1765.04	0.004
1774.69	0.00486
1784.33	0.00478
1793.98	0.00396
1803.62	0.00305
1813.27	0.00225
1822.91	0.00237
1832.55	0.0028
1842.2	0.00223
1851.84	0.00169
1861.49	0.00203
1871.13	0.00272
1880.78	0.00402
1890.42	0.00384
1900.07	0.00283
1909.71	0.00329
1919.36	0.00273
1929	0.00209
1938.65	0.00251
1948.29	0.00284
1957.94	0.00143
1967.58	0.00143
1977.23	0.00122
1986.87	0.00104
1996.52	0.00104
2006.16	0.000913
2015.81	0.00117
2025.45	0.0013
2035.1	0.00133
2044.74	0.00147
2054.38	0.00127
2064.03	0.00134
2073.67	0.00144
2083.32	0.00129
2092.96	0.00104
2102.61	0.00116
2112.25	0.00113
2121.9	0.00103
2131.54	0.00103
2141.19	0.00106
2150.83	0.0008236
2160.48	0.0009596
2170.12	0.0008809
2179.77	0.0009521
2189.41	0.00101
2199.06	0.00108
2208.7	0.00105
2218.35	0.00103
2227.99	0.00104
2237.64	0.00125
2247.28	0.00116
2256.92	0.00139
2266.57	0.00129
2276.21	0.00109
2285.86	0.00136
2295.5	0.00136
2305.15	0.00144
2314.79	0.00163
2324.44	0.00157
2334.08	0.00118
2343.73	0.0009473
2353.37	0.00104
2363.02	0.00104
2372.66	0.00144
2382.31	0.00148
2391.95	0.00161
2401.6	0.00125
2411.24	0.00125
2420.89	0.00149
2430.53	0.00132
2440.18	0.00159
2449.82	0.00158
2459.47	0.00141
2469.11	0.0012
2478.75	0.00102
2488.4	0.000792
2498.04	0.000694
2507.69	0.0008366
2517.33	0.0007343
2526.98	0.0008112
2536.62	0.0009069
2546.27	0.00114
2555.91	0.00109
2565.56	0.00105
2575.2	0.00116
2584.85	0.0009359
2594.49	0.0009553
2604.14	0.00103
2613.78	0.00128
2623.43	0.00127
2633.07	0.00145
2642.72	0.00148
2652.36	0.0009874
2662.01	0.00124
2671.65	0.0008374
2681.29	0.0008551
2690.94	0.0012
2700.58	0.00171
2710.23	0.00139
2719.87	0.00139
2729.52	0.00126
2739.16	0.0007569
2748.81	0.0007173
2758.45	0.00121
2768.1	0.00137
2777.74	0.00139
2787.39	0.0011
2797.03	0.00101
2806.68	0.00102
2816.32	0.0007964
2825.97	0.0008764
2835.61	0.00145
2845.26	0.0008547
2854.9	0.0008472
2864.55	0.00111
2874.19	0.0012
2883.84	0.0012
2893.48	0.00131
2903.12	0.00143
2912.77	0.00121
2922.41	0.00111
2932.06	0.00146
2941.7	0.00127
2951.35	0.0009399
2960.99	0.0007783
2970.64	0.0006867
2980.28	0.0008491
2989.93	0.00126
2999.57	0.00122
3009.22	0.0024
3018.86	0.00413
3028.51	0.00696
3038.15	0.00825
3047.8	0.00808
3057.44	0.00926
3067.09	0.01132
3076.73	0.01233
3086.38	0.01339
3096.02	0.00695
3105.67	0.00318
3115.31	0.00254
3124.95	0.00162
3134.6	0.0015
3144.24	0.00166
3153.89	0.0016
3163.53	0.00153
3173.18	0.0012
3182.82	0.00128
3192.47	0.00119
3202.11	0.00131
3211.76	0.00136
3221.4	0.00124
3231.05	0.00133
3240.69	0.00161
3250.34	0.00177
3259.98	0.00163
3269.63	0.00191
3279.27	0.00171
3288.92	0.00219
3298.56	0.00209
3308.21	0.00233
3317.85	0.00302
3327.49	0.00443
3337.14	0.00684
3346.78	0.01185
3356.43	0.02292
3366.07	0.03353
3375.72	0.02606
3385.36	0.01576
3395.01	0.009
3404.65	0.00522
3414.3	0.00347
3423.94	0.00252
3433.59	0.00214
3443.23	0.00204
3452.88	0.00205
3462.52	0.00271
3472.17	0.00419
3481.81	0.00634
3491.46	0.01074
3501.1	0.01755
3510.75	0.02423
3520.39	0.02396
3530.04	0.01435
3539.68	0.00626
3549.32	0.00283
3558.97	0.00148
3568.61	0.00135
3578.26	0.0006789
3587.9	0.0007204
3597.55	0.0008278
3607.19	0.0009294
3616.84	0.0005018
3626.48	0.0003049
3636.13	0.0006662
3645.77	0.0008614
3655.42	0.0005625
3665.06	0.0007314
3674.71	0.0006119
3684.35	0.0007511
3694	0.0006481
3703.64	0.0007392
3713.29	0.0004381
3722.93	0.0009802
3732.58	0.0008774
3742.22	0.0009803
3751.86	0.000928
3761.51	0.0006562
3771.15	0.0009577
3780.8	0.0006917
3790.44	0.0006992
3800.09	0.0004739
3809.73	0.0004935
3819.38	0.0005958
3829.02	0.0008167
3838.67	0.0004323
3848.31	0.0007249
3857.96	0.000428
3867.6	0.0008917
3877.25	0.0005205
3886.89	0.0009023
3896.54	0.0009982
3906.18	0.001
3915.83	0.0006918
3925.47	0.0008781
3935.12	0.0006484
3944.76	0.000609
3954.41	0.000725
3964.05	0.0005183
3973.69	0.000618
3983.34	0.0005364
3992.98	0.0009943
