Infrared Spectrum: Thiabendazol
Formula: C 10 H 7 N 3 S
CAS: 148-79-8
State: gas
Instrument: HP-GC/MS/IRD
Origin: NIST Mass Spectrometry Data Center
1/CM	ABSORBANCE
550	0.0004444
562	0.0004994
574	0.0006424
586	0.000352
598	0.0001914
610	0.0002794
622	0.0003773
634	0.0001826
646	6.38e-05
658	0.0001804
670	0.000176
682	0.0002002
694	0.0002277
706	0.0004092
718	0.0015719
730	0.0069487
742	0.0097273
754	0.0037961
766	0.0015543
778	0.000638
790	0.0005137
802	0.0017644
814	0.0054527
826	0.0046178
838	0.001331
850	0.0007821
862	0.0021527
874	0.0061919
886	0.0048466
898	0.0048642
910	0.0012694
922	0.0009317
934	0.0007117
946	0.0009493
958	0.0010802
970	0.0009878
982	0.0006204
994	0.0007018
1006	0.0011198
1018	0.0010263
1030	0.0012056
1042	0.0013046
1054	0.0006743
1066	0.000704
1078	0.0009691
1090	0.0005973
1102	0.0003366
1114	0.0002497
1126	0.0002409
1138	0.0005632
1150	0.0011022
1162	0.0009625
1174	0.0006182
1186	0.0002233
1198	0.0002299
1210	0.0008151
1222	0.0014267
1234	0.0006424
1246	0.0007216
1258	0.0030283
1270	0.0079684
1282	0.0023232
1294	0.0044616
1306	0.0060478
1318	0.0033209
1330	0.0026147
1342	0.0037994
1354	0.0045265
1366	0.0022572
1378	0.0030602
1390	0.0085426
1402	0.0087571
1414	0.0063294
1426	0.0036971
1438	0.0023177
1450	0.0038445
1462	0.0020295
1474	0.0018546
1486	0.0035816
1498	0.0046321
1510	0.0015147
1522	0.0006259
1534	0.0003883
1546	0.0003751
1558	0.0006952
1570	0.0014894
1582	0.0013783
1594	0.000528
1606	0.0004213
1618	0.0010043
1630	0.0009218
1642	0.0005148
1654	0.0004521
1666	0.0004015
1678	0.0001903
1690	0.0001694
1702	4.62e-05
1714	0.0001133
1726	0.0001331
1738	6.49e-05
1750	0.0001793
1762	0.0002838
1774	0.0001375
1786	9.68e-05
1798	0.0002695
1810	7.37e-05
1822	4.4e-05
1834	0.0001397
1846	0.0002376
1858	0.0001243
1870	0.0002024
1882	0.0003091
1894	0.0001584
1906	0.0001474
1918	0.0004642
1930	0.0001837
1942	2.42e-05
1954	1.43e-05
1966	5.5e-06
1978	2.53e-05
1990	3.3e-06
2002	1.32e-05
2014	1.54e-05
2026	2.64e-05
2038	3.3e-05
2050	6.49e-05
2062	3.52e-05
2074	2.42e-05
2086	1.43e-05
2098	3.41e-05
2110	5.06e-05
2122	6.49e-05
2134	6.6e-05
2146	8.47e-05
2158	7.15e-05
2170	7.59e-05
2182	8.03e-05
2194	9.24e-05
2206	0.00011
2218	0.0001177
2230	0.0001342
2242	0.0001166
2254	0.0001199
2266	9.68e-05
2278	9.46e-05
2290	9.79e-05
2302	0.0001166
2314	0.0001067
2326	8.58e-05
2338	8.47e-05
2350	6.6e-05
2362	8.69e-05
2374	0.0001419
2386	0.0001364
2398	0.0001331
2410	9.68e-05
2422	9.35e-05
2434	0.0001034
2446	0.0001386
2458	0.0001309
2470	0.0001705
2482	0.0001397
2494	0.0001595
2506	0.0002189
2518	0.0002255
2530	0.0001947
2542	0.0001947
2554	0.0001969
2566	0.0001859
2578	0.0001749
2590	0.0001892
2602	0.0002156
2614	0.0001628
2626	0.0001331
2638	0.0001628
2650	0.0001562
2662	0.0001672
2674	0.0001958
2686	0.0002046
2698	0.0002277
2710	0.0001925
2722	0.0001848
2734	0.0001892
2746	0.0002024
2758	0.0002167
2770	0.0002299
2782	0.0003201
2794	0.0003344
2806	0.000297
2818	0.0002277
2830	0.0001903
2842	0.0002728
2854	0.0002321
2866	0.0002431
2878	0.0002563
2890	0.0002992
2902	0.0002838
2914	0.0002607
2926	0.0002574
2938	0.0002519
2950	0.0003322
2962	0.0003751
2974	0.0003927
2986	0.0002882
2998	0.0003025
3010	0.0003586
3022	0.0004774
3034	0.0009999
3046	0.0016159
3058	0.0026763
3070	0.0041855
3082	0.002915
3094	0.0015587
3106	0.0007722
3118	0.0006501
3130	0.0008745
3142	0.0006655
3154	0.0003234
3166	0.0002178
3178	0.0001749
3190	0.0002013
3202	0.0001859
3214	0.0001826
3226	0.0001749
3238	0.0001881
3250	0.0001452
3262	0.0001177
3274	0.0001309
3286	0.0001727
3298	0.0001353
3310	0.0001386
3322	0.000143
3334	0.0001518
3346	0.0001595
3358	0.0001936
3370	0.0002321
3382	0.0002574
3394	0.0002354
3406	0.0002211
3418	0.0002508
3430	0.0003157
3442	0.0004708
3454	0.0010076
3466	0.0025696
3478	0.0066792
3490	0.0088176
3502	0.0029271
3514	0.0006908
3526	0.0002904
3538	0.0002332
3550	0.0001661
3562	0.0001771
3574	0.0002145
3586	0.0002387
3598	0.0001837
3610	0.000121
3622	0.0001639
3634	7.15e-05
3646	0.0001386
3658	0.0001826
3670	0.0001463
3682	0.0001595
3694	0.0001661
3706	0.0001782
3718	0.0001837
3730	0.0001848
3742	0.000121
3754	0.0001518
3766	0.0002057
3778	0.0002134
3790	0.0001782
3802	0.0002013
3814	0.0002387
3826	0.0002123
3838	0.0001815
