Infrared Spectrum: Sand, 50-70 Mesh
Formula: Si O 2
CAS: 14808-60-7
State: solid
Instrument: Bruker Tensor 37 FTIR
Resolution: 0.96450084
Origin: Pacific Northwest National Laboratory Under IARPA Contract
1/cm	Reflectance
7498.99	0.717224
7481.63	0.717265
7464.27	0.719356
7446.91	0.716623
7429.55	0.714993
7412.19	0.715494
7394.84	0.716451
7377.48	0.717191
7360.12	0.716836
7342.76	0.71525
7325.4	0.713894
7308.04	0.714912
7290.68	0.713493
7273.32	0.71612
7255.96	0.717086
7238.6	0.714203
7221.24	0.716832
7203.88	0.717614
7186.52	0.717949
7169.16	0.717426
7151.8	0.717144
7134.44	0.71806
7117.08	0.718445
7099.72	0.720316
7082.36	0.721645
7065	0.721668
7047.64	0.72166
7030.28	0.722326
7012.92	0.723481
6995.56	0.725382
6978.2	0.725403
6960.84	0.724268
6943.48	0.724227
6926.12	0.726271
6908.76	0.726935
6891.4	0.725683
6874.04	0.728686
6856.68	0.730699
6839.32	0.729795
6821.96	0.730888
6804.6	0.731151
6787.24	0.730208
6769.88	0.730109
6752.52	0.73184
6735.16	0.732313
6717.8	0.733148
6700.44	0.733142
6683.08	0.733491
6665.72	0.734145
6648.36	0.7349
6631	0.734446
6613.64	0.734013
6596.28	0.734943
6578.92	0.73595
6561.56	0.735579
6544.2	0.735533
6526.85	0.7352
6509.49	0.73533
6492.13	0.735962
6474.77	0.735731
6457.41	0.735154
6440.05	0.735139
6422.69	0.733547
6405.33	0.730121
6387.97	0.722209
6370.61	0.713406
6353.25	0.710302
6335.89	0.709791
6318.53	0.711104
6301.17	0.714371
6283.81	0.717624
6266.45	0.720479
6249.09	0.722971
6231.73	0.725643
6214.37	0.727415
6197.01	0.729003
6179.65	0.730685
6162.29	0.731447
6144.93	0.732671
6127.57	0.733113
6110.21	0.733404
6092.85	0.733449
6075.49	0.731894
6058.13	0.72955
6040.77	0.729326
6023.41	0.727217
6006.05	0.728226
5988.69	0.73166
5971.33	0.732514
5953.97	0.732537
5936.61	0.731856
5919.25	0.730501
5901.89	0.728998
5884.53	0.727645
5867.17	0.72585
5849.81	0.723735
5832.45	0.72273
5815.09	0.720047
5797.73	0.715837
5780.37	0.713118
5763.01	0.709195
5745.65	0.705776
5728.29	0.704271
5710.93	0.701588
5693.57	0.699449
5676.21	0.696948
5658.86	0.692762
5641.5	0.682566
5624.14	0.65598
5606.78	0.51443
5589.42	0.40951
5572.06	0.34356
5554.7	0.34344
5537.34	0.34905
5519.98	0.32854
5502.62	0.30739
5485.26	0.28876
5467.9	0.27298
5450.54	0.26645
5433.18	0.26698
5415.82	0.28073
5398.46	0.28675
5381.1	0.30508
5363.74	0.31944
5346.38	0.33361
5329.02	0.36735
5311.66	0.39701
5294.3	0.42668
5276.94	0.45477
5259.58	0.484
5242.22	0.50965
5224.86	0.52692
5207.5	0.54734
5190.14	0.55988
5172.78	0.54901
5155.42	0.5252
5138.06	0.50303
5120.7	0.49482
5103.34	0.44081
5085.98	0.39445
5068.62	0.41781
5051.26	0.40401
5033.9	0.42248
5016.54	0.41732
4999.18	0.37717
4981.82	0.38251
4964.46	0.33482
4947.1	0.28813
4929.74	0.26874
4912.38	0.2487
4895.02	0.21587
4877.66	0.13104
4860.3	0.13268
4842.94	0.25774
4825.58	0.19317
4808.22	0.18428
4790.86	0.13965
4773.51	0.05748
4756.15	0.02846
4738.79	0.02762
4721.43	0.02787
4704.07	0.02654
4686.71	0.02634
4669.35	0.02716
4651.99	0.02602
4634.63	0.02611
4617.27	0.02748
4599.91	0.02291
4582.55	0.02178
4565.19	0.02133
4547.83	0.02116
4530.47	0.02134
4513.11	0.01966
4495.75	0.01905
4478.39	0.01797
4461.03	0.01667
4443.67	0.0157
4426.31	0.01498
4408.95	0.01706
4391.59	0.04042
4374.23	0.16012
4356.87	0.39513
4339.51	0.36154
4322.15	0.33716
4304.79	0.41656
4287.43	0.41763
4270.07	0.1315
4252.71	0.08716
4235.35	0.06667
4217.99	0.05557
4200.63	0.04795
4183.27	0.04008
4165.91	0.02971
4148.55	0.08853
4131.19	0.05918
4113.83	0.04183
4096.47	0.0453862
4079.11	0.03516
4061.75	0.0305
4044.39	0.724999
4027.03	0.721985
4009.67	0.719985
3992.31	0.716161
3974.95	0.716242
3957.59	0.717889
3940.23	0.71992
3922.87	0.718826
3905.52	0.718475
3888.16	0.716204
3870.8	0.713142
3853.44	0.712558
3836.08	0.712641
3818.72	0.716921
3801.36	0.716226
3784	0.715184
3766.64	0.71749
3749.28	0.718484
3731.92	0.719349
3714.56	0.717314
3697.2	0.71794
3679.84	0.720662
3662.48	0.720386
3645.12	0.721622
3627.76	0.721355
3610.4	0.721853
3593.04	0.722636
3575.68	0.723598
3558.32	0.724215
3540.96	0.726277
3523.6	0.72567
3506.24	0.724931
3488.88	0.725031
3471.52	0.726755
3454.16	0.727261
3436.8	0.727136
3419.44	0.729639
3402.08	0.728912
3384.72	0.729111
3367.36	0.731298
3350	0.732028
3332.64	0.730747
3315.28	0.731488
3297.92	0.7324
3280.56	0.732684
3263.2	0.732871
3245.84	0.732867
3228.48	0.733816
3211.12	0.734339
3193.76	0.735183
3176.4	0.73421
3159.04	0.733927
3141.68	0.734834
3124.32	0.734894
3106.96	0.734725
3089.6	0.735226
3072.24	0.73538
3054.88	0.735631
3037.53	0.736021
3020.17	0.735078
3002.81	0.734693
2985.45	0.734347
2968.09	0.732114
2950.73	0.727452
2933.37	0.718283
2916.01	0.711126
2898.65	0.709017
2881.29	0.708998
2863.93	0.710404
2846.57	0.714567
2829.21	0.717884
2811.85	0.721151
2794.49	0.722989
2777.13	0.725853
2759.77	0.727305
2742.41	0.729091
2725.05	0.730674
2707.69	0.73163
2690.33	0.732553
2672.97	0.733089
2655.61	0.733334
2638.25	0.733702
2620.89	0.731449
2603.53	0.729572
2586.17	0.72905
2568.81	0.724864
2551.45	0.731527
2534.09	0.732166
2516.73	0.733317
2499.37	0.7333
2482.01	0.732493
2464.65	0.730903
2447.29	0.729229
2429.93	0.7278
2412.57	0.726436
2395.21	0.724314
2377.85	0.723277
2360.49	0.719701
2343.13	0.71566
2325.77	0.712817
2308.41	0.708437
2291.05	0.705529
2273.69	0.703748
2256.33	0.701644
2238.97	0.699111
2221.61	0.696745
2204.25	0.691171
2186.89	0.678369
2169.53	0.636848
2152.18	0.386083
2134.82	0.366421
2117.46	0.350595
2100.1	0.343841
2082.74	0.339086
2065.38	0.316779
2048.02	0.297008
2030.66	0.2801
2013.3	0.26599
1995.94	0.259203
1978.58	0.270602
1961.22	0.278209
1943.86	0.287674
1926.5	0.306888
1909.14	0.319632
1891.78	0.340026
1874.42	0.372738
1857.06	0.402969
1839.7	0.43285
1822.34	0.461245
1804.98	0.491443
1787.62	0.514799
1770.26	0.532843
1752.9	0.555172
1735.54	0.558932
1718.18	0.544166
1700.82	0.516449
1683.46	0.499771
1666.1	0.484065
1648.74	0.416161
1631.38	0.395034
1614.02	0.41651
1596.66	0.399493
1579.3	0.428566
1561.94	0.399133
1544.58	0.373317
1527.22	0.372935
1509.86	0.314123
1492.5	0.271007
1475.14	0.266482
1457.78	0.252984
1440.42	0.178052
1423.06	0.115295
1405.7	0.178205
1388.34	0.252219
1370.98	0.151034
1353.62	0.176292
1336.26	0.116366
1318.9	0.0358923
1301.54	0.0277936
1284.19	0.0273346
1266.83	0.0274657
1249.47	0.0262635
1232.11	0.0262198
1214.75	0.0272581
1197.39	0.0255968
1180.03	0.028821
1162.67	0.0257826
1145.31	0.0223944
1127.95	0.0220993
1110.59	0.0210064
1093.23	0.0211703
1075.87	0.0214327
1058.51	0.0199681
1041.15	0.0187768
1023.79	0.0180555
1006.43	0.016733
989.068	0.0159133
971.709	0.0154324
954.349	0.020296
936.989	0.0557839
919.629	0.230983
902.269	0.400641
884.91	0.336922
867.55	0.37206
850.19	0.447736
832.83	0.287827
815.47	0.113765
798.111	0.0800036
780.751	0.0631524
763.391	0.0543442
746.031	0.0457864
728.671	0.0380464
711.312	0.0243591
693.952	0.0936176
676.592	0.0524334
659.232	0.0399243
641.872	0.0416353
624.513	0.0347934
607.153	0.0315643
