Infrared Spectrum: P-METHOXY CARBANILIC ACID, METHYL ESTER
Formula: C9 H11 N O3
CAS: 14803-72-6
State: SOLID (1.8 mg / 200 mg KBr)
Class: COBLENTZ
Instrument: Not specified, most likely a grating spectrometer.
Sampling: TRANSMISSION
Resolution: 4
Origin: CITRUS EXPERIMENT STATION, UNIVERSITY OF FLORIDA (G. EDWARDS)
MICROMETERS	TRANSMITTANCE
2.027	0.703
2.0603	0.706
2.0936	0.711
2.1269	0.711
2.1602	0.71
2.1935	0.714
2.2268	0.723
2.2601	0.728
2.2934	0.731
2.3267	0.736
2.36	0.74
2.3933	0.744
2.4266	0.751
2.4599	0.751
2.4932	0.769
2.5265	0.775
2.5598	0.783
2.5931	0.785
2.6264	0.795
2.6597	0.787
2.693	0.779
2.7263	0.778
2.7596	0.773
2.7929	0.769
2.8262	0.762
2.8595	0.747
2.8928	0.706
2.9261	0.616
2.9594	0.221
2.9927	0.46
3.026	0.646
3.0593	0.708
3.0926	0.742
3.1259	0.759
3.1592	0.75
3.1925	0.735
3.2258	0.715
3.2591	0.722
3.2924	0.68
3.3257	0.66
3.359	0.578
3.3923	0.658
3.4256	0.723
3.4589	0.755
3.4922	0.715
3.5255	0.817
3.5588	0.818
3.5921	0.825
3.6254	0.85
3.65869	0.854
3.69199	0.855
3.72529	0.859
3.75859	0.866
3.79189	0.866
3.82519	0.863
3.85849	0.873
3.89179	0.875
3.92509	0.878
3.95839	0.878
3.99169	0.879
4.02499	0.881
4.05829	0.889
4.09159	0.899
4.12489	0.898
4.15819	0.893
4.19149	0.894
4.22479	0.91
4.25809	0.915
4.29139	0.915
4.32469	0.915
4.35799	0.917
4.39129	0.918
4.42459	0.933
4.45789	0.938
4.49119	0.927
4.52449	0.917
4.55779	0.907
4.59109	0.927
4.62439	0.931
4.65769	0.937
4.69099	0.938
4.72429	0.933
4.75759	0.927
4.79089	0.937
4.82419	0.942
4.85749	0.934
4.89079	0.914
4.92409	0.917
4.95739	0.917
4.99069	0.922
5.02399	0.941
5.05729	0.938
5.09059	0.933
5.12389	0.938
5.15719	0.945
5.19049	0.939
5.22379	0.939
5.25709	0.913
5.29039	0.861
5.32369	0.929
5.35699	0.933
5.39029	0.919
5.42359	0.91
5.45689	0.887
5.49019	0.855
5.52349	0.825
5.55679	0.83
5.59009	0.805
5.62339	0.75
5.65669	0.648
5.68999	0.3
5.72329	0.058
5.75659	0.078
5.78989	0.289
5.82319	0.532
5.85649	0.698
5.88979	0.757
5.92309	0.775
5.95639	0.811
5.98969	0.809
6.02299	0.771
6.05629	0.763
6.08959	0.732
6.12289	0.691
6.15619	0.59
6.18949	0.572
6.22279	0.384
6.25609	0.679
6.28939	0.715
6.32269	0.619
6.35599	0.435
6.38929	0.132
6.42259	0.042
6.45589	0.044
6.48919	0.064
6.52249	0.114
6.55579	0.136
6.58909	0.193
6.62239	0.351
6.65569	0.555
6.68899	0.652
6.72229	0.62
6.75559	0.413
6.78889	0.327
6.82219	0.421
6.85549	0.413
6.88879	0.375
6.92208	0.42
6.95538	0.389
6.98868	0.659
7.02198	0.554
7.05528	0.411
7.08858	0.502
7.12188	0.694
7.15518	0.782
7.18848	0.807
7.22178	0.807
7.25508	0.805
7.28838	0.791
7.32168	0.765
7.35498	0.734
7.38828	0.706
7.42158	0.646
7.45488	0.612
7.48818	0.437
7.52148	0.241
7.55478	0.583
7.58808	0.608
7.62138	0.457
7.65468	0.727
7.68798	0.767
7.72128	0.755
7.75458	0.73
7.78788	0.68
7.82118	0.608
7.85448	0.492
7.88778	0.349
7.92108	0.173
7.95438	0.064
7.98768	0.025
8.02098	0.005
8.05428	0.004
8.08758	0.005
8.12088	0.013
8.15418	0.061
8.18748	0.137
8.22078	0.264
8.25408	0.36
8.28738	0.415
8.32068	0.324
8.35398	0.174
8.38728	0.084
8.42058	0.268
8.45388	0.28
8.48718	0.333
8.52048	0.536
8.55378	0.61
8.58708	0.65
8.62038	0.679
8.65368	0.698
8.68698	0.73
8.72028	0.747
8.75358	0.753
8.78688	0.748
8.82018	0.739
8.85348	0.739
8.88678	0.732
8.92008	0.658
8.95338	0.643
8.98668	0.727
9.01998	0.797
9.05328	0.811
9.08658	0.818
9.11988	0.811
9.15318	0.799
9.18648	0.766
9.21978	0.618
9.25308	0.38
9.28638	0.1
9.31968	0.17
9.35298	0.459
9.38628	0.634
9.41958	0.712
9.45288	0.761
9.48618	0.79
9.51948	0.817
9.55278	0.818
9.58608	0.809
9.61938	0.766
9.65268	0.655
9.68598	0.439
9.71928	0.196
9.75258	0.138
9.78588	0.256
9.81918	0.459
9.85248	0.56
9.88578	0.558
9.91908	0.703
9.95238	0.761
9.98568	0.811
10.019	0.831
10.0523	0.853
10.0856	0.869
10.1189	0.887
10.1522	0.899
10.1855	0.907
10.2188	0.911
10.2521	0.914
10.2854	0.914
10.3187	0.911
10.352	0.889
10.3853	0.803
10.4186	0.723
10.4519	0.758
10.4852	0.799
10.5185	0.882
10.5518	0.909
10.5851	0.915
10.6184	0.913
10.6517	0.89
10.685	0.902
10.7183	0.921
10.7516	0.927
10.7849	0.929
10.8182	0.929
10.8515	0.931
10.8848	0.931
10.9181	0.934
10.9514	0.938
10.9847	0.941
11.018	0.943
11.0513	0.943
11.0846	0.945
11.1179	0.947
11.1512	0.949
11.1845	0.949
11.2178	0.949
11.2511	0.947
11.2844	0.947
11.3177	0.951
11.351	0.949
11.3843	0.946
11.4176	0.951
11.4509	0.95
11.4842	0.949
11.5175	0.943
11.5508	0.934
11.5841	0.929
11.6174	0.921
11.6507	0.915
11.684	0.906
11.7173	0.891
11.7506	0.858
11.7839	0.805
11.8172	0.694
11.8505	0.463
11.8838	0.209
11.9171	0.129
11.9504	0.153
11.9837	0.206
12.017	0.485
12.0503	0.662
12.0836	0.755
12.1169	0.825
12.1502	0.846
12.1835	0.87
12.2168	0.881
12.2501	0.865
12.2834	0.877
12.3167	0.903
12.35	0.93
12.3833	0.945
12.4166	0.945
12.4499	0.947
12.4832	0.951
12.5165	0.953
12.5498	0.955
12.5831	0.954
12.6164	0.953
12.6497	0.951
12.683	0.95
12.7163	0.945
12.7496	0.933
12.7829	0.919
12.8162	0.885
12.8495	0.845
12.8828	0.781
12.9161	0.648
12.9494	0.488
12.9827	0.396
13.016	0.384
13.0493	0.387
13.0826	0.381
13.1159	0.506
13.1492	0.682
13.1825	0.779
13.2158	0.853
13.2491	0.885
13.2824	0.911
13.3157	0.922
13.349	0.929
13.3823	0.929
13.4156	0.93
13.4489	0.931
13.4822	0.933
13.5155	0.93
13.5488	0.918
13.5821	0.894
13.6154	0.847
13.6487	0.778
13.682	0.672
13.7153	0.622
13.7486	0.671
13.7819	0.739
13.8152	0.826
13.8485	0.866
13.8818	0.899
13.9151	0.93
13.9484	0.931
13.9817	0.933
14.015	0.934
14.0483	0.915
14.0816	0.891
14.1149	0.89
14.1482	0.917
14.1815	0.93
14.2148	0.935
14.2481	0.934
14.2814	0.933
14.3147	0.93
14.348	0.927
14.3813	0.923
14.4146	0.917
14.4479	0.915
14.4812	0.911
14.5145	0.906
14.5478	0.909
14.5811	0.907
14.6144	0.905
14.6477	0.903
14.681	0.905
14.7143	0.889
14.7476	0.885
14.7809	0.883
14.8142	0.882
14.8475	0.875
14.8808	0.851
14.9141	0.81
14.9474	0.789
14.9807	0.823
15.014	0.839
