Infrared Spectrum: Hypoxanthine, 2-fluoro-
Formula: C5 H3 N4 O F
CAS: 1480-90-6
State: SOLID (0.6 mg / 650 mg KBr DISC)
Class: COBLENTZ III
Instrument: PERKIN-ELMER 21 (GRATING)
Instrument parameters: FILTER CHANGE ABOUT 1090 CM^-^1
Sampling: TRANSMISSION
Resolution: 2
Origin: SOUTHERN RESEARCH INSTITUTE
1/CM	TRANSMITTANCE
604.457	0.5429
613.493	0.5452
622.529	0.5308
631.565	0.5189
640.601	0.5257
649.637	0.5586
658.672	0.5812
667.708	0.5628
676.744	0.5605
685.78	0.5187
694.816	0.4578
703.852	0.4317
712.888	0.4897
721.924	0.5451
730.96	0.5371
739.996	0.5604
749.031	0.585
758.067	0.5653
767.103	0.5506
776.139	0.5029
785.175	0.4325
794.211	0.4751
803.247	0.4991
812.283	0.4774
821.319	0.4049
830.355	0.4123
839.39	0.4425
848.426	0.5303
857.462	0.5313
866.498	0.5226
875.534	0.5152
884.57	0.5219
893.606	0.5334
902.642	0.5448
911.678	0.5541
920.714	0.5532
929.749	0.5437
938.785	0.532
947.821	0.5187
956.857	0.5058
965.893	0.5113
974.929	0.5513
983.965	0.5861
993.001	0.585
1002.04	0.5775
1011.07	0.5692
1020.11	0.5541
1029.14	0.5285
1038.18	0.4909
1047.22	0.4758
1056.25	0.4957
1065.29	0.5201
1074.32	0.5489
1083.36	0.5509
1092.4	0.5427
1101.43	0.5285
1110.47	0.5007
1119.5	0.4602
1128.54	0.4551
1137.58	0.4708
1146.61	0.4876
1155.65	0.5052
1164.68	0.5219
1173.72	0.5093
1182.75	0.4929
1191.79	0.497
1200.83	0.5087
1209.86	0.5201
1218.9	0.5253
1227.93	0.5195
1236.97	0.5011
1246.01	0.4887
1255.04	0.4702
1264.08	0.4277
1273.11	0.4254
1282.15	0.41
1291.19	0.3785
1300.22	0.3642
1309.26	0.3851
1318.29	0.4232
1327.33	0.4359
1336.37	0.4429
1345.4	0.4239
1354.44	0.3882
1363.47	0.3336
1372.51	0.2924
1381.54	0.3074
1390.58	0.3251
1399.62	0.3538
1408.65	0.4029
1417.69	0.4197
1426.72	0.43
1435.76	0.4415
1444.8	0.4406
1453.83	0.4247
1462.87	0.4101
1471.9	0.4037
1480.94	0.4017
1489.98	0.4045
1499.01	0.4128
1508.05	0.428
1517.08	0.4336
1526.12	0.3998
1535.15	0.3779
1544.19	0.3576
1553.23	0.3373
1562.26	0.32
1571.3	0.3012
1580.33	0.2574
1589.37	0.2148
1598.41	0.1941
1607.44	0.1771
1616.48	0.1624
1625.51	0.1442
1634.55	0.1367
1643.59	0.1736
1652.62	0.2385
1661.66	0.2477
1670.69	0.2349
1679.73	0.1757
1688.77	0.1313
1697.8	0.1091
1706.84	0.1186
1715.87	0.1385
1724.91	0.17
1733.94	0.2499
1742.98	0.3602
1752.02	0.4644
1761.05	0.5044
1770.09	0.5327
1779.12	0.5583
1788.16	0.5754
1797.2	0.5891
1806.23	0.5994
1815.27	0.6042
1824.3	0.6071
1833.34	0.6097
1842.38	0.6127
1851.41	0.6158
1860.45	0.6141
1869.48	0.6138
1878.52	0.6193
1887.56	0.6196
1896.59	0.6232
1905.63	0.6248
1914.66	0.6271
1923.7	0.632
1932.73	0.638
1941.77	0.6441
1950.81	0.6516
1959.84	0.657
1968.88	0.6586
1977.91	0.662
1986.95	0.6679
1995.99	0.6746
2005.02	0.6795
2014.06	0.6831
2023.09	0.6872
2032.13	0.6909
2041.17	0.693
2050.2	0.7016
2059.24	0.7056
2068.27	0.7084
2077.31	0.7104
2086.34	0.7104
2095.38	0.7099
2104.42	0.7116
2113.45	0.7153
2122.49	0.715
2131.52	0.7144
2140.56	0.7138
2149.6	0.7136
2158.63	0.7097
2167.67	0.7036
2176.7	0.6974
2185.74	0.6919
2194.78	0.6866
2203.81	0.6815
2212.85	0.6759
2221.88	0.6702
2230.92	0.6645
2239.96	0.6588
2248.99	0.653
2258.03	0.647
2267.06	0.6407
2276.1	0.6326
2285.13	0.6244
2294.17	0.6154
2303.21	0.6065
2312.24	0.5974
2321.28	0.5882
2330.31	0.5787
2339.35	0.572
2348.39	0.5667
2357.42	0.5626
2366.46	0.5616
2375.49	0.5611
2384.53	0.5603
2393.57	0.5534
2402.6	0.5464
2411.64	0.5417
2420.67	0.537
2429.71	0.5301
2438.75	0.5301
2447.78	0.5302
2456.82	0.5167
2465.85	0.5044
2474.89	0.4983
2483.92	0.4919
2492.96	0.4923
2502	0.4916
2511.03	0.4796
2520.07	0.4681
2529.1	0.4659
2538.14	0.4656
2547.18	0.4658
2556.21	0.4594
2565.25	0.4565
2574.28	0.4562
2583.32	0.455
2592.36	0.4524
2601.39	0.4497
2610.43	0.4468
2619.46	0.4442
2628.5	0.4418
2637.53	0.4383
2646.57	0.4316
2655.61	0.4288
2664.64	0.4257
2673.68	0.4219
2682.71	0.4165
2691.75	0.4121
2700.79	0.4119
2709.82	0.4104
2718.86	0.4071
2727.89	0.4032
2736.93	0.4002
2745.97	0.399
2755	0.4029
2764.04	0.4083
2773.07	0.4091
2782.11	0.4088
2791.15	0.4083
2800.18	0.4073
2809.22	0.4063
2818.25	0.4058
2827.29	0.4054
2836.32	0.4049
2845.36	0.405
2854.4	0.406
2863.43	0.4087
2872.47	0.4129
2881.5	0.4144
2890.54	0.4134
2899.58	0.4104
2908.61	0.4041
2917.65	0.3981
2926.68	0.3988
2935.72	0.4
2944.76	0.401
2953.79	0.4007
2962.83	0.4033
2971.86	0.4069
2980.9	0.4094
2989.94	0.4144
2998.97	0.4193
3008.01	0.4205
3017.04	0.4201
3026.08	0.416
3035.11	0.4158
3044.15	0.4157
3053.19	0.4098
3062.22	0.3956
3071.26	0.3854
3080.29	0.3793
3089.33	0.3758
3098.37	0.3731
3107.4	0.3718
3116.44	0.375
3125.47	0.3848
3134.51	0.3951
3143.55	0.4055
3152.58	0.4157
3161.62	0.4261
3170.65	0.4366
3179.69	0.4493
3188.72	0.4578
3197.76	0.4647
3206.8	0.4747
3215.83	0.485
3224.87	0.4952
3233.9	0.5058
3242.94	0.5154
3251.98	0.5214
3261.01	0.5277
3270.05	0.5338
3279.08	0.5384
3288.12	0.542
3297.16	0.5454
3306.19	0.5483
3315.23	0.5505
3324.26	0.5519
3333.3	0.5517
3342.34	0.5446
3351.37	0.5417
3360.41	0.5426
3369.44	0.5412
3378.48	0.5331
3387.51	0.5233
3396.55	0.5168
3405.59	0.5117
3414.62	0.5077
3423.66	0.505
3432.69	0.5054
3441.73	0.5089
3450.77	0.5147
3459.8	0.5224
3468.84	0.5309
3477.87	0.5406
3486.91	0.5509
3495.95	0.5594
3504.98	0.5673
3514.02	0.5774
3523.05	0.5901
3532.09	0.594
3541.13	0.6063
3550.16	0.6242
3559.2	0.639
3568.23	0.6504
3577.27	0.6601
3586.3	0.6668
3595.34	0.6891
3604.38	0.6997
3613.41	0.7112
3622.45	0.7289
3631.48	0.7455
3640.52	0.7583
3649.56	0.7711
3658.59	0.7833
3667.63	0.7942
3676.66	0.8002
3685.7	0.8071
3694.74	0.8111
3703.77	0.8249
3712.81	0.8348
3721.84	0.8341
3730.88	0.8335
3739.91	0.8406
3748.95	0.8457
3757.99	0.8484
3767.02	0.8578
3776.06	0.8563
3785.09	0.8544
3794.13	0.8564
3803.17	0.8603
3812.2	0.858
3821.24	0.8591
3830.27	0.8567
3839.31	0.8529
3848.35	0.8547
3857.38	0.8588
3866.42	0.8634
3875.45	0.8557
3884.49	0.8525
3893.53	0.8542
3902.56	0.8562
3911.6	0.8569
3920.63	0.8561
3929.67	0.8602
3938.7	0.8607
3947.74	0.8602
3956.78	0.8639
3965.81	0.8543
3974.85	0.8553
3983.88	0.8565
3992.92	0.8568
4001.96	0.8557
4010.99	0.848
