Infrared Spectrum: Talc
Formula: 3 Mg O · 4 Si O 2 · H 2 O or H 2 Mg 3 O 12 Si 4
CAS: 14807-96-6
State: solid
Instrument: Bruker Tensor 37 FTIR
Resolution: 0.96450084
Origin: Pacific Northwest National Laboratory Under IARPA Contract
1/cm	Reflectance
7498.99	0.837896
7481.63	0.836547
7464.27	0.836349
7446.91	0.835855
7429.55	0.834303
7412.19	0.834684
7394.84	0.83429
7377.48	0.834268
7360.12	0.828009
7342.76	0.529487
7325.4	0.796817
7308.04	0.828716
7290.68	0.833131
7273.32	0.831525
7255.96	0.83563
7238.6	0.837467
7221.24	0.835414
7203.88	0.836916
7186.52	0.838793
7169.16	0.840345
7151.8	0.838633
7134.44	0.84056
7117.08	0.839676
7099.72	0.84042
7082.36	0.840697
7065	0.842016
7047.64	0.841669
7030.28	0.840567
7012.92	0.843022
6995.56	0.843671
6978.2	0.845241
6960.84	0.844494
6943.48	0.843631
6926.12	0.844443
6908.76	0.847176
6891.4	0.846732
6874.04	0.846562
6856.68	0.845402
6839.32	0.846789
6821.96	0.849183
6804.6	0.849385
6787.24	0.850839
6769.88	0.848605
6752.52	0.850822
6735.16	0.851673
6717.8	0.850951
6700.44	0.850927
6683.08	0.851228
6665.72	0.851338
6648.36	0.851692
6631	0.852742
6613.64	0.852342
6596.28	0.852528
6578.92	0.85213
6561.56	0.851569
6544.2	0.851122
6526.85	0.850429
6509.49	0.850025
6492.13	0.850358
6474.77	0.848282
6457.41	0.847693
6440.05	0.846918
6422.69	0.84561
6405.33	0.843362
6387.97	0.839375
6370.61	0.837807
6353.25	0.838035
6335.89	0.840126
6318.53	0.839024
6301.17	0.838409
6283.81	0.8388
6266.45	0.837939
6249.09	0.836814
6231.73	0.835963
6214.37	0.83964
6197.01	0.839271
6179.65	0.839486
6162.29	0.830995
6144.93	0.831252
6127.57	0.832306
6110.21	0.830388
6092.85	0.827051
6075.49	0.829629
6058.13	0.827465
6040.77	0.826012
6023.41	0.827179
6006.05	0.822976
5988.69	0.798858
5971.33	0.799429
5953.97	0.773971
5936.61	0.645989
5919.25	0.616298
5901.89	0.658106
5884.53	0.770726
5867.17	0.759034
5849.81	0.694992
5832.45	0.732232
5815.09	0.7608
5797.73	0.746954
5780.37	0.720428
5763.01	0.75768
5745.65	0.752248
5728.29	0.74351
5710.93	0.752774
5693.57	0.745263
5676.21	0.752372
5658.86	0.762907
5641.5	0.764077
5624.14	0.75271
5606.78	0.656395
5589.42	0.166072
5572.06	0.353257
5554.7	0.312636
5537.34	0.279076
5519.98	0.309917
5502.62	0.341929
5485.26	0.34739
5467.9	0.334319
5450.54	0.336617
5433.18	0.362182
5415.82	0.400319
5398.46	0.444465
5381.1	0.485941
5363.74	0.523053
5346.38	0.559175
5329.02	0.581266
5311.66	0.614185
5294.3	0.638557
5276.94	0.650072
5259.58	0.605179
5242.22	0.63436
5224.86	0.676111
5207.5	0.689886
5190.14	0.700063
5172.78	0.719577
5155.42	0.738577
5138.06	0.74642
5120.7	0.750714
5103.34	0.753077
5085.98	0.757353
5068.62	0.747542
5051.26	0.745827
5033.9	0.733375
5016.54	0.713798
4999.18	0.733235
4981.82	0.745207
4964.46	0.746579
4947.1	0.744165
4929.74	0.742152
4912.38	0.736573
4895.02	0.731382
4877.66	0.713649
4860.3	0.701976
4842.94	0.685493
4825.58	0.625291
4808.22	0.613382
4790.86	0.586888
4773.51	0.558106
4756.15	0.522346
4738.79	0.497302
4721.43	0.350636
4704.07	0.319182
4686.71	0.310707
4669.35	0.288198
4651.99	0.241661
4634.63	0.273757
4617.27	0.292423
4599.91	0.248349
4582.55	0.183685
4565.19	0.256531
4547.83	0.323388
4530.47	0.310984
4513.11	0.260985
4495.75	0.230544
4478.39	0.176813
4461.03	0.149145
4443.67	0.121613
4426.31	0.104803
4408.95	0.0730236
4391.59	0.0532466
4374.23	0.0380306
4356.87	0.0455455
4339.51	0.0884258
4322.15	0.128043
4304.79	0.128279
4287.43	0.111368
4270.07	0.0928755
4252.71	0.064226
4235.35	0.0777648
4217.99	0.120085
4200.63	0.147515
4183.27	0.148854
4165.91	0.135729
4148.55	0.0893553
4131.19	0.0625079
4113.83	0.031371
4096.47	0.0233729
4079.11	0.0473466
4061.75	0.0317264
4044.39	0.842051
4027.03	0.840821
4009.67	0.84096
3992.31	0.837352
3974.95	0.834819
3957.59	0.836233
3940.23	0.835396
3922.87	0.832246
3905.52	0.816187
3888.16	0.769575
3870.8	0.822422
3853.44	0.829598
3836.08	0.836021
3818.72	0.832721
3801.36	0.838878
3784	0.83676
3766.64	0.833521
3749.28	0.838178
3731.92	0.841146
3714.56	0.837461
3697.2	0.837666
3679.84	0.843424
3662.48	0.842565
3645.12	0.842655
3627.76	0.843241
3610.4	0.841037
3593.04	0.841561
3575.68	0.842677
3558.32	0.842412
3540.96	0.846867
3523.6	0.844998
3506.24	0.843472
3488.88	0.843801
3471.52	0.846466
3454.16	0.843619
3436.8	0.847871
3419.44	0.846793
3402.08	0.847077
3384.72	0.84839
3367.36	0.850471
3350	0.848579
3332.64	0.850081
3315.28	0.848931
3297.92	0.849996
3280.56	0.851916
3263.2	0.85011
3245.84	0.850778
3228.48	0.851448
3211.12	0.850372
3193.76	0.850756
3176.4	0.851132
3159.04	0.852527
3141.68	0.852873
3124.32	0.85123
3106.96	0.850553
3089.6	0.849646
3072.24	0.850087
3054.88	0.848705
3037.53	0.84847
3020.17	0.848166
3002.81	0.846866
2985.45	0.845833
2968.09	0.843919
2950.73	0.839657
2933.37	0.83728
2916.01	0.836066
2898.65	0.83733
2881.29	0.838552
2863.93	0.837058
2846.57	0.836444
2829.21	0.837113
2811.85	0.834752
2794.49	0.834139
2777.13	0.834728
2759.77	0.839662
2742.41	0.837995
2725.05	0.836703
2707.69	0.823164
2690.33	0.829846
2672.97	0.83021
2655.61	0.827975
2638.25	0.825169
2620.89	0.828853
2603.53	0.823404
2586.17	0.82604
2568.81	0.82433
2551.45	0.817681
2534.09	0.802074
2516.73	0.791374
2499.37	0.750311
2482.01	0.609507
2464.65	0.524645
2447.29	0.709448
2429.93	0.762467
2412.57	0.742442
2395.21	0.674728
2377.85	0.763801
2360.49	0.734493
2343.13	0.739766
2325.77	0.712765
2308.41	0.748847
2291.05	0.741555
2273.69	0.742206
2256.33	0.739712
2238.97	0.738587
2221.61	0.753557
2204.25	0.763537
2186.89	0.760945
2169.53	0.731073
2152.18	0.59554
2134.82	0.285954
2117.46	0.336645
2100.1	0.285987
2082.74	0.274515
2065.38	0.311243
2048.02	0.335422
2030.66	0.331801
2013.3	0.321244
1995.94	0.331257
1978.58	0.360908
1961.22	0.40324
1943.86	0.446804
1926.5	0.485933
1909.14	0.525098
1891.78	0.556689
1874.42	0.583283
1857.06	0.616753
1839.7	0.640614
1822.34	0.644106
1804.98	0.624204
1787.62	0.635911
1770.26	0.680596
1752.9	0.693582
1735.54	0.701712
1718.18	0.730754
1700.82	0.743988
1683.46	0.750385
1666.1	0.754962
1648.74	0.759301
1631.38	0.759514
1614.02	0.745551
1596.66	0.743957
1579.3	0.728918
1561.94	0.708531
1544.58	0.744358
1527.22	0.749464
1509.86	0.74986
1492.5	0.74752
1475.14	0.743566
1457.78	0.738376
1440.42	0.731692
1423.06	0.710267
1405.7	0.7025
1388.34	0.673898
1370.98	0.621494
1353.62	0.614693
1336.26	0.577043
1318.9	0.535085
1301.54	0.519203
1284.19	0.444107
1266.83	0.329037
1249.47	0.330985
1232.11	0.294627
1214.75	0.242075
1197.39	0.251619
1180.03	0.266254
1162.67	0.274617
1145.31	0.249507
1127.95	0.194154
1110.59	0.281091
1093.23	0.318384
1075.87	0.300057
1058.51	0.249962
1041.15	0.209449
1023.79	0.16769
1006.43	0.134215
989.068	0.119479
971.709	0.0969399
954.349	0.0638623
936.989	0.0488642
919.629	0.0372677
902.269	0.0537311
884.91	0.105302
867.55	0.126622
850.19	0.125332
832.83	0.101042
815.47	0.0938112
798.111	0.0633827
780.751	0.0852821
763.391	0.137065
746.031	0.15148
728.671	0.153659
711.312	0.120962
693.952	0.0742
676.592	0.0553272
659.232	0.0237336
641.872	0.0381379
624.513	0.0477687
607.153	0.0260771
