Infrared Spectrum: 4-Chromanol
Formula: C 9 H 10 O 2
CAS: 1481-93-2
State: gas
Origin: EPA-IR VAPOR PHASE LIBRARY
1/CM	ABSORBANCE
549.8	0.004036
559.445	0.003086
569.09	0.002216
578.734	0.002926
588.379	0.004976
598.024	0.008116
607.669	0.006246
617.313	0.003956
626.958	0.003176
636.603	0.003256
646.248	0.002276
655.893	0.002116
665.537	0.002916
675.182	0.002766
684.827	0.002266
694.472	0.002316
704.116	0.004836
713.761	0.008826
723.406	0.009156
733.051	0.016536
742.695	0.041226
752.34	0.084986
761.985	0.049896
771.63	0.020996
781.275	0.006716
790.919	0.003966
800.564	0.004576
810.209	0.008126
819.854	0.010826
829.498	0.011226
839.143	0.009306
848.788	0.006446
858.433	0.006326
868.078	0.009026
877.722	0.016776
887.367	0.020496
897.012	0.016126
906.657	0.009776
916.301	0.005826
925.946	0.005846
935.591	0.007836
945.236	0.007176
954.88	0.010366
964.525	0.019826
974.17	0.028916
983.815	0.019556
993.46	0.010706
1003.1	0.013766
1012.75	0.026726
1022.39	0.034666
1032.04	0.032166
1041.68	0.037186
1051.33	0.058746
1060.97	0.088886
1070.62	0.079386
1080.26	0.036546
1089.91	0.022986
1099.55	0.019426
1109.2	0.026226
1118.84	0.034366
1128.49	0.024066
1138.13	0.011816
1147.78	0.012386
1157.42	0.013196
1167.07	0.013776
1176.71	0.021326
1186.36	0.031526
1196	0.036656
1205.64	0.042846
1215.29	0.067766
1224.93	0.094896
1234.58	0.083596
1244.22	0.058936
1253.87	0.062366
1263.51	0.075636
1273.16	0.064826
1282.8	0.037176
1292.45	0.032806
1302.09	0.037406
1311.74	0.034246
1321.38	0.026616
1331.03	0.022496
1340.67	0.024676
1350.32	0.029316
1359.96	0.028606
1369.61	0.023026
1379.25	0.020336
1388.9	0.018026
1398.54	0.013206
1408.18	0.009466
1417.83	0.009876
1427.47	0.013236
1437.12	0.018066
1446.76	0.036426
1456.41	0.054636
1466.05	0.049426
1475.7	0.047436
1485.34	0.081486
1494.99	0.073776
1504.63	0.029136
1514.28	0.010756
1523.92	0.006376
1533.57	0.004446
1543.21	0.004016
1552.86	0.005326
1562.5	0.009796
1572.15	0.021166
1581.79	0.033636
1591.44	0.035126
1601.08	0.032556
1610.73	0.034266
1620.37	0.021566
1630.01	0.007896
1639.66	0.003636
1649.3	0.002326
1658.95	0.001996
1668.59	0.001816
1678.24	0.002316
1687.88	0.002656
1697.53	0.002426
1707.17	0.002036
1716.82	0.002246
1726.46	0.001536
1736.11	0.001436
1745.75	0.001226
1755.4	0.001376
1765.04	0.001746
1774.69	0.002446
1784.33	0.003176
1793.98	0.002966
1803.62	0.002046
1813.27	0.001776
1822.91	0.001806
1832.55	0.001476
1842.2	0.001406
1851.84	0.001506
1861.49	0.001816
1871.13	0.001926
1880.78	0.001856
1890.42	0.002606
1900.07	0.003576
1909.71	0.003086
1919.36	0.002696
1929	0.003226
1938.65	0.003136
1948.29	0.002226
1957.94	0.001686
1967.58	0.001396
1977.23	0.001226
1986.87	0.001266
1996.52	0.001246
2006.16	0.0009905
2015.81	0.001276
2025.45	0.001366
2035.1	0.001716
2044.74	0.001746
2054.38	0.001616
2064.03	0.001376
2073.67	0.001206
2083.32	0.001206
2092.96	0.001136
2102.61	0.0010373
2112.25	0.0008799
2121.9	0.0008103
2131.54	0.0005707
2141.19	0.0006512
2150.83	0.0005274
2160.48	0.0004951
2170.12	0.0005389
2179.77	0.0007074
2189.41	0.0006486
2199.06	0.0007465
2208.7	0.0008081
2218.35	0.0009984
2227.99	0.0009096
2237.64	0.0009159
2247.28	0.0008912
2256.92	0.0007626
2266.57	0.0010384
2276.21	0.001126
2285.86	0.0008368
2295.5	0.001146
2305.15	0.001416
2314.79	0.001256
2324.44	0.001176
2334.08	0.001136
2343.73	0.001306
2353.37	0.001116
2363.02	0.001176
2372.66	0.001116
2382.31	0.0010751
2391.95	0.0009151
2401.6	0.0007046
2411.24	0.0010566
2420.89	0.001316
2430.53	0.001336
2440.18	0.001836
2449.82	0.001576
2459.47	0.001646
2469.11	0.001336
2478.75	0.001216
2488.4	0.0010588
2498.04	0.000881
2507.69	0.0009317
2517.33	0.001166
2526.98	0.0010206
2536.62	0.001136
2546.27	0.001116
2555.91	0.001106
2565.56	0.001396
2575.2	0.001336
2584.85	0.001256
2594.49	0.001386
2604.14	0.001466
2613.78	0.001416
2623.43	0.001366
2633.07	0.001226
2642.72	0.001236
2652.36	0.0010984
2662.01	0.0010494
2671.65	0.001176
2681.29	0.001406
2690.94	0.001476
2700.58	0.001506
2710.23	0.001496
2719.87	0.001956
2729.52	0.002446
2739.16	0.003026
2748.81	0.002976
2758.45	0.002606
2768.1	0.002146
2777.74	0.001696
2787.39	0.002016
2797.03	0.002076
2806.68	0.002626
2816.32	0.003296
2825.97	0.004486
2835.61	0.006176
2845.26	0.008086
2854.9	0.010576
2864.55	0.015856
2874.19	0.024796
2883.84	0.032916
2893.48	0.035146
2903.12	0.031156
2912.77	0.025846
2922.41	0.026256
2932.06	0.031816
2941.7	0.030466
2951.35	0.033156
2960.99	0.042516
2970.64	0.038776
2980.28	0.038476
2989.93	0.035006
2999.57	0.018966
3009.22	0.008006
3018.86	0.009516
3028.51	0.012786
3038.15	0.014746
3047.8	0.014966
3057.44	0.015136
3067.09	0.018156
3076.73	0.021736
3086.38	0.017516
3096.02	0.009506
3105.67	0.003936
3115.31	0.002436
3124.95	0.001456
3134.6	0.001116
3144.24	0.0008462
3153.89	0.0010281
3163.53	0.001246
3173.18	0.000841
3182.82	0.0006762
3192.47	0.0008142
3202.11	0.0005738
3211.76	0.0004983
3221.4	0.0004786
3231.05	0.0004554
3240.69	0.0003806
3250.34	0.0003683
3259.98	0.0003248
3269.63	0.0004413
3279.27	0.0003927
3288.92	0.0006151
3298.56	0.0003656
3308.21	0.00013818
3317.85	0.000554
3327.49	0.000354
3337.14	0.0003055
3346.78	0.0005607
3356.43	0.0008882
3366.07	0.0006408
3375.72	0.0004972
3385.36	0.0004522
3395.01	0.0005739
3404.65	0.0005513
3414.3	0.0004463
3423.94	0.0005274
3433.59	0.0006022
3443.23	0.0006202
3452.88	0.0005922
3462.52	0.0007219
3472.17	0.0006541
3481.81	0.0009201
3491.46	0.0010156
3501.1	0.0009841
3510.75	0.0006565
3520.39	0.0006108
3530.04	0.0004876
3539.68	0.0005314
3549.32	0.0006635
3558.97	0.0005308
3568.61	0.0007172
3578.26	0.0007713
3587.9	0.0008586
3597.55	0.0009729
3607.19	0.0010666
3616.84	0.002776
3626.48	0.006456
3636.13	0.011066
3645.77	0.015506
3655.42	0.009186
3665.06	0.003626
3674.71	0.001456
3684.35	0.0010896
3694	0.0006354
3703.64	0.0005795
3713.29	0.001106
3722.93	0.0005749
3732.58	0.0007047
3742.22	0.0008074
3751.86	0.0007046
3761.51	0.00072
3771.15	0.0007402
3780.8	0.0009527
3790.44	0.001126
3800.09	0.001116
3809.73	0.0009305
3819.38	0.0009955
3829.02	0.0007913
3838.67	0.001156
3848.31	0.0008181
3857.96	0.0010192
3867.6	0.0010582
3877.25	0.001116
3886.89	0.0010124
3896.54	0.0008226
3906.18	0.0009785
3915.83	0.0007111
3925.47	0.0008004
3935.12	0.0005525
3944.76	0.0006434
3954.41	0.0009469
3964.05	0.0006602
3973.69	0.0008448
3983.34	0.000604
3992.98	0.0007692
