Infrared Spectrum: 3,4-Dimethyl-1-pentyn-3-ol
Formula: C 7 H 12 O
CAS: 1482-15-1
State: gas
Instrument: HP-GC/MS/IRD
Origin: NIST Mass Spectrometry Data Center
1/CM	ABSORBANCE
550	0.0015624
562	0.001148
574	0.0014294
586	0.0014294
598	0.0014084
610	0.0018956
622	0.0047222
634	0.0099456
646	0.0104398
658	0.0071526
670	0.002779
682	0.0007532
694	0.0003542
706	0.0001876
718	9.66e-05
730	4.48e-05
742	0.0001232
754	8.68e-05
766	9.66e-05
778	3.08e-05
790	0.0001134
802	0.000112
814	0.00014
826	0.0002086
838	0.000637
850	0.0010444
862	0.0009212
874	0.0005936
886	0.0005516
898	0.0014336
910	0.003283
922	0.0046242
934	0.0037492
946	0.0017864
958	0.00077
970	0.0005068
982	0.0006552
994	0.0012656
1006	0.002289
1018	0.0032354
1030	0.004081
1042	0.00392
1054	0.0038136
1066	0.0042574
1078	0.0044506
1090	0.004466
1102	0.004235
1114	0.0037044
1126	0.0037968
1138	0.0045528
1150	0.0047012
1162	0.00406
1174	0.0033992
1186	0.002828
1198	0.0023464
1210	0.0020174
1222	0.0019208
1234	0.0023254
1246	0.0037646
1258	0.004697
1270	0.004214
1282	0.00364
1294	0.0034748
1306	0.0036092
1318	0.00364
1330	0.0036148
1342	0.0036344
1354	0.0033782
1366	0.00392
1378	0.0048706
1390	0.0036736
1402	0.0017934
1414	0.0008862
1426	0.0008652
1438	0.001246
1450	0.0019194
1462	0.0023184
1474	0.0020552
1486	0.0012362
1498	0.0005768
1510	0.0003346
1522	0.0002688
1534	0.000189
1546	0.0001498
1558	0.0001414
1570	0.0001092
1582	5.74e-05
1594	7.14e-05
1606	7.84e-05
1618	7.56e-05
1630	6.58e-05
1642	8.82e-05
1654	9.38e-05
1666	8.54e-05
1678	6.72e-05
1690	6.16e-05
1702	7e-05
1714	5.88e-05
1726	4.2e-05
1738	5.32e-05
1750	4.48e-05
1762	8.4e-06
1774	3.78e-05
1786	1.26e-05
1798	1.82e-05
1810	6.02e-05
1822	4.62e-05
1834	5.74e-05
1846	6.72e-05
1858	6.44e-05
1870	2.8e-05
1882	4.48e-05
1894	1.26e-05
1906	3.22e-05
1918	2.24e-05
1930	4.34e-05
1942	3.5e-05
1954	6.02e-05
1966	5.04e-05
1978	5.18e-05
1990	1.4e-05
2002	3.22e-05
2014	2.52e-05
2026	5.18e-05
2038	3.64e-05
2050	3.36e-05
2062	4.48e-05
2074	4.62e-05
2086	9.1e-05
2098	8.12e-05
2110	0.0001106
2122	5.88e-05
2134	5.74e-05
2146	5.6e-05
2158	4.9e-05
2170	3.36e-05
2182	2.24e-05
2194	3.92e-05
2206	3.64e-05
2218	7.28e-05
2230	5.04e-05
2242	6.3e-05
2254	6.58e-05
2266	6.72e-05
2278	7.14e-05
2290	6.44e-05
2302	6.44e-05
2314	0.0001078
2326	9.24e-05
2338	5.74e-05
2350	4.2e-05
2362	0.000119
2374	9.24e-05
2386	9.66e-05
2398	7.28e-05
2410	7.7e-05
2422	6.44e-05
2434	6.86e-05
2446	5.88e-05
2458	6.72e-05
2470	5.6e-05
2482	5.88e-05
2494	7.14e-05
2506	7.42e-05
2518	5.32e-05
2530	6.44e-05
2542	4.34e-05
2554	5.6e-05
2566	5.6e-05
2578	5.74e-05
2590	0.0001022
2602	0.0001176
2614	0.000112
2626	9.1e-05
2638	8.68e-05
2650	0.0001078
2662	0.0001092
2674	0.0001652
2686	9.66e-05
2698	7.98e-05
2710	0.0001204
2722	0.0001442
2734	0.000147
2746	0.0002184
2758	0.0002268
2770	0.0001932
2782	0.0001932
2794	0.000175
2806	0.0002492
2818	0.0003388
2830	0.0004284
2842	0.000518
2854	0.0007896
2866	0.0015988
2878	0.0032676
2890	0.004774
2902	0.0053102
2914	0.0050848
2926	0.0052038
2938	0.0063826
2950	0.0073318
2962	0.0095844
2974	0.0136472
2986	0.013307
2998	0.0081494
3010	0.0035602
3022	0.0012684
3034	0.0006006
3046	0.0004424
3058	0.0004284
3070	0.0003724
3082	0.0003094
3094	0.0002702
3106	0.0002828
3118	0.0001946
3130	0.0001624
3142	0.0001778
3154	0.0002198
3166	0.0002156
3178	0.0001764
3190	0.000154
3202	0.0001806
3214	0.0001218
3226	0.000133
3238	0.0001778
3250	0.0002338
3262	0.0002394
3274	0.000567
3286	0.0012082
3298	0.0023828
3310	0.0046648
3322	0.0065744
3334	0.0047376
3346	0.0012152
3358	0.0004242
3370	0.0001932
3382	0.0001694
3394	8.54e-05
3406	7.56e-05
3418	7.56e-05
3430	2.52e-05
3442	8.96e-05
3454	0.0001204
3466	6.86e-05
3478	0.0001022
3490	0.0001484
3502	0.0001036
3514	5.04e-05
3526	6.02e-05
3538	5.46e-05
3550	5.88e-05
3562	6.02e-05
3574	5.74e-05
3586	8.54e-05
3598	8.68e-05
3610	0.000203
3622	0.0006776
3634	0.0019838
3646	0.0028154
3658	0.0014742
3670	0.0003612
3682	0.0001092
3694	5.18e-05
3706	6.02e-05
3718	1.26e-05
3730	1.96e-05
3742	1.4e-06
3754	1.4e-06
3766	4.2e-06
3778	8.4e-06
3790	8.4e-06
3802	1.12e-05
3814	4.76e-05
3826	1.4e-06
3838	1.4e-06
