Infrared Spectrum: 2,2,4-TRIMETHYL-3-OXOVALERALDEHYDE
Formula: C8 H14 O2
CAS: 1482-01-5
Boiling point: 115-117 C AT 103 mmHg
Class: COBLENTZ
Instrument: Not specified, most likely a prism, grating, or hybrid spectrometer.
Sampling: TRANSMISSION
Path length: SMEAR
Resolution: 4
Origin: TENNESSEE EASTMAN COMPANY, RESEARCH LABORATORIES
MICROMETERS	TRANSMITTANCE
2.075	0.984
2.11594	0.988
2.15687	0.989
2.19781	0.984
2.23874	0.974
2.27968	0.959
2.32062	0.96
2.36155	0.965
2.40249	0.967
2.44343	0.967
2.48436	0.969
2.5253	0.974
2.56623	0.974
2.60717	0.974
2.64811	0.97
2.68904	0.969
2.72998	0.952
2.77091	0.945
2.81185	0.935
2.85279	0.926
2.89372	0.912
2.93466	0.875
2.9756	0.899
3.01653	0.918
3.05747	0.924
3.0984	0.923
3.13934	0.918
3.18028	0.919
3.22121	0.924
3.26215	0.919
3.30308	0.873
3.34402	0.319
3.38496	0.397
3.42589	0.598
3.46683	0.551
3.50777	0.682
3.5487	0.711
3.58964	0.819
3.63057	0.829
3.67151	0.735
3.71245	0.784
3.75338	0.885
3.79432	0.93
3.83525	0.945
3.87619	0.953
3.91713	0.955
3.95806	0.957
3.999	0.959
4.03994	0.964
4.08087	0.962
4.12181	0.96
4.16274	0.959
4.20368	0.962
4.24462	0.962
4.28555	0.952
4.32649	0.952
4.36742	0.96
4.40836	0.964
4.4493	0.965
4.49023	0.965
4.53117	0.965
4.57211	0.965
4.61304	0.965
4.65398	0.965
4.69491	0.964
4.73585	0.962
4.77679	0.962
4.81772	0.962
4.85866	0.957
4.89959	0.955
4.94053	0.953
4.98147	0.957
5.0224	0.962
5.06334	0.955
5.10428	0.957
5.14521	0.952
5.18615	0.953
5.22708	0.947
5.26802	0.948
5.30896	0.947
5.34989	0.941
5.39083	0.943
5.43176	0.923
5.4727	0.902
5.51364	0.883
5.55457	0.824
5.59551	0.744
5.63644	0.733
5.67738	0.646
5.71832	0.286
5.75925	0.139
5.80019	0.165
5.84113	0.087
5.88206	0.056
5.923	0.232
5.96393	0.554
6.00487	0.684
6.04581	0.752
6.08674	0.786
6.12768	0.825
6.16861	0.839
6.20955	0.86
6.25049	0.882
6.29142	0.901
6.33236	0.907
6.3733	0.901
6.41423	0.88
6.45517	0.889
6.4961	0.865
6.53704	0.861
6.57798	0.848
6.61891	0.819
6.65985	0.81
6.70078	0.692
6.74172	0.498
6.78266	0.221
6.82359	0.329
6.86453	0.477
6.90547	0.58
6.9464	0.713
6.98734	0.769
7.02827	0.783
7.06921	0.784
7.11015	0.704
7.15108	0.598
7.19202	0.525
7.23295	0.436
7.27389	0.537
7.31483	0.47
7.35576	0.6
7.3967	0.653
7.43764	0.651
7.47857	0.728
7.51951	0.808
7.56044	0.837
7.60138	0.844
7.64232	0.853
7.68325	0.851
7.72419	0.846
7.76512	0.841
7.80606	0.839
7.847	0.843
7.88793	0.844
7.92887	0.839
7.96981	0.824
8.01074	0.793
8.05168	0.754
8.09261	0.728
8.13355	0.749
8.17449	0.757
8.21542	0.752
8.25636	0.742
8.29729	0.701
8.33823	0.684
8.37917	0.696
8.4201	0.713
8.46104	0.689
8.50198	0.643
8.54291	0.658
8.58385	0.68
8.62478	0.709
8.66572	0.75
8.70666	0.779
8.74759	0.8
8.78853	0.807
8.82946	0.808
8.8704	0.807
8.91134	0.791
8.95227	0.764
8.99321	0.737
9.03415	0.696
9.07508	0.609
9.11602	0.503
9.15695	0.576
9.19789	0.672
9.23883	0.713
9.27976	0.73
9.3207	0.728
9.36163	0.709
9.40257	0.677
9.44351	0.614
9.48444	0.491
9.52538	0.329
9.56632	0.25
9.60725	0.269
9.64819	0.315
9.68912	0.377
9.73006	0.457
9.771	0.522
9.81193	0.539
9.85287	0.488
9.8938	0.467
9.93474	0.532
9.97568	0.6
10.0166	0.621
10.0575	0.597
10.0985	0.563
10.1394	0.535
10.1804	0.496
10.2213	0.482
10.2622	0.59
10.3032	0.65
10.3441	0.684
10.385	0.713
10.426	0.725
10.4669	0.725
10.5078	0.73
10.5488	0.755
10.5897	0.778
10.6307	0.79
10.6716	0.786
10.7125	0.766
10.7535	0.74
10.7944	0.723
10.8353	0.662
10.8763	0.588
10.9172	0.558
10.9581	0.581
10.9991	0.619
11.04	0.653
11.081	0.68
11.1219	0.679
11.1628	0.656
11.2038	0.662
11.2447	0.704
11.2856	0.738
11.3266	0.75
11.3675	0.726
11.4084	0.704
11.4494	0.684
11.4903	0.735
11.5313	0.796
11.5722	0.829
11.6131	0.844
11.6541	0.849
11.695	0.856
11.7359	0.861
11.7769	0.865
11.8178	0.868
11.8587	0.87
11.8997	0.87
11.9406	0.866
11.9815	0.856
12.0225	0.841
12.0634	0.815
12.1044	0.786
12.1453	0.737
12.1862	0.68
12.2272	0.656
12.2681	0.679
12.309	0.704
12.35	0.726
12.3909	0.747
12.4318	0.783
12.4728	0.81
12.5137	0.829
12.5547	0.841
12.5956	0.846
12.6365	0.849
12.6775	0.853
12.7184	0.854
12.7593	0.856
12.8003	0.861
12.8412	0.86
12.8821	0.856
12.9231	0.854
12.964	0.854
13.005	0.851
13.0459	0.848
13.0868	0.841
13.1278	0.834
13.1687	0.827
13.2096	0.817
13.2506	0.8
13.2915	0.79
13.3324	0.778
13.3734	0.783
13.4143	0.783
13.4552	0.784
13.4962	0.786
13.5371	0.784
13.5781	0.784
13.619	0.783
13.6599	0.778
13.7009	0.778
13.7418	0.779
13.7827	0.779
13.8237	0.779
13.8646	0.783
13.9055	0.786
13.9465	0.786
13.9874	0.788
14.0284	0.788
14.0693	0.786
14.1102	0.786
14.1512	0.784
14.1921	0.783
14.233	0.779
14.274	0.778
14.3149	0.774
14.3558	0.771
14.3968	0.766
14.4377	0.759
14.4787	0.752
14.5196	0.75
14.5605	0.745
14.6015	0.737
14.6424	0.73
14.6833	0.723
14.7243	0.718
14.7652	0.711
14.8061	0.703
14.8471	0.694
14.888	0.684
14.929	0.668
14.9699	0.656
15.0108	0.655
15.0518	0.639
15.0927	0.633
15.1336	0.622
15.1746	0.61
15.2155	0.604
15.2564	0.602
15.2974	0.6
15.3383	0.598
15.3792	0.597
15.4202	0.597
15.4611	0.597
15.5021	0.597
15.543	0.597
15.5839	0.593
15.6249	0.592
15.6658	0.59
15.7067	0.59
15.7477	0.59
15.7886	0.588
15.8295	0.587
15.8705	0.587
15.9114	0.587
15.9524	0.587
