Infrared Spectrum: METHANEDIAMINE,N,N'-DIBENZYL-N,N'-DIMETHYL-
Formula: C17 H22 N2
CAS: 1483-42-7
State: LIQUID (NEAT)
Boiling point: 131 C AT 0.5 mmHg
Class: COBLENTZ III
Instrument: PERKIN-ELMER 21 (GRATING)
Instrument parameters: FILTER AT ABOUT 10 MICRONS
Path length: CAPILLARY
Resolution: 2
Origin: ABBOTT LABORATORIES
1/CM	TRANSMITTANCE
666	0.7088
675	0.7407
684	0.6712
693	0.1294
702	0.131
711	0.6135
720	0.5875
729	0.1198
738	0.0305
747	0.1528
756	0.5972
765	0.8005
774	0.8594
783	0.8795
792	0.8722
801	0.8079
810	0.7282
819	0.6417
828	0.6617
837	0.7991
846	0.7321
855	0.7027
864	0.5012
873	0.4638
882	0.5789
891	0.7663
900	0.6676
909	0.5221
918	0.7634
927	0.8539
936	0.8385
945	0.8371
954	0.773
963	0.6026
972	0.5217
981	0.5615
990	0.6702
999	0.5777
1008	0.4736
1017	0.1699
1026	0.116
1035	0.0896
1044	0.1131
1053	0.449
1062	0.6175
1071	0.3605
1080	0.7606
1089	0.8002
1098	0.7789
1107	0.697
1116	0.5734
1125	0.5927
1134	0.5223
1143	0.4326
1152	0.3515
1161	0.2658
1170	0.3872
1179	0.5847
1188	0.5418
1197	0.3927
1206	0.3053
1215	0.2572
1224	0.3393
1233	0.5472
1242	0.5785
1251	0.4248
1260	0.3372
1269	0.5455
1278	0.5894
1287	0.5713
1296	0.5779
1305	0.565
1314	0.5229
1323	0.5674
1332	0.6185
1341	0.5448
1350	0.2514
1359	0.2106
1368	0.4268
1377	0.4324
1386	0.4425
1395	0.6783
1404	0.6637
1413	0.5963
1422	0.4412
1431	0.4115
1440	0.2294
1449	0.0929
1458	0.3143
1467	0.3858
1476	0.5905
1485	0.5674
1494	0.2468
1503	0.7242
1512	0.8575
1521	0.8602
1530	0.8581
1539	0.8556
1548	0.8586
1557	0.8683
1566	0.8669
1575	0.8185
1584	0.7416
1593	0.7611
1602	0.5763
1611	0.7288
1620	0.8657
1629	0.8693
1638	0.8589
1647	0.8494
1656	0.8521
1665	0.8592
1674	0.8691
1683	0.8731
1692	0.8732
1701	0.8755
1710	0.8801
1719	0.885
1728	0.8808
1737	0.8727
1746	0.8607
1755	0.8652
1764	0.8814
1773	0.8892
1782	0.8889
1791	0.876
1800	0.8342
1809	0.8158
1818	0.8429
1827	0.8749
1836	0.8948
1845	0.8947
1854	0.8873
1863	0.8641
1872	0.8335
1881	0.8305
1890	0.84
1899	0.8657
1908	0.8898
1917	0.8917
1926	0.8871
1935	0.8614
1944	0.8019
1953	0.803
1962	0.8408
1971	0.8784
1980	0.8895
1989	0.8872
1998	0.8966
2007	0.9015
2016	0.9021
2025	0.9025
2034	0.9028
2043	0.903
2052	0.9031
2061	0.9039
2070	0.905
2079	0.9063
2088	0.9078
2097	0.909
2106	0.9098
2115	0.9099
2124	0.9092
2133	0.908
2142	0.9056
2151	0.9028
2160	0.8995
2169	0.8962
2178	0.8943
2187	0.8933
2196	0.8934
2205	0.8957
2214	0.8974
2223	0.8936
2232	0.89
2241	0.8901
2250	0.8914
2259	0.8915
2268	0.8876
2277	0.8805
2286	0.8762
2295	0.8756
2304	0.876
2313	0.8767
2322	0.8779
2331	0.8798
2340	0.8821
2349	0.8851
2358	0.8881
2367	0.8877
2376	0.8842
2385	0.8793
2394	0.8746
2403	0.872
2412	0.8697
2421	0.8675
2430	0.8655
2439	0.8635
2448	0.8616
2457	0.8596
2466	0.8573
2475	0.8552
2484	0.8531
2493	0.8515
2502	0.85
2511	0.8487
2520	0.8486
2529	0.8482
2538	0.8464
2547	0.8442
2556	0.84
2565	0.8345
2574	0.8264
2583	0.8171
2592	0.8064
2601	0.7946
2610	0.7883
2619	0.786
2628	0.7846
2637	0.776
2646	0.7621
2655	0.7397
2664	0.7113
2673	0.6572
2682	0.5947
2691	0.5325
2700	0.4712
2709	0.4436
2718	0.422
2727	0.4026
2736	0.3763
2745	0.2932
2754	0.1819
2763	0.1325
2772	0.1111
2781	0.101
2790	0.1006
2799	0.104
2808	0.1165
2817	0.1295
2826	0.1437
2835	0.1785
2844	0.2198
2853	0.2608
2862	0.3016
2871	0.3401
2880	0.3495
2889	0.3551
2898	0.3448
2907	0.3299
2916	0.3151
2925	0.3004
2934	0.2858
2943	0.2713
2952	0.2667
2961	0.2762
2970	0.3232
2979	0.3722
2988	0.4207
2997	0.469
3006	0.4915
3015	0.4911
3024	0.4658
3033	0.4254
3042	0.3866
3051	0.3794
3060	0.4211
3069	0.4728
3078	0.5244
3087	0.5755
3096	0.6264
3105	0.677
3114	0.721
3123	0.7365
3132	0.7577
3141	0.7958
3150	0.8176
3159	0.8282
3168	0.8395
3177	0.8531
3186	0.8632
3195	0.8697
3204	0.8759
3213	0.882
3222	0.8884
3231	0.8946
3240	0.8984
3249	0.8994
3258	0.8996
3267	0.8996
3276	0.8996
3285	0.8995
3294	0.8993
3303	0.8985
3312	0.8978
3321	0.8969
3330	0.8949
3339	0.8929
3348	0.8909
3357	0.8883
3366	0.885
3375	0.8817
3384	0.8787
3393	0.8762
3402	0.8754
3411	0.8751
3420	0.8749
3429	0.8751
3438	0.8756
3447	0.8763
3456	0.8772
3465	0.8774
3474	0.8771
3483	0.8768
3492	0.8765
3501	0.876
3510	0.8755
3519	0.875
3528	0.8744
3537	0.8734
3546	0.8724
3555	0.8713
3564	0.8703
3573	0.8691
3582	0.8676
3591	0.8661
3600	0.8647
3609	0.8638
3618	0.863
3627	0.8626
3636	0.8623
3645	0.862
3654	0.8618
3663	0.8617
3672	0.8617
3681	0.8617
3690	0.8616
3699	0.8616
3708	0.8615
3717	0.8613
3726	0.8611
3735	0.861
3744	0.8608
3753	0.8607
3762	0.8604
3771	0.86
3780	0.8597
3789	0.8593
3798	0.859
3807	0.8586
3816	0.8577
3825	0.8567
3834	0.8557
3843	0.8548
3852	0.8542
3861	0.8537
3870	0.853
3879	0.8525
3888	0.852
3897	0.8513
3906	0.8507
3915	0.8501
3924	0.8497
3933	0.8492
3942	0.8489
3951	0.8485
3960	0.848
3969	0.8476
3978	0.8472
3987	0.8468
3996	0.8464
