Infrared Spectrum: 2-Bromoethyl isocyanate
Formula: C 3 H 4 Br N S
CAS: 1483-41-6
State: gas
Origin: EPA-IR VAPOR PHASE LIBRARY
1/CM	ABSORBANCE
549.8	0.01244
559.445	0.01096
569.09	0.01066
578.734	0.01226
588.379	0.01229
598.024	0.00791
607.669	0.00687
617.313	0.00779
626.958	0.0098
636.603	0.01109
646.248	0.01132
655.893	0.01297
665.537	0.01095
675.182	0.00728
684.827	0.00509
694.472	0.00357
704.116	0.00294
713.761	0.00277
723.406	0.00245
733.051	0.00189
742.695	0.0015049
752.34	0.0011304
761.985	0.0011823
771.63	0.00059973
781.275	0.0009004
790.919	0.00053858
800.564	0.0006699
810.209	0.000514276
819.854	0.00060389
829.498	0.0011355
839.143	0.00182
848.788	0.00373
858.433	0.00698
868.078	0.00716
877.722	0.00481
887.367	0.00244
897.012	0.00195
906.657	0.00242
916.301	0.00267
925.946	0.00306
935.591	0.0034
945.236	0.00321
954.88	0.00307
964.525	0.00286
974.17	0.00295
983.815	0.00325
993.46	0.0039
1003.1	0.00452
1012.75	0.00451
1022.39	0.00403
1032.04	0.00406
1041.68	0.00337
1051.33	0.00321
1060.97	0.00333
1070.62	0.00307
1080.26	0.00299
1089.91	0.00337
1099.55	0.00322
1109.2	0.00328
1118.84	0.00443
1128.49	0.00458
1138.13	0.00448
1147.78	0.00458
1157.42	0.00427
1167.07	0.00351
1176.71	0.00373
1186.36	0.00381
1196	0.00556
1205.64	0.01069
1215.29	0.02689
1224.93	0.0317
1234.58	0.01285
1244.22	0.00768
1253.87	0.00701
1263.51	0.0085
1273.16	0.01656
1282.8	0.02268
1292.45	0.01807
1302.09	0.00897
1311.74	0.00921
1321.38	0.01348
1331.03	0.02509
1340.67	0.05137
1350.32	0.06276
1359.96	0.03745
1369.61	0.01449
1379.25	0.00777
1388.9	0.00512
1398.54	0.004
1408.18	0.00407
1417.83	0.00532
1427.47	0.00856
1437.12	0.01294
1446.76	0.01721
1456.41	0.01825
1466.05	0.012
1475.7	0.00439
1485.34	0.00247
1494.99	0.00223
1504.63	0.002
1514.28	0.00172
1523.92	0.0013425
1533.57	0.0010871
1543.21	0.0010935
1552.86	0.0011233
1562.5	0.0011466
1572.15	0.0010178
1581.79	0.0008913
1591.44	0.0009756
1601.08	0.0010032
1610.73	0.0011067
1620.37	0.0010868
1630.01	0.0012259
1639.66	0.0010395
1649.3	0.0009022
1658.95	0.0007223
1668.59	0.0008402
1678.24	0.0008588
1687.88	0.0007764
1697.53	0.0009412
1707.17	0.0009085
1716.82	0.0009215
1726.46	0.0010383
1736.11	0.0011073
1745.75	0.0012083
1755.4	0.0012042
1765.04	0.0012769
1774.69	0.0013369
1784.33	0.0013811
1793.98	0.00156
1803.62	0.0018
1813.27	0.00193
1822.91	0.00212
1832.55	0.00246
1842.2	0.00289
1851.84	0.00341
1861.49	0.00404
1871.13	0.00488
1880.78	0.00582
1890.42	0.00713
1900.07	0.00899
1909.71	0.01148
1919.36	0.0147
1929	0.019
1938.65	0.02493
1948.29	0.03312
1957.94	0.04447
1967.58	0.06022
1977.23	0.08138
1986.87	0.11205
1996.52	0.15789
2006.16	0.22282
2015.81	0.30377
2025.45	0.38606
2035.1	0.44369
2044.74	0.46795
2054.38	0.44915
2064.03	0.34657
2073.67	0.22509
2083.32	0.14967
2092.96	0.11554
2102.61	0.09991
2112.25	0.09322
2121.9	0.08093
2131.54	0.07092
2141.19	0.06608
2150.83	0.0575
2160.48	0.04726
2170.12	0.04156
2179.77	0.03928
2189.41	0.03918
2199.06	0.03946
2208.7	0.03625
2218.35	0.02984
2227.99	0.02365
2237.64	0.01882
2247.28	0.01542
2256.92	0.01325
2266.57	0.01161
2276.21	0.00958
2285.86	0.00753
2295.5	0.00604
2305.15	0.00484
2314.79	0.00421
2324.44	0.00369
2334.08	0.00335
2343.73	0.00309
2353.37	0.00275
2363.02	0.00233
2372.66	0.00203
2382.31	0.00167
2391.95	0.00162
2401.6	0.0014649
2411.24	0.0014996
2420.89	0.0013678
2430.53	0.00155
2440.18	0.0014857
2449.82	0.00151
2459.47	0.00161
2469.11	0.00158
2478.75	0.00177
2488.4	0.0018
2498.04	0.00182
2507.69	0.00179
2517.33	0.00185
2526.98	0.00193
2536.62	0.00215
2546.27	0.00249
2555.91	0.00253
2565.56	0.0021
2575.2	0.0016
2584.85	0.0013238
2594.49	0.0011374
2604.14	0.0010069
2613.78	0.001181
2623.43	0.0011706
2633.07	0.0014543
2642.72	0.00161
2652.36	0.0019
2662.01	0.00253
2671.65	0.00323
2681.29	0.00382
2690.94	0.00479
2700.58	0.00567
2710.23	0.00677
2719.87	0.00763
2729.52	0.00785
2739.16	0.00732
2748.81	0.00568
2758.45	0.00436
2768.1	0.00347
2777.74	0.00294
2787.39	0.00282
2797.03	0.00276
2806.68	0.00272
2816.32	0.00256
2825.97	0.00213
2835.61	0.00215
2845.26	0.00261
2854.9	0.00362
2864.55	0.00557
2874.19	0.00686
2883.84	0.00709
2893.48	0.00707
2903.12	0.00645
2912.77	0.00716
2922.41	0.00991
2932.06	0.01081
2941.7	0.01066
2951.35	0.01268
2960.99	0.01363
2970.64	0.01251
2980.28	0.01167
2989.93	0.00951
2999.57	0.00509
3009.22	0.00359
3018.86	0.00413
3028.51	0.0036
3038.15	0.00235
3047.8	0.0014895
3057.44	0.0009484
3067.09	0.0008375
3076.73	0.0009685
3086.38	0.000808
3096.02	0.0007537
3105.67	0.0007448
3115.31	0.00055515
3124.95	0.0006407
3134.6	0.00052248
3144.24	0.0004649
3153.89	0.000349
3163.53	0.000364
3173.18	0.00050168
3182.82	0.0004217
3192.47	0.000399
3202.11	0.000211
3211.76	0.000386
3221.4	0.000379
3231.05	0.000369
3240.69	0.000255
3250.34	0.000285
3259.98	0.000248
3269.63	0.000371
3279.27	0.000177
3288.92	0.000215
3298.56	1.7e-05
3308.21	0.000216
3317.85	0.000215
3327.49	0.000262
3337.14	0.000165
3346.78	0.000157
3356.43	0.000356
3366.07	0.000296
3375.72	0.000326
3385.36	0.000382
3395.01	0.000328
3404.65	0.0004468
3414.3	0.000388
3423.94	0.00055317
3433.59	0.00059876
3443.23	0.00055092
3452.88	0.0004353
3462.52	2e-05
3472.17	0.000519297
3481.81	0.000381
3491.46	0.00039
3501.1	0.000265
3510.75	0.0004761
3520.39	0.00059523
3530.04	0.000510221
3539.68	0.00054768
3549.32	0.000402
3558.97	0.0006255
3568.61	0.0004727
3578.26	0.000197
3587.9	0.0004832
3597.55	0.0004705
3607.19	0.000344
3616.84	0.000295
3626.48	0.0004391
3636.13	0.000291
3645.77	0.0004539
3655.42	0.0004778
3665.06	0.000355
3674.71	0.0004253
3684.35	0.00055223
3694	0.000368
3703.64	0.000344
3713.29	0.0004326
3722.93	0.00052965
3732.58	0.0004859
3742.22	0.000511577
3751.86	0.00054788
3761.51	0.0006802
3771.15	0.000339
3780.8	0.0004674
3790.44	0.0006685
3800.09	0.0006951
3809.73	0.00056344
3819.38	0.00057831
3829.02	0.0004778
3838.67	0.0006132
3848.31	0.0006536
3857.96	0.000795
3867.6	0.0007311
3877.25	0.0007423
3886.89	0.0008192
3896.54	0.001005
3906.18	0.0010741
3915.83	0.0010983
3925.47	0.0008484
3935.12	0.0011121
3944.76	0.0014076
3954.41	0.0010514
3964.05	0.0016
3973.69	0.00161
3983.34	0.00198
3992.98	0.00206
