Infrared Spectrum: CYCLOHEXANECARBOXYLIC ACID, 1,3-DIHYDROXY-4,5-(ISOPROPYLIDENEDIOXY)-, Gamma-LACTONE, 1-ACETATE
Formula: C12 H16 O6
CAS: 14833-64-8
State: SOLID (OIL MULL)
Class: COBLENTZ III
Instrument: CARY 90 (GRATING)
Instrument parameters: GRATING CHANGED AT 3000, 2000, 1200 CM^-^1
Sampling: TRANSMISSION
Resolution: 4
Origin: WESTERN REGIONAL RES. USDA
1/CM	TRANSMITTANCE
447.891	0.604
457.196	0.657
466.501	0.68
475.807	0.691
485.112	0.694
494.417	0.713
503.722	0.708
513.028	0.705
522.333	0.65
531.638	0.698
540.943	0.679
550.249	0.734
559.554	0.703
568.859	0.74
578.164	0.759
587.47	0.767
596.775	0.77
606.08	0.729
615.385	0.765
624.69	0.805
633.996	0.815
643.301	0.821
652.606	0.83
661.911	0.846
671.217	0.854
680.522	0.85
689.827	0.817
699.132	0.87
708.438	0.865
717.743	0.846
727.048	0.841
736.353	0.819
745.658	0.812
754.964	0.844
764.269	0.747
773.574	0.841
782.879	0.841
792.185	0.79
801.49	0.837
810.795	0.832
820.1	0.832
829.406	0.859
838.711	0.86
848.016	0.854
857.321	0.805
866.627	0.589
875.932	0.839
885.237	0.848
894.542	0.803
903.847	0.844
913.153	0.85
922.458	0.732
931.763	0.839
941.068	0.841
950.374	0.796
959.679	0.675
968.984	0.711
978.289	0.7149
987.595	0.5731
996.9	0.82
1006.21	0.713
1015.51	0.593
1024.82	0.802
1034.12	0.827
1043.43	0.618
1052.73	0.726
1062.04	0.5589
1071.34	0.277
1080.65	0.4481
1089.95	0.5741
1099.26	0.799
1108.56	0.798
1117.87	0.727
1127.17	0.635
1136.48	0.604
1145.78	0.473
1155.09	0.667
1164.39	0.497
1173.7	0.6001
1183	0.771
1192.31	0.776
1201.61	0.5179
1210.92	0.3711
1220.23	0.651
1229.53	0.3809
1238.84	0.262
1248.14	0.4831
1257.45	0.621
1266.75	0.5101
1276.06	0.726
1285.36	0.713
1294.67	0.732
1303.97	0.788
1313.28	0.773
1322.58	0.769
1331.89	0.802
1341.19	0.736
1350.5	0.6611
1359.8	0.7259
1369.11	0.482
1378.41	0.464
1387.72	0.6621
1397.02	0.823
1406.33	0.844
1415.64	0.841
1424.94	0.794
1434.25	0.6979
1443.55	0.588
1452.86	0.506
1462.16	0.505
1471.47	0.7041
1480.77	0.841
1490.08	0.875
1499.38	0.889
1508.69	0.9
1517.99	0.907
1527.3	0.91
1536.6	0.915
1545.91	0.918
1555.21	0.922
1564.52	0.925
1573.82	0.926
1583.13	0.924
1592.43	0.921
1601.74	0.925
1611.05	0.921
1620.35	0.918
1629.66	0.916
1638.96	0.912
1648.27	0.909
1657.57	0.908
1666.88	0.915
1676.18	0.912
1685.49	0.906
1694.79	0.897
1704.1	0.881
1713.4	0.872
1722.71	0.844
1732.01	0.7489
1741.32	0.2617
1750.62	0.4245
1759.93	0.708
1769.23	0.807
1778.54	0.792
1787.84	0.6559
1797.15	0.3559
1806.46	0.2281
1815.76	0.6311
1825.07	0.806
1834.37	0.844
1843.68	0.864
1852.98	0.88
1862.29	0.894
1871.59	0.903
1880.9	0.907
1890.2	0.91
1899.51	0.912
1908.81	0.914
1918.12	0.914
1927.42	0.915
1936.73	0.915
1946.03	0.915
1955.34	0.914
1964.64	0.911
1973.95	0.911
1983.25	0.915
1992.56	0.918
2001.87	0.922
2011.17	0.924
2020.48	0.925
2029.78	0.926
2039.09	0.926
2048.39	0.926
2057.7	0.926
2067	0.925
2076.31	0.9248
2085.61	0.924
2094.92	0.923
2104.22	0.922
2113.53	0.921
2122.83	0.918
2132.14	0.9167
2141.44	0.915
2150.75	0.912
2160.05	0.91
2169.36	0.908
2178.66	0.906
2187.97	0.903
2197.28	0.9016
2206.58	0.899
2215.89	0.8956
2225.19	0.8925
2234.5	0.8885
2243.8	0.8855
2253.11	0.881
2262.41	0.878
2271.72	0.8744
2281.02	0.8714
2290.33	0.8668
2299.63	0.8644
2308.94	0.861
2318.24	0.8583
2327.55	0.856
2336.85	0.8523
2346.16	0.851
2355.46	0.849
2364.77	0.8465
2374.07	0.845
2383.38	0.843
2392.68	0.8412
2401.99	0.839
2411.3	0.838
2420.6	0.837
2429.91	0.835
2439.21	0.834
2448.52	0.8311
2457.82	0.829
2467.13	0.828
2476.43	0.825
2485.74	0.824
2495.04	0.823
2504.35	0.821
2513.65	0.819
2522.96	0.817
2532.26	0.817
2541.57	0.8191
2550.87	0.821
2560.18	0.822
2569.48	0.824
2578.79	0.8282
2588.09	0.8278
2597.4	0.8236
2606.71	0.8198
2616.01	0.815
2625.32	0.8213
2634.62	0.825
2643.93	0.8273
2653.23	0.829
2662.54	0.831
2671.84	0.834
2681.15	0.8364
2690.45	0.837
2699.76	0.836
2709.06	0.835
2718.37	0.8315
2727.67	0.8295
2736.98	0.828
2746.28	0.8245
2755.59	0.822
2764.89	0.8164
2774.2	0.813
2783.5	0.8084
2792.81	0.7932
2802.12	0.7795
2811.42	0.7554
2820.73	0.7182
2830.03	0.6485
2839.34	0.4668
2848.64	0.2339
2857.95	0.219
2867.25	0.2401
2876.56	0.305
2885.86	0.3141
2895.17	0.2366
2904.47	0.1652
2913.78	0.1048
2923.08	0.0503
2932.39	0.0812
2941.69	0.1204
2951	0.1121
2960.3	0.1394
2969.61	0.3133
2978.91	0.425
2988.22	0.5984
2997.53	0.6311
3006.83	0.7171
3016.14	0.7501
3025.44	0.788
3034.75	0.8012
3044.05	0.8059
3053.36	0.803
3062.66	0.806
3071.97	0.808
3081.27	0.81
3090.58	0.814
3099.88	0.8152
3109.19	0.8175
3118.49	0.821
3127.8	0.8243
3137.1	0.829
3146.41	0.8243
3155.71	0.82
3165.02	0.819
3174.32	0.8266
3183.63	0.8378
3192.94	0.8434
3202.24	0.8495
3211.55	0.855
3220.85	0.8605
3230.16	0.8655
3239.46	0.868
3248.77	0.868
3258.07	0.868
3267.38	0.868
3276.68	0.867
3285.99	0.866
3295.29	0.865
3304.6	0.864
3313.9	0.863
3323.21	0.863
3332.51	0.8657
3341.82	0.868
3351.12	0.871
3360.43	0.8748
3369.73	0.8808
3379.04	0.8858
3388.35	0.8888
3397.65	0.8929
3406.96	0.895
3416.26	0.8988
3425.57	0.9
3434.87	0.902
3444.18	0.9059
3453.48	0.908
3462.79	0.909
3472.09	0.907
3481.4	0.904
3490.7	0.902
3500.01	0.8989
3509.31	0.8949
3518.62	0.8889
3527.92	0.883
3537.23	0.881
3546.53	0.88
3555.84	0.88
3565.14	0.881
3574.45	0.882
3583.75	0.8875
3593.06	0.8963
3602.37	0.9013
3611.67	0.908
3620.98	0.9067
3630.28	0.9027
3639.59	0.8967
3648.89	0.8913
3658.2	0.8856
3667.5	0.8806
3676.81	0.8794
3686.11	0.8854
3695.42	0.8895
3704.72	0.893
3714.03	0.894
3723.33	0.895
3732.64	0.893
3741.94	0.8894
3751.25	0.8854
3760.55	0.8794
3769.86	0.8744
3779.16	0.873
3788.47	0.874
3797.78	0.8763
3807.08	0.8797
3816.39	0.883
3825.69	0.8877
3835	0.8928
3844.3	0.8968
3853.61	0.901
3862.91	0.903
3872.22	0.9098
3881.52	0.914
3890.83	0.9169
3900.13	0.919
3909.44	0.9229
3918.74	0.925
3928.05	0.9289
3937.35	0.931
3946.66	0.933
3955.96	0.937
3965.27	0.939
3974.57	0.943
3983.88	0.944
3993.19	0.945
