Infrared Spectrum: 2-Heptynoic acid
Formula: C 7 H 10 O 2
CAS: 1483-67-6
State: gas
Origin: EPA-IR VAPOR PHASE LIBRARY
1/CM	ABSORBANCE
549.8	0.003124
559.445	0.002814
569.09	0.002654
578.734	0.002634
588.379	0.003034
598.024	0.005694
607.669	0.010544
617.313	0.032824
626.958	0.060734
636.603	0.081064
646.248	0.048794
655.893	0.022474
665.537	0.027364
675.182	0.013404
684.827	0.014974
694.472	0.012354
704.116	0.008124
713.761	0.004994
723.406	0.003394
733.051	0.002954
742.695	0.004264
752.34	0.003414
761.985	0.002574
771.63	0.002054
781.275	0.001594
790.919	0.001464
800.564	0.0009934
810.209	0.000707
819.854	0.0007844
829.498	0.0006169
839.143	0.0007188
848.788	0.0005982
858.433	0.00025302
868.078	0.0004114
877.722	0.0008575
887.367	0.0007383
897.012	0.0005477
906.657	0.0010528
916.301	0.000845
925.946	0.0010674
935.591	0.0011196
945.236	0.0009831
954.88	0.0006516
964.525	0.0004814
974.17	0.00021056
983.815	0.0006975
993.46	0.0006069
1003.1	0.0008738
1012.75	0.0007723
1022.39	0.0008677
1032.04	0.001524
1041.68	0.001714
1051.33	0.001784
1060.97	0.001524
1070.62	0.002234
1080.26	0.001534
1089.91	0.001474
1099.55	0.001964
1109.2	0.001844
1118.84	0.0011751
1128.49	0.002134
1138.13	0.003124
1147.78	0.003634
1157.42	0.007434
1167.07	0.008724
1176.71	0.005664
1186.36	0.002594
1196	0.001994
1205.64	0.002174
1215.29	0.003584
1224.93	0.005124
1234.58	0.012534
1244.22	0.017864
1253.87	0.018714
1263.51	0.012334
1273.16	0.005394
1282.8	0.004814
1292.45	0.005344
1302.09	0.005694
1311.74	0.005674
1321.38	0.005224
1331.03	0.004804
1340.67	0.004474
1350.32	0.003904
1359.96	0.004634
1369.61	0.004724
1379.25	0.003904
1388.9	0.003624
1398.54	0.003074
1408.18	0.002554
1417.83	0.003174
1427.47	0.004884
1437.12	0.006874
1446.76	0.008374
1456.41	0.008614
1466.05	0.008004
1475.7	0.006174
1485.34	0.004224
1494.99	0.002754
1504.63	0.001704
1514.28	0.0010186
1523.92	0.0009568
1533.57	0.0008896
1543.21	0.0008006
1552.86	0.0005939
1562.5	0.0005914
1572.15	0.0006404
1581.79	0.0005969
1591.44	0.0006088
1601.08	0.0005525
1610.73	0.0004285
1620.37	0.00030686
1630.01	0.000565
1639.66	0.0004553
1649.3	0.0005256
1658.95	0.0006186
1668.59	0.0003875
1678.24	0.0005054
1687.88	0.0006045
1697.53	0.0007071
1707.17	0.001074
1716.82	0.001454
1726.46	0.002594
1736.11	0.004374
1745.75	0.008284
1755.4	0.009914
1765.04	0.006184
1774.69	0.003624
1784.33	0.002514
1793.98	0.001584
1803.62	0.0007141
1813.27	0.0006155
1822.91	0.0004655
1832.55	0.0003347
1842.2	0.00026671
1851.84	0.0004236
1861.49	0.0003363
1871.13	0.00030495
1880.78	0.0004029
1890.42	0.0004094
1900.07	0.0003206
1909.71	0.000217393
1919.36	0.0002267
1929	0.0003439
1938.65	0.000173
1948.29	0.00023468
1957.94	0.00021217
1967.58	0.0001925
1977.23	0.0001729
1986.87	0.0001981
1996.52	0.00023353
2006.16	0.0003212
2015.81	0.0003217
2025.45	0.000323
2035.1	0.0004767
2044.74	0.000361
2054.38	0.0003914
2064.03	0.0004988
2073.67	0.0005938
2083.32	0.0007999
2092.96	0.001664
2102.61	0.002794
2112.25	0.003924
2121.9	0.003954
2131.54	0.002774
2141.19	0.001254
2150.83	0.0007744
2160.48	0.0006674
2170.12	0.0006954
2179.77	0.0007411
2189.41	0.0008527
2199.06	0.0009715
2208.7	0.001454
2218.35	0.002214
2227.99	0.003464
2237.64	0.004874
2247.28	0.005914
2256.92	0.006754
2266.57	0.009624
2276.21	0.017374
2285.86	0.033494
2295.5	0.061244
2305.15	0.093814
2314.79	0.115254
2324.44	0.129134
2334.08	0.120184
2343.73	0.131144
2353.37	0.146954
2363.02	0.165934
2372.66	0.126414
2382.31	0.058184
2391.95	0.006904
2401.6	0.001854
2411.24	0.001224
2420.89	0.0009347
2430.53	0.0008014
2440.18	0.0008178
2449.82	0.0005453
2459.47	0.0005326
2469.11	0.0005565
2478.75	0.0004374
2488.4	0.0006347
2498.04	0.000651
2507.69	0.0004128
2517.33	0.0003717
2526.98	0.00029445
2536.62	0.0005561
2546.27	0.000477
2555.91	0.0005064
2565.56	0.000463
2575.2	0.000555
2584.85	0.000462
2594.49	0.0005921
2604.14	0.0004986
2613.78	0.0004586
2623.43	0.0007417
2633.07	0.0007795
2642.72	0.0007997
2652.36	0.0009347
2662.01	0.0010662
2671.65	0.001284
2681.29	0.0011205
2690.94	0.001254
2700.58	0.001334
2710.23	0.0010719
2719.87	0.0009282
2729.52	0.0010501
2739.16	0.0012088
2748.81	0.001454
2758.45	0.001504
2768.1	0.001414
2777.74	0.001434
2787.39	0.001794
2797.03	0.001994
2806.68	0.002374
2816.32	0.003114
2825.97	0.004034
2835.61	0.005794
2845.26	0.008804
2854.9	0.013294
2864.55	0.018914
2874.19	0.025464
2883.84	0.026674
2893.48	0.025544
2903.12	0.024604
2912.77	0.030134
2922.41	0.042124
2932.06	0.056884
2941.7	0.067334
2951.35	0.067604
2960.99	0.063734
2970.64	0.054894
2980.28	0.041254
2989.93	0.022164
2999.57	0.011424
3009.22	0.006624
3018.86	0.004624
3028.51	0.003624
3038.15	0.003234
3047.8	0.002724
3057.44	0.002384
3067.09	0.002104
3076.73	0.001894
3086.38	0.001704
3096.02	0.001594
3105.67	0.001424
3115.31	0.001354
3124.95	0.0009124
3134.6	0.000914
3144.24	0.0009413
3153.89	0.0010422
3163.53	0.0008362
3173.18	0.0009315
3182.82	0.0007753
3192.47	0.0004626
3202.11	0.0005503
3211.76	0.0007261
3221.4	0.0006844
3231.05	0.0007255
3240.69	0.0008346
3250.34	0.0009894
3259.98	0.001274
3269.63	0.001954
3279.27	0.003544
3288.92	0.005334
3298.56	0.011174
3308.21	0.014444
3317.85	0.027714
3327.49	0.024504
3337.14	0.026264
3346.78	0.008744
3356.43	0.004294
3366.07	0.002604
3375.72	0.001374
3385.36	0.0004182
3395.01	0.0006976
3404.65	0.00025227
3414.3	0.0004505
3423.94	0.0004859
3433.59	0.0003473
3443.23	0.0003789
3452.88	0.0004815
3462.52	0.0005127
3472.17	0.00029429
3481.81	0.0003693
3491.46	0.0003371
3501.1	0.0003172
3510.75	0.0001864
3520.39	0.0007394
3530.04	0.0006899
3539.68	0.0007764
3549.32	0.001064
3558.97	0.001984
3568.61	0.004884
3578.26	0.004844
3587.9	0.003174
3597.55	0.003034
3607.19	0.001834
3616.84	0.001414
3626.48	0.002934
3636.13	0.002614
3645.77	0.001564
3655.42	0.0006706
3665.06	0.0011163
3674.71	0.001704
3684.35	0.002774
3694	0.003914
3703.64	0.004094
3713.29	0.002154
3722.93	0.003554
3732.58	0.005534
3742.22	0.004364
3751.86	0.001774
3761.51	0.0005197
3771.15	0.00028313
3780.8	6.7e-05
3790.44	0.0001848
3800.09	0.000473
3809.73	0.00026555
3819.38	0.0004825
3829.02	0.0004221
3838.67	0.00028334
3848.31	0.0001865
3857.96	0.0003388
3867.6	0.0001807
3877.25	0.0003637
3886.89	0.0001363
3896.54	0.0003706
3906.18	0.0006936
3915.83	0.0006848
3925.47	0.0005776
3935.12	0.0008225
3944.76	0.0008604
3954.41	0.0004111
3964.05	0.0001867
3973.69	0.0006253
3983.34	1.5e-05
3992.98	0.0005016
