Infrared Spectrum: 2,5-Dimethoxythiophenol
Formula: C 8 H 10 O 2 S
CAS: 1483-27-8
State: gas
Origin: EPA-IR VAPOR PHASE LIBRARY
1/CM	ABSORBANCE
549.8	0.002063
559.445	0.0017312
569.09	0.002783
578.734	0.002793
588.379	0.002553
598.024	0.002853
607.669	0.002903
617.313	0.002693
626.958	0.0016907
636.603	0.0018601
646.248	0.0018436
655.893	0.0015475
665.537	0.002243
675.182	0.002643
684.827	0.003443
694.472	0.003673
704.116	0.004003
713.761	0.008613
723.406	0.014023
733.051	0.014223
742.695	0.009593
752.34	0.005563
761.985	0.003483
771.63	0.003593
781.275	0.005093
790.919	0.007633
800.564	0.010793
810.209	0.009943
819.854	0.006103
829.498	0.005473
839.143	0.006263
848.788	0.007833
858.433	0.009063
868.078	0.010433
877.722	0.010153
887.367	0.007653
897.012	0.003973
906.657	0.003223
916.301	0.003313
925.946	0.003063
935.591	0.002813
945.236	0.002943
954.88	0.002523
964.525	0.002083
974.17	0.003513
983.815	0.005743
993.46	0.006093
1003.1	0.010413
1012.75	0.017493
1022.39	0.024053
1032.04	0.033723
1041.68	0.045903
1051.33	0.044793
1060.97	0.032913
1070.62	0.026793
1080.26	0.018203
1089.91	0.008383
1099.55	0.005753
1109.2	0.006113
1118.84	0.005683
1128.49	0.007373
1138.13	0.008663
1147.78	0.007793
1157.42	0.007083
1167.07	0.012173
1176.71	0.019113
1186.36	0.019373
1196	0.021943
1205.64	0.046033
1215.29	0.097273
1224.93	0.101543
1234.58	0.051823
1244.22	0.031323
1253.87	0.030153
1263.51	0.040393
1273.16	0.041693
1282.8	0.030313
1292.45	0.020533
1302.09	0.013763
1311.74	0.008903
1321.38	0.006103
1331.03	0.004503
1340.67	0.003633
1350.32	0.003483
1359.96	0.003263
1369.61	0.003283
1379.25	0.004433
1388.9	0.007553
1398.54	0.010563
1408.18	0.010233
1417.83	0.010993
1427.47	0.016723
1437.12	0.027823
1446.76	0.028883
1456.41	0.025403
1466.05	0.034713
1475.7	0.052423
1485.34	0.101873
1494.99	0.120933
1504.63	0.055633
1514.28	0.016883
1523.92	0.008563
1533.57	0.006333
1543.21	0.005763
1552.86	0.006773
1562.5	0.008353
1572.15	0.010763
1581.79	0.014903
1591.44	0.018223
1601.08	0.017413
1610.73	0.011413
1620.37	0.006763
1630.01	0.004443
1639.66	0.003853
1649.3	0.003103
1658.95	0.003023
1668.59	0.002793
1678.24	0.002653
1687.88	0.002463
1697.53	0.002063
1707.17	0.002393
1716.82	0.002233
1726.46	0.002193
1736.11	0.002193
1745.75	0.002163
1755.4	0.001963
1765.04	0.002193
1774.69	0.0019373
1784.33	0.0019322
1793.98	0.0018346
1803.62	0.001963
1813.27	0.001973
1822.91	0.002013
1832.55	0.0018812
1842.2	0.0018368
1851.84	0.001862
1861.49	0.001699
1871.13	0.0014668
1880.78	0.0015788
1890.42	0.0015159
1900.07	0.0016787
1909.71	0.0018522
1919.36	0.0017679
1929	0.0017003
1938.65	0.0018906
1948.29	0.0019151
1957.94	0.002123
1967.58	0.002333
1977.23	0.002403
1986.87	0.002473
1996.52	0.002613
2006.16	0.002373
2015.81	0.002283
2025.45	0.002203
2035.1	0.002133
2044.74	0.002423
2054.38	0.002253
2064.03	0.002463
2073.67	0.002433
2083.32	0.002583
2092.96	0.002623
2102.61	0.002363
2112.25	0.002063
2121.9	0.0017128
2131.54	0.0016611
2141.19	0.0016562
2150.83	0.001724
2160.48	0.0015795
2170.12	0.0013067
2179.77	0.0013252
2189.41	0.0011458
2199.06	0.0014345
2208.7	0.0016267
2218.35	0.0014124
2227.99	0.0013445
2237.64	0.0014362
2247.28	0.0012187
2256.92	0.001392
2266.57	0.0012567
2276.21	0.001325
2285.86	0.0013077
2295.5	0.0013169
2305.15	0.0011856
2314.79	0.0012371
2324.44	0.0010798
2334.08	0.0013991
2343.73	0.00100015
2353.37	0.0016448
2363.02	0.0014034
2372.66	0.0012726
2382.31	0.0011631
2391.95	0.0012508
2401.6	0.0015491
2411.24	0.0011707
2420.89	0.00102044
2430.53	0.0012317
2440.18	0.0012062
2449.82	0.001289
2459.47	0.0017042
2469.11	0.001571
2478.75	0.0016935
2488.4	0.0014741
2498.04	0.001918
2507.69	0.0017348
2517.33	0.0017692
2526.98	0.0016826
2536.62	0.0015151
2546.27	0.0014359
2555.91	0.0014919
2565.56	0.0012432
2575.2	0.0016395
2584.85	0.002263
2594.49	0.003243
2604.14	0.003083
2613.78	0.002043
2623.43	0.0016442
2633.07	0.0013839
2642.72	0.0014552
2652.36	0.0010935
2662.01	0.0010902
2671.65	0.0014273
2681.29	0.0010545
2690.94	0.0011451
2700.58	0.0012018
2710.23	0.001522
2719.87	0.00133
2729.52	0.0014145
2739.16	0.001541
2748.81	0.0013479
2758.45	0.0017573
2768.1	0.001973
2777.74	0.002123
2787.39	0.002463
2797.03	0.002923
2806.68	0.003853
2816.32	0.005603
2825.97	0.008503
2835.61	0.015823
2845.26	0.018263
2854.9	0.013053
2864.55	0.008393
2874.19	0.007443
2883.84	0.008173
2893.48	0.009683
2903.12	0.012963
2912.77	0.015713
2922.41	0.017143
2932.06	0.018683
2941.7	0.027253
2951.35	0.029973
2960.99	0.022233
2970.64	0.015323
2980.28	0.011953
2989.93	0.013543
2999.57	0.020763
3009.22	0.021743
3018.86	0.011843
3028.51	0.006943
3038.15	0.005693
3047.8	0.005663
3057.44	0.005513
3067.09	0.005273
3076.73	0.005593
3086.38	0.004873
3096.02	0.004303
3105.67	0.003493
3115.31	0.002393
3124.95	0.002113
3134.6	0.002023
3144.24	0.0017889
3153.89	0.0014912
3163.53	0.0014393
3173.18	0.0015962
3182.82	0.0017148
3192.47	0.0016979
3202.11	0.0012778
3211.76	0.000763
3221.4	0.000554
3231.05	0.0014801
3240.69	0.0010844
3250.34	0.001271
3259.98	0.00101009
3269.63	0.0008783
3279.27	0.000513
3288.92	0.0010635
3298.56	0.00098165
3308.21	0.00097479
3317.85	0.00099887
3327.49	0.0009626
3337.14	0.00093437
3346.78	0.0013002
3356.43	0.000818
3366.07	0.000302
3375.72	0.000843
3385.36	0.000552
3395.01	0.000623
3404.65	0.000405
3414.3	0.000588
3423.94	0.0011113
3433.59	0.0013701
3443.23	0.000783
3452.88	0.000577
3462.52	0.00096116
3472.17	0.00101172
3481.81	0.000767
3491.46	0.0015271
3501.1	0.0013593
3510.75	0.0013483
3520.39	0.0013739
3530.04	0.0012175
3539.68	0.0010541
3549.32	0.00096905
3558.97	0.000459
3568.61	0.000718
3578.26	0.0011319
3587.9	0.000775
3597.55	0.00098963
3607.19	0.00103972
3616.84	0.0012735
3626.48	0.001315
3636.13	0.000151
3645.77	0.00058
3655.42	0.0010985
3665.06	0.000679
3674.71	0.00095934
3684.35	0.0018801
3694	0.000714
3703.64	0.000683
3713.29	0.000827
3722.93	0.000766
3732.58	0.000758
3742.22	0.000753
3751.86	0.0012313
3761.51	0.000515
3771.15	0.0011872
3780.8	0.000363
3790.44	0.000484
3800.09	0.000795
3809.73	0.000947694
3819.38	0.001312
3829.02	0.00068
3838.67	0.0009318
3848.31	0.0013489
3857.96	0.000361
3867.6	0.0011362
3877.25	0.0011127
3886.89	0.00102251
3896.54	0.0011288
3906.18	0.00096519
3915.83	0.000663
3925.47	0.000741
3935.12	0.00079
3944.76	0.0011845
3954.41	0.0018013
3964.05	0.0010183
3973.69	0.000276
3983.34	0.0013992
3992.98	0.0012506
