Infrared Spectrum: 2,5-Dimethoxybenzenesulfonyl chloride
Formula: C 8 H 9 Cl O 4 S
CAS: 1483-28-9
State: gas
Origin: EPA-IR VAPOR PHASE LIBRARY
1/CM	ABSORBANCE
549.8	0.06556
559.445	0.06763
569.09	0.05938
578.734	0.04796
588.379	0.04153
598.024	0.04096
607.669	0.04451
617.313	0.0289
626.958	0.01215
636.603	0.00559
646.248	0.00345
655.893	0.00301
665.537	0.00407
675.182	0.01275
684.827	0.03143
694.472	0.02094
704.116	0.00745
713.761	0.0061
723.406	0.00576
733.051	0.00663
742.695	0.00755
752.34	0.00565
761.985	0.00292
771.63	0.00174
781.275	0.00163
790.919	0.00237
800.564	0.00473
810.209	0.01038
819.854	0.01414
829.498	0.00922
839.143	0.00409
848.788	0.00346
858.433	0.00533
868.078	0.00798
877.722	0.00926
887.367	0.00804
897.012	0.00447
906.657	0.00243
916.301	0.00193
925.946	0.00157
935.591	0.0016
945.236	0.00175
954.88	0.00221
964.525	0.00293
974.17	0.00428
983.815	0.00613
993.46	0.00859
1003.1	0.01482
1012.75	0.02344
1022.39	0.0295
1032.04	0.04147
1041.68	0.05169
1051.33	0.03974
1060.97	0.02214
1070.62	0.01014
1080.26	0.00575
1089.91	0.00478
1099.55	0.00427
1109.2	0.0046
1118.84	0.0058
1128.49	0.01079
1138.13	0.01487
1147.78	0.01567
1157.42	0.02081
1167.07	0.03745
1176.71	0.07455
1186.36	0.09661
1196	0.05394
1205.64	0.02927
1215.29	0.04594
1224.93	0.08222
1234.58	0.06291
1244.22	0.03203
1253.87	0.03716
1263.51	0.07008
1273.16	0.10405
1282.8	0.06593
1292.45	0.03409
1302.09	0.02453
1311.74	0.01442
1321.38	0.00888
1331.03	0.00693
1340.67	0.00604
1350.32	0.00625
1359.96	0.00774
1369.61	0.01283
1379.25	0.02791
1388.9	0.05513
1398.54	0.07055
1408.18	0.0697
1417.83	0.0321
1427.47	0.02425
1437.12	0.03709
1446.76	0.03666
1456.41	0.02512
1466.05	0.03303
1475.7	0.04599
1485.34	0.08895
1494.99	0.15765
1504.63	0.11915
1514.28	0.03793
1523.92	0.01423
1533.57	0.00837
1543.21	0.00645
1552.86	0.00661
1562.5	0.00747
1572.15	0.00759
1581.79	0.00668
1591.44	0.00513
1601.08	0.00551
1610.73	0.00579
1620.37	0.00395
1630.01	0.00286
1639.66	0.00242
1649.3	0.0021
1658.95	0.00181
1668.59	0.00162
1678.24	0.00145
1687.88	0.00144
1697.53	0.00137
1707.17	0.00152
1716.82	0.00164
1726.46	0.00178
1736.11	0.00156
1745.75	0.00155
1755.4	0.00148
1765.04	0.00153
1774.69	0.00141
1784.33	0.00128
1793.98	0.00119
1803.62	0.00105
1813.27	0.00106
1822.91	0.0008599
1832.55	0.0008102
1842.2	0.0008371
1851.84	0.0008468
1861.49	0.00115
1871.13	0.00135
1880.78	0.00161
1890.42	0.0014
1900.07	0.00129
1909.71	0.00141
1919.36	0.00141
1929	0.00117
1938.65	0.00102
1948.29	0.00106
1957.94	0.00103
1967.58	0.00116
1977.23	0.00129
1986.87	0.00153
1996.52	0.00185
2006.16	0.00221
2015.81	0.00246
2025.45	0.00238
2035.1	0.00213
2044.74	0.00199
2054.38	0.00192
2064.03	0.00182
2073.67	0.0017
2083.32	0.0015
2092.96	0.00133
2102.61	0.0013
2112.25	0.00119
2121.9	0.0009244
2131.54	0.0008183
2141.19	0.0007356
2150.83	0.0007352
2160.48	0.0007598
2170.12	0.0006229
2179.77	0.0007447
2189.41	0.0006209
2199.06	0.0005531
2208.7	0.0005013
2218.35	0.0005132
2227.99	0.0006018
2237.64	0.0006193
2247.28	0.0006167
2256.92	0.000544
2266.57	0.0005271
2276.21	0.0005874
2285.86	0.0004596
2295.5	0.0005871
2305.15	0.0006274
2314.79	0.0007265
2324.44	0.0007246
2334.08	0.0007307
2343.73	0.00083
2353.37	0.0009809
2363.02	0.0009092
2372.66	0.0009205
2382.31	0.0008999
2391.95	0.000591
2401.6	0.0004875
2411.24	0.0003289
2420.89	0.0003812
2430.53	0.0005139
2440.18	0.0006381
2449.82	0.000582
2459.47	0.0007153
2469.11	0.000805
2478.75	0.0008865
2488.4	0.0009698
2498.04	0.00112
2507.69	0.00112
2517.33	0.00123
2526.98	0.00132
2536.62	0.00154
2546.27	0.00147
2555.91	0.00157
2565.56	0.00145
2575.2	0.00128
2584.85	0.000924
2594.49	0.0008828
2604.14	0.0007931
2613.78	0.0008353
2623.43	0.0008146
2633.07	0.0008019
2642.72	0.0007089
2652.36	0.0006328
2662.01	0.0005993
2671.65	0.0005809
2681.29	0.0004198
2690.94	0.0004686
2700.58	0.0004384
2710.23	0.0005754
2719.87	0.0005666
2729.52	0.0005677
2739.16	0.0008695
2748.81	0.0008663
2758.45	0.00108
2768.1	0.00123
2777.74	0.00131
2787.39	0.00143
2797.03	0.00188
2806.68	0.00241
2816.32	0.00308
2825.97	0.00452
2835.61	0.0083
2845.26	0.01539
2854.9	0.01303
2864.55	0.00789
2874.19	0.00594
2883.84	0.00568
2893.48	0.00674
2903.12	0.00902
2912.77	0.01114
2922.41	0.01226
2932.06	0.01436
2941.7	0.02072
2951.35	0.0246
2960.99	0.02068
2970.64	0.01583
2980.28	0.01052
2989.93	0.00795
2999.57	0.00903
3009.22	0.01511
3018.86	0.01661
3028.51	0.00832
3038.15	0.00498
3047.8	0.00436
3057.44	0.00427
3067.09	0.00431
3076.73	0.00504
3086.38	0.00603
3096.02	0.00427
3105.67	0.00254
3115.31	0.002
3124.95	0.00148
3134.6	0.00121
3144.24	0.0009843
3153.89	0.0006686
3163.53	0.0006259
3173.18	0.0006679
3182.82	0.0006813
3192.47	0.0006452
3202.11	0.0004894
3211.76	0.0005919
3221.4	0.000409
3231.05	0.0003408
3240.69	0.0004506
3250.34	0.0002328
3259.98	0.000255
3269.63	0.000458
3279.27	0.0001806
3288.92	0.0002624
3298.56	0.0002173
3308.21	0.0003209
3317.85	0.000313
3327.49	0.0003067
3337.14	0.0003517
3346.78	0.0002767
3356.43	0.0002185
3366.07	0.0002305
3375.72	0.0003439
3385.36	0.0003661
3395.01	0.000519
3404.65	0.0004147
3414.3	0.0002216
3423.94	0.0002973
3433.59	0.0002859
3443.23	0.0003281
3452.88	0.0002209
3462.52	0.0002401
3472.17	0.0004206
3481.81	0.0001892
3491.46	0.0002502
3501.1	0.000328
3510.75	0.0003478
3520.39	0.0003304
3530.04	0.0003352
3539.68	0.0001361
3549.32	0.000372
3558.97	0.0005033
3568.61	0.0002762
3578.26	0.0002538
3587.9	0.0003143
3597.55	0.0003504
3607.19	0.0001783
3616.84	0.0001708
3626.48	0.000301
3636.13	0.0001602
3645.77	0.0001425
3655.42	0.0002086
3665.06	0.0002725
3674.71	0.0002773
3684.35	0.0003778
3694	0.0002829
3703.64	0.0003367
3713.29	0.0003833
3722.93	0.0002678
3732.58	0.0003307
3742.22	0.0004422
3751.86	0.0001495
3761.51	0.0004952
3771.15	0.0003548
3780.8	0.0002875
3790.44	0.0001804
3800.09	0.0005016
3809.73	0.0002974
3819.38	0.000419
3829.02	0.0003448
3838.67	0.0003347
3848.31	0.000334
3857.96	0.0006545
3867.6	0.0003253
3877.25	0.0005812
3886.89	0.0004206
3896.54	0.0002513
3906.18	0.0004716
3915.83	0.0005437
3925.47	0.0006895
3935.12	0.0005353
3944.76	0.0005454
3954.41	0.000473
3964.05	0.0005147
3973.69	0.0006741
3983.34	0.0005345
3992.98	0.0006312
