Infrared Spectrum: Desyl bromide
Formula: C 14 H 11 Br O
CAS: 1484-50-0
State: gas
Origin: EPA-IR VAPOR PHASE LIBRARY
1/CM	ABSORBANCE
501.5	0.000976
513.074	0.0010513
524.648	0.001435
536.222	0.002425
547.796	0.003575
559.37	0.004995
570.944	0.007095
582.518	0.004095
594.092	0.005325
605.666	0.008945
617.24	0.008705
628.814	0.012585
640.388	0.006315
651.962	0.004715
663.536	0.006715
675.11	0.011785
686.684	0.024155
698.258	0.024235
709.832	0.014805
721.406	0.008165
732.98	0.007235
744.554	0.008665
756.128	0.006475
767.702	0.003945
779.276	0.003565
790.85	0.004085
802.423	0.003375
813.997	0.004305
825.571	0.005405
837.145	0.003915
848.719	0.003175
860.293	0.001805
871.867	0.0012254
883.441	0.0010852
895.015	0.001139
906.589	0.0012211
918.163	0.001585
929.737	0.001675
941.311	0.001685
952.885	0.002155
964.459	0.003615
976.033	0.007835
987.607	0.012185
999.181	0.006935
1010.76	0.004795
1022.33	0.004155
1033.9	0.003645
1045.48	0.002125
1057.05	0.001775
1068.63	0.002545
1080.2	0.002095
1091.77	0.001745
1103.35	0.001975
1114.92	0.001575
1126.49	0.001945
1138.07	0.003165
1149.64	0.004275
1161.22	0.006805
1172.79	0.010985
1184.36	0.014995
1195.94	0.012695
1207.51	0.018475
1219.09	0.011605
1230.66	0.008405
1242.23	0.007675
1253.81	0.007575
1265.38	0.011215
1276.96	0.011385
1288.53	0.008755
1300.1	0.006955
1311.68	0.004875
1323.25	0.004485
1334.83	0.004575
1346.4	0.005235
1357.97	0.003255
1369.55	0.002005
1381.12	0.001765
1392.7	0.0012599
1404.27	0.0010463
1415.84	0.0011721
1427.42	0.001715
1438.99	0.004015
1450.57	0.008325
1462.14	0.003585
1473.71	0.001825
1485.29	0.002645
1496.86	0.005325
1508.44	0.001735
1520.01	0.0012588
1531.58	0.0012734
1543.16	0.0011869
1554.73	0.0012767
1566.31	0.001845
1577.88	0.003645
1589.45	0.004515
1601.03	0.004705
1612.6	0.002265
1624.18	0.001545
1635.75	0.001495
1647.32	0.001725
1658.9	0.002215
1670.47	0.003605
1682.05	0.008155
1693.62	0.015275
1705.19	0.023255
1716.77	0.022055
1728.34	0.008125
1739.92	0.003535
1751.49	0.002145
1763.06	0.001585
1774.64	0.001405
1786.21	0.001545
1797.79	0.002005
1809.36	0.001545
1820.93	0.0009682
1832.51	0.0007002
1844.08	0.0006162
1855.66	0.0006776
1867.23	0.0008788
1878.8	0.0011348
1890.38	0.001325
1901.95	0.0011926
1913.53	0.0009179
1925.1	0.0008014
1936.67	0.0011172
1948.25	0.001485
1959.82	0.001535
1971.4	0.001088
1982.97	0.0005915
1994.54	0.000455
2006.12	0.00038735
2017.69	0.00037965
2029.27	0.00036963
2040.84	0.00037304
2052.41	0.0003136
2063.99	0.0003082
2075.56	0.0002864
2087.14	0.000287
2098.71	0.0002771
2110.28	0.0002887
2121.86	0.0002628
2133.43	0.0002584
2145.01	0.000268
2156.58	0.0002713
2168.15	0.0002781
2179.73	0.0003029
2191.3	0.0003112
2202.88	0.0002671
2214.45	0.0002834
2226.02	0.0002843
2237.6	0.0003044
2249.17	0.000325127
2260.74	0.00034285
2272.32	0.00033889
2283.89	0.00037826
2295.47	0.00039726
2307.04	0.00040061
2318.61	0.0005776
2330.19	0.0004961
2341.76	0.0005511
2353.34	0.0004889
2364.91	0.0004353
2376.48	0.00040968
2388.06	0.00042342
2399.63	0.00040043
2411.21	0.00040005
2422.78	0.00038706
2434.35	0.00038393
2445.93	0.000324534
2457.5	0.00033099
2469.08	0.000328357
2480.65	0.0003576
2492.22	0.00034885
2503.8	0.0003448
2515.37	0.00031708
2526.95	0.0003535
2538.52	0.0003207
2550.09	0.000329676
2561.67	0.0003099
2573.24	0.0003058
2584.82	0.00037369
2596.39	0.00040009
2607.96	0.00038208
2619.54	0.00033876
2631.11	0.000328361
2642.69	0.0002738
2654.26	0.0002571
2665.83	0.0002465
2677.41	0.0002985
2688.98	0.000294
2700.56	0.00031894
2712.13	0.0002483
2723.7	0.0002952
2735.28	0.0002977
2746.85	0.00031575
2758.43	0.00034058
2770	0.00033971
2781.57	0.00037086
2793.15	0.00038421
2804.72	0.00039374
2816.3	0.000329211
2827.87	0.00034498
2839.44	0.00038189
2851.02	0.00039251
2862.59	0.00042423
2874.17	0.0004915
2885.74	0.0005311
2897.31	0.0005756
2908.89	0.0005373
2920.46	0.0005586
2932.04	0.0005935
2943.61	0.0006854
2955.18	0.0007531
2966.76	0.0009047
2978.33	0.0011674
2989.91	0.0012773
3001.48	0.001445
3013.05	0.002325
3024.63	0.004675
3036.2	0.007585
3047.78	0.005825
3059.35	0.008155
3070.92	0.015095
3082.5	0.010355
3094.07	0.007475
3105.65	0.004285
3117.22	0.002075
3128.79	0.0008727
3140.37	0.0006681
3151.94	0.0006686
3163.52	0.0006343
3175.09	0.0004366
3186.66	0.0002863
3198.24	0.000243
3209.81	0.0002523
3221.39	0.0002378
3232.96	0.000171
3244.53	0.000201
3256.11	0.000135
3267.68	0.000205
3279.26	0.000179
3290.83	0.000218
3302.4	0.000174
3313.98	0.000191
3325.55	0.000119
3337.13	0.000189
3348.7	0.0002265
3360.27	0.0002757
3371.85	0.000326751
3383.42	0.00036526
3395	0.0004682
3406.57	0.0004766
3418.14	0.00038175
3429.72	0.00022
3441.29	0.000218
3452.86	0.000175
3464.44	0.000153
3476.01	0.000119
3487.59	5.6e-05
3499.16	9.4e-05
3510.73	9.6e-05
3522.31	9.4e-05
3533.88	5.6e-05
3545.46	9.2e-05
3557.03	9.3e-05
3568.6	0.000113
3580.18	7.7e-05
3591.75	7.3e-05
3603.33	7.8e-05
3614.9	9.4e-05
3626.47	0.000107
3638.05	0.000152
3649.62	0.000186
3661.2	0.000162
3672.77	7.7e-05
3684.34	8.5e-05
3695.92	0.000111
3707.49	0.000173
3719.07	0.000116
3730.64	0.00011
3742.21	6.9e-05
3753.79	8e-05
3765.36	0.000133
3776.94	0.000125
3788.51	0.00012
3800.08	3.4e-05
3811.66	0.00011
3823.23	0.00011
3834.81	4.5e-05
3846.38	4.3e-05
3857.95	7.8e-05
3869.53	4.1e-05
3881.1	1.3e-05
3892.68	5.3e-05
3904.25	6.9e-05
3915.82	9.9e-05
3927.4	7.4e-05
3938.97	4.7e-05
3950.55	2.9e-05
3962.12	4.5e-05
3973.69	9e-06
3985.27	6e-05
3996.84	6.3e-05
