Infrared Spectrum: 9-Methylcarbazole
Formula: C 13 H 11 N
CAS: 1484-12-4
State: gas
Instrument: HP-GC/MS/IRD
Origin: NIST Mass Spectrometry Data Center
1/CM	ABSORBANCE
550	0.00163
562	0.00317
574	0.0008325
586	0.0002825
598	0.00016
610	0.000735
622	0.001435
634	0.0002025
646	0.0001575
658	0.0002775
670	0.000355
682	0.000215
694	0.0005475
706	0.0053725
718	0.01983
730	0.01321
742	0.0193225
754	0.0134375
766	0.0020875
778	0.0006675
790	0.0001575
802	0.0001325
814	0.00024
826	0.0005725
838	0.00133
850	0.001695
862	0.0021475
874	0.001485
886	0.000335
898	0.0001475
910	0.0003275
922	0.00056
934	0.00018
946	3e-05
958	8.5e-05
970	7.75e-05
982	0.000475
994	0.0020575
1006	0.0038075
1018	0.00257
1030	0.001175
1042	0.000485
1054	0.00117
1066	0.0012675
1078	0.0006575
1090	0.00087
1102	0.001495
1114	0.0043825
1126	0.005525
1138	0.003795
1150	0.0070475
1162	0.0066925
1174	0.00327
1186	0.001835
1198	0.001575
1210	0.0018725
1222	0.0033475
1234	0.0128325
1246	0.017195
1258	0.003385
1270	0.0012775
1282	0.000955
1294	0.0015725
1306	0.00574
1318	0.01931
1330	0.01397
1342	0.0095475
1354	0.0092775
1366	0.00536
1378	0.002245
1390	0.002075
1402	0.0029525
1414	0.0032275
1426	0.0042425
1438	0.0048525
1450	0.013625
1462	0.0190875
1474	0.0186925
1486	0.021825
1498	0.009465
1510	0.003455
1522	0.00214
1534	0.0018375
1546	0.001935
1558	0.002175
1570	0.0032125
1582	0.0044575
1594	0.008625
1606	0.008695
1618	0.0036325
1630	0.003565
1642	0.001965
1654	0.001145
1666	0.00099
1678	0.000845
1690	0.00044
1702	0.0002375
1714	0.000205
1726	0.000395
1738	0.0004075
1750	0.0008775
1762	0.0009175
1774	0.0004075
1786	0.00064
1798	0.0006625
1810	0.000195
1822	0.0001975
1834	0.0005775
1846	0.00078
1858	0.0004475
1870	0.00113
1882	0.001305
1894	0.0005375
1906	0.0011325
1918	0.00147
1930	0.0002675
1942	6.25e-05
1954	4.25e-05
1966	5.5e-05
1978	5.25e-05
1990	3.25e-05
2002	4e-05
2014	5e-05
2026	6e-05
2038	4e-05
2050	4e-05
2062	4.25e-05
2074	6.75e-05
2086	8.75e-05
2098	4e-05
2110	6.5e-05
2122	9e-05
2134	0.000105
2146	0.0001
2158	7.25e-05
2170	0.0001
2182	0.00015
2194	0.0001875
2206	0.000185
2218	0.00016
2230	0.0001125
2242	0.00012
2254	0.0001325
2266	9e-05
2278	8.75e-05
2290	4.75e-05
2302	0.0001025
2314	0.0002125
2326	0.0001875
2338	0.0001025
2350	8.75e-05
2362	4.75e-05
2374	1.5e-05
2386	3.25e-05
2398	4.75e-05
2410	5e-05
2422	5.75e-05
2434	7.25e-05
2446	8.75e-05
2458	0.000195
2470	0.0002975
2482	0.00037
2494	0.000355
2506	0.00023
2518	0.0001925
2530	0.000115
2542	0.0001125
2554	0.000175
2566	0.000245
2578	0.00029
2590	0.00037
2602	0.000355
2614	0.00034
2626	0.0003625
2638	0.0003525
2650	0.0003275
2662	0.0003925
2674	0.0004375
2686	0.000565
2698	0.000555
2710	0.00053
2722	0.00045
2734	0.00035
2746	0.000275
2758	0.000305
2770	0.0004225
2782	0.0005625
2794	0.0007975
2806	0.001355
2818	0.00213
2830	0.002635
2842	0.001965
2854	0.001395
2866	0.0020275
2878	0.003075
2890	0.0033775
2902	0.0036675
2914	0.00431
2926	0.004995
2938	0.00672
2950	0.006905
2962	0.00384
2974	0.0018525
2986	0.0013575
2998	0.001455
3010	0.00227
3022	0.0040725
3034	0.0058925
3046	0.00769
3058	0.011325
3070	0.0158
3082	0.010475
3094	0.00419
3106	0.0015575
3118	0.00073
3130	0.000485
3142	0.0004175
3154	0.0003975
3166	0.0003125
3178	0.0002375
3190	0.000215
3202	0.0002375
3214	0.0002825
3226	0.0002775
3238	0.00014
3250	9e-05
3262	8e-05
3274	8.75e-05
3286	1.75e-05
3298	8e-05
3310	8.5e-05
3322	0.0001175
3334	0.0001175
3346	9e-05
3358	7.25e-05
3370	7.75e-05
3382	6.25e-05
3394	6.25e-05
3406	5.25e-05
3418	4e-05
3430	7.5e-05
3442	2e-05
3454	9.25e-05
3466	0.00013
3478	0.0001525
3490	0.0001325
3502	8.75e-05
3514	0.000145
3526	9e-05
3538	9.75e-05
3550	8.75e-05
3562	3.25e-05
3574	7.75e-05
3586	6.75e-05
3598	0.0001025
3610	7.75e-05
3622	9e-05
3634	0.000125
3646	7.75e-05
3658	0.000135
3670	0.0001825
3682	0.000135
3694	0.0001425
3706	9.25e-05
3718	0.0001275
3730	8.5e-05
3742	8.75e-05
3754	0.0001025
3766	0.0001375
3778	0.000175
3790	0.00016
3802	0.0002425
3814	0.0001775
3826	0.000165
3838	0.000205
