Infrared Spectrum: Methyl 3-trifluoromethoxybenzoate
Formula: C 9 H 7 F 3 O 3
CAS: 148438-00-0
State: gas
Origin: EPA-IR VAPOR PHASE LIBRARY
1/CM	ABSORBANCE
549.8	0.00175
559.445	0.00304
569.09	0.0013124
578.734	0.0016
588.379	0.0009554
598.024	0.001483
607.669	0.0019
617.313	0.00357
626.958	0.0082
636.603	0.01037
646.248	0.00467
655.893	0.00446
665.537	0.0069
675.182	0.01059
684.827	0.00977
694.472	0.00953
704.116	0.01298
713.761	0.01057
723.406	0.00597
733.051	0.0048
742.695	0.00782
752.34	0.01938
761.985	0.0253
771.63	0.01113
781.275	0.00639
790.919	0.01236
800.564	0.0104
810.209	0.00656
819.854	0.00368
829.498	0.00286
839.143	0.00486
848.788	0.00899
858.433	0.00823
868.078	0.00412
877.722	0.00283
887.367	0.00389
897.012	0.00584
906.657	0.00612
916.301	0.00526
925.946	0.00367
935.591	0.0043
945.236	0.00516
954.88	0.00369
964.525	0.00399
974.17	0.00553
983.815	0.01417
993.46	0.02201
1003.1	0.01999
1012.75	0.00683
1022.39	0.00373
1032.04	0.00367
1041.68	0.00447
1051.33	0.00448
1060.97	0.01031
1070.62	0.02101
1080.26	0.0292
1089.91	0.03154
1099.55	0.0426
1109.2	0.03069
1118.84	0.01731
1128.49	0.01482
1138.13	0.01574
1147.78	0.02072
1157.42	0.03695
1167.07	0.06799
1176.71	0.12435
1186.36	0.20604
1196	0.21698
1205.64	0.22066
1215.29	0.27931
1224.93	0.31825
1234.58	0.19118
1244.22	0.17378
1253.87	0.30133
1263.51	0.47144
1273.16	0.38413
1282.8	0.22635
1292.45	0.16733
1302.09	0.11687
1311.74	0.05575
1321.38	0.02862
1331.03	0.01884
1340.67	0.01345
1350.32	0.00976
1359.96	0.00789
1369.61	0.00658
1379.25	0.00616
1388.9	0.00586
1398.54	0.00625
1408.18	0.00717
1417.83	0.00917
1427.47	0.01588
1437.12	0.03648
1446.76	0.0486
1456.41	0.02338
1466.05	0.01296
1475.7	0.01329
1485.34	0.01942
1494.99	0.01464
1504.63	0.00712
1514.28	0.00571
1523.92	0.00475
1533.57	0.00496
1543.21	0.00561
1552.86	0.00642
1562.5	0.00735
1572.15	0.01002
1581.79	0.01723
1591.44	0.02153
1601.08	0.01461
1610.73	0.01096
1620.37	0.00712
1630.01	0.00549
1639.66	0.00476
1649.3	0.00414
1658.95	0.0038
1668.59	0.00369
1678.24	0.00353
1687.88	0.00403
1697.53	0.00662
1707.17	0.01128
1716.82	0.0117
1726.46	0.0159
1736.11	0.04353
1745.75	0.14606
1755.4	0.11267
1765.04	0.02085
1774.69	0.01078
1784.33	0.01245
1793.98	0.01113
1803.62	0.00631
1813.27	0.00403
1822.91	0.00332
1832.55	0.00283
1842.2	0.0025
1851.84	0.00227
1861.49	0.00188
1871.13	0.00212
1880.78	0.00269
1890.42	0.00304
1900.07	0.00273
1909.71	0.00187
1919.36	0.00163
1929	0.00215
1938.65	0.00216
1948.29	0.00235
1957.94	0.00208
1967.58	0.00162
1977.23	0.00186
1986.87	0.00201
1996.52	0.0021
2006.16	0.00184
2015.81	0.00197
2025.45	0.00201
2035.1	0.00239
2044.74	0.0026
2054.38	0.00282
2064.03	0.00308
2073.67	0.00281
2083.32	0.00251
2092.96	0.00221
2102.61	0.00227
2112.25	0.00238
2121.9	0.00243
2131.54	0.00223
2141.19	0.00213
2150.83	0.00186
2160.48	0.0014588
2170.12	0.0014282
2179.77	0.0011815
2189.41	0.0010217
2199.06	0.0011812
2208.7	0.0012547
2218.35	0.0010831
2227.99	0.000857
2237.64	0.0011786
2247.28	0.0013229
2256.92	0.0008964
2266.57	0.0009061
2276.21	0.0009877
2285.86	0.0007224
2295.5	0.0007004
2305.15	0.0010586
2314.79	0.0008104
2324.44	0.0008737
2334.08	0.0009941
2343.73	0.0010328
2353.37	0.0011235
2363.02	0.0011588
2372.66	0.001358
2382.31	0.00159
2391.95	0.00189
2401.6	0.00184
2411.24	0.0016
2420.89	0.0021
2430.53	0.00243
2440.18	0.00266
2449.82	0.00273
2459.47	0.00222
2469.11	0.00237
2478.75	0.0025
2488.4	0.00231
2498.04	0.00213
2507.69	0.00205
2517.33	0.00164
2526.98	0.00186
2536.62	0.00155
2546.27	0.0014754
2555.91	0.001366
2565.56	0.0011011
2575.2	0.0011659
2584.85	0.0008495
2594.49	0.0010836
2604.14	0.0010906
2613.78	0.0008298
2623.43	0.0010538
2633.07	0.0006432
2642.72	0.0010812
2652.36	0.0006875
2662.01	0.0008682
2671.65	0.0007134
2681.29	0.0012831
2690.94	0.001174
2700.58	0.0010731
2710.23	0.00058923
2719.87	0.0007755
2729.52	0.000609
2739.16	0.0004489
2748.81	0.0011955
2758.45	0.0006775
2768.1	0.0011531
2777.74	0.0010702
2787.39	0.0008268
2797.03	0.0009932
2806.68	0.0008078
2816.32	0.0008914
2825.97	0.0012524
2835.61	0.00182
2845.26	0.00337
2854.9	0.00401
2864.55	0.00233
2874.19	0.00195
2883.84	0.00223
2893.48	0.00273
2903.12	0.00373
2912.77	0.0039
2922.41	0.00421
2932.06	0.00375
2941.7	0.00497
2951.35	0.0106
2960.99	0.02412
2970.64	0.01436
2980.28	0.00522
2989.93	0.005
2999.57	0.00573
3009.22	0.00636
3018.86	0.00461
3028.51	0.00543
3038.15	0.00523
3047.8	0.00434
3057.44	0.0036
3067.09	0.00395
3076.73	0.00556
3086.38	0.00699
3096.02	0.00496
3105.67	0.00267
3115.31	0.0022
3124.95	0.0014672
3134.6	0.0012639
3144.24	0.0013616
3153.89	0.0010515
3163.53	0.0011324
3173.18	0.0010691
3182.82	0.0010932
3192.47	0.0011474
3202.11	0.0008719
3211.76	0.0006907
3221.4	0.00063531
3231.05	0.0010597
3240.69	0.0011774
3250.34	0.0006391
3259.98	0.0004411
3269.63	0.0007382
3279.27	0.0007547
3288.92	0.0011412
3298.56	0.0010831
3308.21	0.00055102
3317.85	0.0008358
3327.49	0.0007384
3337.14	1e-05
3346.78	0.0010664
3356.43	0.0006844
3366.07	0.0009293
3375.72	0.0009892
3385.36	0.0006472
3395.01	7.4e-05
3404.65	0.0004689
3414.3	0.0008961
3423.94	0.001222
3433.59	0.0007441
3443.23	0.0010115
3452.88	0.00062995
3462.52	0.0011143
3472.17	0.00162
3481.81	0.00221
3491.46	0.00159
3501.1	0.0009864
3510.75	0.000665
3520.39	0.0011409
3530.04	0.0009837
3539.68	0.000915
3549.32	0.000358
3558.97	0.000382
3568.61	0.0008906
3578.26	0.0013387
3587.9	0.0008276
3597.55	0.000433
3607.19	0.0008442
3616.84	0.000318
3626.48	0.000369
3636.13	0.0008978
3645.77	0.0005973
3655.42	0.00111
3665.06	0.0004692
3674.71	0.0008523
3684.35	0.000373
3694	0.000325
3703.64	0.0004431
3713.29	0.0009895
3722.93	0.000993
3732.58	0.000544576
3742.22	0.0008277
3751.86	0.0006754
3761.51	0.00024
3771.15	0.0007114
3780.8	0
3790.44	0.0009599
3800.09	0.0007942
3809.73	0.0008167
3819.38	0.000484
3829.02	0.0010809
3838.67	0.0010317
3848.31	0.0007058
3857.96	0.0011422
3867.6	0.0004561
3877.25	0.0006405
3886.89	0.0010219
3896.54	0.0008975
3906.18	0.0013458
3915.83	0.0008889
3925.47	0.0010097
3935.12	0.0013834
3944.76	0.0008924
3954.41	0.0008955
3964.05	0.0011633
3973.69	0.0011371
3983.34	0.00033
3992.98	0.0013154
