Infrared Spectrum: 3,4-Methylenedioxy-.beta.-nitrostyrene
Formula: C 9 H 7 N O 4
CAS: 1485-00-3
State: gas
Origin: EPA-IR VAPOR PHASE LIBRARY
1/CM	ABSORBANCE
549.8	0.006477
559.445	0.002477
569.09	0.0011275
578.734	0.0009629
588.379	0.002307
598.024	0.003097
607.669	0.002587
617.313	0.002087
626.958	0.002297
636.603	0.001987
646.248	0.0012648
655.893	0.0007312
665.537	0.0007873
675.182	0.0007989
684.827	0.0008999
694.472	0.0011209
704.116	0.001517
713.761	0.003927
723.406	0.003437
733.051	0.004457
742.695	0.004057
752.34	0.001747
761.985	0.0013464
771.63	0.001527
781.275	0.001917
790.919	0.004407
800.564	0.010747
810.209	0.013247
819.854	0.009967
829.498	0.008577
839.143	0.006837
848.788	0.005287
858.433	0.004667
868.078	0.003517
877.722	0.002327
887.367	0.002037
897.012	0.002787
906.657	0.003627
916.301	0.006807
925.946	0.012057
935.591	0.016637
945.236	0.019057
954.88	0.020017
964.525	0.020167
974.17	0.010807
983.815	0.004337
993.46	0.003437
1003.1	0.003767
1012.75	0.005197
1022.39	0.008617
1032.04	0.015127
1041.68	0.024747
1051.33	0.027457
1060.97	0.018457
1070.62	0.008887
1080.26	0.005787
1089.91	0.006827
1099.55	0.009537
1109.2	0.010077
1118.84	0.007967
1128.49	0.005587
1138.13	0.003777
1147.78	0.002137
1157.42	0.001997
1167.07	0.001597
1176.71	0.002177
1186.36	0.003487
1196	0.005267
1205.64	0.006477
1215.29	0.014577
1224.93	0.028617
1234.58	0.037357
1244.22	0.051307
1253.87	0.085317
1263.51	0.053317
1273.16	0.021817
1282.8	0.017187
1292.45	0.011957
1302.09	0.009127
1311.74	0.008607
1321.38	0.012407
1331.03	0.029947
1340.67	0.081027
1350.32	0.074517
1359.96	0.023337
1369.61	0.008707
1379.25	0.005177
1388.9	0.004497
1398.54	0.004967
1408.18	0.004877
1417.83	0.005757
1427.47	0.010817
1437.12	0.023967
1446.76	0.038057
1456.41	0.024567
1466.05	0.013167
1475.7	0.018607
1485.34	0.052557
1494.99	0.068607
1504.63	0.032367
1514.28	0.027517
1523.92	0.025587
1533.57	0.040227
1543.21	0.045427
1552.86	0.028007
1562.5	0.015887
1572.15	0.012427
1581.79	0.008747
1591.44	0.007407
1601.08	0.010527
1610.73	0.013347
1620.37	0.012257
1630.01	0.010867
1639.66	0.017017
1649.3	0.010487
1658.95	0.003887
1668.59	0.002717
1678.24	0.002447
1687.88	0.002047
1697.53	0.001977
1707.17	0.001797
1716.82	0.001717
1726.46	0.001597
1736.11	0.0012207
1745.75	0.001115
1755.4	0.0013002
1765.04	0.0014203
1774.69	0.0012403
1784.33	0.0012482
1793.98	0.0012397
1803.62	0.0011525
1813.27	0.0011465
1822.91	0.0012032
1832.55	0.001757
1842.2	0.001937
1851.84	0.001887
1861.49	0.001747
1871.13	0.001797
1880.78	0.001837
1890.42	0.0014701
1900.07	0.0014149
1909.71	0.001537
1919.36	0.0014726
1929	0.0014636
1938.65	0.0013048
1948.29	0.0010841
1957.94	0.0010278
1967.58	0.0009569
1977.23	0.0008743
1986.87	0.0008979
1996.52	0.0008987
2006.16	0.0009653
2015.81	0.0010221
2025.45	0.0011865
2035.1	0.0013032
2044.74	0.0013397
2054.38	0.001415
2064.03	0.0013202
2073.67	0.0012351
2083.32	0.001073
2092.96	0.0010016
2102.61	0.0007769
2112.25	0.0007913
2121.9	0.0007828
2131.54	0.0007896
2141.19	0.0008065
2150.83	0.0007722
2160.48	0.0007972
2170.12	0.000848
2179.77	0.0008331
2189.41	0.0008463
2199.06	0.0009108
2208.7	0.0008521
2218.35	0.0008998
2227.99	0.0010127
2237.64	0.0010604
2247.28	0.0009676
2256.92	0.0009503
2266.57	0.0010122
2276.21	0.001004
2285.86	0.0011149
2295.5	0.0012231
2305.15	0.0011413
2314.79	0.0012097
2324.44	0.0009204
2334.08	0.0008268
2343.73	0.000765
2353.37	0.0008056
2363.02	0.0007729
2372.66	0.0007172
2382.31	0.0007866
2391.95	0.0008002
2401.6	0.0007269
2411.24	0.0007288
2420.89	0.0008538
2430.53	0.0007752
2440.18	0.0008431
2449.82	0.0009449
2459.47	0.0008991
2469.11	0.0009045
2478.75	0.000983
2488.4	0.0007442
2498.04	0.0008364
2507.69	0.0010039
2517.33	0.000982
2526.98	0.0010828
2536.62	0.0011821
2546.27	0.0012487
2555.91	0.0012491
2565.56	0.0012844
2575.2	0.0013628
2584.85	0.001364
2594.49	0.001547
2604.14	0.001657
2613.78	0.001487
2623.43	0.0012274
2633.07	0.0008856
2642.72	0.000935
2652.36	0.0009347
2662.01	0.0009939
2671.65	0.0010241
2681.29	0.0012058
2690.94	0.0013292
2700.58	0.0013711
2710.23	0.0013287
2719.87	0.0011697
2729.52	0.0010927
2739.16	0.0011361
2748.81	0.0010913
2758.45	0.001487
2768.1	0.002077
2777.74	0.003497
2787.39	0.002557
2797.03	0.001787
2806.68	0.001727
2816.32	0.001867
2825.97	0.001967
2835.61	0.002567
2845.26	0.003147
2854.9	0.004027
2864.55	0.005217
2874.19	0.007437
2883.84	0.009557
2893.48	0.008937
2903.12	0.007797
2912.77	0.008027
2922.41	0.009607
2932.06	0.008177
2941.7	0.006647
2951.35	0.006437
2960.99	0.006077
2970.64	0.004737
2980.28	0.003427
2989.93	0.002977
2999.57	0.003127
3009.22	0.003467
3018.86	0.004347
3028.51	0.003587
3038.15	0.002547
3047.8	0.002227
3057.44	0.002107
3067.09	0.002137
3076.73	0.002857
3086.38	0.002287
3096.02	0.001827
3105.67	0.002267
3115.31	0.003497
3124.95	0.001687
3134.6	0.0009127
3144.24	0.0007095
3153.89	0.0006496
3163.53	0.0007018
3173.18	0.00050783
3182.82	0.00050879
3192.47	0.0006061
3202.11	0.0007458
3211.76	0.0006006
3221.4	0.0007207
3231.05	0.000905
3240.69	0.0008226
3250.34	0.0005943
3259.98	0.00056838
3269.63	0.00047712
3279.27	0.0006474
3288.92	0.000489466
3298.56	0.00053394
3308.21	0.0004647
3317.85	0.0006146
3327.49	0.00054969
3337.14	0.00052977
3346.78	0.0007233
3356.43	0.0006664
3366.07	0.0007745
3375.72	0.0004647
3385.36	0.00056687
3395.01	0.000448
3404.65	0.00054341
3414.3	0.0006129
3423.94	0.000628
3433.59	0.0004154
3443.23	0.000487439
3452.88	0.00053105
3462.52	0.00051728
3472.17	0.00052252
3481.81	0.0007283
3491.46	0.00047804
3501.1	0.0006416
3510.75	0.00057831
3520.39	0.000323
3530.04	0.0004497
3539.68	0.000486846
3549.32	0.0004449
3558.97	0.0004689
3568.61	0.0006477
3578.26	0.0004642
3587.9	0.000593
3597.55	0.0006131
3607.19	0.0004307
3616.84	0.0004228
3626.48	0.000363
3636.13	0.0006012
3645.77	0.000316
3655.42	0.00051544
3665.06	0.000372
3674.71	0.0004256
3684.35	0.000491223
3694	0.0004505
3703.64	0.000609
3713.29	0.0007569
3722.93	0.0004336
3732.58	0.0005675
3742.22	0.000169
3751.86	0.000649
3761.51	0.0006807
3771.15	0.000490721
3780.8	0.000486536
3790.44	0.0004668
3800.09	0.000359
3809.73	0.0007987
3819.38	0.0006753
3829.02	0.0008077
3838.67	0.000153
3848.31	0.000495364
3857.96	0.0006989
3867.6	0.00054745
3877.25	0.0006816
3886.89	0.0006997
3896.54	0.0006537
3906.18	0.00051153
3915.83	0.0006579
3925.47	0.0006392
3935.12	0.0008134
3944.76	0.0005922
3954.41	0.00055072
3964.05	0.0008082
3973.69	0.00056672
3983.34	0.0008124
3992.98	0.0007237
