Infrared Spectrum: PROPYLAMINE, 2-(2,6-DICHLOROPHENOXY)-N,N-DIMETHYL-, HYDROCHLORIDE
Formula: C11 H16 Cl3 N O
CAS: 1485-45-6
State: SOLID (OIL MULL)
Class: COBLENTZ III
Instrument: PERKIN-ELMER 21 (GRATING)
Instrument parameters: NaCl PRISM
Sampling: TRANSMISSION
Resolution: 2
Origin: SMITH KLINE & FRENCH LABS.
MICROMETERS	TRANSMITTANCE
1.996	0.356
2.03027	0.356
2.06454	0.37
2.09882	0.382
2.13309	0.381
2.16736	0.381
2.20163	0.383
2.2359	0.387
2.27017	0.401
2.30445	0.404
2.33872	0.409
2.37299	0.414
2.40726	0.419
2.44153	0.42
2.47581	0.411
2.51008	0.43
2.54435	0.438
2.57862	0.442
2.61289	0.435
2.64717	0.455
2.68144	0.453
2.71571	0.468
2.74998	0.46
2.78425	0.46
2.81852	0.474
2.8528	0.473
2.88707	0.458
2.92134	0.455
2.95561	0.433
2.98988	0.443
3.02416	0.444
3.05843	0.449
3.0927	0.449
3.12697	0.457
3.16124	0.47
3.19551	0.488
3.22979	0.487
3.26406	0.486
3.29833	0.479
3.3326	0.437
3.36687	0.388
3.40115	0.287
3.43542	0.171
3.46969	0.111
3.50396	0.093
3.53823	0.085
3.57251	0.243
3.60678	0.335
3.64105	0.421
3.67532	0.441
3.70959	0.435
3.74386	0.411
3.77814	0.361
3.81241	0.317
3.84668	0.291
3.88095	0.203
3.91522	0.187
3.9495	0.202
3.98377	0.214
4.01804	0.212
4.05231	0.189
4.08658	0.171
4.12086	0.203
4.15513	0.232
4.1894	0.276
4.22367	0.333
4.25794	0.348
4.29221	0.375
4.32649	0.401
4.36076	0.484
4.39503	0.552
4.4293	0.59
4.46357	0.609
4.49785	0.629
4.53212	0.645
4.56639	0.648
4.60066	0.662
4.63493	0.67
4.6692	0.689
4.70348	0.688
4.73775	0.694
4.77202	0.696
4.80629	0.7
4.84056	0.694
4.87484	0.708
4.90911	0.712
4.94338	0.719
4.97765	0.725
5.01192	0.724
5.0462	0.723
5.08047	0.73
5.11474	0.731
5.14901	0.737
5.18328	0.745
5.21755	0.747
5.25183	0.747
5.2861	0.747
5.32037	0.743
5.35464	0.718
5.38891	0.742
5.42319	0.747
5.45746	0.75
5.49173	0.753
5.526	0.757
5.56027	0.767
5.59454	0.761
5.62882	0.761
5.66309	0.753
5.69736	0.746
5.73163	0.748
5.7659	0.758
5.80018	0.761
5.83445	0.759
5.86872	0.753
5.90299	0.743
5.93726	0.747
5.97154	0.727
6.00581	0.718
6.04008	0.735
6.07435	0.748
6.10862	0.75
6.14289	0.75
6.17717	0.743
6.21144	0.745
6.24571	0.74
6.27998	0.741
6.31425	0.723
6.34853	0.721
6.3828	0.658
6.41707	0.537
6.45134	0.68
6.48561	0.708
6.51989	0.723
6.55416	0.724
6.58843	0.718
6.6227	0.726
6.65697	0.712
6.69124	0.67
6.72552	0.556
6.75979	0.322
6.79406	0.31
6.82833	0.196
6.8626	0.209
6.89688	0.202
6.93115	0.138
6.96542	0.208
6.99969	0.4
7.03396	0.518
7.06823	0.529
7.10251	0.552
7.13678	0.591
7.17105	0.542
7.20532	0.578
7.23959	0.457
7.27387	0.35
7.30814	0.422
7.34241	0.551
7.37668	0.599
7.41095	0.625
7.44523	0.644
7.4795	0.634
7.51377	0.661
7.54804	0.658
7.58231	0.655
7.61658	0.67
7.65086	0.699
7.68513	0.643
7.7194	0.634
7.75367	0.683
7.78794	0.703
7.82222	0.721
7.85649	0.725
7.89076	0.707
7.92503	0.682
7.9593	0.634
7.99357	0.665
8.02785	0.561
8.06212	0.306
8.09639	0.253
8.13066	0.513
8.16493	0.656
8.19921	0.692
8.23348	0.723
8.26775	0.723
8.30202	0.661
8.33629	0.589
8.37057	0.542
8.40484	0.425
8.43911	0.468
8.47338	0.574
8.50765	0.655
8.54192	0.692
8.5762	0.671
8.61047	0.604
8.64474	0.634
8.67901	0.698
8.71328	0.716
8.74756	0.727
8.78183	0.72
8.8161	0.676
8.85037	0.585
8.88464	0.633
8.91892	0.703
8.95319	0.751
8.98746	0.759
9.02173	0.762
9.056	0.762
9.09027	0.758
9.12455	0.725
9.15882	0.693
9.19309	0.731
9.22736	0.727
9.26163	0.669
9.29591	0.555
9.33018	0.515
9.36445	0.481
9.39872	0.442
9.43299	0.464
9.46726	0.59
9.50154	0.66
9.53581	0.699
9.57008	0.74
9.60435	0.759
9.63862	0.761
9.6729	0.767
9.70717	0.768
9.74144	0.769
9.77571	0.77
9.80998	0.772
9.84426	0.772
9.87853	0.726
9.9128	0.582
9.94707	0.484
9.98134	0.604
10.0156	0.638
10.0499	0.569
10.0842	0.524
10.1184	0.651
10.1527	0.731
10.187	0.752
10.2212	0.772
10.2555	0.78
10.2898	0.762
10.3241	0.75
10.3583	0.77
10.3926	0.801
10.4269	0.8
10.4611	0.813
10.4954	0.805
10.5297	0.784
10.564	0.779
10.5982	0.769
10.6325	0.699
10.6668	0.637
10.7011	0.649
10.7353	0.595
10.7696	0.509
10.8039	0.433
10.8381	0.474
10.8724	0.525
10.9067	0.629
10.941	0.738
10.9752	0.773
11.0095	0.8
11.0438	0.821
11.078	0.828
11.1123	0.84
11.1466	0.855
11.1809	0.844
11.2151	0.833
11.2494	0.821
11.2837	0.839
11.3179	0.85
11.3522	0.86
11.3865	0.859
11.4208	0.848
11.455	0.854
11.4893	0.862
11.5236	0.862
11.5578	0.859
11.5921	0.868
11.6264	0.873
11.6607	0.873
11.6949	0.89
11.7292	0.883
11.7635	0.887
11.7978	0.876
11.832	0.881
11.8663	0.871
11.9006	0.872
11.9348	0.866
11.9691	0.868
12.0034	0.861
12.0377	0.854
12.0719	0.85
12.1062	0.857
12.1405	0.87
12.1747	0.868
12.209	0.856
12.2433	0.86
12.2776	0.834
12.3118	0.773
12.3461	0.686
12.3804	0.651
12.4146	0.681
12.4489	0.737
12.4832	0.752
12.5175	0.768
12.5517	0.768
12.586	0.756
12.6203	0.721
12.6545	0.686
12.6888	0.627
12.7231	0.452
12.7574	0.215
12.7916	0.132
12.8259	0.098
12.8602	0.126
12.8945	0.225
12.9287	0.345
12.963	0.484
12.9973	0.547
13.0315	0.62
13.0658	0.682
13.1001	0.743
13.1344	0.764
13.1686	0.784
13.2029	0.786
13.2372	0.794
13.2714	0.818
13.3057	0.83
13.34	0.85
13.3743	0.846
13.4085	0.843
13.4428	0.843
13.4771	0.84
13.5113	0.841
13.5456	0.843
13.5799	0.835
13.6142	0.833
13.6484	0.8
13.6827	0.762
13.717	0.647
13.7512	0.542
13.7855	0.633
13.8198	0.725
13.8541	0.753
13.8883	0.752
13.9226	0.765
13.9569	0.789
13.9911	0.802
14.0254	0.814
14.0597	0.83
14.094	0.834
14.1282	0.848
14.1625	0.839
14.1968	0.839
14.2311	0.85
14.2653	0.844
14.2996	0.846
14.3339	0.855
14.3681	0.835
14.4024	0.837
14.4367	0.837
14.471	0.83
14.5052	0.837
14.5395	0.83
14.5738	0.827
14.608	0.823
14.6423	0.821
14.6766	0.816
14.7109	0.814
14.7451	0.812
14.7794	0.811
14.8137	0.81
14.8479	0.805
14.8822	0.802
14.9165	0.8
14.9508	0.801
14.985	0.776
15.0193	0.747
15.0536	0.748
15.0878	0.773
15.1221	0.77
15.1564	0.765
15.1907	0.763
15.2249	0.756
15.2592	0.74
15.2935	0.746
15.3278	0.74
15.362	0.731
