Infrared Spectrum: 3-Octene, (Z)
Formula: C8 H16
CAS: 14850-22-7
State: LIQUID (NEAT)
Class: COBLENTZ III
Instrument: BECKMAN IR-12 (GRATING)
Instrument parameters: GRATING
Sampling: TRANSMISSION
Path length: 0.01056
Resolution: 2
Origin: COLGATE-PALMOLIVE COMPANY (KELLENBACH)
1/CM	TRANSMITTANCE
411	0.7059
420	0.7458
429	0.7745
438	0.7984
447	0.8251
456	0.8443
465	0.8595
474	0.8745
483	0.8803
492	0.8767
501	0.8548
510	0.8291
519	0.806
528	0.8022
537	0.8111
546	0.8221
555	0.8134
564	0.7709
573	0.7101
582	0.6014
591	0.517
600	0.5668
609	0.6228
618	0.6486
627	0.6576
636	0.6429
645	0.5912
654	0.5195
663	0.3956
672	0.266
681	0.1448
690	0.1059
699	0.0484
708	0.027
717	0.0227
726	0.031
735	0.0756
744	0.0994
753	0.2169
762	0.3863
771	0.456
780	0.3679
789	0.2282
798	0.2663
807	0.4006
816	0.4079
825	0.4092
834	0.6171
843	0.6667
852	0.6989
861	0.5905
870	0.5025
879	0.3452
888	0.606
897	0.5263
906	0.6923
915	0.6098
924	0.3472
933	0.5071
942	0.6351
951	0.6637
960	0.5049
969	0.3783
978	0.4981
987	0.5785
996	0.6059
1005	0.6276
1014	0.5472
1023	0.335
1032	0.5555
1041	0.6453
1050	0.5583
1059	0.3206
1068	0.1015
1077	0.3033
1086	0.4679
1095	0.407
1104	0.4294
1113	0.635
1122	0.7057
1131	0.7063
1140	0.6324
1149	0.7063
1158	0.7631
1167	0.7911
1176	0.7923
1185	0.7841
1194	0.7365
1203	0.6984
1212	0.7178
1221	0.7165
1230	0.6385
1239	0.5605
1248	0.5432
1257	0.5781
1266	0.5802
1275	0.5948
1284	0.4983
1293	0.2192
1302	0.1618
1311	0.4542
1320	0.5138
1329	0.5668
1338	0.4818
1347	0.475
1356	0.4725
1365	0.3255
1374	0.0924
1383	0.1875
1392	0.3687
1401	0.1561
1410	0.2878
1419	0.2894
1428	0.1692
1437	0.0438
1446	0.0122
1455	0.0001
1464	0.0004
1473	0.0852
1482	0.3116
1491	0.4282
1500	0.5292
1509	0.5652
1518	0.6387
1527	0.6785
1536	0.7053
1545	0.7305
1554	0.7415
1563	0.7532
1572	0.7584
1581	0.7653
1590	0.7653
1599	0.7665
1608	0.7662
1617	0.7459
1626	0.7166
1635	0.6634
1644	0.5319
1653	0.3518
1662	0.5379
1671	0.5858
1680	0.6055
1689	0.6215
1698	0.6454
1707	0.7162
1716	0.7311
1725	0.7614
1734	0.7732
1743	0.791
1752	0.7807
1761	0.7575
1770	0.7795
1779	0.8022
1788	0.8007
1797	0.8183
1806	0.8343
1815	0.8438
1824	0.8471
1833	0.8454
1842	0.8453
1851	0.8453
1860	0.8433
1869	0.8457
1878	0.8398
1887	0.8257
1896	0.8298
1905	0.8471
1914	0.8541
1923	0.8487
1932	0.835
1941	0.8361
1950	0.8491
1959	0.8569
1968	0.8594
1977	0.8611
1986	0.8598
1995	0.8549
2004	0.8489
2013	0.8424
2022	0.8042
2031	0.7789
2040	0.7854
2049	0.8117
2058	0.8217
2067	0.8222
2076	0.8278
2085	0.845
2094	0.8495
2103	0.8505
2112	0.8507
2121	0.8499
2130	0.8473
2139	0.8448
2148	0.8444
2157	0.8382
2166	0.8319
2175	0.8325
2184	0.8374
2193	0.839
2202	0.8364
2211	0.833
2220	0.8272
2229	0.8208
2238	0.8167
2247	0.8163
2256	0.8171
2265	0.8195
2274	0.82
2283	0.8163
2292	0.8124
2301	0.8092
2310	0.8062
2319	0.8042
2328	0.8048
2337	0.8058
2346	0.8072
2355	0.8091
2364	0.8081
2373	0.8019
2382	0.7949
2391	0.7935
2400	0.8009
2409	0.8046
2418	0.8026
2427	0.8027
2436	0.808
2445	0.8164
2454	0.8213
2463	0.8225
2472	0.8166
2481	0.8192
2490	0.8059
2499	0.7913
2508	0.779
2517	0.7694
2526	0.7644
2535	0.7583
2544	0.7539
2553	0.7459
2562	0.7435
2571	0.7382
2580	0.7223
2589	0.7185
2598	0.733
2607	0.7385
2616	0.7338
2625	0.7043
2634	0.6592
2643	0.6709
2652	0.6576
2661	0.6441
2670	0.6553
2679	0.6657
2688	0.6608
2697	0.6481
2706	0.6237
2715	0.5081
2724	0.4886
2733	0.5325
2742	0.5455
2751	0.5285
2760	0.5112
2769	0.5008
2778	0.4506
2787	0.4049
2796	0.3176
2805	0.2268
2814	0.1553
2823	0.0452
2832	0.0164
2841	0.0078
2850	0.0053
2859	0.0044
2868	0.0043
2877	0.0042
2886	0.0042
2895	0.0042
2904	0.0041
2913	0.0041
2922	0.002
2931	0.0053
2940	0.0059
2949	0.0061
2958	0.0065
2967	0.0064
2976	0.0063
2985	0.0063
2994	0.006
3003	0.0061
3012	0.0121
3021	0.1246
3030	0.325
3039	0.3889
3048	0.4289
3057	0.4238
3066	0.5187
3075	0.5964
3084	0.6276
3093	0.6481
3102	0.664
3111	0.6768
3120	0.6857
3129	0.6899
3138	0.6895
3147	0.6855
3156	0.6827
3165	0.683
3174	0.6911
3183	0.7025
3192	0.7255
3201	0.7558
3210	0.7768
3219	0.7907
3228	0.8028
3237	0.814
3246	0.8213
3255	0.8267
3264	0.8255
3273	0.8168
3282	0.8078
3291	0.8152
3300	0.8349
3309	0.8403
3318	0.8443
3327	0.8455
3336	0.8444
3345	0.844
3354	0.8442
3363	0.845
3372	0.8466
3381	0.8485
3390	0.8495
3399	0.8499
3408	0.8496
3417	0.8492
3426	0.8488
3435	0.8478
3444	0.8463
3453	0.8449
3462	0.8441
3471	0.8432
3480	0.8434
3489	0.8442
3498	0.8454
3507	0.8446
3516	0.8467
3525	0.8489
3534	0.8486
3543	0.848
3552	0.8491
3561	0.8508
3570	0.8502
3579	0.8484
3588	0.846
3597	0.8436
3606	0.8398
3615	0.8363
3624	0.8361
3633	0.8355
3642	0.8348
3651	0.8331
3660	0.8311
3669	0.8287
3678	0.8269
3687	0.8265
3696	0.8278
3705	0.8291
3714	0.8296
3723	0.8296
3732	0.8269
3741	0.8232
3750	0.8286
3759	0.8301
3768	0.8289
3777	0.8267
3786	0.8273
3795	0.8267
3804	0.8251
3813	0.8231
3822	0.824
3831	0.8271
3840	0.828
3849	0.8287
3858	0.8297
3867	0.8303
3876	0.8307
3885	0.8296
3894	0.8236
3903	0.813
3912	0.7997
3921	0.7902
3930	0.7821
3939	0.7775
3948	0.7762
3957	0.7744
3966	0.7716
3975	0.7671
3984	0.7612
3993	0.7543
