Infrared Spectrum: 2-Hexadecanol
Formula: C 16 H 34 O
CAS: 14852-31-4
State: gas
Instrument: HP-GC/MS/IRD
Origin: NIST Mass Spectrometry Data Center
1/CM	ABSORBANCE
550	0.0001474
562	9.38e-05
574	1.34e-05
586	0.0001474
598	0.0002077
610	0.0001876
622	0.0001005
634	8.04e-05
646	1.34e-05
658	9.38e-05
670	0.0001742
682	0.0001407
694	0.0003484
706	0.0006566
718	0.0009715
730	0.0008442
742	0.0006767
754	0.0004623
766	0.0004288
778	0.0003819
790	0.000402
802	0.0003953
814	0.0004623
826	0.0003953
838	0.0006767
850	0.0006767
862	0.0006298
874	0.0006834
886	0.0007638
898	0.0008978
910	0.0011457
922	0.0014271
934	0.0017152
946	0.0015946
958	0.0012998
970	0.0012663
982	0.0013065
994	0.0014606
1006	0.0017286
1018	0.0019095
1030	0.0019564
1042	0.0021507
1054	0.0023048
1066	0.0023182
1078	0.0024053
1090	0.0027135
1102	0.002881
1114	0.0027336
1126	0.0025125
1138	0.0022311
1150	0.0016951
1162	0.0013534
1174	0.0011658
1186	0.0010921
1198	0.0011725
1210	0.0013333
1222	0.0015946
1234	0.0019832
1246	0.0022244
1258	0.0019162
1270	0.0016214
1282	0.0015008
1294	0.0015946
1306	0.0016549
1318	0.0016616
1330	0.0017889
1342	0.0025058
1354	0.0031959
1366	0.0034572
1378	0.0038659
1390	0.003149
1402	0.0020636
1414	0.0015142
1426	0.0014941
1438	0.002345
1450	0.003953
1462	0.0050518
1474	0.0032026
1486	0.0013735
1498	0.0007504
1510	0.0006499
1522	0.0004757
1534	0.0003216
1546	0.0002814
1558	0.0003216
1570	0.0001474
1582	5.36e-05
1594	5.36e-05
1606	8.71e-05
1618	0.0001139
1630	8.71e-05
1642	0.0001206
1654	0.0002144
1666	0.0001206
1678	0.0001541
1690	0.000134
1702	0.0002345
1714	0.0002211
1726	0.0002077
1738	0.000268
1750	0.0002211
1762	0.0001139
1774	0.0001072
1786	9.38e-05
1798	0.0001005
1810	8.04e-05
1822	6.03e-05
1834	5.36e-05
1846	0.0001139
1858	5.36e-05
1870	4.69e-05
1882	2.68e-05
1894	5.36e-05
1906	1.34e-05
1918	5.36e-05
1930	3.35e-05
1942	5.36e-05
1954	2.68e-05
1966	4.69e-05
1978	3.35e-05
1990	3.35e-05
2002	7.37e-05
2014	7.37e-05
2026	8.71e-05
2038	7.37e-05
2050	8.04e-05
2062	5.36e-05
2074	5.36e-05
2086	5.36e-05
2098	5.36e-05
2110	6.03e-05
2122	6.7e-05
2134	4.02e-05
2146	5.36e-05
2158	8.04e-05
2170	8.71e-05
2182	6.03e-05
2194	8.04e-05
2206	8.04e-05
2218	8.71e-05
2230	9.38e-05
2242	8.04e-05
2254	8.71e-05
2266	7.37e-05
2278	6.03e-05
2290	8.04e-05
2302	4.69e-05
2314	0
2326	0
2338	1.34e-05
2350	3.35e-05
2362	0
2374	6.7e-06
2386	0.0001273
2398	0.0001474
2410	0.0001407
2422	0.0001407
2434	0.0001407
2446	0.0001273
2458	0.0001474
2470	0.0001608
2482	0.0001742
2494	0.0001608
2506	0.0001876
2518	0.0002144
2530	0.0002479
2542	0.000268
2554	0.0002881
2566	0.0002881
2578	0.0003283
2590	0.0003886
2602	0.0004489
2614	0.0004757
2626	0.0005293
2638	0.0006298
2650	0.0006767
2662	0.0007437
2674	0.000804
2686	0.0008241
2698	0.0007705
2710	0.0007839
2722	0.0007839
2734	0.0008643
2746	0.0009514
2758	0.0010117
2770	0.0011457
2782	0.0013601
2794	0.0016817
2806	0.0021775
2818	0.0028944
2830	0.0041004
2842	0.0070886
2854	0.0169309
2866	0.0245488
2878	0.0172793
2890	0.0149075
2902	0.0187466
2914	0.0306659
2926	0.0572515
2938	0.0609901
2950	0.031423
2962	0.0206829
2974	0.0168639
2986	0.0091924
2998	0.0045359
3010	0.0027135
3022	0.001876
3034	0.0014137
3046	0.0010988
3058	0.0008844
3070	0.0007236
3082	0.0006968
3094	0.0006231
3106	0.0005695
3118	0.0005092
3130	0.0004623
3142	0.0004556
3154	0.0004288
3166	0.0003886
3178	0.0003551
3190	0.0003819
3202	0.0003082
3214	0.000268
3226	0.0002546
3238	0.0002077
3250	0.0001474
3262	0.0001742
3274	0.0001139
3286	0.0001608
3298	0.0001273
3310	0.0001608
3322	0.000134
3334	0.0001005
3346	0.0001206
3358	0.0001273
3370	0.0001407
3382	6.7e-05
3394	0.000134
3406	0.0001541
3418	0.0001139
3430	0.0001474
3442	0.0001139
3454	6.7e-05
3466	7.37e-05
3478	0.0001005
3490	4.69e-05
3502	2.68e-05
3514	2.68e-05
3526	4.69e-05
3538	4.69e-05
3550	5.36e-05
3562	2.68e-05
3574	4.02e-05
3586	8.71e-05
3598	9.38e-05
3610	0.000268
3622	0.0003551
3634	0.0005896
3646	0.0010251
3658	0.0011993
3670	0.0006968
3682	0.0002613
3694	0.0001675
3706	0.0001273
3718	0.0001005
3730	0.0001407
3742	0.0001608
3754	0.0001139
3766	0.0001139
3778	3.35e-05
3790	4.02e-05
3802	0.0001072
3814	0.0001072
3826	0.0001005
3838	0.0001541
