Infrared Spectrum: 2'-Ethoxyacetophenone
Formula: C 10 H 12 O 2
CAS: 14869-39-7
State: gas
Origin: EPA-IR VAPOR PHASE LIBRARY
1/CM	ABSORBANCE
549.8	0.007293
559.445	0.005703
569.09	0.007293
578.734	0.014863
588.379	0.030453
598.024	0.033753
607.669	0.018393
617.313	0.008803
626.958	0.004373
636.603	0.002673
646.248	0.002123
655.893	0.001513
665.537	0.001213
675.182	0.0011659
684.827	0.001543
694.472	0.002863
704.116	0.003853
713.761	0.004243
723.406	0.006403
733.051	0.020513
742.695	0.061563
752.34	0.099793
761.985	0.054703
771.63	0.019043
781.275	0.011083
790.919	0.009943
800.564	0.010103
810.209	0.009393
819.854	0.006133
829.498	0.004083
839.143	0.003523
848.788	0.003683
858.433	0.004343
868.078	0.004493
877.722	0.005123
887.367	0.008403
897.012	0.015473
906.657	0.021103
916.301	0.021763
925.946	0.018983
935.591	0.016563
945.236	0.017883
954.88	0.024073
964.525	0.027113
974.17	0.019493
983.815	0.013193
993.46	0.013823
1003.1	0.018233
1012.75	0.029003
1022.39	0.047913
1032.04	0.074373
1041.68	0.088553
1051.33	0.066013
1060.97	0.039353
1070.62	0.032163
1080.26	0.028693
1089.91	0.028273
1099.55	0.029383
1109.2	0.036573
1118.84	0.057923
1128.49	0.062893
1138.13	0.035423
1147.78	0.023353
1157.42	0.032913
1167.07	0.027373
1176.71	0.016313
1186.36	0.018063
1196	0.028133
1205.64	0.056603
1215.29	0.126643
1224.93	0.218923
1234.58	0.250863
1244.22	0.198453
1253.87	0.114673
1263.51	0.074473
1273.16	0.097123
1282.8	0.151863
1292.45	0.141983
1302.09	0.074973
1311.74	0.034243
1321.38	0.019823
1331.03	0.018223
1340.67	0.025263
1350.32	0.048923
1359.96	0.068533
1369.61	0.050923
1379.25	0.037393
1388.9	0.047733
1398.54	0.046993
1408.18	0.032173
1417.83	0.028893
1427.47	0.035403
1437.12	0.064373
1446.76	0.106553
1456.41	0.087503
1466.05	0.069883
1475.7	0.111963
1485.34	0.105593
1494.99	0.053643
1504.63	0.022853
1514.28	0.013783
1523.92	0.010873
1533.57	0.010243
1543.21	0.010993
1552.86	0.013523
1562.5	0.020683
1572.15	0.036403
1581.79	0.056703
1591.44	0.080613
1601.08	0.078313
1610.73	0.038893
1620.37	0.017153
1630.01	0.012203
1639.66	0.011623
1649.3	0.014133
1658.95	0.020523
1668.59	0.030243
1678.24	0.048503
1687.88	0.098963
1697.53	0.176113
1707.17	0.178713
1716.82	0.101333
1726.46	0.058703
1736.11	0.033523
1745.75	0.019383
1755.4	0.012233
1765.04	0.008563
1774.69	0.006853
1784.33	0.005933
1793.98	0.005303
1803.62	0.004763
1813.27	0.004563
1822.91	0.004403
1832.55	0.003733
1842.2	0.003153
1851.84	0.002733
1861.49	0.002643
1871.13	0.002663
1880.78	0.002933
1890.42	0.003283
1900.07	0.004393
1909.71	0.005273
1919.36	0.005303
1929	0.005603
1938.65	0.005913
1948.29	0.004913
1957.94	0.003163
1967.58	0.002543
1977.23	0.002203
1986.87	0.001943
1996.52	0.001903
2006.16	0.002153
2015.81	0.002413
2025.45	0.002623
2035.1	0.003103
2044.74	0.003463
2054.38	0.003163
2064.03	0.002373
2073.67	0.001903
2083.32	0.001613
2092.96	0.001563
2102.61	0.001363
2112.25	0.0011036
2121.9	0.0009364
2131.54	0.0009017
2141.19	0.0009249
2150.83	0.0010856
2160.48	0.0010419
2170.12	0.0011795
2179.77	0.0011263
2189.41	0.001203
2199.06	0.0010622
2208.7	0.0008662
2218.35	0.0008785
2227.99	0.0007702
2237.64	0.0008558
2247.28	0.0010287
2256.92	0.001233
2266.57	0.001403
2276.21	0.001563
2285.86	0.001723
2295.5	0.001823
2305.15	0.001523
2314.79	0.001663
2324.44	0.001583
2334.08	0.001393
2343.73	0.0011658
2353.37	0.001233
2363.02	0.001213
2372.66	0.001171
2382.31	0.001473
2391.95	0.001553
2401.6	0.001613
2411.24	0.001603
2420.89	0.001733
2430.53	0.001873
2440.18	0.002073
2449.82	0.002343
2459.47	0.002263
2469.11	0.002223
2478.75	0.002013
2488.4	0.001793
2498.04	0.001573
2507.69	0.001703
2517.33	0.001683
2526.98	0.001843
2536.62	0.001693
2546.27	0.001543
2555.91	0.001453
2565.56	0.001463
2575.2	0.001463
2584.85	0.001443
2594.49	0.001253
2604.14	0.0010741
2613.78	0.0009517
2623.43	0.0009545
2633.07	0.000991
2642.72	0.0010858
2652.36	0.0011296
2662.01	0.001079
2671.65	0.001263
2681.29	0.001203
2690.94	0.001313
2700.58	0.001533
2710.23	0.001723
2719.87	0.002023
2729.52	0.002503
2739.16	0.002503
2748.81	0.002583
2758.45	0.002583
2768.1	0.002833
2777.74	0.002763
2787.39	0.002743
2797.03	0.002773
2806.68	0.003423
2816.32	0.004043
2825.97	0.005023
2835.61	0.005943
2845.26	0.007183
2854.9	0.008933
2864.55	0.011793
2874.19	0.017123
2883.84	0.024843
2893.48	0.029443
2903.12	0.029523
2912.77	0.029763
2922.41	0.033023
2932.06	0.039143
2941.7	0.043453
2951.35	0.037283
2960.99	0.030303
2970.64	0.035603
2980.28	0.054903
2989.93	0.065603
2999.57	0.045083
3009.22	0.028603
3018.86	0.021833
3028.51	0.020063
3038.15	0.019113
3047.8	0.016633
3057.44	0.018933
3067.09	0.028063
3076.73	0.037953
3086.38	0.028803
3096.02	0.013563
3105.67	0.009393
3115.31	0.005943
3124.95	0.004023
3134.6	0.003133
3144.24	0.002973
3153.89	0.002963
3163.53	0.002213
3173.18	0.001673
3182.82	0.001313
3192.47	0.0011688
3202.11	0.0011718
3211.76	0.000982
3221.4	0.000771
3231.05	0.0007944
3240.69	0.0007251
3250.34	0.0004633
3259.98	0.0004994
3269.63	0.0003727
3279.27	0.0004531
3288.92	0.0006926
3298.56	0.000506
3308.21	0.0004898
3317.85	0.000399
3327.49	0.0005518
3337.14	0.0009141
3346.78	0.0009756
3356.43	0.001413
3366.07	0.001733
3375.72	0.002643
3385.36	0.002913
3395.01	0.002323
3404.65	0.001763
3414.3	0.001643
3423.94	0.0011662
3433.59	0.0007971
3443.23	0.0005349
3452.88	0.0003061
3462.52	0.00021943
3472.17	0.00028079
3481.81	0.0003642
3491.46	0.0003453
3501.1	9.49e-05
3510.75	0.0001074
3520.39	9.87e-05
3530.04	0.00025249
3539.68	0.00018707
3549.32	2e-05
3558.97	1.5e-05
3568.61	0.00018973
3578.26	0.0001662
3587.9	0.000147
3597.55	0.00024994
3607.19	6.2e-05
3616.84	0.0001288
3626.48	6.3e-05
3636.13	0.0001216
3645.77	0.0001746
3655.42	0.000200876
3665.06	0.00027482
3674.71	0.0001658
3684.35	0.0004504
3694	0.0002962
3703.64	0.0001673
3713.29	0.0001265
3722.93	0.0001494
3732.58	0.0003501
3742.22	0.0005102
3751.86	0.0003808
3761.51	0.00026556
3771.15	0.0004219
3780.8	0.0005174
3790.44	0.00028171
3800.09	0.0005162
3809.73	0.00024565
3819.38	0.0001331
3829.02	0.0003887
3838.67	0.00046
3848.31	0.00047
3857.96	0.0006184
3867.6	0.00054
3877.25	0.0004386
3886.89	0.0006988
3896.54	0.000317
3906.18	0.0003935
3915.83	0.00021192
3925.47	0.0003848
3935.12	0.0006492
3944.76	0.0003889
3954.41	0.0004319
3964.05	0.0006379
3973.69	0.0009603
3983.34	0.0006192
3992.98	0.0007013
