Infrared Spectrum: PHOSPHORODICHLORIDOTHIOIC ACID, S-ETHYL ESTER
Formula: C2 H5 Cl2 O S P
CAS: 1486-40-4
State: SOLUTION (SALTED IN CCl4 FOR 3800-1340, SALTED IN CS2 FOR 1340-450 CM^-^1)
Class: COBLENTZ III
Instrument: DOW KBr FOREPRISM-GRATING
Instrument parameters: BLAZED AT 3.5, 12.0, 20.0 MICRON, CHANGED AT 5.0, 7.5, 14.9 MICRON
Sampling: TRANSMISSION
Path length: 0.011, 0.011 CM
Resolution: 4
Origin: DOW CHEMICAL COMPANY
1/CM	TRANSMITTANCE
451.923	0.532
460.664	0.502
469.406	0.472
478.147	0.561
486.888	0.615
495.629	0.561
504.371	0.729
513.112	0.808
521.853	0.794
530.594	0.721
539.336	0.2181
548.077	0.008
556.818	0
565.559	0.017
574.301	0
583.042	0
591.783	0.07
600.524	0.115
609.266	0.601
618.007	0.836
626.748	0.86
635.489	0.794
644.231	0.839
652.972	0.816
661.713	0.891
670.454	0.949
679.196	0.953
687.937	0.953
696.678	0.953
705.419	0.955
714.161	0.956
722.902	0.955
731.643	0.951
740.384	0.953
749.126	0.942
757.867	0.858
766.608	0.919
775.349	0.919
784.091	0.903
792.832	0.942
801.573	0.951
810.315	0.951
819.056	0.955
827.797	0.949
836.538	0.933
845.28	0.875
854.021	0.792
862.762	0.796
871.503	0.834
880.245	0.868
888.986	0.902
897.727	0.927
906.468	0.921
915.21	0.913
923.951	0.907
932.692	0.892
941.433	0.88
950.175	0.864
958.916	0.813
967.657	0.664
976.398	0.793
985.14	0.88
993.881	0.892
1002.62	0.9
1011.36	0.896
1020.1	0.883
1028.85	0.876
1037.59	0.861
1046.33	0.83
1055.07	0.752
1063.81	0.87
1072.55	0.906
1081.29	0.922
1090.03	0.933
1098.78	0.941
1107.52	0.942
1116.26	0.96
1125	0.976
1133.74	0.963
1142.48	0.948
1151.22	0.938
1159.96	0.941
1168.71	0.953
1177.45	0.948
1186.19	0.948
1194.93	0.934
1203.67	0.929
1212.41	0.911
1221.15	0.877
1229.89	0.802
1238.64	0.71
1247.38	0.513
1256.12	0.145
1264.86	0.05
1273.6	0.023
1282.34	0.023
1291.08	0.385
1299.82	0.766
1308.57	0.879
1317.31	0.914
1326.05	0.93
1334.79	0.941
1343.53	0.945
1352.27	0.951
1361.01	0.96
1369.75	0.941
1378.5	0.842
1387.24	0.857
1395.98	0.906
1404.72	0.913
1413.46	0.898
1422.2	0.824
1430.94	0.808
1439.68	0.737
1448.43	0.563
1457.17	0.722
1465.91	0.85
1474.65	0.884
1483.39	0.872
1492.13	0.845
1500.87	0.807
1509.62	0.754
1518.36	0.706
1527.1	0.665
1535.84	0.58
1544.58	0.5
1553.32	0.505
1562.06	0.591
1570.8	0.658
1579.55	0.684
1588.29	0.724
1597.03	0.805
1605.77	0.891
1614.51	0.932
1623.25	0.953
1631.99	0.976
1640.73	1
1649.48	0.986
1658.22	0.967
1666.96	0.959
1675.7	0.956
1684.44	0.956
1693.18	0.956
1701.92	0.955
1710.66	0.956
1719.41	0.953
1728.15	0.955
1736.89	0.952
1745.63	0.955
1754.37	0.957
1763.11	0.961
1771.85	0.964
1780.59	0.963
1789.34	0.961
1798.08	0.959
1806.82	0.959
1815.56	0.957
1824.3	0.96
1833.04	0.956
1841.78	0.956
1850.52	0.956
1859.27	0.959
1868.01	0.959
1876.75	0.961
1885.49	0.96
1894.23	0.959
1902.97	0.963
1911.71	0.96
1920.45	0.963
1929.2	0.96
1937.94	0.961
1946.68	0.964
1955.42	0.963
1964.16	0.961
1972.9	0.96
1981.64	0.96
1990.38	0.957
1999.13	0.953
2007.87	0.952
2016.61	0.9525
2025.35	0.9525
2034.09	0.9545
2042.83	0.953
2051.57	0.9539
2060.31	0.951
2069.06	0.9555
2077.8	0.956
2086.54	0.956
2095.28	0.956
2104.02	0.9555
2112.76	0.955
2121.5	0.955
2130.24	0.955
2138.99	0.953
2147.73	0.953
2156.47	0.953
2165.21	0.9514
2173.95	0.9498
2182.69	0.953
2191.43	0.9542
2200.17	0.953
2208.92	0.949
2217.66	0.947
2226.4	0.945
2235.14	0.9446
2243.88	0.944
2252.62	0.944
2261.36	0.9404
2270.1	0.9364
2278.85	0.934
2287.59	0.932
2296.33	0.929
2305.07	0.9336
2313.81	0.936
2322.55	0.9313
2331.29	0.93
2340.03	0.9353
2348.78	0.9367
2357.52	0.9427
2366.26	0.947
2375	0.9406
2383.74	0.9443
2392.48	0.9443
2401.22	0.944
2409.96	0.9426
2418.71	0.94
2427.45	0.934
2436.19	0.9337
2444.93	0.936
2453.67	0.934
2462.41	0.9337
2471.15	0.9305
2479.89	0.929
2488.64	0.927
2497.38	0.927
2506.12	0.9262
2514.86	0.9222
2523.6	0.922
2532.34	0.922
2541.08	0.923
2549.82	0.926
2558.57	0.926
2567.31	0.926
2576.05	0.926
2584.79	0.925
2593.53	0.925
2602.27	0.925
2611.01	0.923
2619.75	0.923
2628.5	0.923
2637.24	0.9246
2645.98	0.925
2654.72	0.923
2663.46	0.926
2672.2	0.926
2680.94	0.925
2689.68	0.922
2698.43	0.9247
2707.17	0.927
2715.91	0.93
2724.65	0.934
2733.39	0.93
2742.13	0.927
2750.87	0.9329
2759.61	0.9369
2768.36	0.9371
2777.1	0.937
2785.84	0.937
2794.58	0.938
2803.32	0.938
2812.06	0.9333
2820.8	0.9273
2829.54	0.913
2838.29	0.9149
2847.03	0.922
2855.77	0.9131
2864.51	0.8965
2873.25	0.822
2881.99	0.8149
2890.73	0.8918
2899.47	0.895
2908.22	0.892
2916.96	0.8871
2925.7	0.8326
2934.44	0.6056
2943.18	0.78
2951.92	0.8388
2960.66	0.8223
2969.4	0.7306
2978.15	0.618
2986.89	0.7087
2995.63	0.763
3004.37	0.858
3013.11	0.917
3021.85	0.936
3030.59	0.949
3039.33	0.953
3048.08	0.9561
3056.82	0.963
3065.56	0.9641
3074.3	0.968
3083.04	0.97
3091.78	0.9721
3100.52	0.976
3109.26	0.978
3118.01	0.98
3126.75	0.985
3135.49	0.9851
3144.23	0.986
3152.97	0.987
3161.71	0.989
3170.45	0.9901
3179.19	0.9912
3187.94	0.9941
3196.68	0.9941
3205.42	1
3214.16	1
3222.9	1.0001
3231.64	1.0022
3240.38	1.004
3249.12	1.006
3257.87	1.01
3266.61	1.012
3275.35	1.016
3284.09	1.0161
3292.83	1.023
3301.57	1.025
3310.31	1.025
3319.06	1.0282
3327.8	1.029
3336.54	1.029
3345.28	1.0312
3354.02	1.035
3362.76	1.039
3371.5	1.0404
3380.24	1.0444
3388.99	1.0428
3397.73	1.0444
3406.47	1.047
3415.21	1.043
3423.95	1.0376
3432.69	1.032
3441.43	1.0318
3450.17	1.0306
3458.92	1.0266
3467.66	1.0232
3476.4	1.023
3485.14	1.0215
3493.88	1.0168
3502.62	1.0137
3511.36	1.014
3520.1	1.0127
3528.85	1.0115
3537.59	1.01
3546.33	1.0093
3555.07	1.008
3563.81	1.01
3572.55	1.008
3581.29	1.004
3590.03	1.006
3598.78	1.005
3607.52	1.0034
3616.26	1.001
3625	1.001
3633.74	1.001
3642.48	1.001
3651.22	1.001
3659.96	1.0017
3668.71	1.001
3677.45	1.0003
3686.19	1.001
3694.93	1.001
3703.67	1.001
3712.41	1.002
3721.15	1.001
3729.89	0.9989
3738.64	0.9906
3747.38	0.991
3756.12	0.991
3764.86	0.993
3773.6	0.9896
3782.34	0.991
3791.08	0.9946
