Infrared Spectrum: 4-Benzyloxybenzoic acid
Formula: C 14 H 12 O 3
CAS: 1486-51-7
State: gas
Origin: EPA-IR VAPOR PHASE LIBRARY
1/CM	ABSORBANCE
551.7	0.00335
563.274	0.00444
574.848	0.00435
586.421	0.00435
597.995	0.00378
609.569	0.00298
621.143	0.00396
632.717	0.00563
644.291	0.00255
655.864	0.00174
667.438	0.00194
679.012	0.00311
690.586	0.00558
702.16	0.0068
713.734	0.00636
725.307	0.00474
736.881	0.00438
748.455	0.00363
760.029	0.00447
771.603	0.00563
783.177	0.00329
794.75	0.00235
806.324	0.00246
817.898	0.00201
829.472	0.00212
841.046	0.00339
852.619	0.00407
864.193	0.00236
875.767	0.0016
887.341	0.00154
898.915	0.00172
910.489	0.00179
922.062	0.00156
933.636	0.00149
945.21	0.00154
956.784	0.00182
968.358	0.00244
979.932	0.00341
991.505	0.00473
1003.08	0.00682
1014.65	0.00949
1026.23	0.00865
1037.8	0.00518
1049.37	0.00451
1060.95	0.00682
1072.52	0.01551
1084.1	0.01694
1095.67	0.00614
1107.24	0.00377
1118.82	0.00341
1130.39	0.00362
1141.97	0.00517
1153.54	0.01383
1165.11	0.03209
1176.69	0.01241
1188.26	0.01146
1199.83	0.00739
1211.41	0.0092
1222.98	0.01417
1234.56	0.01611
1246.13	0.01948
1257.7	0.01687
1269.28	0.00955
1280.85	0.00629
1292.42	0.00722
1304	0.00797
1315.57	0.00802
1327.15	0.00912
1338.72	0.00662
1350.29	0.00603
1361.87	0.01066
1373.44	0.00675
1385.02	0.00387
1396.59	0.00231
1408.16	0.0025
1419.74	0.00324
1431.31	0.0021
1442.88	0.00226
1454.46	0.00292
1466.03	0.00328
1477.61	0.00242
1489.18	0.00302
1500.75	0.00809
1512.33	0.012
1523.9	0.0038
1535.48	0.00226
1547.05	0.0021
1558.62	0.00245
1570.2	0.00368
1581.77	0.0061
1593.34	0.00972
1604.92	0.0184
1616.49	0.00935
1628.07	0.00353
1639.64	0.00196
1651.21	0.00164
1662.79	0.00152
1674.36	0.00146
1685.93	0.00164
1697.51	0.00204
1709.08	0.00311
1720.66	0.00418
1732.23	0.00558
1743.8	0.0147
1755.38	0.04112
1766.95	0.01786
1778.53	0.00565
1790.1	0.00296
1801.67	0.0022
1813.25	0.00189
1824.82	0.0016
1836.39	0.00122
1847.97	0.00106
1859.54	0.00106
1871.12	0.00108
1882.69	0.00115
1894.26	0.00122
1905.84	0.00123
1917.41	0.00122
1928.99	0.00113
1940.56	0.00112
1952.13	0.00113
1963.71	0.00112
1975.28	0.00104
1986.85	0.0009471
1998.43	0.0008944
2010	0.0008758
2021.58	0.0009249
2033.15	0.0008357
2044.72	0.000782
2056.3	0.0007667
2067.87	0.0007352
2079.44	0.0007053
2091.02	0.0007063
2102.59	0.0006556
2114.17	0.0006006
2125.74	0.0006051
2137.31	0.0006223
2148.89	0.0006606
2160.46	0.0006074
2172.04	0.0005706
2183.61	0.000538
2195.18	0.0005378
2206.76	0.0005285
2218.33	0.0005573
2229.9	0.0005633
2241.48	0.000562
2253.05	0.0005525
2264.63	0.0005484
2276.2	0.0005553
2287.77	0.0005602
2299.35	0.0005659
2310.92	0.000606
2322.5	0.0006123
2334.07	0.0006158
2345.64	0.0005976
2357.22	0.0005991
2368.79	0.0006469
2380.36	0.0006001
2391.94	0.0006148
2403.51	0.000674
2415.09	0.0007016
2426.66	0.0006913
2438.23	0.0007093
2449.81	0.0006609
2461.38	0.000696
2472.96	0.0006547
2484.53	0.0006366
2496.1	0.000643
2507.68	0.0006364
2519.25	0.0006593
2530.82	0.0006816
2542.4	0.0006796
2553.97	0.0007358
2565.55	0.00071
2577.12	0.0006888
2588.69	0.000685
2600.27	0.0006609
2611.84	0.0006269
2623.41	0.00058
2634.99	0.0005383
2646.56	0.0005576
2658.14	0.0005101
2669.71	0.0005508
2681.28	0.0005876
2692.86	0.0005557
2704.43	0.0006091
2716.01	0.0005925
2727.58	0.0005802
2739.15	0.0006394
2750.73	0.0006043
2762.3	0.0006082
2773.87	0.0006466
2785.45	0.0006003
2797.02	0.0006675
2808.6	0.0006536
2820.17	0.0007264
2831.74	0.0008331
2843.32	0.000896
2854.89	0.0009991
2866.47	0.00125
2878.04	0.00162
2889.61	0.00187
2901.19	0.00174
2912.76	0.00156
2924.33	0.00167
2935.91	0.0018
2947.48	0.00183
2959.06	0.00185
2970.63	0.0013
2982.2	0.00102
2993.78	0.0009266
3005.35	0.00108
3016.92	0.00146
3028.5	0.00236
3040.07	0.00301
3051.65	0.00256
3063.22	0.00286
3074.79	0.00377
3086.37	0.00278
3097.94	0.00204
3109.52	0.00162
3121.09	0.00117
3132.66	0.0008292
3144.24	0.0006597
3155.81	0.0007071
3167.38	0.000606
3178.96	0.0005466
3190.53	0.0006126
3202.11	0.000559
3213.68	0.0005733
3225.25	0.0005745
3236.83	0.0005575
3248.4	0.0005348
3259.98	0.0005267
3271.55	0.0005216
3283.12	0.0005448
3294.7	0.00058
3306.27	0.0005019
3317.84	0.0005348
3329.42	0.0005162
3340.99	0.0005688
3352.57	0.0006654
3364.14	0.0006409
3375.71	0.0006672
3387.29	0.000702
3398.86	0.0006587
3410.43	0.0005505
3422.01	0.0006217
3433.58	0.0005689
3445.16	0.0005337
3456.73	0.0007133
3468.3	0.0007026
3479.88	0.000699
3491.45	0.0008282
3503.03	0.0007683
3514.6	0.0006986
3526.17	0.0007241
3537.75	0.0006635
3549.32	0.0008362
3560.89	0.00113
3572.47	0.00317
3584.04	0.01382
3595.62	0.00378
3607.19	0.00107
3618.76	0.0007903
3630.34	0.0007447
3641.91	0.0007382
3653.49	0.0005963
3665.06	0.000672
3676.63	0.0006076
3688.21	0.0006728
3699.78	0.0006167
3711.35	0.000655
3722.93	0.0006277
3734.5	0.0004978
3746.08	0.0005872
3757.65	0.0005588
3769.22	0.0005777
3780.8	0.0006217
3792.37	0.0006339
3803.94	0.0005255
3815.52	0.0005686
3827.09	0.0005419
3838.67	0.0005834
3850.24	0.0006297
3861.81	0.0005059
3873.39	0.0005817
3884.96	0.0005862
3896.54	0.0006075
3908.11	0.0005939
3919.68	0.0005817
3931.26	0.0005923
3942.83	0.0006532
3954.4	0.0006198
3965.98	0.0005715
3977.55	0.0006308
3989.13	0.0006319
4000.7	0.0005475
