Infrared Spectrum: trans-Cyclododecene
Formula: C 12 H 22
CAS: 1486-75-5
State: gas
Instrument: HP-GC/MS/IRD
Origin: NIST Mass Spectrometry Data Center
1/CM	ABSORBANCE
550	0.0004752
562	0.0001188
574	6.6e-06
586	5.94e-05
598	9.9e-05
610	4.62e-05
622	9.24e-05
634	9.9e-05
646	7.92e-05
658	0.0001452
670	0.0001716
682	0.000429
694	0.0009636
706	0.0012936
718	0.0013002
730	0.001155
742	0.0007458
754	0.0006534
766	0.000561
778	0.0005412
790	0.000429
802	0.0004752
814	0.0004356
826	0.0003564
838	0.000396
850	0.0004356
862	0.0003894
874	0.0003234
886	0.0003498
898	0.0004092
910	0.0004356
922	0.0004422
934	0.0005148
946	0.0008316
958	0.0026334
970	0.0078276
982	0.0062304
994	0.0019206
1006	0.0011748
1018	0.0009702
1030	0.0007986
1042	0.0006798
1054	0.0006204
1066	0.0005082
1078	0.000462
1090	0.0004356
1102	0.0004092
1114	0.0003498
1126	0.0003234
1138	0.0002442
1150	0.000231
1162	0.0002508
1174	0.0002046
1186	0.0003234
1198	0.0003498
1210	0.0003564
1222	0.0003168
1234	0.000396
1246	0.0003762
1258	0.000462
1270	0.0005874
1282	0.0007062
1294	0.000858
1306	0.0008316
1318	0.0007854
1330	0.0009174
1342	0.0016038
1354	0.0014718
1366	0.0007656
1378	0.0004224
1390	0.0003894
1402	0.0004488
1414	0.0006534
1426	0.0011352
1438	0.0035376
1450	0.006303
1462	0.0055242
1474	0.0025278
1486	0.0007656
1498	0.0004092
1510	0.0005148
1522	0.00033
1534	0.0002046
1546	0.000231
1558	0.0002112
1570	8.58e-05
1582	7.92e-05
1594	6.6e-05
1606	9.24e-05
1618	7.92e-05
1630	6.6e-05
1642	0.0001122
1654	0.0001914
1666	0.000165
1678	0.0001584
1690	0.0001452
1702	0.000198
1714	0.0001914
1726	0.0001584
1738	0.0002244
1750	0.0003102
1762	0.0002178
1774	0.0001848
1786	0.0002178
1798	0.0001716
1810	0.0001188
1822	0.0001122
1834	0.0001056
1846	0.0001452
1858	8.58e-05
1870	0.0001122
1882	7.26e-05
1894	7.26e-05
1906	3.3e-05
1918	5.28e-05
1930	1.98e-05
1942	5.28e-05
1954	1.32e-05
1966	1.98e-05
1978	3.96e-05
1990	3.96e-05
2002	3.96e-05
2014	4.62e-05
2026	5.94e-05
2038	2.64e-05
2050	3.3e-05
2062	5.28e-05
2074	3.96e-05
2086	2.64e-05
2098	6.6e-06
2110	3.96e-05
2122	3.3e-05
2134	4.62e-05
2146	4.62e-05
2158	5.28e-05
2170	4.62e-05
2182	3.96e-05
2194	1.98e-05
2206	5.94e-05
2218	4.62e-05
2230	3.3e-05
2242	3.3e-05
2254	2.64e-05
2266	4.62e-05
2278	1.32e-05
2290	4.62e-05
2302	3.96e-05
2314	6.6e-05
2326	5.94e-05
2338	5.28e-05
2350	4.62e-05
2362	6.6e-05
2374	4.62e-05
2386	4.62e-05
2398	1.98e-05
2410	2.64e-05
2422	0
2434	1.32e-05
2446	2.64e-05
2458	3.3e-05
2470	4.62e-05
2482	4.62e-05
2494	7.92e-05
2506	8.58e-05
2518	6.6e-05
2530	9.24e-05
2542	0.0001188
2554	0.000132
2566	0.0001452
2578	0.0001386
2590	0.0001848
2602	0.0002046
2614	0.000264
2626	0.0003102
2638	0.0004356
2650	0.0005082
2662	0.0006204
2674	0.0007524
2686	0.000759
2698	0.0006138
2710	0.0005016
2722	0.0004422
2734	0.0004818
2746	0.0005082
2758	0.000594
2770	0.0006666
2782	0.0008712
2794	0.0011484
2806	0.0014982
2818	0.0019008
2830	0.0027126
2842	0.0064086
2854	0.0183942
2866	0.0243606
2878	0.0165066
2890	0.0125928
2902	0.0216414
2914	0.0370458
2926	0.0605616
2938	0.0600072
2950	0.030921
2962	0.0141174
2974	0.0088374
2986	0.0061974
2998	0.0039666
3010	0.003168
3022	0.0030492
3034	0.0019734
3046	0.0010428
3058	0.0007524
3070	0.0005346
3082	0.0004884
3094	0.0003828
3106	0.0003498
3118	0.0003696
3130	0.0003432
3142	0.0003168
3154	0.0003498
3166	0.0002772
3178	0.000297
3190	0.0002442
3202	0.0002442
3214	0.0002574
3226	0.0002508
3238	0.0002112
3250	0.0001848
3262	0.000165
3274	0.000165
3286	0.0001584
3298	0.000132
3310	0.000132
3322	8.58e-05
3334	0.000132
3346	0.0001386
3358	7.26e-05
3370	8.58e-05
3382	0.0001254
3394	9.9e-05
3406	0.0001188
3418	0.0001122
3430	7.26e-05
3442	9.24e-05
3454	3.3e-05
3466	4.62e-05
3478	9.24e-05
3490	1.32e-05
3502	9.9e-05
3514	0
3526	0.0001188
3538	9.24e-05
3550	7.26e-05
3562	0.0001122
3574	0
3586	0.0001716
3598	0.0001056
3610	0.0001782
3622	0.000132
3634	0.0001254
3646	0.0001518
3658	9.9e-05
3670	0.0001254
3682	5.94e-05
3694	7.26e-05
3706	8.58e-05
3718	0.0001122
3730	0.0001254
3742	0.0001386
3754	8.58e-05
3766	9.9e-05
3778	0
3790	1.32e-05
3802	6.6e-06
3814	5.28e-05
3826	5.94e-05
3838	9.24e-05
