Infrared Spectrum: 2,2-DIMETHYL-3-PIPERIDINO SPIRO[3.5]NONAN-1-OL
Formula: C16 H29 N O
CAS: 1486-91-5
State: SOLID (KBr PELLET)
Melting point: 140-142 C
Class: COBLENTZ
Instrument: Not specified, most likely a prism, grating, or hybrid spectrometer.
Sampling: TRANSMISSION
Resolution: 4
Origin: TENNESSEE EASTMAN COMPANY, RESEARCH LABORATORIES
MICROMETERS	TRANSMITTANCE
2.02	0.946
2.06078	0.948
2.10155	0.948
2.14233	0.95
2.18311	0.951
2.22388	0.951
2.26466	0.948
2.30544	0.915
2.34621	0.902
2.38699	0.91
2.42777	0.917
2.46854	0.919
2.50932	0.917
2.5501	0.921
2.59087	0.922
2.63165	0.921
2.67243	0.927
2.7132	0.929
2.75398	0.924
2.79476	0.89
2.83553	0.768
2.87631	0.526
2.91709	0.355
2.95786	0.536
2.99864	0.689
3.03942	0.782
3.08019	0.828
3.12097	0.85
3.16175	0.873
3.20252	0.886
3.2433	0.893
3.28408	0.895
3.32485	0.861
3.36563	0.56
3.40641	0.024
3.44718	0.03
3.48796	0.226
3.52874	0.099
3.56951	0.53
3.61029	0.222
3.65107	0.229
3.69184	0.367
3.73262	0.631
3.7734	0.595
3.81417	0.67
3.85495	0.792
3.89573	0.809
3.9365	0.852
3.97728	0.891
4.01806	0.907
4.05883	0.905
4.09961	0.909
4.14039	0.929
4.18116	0.933
4.22194	0.929
4.26272	0.936
4.30349	0.934
4.34427	0.934
4.38505	0.936
4.42582	0.945
4.4666	0.945
4.50738	0.945
4.54815	0.95
4.58893	0.95
4.62971	0.95
4.67048	0.951
4.71126	0.957
4.75204	0.957
4.79281	0.958
4.83359	0.957
4.87437	0.957
4.91514	0.958
4.95592	0.958
4.9967	0.963
5.03747	0.972
5.07825	0.958
5.11903	0.957
5.1598	0.957
5.20058	0.962
5.24136	0.958
5.28213	0.958
5.32291	0.963
5.36369	0.962
5.40446	0.963
5.44524	0.962
5.48602	0.967
5.52679	0.97
5.56757	0.969
5.60835	0.965
5.64912	0.962
5.6899	0.946
5.73068	0.939
5.77145	0.943
5.81223	0.943
5.85301	0.941
5.89378	0.939
5.93456	0.934
5.97534	0.917
6.01611	0.914
6.05689	0.917
6.09767	0.905
6.13844	0.9
6.17922	0.897
6.22	0.905
6.26077	0.917
6.30155	0.931
6.34233	0.936
6.3831	0.936
6.42388	0.936
6.46466	0.936
6.50543	0.936
6.54621	0.933
6.58699	0.924
6.62776	0.917
6.66854	0.903
6.70932	0.879
6.75009	0.83
6.79087	0.667
6.83165	0.42
6.87242	0.188
6.9132	0.195
6.95398	0.411
6.99475	0.42
7.03553	0.569
7.07631	0.734
7.11708	0.768
7.15786	0.638
7.19864	0.24
7.23941	0.447
7.28019	0.689
7.32097	0.665
7.36174	0.373
7.40252	0.391
7.4433	0.361
7.48407	0.526
7.52485	0.728
7.56563	0.763
7.6064	0.835
7.64718	0.845
7.68796	0.789
7.72873	0.682
7.76951	0.715
7.81029	0.742
7.85106	0.758
7.89184	0.662
7.93262	0.54
7.97339	0.536
8.01417	0.665
8.05495	0.783
8.09572	0.789
8.1365	0.598
8.17728	0.655
8.21805	0.753
8.25883	0.656
8.29961	0.634
8.34038	0.59
8.38116	0.668
8.42194	0.44
8.46271	0.469
8.50349	0.588
8.54427	0.526
8.58504	0.644
8.62582	0.579
8.6666	0.296
8.70737	0.382
8.74815	0.319
8.78893	0.454
8.8297	0.651
8.87048	0.651
8.91126	0.43
8.95203	0.325
8.99281	0.463
9.03359	0.336
9.07436	0.42
9.11514	0.493
9.15592	0.332
9.19669	0.128
9.23747	0.013
9.27825	0.017
9.31902	0.126
9.3598	0.193
9.40058	0.336
9.44135	0.499
9.48213	0.6
9.52291	0.626
9.56368	0.581
9.60446	0.379
9.64524	0.512
9.68601	0.66
9.72679	0.754
9.76757	0.783
9.80834	0.761
9.84912	0.651
9.8899	0.341
9.93067	0.392
9.97145	0.566
10.0122	0.523
10.053	0.548
10.0938	0.627
10.1346	0.615
10.1753	0.747
10.2161	0.809
10.2569	0.826
10.2977	0.814
10.3384	0.753
10.3792	0.802
10.42	0.835
10.4608	0.857
10.5015	0.867
10.5423	0.866
10.5831	0.854
10.6239	0.831
10.6647	0.801
10.7054	0.785
10.7462	0.778
10.787	0.67
10.8278	0.554
10.8685	0.684
10.9093	0.797
10.9501	0.737
10.9909	0.5
11.0316	0.493
11.0724	0.73
11.1132	0.826
11.154	0.864
11.1947	0.876
11.2355	0.881
11.2763	0.876
11.3171	0.833
11.3579	0.71
11.3986	0.602
11.4394	0.744
11.4802	0.83
11.521	0.84
11.5617	0.766
11.6025	0.574
11.6433	0.531
11.6841	0.698
11.7248	0.816
11.7656	0.873
11.8064	0.888
11.8472	0.898
11.888	0.907
11.9287	0.912
11.9695	0.914
12.0103	0.909
12.0511	0.869
12.0918	0.816
12.1326	0.845
12.1734	0.888
12.2142	0.898
12.2549	0.898
12.2957	0.9
12.3365	0.898
12.3773	0.866
12.418	0.794
12.4588	0.804
12.4996	0.823
12.5404	0.785
12.5812	0.629
12.6219	0.648
12.6627	0.801
12.7035	0.823
12.7443	0.782
12.785	0.696
12.8258	0.742
12.8666	0.819
12.9074	0.862
12.9481	0.883
12.9889	0.89
13.0297	0.898
13.0705	0.898
13.1113	0.898
13.152	0.893
13.1928	0.879
13.2336	0.838
13.2744	0.783
13.3151	0.763
13.3559	0.804
13.3967	0.852
13.4375	0.881
13.4782	0.891
13.519	0.9
13.5598	0.902
13.6006	0.905
13.6413	0.905
13.6821	0.905
13.7229	0.905
13.7637	0.909
13.8045	0.91
13.8452	0.91
13.886	0.912
13.9268	0.912
13.9676	0.912
14.0083	0.91
14.0491	0.91
14.0899	0.91
14.1307	0.909
14.1714	0.909
14.2122	0.909
14.253	0.91
14.2938	0.905
14.3346	0.902
14.3753	0.9
14.4161	0.9
14.4569	0.895
14.4977	0.888
14.5384	0.879
14.5792	0.864
14.62	0.835
14.6608	0.78
14.7015	0.73
14.7423	0.703
14.7831	0.716
14.8239	0.766
14.8646	0.802
14.9054	0.823
14.9462	0.83
14.987	0.831
15.0278	0.828
15.0685	0.825
15.1093	0.823
15.1501	0.821
15.1909	0.818
15.2316	0.811
15.2724	0.809
15.3132	0.801
15.354	0.794
15.3947	0.79
15.4355	0.787
15.4763	0.783
15.5171	0.782
15.5579	0.775
15.5986	0.773
15.6394	0.766
15.6802	0.765
15.721	0.763
15.7617	0.759
15.8025	0.754
15.8433	0.751
15.8841	0.744
15.9248	0.744
15.9656	0.742
