Infrared Spectrum: 3-DIMETHYLAMINO-2,2,4,4-TETRAMETHYL CYCLOBUTANOL
Formula: C10 H21 N O
CAS: 1486-92-6
State: SOLID (MELT)
Melting point: 70-72 C
Class: COBLENTZ
Instrument: Not specified, most likely a prism, grating, or hybrid spectrometer.
Sampling: TRANSMISSION
Resolution: 4
Origin: TENNESSEE EASTMAN COMPANY, RESEARCH LABORATORIES
MICROMETERS	TRANSMITTANCE
2.054	0.996
2.09484	0.996
2.13568	0.996
2.17651	0.996
2.21735	0.996
2.25819	0.977
2.29903	0.926
2.33987	0.923
2.3807	0.924
2.42154	0.926
2.46238	0.93
2.50322	0.931
2.54406	0.936
2.58489	0.945
2.62573	0.948
2.66657	0.95
2.70741	0.95
2.74825	0.86
2.78908	0.718
2.82992	0.576
2.87076	0.339
2.9116	0.209
2.95244	0.199
2.99328	0.213
3.03411	0.24
3.07495	0.269
3.11579	0.284
3.15663	0.322
3.19747	0.375
3.2383	0.445
3.27914	0.544
3.31998	0.488
3.36082	0.049
3.40166	0.025
3.44249	0.039
3.48333	0.04
3.52417	0.174
3.56501	0.064
3.60585	0.04
3.64668	0.124
3.68752	0.315
3.72836	0.474
3.7692	0.537
3.81004	0.609
3.85087	0.711
3.89171	0.738
3.93255	0.795
3.97339	0.812
4.01423	0.827
4.05506	0.82
4.0959	0.839
4.13674	0.849
4.17758	0.861
4.21842	0.878
4.25925	0.885
4.30009	0.885
4.34093	0.889
4.38177	0.901
4.42261	0.907
4.46344	0.907
4.50428	0.909
4.54512	0.911
4.58596	0.911
4.6268	0.909
4.66764	0.911
4.70847	0.911
4.74931	0.909
4.79015	0.895
4.83099	0.895
4.87183	0.901
4.91266	0.918
4.9535	0.924
4.99434	0.928
5.03518	0.93
5.07602	0.93
5.11685	0.926
5.15769	0.921
5.19853	0.919
5.23937	0.924
5.28021	0.928
5.32104	0.928
5.36188	0.928
5.40272	0.928
5.44356	0.928
5.4844	0.928
5.52523	0.918
5.56607	0.899
5.60691	0.895
5.64775	0.901
5.68859	0.895
5.72942	0.87
5.77026	0.841
5.8111	0.829
5.85194	0.82
5.89278	0.827
5.93361	0.837
5.97445	0.831
6.01529	0.819
6.05613	0.819
6.09697	0.812
6.1378	0.817
6.17864	0.824
6.21948	0.827
6.26032	0.824
6.30116	0.82
6.342	0.812
6.38283	0.808
6.42367	0.805
6.46451	0.803
6.50535	0.798
6.54619	0.784
6.58702	0.757
6.62786	0.718
6.6687	0.668
6.70954	0.525
6.75038	0.334
6.79121	0.058
6.83205	0.039
6.87289	0.069
6.91373	0.143
6.95457	0.223
6.9954	0.392
7.03624	0.45
7.07708	0.462
7.11792	0.481
7.15876	0.482
7.19959	0.353
7.24043	0.18
7.28127	0.199
7.32211	0.15
7.36295	0.315
7.40378	0.358
7.44462	0.358
7.48546	0.448
7.5263	0.424
7.56714	0.334
7.60797	0.278
7.64881	0.278
7.68965	0.312
7.73049	0.325
7.77133	0.332
7.81216	0.351
7.853	0.32
7.89384	0.337
7.93468	0.324
7.97552	0.204
8.01636	0.23
8.05719	0.366
8.09803	0.523
8.13887	0.58
8.17971	0.549
8.22055	0.476
8.26138	0.464
8.30222	0.428
8.34306	0.344
8.3839	0.278
8.42474	0.261
8.46557	0.197
8.50641	0.179
8.54725	0.242
8.58809	0.298
8.62893	0.206
8.66976	0.127
8.7106	0.16
8.75144	0.319
8.79228	0.356
8.83312	0.281
8.87395	0.153
8.91479	0.107
8.95563	0.097
8.99647	0.092
9.03731	0.098
9.07814	0.133
9.11898	0.162
9.15982	0.261
9.20066	0.353
9.2415	0.392
9.28233	0.37
9.32317	0.365
9.36401	0.339
9.40485	0.211
9.44569	0.073
9.48652	0.039
9.52736	0.066
9.5682	0.098
9.60904	0.129
9.64988	0.139
9.69072	0.167
9.73155	0.242
9.77239	0.288
9.81323	0.29
9.85407	0.225
9.89491	0.105
9.93574	0.066
9.97658	0.083
10.0174	0.156
10.0583	0.228
10.0991	0.319
10.1399	0.368
10.1808	0.324
10.2216	0.221
10.2624	0.281
10.3033	0.401
10.3441	0.481
10.385	0.544
10.4258	0.571
10.4666	0.581
10.5075	0.58
10.5483	0.566
10.5892	0.566
10.63	0.576
10.6708	0.59
10.7117	0.619
10.7525	0.636
10.7933	0.643
10.8342	0.645
10.875	0.645
10.9159	0.643
10.9567	0.612
10.9975	0.549
11.0384	0.421
11.0792	0.249
11.12	0.141
11.1609	0.192
11.2017	0.312
11.2426	0.399
11.2834	0.43
11.3242	0.447
11.3651	0.477
11.4059	0.515
11.4468	0.53
11.4876	0.51
11.5284	0.448
11.5693	0.453
11.6101	0.539
11.6509	0.593
11.6918	0.619
11.7326	0.636
11.7735	0.641
11.8143	0.646
11.8551	0.648
11.896	0.648
11.9368	0.645
11.9776	0.634
12.0185	0.619
12.0593	0.605
12.1002	0.554
12.141	0.489
12.1818	0.395
12.2227	0.31
12.2635	0.259
12.3044	0.257
12.3452	0.324
12.386	0.424
12.4269	0.517
12.4677	0.566
12.5085	0.576
12.5494	0.576
12.5902	0.563
12.6311	0.568
12.6719	0.585
12.7127	0.592
12.7536	0.595
12.7944	0.597
12.8352	0.602
12.8761	0.607
12.9169	0.609
12.9578	0.61
12.9986	0.61
13.0394	0.61
13.0803	0.609
13.1211	0.609
13.1619	0.602
13.2028	0.6
13.2436	0.597
13.2845	0.595
13.3253	0.588
13.3661	0.585
13.407	0.578
13.4478	0.573
13.4887	0.568
13.5295	0.561
13.5703	0.556
13.6112	0.547
13.652	0.54
13.6928	0.534
13.7337	0.53
13.7745	0.52
13.8154	0.513
13.8562	0.506
13.897	0.501
13.9379	0.496
13.9787	0.493
14.0195	0.488
14.0604	0.484
14.1012	0.476
14.1421	0.469
14.1829	0.465
14.2237	0.457
14.2646	0.453
14.3054	0.448
14.3463	0.445
14.3871	0.44
14.4279	0.436
14.4688	0.435
14.5096	0.431
14.5504	0.43
14.5913	0.43
14.6321	0.428
14.673	0.426
14.7138	0.424
14.7546	0.423
14.7955	0.421
14.8363	0.418
14.8771	0.412
14.918	0.407
14.9588	0.404
14.9997	0.402
15.0405	0.401
15.0813	0.399
15.1222	0.397
15.163	0.395
15.2039	0.394
15.2447	0.392
15.2855	0.387
15.3264	0.387
15.3672	0.385
15.408	0.382
15.4489	0.378
15.4897	0.377
15.5306	0.378
15.5714	0.377
15.6122	0.373
15.6531	0.368
15.6939	0.366
15.7347	0.363
15.7756	0.361
15.8164	0.36
15.8573	0.358
15.8981	0.354
15.9389	0.354
15.9798	0.351
