Infrared Spectrum: 2,3,4,5,6-Pentafluorophenoxyacetic acid
Formula: C 8 H 3 F 5 O 3
CAS: 14892-14-9
State: gas
Origin: EPA-IR VAPOR PHASE LIBRARY
1/CM	ABSORBANCE
549.8	0.012
559.445	0.0163
569.09	0.01453
578.734	0.01552
588.379	0.02183
598.024	0.02537
607.669	0.02133
617.313	0.02
626.958	0.0191
636.603	0.01584
646.248	0.01321
655.893	0.01126
665.537	0.01021
675.182	0.00966
684.827	0.00783
694.472	0.00649
704.116	0.00469
713.761	0.0047
723.406	0.00403
733.051	0.00418
742.695	0.00351
752.34	0.00225
761.985	0.00252
771.63	0.0018
781.275	0.00168
790.919	0.0013963
800.564	0.0013507
810.209	0.00194
819.854	0.00184
829.498	0.0023
839.143	0.00333
848.788	0.0044
858.433	0.00558
868.078	0.00503
877.722	0.00363
887.367	0.00299
897.012	0.00272
906.657	0.00296
916.301	0.00414
925.946	0.00738
935.591	0.01805
945.236	0.03775
954.88	0.03766
964.525	0.0303
974.17	0.03173
983.815	0.05721
993.46	0.10997
1003.1	0.10152
1012.75	0.07364
1022.39	0.07053
1032.04	0.07688
1041.68	0.10324
1051.33	0.14347
1060.97	0.18192
1070.62	0.15792
1080.26	0.07437
1089.91	0.03121
1099.55	0.02442
1109.2	0.0328
1118.84	0.05537
1128.49	0.06658
1138.13	0.04989
1147.78	0.04482
1157.42	0.04992
1167.07	0.04708
1176.71	0.03411
1186.36	0.02254
1196	0.01575
1205.64	0.01234
1215.29	0.01236
1224.93	0.0109
1234.58	0.01036
1244.22	0.00951
1253.87	0.01029
1263.51	0.01203
1273.16	0.01155
1282.8	0.01158
1292.45	0.01442
1302.09	0.02197
1311.74	0.02539
1321.38	0.01875
1331.03	0.01883
1340.67	0.02095
1350.32	0.02016
1359.96	0.01827
1369.61	0.0164
1379.25	0.01534
1388.9	0.01386
1398.54	0.01331
1408.18	0.01094
1417.83	0.00913
1427.47	0.01134
1437.12	0.01836
1446.76	0.02034
1456.41	0.01971
1466.05	0.03059
1475.7	0.03201
1485.34	0.03682
1494.99	0.09637
1504.63	0.25771
1514.28	0.40111
1523.92	0.28825
1533.57	0.08651
1543.21	0.02574
1552.86	0.01335
1562.5	0.00835
1572.15	0.00609
1581.79	0.00506
1591.44	0.00493
1601.08	0.00418
1610.73	0.00396
1620.37	0.00429
1630.01	0.00478
1639.66	0.00474
1649.3	0.00386
1658.95	0.00341
1668.59	0.00336
1678.24	0.00344
1687.88	0.00335
1697.53	0.00366
1707.17	0.0042
1716.82	0.00541
1726.46	0.00687
1736.11	0.01021
1745.75	0.01515
1755.4	0.02174
1765.04	0.03038
1774.69	0.0464
1784.33	0.08223
1793.98	0.08979
1803.62	0.08546
1813.27	0.07439
1822.91	0.04779
1832.55	0.02343
1842.2	0.01298
1851.84	0.00795
1861.49	0.00509
1871.13	0.00365
1880.78	0.00278
1890.42	0.00225
1900.07	0.00191
1909.71	0.00162
1919.36	0.00149
1929	0.0012892
1938.65	0.0014125
1948.29	0.0013069
1957.94	0.0012641
1967.58	0.0014895
1977.23	0.0014931
1986.87	0.0014776
1996.52	0.0014499
2006.16	0.0014741
2015.81	0.0014645
2025.45	0.0012498
2035.1	0.0013916
2044.74	0.00156
2054.38	0.00177
2064.03	0.00229
2073.67	0.00237
2083.32	0.00231
2092.96	0.0018
2102.61	0.00183
2112.25	0.00182
2121.9	0.00189
2131.54	0.00174
2141.19	0.00168
2150.83	0.0014942
2160.48	0.0014314
2170.12	0.0014499
2179.77	0.00155
2189.41	0.0013901
2199.06	0.0014279
2208.7	0.0014101
2218.35	0.0012707
2227.99	0.0013536
2237.64	0.0014188
2247.28	0.0012842
2256.92	0.0014004
2266.57	0.0010885
2276.21	0.0009821
2285.86	0.000974
2295.5	0.0010302
2305.15	0.0008988
2314.79	0.0008443
2324.44	0.0007509
2334.08	0.0010317
2343.73	0.0009436
2353.37	0.0009454
2363.02	0.0011291
2372.66	0.0014535
2382.31	0.00161
2391.95	0.00192
2401.6	0.00204
2411.24	0.00244
2420.89	0.00254
2430.53	0.00225
2440.18	0.00244
2449.82	0.00296
2459.47	0.0033
2469.11	0.00286
2478.75	0.00241
2488.4	0.00219
2498.04	0.00193
2507.69	0.00164
2517.33	0.0013858
2526.98	0.0013849
2536.62	0.0012499
2546.27	0.0009837
2555.91	0.0010736
2565.56	0.0009754
2575.2	0.00107
2584.85	0.0012892
2594.49	0.0009463
2604.14	0.0012132
2613.78	0.0008628
2623.43	0.0011375
2633.07	0.0014227
2642.72	0.00195
2652.36	0.00246
2662.01	0.0029
2671.65	0.00256
2681.29	0.00201
2690.94	0.0014249
2700.58	0.0012075
2710.23	0.0012278
2719.87	0.0008383
2729.52	0.00060786
2739.16	0.0008935
2748.81	0.0006717
2758.45	0.00058546
2768.1	0.0007602
2777.74	0.0008543
2787.39	0.0007933
2797.03	0.0006739
2806.68	0.0006997
2816.32	0.0006083
2825.97	0.000681
2835.61	0.0006433
2845.26	0.0008008
2854.9	0.0010461
2864.55	0.001505
2874.19	0.00168
2883.84	0.00179
2893.48	0.0014914
2903.12	0.00156
2912.77	0.00196
2922.41	0.00268
2932.06	0.00392
2941.7	0.00561
2951.35	0.00733
2960.99	0.00818
2970.64	0.00662
2980.28	0.0052
2989.93	0.00364
2999.57	0.00262
3009.22	0.00186
3018.86	0.0013226
3028.51	0.0011698
3038.15	0.0009117
3047.8	0.0008764
3057.44	0.0009634
3067.09	0.0008474
3076.73	0.000975
3086.38	0.0009767
3096.02	0.0006702
3105.67	0.0008464
3115.31	0.000665
3124.95	0.00064339
3134.6	0.0005781
3144.24	0.0006748
3153.89	0.0006853
3163.53	0.0007698
3173.18	0.000328
3182.82	0.000419
3192.47	0.00057498
3202.11	0.000552078
3211.76	0.000238
3221.4	0.00062449
3231.05	0.0005062
3240.69	0.0006672
3250.34	0.000419
3259.98	0.000335
3269.63	0.000392
3279.27	0.000236
3288.92	0.000394
3298.56	0.0008033
3308.21	0.00041
3317.85	0.00043
3327.49	0.0006559
3337.14	0.0004984
3346.78	0.000344
3356.43	0.00042
3366.07	0.00045
3375.72	0.000433
3385.36	0.000278
3395.01	0.00062484
3404.65	0.00055708
3414.3	0.0007421
3423.94	0.00062361
3433.59	0.000738
3443.23	0.000386
3452.88	0.0004793
3462.52	0.0006842
3472.17	0.0006748
3481.81	0.00063781
3491.46	0.0005237
3501.1	0.0009739
3510.75	0.001406
3520.39	0.00196
3530.04	0.00327
3539.68	0.00726
3549.32	0.01427
3558.97	0.01846
3568.61	0.0398
3578.26	0.05173
3587.9	0.01895
3597.55	0.00725
3607.19	0.00393
3616.84	0.00254
3626.48	0.00158
3636.13	0.0010488
3645.77	0.0007381
3655.42	0.0005353
3665.06	0.0007502
3674.71	0.00058438
3684.35	0.0006846
3694	0.0007341
3703.64	0.00058478
3713.29	0.0006551
3722.93	0.0005318
3732.58	0.000438
3742.22	0.000354
3751.86	0.00057326
3761.51	0.000354
3771.15	0.000117
3780.8	0.000395
3790.44	0.00057985
3800.09	0.000743
3809.73	0.000348
3819.38	0.000183
3829.02	0.0007478
3838.67	0.0006899
3848.31	0.000121
3857.96	0.00045
3867.6	0.0005285
3877.25	0.000435
3886.89	0.000315
3896.54	0.000394
3906.18	0.0006703
3915.83	0.00039
3925.47	0.000716
3935.12	0.00059027
3944.76	0.000433
3954.41	0.0006926
3964.05	0.000291
3973.69	0.000446
3983.34	0.000443
3992.98	0.00062068
