Infrared Spectrum: BENZOTHIAZOLE, 2-MERCAPTO-
Formula: C7 H5 N S2
CAS: 149-30-4
State: SOLID (1.5 mg / 350 mg KBr DISC) VS AIR
Melting point: 180 C
Class: COBLENTZ II
Instrument: BECKMAN IR-12 (GRATING)
Instrument parameters: FILTERS AT 303, 473, 790, 1036, 1880, 2930 CM^-^1. GRATING CHANGE: 300.5, 650.0, 2000.4 CM^-^1
Sampling: TRANSMISSION
Resolution: 2
Origin: BECKMAN INSTRUMENTS, KENNETH STINE
1/CM	TRANSMITTANCE
4000	0.8387
3990	0.8385
3980	0.8383
3970	0.8395
3960	0.8408
3950	0.8421
3940	0.8425
3930	0.8428
3920	0.8431
3910	0.8434
3900	0.8437
3890	0.8437
3880	0.8437
3870	0.8436
3860	0.8436
3850	0.8436
3840	0.8437
3830	0.8437
3820	0.8438
3810	0.844
3800	0.8446
3790	0.8453
3780	0.8459
3770	0.8464
3760	0.8475
3750	0.85
3740	0.8525
3730	0.8525
3720	0.8504
3710	0.8497
3700	0.8493
3690	0.8495
3680	0.8499
3670	0.8503
3660	0.8507
3650	0.8509
3640	0.8497
3630	0.8484
3620	0.8463
3610	0.8443
3600	0.8421
3590	0.84
3580	0.8374
3570	0.8349
3560	0.8323
3550	0.8297
3540	0.8275
3530	0.8253
3520	0.8231
3510	0.8209
3500	0.8193
3490	0.8176
3480	0.816
3470	0.8162
3460	0.8169
3450	0.8178
3440	0.8202
3430	0.8225
3420	0.8301
3410	0.8371
3400	0.8439
3390	0.8498
3380	0.8545
3370	0.8589
3360	0.8632
3350	0.866
3340	0.8684
3330	0.87
3320	0.871
3310	0.8712
3300	0.871
3290	0.8691
3280	0.8668
3270	0.8593
3260	0.8467
3250	0.834
3240	0.8224
3230	0.8054
3220	0.7891
3210	0.7541
3200	0.7251
3190	0.7057
3180	0.6998
3170	0.6693
3160	0.5703
3150	0.5406
3140	0.489
3130	0.4292
3120	0.3675
3110	0.4118
3100	0.4792
3090	0.4254
3080	0.3882
3070	0.4333
3060	0.477
3050	0.4165
3040	0.4103
3030	0.4999
3020	0.5294
3010	0.5617
3000	0.5941
2990	0.6083
2980	0.5117
2970	0.4136
2960	0.4466
2950	0.5108
2940	0.551
2930	0.559
2920	0.5783
2910	0.4851
2900	0.3896
2890	0.4536
2880	0.5318
2870	0.61
2860	0.6115
2850	0.5564
2840	0.5253
2830	0.5948
2820	0.6547
2810	0.7068
2800	0.7178
2790	0.7235
2780	0.716
2770	0.7134
2760	0.711
2750	0.7118
2740	0.7134
2730	0.7418
2720	0.7649
2710	0.7753
2700	0.773
2690	0.7707
2680	0.7688
2670	0.7728
2660	0.7875
2650	0.8058
2640	0.8225
2630	0.8305
2620	0.8368
2610	0.842
2600	0.8449
2590	0.8398
2580	0.8412
2570	0.8453
2560	0.8468
2550	0.8395
2540	0.8365
2530	0.8441
2520	0.8566
2510	0.8674
2500	0.8709
2490	0.8731
2480	0.8742
2470	0.8753
2460	0.8763
2450	0.8774
2440	0.8784
2430	0.8795
2420	0.8805
2410	0.8814
2400	0.882
2390	0.8827
2380	0.8834
2370	0.8841
2360	0.8849
2350	0.8852
2340	0.8853
2330	0.885
2320	0.8834
2310	0.8818
2300	0.8823
2290	0.8828
2280	0.8835
2270	0.8841
2260	0.8848
2250	0.8854
2240	0.8861
2230	0.8867
2220	0.8874
2210	0.8878
2200	0.8883
2190	0.8887
2180	0.8891
2170	0.8895
2160	0.8899
2150	0.8903
2140	0.8906
2130	0.891
2120	0.8918
2110	0.8928
2100	0.8938
2090	0.8947
2080	0.8962
2070	0.8978
2060	0.8995
2050	0.901
2040	0.9018
2030	0.905
2020	0.9052
2010	0.9021
2000	0.8956
1990	0.8987
1980	0.8987
1970	0.8788
1960	0.8597
1950	0.8785
1940	0.8885
1930	0.8988
1920	0.8774
1910	0.8848
1900	0.8937
1890	0.8993
1880	0.8977
1870	0.8833
1860	0.9039
1850	0.9101
1840	0.9097
1830	0.9095
1820	0.9151
1810	0.917
1800	0.9227
1790	0.9188
1780	0.9188
1770	0.9286
1760	0.9311
1750	0.9298
1740	0.9291
1730	0.9298
1720	0.9194
1710	0.9086
1700	0.9008
1690	0.9053
1680	0.9203
1670	0.9111
1660	0.8947
1650	0.8794
1640	0.8971
1630	0.9209
1620	0.9278
1610	0.8761
1600	0.4831
1590	0.7606
1580	0.7869
1570	0.8344
1560	0.8487
1550	0.8604
1540	0.87
1530	0.8909
1520	0.9128
1510	0.5342
1500	0.1014
1490	0.5527
1480	0.7581
1470	0.6654
1460	0.225
1450	0.6551
1440	0.6718
1430	0.0564
1420	0.4119
1410	0.612
1400	0.6746
1390	0.6949
1380	0.7121
1370	0.7569
1360	0.7615
1350	0.8153
1340	0.8302
1330	0.466
1320	0.2116
1310	0.6765
1300	0.7545
1290	0.4128
1280	0.6158
1270	0.7015
1260	0.4721
1250	0.2421
1240	0.5584
1230	0.7215
1220	0.7693
1210	0.8007
1200	0.8213
1190	0.828
1180	0.844
1170	0.8586
1160	0.7392
1150	0.8332
1140	0.8512
1130	0.754
1120	0.8981
1110	0.9133
1100	0.8777
1090	0.6528
1080	0.1845
1070	0.8048
1060	0.8406
1050	0.5217
1040	0.0608
1030	0.4723
1020	0.3679
1010	0.6468
1000	0.655
990	0.7785
980	0.8105
970	0.8407
960	0.8514
950	0.8568
940	0.834
930	0.8742
920	0.8953
910	0.9049
900	0.9086
890	0.9201
880	0.9224
870	0.8051
860	0.8592
850	0.7534
840	0.9271
830	0.9338
820	0.9256
810	0.9341
800	0.9387
790	0.9259
780	0.8633
770	0.7704
760	0.3507
750	0.1836
740	0.5187
730	0.6142
720	0.5796
710	0.6996
700	0.8294
690	0.8848
680	0.9261
670	0.1558
660	0.6943
650	0.7918
640	0.8273
630	0.8566
620	0.8862
610	0.6014
600	0.736
590	0.8593
580	0.8811
570	0.6398
560	0.8663
550	0.8968
540	0.9077
530	0.8688
520	0.8936
510	0.9127
500	0.8827
490	0.9175
480	0.9252
470	0.9291
460	0.9321
450	0.9353
440	0.9374
430	0.738
420	0.8925
410	0.9186
400	0.7025
390	0.8297
380	0.83
370	0.84
360	0.8199
350	0.8001
340	0.7631
330	0.725
320	0.6819
310	0.6628
300	0.6439
290	0.613
280	0.5154
270	0.4082
260	0.2464
