Infrared Spectrum: Silane, dichloromethylphenyl-,
Formula: C7 H8 Cl2 Si
CAS: 149-74-6
State: SOLUTION (10% CCl4 FOR 3800-1300, 10% CS2 FOR 1300-650, AND 10% CCl4 FOR 650-200)
Boiling point: 205 C
Class: COBLENTZ III
Instrument: PERKIN-ELMER 521 (GRATING)
Instrument parameters: FILTERS AT 3150, 2500, 2000, 1150, 700, 410. GRATING CHANGES: 2000, 630
Path length: 0.011 CM, 0.011 CM, AND 0.019 CM
Resolution: 2
Origin: DOW CORNING CORP.
1/CM	TRANSMITTANCE
213	0.8117
223	0.8155
233	0.8194
243	0.8253
253	0.833
263	0.8391
273	0.8352
283	0.8334
293	0.8833
303	0.9014
313	0.9043
323	0.9045
333	0.8971
343	0.8897
353	0.8668
363	0.6283
373	0.2132
383	0.7397
393	0.8467
403	0.8695
413	0.8821
423	0.884
433	0.8764
443	0.8658
453	0.8188
463	0.5728
473	0.521
483	0.6931
493	0.4616
503	0.0029
513	0.1733
523	0.5077
533	0.3376
543	0.0324
553	0.0017
563	0.0282
573	0.4481
583	0.7457
593	0.8092
603	0.8221
613	0.7942
623	0.7949
633	0.8535
643	0.8593
653	0.825
663	0.8131
673	0.742
683	0.6608
693	0.0426
703	0.525
713	0.6317
723	0.4475
733	0.0276
743	0.4063
753	0.2465
763	0.4072
773	0.5887
783	0.29
793	0.0156
803	0.128
813	0.6294
823	0.7688
833	0.8052
843	0.8216
853	0.8393
863	0.8545
873	0.868
883	0.8893
893	0.8928
903	0.8887
913	0.8707
923	0.8855
933	0.8901
943	0.8828
953	0.8715
963	0.8664
973	0.8757
983	0.8747
993	0.8094
1003	0.8739
1013	0.8773
1023	0.8558
1033	0.8644
1043	0.8422
1053	0.8131
1063	0.7893
1073	0.7642
1083	0.7358
1093	0.7203
1103	0.6796
1113	0.3163
1123	0.2399
1133	0.8043
1143	0.8558
1153	0.8487
1163	0.8572
1173	0.8778
1183	0.8289
1193	0.8676
1203	0.8991
1213	0.8946
1223	0.8902
1233	0.8691
1243	0.8088
1253	0.4893
1263	0.4543
1273	0.8552
1283	0.8825
1293	0.8608
1303	0.7397
1313	0.828
1323	0.8562
1333	0.7826
1343	0.876
1353	0.875
1363	0.8674
1373	0.8289
1383	0.8449
1393	0.8143
1403	0.6147
1413	0.8057
1423	0.6752
1433	0.1883
1443	0.8246
1453	0.8544
1463	0.861
1473	0.8537
1483	0.7721
1493	0.8623
1503	0.8688
1513	0.8774
1523	0.8758
1533	0.8654
1543	0.859
1553	0.8632
1563	0.8533
1573	0.848
1583	0.8058
1593	0.573
1603	0.8622
1613	0.864
1623	0.8782
1633	0.8736
1643	0.8581
1653	0.8487
1663	0.8674
1673	0.8751
1683	0.8756
1693	0.8782
1703	0.8832
1713	0.8821
1723	0.8806
1733	0.88
1743	0.8789
1753	0.8688
1763	0.854
1773	0.8645
1783	0.8779
1793	0.8791
1803	0.8679
1813	0.8217
1823	0.845
1833	0.8626
1843	0.8702
1853	0.8783
1863	0.8776
1873	0.868
1883	0.8264
1893	0.8575
1903	0.8366
1913	0.8733
1923	0.8768
1933	0.8763
1943	0.8702
1953	0.8332
1963	0.8484
1973	0.8488
1983	0.8648
1993	0.8772
2003	0.8736
2013	0.8732
2023	0.8797
2033	0.8825
2043	0.8792
2053	0.8779
2063	0.8773
2073	0.8828
2083	0.8824
2093	0.8816
2103	0.8808
2113	0.8797
2123	0.8786
2133	0.8776
2143	0.8768
2153	0.8761
2163	0.875
2173	0.8739
2183	0.8732
2193	0.8727
2203	0.8721
2213	0.8713
2223	0.8694
2233	0.8667
2243	0.8703
2253	0.8711
2263	0.8719
2273	0.8722
2283	0.8723
2293	0.8722
2303	0.8722
2313	0.8725
2323	0.875
2333	0.8778
2343	0.8799
2353	0.8805
2363	0.88
2373	0.8781
2383	0.8732
2393	0.8728
2403	0.8739
2413	0.8748
2423	0.8756
2433	0.8758
2443	0.8758
2453	0.8748
2463	0.8707
2473	0.8701
2483	0.8717
2493	0.8702
2503	0.869
2513	0.8687
2523	0.8685
2533	0.8686
2543	0.8687
2553	0.869
2563	0.8692
2573	0.8691
2583	0.8687
2593	0.8683
2603	0.868
2613	0.8678
2623	0.8676
2633	0.8677
2643	0.8676
2653	0.8674
2663	0.8672
2673	0.8665
2683	0.8656
2693	0.8649
2703	0.8647
2713	0.8667
2723	0.87
2733	0.8721
2743	0.8702
2753	0.8688
2763	0.8679
2773	0.867
2783	0.8668
2793	0.867
2803	0.8672
2813	0.867
2823	0.865
2833	0.863
2843	0.86
2853	0.8579
2863	0.8587
2873	0.853
2883	0.8461
2893	0.8388
2903	0.8316
2913	0.8266
2923	0.8253
2933	0.8306
2943	0.838
2953	0.8354
2963	0.8029
2973	0.7705
2983	0.7528
2993	0.8185
3003	0.7935
3013	0.7506
3023	0.7434
3033	0.735
3043	0.7514
3053	0.7179
3063	0.6336
3073	0.7011
3083	0.551
3093	0.781
3103	0.787
3113	0.8605
3123	0.864
3133	0.8662
3143	0.8458
3153	0.8553
3163	0.8724
3173	0.8737
3183	0.8757
3193	0.8779
3203	0.8804
3213	0.8822
3223	0.8838
3233	0.8855
3243	0.8864
3253	0.887
3263	0.8877
3273	0.8883
3283	0.8888
3293	0.8893
3303	0.8895
3313	0.8896
3323	0.8898
3333	0.8899
3343	0.8894
3353	0.8888
3363	0.8881
3373	0.8874
3383	0.8871
3393	0.8871
3403	0.8871
3413	0.8871
3423	0.8871
3433	0.8874
3443	0.8877
3453	0.888
3463	0.8884
3473	0.8888
3483	0.8893
3493	0.8898
3503	0.8902
3513	0.8908
3523	0.892
3533	0.8931
3543	0.8942
3553	0.8948
3563	0.8953
3573	0.8962
3583	0.8974
3593	0.9023
3603	0.9009
3613	0.8964
3623	0.8923
3633	0.8911
3643	0.8899
3653	0.8889
3663	0.8911
3673	0.8883
3683	0.8852
3693	0.8808
3703	0.8754
3713	0.8741
3723	0.8786
3733	0.8863
3743	0.8934
3753	0.8976
3763	0.8951
3773	0.8905
3783	0.8874
3793	0.8878
3803	0.8925
3813	0.8997
3823	0.9105
