Infrared Spectrum: Trimethyl orthformate
Formula: C 4 H 10 O 3
CAS: 149-73-5
State: gas
Origin: EPA-IR VAPOR PHASE LIBRARY
1/CM	ABSORBANCE
549.8	0.003584
559.445	0.002814
569.09	0.002004
578.734	0.001524
588.379	0.0013747
598.024	0.001564
607.669	0.0013634
617.313	0.0014046
626.958	0.001075
636.603	0.0012752
646.248	0.0013832
655.893	0.0013738
665.537	0.001724
675.182	0.002084
684.827	0.002224
694.472	0.001644
704.116	0.0013983
713.761	0.0009049
723.406	0.0007483
733.051	0.0006437
742.695	0.0005949
752.34	0.0009544
761.985	0.0008602
771.63	0.0010565
781.275	0.0013266
790.919	0.0013229
800.564	0.001504
810.209	0.001664
819.854	0.001634
829.498	0.001814
839.143	0.002024
848.788	0.002084
858.433	0.002474
868.078	0.003064
877.722	0.004424
887.367	0.006384
897.012	0.010494
906.657	0.016554
916.301	0.023384
925.946	0.027014
935.591	0.026674
945.236	0.027104
954.88	0.035014
964.525	0.055674
974.17	0.084714
983.815	0.106814
993.46	0.102144
1003.1	0.080354
1012.75	0.070284
1022.39	0.074664
1032.04	0.079064
1041.68	0.089384
1051.33	0.117474
1060.97	0.190844
1070.62	0.306054
1080.26	0.400684
1089.91	0.443124
1099.55	0.428384
1109.2	0.421044
1118.84	0.420964
1128.49	0.397064
1138.13	0.341094
1147.78	0.272394
1157.42	0.189024
1167.07	0.135254
1176.71	0.118794
1186.36	0.122884
1196	0.131284
1205.64	0.127854
1215.29	0.110124
1224.93	0.087454
1234.58	0.067324
1244.22	0.050414
1253.87	0.037454
1263.51	0.027594
1273.16	0.021134
1282.8	0.016904
1292.45	0.014204
1302.09	0.012744
1311.74	0.012504
1321.38	0.013464
1331.03	0.017544
1340.67	0.028814
1350.32	0.051554
1359.96	0.088824
1369.61	0.075324
1379.25	0.038594
1388.9	0.020494
1398.54	0.012044
1408.18	0.009174
1417.83	0.009424
1427.47	0.013784
1437.12	0.026844
1446.76	0.041474
1456.41	0.046024
1466.05	0.033774
1475.7	0.024594
1485.34	0.018464
1494.99	0.013394
1504.63	0.009904
1514.28	0.008184
1523.92	0.007294
1533.57	0.006764
1543.21	0.006594
1552.86	0.006364
1562.5	0.006034
1572.15	0.005724
1581.79	0.005394
1591.44	0.004994
1601.08	0.004494
1610.73	0.004244
1620.37	0.003904
1630.01	0.003814
1639.66	0.003764
1649.3	0.003604
1658.95	0.003674
1668.59	0.003444
1678.24	0.003294
1687.88	0.002964
1697.53	0.002664
1707.17	0.002534
1716.82	0.002434
1726.46	0.002544
1736.11	0.002734
1745.75	0.002994
1755.4	0.003294
1765.04	0.003544
1774.69	0.003574
1784.33	0.003274
1793.98	0.003174
1803.62	0.003154
1813.27	0.003064
1822.91	0.002674
1832.55	0.002314
1842.2	0.002004
1851.84	0.001834
1861.49	0.001804
1871.13	0.001744
1880.78	0.001714
1890.42	0.001614
1900.07	0.001604
1909.71	0.001544
1919.36	0.001484
1929	0.001664
1938.65	0.001644
1948.29	0.001694
1957.94	0.001684
1967.58	0.001864
1977.23	0.001974
1986.87	0.002164
1996.52	0.002354
2006.16	0.002574
2015.81	0.002844
2025.45	0.003304
2035.1	0.004004
2044.74	0.004734
2054.38	0.005304
2064.03	0.005644
2073.67	0.005664
2083.32	0.005604
2092.96	0.005954
2102.61	0.006514
2112.25	0.006884
2121.9	0.006654
2131.54	0.006024
2141.19	0.005154
2150.83	0.004334
2160.48	0.003564
2170.12	0.003014
2179.77	0.002744
2189.41	0.002664
2199.06	0.002604
2208.7	0.002674
2218.35	0.002694
2227.99	0.002504
2237.64	0.002184
2247.28	0.001924
2256.92	0.001684
2266.57	0.001704
2276.21	0.001674
2285.86	0.001754
2295.5	0.001784
2305.15	0.001954
2314.79	0.001884
2324.44	0.001874
2334.08	0.001874
2343.73	0.001694
2353.37	0.001534
2363.02	0.0013328
2372.66	0.001414
2382.31	0.001321
2391.95	0.0011972
2401.6	0.0012634
2411.24	0.0013162
2420.89	0.0013177
2430.53	0.0013201
2440.18	0.0012863
2449.82	0.0012765
2459.47	0.0010702
2469.11	0.0010564
2478.75	0.000927
2488.4	0.0009587
2498.04	0.0007919
2507.69	0.0009463
2517.33	0.0010314
2526.98	0.0010962
2536.62	0.0012322
2546.27	0.001484
2555.91	0.001604
2565.56	0.001744
2575.2	0.001964
2584.85	0.002234
2594.49	0.002594
2604.14	0.002934
2613.78	0.003194
2623.43	0.003664
2633.07	0.004494
2642.72	0.005744
2652.36	0.006834
2662.01	0.008114
2671.65	0.008764
2681.29	0.007694
2690.94	0.005944
2700.58	0.004584
2710.23	0.003964
2719.87	0.003964
2729.52	0.004264
2739.16	0.004524
2748.81	0.004964
2758.45	0.005564
2768.1	0.006844
2777.74	0.008994
2787.39	0.011844
2797.03	0.015674
2806.68	0.021084
2816.32	0.031134
2825.97	0.052074
2835.61	0.081604
2845.26	0.096744
2854.9	0.087824
2864.55	0.071534
2874.19	0.070214
2883.84	0.085264
2893.48	0.084634
2903.12	0.083124
2912.77	0.085264
2922.41	0.097294
2932.06	0.115934
2941.7	0.132784
2951.35	0.135384
2960.99	0.123594
2970.64	0.104264
2980.28	0.084494
2989.93	0.079834
2999.57	0.080604
3009.22	0.073444
3018.86	0.055814
3028.51	0.036264
3038.15	0.026114
3047.8	0.021974
3057.44	0.019674
3067.09	0.018134
3076.73	0.016204
3086.38	0.014234
3096.02	0.011834
3105.67	0.009604
3115.31	0.007404
3124.95	0.005614
3134.6	0.004564
3144.24	0.003534
3153.89	0.003004
3163.53	0.002384
3173.18	0.001834
3182.82	0.001674
3192.47	0.001454
3202.11	0.0013205
3211.76	0.0008072
3221.4	0.0008615
3231.05	0.0008004
3240.69	0.000763
3250.34	0.0008838
3259.98	0.0007008
3269.63	0.0007698
3279.27	0.0005292
3288.92	0.0005477
3298.56	0.0006376
3308.21	0.0005507
3317.85	0.00048083
3327.49	0.0005147
3337.14	0.00048897
3346.78	0.0006206
3356.43	0.00043543
3366.07	0.000294
3375.72	0.0005497
3385.36	0.000264
3395.01	0.00047746
3404.65	0.000421012
3414.3	0.0003627
3423.94	0.0004316
3433.59	0.0003892
3443.23	0.00036
3452.88	0.000274
3462.52	0.0003994
3472.17	0.00041068
3481.81	0.000419502
3491.46	0.000265
3501.1	0.0003561
3510.75	0.000244
3520.39	0.0003588
3530.04	0.00048415
3539.68	0.00044134
3549.32	0.000293
3558.97	0.00044033
3568.61	0.0004108
3578.26	0.00051008
3587.9	0.000237
3597.55	4.4e-05
3607.19	0.0003432
3616.84	0.000151
3626.48	0.000393
3636.13	0.000397
3645.77	0.0003681
3655.42	0.0003945
3665.06	0.000294
3674.71	0.0003232
3684.35	0.0005586
3694	0.0004659
3703.64	0.00050613
3713.29	0.00047628
3722.93	0.00048896
3732.58	0.000247
3742.22	0.000304
3751.86	0.0005882
3761.51	0.000415971
3771.15	0.00047609
3780.8	0.00048137
3790.44	0.00047626
3800.09	0.0003819
3809.73	0.000676
3819.38	0.0006492
3829.02	0.0007373
3838.67	0.0007453
3848.31	0.00077
3857.96	0.0006872
3867.6	0.0008682
3877.25	0.0010468
3886.89	0.0009634
3896.54	0.0010387
3906.18	0.0011205
3915.83	0.0014061
3925.47	0.001514
3935.12	0.001564
3944.76	0.001604
3954.41	0.001544
3964.05	0.001474
3973.69	0.001414
3983.34	0.002014
3992.98	0.001884
