Infrared Spectrum: Butacaine
Formula: C 18 H 30 N 2 O 2
CAS: 149-16-6
State: gas
Instrument: HP-GC/MS/IRD
Origin: NIST Mass Spectrometry Data Center
1/CM	ABSORBANCE
550	0.0009454
562	9.86e-05
574	0.0001189
586	0.0002523
598	0.0002291
610	0.0008178
622	0.0007598
634	9.86e-05
646	0.000203
658	0.00058
670	0.0012006
682	0.0012934
694	0.0011658
706	0.0009048
718	0.0006032
730	0.0004437
742	0.0004698
754	0.000986
766	0.0016588
778	0.0012673
790	0.0005075
802	0.0003654
814	0.0003074
826	0.0005858
838	0.001218
850	0.0007018
862	0.0002581
874	0.0002175
886	0.0001044
898	0.0001856
910	0.0002059
922	0.000319
934	0.0003132
946	0.0003451
958	0.000348
970	0.0003828
982	0.0002755
994	0.0002117
1006	0.0005249
1018	0.0008178
1030	0.0006612
1042	0.0009715
1054	0.0016385
1066	0.0025549
1078	0.0044254
1090	0.0068266
1102	0.0113448
1114	0.0089668
1126	0.0035264
1138	0.0018067
1150	0.0017023
1162	0.0035728
1174	0.0124033
1186	0.0026274
1198	0.0012238
1210	0.0012151
1222	0.0017429
1234	0.0026361
1246	0.0051156
1258	0.0156629
1270	0.0280749
1282	0.0086507
1294	0.0038715
1306	0.002871
1318	0.0023084
1330	0.0015428
1342	0.0012267
1354	0.0013659
1366	0.001566
1378	0.001856
1390	0.0013543
1402	0.0006119
1414	0.0004872
1426	0.0008642
1438	0.0012267
1450	0.0013253
1462	0.0018995
1474	0.0014645
1486	0.0006525
1498	0.0007018
1510	0.0019169
1522	0.0012064
1534	0.0004176
1546	0.0002958
1558	0.0004205
1570	0.0007018
1582	0.0012644
1594	0.0025578
1606	0.0052954
1618	0.0069745
1630	0.00725
1642	0.0025462
1654	0.0011107
1666	0.0006525
1678	0.0005974
1690	0.0007859
1702	0.0012354
1714	0.0029841
1726	0.0091814
1738	0.0101703
1750	0.0027318
1762	0.0008816
1774	0.0004002
1786	0.000261
1798	0.0001595
1810	9.28e-05
1822	4.64e-05
1834	4.64e-05
1846	2.9e-05
1858	2.9e-05
1870	5.22e-05
1882	0.0001044
1894	0.0001682
1906	0.0001856
1918	0.0001247
1930	8.12e-05
1942	6.96e-05
1954	6.96e-05
1966	6.67e-05
1978	6.96e-05
1990	5.51e-05
2002	8.12e-05
2014	8.41e-05
2026	0.0001247
2038	0.0001102
2050	9.57e-05
2062	9.86e-05
2074	0.0001102
2086	0.0001131
2098	0.0001044
2110	0.0001044
2122	0.0001189
2134	0.0001015
2146	0.0001015
2158	7.54e-05
2170	8.12e-05
2182	9.57e-05
2194	8.99e-05
2206	0.0001015
2218	6.67e-05
2230	9.28e-05
2242	8.12e-05
2254	0.0001131
2266	8.41e-05
2278	8.99e-05
2290	0.000116
2302	9.28e-05
2314	0.0001102
2326	9.86e-05
2338	0.0001073
2350	0.0001247
2362	0.0001711
2374	0.0001334
2386	0.0001276
2398	0.0001131
2410	8.99e-05
2422	9.86e-05
2434	9.28e-05
2446	8.7e-05
2458	7.54e-05
2470	7.83e-05
2482	7.83e-05
2494	8.99e-05
2506	9.86e-05
2518	0.000116
2530	0.0001392
2542	0.000145
2554	0.0001566
2566	0.0001421
2578	0.000203
2590	0.0002117
2602	0.0002204
2614	0.000261
2626	0.0002958
2638	0.00029
2650	0.0002958
2662	0.0003219
2674	0.0003886
2686	0.0004408
2698	0.0004756
2710	0.00058
2722	0.0006612
2734	0.0008178
2746	0.0009135
2758	0.0010295
2770	0.0012412
2782	0.0016124
2794	0.0023751
2806	0.0032567
2818	0.0029638
2830	0.0023606
2842	0.0021315
2854	0.0025056
2866	0.0036801
2878	0.0042137
2890	0.0040281
2902	0.0042195
2914	0.0050025
2926	0.0066439
2938	0.0090828
2950	0.0087493
2962	0.0099035
2974	0.0072036
2986	0.0030856
2998	0.0017922
3010	0.0013688
3022	0.0011658
3034	0.0011774
3046	0.0012325
3058	0.0007163
3070	0.0006989
3082	0.0005336
3094	0.0004292
3106	0.0003683
3118	0.0002755
3130	0.0002088
3142	0.000203
3154	0.0002117
3166	0.0002059
3178	0.0001479
3190	0.0001624
3202	0.0001943
3214	0.0002001
3226	0.000145
3238	0.0001363
3250	0.0001334
3262	0.0001015
3274	0.0001073
3286	6.96e-05
3298	0.0001276
3310	0.0001102
3322	0.0001044
3334	9.86e-05
3346	9.57e-05
3358	0.0001044
3370	0.0001218
3382	0.0001943
3394	0.00029
3406	0.0005655
3418	0.0009773
3430	0.0008903
3442	0.0005423
3454	0.0002581
3466	0.0001972
3478	0.0002262
3490	0.0003451
3502	0.0004553
3514	0.0003973
3526	0.0003625
3538	0.0002407
3550	0.0001595
3562	8.99e-05
3574	0.0001566
3586	0.0001537
3598	8.41e-05
3610	9.57e-05
3622	8.41e-05
3634	0.0001392
3646	0.0001421
3658	0.000145
3670	0.000116
3682	9.28e-05
3694	0.0001305
3706	0.0001334
3718	0.0001624
3730	8.12e-05
3742	0.0001218
3754	0.0001015
3766	0.0001421
3778	0.0001566
3790	8.99e-05
3802	0.0001247
3814	0.0001595
3826	0.0001421
3838	0.000174
