Infrared Spectrum: 2-PYRROLIDONE-5-CARBOXYLIC ACID
Formula: C5 H7 N O3
CAS: 149-87-1
State: SOLID (NUJOL MULL)
Class: COBLENTZ
Instrument: PERKIN-ELMER
Sampling: TRANSMISSION
Resolution: 4
Origin: ABBOTT LABORATORIES - WASHBURN
MICROMETERS	TRANSMITTANCE
2.03	0.695
2.06607	0.71
2.10214	0.715
2.13822	0.725
2.17429	0.733
2.21036	0.7422
2.24643	0.7541
2.2825	0.76
2.31858	0.7602
2.35465	0.7431
2.39072	0.746
2.42679	0.7559
2.46286	0.7649
2.49893	0.7749
2.53501	0.783
2.57108	0.792
2.60715	0.798
2.64322	0.804
2.67929	0.8141
2.71537	0.823
2.75144	0.8278
2.78751	0.832
2.82358	0.828
2.85965	0.8163
2.89573	0.7986
2.9318	0.7489
2.96787	0.6319
3.00394	0.4362
3.04001	0.4889
3.07609	0.557
3.11216	0.6653
3.14823	0.707
3.1843	0.709
3.22037	0.7
3.25644	0.6798
3.29252	0.6349
3.32859	0.5915
3.36466	0.5128
3.40073	0.2826
3.4368	0.0679
3.47288	0.033
3.50895	0.0369
3.54502	0.048
3.58109	0.21
3.61716	0.433
3.65324	0.4814
3.68931	0.513
3.72538	0.4899
3.76145	0.4962
3.79752	0.5126
3.8336	0.519
3.86967	0.5121
3.90574	0.5031
3.94181	0.5
3.97788	0.4951
4.01395	0.472
4.05003	0.46
4.0861	0.46
4.12217	0.466
4.15824	0.472
4.19431	0.4751
4.23039	0.489
4.26646	0.4978
4.30253	0.5153
4.3386	0.5279
4.37467	0.5369
4.41075	0.5486
4.44682	0.5659
4.48289	0.579
4.51896	0.6049
4.55503	0.615
4.59111	0.629
4.62718	0.643
4.66325	0.652
4.69932	0.655
4.73539	0.6612
4.77146	0.6711
4.80754	0.6653
4.84361	0.662
4.87968	0.661
4.91575	0.659
4.95182	0.655
4.9879	0.656
5.02397	0.6502
5.06004	0.644
5.09611	0.6373
5.13218	0.632
5.16826	0.628
5.20433	0.6194
5.2404	0.617
5.27647	0.614
5.31254	0.612
5.34862	0.615
5.38469	0.6286
5.42076	0.635
5.45683	0.6407
5.4929	0.655
5.52897	0.6603
5.56505	0.6347
5.60112	0.6077
5.63719	0.5617
5.67326	0.4838
5.70933	0.3905
5.74541	0.2837
5.78148	0.1691
5.81755	0.098
5.85362	0.102
5.88969	0.1231
5.92577	0.149
5.96184	0.1588
5.99791	0.1469
6.03398	0.141
6.07005	0.147
6.10613	0.1433
6.1422	0.1661
6.17827	0.204
6.21434	0.2461
6.25041	0.2789
6.28648	0.3094
6.32256	0.3472
6.35863	0.3706
6.3947	0.4037
6.43077	0.4306
6.46684	0.451
6.50292	0.4627
6.53899	0.4794
6.57506	0.486
6.61113	0.4821
6.6472	0.4707
6.68328	0.471
6.71935	0.4809
6.75542	0.4787
6.79149	0.4163
6.82756	0.2462
6.86364	0.1675
6.89971	0.1774
6.93578	0.2032
6.97185	0.2375
7.00792	0.3278
7.04399	0.3847
7.08007	0.3226
7.11614	0.3716
7.15221	0.4757
7.18828	0.5306
7.22435	0.5148
7.26043	0.4137
7.2965	0.3028
7.33257	0.3583
7.36864	0.4198
7.40471	0.4588
7.44079	0.468
7.47686	0.468
7.51293	0.4744
7.549	0.4847
7.58507	0.5169
7.62114	0.5608
7.65722	0.5626
7.69329	0.551
7.72936	0.5658
7.76543	0.569
7.8015	0.5444
7.83758	0.4636
7.87365	0.421
7.90972	0.3565
7.94579	0.2829
7.98186	0.2183
8.01794	0.1792
8.05401	0.153
8.09008	0.15
8.12615	0.147
8.16222	0.146
8.1983	0.162
8.23437	0.2012
8.27044	0.2333
8.30651	0.2413
8.34258	0.2253
8.37865	0.2426
8.41473	0.2777
8.4508	0.3056
8.48687	0.3286
8.52294	0.3618
8.55901	0.3799
8.59509	0.4042
8.63116	0.4216
8.66723	0.408
8.7033	0.3931
8.73937	0.3876
8.77545	0.4182
8.81152	0.4482
8.84759	0.4596
8.88366	0.4685
8.91973	0.4816
8.95581	0.484
8.99188	0.4607
9.02795	0.394
9.06402	0.3492
9.10009	0.3568
9.13616	0.4352
9.17224	0.4784
9.20831	0.5017
9.24438	0.509
9.28045	0.5285
9.31652	0.5392
9.3526	0.5452
9.38867	0.552
9.42474	0.5568
9.46081	0.554
9.49688	0.552
9.53296	0.551
9.56903	0.5389
9.6051	0.5282
9.64117	0.5426
9.67724	0.5524
9.71332	0.5641
9.74939	0.5689
9.78546	0.5661
9.82153	0.56
9.8576	0.5448
9.89367	0.5257
9.92975	0.4986
9.96582	0.4971
10.0019	0.504
10.038	0.5028
10.074	0.495
10.1101	0.484
10.1462	0.4726
10.1823	0.459
10.2183	0.449
10.2544	0.4518
10.2905	0.4607
10.3265	0.4427
10.3626	0.4337
10.3987	0.4526
10.4348	0.4714
10.4708	0.4922
10.5069	0.5149
10.543	0.5201
10.579	0.5344
10.6151	0.5598
10.6512	0.5801
10.6873	0.5973
10.7233	0.605
10.7594	0.6119
10.7955	0.6178
10.8315	0.626
10.8676	0.632
10.9037	0.6391
10.9398	0.6476
10.9758	0.659
11.0119	0.6671
11.048	0.676
11.084	0.68
11.1201	0.686
11.1562	0.691
11.1923	0.692
11.2283	0.6976
11.2644	0.704
11.3005	0.7105
11.3366	0.709
11.3726	0.706
11.4087	0.697
11.4448	0.692
11.4808	0.6906
11.5169	0.707
11.553	0.722
11.5891	0.7244
11.6251	0.725
11.6612	0.728
11.6973	0.7331
11.7333	0.736
11.7694	0.737
11.8055	0.739
11.8416	0.736
11.8776	0.74
11.9137	0.739
11.9498	0.7323
11.9858	0.7163
12.0219	0.6885
12.058	0.6698
12.0941	0.658
12.1301	0.6643
12.1662	0.6797
12.2023	0.6963
12.2383	0.707
12.2744	0.716
12.3105	0.722
12.3466	0.722
12.3826	0.7186
12.4187	0.7061
12.4548	0.709
12.4909	0.7232
12.5269	0.734
12.563	0.7411
12.5991	0.743
12.6351	0.743
12.6712	0.748
12.7073	0.745
12.7434	0.745
12.7794	0.74
12.8155	0.7422
12.8516	0.7384
12.8876	0.739
12.9237	0.7335
12.9598	0.7291
12.9959	0.7263
13.0319	0.7178
13.068	0.706
13.1041	0.7001
13.1401	0.691
13.1762	0.6797
13.2123	0.6716
13.2484	0.6674
13.2844	0.667
13.3205	0.6605
13.3566	0.649
13.3926	0.6337
13.4287	0.621
13.4648	0.6092
13.5009	0.608
13.5369	0.6008
13.573	0.5915
13.6091	0.5696
13.6452	0.5545
13.6812	0.5282
13.7173	0.4942
13.7534	0.4535
13.7894	0.4176
13.8255	0.3916
13.8616	0.3589
13.8977	0.3479
13.9337	0.34
13.9698	0.3434
14.0059	0.3536
14.0419	0.3625
14.078	0.3841
14.1141	0.394
14.1502	0.399
14.1862	0.4087
14.2223	0.4206
14.2584	0.431
14.2944	0.4414
14.3305	0.4547
14.3666	0.4665
14.4027	0.4688
14.4387	0.4738
14.4748	0.474
14.5109	0.477
14.547	0.472
14.583	0.471
14.6191	0.467
14.6552	0.465
14.6912	0.4627
14.7273	0.4568
14.7634	0.454
14.7995	0.4455
14.8355	0.439
14.8716	0.4353
14.9077	0.426
14.9437	0.423
14.9798	0.4279
15.0159	0.4266
15.052	0.4182
15.088	0.423
15.1241	0.4269
15.1602	0.4329
15.1962	0.4403
15.2323	0.447
15.2684	0.4522
15.3045	0.454
15.3405	0.4568
15.3766	0.454
15.4127	0.45
