Infrared Spectrum: 5-Cyano-1-pentyne
Formula: C 6 H 7 N
CAS: 14918-21-9
State: gas
Origin: EPA-IR VAPOR PHASE LIBRARY
1/CM	ABSORBANCE
549.9	0.007027
559.547	0.009207
569.193	0.008617
578.84	0.005667
588.486	0.004707
598.133	0.006087
607.779	0.012237
617.426	0.032367
627.072	0.078007
636.719	0.194707
646.365	0.227277
656.012	0.110537
665.658	0.040117
675.305	0.014407
684.951	0.006527
694.598	0.004167
704.245	0.003397
713.891	0.003277
723.538	0.003137
733.184	0.002757
742.831	0.002597
752.477	0.003077
762.124	0.003157
771.77	0.002957
781.417	0.002237
791.063	0.002127
800.71	0.002297
810.356	0.002407
820.003	0.002477
829.649	0.002537
839.296	0.002347
848.943	0.002247
858.589	0.002327
868.236	0.002547
877.882	0.002737
887.529	0.002647
897.175	0.002417
906.822	0.002217
916.468	0.002087
926.115	0.0019295
935.761	0.0019052
945.408	0.0019139
955.054	0.0017987
964.701	0.001538
974.347	0.0014993
983.994	0.001458
993.64	0.0017683
1003.29	0.002567
1012.93	0.003447
1022.58	0.003757
1032.23	0.003567
1041.87	0.003347
1051.52	0.003257
1061.17	0.002727
1070.81	0.002087
1080.46	0.001407
1090.11	0.0011221
1099.75	0.00102634
1109.4	0.00103866
1119.05	0.00104509
1128.69	0.00104882
1138.34	0.0010959
1147.99	0.0011788
1157.63	0.001449
1167.28	0.0018306
1176.92	0.002427
1186.57	0.002727
1196.22	0.003147
1205.86	0.003657
1215.51	0.004747
1225.16	0.006337
1234.8	0.009337
1244.45	0.018897
1254.1	0.040307
1263.74	0.050957
1273.39	0.045857
1283.04	0.026897
1292.68	0.015587
1302.33	0.014127
1311.98	0.013947
1321.62	0.014567
1331.27	0.014637
1340.92	0.014917
1350.56	0.012807
1360.21	0.010017
1369.86	0.005557
1379.5	0.003417
1389.15	0.003117
1398.79	0.003757
1408.44	0.005937
1418.09	0.011687
1427.73	0.023177
1437.38	0.033407
1447.03	0.034107
1456.67	0.024587
1466.32	0.015017
1475.97	0.008197
1485.61	0.004587
1495.26	0.002937
1504.91	0.002207
1514.55	0.0018301
1524.2	0.0017269
1533.85	0.0016235
1543.49	0.0014087
1553.14	0.0011153
1562.79	0.0009494
1572.43	0.0008
1582.08	0.000787
1591.73	0.000741
1601.37	0.00066
1611.02	0.000642
1620.67	0.000614
1630.31	0.000628
1639.96	0.000574
1649.6	0.000585
1659.25	0.000577
1668.9	0.000568
1678.54	0.000499
1688.19	0.000537
1697.84	0.000461
1707.48	0.000424
1717.13	0.000459
1726.78	0.000477
1736.42	0.000614
1746.07	0.000868
1755.72	0.0013319
1765.36	0.001511
1775.01	0.0012973
1784.66	0.0009004
1794.3	0.000712
1803.95	0.000624
1813.6	0.000495
1823.24	0.000445
1832.89	0.000421
1842.54	0.000371
1852.18	0.000392
1861.83	0.00045
1871.47	0.000483
1881.12	0.000579
1890.77	0.000667
1900.41	0.000676
1910.06	0.000711
1919.71	0.000595
1929.35	0.000528
1939	0.000497
1948.65	0.000458
1958.29	0.000414
1967.94	0.000409
1977.59	0.000389
1987.23	0.000419
1996.88	0.000437
2006.53	0.000512
2016.17	0.000592
2025.82	0.000695
2035.47	0.000766
2045.11	0.000829
2054.76	0.000823
2064.41	0.000862
2074.05	0.0009236
2083.7	0.0012092
2093.35	0.0018896
2102.99	0.003237
2112.64	0.004987
2122.28	0.005817
2131.93	0.004647
2141.58	0.002387
2151.22	0.00102689
2160.87	0.000745
2170.52	0.000698
2180.16	0.000771
2189.81	0.000841
2199.46	0.0009001
2209.1	0.0009323
2218.75	0.00103362
2228.4	0.001563
2238.04	0.003037
2247.69	0.004857
2257.34	0.005017
2266.98	0.003227
2276.63	0.0014937
2286.28	0.0011891
2295.92	0.001185
2305.57	0.0011363
2315.22	0.00103157
2324.86	0.0009848
2334.51	0.0009276
2344.16	0.0009061
2353.8	0.000835
2363.45	0.000705
2373.09	0.000753
2382.74	0.000722
2392.39	0.000771
2402.03	0.000766
2411.68	0.000751
2421.33	0.00071
2430.97	0.000766
2440.62	0.0009341
2450.27	0.00108234
2459.91	0.00109413
2469.56	0.0009096
2479.21	0.000808
2488.85	0.000803
2498.5	0.000798
2508.15	0.000741
2517.79	0.000616
2527.44	0.000495
2537.09	0.000465
2546.73	0.000537
2556.38	0.000567
2566.03	0.000711
2575.67	0.000799
2585.32	0.000855
2594.96	0.0009777
2604.61	0.0011081
2614.26	0.0012525
2623.9	0.0013372
2633.55	0.0014241
2643.2	0.0015189
2652.84	0.0016497
2662.49	0.0017724
2672.14	0.0017488
2681.78	0.002277
2691.43	0.002037
2701.08	0.0012359
2710.72	0.00101446
2720.37	0.00105966
2730.02	0.0012105
2739.66	0.0013045
2749.31	0.0014441
2758.96	0.0014765
2768.6	0.0012815
2778.25	0.0012293
2787.9	0.0013723
2797.54	0.001564
2807.19	0.0019194
2816.84	0.002327
2826.48	0.003157
2836.13	0.005047
2845.77	0.007937
2855.42	0.010947
2865.07	0.012887
2874.71	0.013867
2884.36	0.013697
2894.01	0.013577
2903.65	0.015007
2913.3	0.020097
2922.95	0.028567
2932.59	0.040007
2942.24	0.051807
2951.89	0.060537
2961.53	0.066777
2971.18	0.061097
2980.83	0.043577
2990.47	0.022007
3000.12	0.010017
3009.77	0.004507
3019.41	0.002467
3029.06	0.0016543
3038.71	0.0012479
3048.35	0.0011712
3058	0.00103543
3067.64	0.0009119
3077.29	0.000824
3086.94	0.000767
3096.58	0.000706
3106.23	0.000749
3115.88	0.000729
3125.52	0.000712
3135.17	0.000698
3144.82	0.000773
3154.46	0.00073
3164.11	0.000899
3173.76	0.000876
3183.4	0.00077
3193.05	0.000894
3202.7	0.000888
3212.34	0.0009339
3221.99	0.000884
3231.64	0.0011938
3241.28	0.0016975
3250.93	0.002697
3260.58	0.004347
3270.22	0.006897
3279.87	0.013077
3289.52	0.020097
3299.16	0.040607
3308.81	0.053547
3318.45	0.100347
3328.1	0.090787
3337.75	0.079067
3347.39	0.019457
3357.04	0.007727
3366.69	0.004517
3376.33	0.003647
3385.98	0.002317
3395.63	0.0012913
3405.27	0.000853
3414.92	0.000547
3424.57	0.000393
3434.21	0.000373
3443.86	0.000323
3453.51	0.000421
3463.15	0.00036
3472.8	0.000315
3482.45	0.000293
3492.09	0.000193
3501.74	0.000272
3511.39	0.000246
3521.03	0.00029
3530.68	0.000272
3540.33	0.000232
3549.97	0.000155
3559.62	0.000208
3569.26	0.000204
3578.91	0.000135
3588.56	0.000193
3598.2	0.000285
3607.85	0.000193
3617.5	0.000117
3627.14	0.000182
3636.79	0.000245
3646.44	0.000245
3656.08	0.000258
3665.73	0.000258
3675.38	0.000248
3685.02	0.000358
3694.67	0.000367
3704.32	0.000417
3713.96	0.000446
3723.61	0.000314
3733.26	0.000326
3742.9	0.000381
3752.55	0.000351
3762.2	0.0003
3771.84	0.000369
3781.49	0.000436
3791.13	0.000408
3800.78	0.000447
3810.43	0.000503
3820.07	0.000402
3829.72	0.000383
3839.37	0.000391
3849.01	0.00042
3858.66	0.000394
3868.31	0.000443
3877.95	0.000568
3887.6	0.000623
3897.25	0.000593
3906.89	0.000848
3916.54	0.00108015
3926.19	0.0013487
3935.83	0.0019197
3945.48	0.002797
3955.13	0.002237
3964.77	0.0012661
3974.42	0.001116
3984.07	0.00100308
3993.71	0.0009666
