Infrared Spectrum: 3-Heptyn-1-ol
Formula: C 7 H 12 O
CAS: 14916-79-1
State: gas
Instrument: HP-GC/MS/IRD
Origin: NIST Mass Spectrometry Data Center
1/CM	ABSORBANCE
550	0.0003852
562	0.0004752
574	0.0002196
586	0.0002124
598	0.0002214
610	0.00027
622	0.0001944
634	9.9e-05
646	7.2e-05
658	0.0001062
670	7.92e-05
682	9.9e-05
694	0.0001692
706	0.0001854
718	0.0001728
730	0.0002124
742	0.0001782
754	0.0002304
766	0.000252
778	0.0001944
790	0.0004104
802	0.0003078
814	0.0003474
826	0.0004806
838	0.000702
850	0.000891
862	0.000828
874	0.0006354
886	0.0005652
898	0.0005886
910	0.0006444
922	0.000729
934	0.0008226
946	0.0007614
958	0.0007038
970	0.0008352
982	0.0012078
994	0.0018576
1006	0.0027162
1018	0.0045702
1030	0.0084924
1042	0.0131832
1054	0.0119664
1066	0.0078696
1078	0.0044712
1090	0.0022824
1102	0.001314
1114	0.000918
1126	0.0008604
1138	0.0008478
1150	0.0009
1162	0.001026
1174	0.0012762
1186	0.001575
1198	0.0016092
1210	0.0015156
1222	0.001359
1234	0.0011646
1246	0.0010818
1258	0.0010314
1270	0.001467
1282	0.0018432
1294	0.0015462
1306	0.0016182
1318	0.0024678
1330	0.0040626
1342	0.0039438
1354	0.0024714
1366	0.002331
1378	0.003258
1390	0.0037296
1402	0.0029664
1414	0.0021816
1426	0.0021402
1438	0.0023904
1450	0.002241
1462	0.0020754
1474	0.001647
1486	0.0010998
1498	0.0007236
1510	0.0004914
1522	0.000351
1534	0.0002718
1546	0.000216
1558	0.0001674
1570	0.0002106
1582	0.000144
1594	0.0001566
1606	0.0001116
1618	7.2e-05
1630	8.64e-05
1642	7.74e-05
1654	6.48e-05
1666	6.84e-05
1678	7.56e-05
1690	8.28e-05
1702	5.94e-05
1714	5.76e-05
1726	6.84e-05
1738	1.8e-05
1750	3.24e-05
1762	5.04e-05
1774	1.26e-05
1786	3.06e-05
1798	3.24e-05
1810	3.96e-05
1822	1.08e-05
1834	5.22e-05
1846	4.14e-05
1858	3.6e-05
1870	5.4e-05
1882	5.04e-05
1894	9.72e-05
1906	7.2e-05
1918	3.96e-05
1930	7.2e-05
1942	3.24e-05
1954	5.04e-05
1966	1.08e-05
1978	3.96e-05
1990	1.44e-05
2002	5.4e-05
2014	3.96e-05
2026	2.34e-05
2038	5.94e-05
2050	9.9e-05
2062	9.72e-05
2074	0.0001116
2086	0.0001098
2098	0.0001152
2110	0.000117
2122	5.94e-05
2134	4.14e-05
2146	4.86e-05
2158	3.24e-05
2170	4.5e-05
2182	3.06e-05
2194	5.94e-05
2206	1.8e-05
2218	4.32e-05
2230	7.02e-05
2242	2.52e-05
2254	4.32e-05
2266	4.5e-05
2278	6.3e-05
2290	3.6e-05
2302	3.96e-05
2314	5.22e-05
2326	3.96e-05
2338	2.34e-05
2350	2.52e-05
2362	1.08e-05
2374	5.94e-05
2386	8.82e-05
2398	7.02e-05
2410	7.2e-05
2422	9.72e-05
2434	0.0001152
2446	9.18e-05
2458	9e-05
2470	0.0001062
2482	5.94e-05
2494	7.74e-05
2506	8.82e-05
2518	0.000117
2530	0.0001278
2542	9.36e-05
2554	0.0001314
2566	0.000126
2578	0.0001692
2590	0.000144
2602	0.000189
2614	0.000153
2626	0.0001728
2638	0.0002502
2650	0.0002952
2662	0.0003078
2674	0.0003438
2686	0.000297
2698	0.0003222
2710	0.0003762
2722	0.0003852
2734	0.0004572
2746	0.000549
2758	0.0005868
2770	0.0006246
2782	0.000648
2794	0.0007722
2806	0.000918
2818	0.0012276
2830	0.0017802
2842	0.0027756
2854	0.0039996
2866	0.0054828
2878	0.0085176
2890	0.0096696
2902	0.0090018
2914	0.0112986
2926	0.0142182
2938	0.0175428
2950	0.0168318
2962	0.0149544
2974	0.0151056
2986	0.0092034
2998	0.003888
3010	0.0019818
3022	0.0012816
3034	0.001008
3046	0.0008118
3058	0.0006372
3070	0.0005544
3082	0.0004356
3094	0.0004122
3106	0.0003114
3118	0.0002142
3130	0.0002052
3142	0.0001728
3154	0.0001494
3166	0.0002088
3178	0.0001602
3190	0.0002034
3202	0.000189
3214	0.0001242
3226	0.0001062
3238	8.28e-05
3250	7.74e-05
3262	0.000108
3274	5.04e-05
3286	0.000108
3298	0.000108
3310	9.36e-05
3322	8.82e-05
3334	9.72e-05
3346	0.0001404
3358	0.0001026
3370	9.72e-05
3382	0.0001044
3394	1.98e-05
3406	3.6e-05
3418	0.0001008
3430	0.0001566
3442	0.0001152
3454	9.36e-05
3466	0.0001008
3478	5.4e-05
3490	6.12e-05
3502	8.64e-05
3514	4.68e-05
3526	9.18e-05
3538	0.0001962
3550	0.000243
3562	0.0002304
3574	0.0002556
3586	0.000288
3598	0.0005832
3610	0.0021258
3622	0.002133
3634	0.0009864
3646	0.0007236
3658	0.0012852
3670	0.0015534
3682	0.0010386
3694	0.0004464
3706	0.0002808
3718	0.0002106
3730	0.0001332
3742	0.0001098
3754	5.4e-06
3766	0
3778	4.32e-05
3790	5.76e-05
3802	5.4e-06
3814	3.96e-05
3826	3.24e-05
3838	2.88e-05
