Infrared Spectrum: 3-Octyn-1-ol
Formula: C 8 H 14 O
CAS: 14916-80-4
State: gas
Instrument: HP-GC/MS/IRD
Origin: NIST Mass Spectrometry Data Center
1/CM	ABSORBANCE
550	0.00093
562	0.000516
574	0.000408
586	0.000318
598	0.000174
610	7.5e-05
622	0.000189
634	0.000147
646	6.6e-05
658	6e-05
670	9.3e-05
682	0.000126
694	0.000174
706	0.000192
718	0.000189
730	0.000261
742	0.000387
754	0.000363
766	0.000267
778	0.000222
790	0.000186
802	0.000165
814	0.00021
826	0.000477
838	0.000762
850	0.000945
862	0.000795
874	0.000528
886	0.000423
898	0.000498
910	0.000561
922	0.000765
934	0.000969
946	0.000873
958	0.000966
970	0.001131
982	0.001476
994	0.002196
1006	0.003108
1018	0.004854
1030	0.00972
1042	0.016353
1054	0.014277
1066	0.009279
1078	0.005061
1090	0.002565
1102	0.001647
1114	0.001224
1126	0.000975
1138	0.001011
1150	0.001029
1162	0.001173
1174	0.001536
1186	0.001932
1198	0.001989
1210	0.001884
1222	0.001569
1234	0.001371
1246	0.001386
1258	0.001398
1270	0.001329
1282	0.001623
1294	0.002022
1306	0.002427
1318	0.003477
1330	0.00495
1342	0.00411
1354	0.003243
1366	0.003231
1378	0.004002
1390	0.004416
1402	0.003486
1414	0.002583
1426	0.002709
1438	0.003282
1450	0.00318
1462	0.003024
1474	0.002439
1486	0.001464
1498	0.000837
1510	0.000555
1522	0.000411
1534	0.000315
1546	0.000234
1558	0.000192
1570	0.00015
1582	0.000117
1594	0.000117
1606	8.1e-05
1618	7.8e-05
1630	6.3e-05
1642	6.6e-05
1654	4.5e-05
1666	3.3e-05
1678	4.2e-05
1690	4.8e-05
1702	4.8e-05
1714	4.5e-05
1726	1.8e-05
1738	9e-06
1750	0
1762	2.1e-05
1774	6e-06
1786	1.8e-05
1798	1.5e-05
1810	6e-06
1822	3e-05
1834	3.9e-05
1846	3e-05
1858	4.2e-05
1870	6.9e-05
1882	9.9e-05
1894	9.9e-05
1906	9.9e-05
1918	9.6e-05
1930	4.5e-05
1942	4.5e-05
1954	4.8e-05
1966	4.8e-05
1978	5.4e-05
1990	6.6e-05
2002	5.4e-05
2014	0.000102
2026	0.000126
2038	0.000138
2050	0.00015
2062	0.000171
2074	0.000186
2086	0.000159
2098	0.000135
2110	0.000135
2122	0.000114
2134	8.4e-05
2146	6.9e-05
2158	6.3e-05
2170	3.3e-05
2182	6e-05
2194	7.5e-05
2206	8.4e-05
2218	9.6e-05
2230	0.000102
2242	8.4e-05
2254	8.1e-05
2266	8.7e-05
2278	7.2e-05
2290	6.6e-05
2302	5.1e-05
2314	5.4e-05
2326	6e-05
2338	4.8e-05
2350	6.3e-05
2362	5.4e-05
2374	0.000102
2386	6.9e-05
2398	8.7e-05
2410	9.9e-05
2422	9.9e-05
2434	0.00012
2446	8.4e-05
2458	4.8e-05
2470	4.8e-05
2482	4.5e-05
2494	5.4e-05
2506	8.1e-05
2518	6.9e-05
2530	7.2e-05
2542	8.4e-05
2554	8.7e-05
2566	0.000117
2578	0.000135
2590	0.000111
2602	0.000126
2614	0.000144
2626	0.000171
2638	0.00027
2650	0.000351
2662	0.000345
2674	0.00039
2686	0.000363
2698	0.000369
2710	0.000384
2722	0.000438
2734	0.00057
2746	0.000678
2758	0.000741
2770	0.000747
2782	0.000867
2794	0.000987
2806	0.001257
2818	0.001665
2830	0.002463
2842	0.004026
2854	0.006453
2866	0.009849
2878	0.012864
2890	0.013353
2902	0.012246
2914	0.016272
2926	0.023868
2938	0.03
2950	0.026148
2962	0.02307
2974	0.019704
2986	0.008931
2998	0.004062
3010	0.00243
3022	0.001728
3034	0.001332
3046	0.000984
3058	0.000738
3070	0.000552
3082	0.000495
3094	0.00039
3106	0.000303
3118	0.000276
3130	0.000225
3142	0.000216
3154	0.000201
3166	0.000189
3178	0.000168
3190	0.00015
3202	0.000126
3214	0.000114
3226	9.9e-05
3238	9.6e-05
3250	4.8e-05
3262	7.2e-05
3274	6.6e-05
3286	0.00012
3298	7.2e-05
3310	0.000117
3322	0.000135
3334	0.000153
3346	0.000138
3358	8.7e-05
3370	0.000117
3382	0.000123
3394	0.000129
3406	0.000147
3418	9.9e-05
3430	0.000168
3442	0.000168
3454	0.000207
3466	0.000237
3478	0.000177
3490	0.000198
3502	0.000246
3514	0.000234
3526	0.00027
3538	0.000318
3550	0.000366
3562	0.000381
3574	0.000387
3586	0.000492
3598	0.000909
3610	0.002874
3622	0.002694
3634	0.001209
3646	0.001047
3658	0.001734
3670	0.002079
3682	0.001389
3694	0.000765
3706	0.000483
3718	0.000363
3730	0.000291
3742	0.000252
3754	0.000204
3766	0.000207
3778	0.000198
3790	0.000198
3802	0.000213
3814	0.000204
3826	0.000231
3838	0.000222
