Infrared Spectrum: trans-3-Octene
Formula: C 8 H 16
CAS: 14919-01-8
State: gas
Instrument: HP-GC/MS/IRD
Origin: NIST Mass Spectrometry Data Center
1/CM	ABSORBANCE
550	0.0002106
562	6.63e-05
574	2.34e-05
586	7.41e-05
598	0.0001014
610	8.58e-05
622	0.0001248
634	4.29e-05
646	0.0002106
658	0.000156
670	0.0001248
682	0.0001365
694	0.0001989
706	0.0002847
718	0.0003822
730	0.000585
742	0.0007332
754	0.0007566
766	0.000624
778	0.0005616
790	0.0004446
802	0.0003783
814	0.0002691
826	0.0003315
838	0.0003978
850	0.0004485
862	0.000507
874	0.0006435
886	0.0007878
898	0.000897
910	0.0009945
922	0.0014391
934	0.0023244
946	0.0038844
958	0.0065364
970	0.0070083
982	0.0041652
994	0.0020865
1006	0.0012168
1018	0.0009711
1030	0.0010998
1042	0.0012246
1054	0.001131
1066	0.0010803
1078	0.0011544
1090	0.0010296
1102	0.0009399
1114	0.0005694
1126	0.0004368
1138	0.0003861
1150	0.0003471
1162	0.000312
1174	0.0003198
1186	0.0003588
1198	0.0004095
1210	0.0004212
1222	0.0004524
1234	0.0006162
1246	0.0007254
1258	0.0006942
1270	0.0008268
1282	0.001287
1294	0.0017901
1306	0.0017511
1318	0.001638
1330	0.0018642
1342	0.0019422
1354	0.0016458
1366	0.0014859
1378	0.0019227
1390	0.0019461
1402	0.001482
1414	0.0014001
1426	0.0019656
1438	0.0032019
1450	0.004446
1462	0.0049296
1474	0.0037947
1486	0.0019968
1498	0.0011349
1510	0.0006747
1522	0.0005265
1534	0.000429
1546	0.0003588
1558	0.0003276
1570	0.0003042
1582	0.0002496
1594	0.0002535
1606	0.0002379
1618	0.0002496
1630	0.0002496
1642	0.0002457
1654	0.0002769
1666	0.0003003
1678	0.0002964
1690	0.0002808
1702	0.0003003
1714	0.0002925
1726	0.000273
1738	0.0002886
1750	0.0002457
1762	0.0002886
1774	0.000351
1786	0.0003432
1798	0.0002691
1810	0.0002145
1822	0.000156
1834	0.0001404
1846	0.0001326
1858	0.0001287
1870	0.0001404
1882	0.0001287
1894	0.0001365
1906	0.000117
1918	8.58e-05
1930	9.75e-05
1942	8.58e-05
1954	9.36e-05
1966	6.63e-05
1978	8.97e-05
1990	7.02e-05
2002	7.8e-05
2014	0.0001092
2026	0.0001365
2038	0.0001404
2050	0.0001287
2062	9.75e-05
2074	0.0001014
2086	9.36e-05
2098	8.19e-05
2110	8.19e-05
2122	7.02e-05
2134	8.58e-05
2146	8.58e-05
2158	8.58e-05
2170	0.0001053
2182	0.0001092
2194	0.0001053
2206	0.0001092
2218	0.0001014
2230	0.0001053
2242	0.0001092
2254	0.0001092
2266	8.58e-05
2278	6.63e-05
2290	5.07e-05
2302	6.24e-05
2314	3.12e-05
2326	1.56e-05
2338	5.46e-05
2350	7.8e-05
2362	2.73e-05
2374	6.63e-05
2386	0.0001248
2398	0.0001638
2410	0.0001677
2422	9.36e-05
2434	0.0001287
2446	9.75e-05
2458	9.36e-05
2470	7.41e-05
2482	8.19e-05
2494	8.97e-05
2506	0.0001092
2518	0.0001209
2530	0.0001872
2542	0.0001794
2554	0.0002106
2566	0.0002106
2578	0.0002262
2590	0.0002379
2602	0.0002262
2614	0.0002613
2626	0.0002886
2638	0.0002925
2650	0.0003783
2662	0.0004173
2674	0.0004173
2686	0.0004524
2698	0.0004134
2710	0.0004797
2722	0.0005343
2734	0.0007488
2746	0.0008346
2758	0.0008697
2770	0.0009906
2782	0.0011934
2794	0.0014313
2806	0.0017979
2818	0.0024414
2830	0.0039039
2842	0.0070473
2854	0.01209
2866	0.0160992
2878	0.0182286
2890	0.0187005
2902	0.019812
2914	0.0262002
2926	0.0347451
2938	0.0380913
2950	0.0334776
2962	0.0360048
2974	0.0366054
2986	0.0198627
2998	0.0110838
3010	0.0077298
3022	0.0061893
3034	0.004836
3046	0.0033267
3058	0.0022542
3070	0.0016692
3082	0.0013416
3094	0.0011544
3106	0.0010413
3118	0.0008775
3130	0.0007878
3142	0.0006747
3154	0.0006435
3166	0.0006123
3178	0.000507
3190	0.00039
3202	0.0003588
3214	0.0002457
3226	0.0002028
3238	0.0001599
3250	0.0001248
3262	5.46e-05
3274	0.0001599
3286	7.02e-05
3298	9.36e-05
3310	9.36e-05
3322	4.29e-05
3334	7.41e-05
3346	6.63e-05
3358	7.41e-05
3370	0.0001053
3382	7.8e-05
3394	0.0001014
3406	9.36e-05
3418	4.68e-05
3430	7.41e-05
3442	7.8e-05
3454	1.95e-05
3466	5.46e-05
3478	6.24e-05
3490	7.8e-05
3502	5.07e-05
3514	6.63e-05
3526	1.95e-05
3538	5.85e-05
3550	7.8e-05
3562	2.73e-05
3574	6.24e-05
3586	3.9e-05
3598	7.8e-05
3610	9.75e-05
3622	8.58e-05
3634	7.41e-05
3646	0.0001248
3658	0.0001482
3670	0.0001248
3682	0.0001521
3694	0.0001677
3706	0.0001053
3718	0.0001716
3730	0.0001443
3742	0.0001482
3754	0.0001911
3766	0.0001911
3778	0.000195
3790	0.0001638
3802	0.0002106
3814	0.0001716
3826	0.0001911
3838	0.0002379
