Infrared Spectrum: 4-Nitrophenylglyoxylic acid
Formula: C 8 H 5 N O 5
CAS: 14922-36-2
State: gas
Origin: EPA-IR VAPOR PHASE LIBRARY
1/CM	ABSORBANCE
549.8	0.006377
559.445	0.007847
569.09	0.008427
578.734	0.007547
588.379	0.003637
598.024	0.002527
607.669	0.002547
617.313	0.002627
626.958	0.002037
636.603	0.001917
646.248	0.002227
655.893	0.008147
665.537	0.009187
675.182	0.002367
684.827	0.002067
694.472	0.002877
704.116	0.006257
713.761	0.013297
723.406	0.019097
733.051	0.011387
742.695	0.005087
752.34	0.005227
761.985	0.014607
771.63	0.010347
781.275	0.005447
790.919	0.004177
800.564	0.002977
810.209	0.002657
819.854	0.001917
829.498	0.002367
839.143	0.003267
848.788	0.008777
858.433	0.011847
868.078	0.007457
877.722	0.004917
887.367	0.002677
897.012	0.002057
906.657	0.001474
916.301	0.0016637
925.946	0.0009972
935.591	0.00094275
945.236	0.0010113
954.88	0.0016486
964.525	0.0008311
974.17	0.0014418
983.815	0.0018184
993.46	0.0018024
1003.1	0.002187
1012.75	0.006687
1022.39	0.006797
1032.04	0.002577
1041.68	0.002827
1051.33	0.002637
1060.97	0.006447
1070.62	0.019827
1080.26	0.036577
1089.91	0.027187
1099.55	0.011757
1109.2	0.007547
1118.84	0.004427
1128.49	0.005417
1138.13	0.004437
1147.78	0.006047
1157.42	0.010587
1167.07	0.021197
1176.71	0.034087
1186.36	0.028127
1196	0.010167
1205.64	0.005757
1215.29	0.005687
1224.93	0.005997
1234.58	0.007547
1244.22	0.006627
1253.87	0.006227
1263.51	0.006537
1273.16	0.007587
1282.8	0.009997
1292.45	0.011517
1302.09	0.010607
1311.74	0.010377
1321.38	0.013207
1331.03	0.024927
1340.67	0.035407
1350.32	0.029167
1359.96	0.025997
1369.61	0.018187
1379.25	0.010537
1388.9	0.006577
1398.54	0.005727
1408.18	0.005197
1417.83	0.004617
1427.47	0.002347
1437.12	0.0018678
1446.76	0.002067
1456.41	0.002027
1466.05	0.002267
1475.7	0.002477
1485.34	0.003457
1494.99	0.004807
1504.63	0.005887
1514.28	0.007067
1523.92	0.011317
1533.57	0.023387
1543.21	0.035677
1552.86	0.031957
1562.5	0.014997
1572.15	0.008297
1581.79	0.007927
1591.44	0.008957
1601.08	0.010257
1610.73	0.009567
1620.37	0.006157
1630.01	0.003377
1639.66	0.002317
1649.3	0.002367
1658.95	0.002127
1668.59	0.002057
1678.24	0.001907
1687.88	0.002227
1697.53	0.002447
1707.17	0.003347
1716.82	0.004257
1726.46	0.005017
1736.11	0.005717
1745.75	0.011457
1755.4	0.033587
1765.04	0.072227
1774.69	0.056047
1784.33	0.014817
1793.98	0.005297
1803.62	0.004557
1813.27	0.004057
1822.91	0.003007
1832.55	0.002637
1842.2	0.002047
1851.84	0.0015645
1861.49	0.0013642
1871.13	0.0013374
1880.78	0.0011118
1890.42	0.001302
1900.07	0.0012326
1909.71	0.00116
1919.36	0.0013927
1929	0.0017995
1938.65	0.001897
1948.29	0.001585
1957.94	0.0013191
1967.58	0.0011901
1977.23	0.00086819
1986.87	0.0010046
1996.52	0.000984
2006.16	0.00097159
2015.81	0.0010614
2025.45	0.00096068
2035.1	0.0011201
2044.74	0.00094287
2054.38	0.0009909
2064.03	0.0011392
2073.67	0.00093558
2083.32	0.0011691
2092.96	0.0009975
2102.61	0.00096122
2112.25	0.00092836
2121.9	0.00092033
2131.54	0.0009795
2141.19	0.0010425
2150.83	0.001101
2160.48	0.0010384
2170.12	0.0011724
2179.77	0.001031
2189.41	0.0010297
2199.06	0.0008599
2208.7	0.0008412
2218.35	0.0008514
2227.99	0.0007956
2237.64	0.0010089
2247.28	0.0012253
2256.92	0.0010211
2266.57	0.00092404
2276.21	0.0010779
2285.86	0.0011582
2295.5	0.0012022
2305.15	0.0010271
2314.79	0.0011402
2324.44	0.0011125
2334.08	0.0011011
2343.73	0.00097244
2353.37	0.0013277
2363.02	0.001243
2372.66	0.0013172
2382.31	0.0011366
2391.95	0.0010178
2401.6	0.0010792
2411.24	0.001047
2420.89	0.001178
2430.53	0.0010965
2440.18	0.0010771
2449.82	0.0011586
2459.47	0.0010305
2469.11	0.0011746
2478.75	0.000879553
2488.4	0.0008522
2498.04	0.0012355
2507.69	0.0011166
2517.33	0.000993
2526.98	0.0010921
2536.62	0.0010584
2546.27	0.0010111
2555.91	0.0010955
2565.56	0.0009848
2575.2	0.00096354
2584.85	0.0009964
2594.49	0.0010594
2604.14	0.00097433
2613.78	0.00094576
2623.43	0.0010922
2633.07	0.0008649
2642.72	0.0011451
2652.36	0.0008287
2662.01	0.0012606
2671.65	0.0010358
2681.29	0.0010439
2690.94	0.0012044
2700.58	0.0011439
2710.23	0.0012121
2719.87	0.0010383
2729.52	0.000734
2739.16	0.0010863
2748.81	0.000989
2758.45	0.0010487
2768.1	0.0011417
2777.74	0.00089844
2787.39	0.0012503
2797.03	0.001118
2806.68	0.00089251
2816.32	0.0008099
2825.97	0.0008571
2835.61	0.001056
2845.26	0.0015109
2854.9	0.001354
2864.55	0.0016014
2874.19	0.0016847
2883.84	0.001877
2893.48	0.0016437
2903.12	0.0013407
2912.77	0.0013195
2922.41	0.0013815
2932.06	0.0016723
2941.7	0.0014861
2951.35	0.0012413
2960.99	0.0014244
2970.64	0.001226
2980.28	0.0010628
2989.93	0.00074
2999.57	0.0009946
3009.22	0.0012268
3018.86	0.0013547
3028.51	0.0009908
3038.15	0.0014225
3047.8	0.0012257
3057.44	0.001223
3067.09	0.0014231
3076.73	0.0013359
3086.38	0.0015213
3096.02	0.0014766
3105.67	0.0010684
3115.31	0.0011957
3124.95	0.0010892
3134.6	0.0011283
3144.24	0.0010622
3153.89	0.001186
3163.53	0.000461
3173.18	0.00094706
3182.82	0.0012415
3192.47	0.000675
3202.11	0.001132
3211.76	0.0010282
3221.4	0.0011029
3231.05	0.0008316
3240.69	0.001055
3250.34	0.0011965
3259.98	0.00089177
3269.63	0.000701
3279.27	0.0012035
3288.92	0.001173
3298.56	0.000656
3308.21	0.0009889
3317.85	0.0008502
3327.49	0.0010544
3337.14	0.0010598
3346.78	0.00093638
3356.43	0.001291
3366.07	0.0008021
3375.72	0.000843
3385.36	0.000645
3395.01	0.000584
3404.65	0.0010645
3414.3	0.0011463
3423.94	0.000649
3433.59	0.00095087
3443.23	0.00091463
3452.88	0.00086766
3462.52	0.0009798
3472.17	0.000722
3481.81	0.0010946
3491.46	0.0012632
3501.1	0.00128
3510.75	0.0014474
3520.39	0.0016193
3530.04	0.0014268
3539.68	0.0011121
3549.32	0.0012159
3558.97	0.002547
3568.61	0.009037
3578.26	0.029957
3587.9	0.021037
3597.55	0.003257
3607.19	0.0014705
3616.84	0.0014921
3626.48	0.000759
3636.13	0.0012701
3645.77	0.0011861
3655.42	0.0010304
3665.06	0.0010527
3674.71	0.0008496
3684.35	0.000712
3694	0.001242
3703.64	0.0012025
3713.29	0.000632
3722.93	0.000731
3732.58	0.0012308
3742.22	0.001325
3751.86	0.0010355
3761.51	0.0012025
3771.15	0.0008474
3780.8	0.000737
3790.44	0.0009398
3800.09	0.000781
3809.73	0.000993
3819.38	0.000608
3829.02	0.000879727
3838.67	0.000698
3848.31	0.00096544
3857.96	0.00059
3867.6	0.0010133
3877.25	0.0011126
3886.89	0.0010258
3896.54	0.000609
3906.18	0.000624
3915.83	0.00091134
3925.47	0.00095193
3935.12	0.000736
3944.76	0.000754
3954.41	0.0013751
3964.05	0.0011034
3973.69	0.000649
3983.34	0.000257
3992.98	0.000651
