Infrared Spectrum: 4-Nitrophenyl palmitate
Formula: C 22 H 35 N O 4
CAS: 1492-30-4
State: gas
Origin: EPA-IR VAPOR PHASE LIBRARY
1/CM	ABSORBANCE
549.9	0.0004587
559.547	0.0005991
569.193	0.0006297
578.84	0.0005409
588.486	0.0005882
598.133	0.0005376
607.779	0.0004421
617.426	0.0004706
627.072	0.0004647
636.719	0.0004315
646.365	0.0004906
656.012	0.0006391
665.658	0.0007027
675.305	0.0007541
684.951	0.0008427
694.598	0.0009391
704.245	0.0008122
713.891	0.0008845
723.538	0.0009323
733.184	0.0009894
742.831	0.00109
752.477	0.0009873
762.124	0.0007625
771.77	0.0005569
781.417	0.0005253
791.063	0.0005668
800.71	0.0006589
810.356	0.0005799
820.003	0.0007003
829.649	0.0008251
839.296	0.0009903
848.943	0.00161
858.589	0.00333
868.236	0.00246
877.882	0.00159
887.529	0.00152
897.175	0.00165
906.822	0.00179
916.468	0.00163
926.115	0.0012
935.761	0.0009196
945.408	0.0007641
955.054	0.000681
964.701	0.0007107
974.347	0.0006653
983.994	0.000723
993.64	0.0007677
1003.29	0.0008711
1012.93	0.00153
1022.58	0.0009911
1032.23	0.00105
1041.87	0.0012
1051.52	0.00144
1061.17	0.00188
1070.81	0.00257
1080.46	0.00369
1090.11	0.00522
1099.75	0.00744
1109.4	0.0087
1119.05	0.00762
1128.69	0.00663
1138.34	0.00544
1147.99	0.00489
1157.63	0.00661
1167.28	0.00529
1176.92	0.00432
1186.57	0.00512
1196.22	0.00756
1205.86	0.01155
1215.51	0.00712
1225.16	0.00428
1234.8	0.00264
1244.45	0.00187
1254.1	0.0016
1263.74	0.00149
1273.39	0.00149
1283.04	0.00159
1292.68	0.0017
1302.33	0.00178
1311.98	0.00189
1321.62	0.00198
1331.27	0.00273
1340.92	0.00568
1350.56	0.00938
1360.21	0.00539
1369.86	0.00255
1379.5	0.00159
1389.15	0.00109
1398.79	0.0008585
1408.44	0.0008301
1418.09	0.0008595
1427.73	0.00107
1437.38	0.00117
1447.03	0.00157
1456.67	0.00199
1466.32	0.00207
1475.97	0.00189
1485.61	0.00374
1495.26	0.0049
1504.91	0.00174
1514.55	0.00169
1524.2	0.00302
1533.85	0.00532
1543.49	0.0062
1553.14	0.00382
1562.79	0.00198
1572.43	0.00138
1582.08	0.0019
1591.73	0.00343
1601.37	0.00254
1611.02	0.0019
1620.67	0.00145
1630.31	0.000837
1639.96	0.0004557
1649.6	0.0003873
1659.25	0.0003428
1668.9	0.0003692
1678.54	0.0003347
1688.19	0.0003508
1697.84	0.0002867
1707.48	0.0003486
1717.13	0.0003106
1726.78	0.0004713
1736.42	0.0006447
1746.07	0.0009006
1755.72	0.00143
1765.36	0.00242
1775.01	0.00425
1784.66	0.00528
1794.3	0.00319
1803.95	0.00166
1813.6	0.0008733
1823.24	0.0005479
1832.89	0.0003726
1842.54	0.0003277
1852.18	0.0002452
1861.83	0.0001791
1871.47	0.0001878
1881.12	0.0001615
1890.77	0.0002358
1900.41	0.0002366
1910.06	0.0002529
1919.71	0.0002396
1929.35	0.0002002
1939	0.0001355
1948.65	0.0001451
1958.29	0.0001579
1967.94	0.0001977
1977.59	0.0001369
1987.23	0.000162
1996.88	0.0001872
2006.53	0.0002034
2016.17	0.0001745
2025.82	0.0001267
2035.47	0.0001144
2045.11	0.0001551
2054.76	0.0001397
2064.41	9.531e-05
2074.05	0.000177
2083.7	0.00015
2093.35	0.0001104
2102.99	0.0001527
2112.64	0.0001492
2122.28	0.0001544
2131.93	9.162e-05
2141.58	0.0001127
2151.22	0.0001022
2160.87	0.0001026
2170.52	8.505e-05
2180.16	7.015e-05
2189.81	0.0001146
2199.46	9.231e-05
2209.1	7.644e-05
2218.75	9.001e-05
2228.4	8.559e-05
2238.04	8.744e-05
2247.69	2.935e-05
2257.34	5.372e-05
2266.98	6.519e-05
2276.63	8.521e-05
2286.28	5.44e-05
2295.92	6.374e-05
2305.57	7.217e-05
2315.22	4.254e-05
2324.86	2.219e-05
2334.51	3.768e-05
2344.16	4.124e-05
2353.8	2.549e-05
2363.45	1.62e-05
2373.09	8.394e-05
2382.74	3.499e-05
2392.39	9.091e-05
2402.03	0.0001038
2411.68	0.0001451
2421.33	0.0001319
2430.97	0.0001036
2440.62	2.847e-05
2450.27	0.0001054
2459.91	0.0001179
2469.56	8.853e-05
2479.21	5.075e-05
2488.85	7.17e-05
2498.5	8.753e-05
2508.15	5.881e-05
2517.79	2.638e-05
2527.44	7.945e-05
2537.09	6.048e-05
2546.73	7.94e-05
2556.38	2.215e-05
2566.03	6.407e-05
2575.67	9.376e-05
2585.32	9.96e-05
2594.96	0.0001361
2604.61	0.0001216
2614.26	0.0001289
2623.9	0.0001033
2633.55	0.0001177
2643.2	0.0001445
2652.84	0.0001417
2662.49	0.0001559
2672.14	0.0001676
2681.78	0.0002228
2691.43	0.0001884
2701.08	0.0001501
2710.72	0.0001275
2720.37	0.0001436
2730.02	0.0002298
2739.66	0.0001585
2749.31	0.0001944
2758.96	0.0001884
2768.6	0.0002153
2778.25	0.0003109
2787.9	0.0003074
2797.54	0.0004149
2807.19	0.0004188
2816.84	0.0006388
2826.48	0.0008117
2836.13	0.00123
2845.77	0.00219
2855.42	0.005
2865.07	0.00715
2874.71	0.00501
2884.36	0.00383
2894.01	0.00369
2903.65	0.00472
2913.3	0.00753
2922.95	0.01335
2932.59	0.01979
2942.24	0.01448
2951.89	0.00815
2961.53	0.00535
2971.18	0.00424
2980.83	0.0024
2990.47	0.00143
3000.12	0.0009499
3009.77	0.0006245
3019.41	0.0005406
3029.06	0.0003774
3038.71	0.0003319
3048.35	0.0003261
3058	0.0003284
3067.64	0.0002822
3077.29	0.0003395
3086.94	0.0003837
3096.58	0.0003037
3106.23	0.0002942
3115.88	0.0001564
3125.52	0.0002781
3135.17	8.524e-05
3144.82	0.0003305
3154.46	0.000149
3164.11	0.0001738
3173.76	0.0001113
3183.4	0.0002953
3193.05	0.0002898
3202.7	0.0002312
3212.34	0.0003467
3221.99	5.902e-05
3231.64	0.0001671
3241.28	0.0001943
3250.93	0.0002973
3260.58	0.0003081
3270.22	7.511e-05
3279.87	0.0001368
3289.52	0.0002157
3299.16	0.00034
3308.81	0.0003407
3318.45	0.0003181
3328.1	0.0003009
3337.75	0.0004288
3347.39	0.0003362
3357.04	0.0003923
3366.69	0.0002857
3376.33	0.0004352
3385.98	0.0003809
3395.63	0.0003197
3405.27	0.0001827
3414.92	0.0005123
3424.57	0.0002924
3434.21	0.0002248
3443.86	0.0002704
3453.51	0.0003369
3463.15	0.0003728
3472.8	0.0003412
3482.45	0.0003724
3492.09	0.0002767
3501.74	0.0003208
3511.39	0.0004479
3521.03	0.0003761
3530.68	0.0003064
3540.33	0.0004003
3549.97	0.0004233
3559.62	0.0004147
3569.26	0.0003357
3578.91	0.0003633
3588.56	0.0002869
3598.2	0.0003905
3607.85	0.0002939
3617.5	0.0001823
3627.14	0.0003312
3636.79	0.0003213
3646.44	0.0002786
3656.08	0.000296
3665.73	0.0002804
3675.38	0.0002321
3685.02	0.0002335
3694.67	0.0003539
3704.32	0.0003365
3713.96	0.0001661
3723.61	0.0002898
3733.26	0.0002951
3742.9	0.0001814
3752.55	0.0002859
3762.2	0.0002232
3771.84	0.000255
3781.49	0.0002449
3791.13	0.0002904
3800.78	0.0002871
3810.43	0.0002
3820.07	0.0001475
3829.72	0.0002065
3839.37	0.0001474
3849.01	0.0002936
3858.66	0.0002201
3868.31	0.0003425
3877.95	0.0002371
3887.6	0.0002047
3897.25	0.0001857
3906.89	8.394e-05
3916.54	0.0002027
3926.19	0.0002521
3935.83	0.0002101
3945.48	0.0002528
3955.13	0.0001087
3964.77	0.0002332
3974.42	0.0002617
3984.07	0.0002675
3993.71	0.0002195
