Infrared Spectrum: Disiloxane, 1,1,3-trimethyl-1,3,3-triphenyl-
Formula: C21 H24 O Si2
CAS: 14920-93-5
State: SOLUTION (10% CCl4 FOR 3800-1300, 2% CS2 FOR 1300-650, AND 10% CCl4 FOR 650-250)
Melting point: 50 C
Class: COBLENTZ III
Instrument: PERKIN-ELMER 521 (GRATING)
Instrument parameters: FILTERS AT 3150, 2500, 2000, 1150, 700, 410. GRATING CHANGES: 2000, 630
Path length: 0.012 CM, 0.011 CM, AND 0.009 CM
Resolution: 2
Origin: DOW CORNING CORP.
1/CM	TRANSMITTANCE
261	0.8273
270	0.8269
279	0.8219
288	0.8127
297	0.7965
306	0.7868
315	0.7887
324	0.7858
333	0.7689
342	0.8115
351	0.8737
360	0.8264
369	0.7269
378	0.6833
387	0.5471
396	0.4485
405	0.7722
414	0.8642
423	0.8338
432	0.7182
441	0.521
450	0.621
459	0.5592
468	0.3371
477	0.2179
486	0.2036
495	0.6676
504	0.859
513	0.8875
522	0.8961
531	0.9007
540	0.8954
549	0.8813
558	0.8524
567	0.7984
576	0.7972
585	0.8585
594	0.8714
603	0.8673
612	0.8641
621	0.8547
630	0.8678
639	0.8604
648	0.8396
657	0.7931
666	0.8558
675	0.8453
684	0.8258
693	0.7632
702	0.3772
711	0.7565
720	0.7194
729	0.3569
738	0.6484
747	0.7586
756	0.8478
765	0.8296
774	0.6216
783	0.4453
792	0.2877
801	0.8163
810	0.8283
819	0.697
828	0.4988
837	0.6346
846	0.7384
855	0.8747
864	0.8928
873	0.9088
882	0.9237
891	0.9304
900	0.9319
909	0.9344
918	0.9361
927	0.9365
936	0.9367
945	0.9384
954	0.9376
963	0.9313
972	0.9222
981	0.9125
990	0.8901
999	0.8776
1008	0.8311
1017	0.7673
1026	0.5449
1035	0.6532
1044	0.5178
1053	0.4367
1062	0.4178
1071	0.4574
1080	0.5562
1089	0.6945
1098	0.7696
1107	0.552
1116	0.3304
1125	0.7342
1134	0.9072
1143	0.9337
1152	0.9392
1161	0.9383
1170	0.9337
1179	0.9252
1188	0.9216
1197	0.9403
1206	0.9374
1215	0.9333
1224	0.9266
1233	0.9013
1242	0.7999
1251	0.5197
1260	0.7831
1269	0.914
1278	0.9211
1287	0.922
1296	0.8777
1305	0.7821
1314	0.7723
1323	0.7838
1332	0.8219
1341	0.8481
1350	0.851
1359	0.8427
1368	0.8062
1377	0.8283
1386	0.8145
1395	0.7671
1404	0.6762
1413	0.7127
1422	0.5021
1431	0.6431
1440	0.8033
1449	0.8393
1458	0.8516
1467	0.8517
1476	0.8487
1485	0.6997
1494	0.8746
1503	0.8737
1512	0.8718
1521	0.8678
1530	0.8565
1539	0.8404
1548	0.8257
1557	0.8299
1566	0.827
1575	0.8229
1584	0.7674
1593	0.6628
1602	0.8544
1611	0.8523
1620	0.8499
1629	0.8524
1638	0.8522
1647	0.8538
1656	0.8789
1665	0.9043
1674	0.9105
1683	0.9119
1692	0.912
1701	0.9115
1710	0.9109
1719	0.9105
1728	0.9113
1737	0.9128
1746	0.9112
1755	0.8929
1764	0.8809
1773	0.894
1782	0.919
1791	0.9197
1800	0.9118
1809	0.888
1818	0.819
1827	0.8679
1836	0.8794
1845	0.9105
1854	0.9176
1863	0.9139
1872	0.902
1881	0.8271
1890	0.8567
1899	0.8388
1908	0.9005
1917	0.9154
1926	0.9161
1935	0.9128
1944	0.8896
1953	0.8156
1962	0.8635
1971	0.8671
1980	0.9081
1989	0.9191
1998	0.9197
2007	0.94
2016	0.942
2025	0.9425
2034	0.9423
2043	0.9422
2052	0.9444
2061	0.9462
2070	0.9467
2079	0.9472
2088	0.9479
2097	0.9484
2106	0.949
2115	0.9495
2124	0.95
2133	0.9497
2142	0.9496
2151	0.9493
2160	0.9491
2169	0.9485
2178	0.948
2187	0.9473
2196	0.9466
2205	0.9457
2214	0.9439
2223	0.9422
2232	0.9399
2241	0.9405
2250	0.9448
2259	0.945
2268	0.9443
2277	0.9436
2286	0.943
2295	0.9424
2304	0.9423
2313	0.942
2322	0.9421
2331	0.9426
2340	0.944
2349	0.9447
2358	0.9474
2367	0.9472
2376	0.9474
2385	0.9475
2394	0.9473
2403	0.9468
2412	0.9465
2421	0.946
2430	0.9456
2439	0.9451
2448	0.9447
2457	0.9443
2466	0.9442
2475	0.9442
2484	0.944
2493	0.9431
2502	0.9422
2511	0.9414
2520	0.9408
2529	0.9407
2538	0.9405
2547	0.9401
2556	0.9396
2565	0.9392
2574	0.938
2583	0.9344
2592	0.9328
2601	0.9401
2610	0.9395
2619	0.9375
2628	0.9385
2637	0.9419
2646	0.941
2655	0.94
2664	0.9396
2673	0.939
2682	0.9361
2691	0.9311
2700	0.9267
2709	0.9325
2718	0.9373
2727	0.9401
2736	0.9415
2745	0.941
2754	0.9392
2763	0.936
2772	0.9303
2781	0.9239
2790	0.9194
2799	0.9163
2808	0.9144
2817	0.9141
2826	0.9154
2835	0.9176
2844	0.9194
2853	0.9186
2862	0.9162
2871	0.9117
2880	0.8991
2889	0.87
2898	0.8325
2907	0.805
2916	0.8327
2925	0.8615
2934	0.8609
2943	0.8075
2952	0.7133
2961	0.516
2970	0.3733
2979	0.5971
2988	0.7834
2997	0.7846
3006	0.6644
3015	0.568
3024	0.5426
3033	0.5251
3042	0.6848
3051	0.5774
3060	0.4319
3069	0.4778
3078	0.3808
3087	0.363
3096	0.7021
3105	0.7943
3114	0.8989
3123	0.9061
3132	0.9055
3141	0.8626
3150	0.9155
3159	0.9313
3168	0.9379
3177	0.943
3186	0.9465
3195	0.9491
3204	0.9506
3213	0.9515
3222	0.9525
3231	0.9531
3240	0.9532
3249	0.9533
3258	0.9532
3267	0.9531
3276	0.953
3285	0.9528
3294	0.9526
3303	0.9523
3312	0.9519
3321	0.9514
3330	0.9505
3339	0.9496
3348	0.9492
3357	0.949
3366	0.9488
3375	0.9491
3384	0.9496
3393	0.9498
3402	0.95
3411	0.9501
3420	0.9498
3429	0.9491
3438	0.9486
3447	0.9479
3456	0.9474
3465	0.9473
3474	0.9472
3483	0.9471
3492	0.947
3501	0.9469
3510	0.9469
3519	0.9469
3528	0.9468
3537	0.9467
3546	0.9466
3555	0.9461
3564	0.9446
3573	0.9419
3582	0.9396
3591	0.938
3600	0.9365
3609	0.9349
3618	0.9332
3627	0.9314
3636	0.9299
3645	0.9319
3654	0.9368
3663	0.9346
3672	0.9269
3681	0.9219
3690	0.9208
3699	0.9205
3708	0.9216
3717	0.9232
3726	0.9244
3735	0.923
3744	0.918
3753	0.9202
3762	0.9275
3771	0.9334
3780	0.936
3789	0.9371
3798	0.9376
3807	0.9369
3816	0.9356
