Infrared Spectrum: p-n-AMYL PHENOL
Formula: C11 H16 O
CAS: 14938-35-3
State: LIQUID
Boiling point: 153-155 C AT 20 mmHg
Class: COBLENTZ
Instrument: Not specified, most likely a prism, grating, or hybrid spectrometer.
Sampling: TRANSMISSION
Path length: 0.003 CM
Resolution: 4
Origin: WYANDOTTE CHEMICALS CORP., WYANDOTTE, MICHIGAN, USA
MICROMETERS	TRANSMITTANCE
2.027	0.993
2.0678	0.989
2.10859	0.981
2.14939	0.984
2.19019	0.984
2.23099	0.959
2.27178	0.959
2.31258	0.962
2.35338	0.964
2.39417	0.952
2.43497	0.942
2.47577	0.947
2.51656	0.955
2.55736	0.952
2.59816	0.962
2.63896	0.95
2.67975	0.937
2.72055	0.899
2.76135	0.775
2.80214	0.624
2.84294	0.393
2.88374	0.305
2.92454	0.246
2.96533	0.159
3.00613	0.11
3.04693	0.098
3.08772	0.144
3.12852	0.217
3.16932	0.307
3.21012	0.419
3.25091	0.519
3.29171	0.431
3.33251	0.509
3.3733	0.135
3.4141	0.054
3.4549	0.161
3.49569	0.188
3.53649	0.307
3.57729	0.657
3.61809	0.743
3.65888	0.764
3.69968	0.743
3.74048	0.758
3.78127	0.779
3.82207	0.804
3.86287	0.804
3.90367	0.811
3.94446	0.826
3.98526	0.843
4.02606	0.842
4.06685	0.818
4.10765	0.814
4.14845	0.831
4.18925	0.842
4.23004	0.864
4.27084	0.894
4.31164	0.921
4.35243	0.932
4.39323	0.921
4.43403	0.906
4.47482	0.91
4.51562	0.915
4.55642	0.916
4.59722	0.918
4.63801	0.928
4.67881	0.916
4.71961	0.926
4.7604	0.916
4.8012	0.918
4.842	0.906
4.8828	0.906
4.92359	0.906
4.96439	0.904
5.00519	0.899
5.04598	0.896
5.08678	0.896
5.12758	0.906
5.16838	0.903
5.20917	0.896
5.24997	0.893
5.29077	0.877
5.33156	0.821
5.37236	0.797
5.41316	0.865
5.45395	0.884
5.49475	0.889
5.53555	0.887
5.57635	0.884
5.61714	0.879
5.65794	0.867
5.69874	0.848
5.73953	0.867
5.78033	0.867
5.82113	0.865
5.86193	0.865
5.90272	0.847
5.94352	0.816
5.98432	0.792
6.02511	0.755
6.06591	0.713
6.10671	0.641
6.14751	0.198
6.1883	0.332
6.2291	0.456
6.2699	0.716
6.31069	0.77
6.35149	0.78
6.39229	0.764
6.43308	0.752
6.47388	0.696
6.51468	0.511
6.55548	0.03
6.59627	0.14
6.63707	0.443
6.67787	0.497
6.71866	0.495
6.75946	0.324
6.80026	0.152
6.84106	0.135
6.88185	0.137
6.92265	0.203
6.96345	0.409
7.00424	0.619
7.04504	0.687
7.08584	0.682
7.12664	0.658
7.16743	0.584
7.20823	0.392
7.24903	0.297
7.28982	0.314
7.33062	0.32
7.37142	0.342
7.41221	0.393
7.45301	0.415
7.49381	0.453
7.53461	0.555
7.5754	0.597
7.6162	0.606
7.657	0.623
7.69779	0.648
7.73859	0.645
7.77939	0.601
7.82019	0.495
7.86098	0.359
7.90178	0.259
7.94258	0.157
7.98337	0.086
8.02417	0.045
8.06497	0.04
8.10576	0.037
8.14656	0.042
8.18736	0.05
8.22816	0.073
8.26895	0.103
8.30975	0.149
8.35055	0.19
8.39134	0.219
8.43214	0.247
8.47294	0.239
8.51374	0.147
8.55453	0.29
8.59533	0.448
8.63613	0.539
8.67692	0.604
8.71772	0.638
8.75852	0.665
8.79932	0.677
8.84011	0.67
8.88091	0.624
8.92171	0.478
8.9625	0.375
9.0033	0.56
9.0441	0.675
9.08489	0.694
9.12569	0.699
9.16649	0.674
9.20729	0.65
9.24808	0.66
9.28888	0.697
9.32968	0.731
9.37047	0.745
9.41127	0.764
9.45207	0.767
9.49287	0.779
9.53366	0.779
9.57446	0.777
9.61526	0.772
9.65605	0.765
9.69685	0.758
9.73765	0.76
9.77845	0.728
9.81924	0.66
9.86004	0.716
9.90084	0.772
9.94163	0.786
9.98243	0.794
10.0232	0.803
10.064	0.811
10.1048	0.808
10.1456	0.806
10.1864	0.789
10.2272	0.774
10.268	0.77
10.3088	0.775
10.3496	0.78
10.3904	0.786
10.4312	0.786
10.472	0.787
10.5128	0.784
10.5536	0.789
10.5944	0.797
10.6352	0.791
10.676	0.777
10.7168	0.765
10.7576	0.762
10.7984	0.767
10.8392	0.775
10.88	0.786
10.9208	0.784
10.9616	0.779
11.0024	0.764
11.0432	0.772
11.084	0.769
11.1247	0.757
11.1655	0.75
11.2063	0.752
11.2471	0.757
11.2879	0.758
11.3287	0.753
11.3695	0.755
11.4103	0.757
11.4511	0.753
11.4919	0.733
11.5327	0.718
11.5735	0.694
11.6143	0.668
11.6551	0.631
11.6959	0.561
11.7367	0.47
11.7775	0.359
11.8183	0.285
11.8591	0.232
11.8999	0.215
11.9407	0.225
11.9815	0.224
12.0223	0.2
12.0631	0.166
12.1039	0.134
12.1447	0.135
12.1855	0.142
12.2263	0.154
12.2671	0.185
12.3079	0.23
12.3487	0.283
12.3895	0.361
12.4303	0.438
12.4711	0.497
12.5118	0.533
12.5526	0.533
12.5934	0.505
12.6342	0.495
12.675	0.529
12.7158	0.567
12.7566	0.575
12.7974	0.565
12.8382	0.544
12.879	0.512
12.9198	0.49
12.9606	0.463
13.0014	0.458
13.0422	0.47
13.083	0.5
13.1238	0.514
13.1646	0.533
13.2054	0.551
13.2462	0.563
13.287	0.577
13.3278	0.589
13.3686	0.597
13.4094	0.602
13.4502	0.604
13.491	0.601
13.5318	0.59
13.5726	0.585
13.6134	0.585
13.6542	0.58
13.695	0.561
13.7358	0.546
13.7766	0.529
13.8174	0.526
13.8582	0.522
13.899	0.531
13.9397	0.522
13.9805	0.511
14.0213	0.49
14.0621	0.478
14.1029	0.477
14.1437	0.487
14.1845	0.497
14.2253	0.522
14.2661	0.538
14.3069	0.555
14.3477	0.572
14.3885	0.584
14.4293	0.589
14.4701	0.594
14.5109	0.597
14.5517	0.599
14.5925	0.601
14.6333	0.601
14.6741	0.601
14.7149	0.601
14.7557	0.601
14.7965	0.601
14.8373	0.601
14.8781	0.601
14.9189	0.595
14.9597	0.595
15.0005	0.595
15.0413	0.595
15.0821	0.597
15.1229	0.602
15.1637	0.599
15.2045	0.597
15.2453	0.599
15.2861	0.601
15.3268	0.599
15.3676	0.597
15.4084	0.595
15.4492	0.597
15.49	0.597
15.5308	0.597
15.5716	0.59
15.6124	0.592
15.6532	0.595
15.694	0.599
15.7348	0.599
15.7756	0.601
15.8164	0.601
15.8572	0.601
15.898	0.599
15.9388	0.599
15.9796	0.599
