Infrared Spectrum: 5,8-DIHYDRO-5,8-ENDOMETHYLENE-2-METHYL-1,4-NAPHTHOHYDROQUINONE
Formula: C12 H12 O2
CAS: 14944-13-9
State: SOLID (KBr PRESSING)
Melting point: 168-169 C
Class: COBLENTZ
Instrument: Not specified, most likely a prism, grating, or hybrid spectrometer.
Sampling: TRANSMISSION
Resolution: 4
Origin: EASTMAN KODAK COMPANY, RESEARCH LABORATORIES, ROCHESTER, N.Y.
MICROMETERS	TRANSMITTANCE
2	0.651
2.03996	0.648
2.07993	0.64
2.11989	0.638
2.15985	0.645
2.19981	0.648
2.23978	0.645
2.27974	0.65
2.3197	0.651
2.35967	0.655
2.39963	0.66
2.43959	0.666
2.47955	0.669
2.51952	0.669
2.55948	0.678
2.59944	0.683
2.6394	0.691
2.67937	0.704
2.71933	0.714
2.75929	0.688
2.79926	0.623
2.83922	0.514
2.87918	0.364
2.91914	0.204
2.95911	0.118
2.99907	0.075
3.03903	0.059
3.079	0.059
3.11896	0.069
3.15892	0.105
3.19888	0.16
3.23885	0.229
3.27881	0.255
3.31877	0.323
3.35874	0.265
3.3987	0.298
3.43866	0.399
3.47862	0.44
3.51859	0.49
3.55855	0.533
3.59851	0.541
3.63847	0.552
3.67844	0.569
3.7184	0.589
3.75836	0.587
3.79833	0.592
3.83829	0.595
3.87825	0.612
3.91821	0.632
3.95818	0.643
3.99814	0.656
4.0381	0.683
4.07807	0.701
4.11803	0.712
4.15799	0.732
4.19795	0.742
4.23792	0.74
4.27788	0.742
4.31784	0.764
4.35781	0.778
4.39777	0.785
4.43773	0.79
4.47769	0.8
4.51766	0.8
4.55762	0.8
4.59758	0.801
4.63754	0.808
4.67751	0.805
4.71747	0.8
4.75743	0.8
4.7974	0.811
4.83736	0.813
4.87732	0.82
4.91728	0.818
4.95725	0.825
4.99721	0.83
5.03717	0.831
5.07714	0.831
5.1171	0.841
5.15706	0.858
5.19702	0.858
5.23699	0.869
5.27695	0.872
5.31691	0.877
5.35687	0.871
5.39684	0.894
5.4368	0.899
5.47676	0.894
5.51673	0.896
5.55669	0.896
5.59665	0.887
5.63661	0.839
5.67658	0.839
5.71654	0.849
5.7565	0.848
5.79647	0.838
5.83643	0.811
5.87639	0.79
5.91635	0.79
5.95632	0.839
5.99628	0.839
6.03624	0.818
6.07621	0.531
6.11617	0.612
6.15613	0.707
6.19609	0.737
6.23606	0.739
6.27602	0.818
6.31598	0.856
6.35594	0.843
6.39591	0.709
6.43587	0.801
6.47583	0.806
6.5158	0.803
6.55576	0.78
6.59572	0.735
6.63568	0.496
6.67565	0.275
6.71561	0.255
6.75557	0.29
6.79554	0.318
6.8355	0.128
6.87546	0.11
6.91542	0.11
6.95539	0.092
6.99535	0.039
7.03531	0.033
7.07528	0.16
7.11524	0.348
7.1552	0.45
7.19516	0.493
7.23513	0.42
7.27509	0.47
7.31505	0.566
7.35501	0.561
7.39498	0.526
7.43494	0.503
7.4749	0.468
7.51487	0.457
7.55483	0.371
7.59479	0.244
7.63475	0.133
7.67472	0.09
7.71468	0.079
7.75464	0.278
7.79461	0.386
7.83457	0.447
7.87453	0.419
7.91449	0.349
7.95446	0.209
7.99442	0.09
8.03438	0.242
8.07435	0.135
8.11431	0.272
8.15427	0.201
8.19423	0.169
8.2342	0.052
8.27416	0.024
8.31412	0.028
8.35408	0.031
8.39405	0.11
8.43401	0.171
8.47397	0.051
8.51394	0.037
8.5539	0.09
8.59386	0.186
8.63382	0.288
8.67379	0.361
8.71375	0.409
8.75371	0.338
8.79368	0.344
8.83364	0.48
8.8736	0.552
8.91356	0.551
8.95353	0.45
8.99349	0.409
9.03345	0.59
9.07342	0.615
9.11338	0.217
9.15334	0.414
9.1933	0.58
9.23327	0.66
9.27323	0.683
9.31319	0.673
9.35315	0.462
9.39312	0.47
9.43308	0.62
9.47304	0.699
9.51301	0.729
9.55297	0.739
9.59293	0.719
9.63289	0.671
9.67286	0.699
9.71282	0.719
9.75278	0.63
9.79275	0.384
9.83271	0.31
9.87267	0.415
9.91263	0.331
9.9526	0.46
9.99256	0.608
10.0325	0.678
10.0725	0.701
10.1124	0.731
10.1524	0.75
10.1924	0.764
10.2323	0.773
10.2723	0.785
10.3123	0.79
10.3522	0.773
10.3922	0.683
10.4322	0.361
10.4721	0.351
10.5121	0.539
10.552	0.674
10.592	0.646
10.632	0.709
10.6719	0.702
10.7119	0.566
10.7519	0.739
10.7918	0.839
10.8318	0.867
10.8717	0.874
10.9117	0.863
10.9517	0.81
10.9916	0.689
11.0316	0.74
11.0716	0.818
11.1115	0.788
11.1515	0.57
11.1914	0.476
11.2314	0.63
11.2714	0.772
11.3113	0.762
11.3513	0.711
11.3913	0.706
11.4312	0.805
11.4712	0.838
11.5111	0.838
11.5511	0.788
11.5911	0.745
11.631	0.783
11.671	0.76
11.711	0.648
11.7509	0.41
11.7909	0.358
11.8308	0.552
11.8708	0.722
11.9108	0.78
11.9507	0.813
11.9907	0.828
12.0307	0.833
12.0706	0.834
12.1106	0.83
12.1506	0.821
12.1905	0.801
12.2305	0.759
12.2704	0.62
12.3104	0.311
12.3504	0.239
12.3903	0.338
12.4303	0.196
12.4703	0.15
12.5102	0.31
12.5502	0.519
12.5901	0.607
12.6301	0.668
12.6701	0.689
12.71	0.707
12.75	0.712
12.79	0.716
12.8299	0.719
12.8699	0.717
12.9098	0.716
12.9498	0.721
12.9898	0.721
13.0297	0.714
13.0697	0.712
13.1097	0.712
13.1496	0.712
13.1896	0.716
13.2295	0.719
13.2695	0.721
13.3095	0.721
13.3494	0.721
13.3894	0.707
13.4294	0.65
13.4693	0.509
13.5093	0.344
13.5492	0.231
13.5892	0.108
13.6292	0.059
13.6691	0.07
13.7091	0.136
13.7491	0.231
13.789	0.325
13.829	0.399
13.869	0.455
13.9089	0.48
13.9489	0.501
13.9888	0.524
14.0288	0.537
14.0688	0.549
14.1087	0.554
14.1487	0.551
14.1887	0.549
14.2286	0.542
14.2686	0.537
14.3085	0.529
14.3485	0.531
14.3885	0.533
14.4284	0.504
14.4684	0.45
14.5084	0.4
14.5483	0.377
14.5883	0.381
14.6282	0.409
14.6682	0.442
14.7082	0.468
14.7481	0.498
14.7881	0.526
14.8281	0.559
14.868	0.572
14.908	0.577
14.9479	0.579
14.9879	0.599
15.0279	0.607
15.0678	0.597
15.1078	0.577
15.1478	0.551
15.1877	0.544
15.2277	0.539
15.2676	0.541
15.3076	0.541
15.3476	0.542
15.3875	0.533
15.4275	0.528
15.4675	0.526
15.5074	0.524
15.5474	0.531
15.5874	0.537
15.6273	0.542
15.6673	0.544
15.7072	0.551
15.7472	0.554
15.7872	0.557
15.8271	0.561
15.8671	0.562
15.9071	0.566
15.947	0.567
15.987	0.567
