Infrared Spectrum: 1-(4-Bromophenyl)ethyl isocyanate
Formula: C 9 H 8 Br N O
CAS: 149552-52-3
State: gas
Origin: EPA-IR VAPOR PHASE LIBRARY
1/CM	ABSORBANCE
549.8	0.006505
559.445	0.005505
569.09	0.005545
578.734	0.006245
588.379	0.008355
598.024	0.011245
607.669	0.013475
617.313	0.012495
626.958	0.010245
636.603	0.009025
646.248	0.007955
655.893	0.007155
665.537	0.006535
675.182	0.004955
684.827	0.004295
694.472	0.003595
704.116	0.004135
713.761	0.004915
723.406	0.005735
733.051	0.005135
742.695	0.005215
752.34	0.007185
761.985	0.011155
771.63	0.009725
781.275	0.006985
790.919	0.008195
800.564	0.011315
810.209	0.019475
819.854	0.030775
829.498	0.028475
839.143	0.018805
848.788	0.009885
858.433	0.004825
868.078	0.003615
877.722	0.002575
887.367	0.001775
897.012	0.0012772
906.657	0.002195
916.301	0.001715
925.946	0.002185
935.591	0.0015742
945.236	0.002145
954.88	0.001715
964.525	0.002825
974.17	0.004605
983.815	0.008055
993.46	0.010395
1003.1	0.019535
1012.75	0.041765
1022.39	0.007995
1032.04	0.004585
1041.68	0.006765
1051.33	0.013305
1060.97	0.024125
1070.62	0.034945
1080.26	0.048705
1089.91	0.016765
1099.55	0.007285
1109.2	0.004915
1118.84	0.003545
1128.49	0.003255
1138.13	0.002095
1147.78	0.002875
1157.42	0.003055
1167.07	0.002675
1176.71	0.003935
1186.36	0.005615
1196	0.006055
1205.64	0.004955
1215.29	0.005935
1224.93	0.006355
1234.58	0.005345
1244.22	0.005095
1253.87	0.006395
1263.51	0.007575
1273.16	0.006575
1282.8	0.008145
1292.45	0.015875
1302.09	0.016715
1311.74	0.020195
1321.38	0.025485
1331.03	0.022415
1340.67	0.015015
1350.32	0.010995
1359.96	0.008375
1369.61	0.008055
1379.25	0.011055
1388.9	0.012755
1398.54	0.014655
1408.18	0.014475
1417.83	0.010905
1427.47	0.009265
1437.12	0.008365
1446.76	0.007945
1456.41	0.009195
1466.05	0.009525
1475.7	0.011705
1485.34	0.032055
1494.99	0.035445
1504.63	0.006995
1514.28	0.002835
1523.92	0.002165
1533.57	0.001965
1543.21	0.002255
1552.86	0.002145
1562.5	0.002305
1572.15	0.003625
1581.79	0.004755
1591.44	0.007765
1601.08	0.006445
1610.73	0.002425
1620.37	0.002215
1630.01	0.002435
1639.66	0.002945
1649.3	0.002765
1658.95	0.002015
1668.59	0.001601
1678.24	0.0013464
1687.88	0.0011999
1697.53	0.0011366
1707.17	0.0013615
1716.82	0.0012188
1726.46	0.0011819
1736.11	0.0011761
1745.75	0.0014321
1755.4	0.001845
1765.04	0.001885
1774.69	0.002445
1784.33	0.0016073
1793.98	0.0012373
1803.62	0.0011301
1813.27	0.0010995
1822.91	0.001094
1832.55	0.0010235
1842.2	0.0010428
1851.84	0.0013631
1861.49	0.0014101
1871.13	0.001795
1880.78	0.002295
1890.42	0.002845
1900.07	0.002475
1909.71	0.001795
1919.36	0.001445
1929	0.0013983
1938.65	0.0011451
1948.29	0.0010764
1957.94	0.0011822
1967.58	0.001065
1977.23	0.0012408
1986.87	0.0011372
1996.52	0.0012976
2006.16	0.0012918
2015.81	0.001379
2025.45	0.001429
2035.1	0.001695
2044.74	0.001885
2054.38	0.002205
2064.03	0.002695
2073.67	0.003115
2083.32	0.003675
2092.96	0.004545
2102.61	0.005205
2112.25	0.005685
2121.9	0.006035
2131.54	0.006735
2141.19	0.008155
2150.83	0.010155
2160.48	0.013155
2170.12	0.017445
2179.77	0.023565
2189.41	0.030995
2199.06	0.040795
2208.7	0.054445
2218.35	0.076495
2227.99	0.115165
2237.64	0.176765
2247.28	0.260335
2256.92	0.337835
2266.57	0.364075
2276.21	0.329155
2285.86	0.235805
2295.5	0.133825
2305.15	0.071895
2314.79	0.042665
2324.44	0.027955
2334.08	0.020095
2343.73	0.016075
2353.37	0.014565
2363.02	0.014305
2372.66	0.014825
2382.31	0.014605
2391.95	0.012865
2401.6	0.010205
2411.24	0.007615
2420.89	0.005725
2430.53	0.004175
2440.18	0.003245
2449.82	0.002995
2459.47	0.002705
2469.11	0.002385
2478.75	0.002175
2488.4	0.002045
2498.04	0.001915
2507.69	0.0015827
2517.33	0.0014005
2526.98	0.001494
2536.62	0.0014728
2546.27	0.0012361
2555.91	0.000888
2565.56	0.0013438
2575.2	0.0012958
2584.85	0.0013033
2594.49	0.0010015
2604.14	0.0014364
2613.78	0.001401
2623.43	0.001426
2633.07	0.0010657
2642.72	0.0008504
2652.36	0.0011837
2662.01	0.0011293
2671.65	0.0008355
2681.29	0.0009864
2690.94	0.00075236
2700.58	0.0008023
2710.23	0.0007801
2719.87	0.0009822
2729.52	0.0007978
2739.16	0.0012469
2748.81	0.0008638
2758.45	0.0012622
2768.1	0.0009126
2777.74	0.0009046
2787.39	0.0008737
2797.03	0.000911
2806.68	0.0007894
2816.32	0.000966
2825.97	0.0010397
2835.61	0.0011908
2845.26	0.0013781
2854.9	0.001685
2864.55	0.001825
2874.19	0.003135
2883.84	0.003985
2893.48	0.004515
2903.12	0.005625
2912.77	0.007895
2922.41	0.009065
2932.06	0.009295
2941.7	0.010565
2951.35	0.006315
2960.99	0.004175
2970.64	0.006355
2980.28	0.018005
2989.93	0.033835
2999.57	0.012505
3009.22	0.004765
3018.86	0.004245
3028.51	0.005795
3038.15	0.005315
3047.8	0.004915
3057.44	0.004595
3067.09	0.003895
3076.73	0.004165
3086.38	0.004725
3096.02	0.005895
3105.67	0.004045
3115.31	0.003055
3124.95	0.001825
3134.6	0.0014678
3144.24	0.0014022
3153.89	0.0007678
3163.53	0.000668798
3173.18	0.0008529
3182.82	0.0010125
3192.47	0.0008545
3202.11	0.00076068
3211.76	0.0006099
3221.4	0.00055
3231.05	0.0010058
3240.69	0.0007027
3250.34	0.0012185
3259.98	0.0013119
3269.63	0.0012135
3279.27	0.0007137
3288.92	0.0006513
3298.56	0.000562
3308.21	0.00076443
3317.85	0.00071704
3327.49	0.0007698
3337.14	0.0012363
3346.78	0.0008243
3356.43	0.0010574
3366.07	0.000325
3375.72	0.00068568
3385.36	0.0007448
3395.01	0.0006354
3404.65	0.00044
3414.3	0.0008578
3423.94	1.2e-05
3433.59	0
3443.23	0.0013244
3452.88	0.0011978
3462.52	0.00049
3472.17	0.0010028
3481.81	0.00071651
3491.46	0.00076305
3501.1	0.0010795
3510.75	0.00133
3520.39	0.0005804
3530.04	0.0015296
3539.68	0.0015317
3549.32	0.0011894
3558.97	0.0010608
3568.61	0.001675
3578.26	0.001865
3587.9	0.001289
3597.55	0.001815
3607.19	0.002165
3616.84	0.0016057
3626.48	0.002535
3636.13	0.002685
3645.77	0.003015
3655.42	0.003315
3665.06	0.003675
3674.71	0.003705
3684.35	0.003665
3694	0.003425
3703.64	0.002935
3713.29	0.003185
3722.93	0.002305
3732.58	0.001745
3742.22	0.0014246
3751.86	0.001725
3761.51	0.0010753
3771.15	0.0006348
3780.8	0.0011741
3790.44	0.0008055
3800.09	0.00075135
3809.73	0.0008875
3819.38	0.001049
3829.02	0.0011162
3838.67	0.0008409
3848.31	0.0010326
3857.96	0.0006376
3867.6	0.0008814
3877.25	0.0007791
3886.89	0.000128
3896.54	0.000964
3906.18	0.0009989
3915.83	0.0011935
3925.47	0.000136
3935.12	0.000506
3944.76	0.0008409
3954.41	0.000418
3964.05	0.000437
3973.69	0.0009843
3983.34	0.00065979
3992.98	0.0005722
