Infrared Spectrum: 3-Fluoro-5-(trifluoromethyl)benzonitrile
Formula: C 8 H 3 F 4 N
CAS: 149793-69-1
State: gas
Origin: EPA-IR VAPOR PHASE LIBRARY
1/CM	ABSORBANCE
549.8	0.003
559.445	0.0020087
569.09	0.0014524
578.734	0.00091
588.379	0.000196
598.024	0.0015086
607.669	0.0018026
617.313	0.00244
626.958	0.00391
636.603	0.00651
646.248	0.00585
655.893	0.00279
665.537	0.00245
675.182	0.00547
684.827	0.01911
694.472	0.03299
704.116	0.04108
713.761	0.05617
723.406	0.01086
733.051	0.00374
742.695	0.00322
752.34	0.00247
761.985	0.0015555
771.63	0.0017433
781.275	0.0020581
790.919	0.00352
800.564	0.00363
810.209	0.00221
819.854	0.0016858
829.498	0.00237
839.143	0.00354
848.788	0.00454
858.433	0.00698
868.078	0.03121
877.722	0.0839
887.367	0.09122
897.012	0.03597
906.657	0.00881
916.301	0.00542
925.946	0.00531
935.591	0.00476
945.236	0.00975
954.88	0.04192
964.525	0.08241
974.17	0.05214
983.815	0.01554
993.46	0.01702
1003.1	0.01254
1012.75	0.00454
1022.39	0.00335
1032.04	0.00378
1041.68	0.00483
1051.33	0.0043
1060.97	0.005
1070.62	0.00695
1080.26	0.01335
1089.91	0.04539
1099.55	0.0524
1109.2	0.01605
1118.84	0.01377
1128.49	0.02799
1138.13	0.06364
1147.78	0.16543
1157.42	0.36561
1167.07	0.2787
1176.71	0.19845
1186.36	0.29104
1196	0.14788
1205.64	0.05316
1215.29	0.0468
1224.93	0.09029
1234.58	0.19329
1244.22	0.13713
1253.87	0.04543
1263.51	0.0157
1273.16	0.01034
1282.8	0.01255
1292.45	0.01554
1302.09	0.01755
1311.74	0.01839
1321.38	0.02332
1331.03	0.06075
1340.67	0.18502
1350.32	0.41057
1359.96	0.27761
1369.61	0.04064
1379.25	0.0147
1388.9	0.01023
1398.54	0.00889
1408.18	0.0113
1417.83	0.02687
1427.47	0.05009
1437.12	0.06656
1446.76	0.07443
1456.41	0.07738
1466.05	0.04935
1475.7	0.01974
1485.34	0.01399
1494.99	0.01233
1504.63	0.007
1514.28	0.00511
1523.92	0.00579
1533.57	0.00566
1543.21	0.00514
1552.86	0.005
1562.5	0.0062
1572.15	0.01125
1581.79	0.02553
1591.44	0.0445
1601.08	0.06065
1610.73	0.0499
1620.37	0.0252
1630.01	0.01409
1639.66	0.00665
1649.3	0.00476
1658.95	0.00534
1668.59	0.00478
1678.24	0.00287
1687.88	0.00216
1697.53	0.0023
1707.17	0.0020715
1716.82	0.0018703
1726.46	0.001641
1736.11	0.0018504
1745.75	0.00218
1755.4	0.00367
1765.04	0.008
1774.69	0.01109
1784.33	0.00875
1793.98	0.00594
1803.62	0.00361
1813.27	0.00217
1822.91	0.0015956
1832.55	0.0014929
1842.2	0.0015778
1851.84	0.0018495
1861.49	0.0018954
1871.13	0.0017357
1880.78	0.0017338
1890.42	0.001537
1900.07	0.0014231
1909.71	0.00118136
1919.36	0.0012127
1929	0.0012605
1938.65	0.0010733
1948.29	0.0012839
1957.94	0.0013847
1967.58	0.0012555
1977.23	0.0012275
1986.87	0.0012222
1996.52	0.000966
2006.16	0.0013062
2015.81	0.0015537
2025.45	0.0015219
2035.1	0.0017039
2044.74	0.0018135
2054.38	0.0019662
2064.03	0.0020803
2073.67	0.0014932
2083.32	0.0015511
2092.96	0.0017
2102.61	0.00217
2112.25	0.0020539
2121.9	0.0017759
2131.54	0.001416
2141.19	0.0010665
2150.83	0.00109297
2160.48	0.0013498
2170.12	0.00116674
2179.77	0.001471
2189.41	0.0018032
2199.06	0.00228
2208.7	0.0019463
2218.35	0.0019401
2227.99	0.002087
2237.64	0.00315
2247.28	0.00313
2256.92	0.0018319
2266.57	0.0018922
2276.21	0.00219
2285.86	0.0018411
2295.5	0.00227
2305.15	0.00247
2314.79	0.00247
2324.44	0.00228
2334.08	0.00214
2343.73	0.00222
2353.37	0.0018953
2363.02	0.0018828
2372.66	0.0020622
2382.31	0.00214
2391.95	0.0018015
2401.6	0.0019555
2411.24	0.0018871
2420.89	0.0019272
2430.53	0.0015291
2440.18	0.0013604
2449.82	0.0015641
2459.47	0.0012662
2469.11	0.0016456
2478.75	0.0019286
2488.4	0.0020604
2498.04	0.0017061
2507.69	0.0013508
2517.33	0.0014197
2526.98	0.00116347
2536.62	0.0015851
2546.27	0.0017799
2555.91	0.0018297
2565.56	0.001718
2575.2	0.00217
2584.85	0.0019915
2594.49	0.0017443
2604.14	0.00116634
2613.78	0.000967
2623.43	0.001256
2633.07	0.0012255
2642.72	0.0013409
2652.36	0.0013195
2662.01	0.0013824
2671.65	0.000998
2681.29	0.001316
2690.94	0.00155
2700.58	0.0017965
2710.23	0.0015866
2719.87	0.000781
2729.52	0.000979
2739.16	0.0009911
2748.81	0.000946
2758.45	0.000705
2768.1	0.000947
2777.74	0.000916
2787.39	0.000398
2797.03	0.000808
2806.68	0.000906
2816.32	0.000811
2825.97	0.0010099
2835.61	0.00108098
2845.26	0.0015452
2854.9	0.000817
2864.55	0.0010538
2874.19	0.000777
2883.84	0.0010174
2893.48	0.0012618
2903.12	0.00110272
2912.77	0.0013106
2922.41	0.0012256
2932.06	0.00112751
2941.7	0.00110729
2951.35	0.00109109
2960.99	0.0011969
2970.64	0.00111888
2980.28	0.000757
2989.93	0.0010261
2999.57	0.000746
3009.22	0.0012796
3018.86	0.000507
3028.51	0.000912
3038.15	0.00091
3047.8	0.0013012
3057.44	0.0017063
3067.09	0.0017153
3076.73	0.00239
3086.38	0.00449
3096.02	0.0065
3105.67	0.00378
3115.31	0.0016816
3124.95	0.000609
3134.6	0.000888
3144.24	0.000887
3153.89	0.000223
3163.53	0.000767
3173.18	0.000781
3182.82	0.0010126
3192.47	0.000832
3202.11	0.0010581
3211.76	0.000963
3221.4	0.000972
3231.05	0.000551
3240.69	0.0010768
3250.34	0.000833
3259.98	0.000895
3269.63	0.0013148
3279.27	0.000729
3288.92	0.000488
3298.56	0.0010428
3308.21	0.000564
3317.85	0.00110397
3327.49	0.00083
3337.14	0.000322
3346.78	0.0007
3356.43	0.000785
3366.07	0.000338
3375.72	0.000413
3385.36	0.000767
3395.01	0.0010677
3404.65	0.000649
3414.3	0.0009932
3423.94	0.000715
3433.59	0.00073
3443.23	0.000797
3452.88	0.000651
3462.52	0.00116446
3472.17	0.0012674
3481.81	0.0010143
3491.46	0.000642
3501.1	0.000208
3510.75	0.00092
3520.39	0.001311
3530.04	0.000375
3539.68	0.000609
3549.32	0.000818
3558.97	0.0010692
3568.61	0.000987
3578.26	0.00117329
3587.9	0.000707
3597.55	0.000964
3607.19	0.000927
3616.84	0.000317
3626.48	0.00109042
3636.13	0.000696
3645.77	0.000773
3655.42	0.000974
3665.06	0.000263
3674.71	0.001016
3684.35	0.000218
3694	0.0010077
3703.64	0.000366
3713.29	0.000513
3722.93	0.00041
3732.58	0.00095
3742.22	0.000727
3751.86	0.00116356
3761.51	0.000556
3771.15	0.000768
3780.8	0.000735
3790.44	0.000427
3800.09	0.000709
3809.73	0.000468
3819.38	0.0010872
3829.02	0.000674
3838.67	0.0014113
3848.31	0.000823
3857.96	0.00114103
3867.6	0.000813
3877.25	0.00018
3886.89	0.000204
3896.54	0
3906.18	0.000656
3915.83	0.000774
3925.47	0.000663
3935.12	0.000554
3944.76	0.000689
3954.41	0.000651
3964.05	0.000524
3973.69	0.000709
3983.34	0.00110841
3992.98	0.000155
