Infrared Spectrum: 4,4'-Diphenoxybenzophenone
Formula: C 25 H 18 O 3
CAS: 14984-21-5
State: gas
Origin: EPA-IR VAPOR PHASE LIBRARY
1/CM	ABSORBANCE
549.8	0.000557
559.445	0.000619
569.09	0.00077874
578.734	0.00075808
588.379	0.0014141
598.024	0.0009546
607.669	0.0009066
617.313	0.0008882
626.958	0.00088
636.603	0.0010397
646.248	0.0008962
655.893	0.0009603
665.537	0.0009082
675.182	0.0014614
684.827	0.00233
694.472	0.0028
704.116	0.0015477
713.761	0.0010769
723.406	0.0012152
733.051	0.0013162
742.695	0.00261
752.34	0.00315
761.985	0.00242
771.63	0.0016459
781.275	0.0013816
790.919	0.0014005
800.564	0.0012977
810.209	0.0009749
819.854	0.0015324
829.498	0.0011655
839.143	0.0015846
848.788	0.00213
858.433	0.00262
868.078	0.00398
877.722	0.002
887.367	0.0012712
897.012	0.0013096
906.657	0.0014599
916.301	0.00217
925.946	0.00547
935.591	0.00242
945.236	0.0016552
954.88	0.00136
964.525	0.0011603
974.17	0.000945
983.815	0.0006911
993.46	0.0008834
1003.1	0.0008459
1012.75	0.0012134
1022.39	0.0011524
1032.04	0.000408
1041.68	0.000256
1051.33	0.000532
1060.97	0.0009305
1070.62	0.0011249
1080.26	0.000545
1089.91	0.000105
1099.55	0.000362
1109.2	0.0013918
1118.84	0.0007251
1128.49	0.0013025
1138.13	0.0014093
1147.78	0.00201
1157.42	0.00696
1167.07	0.00659
1176.71	0.00237
1186.36	0.00227
1196	0.00303
1205.64	0.00295
1215.29	0.00503
1224.93	0.0117
1234.58	0.02581
1244.22	0.03106
1253.87	0.01375
1263.51	0.00868
1273.16	0.00785
1282.8	0.00565
1292.45	0.00465
1302.09	0.00445
1311.74	0.00353
1321.38	0.00258
1331.03	0.00186
1340.67	0.0015572
1350.32	0.0014415
1359.96	0.001315
1369.61	0.0011644
1379.25	0.0011749
1388.9	0.0011987
1398.54	0.0014001
1408.18	0.00194
1417.83	0.00179
1427.47	0.001425
1437.12	0.0014216
1446.76	0.0016441
1456.41	0.0021
1466.05	0.00254
1475.7	0.00364
1485.34	0.01107
1494.99	0.0112
1504.63	0.00593
1514.28	0.00261
1523.92	0.00182
1533.57	0.0016919
1543.21	0.001637
1552.86	0.00188
1562.5	0.00267
1572.15	0.00492
1581.79	0.01077
1591.44	0.01183
1601.08	0.00631
1610.73	0.00384
1620.37	0.00196
1630.01	0.0015928
1639.66	0.001392
1649.3	0.0016304
1658.95	0.00213
1668.59	0.00401
1678.24	0.00539
1687.88	0.00254
1697.53	0.0015294
1707.17	0.0012423
1716.82	0.0010565
1726.46	0.0010324
1736.11	0.001002
1745.75	0.0009442
1755.4	0.0008872
1765.04	0.0009419
1774.69	0.0010914
1784.33	0.001015
1793.98	0.0009592
1803.62	0.0008591
1813.27	0.0008461
1822.91	0.00082477
1832.55	0.00079748
1842.2	0.000887
1851.84	0.0009634
1861.49	0.0009278
1871.13	0.0009074
1880.78	0.0009112
1890.42	0.0009645
1900.07	0.0009747
1909.71	0.0009615
1919.36	0.0010366
1929	0.0010419
1938.65	0.0010467
1948.29	0.0009626
1957.94	0.0009541
1967.58	0.000885
1977.23	0.0009218
1986.87	0.0009307
1996.52	0.0009733
2006.16	0.0009659
2015.81	0.000974
2025.45	0.001108
2035.1	0.0010853
2044.74	0.0010416
2054.38	0.0009325
2064.03	0.001017
2073.67	0.0009256
2083.32	0.00081772
2092.96	0.00082825
2102.61	0.0008782
2112.25	0.0008705
2121.9	0.0008539
2131.54	0.00081608
2141.19	0.00078787
2150.83	0.00082028
2160.48	0.00080949
2170.12	0.0009671
2179.77	0.0008678
2189.41	0.0008543
2199.06	0.0008597
2208.7	0.00081705
2218.35	0.0009078
2227.99	0.00081443
2237.64	0.00083954
2247.28	0.0008745
2256.92	0.0008414
2266.57	0.0008958
2276.21	0.000927
2285.86	0.0008942
2295.5	0.0008717
2305.15	0.0008859
2314.79	0.0009018
2324.44	0.0009285
2334.08	0.0009534
2343.73	0.0009651
2353.37	0.0009082
2363.02	0.0010279
2372.66	0.0009853
2382.31	0.0010102
2391.95	0.0010554
2401.6	0.0010577
2411.24	0.00104
2420.89	0.0010715
2430.53	0.001066
2440.18	0.0011441
2449.82	0.001037
2459.47	0.000938
2469.11	0.0009451
2478.75	0.0009918
2488.4	0.0009768
2498.04	0.0009471
2507.69	0.0010217
2517.33	0.00083917
2526.98	0.0009113
2536.62	0.0009934
2546.27	0.000896
2555.91	0.0009891
2565.56	0.0009993
2575.2	0.0009283
2584.85	0.0010364
2594.49	0.0008495
2604.14	0.0009296
2613.78	0.0008818
2623.43	0.00083698
2633.07	0.0008821
2642.72	0.0009874
2652.36	0.0009279
2662.01	0.0009129
2671.65	0.000881
2681.29	0.0009223
2690.94	0.0008924
2700.58	0.0009676
2710.23	0.0009011
2719.87	0.0009433
2729.52	0.0008618
2739.16	0.0009462
2748.81	0.0009976
2758.45	0.0010484
2768.1	0.0009807
2777.74	0.000939
2787.39	0.0009354
2797.03	0.0009306
2806.68	0.0009009
2816.32	0.0009362
2825.97	0.0008947
2835.61	0.0009398
2845.26	0.0009439
2854.9	0.0010268
2864.55	0.00079255
2874.19	0.000953
2883.84	0.0009157
2893.48	0.0009677
2903.12	0.0009328
2912.77	0.0007852
2922.41	0.0008823
2932.06	0.0008643
2941.7	0.0008773
2951.35	0.0009661
2960.99	0.0008953
2970.64	0.0008676
2980.28	0.0008804
2989.93	0.0009132
2999.57	0.0010424
3009.22	0.0011128
3018.86	0.0011728
3028.51	0.0013357
3038.15	0.00186
3047.8	0.00199
3057.44	0.0016985
3067.09	0.00183
3076.73	0.00231
3086.38	0.00203
3096.02	0.00177
3105.67	0.0014362
3115.31	0.0010966
3124.95	0.0009119
3134.6	0.0009265
3144.24	0.00079691
3153.89	0.0009473
3163.53	0.00080143
3173.18	0.00071
3182.82	0.0008988
3192.47	0.00075364
3202.11	0.00082866
3211.76	0.00080581
3221.4	0.000893
3231.05	0.0008753
3240.69	0.0008524
3250.34	0.00077609
3259.98	0.0008729
3269.63	0.0009119
3279.27	0.0008548
3288.92	0.00079319
3298.56	0.000936
3308.21	0.00077681
3317.85	0.00079978
3327.49	0.00080726
3337.14	0.00082863
3346.78	0.000905
3356.43	0.00082193
3366.07	0.0009962
3375.72	0.0008852
3385.36	0.00076696
3395.01	0.00077378
3404.65	0.0008726
3414.3	0.00077645
3423.94	0.00078322
3433.59	0.0008741
3443.23	0.000978
3452.88	0.0009345
3462.52	0.000743791
3472.17	0.0009238
3481.81	0.00078389
3491.46	0.0008865
3501.1	0.0008582
3510.75	0.0008578
3520.39	0.0006834
3530.04	0.0009259
3539.68	0.000741067
3549.32	0.00077404
3558.97	0.00078979
3568.61	0.000722
3578.26	0.000740128
3587.9	0.00077355
3597.55	0.0006486
3607.19	0.0007298
3616.84	0.00083299
3626.48	0.0006479
3636.13	0.0008781
3645.77	0.0006998
3655.42	0.00073497
3665.06	0.0006629
3674.71	0.0007126
3684.35	0.0008753
3694	0.00073872
3703.64	0.000742013
3713.29	0.000743192
3722.93	0.00079076
3732.58	0.0007137
3742.22	0.0007654
3751.86	0.00079015
3761.51	0.0007745
3771.15	0.0006833
3780.8	0.00080741
3790.44	0.00083487
3800.09	0.000593
3809.73	0.0006998
3819.38	0.0006404
3829.02	0.00081018
3838.67	0.00079767
3848.31	0.00083987
3857.96	0.0008501
3867.6	0.0008717
3877.25	0.0008447
3886.89	0.0009409
3896.54	0.0008751
3906.18	0.000606
3915.83	0.000626
3925.47	0.00083254
3935.12	0.00073452
3944.76	0.0007282
3954.41	0.0008424
3964.05	0.00077609
3973.69	0.00078889
3983.34	0.0009002
3992.98	0.00078856
