Infrared Spectrum: 4-n-Butoxybenzoic acid
Formula: C 11 H 14 O 3
CAS: 1498-96-0
State: gas
Instrument: HP-GC/MS/IRD
Origin: NIST Mass Spectrometry Data Center
1/CM	ABSORBANCE
550	0.000828
562	0.001629
574	0.001806
586	0.001635
598	0.002031
610	0.003249
622	0.002766
634	0.001029
646	0.000312
658	6.3e-05
670	0.000141
682	0.000684
694	0.001599
706	0.001638
718	0.000945
730	0.000399
742	0.000501
754	0.00102
766	0.002544
778	0.002268
790	0.000879
802	0.000549
814	0.000483
826	0.000471
838	0.001185
850	0.001719
862	0.000969
874	0.000639
886	0.000372
898	0.000216
910	0.00012
922	0.000129
934	0.000204
946	0.000393
958	0.001005
970	0.001611
982	0.001554
994	0.001587
1006	0.002922
1018	0.003525
1030	0.003513
1042	0.002706
1054	0.00366
1066	0.008466
1078	0.01419
1090	0.007065
1102	0.002631
1114	0.001998
1126	0.001965
1138	0.0027
1150	0.005985
1162	0.021735
1174	0.01005
1186	0.007299
1198	0.004389
1210	0.003654
1222	0.005898
1234	0.009087
1246	0.01599
1258	0.015243
1270	0.006828
1282	0.003921
1294	0.004965
1306	0.005373
1318	0.004983
1330	0.00549
1342	0.003507
1354	0.004683
1366	0.006663
1378	0.002652
1390	0.001764
1402	0.001116
1414	0.001572
1426	0.00135
1438	0.000876
1450	0.000993
1462	0.001494
1474	0.002373
1486	0.001641
1498	0.003102
1510	0.007407
1522	0.00273
1534	0.000963
1546	0.000855
1558	0.001161
1570	0.002214
1582	0.00348
1594	0.006303
1606	0.012747
1618	0.005832
1630	0.001638
1642	0.000687
1654	0.000447
1666	0.000444
1678	0.000555
1690	0.000726
1702	0.000888
1714	0.001407
1726	0.002139
1738	0.005754
1750	0.022653
1762	0.022908
1774	0.005589
1786	0.002262
1798	0.001161
1810	0.000801
1822	0.00057
1834	0.000249
1846	9.6e-05
1858	3.9e-05
1870	1.8e-05
1882	0.000102
1894	0.000168
1906	0.000264
1918	0.000234
1930	0.000165
1942	9.9e-05
1954	0.000135
1966	0.000165
1978	0.000108
1990	5.7e-05
2002	4.2e-05
2014	0.000117
2026	0.000132
2038	8.7e-05
2050	0.000132
2062	4.8e-05
2074	6e-05
2086	6e-05
2098	1.5e-05
2110	4.5e-05
2122	3e-05
2134	7.8e-05
2146	7.5e-05
2158	6e-05
2170	2.4e-05
2182	2.1e-05
2194	9e-06
2206	4.2e-05
2218	4.8e-05
2230	3.9e-05
2242	3.9e-05
2254	6e-06
2266	6e-05
2278	3.6e-05
2290	3.9e-05
2302	7.8e-05
2314	0.000108
2326	0.000141
2338	0.000114
2350	0.000135
2362	0.000192
2374	0.000201
2386	0.000111
2398	0.000129
2410	0.000138
2422	0.000147
2434	0.000114
2446	0.000132
2458	8.4e-05
2470	9.9e-05
2482	0.000114
2494	0.000141
2506	0.000177
2518	0.000138
2530	0.00012
2542	0.000168
2554	0.000192
2566	0.000231
2578	0.000207
2590	0.000174
2602	0.000168
2614	0.000111
2626	0.00015
2638	8.4e-05
2650	6.9e-05
2662	5.1e-05
2674	0.000105
2686	0.000102
2698	0.000138
2710	9.6e-05
2722	0.000165
2734	0.000168
2746	0.000222
2758	0.000261
2770	0.000267
2782	0.000207
2794	0.000234
2806	0.000285
2818	0.00039
2830	0.00051
2842	0.00066
2854	0.001065
2866	0.001572
2878	0.002634
2890	0.002943
2902	0.002598
2914	0.003126
2926	0.00375
2938	0.004917
2950	0.005412
2962	0.00564
2974	0.005661
2986	0.002607
2998	0.001269
3010	0.000786
3022	0.000573
3034	0.000519
3046	0.000516
3058	0.000621
3070	0.000591
3082	0.000777
3094	0.00054
3106	0.000474
3118	0.000375
3130	0.000264
3142	0.000201
3154	0.000183
3166	0.000147
3178	0.000162
3190	0.000102
3202	0.000105
3214	0.000138
3226	5.7e-05
3238	0.000123
3250	0.000159
3262	9.3e-05
3274	3.9e-05
3286	0.000102
3298	3.6e-05
3310	1.8e-05
3322	7.8e-05
3334	3.3e-05
3346	7.2e-05
3358	4.2e-05
3370	5.4e-05
3382	0.000123
3394	7.5e-05
3406	5.4e-05
3418	0.000126
3430	0.00012
3442	3.9e-05
3454	2.7e-05
3466	9.3e-05
3478	9.9e-05
3490	0.00018
3502	0.000225
3514	0.000111
3526	0.000135
3538	0.000189
3550	0.000267
3562	0.000654
3574	0.00261
3586	0.009447
3598	0.001455
3610	0.00024
3622	0.000171
3634	0.000105
3646	6e-05
3658	3e-05
3670	3e-06
3682	6e-05
3694	3e-05
3706	3.9e-05
3718	3e-06
3730	9e-06
3742	1.8e-05
3754	3e-06
3766	3.9e-05
3778	5.1e-05
3790	4.8e-05
3802	5.7e-05
3814	0.000105
3826	3.6e-05
3838	2.7e-05
