Infrared Spectrum: PHOSPHORODICHLORIDIC ACID, ETHYL ESTER
Formula: C2 H5 Cl2 O2 P
CAS: 1498-51-7
State: SOLUTION (10% IN CCl4 FOR 3800-1333, 10% IN CS2 FOR 1333-450 CM^-^1)
Class: COBLENTZ III
Instrument: DOW KBr FOREPRISM-GRATING
Instrument parameters: BLAZED AT 3.5, 12.0, 20.0 MICRON, CHANGED AT 5.0, 7.5, 14.9 MICRON
Sampling: TRANSMISSION
Path length: 0.011, 0.011 CM
Resolution: 4
Origin: DOW CHEMICAL COMPANY
1/CM	TRANSMITTANCE
450.175	0.949
458.916	0.955
467.658	0.957
476.399	0.957
485.14	0.957
493.881	0.949
502.623	0.891
511.364	0.507
520.105	0.308
528.846	0.676
537.588	0.478
546.329	0.108
555.07	0.066
563.811	0.182
572.553	0.005
581.294	0.008
590.035	0.055
598.776	0.001
607.518	0.008
616.259	0.436
625	0.779
633.741	0.891
642.483	0.911
651.224	0.902
659.965	0.955
668.707	1.012
677.448	1.019
686.189	1.019
694.93	1.019
703.672	1.016
712.413	1.008
721.154	1
729.895	0.98
738.637	0.942
747.378	0.872
756.119	0.749
764.86	0.503
773.602	0.278
782.343	0.36
791.084	0.74
799.825	0.881
808.567	0.896
817.308	0.945
826.049	0.99
834.79	0.983
843.532	0.933
852.273	0.836
861.014	0.832
869.755	0.872
878.497	0.907
887.238	0.949
895.979	0.985
904.721	0.985
913.462	0.97
922.203	0.933
930.944	0.877
939.686	0.768
948.427	0.541
957.168	0.402
965.909	0.319
974.651	0.114
983.392	0.292
992.133	0.438
1000.87	0.137
1009.62	0.001
1018.36	0.005
1027.1	0.036
1035.84	0.029
1044.58	0.021
1053.32	0.174
1062.06	0.5
1070.8	0.697
1079.55	0.768
1088.29	0.77
1097.03	0.691
1105.77	0.731
1114.51	0.851
1123.25	0.882
1131.99	0.88
1140.73	0.842
1149.48	0.768
1158.22	0.616
1166.96	0.695
1175.7	0.889
1184.44	0.933
1193.18	0.959
1201.92	0.961
1210.66	0.976
1219.41	1.008
1228.15	1.024
1236.89	1.019
1245.63	1.001
1254.37	0.963
1263.11	0.91
1271.85	0.804
1280.59	0.536
1289.34	0.087
1298.08	0.008
1306.82	0.047
1315.56	0.014
1324.3	0.1591
1333.04	0.7
1341.78	0.843
1350.52	0.881
1359.27	0.892
1368.01	0.8058
1376.75	0.793
1385.49	0.761
1394.23	0.651
1402.97	0.834
1411.71	0.895
1420.45	0.899
1429.2	0.877
1437.94	0.79
1446.68	0.7171
1455.42	0.786
1464.16	0.848
1472.9	0.7209
1481.64	0.7601
1490.38	0.835
1499.13	0.82
1507.87	0.774
1516.61	0.726
1525.35	0.688
1534.09	0.606
1542.83	0.511
1551.57	0.484
1560.32	0.553
1569.06	0.64
1577.8	0.68
1586.54	0.706
1595.28	0.78
1604.02	0.868
1612.76	0.919
1621.5	0.949
1630.25	0.97
1638.99	0.987
1647.73	0.987
1656.47	0.979
1665.21	0.975
1673.95	0.968
1682.69	0.965
1691.43	0.963
1700.18	0.956
1708.92	0.959
1717.66	0.957
1726.4	0.956
1735.14	0.953
1743.88	0.953
1752.62	0.946
1761.36	0.936
1770.11	0.925
1778.85	0.907
1787.59	0.906
1796.33	0.917
1805.07	0.922
1813.81	0.926
1822.55	0.937
1831.29	0.951
1840.04	0.957
1848.78	0.963
1857.52	0.965
1866.26	0.97
1875	0.971
1883.74	0.974
1892.48	0.974
1901.22	0.975
1909.97	0.975
1918.71	0.975
1927.45	0.976
1936.19	0.975
1944.93	0.972
1953.67	0.971
1962.41	0.975
1971.15	0.972
1979.9	0.972
1988.64	0.972
1997.38	0.961
2006.12	0.96
2014.86	0.961
2023.6	0.965
2032.34	0.964
2041.08	0.964
2049.83	0.964
2058.57	0.964
2067.31	0.964
2076.05	0.964
2084.79	0.964
2093.53	0.964
2102.27	0.967
2111.01	0.967
2119.76	0.967
2128.5	0.967
2137.24	0.967
2145.98	0.967
2154.72	0.965
2163.46	0.965
2172.2	0.965
2180.94	0.965
2189.69	0.965
2198.43	0.964
2207.17	0.964
2215.91	0.964
2224.65	0.961
2233.39	0.96
2242.13	0.955
2250.87	0.953
2259.62	0.9504
2268.36	0.944
2277.1	0.941
2285.84	0.941
2294.58	0.944
2303.32	0.9511
2312.06	0.949
2320.8	0.9516
2329.55	0.9511
2338.29	0.9486
2347.03	0.9631
2355.77	0.9601
2364.51	0.9377
2373.25	0.9611
2381.99	0.967
2390.73	0.968
2399.48	0.967
2408.22	0.967
2416.96	0.967
2425.7	0.967
2434.44	0.965
2443.18	0.965
2451.92	0.965
2460.66	0.965
2469.41	0.967
2478.15	0.968
2486.89	0.968
2495.63	0.968
2504.37	0.968
2513.11	0.9671
2521.85	0.9652
2530.59	0.965
2539.34	0.9631
2548.08	0.963
2556.82	0.959
2565.56	0.9562
2574.3	0.956
2583.04	0.9598
2591.78	0.961
2600.52	0.961
2609.27	0.963
2618.01	0.964
2626.75	0.967
2635.49	0.97
2644.23	0.97
2652.97	0.9685
2661.71	0.9703
2670.46	0.97
2679.2	0.971
2687.94	0.971
2696.68	0.97
2705.42	0.97
2714.16	0.968
2722.9	0.9643
2731.64	0.964
2740.39	0.964
2749.13	0.965
2757.87	0.964
2766.61	0.964
2775.35	0.964
2784.09	0.964
2792.83	0.963
2801.57	0.9619
2810.32	0.9583
2819.06	0.953
2827.8	0.953
2836.54	0.9515
2845.28	0.944
2854.02	0.9395
2862.76	0.9151
2871.5	0.9119
2880.25	0.9265
2888.99	0.9122
2897.73	0.8728
2906.47	0.7791
2915.21	0.8213
2923.95	0.8433
2932.69	0.8112
2941.43	0.775
2950.18	0.8641
2958.92	0.8649
2967.66	0.788
2976.4	0.7269
2985.14	0.5512
2993.88	0.562
3002.62	0.5919
3011.36	0.7356
3020.11	0.871
3028.85	0.9241
3037.59	0.9494
3046.33	0.963
3055.07	0.9685
3063.81	0.9753
3072.55	0.9792
3081.29	0.9822
3090.04	0.985
3098.78	0.9862
3107.52	0.9874
3116.26	0.989
3125	0.9892
3133.74	0.99
3142.48	0.991
3151.22	0.9927
3159.97	0.993
3168.71	0.994
3177.45	0.994
3186.19	0.994
3194.93	0.994
3203.67	0.9931
3212.41	0.9941
3221.15	0.995
3229.9	0.997
3238.64	0.998
3247.38	1
3256.12	1.002
3264.86	1.004
3273.6	1.005
3282.34	1.006
3291.08	1.009
3299.83	1.01
3308.57	1.01
3317.31	1.01
3326.05	1.009
3334.79	1.009
3343.53	1.01
3352.27	1.012
3361.01	1.012
3369.76	1.014
3378.5	1.014
3387.24	1.014
3395.98	1.014
3404.72	1.014
3413.46	1.0132
3422.2	1.013
3430.94	1.012
3439.69	1.01
3448.43	1.009
3457.17	1.006
3465.91	1.005
3474.65	1.002
3483.39	1.002
3492.13	1.0012
3500.87	1.001
3509.62	1
3518.36	0.998
3527.1	0.997
3535.84	0.995
3544.58	0.995
3553.32	0.997
3562.06	0.998
3570.8	0.997
3579.55	0.9933
3588.29	0.997
3597.03	0.998
3605.77	0.998
3614.51	0.997
3623.25	0.994
3631.99	0.9934
3640.73	0.993
3649.48	0.994
3658.22	0.998
3666.96	0.998
3675.7	0.9959
3684.44	0.994
3693.18	0.993
3701.92	0.994
3710.67	0.9935
3719.41	0.997
3728.15	0.996
3736.89	0.9921
3745.63	0.9959
3754.37	0.994
3763.11	0.994
3771.85	0.993
3780.6	0.993
3789.34	0.9944
3798.08	0.9988
