Infrared Spectrum: PHOSPHORODICHLORIDOTHIOIC ACID, O-ETHYL ESTER
Formula: C2 H5 Cl2 O S P
CAS: 1498-64-2
State: SOLUTION (10% IN CCl4 FOR 3800-1330, 10% IN CS2 FOR 1330-400 CM^-^1)
Class: COBLENTZ III
Instrument: BECKMAN IR-9 (GRATING)
Instrument parameters: ORDER CHANGES AT 670, 1200, 2000 CM^-^1
Sampling: TRANSMISSION
Path length: 0.011, 0.011 CM
Resolution: 4
Origin: DOW CHEMICAL COMPANY
1/CM	TRANSMITTANCE
401.024	1.012
409.556	1.028
418.089	1.004
426.621	0.933
435.154	0.883
443.686	0.851
452.219	0.816
460.751	0.736
469.284	0.455
477.816	0.461
486.348	0.303
494.881	0.42
503.413	0.629
511.946	0.631
520.478	0.259
529.011	0.037
537.543	0.314
546.076	0.096
554.608	0.017
563.14	0.344
571.673	0.692
580.205	0.792
588.738	0.84
597.27	0.856
605.803	0.872
614.335	0.886
622.868	0.896
631.4	0.9
639.932	0.902
648.465	0.896
656.997	0.872
665.53	0.87
674.062	0.829
682.595	0.73
691.127	0.31
699.66	0.049
708.192	0.123
716.724	0.293
725.257	0.072
733.789	0.2661
742.322	0.706
750.854	0.832
759.387	0.862
767.919	0.85
776.452	0.721
784.984	0.326
793.516	0.136
802.049	0.091
810.581	0.2571
819.114	0.674
827.646	0.867
836.179	0.914
844.711	0.939
853.244	0.965
861.776	0.971
870.308	0.967
878.841	0.963
887.373	0.958
895.906	0.953
904.438	0.935
912.971	0.926
921.503	0.911
930.036	0.871
938.568	0.775
947.1	0.551
955.633	0.393
964.165	0.243
972.698	0.076
981.23	0.216
989.763	0.429
998.295	0.24
1006.83	0.04
1015.36	0.006
1023.89	0.005
1032.42	0.013
1040.96	0.255
1049.49	0.425
1058.02	0.55
1066.55	0.666
1075.09	0.759
1083.62	0.792
1092.15	0.745
1100.68	0.631
1109.22	0.757
1117.75	0.824
1126.28	0.854
1134.81	0.863
1143.35	0.846
1151.88	0.722
1160.41	0.606
1168.94	0.779
1177.48	0.874
1186.01	0.915
1194.54	0.934
1203.07	0.947
1211.61	0.955
1220.14	0.959
1228.67	0.965
1237.2	0.969
1245.74	0.97
1254.27	0.97
1262.8	0.97
1271.33	0.959
1279.87	0.938
1288.4	0.903
1296.93	0.922
1305.46	0.95
1314	0.961
1322.53	0.962
1331.06	0.962
1339.59	0.963
1348.13	0.959
1356.66	0.955
1365.19	0.935
1373.72	0.917
1382.26	0.852
1390.79	0.669
1399.32	0.7441
1407.85	0.875
1416.38	0.906
1424.92	0.911
1433.45	0.89
1441.98	0.6939
1450.51	0.829
1459.05	0.843
1467.58	0.856
1476.11	0.653
1484.64	0.879
1493.18	0.925
1501.71	0.941
1510.24	0.954
1518.77	0.963
1527.31	0.974
1535.84	0.981
1544.37	0.99
1552.9	1.004
1561.44	1.006
1569.97	0.998
1578.5	0.989
1587.03	0.989
1595.57	0.989
1604.1	0.983
1612.63	0.978
1621.16	0.977
1629.7	0.975
1638.23	0.974
1646.76	0.971
1655.29	0.967
1663.83	0.967
1672.36	0.969
1680.89	0.969
1689.42	0.97
1697.96	0.969
1706.49	0.967
1715.02	0.957
1723.55	0.959
1732.09	0.967
1740.62	0.969
1749.15	0.967
1757.68	0.957
1766.22	0.958
1774.75	0.961
1783.28	0.963
1791.81	0.959
1800.34	0.955
1808.88	0.946
1817.41	0.942
1825.94	0.942
1834.47	0.958
1843.01	0.97
1851.54	0.975
1860.07	0.979
1868.6	0.981
1877.14	0.985
1885.67	0.985
1894.2	0.986
1902.73	0.986
1911.27	0.986
1919.8	0.986
1928.33	0.986
1936.86	0.985
1945.4	0.983
1953.93	0.979
1962.46	0.981
1970.99	0.983
1979.53	0.986
1988.06	0.986
1996.59	0.987
2005.12	0.974
2013.66	0.986
2022.19	0.987
2030.72	0.987
2039.25	0.989
2047.79	0.989
2056.32	0.99
2064.85	0.99
2073.38	0.9861
2081.92	0.9829
2090.45	0.987
2098.98	0.987
2107.51	0.987
2116.05	0.987
2124.58	0.989
2133.11	0.987
2141.64	0.987
2150.18	0.987
2158.71	0.989
2167.24	0.989
2175.77	0.99
2184.3	0.989
2192.84	0.9899
2201.37	0.989
2209.9	0.99
2218.43	0.99
2226.97	0.99
2235.5	0.991
2244.03	0.9901
2252.56	0.99
2261.1	0.99
2269.63	0.99
2278.16	0.99
2286.69	0.991
2295.23	0.991
2303.76	0.993
2312.29	0.993
2320.82	0.994
2329.36	0.994
2337.89	0.994
2346.42	0.998
2354.95	1.005
2363.49	1.006
2372.02	1.006
2380.55	1.008
2389.08	1.002
2397.62	1.0001
2406.15	1
2414.68	0.998
2423.21	0.998
2431.75	0.998
2440.28	0.998
2448.81	0.998
2457.34	0.998
2465.88	0.998
2474.41	0.998
2482.94	0.997
2491.47	0.997
2500.01	0.998
2508.54	0.9997
2517.07	1
2525.6	1
2534.14	1
2542.67	1
2551.2	1
2559.73	1.001
2568.26	1
2576.8	1.0008
2585.33	1
2593.86	1
2602.39	1.001
2610.93	0.9984
2619.46	1
2627.99	1
2636.52	1.0002
2645.06	1.0002
2653.59	1.001
2662.12	0.998
2670.65	1
2679.19	1.001
2687.72	1
2696.25	1
2704.78	1.001
2713.32	1.001
2721.85	1.001
2730.38	1
2738.91	1.001
2747.45	1
2755.98	1
2764.51	1
2773.04	1
2781.58	1
2790.11	1
2798.64	1
2807.17	0.998
2815.71	0.9955
2824.24	0.9917
2832.77	0.989
2841.3	0.9862
2849.84	0.986
2858.37	0.983
2866.9	0.975
2875.43	0.9455
2883.97	0.9485
2892.5	0.9565
2901.03	0.9238
2909.56	0.8686
2918.1	0.8574
2926.63	0.9107
2935.16	0.8849
2943.69	0.8524
2952.22	0.8561
2960.76	0.898
2969.29	0.856
2977.82	0.8056
2986.35	0.6725
2994.89	0.5987
3003.42	0.6165
3011.95	0.7637
3020.48	0.8855
3029.02	0.9295
3037.55	0.9507
3046.08	0.9658
3054.61	0.9724
3063.15	0.9777
3071.68	0.9804
3080.21	0.9857
3088.74	0.987
3097.28	0.989
3105.81	0.99
3114.34	0.9897
3122.87	0.9907
3131.41	0.99
3139.94	0.991
3148.47	0.99
3157	0.991
3165.54	0.9917
3174.07	0.991
3182.6	0.99
3191.13	0.99
3199.67	0.9903
3208.2	0.9906
3216.73	0.99
3225.26	0.9904
3233.8	0.989
3242.33	0.987
3250.86	0.987
3259.39	0.989
3267.93	0.989
3276.46	0.987
3284.99	0.987
3293.52	0.987
3302.05	0.9883
3310.59	0.987
3319.12	0.986
3327.65	0.986
3336.18	0.986
3344.72	0.9856
3353.25	0.986
3361.78	0.9854
3370.31	0.985
3378.85	0.985
3387.38	0.985
3395.91	0.985
3404.44	0.983
3412.98	0.983
3421.51	0.983
3430.04	0.983
3438.57	0.982
3447.11	0.983
3455.64	0.983
3464.17	0.985
3472.7	0.985
3481.24	0.983
3489.77	0.983
3498.3	0.982
3506.83	0.985
3515.37	0.986
3523.9	0.987
3532.43	0.989
3540.96	0.987
3549.5	0.9894
3558.03	0.989
3566.56	0.987
3575.09	0.989
3583.63	0.989
3592.16	0.989
3600.69	0.9895
3609.22	0.99
3617.76	0.99
3626.29	0.9895
3634.82	0.99
3643.35	0.991
3651.89	0.991
3660.42	0.991
3668.95	0.991
3677.48	0.9905
3686.01	0.991
3694.55	0.991
3703.08	0.991
3711.61	0.991
3720.14	0.992
3728.68	0.993
3737.21	0.993
3745.74	0.993
3754.27	0.993
3762.81	0.993
3771.34	0.991
3779.87	0.991
3788.4	0.99
3796.94	0.989
