Infrared Spectrum: 4-Bromo-2-fluorocinnamic acid
Formula: C 9 H 6 Br F O 2
CAS: 149947-19-3
State: gas
Origin: EPA-IR VAPOR PHASE LIBRARY
1/CM	ABSORBANCE
549.8	0.03028
559.445	0.03164
569.09	0.03233
578.735	0.04181
588.38	0.03535
598.025	0.02021
607.67	0.02549
617.315	0.04375
626.96	0.01474
636.605	0.00785
646.251	0.0084
655.896	0.01415
665.541	0.01644
675.186	0.01448
684.831	0.01065
694.476	0.00906
704.121	0.00684
713.766	0.00589
723.411	0.00548
733.056	0.00662
742.701	0.00667
752.346	0.00515
761.991	0.0048
771.636	0.00425
781.281	0.00433
790.926	0.00785
800.571	0.02207
810.216	0.04118
819.861	0.02851
829.507	0.01196
839.152	0.0088
848.797	0.01288
858.442	0.0258
868.087	0.03176
877.732	0.04605
887.377	0.08214
897.022	0.04709
906.667	0.02422
916.312	0.01427
925.957	0.01012
935.602	0.01247
945.247	0.01842
954.892	0.01055
964.537	0.01385
974.182	0.02697
983.827	0.03025
993.472	0.01722
1003.12	0.009
1012.76	0.00693
1022.41	0.0062
1032.05	0.00643
1041.7	0.00658
1051.34	0.00858
1060.99	0.01992
1070.63	0.04055
1080.28	0.0231
1089.92	0.0275
1099.57	0.05234
1109.21	0.129
1118.86	0.24589
1128.5	0.14769
1138.15	0.07474
1147.79	0.08303
1157.44	0.10956
1167.08	0.05217
1176.73	0.02553
1186.37	0.02285
1196.02	0.02437
1205.66	0.02798
1215.31	0.04091
1224.95	0.04371
1234.6	0.03523
1244.24	0.03691
1253.89	0.03866
1263.53	0.03374
1273.18	0.03163
1282.82	0.03139
1292.47	0.03025
1302.11	0.031
1311.76	0.03107
1321.4	0.03119
1331.05	0.02801
1340.69	0.03286
1350.34	0.06195
1359.98	0.07978
1369.63	0.04137
1379.27	0.02466
1388.92	0.02509
1398.56	0.03104
1408.21	0.04314
1417.85	0.0322
1427.5	0.01615
1437.14	0.01594
1446.79	0.01369
1456.43	0.01005
1466.08	0.01589
1475.73	0.0485
1485.37	0.09272
1495.02	0.03407
1504.66	0.0112
1514.31	0.00764
1523.95	0.00852
1533.6	0.00871
1543.24	0.01226
1552.89	0.02086
1562.53	0.02797
1572.18	0.02592
1581.82	0.02624
1591.47	0.05264
1601.11	0.07204
1610.76	0.03038
1620.4	0.02379
1630.05	0.03539
1639.69	0.0816
1649.34	0.0558
1658.98	0.01259
1668.63	0.00807
1678.27	0.00872
1687.92	0.01018
1697.56	0.01158
1707.21	0.01631
1716.85	0.02509
1726.5	0.03555
1736.14	0.06183
1745.79	0.14382
1755.43	0.25994
1765.08	0.1904
1774.72	0.08813
1784.37	0.05057
1794.01	0.03566
1803.66	0.02234
1813.3	0.01344
1822.95	0.00909
1832.59	0.007
1842.24	0.00557
1851.88	0.00424
1861.53	0.00334
1871.17	0.00326
1880.82	0.00399
1890.46	0.00424
1900.11	0.00315
1909.75	0.00239
1919.4	0.00234
1929.04	0.00241
1938.69	0.0021563
1948.33	0.001742
1957.98	0.0017127
1967.62	0.0016161
1977.27	0.0014043
1986.91	0.00128621
1996.56	0.0013227
2006.2	0.001513
2015.85	0.0016057
2025.49	0.0015836
2035.14	0.001765
2044.78	0.002074
2054.43	0.00236
2064.07	0.00235
2073.72	0.0017087
2083.36	0.0013706
2093.01	0.00128541
2102.65	0.0013409
2112.3	0.001364
2121.94	0.00127754
2131.59	0.0011947
2141.23	0.0011484
2150.88	0.001041
2160.52	0.001015
2170.17	0.001081
2179.81	0.0011673
2189.46	0.0011849
2199.1	0.00127511
2208.75	0.0014018
2218.39	0.0015306
2228.04	0.0016829
2237.68	0.0016453
2247.33	0.0015031
2256.97	0.0013503
2266.62	0.00121602
2276.26	0.00125242
2285.91	0.0013102
2295.55	0.001436
2305.2	0.0014987
2314.84	0.0013823
2324.49	0.0011535
2334.13	0.0011934
2343.78	0.0013257
2353.42	0.00129175
2363.07	0.0011985
2372.72	0.00124658
2382.36	0.00126813
2392.01	0.00127347
2401.65	0.00127604
2411.3	0.00127689
2420.94	0.00124299
2430.59	0.0013954
2440.23	0.00138
2449.88	0.0013975
2459.52	0.0014611
2469.17	0.0016006
2478.81	0.0016065
2488.46	0.0014692
2498.1	0.0014207
2507.75	0.0014173
2517.39	0.0013919
2527.04	0.00124171
2536.68	0.0012847
2546.33	0.0011103
2555.97	0.0011853
2565.62	0.0012919
2575.26	0.0013239
2584.91	0.00134
2594.55	0.00107
2604.2	0.000904
2613.84	0.000837
2623.49	0.000825
2633.13	0.000973
2642.78	0.000924
2652.42	0.000974
2662.07	0.000955
2671.71	0.001011
2681.36	0.0011145
2691	0.00125953
2700.65	0.0013251
2710.29	0.00121653
2719.94	0.001045
2729.58	0.000792
2739.23	0.000732
2748.87	0.000804
2758.52	0.000973
2768.16	0.000925
2777.81	0.000804
2787.45	0.000829
2797.1	0.000732
2806.74	0.00066
2816.39	0.000614
2826.03	0.000602
2835.68	0.000586
2845.32	0.000744
2854.97	0.000873
2864.61	0.000951
2874.26	0.00104
2883.9	0.000926
2893.55	0.001029
2903.19	0.000922
2912.84	0.000971
2922.48	0.000941
2932.13	0.000969
2941.77	0.001108
2951.42	0.0011
2961.06	0.0011327
2970.71	0.00122409
2980.35	0.00124414
2990	0.0013863
2999.64	0.0014475
3009.29	0.00125231
3018.93	0.0014232
3028.58	0.0018175
3038.22	0.00231
3047.87	0.00254
3057.51	0.00235
3067.16	0.00327
3076.8	0.00441
3086.45	0.0029
3096.09	0.0014839
3105.74	0.000749
3115.38	0.000672
3125.03	0.000541
3134.67	0.000371
3144.32	0.000275
3153.96	0.000278
3163.61	0.000286
3173.25	0.00021
3182.9	0.000328
3192.54	0.000213
3202.19	0.00019
3211.83	0.00038
3221.48	0.00012
3231.12	0.000246
3240.77	9e-05
3250.41	0.000212
3260.06	7e-05
3269.7	8e-05
3279.35	9e-05
3289	0.00012
3298.64	0.00018
3308.29	0.0001
3317.93	0.00012
3327.58	0.00019
3337.22	0.000217
3346.87	0.000246
3356.51	0.000221
3366.16	0.000384
3375.8	0.000413
3385.45	0.000633
3395.09	0.000622
3404.74	0.000639
3414.38	0.000464
3424.03	0.000389
3433.67	0.000621
3443.32	0.000541
3452.96	0.000598
3462.61	0.000868
3472.25	0.0011425
3481.9	0.001589
3491.54	0.0020807
3501.19	0.0021816
3510.83	0.0019291
3520.48	0.0016299
3530.12	0.0017258
3539.77	0.0018542
3549.41	0.0021746
3559.06	0.00398
3568.7	0.01617
3578.35	0.10488
3587.99	0.07971
3597.64	0.00934
3607.28	0.00298
3616.93	0.0018382
3626.57	0.0017916
3636.22	0.0016864
3645.86	0.0013696
3655.51	0.0011157
3665.15	0.001006
3674.8	0.000736
3684.44	0.000819
3694.09	0.00085
3703.73	0.000787
3713.38	0.000926
3723.02	0.000776
3732.67	0.000642
3742.31	0.000708
3751.96	0.000458
3761.6	0.000646
3771.25	0.000597
3780.89	0.000541
3790.54	0.000548
3800.18	0.000445
3809.83	0.000527
3819.47	0.000401
3829.12	0.000596
3838.76	0.000513
3848.41	0.000445
3858.05	0.000523
3867.7	0.000655
3877.34	0.00051
3886.99	0.000645
3896.63	0.000477
3906.28	0.000605
3915.92	0.000616
3925.57	0.000665
3935.21	0.000672
3944.86	0.000604
3954.5	0.00087
3964.15	0.000783
3973.79	0.000832
3983.44	0.000904
3993.08	0.000703
