Infrared Spectrum: Diphenylphosphinic chloride
Formula: C 12 H 10 Cl O P
CAS: 1499-21-4
State: gas
Origin: EPA-IR VAPOR PHASE LIBRARY
1/CM	ABSORBANCE
549.8	0.02349
559.445	0.04023
569.09	0.01302
578.734	0.00303
588.379	0.0022274
598.024	0.00124
607.669	0.0020056
617.313	0.0025099
626.958	0.001935
636.603	0.0024591
646.248	0.0019556
655.893	0.0025709
665.537	0.00321
675.182	0.00513
684.827	0.01072
694.472	0.01704
704.116	0.01247
713.761	0.0106
723.406	0.01698
733.051	0.00971
742.695	0.00747
752.34	0.00567
761.985	0.00289
771.63	0.0028
781.275	0.0023383
790.919	0.00167453
800.564	0.0017336
810.209	0.0021391
819.854	0.0021986
829.498	0.002145
839.143	0.00276
848.788	0.0021651
858.433	0.0017358
868.078	0.0017034
877.722	0.001936
887.367	0.0018443
897.012	0.0022292
906.657	0.0024633
916.301	0.00308
925.946	0.00263
935.591	0.00278
945.236	0.00311
954.88	0.00339
964.525	0.00386
974.17	0.0037
983.815	0.0029
993.46	0.00308
1003.1	0.00285
1012.75	0.00286
1022.39	0.00286
1032.04	0.00266
1041.68	0.000861
1051.33	0.00294
1060.97	0.00303
1070.62	0.00385
1080.26	0.00365
1089.91	0.00462
1099.55	0.00666
1109.2	0.01156
1118.84	0.01585
1128.49	0.01379
1138.13	0.00485
1147.78	0.0019817
1157.42	0.00051
1167.07	0.0024417
1176.71	0.0021176
1186.36	0.00354
1196	0.002595
1205.64	0.0021404
1215.29	0.00493
1224.93	0.00285
1234.58	0.00279
1244.22	0.0069
1253.87	0.01104
1263.51	0.01951
1273.16	0.01394
1282.8	0.00492
1292.45	0.0031
1302.09	0.0024241
1311.74	0.0021924
1321.38	0.0020247
1331.03	0.0020807
1340.67	0.0018392
1350.32	0.0018772
1359.96	0.00167086
1369.61	0.0020036
1379.25	0.001811
1388.9	0.001819
1398.54	0.0017289
1408.18	0.0017945
1417.83	0.0024344
1427.47	0.00398
1437.12	0.00597
1446.76	0.00495
1456.41	0.00264
1466.05	0.0019534
1475.7	0.0021244
1485.34	0.0022337
1494.99	0.0022539
1504.63	0.0017789
1514.28	0.0017379
1523.92	0.0020573
1533.57	0.0017262
1543.21	0.00162556
1552.86	0.0015281
1562.5	0.0017865
1572.15	0.0020378
1581.79	0.0022479
1591.44	0.0023835
1601.08	0.0017843
1610.73	0.0017432
1620.37	0.00162702
1630.01	0.001333
1639.66	0.0015321
1649.3	0.001258
1658.95	0.001444
1668.59	0.00149
1678.24	0.001356
1687.88	0.001169
1697.53	0.001124
1707.17	0.001309
1716.82	0.0015213
1726.46	0.0015109
1736.11	0.001238
1745.75	0.001402
1755.4	0.001494
1765.04	0.00162219
1774.69	0.001442
1784.33	0.001246
1793.98	0.00162322
1803.62	0.0018636
1813.27	0.0021878
1822.91	0.0015728
1832.55	0.0015474
1842.2	0.001432
1851.84	0.0015318
1861.49	0.001198
1871.13	0.001241
1880.78	0.00159237
1890.42	0.0018374
1900.07	0.0017213
1909.71	0.00164573
1919.36	0.0015314
1929	0.00164098
1938.65	0.001385
1948.29	0.0015824
1957.94	0.001757
1967.58	0.0017958
1977.23	0.0017966
1986.87	0.0017765
1996.52	0.001377
2006.16	0.001273
2015.81	0.001451
2025.45	0.001299
2035.1	0.001488
2044.74	0.001394
2054.38	0.001303
2064.03	0.001123
2073.67	0.001287
2083.32	0.001023
2092.96	0.001215
2102.61	0.00135
2112.25	0.001183
2121.9	0.001259
2131.54	0.001276
2141.19	0.001158
2150.83	0.00141
2160.48	0.0015646
2170.12	0.001239
2179.77	0.001264
2189.41	0.001335
2199.06	0.001187
2208.7	0.001218
2218.35	0.001205
2227.99	0.0015195
2237.64	0.001292
2247.28	0.001257
2256.92	0.001245
2266.57	0.001392
2276.21	0.00122
2285.86	0.001252
2295.5	0.00163709
2305.15	0.001149
2314.79	0.001283
2324.44	0.001473
2334.08	0.001207
2343.73	0.001182
2353.37	0.001198
2363.02	0.001191
2372.66	0.001145
2382.31	0.001165
2391.95	0.000849
2401.6	0.001111
2411.24	0.000847
2420.89	0.001281
2430.53	0.0015416
2440.18	0.001238
2449.82	0.001152
2459.47	0.001218
2469.11	0.000997
2478.75	0.001303
2488.4	0.0015069
2498.04	0.001333
2507.69	0.000948
2517.33	0.001196
2526.98	0.001055
2536.62	0.001098
2546.27	0.001374
2555.91	0.000888
2565.56	0.001322
2575.2	0.001424
2584.85	0.00098
2594.49	0.001143
2604.14	0.000959
2613.78	0.001476
2623.43	0.001052
2633.07	0.001393
2642.72	0.001096
2652.36	0.001257
2662.01	0.001553
2671.65	0.001031
2681.29	0.001146
2690.94	0.001128
2700.58	0.001036
2710.23	0.001136
2719.87	0.000745
2729.52	0.001362
2739.16	0.000956
2748.81	0.001179
2758.45	0.00056
2768.1	0.00092
2777.74	0.000726
2787.39	0.001201
2797.03	0.001116
2806.68	0.000911
2816.32	0.001318
2825.97	0.000915
2835.61	0.000646
2845.26	0.000605
2854.9	0.000861
2864.55	0.001085
2874.19	0.001092
2883.84	0.001158
2893.48	0.001064
2903.12	0.00125
2912.77	0.001056
2922.41	0.001268
2932.06	0.001025
2941.7	0.001323
2951.35	0.001378
2960.99	0.000965
2970.64	0.00055
2980.28	0.00072
2989.93	0.001419
2999.57	0.00147
3009.22	0.001364
3018.86	0.002287
3028.51	0.0019565
3038.15	0.0019762
3047.8	0.00263
3057.44	0.00458
3067.09	0.00868
3076.73	0.00724
3086.38	0.00474
3096.02	0.00338
3105.67	0.0019911
3115.31	0.001458
3124.95	0.0017226
3134.6	0.000879
3144.24	0.0017014
3153.89	0.0019774
3163.53	0.001298
3173.18	0.000868
3182.82	0.00204
3192.47	0.000815
3202.11	0.000778
3211.76	0.001137
3221.4	0.00104
3231.05	0.00104
3240.69	0.000997
3250.34	0.000922
3259.98	0.000985
3269.63	0.0015321
3279.27	0.000821
3288.92	0.0015129
3298.56	0.001122
3308.21	0.000911
3317.85	0.00039
3327.49	0.001084
3337.14	0.000605
3346.78	0.0015869
3356.43	0.001248
3366.07	0.0017227
3375.72	0.001502
3385.36	0.001038
3395.01	0.001289
3404.65	0.000788
3414.3	0.001385
3423.94	0.001451
3433.59	0.00085
3443.23	0.000773
3452.88	0.001178
3462.52	0.001354
3472.17	0.001172
3481.81	0.001494
3491.46	0.001004
3501.1	0.0015687
3510.75	0.001409
3520.39	0.001159
3530.04	0.001063
3539.68	0.0015846
3549.32	0.000652
3558.97	0.001225
3568.61	0.001338
3578.26	0.001241
3587.9	0.00053
3597.55	0.001452
3607.19	0.001378
3616.84	0.0015635
3626.48	0.00143
3636.13	0.001098
3645.77	0.001342
3655.42	0.0015365
3665.06	0.000799
3674.71	0.001323
3684.35	0.001385
3694	0.0018471
3703.64	0.00161434
3713.29	0.0019077
3722.93	0.001172
3732.58	0.000917
3742.22	0.001085
3751.86	0.00042
3761.51	0.0017464
3771.15	0.001091
3780.8	0.001268
3790.44	0.0018484
3800.09	0.001351
3809.73	0.001331
3819.38	0.001114
3829.02	0.001247
3838.67	0.001469
3848.31	0.000721
3857.96	0.001434
3867.6	0.000843
3877.25	0.001238
3886.89	0.001319
3896.54	0.001785
3906.18	0.000925
3915.83	0.00131
3925.47	0.001317
3935.12	0.001415
3944.76	0.0015544
3954.41	0.001402
3964.05	0.000966
3973.69	0.001283
3983.34	0.001196
3992.98	0.001162
