Infrared Spectrum: ACETIC ACID, RHODINYL ESTER
Formula: C12 H22 O2
CAS: 150-84-5
Class: COBLENTZ
Instrument: Not specified, most likely a prism, grating, or hybrid spectrometer.
Sampling: TRANSMISSION
Path length: CAPILLARY LAYER
Resolution: 4
Origin: INFRACORD
MICROMETERS	TRANSMITTANCE
2.518	0.801
2.55344	0.799
2.58889	0.803
2.62433	0.81
2.65977	0.816
2.69521	0.817
2.73066	0.819
2.7661	0.825
2.80154	0.826
2.83698	0.82
2.87243	0.819
2.90787	0.815
2.94331	0.808
2.97875	0.78
3.0142	0.788
3.04964	0.791
3.08508	0.795
3.12052	0.804
3.15597	0.809
3.19141	0.81
3.22685	0.813
3.26229	0.81
3.29774	0.801
3.33318	0.787
3.36862	0.741
3.40407	0.644
3.43951	0.43
3.47495	0.165
3.51039	0.147
3.54584	0.183
3.58128	0.289
3.61672	0.377
3.65216	0.717
3.68761	0.791
3.72305	0.83
3.75849	0.815
3.79393	0.825
3.82938	0.849
3.86482	0.856
3.90026	0.86
3.9357	0.862
3.97115	0.867
4.00659	0.869
4.04203	0.868
4.07747	0.873
4.11292	0.865
4.14836	0.864
4.1838	0.869
4.21925	0.877
4.25469	0.879
4.29013	0.879
4.32557	0.88
4.36102	0.885
4.39646	0.885
4.4319	0.888
4.46734	0.89
4.50279	0.891
4.53823	0.891
4.57367	0.891
4.60911	0.89
4.64456	0.888
4.68	0.888
4.71544	0.888
4.75088	0.886
4.78633	0.886
4.82177	0.886
4.85721	0.885
4.89266	0.882
4.9281	0.884
4.96354	0.885
4.99898	0.884
5.03443	0.886
5.06987	0.887
5.10531	0.885
5.14075	0.891
5.1762	0.886
5.21164	0.89
5.24708	0.886
5.28252	0.886
5.31797	0.882
5.35341	0.886
5.38885	0.874
5.42429	0.867
5.45974	0.865
5.49518	0.86
5.53062	0.851
5.56606	0.846
5.60151	0.822
5.63695	0.799
5.67239	0.763
5.70784	0.708
5.74328	0.599
5.77872	0.28
5.81416	0.081
5.84961	0.035
5.88505	0.293
5.92049	0.55
5.95593	0.644
5.99138	0.71
6.02682	0.751
6.06226	0.704
6.0977	0.728
6.13315	0.757
6.16859	0.773
6.20403	0.794
6.23947	0.809
6.27492	0.808
6.31036	0.815
6.3458	0.827
6.38124	0.822
6.41669	0.82
6.45213	0.828
6.48757	0.822
6.52302	0.815
6.55846	0.819
6.5939	0.812
6.62934	0.812
6.66479	0.8
6.70023	0.796
6.73567	0.784
6.77111	0.761
6.80656	0.735
6.842	0.618
6.87744	0.533
6.91288	0.423
6.94833	0.358
6.98377	0.343
7.01921	0.385
7.05465	0.45
7.0901	0.543
7.12554	0.613
7.16098	0.665
7.19642	0.65
7.23187	0.605
7.26731	0.452
7.30275	0.309
7.3382	0.273
7.37364	0.257
7.40908	0.264
7.44452	0.534
7.47997	0.643
7.51541	0.704
7.55085	0.736
7.58629	0.739
7.62174	0.732
7.65718	0.73
7.69262	0.704
7.72806	0.679
7.76351	0.672
7.79895	0.627
7.83439	0.588
7.86983	0.482
7.90528	0.405
7.94072	0.339
7.97616	0.297
8.01161	0.183
8.04705	0.117
8.08249	0.079
8.11793	0.056
8.15338	0.042
8.18882	0.043
8.22426	0.076
8.2597	0.217
8.29515	0.339
8.33059	0.482
8.36603	0.557
8.40147	0.624
8.43692	0.676
8.47236	0.696
8.5078	0.704
8.54324	0.708
8.57869	0.743
8.61413	0.756
8.64957	0.763
8.68501	0.762
8.72046	0.758
8.7559	0.742
8.79134	0.747
8.82679	0.765
8.86223	0.768
8.89767	0.764
8.93311	0.729
8.96856	0.709
9.004	0.69
9.03944	0.673
9.07488	0.666
9.11033	0.673
9.14577	0.685
9.18121	0.686
9.21665	0.677
9.2521	0.671
9.28754	0.674
9.32298	0.661
9.35842	0.634
9.39387	0.579
9.42931	0.498
9.46475	0.444
9.50019	0.403
9.53564	0.388
9.57108	0.398
9.60652	0.416
9.64197	0.413
9.67741	0.385
9.71285	0.336
9.74829	0.323
9.78374	0.326
9.81918	0.333
9.85462	0.391
9.89006	0.464
9.92551	0.53
9.96095	0.593
9.99639	0.63
10.0318	0.657
10.0673	0.667
10.1027	0.666
10.1382	0.656
10.1736	0.632
10.209	0.625
10.2445	0.635
10.2799	0.628
10.3154	0.628
10.3508	0.619
10.3863	0.608
10.4217	0.595
10.4571	0.575
10.4926	0.56
10.528	0.588
10.5635	0.63
10.5989	0.685
10.6344	0.718
10.6698	0.755
10.7052	0.765
10.7407	0.773
10.7761	0.774
10.8116	0.77
10.847	0.769
10.8825	0.765
10.9179	0.776
10.9533	0.774
10.9888	0.78
11.0242	0.777
11.0597	0.783
11.0951	0.774
11.1306	0.777
11.166	0.773
11.2014	0.77
11.2369	0.756
11.2723	0.758
11.3078	0.756
11.3432	0.773
11.3787	0.783
11.4141	0.796
11.4495	0.799
11.485	0.804
11.5204	0.808
11.5559	0.807
11.5913	0.799
11.6268	0.796
11.6622	0.782
11.6976	0.775
11.7331	0.767
11.7685	0.758
11.804	0.749
11.8394	0.75
11.8748	0.739
11.9103	0.726
11.9457	0.713
11.9812	0.699
12.0166	0.691
12.0521	0.69
12.0875	0.69
12.1229	0.692
12.1584	0.713
12.1938	0.731
12.2293	0.751
12.2647	0.763
12.3002	0.77
12.3356	0.781
12.371	0.781
12.4065	0.788
12.4419	0.789
12.4774	0.788
12.5128	0.794
12.5483	0.799
12.5837	0.803
12.6191	0.813
12.6546	0.82
12.69	0.822
12.7255	0.82
12.7609	0.815
12.7964	0.81
12.8318	0.807
12.8672	0.807
12.9027	0.808
12.9381	0.809
12.9736	0.813
13.009	0.822
13.0445	0.827
13.0799	0.833
13.1153	0.835
13.1508	0.836
13.1862	0.836
13.2217	0.835
13.2571	0.835
13.2926	0.829
13.328	0.823
13.3634	0.817
13.3989	0.813
13.4343	0.807
13.4698	0.802
13.5052	0.802
13.5407	0.806
13.5761	0.81
13.6115	0.82
13.647	0.816
13.6824	0.823
13.7179	0.832
13.7533	0.827
13.7888	0.829
13.8242	0.836
13.8596	0.83
13.8951	0.836
13.9305	0.835
13.966	0.832
14.0014	0.83
14.0368	0.829
14.0723	0.828
14.1077	0.822
14.1432	0.82
14.1786	0.821
14.2141	0.814
14.2495	0.81
14.2849	0.81
14.3204	0.804
14.3558	0.794
14.3913	0.796
14.4267	0.797
14.4622	0.795
14.4976	0.795
14.533	0.793
14.5685	0.794
14.6039	0.79
14.6394	0.783
14.6748	0.77
14.7103	0.776
14.7457	0.764
14.7811	0.769
14.8166	0.761
14.852	0.757
14.8875	0.752
14.9229	0.742
14.9584	0.735
14.9938	0.729
