Infrared Spectrum: p-Aminobenzoic acid
Formula: C 7 H 7 N O 2
CAS: 150-13-0
State: gas
Instrument: HP-GC/MS/IRD
Origin: NIST Mass Spectrometry Data Center
1/CM	ABSORBANCE
550	0.0011067
562	0.0023069
574	0.0025381
586	0.0037978
598	0.0034
610	0.0007718
622	0.0004114
634	0.0005661
646	0.0007531
658	0.0012257
670	0.001734
682	0.0018887
694	0.0022372
706	0.0016252
718	0.0014076
730	0.0018972
742	0.0015232
754	0.0018547
766	0.0025177
778	0.0021726
790	0.0013243
802	0.0008449
814	0.0007837
826	0.001054
838	0.0014263
850	0.0009452
862	0.0003978
874	0.0001768
886	0.0001139
898	0.0001088
910	5.44e-05
922	5.44e-05
934	0.0001088
946	0.0001615
958	0.0001938
970	0.0002108
982	0.0001462
994	0.0001615
1006	0.0004267
1018	0.000544
1030	0.0006426
1042	0.0012767
1054	0.0025296
1066	0.0048297
1078	0.0073848
1090	0.0053516
1102	0.0018479
1114	0.0009996
1126	0.0010761
1138	0.0013328
1150	0.0034221
1162	0.0105043
1174	0.0083793
1186	0.0036142
1198	0.0027217
1210	0.0009775
1222	0.0007701
1234	0.0011169
1246	0.0017629
1258	0.0025296
1270	0.0030464
1282	0.004624
1294	0.0038607
1306	0.0020179
1318	0.0025806
1330	0.0026928
1342	0.0020264
1354	0.0034153
1366	0.0036941
1378	0.0011135
1390	0.0003536
1402	0.0002057
1414	0.0002227
1426	0.0005185
1438	0.0006732
1450	0.0002737
1462	0.0001139
1474	9.69e-05
1486	0.0001955
1498	0.0006222
1510	0.0017153
1522	0.001921
1534	0.0006868
1546	0.0003689
1558	0.0004216
1570	0.0006273
1582	0.0011594
1594	0.0034051
1606	0.006273
1618	0.0082008
1630	0.0082586
1642	0.0036907
1654	0.0011101
1666	0.000731
1678	0.000731
1690	0.0008211
1702	0.0009724
1714	0.0012104
1726	0.002227
1738	0.0075174
1750	0.0165427
1762	0.0127976
1774	0.0033898
1786	0.0011849
1798	0.000612
1810	0.000442
1822	0.0003808
1834	0.0002278
1846	0.0001258
1858	9.52e-05
1870	7.31e-05
1882	0.0001071
1894	0.000187
1906	0.000238
1918	0.0002431
1930	0.0001598
1942	0.0001309
1954	0.0001343
1966	9.18e-05
1978	7.48e-05
1990	9.01e-05
2002	8.33e-05
2014	9.86e-05
2026	6.63e-05
2038	6.46e-05
2050	6.46e-05
2062	5.78e-05
2074	4.59e-05
2086	7.14e-05
2098	9.86e-05
2110	9.52e-05
2122	8.33e-05
2134	8.5e-05
2146	7.82e-05
2158	7.65e-05
2170	6.29e-05
2182	6.63e-05
2194	4.08e-05
2206	4.42e-05
2218	5.27e-05
2230	5.1e-05
2242	5.27e-05
2254	3.57e-05
2266	4.93e-05
2278	3.4e-05
2290	5.61e-05
2302	8.33e-05
2314	9.35e-05
2326	8.84e-05
2338	0.0001139
2350	0.0001122
2362	0.0001292
2374	0.0001071
2386	9.52e-05
2398	4.93e-05
2410	7.99e-05
2422	8.16e-05
2434	8.67e-05
2446	0.0001003
2458	0.0001054
2470	7.14e-05
2482	6.97e-05
2494	7.82e-05
2506	6.12e-05
2518	3.57e-05
2530	6.29e-05
2542	7.99e-05
2554	8.16e-05
2566	0.0001003
2578	8.84e-05
2590	0.0001037
2602	0.0001343
2614	0.0001445
2626	0.0001377
2638	0.0001445
2650	0.0001071
2662	0.0001071
2674	9.18e-05
2686	7.48e-05
2698	9.69e-05
2710	7.31e-05
2722	8.84e-05
2734	5.78e-05
2746	3.57e-05
2758	5.27e-05
2770	8.5e-05
2782	6.63e-05
2794	4.25e-05
2806	4.42e-05
2818	5.95e-05
2830	7.31e-05
2842	6.97e-05
2854	5.27e-05
2866	5.1e-05
2878	8.67e-05
2890	9.18e-05
2902	9.86e-05
2914	0.000102
2926	8.33e-05
2938	6.97e-05
2950	7.99e-05
2962	0.0001224
2974	9.52e-05
2986	7.48e-05
2998	0.00017
3010	0.0003859
3022	0.0004998
3034	0.0006766
3046	0.0008109
3058	0.0005644
3070	0.0004046
3082	0.0003332
3094	0.0002363
3106	0.0002346
3118	0.0001717
3130	0.0001258
3142	9.35e-05
3154	7.48e-05
3166	6.8e-05
3178	3.74e-05
3190	8.67e-05
3202	0.0001411
3214	0.0001394
3226	0.0001071
3238	0.0001292
3250	6.12e-05
3262	3.74e-05
3274	4.93e-05
3286	3.23e-05
3298	2.04e-05
3310	6.97e-05
3322	5.78e-05
3334	5.61e-05
3346	4.93e-05
3358	8.5e-05
3370	7.31e-05
3382	0.0001343
3394	0.000289
3406	0.000595
3418	0.0009605
3430	0.0009299
3442	0.0005916
3454	0.000272
3466	0.0001802
3478	0.0002754
3490	0.0004063
3502	0.0004913
3514	0.0004862
3526	0.000425
3538	0.0003128
3550	0.0002295
3562	0.0003434
3574	0.0019057
3586	0.0047872
3598	0.0021471
3610	0.000204
3622	6.8e-05
3634	5.1e-05
3646	4.93e-05
3658	2.38e-05
3670	2.89e-05
3682	1.53e-05
3694	6.97e-05
3706	5.1e-06
3718	6.8e-06
3730	3.4e-06
3742	1.02e-05
3754	5.1e-06
3766	6.8e-06
3778	3.74e-05
3790	4.42e-05
3802	6.8e-06
3814	4.59e-05
3826	1.02e-05
3838	6.12e-05
