Infrared Spectrum: 1,2-Dianilinoethane
Formula: C 14 H 16 N 2
CAS: 150-61-8
State: gas
Origin: EPA-IR VAPOR PHASE LIBRARY
1/CM	ABSORBANCE
549.9	0.002882
559.547	0.002622
569.193	0.002512
578.84	0.002382
588.486	0.002182
598.133	0.002052
607.779	0.002212
617.426	0.002122
627.072	0.002252
636.719	0.002452
646.365	0.002892
656.012	0.003202
665.658	0.004052
675.305	0.005362
684.951	0.009422
694.598	0.009832
704.245	0.006222
713.891	0.004852
723.538	0.005012
733.184	0.007622
742.831	0.014252
752.477	0.013022
762.124	0.007012
771.77	0.004232
781.417	0.002992
791.063	0.002252
800.71	0.001882
810.356	0.001872
820.003	0.0017073
829.649	0.0015178
839.296	0.0013573
848.943	0.0014159
858.589	0.0016704
868.236	0.002302
877.882	0.001892
887.529	0.001538
897.175	0.0015502
906.822	0.0016473
916.468	0.0015847
926.115	0.0014177
935.761	0.0011895
945.408	0.0011255
955.054	0.0010622
964.701	0.0010775
974.347	0.0011128
983.994	0.0013948
993.64	0.002092
1003.29	0.0014732
1012.93	0.001376
1022.58	0.001892
1032.23	0.001982
1041.87	0.0016494
1051.52	0.002042
1061.17	0.003172
1070.81	0.003542
1080.46	0.002722
1090.11	0.002902
1099.75	0.003052
1109.4	0.002992
1119.05	0.003512
1128.69	0.003132
1138.34	0.002272
1147.99	0.002102
1157.63	0.002282
1167.28	0.002302
1176.92	0.003572
1186.57	0.003282
1196.22	0.002602
1205.86	0.002772
1215.51	0.003502
1225.16	0.005002
1234.8	0.007302
1244.45	0.014032
1254.1	0.016422
1263.74	0.011992
1273.39	0.010042
1283.04	0.008202
1292.68	0.008602
1302.33	0.010382
1311.98	0.011212
1321.62	0.008842
1331.27	0.005342
1340.92	0.003472
1350.56	0.002922
1360.21	0.003102
1369.86	0.002602
1379.5	0.002152
1389.15	0.002012
1398.79	0.002012
1408.44	0.002322
1418.09	0.003822
1427.73	0.006342
1437.38	0.004832
1447.03	0.003202
1456.67	0.004432
1466.32	0.006882
1475.97	0.009002
1485.61	0.013152
1495.26	0.027692
1504.91	0.035032
1514.55	0.015382
1524.2	0.006662
1533.85	0.004092
1543.49	0.003342
1553.14	0.003392
1562.79	0.003622
1572.43	0.004582
1582.08	0.008802
1591.73	0.020682
1601.37	0.031912
1611.02	0.018592
1620.67	0.008492
1630.31	0.004192
1639.96	0.002592
1649.6	0.002042
1659.25	0.00179
1668.9	0.0016754
1678.54	0.001541
1688.19	0.0013633
1697.84	0.001264
1707.48	0.0011945
1717.13	0.0012209
1726.78	0.001093
1736.42	0.0011507
1746.07	0.0012063
1755.72	0.001427
1765.36	0.001246
1775.01	0.0010267
1784.66	0.000972
1794.3	0.0009241
1803.95	0.0009568
1813.6	0.0010728
1823.24	0.0011293
1832.89	0.0010975
1842.54	0.0009781
1852.18	0.000856
1861.83	0.000797143
1871.47	0.00084385
1881.12	0.0007769
1890.77	0.0009243
1900.41	0.0011148
1910.06	0.0013808
1919.71	0.0013087
1929.35	0.0012321
1939	0.0009564
1948.65	0.0007696
1958.29	0.000687
1967.94	0.0007023
1977.59	0.00065
1987.23	0.0007394
1996.88	0.000678
2006.53	0.0007007
2016.17	0.0007375
2025.82	0.0007697
2035.47	0.0007269
2045.11	0.0007341
2054.76	0.000705
2064.41	0.0007394
2074.05	0.0007363
2083.7	0.000662
2093.35	0.0007422
2102.99	0.0007258
2112.64	0.000685
2122.28	0.0007005
2131.93	0.000677
2141.58	0.000689
2151.22	0.0007058
2160.87	0.0007069
2170.52	0.0007228
2180.16	0.0007169
2189.81	0.0007147
2199.46	0.0007182
2209.1	0.000652
2218.75	0.000675
2228.4	0.00068
2238.04	0.000647
2247.69	0.000602
2257.34	0.000659
2266.98	0.000659
2276.63	0.0007093
2286.28	0.00068
2295.92	0.00068
2305.57	0.0007701
2315.22	0.0007867
2324.86	0.0007331
2334.51	0.0007788
2344.16	0.0007476
2353.8	0.0007272
2363.45	0.0007407
2373.09	0.0007812
2382.74	0.0007051
2392.39	0.0007735
2402.03	0.000732
2411.68	0.00069
2421.33	0.000686
2430.97	0.0007023
2440.62	0.000652
2450.27	0.000674
2459.91	0.00069
2469.56	0.000654
2479.21	0.0007157
2488.85	0.000689
2498.5	0.0006948
2508.15	0.0007608
2517.79	0.0007193
2527.44	0.00083034
2537.09	0.00082612
2546.73	0.0008886
2556.38	0.0009397
2566.03	0.0009846
2575.67	0.0009121
2585.32	0.00083361
2594.96	0.0007409
2604.61	0.0007389
2614.26	0.0007135
2623.9	0.000756
2633.55	0.000648
2643.2	0.0007581
2652.84	0.0007308
2662.49	0.0007501
2672.14	0.000799672
2681.78	0.00086652
2691.43	0.0009089
2701.08	0.000915
2710.72	0.00087777
2720.37	0.00080239
2730.02	0.00082381
2739.66	0.00082362
2749.31	0.0008608
2758.96	0.00087472
2768.6	0.00085926
2778.25	0.0009734
2787.9	0.001093
2797.54	0.0011739
2807.19	0.0014348
2816.84	0.0017222
2826.48	0.002202
2836.13	0.002762
2845.77	0.003192
2855.42	0.003732
2865.07	0.004152
2874.71	0.004302
2884.36	0.004092
2894.01	0.003742
2903.65	0.003522
2913.3	0.003722
2922.95	0.004062
2932.59	0.004062
2942.24	0.004032
2951.89	0.003962
2961.53	0.003482
2971.18	0.002682
2980.83	0.001862
2990.47	0.0015224
3000.12	0.001842
3009.77	0.003182
3019.41	0.005012
3029.06	0.005922
3038.71	0.005282
3048.35	0.006262
3058	0.008762
3067.64	0.007512
3077.29	0.005752
3086.94	0.005302
3096.58	0.004022
3106.23	0.002692
3115.88	0.001514
3125.52	0.00081949
3135.17	0.000531
3144.82	0.000448
3154.46	0.000128
3164.11	0.000287
3173.76	0.000366
3183.4	0.000167
3193.05	0.000134
3202.7	0.00015
3212.34	0.0001
3221.99	0.000251
3231.64	0.000291
3241.28	0.000119
3250.93	0.000136
3260.58	0.000254
3270.22	0.000209
3279.87	0.000175
3289.52	0.000118
3299.16	5e-05
3308.81	0.000267
3318.45	0.00013
3328.1	7.4e-05
3337.75	0.000119
3347.39	0.000341
3357.04	0.000347
3366.69	0.000389
3376.33	0.000434
3385.98	0.00085081
3395.63	0.0012274
3405.27	0.0015313
3414.92	0.0017753
3424.57	0.0017568
3434.21	0.0015001
3443.86	0.0013052
3453.51	0.0010498
3463.15	0.00087217
3472.8	0.00059
3482.45	0.000453
3492.09	0.000427
3501.74	0.00038
3511.39	0.000413
3521.03	0.000399
3530.68	0.000295
3540.33	0.000325
3549.97	0.000304
3559.62	0.000231
3569.26	0.000269
3578.91	0.000196
3588.56	0.00041
3598.2	0.000366
3607.85	0.000295
3617.5	0.000331
3627.14	0.000418
3636.79	0.00045
3646.44	0.000495
3656.08	0.000486
3665.73	0.000355
3675.38	0.000438
3685.02	0.000383
3694.67	0.000241
3704.32	0.000353
3713.96	0.000419
3723.61	0.000361
3733.26	0.000361
3742.9	0.000365
3752.55	0.000288
3762.2	0.000298
3771.84	0.000198
3781.49	0.000365
3791.13	0.000396
3800.78	0.000372
3810.43	0.000387
3820.07	0.000359
3829.72	0.00031
3839.37	0.000434
3849.01	0.000404
3858.66	0.000419
3868.31	0.000361
3877.95	0.000401
3887.6	0.000432
3897.25	0.000435
3906.89	0.0004
3916.54	0.000518
3926.19	0.000445
3935.83	0.000345
3945.48	0.000462
3955.13	0.000411
3964.77	0.00046
3974.42	0.000515
3984.07	0.000399
3993.71	0.000458
