Infrared Spectrum: Benzyldisulfide
Formula: C 14 H 14 S 2
CAS: 150-60-7
State: gas
Instrument: HP-GC/MS/IRD
Origin: NIST Mass Spectrometry Data Center
1/CM	ABSORBANCE
550	0.0010336
562	0.0028994
574	0.0011742
586	0.0003458
598	0
610	8.36e-05
622	0.0004522
634	0.0008246
646	0.002109
658	0.0049134
670	0.008132
682	0.013186
694	0.0376884
706	0.0210938
718	0.0094734
730	0.006004
742	0.0062662
754	0.0116166
766	0.0102486
778	0.0032072
790	0.001463
802	0.0011134
814	0.0009158
826	0.0005282
838	0.0007296
850	0.0009994
862	0.0013452
874	0.000874
886	0.0007296
898	0.001064
910	0.0020938
922	0.0008322
934	0.0004256
946	0.000228
958	0.0001216
970	4.18e-05
982	7.6e-05
994	0.000171
1006	0.000513
1018	0.0015352
1030	0.004047
1042	0.0009956
1054	0.0016834
1066	0.0032604
1078	0.0018658
1090	0.0008398
1102	0.0006384
1114	0.0003762
1126	0.0002926
1138	0.0004066
1150	0.0005092
1162	0.0006954
1174	0.0012198
1186	0.0039292
1198	0.0046208
1210	0.0031046
1222	0.0074138
1234	0.0050958
1246	0.001691
1258	0.0008778
1270	0.0006916
1282	0.0006498
1294	0.0005814
1306	0.0005206
1318	0.000589
1330	0.0005738
1342	0.000437
1354	0.000304
1366	0.000437
1378	0.0006536
1390	0.0006878
1402	0.0012084
1414	0.0027094
1426	0.003496
1438	0.003876
1450	0.0060458
1462	0.0038722
1474	0.0021698
1486	0.0060496
1498	0.0114038
1510	0.0022154
1522	0.0010108
1534	0.0008778
1546	0.0005928
1558	0.0008094
1570	0.0011362
1582	0.0019988
1594	0.004408
1606	0.00437
1618	0.001444
1630	0.0005548
1642	0.0003724
1654	0.0005054
1666	0.0006612
1678	0.0005244
1690	0.0002736
1702	0.0002622
1714	0.0003344
1726	0.0005016
1738	0.0007752
1750	0.0007258
1762	0.000513
1774	0.0007334
1786	0.0013414
1798	0.0015352
1810	0.0007828
1822	0.0005244
1834	0.0003306
1846	0.000399
1858	0.0007372
1870	0.0011628
1882	0.001178
1894	0.0008284
1906	0.0004218
1918	0.0005814
1930	0.0012464
1942	0.0016606
1954	0.0016226
1966	0.000589
1978	0.0002812
1990	0.0002622
2002	0.0002698
2014	0.0001558
2026	9.12e-05
2038	6.84e-05
2050	3.8e-05
2062	5.32e-05
2074	3.8e-05
2086	6.84e-05
2098	3.8e-05
2110	7.6e-06
2122	3.04e-05
2134	2.66e-05
2146	3.8e-05
2158	1.14e-05
2170	3.8e-05
2182	3.04e-05
2194	5.32e-05
2206	6.84e-05
2218	7.6e-05
2230	8.36e-05
2242	0.0001102
2254	0.000171
2266	0.0001672
2278	0.0001748
2290	0.000171
2302	0.0001862
2314	0.0003952
2326	0.0002546
2338	0.0002584
2350	0.0001976
2362	0.0001178
2374	9.12e-05
2386	6.84e-05
2398	0.0001216
2410	0.0001406
2422	0.0001026
2434	6.84e-05
2446	4.18e-05
2458	3.42e-05
2470	5.7e-05
2482	1.9e-05
2494	0
2506	2.66e-05
2518	6.08e-05
2530	6.08e-05
2542	1.52e-05
2554	4.18e-05
2566	4.94e-05
2578	0.0001178
2590	0.0001254
2602	0.000228
2614	0.000285
2626	0.0003116
2638	0.0003002
2650	0.0002546
2662	0.0001748
2674	0.000133
2686	4.18e-05
2698	4.18e-05
2710	3.8e-06
2722	3.04e-05
2734	4.94e-05
2746	3.04e-05
2758	7.6e-05
2770	0.0001292
2782	0.0002774
2794	0.0003192
2806	0.0004066
2818	0.0006802
2830	0.000703
2842	0.0006954
2854	0.0007866
2866	0.0008018
2878	0.0008778
2890	0.0012882
2902	0.0025726
2914	0.0055062
2926	0.0052896
2938	0.003838
2950	0.0032908
2962	0.003249
2974	0.0028272
2986	0.0017822
2998	0.0020938
3010	0.0039786
3022	0.0087552
3034	0.0174724
3046	0.0114684
3058	0.0113468
3070	0.0209646
3082	0.0140486
3094	0.0091542
3106	0.0051604
3118	0.002508
3130	0.0008702
3142	0.00057
3154	0.0004788
3166	0.0004712
3178	0.0002432
3190	0.0001406
3202	0.0001292
3214	0.0001026
3226	0.0001026
3238	0.0001102
3250	7.6e-05
3262	9.5e-05
3274	0.0001178
3286	9.5e-05
3298	9.5e-05
3310	0.0001216
3322	8.74e-05
3334	0.0001178
3346	7.6e-05
3358	0.0001482
3370	0.0001482
3382	9.12e-05
3394	0.000114
3406	0.0001026
3418	0.0001026
3430	0.0001368
3442	0.0001444
3454	0.0001254
3466	6.46e-05
3478	0.0001292
3490	0.0001026
3502	0.0001444
3514	0.0001824
3526	0.0001292
3538	0.0001824
3550	2.66e-05
3562	7.98e-05
3574	0.000114
3586	0.0001406
3598	0.000114
3610	0.000152
3622	0.0002508
3634	0.0002394
3646	0.0002698
3658	0.0003192
3670	0.0002394
3682	0.0001862
3694	0.0002356
3706	0.0002128
3718	0.0001862
3730	0.0001786
3742	0.0001596
3754	0.0001938
3766	0.000209
3778	0.0001482
3790	0.0001976
3802	0.0002204
3814	0.0001824
3826	0.0002546
3838	0.0002356
