Infrared Spectrum: 3-METHYL-4-OXO-2-PHENYL-4H-1-BENZOPYRAN-8-CARBOXYLIC ACID, 4-MORPHOLINETHYL ESTER, HYDROCHLORIDE
Formula: C9 H11 Cl N2 O
CAS: 150-68-5
State: SOLID (0.6 mg / 300 mg KBr DISC)
Melting point: 173 C
Class: COBLENTZ II
Instrument: PERKIN-ELMER 180 (GRATING)
Instrument parameters: GRATINGS: 2000, 1000, 500, 250 CM^-^1; FILTER CHANGE: 2970, 2000, 1485, 1000, 743, 500, 372, 250, 186 CM^-^1.
Sampling: TRANSMISSION
Resolution: 2
Origin: K. K. DEB-NCI FREDERICK CANCER RESEARCH CENTER
1/CM	TRANSMITTANCE
402	0.8333
411	0.7619
420	0.767
429	0.7918
438	0.8518
447	0.8566
456	0.8579
465	0.8557
474	0.8479
483	0.8289
492	0.7635
501	0.6209
510	0.5937
519	0.5278
528	0.8372
537	0.8496
546	0.8467
555	0.8406
564	0.8321
573	0.8186
582	0.8024
591	0.7793
600	0.708
609	0.6689
618	0.8109
627	0.7915
636	0.6727
645	0.6508
654	0.6093
663	0.6797
672	0.7501
681	0.8037
690	0.6254
699	0.6237
708	0.7447
717	0.6732
726	0.7839
735	0.7989
744	0.8002
753	0.7256
762	0.6446
771	0.8325
780	0.8369
789	0.8308
798	0.8199
807	0.8041
816	0.7635
825	0.5159
834	0.2541
843	0.5327
852	0.7842
861	0.8333
870	0.84
879	0.8375
888	0.8224
897	0.7447
906	0.6533
915	0.8246
924	0.8337
933	0.8336
942	0.831
951	0.8232
960	0.826
969	0.8135
978	0.8176
987	0.8203
996	0.8126
1005	0.7886
1014	0.4617
1023	0.7759
1032	0.7349
1041	0.7769
1050	0.77
1059	0.7231
1068	0.5996
1077	0.6824
1086	0.4326
1095	0.512
1104	0.752
1113	0.7324
1122	0.7571
1131	0.7629
1140	0.7534
1149	0.7423
1158	0.7277
1167	0.687
1176	0.617
1185	0.4377
1194	0.3757
1203	0.5961
1212	0.6914
1221	0.6933
1230	0.6585
1239	0.5594
1248	0.2721
1257	0.4311
1266	0.6177
1275	0.5939
1284	0.4976
1293	0.3858
1302	0.5318
1311	0.4653
1320	0.6913
1329	0.694
1338	0.6702
1347	0.6444
1356	0.6044
1365	0.4746
1374	0.3022
1383	0.3213
1392	0.5215
1401	0.2846
1410	0.3745
1419	0.666
1428	0.6952
1437	0.6327
1446	0.5198
1455	0.4733
1464	0.4264
1473	0.3525
1482	0.2599
1491	0.2158
1500	0.209
1509	0.2375
1518	0.2582
1527	0.2806
1536	0.2679
1545	0.3837
1554	0.5215
1563	0.6023
1572	0.6423
1581	0.6353
1590	0.3619
1599	0.3232
1608	0.5222
1617	0.5014
1626	0.3989
1635	0.239
1644	0.1202
1653	0.1285
1662	0.2565
1671	0.4289
1680	0.525
1689	0.6036
1698	0.6804
1707	0.71
1716	0.7364
1725	0.7578
1734	0.7741
1743	0.7881
1752	0.8014
1761	0.8118
1770	0.8203
1779	0.8256
1788	0.828
1797	0.8282
1806	0.8415
1815	0.8516
1824	0.8552
1833	0.8577
1842	0.8584
1851	0.8589
1860	0.8582
1869	0.8583
1878	0.8575
1887	0.8532
1896	0.8436
1905	0.8315
1914	0.8104
1923	0.8375
1932	0.8542
1941	0.8609
1950	0.8622
1959	0.863
1968	0.8638
1977	0.8631
1986	0.8617
1995	0.8594
2004	0.8565
2013	0.8556
2022	0.8569
2031	0.8584
2040	0.8593
2049	0.8589
2058	0.8578
2067	0.8569
2076	0.8562
2085	0.8556
2094	0.8553
2103	0.8554
2112	0.8562
2121	0.8567
2130	0.8571
2139	0.8571
2148	0.857
2157	0.8565
2166	0.8555
2175	0.8544
2184	0.8532
2193	0.8516
2202	0.8501
2211	0.85
2220	0.8505
2229	0.8522
2238	0.8545
2247	0.8554
2256	0.8548
2265	0.8526
2274	0.8499
2283	0.8469
2292	0.8443
2301	0.8448
2310	0.8457
2319	0.8468
2328	0.8476
2337	0.8474
2346	0.847
2355	0.8472
2364	0.8489
2373	0.8499
2382	0.8492
2391	0.8468
2400	0.8441
2409	0.8418
2418	0.8402
2427	0.8394
2436	0.8391
2445	0.8399
2454	0.8407
2463	0.8414
2472	0.8407
2481	0.8372
2490	0.8359
2499	0.8359
2508	0.8354
2517	0.8328
2526	0.8287
2535	0.8245
2544	0.8197
2553	0.8181
2562	0.8252
2571	0.8308
2580	0.8323
2589	0.8325
2598	0.8322
2607	0.8313
2616	0.8298
2625	0.8283
2634	0.8268
2643	0.8251
2652	0.8232
2661	0.8206
2670	0.817
2679	0.8116
2688	0.8107
2697	0.8103
2706	0.8115
2715	0.8121
2724	0.8118
2733	0.81
2742	0.8057
2751	0.8002
2760	0.7943
2769	0.7899
2778	0.7868
2787	0.7842
2796	0.7771
2805	0.7712
2814	0.7752
2823	0.7723
2832	0.7577
2841	0.7466
2850	0.7381
2859	0.7184
2868	0.7044
2877	0.6924
2886	0.6912
2895	0.6915
2904	0.6918
2913	0.6775
2922	0.6541
2931	0.6277
2940	0.6245
2949	0.647
2958	0.6702
2967	0.6896
2976	0.702
2985	0.7084
2994	0.7078
3003	0.7134
3012	0.7078
3021	0.6973
3030	0.7015
3039	0.7064
3048	0.7064
3057	0.7102
3066	0.7287
3075	0.7193
3084	0.714
3093	0.7008
3102	0.6709
3111	0.6793
3120	0.6967
3129	0.7104
3138	0.7175
3147	0.7144
3156	0.7074
3165	0.6989
3174	0.6869
3183	0.6728
3192	0.6629
3201	0.6725
3210	0.6705
3219	0.6486
3228	0.6096
3237	0.5705
3246	0.5404
3255	0.5283
3264	0.4751
3273	0.4135
3282	0.3544
3291	0.3459
3300	0.3181
3309	0.3717
3318	0.446
3327	0.5203
3336	0.5946
3345	0.6567
3354	0.7039
3363	0.7244
3372	0.7406
3381	0.7547
3390	0.7645
3399	0.7719
3408	0.7772
3417	0.7811
3426	0.7845
3435	0.7876
3444	0.79
3453	0.7917
3462	0.7932
3471	0.794
3480	0.7947
3489	0.7947
3498	0.7948
3507	0.7949
3516	0.795
3525	0.795
3534	0.7952
3543	0.7954
3552	0.7956
3561	0.7958
3570	0.7959
3579	0.7958
3588	0.7957
3597	0.7956
3606	0.7955
3615	0.7954
3624	0.7951
3633	0.7947
3642	0.7943
3651	0.7938
3660	0.7934
3669	0.7933
3678	0.7933
3687	0.7934
3696	0.7935
3705	0.7935
3714	0.7936
3723	0.7933
3732	0.793
3741	0.7926
3750	0.7926
3759	0.7927
3768	0.7926
3777	0.7923
3786	0.792
3795	0.7917
