Infrared Spectrum: N,N,N',N-Tetraethylethylenediamine
Formula: C 10 H 24 N 2
CAS: 150-77-6
State: gas
Origin: EPA-IR VAPOR PHASE LIBRARY
1/CM	ABSORBANCE
549.8	0.002785
559.445	0.002425
569.09	0.001865
578.734	0.0011719
588.379	0.0007073
598.024	0.0004359
607.669	0.000571
617.313	0.0002317
626.958	0.0002839
636.603	8.8e-05
646.248	0.0002009
655.893	0.00027826
665.537	0.0002306
675.182	0.00036074
684.827	0.0006738
694.472	0.0004285
704.116	0.0011786
713.761	0.002035
723.406	0.003575
733.051	0.005455
742.695	0.007115
752.34	0.007395
761.985	0.006015
771.63	0.005675
781.275	0.006335
790.919	0.007825
800.564	0.009045
810.209	0.007695
819.854	0.004195
829.498	0.002455
839.143	0.001835
848.788	0.001475
858.433	0.001315
868.078	0.0012017
877.722	0.001735
887.367	0.002115
897.012	0.003015
906.657	0.003285
916.301	0.003395
925.946	0.003075
935.591	0.002655
945.236	0.002925
954.88	0.003445
964.525	0.005025
974.17	0.007005
983.815	0.008985
993.46	0.010225
1003.1	0.009605
1012.75	0.010065
1022.39	0.011885
1032.04	0.016475
1041.68	0.024775
1051.33	0.037935
1060.97	0.051575
1070.62	0.051825
1080.26	0.045915
1089.91	0.040395
1099.55	0.036225
1109.2	0.030955
1118.84	0.025685
1128.49	0.020805
1138.13	0.019335
1147.78	0.020475
1157.42	0.020135
1167.07	0.016665
1176.71	0.015515
1186.36	0.019715
1196	0.032795
1205.64	0.041755
1215.29	0.027135
1224.93	0.014605
1234.58	0.010485
1244.22	0.010825
1253.87	0.012855
1263.51	0.015245
1273.16	0.017125
1282.8	0.021555
1292.45	0.027265
1302.09	0.027825
1311.74	0.024475
1321.38	0.022605
1331.03	0.024445
1340.67	0.028995
1350.32	0.031895
1359.96	0.032725
1369.61	0.042005
1379.25	0.052565
1388.9	0.043925
1398.54	0.023805
1408.18	0.012725
1417.83	0.009215
1427.47	0.008955
1437.12	0.011575
1446.76	0.017015
1456.41	0.022175
1466.05	0.024045
1475.7	0.020245
1485.34	0.011545
1494.99	0.006565
1504.63	0.004885
1514.28	0.003995
1523.92	0.003425
1533.57	0.003085
1543.21	0.002755
1552.86	0.002355
1562.5	0.002135
1572.15	0.002025
1581.79	0.001935
1591.44	0.001775
1601.08	0.001785
1610.73	0.001715
1620.37	0.001685
1630.01	0.001695
1639.66	0.001635
1649.3	0.001485
1658.95	0.001475
1668.59	0.001355
1678.24	0.0011837
1687.88	0.0010691
1697.53	0.0010392
1707.17	0.0008833
1716.82	0.0009799
1726.46	0.0008309
1736.11	0.0008834
1745.75	0.0008577
1755.4	0.0009442
1765.04	0.0010036
1774.69	0.0011028
1784.33	0.0010737
1793.98	0.0012517
1803.62	0.001375
1813.27	0.001385
1822.91	0.001365
1832.55	0.001295
1842.2	0.0012239
1851.84	0.001161
1861.49	0.0010532
1871.13	0.0010047
1880.78	0.0009893
1890.42	0.0010653
1900.07	0.0009473
1909.71	0.0009266
1919.36	0.0010188
1929	0.0009885
1938.65	0.0011159
1948.29	0.0011804
1957.94	0.0010102
1967.58	0.0009935
1977.23	0.0008832
1986.87	0.0008286
1996.52	0.0008374
2006.16	0.0007307
2015.81	0.0007384
2025.45	0.0007959
2035.1	0.0008034
2044.74	0.0008121
2054.38	0.000964
2064.03	0.000975
2073.67	0.0010855
2083.32	0.0010941
2092.96	0.001092
2102.61	0.0010909
2112.25	0.0010124
2121.9	0.0010589
2131.54	0.0009637
2141.19	0.0008409
2150.83	0.000854
2160.48	0.0008635
2170.12	0.0009316
2179.77	0.000964
2189.41	0.0011086
2199.06	0.0008468
2208.7	0.0008192
2218.35	0.0008967
2227.99	0.0008469
2237.64	0.0009571
2247.28	0.0010527
2256.92	0.001093
2266.57	0.0011243
2276.21	0.0010918
2285.86	0.0011519
2295.5	0.0009661
2305.15	0.0010493
2314.79	0.0009693
2324.44	0.0009006
2334.08	0.001051
2343.73	0.0011613
2353.37	0.0011271
2363.02	0.0012472
2372.66	0.001325
2382.31	0.0012398
2391.95	0.001375
2401.6	0.001305
2411.24	0.001355
2420.89	0.001525
2430.53	0.001465
2440.18	0.001345
2449.82	0.0012695
2459.47	0.0011594
2469.11	0.0012511
2478.75	0.001285
2488.4	0.001345
2498.04	0.001425
2507.69	0.001615
2517.33	0.001825
2526.98	0.001945
2536.62	0.002215
2546.27	0.002455
2555.91	0.002815
2565.56	0.003335
2575.2	0.003665
2584.85	0.003875
2594.49	0.003955
2604.14	0.004105
2613.78	0.004495
2623.43	0.005085
2633.07	0.005955
2642.72	0.006905
2652.36	0.007915
2662.01	0.008875
2671.65	0.009905
2681.29	0.011205
2690.94	0.012425
2700.58	0.014265
2710.23	0.016555
2719.87	0.018565
2729.52	0.020335
2739.16	0.021665
2748.81	0.024975
2758.45	0.029855
2768.1	0.035715
2777.74	0.045295
2787.39	0.063415
2797.03	0.089455
2806.68	0.106345
2816.32	0.103385
2825.97	0.087065
2835.61	0.067435
2845.26	0.052325
2854.9	0.044085
2864.55	0.044825
2874.19	0.056955
2883.84	0.065835
2893.48	0.062095
2903.12	0.063145
2912.77	0.069985
2922.41	0.084805
2932.06	0.112565
2941.7	0.126085
2951.35	0.109905
2960.99	0.122455
2970.64	0.181795
2980.28	0.175375
2989.93	0.087535
2999.57	0.039025
3009.22	0.022735
3018.86	0.016045
3028.51	0.012205
3038.15	0.009965
3047.8	0.008895
3057.44	0.007585
3067.09	0.007045
3076.73	0.006005
3086.38	0.005675
3096.02	0.005135
3105.67	0.004765
3115.31	0.004125
3124.95	0.003775
3134.6	0.003475
3144.24	0.003205
3153.89	0.002955
3163.53	0.002815
3173.18	0.002325
3182.82	0.002275
3192.47	0.001805
3202.11	0.001675
3211.76	0.001455
3221.4	0.001059
3231.05	0.0011293
3240.69	0.0010559
3250.34	0.0010382
3259.98	0.0010286
3269.63	0.0009955
3279.27	0.0006425
3288.92	0.0007036
3298.56	0.0006902
3308.21	0.0007339
3317.85	0.0007091
3327.49	0.00035948
3337.14	0.0005525
3346.78	0.0006759
3356.43	0.000497
3366.07	0.0005815
3375.72	0.0005674
3385.36	0.0004228
3395.01	0.0004435
3404.65	0.0005848
3414.3	0.0004222
3423.94	0.000336
3433.59	0.0003988
3443.23	0.0006569
3452.88	0.0005174
3462.52	0.0004713
3472.17	0.00035331
3481.81	0.0002358
3491.46	0.0004294
3501.1	0.0003962
3510.75	0.0005115
3520.39	0.0004582
3530.04	0.0004381
3539.68	0.0005069
3549.32	0.000226
3558.97	0.00055
3568.61	0.0003899
3578.26	0.00036469
3587.9	0.0004803
3597.55	0.0005192
3607.19	0.0004015
3616.84	0.00032818
3626.48	0.0003934
3636.13	0.0002338
3645.77	0.0005026
3655.42	0.0005735
3665.06	0.0003701
3674.71	0.0002133
3684.35	0.0005963
3694	0.0004278
3703.64	0.00036248
3713.29	0.0006077
3722.93	0.0006881
3732.58	0.0005378
3742.22	0.0006526
3751.86	0.0005742
3761.51	0.0005656
3771.15	0.00037638
3780.8	0.0004734
3790.44	0.000628
3800.09	0.0004581
3809.73	0.0007556
3819.38	0.0004503
3829.02	0.0006578
3838.67	0.0004835
3848.31	0.00038296
3857.96	0.0007757
3867.6	0.0007163
3877.25	0.0008405
3886.89	0.0006513
3896.54	0.0008977
3906.18	0.0006099
3915.83	0.0007019
3925.47	0.0007884
3935.12	0.0011605
3944.76	0.0010629
3954.41	0.000853
3964.05	0.0009228
3973.69	0.0012614
3983.34	0.0008828
3992.98	0.0008825
