Infrared Spectrum: Merphos
Formula: C 12 H 27 P S 3
CAS: 150-50-5
State: gas
Instrument: HP-GC/MS/IRD
Origin: NIST Mass Spectrometry Data Center
1/CM	ABSORBANCE
550	0.154007
562	0.145795
574	0.0562542
586	0.0167214
598	0.0062988
610	0.0039498
622	0.0040542
634	0.0050982
646	0.0046806
658	0.002871
670	0.002088
682	0.0022446
694	0.0034278
706	0.0050286
718	0.0051504
730	0.0043326
742	0.0062988
754	0.0052722
766	0.0029406
778	0.0036018
790	0.0026796
802	0.0010092
814	0.0003306
826	5.22e-05
838	5.22e-05
850	0.0002436
862	0.000783
874	0.002175
886	0.00174
898	0.001479
910	0.0019662
922	0.0018096
934	0.0007482
946	0.0002262
958	0.0002088
970	0.000348
982	0.0004176
994	0.0006264
1006	0.0004698
1018	0.0002784
1030	0.000348
1042	0.00087
1054	0.001392
1066	0.0016008
1078	0.00261
1090	0.0025926
1102	0.0027318
1114	0.0012354
1126	0.0008004
1138	0.0007134
1150	0.0009048
1162	0.001392
1174	0.002784
1186	0.005829
1198	0.013137
1210	0.0329034
1222	0.0322074
1234	0.029493
1246	0.0126672
1258	0.0098136
1270	0.0175044
1282	0.021228
1294	0.017226
1306	0.009744
1318	0.0049068
1330	0.0039672
1342	0.0057072
1354	0.0055854
1366	0.0045066
1378	0.0055854
1390	0.0067164
1402	0.0047328
1414	0.006003
1426	0.0095178
1438	0.0128238
1450	0.0134154
1462	0.0153642
1474	0.0115014
1486	0.005133
1498	0.0029232
1510	0.0018966
1522	0.0013572
1534	0.0010266
1546	0.0007656
1558	0.0005568
1570	0.0004524
1582	0.000435
1594	0.0003306
1606	0.0002958
1618	0.0003132
1630	0.0002784
1642	0.0002436
1654	0.000261
1666	0.0002436
1678	0.0002088
1690	0.0002088
1702	0.000174
1714	0.0001218
1726	0.0001044
1738	6.96e-05
1750	1.74e-05
1762	3.48e-05
1774	6.96e-05
1786	5.22e-05
1798	1.74e-05
1810	0
1822	0
1834	0
1846	1.74e-05
1858	3.48e-05
1870	1.74e-05
1882	0
1894	1.74e-05
1906	5.22e-05
1918	0.0001044
1930	8.7e-05
1942	5.22e-05
1954	5.22e-05
1966	5.22e-05
1978	6.96e-05
1990	0.0001044
2002	0.0001392
2014	0.0002088
2026	0.0002262
2038	0.0002262
2050	0.0002088
2062	0.0001566
2074	0.0001218
2086	0.0001044
2098	0.0001044
2110	8.7e-05
2122	0.0001392
2134	0.0001218
2146	0.0001392
2158	0.0001566
2170	0.0001218
2182	0.000174
2194	0.000174
2206	0.0001392
2218	8.7e-05
2230	5.22e-05
2242	6.96e-05
2254	8.7e-05
2266	6.96e-05
2278	5.22e-05
2290	1.74e-05
2302	6.96e-05
2314	0.0001218
2326	0.0001218
2338	0.0001914
2350	0.0002958
2362	0.000348
2374	0.0002958
2386	0.0002784
2398	0.0002784
2410	0.0003132
2422	0.0002958
2434	0.0003654
2446	0.0002262
2458	0.0001218
2470	5.22e-05
2482	6.96e-05
2494	6.96e-05
2506	0.0001392
2518	0.0001914
2530	0.0002088
2542	0.0002262
2554	0.0002262
2566	0.0002436
2578	0.0002436
2590	0.000261
2602	0.0002958
2614	0.0004002
2626	0.0005568
2638	0.0007308
2650	0.0009744
2662	0.0010614
2674	0.0009918
2686	0.0010266
2698	0.0009396
2710	0.0010614
2722	0.001218
2734	0.0015486
2746	0.0020706
2758	0.001914
2770	0.001914
2782	0.0023664
2794	0.0030798
2806	0.0038454
2818	0.0052548
2830	0.007569
2842	0.0112752
2854	0.020271
2866	0.0303978
2878	0.040542
2890	0.0407682
2902	0.0362268
2914	0.045588
2926	0.0654588
2938	0.0904974
2950	0.0798834
2962	0.0833286
2974	0.0913152
2986	0.0372882
2998	0.0177654
3010	0.0106836
3022	0.0074124
3034	0.0056376
3046	0.0042108
3058	0.0032712
3070	0.0028014
3082	0.0025752
3094	0.0022794
3106	0.0019836
3118	0.0018096
3130	0.001653
3142	0.0014616
3154	0.0012528
3166	0.0012006
3178	0.0011136
3190	0.0010092
3202	0.00087
3214	0.0007656
3226	0.0004872
3238	0.000435
3250	0.000348
3262	0.0003132
3274	0.0003132
3286	0.0002436
3298	0.0002262
3310	0.0002262
3322	0.0001566
3334	0.0002088
3346	0.0001566
3358	0.0002088
3370	0.0002262
3382	0.000174
3394	0.0002436
3406	0.0002262
3418	0.0001566
3430	0.0001392
3442	0.0001218
3454	6.96e-05
3466	6.96e-05
3478	0.0001218
3490	5.22e-05
3502	1.74e-05
3514	6.96e-05
3526	5.22e-05
3538	6.96e-05
3550	0.0001392
3562	8.7e-05
3574	0.0001218
3586	6.96e-05
3598	6.96e-05
3610	8.7e-05
3622	0.0001392
3634	0.0001566
3646	0.0001392
3658	0.0001914
3670	0.0001914
3682	0.0002262
3694	0.0002436
3706	0.000261
3718	0.0002262
3730	0.0002262
3742	0.0001914
3754	0.000174
3766	0.0002088
3778	0.0002784
3790	0.0003132
3802	0.0003132
3814	0.000261
3826	0.000261
3838	0.0002784
