Infrared Spectrum: 3,4-Dimethoxybenzylideneacetone
Formula: C 12 H 14 O 3
CAS: 15001-27-1
State: gas
Origin: EPA-IR VAPOR PHASE LIBRARY
1/CM	ABSORBANCE
549.8	0.01014
559.445	0.00655
569.09	0.00352
578.735	0.00295
588.38	0.00279
598.025	0.00308
607.67	0.00292
617.315	0.00227
626.96	0.0019901
636.605	0.0018617
646.251	0.0013952
655.896	0.00107854
665.541	0.000818
675.186	0.000863
684.831	0.000839
694.476	0.000699
704.121	0.000891
713.766	0.00107676
723.411	0.0016358
733.056	0.00297
742.701	0.00414
752.346	0.00387
761.991	0.00402
771.636	0.00379
781.281	0.00329
790.926	0.00599
800.571	0.00943
810.216	0.00873
819.861	0.00545
829.507	0.00326
839.152	0.00269
848.797	0.0028
858.442	0.00335
868.087	0.0036
877.732	0.00378
887.377	0.00427
897.022	0.00413
906.667	0.00373
916.312	0.00431
925.957	0.00576
935.602	0.0072
945.247	0.00737
954.892	0.00807
964.537	0.0145
974.182	0.01908
983.827	0.0134
993.472	0.01151
1003.12	0.01476
1012.76	0.02091
1022.41	0.02975
1032.05	0.03377
1041.7	0.02406
1051.34	0.01165
1060.99	0.0066
1070.63	0.00505
1080.28	0.00464
1089.92	0.00483
1099.57	0.00607
1109.21	0.01026
1118.86	0.02025
1128.5	0.02864
1138.15	0.02852
1147.79	0.02805
1157.44	0.03456
1167.08	0.03515
1176.73	0.02655
1186.37	0.01485
1196.02	0.01277
1205.66	0.01589
1215.31	0.02566
1224.95	0.04311
1234.6	0.07061
1244.24	0.08637
1253.89	0.07355
1263.53	0.07963
1273.18	0.07736
1282.82	0.05234
1292.47	0.04291
1302.11	0.03075
1311.76	0.02026
1321.4	0.01479
1331.05	0.01189
1340.69	0.01043
1350.34	0.0131
1359.98	0.01865
1369.63	0.01575
1379.27	0.0099
1388.92	0.00836
1398.56	0.01127
1408.21	0.01832
1417.85	0.02012
1427.5	0.01327
1437.14	0.01451
1446.79	0.01724
1456.43	0.0164
1466.08	0.0189
1475.73	0.01747
1485.37	0.0193
1495.02	0.03842
1504.66	0.07302
1514.31	0.06513
1523.95	0.02843
1533.6	0.01359
1543.24	0.00967
1552.89	0.00973
1562.53	0.01313
1572.18	0.0185
1581.82	0.01901
1591.47	0.02261
1601.11	0.03313
1610.76	0.0476
1620.4	0.04153
1630.05	0.01777
1639.69	0.00903
1649.34	0.00718
1658.98	0.00795
1668.63	0.01065
1678.27	0.02242
1687.92	0.04792
1697.56	0.03613
1707.21	0.02917
1716.85	0.01774
1726.5	0.00842
1736.14	0.00571
1745.79	0.00389
1755.43	0.0032
1765.08	0.00301
1774.72	0.00285
1784.37	0.00267
1794.01	0.00235
1803.66	0.00217
1813.3	0.0020104
1822.95	0.0018993
1832.59	0.0018648
1842.24	0.0018556
1851.88	0.0017992
1861.53	0.0017912
1871.17	0.00182
1880.82	0.0017508
1890.46	0.0016237
1900.11	0.001541
1909.75	0.0014736
1919.4	0.0013416
1929.04	0.0013362
1938.69	0.0013677
1948.33	0.0014402
1957.98	0.0014683
1967.62	0.0015365
1977.27	0.0016029
1986.91	0.0016912
1996.56	0.001879
2006.2	0.00208
2015.85	0.00234
2025.49	0.00255
2035.14	0.00259
2044.78	0.0025
2054.43	0.00225
2064.07	0.0020085
2073.72	0.0017054
2083.36	0.0014492
2093.01	0.0012431
2102.65	0.00114038
2112.3	0.00111146
2121.94	0.0010209
2131.59	0.001034
2141.23	0.0010203
2150.88	0.00111987
2160.52	0.00111586
2170.17	0.00111802
2179.81	0.0011701
2189.46	0.00109681
2199.1	0.00111517
2208.75	0.0010361
2218.39	0.00110429
2228.04	0.00111617
2237.68	0.00113077
2247.33	0.00109666
2256.97	0.0011869
2266.62	0.0011909
2276.26	0.0012037
2285.91	0.00114394
2295.55	0.0010245
2305.2	0.000965
2314.84	0.000911
2324.49	0.000867
2334.13	0.000896
2343.78	0.000876
2353.42	0.000935
2363.07	0.000946
2372.72	0.000943
2382.36	0.000834
2392.01	0.000818
2401.65	0.000789
2411.3	0.000755
2420.94	0.000862
2430.59	0.000805
2440.23	0.000881
2449.88	0.000914
2459.52	0.000903
2469.17	0.0009908
2478.81	0.0009977
2488.46	0.00107256
2498.1	0.00110896
2507.75	0.0012358
2517.39	0.0012127
2527.04	0.001394
2536.68	0.0014501
2546.33	0.001353
2555.97	0.0014966
2565.62	0.0014582
2575.26	0.0014473
2584.91	0.0012358
2594.55	0.0013372
2604.2	0.0013544
2613.84	0.00114912
2623.49	0.00113581
2633.13	0.0010201
2642.78	0.000947
2652.42	0.000842
2662.07	0.000755
2671.71	0.00069
2681.36	0.000726
2691	0.000655
2700.65	0.000654
2710.29	0.000722
2719.94	0.000716
2729.58	0.000724
2739.23	0.000779
2748.87	0.000894
2758.52	0.000937
2768.16	0.0010107
2777.81	0.0012092
2787.45	0.0012644
2797.1	0.0016728
2806.74	0.00216
2816.39	0.00319
2826.03	0.00517
2835.68	0.00928
2845.32	0.01257
2854.97	0.00906
2864.61	0.00676
2874.26	0.00591
2883.9	0.00596
2893.55	0.00667
2903.19	0.00807
2912.84	0.01021
2922.48	0.01198
2932.13	0.01472
2941.77	0.0204
2951.42	0.02005
2961.06	0.01663
2970.71	0.01317
2980.35	0.01045
2990	0.01038
2999.64	0.01382
3009.29	0.01787
3018.93	0.01189
3028.58	0.00789
3038.22	0.00842
3047.87	0.00863
3057.51	0.00714
3067.16	0.00581
3076.8	0.00443
3086.45	0.00337
3096.09	0.00256
3105.74	0.00211
3115.38	0.0015683
3125.03	0.0013188
3134.67	0.0010035
3144.32	0.000766
3153.96	0.000534
3163.61	0.000566
3173.25	0.000634
3182.9	0.000521
3192.54	0.000557
3202.19	0.00041
3211.83	0.000377
3221.48	0.000352
3231.12	0.000159
3240.77	0.000198
3250.41	0.000132
3260.06	0.000159
3269.7	0.000222
3279.35	0.000199
3289	0.00024
3298.64	0.00031
3308.29	0.000212
3317.93	0.000387
3327.58	0.000411
3337.22	0.000111
3346.87	0.000398
3356.51	0.000493
3366.16	0.000574
3375.8	0.000483
3385.45	0.000563
3395.09	0.000652
3404.74	0.000678
3414.38	0.000459
3424.03	0.00033
3433.67	0.00018
3443.32	0.0001
3452.96	8.8e-05
3462.61	0.000237
3472.25	0.000152
3481.9	0.000263
3491.54	9.7e-05
3501.19	0.000254
3510.83	0.00029
3520.48	0.000274
3530.12	0.000246
3539.77	0.000214
3549.41	0.000276
3559.06	0.000264
3568.7	0.000279
3578.35	0.000177
3587.99	0.000178
3597.64	0.000187
3607.28	0.000308
3616.93	0.000236
3626.57	0.000318
3636.22	0.000381
3645.86	0.000373
3655.51	0.00037
3665.15	0.000109
3674.8	0.000273
3684.44	9.7e-05
3694.09	0.000273
3703.73	0.000314
3713.38	0.000236
3723.02	0.000297
3732.67	0.000382
3742.31	0.000309
3751.96	0.000284
3761.6	0.000362
3771.25	0.000401
3780.89	0.000403
3790.54	0.000221
3800.18	0.000553
3809.83	0.000349
3819.47	0.000198
3829.12	0.000299
3838.76	0.000291
3848.41	0.00024
3858.05	0.000472
3867.7	0.000403
3877.34	0.000174
3886.99	0.000313
3896.63	0.000537
3906.28	0.000268
3915.92	0.000459
3925.57	0.000414
3935.21	0.000359
3944.86	0.000453
3954.5	0.000202
3964.15	0.000411
3973.79	0.000446
3983.44	0.000624
3993.08	0.000432
