Infrared Spectrum: Methyl 3,5-di-t-butylsalicylate
Formula: C 16 H 24 O 3
CAS: 15018-03-8
State: gas
Origin: EPA-IR VAPOR PHASE LIBRARY
1/CM	ABSORBANCE
549.8	0.00375
559.445	0.00178
569.09	0.00164
578.734	0.00178
588.379	0.00215
598.024	0.00241
607.669	0.00234
617.313	0.00286
626.958	0.004
636.603	0.00885
646.248	0.00902
655.893	0.00381
665.537	0.0035
675.182	0.00413
684.827	0.00483
694.472	0.00636
704.116	0.0095
713.761	0.01617
723.406	0.02006
733.051	0.01288
742.695	0.01154
752.34	0.00644
761.985	0.00334
771.63	0.00229
781.275	0.00268
790.919	0.0072
800.564	0.02244
810.209	0.01596
819.854	0.01314
829.498	0.00551
839.143	0.00229
848.788	0.00177
858.433	0.00225
868.078	0.00385
877.722	0.00589
887.367	0.00654
897.012	0.00543
906.657	0.00341
916.301	0.00505
925.946	0.00418
935.591	0.00281
945.236	0.00184
954.88	0.00192
964.525	0.0023
974.17	0.00443
983.815	0.01252
993.46	0.02361
1003.1	0.01335
1012.75	0.00619
1022.39	0.00698
1032.04	0.00427
1041.68	0.00385
1051.33	0.00305
1060.97	0.0041
1070.62	0.00433
1080.26	0.00663
1089.91	0.01017
1099.55	0.02196
1109.2	0.04607
1118.84	0.04054
1128.49	0.02054
1138.13	0.01934
1147.78	0.02085
1157.42	0.02498
1167.07	0.03933
1176.71	0.07171
1186.36	0.09334
1196	0.09869
1205.64	0.09583
1215.29	0.08771
1224.93	0.06677
1234.58	0.08171
1244.22	0.13839
1253.87	0.11045
1263.51	0.07851
1273.16	0.08628
1282.8	0.06875
1292.45	0.04555
1302.09	0.03211
1311.74	0.04021
1321.38	0.06948
1331.03	0.0886
1340.67	0.0695
1350.32	0.04328
1359.96	0.04385
1369.61	0.04867
1379.25	0.03021
1388.9	0.02999
1398.54	0.03687
1408.18	0.02803
1417.83	0.04055
1427.47	0.0621
1437.12	0.10014
1446.76	0.09666
1456.41	0.04963
1466.05	0.04355
1475.7	0.04302
1485.34	0.03278
1494.99	0.01577
1504.63	0.01006
1514.28	0.00782
1523.92	0.00698
1533.57	0.00652
1543.21	0.0068
1552.86	0.00693
1562.5	0.00613
1572.15	0.00676
1581.79	0.00901
1591.44	0.01682
1601.08	0.0287
1610.73	0.02079
1620.37	0.01011
1630.01	0.00777
1639.66	0.00898
1649.3	0.01157
1658.95	0.01432
1668.59	0.02766
1678.24	0.09874
1687.88	0.14659
1697.53	0.05063
1707.17	0.01978
1716.82	0.0123
1726.46	0.00981
1736.11	0.01001
1745.75	0.01487
1755.4	0.0085
1765.04	0.00427
1774.69	0.00334
1784.33	0.00379
1793.98	0.00463
1803.62	0.00422
1813.27	0.00252
1822.91	0.00194
1832.55	0.0015
1842.2	0.00117
1851.84	0.0008997
1861.49	0.0008523
1871.13	0.0008135
1880.78	0.0007454
1890.42	0.0007804
1900.07	0.0008179
1909.71	0.0009234
1919.36	0.0008968
1929	0.0009413
1938.65	0.0008479
1948.29	0.0009528
1957.94	0.00123
1967.58	0.00158
1977.23	0.00195
1986.87	0.00201
1996.52	0.0016
2006.16	0.00127
2015.81	0.00117
2025.45	0.0009194
2035.1	0.0008205
2044.74	0.0008458
2054.38	0.0009813
2064.03	0.00109
2073.67	0.00128
2083.32	0.00122
2092.96	0.00121
2102.61	0.00122
2112.25	0.00113
2121.9	0.00101
2131.54	0.0009124
2141.19	0.0007791
2150.83	0.0008221
2160.48	0.000756
2170.12	0.0007254
2179.77	0.000709
2189.41	0.0007734
2199.06	0.0007521
2208.7	0.0006844
2218.35	0.0006267
2227.99	0.0005782
2237.64	0.0006104
2247.28	0.0006708
2256.92	0.0006401
2266.57	0.0005286
2276.21	0.000456
2285.86	0.0006472
2295.5	0.0006456
2305.15	0.0007831
2314.79	0.0008191
2324.44	0.0009449
2334.08	0.0006571
2343.73	0.0005405
2353.37	0.0007458
2363.02	0.0006576
2372.66	0.0008392
2382.31	0.000927
2391.95	0.00103
2401.6	0.00107
2411.24	0.00105
2420.89	0.00114
2430.53	0.00103
2440.18	0.000898
2449.82	0.00111
2459.47	0.0009713
2469.11	0.0012
2478.75	0.00126
2488.4	0.00136
2498.04	0.00119
2507.69	0.00132
2517.33	0.00131
2526.98	0.00134
2536.62	0.00155
2546.27	0.00158
2555.91	0.00184
2565.56	0.00191
2575.2	0.00179
2584.85	0.00192
2594.49	0.00199
2604.14	0.00187
2613.78	0.00195
2623.43	0.00192
2633.07	0.00203
2642.72	0.00205
2652.36	0.00214
2662.01	0.00215
2671.65	0.00231
2681.29	0.00242
2690.94	0.00235
2700.58	0.00266
2710.23	0.00315
2719.87	0.0037
2729.52	0.00368
2739.16	0.00365
2748.81	0.00375
2758.45	0.00378
2768.1	0.00382
2777.74	0.00416
2787.39	0.00465
2797.03	0.00458
2806.68	0.00481
2816.32	0.00555
2825.97	0.0063
2835.61	0.00782
2845.26	0.01052
2854.9	0.01635
2864.55	0.02508
2874.19	0.03631
2883.84	0.03996
2893.48	0.03789
2903.12	0.0417
2912.77	0.0514
2922.41	0.05356
2932.06	0.05046
2941.7	0.05658
2951.35	0.09216
2960.99	0.16878
2970.64	0.16409
2980.28	0.05908
2989.93	0.02723
2999.57	0.02247
3009.22	0.02438
3018.86	0.01652
3028.51	0.01371
3038.15	0.01273
3047.8	0.01117
3057.44	0.01039
3067.09	0.01029
3076.73	0.01037
3086.38	0.01123
3096.02	0.01228
3105.67	0.01242
3115.31	0.01282
3124.95	0.01374
3134.6	0.01523
3144.24	0.01701
3153.89	0.01918
3163.53	0.02139
3173.18	0.02316
3182.82	0.02342
3192.47	0.02253
3202.11	0.0215
3211.76	0.0205
3221.4	0.01946
3231.05	0.01879
3240.69	0.01773
3250.34	0.01693
3259.98	0.01646
3269.63	0.01605
3279.27	0.0153
3288.92	0.0149
3298.56	0.01399
3308.21	0.01291
3317.85	0.01156
3327.49	0.01091
3337.14	0.00972
3346.78	0.00892
3356.43	0.00838
3366.07	0.00768
3375.72	0.00718
3385.36	0.0064
3395.01	0.00575
3404.65	0.00547
3414.3	0.00511
3423.94	0.00524
3433.59	0.00561
3443.23	0.00703
3452.88	0.00801
3462.52	0.0073
3472.17	0.006
3481.81	0.00499
3491.46	0.00426
3501.1	0.00369
3510.75	0.00316
3520.39	0.00267
3530.04	0.00225
3539.68	0.00198
3549.32	0.00174
3558.97	0.00145
3568.61	0.00135
3578.26	0.00148
3587.9	0.0009617
3597.55	0.00103
3607.19	0.0008839
3616.84	0.0007596
3626.48	0.0007257
3636.13	0.000374
3645.77	0.0004824
3655.42	0.0003819
3665.06	8.374e-05
3674.71	0.0004298
3684.35	0.0004827
3694	0.0002069
3703.64	0.0001462
3713.29	0.000223
3722.93	0.0001987
3732.58	0.0002593
3742.22	0.0001794
3751.86	0.0001283
3761.51	0.0004123
3771.15	0.0004053
3780.8	0.0002708
3790.44	0.0002344
3800.09	0.0003619
3809.73	0.0004379
3819.38	0.000431
3829.02	0.0003391
3838.67	0.0003963
3848.31	0.0003087
3857.96	0.0002833
3867.6	0.0003362
3877.25	0.000531
3886.89	0.0006253
3896.54	0.0007353
3906.18	0.0003358
3915.83	0.0004468
3925.47	0.0004198
3935.12	0.0006361
3944.76	0.000415
3954.41	0.0007295
3964.05	0.0007134
3973.69	0.0004215
3983.34	0.0005386
3992.98	0.0006981
