Infrared Spectrum: 4-(CHLOROFORMYL)BUTYRIC ACID, METHYL ESTER
Formula: C6 H9 Cl O3
CAS: 1501-26-4
State: SOLUTION (10% CCl4 FOR 3800-1330, 10% CS2 FOR 1330-350 CM^-^1) VS SOLVENT
Class: COBLENTZ II
Instrument: PERKIN-ELMER 225
Sampling: TRANSMISSION
Path length: 0.011 CM, 0.011 CM (KBr CELL)
Resolution: 2
Origin: DOW CHEMICAL COMPANY
1/CM	TRANSMITTANCE
255.792	0.71
265.185	0.71
274.577	0.71
283.97	0.71
293.363	0.709
302.755	0.709
312.148	0.709
321.54	0.709
330.933	0.709
340.326	0.709
349.718	0.727
359.111	0.769
368.504	0.8
377.896	0.809
387.289	0.703
396.681	0.691
406.074	0.709
415.467	0.768
424.859	0.725
434.252	0.595
443.645	0.529
453.037	0.741
462.43	0.809
471.823	0.818
481.215	0.809
490.608	0.828
500	0.834
509.393	0.865
518.786	0.877
528.178	0.873
537.571	0.859
546.964	0.827
556.356	0.71
565.749	0.631
575.141	0.657
584.534	0.632
593.927	0.69
603.319	0.772
612.712	0.814
622.105	0.833
631.497	0.827
640.89	0.815
650.283	0.797
659.675	0.758
669.068	0.749
678.46	0.629
687.853	0.617
697.246	0.709
706.638	0.617
716.031	0.588
725.424	0.545
734.816	0.382
744.209	0.48
753.602	0.69
762.994	0.746
772.387	0.713
781.779	0.672
791.172	0.634
800.565	0.564
809.957	0.56
819.35	0.637
828.743	0.749
838.135	0.74
847.528	0.741
856.92	0.682
866.313	0.46
875.706	0.545
885.098	0.617
894.491	0.734
903.884	0.774
913.276	0.741
922.669	0.6
932.062	0.348
941.454	0.364
950.847	0.348
960.239	0.39
969.632	0.346
979.025	0.399
988.417	0.454
997.81	0.401
1007.2	0.412
1016.6	0.405
1025.99	0.438
1035.38	0.603
1044.77	0.589
1054.17	0.48
1063.56	0.589
1072.95	0.576
1082.34	0.542
1091.74	0.684
1101.13	0.803
1110.52	0.825
1119.91	0.808
1129.31	0.73
1138.7	0.533
1148.09	0.266
1157.48	0.135
1166.88	0.131
1176.27	0.178
1185.66	0.246
1195.06	0.148
1204.45	0.125
1213.84	0.125
1223.23	0.179
1232.63	0.259
1242.02	0.255
1251.41	0.259
1260.8	0.371
1270.2	0.429
1279.59	0.495
1288.98	0.553
1298.37	0.533
1307.77	0.544
1317.16	0.467
1326.55	0.511
1335.94	0.557
1345.34	0.597
1354.73	0.597
1364.12	0.4569
1373.52	0.3491
1382.91	0.526
1392.3	0.731
1401.69	0.5809
1411.09	0.4241
1420.48	0.429
1429.87	0.48
1439.26	0.2091
1448.66	0.346
1458.05	0.469
1467.44	0.7021
1476.83	0.852
1486.23	0.889
1495.62	0.923
1505.01	0.936
1514.4	0.949
1523.8	0.955
1533.19	0.969
1542.58	0.976
1551.98	0.971
1561.37	0.966
1570.76	0.966
1580.15	0.966
1589.55	0.963
1598.94	0.961
1608.33	0.954
1617.72	0.958
1627.12	0.954
1636.51	0.943
1645.9	0.936
1655.29	0.93
1664.69	0.915
1674.08	0.892
1683.47	0.856
1692.86	0.774
1702.26	0.65
1711.65	0.511
1721.04	0.3619
1730.44	0.1069
1739.83	0.007
1749.22	0.017
1758.61	0.1431
1768.01	0.275
1777.4	0.241
1786.79	0.0569
1796.18	0.013
1805.58	0.02
1814.97	0.103
1824.36	0.3251
1833.75	0.5501
1843.15	0.681
1852.54	0.761
1861.93	0.815
1871.32	0.839
1880.72	0.879
1890.11	0.907
1899.5	0.926
1908.9	0.935
1918.29	0.942
1927.68	0.942
1937.07	0.941
1946.47	0.946
1955.86	0.954
1965.25	0.96
1974.64	0.963
1984.04	0.961
1993.43	0.961
2002.82	0.9665
2012.21	0.9665
2021.61	0.966
2031	0.966
2040.39	0.9665
2049.78	0.967
2059.18	0.9625
2068.57	0.962
2077.96	0.969
2087.36	0.9725
2096.75	0.9795
2106.14	0.9855
2115.53	0.991
2124.93	0.992
2134.32	0.995
2143.71	0.995
2153.1	0.9961
2162.5	0.997
2171.89	0.997
2181.28	0.997
2190.67	0.997
2200.07	0.9944
2209.46	0.9899
2218.85	0.989
2228.24	0.9855
2237.64	0.983
2247.03	0.9871
2256.42	0.9915
2265.82	0.991
2275.21	0.989
2284.6	0.9915
2293.99	1
2303.39	0.998
2312.78	1.001
2322.17	1.0045
2331.56	1.002
2340.96	1.004
2350.35	1
2359.74	1.0226
2369.13	1.0073
2378.53	0.9933
2387.92	0.991
2397.31	0.991
2406.7	0.991
2416.1	0.991
2425.49	0.991
2434.88	0.992
2444.28	0.992
2453.67	0.992
2463.06	0.992
2472.45	0.992
2481.85	0.9898
2491.24	0.9916
2500.63	0.992
2510.02	0.991
2519.42	0.9902
2528.81	0.991
2538.2	0.9902
2547.59	0.9898
2556.99	0.988
2566.38	0.9854
2575.77	0.983
2585.16	0.98
2594.56	0.98
2603.95	0.98
2613.34	0.98
2622.74	0.98
2632.13	0.982
2641.52	0.982
2650.91	0.982
2660.31	0.982
2669.7	0.982
2679.09	0.982
2688.48	0.98
2697.88	0.9794
2707.27	0.98
2716.66	0.98
2726.05	0.98
2735.45	0.98
2744.84	0.979
2754.23	0.976
2763.62	0.974
2773.02	0.973
2782.41	0.973
2791.8	0.9694
2801.2	0.9641
2810.59	0.9591
2819.98	0.9527
2829.37	0.9414
2838.77	0.9282
2848.16	0.8479
2857.55	0.8521
2866.94	0.896
2876.34	0.8815
2885.73	0.8554
2895.12	0.8467
2904.51	0.8208
2913.91	0.7531
2923.3	0.708
2932.69	0.6947
2942.08	0.6206
2951.48	0.3762
2960.87	0.3701
2970.26	0.6182
2979.66	0.6836
2989.05	0.7153
2998.44	0.6943
3007.83	0.703
3017.23	0.791
3026.62	0.803
3036.01	0.816
3045.4	0.8784
3054.8	0.941
3064.19	0.954
3073.58	0.957
3082.97	0.96
3092.37	0.963
3101.76	0.9684
3111.15	0.9724
3120.54	0.978
3129.94	0.98
3139.33	0.979
3148.72	0.98
3158.12	0.982
3167.51	0.9827
3176.9	0.982
3186.29	0.982
3195.69	0.9844
3205.08	0.985
3214.47	0.985
3223.86	0.985
3233.26	0.986
3242.65	0.986
3252.04	0.985
3261.43	0.9866
3270.83	0.988
3280.22	0.9866
3289.61	0.986
3299	0.986
3308.4	0.986
3317.79	0.986
3327.18	0.988
3336.58	0.991
3345.97	0.991
3355.36	0.992
3364.75	0.9947
3374.15	0.997
3383.54	0.998
3392.93	0.998
3402.32	0.998
3411.72	0.998
3421.11	0.998
3430.5	0.9943
3439.89	0.9925
3449.29	0.9805
3458.68	0.9633
3468.07	0.964
3477.46	0.9697
3486.86	0.9867
3496.25	1.0008
3505.64	1.001
3515.04	1
3524.43	0.9955
3533.82	0.9912
3543.21	0.9865
3552.61	0.9767
3562	0.9615
3571.39	0.958
3580.78	0.9608
3590.18	0.9685
3599.57	0.9808
3608.96	0.9933
3618.35	1.0008
3627.75	1.0065
3637.14	1.0055
3646.53	1.004
3655.92	1.0078
3665.32	1.0108
3674.71	1.0114
3684.1	1.008
3693.5	1.008
3702.89	1.008
3712.28	1.01
3721.67	1.011
3731.07	1.01
