Infrared Spectrum: 4-Benzoylbutyric acid
Formula: C 11 H 12 O 3
CAS: 1501-05-9
State: gas
Origin: EPA-IR VAPOR PHASE LIBRARY
1/CM	ABSORBANCE
549.8	0.0007343
559.445	0.0008779
569.09	0.001482
578.734	0.001402
588.379	0.0010045
598.024	0.0010535
607.669	0.0010977
617.313	0.0010565
626.958	0.0007572
636.603	0.0008324
646.248	0.0012153
655.893	0.0010908
665.537	0.001452
675.182	0.002092
684.827	0.003792
694.472	0.004482
704.116	0.002822
713.761	0.001742
723.406	0.001882
733.051	0.002842
742.695	0.003182
752.34	0.002612
761.985	0.001932
771.63	0.001262
781.275	0.0010138
790.919	0.0010208
800.564	0.0008142
810.209	0.0011995
819.854	0.001642
829.498	0.001322
839.143	0.001282
848.788	0.0007589
858.433	0.0011374
868.078	0.001362
877.722	0.001792
887.367	0.001372
897.012	0.0011161
906.657	0.0008543
916.301	0.0011276
925.946	0.001642
935.591	0.002072
945.236	0.002242
954.88	0.002652
964.525	0.003402
974.17	0.004462
983.815	0.005242
993.46	0.004252
1003.1	0.004112
1012.75	0.002842
1022.39	0.002632
1032.04	0.001862
1041.68	0.001872
1051.33	0.002422
1060.97	0.002152
1070.62	0.003002
1080.26	0.002662
1089.91	0.004032
1099.55	0.007242
1109.2	0.012932
1118.84	0.012142
1128.49	0.010052
1138.13	0.010262
1147.78	0.011122
1157.42	0.010922
1167.07	0.010642
1176.71	0.012482
1186.36	0.012222
1196	0.012762
1205.64	0.014212
1215.29	0.013672
1224.93	0.012272
1234.58	0.011832
1244.22	0.011902
1253.87	0.010722
1263.51	0.009162
1273.16	0.007722
1282.8	0.006462
1292.45	0.005542
1302.09	0.005672
1311.74	0.005682
1321.38	0.005802
1331.03	0.005512
1340.67	0.005072
1350.32	0.005132
1359.96	0.005922
1369.61	0.006662
1379.25	0.006602
1388.9	0.004582
1398.54	0.002562
1408.18	0.002042
1417.83	0.002192
1427.47	0.002522
1437.12	0.002902
1446.76	0.004602
1456.41	0.003742
1466.05	0.002692
1475.7	0.001992
1485.34	0.0011993
1494.99	0.0010071
1504.63	0.000694
1514.28	0.0007935
1523.92	0.0007309
1533.57	0.0006012
1543.21	0.0007201
1552.86	0.0005908
1562.5	0.0007992
1572.15	0.001068
1581.79	0.001502
1591.44	0.001692
1601.08	0.001762
1610.73	0.0010404
1620.37	0.0009777
1630.01	0.0007995
1639.66	0.0008432
1649.3	0.0009898
1658.95	0.001432
1668.59	0.001862
1678.24	0.003312
1687.88	0.007352
1697.53	0.014122
1707.17	0.013152
1716.82	0.006942
1726.46	0.007502
1736.11	0.013982
1745.75	0.019512
1755.4	0.014902
1765.04	0.007242
1774.69	0.003532
1784.33	0.002232
1793.98	0.001782
1803.62	0.001412
1813.27	0.0011459
1822.91	0.0007733
1832.55	0.0006979
1842.2	0.0005835
1851.84	0.0005361
1861.49	0.0005807
1871.13	0.0005218
1880.78	0.0005306
1890.42	0.0005654
1900.07	0.0006047
1909.71	0.0005751
1919.36	0.0005266
1929	0.0004403
1938.65	0.0006035
1948.29	0.000584
1957.94	0.000638
1967.58	0.0006271
1977.23	0.000518
1986.87	0.0003608
1996.52	0.0004359
2006.16	0.00031722
2015.81	0.0004648
2025.45	0.0003741
2035.1	0.0004293
2044.74	0.00032268
2054.38	0.0003285
2064.03	0.00029521
2073.67	0.00034939
2083.32	0.00030797
2092.96	0.000253237
2102.61	0.00027332
2112.25	0.00028534
2121.9	0.00030972
2131.54	0.00027871
2141.19	0.000231
2150.83	0.0002178
2160.48	0.000219
2170.12	0.00027711
2179.77	0.00031837
2189.41	0.00031434
2199.06	0.00031294
2208.7	0.00030176
2218.35	0.00032315
2227.99	0.0002417
2237.64	0.000365
2247.28	0.0003725
2256.92	0.00026943
2266.57	0.00029198
2276.21	0.00029414
2285.86	0.00033954
2295.5	0.00034338
2305.15	0.00034178
2314.79	0.0004285
2324.44	0.0003977
2334.08	0.00033854
2343.73	0.000362
2353.37	0.00028358
2363.02	0.00033938
2372.66	0.0003861
2382.31	0.0003721
2391.95	0.000128
2401.6	0.0003704
2411.24	0.00029799
2420.89	0.0002344
2430.53	0.0003921
2440.18	0.0002255
2449.82	0.00032056
2459.47	0.0002133
2469.11	0.0002259
2478.75	0.00030592
2488.4	0.0003656
2498.04	0.000259135
2507.69	0.00026638
2517.33	0.0002033
2526.98	0.0002022
2536.62	0.000352
2546.27	0.000258264
2555.91	0.0003835
2565.56	0.00031307
2575.2	0.00024822
2584.85	0.000118
2594.49	0.0002312
2604.14	0.00024873
2613.78	0.00027493
2623.43	0.0002359
2633.07	0.00025087
2642.72	0.0003689
2652.36	0.0003926
2662.01	0.00028675
2671.65	0.0003997
2681.29	0.00032238
2690.94	0.00037
2700.58	0.00034621
2710.23	0.0003721
2719.87	0.0004214
2729.52	0.0002188
2739.16	0.000402
2748.81	0.0003892
2758.45	0.0003952
2768.1	0.0004924
2777.74	0.00029692
2787.39	0.00031477
2797.03	0.00032089
2806.68	0.0004542
2816.32	0.0004007
2825.97	0.000752
2835.61	0.0006448
2845.26	0.0007523
2854.9	0.0007876
2864.55	0.0011447
2874.19	0.001562
2883.84	0.001952
2893.48	0.002172
2903.12	0.002472
2912.77	0.002752
2922.41	0.003132
2932.06	0.004132
2941.7	0.005422
2951.35	0.005092
2960.99	0.004582
2970.64	0.005242
2980.28	0.008542
2989.93	0.008022
2999.57	0.003912
3009.22	0.002052
3018.86	0.001432
3028.51	0.001582
3038.15	0.001702
3047.8	0.001562
3057.44	0.002052
3067.09	0.002772
3076.73	0.002872
3086.38	0.002222
3096.02	0.001852
3105.67	0.0010775
3115.31	0.0006583
3124.95	0.0004864
3134.6	0.0003552
3144.24	0.00030642
3153.89	0.000407
3163.53	0.0004541
3173.18	0.00032293
3182.82	0.0004598
3192.47	0.0003687
3202.11	0.000261496
3211.76	0.00034705
3221.4	0.000142
3231.05	0.000255975
3240.69	0.0001949
3250.34	0.0001839
3259.98	0.00035087
3269.63	0.000166
3279.27	0.00030259
3288.92	0.00031926
3298.56	0.00028847
3308.21	0.0001534
3317.85	0.0001634
3327.49	0.00030985
3337.14	0.00026981
3346.78	0.00024502
3356.43	0.0004162
3366.07	0.00031033
3375.72	0.0005399
3385.36	0.0005575
3395.01	0.00033857
3404.65	0.0003611
3414.3	0.0004135
3423.94	0.00039
3433.59	0.0002089
3443.23	0.000379
3452.88	0.00027832
3462.52	0.0005053
3472.17	0.0004686
3481.81	0.0003596
3491.46	0.000251497
3501.1	0.00024865
3510.75	0.0001528
3520.39	0.0004444
3530.04	0.000104
3539.68	0.0004549
3549.32	0.0004134
3558.97	0.00024721
3568.61	0.0003939
3578.26	0.0005159
3587.9	0.0003024
3597.55	0.0001882
3607.19	0.00030157
3616.84	0.000125
3626.48	4.7e-05
3636.13	8.8e-05
3645.77	0.0004492
3655.42	0.0003584
3665.06	0.0004067
3674.71	0.000361
3684.35	0.0002323
3694	0.0003739
3703.64	0.00024885
3713.29	0.000117
3722.93	0.000142
3732.58	0.00026849
3742.22	0.0002028
3751.86	0.00024948
3761.51	0.000121
3771.15	0.0001976
3780.8	0.0001808
3790.44	0.0003522
3800.09	0.00030525
3809.73	0.000138
3819.38	0.0002128
3829.02	0.000133
3838.67	0.0004897
3848.31	0.000381
3857.96	0.0002412
3867.6	0.0004826
3877.25	0.0006002
3886.89	0.0001817
3896.54	0.0002187
3906.18	0.0004336
3915.83	0.00034999
3925.47	0.0002008
3935.12	0.0002506
3944.76	0.00029185
3954.41	0.00033961
3964.05	0.0004431
3973.69	0.0003657
3983.34	0.0003783
3992.98	0.00028197
