Infrared Spectrum: Diethyl 2-acetylglutarate
Formula: C 11 H 18 O 5
CAS: 1501-06-0
State: gas
Origin: EPA-IR VAPOR PHASE LIBRARY
1/CM	ABSORBANCE
549.8	0.00274
559.445	0.00228
569.09	0.00237
578.734	0.00284
588.379	0.00344
598.024	0.00368
607.669	0.00386
617.313	0.00293
626.958	0.00255
636.603	0.00235
646.248	0.00199
655.893	0.0015
665.537	0.00158
675.182	0.00172
684.827	0.00162
694.472	0.00164
704.116	0.00172
713.761	0.00152
723.406	0.00187
733.051	0.00204
742.695	0.00225
752.34	0.00253
761.985	0.00354
771.63	0.00419
781.275	0.00475
790.919	0.00479
800.564	0.00488
810.209	0.00417
819.854	0.00442
829.498	0.00485
839.143	0.00576
848.788	0.00756
858.433	0.009
868.078	0.00696
877.722	0.00552
887.367	0.00486
897.012	0.00512
906.657	0.00579
916.301	0.00686
925.946	0.00763
935.591	0.00786
945.236	0.00865
954.88	0.00847
964.525	0.00762
974.17	0.00738
983.815	0.00843
993.46	0.00986
1003.1	0.01418
1012.75	0.02338
1022.39	0.03677
1032.04	0.04715
1041.68	0.05208
1051.33	0.04957
1060.97	0.03913
1070.62	0.03093
1080.26	0.0284
1089.91	0.0327
1099.55	0.03904
1109.2	0.03607
1118.84	0.03668
1128.49	0.05391
1138.13	0.08841
1147.78	0.12154
1157.42	0.13254
1167.07	0.13351
1176.71	0.131
1186.36	0.12422
1196	0.11036
1205.64	0.09841
1215.29	0.09413
1224.93	0.09307
1234.58	0.09336
1244.22	0.09024
1253.87	0.08191
1263.51	0.0694
1273.16	0.05733
1282.8	0.04794
1292.45	0.0427
1302.09	0.04269
1311.74	0.04326
1321.38	0.04065
1331.03	0.03538
1340.67	0.03215
1350.32	0.03598
1359.96	0.04491
1369.61	0.04934
1379.25	0.03903
1388.9	0.02396
1398.54	0.01861
1408.18	0.01593
1417.83	0.01583
1427.47	0.01793
1437.12	0.02019
1446.76	0.02191
1456.41	0.01971
1466.05	0.01766
1475.7	0.01521
1485.34	0.01024
1494.99	0.00696
1504.63	0.00538
1514.28	0.00457
1523.92	0.00424
1533.57	0.004
1543.21	0.00374
1552.86	0.00364
1562.5	0.00346
1572.15	0.0034
1581.79	0.00334
1591.44	0.00318
1601.08	0.00331
1610.73	0.00342
1620.37	0.00347
1630.01	0.00367
1639.66	0.0041
1649.3	0.00488
1658.95	0.00631
1668.59	0.0092
1678.24	0.01541
1687.88	0.02244
1697.53	0.02592
1707.17	0.03477
1716.82	0.06219
1726.46	0.11167
1736.11	0.14432
1745.75	0.17092
1755.4	0.18042
1765.04	0.11866
1774.69	0.05475
1784.33	0.02611
1793.98	0.01494
1803.62	0.00964
1813.27	0.00675
1822.91	0.00505
1832.55	0.004
1842.2	0.00331
1851.84	0.00286
1861.49	0.00271
1871.13	0.00268
1880.78	0.00259
1890.42	0.00252
1900.07	0.00244
1909.71	0.00212
1919.36	0.00201
1929	0.00192
1938.65	0.00186
1948.29	0.00186
1957.94	0.00175
1967.58	0.0017
1977.23	0.00178
1986.87	0.00177
1996.52	0.00181
2006.16	0.00196
2015.81	0.00193
2025.45	0.0018
2035.1	0.00192
2044.74	0.00196
2054.38	0.00209
2064.03	0.00225
2073.67	0.00259
2083.32	0.00341
2092.96	0.00565
2102.61	0.0116
2112.25	0.02107
2121.9	0.02315
2131.54	0.01217
2141.19	0.00437
2150.83	0.00231
2160.48	0.00177
2170.12	0.00129
2179.77	0.0011
2189.41	0.00102
2199.06	0.00102
2208.7	0.0009986
2218.35	0.0009265
2227.99	0.0009462
2237.64	0.00101
2247.28	0.0009574
2256.92	0.0009638
2266.57	0.00104
2276.21	0.00101
2285.86	0.00113
2295.5	0.00132
2305.15	0.00154
2314.79	0.00172
2324.44	0.00179
2334.08	0.00181
2343.73	0.00167
2353.37	0.00169
2363.02	0.00194
2372.66	0.00171
2382.31	0.00132
2391.95	0.001
2401.6	0.0009154
2411.24	0.000948
2420.89	0.0009426
2430.53	0.0009917
2440.18	0.000939
2449.82	0.0008833
2459.47	0.0008645
2469.11	0.0008399
2478.75	0.0007502
2488.4	0.0007704
2498.04	0.0006155
2507.69	0.0006797
2517.33	0.0006769
2526.98	0.0006609
2536.62	0.0006928
2546.27	0.0006869
2555.91	0.0005506
2565.56	0.0004892
2575.2	0.0006357
2584.85	0.0006334
2594.49	0.0005234
2604.14	0.0006699
2613.78	0.000653
2623.43	0.0006908
2633.07	0.0006909
2642.72	0.0006918
2652.36	0.0006548
2662.01	0.0005817
2671.65	0.0007474
2681.29	0.0007976
2690.94	0.0006626
2700.58	0.0006972
2710.23	0.0007741
2719.87	0.0008449
2729.52	0.0009312
2739.16	0.00105
2748.81	0.00128
2758.45	0.00113
2768.1	0.00135
2777.74	0.00156
2787.39	0.00167
2797.03	0.00175
2806.68	0.00203
2816.32	0.00227
2825.97	0.00254
2835.61	0.00312
2845.26	0.00358
2854.9	0.00452
2864.55	0.00588
2874.19	0.00799
2883.84	0.01079
2893.48	0.01154
2903.12	0.01362
2912.77	0.01684
2922.41	0.01898
2932.06	0.02386
2941.7	0.03242
2951.35	0.03196
2960.99	0.02968
2970.64	0.0351
2980.28	0.04863
2989.93	0.05099
2999.57	0.03321
3009.22	0.02253
3018.86	0.01473
3028.51	0.00928
3038.15	0.00603
3047.8	0.00443
3057.44	0.00363
3067.09	0.00304
3076.73	0.00283
3086.38	0.00243
3096.02	0.00229
3105.67	0.00207
3115.31	0.00192
3124.95	0.00161
3134.6	0.00159
3144.24	0.00124
3153.89	0.00112
3163.53	0.00113
3173.18	0.00112
3182.82	0.0009636
3192.47	0.0008526
3202.11	0.0007822
3211.76	0.0006747
3221.4	0.0005736
3231.05	0.0007228
3240.69	0.0004501
3250.34	0.0003227
3259.98	0.0003313
3269.63	0.0002823
3279.27	0.000466
3288.92	0.000243
3298.56	0.0004875
3308.21	0.0001608
3317.85	0.0003189
3327.49	0.0004439
3337.14	0.0004053
3346.78	0.0004946
3356.43	0.0004065
3366.07	0.0004981
3375.72	0.0005934
3385.36	0.0006766
3395.01	0.0005625
3404.65	0.0006404
3414.3	0.0006907
3423.94	0.00109
3433.59	0.00135
3443.23	0.00146
3452.88	0.00199
3462.52	0.00222
3472.17	0.00211
3481.81	0.00204
3491.46	0.00183
3501.1	0.00149
3510.75	0.00102
3520.39	0.0008954
3530.04	0.0005663
3539.68	0.0005596
3549.32	0.0003599
3558.97	0.0003673
3568.61	0.000401
3578.26	0.0004507
3587.9	0.0001827
3597.55	0.0003304
3607.19	0.0003789
3616.84	0.0004736
3626.48	0.0003819
3636.13	0.0003135
3645.77	0.0003863
3655.42	0.0004866
3665.06	0.0005799
3674.71	0.0004259
3684.35	0.000418
3694	0.0005579
3703.64	0.0003758
3713.29	9.181e-05
3722.93	0.0003572
3732.58	0.0003022
3742.22	0.0002421
3751.86	0.0002924
3761.51	0.000297
3771.15	0.0003502
3780.8	0.0002685
3790.44	0.0003308
3800.09	0.0003866
3809.73	0.0003296
3819.38	0.0003471
3829.02	0.000279
3838.67	0.000203
3848.31	0.0004093
3857.96	0.0002996
3867.6	0.0004153
3877.25	0.0004016
3886.89	0.0002171
3896.54	0.000474
3906.18	0.000307
3915.83	0.0003686
3925.47	0.0003786
3935.12	0.0005796
3944.76	0.0003969
3954.41	0.0004469
3964.05	0.0003244
3973.69	0.0004615
3983.34	0.0003174
3992.98	0.0004903
