Infrared Spectrum: Dibenzylmalonate
Formula: C 17 H 16 O 4
CAS: 15014-25-2
State: gas
Origin: EPA-IR VAPOR PHASE LIBRARY
1/CM	ABSORBANCE
549.9	0.00342
559.547	0.00386
569.193	0.00479
578.84	0.00596
588.486	0.0065
598.133	0.00691
607.779	0.00676
617.426	0.00599
627.072	0.00497
636.719	0.00411
646.365	0.00357
656.012	0.00398
665.658	0.00607
675.305	0.01075
684.951	0.01857
694.598	0.02553
704.245	0.02057
713.891	0.01724
723.538	0.01848
733.184	0.02226
742.831	0.02689
752.477	0.01962
762.124	0.01008
771.77	0.00603
781.417	0.0046
791.063	0.00411
800.71	0.0038
810.356	0.00413
820.003	0.00524
829.649	0.00555
839.296	0.00526
848.943	0.00483
858.589	0.00452
868.236	0.00454
877.882	0.00512
887.529	0.00606
897.175	0.007
906.822	0.00778
916.468	0.00784
926.115	0.00685
935.761	0.00687
945.408	0.00806
955.054	0.00977
964.701	0.01266
974.347	0.01868
983.994	0.02758
993.64	0.03793
1003.29	0.04649
1012.93	0.0423
1022.58	0.02856
1032.23	0.01709
1041.87	0.01122
1051.52	0.00878
1061.17	0.00824
1070.81	0.00882
1080.46	0.01014
1090.11	0.01254
1099.75	0.01671
1109.4	0.02398
1119.05	0.0369
1128.69	0.05663
1138.34	0.07315
1147.99	0.06921
1157.63	0.05811
1167.28	0.0535
1176.92	0.04983
1186.57	0.04612
1196.22	0.04787
1205.86	0.05381
1215.51	0.05464
1225.16	0.05176
1234.8	0.05288
1244.45	0.05481
1254.1	0.05557
1263.74	0.05469
1273.39	0.04904
1283.04	0.04231
1292.68	0.03886
1302.33	0.03808
1311.98	0.03895
1321.62	0.04169
1331.27	0.03435
1340.92	0.02068
1350.56	0.01422
1360.21	0.01261
1369.86	0.01497
1379.5	0.0168
1389.15	0.01107
1398.79	0.00939
1408.44	0.00932
1418.09	0.00969
1427.73	0.0076
1437.38	0.00739
1447.03	0.01003
1456.67	0.01237
1466.32	0.01056
1475.97	0.00675
1485.61	0.00592
1495.26	0.00923
1504.91	0.00736
1514.55	0.00379
1524.2	0.0033008
1533.85	0.0031644
1543.49	0.0030035
1553.14	0.0030222
1562.79	0.0032578
1572.43	0.0033994
1582.08	0.00375
1591.73	0.00388
1601.37	0.00403
1611.02	0.00391
1620.67	0.0032645
1630.31	0.0032031
1639.96	0.0032841
1649.6	0.0032995
1659.25	0.00356
1668.9	0.00369
1678.54	0.00424
1688.19	0.00511
1697.84	0.00648
1707.48	0.00925
1717.13	0.01404
1726.78	0.02071
1736.42	0.03417
1746.07	0.0649
1755.72	0.10362
1765.36	0.10737
1775.01	0.08484
1784.66	0.04257
1794.3	0.02358
1803.95	0.01517
1813.6	0.01023
1823.24	0.00747
1832.89	0.00583
1842.54	0.00494
1852.18	0.00459
1861.83	0.00433
1871.47	0.00421
1881.12	0.0041
1890.77	0.00365
1900.41	0.0032392
1910.06	0.0030917
1919.71	0.0031835
1929.35	0.00345
1939	0.00374
1948.65	0.00405
1958.29	0.00401
1967.94	0.0031399
1977.59	0.0027966
1987.23	0.0027639
1996.88	0.0027064
2006.53	0.002648
2016.17	0.0026257
2025.82	0.0026259
2035.47	0.0026164
2045.11	0.0025194
2054.76	0.0025202
2064.41	0.00244429
2074.05	0.00244918
2083.7	0.0025669
2093.35	0.0027078
2102.99	0.0029014
2112.64	0.0032855
2122.28	0.0042
2131.93	0.00614
2141.58	0.0103
2151.22	0.01494
2160.87	0.01172
2170.52	0.00505
2180.16	0.0032488
2189.81	0.0026105
2199.46	0.00246484
2209.1	0.00242015
2218.75	0.00247578
2228.4	0.0025477
2238.04	0.0026634
2247.69	0.0026432
2257.34	0.0026455
2266.98	0.0026102
2276.63	0.0025223
2286.28	0.0026104
2295.92	0.002806
2305.57	0.0033005
2315.22	0.0038
2324.86	0.00397
2334.51	0.00373
2344.16	0.00358
2353.8	0.00388
2363.45	0.00444
2373.09	0.00381
2382.74	0.0026162
2392.39	0.001986
2402.03	0.001943
2411.68	0.001945
2421.33	0.001951
2430.97	0.001912
2440.62	0.001859
2450.27	0.001879
2459.91	0.001879
2469.56	0.00186
2479.21	0.001771
2488.85	0.001776
2498.5	0.001771
2508.15	0.0017
2517.79	0.001718
2527.44	0.001685
2537.09	0.001646
2546.73	0.001664
2556.38	0.001637
2566.03	0.001678
2575.67	0.001647
2585.32	0.001647
2594.96	0.001663
2604.61	0.001686
2614.26	0.001661
2623.9	0.001538
2633.55	0.001584
2643.2	0.001563
2652.84	0.001529
2662.49	0.001544
2672.14	0.001519
2681.78	0.001513
2691.43	0.001513
2701.08	0.001525
2710.72	0.001532
2720.37	0.001543
2730.02	0.00148
2739.66	0.001533
2749.31	0.001467
2758.96	0.001403
2768.6	0.00136
2778.25	0.001486
2787.9	0.001505
2797.54	0.001504
2807.19	0.001559
2816.84	0.00175
2826.48	0.001851
2836.13	0.001842
2845.77	0.001845
2855.42	0.001814
2865.07	0.002257
2874.71	0.002859
2884.36	0.00396
2894.01	0.00495
2903.65	0.00467
2913.3	0.00406
2922.95	0.00387
2932.59	0.00456
2942.24	0.00623
2951.89	0.0094
2961.53	0.01244
2971.18	0.00981
2980.83	0.00683
2990.47	0.00512
3000.12	0.00439
3009.77	0.00453
3019.41	0.0069
3029.06	0.01183
3038.71	0.01654
3048.35	0.01366
3058	0.01148
3067.64	0.01704
3077.29	0.01733
3086.94	0.01043
3096.58	0.00782
3106.23	0.00583
3115.88	0.00376
3125.52	0.001944
3135.17	0.00089
3144.82	0.00056
3154.46	0.00067
3164.11	0.00068
3173.76	0.00049
3183.4	0.00028
3193.05	0.00036
3202.7	0.00029
3212.34	0.00027
3221.99	0.0003
3231.64	7e-05
3241.28	0.00018
3250.93	0.00025
3260.58	4e-05
3270.22	0.0001
3279.87	0.00027
3289.52	0.0002
3299.16	0.00028
3308.81	0.00023
3318.45	0.0002
3328.1	0.00045
3337.75	0.00024
3347.39	0.0004
3357.04	0.00038
3366.69	0.00043
3376.33	0.00039
3385.98	0.0003
3395.63	0.00049
3405.27	0.00054
3414.92	0.00038
3424.57	0.00064
3434.21	0.00057
3443.86	0.00065
3453.51	0.00062
3463.15	0.00073
3472.8	0.00103
3482.45	0.00131
3492.09	0.001413
3501.74	0.001674
3511.39	0.001743
3521.03	0.00127
3530.68	0.0013
3540.33	0.00122
3549.97	0.0009
3559.62	0.00087
3569.26	0.0008
3578.91	0.00084
3588.56	0.00101
3598.2	0.001
3607.85	0.00099
3617.5	0.00103
3627.14	0.00095
3636.79	0.00139
3646.44	0.00139
3656.08	0.001402
3665.73	0.001408
3675.38	0.00128
3685.02	0.00121
3694.67	0.00117
3704.32	0.00124
3713.96	0.00126
3723.61	0.00123
3733.26	0.00106
3742.9	0.00095
3752.55	0.00104
3762.2	0.00111
3771.84	0.00115
3781.49	0.00116
3791.13	0.0011
3800.78	0.0011
3810.43	0.00132
3820.07	0.00112
3829.72	0.00114
3839.37	0.00132
3849.01	0.00127
3858.66	0.00132
3868.31	0.00123
3877.95	0.00131
3887.6	0.00138
3897.25	0.00129
3906.89	0.00139
3916.54	0.00129
3926.19	0.00136
3935.83	0.00137
3945.48	0.00133
3955.13	0.001476
3964.77	0.001518
3974.42	0.00137
3984.07	0.00138
3993.71	0.00137
