Infrared Spectrum: 2-(1-Cyclohexenyl)cyclohexanone
Formula: C 12 H 18 O
CAS: 1502-22-3
State: gas
Origin: EPA-IR VAPOR PHASE LIBRARY
1/CM	ABSORBANCE
549.8	0.00323
559.445	0.0013403
569.09	0.0008346
578.734	0.0005136
588.379	0.0003877
598.024	0.0007248
607.669	0.0005516
617.313	0.00043407
626.958	0.000177
636.603	0.0003736
646.248	0.000173
655.893	0.0005174
665.537	0.000689
675.182	0.0008116
684.827	0.0007103
694.472	0.0005556
704.116	0.00040799
713.761	0.0006731
723.406	0.0006237
733.051	0.0007107
742.695	0.0011096
752.34	0.0012909
761.985	0.0009723
771.63	0.0008695
781.275	0.0012063
790.919	0.0009391
800.564	0.0008545
810.209	0.001181
819.854	0.0019
829.498	0.00331
839.143	0.00277
848.788	0.00181
858.433	0.00163
868.078	0.00244
877.722	0.0034
887.367	0.00407
897.012	0.00291
906.657	0.0025
916.301	0.00217
925.946	0.0021
935.591	0.00157
945.236	0.0014058
954.88	0.0013847
964.525	0.0013687
974.17	0.00202
983.815	0.00243
993.46	0.00256
1003.1	0.0028
1012.75	0.004
1022.39	0.00426
1032.04	0.00383
1041.68	0.00378
1051.33	0.00416
1060.97	0.00494
1070.62	0.00416
1080.26	0.00335
1089.91	0.00278
1099.55	0.00436
1109.2	0.00709
1118.84	0.01172
1128.49	0.01235
1138.13	0.00626
1147.78	0.00383
1157.42	0.00215
1167.07	0.00172
1176.71	0.00197
1186.36	0.0025
1196	0.0029
1205.64	0.00415
1215.29	0.00519
1224.93	0.00572
1234.58	0.00509
1244.22	0.00444
1253.87	0.00435
1263.51	0.00453
1273.16	0.00498
1282.8	0.00541
1292.45	0.00536
1302.09	0.00539
1311.74	0.006
1321.38	0.00478
1331.03	0.00517
1340.67	0.00613
1350.32	0.00548
1359.96	0.00408
1369.61	0.00313
1379.25	0.00285
1388.9	0.00208
1398.54	0.0019
1408.18	0.00221
1417.83	0.00349
1427.47	0.00563
1437.12	0.00832
1446.76	0.01612
1456.41	0.01886
1466.05	0.01034
1475.7	0.00452
1485.34	0.00206
1494.99	0.0014014
1504.63	0.0011205
1514.28	0.0009693
1523.92	0.0008499
1533.57	0.0007593
1543.21	0.0006519
1552.86	0.0007371
1562.5	0.0007355
1572.15	0.0006419
1581.79	0.0008284
1591.44	0.0007471
1601.08	0.0007538
1610.73	0.0008592
1620.37	0.0010073
1630.01	0.0009264
1639.66	0.0012041
1649.3	0.00146
1658.95	0.00197
1668.59	0.00256
1678.24	0.00369
1687.88	0.00541
1697.53	0.01003
1707.17	0.02643
1716.82	0.05924
1726.46	0.06453
1736.11	0.03045
1745.75	0.01195
1755.4	0.00626
1765.04	0.00401
1774.69	0.00289
1784.33	0.00219
1793.98	0.00181
1803.62	0.0013441
1813.27	0.0011584
1822.91	0.0010728
1832.55	0.0009033
1842.2	0.0008719
1851.84	0.0008023
1861.49	0.0007163
1871.13	0.0006888
1880.78	0.0006756
1890.42	0.0006343
1900.07	0.0006824
1909.71	0.0006517
1919.36	0.0006417
1929	0.0006735
1938.65	0.0006236
1948.29	0.0005743
1957.94	0.0006242
1967.58	0.0006743
1977.23	0.0006094
1986.87	0.0005652
1996.52	0.0005842
2006.16	0.0005568
2015.81	0.0005113
2025.45	0.0005245
2035.1	0.0005484
2044.74	0.0005848
2054.38	0.0006035
2064.03	0.0006135
2073.67	0.0005921
2083.32	0.0005272
2092.96	0.0006916
2102.61	0.0006297
2112.25	0.0006757
2121.9	0.000635
2131.54	0.0006377
2141.19	0.0007201
2150.83	0.0007093
2160.48	0.0007282
2170.12	0.0007687
2179.77	0.0007518
2189.41	0.0008183
2199.06	0.0008945
2208.7	0.000852
2218.35	0.0008705
2227.99	0.0008299
2237.64	0.0007946
2247.28	0.0008032
2256.92	0.0007126
2266.57	0.0007425
2276.21	0.0007477
2285.86	0.0007972
2295.5	0.0008112
2305.15	0.0007316
2314.79	0.0007818
2324.44	0.0008136
2334.08	0.0007997
2343.73	0.0007605
2353.37	0.0009076
2363.02	0.0009407
2372.66	0.0007787
2382.31	0.0009121
2391.95	0.0009158
2401.6	0.0009207
2411.24	0.0008633
2420.89	0.0008191
2430.53	0.0008986
2440.18	0.0007357
2449.82	0.0007324
2459.47	0.0007484
2469.11	0.000758
2478.75	0.0008557
2488.4	0.0009242
2498.04	0.0008669
2507.69	0.0008136
2517.33	0.0009654
2526.98	0.0009975
2536.62	0.0009239
2546.27	0.0009294
2555.91	0.0008809
2565.56	0.0010312
2575.2	0.0011619
2584.85	0.0012295
2594.49	0.0013657
2604.14	0.00155
2613.78	0.0016
2623.43	0.0016
2633.07	0.00163
2642.72	0.00192
2652.36	0.00227
2662.01	0.0029
2671.65	0.00304
2681.29	0.0025
2690.94	0.00207
2700.58	0.00196
2710.23	0.0018
2719.87	0.00161
2729.52	0.0016
2739.16	0.00149
2748.81	0.00165
2758.45	0.00178
2768.1	0.00204
2777.74	0.00267
2787.39	0.0033
2797.03	0.00401
2806.68	0.00434
2816.32	0.00496
2825.97	0.00652
2835.61	0.01121
2845.26	0.0231
2854.9	0.04952
2864.55	0.06762
2874.19	0.05022
2883.84	0.02952
2893.48	0.02606
2903.12	0.03659
2912.77	0.05701
2922.41	0.10288
2932.06	0.17823
2941.7	0.18155
2951.35	0.09982
2960.99	0.04585
2970.64	0.0271
2980.28	0.01367
2989.93	0.00658
2999.57	0.0045
3009.22	0.00351
3018.86	0.00298
3028.51	0.00247
3038.15	0.00197
3047.8	0.00161
3057.44	0.00143
3067.09	0.0012958
3076.73	0.0012494
3086.38	0.0011978
3096.02	0.001047
3105.67	0.0009276
3115.31	0.0009508
3124.95	0.0009505
3134.6	0.0007966
3144.24	0.0009363
3153.89	0.0008978
3163.53	0.0009544
3173.18	0.0010318
3182.82	0.0009062
3192.47	0.0007144
3202.11	0.0007831
3211.76	0.0008029
3221.4	0.000678
3231.05	0.0008982
3240.69	0.0008019
3250.34	0.0006937
3259.98	0.0006455
3269.63	0.0005996
3279.27	0.0005155
3288.92	0.0006009
3298.56	0.0005202
3308.21	0.0006414
3317.85	0.00048627
3327.49	0.000397
3337.14	0.0006112
3346.78	0.0006335
3356.43	0.0006705
3366.07	0.0005955
3375.72	0.0007153
3385.36	0.0006589
3395.01	0.0008554
3404.65	0.0010601
3414.3	0.0011863
3423.94	0.00165
3433.59	0.00161
3443.23	0.0011224
3452.88	0.0007559
3462.52	0.0006098
3472.17	0.0006344
3481.81	0.0006173
3491.46	0.0006057
3501.1	0.0005111
3510.75	0.0005662
3520.39	0.0003949
3530.04	0.00045371
3539.68	0.0003299
3549.32	0.0003345
3558.97	0.0003397
3568.61	0.0003363
3578.26	0.0003655
3587.9	0.000279
3597.55	0.0005187
3607.19	0.00046818
3616.84	0.000232
3626.48	0.000247
3636.13	0.0005512
3645.77	0.0006129
3655.42	0.0005678
3665.06	0.00044557
3674.71	0.0006291
3684.35	0.0003638
3694	0.00045925
3703.64	0.000418755
3713.29	0.0006265
3722.93	0.0007745
3732.58	0.0003485
3742.22	0.0006815
3751.86	0.00042004
3761.51	0.00043879
3771.15	0.0005261
3780.8	0.0005448
3790.44	0.0006419
3800.09	0.00040806
3809.73	0.0005782
3819.38	0.00047574
3829.02	0.0006324
3838.67	0.000415032
3848.31	0.00047116
3857.96	0.0006138
3867.6	0.0006302
3877.25	0.000332
3886.89	0.0005157
3896.54	0.0006592
3906.18	0.0005658
3915.83	0.0006184
3925.47	0.0007258
3935.12	0.000632
3944.76	0.0005895
3954.41	0.0006211
3964.05	0.0006229
3973.69	0.0007065
3983.34	0.00048066
3992.98	0.0007948
