Infrared Spectrum: 4-CHLOROBENZOIC ACID, 4-TOLYL ESTER
Formula: C14 H11 Cl O2
CAS: 15024-10-9
State: SOLUTION (10% IN CCl4 FOR 5000-1350 CM^-^1, 10% IN CS2 FOR 1350-625 CM^-^1)
Class: COBLENTZ
Instrument: Not specified, most likely a prism, grating, or hybrid spectrometer.
Sampling: TRANSMISSION
Path length: 0.01 CM, 0.01 CM
Resolution: 4
Origin: DOW CHEMICAL COMPANY
MICROMETERS	TRANSMITTANCE
2.035	0.849
2.07412	0.849
2.11324	0.844
2.15236	0.849
2.19148	0.854
2.2306	0.856
2.26971	0.852
2.30883	0.851
2.34795	0.856
2.38707	0.861
2.42619	0.856
2.46531	0.872
2.50443	0.87
2.54355	0.874
2.58267	0.869
2.62179	0.87
2.6609	0.87
2.70002	0.854
2.73914	0.861
2.77826	0.852
2.81738	0.844
2.8565	0.831
2.89562	0.83
2.93474	0.843
2.97386	0.843
3.01298	0.844
3.0521	0.846
3.09121	0.841
3.13033	0.838
3.16945	0.83
3.20857	0.815
3.24769	0.776
3.28681	0.72
3.32593	0.756
3.36505	0.736
3.40417	0.712
3.44329	0.784
3.4824	0.802
3.52152	0.864
3.56064	0.875
3.59976	0.875
3.63888	0.875
3.678	0.883
3.71712	0.885
3.75624	0.885
3.79536	0.887
3.83448	0.875
3.87359	0.874
3.91271	0.883
3.95183	0.882
3.99095	0.888
4.03007	0.89
4.06919	0.89
4.10831	0.888
4.14743	0.882
4.18655	0.883
4.22567	0.861
4.26479	0.846
4.3039	0.872
4.34302	0.869
4.38214	0.88
4.42126	0.892
4.46038	0.9
4.4995	0.901
4.53862	0.9
4.57774	0.901
4.61686	0.895
4.65598	0.88
4.69509	0.88
4.73421	0.888
4.77333	0.893
4.81245	0.885
4.85157	0.879
4.89069	0.874
4.92981	0.88
4.96893	0.877
5.00805	0.885
5.04717	0.882
5.08629	0.874
5.1254	0.861
5.16452	0.823
5.20364	0.848
5.24276	0.872
5.28188	0.813
5.321	0.862
5.36012	0.872
5.39924	0.87
5.43836	0.852
5.47748	0.82
5.51659	0.727
5.55571	0.653
5.59483	0.723
5.63395	0.705
5.67307	0.557
5.71219	0.243
5.75131	0.068
5.79043	0.482
5.82955	0.699
5.86867	0.73
5.90779	0.779
5.9469	0.774
5.98602	0.812
6.02514	0.823
6.06426	0.8
6.10338	0.769
6.1425	0.707
6.18162	0.607
6.22074	0.299
6.25986	0.192
6.29898	0.472
6.33809	0.514
6.37721	0.503
6.41633	0.447
6.45545	0.452
6.49457	0.524
6.53369	0.545
6.57281	0.442
6.61193	0.272
6.65105	0.38
6.69017	0.455
6.72928	0.581
6.7684	0.692
6.80752	0.699
6.84664	0.692
6.88576	0.71
6.92488	0.714
6.964	0.741
7.00312	0.74
7.04224	0.722
7.08136	0.575
7.12048	0.411
7.15959	0.771
7.19871	0.75
7.23783	0.771
7.27695	0.781
7.31607	0.797
7.35519	0.834
7.39431	0.828
7.43343	0.813
7.47255	0.781
7.51167	0.738
7.55078	0.673
7.5899	0.602
7.62902	0.547
7.66814	0.521
7.70726	0.457
7.74638	0.328
7.7855	0.254
7.82462	0.197
7.86374	0.049
7.90286	0.016
7.94198	0.05
7.98109	0.204
8.02021	0.323
8.05933	0.285
8.09845	0.2
8.13757	0.323
8.17669	0.357
8.21581	0.207
8.25493	0.155
8.29405	0.07
8.33317	0.021
8.37228	0.191
8.4114	0.472
8.45052	0.513
8.48964	0.305
8.52876	0.078
8.56788	0.171
8.607	0.506
8.64612	0.7
8.68524	0.75
8.72436	0.769
8.76348	0.779
8.80259	0.779
8.84171	0.763
8.88083	0.722
8.91995	0.66
8.95907	0.581
8.99819	0.555
9.03731	0.524
9.07643	0.405
9.11555	0.205
9.15467	0.071
9.19378	0.174
9.2329	0.169
9.27202	0.068
9.31114	0.022
9.35026	0.039
9.38938	0.191
9.4285	0.47
9.46762	0.589
9.50674	0.62
9.54586	0.625
9.58497	0.611
9.62409	0.599
9.66321	0.614
9.70233	0.651
9.74145	0.64
9.78057	0.467
9.81969	0.192
9.85881	0.23
9.89793	0.547
9.93705	0.614
9.97617	0.651
10.0153	0.687
10.0544	0.72
10.0935	0.75
10.1326	0.764
10.1718	0.774
10.2109	0.784
10.25	0.794
10.2891	0.803
10.3282	0.812
10.3674	0.818
10.4065	0.81
10.4456	0.8
10.4847	0.807
10.5238	0.82
10.563	0.831
10.6021	0.833
10.6412	0.795
10.6803	0.735
10.7194	0.782
10.7585	0.833
10.7977	0.848
10.8368	0.848
10.8759	0.849
10.915	0.849
10.9541	0.839
10.9933	0.836
11.0324	0.831
11.0715	0.825
11.1106	0.82
11.1497	0.8
11.1889	0.777
11.228	0.75
11.2671	0.72
11.3062	0.669
11.3453	0.611
11.3845	0.516
11.4236	0.372
11.4627	0.312
11.5018	0.33
11.5409	0.411
11.58	0.472
11.6192	0.509
11.6583	0.516
11.6974	0.483
11.7365	0.372
11.7756	0.215
11.8148	0.192
11.8539	0.387
11.893	0.513
11.9321	0.581
11.9712	0.601
12.0104	0.609
12.0495	0.609
12.0886	0.601
12.1277	0.593
12.1668	0.586
12.206	0.578
12.2451	0.566
12.2842	0.549
12.3233	0.522
12.3624	0.482
12.4015	0.416
12.4407	0.326
12.4798	0.24
12.5189	0.24
12.558	0.411
12.5971	0.55
12.6363	0.633
12.6754	0.686
12.7145	0.704
12.7536	0.717
12.7927	0.723
12.8319	0.727
12.871	0.728
12.9101	0.722
12.9492	0.71
12.9883	0.687
13.0275	0.65
13.0666	0.583
13.1057	0.501
13.1448	0.401
13.1839	0.31
13.223	0.165
13.2622	0.07
13.3013	0.104
13.3404	0.266
13.3795	0.462
13.4186	0.576
13.4578	0.63
13.4969	0.691
13.536	0.714
13.5751	0.73
13.6142	0.733
13.6534	0.735
13.6925	0.727
13.7316	0.714
13.7707	0.694
13.8098	0.653
13.849	0.591
13.8881	0.568
13.9272	0.604
13.9663	0.663
14.0054	0.694
14.0445	0.699
14.0837	0.699
14.1228	0.692
14.1619	0.689
14.201	0.679
14.2401	0.666
14.2793	0.653
14.3184	0.64
14.3575	0.63
14.3966	0.624
14.4357	0.614
14.4749	0.598
14.514	0.57
14.5531	0.513
14.5922	0.431
14.6313	0.349
14.6705	0.321
14.7096	0.37
14.7487	0.447
14.7878	0.495
14.8269	0.517
14.866	0.522
14.9052	0.517
14.9443	0.524
14.9834	0.539
15.0225	0.534
15.0616	0.521
15.1008	0.511
15.1399	0.501
15.179	0.491
15.2181	0.482
15.2572	0.47
15.2964	0.464
15.3355	0.459
15.3746	0.454
15.4137	0.447
15.4528	0.441
15.492	0.433
15.5311	0.421
15.5702	0.416
15.6093	0.41
15.6484	0.401
15.6875	0.392
15.7267	0.387
15.7658	0.38
15.8049	0.372
15.844	0.369
15.8831	0.377
