Infrared Spectrum: Diallyl carbonate
Formula: C 7 H 10 O 3
CAS: 15022-08-9
State: gas
Instrument: HP-GC/MS/IRD
Origin: NIST Mass Spectrometry Data Center
1/CM	ABSORBANCE
550	0.0006144
562	0.0002816
574	6.4e-05
586	3.84e-05
598	5.12e-05
610	0.0002432
622	0.0003072
634	0.00032
646	0.0004864
658	0.000512
670	0.0005888
682	0.0004608
694	0.0003456
706	0.000256
718	0.0001792
730	0.0002176
742	0.0002176
754	0.000256
766	0.0006656
778	0.0016
790	0.0026368
802	0.0024832
814	0.001472
826	0.0009088
838	0.0006784
850	0.0009216
862	0.0013312
874	0.0020096
886	0.0033152
898	0.0054144
910	0.0078976
922	0.0112384
934	0.013824
946	0.0112896
958	0.0141312
970	0.0262912
982	0.0247936
994	0.0124672
1006	0.008064
1018	0.0059904
1030	0.0042752
1042	0.0032
1054	0.0032128
1066	0.0038144
1078	0.0041728
1090	0.0034816
1102	0.002624
1114	0.0022528
1126	0.0021248
1138	0.002176
1150	0.0025344
1162	0.0030592
1174	0.0035072
1186	0.0051072
1198	0.0092288
1210	0.0164864
1222	0.0257792
1234	0.0505088
1246	0.110438
1258	0.11712
1270	0.0591104
1282	0.0365056
1294	0.024384
1306	0.0138752
1318	0.0057984
1330	0.003904
1342	0.0038528
1354	0.0055296
1366	0.0102784
1378	0.0145024
1390	0.0092416
1402	0.0047488
1414	0.0039168
1426	0.0039168
1438	0.004224
1450	0.0057088
1462	0.0054784
1474	0.0028928
1486	0.0015872
1498	0.0011008
1510	0.0009344
1522	0.000832
1534	0.0008448
1546	0.0008192
1558	0.0009472
1570	0.0010112
1582	0.0010752
1594	0.0010112
1606	0.0009472
1618	0.0009856
1630	0.0012928
1642	0.0019328
1654	0.0019712
1666	0.0013952
1678	0.001216
1690	0.0014464
1702	0.001984
1714	0.002816
1726	0.0044928
1738	0.0097408
1750	0.023616
1762	0.0378112
1774	0.03168
1786	0.0184576
1798	0.0099456
1810	0.003648
1822	0.0020224
1834	0.001536
1846	0.0013312
1858	0.0013312
1870	0.0012032
1882	0.0008064
1894	0.0005632
1906	0.0004224
1918	0.0003456
1930	0.0003328
1942	0.0003328
1954	0.0003328
1966	0.0003584
1978	0.0003328
1990	0.0003328
2002	0.00032
2014	0.0002944
2026	0.0002944
2038	0.000256
2050	0.0002432
2062	0.0002688
2074	0.000256
2086	0.0002304
2098	0.0002304
2110	0.0002432
2122	0.000256
2134	0.0003328
2146	0.000384
2158	0.0003456
2170	0.0003712
2182	0.0003712
2194	0.0003328
2206	0.0003328
2218	0.0002944
2230	0.0002304
2242	0.0002432
2254	0.000192
2266	0.0002048
2278	0.0002176
2290	0.000256
2302	0.0003712
2314	0.0004992
2326	0.0005888
2338	0.000576
2350	0.0005376
2362	0.0007168
2374	0.0005632
2386	0.000256
2398	0.000192
2410	0.0001792
2422	0.0001536
2434	0.0001536
2446	0.0001152
2458	0.0001408
2470	0.0001664
2482	0.0001408
2494	0.0001152
2506	8.96e-05
2518	6.4e-05
2530	7.68e-05
2542	7.68e-05
2554	5.12e-05
2566	0
2578	3.84e-05
2590	2.56e-05
2602	3.84e-05
2614	5.12e-05
2626	7.68e-05
2638	8.96e-05
2650	0.0001024
2662	8.96e-05
2674	7.68e-05
2686	0.0001024
2698	0.0001024
2710	0.0001024
2722	0.0001536
2734	0.0002048
2746	0.0001664
2758	0.0001536
2770	0.0001408
2782	0.0001536
2794	0.0002048
2806	0.0002688
2818	0.00032
2830	0.0003584
2842	0.0004352
2854	0.0004736
2866	0.0006784
2878	0.0011264
2890	0.0016256
2902	0.0018432
2914	0.0016768
2926	0.0019456
2938	0.0031744
2950	0.0050816
2962	0.0057472
2974	0.0039808
2986	0.0033664
2998	0.003392
3010	0.00288
3022	0.002816
3034	0.0023168
3046	0.0013696
3058	0.0011776
3070	0.001536
3082	0.0022784
3094	0.0033664
3106	0.0027776
3118	0.0012672
3130	0.0006016
3142	0.0003584
3154	0.0003072
3166	0.0002176
3178	0.0002304
3190	0.0001536
3202	0.0001536
3214	0.0001408
3226	7.68e-05
3238	7.68e-05
3250	5.12e-05
3262	7.68e-05
3274	6.4e-05
3286	5.12e-05
3298	3.84e-05
3310	6.4e-05
3322	0.000128
3334	7.68e-05
3346	8.96e-05
3358	8.96e-05
3370	2.56e-05
3382	8.96e-05
3394	1.28e-05
3406	8.96e-05
3418	8.96e-05
3430	6.4e-05
3442	0.0001152
3454	6.4e-05
3466	0.000128
3478	0.0001408
3490	0.000192
3502	0.0002304
3514	0.0002688
3526	0.0002176
3538	0.0001408
3550	0.0001536
3562	8.96e-05
3574	0.0001024
3586	0
3598	5.12e-05
3610	0
3622	6.4e-05
3634	7.68e-05
3646	6.4e-05
3658	1.28e-05
3670	7.68e-05
3682	6.4e-05
3694	5.12e-05
3706	5.12e-05
3718	8.96e-05
3730	8.96e-05
3742	0.0001024
3754	0.0001024
3766	7.68e-05
3778	7.68e-05
3790	0
3802	6.4e-05
3814	8.96e-05
3826	5.12e-05
3838	8.96e-05
