Infrared Spectrum: Cyclododecylamine
Formula: C 12 H 25 N
CAS: 1502-03-0
State: gas
Instrument: HP-GC/MS/IRD
Origin: NIST Mass Spectrometry Data Center
1/CM	ABSORBANCE
550	0.0037332
562	0.0008784
574	0.0018117
586	0.0012078
598	0.0002745
610	0.0002745
622	0.000549
634	0.0012078
646	0.0019215
658	0.0030195
670	0.0044469
682	0.0071919
694	0.0121329
706	0.0171288
718	0.0243207
730	0.0249246
742	0.0254736
754	0.0299754
766	0.0384849
778	0.0490257
790	0.0519354
802	0.0395829
814	0.0259677
826	0.0169092
838	0.0118035
850	0.0085644
862	0.0064233
874	0.0047763
886	0.0035136
898	0.0030195
910	0.0028548
922	0.0023058
934	0.0024705
946	0.0031842
958	0.0031293
970	0.0026352
982	0.0025803
994	0.0029097
1006	0.0047763
1018	0.0064233
1030	0.006588
1042	0.0075762
1054	0.006588
1066	0.0040626
1078	0.0039528
1090	0.0050508
1102	0.0059841
1114	0.0059292
1126	0.0039528
1138	0.0023607
1150	0.0020862
1162	0.0026352
1174	0.002745
1186	0.0030744
1198	0.0037332
1210	0.004392
1222	0.0046116
1234	0.0047214
1246	0.0050508
1258	0.0047763
1270	0.004941
1282	0.00549
1294	0.0069723
1306	0.0088389
1318	0.0087291
1330	0.0100467
1342	0.0167445
1354	0.0185013
1366	0.0144387
1378	0.0107604
1390	0.0057645
1402	0.0040077
1414	0.0045567
1426	0.0069174
1438	0.0220698
1450	0.0482571
1462	0.0463905
1474	0.0400221
1486	0.0139446
1498	0.0057096
1510	0.0037332
1522	0.0029097
1534	0.0025803
1546	0.0025254
1558	0.0029097
1570	0.0036783
1582	0.0051606
1594	0.0085095
1606	0.0155916
1618	0.0227835
1630	0.0163053
1642	0.0070272
1654	0.0031293
1666	0.0015372
1678	0.0008235
1690	0.0004392
1702	0.0002745
1714	0.0002196
1726	0.0001647
1738	0.0001647
1750	0.0001647
1762	0.0002196
1774	0.0002196
1786	0.0002196
1798	0.0002745
1810	0.0002196
1822	0.0002196
1834	0.0002196
1846	0.0001647
1858	0.0001647
1870	5.49e-05
1882	5.49e-05
1894	5.49e-05
1906	0.0001098
1918	0
1930	0
1942	5.49e-05
1954	0.0001098
1966	0.0001098
1978	0.0001098
1990	0.0002745
2002	0.0002745
2014	0.0003294
2026	0.0002745
2038	0.0002745
2050	0.0003294
2062	0.0003294
2074	0.0002745
2086	0.0002745
2098	0.0001647
2110	0.0002196
2122	0.0003294
2134	0.0002745
2146	0.0002745
2158	0.0003294
2170	0.0002196
2182	0.0002745
2194	0.0001647
2206	0.0002196
2218	0.0002745
2230	0.0003843
2242	0.0004941
2254	0.0004941
2266	0.000549
2278	0.0004941
2290	0.0004392
2302	0.0003843
2314	0.0003294
2326	0.0003843
2338	0.0003294
2350	0.0003294
2362	0.0003843
2374	0.0003843
2386	0.0003843
2398	0.0004392
2410	0.0004941
2422	0.0003843
2434	0.0004392
2446	0.0004941
2458	0.000549
2470	0.0006588
2482	0.0007686
2494	0.0009882
2506	0.0012078
2518	0.0014823
2530	0.0018117
2542	0.0019764
2554	0.0020862
2566	0.002196
2578	0.0024156
2590	0.0026352
2602	0.0030195
2614	0.0035136
2626	0.0040626
2638	0.0048312
2650	0.0058194
2662	0.0070821
2674	0.008235
2686	0.0082899
2698	0.0074115
2710	0.0066429
2722	0.0065331
2734	0.0068076
2746	0.0070272
2758	0.0073017
2770	0.0077409
2782	0.0092232
2794	0.0116937
2806	0.0152073
2818	0.020862
2830	0.030195
2842	0.0586332
2854	0.154104
2866	0.20324
2878	0.173264
2890	0.133023
2902	0.20335
2914	0.341698
2926	0.476258
2938	0.532475
2950	0.33747
2962	0.161516
2974	0.0798246
2986	0.0445788
2998	0.0230031
3010	0.0141093
3022	0.0097173
3034	0.0067527
3046	0.0048861
3058	0.0037881
3070	0.0031842
3082	0.0028548
3094	0.0026352
3106	0.0024156
3118	0.0023058
3130	0.002196
3142	0.002196
3154	0.0020862
3166	0.0019215
3178	0.0017568
3190	0.0018117
3202	0.0019215
3214	0.0017019
3226	0.0015372
3238	0.0013176
3250	0.0010431
3262	0.0009882
3274	0.0008235
3286	0.0008235
3298	0.0008784
3310	0.0012627
3322	0.0024705
3334	0.0030744
3346	0.0019215
3358	0.0009882
3370	0.0007686
3382	0.0007137
3394	0.0008235
3406	0.0007137
3418	0.0006039
3430	0.000549
3442	0.0003843
3454	0.0002745
3466	0.0002196
3478	0.0002745
3490	0.0002196
3502	0.0001647
3514	0.0002196
3526	0.0001647
3538	0.0001098
3550	0.0001647
3562	0.0002196
3574	0.0002745
3586	0.0003294
3598	0.0004392
3610	0.000549
3622	0.0006588
3634	0.0008235
3646	0.0007686
3658	0.0006588
3670	0.0007137
3682	0.0006588
3694	0.0007686
3706	0.0007137
3718	0.0007137
3730	0.0007137
3742	0.0006039
3754	0.000549
3766	0.0006588
3778	0.0006039
3790	0.0006039
3802	0.0008235
3814	0.0008235
3826	0.0007686
3838	0.0009333
