Infrared Spectrum: MORPHINE, DIACETYL-, HYDROCHLORIDE
Formula: C21 H24 Cl N O5
CAS: 1502-95-0
State: SOLID (1.3 mg / 200 mg KBr DISC)
Melting point: 243-244 C
Class: COBLENTZ III
Instrument: PERKIN-ELMER 21 (GRATING)
Instrument parameters: FILTER AT ABOUT 10 MICRONS
Sampling: TRANSMISSION
Resolution: 2
Origin: BUREAU OF CUSTOMS
1/CM	TRANSMITTANCE
4000	0.7806
3991	0.7807
3982	0.7807
3973	0.7808
3964	0.7808
3955	0.7808
3946	0.781
3937	0.7811
3928	0.7811
3919	0.7811
3910	0.7811
3901	0.7811
3892	0.7811
3883	0.7811
3874	0.781
3865	0.781
3856	0.781
3847	0.7814
3838	0.7818
3829	0.7821
3820	0.7825
3811	0.783
3802	0.7835
3793	0.784
3784	0.7844
3775	0.785
3766	0.7855
3757	0.7861
3748	0.7867
3739	0.7871
3730	0.7875
3721	0.7881
3712	0.7885
3703	0.7886
3694	0.788
3685	0.7874
3676	0.7867
3667	0.7851
3658	0.7835
3649	0.7808
3640	0.7774
3631	0.7706
3622	0.7562
3613	0.7275
3604	0.706
3595	0.6901
3586	0.6654
3577	0.6383
3568	0.6162
3559	0.597
3550	0.5776
3541	0.5582
3532	0.5387
3523	0.519
3514	0.4993
3505	0.4794
3496	0.4595
3487	0.4395
3478	0.424
3469	0.4132
3460	0.3984
3451	0.3809
3442	0.36
3433	0.3421
3424	0.323
3415	0.3033
3406	0.297
3397	0.293
3388	0.2914
3379	0.292
3370	0.2938
3361	0.298
3352	0.3067
3343	0.3185
3334	0.3312
3325	0.3444
3316	0.3604
3307	0.3879
3298	0.4342
3289	0.4534
3280	0.4745
3271	0.4973
3262	0.5133
3253	0.5281
3244	0.5426
3235	0.5545
3226	0.5662
3217	0.5801
3208	0.5944
3199	0.608
3190	0.6188
3181	0.6295
3172	0.6405
3163	0.6518
3154	0.6632
3145	0.6747
3136	0.6854
3127	0.6935
3118	0.6989
3109	0.7022
3100	0.7045
3091	0.7056
3082	0.7064
3073	0.7064
3064	0.7061
3055	0.7045
3046	0.7015
3037	0.6961
3028	0.684
3019	0.6708
3010	0.6568
3001	0.6449
2992	0.6383
2983	0.6355
2974	0.6294
2965	0.6083
2956	0.5751
2947	0.541
2938	0.521
2929	0.5065
2920	0.4982
2911	0.4955
2902	0.5049
2893	0.5247
2884	0.543
2875	0.5624
2866	0.5801
2857	0.5909
2848	0.6023
2839	0.6118
2830	0.6201
2821	0.629
2812	0.6383
2803	0.6465
2794	0.6521
2785	0.6539
2776	0.6544
2767	0.654
2758	0.6528
2749	0.6501
2740	0.6408
2731	0.6215
2722	0.5874
2713	0.5581
2704	0.5489
2695	0.5406
2686	0.5316
2677	0.5219
2668	0.512
2659	0.5012
2650	0.4902
2641	0.4788
2632	0.4675
2623	0.4579
2614	0.4496
2605	0.4422
2596	0.4405
2587	0.44
2578	0.4423
2569	0.45
2560	0.4571
2551	0.4643
2542	0.4707
2533	0.4754
2524	0.4782
2515	0.4791
2506	0.4794
2497	0.4793
2488	0.4793
2479	0.4789
2470	0.4807
2461	0.4848
2452	0.4944
2443	0.5062
2434	0.5201
2425	0.536
2416	0.552
2407	0.5657
2398	0.5801
2389	0.5955
2380	0.6102
2371	0.6224
2362	0.6346
2353	0.6497
2344	0.6668
2335	0.6842
2326	0.7028
2317	0.7204
2308	0.7365
2299	0.7501
2290	0.7625
2281	0.7734
2272	0.7826
2263	0.7901
2254	0.7972
2245	0.8017
2236	0.8061
2227	0.8099
2218	0.813
2209	0.8158
2200	0.8169
2191	0.8181
2182	0.8191
2173	0.8187
2164	0.8211
2155	0.8216
2146	0.8217
2137	0.8217
2128	0.8217
2119	0.8214
2110	0.8209
2101	0.8204
2092	0.82
2083	0.8197
2074	0.82
2065	0.8211
2056	0.8221
2047	0.8251
2038	0.8281
2029	0.8316
2020	0.8353
2011	0.8388
2002	0.8418
1993	0.8448
1984	0.848
1975	0.85
1966	0.8518
1957	0.8533
1948	0.8539
1939	0.8528
1930	0.849
1921	0.8516
1912	0.8512
1903	0.8499
1894	0.8484
1885	0.8455
1876	0.8418
1867	0.8368
1858	0.8316
1849	0.8234
1840	0.8146
1831	0.8046
1822	0.789
1813	0.7748
1804	0.7557
1795	0.6948
1786	0.4644
1777	0.3146
1768	0.1752
1759	0.1656
1750	0.1856
1741	0.1362
1732	0.2203
1723	0.3834
1714	0.5581
1705	0.6371
1696	0.6871
1687	0.7008
1678	0.7036
1669	0.6908
1660	0.6638
1651	0.6243
1642	0.5632
1633	0.4959
1624	0.4716
1615	0.6036
1606	0.6744
1597	0.7068
1588	0.7275
1579	0.7388
1570	0.7441
1561	0.7465
1552	0.7478
1543	0.7478
1534	0.7456
1525	0.7376
1516	0.7121
1507	0.6333
1498	0.4246
1489	0.4853
1480	0.4802
1471	0.3758
1462	0.3462
1453	0.204
1444	0.334
1435	0.3928
1426	0.4685
1417	0.5375
1408	0.5774
1399	0.5781
1390	0.5104
1381	0.3262
1372	0.1894
1363	0.3839
1354	0.4852
1345	0.5476
1336	0.5924
1327	0.6081
1318	0.6362
1309	0.6324
1300	0.6214
1291	0.6078
1282	0.5331
1273	0.4171
1264	0.3041
1255	0.1617
1246	0.0411
1237	0.0292
1228	0.0906
1219	0.1464
1210	0.1461
1201	0.1734
1192	0.2527
1183	0.2053
1174	0.2565
1165	0.4126
1156	0.3216
1147	0.4803
1138	0.5016
1129	0.4829
1120	0.5378
1111	0.5532
1102	0.644
1093	0.655
1084	0.6048
1075	0.5514
1066	0.4508
1057	0.3472
1048	0.2755
1039	0.2592
1030	0.3322
1021	0.3546
1012	0.4579
1003	0.5662
994	0.6442
985	0.621
976	0.5374
967	0.5433
958	0.6275
949	0.6654
940	0.5947
931	0.6122
922	0.6419
913	0.502
904	0.525
895	0.6332
886	0.6356
877	0.5239
868	0.5547
859	0.7195
850	0.7231
841	0.6556
832	0.6599
823	0.7251
814	0.6699
805	0.6387
796	0.6348
787	0.6179
778	0.599
769	0.5935
760	0.6607
751	0.7336
742	0.7136
733	0.7445
724	0.7301
715	0.75
706	0.7617
697	0.7201
688	0.6736
679	0.6431
670	0.7021
661	0.6743
652	0.6601
