Infrared Spectrum: Methylcyclooctane
Formula: C 9 H 18
CAS: 1502-38-1
State: gas
Instrument: HP-GC/MS/IRD
Origin: NIST Mass Spectrometry Data Center
1/CM	ABSORBANCE
550	0.0002009
562	7.35e-05
574	0.0001666
586	0.0001911
598	3.92e-05
610	6.86e-05
622	0.0001715
634	0.000147
646	0.0001176
658	0.0001323
670	7.35e-05
682	0.0001715
694	0.0001666
706	0.0002303
718	0.000245
730	0.0002548
742	0.0003577
754	0.000392
766	0.0004557
778	0.0004851
790	0.0004753
802	0.0004606
814	0.0003675
826	0.0002989
838	0.0003381
850	0.0003332
862	0.0003038
874	0.0002695
886	0.0002597
898	0.0002352
910	0.0002499
922	0.0002401
934	0.0003234
946	0.0003136
958	0.0002597
970	0.0002695
982	0.0003087
994	0.0003283
1006	0.0003234
1018	0.0003234
1030	0.0003283
1042	0.000294
1054	0.000343
1066	0.0004116
1078	0.000392
1090	0.0003136
1102	0.000294
1114	0.0002695
1126	0.0002989
1138	0.0003136
1150	0.0002401
1162	0.0001715
1174	0.0001568
1186	0.0001764
1198	0.0001715
1210	0.000245
1222	0.0003724
1234	0.0004067
1246	0.0004067
1258	0.0003773
1270	0.0003969
1282	0.0004018
1294	0.0004263
1306	0.0003724
1318	0.0003724
1330	0.00049
1342	0.0007399
1354	0.0010143
1366	0.0011613
1378	0.0012544
1390	0.0009261
1402	0.0004263
1414	0.0004459
1426	0.0008379
1438	0.0026166
1450	0.004753
1462	0.0050274
1474	0.0038808
1486	0.0021364
1498	0.0008624
1510	0.0003675
1522	0.0002205
1534	0.0001813
1546	0.0001519
1558	0.0001176
1570	0.0001274
1582	0.0001274
1594	9.31e-05
1606	7.84e-05
1618	8.82e-05
1630	9.31e-05
1642	9.31e-05
1654	8.33e-05
1666	9.31e-05
1678	6.86e-05
1690	8.82e-05
1702	7.35e-05
1714	7.84e-05
1726	6.37e-05
1738	6.37e-05
1750	5.88e-05
1762	2.94e-05
1774	5.88e-05
1786	4.9e-05
1798	4.41e-05
1810	3.92e-05
1822	4.9e-05
1834	1.96e-05
1846	3.92e-05
1858	3.92e-05
1870	3.43e-05
1882	2.45e-05
1894	2.45e-05
1906	1.96e-05
1918	2.94e-05
1930	2.94e-05
1942	3.92e-05
1954	0
1966	3.43e-05
1978	2.94e-05
1990	2.94e-05
2002	2.94e-05
2014	0
2026	2.45e-05
2038	3.92e-05
2050	9.8e-06
2062	1.96e-05
2074	3.43e-05
2086	1.96e-05
2098	2.94e-05
2110	2.94e-05
2122	3.43e-05
2134	3.43e-05
2146	5.88e-05
2158	2.94e-05
2170	2.94e-05
2182	2.45e-05
2194	2.45e-05
2206	1.96e-05
2218	3.92e-05
2230	4.41e-05
2242	3.92e-05
2254	5.39e-05
2266	2.94e-05
2278	5.39e-05
2290	1.96e-05
2302	2.94e-05
2314	0
2326	1.96e-05
2338	2.94e-05
2350	1.96e-05
2362	2.94e-05
2374	3.43e-05
2386	5.88e-05
2398	4.41e-05
2410	5.88e-05
2422	2.94e-05
2434	5.39e-05
2446	8.82e-05
2458	8.33e-05
2470	6.37e-05
2482	5.39e-05
2494	7.84e-05
2506	3.43e-05
2518	4.9e-05
2530	8.33e-05
2542	0.0001127
2554	0.000147
2566	0.0001666
2578	0.0002058
2590	0.0002499
2602	0.0002646
2614	0.0002891
2626	0.0002891
2638	0.0003283
2650	0.0004214
2662	0.0005145
2674	0.0006811
2686	0.000833
2698	0.000882
2710	0.0008428
2722	0.0007448
2734	0.000637
2746	0.0005831
2758	0.0005831
2770	0.0006272
2782	0.0007448
2794	0.0009996
2806	0.0013328
2818	0.0017101
2830	0.0024451
2842	0.005243
2854	0.0106967
2866	0.0142884
2878	0.0144207
2890	0.0144452
2902	0.0210406
2914	0.0366961
2926	0.049
2938	0.0397733
2950	0.025088
2962	0.0190022
2974	0.0094815
2986	0.0031066
2998	0.001519
3010	0.0009408
3022	0.0007203
3034	0.0006223
3046	0.000539
3058	0.0004802
3070	0.0004606
3082	0.0004018
3094	0.0003773
3106	0.0003283
3118	0.0003332
3130	0.0003087
3142	0.0002695
3154	0.0002548
3166	0.0002499
3178	0.0002401
3190	0.000245
3202	0.0002156
3214	0.000196
3226	0.0001813
3238	0.000147
3250	0.0001372
3262	0.0001323
3274	0.0001029
3286	0.0001127
3298	0.0001176
3310	0.0001127
3322	0.0001225
3334	8.33e-05
3346	0.0001176
3358	0.0001078
3370	0.0001323
3382	9.31e-05
3394	8.82e-05
3406	8.82e-05
3418	0.0001078
3430	8.82e-05
3442	6.86e-05
3454	3.43e-05
3466	4.9e-05
3478	3.92e-05
3490	4.9e-05
3502	2.94e-05
3514	2.45e-05
3526	2.45e-05
3538	2.94e-05
3550	5.39e-05
3562	4.9e-05
3574	7.84e-05
3586	4.9e-05
3598	5.39e-05
3610	7.35e-05
3622	8.33e-05
3634	8.33e-05
3646	8.33e-05
3658	0.0001029
3670	7.35e-05
3682	0.0001078
3694	0.0001078
3706	0.0001078
3718	0.0001127
3730	0.0001029
3742	7.84e-05
3754	0.0001127
3766	0.0001029
3778	0.0001519
3790	0.0001323
3802	0.0001176
3814	0.0001323
3826	8.82e-05
3838	0.0001323
