Infrared Spectrum: 4-Cyanobenzophenone
Formula: C 14 H 9 N O
CAS: 1503-49-7
State: gas
Origin: EPA-IR VAPOR PHASE LIBRARY
1/CM	ABSORBANCE
549.8	0.004437
559.445	0.002797
569.09	0.003817
578.734	0.005607
588.379	0.011137
598.024	0.006237
607.669	0.003877
617.313	0.004387
626.958	0.002987
636.603	0.004617
646.248	0.005557
655.893	0.006537
665.537	0.013167
675.182	0.028977
684.827	0.034307
694.472	0.050187
704.116	0.038547
713.761	0.016927
723.406	0.011387
733.051	0.015427
742.695	0.017187
752.34	0.009127
761.985	0.007317
771.63	0.008287
781.275	0.010237
790.919	0.009997
800.564	0.006717
810.209	0.005717
819.854	0.005627
829.498	0.007917
839.143	0.016407
848.788	0.026797
858.433	0.017987
868.078	0.007127
877.722	0.004847
887.367	0.005047
897.012	0.006367
906.657	0.012937
916.301	0.035267
925.946	0.051397
935.591	0.049737
945.236	0.018117
954.88	0.007607
964.525	0.006077
974.17	0.005677
983.815	0.002607
993.46	0.003757
1003.1	0.005997
1012.75	0.004207
1022.39	0.008227
1032.04	0.004797
1041.68	0.001767
1051.33	0.001877
1060.97	0.003767
1070.62	0.003307
1080.26	0.004127
1089.91	0.003827
1099.55	0.003507
1109.2	0.004267
1118.84	0.004467
1128.49	0.004027
1138.13	0.006577
1147.78	0.006057
1157.42	0.005077
1167.07	0.011017
1176.71	0.023457
1186.36	0.012327
1196	0.005747
1205.64	0.007987
1215.29	0.008117
1224.93	0.015587
1234.58	0.025387
1244.22	0.027957
1253.87	0.047347
1263.51	0.118937
1273.16	0.128087
1282.8	0.079817
1292.45	0.044077
1302.09	0.031877
1311.74	0.034977
1321.38	0.020197
1331.03	0.008657
1340.67	0.005807
1350.32	0.005037
1359.96	0.004967
1369.61	0.004997
1379.25	0.004987
1388.9	0.005987
1398.54	0.010147
1408.18	0.010697
1417.83	0.004877
1427.47	0.003967
1437.12	0.006247
1446.76	0.014047
1456.41	0.007657
1466.05	0.003207
1475.7	0.002457
1485.34	0.002877
1494.99	0.003197
1504.63	0.002677
1514.28	0.003087
1523.92	0.004577
1533.57	0.004677
1543.21	0.004627
1552.86	0.004987
1562.5	0.005347
1572.15	0.007007
1581.79	0.008777
1591.44	0.010937
1601.08	0.015677
1610.73	0.010597
1620.37	0.005227
1630.01	0.005737
1639.66	0.006517
1649.3	0.007357
1658.95	0.011867
1668.59	0.030487
1678.24	0.082017
1687.88	0.100137
1697.53	0.050117
1707.17	0.018047
1716.82	0.008867
1726.46	0.007007
1736.11	0.005457
1745.75	0.003347
1755.4	0.002667
1765.04	0.002677
1774.69	0.002657
1784.33	0.002397
1793.98	0.002897
1803.62	0.004737
1813.27	0.004547
1822.91	0.002377
1832.55	0.001737
1842.2	0.001537
1851.84	0.001327
1861.49	0.001187
1871.13	0.001487
1880.78	0.001587
1890.42	0.001917
1900.07	0.002377
1909.71	0.002677
1919.36	0.003067
1929	0.003137
1938.65	0.002637
1948.29	0.002487
1957.94	0.002597
1967.58	0.002307
1977.23	0.001697
1986.87	0.0010608
1996.52	0.0005824
2006.16	0.0006977
2015.81	0.0005161
2025.45	0.0007627
2035.1	0.0007147
2044.74	0.0008256
2054.38	0.0007686
2064.03	0.0009183
2073.67	0.0007335
2083.32	0.0006978
2092.96	0.0007533
2102.61	0.0006111
2112.25	0.0005287
2121.9	0.000381
2131.54	0.0005205
2141.19	0.000499
2150.83	0.0006495
2160.48	0.0006446
2170.12	0.0007159
2179.77	0.0006374
2189.41	0.00071
2199.06	0.0007491
2208.7	0.0008259
2218.35	0.001597
2227.99	0.005227
2237.64	0.006317
2247.28	0.001267
2256.92	0.0009243
2266.57	0.0008653
2276.21	0.0009559
2285.86	0.0010574
2295.5	0.0010045
2305.15	0.0008566
2314.79	0.0009592
2324.44	0.001137
2334.08	0.0007816
2343.73	0.0009658
2353.37	0.0008746
2363.02	0.0006596
2372.66	0.0009606
2382.31	0.0006706
2391.95	0.0008375
2401.6	0.001237
2411.24	0.00108
2420.89	0.0010344
2430.53	0.0007343
2440.18	0.0007217
2449.82	0.0006776
2459.47	0.0007176
2469.11	0.0005725
2478.75	0.0006996
2488.4	0.0004877
2498.04	0.0003093
2507.69	0.0004556
2517.33	0.0005441
2526.98	0.0005244
2536.62	0.000656
2546.27	0.000532
2555.91	0.0007147
2565.56	0.0006715
2575.2	0.000702
2584.85	0.0008991
2594.49	0.0007857
2604.14	0.0007733
2613.78	0.0006748
2623.43	0.0007081
2633.07	0.0005678
2642.72	0.0005025
2652.36	0.0002631
2662.01	0.0003785
2671.65	0.0004211
2681.29	0.0004721
2690.94	0.0003547
2700.58	0.0002962
2710.23	0.0004108
2719.87	0.0005552
2729.52	0.0005794
2739.16	0.0008982
2748.81	0.0009193
2758.45	0.0009978
2768.1	0.0008616
2777.74	0.0009249
2787.39	0.0006791
2797.03	0.0005998
2806.68	0.000667
2816.32	0.0003732
2825.97	0.00048
2835.61	0.0006397
2845.26	0.0007687
2854.9	0.0009749
2864.55	0.0009247
2874.19	0.001207
2883.84	0.0011053
2893.48	0.0008103
2903.12	0.0007269
2912.77	0.0007653
2922.41	0.0004687
2932.06	0.000784
2941.7	0.0006005
2951.35	0.0007983
2960.99	0.0006444
2970.64	0.000743
2980.28	0.0010455
2989.93	0.0009215
2999.57	0.001167
3009.22	0.001557
3018.86	0.003187
3028.51	0.005587
3038.15	0.008637
3047.8	0.007457
3057.44	0.008027
3067.09	0.015257
3076.73	0.018187
3086.38	0.014507
3096.02	0.011067
3105.67	0.006367
3115.31	0.003087
3124.95	0.001927
3134.6	0.001277
3144.24	0.0010044
3153.89	0.0008983
3163.53	0.0009131
3173.18	0.0008025
3182.82	0.0007348
3192.47	0.000469
3202.11	0.0003518
3211.76	0.0005547
3221.4	0.0005446
3231.05	0.0006044
3240.69	0.0005269
3250.34	0.0004147
3259.98	0.0006676
3269.63	0.0004191
3279.27	0.000262
3288.92	0.0005216
3298.56	0.0006349
3308.21	0.0006886
3317.85	0.0005385
3327.49	0.001197
3337.14	0.001787
3346.78	0.001927
3356.43	0.001687
3366.07	0.001257
3375.72	0.0007881
3385.36	0.0008866
3395.01	0.0007188
3404.65	0.001327
3414.3	0.0009884
3423.94	0.0007676
3433.59	0.000705
3443.23	0.0006593
3452.88	0.0006722
3462.52	0.0004575
3472.17	0.0007651
3481.81	0.0004327
3491.46	0.0002836
3501.1	0.0006996
3510.75	0.0006672
3520.39	0.0003956
3530.04	0.0002653
3539.68	0.0003129
3549.32	0.0004343
3558.97	0.0005034
3568.61	0.000372
3578.26	0.0003883
3587.9	0.0004493
3597.55	0.0005446
3607.19	0.0006424
3616.84	1.64e-05
3626.48	0.0009706
3636.13	0.0005735
3645.77	0.0005856
3655.42	0.000488
3665.06	0.0003585
3674.71	0.0002807
3684.35	0.000767
3694	0.0010079
3703.64	0.000745
3713.29	0.0007451
3722.93	0.000907
3732.58	0.0007933
3742.22	0.0004165
3751.86	0.000794
3761.51	0.0005978
3771.15	0.0004932
3780.8	0.0004107
3790.44	0.0006529
3800.09	0.0003516
3809.73	0.0007732
3819.38	0.0005303
3829.02	0.000513
3838.67	0.000614
3848.31	0.0006303
3857.96	0.0005213
3867.6	0.0005075
3877.25	0.0006056
3886.89	0.00017716
3896.54	0.0006985
3906.18	0.0005334
3915.83	0.0003343
3925.47	0.0004281
3935.12	0.0005489
3944.76	0.0003691
3954.41	0.000114908
3964.05	0.000449
3973.69	0.0005739
3983.34	0.000805
3992.98	0.0004847
