Infrared Spectrum: 4-Nitrocinnamyl alcohol
Formula: C 9 H 9 N O 3
CAS: 1504-63-8
State: gas
Origin: EPA-IR VAPOR PHASE LIBRARY
1/CM	ABSORBANCE
549.8	0.002749
559.445	0.002379
569.09	0.001909
578.734	0.002439
588.379	0.001889
598.024	0.002019
607.669	0.002189
617.313	0.002179
626.958	0.0014967
636.603	0.002089
646.248	0.001749
655.893	0.002259
665.537	0.003779
675.182	0.005469
684.827	0.007189
694.472	0.007119
704.116	0.005479
713.761	0.004849
723.406	0.007109
733.051	0.011449
742.695	0.012739
752.34	0.008129
761.985	0.004429
771.63	0.003409
781.275	0.003469
790.919	0.003989
800.564	0.007269
810.209	0.010859
819.854	0.016919
829.498	0.015529
839.143	0.014869
848.788	0.019389
858.433	0.034809
868.078	0.023779
877.722	0.009659
887.367	0.006299
897.012	0.005409
906.657	0.005629
916.301	0.006169
925.946	0.007399
935.591	0.009269
945.236	0.014049
954.88	0.020049
964.525	0.023629
974.17	0.020649
983.815	0.015819
993.46	0.015279
1003.1	0.019249
1012.75	0.027569
1022.39	0.030839
1032.04	0.022239
1041.68	0.015049
1051.33	0.012949
1060.97	0.013119
1070.62	0.016359
1080.26	0.020889
1089.91	0.023189
1099.55	0.019509
1109.2	0.018609
1118.84	0.012209
1128.49	0.006159
1138.13	0.005829
1147.78	0.005189
1157.42	0.004719
1167.07	0.006139
1176.71	0.009799
1186.36	0.010239
1196	0.006869
1205.64	0.007589
1215.29	0.007429
1224.93	0.006569
1234.58	0.008289
1244.22	0.007139
1253.87	0.007259
1263.51	0.007779
1273.16	0.008959
1282.8	0.011889
1292.45	0.015119
1302.09	0.015569
1311.74	0.016549
1321.38	0.020909
1331.03	0.037609
1340.67	0.103949
1350.32	0.160239
1359.96	0.076779
1369.61	0.040409
1379.25	0.028969
1388.9	0.021269
1398.54	0.014559
1408.18	0.011259
1417.83	0.009639
1427.47	0.007549
1437.12	0.006299
1446.76	0.006229
1456.41	0.006909
1466.05	0.007769
1475.7	0.009669
1485.34	0.014289
1494.99	0.020529
1504.63	0.017209
1514.28	0.028239
1523.92	0.062159
1533.57	0.097719
1543.21	0.084299
1552.86	0.040459
1562.5	0.018949
1572.15	0.015239
1581.79	0.020439
1591.44	0.037029
1601.08	0.042839
1610.73	0.021569
1620.37	0.009199
1630.01	0.005059
1639.66	0.004319
1649.3	0.004569
1658.95	0.004149
1668.59	0.003299
1678.24	0.002679
1687.88	0.002539
1697.53	0.002329
1707.17	0.002609
1716.82	0.002449
1726.46	0.001659
1736.11	0.001769
1745.75	0.001809
1755.4	0.002139
1765.04	0.002629
1774.69	0.002869
1784.33	0.003269
1793.98	0.002449
1803.62	0.001609
1813.27	0.001609
1822.91	0.0013693
1832.55	0.0012487
1842.2	0.0010409
1851.84	0.000989
1861.49	0.0011136
1871.13	0.0012107
1880.78	0.0011738
1890.42	0.0013782
1900.07	0.001819
1909.71	0.002229
1919.36	0.002779
1929	0.002059
1938.65	0.001509
1948.29	0.0011098
1957.94	0.0012567
1967.58	0.001168
1977.23	0.0011759
1986.87	0.0011777
1996.52	0.0011412
2006.16	0.0011566
2015.81	0.0011694
2025.45	0.0012177
2035.1	0.0011093
2044.74	0.001089
2054.38	0.0010723
2064.03	0.000963
2073.67	0.0009236
2083.32	0.0008698
2092.96	0.0009741
2102.61	0.0010051
2112.25	0.001002
2121.9	0.0010899
2131.54	0.0010356
2141.19	0.0010542
2150.83	0.0009342
2160.48	0.0007542
2170.12	0.0009801
2179.77	0.0008822
2189.41	0.0008689
2199.06	0.0008487
2208.7	0.0011733
2218.35	0.0010658
2227.99	0.0009574
2237.64	0.0009572
2247.28	0.0009427
2256.92	0.000905
2266.57	0.001002
2276.21	0.0010436
2285.86	0.0013
2295.5	0.0011944
2305.15	0.0010606
2314.79	0.0010551
2324.44	0.0011627
2334.08	0.0009802
2343.73	0.0009187
2353.37	0.0011041
2363.02	0.0012945
2372.66	0.0012302
2382.31	0.001076
2391.95	0.0011015
2401.6	0.0012226
2411.24	0.001127
2420.89	0.0009272
2430.53	0.001215
2440.18	0.0014432
2449.82	0.001729
2459.47	0.001949
2469.11	0.001569
2478.75	0.0012944
2488.4	0.0012882
2498.04	0.001273
2507.69	0.0010428
2517.33	0.0011405
2526.98	0.0011977
2536.62	0.0008266
2546.27	0.0010592
2555.91	0.0009988
2565.56	0.0010633
2575.2	0.0010383
2584.85	0.0013244
2594.49	0.0013272
2604.14	0.0012428
2613.78	0.0013799
2623.43	0.0013621
2633.07	0.0011435
2642.72	0.0011867
2652.36	0.0011944
2662.01	0.0010191
2671.65	0.0013025
2681.29	0.0011453
2690.94	0.001639
2700.58	0.001909
2710.23	0.001899
2719.87	0.001919
2729.52	0.001779
2739.16	0.001599
2748.81	0.001549
2758.45	0.001709
2768.1	0.001909
2777.74	0.001889
2787.39	0.002389
2797.03	0.002279
2806.68	0.002509
2816.32	0.002899
2825.97	0.003219
2835.61	0.004439
2845.26	0.005889
2854.9	0.008379
2864.55	0.012419
2874.19	0.015829
2883.84	0.013859
2893.48	0.011599
2903.12	0.010069
2912.77	0.009859
2922.41	0.010129
2932.06	0.010259
2941.7	0.009639
2951.35	0.008469
2960.99	0.006729
2970.64	0.005269
2980.28	0.004139
2989.93	0.003799
2999.57	0.003779
3009.22	0.004839
3018.86	0.005439
3028.51	0.006529
3038.15	0.006979
3047.8	0.006789
3057.44	0.006779
3067.09	0.006339
3076.73	0.005459
3086.38	0.004279
3096.02	0.001939
3105.67	0.001529
3115.31	0.0009365
3124.95	0.0008705
3134.6	0.0008971
3144.24	0.0008296
3153.89	0.0006141
3163.53	0.00055969
3173.18	0.0007182
3182.82	0.0009009
3192.47	0.0010727
3202.11	0.0008906
3211.76	0.0006732
3221.4	0.0006938
3231.05	0.0007252
3240.69	0.0008092
3250.34	0.00066
3259.98	0.00055726
3269.63	0.00052254
3279.27	0.0009122
3288.92	0.00058726
3298.56	0
3308.21	0.0008322
3317.85	0.00059083
3327.49	0.0006477
3337.14	0.0004779
3346.78	0.00052096
3356.43	0.0006552
3366.07	0.0008506
3375.72	0.0004283
3385.36	0.000819
3395.01	0.00049229
3404.65	0.00054266
3414.3	0.0007172
3423.94	0.0007281
3433.59	0.0004775
3443.23	0.0007023
3452.88	0.000508462
3462.52	0.00053943
3472.17	0.0007697
3481.81	0.0011631
3491.46	0.0006807
3501.1	0.00059717
3510.75	0.0008728
3520.39	0.00053429
3530.04	0.00056388
3539.68	0.0009691
3549.32	0.0007105
3558.97	0.0010973
3568.61	0.0007943
3578.26	0.0007103
3587.9	0.000474
3597.55	0.0007927
3607.19	0.001589
3616.84	0.001699
3626.48	0.002219
3636.13	0.003239
3645.77	0.004879
3655.42	0.007789
3665.06	0.010229
3674.71	0.007069
3684.35	0.004199
3694	0.002899
3703.64	0.002099
3713.29	0.0007855
3722.93	0.0013986
3732.58	0.0008764
3742.22	0.0010621
3751.86	0.0011594
3761.51	0.0011952
3771.15	0.0009627
3780.8	0.000442
3790.44	0.0006868
3800.09	0.0007575
3809.73	0.0008296
3819.38	0.0009104
3829.02	0.0012745
3838.67	0.0006097
3848.31	0.0008382
3857.96	0.0011329
3867.6	0.001287
3877.25	0.0012266
3886.89	0.0007213
3896.54	0.0007757
3906.18	0.0010498
3915.83	0.0007851
3925.47	0.0011521
3935.12	0.0004324
3944.76	0.000337
3954.41	0.000503414
3964.05	0.0006
3973.69	0.00056879
3983.34	0.0008613
3992.98	0.0008295
