Infrared Spectrum: P-CYCLOHEXYL PHENYL ETHYL ETHER
Formula: C14 H20 O
CAS: 1504-96-7
State: SOLUTION (10% CCl4 FOR 2.5-7.5, 10% CS2 FOR 7.5-16 MICRONS)
Class: COBLENTZ
Instrument: Not specified, most likely a prism, grating, or hybrid spectrometer.
Sampling: TRANSMISSION
Path length: 0.01 CM, 0.01 CM
Resolution: 4
Origin: DOW CHEMICAL COMPANY
MICROMETERS	TRANSMITTANCE
2.012	0.86
2.05206	0.86
2.09212	0.86
2.13218	0.86
2.17223	0.862
2.21229	0.852
2.25235	0.833
2.29241	0.842
2.33247	0.85
2.37253	0.85
2.41259	0.848
2.45265	0.863
2.4927	0.865
2.53276	0.87
2.57282	0.88
2.61288	0.882
2.65294	0.885
2.693	0.882
2.73306	0.873
2.77311	0.863
2.81317	0.867
2.85323	0.862
2.89329	0.85
2.93335	0.853
2.97341	0.862
3.01347	0.868
3.05352	0.868
3.09358	0.87
3.13364	0.87
3.1737	0.857
3.21376	0.8
3.25382	0.739
3.29388	0.664
3.33394	0.455
3.37399	0.264
3.41405	0.093
3.45411	0.272
3.49417	0.292
3.53423	0.8
3.57429	0.833
3.61435	0.865
3.6544	0.873
3.69446	0.882
3.73452	0.855
3.77458	0.888
3.81464	0.883
3.8547	0.895
3.89476	0.901
3.93481	0.897
3.97487	0.905
4.01493	0.9
4.05499	0.92
4.09505	0.913
4.13511	0.918
4.17517	0.925
4.21523	0.915
4.25528	0.915
4.29534	0.915
4.3354	0.915
4.37546	0.918
4.41552	0.93
4.45558	0.931
4.49564	0.935
4.53569	0.938
4.57575	0.938
4.61581	0.938
4.65587	0.94
4.69593	0.946
4.73599	0.946
4.77605	0.933
4.8161	0.933
4.85616	0.923
4.89622	0.916
4.93628	0.925
4.97634	0.921
5.0164	0.915
5.05646	0.915
5.09652	0.93
5.13657	0.936
5.17663	0.941
5.21669	0.933
5.25675	0.915
5.29681	0.895
5.33687	0.895
5.37693	0.92
5.41698	0.926
5.45704	0.94
5.4971	0.948
5.53716	0.953
5.57722	0.955
5.61728	0.951
5.65734	0.935
5.69739	0.925
5.73745	0.925
5.77751	0.933
5.81757	0.938
5.85763	0.938
5.89769	0.926
5.93775	0.915
5.97781	0.905
6.01786	0.867
6.05792	0.828
6.09798	0.792
6.13804	0.649
6.1781	0.332
6.21816	0.583
6.25822	0.573
6.29827	0.463
6.33833	0.541
6.37839	0.543
6.41845	0.453
6.45851	0.458
6.49857	0.508
6.53863	0.475
6.57868	0.184
6.61874	0.186
6.6588	0.556
6.69886	0.602
6.73892	0.39
6.77898	0.631
6.81904	0.561
6.8591	0.348
6.89915	0.46
6.93921	0.732
6.97927	0.78
7.01933	0.803
7.05939	0.815
7.09945	0.752
7.13951	0.498
7.17956	0.468
7.21962	0.75
7.25968	0.757
7.29974	0.725
7.3398	0.803
7.37986	0.777
7.41992	0.823
7.45997	0.813
7.50003	0.779
7.54009	0.719
7.58015	0.672
7.62021	0.546
7.66027	0.523
7.70033	0.566
7.74039	0.45
7.78044	0.41
7.8205	0.578
7.86056	0.601
7.90062	0.483
7.94068	0.302
7.98074	0.121
8.0208	0.024
8.06085	0.049
8.10091	0.099
8.14097	0.181
8.18103	0.418
8.22109	0.629
8.26115	0.702
8.30121	0.717
8.34126	0.747
8.38132	0.702
8.42138	0.498
8.46144	0.272
8.5015	0.323
8.54156	0.631
8.58162	0.7
8.62168	0.727
8.66173	0.735
8.70179	0.774
8.74185	0.799
8.78191	0.737
8.82197	0.674
8.86203	0.691
8.90209	0.571
8.94214	0.353
8.9822	0.411
9.02226	0.588
9.06232	0.631
9.10238	0.696
9.14244	0.702
9.1825	0.666
9.22255	0.725
9.26261	0.764
9.30267	0.767
9.34273	0.752
9.38279	0.682
9.42285	0.534
9.46291	0.312
9.50297	0.161
9.54302	0.219
9.58308	0.401
9.62314	0.579
9.6632	0.654
9.70326	0.712
9.74332	0.774
9.78338	0.803
9.82343	0.808
9.86349	0.799
9.90355	0.825
9.94361	0.795
9.98367	0.712
10.0237	0.705
10.0638	0.833
10.1038	0.883
10.1439	0.906
10.184	0.913
10.224	0.92
10.2641	0.923
10.3041	0.925
10.3442	0.925
10.3843	0.921
10.4243	0.916
10.4644	0.908
10.5044	0.887
10.5445	0.878
10.5845	0.875
10.6246	0.867
10.6647	0.845
10.7047	0.807
10.7448	0.732
10.7848	0.616
10.8249	0.504
10.865	0.607
10.905	0.734
10.9451	0.789
10.9851	0.818
11.0252	0.825
11.0653	0.805
11.1053	0.785
11.1454	0.787
11.1854	0.792
11.2255	0.77
11.2655	0.775
11.3056	0.799
11.3457	0.8
11.3857	0.789
11.4258	0.767
11.4658	0.745
11.5059	0.707
11.546	0.694
11.586	0.689
11.6261	0.689
11.6661	0.687
11.7062	0.686
11.7462	0.687
11.7863	0.697
11.8264	0.7
11.8664	0.676
11.9065	0.604
11.9465	0.506
11.9866	0.413
12.0267	0.312
12.0667	0.232
12.1068	0.141
12.1468	0.079
12.1869	0.086
12.227	0.308
12.267	0.506
12.3071	0.586
12.3471	0.588
12.3872	0.511
12.4272	0.39
12.4673	0.335
12.5074	0.428
12.5474	0.606
12.5875	0.705
12.6275	0.73
12.6676	0.73
12.7077	0.725
12.7477	0.755
12.7878	0.795
12.8278	0.82
12.8679	0.828
12.9079	0.835
12.948	0.837
12.9881	0.832
13.0281	0.822
13.0682	0.797
13.1082	0.759
13.1483	0.745
13.1884	0.739
13.2284	0.755
13.2685	0.775
13.3085	0.789
13.3486	0.795
13.3887	0.792
13.4287	0.785
13.4688	0.785
13.5088	0.789
13.5489	0.794
13.5889	0.797
13.629	0.799
13.6691	0.797
13.7091	0.79
13.7492	0.779
13.7892	0.77
13.8293	0.762
13.8694	0.76
13.9094	0.755
13.9495	0.752
13.9895	0.749
14.0296	0.744
14.0696	0.74
14.1097	0.735
14.1498	0.73
14.1898	0.724
14.2299	0.719
14.2699	0.712
14.31	0.707
14.3501	0.7
14.3901	0.696
14.4302	0.689
14.4702	0.681
14.5103	0.674
14.5504	0.666
14.5904	0.659
14.6305	0.649
14.6705	0.641
14.7106	0.634
14.7506	0.624
14.7907	0.614
14.8308	0.607
14.8708	0.601
14.9109	0.594
14.9509	0.588
14.991	0.578
15.0311	0.561
15.0711	0.553
15.1112	0.544
15.1512	0.534
15.1913	0.524
15.2314	0.514
15.2714	0.504
15.3115	0.496
15.3515	0.49
15.3916	0.486
15.4316	0.48
15.4717	0.476
15.5118	0.466
15.5518	0.463
15.5919	0.458
15.6319	0.453
15.672	0.451
15.7121	0.446
15.7521	0.445
15.7922	0.445
15.8322	0.443
15.8723	0.441
15.9123	0.441
