Infrared Spectrum: 3-Phenyl-2-propyn-1-ol
Formula: C 9 H 8 O
CAS: 1504-58-1
State: gas
Instrument: HP-GC/MS/IRD
Origin: NIST Mass Spectrometry Data Center
1/CM	ABSORBANCE
550	0.0016302
562	0.0010317
574	0.0015238
586	0.0008569
598	0.0004351
610	0.0002527
622	0.000152
634	0.0002755
646	0.0004047
658	0.0009063
670	0.0026239
682	0.0047747
694	0.0053105
706	0.0032205
718	0.0015941
730	0.0024472
742	0.0058121
754	0.009215
766	0.0054644
778	0.0015941
790	0.0002337
802	6.65e-05
814	7.22e-05
826	7.03e-05
838	0.0001121
850	9.31e-05
862	0.0001387
874	0.0003287
886	0.0005548
898	0.0009234
910	0.0015409
922	0.0019133
934	0.0023731
946	0.0026695
958	0.002584
970	0.0030666
982	0.0038133
994	0.0052573
1006	0.0070775
1018	0.0117097
1030	0.019
1042	0.0131841
1054	0.0059318
1066	0.0035815
1078	0.0017841
1090	0.0011723
1102	0.0009709
1114	0.0006973
1126	0.000532
1138	0.0004256
1150	0.0004047
1162	0.0004674
1174	0.0005852
1186	0.00076
1198	0.0010792
1210	0.0011476
1222	0.001368
1234	0.0017366
1246	0.0028804
1258	0.0033991
1270	0.0019798
1282	0.0017404
1294	0.0013585
1306	0.0012559
1318	0.0013832
1330	0.0018544
1342	0.0028538
1354	0.0046816
1366	0.0072162
1378	0.0097831
1390	0.0104329
1402	0.0073416
1414	0.0038019
1426	0.0021261
1438	0.0017119
1450	0.0012882
1462	0.0008113
1474	0.0014801
1486	0.0060401
1498	0.0048279
1510	0.0013547
1522	0.0004313
1534	0.0003097
1546	0.0002375
1558	0.0003154
1570	0.0004883
1582	0.0009671
1594	0.0020748
1606	0.0015694
1618	0.0003306
1630	0.0001368
1642	7.03e-05
1654	0.0002109
1666	0.0003762
1678	0.0001995
1690	8.74e-05
1702	0
1714	7.22e-05
1726	0.000152
1738	0.0001919
1750	0.0001634
1762	0.0001102
1774	0.0001292
1786	0.000304
1798	0.00038
1810	0.0001406
1822	0.0001292
1834	7.98e-05
1846	7.03e-05
1858	0.000171
1870	0.0003021
1882	0.0004826
1894	0.0003572
1906	0.0001406
1918	0.0001938
1930	0.0003306
1942	0.0005054
1954	0.0006517
1966	0.0004522
1978	0.0001786
1990	8.17e-05
2002	0.0001216
2014	0.0001083
2026	0.0001311
2038	0.0001634
2050	0.0001463
2062	0.0001368
2074	7.41e-05
2086	5.7e-05
2098	5.7e-05
2110	6.08e-05
2122	5.7e-05
2134	5.51e-05
2146	7.6e-05
2158	0.0001425
2170	0.0002033
2182	0.000361
2194	0.0004712
2206	0.000475
2218	0.0007657
2230	0.0010678
2242	0.0008702
2254	0.000361
2266	0.0001976
2278	0.0001767
2290	0.0001615
2302	0.000133
2314	0.0002014
2326	0.0001767
2338	0.0001368
2350	0.0001387
2362	0.000133
2374	0.0001349
2386	7.22e-05
2398	0.0001159
2410	0.0001235
2422	9.69e-05
2434	0.0001273
2446	5.89e-05
2458	6.46e-05
2470	7.41e-05
2482	7.03e-05
2494	6.27e-05
2506	0.0001045
2518	8.55e-05
2530	8.55e-05
2542	9.5e-05
2554	0.0001102
2566	7.22e-05
2578	9.5e-05
2590	0.0001178
2602	0.000133
2614	0.0001235
2626	9.88e-05
2638	0.0001292
2650	9.88e-05
2662	0.0001197
2674	0.0001292
2686	0.0001083
2698	0.0001387
2710	0.000152
2722	0.0001577
2734	0.0001862
2746	0.0001919
2758	0.0002052
2770	0.0002356
2782	0.000285
2794	0.0003724
2806	0.0004142
2818	0.000456
2830	0.0006346
2842	0.0010165
2854	0.0015314
2866	0.002166
2878	0.0030457
2890	0.0031369
2902	0.002736
2914	0.0027284
2926	0.0028025
2938	0.0028766
2950	0.0025061
2962	0.0017803
2974	0.0011761
2986	0.0007182
2998	0.0006099
3010	0.0008759
3022	0.001425
3034	0.0023997
3046	0.0026543
3058	0.0036176
3070	0.0054872
3082	0.0041952
3094	0.0034808
3106	0.002166
3118	0.0008113
3130	0.0003477
3142	0.000285
3154	0.0002565
3166	0.0001501
3178	0.0001387
3190	0.0001026
3202	8.93e-05
3214	7.22e-05
3226	9.31e-05
3238	7.03e-05
3250	8.55e-05
3262	0.0001197
3274	6.65e-05
3286	8.17e-05
3298	9.88e-05
3310	0.0001197
3322	0.0001102
3334	0.0001463
3346	0.0001463
3358	8.74e-05
3370	0.0001387
3382	0.0001748
3394	9.88e-05
3406	0.000171
3418	0.0002166
3430	0.0002014
3442	0.0002109
3454	0.0001995
3466	0.000209
3478	0.0002242
3490	0.0002812
3502	0.0002964
3514	0.0002698
3526	0.0002394
3538	0.0002603
3550	0.0002622
3562	0.0002869
3574	0.00038
3586	0.0003382
3598	0.0004389
3610	0.0006042
3622	0.0009538
3634	0.0013623
3646	0.0017993
3658	0.0023427
3670	0.0020368
3682	0.001482
3694	0.0009405
3706	0.0005833
3718	0.0003838
3730	0.0003515
3742	0.0003876
3754	0.000323
3766	0.0002812
3778	0.0003211
3790	0.0002736
3802	0.0002717
3814	0.0003078
3826	0.0003021
3838	0.0001976
