Infrared Spectrum: 3-Fluoro-5-(trifluoromethyl)benzylamine
Formula: C 8 H 7 F 4 N
CAS: 150517-77-4
State: gas
Origin: EPA-IR VAPOR PHASE LIBRARY
1/CM	ABSORBANCE
549.8	0.00254
559.445	0.000572
569.09	0.0015675
578.734	0.00284
588.379	0.0022439
598.024	0.0019028
607.669	0.00248
617.313	0.001766
626.958	0.00291
636.603	0.00344
646.248	0.00346
655.893	0.00338
665.537	0.00276
675.182	0.00358
684.827	0.00597
694.472	0.00919
704.116	0.01284
713.761	0.01505
723.406	0.00902
733.051	0.00583
742.695	0.00592
752.34	0.00633
761.985	0.00816
771.63	0.0088
781.275	0.00738
790.919	0.00671
800.564	0.00564
810.209	0.0045
819.854	0.00409
829.498	0.00368
839.143	0.00423
848.788	0.00479
858.433	0.00872
868.078	0.01731
877.722	0.0209
887.367	0.00998
897.012	0.00564
906.657	0.00418
916.301	0.00457
925.946	0.00431
935.591	0.00612
945.236	0.00885
954.88	0.01103
964.525	0.00921
974.17	0.00748
983.815	0.00468
993.46	0.00379
1003.1	0.00316
1012.75	0.0020352
1022.39	0.00278
1032.04	0.00265
1041.68	0.00365
1051.33	0.00244
1060.97	0.00323
1070.62	0.00356
1080.26	0.00697
1089.91	0.01094
1099.55	0.00806
1109.2	0.00406
1118.84	0.00493
1128.49	0.01326
1138.13	0.04028
1147.78	0.08354
1157.42	0.0529
1167.07	0.03856
1176.71	0.06858
1186.36	0.03882
1196	0.01438
1205.64	0.00892
1215.29	0.01002
1224.93	0.0319
1234.58	0.03502
1244.22	0.01437
1253.87	0.00789
1263.51	0.0045
1273.16	0.00321
1282.8	0.00313
1292.45	0.00367
1302.09	0.00445
1311.74	0.00623
1321.38	0.01108
1331.03	0.03157
1340.67	0.07388
1350.32	0.0742
1359.96	0.03026
1369.61	0.01383
1379.25	0.01073
1388.9	0.00845
1398.54	0.00603
1408.18	0.00472
1417.83	0.00489
1427.47	0.00595
1437.12	0.00988
1446.76	0.01688
1456.41	0.02029
1466.05	0.01466
1475.7	0.00801
1485.34	0.00437
1494.99	0.00283
1504.63	0.00291
1514.28	0.0020978
1523.92	0.00258
1533.57	0.0023132
1543.21	0.0022248
1552.86	0.0023712
1562.5	0.00305
1572.15	0.00388
1581.79	0.00502
1591.44	0.00851
1601.08	0.01301
1610.73	0.01403
1620.37	0.01093
1630.01	0.00697
1639.66	0.00432
1649.3	0.00274
1658.95	0.002228
1668.59	0.0021748
1678.24	0.002098
1687.88	0.00127
1697.53	0.00152342
1707.17	0.00149871
1716.82	0.00108
1726.46	0.0014031
1736.11	0.001708
1745.75	0.00248
1755.4	0.0017624
1765.04	0.0013495
1774.69	0.00142391
1784.33	0.001293
1793.98	0.001278
1803.62	0.001088
1813.27	0.001035
1822.91	0.001079
1832.55	0.001078
1842.2	0.000949
1851.84	0.00114
1861.49	0.00115
1871.13	0.000995
1880.78	0.000981
1890.42	0.001067
1900.07	0.00101
1909.71	0.001046
1919.36	0.000937
1929	0.000863
1938.65	0.001063
1948.29	0.000877
1957.94	0.000892
1967.58	0.001066
1977.23	0.000947
1986.87	0.001188
1996.52	0.000997
2006.16	0.001256
2015.81	0.001252
2025.45	0.00145336
2035.1	0.001206
2044.74	0.00118
2054.38	0.000959
2064.03	0.001177
2073.67	0.001315
2083.32	0.001226
2092.96	0.001079
2102.61	0.00143893
2112.25	0.001101
2121.9	0.001078
2131.54	0.000859
2141.19	0.001057
2150.83	0.0013629
2160.48	0.00133
2170.12	0.001154
2179.77	0.001143
2189.41	0.00143012
2199.06	0.001147
2208.7	0.001302
2218.35	0.001209
2227.99	0.00144897
2237.64	0.0013467
2247.28	0.001314
2256.92	0.0016621
2266.57	0.001092
2276.21	0.00150183
2285.86	0.0016771
2295.5	0.00144195
2305.15	0.001363
2314.79	0.0013879
2324.44	0.0018755
2334.08	0.00149011
2343.73	0.0015726
2353.37	0.00145549
2363.02	0.0015427
2372.66	0.001132
2382.31	0.001155
2391.95	0.00146343
2401.6	0.001263
2411.24	0.0013853
2420.89	0.001241
2430.53	0.0017382
2440.18	0.001324
2449.82	0.001242
2459.47	0.0015414
2469.11	0.001116
2478.75	0.00144585
2488.4	0.0013698
2498.04	0.001121
2507.69	0.001277
2517.33	0.0015668
2526.98	0.001106
2536.62	0.001084
2546.27	0.001051
2555.91	0.00123
2565.56	0.00142939
2575.2	0.0013544
2584.85	0.001183
2594.49	0.001278
2604.14	0.0013926
2613.78	0.0013662
2623.43	0.0014038
2633.07	0.0015873
2642.72	0.001152
2652.36	0.00124
2662.01	0.001237
2671.65	0.0015165
2681.29	0.001239
2690.94	0.0018011
2700.58	0.0013624
2710.23	0.001226
2719.87	0.0016831
2729.52	0.0017686
2739.16	0.00148725
2748.81	0.001398
2758.45	0.0017214
2768.1	0.0016805
2777.74	0.001757
2787.39	0.0019272
2797.03	0.00195
2806.68	0.00151976
2816.32	0.00248
2825.97	0.00265
2835.61	0.00281
2845.26	0.00329
2854.9	0.00375
2864.55	0.0042
2874.19	0.00391
2883.84	0.00404
2893.48	0.0039
2903.12	0.00462
2912.77	0.00468
2922.41	0.00403
2932.06	0.00386
2941.7	0.00373
2951.35	0.00323
2960.99	0.00285
2970.64	0.0020745
2980.28	0.001885
2989.93	0.0015856
2999.57	0.0017468
3009.22	0.001819
3018.86	0.0016632
3028.51	0.0017565
3038.15	0.0016238
3047.8	0.0015824
3057.44	0.0023938
3067.09	0.0018927
3076.73	0.0023076
3086.38	0.0016624
3096.02	0.00126
3105.67	0.0015572
3115.31	0.0016561
3124.95	0.0016685
3134.6	0.000998
3144.24	0.001068
3153.89	0.0015741
3163.53	0.0013831
3173.18	0.001016
3182.82	0.0014018
3192.47	0.001207
3202.11	0.000782
3211.76	0.000921
3221.4	0.001215
3231.05	0.000745
3240.69	0.001168
3250.34	0.0016071
3259.98	0.000985
3269.63	0.000987
3279.27	0.001125
3288.92	0.000972
3298.56	0.000836
3308.21	0.0013
3317.85	0.000675
3327.49	0.0018765
3337.14	0.0014196
3346.78	0.000735
3356.43	0.0016091
3366.07	0.0016506
3375.72	0.00147009
3385.36	0.00152222
3395.01	0.0013411
3404.65	0.001231
3414.3	0.001207
3423.94	0.000697
3433.59	0.0016097
3443.23	0.0016775
3452.88	0.0015479
3462.52	8e-05
3472.17	0.001265
3481.81	0.000975
3491.46	0.001113
3501.1	0.001137
3510.75	0.001008
3520.39	2e-05
3530.04	0.001213
3539.68	0.001024
3549.32	0.001019
3558.97	0.000956
3568.61	0.001221
3578.26	0.0017609
3587.9	0.001105
3597.55	0.00028
3607.19	0.000822
3616.84	0.00146907
3626.48	0.000689
3636.13	0.001079
3645.77	0.00061
3655.42	0.001313
3665.06	0.000822
3674.71	0.000904
3684.35	0.000613
3694	0.000868
3703.64	0.001372
3713.29	0.001001
3722.93	0.000664
3732.58	0.000892
3742.22	0.000835
3751.86	0.00152101
3761.51	0.001238
3771.15	0.0015399
3780.8	0.0016479
3790.44	0.0013458
3800.09	0.0015718
3809.73	0.001173
3819.38	0.001055
3829.02	0.000879
3838.67	0.001236
3848.31	0.000891
3857.96	0.0016055
3867.6	0.0018578
3877.25	0.00152624
3886.89	0.0016233
3896.54	0.001174
3906.18	0.00151868
3915.83	0.001395
3925.47	0.00145747
3935.12	0.001036
3944.76	0.00116
3954.41	0.001284
3964.05	0.00069
3973.69	0.00139
3983.34	0.0013632
3992.98	0.0016637
