Infrared Spectrum: 3-(4-Methylphenyl)propionic acid
Formula: C 10 H 12 O 2
CAS: 1505-50-6
State: gas
Origin: EPA-IR VAPOR PHASE LIBRARY
1/CM	ABSORBANCE
549.8	0.026405
559.445	0.028905
569.09	0.026335
578.734	0.023915
588.379	0.022905
598.024	0.022455
607.669	0.024755
617.313	0.024345
626.958	0.021715
636.603	0.017035
646.248	0.012845
655.893	0.010165
665.537	0.008865
675.182	0.008055
684.827	0.007515
694.472	0.006755
704.116	0.005655
713.761	0.005475
723.406	0.005625
733.051	0.004175
742.695	0.003465
752.34	0.003605
761.985	0.003735
771.63	0.004315
781.275	0.005975
790.919	0.010035
800.564	0.016855
810.209	0.022345
819.854	0.017285
829.498	0.008645
839.143	0.004245
848.788	0.002885
858.433	0.002425
868.078	0.002205
877.722	0.002475
887.367	0.002735
897.012	0.002775
906.657	0.002965
916.301	0.003225
925.946	0.003675
935.591	0.004645
945.236	0.005505
954.88	0.005555
964.525	0.005405
974.17	0.005175
983.815	0.004965
993.46	0.005905
1003.1	0.006975
1012.75	0.009735
1022.39	0.012845
1032.04	0.011505
1041.68	0.009995
1051.33	0.009645
1060.97	0.010455
1070.62	0.013975
1080.26	0.021305
1089.91	0.033955
1099.55	0.055115
1109.2	0.085895
1118.84	0.103085
1128.49	0.080585
1138.13	0.050275
1147.78	0.035085
1157.42	0.026365
1167.07	0.022535
1176.71	0.023775
1186.36	0.024675
1196	0.022795
1205.64	0.019425
1215.29	0.016635
1224.93	0.013955
1234.58	0.013095
1244.22	0.012015
1253.87	0.011435
1263.51	0.011665
1273.16	0.011845
1282.8	0.011305
1292.45	0.010635
1302.09	0.009975
1311.74	0.009775
1321.38	0.009995
1331.03	0.010325
1340.67	0.011395
1350.32	0.013505
1359.96	0.016855
1369.61	0.021045
1379.25	0.023305
1388.9	0.019515
1398.54	0.013185
1408.18	0.010825
1417.83	0.011425
1427.47	0.012635
1437.12	0.011515
1446.76	0.010415
1456.41	0.009615
1466.05	0.006995
1475.7	0.005285
1485.34	0.004985
1494.99	0.006595
1504.63	0.013185
1514.28	0.025245
1523.92	0.016085
1533.57	0.005035
1543.21	0.003165
1552.86	0.002405
1562.5	0.002155
1572.15	0.002195
1581.79	0.002135
1591.44	0.002075
1601.08	0.002035
1610.73	0.002185
1620.37	0.002385
1630.01	0.002545
1639.66	0.002545
1649.3	0.002335
1658.95	0.002065
1668.59	0.001915
1678.24	0.002075
1687.88	0.002505
1697.53	0.003565
1707.17	0.005165
1716.82	0.008265
1726.46	0.013205
1736.11	0.022035
1745.75	0.034835
1755.4	0.054145
1765.04	0.091015
1774.69	0.130905
1784.33	0.116035
1793.98	0.071345
1803.62	0.040775
1813.27	0.023495
1822.91	0.012755
1832.55	0.007245
1842.2	0.004735
1851.84	0.003435
1861.49	0.002925
1871.13	0.002975
1880.78	0.003345
1890.42	0.003495
1900.07	0.002945
1909.71	0.002155
1919.36	0.001805
1929	0.001475
1938.65	0.001315
1948.29	0.0011691
1957.94	0.0011189
1967.58	0.0009908
1977.23	0.0010528
1986.87	0.0009936
1996.52	0.0009634
2006.16	0.0009737
2015.81	0.0008677
2025.45	0.0008352
2035.1	0.0008032
2044.74	0.0006921
2054.38	0.0006569
2064.03	0.0007375
2073.67	0.000696
2083.32	0.0006375
2092.96	0.0006729
2102.61	0.0007017
2112.25	0.0007541
2121.9	0.0006869
2131.54	0.0007409
2141.19	0.000731
2150.83	0.0006778
2160.48	0.0007521
2170.12	0.0007388
2179.77	0.0007157
2189.41	0.0007374
2199.06	0.0007786
2208.7	0.0009101
2218.35	0.000978
2227.99	0.0009596
2237.64	0.0009741
2247.28	0.0008539
2256.92	0.0007644
2266.57	0.0007289
2276.21	0.0006528
2285.86	0.0007916
2295.5	0.0007667
2305.15	0.0008149
2314.79	0.0008395
2324.44	0.0008273
2334.08	0.000749
2343.73	0.0007254
2353.37	0.0006288
2363.02	0.0006568
2372.66	0.00075
2382.31	0.0007227
2391.95	0.0007618
2401.6	0.0007739
2411.24	0.0007403
2420.89	0.0007978
2430.53	0.0007565
2440.18	0.0007283
2449.82	0.0007468
2459.47	0.0006698
2469.11	0.0006243
2478.75	0.0006676
2488.4	0.0006259
2498.04	0.0006231
2507.69	0.0005995
2517.33	0.0006065
2526.98	0.0004811
2536.62	0.0004917
2546.27	0.0005296
2555.91	0.000406
2565.56	0.0004844
2575.2	0.0006048
2584.85	0.0007025
2594.49	0.0006587
2604.14	0.0005531
2613.78	0.0005817
2623.43	0.0005972
2633.07	0.000613
2642.72	0.0005538
2652.36	0.0006061
2662.01	0.0006711
2671.65	0.0006545
2681.29	0.0007067
2690.94	0.0006297
2700.58	0.0006971
2710.23	0.0006686
2719.87	0.000625
2729.52	0.0009167
2739.16	0.00127
2748.81	0.0011613
2758.45	0.0008506
2768.1	0.0008054
2777.74	0.0008685
2787.39	0.0009028
2797.03	0.0010395
2806.68	0.0011675
2816.32	0.001495
2825.97	0.001935
2835.61	0.002665
2845.26	0.003705
2854.9	0.005705
2864.55	0.008935
2874.19	0.012775
2883.84	0.012915
2893.48	0.011155
2903.12	0.010755
2912.77	0.013575
2922.41	0.021505
2932.06	0.031415
2941.7	0.028815
2951.35	0.019335
2960.99	0.015375
2970.64	0.013785
2980.28	0.013465
2989.93	0.014565
2999.57	0.016035
3009.22	0.018345
3018.86	0.024345
3028.51	0.027075
3038.15	0.017965
3047.8	0.015645
3057.44	0.014095
3067.09	0.010585
3076.73	0.007445
3086.38	0.005745
3096.02	0.004755
3105.67	0.003625
3115.31	0.002545
3124.95	0.001995
3134.6	0.001825
3144.24	0.001475
3153.89	0.0008205
3163.53	0.0006924
3173.18	0.0005179
3182.82	0.00038487
3192.47	0.0002616
3202.11	0.0004893
3211.76	0.0002499
3221.4	0.0004006
3231.05	0.000261
3240.69	0.00029298
3250.34	0.0004539
3259.98	0.000454
3269.63	0.0002735
3279.27	0.000299282
3288.92	0.0003963
3298.56	0.00038733
3308.21	0.000176
3317.85	5.8e-05
3327.49	0.0002343
3337.14	0.00038912
3346.78	0.00038216
3356.43	0.00033044
3366.07	0.0001965
3375.72	0.0004018
3385.36	0.0002739
3395.01	0.0002433
3404.65	0.00036702
3414.3	0.0004043
3423.94	0.00035765
3433.59	0.0004305
3443.23	0.0005118
3452.88	0.0004615
3462.52	0.0004309
3472.17	0.0005845
3481.81	0.0006208
3491.46	0.0007407
3501.1	0.0009562
3510.75	0.001445
3520.39	0.001925
3530.04	0.002485
3539.68	0.003195
3549.32	0.004745
3558.97	0.010645
3568.61	0.041885
3578.26	0.053745
3587.9	0.013775
3597.55	0.004825
3607.19	0.002735
3616.84	0.001765
3626.48	0.001495
3636.13	0.0011921
3645.77	0.0010059
3655.42	0.0006039
3665.06	0.000536
3674.71	0.0005246
3684.35	0.0004795
3694	0.0004885
3703.64	0.000301984
3713.29	0.0004553
3722.93	0.00029093
3732.58	0.00038672
3742.22	0.0004529
3751.86	0.000538
3761.51	0.0004511
3771.15	0.00038718
3780.8	4.7e-05
3790.44	0.0004009
3800.09	0.0004466
3809.73	0.0002537
3819.38	0.000296275
3829.02	0.000104
3838.67	0.0004011
3848.31	0.0004053
3857.96	0.0004623
3867.6	0.000524
3877.25	0.0005057
3886.89	0.00033582
3896.54	0.0004265
3906.18	0.0005362
3915.83	0.0004067
3925.47	0.0006633
3935.12	0.0005117
3944.76	0.0004084
3954.41	0.00038224
3964.05	0.0005311
3973.69	0.00035627
3983.34	0.00031595
3992.98	0.0005502
