Infrared Spectrum: 2-Chloro-3-methylbenzoic acid
Formula: C 8 H 7 Cl O 2
CAS: 15068-35-6
State: gas
Origin: EPA-IR VAPOR PHASE LIBRARY
1/CM	ABSORBANCE
549.8	0.0524943
559.445	0.0744743
569.09	0.107554
578.734	0.131794
588.379	0.111604
598.024	0.0631743
607.669	0.0325743
617.313	0.0230243
626.958	0.0215243
636.603	0.0266843
646.248	0.0817643
655.893	0.157534
665.537	0.114804
675.182	0.0307243
684.827	0.0132643
694.472	0.0095043
704.116	0.0088143
713.761	0.0102143
723.406	0.0170443
733.051	0.0407243
742.695	0.0941843
752.34	0.166044
761.985	0.174214
771.63	0.112704
781.275	0.0538143
790.919	0.0374443
800.564	0.0276243
810.209	0.0148643
819.854	0.0078243
829.498	0.0061443
839.143	0.0050543
848.788	0.0051343
858.433	0.0052943
868.078	0.0071743
877.722	0.0117743
887.367	0.0125143
897.012	0.0087743
906.657	0.0069843
916.301	0.0061143
925.946	0.0055843
935.591	0.0056843
945.236	0.0059343
954.88	0.0066143
964.525	0.0082243
974.17	0.0106643
983.815	0.0127843
993.46	0.0179243
1003.1	0.0263143
1012.75	0.0293843
1022.39	0.0270743
1032.04	0.0355043
1041.68	0.0731743
1051.33	0.133284
1060.97	0.131714
1070.62	0.0812543
1080.26	0.100474
1089.91	0.185164
1099.55	0.269514
1109.2	0.317384
1118.84	0.334044
1128.49	0.301494
1138.13	0.220104
1147.78	0.119584
1157.42	0.0829043
1167.07	0.114454
1176.71	0.104054
1186.36	0.0546143
1196	0.0579243
1205.64	0.0909943
1215.29	0.0972843
1224.93	0.0622843
1234.58	0.0452343
1244.22	0.0413243
1253.87	0.0419943
1263.51	0.0468343
1273.16	0.0562843
1282.8	0.0712043
1292.45	0.0883343
1302.09	0.104034
1311.74	0.125154
1321.38	0.146324
1331.03	0.132724
1340.67	0.0989643
1350.32	0.0893643
1359.96	0.0904543
1369.61	0.0776843
1379.25	0.0611043
1388.9	0.0532143
1398.54	0.0479943
1408.18	0.0696743
1417.83	0.0924543
1427.47	0.0795343
1437.12	0.0589243
1446.76	0.0609643
1456.41	0.0584943
1466.05	0.0438443
1475.7	0.0276243
1485.34	0.0174743
1494.99	0.0125143
1504.63	0.0109043
1514.28	0.0098443
1523.92	0.0088743
1533.57	0.0090343
1543.21	0.0103843
1552.86	0.0126143
1562.5	0.0169043
1572.15	0.0287043
1581.79	0.0409943
1591.44	0.0333943
1601.08	0.0181843
1610.73	0.0107543
1620.37	0.0085243
1630.01	0.0072643
1639.66	0.0069843
1649.3	0.0079043
1658.95	0.0095543
1668.59	0.0106943
1678.24	0.0118443
1687.88	0.0137743
1697.53	0.0182843
1707.17	0.0286543
1716.82	0.0515643
1726.46	0.0900043
1736.11	0.140624
1745.75	0.231374
1755.4	0.401434
1765.04	0.527764
1774.69	0.458894
1784.33	0.313794
1793.98	0.175544
1803.62	0.0949843
1813.27	0.0504343
1822.91	0.0267043
1832.55	0.0151443
1842.2	0.0103443
1851.84	0.0082743
1861.49	0.0085643
1871.13	0.0100943
1880.78	0.0084343
1890.42	0.0052643
1900.07	0.0038643
1909.71	0.0036343
1919.36	0.0045443
1929	0.0072743
1938.65	0.0079943
1948.29	0.0055643
1957.94	0.0035143
1967.58	0.0032643
1977.23	0.0031743
1986.87	0.0030643
1996.52	0.0027943
2006.16	0.0023743
2015.81	0.0018843
2025.45	0.0014543
2035.1	0.0012643
2044.74	0.0013743
2054.38	0.0014843
2064.03	0.0013643
2073.67	0.0011743
2083.32	0.0013643
2092.96	0.0015743
2102.61	0.0015143
2112.25	0.0014643
2121.9	0.0013543
2131.54	0.0012243
2141.19	0.0011643
2150.83	0.0011943
2160.48	0.0013143
2170.12	0.0015643
2179.77	0.0017343
2189.41	0.0018743
2199.06	0.0017143
2208.7	0.0019043
2218.35	0.0022943
2227.99	0.0023343
2237.64	0.0019743
2247.28	0.0015743
2256.92	0.0015743
2266.57	0.0016743
2276.21	0.0018243
2285.86	0.0016943
2295.5	0.0015143
2305.15	0.0013743
2314.79	0.0014443
2324.44	0.0014043
2334.08	0.0016943
2343.73	0.0019743
2353.37	0.0018743
2363.02	0.0015443
2372.66	0.0015343
2382.31	0.0016043
2391.95	0.0015243
2401.6	0.0017143
2411.24	0.0020343
2420.89	0.0022643
2430.53	0.0021543
2440.18	0.0020643
2449.82	0.0021043
2459.47	0.0021243
2469.11	0.0019743
2478.75	0.0017643
2488.4	0.0014743
2498.04	0.0013243
2507.69	0.0014843
2517.33	0.0014243
2526.98	0.0015143
2536.62	0.0017643
2546.27	0.0017643
2555.91	0.0015043
2565.56	0.0011643
2575.2	0.0010413
2584.85	0.0009374
2594.49	0.0009256
2604.14	0.0008675
2613.78	0.0009435
2623.43	0.0012143
2633.07	0.0016343
2642.72	0.0016643
2652.36	0.0012343
2662.01	0.0010018
2671.65	0.0010843
2681.29	0.0010308
2690.94	0.0009753
2700.58	0.0008998
2710.23	0.0007127
2719.87	0.0006676
2729.52	0.0007784
2739.16	0.0012143
2748.81	0.0017943
2758.45	0.0018043
2768.1	0.0009889
2777.74	0.0007483
2787.39	0.0008553
2797.03	0.0010843
2806.68	0.0012143
2816.32	0.0017643
2825.97	0.0023543
2835.61	0.0033743
2845.26	0.0047843
2854.9	0.0069843
2864.55	0.0100243
2874.19	0.0111743
2883.84	0.0098343
2893.48	0.0090743
2903.12	0.0102543
2912.77	0.0136743
2922.41	0.0202543
2932.06	0.0313343
2941.7	0.0345743
2951.35	0.0249243
2960.99	0.0201943
2970.64	0.0241343
2980.28	0.0259743
2989.93	0.0283743
2999.57	0.0224643
3009.22	0.0161743
3018.86	0.0152043
3028.51	0.0139543
3038.15	0.0143843
3047.8	0.0224543
3057.44	0.0315043
3067.09	0.0314343
3076.73	0.0325143
3086.38	0.0269643
3096.02	0.0117043
3105.67	0.0052043
3115.31	0.0038243
3124.95	0.0031443
3134.6	0.0027643
3144.24	0.0027743
3153.89	0.0027343
3163.53	0.0027843
3173.18	0.0019643
3182.82	0.0012843
3192.47	0.0006558
3202.11	0.0006552
3211.76	0.0004084
3221.4	0.000601
3231.05	0.0005341
3240.69	0.0004224
3250.34	4.63e-05
3259.98	0.000179
3269.63	0.00012322
3279.27	0.00014258
3288.92	0.0002546
3298.56	0.0002343
3308.21	0.00010075
3317.85	0.00013765
3327.49	0.0003255
3337.14	0.0004784
3346.78	0.0003385
3356.43	0.0004299
3366.07	0.0001789
3375.72	8.026e-05
3385.36	0.0004906
3395.01	0.0007371
3404.65	0.0007327
3414.3	0.0005851
3423.94	0.0005773
3433.59	0.0007642
3443.23	0.0007749
3452.88	0.0013443
3462.52	0.0019543
3472.17	0.0026143
3481.81	0.0038543
3491.46	0.0058543
3501.1	0.0084343
3510.75	0.0101243
3520.39	0.0113443
3530.04	0.0137143
3539.68	0.0179043
3549.32	0.0284543
3558.97	0.106304
3568.61	0.230124
3578.26	0.181984
3587.9	0.0499143
3597.55	0.0133643
3607.19	0.0097043
3616.84	0.0072043
3626.48	0.0041143
3636.13	0.0024543
3645.77	0.0021943
3655.42	0.0016743
3665.06	0.0009204
3674.71	0.0005242
3684.35	0.0006577
3694	0.0007223
3703.64	0.0004853
3713.29	0.000327
3722.93	0.0001825
3732.58	0.0005268
3742.22	0.0006253
3751.86	0.0006205
3761.51	0.0005225
3771.15	0.0007677
3780.8	0.0005827
3790.44	0.0005635
3800.09	0.0003471
3809.73	0.0005383
3819.38	0.0006851
3829.02	0.0005418
3838.67	0.0008789
3848.31	0.0009351
3857.96	0.0005863
3867.6	0.0003067
3877.25	0.0002405
3886.89	0.0002546
3896.54	0.0003561
3906.18	0.00011567
3915.83	0.0002229
3925.47	0.0002782
3935.12	0.000342
3944.76	0.000595
3954.41	0.000533
3964.05	0.0004472
3973.69	0.000672
3983.34	0.0004569
3992.98	0.0003016
