Infrared Spectrum: 2-Chlorophenyl phosphorodichloridate
Formula: C 6 H 4 Cl 3 O 2 P
CAS: 15074-54-1
State: gas
Origin: EPA-IR VAPOR PHASE LIBRARY
1/CM	ABSORBANCE
549.9	0.29683
559.547	0.19214
569.193	0.18982
578.84	0.22021
588.486	0.24774
598.133	0.31865
607.779	0.4287
617.426	0.47501
627.072	0.29402
636.719	0.08776
646.365	0.03743
656.012	0.03067
665.658	0.05361
675.305	0.08314
684.951	0.05206
694.598	0.02959
704.245	0.03294
713.891	0.03402
723.538	0.02686
733.184	0.04516
742.831	0.13874
752.477	0.2624
762.124	0.21748
771.77	0.12791
781.417	0.04879
791.063	0.02445
800.71	0.01722
810.356	0.01449
820.003	0.01392
829.649	0.01444
839.296	0.01498
848.943	0.01898
858.589	0.02299
868.236	0.02571
877.882	0.02894
887.529	0.03155
897.175	0.03131
906.822	0.03993
916.468	0.06768
926.115	0.15926
935.761	0.43952
945.408	0.76494
955.054	0.54814
964.701	0.19852
974.347	0.08611
983.994	0.0528
993.64	0.04038
1003.29	0.03406
1012.93	0.03333
1022.58	0.04974
1032.23	0.08374
1041.87	0.06717
1051.52	0.10085
1061.17	0.25577
1070.81	0.15331
1080.46	0.04186
1090.11	0.0243
1099.75	0.01713
1109.4	0.01521
1119.05	0.01767
1128.69	0.03047
1138.34	0.03165
1147.99	0.02158
1157.63	0.03156
1167.28	0.02911
1176.92	0.03663
1186.57	0.0708
1196.22	0.1541
1205.86	0.43549
1215.51	0.73476
1225.16	0.38201
1234.8	0.13372
1244.45	0.07581
1254.1	0.0648
1263.74	0.09838
1273.39	0.06358
1283.04	0.04384
1292.68	0.05696
1302.33	0.10362
1311.98	0.22662
1321.62	0.37706
1331.27	0.30199
1340.92	0.1627
1350.56	0.05049
1360.21	0.02553
1369.86	0.0191
1379.5	0.01791
1389.15	0.01734
1398.79	0.01666
1408.44	0.02004
1418.09	0.02292
1427.73	0.02343
1437.38	0.05565
1447.03	0.10766
1456.67	0.07264
1466.32	0.14466
1475.97	0.38496
1485.61	0.29665
1495.26	0.085
1504.91	0.04755
1514.55	0.0295
1524.2	0.02194
1533.85	0.01713
1543.49	0.01452
1553.14	0.0158
1562.79	0.02418
1572.43	0.05222
1582.08	0.07166
1591.73	0.03623
1601.37	0.01696
1611.02	0.01193
1620.67	0.01038
1630.31	0.00961
1639.96	0.00857
1649.6	0.0078803
1659.25	0.0079837
1668.9	0.00897
1678.54	0.01141
1688.19	0.01287
1697.84	0.01361
1707.48	0.01519
1717.13	0.0141
1726.78	0.01082
1736.42	0.00846
1746.07	0.0073634
1755.72	0.00711997
1765.36	0.0077281
1775.01	0.00962
1784.66	0.01301
1794.3	0.01173
1803.95	0.0088
1813.6	0.00905
1823.24	0.01044
1832.89	0.00941
1842.54	0.00706114
1852.18	0.006319
1861.83	0.00708733
1871.47	0.00926
1881.12	0.01105
1890.77	0.01178
1900.41	0.01278
1910.06	0.01331
1919.71	0.0099
1929.35	0.00867
1939	0.01073
1948.65	0.01049
1958.29	0.0079281
1967.94	0.0087
1977.59	0.01031
1987.23	0.00953
1996.88	0.006936
2006.53	0.00576
2016.17	0.00557
2025.82	0.0057
2035.47	0.00544
2045.11	0.00487
2054.76	0.00455
2064.41	0.00445
2074.05	0.00432
2083.7	0.00421
2093.35	0.00415
2102.99	0.00403
2112.64	0.00396
2122.28	0.00396
2131.93	0.00412
2141.58	0.00466
2151.22	0.00508
2160.87	0.00477
2170.52	0.00425
2180.16	0.0042
2189.81	0.0043
2199.46	0.00443
2209.1	0.00453
2218.75	0.00451
2228.4	0.00453
2238.04	0.00486
2247.69	0.00513
2257.34	0.00509
2266.98	0.00512
2276.63	0.00501
2286.28	0.00491
2295.92	0.00492
2305.57	0.00453
2315.22	0.00508
2324.86	0.0053
2334.51	0.00463
2344.16	0.00439
2353.8	0.00416
2363.45	0.00404
2373.09	0.00412
2382.74	0.0042
2392.39	0.00428
2402.03	0.00462
2411.68	0.00517
2421.33	0.00582
2430.97	0.00574
2440.62	0.00501
2450.27	0.0043
2459.91	0.00406
2469.56	0.0042
2479.21	0.00415
2488.85	0.00398
2498.5	0.00382
2508.15	0.0039
2517.79	0.00405
2527.44	0.00438
2537.09	0.00469
2546.73	0.00491
2556.38	0.00476
2566.03	0.00394
2575.67	0.00339
2585.32	0.00321
2594.96	0.00312
2604.61	0.00324
2614.26	0.00342
2623.9	0.00383
2633.55	0.00383
2643.2	0.00352
2652.84	0.00329
2662.49	0.00301
2672.14	0.00258
2681.78	0.00235
2691.43	0.00234
2701.08	0.00245
2710.72	0.00226
2720.37	0.00226
2730.02	0.00252
2739.66	0.0025
2749.31	0.0023
2758.96	0.00187
2768.6	0.00182
2778.25	0.00177
2787.9	0.0017
2797.54	0.00187
2807.19	0.00144
2816.84	0.00144
2826.48	0.00141
2836.13	0.00127
2845.77	0.00137
2855.42	0.00113
2865.07	0.00111
2874.71	0.00094
2884.36	0.00087
2894.01	0.00084
2903.65	0.00069
2913.3	0.00047
2922.95	0.00053
2932.59	0.00028
2942.24	0.00038
2951.89	0.00027
2961.53	0.00042
2971.18	0.00017
2980.83	0.00075
2990.47	0.00086
3000.12	0.00166
3009.77	0.00251
3019.41	0.00323
3029.06	0.00305
3038.71	0.00307
3048.35	0.00461
3058	0.007946
3067.64	0.01551
3077.29	0.03556
3086.94	0.03664
3096.58	0.01005
3106.23	0.00264
3115.88	0.00104
3125.52	0.00076
3135.17	0.00069
3144.82	0.00066
3154.46	0.00092
3164.11	0.00103
3173.76	0.00083
3183.4	0.00043
3193.05	0.00027
3202.7	0.00012
3212.34	8e-05
3221.99	0.00012
3231.64	0.00016
3241.28	0.00012
3250.93	0.00027
3260.58	0.00025
3270.22	0.00029
3279.87	0.00052
3289.52	0.00046
3299.16	0.0007
3308.81	0.00073
3318.45	0.00079
3328.1	0.00073
3337.75	0.001
3347.39	0.00089
3357.04	0.00119
3366.69	0.00108
3376.33	0.00123
3385.98	0.00129
3395.63	0.00131
3405.27	0.00143
3414.92	0.0014
3424.57	0.00155
3434.21	0.00173
3443.86	0.00179
3453.51	0.00184
3463.15	0.00193
3472.8	0.00199
3482.45	0.0021
3492.09	0.00218
3501.74	0.00221
3511.39	0.00238
3521.03	0.00255
3530.68	0.00263
3540.33	0.00265
3549.97	0.00271
3559.62	0.00279
3569.26	0.0029
3578.91	0.00291
3588.56	0.00298
3598.2	0.00308
3607.85	0.00315
3617.5	0.00323
3627.14	0.00336
3636.79	0.00333
3646.44	0.00334
3656.08	0.00336
3665.73	0.0034
3675.38	0.00328
3685.02	0.00344
3694.67	0.00346
3704.32	0.00361
3713.96	0.00354
3723.61	0.00352
3733.26	0.00353
3742.9	0.00357
3752.55	0.00379
3762.2	0.00407
3771.84	0.004
3781.49	0.00392
3791.13	0.0038
3800.78	0.00368
3810.43	0.00382
3820.07	0.00391
3829.72	0.00422
3839.37	0.00441
3849.01	0.00431
3858.66	0.00392
3868.31	0.00371
3877.95	0.00364
3887.6	0.0036
3897.25	0.00365
3906.89	0.00375
3916.54	0.00367
3926.19	0.00372
3935.83	0.00365
3945.48	0.00363
3955.13	0.00364
3964.77	0.00372
3974.42	0.0036
3984.07	0.0037
3993.71	0.00368
