Infrared Spectrum: 2-(2-Allyloxyethoxy)ethanol
Formula: C 7 H 14 O 3
CAS: 15075-50-0
State: gas
Origin: EPA-IR VAPOR PHASE LIBRARY
1/CM	ABSORBANCE
549.8	0.003884
559.445	0.002184
569.09	0.002704
578.734	0.002544
588.379	0.002614
598.024	0.001814
607.669	0.0015393
617.313	0.002174
626.958	0.002804
636.603	0.002264
646.248	0.00077264
655.893	0.001844
665.537	0.002404
675.182	0.000868
684.827	0.0014131
694.472	0.0006894
704.116	0.0010633
713.761	0.00074803
723.406	0.0012122
733.051	0.0014244
742.695	0.001784
752.34	0.0015022
761.985	0.0011193
771.63	0.001974
781.275	0.001914
790.919	0.002624
800.564	0.002374
810.209	0.003234
819.854	0.004284
829.498	0.004394
839.143	0.005224
848.788	0.006124
858.433	0.006864
868.078	0.008164
877.722	0.008524
887.367	0.009884
897.012	0.010544
906.657	0.012134
916.301	0.016614
925.946	0.020674
935.591	0.016864
945.236	0.011734
954.88	0.010334
964.525	0.010314
974.17	0.012914
983.815	0.016144
993.46	0.019674
1003.1	0.020384
1012.75	0.020264
1022.39	0.024424
1032.04	0.026704
1041.68	0.031154
1051.33	0.038454
1060.97	0.044084
1070.62	0.042434
1080.26	0.041594
1089.91	0.046364
1099.55	0.058494
1109.2	0.072074
1118.84	0.081224
1128.49	0.075774
1138.13	0.066584
1147.78	0.048184
1157.42	0.032704
1167.07	0.020824
1176.71	0.013314
1186.36	0.010114
1196	0.010084
1205.64	0.010144
1215.29	0.008614
1224.93	0.008424
1234.58	0.009994
1244.22	0.010544
1253.87	0.011224
1263.51	0.012184
1273.16	0.011614
1282.8	0.010744
1292.45	0.010504
1302.09	0.009054
1311.74	0.008004
1321.38	0.008894
1331.03	0.010764
1340.67	0.015364
1350.32	0.018834
1359.96	0.015794
1369.61	0.012474
1379.25	0.010344
1388.9	0.009374
1398.54	0.009104
1408.18	0.008914
1417.83	0.009364
1427.47	0.009194
1437.12	0.007564
1446.76	0.007754
1456.41	0.009294
1466.05	0.009064
1475.7	0.006984
1485.34	0.004684
1494.99	0.003164
1504.63	0.002294
1514.28	0.0017231
1523.92	0.0016088
1533.57	0.0015779
1543.21	0.001774
1552.86	0.0014858
1562.5	0.0012549
1572.15	0.0012812
1581.79	0.0010228
1591.44	0.0013906
1601.08	0.0013694
1610.73	0.0015021
1620.37	0.0015919
1630.01	0.0016575
1639.66	0.001894
1649.3	0.002534
1658.95	0.001784
1668.59	0.001255
1678.24	0.0012477
1687.88	0.0010901
1697.53	0.0009683
1707.17	0.0008651
1716.82	0.0007236
1726.46	0.0011381
1736.11	0.001033
1745.75	0.0012189
1755.4	0.00078326
1765.04	0.0012459
1774.69	0.0009501
1784.33	0.0012387
1793.98	0.0012039
1803.62	0.0008449
1813.27	0.0010762
1822.91	0.0011748
1832.55	0.0013247
1842.2	0.001794
1851.84	0.002094
1861.49	0.001824
1871.13	0.0015924
1880.78	0.0016988
1890.42	0.0014232
1900.07	0.0014577
1909.71	0.0011205
1919.36	0.0016778
1929	0.001764
1938.65	0.001774
1948.29	0.001894
1957.94	0.001904
1967.58	0.001734
1977.23	0.001814
1986.87	0.0015127
1996.52	0.001924
2006.16	0.0014655
2015.81	0.0016329
2025.45	0.0015672
2035.1	0.0014455
2044.74	0.0012635
2054.38	0.001425
2064.03	0.0011937
2073.67	0.0013362
2083.32	0.0015888
2092.96	0.001784
2102.61	0.0016013
2112.25	0.0017114
2121.9	0.001705
2131.54	0.0014998
2141.19	0.0014438
2150.83	0.0013526
2160.48	0.0013017
2170.12	0.0011183
2179.77	0.0011915
2189.41	0.0012239
2199.06	0.001111
2208.7	0.0013147
2218.35	0.0011216
2227.99	0.0011261
2237.64	0.0012312
2247.28	0.00077237
2256.92	0.0011706
2266.57	0.0011746
2276.21	0.0009861
2285.86	0.0009104
2295.5	0.0011205
2305.15	0.0008821
2314.79	0.001012
2324.44	0.0011183
2334.08	0.00077922
2343.73	0.0011069
2353.37	0.00081662
2363.02	0.0009243
2372.66	0.00082186
2382.31	0.0008942
2391.95	0.00074735
2401.6	0.0010075
2411.24	0.0010215
2420.89	0.0013135
2430.53	0.0010094
2440.18	0.0008913
2449.82	0.0011358
2459.47	0.000616
2469.11	0.0009039
2478.75	0.0010776
2488.4	0.0008076
2498.04	0.0010095
2507.69	0.00076487
2517.33	0.0011746
2526.98	0.0012248
2536.62	0.0011949
2546.27	0.0012211
2555.91	0.0012547
2565.56	0.0008789
2575.2	0.0008826
2584.85	0.0014076
2594.49	0.0009816
2604.14	0.0012458
2613.78	0.0012083
2623.43	0.0012852
2633.07	0.0011112
2642.72	0.0015559
2652.36	0.0016352
2662.01	0.002084
2671.65	0.002004
2681.29	0.002664
2690.94	0.002824
2700.58	0.003094
2710.23	0.003804
2719.87	0.003724
2729.52	0.004074
2739.16	0.003744
2748.81	0.003864
2758.45	0.004374
2768.1	0.005174
2777.74	0.005294
2787.39	0.005514
2797.03	0.006894
2806.68	0.008244
2816.32	0.009714
2825.97	0.012054
2835.61	0.017064
2845.26	0.025074
2854.9	0.035154
2864.55	0.043584
2874.19	0.045694
2883.84	0.043774
2893.48	0.041124
2903.12	0.039194
2912.77	0.037834
2922.41	0.038284
2932.06	0.038994
2941.7	0.037534
2951.35	0.035004
2960.99	0.028504
2970.64	0.020464
2980.28	0.012584
2989.93	0.009844
2999.57	0.007624
3009.22	0.006324
3018.86	0.006194
3028.51	0.004844
3038.15	0.003964
3047.8	0.003774
3057.44	0.003544
3067.09	0.004034
3076.73	0.004414
3086.38	0.005744
3096.02	0.006034
3105.67	0.004064
3115.31	0.001784
3124.95	0.0011158
3134.6	0.0017077
3144.24	0.000858
3153.89	0.0016887
3163.53	0.00083296
3173.18	0.0010993
3182.82	0.000618
3192.47	0.0008608
3202.11	0.000535
3211.76	0.00083228
3221.4	0.00079304
3231.05	0.0012871
3240.69	0.0009231
3250.34	0.000733026
3259.98	0.0012227
3269.63	0.0006771
3279.27	0.0008444
3288.92	0.000456
3298.56	0.0006
3308.21	0.0009314
3317.85	0.000575
3327.49	0.0015421
3337.14	0.00059
3346.78	0.0012058
3356.43	0.0009066
3366.07	0.000394
3375.72	0.00080051
3385.36	0.0010927
3395.01	0.0010508
3404.65	0.000241
3414.3	0.0017321
3423.94	0.000373
3433.59	0.0013479
3443.23	0.0008465
3452.88	0.0013934
3462.52	0.0009123
3472.17	0.0011668
3481.81	0.0010472
3491.46	0.001774
3501.1	0.0010002
3510.75	0.0017193
3520.39	0.002034
3530.04	0.001914
3539.68	0.002464
3549.32	0.002684
3558.97	0.002084
3568.61	0.001924
3578.26	0.003024
3587.9	0.002534
3597.55	0.002844
3607.19	0.003494
3616.84	0.005004
3626.48	0.006174
3636.13	0.006154
3645.77	0.004744
3655.42	0.003674
3665.06	0.004004
3674.71	0.003324
3684.35	0.003364
3694	0.001744
3703.64	0.0015166
3713.29	0.001974
3722.93	0.0010727
3732.58	0.0010377
3742.22	0.0010321
3751.86	0.001814
3761.51	0.0015151
3771.15	0.0013233
3780.8	0.0014418
3790.44	0.0014845
3800.09	0.0007188
3809.73	0.0012879
3819.38	0.002004
3829.02	0.0010959
3838.67	0.00079048
3848.31	0.0008576
3857.96	0.000592
3867.6	0.0014005
3877.25	0.0012677
3886.89	0.000938
3896.54	0.0012326
3906.18	0.0010216
3915.83	0.0012912
3925.47	0.0014834
3935.12	0.001864
3944.76	0.0009835
3954.41	0.0012474
3964.05	0.0012904
3973.69	0.001774
3983.34	0.001924
3992.98	0.0016533
