Infrared Spectrum: D-Fructopyranose, 2,3:5,6-di-o-isopropylidene-,
Formula: C12 H20 O6
CAS: 15080-25-8
State: SOLID (SPLIT MULL), FLUOROLUBE FOR 3800-1330 CM^-^1, NUJOL FOR 1330-400 CM^-^1
Class: COBLENTZ III
Instrument: BECKMAN IR-9 (GRATING)
Instrument parameters: ORDER CHANGES: 670, 1200, 2000 CM^-^1
Sampling: TRANSMISSION
Resolution: 2
Origin: DOW CHEMICAL COMPANY
1/CM	TRANSMITTANCE
3800	0.7525
3791	0.7533
3782	0.7543
3773	0.7553
3764	0.7561
3755	0.7567
3746	0.7571
3737	0.7575
3728	0.758
3719	0.7583
3710	0.7586
3701	0.7586
3692	0.7585
3683	0.7584
3674	0.7583
3665	0.7581
3656	0.7578
3647	0.7574
3638	0.7565
3629	0.7557
3620	0.7547
3611	0.7531
3602	0.7511
3593	0.7471
3584	0.7404
3575	0.7298
3566	0.7115
3557	0.6881
3548	0.6588
3539	0.6338
3530	0.6119
3521	0.5901
3512	0.5682
3503	0.5182
3494	0.4736
3485	0.4196
3476	0.2813
3467	0.1712
3458	0.2244
3449	0.37
3440	0.4405
3431	0.4819
3422	0.5112
3413	0.5435
3404	0.5652
3395	0.5932
3386	0.6141
3377	0.6318
3368	0.6465
3359	0.6608
3350	0.6714
3341	0.6818
3332	0.6921
3323	0.7024
3314	0.7092
3305	0.715
3296	0.7201
3287	0.7248
3278	0.7291
3269	0.7328
3260	0.7365
3251	0.7396
3242	0.7428
3233	0.7458
3224	0.7489
3215	0.7518
3206	0.7543
3197	0.7565
3188	0.7587
3179	0.7608
3170	0.7625
3161	0.7638
3152	0.7651
3143	0.7665
3134	0.7682
3125	0.7697
3116	0.7711
3107	0.7725
3098	0.7739
3089	0.7743
3080	0.7749
3071	0.7753
3062	0.7755
3053	0.7755
3044	0.775
3035	0.7734
3026	0.7678
3017	0.7374
3008	0.6489
2999	0.3309
2990	0.3595
2981	0.6103
2972	0.6196
2963	0.625
2954	0.4648
2945	0.4951
2936	0.5898
2927	0.6424
2918	0.639
2909	0.4762
2900	0.5087
2891	0.6701
2882	0.6783
2873	0.6919
2864	0.7199
2855	0.7393
2846	0.7497
2837	0.7531
2828	0.7569
2819	0.7621
2810	0.7684
2801	0.7739
2792	0.7751
2783	0.7749
2774	0.7738
2765	0.7734
2756	0.773
2747	0.7733
2738	0.774
2729	0.7748
2720	0.7756
2711	0.7767
2702	0.7785
2693	0.7803
2684	0.7817
2675	0.7828
2666	0.7828
2657	0.7786
2648	0.7788
2639	0.7805
2630	0.7821
2621	0.7825
2612	0.7824
2603	0.7818
2594	0.7831
2585	0.7847
2576	0.7868
2567	0.7893
2558	0.7914
2549	0.7928
2540	0.7934
2531	0.7933
2522	0.7933
2513	0.7931
2504	0.7928
2495	0.7925
2486	0.7922
2477	0.7918
2468	0.7917
2459	0.7912
2450	0.7911
2441	0.7912
2432	0.7912
2423	0.7911
2414	0.7908
2405	0.7904
2396	0.7889
2387	0.7857
2378	0.7828
2369	0.7804
2360	0.778
2351	0.7795
2342	0.7811
2333	0.7825
2324	0.7842
2315	0.7857
2306	0.7871
2297	0.7886
2288	0.7908
2279	0.793
2270	0.7951
2261	0.7969
2252	0.7995
2243	0.8021
2234	0.8047
2225	0.8071
2216	0.8084
2207	0.8093
2198	0.8101
2189	0.8108
2180	0.8115
2171	0.8128
2162	0.8145
2153	0.8161
2144	0.8176
2135	0.8192
2126	0.8204
2117	0.8216
2108	0.8228
2099	0.8239
2090	0.8246
2081	0.8252
2072	0.8262
2063	0.8275
2054	0.8288
2045	0.8302
2036	0.8318
2027	0.8334
2018	0.8349
2009	0.8355
2000	0.8266
1991	0.836
1982	0.8384
1973	0.8395
1964	0.8396
1955	0.8391
1946	0.84
1937	0.8435
1928	0.8442
1919	0.8418
1910	0.8396
1901	0.8378
1892	0.8365
1883	0.8354
1874	0.8346
1865	0.8337
1856	0.8336
1847	0.8348
1838	0.8357
1829	0.8362
1820	0.837
1811	0.8381
1802	0.8389
1793	0.8389
1784	0.8374
1775	0.8325
1766	0.8351
1757	0.8353
1748	0.8307
1739	0.8239
1730	0.8178
1721	0.8176
1712	0.8263
1703	0.8245
1694	0.8305
1685	0.8297
1676	0.8318
1667	0.8315
1658	0.8283
1649	0.8271
1640	0.8274
1631	0.8316
1622	0.8359
1613	0.8394
1604	0.841
1595	0.84
1586	0.8384
1577	0.8368
1568	0.8336
1559	0.8283
1550	0.8324
1541	0.8328
1532	0.8337
1523	0.8323
1514	0.8254
1505	0.826
1496	0.808
1487	0.7106
1478	0.7643
1469	0.6945
1460	0.6059
1451	0.6478
1442	0.6987
1433	0.7514
1424	0.755
1415	0.751
1406	0.743
1397	0.6233
1388	0.4237
1379	0.3429
1370	0.2031
1361	0.605
1352	0.6464
1343	0.5734
1334	0.5746
1325	0.6352
1316	0.6836
1307	0.665
1298	0.6451
1289	0.6468
1280	0.5001
1271	0.5137
1262	0.4921
1253	0.2007
1244	0.2967
1235	0.5005
1226	0.4696
1217	0.1691
1208	0.3552
1199	0.3568
1190	0.3647
1181	0.3792
1172	0.46
1163	0.441
1154	0.5512
1145	0.6026
1136	0.6134
1127	0.502
1118	0.1187
1109	0.4291
1100	0.5009
1091	0.2989
1082	0.0756
1073	0.2037
1064	0.2677
1055	0.3803
1046	0.3066
1037	0.5744
1028	0.5971
1019	0.3828
1010	0.6488
1001	0.6518
992	0.5717
983	0.5727
974	0.3382
965	0.6453
956	0.7168
947	0.7122
938	0.4651
929	0.6565
920	0.6356
911	0.5736
902	0.6306
893	0.3927
884	0.4102
875	0.6025
866	0.6738
857	0.6359
848	0.3578
839	0.5801
830	0.5773
821	0.7232
812	0.726
803	0.6253
794	0.716
785	0.7621
776	0.6893
767	0.7401
758	0.7436
749	0.7325
740	0.7099
731	0.5972
722	0.6233
713	0.7436
704	0.7697
695	0.7787
686	0.7812
677	0.7814
668	0.7641
659	0.7575
650	0.7618
641	0.7539
632	0.7351
623	0.7115
614	0.704
605	0.6847
596	0.6415
587	0.5646
578	0.651
569	0.6775
560	0.6946
551	0.7053
542	0.7072
533	0.704
524	0.6555
515	0.607
506	0.6441
497	0.66
488	0.7099
479	0.7132
470	0.6957
461	0.6488
452	0.6661
443	0.6162
434	0.5844
425	0.5253
416	0.4691
407	0.4467
