Infrared Spectrum: 4-t-Butylbenzenesulfonyl chloride
Formula: C 10 H 13 Cl O 2 S
CAS: 15084-51-2
State: gas
Origin: EPA-IR VAPOR PHASE LIBRARY
1/CM	ABSORBANCE
549.8	0.03608
559.445	0.02825
569.09	0.07445
578.734	0.17919
588.379	0.16931
598.024	0.09163
607.669	0.16519
617.313	0.26018
626.958	0.08224
636.603	0.02421
646.248	0.01229
655.893	0.009
665.537	0.00712
675.182	0.0042
684.827	0.00274
694.472	0.00189
704.116	0.0022
713.761	0.00266
723.406	0.00403
733.051	0.00911
742.695	0.04135
752.34	0.04003
761.985	0.00654
771.63	0.00344
781.275	0.00368
790.919	0.00354
800.564	0.00322
810.209	0.00376
819.854	0.01017
829.498	0.03185
839.143	0.03279
848.788	0.00857
858.433	0.00358
868.078	0.00254
877.722	0.00181
887.367	0.001184
897.012	0.0013155
906.657	0.0013581
916.301	0.00218
925.946	0.00235
935.591	0.00212
945.236	0.00171
954.88	0.00193
964.525	0.001316
974.17	0.0012474
983.815	0.0012285
993.46	0.00167
1003.1	0.0034
1012.75	0.0136
1022.39	0.00824
1032.04	0.00334
1041.68	0.00273
1051.33	0.00401
1060.97	0.00789
1070.62	0.0223
1080.26	0.04687
1089.91	0.03288
1099.55	0.01462
1109.2	0.02591
1118.84	0.01906
1128.49	0.01107
1138.13	0.01029
1147.78	0.01755
1157.42	0.02598
1167.07	0.04111
1176.71	0.1186
1186.36	0.24451
1196	0.12128
1205.64	0.059
1215.29	0.02157
1224.93	0.01778
1234.58	0.0176
1244.22	0.01276
1253.87	0.01685
1263.51	0.02744
1273.16	0.01518
1282.8	0.00716
1292.45	0.00562
1302.09	0.00504
1311.74	0.00595
1321.38	0.005
1331.03	0.00431
1340.67	0.00543
1350.32	0.00932
1359.96	0.01961
1369.61	0.03599
1379.25	0.06073
1388.9	0.13819
1398.54	0.22441
1408.18	0.12154
1417.83	0.02861
1427.47	0.01069
1437.12	0.00764
1446.76	0.00832
1456.41	0.01204
1466.05	0.01642
1475.7	0.02362
1485.34	0.02636
1494.99	0.01876
1504.63	0.01048
1514.28	0.00409
1523.92	0.00322
1533.57	0.00339
1543.21	0.00314
1552.86	0.00315
1562.5	0.00428
1572.15	0.00722
1581.79	0.01806
1591.44	0.03696
1601.08	0.01471
1610.73	0.00535
1620.37	0.00387
1630.01	0.00256
1639.66	0.00247
1649.3	0.0035
1658.95	0.00419
1668.59	0.00284
1678.24	0.00157
1687.88	0.00139
1697.53	0.0013499
1707.17	0.0011689
1716.82	0.0010503
1726.46	0.0010694
1736.11	0.0010449
1745.75	0.0011738
1755.4	0.00146
1765.04	0.00181
1774.69	0.00295
1784.33	0.00468
1793.98	0.0035
1803.62	0.00163
1813.27	0.00138
1822.91	0.00167
1832.55	0.00174
1842.2	0.0012101
1851.84	0.0010458
1861.49	0.0009358
1871.13	0.0009608
1880.78	0.0010359
1890.42	0.0011803
1900.07	0.00179
1909.71	0.00315
1919.36	0.00386
1929	0.00249
1938.65	0.00139
1948.29	0.0008357
1957.94	0.0006716
1967.58	0.0006633
1977.23	0.0006643
1986.87	0.0005221
1996.52	0.000503
2006.16	0.0005049
2015.81	0.0005912
2025.45	0.0005688
2035.1	0.0006106
2044.74	0.0004851
2054.38	0.000369625
2064.03	0.0004805
2073.67	0.0004916
2083.32	0.0006139
2092.96	0.0008643
2102.61	0.0008602
2112.25	0.0006935
2121.9	0.0007023
2131.54	0.0005976
2141.19	0.0005604
2150.83	0.0006939
2160.48	0.0006958
2170.12	0.0007656
2179.77	0.0005858
2189.41	0.0007363
2199.06	0.0007904
2208.7	0.0008578
2218.35	0.0007227
2227.99	0.0007125
2237.64	0.0007385
2247.28	0.0007361
2256.92	0.0009121
2266.57	0.001187
2276.21	0.0011531
2285.86	0.0011682
2295.5	0.0011322
2305.15	0.0012314
2314.79	0.0012107
2324.44	0.0011319
2334.08	0.0011314
2343.73	0.0010775
2353.37	0.0009172
2363.02	0.0008067
2372.66	0.0009801
2382.31	0.0010331
2391.95	0.0009307
2401.6	0.0007551
2411.24	0.0008217
2420.89	0.0008542
2430.53	0.0009421
2440.18	0.0006389
2449.82	0.0006217
2459.47	0.0007184
2469.11	0.000876
2478.75	0.0010182
2488.4	0.0011826
2498.04	0.0008111
2507.69	0.0009701
2517.33	0.0009987
2526.98	0.0008044
2536.62	0.0009293
2546.27	0.0011031
2555.91	0.00166
2565.56	0.00248
2575.2	0.00294
2584.85	0.00228
2594.49	0.00167
2604.14	0.00147
2613.78	0.0010505
2623.43	0.00084
2633.07	0.0008749
2642.72	0.0010018
2652.36	0.0010762
2662.01	0.0011214
2671.65	0.00138
2681.29	0.0011711
2690.94	0.0011572
2700.58	0.001308
2710.23	0.0011754
2719.87	0.0013088
2729.52	0.00148
2739.16	0.0014
2748.81	0.00143
2758.45	0.00154
2768.1	0.00172
2777.74	0.00174
2787.39	0.00213
2797.03	0.00205
2806.68	0.00199
2816.32	0.00235
2825.97	0.00269
2835.61	0.00311
2845.26	0.00415
2854.9	0.00621
2864.55	0.01205
2874.19	0.02194
2883.84	0.02698
2893.48	0.02503
2903.12	0.02549
2912.77	0.03208
2922.41	0.03388
2932.06	0.03218
2941.7	0.03511
2951.35	0.04772
2960.99	0.08449
2970.64	0.16535
2980.28	0.11663
2989.93	0.0392
2999.57	0.01469
3009.22	0.00661
3018.86	0.0044
3028.51	0.00357
3038.15	0.00333
3047.8	0.00344
3057.44	0.00484
3067.09	0.00724
3076.73	0.00901
3086.38	0.0076
3096.02	0.00552
3105.67	0.00459
3115.31	0.0027
3124.95	0.00204
3134.6	0.00202
3144.24	0.0018
3153.89	0.00176
3163.53	0.00184
3173.18	0.00182
3182.82	0.0019
3192.47	0.00202
3202.11	0.00185
3211.76	0.00167
3221.4	0.00167
3231.05	0.00149
3240.69	0.0011701
3250.34	0.0012917
3259.98	0.0008943
3269.63	0.0009736
3279.27	0.000993
3288.92	0.0010771
3298.56	0.0011108
3308.21	0.0009527
3317.85	0.0007987
3327.49	0.00043863
3337.14	0.0006795
3346.78	0.000499
3356.43	0.000648
3366.07	0.0004712
3375.72	0.0005987
3385.36	0.0006491
3395.01	0.00043074
3404.65	0.0005707
3414.3	0.0003597
3423.94	0.00046959
3433.59	0.0005701
3443.23	0.0003584
3452.88	0.0004997
3462.52	0.0003433
3472.17	0.00038349
3481.81	0.0005488
3491.46	0.000312
3501.1	0.00045408
3510.75	0.0005444
3520.39	0.00041446
3530.04	0.00044316
3539.68	0.000235
3549.32	0.000376329
3558.97	0.0003265
3568.61	0.0003231
3578.26	0.0003497
3587.9	0.000372935
3597.55	0.0003379
3607.19	0.000136
3616.84	0.0004823
3626.48	0.00028
3636.13	0.00040037
3645.77	0.000242
3655.42	0.000495
3665.06	0.0002725
3674.71	0.00043003
3684.35	0.000374339
3694	0.000261
3703.64	0.0003201
3713.29	0.0003005
3722.93	0.0005039
3732.58	0.000654
3742.22	0.0003465
3751.86	0.0003597
3761.51	0.0002899
3771.15	0.00045752
3780.8	0.0002929
3790.44	0.00041076
3800.09	0.00045267
3809.73	0.0004875
3819.38	0.0003569
3829.02	0.0005232
3838.67	0.000481
3848.31	0.0006026
3857.96	0.0006757
3867.6	0.000618
3877.25	0.0006663
3886.89	0.0007441
3896.54	0.0006212
3906.18	0.0006703
3915.83	0.0006554
3925.47	0.0004747
3935.12	0.0008116
3944.76	0.0005306
3954.41	0.00046018
3964.05	0.0005241
3973.69	0.00040448
3983.34	0.000516
3992.98	0.0006674
