Infrared Spectrum: 5-OXO-3,5-SECO-A-NORCHOLESTAN-3-OIC ACID
Formula: C26 H44 O3
CAS: 1508-94-7
State: SOLID (KBr DISC)
Class: COBLENTZ III
Instrument: BECKMAN IR-7
Sampling: TRANSMISSION
Resolution: 4
Origin: THE WORCESTER FOUNDATION FOR EXPERIMENTAL BIOLOGY, Neal L. McNiven
1/CM	TRANSMITTANCE
602.915	0.701
611.66	0.804
620.406	0.813
629.151	0.838
637.897	0.836
646.642	0.876
655.388	0.897
664.133	0.883
672.879	0.853
681.624	0.832
690.37	0.877
699.115	0.918
707.861	0.898
716.606	0.916
725.352	0.874
734.097	0.838
742.843	0.933
751.588	0.951
760.333	0.94
769.079	0.899
777.824	0.941
786.57	0.944
795.315	0.934
804.061	0.924
812.806	0.905
821.552	0.903
830.297	0.849
839.043	0.86
847.788	0.783
856.534	0.763
865.279	0.764
874.025	0.791
882.77	0.759
891.516	0.736
900.261	0.717
909.006	0.685
917.752	0.638
926.497	0.621
935.243	0.579
943.988	0.5
952.734	0.55
961.479	0.661
970.225	0.672
978.97	0.6689
987.716	0.74
996.461	0.749
1005.21	0.73
1013.95	0.718
1022.7	0.73
1031.44	0.752
1040.19	0.788
1048.93	0.794
1057.68	0.79
1066.42	0.752
1075.17	0.623
1083.92	0.664
1092.66	0.625
1101.41	0.759
1110.15	0.69
1118.9	0.731
1127.64	0.686
1136.39	0.628
1145.13	0.677
1153.88	0.628
1162.63	0.66
1171.37	0.684
1180.12	0.582
1188.86	0.641
1197.61	0.572
1206.35	0.54
1215.1	0.531
1223.84	0.491
1232.59	0.51
1241.33	0.588
1250.08	0.574
1258.83	0.587
1267.57	0.528
1276.32	0.453
1285.06	0.402
1293.81	0.391
1302.55	0.404
1311.3	0.431
1320.04	0.473
1328.79	0.559
1337.53	0.634
1346.28	0.664
1355.03	0.642
1363.77	0.494
1372.52	0.412
1381.26	0.336
1390.01	0.526
1398.75	0.457
1407.5	0.387
1416.24	0.401
1424.99	0.388
1433.73	0.394
1442.48	0.373
1451.23	0.375
1459.97	0.333
1468.72	0.333
1477.46	0.645
1486.21	0.711
1494.95	0.742
1503.7	0.758
1512.44	0.772
1521.19	0.785
1529.93	0.792
1538.68	0.792
1547.43	0.792
1556.17	0.79
1564.92	0.792
1573.66	0.79
1582.41	0.783
1591.15	0.772
1599.9	0.763
1608.64	0.747
1617.39	0.738
1626.14	0.721
1634.88	0.701
1643.63	0.684
1652.37	0.587
1661.12	0.569
1669.86	0.533
1678.61	0.439
1687.35	0.232
1696.1	0.157
1704.84	0.045
1713.59	0.081
1722.34	0.269
1731.08	0.397
1739.83	0.513
1748.57	0.596
1757.32	0.639
1766.06	0.661
1774.81	0.688
1783.55	0.693
1792.3	0.702
1801.04	0.711
1809.79	0.714
1818.54	0.717
1827.28	0.72
1836.03	0.721
1844.77	0.728
1853.52	0.731
1862.26	0.734
1871.01	0.742
1879.75	0.745
1888.5	0.746
1897.24	0.751
1905.99	0.753
1914.74	0.754
1923.48	0.756
1932.23	0.756
1940.97	0.757
1949.72	0.758
1958.46	0.758
1967.21	0.759
1975.95	0.759
1984.7	0.759
1993.44	0.759
2002.19	0.759
2010.94	0.7582
2019.68	0.758
2028.43	0.757
2037.17	0.757
2045.92	0.756
2054.66	0.755
2063.41	0.754
2072.15	0.753
2080.9	0.7512
2089.64	0.7502
2098.39	0.7482
2107.14	0.7472
2115.88	0.746
2124.63	0.7442
2133.37	0.743
2142.12	0.7402
2150.86	0.7363
2159.61	0.7331
2168.35	0.7301
2177.1	0.7271
2185.85	0.724
2194.59	0.7202
2203.34	0.7163
2212.08	0.714
2220.83	0.713
2229.57	0.711
2238.32	0.7091
2247.06	0.708
2255.81	0.7061
2264.55	0.6982
2273.3	0.6931
2282.05	0.6901
2290.79	0.69
2299.54	0.69
2308.28	0.69
2317.03	0.69
2325.77	0.69
2334.52	0.689
2343.26	0.685
2352.01	0.682
2360.75	0.681
2369.5	0.678
2378.25	0.6649
2386.99	0.654
2395.74	0.6479
2404.48	0.642
2413.23	0.638
2421.97	0.6368
2430.72	0.6278
2439.46	0.621
2448.21	0.6179
2456.95	0.6097
2465.7	0.6039
2474.45	0.598
2483.19	0.5867
2491.94	0.5755
2500.68	0.5658
2509.43	0.5596
2518.17	0.5499
2526.92	0.5456
2535.66	0.5361
2544.41	0.5254
2553.15	0.5096
2561.9	0.5029
2570.65	0.5009
2579.39	0.5
2588.14	0.4988
2596.88	0.4978
2605.63	0.4963
2614.37	0.4918
2623.12	0.4856
2631.86	0.4808
2640.61	0.4768
2649.36	0.4698
2658.1	0.468
2666.85	0.4658
2675.59	0.4648
2684.34	0.4628
2693.08	0.46
2701.83	0.4577
2710.57	0.455
2719.32	0.455
2728.06	0.4573
2736.81	0.462
2745.56	0.4643
2754.3	0.4647
2763.05	0.4601
2771.79	0.4491
2780.54	0.4378
2789.28	0.4271
2798.03	0.4009
2806.77	0.3841
2815.52	0.3643
2824.26	0.2736
2833.01	0.2249
2841.76	0.1803
2850.5	0.1233
2859.25	0.111
2867.99	0.1134
2876.74	0.1194
2885.48	0.1275
2894.23	0.132
2902.97	0.1236
2911.72	0.0928
2920.46	0.0624
2929.21	0.055
2937.96	0.0608
2946.7	0.0683
2955.45	0.0794
2964.19	0.0946
2972.94	0.162
2981.68	0.191
2990.43	0.228
2999.17	0.2713
3007.92	0.2888
3016.66	0.2999
3025.41	0.307
3034.16	0.309
3042.9	0.312
3051.65	0.3175
3060.39	0.32
3069.14	0.3235
3077.88	0.328
3086.63	0.3305
3095.37	0.3325
3104.12	0.3356
3112.87	0.3415
3121.61	0.3511
3130.36	0.357
3139.1	0.359
3147.85	0.3616
3156.59	0.3661
3165.34	0.3807
3174.08	0.3858
3182.83	0.3922
3191.57	0.3982
3200.32	0.4096
3209.07	0.4182
3217.81	0.4236
3226.56	0.4305
3235.3	0.4396
3244.05	0.4478
3252.79	0.4549
3261.54	0.4632
3270.28	0.4759
3279.03	0.481
3287.77	0.4903
3296.52	0.4997
3305.27	0.507
3314.01	0.5134
3322.76	0.5191
3331.5	0.524
3340.25	0.526
3348.99	0.529
3357.74	0.53
3366.48	0.531
3375.23	0.529
3383.97	0.5297
3392.72	0.5392
3401.47	0.5485
3410.21	0.558
3418.96	0.5608
3427.7	0.5628
3436.45	0.566
3445.19	0.5688
3453.94	0.5738
3462.68	0.578
3471.43	0.5798
3480.17	0.5828
3488.92	0.5868
3497.67	0.5878
3506.41	0.589
3515.16	0.5918
3523.9	0.5945
3532.65	0.6
3541.39	0.6019
3550.14	0.6049
3558.88	0.606
3567.63	0.607
3576.37	0.607
3585.12	0.608
3593.87	0.6099
3602.61	0.611
3611.36	0.6119
3620.1	0.6129
3628.85	0.613
3637.59	0.614
3646.34	0.615
3655.08	0.615
3663.83	0.615
3672.58	0.614
3681.32	0.613
3690.07	0.613
3698.81	0.613
3707.56	0.614
3716.3	0.616
3725.05	0.613
3733.79	0.613
3742.54	0.613
3751.28	0.616
3760.03	0.616
3768.78	0.615
3777.52	0.613
3786.27	0.612
3795.01	0.611
3803.76	0.608
3812.5	0.608
3821.25	0.607
3829.99	0.607
3838.74	0.6069
3847.48	0.605
3856.23	0.6039
3864.98	0.603
3873.72	0.602
3882.47	0.601
3891.21	0.6
3899.96	0.599
3908.7	0.598
3917.45	0.597
3926.19	0.5969
3934.94	0.5959
3943.68	0.595
3952.43	0.594
3961.18	0.593
3969.92	0.592
3978.67	0.592
3987.41	0.591
3996.16	0.5908
4004.9	0.59
4013.65	0.59
