Infrared Spectrum: Methyl 3,5-dibromo-2,4-dimethoxy-6-methylbenzoate
Formula: C 11 H 12 Br 2 O 4
CAS: 150965-73-4
State: gas
Origin: EPA-IR VAPOR PHASE LIBRARY
1/CM	ABSORBANCE
549.8	0.002823
559.445	0.003253
569.09	0.004493
578.734	0.002063
588.379	0.003523
598.024	0.003443
607.669	0.004083
617.313	0.003003
626.958	0.002533
636.603	0.002893
646.248	0.004283
655.893	0.008183
665.537	0.017853
675.182	0.022773
684.827	0.022543
694.472	0.008543
704.116	0.006183
713.761	0.009053
723.406	0.006183
733.051	0.003053
742.695	0.003553
752.34	0.002073
761.985	0.002443
771.63	0.003513
781.275	0.002673
790.919	0.003483
800.564	0.002283
810.209	0.002813
819.854	0.003523
829.498	0.006003
839.143	0.003133
848.788	0.002353
858.433	0.0016335
868.078	0.002143
877.722	0.002663
887.367	0.002333
897.012	0.002203
906.657	0.002643
916.301	0.005013
925.946	0.010973
935.591	0.012613
945.236	0.013523
954.88	0.019653
964.525	0.014683
974.17	0.028313
983.815	0.026093
993.46	0.010043
1003.1	0.007313
1012.75	0.006863
1022.39	0.007733
1032.04	0.010443
1041.68	0.017183
1051.33	0.024413
1060.97	0.015663
1070.62	0.014063
1080.26	0.023313
1089.91	0.042233
1099.55	0.070873
1109.2	0.066003
1118.84	0.039253
1128.49	0.020313
1138.13	0.013843
1147.78	0.010643
1157.42	0.009343
1167.07	0.009903
1176.71	0.011273
1186.36	0.014703
1196	0.017373
1205.64	0.020583
1215.29	0.028993
1224.93	0.049343
1234.58	0.087563
1244.22	0.169823
1253.87	0.177273
1263.51	0.076973
1273.16	0.033383
1282.8	0.021043
1292.45	0.015423
1302.09	0.014603
1311.74	0.019513
1321.38	0.033873
1331.03	0.027903
1340.67	0.014773
1350.32	0.013923
1359.96	0.020433
1369.61	0.042433
1379.25	0.064413
1388.9	0.040533
1398.54	0.028823
1408.18	0.019153
1417.83	0.012643
1427.47	0.013333
1437.12	0.022813
1446.76	0.019313
1456.41	0.025533
1466.05	0.020703
1475.7	0.013943
1485.34	0.010683
1494.99	0.009693
1504.63	0.008603
1514.28	0.009303
1523.92	0.011033
1533.57	0.015143
1543.21	0.020083
1552.86	0.024933
1562.5	0.022593
1572.15	0.012463
1581.79	0.007673
1591.44	0.005933
1601.08	0.004963
1610.73	0.004193
1620.37	0.003703
1630.01	0.003533
1639.66	0.003343
1649.3	0.003243
1658.95	0.003573
1668.59	0.003673
1678.24	0.003723
1687.88	0.003873
1697.53	0.005433
1707.17	0.008603
1716.82	0.010203
1726.46	0.011243
1736.11	0.026363
1745.75	0.094013
1755.4	0.083973
1765.04	0.025293
1774.69	0.011413
1784.33	0.009663
1793.98	0.006893
1803.62	0.004963
1813.27	0.003533
1822.91	0.002753
1832.55	0.002333
1842.2	0.002223
1851.84	0.002023
1861.49	0.001923
1871.13	0.002063
1880.78	0.002293
1890.42	0.002163
1900.07	0.002053
1909.71	0.002343
1919.36	0.002213
1929	0.002403
1938.65	0.002343
1948.29	0.002133
1957.94	0.002023
1967.58	0.001849
1977.23	0.002283
1986.87	0.002163
1996.52	0.002023
2006.16	0.002193
2015.81	0.002133
2025.45	0.002033
2035.1	0.002203
2044.74	0.0018781
2054.38	0.002073
2064.03	0.002293
2073.67	0.002263
2083.32	0.002273
2092.96	0.002073
2102.61	0.0017376
2112.25	0.0014154
2121.9	0.0012563
2131.54	0.0011854
2141.19	0.0012729
2150.83	0.0010032
2160.48	0.0010648
2170.12	0.0010898
2179.77	0.0012394
2189.41	0.0010323
2199.06	0.0012998
2208.7	0.0013988
2218.35	0.0010963
2227.99	0.0011111
2237.64	0.0012718
2247.28	0.0013267
2256.92	0.0014496
2266.57	0.0013165
2276.21	0.0011469
2285.86	0.0010108
2295.5	0.0010779
2305.15	0.0010428
2314.79	0.0013618
2324.44	0.00094973
2334.08	0.0013082
2343.73	0.0012054
2353.37	0.0011297
2363.02	0.0014079
2372.66	0.0011787
2382.31	0.0014826
2391.95	0.0012798
2401.6	0.0012959
2411.24	0.0011128
2420.89	0.0012056
2430.53	0.0013965
2440.18	0.0016199
2449.82	0.0013508
2459.47	0.0012252
2469.11	0.0011893
2478.75	0.00102
2488.4	0.0011709
2498.04	0.000861
2507.69	0.0009552
2517.33	0.0010805
2526.98	0.00116
2536.62	0.00091986
2546.27	0.0012127
2555.91	0.0012078
2565.56	0.0014944
2575.2	0.0015545
2584.85	0.00097331
2594.49	0.0011458
2604.14	0.001068
2613.78	0.0013628
2623.43	0.0010804
2633.07	0.0011214
2642.72	0.0010905
2652.36	0.0012326
2662.01	0.0008579
2671.65	0.0015938
2681.29	0.001316
2690.94	0.0010443
2700.58	0.00095538
2710.23	0.0011191
2719.87	0.0010571
2729.52	0.0010171
2739.16	0.0009867
2748.81	0.00090243
2758.45	0.0009932
2768.1	0.0014357
2777.74	0.00159
2787.39	0.0014062
2797.03	0.001792
2806.68	0.002003
2816.32	0.002483
2825.97	0.003993
2835.61	0.005643
2845.26	0.008283
2854.9	0.011113
2864.55	0.012573
2874.19	0.010823
2883.84	0.008143
2893.48	0.007533
2903.12	0.008203
2912.77	0.008323
2922.41	0.008923
2932.06	0.013123
2941.7	0.029393
2951.35	0.039473
2960.99	0.032753
2970.64	0.017033
2980.28	0.012213
2989.93	0.010903
2999.57	0.012523
3009.22	0.014513
3018.86	0.012933
3028.51	0.009003
3038.15	0.007793
3047.8	0.006083
3057.44	0.005243
3067.09	0.005143
3076.73	0.004183
3086.38	0.003903
3096.02	0.003233
3105.67	0.002573
3115.31	0.002393
3124.95	0.002323
3134.6	0.0018307
3144.24	0.0017443
3153.89	0.00069
3163.53	0.00090421
3173.18	0.0015172
3182.82	0.0010879
3192.47	0.0010414
3202.11	0.0009895
3211.76	0.0011351
3221.4	0.0009923
3231.05	0.000685
3240.69	0.000653
3250.34	0.000891808
3259.98	0.00097609
3269.63	0.0008121
3279.27	0.000699
3288.92	0.000638
3298.56	0.00094886
3308.21	0.0009929
3317.85	0.000694
3327.49	0.000342
3337.14	0.0011775
3346.78	0.000281
3356.43	0.000476
3366.07	0.000713
3375.72	0.000551
3385.36	0.0010007
3395.01	0.00091572
3404.65	0.00068
3414.3	0.000558
3423.94	0.0011718
3433.59	0.00093741
3443.23	0.001347
3452.88	0.0011744
3462.52	0.0011682
3472.17	0.0016998
3481.81	0.0015814
3491.46	0.002013
3501.1	0.0018001
3510.75	0.0014442
3520.39	0.00089852
3530.04	0.0008367
3539.68	0.0008609
3549.32	0.000737
3558.97	0.000737
3568.61	0.000887147
3578.26	0.0015115
3587.9	0.0012994
3597.55	0.000621
3607.19	0.000991
3616.84	0.0015779
3626.48	0.0015562
3636.13	0.00089836
3645.77	0.000263
3655.42	0.000586
3665.06	0.000608
3674.71	0.0011449
3684.35	0.000781
3694	0.0010419
3703.64	0.00096202
3713.29	0.000464
3722.93	0.000783
3732.58	0.0011591
3742.22	0.000622
3751.86	0.0011366
3761.51	0.0011777
3771.15	0.00097564
3780.8	0.000405
3790.44	0.000389
3800.09	0.0013696
3809.73	0.000647
3819.38	0.00053
3829.02	0.0008288
3838.67	0.000229
3848.31	0.000498
3857.96	0.0012254
3867.6	0.0008581
3877.25	0.0008391
3886.89	0.00096829
3896.54	0.0011552
3906.18	0.000633
3915.83	0.00090618
3925.47	0.0008664
3935.12	0.000578
3944.76	0.001923
3954.41	0.000474
3964.05	0.0010686
3973.69	0.000547
3983.34	0.00071
3992.98	0.000361
