Infrared Spectrum: a-Norandrost-3(5)-en-2-one, 3,17-dihydroxy-, diacetate
Formula: C22 H30 O5
CAS: 1509-40-6
State: SOLID (KBr DISC)
Class: COBLENTZ III
Instrument: PERKIN-ELMER 21 (GRATING)
Resolution: 2
Origin: THE SQUIBB INSTITUTE FOR MEDICAL RESEARCH
1/CM	TRANSMITTANCE
662	0.7567
671	0.7837
680	0.8135
689	0.8116
698	0.8112
707	0.8635
716	0.8834
725	0.8936
734	0.8852
743	0.8894
752	0.8923
761	0.9274
770	0.9344
779	0.9348
788	0.9381
797	0.9329
806	0.907
815	0.9123
824	0.8989
833	0.8846
842	0.9155
851	0.9103
860	0.9036
869	0.8713
878	0.7608
887	0.8556
896	0.8406
905	0.8175
914	0.8393
923	0.8488
932	0.8805
941	0.8496
950	0.8368
959	0.7261
968	0.7704
977	0.7757
986	0.699
995	0.6971
1004	0.6604
1013	0.6057
1022	0.5027
1031	0.4297
1040	0.3984
1049	0.5833
1058	0.5877
1067	0.4952
1076	0.3692
1085	0.5593
1094	0.6726
1103	0.6574
1112	0.5301
1121	0.7217
1130	0.761
1139	0.7729
1148	0.7633
1157	0.7169
1166	0.6631
1175	0.4906
1184	0.2684
1193	0.2153
1202	0.3367
1211	0.3043
1220	0.4229
1229	0.2813
1238	0.2042
1247	0.1805
1256	0.4242
1265	0.5005
1274	0.7034
1283	0.7661
1292	0.7943
1301	0.7289
1310	0.7705
1319	0.8005
1328	0.7684
1337	0.7673
1346	0.7269
1355	0.605
1364	0.5311
1373	0.467
1382	0.6207
1391	0.7759
1400	0.7825
1409	0.743
1418	0.7555
1427	0.7127
1436	0.669
1445	0.6868
1454	0.73
1463	0.7729
1472	0.8153
1481	0.8573
1490	0.9082
1499	0.9183
1508	0.9256
1517	0.9311
1526	0.935
1535	0.9373
1544	0.9375
1553	0.9359
1562	0.9322
1571	0.9288
1580	0.9258
1589	0.9216
1598	0.9169
1607	0.9108
1616	0.9042
1625	0.8928
1634	0.8757
1643	0.8556
1652	0.7429
1661	0.5921
1670	0.5302
1679	0.756
1688	0.7438
1697	0.62
1706	0.4486
1715	0.279
1724	0.1517
1733	0.2809
1742	0.4359
1751	0.4973
1760	0.4504
1769	0.4049
1778	0.579
1787	0.8047
1796	0.8324
1805	0.852
1814	0.8722
1823	0.9133
1832	0.9366
1841	0.9481
1850	0.9557
1859	0.9604
1868	0.9641
1877	0.9656
1886	0.9672
1895	0.969
1904	0.9704
1913	0.9717
1922	0.9722
1931	0.9727
1940	0.9734
1949	0.974
1958	0.9737
1967	0.9735
1976	0.9733
1985	0.973
1994	0.9725
2003	0.9721
2012	0.9716
2021	0.9715
2030	0.9714
2039	0.9712
2048	0.9715
2057	0.972
2066	0.9724
2075	0.9731
2084	0.974
2093	0.9749
2102	0.9757
2111	0.9766
2120	0.9782
2129	0.9798
2138	0.9815
2147	0.9832
2156	0.9848
2165	0.9864
2174	0.988
2183	0.9896
2192	0.9912
2201	0.9929
2210	0.9945
2219	0.997
2228	1.0007
2237	1.0042
2246	1.0056
2255	1.0063
2264	1.0066
2273	1.0068
2282	1.0065
2291	1.0061
2300	1.005
2309	1.0038
2318	1.0022
2327	1.0005
2336	0.9989
2345	0.9972
2354	0.9956
2363	0.9939
2372	0.9923
2381	0.9913
2390	0.9905
2399	0.9901
2408	0.99
2417	0.99
2426	0.9898
2435	0.9897
2444	0.9895
2453	0.9893
2462	0.9892
2471	0.9891
2480	0.989
2489	0.9889
2498	0.9888
2507	0.9888
2516	0.9885
2525	0.9883
2534	0.988
2543	0.9877
2552	0.9874
2561	0.9871
2570	0.9868
2579	0.9865
2588	0.9862
2597	0.9858
2606	0.9845
2615	0.9831
2624	0.9817
2633	0.9796
2642	0.9774
2651	0.9753
2660	0.9731
2669	0.9707
2678	0.967
2687	0.9634
2696	0.9598
2705	0.9562
2714	0.952
2723	0.9476
2732	0.9421
2741	0.933
2750	0.9232
2759	0.9059
2768	0.8845
2777	0.8632
2786	0.8421
2795	0.8211
2804	0.8003
2813	0.7796
2822	0.759
2831	0.7385
2840	0.7246
2849	0.7193
2858	0.7019
2867	0.6833
2876	0.6648
2885	0.6465
2894	0.6283
2903	0.6063
2912	0.6008
2921	0.6006
2930	0.6022
2939	0.6421
2948	0.7189
2957	0.7644
2966	0.8098
2975	0.855
2984	0.8999
2993	0.9325
3002	0.9375
3011	0.9373
3020	0.9368
3029	0.9359
3038	0.935
3047	0.9341
3056	0.9331
3065	0.9317
3074	0.9303
3083	0.929
3092	0.9276
3101	0.9261
3110	0.9242
3119	0.921
3128	0.9172
3137	0.9127
3146	0.9079
3155	0.9032
3164	0.8984
3173	0.8933
3182	0.8882
3191	0.883
3200	0.8772
3209	0.8711
3218	0.865
3227	0.8589
3236	0.8528
3245	0.8465
3254	0.8402
3263	0.8344
3272	0.8289
3281	0.8234
3290	0.8178
3299	0.812
3308	0.8063
3317	0.8006
3326	0.7958
3335	0.7933
3344	0.791
3353	0.7888
3362	0.7869
3371	0.7866
3380	0.787
3389	0.7874
3398	0.7876
3407	0.789
3416	0.7914
3425	0.7939
3434	0.7967
3443	0.7998
3452	0.803
3461	0.8066
3470	0.8104
3479	0.8149
3488	0.8197
3497	0.826
3506	0.8321
3515	0.8383
3524	0.8482
3533	0.8596
3542	0.8702
3551	0.8789
3560	0.8875
3569	0.8959
3578	0.9039
3587	0.9142
3596	0.9273
3605	0.9367
3614	0.9446
3623	0.9494
3632	0.9541
3641	0.9587
3650	0.9631
3659	0.9659
3668	0.9678
3677	0.9692
3686	0.9694
3695	0.9692
3704	0.9691
3713	0.9685
3722	0.9676
3731	0.9666
3740	0.9657
3749	0.9647
3758	0.9636
3767	0.9627
3776	0.9623
3785	0.9619
3794	0.9615
3803	0.9612
3812	0.9612
3821	0.9614
3830	0.9617
3839	0.9619
3848	0.9621
3857	0.9623
3866	0.9626
3875	0.9629
3884	0.9631
3893	0.9634
3902	0.9637
3911	0.9639
3920	0.9642
3929	0.9644
3938	0.9647
3947	0.9651
3956	0.9654
3965	0.9657
3974	0.966
3983	0.9663
3992	0.9667
