Infrared Spectrum: 3-oxa-A-nor-5Alpha-androstan-2-one, 17-hydroxy-, acetate
Formula: C19 H28 O4
CAS: 1509-47-3
State: SOLID (KBr DISC)
Class: COBLENTZ III
Instrument: PERKIN-ELMER 21 (GRATING)
Resolution: 2
Origin: THE SQUIBB INSTITUTE FOR MEDICAL RESEARCH
1/CM	TRANSMITTANCE
668	0.8272
677	0.8815
686	0.8666
695	0.7839
704	0.8115
713	0.8497
722	0.9256
731	0.9441
740	0.9515
749	0.9481
758	0.928
767	0.9167
776	0.9595
785	0.9549
794	0.9418
803	0.9174
812	0.897
821	0.8543
830	0.7083
839	0.4725
848	0.8739
857	0.8483
866	0.9153
875	0.8841
884	0.7261
893	0.8309
902	0.6052
911	0.6803
920	0.7397
929	0.6633
938	0.4843
947	0.3812
956	0.655
965	0.6905
974	0.4267
983	0.3111
992	0.0782
1001	0.2079
1010	0.2863
1019	0.0989
1028	0.1721
1037	0.1465
1046	0.1629
1055	0.4995
1064	0.5839
1073	0.5286
1082	0.346
1091	0.4953
1100	0.2884
1109	0.4945
1118	0.3877
1127	0.3872
1136	0.5763
1145	0.4749
1154	0.7161
1163	0.682
1172	0.4199
1181	0.1097
1190	0.5054
1199	0.3991
1208	0.1824
1217	0.2483
1226	0.3135
1235	0.1178
1244	0.0342
1253	0.0303
1262	0.0544
1271	0.118
1280	0.385
1289	0.5807
1298	0.6768
1307	0.6416
1316	0.7292
1325	0.7546
1334	0.7232
1343	0.6835
1352	0.5321
1361	0.3345
1370	0.2497
1379	0.2667
1388	0.3012
1397	0.5561
1406	0.7075
1415	0.6185
1424	0.4706
1433	0.3845
1442	0.298
1451	0.4647
1460	0.5806
1469	0.6316
1478	0.7066
1487	0.8579
1496	0.8732
1505	0.8745
1514	0.8752
1523	0.876
1532	0.877
1541	0.8787
1550	0.8803
1559	0.882
1568	0.8847
1577	0.8885
1586	0.8893
1595	0.8858
1604	0.8774
1613	0.8626
1622	0.8431
1631	0.817
1640	0.7871
1649	0.7598
1658	0.7449
1667	0.7235
1676	0.6835
1685	0.6369
1694	0.4818
1703	0.4131
1712	0.1871
1721	0.0533
1730	0.0853
1739	0.2094
1748	0.3215
1757	0.2558
1766	0.098
1775	0.0294
1784	0.0427
1793	0.1499
1802	0.3138
1811	0.5017
1820	0.6878
1829	0.802
1838	0.855
1847	0.8799
1856	0.9045
1865	0.9293
1874	0.9423
1883	0.9496
1892	0.9543
1901	0.9575
1910	0.9597
1919	0.9655
1928	0.9747
1937	0.9778
1946	0.9797
1955	0.9808
1964	0.9811
1973	0.9816
1982	0.9824
1991	0.9834
2000	0.9849
2009	0.9862
2018	0.9872
2027	0.986
2036	0.9845
2045	0.9831
2054	0.9817
2063	0.9806
2072	0.9807
2081	0.9851
2090	0.9856
2099	0.9853
2108	0.9841
2117	0.9828
2126	0.9829
2135	0.9841
2144	0.9873
2153	0.9926
2162	0.9967
2171	0.9994
2180	1.0009
2189	1.0014
2198	1.0018
2207	1.0022
2216	1.0026
2225	1.003
2234	1.0033
2243	1.0033
2252	1.0034
2261	1.0035
2270	1.0035
2279	1.0037
2288	1.0038
2297	1.0039
2306	1.0041
2315	1.0043
2324	1.0044
2333	1.0045
2342	1.0047
2351	1.0048
2360	1.0047
2369	1.0047
2378	1.0047
2387	1.0046
2396	1.0044
2405	1.0043
2414	1.0041
2423	1.0042
2432	1.0042
2441	1.0043
2450	1.0038
2459	1.0029
2468	1.002
2477	1.0012
2486	1.0005
2495	0.9999
2504	0.9989
2513	0.9976
2522	0.9963
2531	0.9939
2540	0.9912
2549	0.987
2558	0.9824
2567	0.9773
2576	0.9723
2585	0.9675
2594	0.9628
2603	0.9597
2612	0.9574
2621	0.9557
2630	0.9541
2639	0.9528
2648	0.9516
2657	0.9497
2666	0.9473
2675	0.9432
2684	0.9387
2693	0.9336
2702	0.9276
2711	0.9202
2720	0.911
2729	0.9005
2738	0.8865
2747	0.8726
2756	0.859
2765	0.8346
2774	0.7843
2783	0.742
2792	0.6453
2801	0.5463
2810	0.4478
2819	0.3541
2828	0.3405
2837	0.3343
2846	0.3254
2855	0.2528
2864	0.2467
2873	0.2463
2882	0.2471
2891	0.2496
2900	0.2566
2909	0.28
2918	0.2999
2927	0.3208
2936	0.3581
2945	0.4506
2954	0.5507
2963	0.6504
2972	0.7494
2981	0.8426
2990	0.9145
2999	0.931
3008	0.9406
3017	0.9478
3026	0.9531
3035	0.9569
3044	0.9596
3053	0.962
3062	0.9632
3071	0.9643
3080	0.9649
3089	0.9656
3098	0.966
3107	0.9659
3116	0.9657
3125	0.9655
3134	0.9651
3143	0.9648
3152	0.9645
3161	0.9642
3170	0.9637
3179	0.9631
3188	0.9626
3197	0.962
3206	0.9615
3215	0.9611
3224	0.9607
3233	0.9603
3242	0.96
3251	0.9595
3260	0.9591
3269	0.9588
3278	0.9584
3287	0.9581
3296	0.9577
3305	0.9574
3314	0.9571
3323	0.9569
3332	0.9569
3341	0.9569
3350	0.957
3359	0.957
3368	0.9573
3377	0.9582
3386	0.959
3395	0.9599
3404	0.9626
3413	0.966
3422	0.9696
3431	0.9732
3440	0.9771
3449	0.9802
3458	0.9825
3467	0.9847
3476	0.9861
3485	0.9871
3494	0.9874
3503	0.9897
3512	0.9933
3521	0.998
3530	1.0053
3539	1.0145
3548	1.0221
3557	1.0279
3566	1.0325
3575	1.0359
3584	1.0379
3593	1.0394
3602	1.0403
3611	1.0406
3620	1.0411
3629	1.042
3638	1.0425
3647	1.0426
3656	1.0426
3665	1.0426
3674	1.0426
3683	1.0426
3692	1.0426
3701	1.0426
3710	1.0426
3719	1.0426
3728	1.0426
3737	1.0426
3746	1.0426
3755	1.0426
3764	1.0427
3773	1.0427
3782	1.0427
3791	1.0427
3800	1.0427
3809	1.0427
3818	1.0427
3827	1.0427
3836	1.0427
3845	1.0427
3854	1.0427
3863	1.0427
3872	1.0427
3881	1.0427
3890	1.0427
3899	1.0427
3908	1.0427
3917	1.0427
3926	1.0427
3935	1.0427
3944	1.0427
3953	1.0427
3962	1.0428
3971	1.0428
3980	1.0428
3989	1.0428
3998	1.0428
