Infrared Spectrum: 3-oxa-A-nor-5Alpha-androstan-17-ol, acetate
Formula: C19 H30 O3
CAS: 1509-45-1
State: SOLID (KBr DISC)
Class: COBLENTZ III
Instrument: PERKIN-ELMER 21 (GRATING)
Resolution: 2
Origin: THE SQUIBB INSTITUTE FOR MEDICAL RESEARCH
1/CM	TRANSMITTANCE
667	0.9537
676	0.9512
685	0.9619
694	0.9909
703	0.9958
712	1.008
721	1.0029
730	0.9967
739	0.9927
748	1.0002
757	0.9972
766	0.9987
775	0.9949
784	0.9892
793	0.9821
802	0.975
811	0.964
820	0.9726
829	0.9628
838	0.9626
847	0.9641
856	0.9444
865	0.9812
874	0.9712
883	0.9107
892	0.9537
901	0.8976
910	0.8549
919	0.713
928	0.9202
937	0.9444
946	0.8944
955	0.8516
964	0.7344
973	0.659
982	0.9383
991	0.9171
1000	0.8249
1009	0.6048
1018	0.2999
1027	0.3242
1036	0.5537
1045	0.5482
1054	0.8115
1063	0.9096
1072	0.8965
1081	0.7981
1090	0.8208
1099	0.7615
1108	0.7763
1117	0.543
1126	0.8354
1135	0.9675
1144	0.9671
1153	0.9736
1162	0.9854
1171	0.9558
1180	0.9248
1189	0.8801
1198	0.7809
1207	0.6377
1216	0.6163
1225	0.4962
1234	0.1272
1243	0.0572
1252	0.2805
1261	0.5568
1270	0.7415
1279	0.7181
1288	0.8952
1297	0.9399
1306	0.9401
1315	0.9536
1324	0.9229
1333	0.8751
1342	0.8485
1351	0.7593
1360	0.6181
1369	0.5545
1378	0.6434
1387	0.6827
1396	0.8787
1405	0.9213
1414	0.9123
1423	0.8951
1432	0.8463
1441	0.6937
1450	0.5989
1459	0.7442
1468	0.7751
1477	0.8522
1486	0.9418
1495	0.9591
1504	0.964
1513	0.9663
1522	0.9687
1531	0.9688
1540	0.9731
1549	0.9756
1558	0.976
1567	0.9759
1576	0.9756
1585	0.9748
1594	0.9731
1603	0.9673
1612	0.9589
1621	0.9495
1630	0.9397
1639	0.9305
1648	0.9237
1657	0.9222
1666	0.9214
1675	0.9192
1684	0.9105
1693	0.8969
1702	0.8765
1711	0.8359
1720	0.549
1729	0.2572
1738	0.2379
1747	0.5277
1756	0.8262
1765	0.9064
1774	0.9267
1783	0.9359
1792	0.9433
1801	0.95
1810	0.9578
1819	0.9658
1828	0.9759
1837	0.9852
1846	0.9915
1855	0.9934
1864	0.9938
1873	0.9938
1882	0.9935
1891	0.9934
1900	0.9933
1909	0.9929
1918	0.9916
1927	0.9912
1936	0.9916
1945	0.9924
1954	0.9951
1963	0.9978
1972	0.9993
1981	1.0003
1990	1.0011
1999	1.0017
2008	1.0022
2017	1.0021
2026	1.0019
2035	1.0017
2044	1.0015
2053	1.0012
2062	1.0009
2071	1.0007
2080	1.0005
2089	1.0003
2098	1
2107	0.9996
2116	0.9993
2125	0.9989
2134	0.9989
2143	0.9989
2152	0.999
2161	1.0001
2170	1.001
2179	1.002
2188	1.0028
2197	1.0035
2206	1.0039
2215	1.0043
2224	1.0037
2233	1.0029
2242	1.0021
2251	1.0012
2260	1.0007
2269	1.0007
2278	1.0006
2287	1.0006
2296	1.0005
2305	1.0004
2314	1.0003
2323	1.0002
2332	1.0001
2341	1.0001
2350	1.0001
2359	1
2368	1
2377	1.0001
2386	1.0007
2395	1.0013
2404	1.002
2413	1.0028
2422	1.0038
2431	1.0044
2440	1.0041
2449	1.0038
2458	1.0035
2467	1.0026
2476	1.0012
2485	1
2494	0.9979
2503	0.9957
2512	0.9936
2521	0.9914
2530	0.9891
2539	0.9869
2548	0.9847
2557	0.9816
2566	0.9773
2575	0.973
2584	0.9679
2593	0.9629
2602	0.9594
2611	0.9563
2620	0.9538
2629	0.953
2638	0.9523
2647	0.9525
2656	0.9528
2665	0.9522
2674	0.951
2683	0.9491
2692	0.947
2701	0.9441
2710	0.9411
2719	0.9376
2728	0.9341
2737	0.9296
2746	0.9245
2755	0.9179
2764	0.9091
2773	0.8936
2782	0.8719
2791	0.8096
2800	0.7055
2809	0.6021
2818	0.4993
2827	0.4546
2836	0.4476
2845	0.4401
2854	0.432
2863	0.4218
2872	0.3952
2881	0.3642
2890	0.344
2899	0.3435
2908	0.3574
2917	0.3885
2926	0.4011
2935	0.4214
2944	0.5394
2953	0.6642
2962	0.7884
2971	0.8996
2980	0.9304
2989	0.955
2998	0.9695
3007	0.9785
3016	0.9846
3025	0.9903
3034	0.9951
3043	0.9999
3052	1.0048
3061	1.0097
3070	1.0131
3079	1.0158
3088	1.0185
3097	1.0211
3106	1.0233
3115	1.0255
3124	1.0277
3133	1.0289
3142	1.03
3151	1.0311
3160	1.0318
3169	1.0321
3178	1.0323
3187	1.0324
3196	1.0324
3205	1.0321
3214	1.0318
3223	1.0315
3232	1.0313
3241	1.0308
3250	1.0304
3259	1.0301
3268	1.0296
3277	1.0288
3286	1.0278
3295	1.0267
3304	1.0257
3313	1.0247
3322	1.0235
3331	1.0224
3340	1.0212
3349	1.0199
3358	1.0187
3367	1.0177
3376	1.0168
3385	1.0159
3394	1.015
3403	1.0143
3412	1.0141
3421	1.014
3430	1.0139
3439	1.0142
3448	1.0146
3457	1.015
3466	1.0153
3475	1.0154
3484	1.0155
3493	1.0155
3502	1.0156
3511	1.0157
3520	1.0157
3529	1.0158
3538	1.016
3547	1.0166
3556	1.0172
3565	1.0179
3574	1.0186
3583	1.0192
3592	1.0199
3601	1.0204
3610	1.0206
3619	1.0207
3628	1.0207
3637	1.0208
3646	1.021
3655	1.0211
3664	1.0211
3673	1.0209
3682	1.0207
3691	1.0206
3700	1.0204
3709	1.0203
3718	1.0201
3727	1.0199
3736	1.0198
3745	1.0196
3754	1.0194
3763	1.0192
3772	1.019
3781	1.0188
3790	1.0186
3799	1.0184
3808	1.0182
3817	1.0179
3826	1.0178
3835	1.0175
3844	1.0174
3853	1.0172
3862	1.0172
3871	1.017
3880	1.017
3889	1.0168
3898	1.0168
3907	1.0166
3916	1.0166
3925	1.0164
3934	1.0163
3943	1.0163
3952	1.0161
3961	1.0161
3970	1.0159
3979	1.0159
3988	1.0158
3997	1.0158
