Infrared Spectrum: a-Norandrost-3(5)-en-2-one, 3,17-dihydroxy-,
Formula: C18 H26 O3
CAS: 1509-39-3
State: SOLID (KBr DISC)
Class: COBLENTZ III
Instrument: PERKIN-ELMER 21 (GRATING)
Resolution: 2
Origin: THE SQUIBB INSTITUTE FOR MEDICAL RESEARCH
1/CM	TRANSMITTANCE
662	0.7489
671	0.8014
680	0.7968
689	0.7916
698	0.8293
707	0.8225
716	0.8196
725	0.8209
734	0.824
743	0.8286
752	0.841
761	0.8625
770	0.8826
779	0.8964
788	0.9072
797	0.9174
806	0.9216
815	0.9107
824	0.8907
833	0.8911
842	0.9339
851	0.909
860	0.8932
869	0.9349
878	0.9271
887	0.8787
896	0.9178
905	0.9271
914	0.9163
923	0.9104
932	0.8813
941	0.8773
950	0.8368
959	0.8433
968	0.8931
977	0.8666
986	0.8508
995	0.8821
1004	0.854
1013	0.7695
1022	0.7086
1031	0.6562
1040	0.569
1049	0.6942
1058	0.6796
1067	0.7302
1076	0.7401
1085	0.6857
1094	0.6818
1103	0.6763
1112	0.4674
1121	0.6011
1130	0.7448
1139	0.8034
1148	0.8283
1157	0.8177
1166	0.8491
1175	0.8088
1184	0.8057
1193	0.7526
1202	0.7002
1211	0.7919
1220	0.8115
1229	0.7869
1238	0.7699
1247	0.7513
1256	0.7554
1265	0.7442
1274	0.7437
1283	0.75
1292	0.7403
1301	0.7658
1310	0.8055
1319	0.8157
1328	0.7378
1337	0.6892
1346	0.6942
1355	0.6948
1364	0.6509
1373	0.6271
1382	0.5981
1391	0.52
1400	0.4397
1409	0.4244
1418	0.484
1427	0.5408
1436	0.5786
1445	0.6277
1454	0.6923
1463	0.7378
1472	0.8199
1481	0.8845
1490	0.9011
1499	0.9087
1508	0.9134
1517	0.9151
1526	0.9165
1535	0.9179
1544	0.9188
1553	0.9188
1562	0.917
1571	0.9129
1580	0.9077
1589	0.9002
1598	0.8877
1607	0.8621
1616	0.8258
1625	0.7846
1634	0.6915
1643	0.5892
1652	0.4269
1661	0.2159
1670	0.3564
1679	0.6224
1688	0.5948
1697	0.4687
1706	0.2735
1715	0.5431
1724	0.8042
1733	0.8814
1742	0.9392
1751	0.9479
1760	0.9518
1769	0.956
1778	0.9601
1787	0.9644
1796	0.9674
1805	0.97
1814	0.9722
1823	0.9736
1832	0.9745
1841	0.9749
1850	0.9754
1859	0.9751
1868	0.9747
1877	0.9737
1886	0.9728
1895	0.9718
1904	0.9701
1913	0.9683
1922	0.9669
1931	0.9655
1940	0.9652
1949	0.9649
1958	0.9647
1967	0.9652
1976	0.9656
1985	0.9661
1994	0.9668
2003	0.9674
2012	0.9678
2021	0.9674
2030	0.9671
2039	0.9667
2048	0.9664
2057	0.9662
2066	0.9661
2075	0.9659
2084	0.9657
2093	0.9656
2102	0.9654
2111	0.9656
2120	0.9658
2129	0.9659
2138	0.9661
2147	0.9663
2156	0.9665
2165	0.9666
2174	0.9666
2183	0.9667
2192	0.9667
2201	0.9668
2210	0.9671
2219	0.9675
2228	0.9677
2237	0.9681
2246	0.9684
2255	0.9687
2264	0.969
2273	0.9689
2282	0.9688
2291	0.9688
2300	0.9687
2309	0.9686
2318	0.9684
2327	0.9677
2336	0.967
2345	0.9664
2354	0.9657
2363	0.9649
2372	0.9638
2381	0.9627
2390	0.9616
2399	0.9602
2408	0.9583
2417	0.9563
2426	0.9543
2435	0.9524
2444	0.9503
2453	0.9481
2462	0.9461
2471	0.9441
2480	0.942
2489	0.94
2498	0.9379
2507	0.9359
2516	0.9339
2525	0.9319
2534	0.9299
2543	0.927
2552	0.9241
2561	0.9212
2570	0.9183
2579	0.9155
2588	0.9127
2597	0.9101
2606	0.9074
2615	0.9047
2624	0.9014
2633	0.8973
2642	0.8932
2651	0.8891
2660	0.884
2669	0.8785
2678	0.8729
2687	0.8674
2696	0.8609
2705	0.854
2714	0.8471
2723	0.8389
2732	0.829
2741	0.8192
2750	0.8065
2759	0.7933
2768	0.7777
2777	0.7623
2786	0.7476
2795	0.7301
2804	0.6867
2813	0.6411
2822	0.5964
2831	0.5749
2840	0.5689
2849	0.5564
2858	0.5229
2867	0.5046
2876	0.4901
2885	0.4817
2894	0.4818
2903	0.4878
2912	0.4976
2921	0.5054
2930	0.5128
2939	0.5203
2948	0.5393
2957	0.5828
2966	0.6263
2975	0.6694
2984	0.6938
2993	0.6828
3002	0.6675
3011	0.6522
3020	0.6371
3029	0.6229
3038	0.6157
3047	0.6082
3056	0.6012
3065	0.5952
3074	0.5892
3083	0.5835
3092	0.5787
3101	0.5738
3110	0.5689
3119	0.5652
3128	0.5619
3137	0.5594
3146	0.5594
3155	0.5596
3164	0.5604
3173	0.563
3182	0.5681
3191	0.5755
3200	0.5846
3209	0.5956
3218	0.606
3227	0.6118
3236	0.6173
3245	0.6197
3254	0.6217
3263	0.6232
3272	0.6227
3281	0.6219
3290	0.6202
3299	0.6162
3308	0.6109
3317	0.6054
3326	0.5994
3335	0.5935
3344	0.5879
3353	0.5827
3362	0.5775
3371	0.5723
3380	0.5673
3389	0.563
3398	0.5614
3407	0.561
3416	0.5628
3425	0.5698
3434	0.577
3443	0.5872
3452	0.6021
3461	0.6285
3470	0.6556
3479	0.6825
3488	0.7093
3497	0.7359
3506	0.7624
3515	0.7836
3524	0.7951
3533	0.808
3542	0.8288
3551	0.8657
3560	0.8849
3569	0.9022
3578	0.9171
3587	0.9308
3596	0.9383
3605	0.9457
3614	0.9522
3623	0.9583
3632	0.9633
3641	0.968
3650	0.9715
3659	0.9748
3668	0.9774
3677	0.9797
3686	0.9815
3695	0.982
3704	0.9825
3713	0.9827
3722	0.9826
3731	0.9826
3740	0.9825
3749	0.9824
3758	0.9823
3767	0.9822
3776	0.9821
3785	0.982
3794	0.9819
3803	0.9818
3812	0.9819
3821	0.9819
3830	0.9819
3839	0.9819
3848	0.9819
3857	0.9819
3866	0.982
3875	0.982
3884	0.982
3893	0.9822
3902	0.9825
3911	0.9827
3920	0.983
3929	0.9832
3938	0.9834
3947	0.9837
3956	0.9839
3965	0.9841
3974	0.9843
3983	0.9846
3992	0.9847
