Infrared Spectrum: PHENETHYLAMINE, 4-CHLORO-Alpha,Alpha-DIMETHYL-, HYDROCHLORIDE
Formula: C10 H15 Cl2 N
CAS: 151-06-4
State: SOLID (OIL MULL)
Class: COBLENTZ III
Instrument: PERKIN-ELMER 21 (GRATING)
Instrument parameters: NaCl PRISM
Sampling: TRANSMISSION
Resolution: 2
Origin: SMITH KLINE & FRENCH LABS.
MICROMETERS	TRANSMITTANCE
2.004	0.569
2.03833	0.573
2.07266	0.581
2.10699	0.588
2.14132	0.596
2.17564	0.597
2.20997	0.6
2.2443	0.606
2.27863	0.602
2.31296	0.596
2.34729	0.602
2.38162	0.623
2.41595	0.636
2.45027	0.638
2.4846	0.661
2.51893	0.672
2.55326	0.683
2.58759	0.685
2.62192	0.689
2.65625	0.702
2.69058	0.702
2.7249	0.718
2.75923	0.738
2.79356	0.739
2.82789	0.749
2.86222	0.757
2.89655	0.762
2.93088	0.767
2.96521	0.77
2.99953	0.778
3.03386	0.788
3.06819	0.788
3.10252	0.743
3.13685	0.7
3.17118	0.682
3.20551	0.555
3.23984	0.468
3.27417	0.328
3.30849	0.228
3.34282	0.139
3.37715	0.068
3.41148	0.051
3.44581	0.051
3.48014	0.051
3.51447	0.051
3.5488	0.128
3.58312	0.209
3.61745	0.179
3.65178	0.249
3.68611	0.338
3.72044	0.369
3.75477	0.229
3.7891	0.344
3.82343	0.468
3.85775	0.438
3.89208	0.242
3.92641	0.349
3.96074	0.514
3.99507	0.479
4.0294	0.451
4.06373	0.5
4.09806	0.589
4.13238	0.632
4.16671	0.655
4.20104	0.668
4.23537	0.68
4.2697	0.68
4.30403	0.685
4.33836	0.705
4.37269	0.718
4.40701	0.731
4.44134	0.735
4.47567	0.743
4.51	0.751
4.54433	0.762
4.57866	0.765
4.61299	0.766
4.64732	0.76
4.68165	0.77
4.71597	0.771
4.7503	0.76
4.78463	0.65
4.81896	0.352
4.85329	0.409
4.88762	0.47
4.92195	0.602
4.95628	0.68
4.9906	0.72
5.02493	0.739
5.05926	0.749
5.09359	0.749
5.12792	0.71
5.16225	0.734
5.19658	0.753
5.23091	0.678
5.26523	0.755
5.29956	0.773
5.33389	0.787
5.36822	0.789
5.40255	0.794
5.43688	0.803
5.47121	0.786
5.50554	0.775
5.53986	0.779
5.57419	0.786
5.60852	0.786
5.64285	0.784
5.67718	0.765
5.71151	0.771
5.74584	0.787
5.78017	0.787
5.8145	0.789
5.84882	0.795
5.88315	0.794
5.91748	0.783
5.95181	0.754
5.98614	0.762
6.02047	0.77
6.0548	0.76
6.08913	0.77
6.12345	0.772
6.15778	0.743
6.19211	0.69
6.22644	0.737
6.26077	0.768
6.2951	0.773
6.32943	0.727
6.36376	0.765
6.39808	0.767
6.43241	0.748
6.46674	0.753
6.50107	0.74
6.5354	0.735
6.56973	0.721
6.60406	0.528
6.63839	0.502
6.67271	0.4
6.70704	0.498
6.74137	0.413
6.7757	0.301
6.81003	0.22
6.84436	0.202
6.87869	0.29
6.91302	0.424
6.94735	0.562
6.98167	0.684
7.016	0.711
7.05033	0.611
7.08466	0.408
7.11899	0.584
7.15332	0.502
7.18765	0.229
7.22198	0.353
7.2563	0.215
7.29063	0.405
7.32496	0.531
7.35929	0.652
7.39362	0.678
7.42795	0.63
7.46228	0.632
7.49661	0.691
7.53093	0.728
7.56526	0.753
7.59959	0.754
7.63392	0.744
7.66825	0.685
7.70258	0.7
7.73691	0.612
7.77124	0.411
7.80556	0.342
7.83989	0.509
7.87422	0.651
7.90855	0.702
7.94288	0.748
7.97721	0.765
8.01154	0.766
8.04587	0.773
8.08019	0.782
8.11452	0.79
8.14885	0.794
8.18318	0.793
8.21751	0.795
8.25184	0.794
8.28617	0.797
8.3205	0.803
8.35483	0.803
8.38915	0.794
8.42348	0.761
8.45781	0.607
8.49214	0.64
8.52647	0.544
8.5608	0.548
8.59513	0.661
8.62946	0.721
8.66378	0.749
8.69811	0.761
8.73244	0.771
8.76677	0.771
8.8011	0.777
8.83543	0.781
8.86976	0.793
8.90409	0.815
8.93841	0.804
8.97274	0.792
9.00707	0.74
9.0414	0.603
9.07573	0.614
9.11006	0.732
9.14439	0.661
9.17872	0.424
9.21304	0.634
9.24737	0.676
9.2817	0.731
9.31603	0.773
9.35036	0.766
9.38469	0.771
9.41902	0.722
9.45335	0.722
9.48768	0.783
9.522	0.808
9.55633	0.827
9.59066	0.837
9.62499	0.841
9.65932	0.845
9.69365	0.845
9.72798	0.852
9.76231	0.858
9.79663	0.788
9.83096	0.479
9.86529	0.644
9.89962	0.764
9.93395	0.786
9.96828	0.806
10.0026	0.814
10.0369	0.798
10.0713	0.771
10.1056	0.804
10.1399	0.822
10.1743	0.826
10.2086	0.826
10.2429	0.815
10.2772	0.815
10.3116	0.801
10.3459	0.814
10.3802	0.816
10.4146	0.83
10.4489	0.832
10.4832	0.839
10.5175	0.838
10.5519	0.826
10.5862	0.825
10.6205	0.834
10.6549	0.836
10.6892	0.836
10.7235	0.831
10.7578	0.826
10.7922	0.831
10.8265	0.831
10.8608	0.836
10.8952	0.836
10.9295	0.844
10.9638	0.861
10.9981	0.864
11.0325	0.864
11.0668	0.867
11.1011	0.865
11.1355	0.871
11.1698	0.869
11.2041	0.865
11.2384	0.861
11.2728	0.869
11.3071	0.87
11.3414	0.863
11.3758	0.86
11.4101	0.864
11.4444	0.872
11.4787	0.877
11.5131	0.877
11.5474	0.877
11.5817	0.876
11.6161	0.872
11.6504	0.864
11.6847	0.847
11.719	0.815
11.7534	0.764
11.7877	0.612
11.822	0.372
11.8564	0.381
11.8907	0.492
11.925	0.574
11.9593	0.58
11.9937	0.534
12.028	0.513
12.0623	0.581
12.0967	0.685
12.131	0.742
12.1653	0.749
12.1996	0.68
12.234	0.442
12.2683	0.232
12.3026	0.209
12.337	0.321
12.3713	0.5
12.4056	0.63
12.44	0.744
12.4743	0.781
12.5086	0.794
12.5429	0.815
12.5773	0.825
12.6116	0.83
12.6459	0.832
12.6803	0.834
12.7146	0.845
12.7489	0.848
12.7832	0.85
12.8176	0.852
12.8519	0.849
12.8862	0.849
12.9206	0.852
12.9549	0.848
12.9892	0.841
13.0235	0.836
13.0579	0.838
13.0922	0.837
13.1265	0.836
13.1609	0.831
13.1952	0.826
13.2295	0.793
13.2638	0.724
13.2982	0.502
13.3325	0.353
13.3668	0.573
13.4012	0.696
13.4355	0.761
13.4698	0.782
13.5041	0.787
13.5385	0.788
13.5728	0.788
13.6071	0.789
13.6415	0.788
13.6758	0.788
13.7101	0.786
13.7444	0.784
13.7788	0.784
13.8131	0.781
13.8474	0.775
13.8818	0.775
13.9161	0.776
13.9504	0.783
13.9847	0.784
14.0191	0.767
14.0534	0.74
14.0877	0.775
14.1221	0.787
14.1564	0.792
14.1907	0.798
14.225	0.797
14.2594	0.795
14.2937	0.795
14.328	0.794
14.3624	0.794
14.3967	0.792
14.431	0.788
14.4653	0.784
14.4997	0.781
14.534	0.777
14.5683	0.775
14.6027	0.775
14.637	0.771
14.6713	0.77
14.7057	0.765
14.74	0.756
14.7743	0.754
14.8086	0.745
14.843	0.722
14.8773	0.651
14.9116	0.58
14.946	0.568
14.9803	0.602
15.0146	0.656
15.0489	0.68
15.0833	0.689
15.1176	0.69
