Infrared Spectrum: 1,3-Dimethoxybenzene
Formula: C 8 H 10 O 2
CAS: 151-10-0
State: gas
Instrument: HP-GC/MS/IRD
Origin: NIST Mass Spectrometry Data Center
1/CM	ABSORBANCE
550	0.000705
562	0.000755
574	0.00089
586	0.00046
598	0.000125
610	0
622	5e-05
634	0.00011
646	8.5e-05
658	0.00057
670	0.002695
682	0.006235
694	0.00443
706	0.001705
718	0.001205
730	0.00152
742	0.002625
754	0.00555
766	0.00614
778	0.003075
790	0.000975
802	0.00058
814	0.001355
826	0.003025
838	0.00513
850	0.00471
862	0.003745
874	0.00221
886	0.00203
898	0.003445
910	0.004615
922	0.00361
934	0.00173
946	0.000865
958	0.000915
970	0.001235
982	0.001775
994	0.002415
1006	0.00289
1018	0.00484
1030	0.01067
1042	0.01816
1054	0.017
1066	0.00918
1078	0.006555
1090	0.005095
1102	0.0034
1114	0.00386
1126	0.00791
1138	0.026005
1150	0.05
1162	0.036855
1174	0.01767
1186	0.01564
1198	0.025495
1210	0.02899
1222	0.01492
1234	0.00623
1246	0.00801
1258	0.01567
1270	0.021785
1282	0.024475
1294	0.022055
1306	0.01287
1318	0.007655
1330	0.005855
1342	0.003615
1354	0.001755
1366	0.001155
1378	0.001095
1390	0.001425
1402	0.00212
1414	0.00342
1426	0.00697
1438	0.013065
1450	0.014335
1462	0.017455
1474	0.02133
1486	0.032215
1498	0.025745
1510	0.00775
1522	0.00423
1534	0.00406
1546	0.004525
1558	0.006085
1570	0.01184
1582	0.02715
1594	0.047945
1606	0.04207
1618	0.024055
1630	0.009505
1642	0.0036
1654	0.00216
1666	0.00173
1678	0.001575
1690	0.00128
1702	0.001115
1714	0.00097
1726	0.00084
1738	0.00066
1750	0.000505
1762	0.000385
1774	0.000335
1786	0.000345
1798	0.00045
1810	0.0004
1822	0.000285
1834	0.00022
1846	0.000275
1858	0.000445
1870	0.00072
1882	0.00075
1894	0.000685
1906	0.000745
1918	0.000675
1930	0.00061
1942	0.000485
1954	0.00034
1966	0.000255
1978	0.00025
1990	0.00028
2002	0.00031
2014	0.000305
2026	0.000365
2038	0.00047
2050	0.00053
2062	0.000595
2074	0.00061
2086	0.000565
2098	0.000495
2110	0.000345
2122	0.000265
2134	0.000225
2146	0.00023
2158	0.000385
2170	0.000585
2182	0.0006
2194	0.000575
2206	0.00048
2218	0.00036
2230	0.000215
2242	8.5e-05
2254	3.5e-05
2266	5e-06
2278	5e-06
2290	4.5e-05
2302	0.00016
2314	0.00027
2326	0.00028
2338	0.00028
2350	0.000275
2362	0.000315
2374	0.000235
2386	0.000215
2398	0.000205
2410	0.00024
2422	0.000275
2434	0.0003
2446	0.000265
2458	0.00024
2470	0.00031
2482	0.00032
2494	0.000315
2506	0.000245
2518	0.00015
2530	0.000165
2542	0.000155
2554	0.00026
2566	0.00032
2578	0.00031
2590	0.000365
2602	0.000375
2614	0.000325
2626	0.00027
2638	0.0002
2650	0.00021
2662	0.000215
2674	0.000185
2686	0.000215
2698	0.000185
2710	0.0002
2722	0.000315
2734	0.000285
2746	0.000395
2758	0.000485
2770	0.00066
2782	0.000845
2794	0.00107
2806	0.001435
2818	0.002325
2830	0.005055
2842	0.009195
2854	0.007585
2866	0.00418
2878	0.00419
2890	0.005125
2902	0.00644
2914	0.00816
2926	0.009465
2938	0.01251
2950	0.01545
2962	0.01286
2974	0.008045
2986	0.00671
2998	0.010425
3010	0.01147
3022	0.00592
3034	0.00382
3046	0.00325
3058	0.00284
3070	0.00326
3082	0.00393
3094	0.003655
3106	0.002245
3118	0.00125
3130	0.00072
3142	0.000485
3154	0.00042
3166	0.000375
3178	0.00039
3190	0.00032
3202	0.000235
3214	0.0002
3226	0.00017
3238	0.000135
3250	9e-05
3262	8e-05
3274	0.0001
3286	0.000125
3298	6e-05
3310	8e-05
3322	2.5e-05
3334	3e-05
3346	0.00011
3358	3.5e-05
3370	7e-05
3382	4e-05
3394	4e-05
3406	8.5e-05
3418	0.000125
3430	2e-05
3442	2.5e-05
3454	5.5e-05
3466	0.000135
3478	4.5e-05
3490	0.00012
3502	8e-05
3514	0.000165
3526	8e-05
3538	0.000115
3550	6e-05
3562	0.000105
3574	0.000145
3586	7e-05
3598	5e-05
3610	0.00017
3622	0.000135
3634	9.5e-05
3646	8.5e-05
3658	0.000115
3670	0.00017
3682	0.000165
3694	0.000145
3706	7e-05
3718	0.00018
3730	0.00016
3742	0.00025
3754	0.000245
3766	0.000125
3778	0.000185
3790	0.000165
3802	0.00028
3814	0.00017
3826	0.0002
3838	0.00026
