Infrared Spectrum: Isobutyraldehyde oxime
Formula: C 4 H 9 N O
CAS: 151-00-8
State: gas
Instrument: HP-GC/MS/IRD
Origin: NIST Mass Spectrometry Data Center
1/CM	ABSORBANCE
550	0.0052823
562	0.0038784
574	0.0045652
586	0.0052217
598	0.0058075
610	0.0058782
622	0.0045551
634	0.0044339
646	0.0054439
658	0.0060802
670	0.0065852
682	0.0068074
694	0.0069791
706	0.0071609
718	0.0078376
730	0.00707
742	0.00505
754	0.0037572
766	0.0031815
778	0.0025856
790	0.0023028
802	0.0032219
814	0.0067064
826	0.0129886
838	0.0197152
850	0.0200586
862	0.0177457
874	0.0187456
886	0.0263408
898	0.0404101
910	0.0628321
922	0.0744976
934	0.0637815
946	0.0461166
958	0.0371377
970	0.0274013
982	0.0143723
994	0.0047066
1006	0.0019594
1018	0.0009898
1030	0.0003939
1042	0.0002323
1054	0.0002828
1066	0.0005757
1078	0.0012928
1090	0.0025957
1102	0.0032926
1114	0.0034542
1126	0.0026866
1138	0.0021715
1150	0.0019897
1162	0.0020301
1174	0.0023129
1186	0.002525
1198	0.0023937
1210	0.0026664
1222	0.0045248
1234	0.0119382
1246	0.0274922
1258	0.0312191
1270	0.0225937
1282	0.0156247
1294	0.0187557
1306	0.0207555
1318	0.0166953
1330	0.010908
1342	0.0093223
1354	0.0128068
1366	0.0227856
1378	0.0316029
1390	0.0311787
1402	0.0170589
1414	0.0087365
1426	0.0046056
1438	0.0060802
1450	0.0093627
1462	0.0128068
1474	0.0132007
1486	0.0086961
1498	0.0041006
1510	0.0018685
1522	0.0008686
1534	0.0003535
1546	0.0002525
1558	0.0002828
1570	2.02e-05
1582	6.06e-05
1594	0.0002525
1606	0.0004242
1618	0.0007878
1630	0.0012423
1642	0.0017372
1654	0.0018988
1666	0.0011009
1678	0.0005555
1690	0.0003838
1702	0.0005555
1714	0.0005252
1726	0.0003939
1738	0.000303
1750	0.0002727
1762	0.0003333
1774	0.0004545
1786	0.0005353
1798	0.0007272
1810	0.0010908
1822	0.0015049
1834	0.0015857
1846	0.0013433
1858	0.0007979
1870	0.0005656
1882	0.0002828
1894	0.0001616
1906	8.08e-05
1918	0.0001212
1930	6.06e-05
1942	0.0001111
1954	0.0001111
1966	0.0001616
1978	0.0001515
1990	0.0001919
2002	0.000202
2014	0.0002626
2026	0.0002828
2038	0.0002525
2050	0.0002222
2062	0.0002424
2074	0.0002222
2086	0.0002525
2098	0.0002525
2110	0.0002323
2122	0.0002222
2134	0.0002222
2146	0.0002323
2158	0.0002727
2170	0.0003131
2182	0.0003636
2194	0.0004343
2206	0.0004646
2218	0.0004646
2230	0.0004343
2242	0.0003838
2254	0.0003838
2266	0.0003838
2278	0.0003838
2290	0.0004646
2302	0.0004949
2314	0.0005454
2326	0.0005656
2338	0.0004848
2350	0.0004343
2362	0.0005959
2374	0.0005151
2386	0.0002828
2398	0.0002525
2410	0.0002323
2422	0.0002323
2434	0.0002424
2446	0.0002828
2458	0.0003333
2470	0.0004343
2482	0.000606
2494	0.0007373
2506	0.0008181
2518	0.0006969
2530	0.0005353
2542	0.0005454
2554	0.0006363
2566	0.0007575
2578	0.000909
2590	0.0010302
2602	0.0011211
2614	0.0012827
2626	0.0014544
2638	0.0014241
2650	0.0012322
2662	0.0010201
2674	0.0008181
2686	0.0007878
2698	0.0008383
2710	0.0009494
2722	0.0013029
2734	0.001616
2746	0.001818
2758	0.0018786
2770	0.0019796
2782	0.0020705
2794	0.0022826
2806	0.0026563
2818	0.0030906
2830	0.0037774
2842	0.0051308
2854	0.0084739
2866	0.0168771
2878	0.0281285
2890	0.0326331
2902	0.0320069
2914	0.0314817
2926	0.0360772
2938	0.0450359
2950	0.0574892
2962	0.0802243
2974	0.101
2986	0.0804566
2998	0.0376023
3010	0.0156954
3022	0.0086658
3034	0.0060701
3046	0.0044541
3058	0.0033128
3070	0.0026967
3082	0.0024846
3094	0.002323
3106	0.0022119
3118	0.00202
3130	0.0018584
3142	0.0018887
3154	0.0020099
3166	0.0021513
3178	0.0020301
3190	0.0017372
3202	0.0013635
3214	0.0011514
3226	0.0010302
3238	0.0009999
3250	0.0010201
3262	0.0011514
3274	0.0013231
3286	0.0013029
3298	0.0011716
3310	0.0009292
3322	0.000707
3334	0.0005858
3346	0.0003939
3358	0.0003333
3370	0.0003232
3382	0.0003333
3394	0.0003737
3406	0.0003434
3418	0.0003939
3430	0.000404
3442	0.0003939
3454	0.0003535
3466	0.0002626
3478	0.0003131
3490	0.0002727
3502	0.0003535
3514	0.0003535
3526	0.0004848
3538	0.0005858
3550	0.0008585
3562	0.0012423
3574	0.0016362
3586	0.0024139
3598	0.0039289
3610	0.0088173
3622	0.0224725
3634	0.0558833
3646	0.0683063
3658	0.0528129
3670	0.0133017
3682	0.0039087
3694	0.0023836
3706	0.0018281
3718	0.0014039
3730	0.0011009
3742	0.0008383
3754	0.0005555
3766	0.0004242
3778	0.0003636
3790	0.000404
3802	0.0005151
3814	0.0005757
3826	0.0006363
3838	0.0007272
