Infrared Spectrum: 2,5-Dinitrofluorene
Formula: C 13 H 8 N 2 O 4
CAS: 15110-74-4
State: gas
Origin: EPA-IR VAPOR PHASE LIBRARY
1/CM	ABSORBANCE
549.8	0.0007012
559.445	5.3e-05
569.09	0.0006832
578.734	0.000168
588.379	0.0004032
598.024	0.000301
607.669	0.0004026
617.313	0.00031
626.958	0.000193
636.603	0.0008251
646.248	0.000281
655.893	0.00051359
665.537	0.00050908
675.182	0.0006302
684.827	0.0007204
694.472	0.00044144
704.116	0.0006711
713.761	0.001209
723.406	0.002127
733.051	0.004987
742.695	0.003197
752.34	0.001617
761.985	0.001437
771.63	0.0006602
781.275	0.0008897
790.919	0.001717
800.564	0.003627
810.209	0.003957
819.854	0.002707
829.498	0.002117
839.143	0.001487
848.788	0.0006545
858.433	0.000264
868.078	0.00048657
877.722	0.00097
887.367	0.0007766
897.012	0.0009258
906.657	0.0009015
916.301	0.0007633
925.946	0.0005722
935.591	0.0007159
945.236	0.0007691
954.88	0.0007615
964.525	0.0008271
974.17	0.000434514
983.815	0.000579
993.46	0.0008329
1003.1	0.0009528
1012.75	0.0008458
1022.39	0.000773
1032.04	0.0007676
1041.68	0.0006604
1051.33	0.0005863
1060.97	0.0008289
1070.62	0.0010897
1080.26	0.0013614
1089.91	0.0013409
1099.55	0.0009956
1109.2	0.000978
1118.84	0.0007841
1128.49	0.000761
1138.13	0.0007194
1147.78	0.00045773
1157.42	0.0008225
1167.07	0.00098
1176.71	0.0011853
1186.36	0.0010567
1196	0.0013515
1205.64	0.001527
1215.29	0.0005857
1224.93	0.000285
1234.58	0.0007924
1244.22	0.0008791
1253.87	0.0010464
1263.51	0.0009307
1273.16	0.0013221
1282.8	0.001767
1292.45	0.002387
1302.09	0.004187
1311.74	0.003767
1321.38	0.002757
1331.03	0.005047
1340.67	0.011237
1350.32	0.014487
1359.96	0.010917
1369.61	0.006707
1379.25	0.003017
1388.9	0.001967
1398.54	0.001917
1408.18	0.002147
1417.83	0.001767
1427.47	0.0014268
1437.12	0.001777
1446.76	0.001897
1456.41	0.001887
1466.05	0.001937
1475.7	0.001587
1485.34	0.001457
1494.99	0.002037
1504.63	0.002887
1514.28	0.004087
1523.92	0.006847
1533.57	0.011897
1543.21	0.016397
1552.86	0.013477
1562.5	0.007007
1572.15	0.004637
1581.79	0.003997
1591.44	0.003307
1601.08	0.002307
1610.73	0.002017
1620.37	0.001457
1630.01	0.0009462
1639.66	0.0008284
1649.3	0.0008466
1658.95	0.0007014
1668.59	0.0006398
1678.24	0.0007125
1687.88	0.0007196
1697.53	0.000706
1707.17	0.0005502
1716.82	0.0005662
1726.46	0.0005993
1736.11	0.0005369
1745.75	0.0005551
1755.4	0.00046278
1765.04	0.00051267
1774.69	0.0006087
1784.33	0.0006074
1793.98	0.0005643
1803.62	0.0005801
1813.27	0.0005449
1822.91	0.00050607
1832.55	0.0005834
1842.2	0.0005542
1851.84	0.0005288
1861.49	0.00049004
1871.13	0.0005934
1880.78	0.0005547
1890.42	0.00044066
1900.07	0.0006008
1909.71	0.0006017
1919.36	0.0005407
1929	0.00052113
1938.65	0.0006217
1948.29	0.000432185
1957.94	0.00045747
1967.58	0.0004012
1977.23	0.00048454
1986.87	0.00051935
1996.52	0.0005283
2006.16	0.0004569
2015.81	0.0005057
2025.45	0.00045098
2035.1	0.00050155
2044.74	0.00052276
2054.38	0.00049678
2064.03	0.00049755
2073.67	0.00049194
2083.32	0.0005585
2092.96	0.0003951
2102.61	0.00049127
2112.25	0.00045951
2121.9	0.00051604
2131.54	0.0006024
2141.19	0.00050888
2150.83	0.00056
2160.48	0.00050431
2170.12	0.00046235
2179.77	0.00048501
2189.41	0.000431902
2199.06	0.0005961
2208.7	0.0004103
2218.35	0.00051343
2227.99	0.0005323
2237.64	0.0004014
2247.28	0.00049447
2256.92	0.0005283
2266.57	0.00048471
2276.21	0.0003731
2285.86	0.00050939
2295.5	0.0006193
2305.15	0.00048909
2314.79	0.0003854
2324.44	0.0005487
2334.08	0.0005966
2343.73	0.0006442
2353.37	0.0004064
2363.02	0.00050736
2372.66	0.000318
2382.31	0.0005807
2391.95	0.00042172
2401.6	0.00044792
2411.24	0.0005379
2420.89	0.00045027
2430.53	0.0005003
2440.18	0.00044889
2449.82	0.0005354
2459.47	0.00049374
2469.11	0.00050321
2478.75	0.00048416
2488.4	0.000548
2498.04	0.0005378
2507.69	0.00049677
2517.33	0.0005558
2526.98	0.0004769
2536.62	0.0005905
2546.27	0.0005797
2555.91	0.0005129
2565.56	0.0005682
2575.2	0.00050439
2584.85	0.00048347
2594.49	0.0005476
2604.14	0.000671
2613.78	0.0005455
2623.43	0.0005938
2633.07	0.0005809
2642.72	0.0006147
2652.36	0.0006234
2662.01	0.00045995
2671.65	0.000429672
2681.29	0.0005718
2690.94	0.00051512
2700.58	0.00046727
2710.23	0.0005489
2719.87	0.00044085
2729.52	0.00049025
2739.16	0.0006153
2748.81	0.000284
2758.45	0.00052039
2768.1	0.00044345
2777.74	0.0006433
2787.39	0.0005584
2797.03	0.000839
2806.68	0.0006957
2816.32	0.0006343
2825.97	0.0005969
2835.61	0.0006235
2845.26	0.00045602
2854.9	0.00079
2864.55	0.0007253
2874.19	0.0008227
2883.84	0.0006718
2893.48	0.0007617
2903.12	0.0010124
2912.77	0.0010539
2922.41	0.000985
2932.06	0.0008749
2941.7	0.0006679
2951.35	0.000557
2960.99	0.0006168
2970.64	0.00049345
2980.28	0.0005657
2989.93	0.0006528
2999.57	0.0006354
3009.22	0.000562
3018.86	0.0007074
3028.51	0.000619
3038.15	0.000695
3047.8	0.0007396
3057.44	0.0006884
3067.09	0.0009034
3076.73	0.0011214
3086.38	0.0007632
3096.02	0.0007749
3105.67	0.0006805
3115.31	0.00042248
3124.95	0.0004168
3134.6	0.000557
3144.24	0.000315
3153.89	0.0005497
3163.53	0.0007144
3173.18	0.00052664
3182.82	0.0005427
3192.47	0.0006912
3202.11	0.0005341
3211.76	0.0006181
3221.4	0.0003315
3231.05	0.0003477
3240.69	0.0003948
3250.34	0.0005868
3259.98	0.00047075
3269.63	0.0005834
3279.27	0.00047116
3288.92	0.0004303
3298.56	0.0006453
3308.21	0.0003923
3317.85	0.00052497
3327.49	0.0005463
3337.14	0.000199
3346.78	0.0005735
3356.43	0.0005354
3366.07	0.0006317
3375.72	0.0005514
3385.36	0.0005327
3395.01	0.0006087
3404.65	0.000587
3414.3	0.00046364
3423.94	0.00046833
3433.59	0.0003539
3443.23	0.00046775
3452.88	0.0006031
3462.52	0.0005303
3472.17	0.0003893
3481.81	0.00052561
3491.46	0.0005774
3501.1	0.00049095
3510.75	0.000283
3520.39	0.0005012
3530.04	0.00041715
3539.68	0.0006197
3549.32	0.0005828
3558.97	0.00046879
3568.61	0.00050447
3578.26	0.00045963
3587.9	0.0003649
3597.55	0.0006038
3607.19	0.00050348
3616.84	0.0008171
3626.48	0.0005518
3636.13	0.0007185
3645.77	0.0007777
3655.42	0.00042679
3665.06	0.0005747
3674.71	0.000323
3684.35	0.0004615
3694	0.0005724
3703.64	0.0005298
3713.29	0.0006675
3722.93	0.000321
3732.58	0.00043721
3742.22	0.0005816
3751.86	0.0006094
3761.51	0.00048765
3771.15	0.0006845
3780.8	0.0007088
3790.44	0.00047593
3800.09	0.0007281
3809.73	0.0004498
3819.38	0.00044413
3829.02	0.00043939
3838.67	0.00052091
3848.31	0.000544
3857.96	0.0003635
3867.6	0.0006451
3877.25	0.0003707
3886.89	0.000601
3896.54	0.00042018
3906.18	0.0005745
3915.83	0.0006608
3925.47	0.000595
3935.12	0.0005494
3944.76	0.00044238
3954.41	0.0005859
3964.05	0.00048567
3973.69	0.0006775
3983.34	0.000369
3992.98	0.0005526
