Infrared Spectrum: Ethyl 3-cyclohexenecarboxylate
Formula: C 9 H 14 O 2
CAS: 15111-56-5
State: gas
Origin: EPA-IR VAPOR PHASE LIBRARY
1/CM	ABSORBANCE
549.8	0.0006301
559.445	0.0008176
569.09	0.0010865
578.734	0.0007318
588.379	0.0012765
598.024	0.0019365
607.669	0.0027065
617.313	0.0046265
626.958	0.0086365
636.603	0.0160965
646.248	0.0264565
655.893	0.0322765
665.537	0.0295465
675.182	0.0216765
684.827	0.0142665
694.472	0.0095165
704.116	0.0069765
713.761	0.0059365
723.406	0.0054865
733.051	0.0047565
742.695	0.0043465
752.34	0.0045265
761.985	0.0053165
771.63	0.0053165
781.275	0.0047465
790.919	0.0045965
800.564	0.0046465
810.209	0.0043765
819.854	0.0043565
829.498	0.0039765
839.143	0.0047665
848.788	0.0068565
858.433	0.0093165
868.078	0.0116665
877.722	0.0113565
887.367	0.0070865
897.012	0.0058765
906.657	0.0080965
916.301	0.0112265
925.946	0.0109965
935.591	0.0096165
945.236	0.0105265
954.88	0.0109465
964.525	0.0097765
974.17	0.0093565
983.815	0.0100165
993.46	0.0110865
1003.1	0.0136665
1012.75	0.0223565
1022.39	0.0426565
1032.04	0.0693865
1041.68	0.0708365
1051.33	0.0544665
1060.97	0.0511365
1070.62	0.0415865
1080.26	0.0330465
1089.91	0.0386965
1099.55	0.0432465
1109.2	0.0369365
1118.84	0.0320965
1128.49	0.0422565
1138.13	0.0699065
1147.78	0.122957
1157.42	0.210587
1167.07	0.251027
1176.71	0.183667
1186.36	0.126516
1196	0.103626
1205.64	0.100537
1215.29	0.123487
1224.93	0.125217
1234.58	0.0935165
1244.22	0.0791365
1253.87	0.0688065
1263.51	0.0582565
1273.16	0.0456865
1282.8	0.0460365
1292.45	0.0585465
1302.09	0.0686765
1311.74	0.0562765
1321.38	0.0355465
1331.03	0.0258665
1340.67	0.0201565
1350.32	0.0172365
1359.96	0.0212865
1369.61	0.0353465
1379.25	0.0382565
1388.9	0.0234765
1398.54	0.0172465
1408.18	0.0143965
1417.83	0.0133565
1427.47	0.0168765
1437.12	0.0264265
1446.76	0.0321265
1456.41	0.0306465
1466.05	0.0264165
1475.7	0.0191465
1485.34	0.0118465
1494.99	0.0077365
1504.63	0.0056465
1514.28	0.0045665
1523.92	0.0039065
1533.57	0.0034565
1543.21	0.0031565
1552.86	0.0030565
1562.5	0.0029265
1572.15	0.0029165
1581.79	0.0031365
1591.44	0.0035765
1601.08	0.0041065
1610.73	0.0045365
1620.37	0.0047765
1630.01	0.0050665
1639.66	0.0066765
1649.3	0.0100565
1658.95	0.0093465
1668.59	0.0065065
1678.24	0.0068265
1687.88	0.0086165
1697.53	0.0123965
1707.17	0.0191265
1716.82	0.0337265
1726.46	0.0696165
1736.11	0.143307
1745.75	0.220066
1755.4	0.205267
1765.04	0.106437
1774.69	0.0401265
1784.33	0.0173065
1793.98	0.0097065
1803.62	0.0063665
1813.27	0.0045965
1822.91	0.0037565
1832.55	0.0032465
1842.2	0.0028865
1851.84	0.0026365
1861.49	0.0026565
1871.13	0.0029965
1880.78	0.0031965
1890.42	0.0031365
1900.07	0.0029865
1909.71	0.0028765
1919.36	0.0026865
1929	0.0021765
1938.65	0.0019265
1948.29	0.0018265
1957.94	0.0017065
1967.58	0.0017065
1977.23	0.0016865
1986.87	0.0017765
1996.52	0.0019565
2006.16	0.0021265
2015.81	0.0023165
2025.45	0.0022465
2035.1	0.0020765
2044.74	0.0018365
2054.38	0.0017665
2064.03	0.0017165
2073.67	0.0017065
2083.32	0.0017365
2092.96	0.0018165
2102.61	0.0017965
2112.25	0.0015665
2121.9	0.0012965
2131.54	0.0012365
2141.19	0.0011965
2150.83	0.0012265
2160.48	0.0011465
2170.12	0.0011165
2179.77	0.0010391
2189.41	0.0010177
2199.06	0.0010865
2208.7	0.0011865
2218.35	0.0012365
2227.99	0.0012565
2237.64	0.0011665
2247.28	0.0011365
2256.92	0.0011465
2266.57	0.0011465
2276.21	0.0011965
2285.86	0.0010965
2295.5	0.0012865
2305.15	0.0013065
2314.79	0.0013765
2324.44	0.0013365
2334.08	0.0013365
2343.73	0.0012065
2353.37	0.0011665
2363.02	0.0011465
2372.66	0.0012465
2382.31	0.0013965
2391.95	0.0014165
2401.6	0.0012765
2411.24	0.0011165
2420.89	0.0010411
2430.53	0.0010473
2440.18	0.0009207
2449.82	0.0008181
2459.47	0.000916
2469.11	0.0008545
2478.75	0.0008615
2488.4	0.0008282
2498.04	0.0008912
2507.69	0.0007881
2517.33	0.0007744
2526.98	0.0008547
2536.62	0.0007648
2546.27	0.0006836
2555.91	0.0007408
2565.56	0.0007274
2575.2	0.000831
2584.85	0.0008108
2594.49	0.0008378
2604.14	0.0008653
2613.78	0.000916
2623.43	0.0010865
2633.07	0.0010965
2642.72	0.0013365
2652.36	0.0014965
2662.01	0.0018565
2671.65	0.0018965
2681.29	0.0014665
2690.94	0.0013265
2700.58	0.0013365
2710.23	0.0014165
2719.87	0.0015065
2729.52	0.0017365
2739.16	0.0017365
2748.81	0.0020865
2758.45	0.0024765
2768.1	0.0031765
2777.74	0.0033965
2787.39	0.0031665
2797.03	0.0035065
2806.68	0.0041965
2816.32	0.0056665
2825.97	0.0084265
2835.61	0.0156265
2845.26	0.0306165
2854.9	0.0387965
2864.55	0.0338465
2874.19	0.0317765
2883.84	0.0369065
2893.48	0.0463365
2903.12	0.0564865
2912.77	0.0695365
2922.41	0.0912065
2932.06	0.103317
2941.7	0.0984765
2951.35	0.0868165
2960.99	0.0743165
2970.64	0.0677465
2980.28	0.0735265
2989.93	0.0659965
2999.57	0.0424765
3009.22	0.0293865
3018.86	0.0289465
3028.51	0.0627265
3038.15	0.0716965
3047.8	0.0260165
3057.44	0.0107365
3067.09	0.0085265
3076.73	0.0065765
3086.38	0.0045765
3096.02	0.0034865
3105.67	0.0027665
3115.31	0.0024265
3124.95	0.0021565
3134.6	0.0018665
3144.24	0.0016865
3153.89	0.0014065
3163.53	0.0013765
3173.18	0.0012065
3182.82	0.0010023
3192.47	0.0009172
3202.11	0.0008093
3211.76	0.000616
3221.4	0.0005077
3231.05	0.0005597
3240.69	0.0005273
3250.34	0.0004999
3259.98	0.0005475
3269.63	0.0006199
3279.27	0.0006656
3288.92	0.000967
3298.56	0.0009465
3308.21	0.0007866
3317.85	0.0006307
3327.49	0.0005231
3337.14	0.0004649
3346.78	0.0004676
3356.43	0.0002926
3366.07	0.000403
3375.72	0.0003559
3385.36	0.0003473
3395.01	0.000328
3404.65	0.0003857
3414.3	0.0003633
3423.94	0.0004333
3433.59	0.0004632
3443.23	0.0006813
3452.88	0.0009801
3462.52	0.0017165
3472.17	0.0021965
3481.81	0.0023865
3491.46	0.0018765
3501.1	0.0010965
3510.75	0.0005837
3520.39	0.0003834
3530.04	0.0003661
3539.68	0.0003059
3549.32	0.0002838
3558.97	0.0001722
3568.61	0
3578.26	0.0002195
3587.9	0.0001739
3597.55	0.0001138
3607.19	0.00014598
3616.84	0.0003017
3626.48	0.0002017
3636.13	0.0001608
3645.77	0.00010801
3655.42	0.0003248
3665.06	0.0001902
3674.71	0.0001777
3684.35	0.0001739
3694	0.0002371
3703.64	0.0004431
3713.29	0.0002325
3722.93	0.0002815
3732.58	0.0002914
3742.22	0.0001865
3751.86	0.000296
3761.51	0.000359
3771.15	0.0002302
3780.8	0.0004429
3790.44	0.0003046
3800.09	0.0003842
3809.73	0.000457
3819.38	0.0003202
3829.02	0.0003917
3838.67	0.0004428
3848.31	0.0004179
3857.96	0.0004113
3867.6	0.0003891
3877.25	0.0005728
3886.89	0.0006123
3896.54	0.0004146
3906.18	0.0005224
3915.83	0.0004458
3925.47	0.0005781
3935.12	0.0006736
3944.76	0.0005368
3954.41	0.0006057
3964.05	0.0005853
3973.69	0.0007115
3983.34	0.0006562
3992.98	0.0008382
