Infrared Spectrum: 3-CYANO-COUMARIN
Formula: C10 H5 N O2
CAS: 15119-34-3
State: SOLID (1.0% IN KBr PELLET)
Class: COBLENTZ
Instrument: Not specified, most likely a prism, grating, or hybrid spectrometer.
Sampling: TRANSMISSION
Path length: 0.0355 CM THICK
Resolution: 4
Origin: ANDERSON PHYSICAL LABORATORY
1/CM	TRANSMITTANCE
673.005	0.61
681.421	0.608
689.838	0.607
698.254	0.601
706.671	0.592
715.087	0.574
723.504	0.53
731.92	0.44
740.337	0.424
748.753	0.373
757.17	0.26
765.586	0.1191
774.003	0.199
782.419	0.1811
790.836	0.4088
799.252	0.595
807.669	0.616
816.085	0.628
824.502	0.629
832.918	0.629
841.335	0.626
849.751	0.62
858.168	0.5681
866.584	0.59
875.001	0.5061
883.417	0.536
891.834	0.56
900.25	0.56
908.667	0.557
917.083	0.529
925.5	0.448
933.916	0.4879
942.333	0.535
950.749	0.53
959.166	0.482
967.582	0.454
975.999	0.295
984.415	0.359
992.832	0.458
1001.25	0.439
1009.66	0.421
1018.08	0.419
1026.5	0.335
1034.91	0.272
1043.33	0.281
1051.75	0.185
1060.16	0.118
1068.58	0.46
1077	0.542
1085.41	0.586
1093.83	0.581
1102.25	0.539
1110.66	0.512
1119.08	0.499
1127.5	0.416
1135.91	0.377
1144.33	0.409
1152.75	0.299
1161.16	0.346
1169.58	0.376
1177.99	0.313
1186.41	0.1901
1194.83	0.104
1203.24	0.2869
1211.66	0.41
1220.08	0.296
1228.49	0.377
1236.91	0.431
1245.33	0.368
1253.74	0.311
1262.16	0.1969
1270.58	0.4669
1278.99	0.559
1287.41	0.422
1295.83	0.205
1304.24	0.551
1312.66	0.554
1321.08	0.542
1329.49	0.512
1337.91	0.481
1346.32	0.461
1354.74	0.458
1363.16	0.422
1371.57	0.305
1379.99	0.19
1388.41	0.43
1396.82	0.452
1405.24	0.455
1413.66	0.44
1422.07	0.421
1430.49	0.4
1438.91	0.373
1447.32	0.301
1455.74	0.178
1464.16	0.196
1472.57	0.308
1480.99	0.343
1489.41	0.317
1497.82	0.266
1506.24	0.272
1514.65	0.28
1523.07	0.28
1531.49	0.277
1539.9	0.253
1548.32	0.241
1556.74	0.167
1565.15	0.137
1573.57	0.155
1581.99	0.224
1590.4	0.173
1598.82	0.107
1607.24	0.058
1615.65	0.053
1624.07	0.313
1632.49	0.487
1640.9	0.419
1649.32	0.358
1657.74	0.353
1666.15	0.35
1674.57	0.313
1682.98	0.256
1691.4	0.212
1699.82	0.169
1708.23	0.137
1716.65	0.106
1725.07	0.085
1733.48	0.061
1741.9	0.062
1750.32	0.064
1758.73	0.2091
1767.15	0.451
1775.57	0.454
1783.98	0.703
1792.4	0.821
1800.82	0.871
1809.23	0.872
1817.65	0.788
1826.06	0.748
1834.48	0.76
1842.9	0.728
1851.31	0.734
1859.73	0.715
1868.15	0.673
1876.56	0.64
1884.98	0.682
1893.4	0.668
1901.81	0.638
1910.23	0.595
1918.65	0.587
1927.06	0.578
1935.48	0.572
1943.9	0.562
1952.31	0.533
1960.73	0.52
1969.15	0.536
1977.56	0.544
1985.98	0.544
1994.39	0.539
2002.81	0.514
2011.23	0.494
2019.64	0.4955
2028.06	0.519
2036.48	0.52
2044.89	0.515
2053.31	0.5097
2061.73	0.4995
2070.14	0.4885
2078.56	0.4749
2086.98	0.4622
2095.39	0.4535
2103.81	0.4457
2112.23	0.443
2120.64	0.4465
2129.06	0.449
2137.48	0.449
2145.89	0.449
2154.31	0.4452
2162.72	0.4374
2171.14	0.4226
2179.56	0.4059
2187.97	0.3947
2196.39	0.3846
2204.81	0.3208
2213.22	0.2745
2221.64	0.2152
2230.06	0.163
2238.47	0.188
2246.89	0.2588
2255.31	0.4437
2263.72	0.482
2272.14	0.4691
2280.56	0.4599
2288.97	0.4547
2297.39	0.4524
2305.81	0.4456
2314.22	0.44
2322.64	0.4354
2331.05	0.4335
2339.47	0.4314
2347.89	0.43
2356.3	0.428
2364.72	0.427
2373.14	0.4254
2381.55	0.4219
2389.97	0.4187
2398.39	0.4113
2406.8	0.404
2415.22	0.3998
2423.64	0.3931
2432.05	0.3863
2440.47	0.3822
2448.89	0.38
2457.3	0.379
2465.72	0.379
2474.14	0.379
2482.55	0.377
2490.97	0.376
2499.38	0.3734
2507.8	0.3683
2516.22	0.365
2524.63	0.3633
2533.05	0.3614
2541.47	0.361
2549.88	0.359
2558.3	0.359
2566.72	0.358
2575.13	0.358
2583.55	0.356
2591.97	0.356
2600.38	0.356
2608.8	0.355
2617.22	0.355
2625.63	0.353
2634.05	0.3524
2642.47	0.3491
2650.88	0.3458
2659.3	0.341
2667.71	0.34
2676.13	0.3383
2684.55	0.337
2692.96	0.335
2701.38	0.335
2709.8	0.335
2718.21	0.3338
2726.63	0.332
2735.05	0.331
2743.46	0.3293
2751.88	0.325
2760.3	0.3226
2768.71	0.322
2777.13	0.322
2785.55	0.3217
2793.96	0.3196
2802.38	0.3177
2810.8	0.316
2819.21	0.314
2827.63	0.3136
2836.04	0.3104
2844.46	0.3071
2852.88	0.305
2861.29	0.3028
2869.71	0.2984
2878.13	0.2962
2886.54	0.2947
2894.96	0.2912
2903.38	0.289
2911.79	0.287
2920.21	0.2856
2928.63	0.278
2937.04	0.2743
2945.46	0.2683
2953.88	0.2628
2962.29	0.2612
2970.71	0.259
2979.12	0.259
2987.54	0.26
2995.96	0.26
3004.37	0.26
3012.79	0.2572
3021.21	0.2473
3029.62	0.2365
3038.04	0.2114
3046.46	0.2031
3054.87	0.2
3063.29	0.2008
3071.71	0.207
3080.12	0.2119
3088.54	0.2185
3096.96	0.2243
3105.37	0.2297
3113.79	0.2378
3122.21	0.2412
3130.62	0.244
3139.04	0.2464
3147.45	0.247
3155.87	0.248
3164.29	0.2504
3172.7	0.2537
3181.12	0.254
3189.54	0.254
3197.95	0.2535
3206.37	0.253
3214.79	0.253
3223.2	0.2526
3231.62	0.2506
3240.04	0.2486
3248.45	0.247
3256.87	0.244
3265.29	0.244
3273.7	0.242
3282.12	0.241
3290.54	0.241
3298.95	0.239
3307.37	0.238
3315.78	0.2361
3324.2	0.2346
3332.62	0.233
3341.03	0.232
3349.45	0.23
3357.87	0.229
3366.28	0.227
3374.7	0.226
3383.12	0.224
3391.53	0.223
3399.95	0.221
3408.37	0.22
3416.78	0.2151
3425.2	0.2103
3433.62	0.2055
3442.03	0.203
3450.45	0.203
3458.87	0.206
3467.28	0.208
3475.7	0.208
3484.11	0.209
3492.53	0.209
3500.95	0.209
3509.36	0.209
3517.78	0.211
3526.2	0.212
3534.61	0.212
3543.03	0.214
3551.45	0.214
3559.86	0.214
3568.28	0.214
3576.7	0.2148
3585.11	0.215
3593.53	0.217
3601.95	0.2175
3610.36	0.2195
3618.78	0.22
3627.2	0.2203
3635.61	0.221
3644.03	0.2225
3652.44	0.223
3660.86	0.223
3669.28	0.221
3677.69	0.221
3686.11	0.221
3694.53	0.2216
3702.94	0.223
3711.36	0.223
3719.78	0.223
3728.19	0.223
3736.61	0.223
3745.03	0.223
3753.44	0.221
3761.86	0.2201
3770.28	0.218
3778.69	0.2172
3787.11	0.2169
3795.53	0.215
3803.94	0.2161
3812.36	0.2196
3820.77	0.22
3829.19	0.22
3837.61	0.22
3846.02	0.22
3854.44	0.22
3862.86	0.22
3871.27	0.22
3879.69	0.218
3888.11	0.215
3896.52	0.215
3904.94	0.214
3913.36	0.2124
3921.77	0.211
3930.19	0.2104
3938.61	0.2084
3947.02	0.206
3955.44	0.2059
3963.86	0.2044
3972.27	0.203
3980.69	0.2003
3989.1	0.2
