Infrared Spectrum: 3-Hydroxy-6-methyl-2-nitropyridine
Formula: C 6 H 6 N 2 O 3
CAS: 15128-90-2
State: gas
Origin: EPA-IR VAPOR PHASE LIBRARY
1/CM	ABSORBANCE
549.9	0.001936
559.547	0.003136
569.193	0.002516
578.84	0.001626
588.486	0.0011823
598.133	0.0012289
607.779	0.001436
617.426	0.001716
627.072	0.001806
636.719	0.002316
646.365	0.003196
656.012	0.004706
665.658	0.006256
675.305	0.006426
684.951	0.005046
694.598	0.004256
704.245	0.002956
713.891	0.001506
723.538	0.0010087
733.184	0.0006556
742.831	0.0007763
752.477	0.0010804
762.124	0.001596
771.77	0.002726
781.417	0.002466
791.063	0.0009771
800.71	0.0007793
810.356	0.001646
820.003	0.005316
829.649	0.007966
839.296	0.004246
848.943	0.001556
858.589	0.0006111
868.236	0.0006369
877.882	0.0008246
887.529	0.0012993
897.175	0.002706
906.822	0.004266
916.468	0.003536
926.115	0.0011465
935.761	0.0005359
945.408	0.00045018
955.054	0.00047794
964.701	0.00048897
974.347	0.0005126
983.994	0.0005487
993.64	0.0006921
1003.29	0.000707
1012.93	0.000578
1022.58	0.0005699
1032.23	0.0005415
1041.87	0.0007457
1051.52	0.0008077
1061.17	0.0007976
1070.81	0.0008055
1080.46	0.0010011
1090.11	0.0012312
1099.75	0.001436
1109.4	0.001686
1119.05	0.003346
1128.69	0.004336
1138.34	0.004026
1147.99	0.002386
1157.63	0.001956
1167.28	0.001906
1176.92	0.002216
1186.57	0.002966
1196.22	0.004176
1205.86	0.007656
1215.51	0.012666
1225.16	0.017846
1234.8	0.019046
1244.45	0.014856
1254.1	0.008606
1263.74	0.005036
1273.39	0.005096
1283.04	0.007306
1292.68	0.012626
1302.33	0.018756
1311.98	0.016816
1321.62	0.009356
1331.27	0.007686
1340.92	0.010156
1350.56	0.011146
1360.21	0.007416
1369.86	0.004076
1379.5	0.003996
1389.15	0.005516
1398.79	0.008296
1408.44	0.012396
1418.09	0.015016
1427.73	0.012706
1437.38	0.007996
1447.03	0.005736
1456.67	0.006616
1466.32	0.012106
1475.97	0.022756
1485.61	0.025096
1495.26	0.014256
1504.91	0.005346
1514.55	0.004516
1524.2	0.005986
1533.85	0.010096
1543.49	0.016166
1553.14	0.017156
1562.79	0.013546
1572.43	0.012576
1582.08	0.012486
1591.73	0.009426
1601.37	0.006876
1611.02	0.007856
1620.67	0.008126
1630.31	0.005346
1639.96	0.002326
1649.6	0.0013681
1659.25	0.0011771
1668.9	0.0011044
1678.54	0.0008505
1688.19	0.000637
1697.84	0.00050478
1707.48	0.0005115
1717.13	0.00047524
1726.78	0.00043863
1736.42	0.00042587
1746.07	0.0003854
1755.72	0.0003638
1765.36	0.0003519
1775.01	0.0003946
1784.66	0.000414589
1794.3	0.0003712
1803.95	0.0003347
1813.6	0.0003062
1823.24	0.000232
1832.89	0.00024
1842.54	0.000219
1852.18	0.000193
1861.83	0.000275
1871.47	0.000299
1881.12	0.00028
1890.77	0.000304
1900.41	0.0003605
1910.06	0.000512
1919.71	0.0006123
1929.35	0.00043088
1939	0.000299
1948.65	0.000245
1958.29	0.00029
1967.94	0.000249
1977.59	0.000219
1987.23	0.000191
1996.88	0.000273
2006.53	0.0003072
2016.17	0.00028
2025.82	0.000221
2035.47	0.000229
2045.11	0.000218
2054.76	0.000209
2064.41	0.000255
2074.05	0.000276
2083.7	0.000254
2093.35	0.000189
2102.99	0.000177
2112.64	0.000204
2122.28	0.000208
2131.93	0.000224
2141.58	0.00022
2151.22	0.000145
2160.87	0.00016
2170.52	0.000139
2180.16	7.8e-05
2189.81	0.000123
2199.46	0.000111
2209.1	0.000141
2218.75	0.000156
2228.4	0.000134
2238.04	0.000106
2247.69	0.00015
2257.34	0.000138
2266.98	8e-05
2276.63	7e-05
2286.28	0.000111
2295.92	0.000138
2305.57	0.000142
2315.22	0.000168
2324.86	0.000195
2334.51	0.000224
2344.16	0.000168
2353.8	0.000171
2363.45	0.000246
2373.09	0.000178
2382.74	0.000212
2392.39	0.0002
2402.03	0.000193
2411.68	0.000176
2421.33	0.000175
2430.97	0.000172
2440.62	0.000186
2450.27	0.000204
2459.91	0.000201
2469.56	0.000185
2479.21	0.000137
2488.85	0.000199
2498.5	0.000198
2508.15	0.00019
2517.79	0.000269
2527.44	0.000298
2537.09	0.0003155
2546.73	0.0003406
2556.38	0.000232
2566.03	0.000217
2575.67	0.000236
2585.32	0.000241
2594.96	0.00023
2604.61	0.0003185
2614.26	0.000273
2623.9	0.00019
2633.55	0.000184
2643.2	0.000164
2652.84	0.000109
2662.49	0.000128
2672.14	0.000173
2681.78	0.000119
2691.43	0.000186
2701.08	0.000303
2710.72	0.000236
2720.37	0.000202
2730.02	0.000199
2739.66	0.000219
2749.31	9.7e-05
2758.96	7e-05
2768.6	1e-06
2778.25	0.000164
2787.9	0.000197
2797.54	0.000231
2807.19	0.000258
2816.84	0.000242
2826.48	0.00026
2836.13	0.000249
2845.77	0.0003602
2855.42	0.0005184
2865.07	0.000783
2874.71	0.0007776
2884.36	0.0009006
2894.01	0.0008101
2903.65	0.0009213
2913.3	0.000935
2922.95	0.0013984
2932.59	0.002196
2942.24	0.002166
2951.89	0.001536
2961.53	0.0010635
2971.18	0.0008231
2980.83	0.0005864
2990.47	0.00045051
3000.12	0.00045822
3009.77	0.000655
3019.41	0.0008674
3029.06	0.0009944
3038.71	0.0010982
3048.35	0.0011957
3058	0.001079
3067.64	0.0010867
3077.29	0.001038
3086.94	0.0008988
3096.58	0.00046647
3106.23	0.0003111
3115.88	0.000163
3125.52	0.0003305
3135.17	0.000278
3144.82	0.000211
3154.46	0.00040431
3164.11	0.00039721
3173.76	0.0005975
3183.4	0.000869
3193.05	0.0009755
3202.7	0.001436
3212.34	0.001996
3221.99	0.002456
3231.64	0.003176
3241.28	0.003806
3250.93	0.004306
3260.58	0.004516
3270.22	0.004366
3279.87	0.004496
3289.52	0.004196
3299.16	0.004066
3308.81	0.003896
3318.45	0.003476
3328.1	0.003326
3337.75	0.003326
3347.39	0.003076
3357.04	0.002876
3366.69	0.002766
3376.33	0.002696
3385.98	0.002366
3395.63	0.002086
3405.27	0.001926
3414.92	0.001836
3424.57	0.001696
3434.21	0.001496
3443.86	0.001496
3453.51	0.0013795
3463.15	0.0013804
3472.8	0.0013303
3482.45	0.0011974
3492.09	0.0011121
3501.74	0.001047
3511.39	0.0010012
3521.03	0.0008769
3530.68	0.0008009
3540.33	0.0008653
3549.97	0.0007743
3559.62	0.0008727
3569.26	0.0007244
3578.91	0.0007721
3588.56	0.0006756
3598.2	0.0005988
3607.85	0.0003952
3617.5	0.00046055
3627.14	0.0003681
3636.79	0.000379
3646.44	0.000368
3656.08	0.00040064
3665.73	0.000282
3675.38	0.000252
3685.02	0.000265
3694.67	0.000178
3704.32	0.000134
3713.96	0.000299
3723.61	0.000172
3733.26	0.000135
3742.9	0.000225
3752.55	0.00028
3762.2	0.000258
3771.84	9.8e-05
3781.49	7.5e-05
3791.13	0.000163
3800.78	0.000299
3810.43	0.000145
3820.07	0.000167
3829.72	0.000136
3839.37	0.000168
3849.01	0.000209
3858.66	0.000101
3868.31	9e-05
3877.95	0.000201
3887.6	0.00012
3897.25	6.8e-05
3906.89	2.4e-05
3916.54	0.00013
3926.19	2.4e-05
3935.83	0.000128
3945.48	6.4e-05
3955.13	8.6e-05
3964.77	2.4e-05
3974.42	2e-05
3984.07	8.7e-05
3993.71	0.00012
