Infrared Spectrum: s-Triazolo[2,3-c]pyrimidin-2(3H)-one, 8-amino-7-chloro-
Formula: C5 H4 Cl N5 O
CAS: 15129-01-8
State: SOLID (1 mg / 650 mg KBr DISC)
Class: COBLENTZ III
Instrument: PERKIN-ELMER 221 (GRATING)
Instrument parameters: FILTER AT 980 CM^-^1. GRATING 4000-1428 CM^-^1, NaCl PRISM 1428-650 CM^-^1
Resolution: 2
Origin: SOUTHERN RESEARCH INSTITUTE
1/CM	TRANSMITTANCE
604.129	0.811
613.145	0.8208
622.16	0.8246
631.176	0.8203
640.191	0.8345
649.207	0.8552
658.222	0.8592
667.238	0.8604
676.253	0.8587
685.269	0.8494
694.285	0.8372
703.3	0.8194
712.316	0.7933
721.331	0.7409
730.347	0.6783
739.362	0.6039
748.378	0.5753
757.393	0.717
766.409	0.8605
775.424	0.8553
784.44	0.8339
793.456	0.8126
802.471	0.7933
811.487	0.7735
820.502	0.7485
829.518	0.6134
838.533	0.6146
847.549	0.7979
856.564	0.8557
865.58	0.876
874.596	0.8766
883.611	0.8836
892.627	0.8844
901.642	0.8632
910.658	0.7676
919.673	0.818
928.689	0.8068
937.704	0.8293
946.72	0.8552
955.735	0.8379
964.751	0.7795
973.767	0.8813
982.782	0.8331
991.798	0.8305
1000.81	0.8296
1009.83	0.832
1018.84	0.8262
1027.86	0.815
1036.88	0.8067
1045.89	0.805
1054.91	0.8006
1063.92	0.7713
1072.94	0.7584
1081.95	0.7667
1090.97	0.7709
1099.98	0.7676
1109	0.7612
1118.02	0.7598
1127.03	0.7502
1136.05	0.7493
1145.06	0.7739
1154.08	0.8161
1163.09	0.8135
1172.11	0.805
1181.12	0.7897
1190.14	0.6997
1199.16	0.6774
1208.17	0.596
1217.19	0.3708
1226.2	0.5431
1235.22	0.6874
1244.23	0.8271
1253.25	0.7862
1262.26	0.6604
1271.28	0.7735
1280.3	0.8765
1289.31	0.8714
1298.33	0.8557
1307.34	0.8369
1316.36	0.8108
1325.37	0.763
1334.39	0.6651
1343.4	0.7199
1352.42	0.6273
1361.44	0.5184
1370.45	0.5608
1379.47	0.6171
1388.48	0.5315
1397.5	0.5835
1406.51	0.5212
1415.53	0.6207
1424.54	0.6751
1433.56	0.794
1442.58	0.803
1451.59	0.7975
1460.61	0.7865
1469.62	0.7693
1478.64	0.7289
1487.65	0.6235
1496.67	0.5155
1505.68	0.4661
1514.7	0.6286
1523.72	0.7468
1532.73	0.7078
1541.75	0.6267
1550.76	0.3885
1559.78	0.4301
1568.79	0.3895
1577.81	0.3452
1586.82	0.3497
1595.84	0.3802
1604.86	0.399
1613.87	0.3241
1622.89	0.1269
1631.9	0.2355
1640.92	0.4114
1649.93	0.4223
1658.95	0.3866
1667.96	0.3223
1676.98	0.2458
1686	0.1691
1695.01	0.1428
1704.03	0.146
1713.04	0.1876
1722.06	0.34
1731.07	0.5278
1740.09	0.7302
1749.1	0.8123
1758.12	0.8656
1767.13	0.9077
1776.15	0.9426
1785.17	0.9603
1794.18	0.9666
1803.2	0.9703
1812.21	0.9726
1821.23	0.974
1830.24	0.9746
1839.26	0.9743
1848.27	0.9733
1857.29	0.9718
1866.31	0.9704
1875.32	0.9686
1884.34	0.9668
1893.35	0.9647
1902.37	0.963
1911.38	0.9613
1920.4	0.9573
1929.41	0.9528
1938.43	0.9491
1947.45	0.948
1956.46	0.9484
1965.48	0.9492
1974.49	0.9487
1983.51	0.948
1992.52	0.9469
2001.54	0.9455
2010.55	0.9437
2019.57	0.9417
2028.59	0.9397
2037.6	0.9377
2046.62	0.9357
2055.63	0.9337
2064.65	0.932
2073.66	0.9306
2082.68	0.9291
2091.69	0.9277
2100.71	0.9264
2109.73	0.925
2118.74	0.9234
2127.76	0.9217
2136.77	0.9201
2145.79	0.9186
2154.8	0.917
2163.82	0.9154
2172.83	0.9137
2181.85	0.912
2190.87	0.9102
2199.88	0.9079
2208.9	0.9057
2217.91	0.9034
2226.93	0.9012
2235.94	0.8989
2244.96	0.8967
2253.97	0.8939
2262.99	0.8908
2272.01	0.8877
2281.02	0.8841
2290.04	0.8804
2299.05	0.8767
2308.07	0.8727
2317.08	0.8685
2326.1	0.8644
2335.11	0.8602
2344.13	0.8559
2353.15	0.8516
2362.16	0.8473
2371.18	0.8448
2380.19	0.8437
2389.21	0.8396
2398.22	0.8351
2407.24	0.8295
2416.25	0.8229
2425.27	0.816
2434.29	0.8071
2443.3	0.8007
2452.32	0.799
2461.33	0.7972
2470.35	0.7964
2479.36	0.7963
2488.38	0.7944
2497.39	0.7734
2506.41	0.765
2515.43	0.7566
2524.44	0.7488
2533.46	0.7422
2542.47	0.7405
2551.49	0.7403
2560.5	0.739
2569.52	0.7311
2578.53	0.7212
2587.55	0.711
2596.57	0.7011
2605.58	0.6897
2614.6	0.6787
2623.61	0.669
2632.63	0.6618
2641.64	0.6606
2650.66	0.6577
2659.67	0.6467
2668.69	0.6376
2677.71	0.6326
2686.72	0.633
2695.74	0.636
2704.75	0.6352
2713.77	0.6165
2722.78	0.5988
2731.8	0.5858
2740.81	0.5782
2749.83	0.5761
2758.85	0.577
2767.86	0.573
2776.88	0.5748
2785.89	0.587
2794.91	0.5901
2803.92	0.5892
2812.94	0.598
2821.95	0.5995
2830.97	0.5974
2839.99	0.5875
2849	0.5739
2858.02	0.5661
2867.03	0.5605
2876.05	0.556
2885.06	0.5523
2894.08	0.5489
2903.09	0.5454
2912.11	0.5418
2921.13	0.5385
2930.14	0.5355
2939.16	0.5329
2948.17	0.5309
2957.19	0.5288
2966.2	0.5273
2975.22	0.5271
2984.23	0.5269
2993.25	0.5269
3002.27	0.5276
3011.28	0.5283
3020.3	0.5301
3029.31	0.531
3038.33	0.5285
3047.34	0.5242
3056.36	0.5219
3065.37	0.5197
3074.39	0.514
3083.41	0.5044
3092.42	0.4886
3101.44	0.4685
3110.45	0.4643
3119.47	0.4781
3128.48	0.4696
3137.5	0.4418
3146.51	0.4065
3155.53	0.3696
3164.55	0.3092
3173.56	0.2608
3182.58	0.2512
3191.59	0.274
3200.61	0.2958
3209.62	0.35
3218.64	0.4032
3227.65	0.445
3236.67	0.4562
3245.69	0.4559
3254.7	0.4448
3263.72	0.433
3272.73	0.4214
3281.75	0.4096
3290.76	0.3989
3299.78	0.3957
3308.79	0.3981
3317.81	0.4214
3326.83	0.4489
3335.84	0.462
3344.86	0.462
3353.87	0.4611
3362.89	0.4636
3371.9	0.4836
3380.92	0.5114
3389.93	0.539
3398.95	0.572
3407.97	0.6066
3416.98	0.6236
3426	0.6314
3435.01	0.6494
3444.03	0.6581
3453.04	0.6661
3462.06	0.6739
3471.07	0.682
3480.09	0.6912
3489.11	0.7035
3498.12	0.7086
3507.14	0.715
3516.15	0.7218
3525.17	0.7288
3534.18	0.7383
3543.2	0.7485
3552.21	0.7589
3561.23	0.7689
3570.24	0.778
3579.26	0.794
3588.28	0.8032
3597.29	0.8125
3606.31	0.8247
3615.32	0.833
3624.34	0.8387
3633.35	0.861
3642.37	0.8667
3651.38	0.8692
3660.4	0.871
3669.42	0.8709
3678.43	0.8698
3687.45	0.8687
3696.46	0.8689
3705.48	0.8702
3714.49	0.8719
3723.51	0.8734
3732.52	0.8743
3741.54	0.8744
3750.56	0.8732
3759.57	0.8712
3768.59	0.8731
3777.6	0.8702
3786.62	0.8693
3795.63	0.875
3804.65	0.8737
3813.66	0.8664
3822.68	0.8593
3831.7	0.8545
3840.71	0.8525
3849.73	0.8513
3858.74	0.85
3867.76	0.8498
3876.77	0.8493
3885.79	0.8495
3894.8	0.8502
3903.82	0.8502
3912.84	0.8497
3921.85	0.846
3930.87	0.8429
3939.88	0.8404
3948.9	0.8409
3957.91	0.8418
3966.93	0.8366
3975.94	0.8383
3984.96	0.8397
3993.98	0.8386
4002.99	0.8351
