Infrared Spectrum: 2-Amino-4-hydroxy-6-(trifluoromethyl)pyrimidine
Formula: C 5 H 4 F 3 N 3 O
CAS: 1513-69-5
State: gas
Origin: EPA-IR VAPOR PHASE LIBRARY
1/CM	ABSORBANCE
549.8	0.001866
559.445	0.001966
569.09	0.002116
578.734	0.001956
588.379	0.001766
598.024	0.0015535
607.669	0.002116
617.313	0.002276
626.958	0.002426
636.603	0.001646
646.248	0.0007846
655.893	0.0010755
665.537	0.0009706
675.182	0.0014824
684.827	0.0009853
694.472	0.0014939
704.116	0.001976
713.761	0.002896
723.406	0.005076
733.051	0.004536
742.695	0.002536
752.34	0.002526
761.985	0.002386
771.63	0.001876
781.275	0.001846
790.919	0.0015329
800.564	0.001826
810.209	0.001886
819.854	0.002216
829.498	0.003396
839.143	0.004346
848.788	0.003506
858.433	0.002606
868.078	0.002126
877.722	0.002166
887.367	0.003136
897.012	0.005486
906.657	0.004906
916.301	0.002376
925.946	0.001686
935.591	0.0012466
945.236	0.0014586
954.88	0.001636
964.525	0.002346
974.17	0.002546
983.815	0.002406
993.46	0.002266
1003.1	0.001686
1012.75	0.0013338
1022.39	0.002706
1032.04	0.001766
1041.68	0.0009015
1051.33	0.0012379
1060.97	0.0014201
1070.62	0.0013483
1080.26	0.0012713
1089.91	0.001596
1099.55	0.001736
1109.2	0.001796
1118.84	0.002646
1128.49	0.006936
1138.13	0.011156
1147.78	0.013946
1157.42	0.017306
1167.07	0.022396
1176.71	0.023916
1186.36	0.022466
1196	0.017256
1205.64	0.013676
1215.29	0.008506
1224.93	0.005756
1234.58	0.004196
1244.22	0.005726
1253.87	0.009966
1263.51	0.012896
1273.16	0.009336
1282.8	0.007136
1292.45	0.009116
1302.09	0.009446
1311.74	0.005996
1321.38	0.003186
1331.03	0.002326
1340.67	0.001886
1350.32	0.001666
1359.96	0.0015781
1369.61	0.0015288
1379.25	0.0015047
1388.9	0.002026
1398.54	0.002976
1408.18	0.004556
1417.83	0.009166
1427.47	0.017106
1437.12	0.019156
1446.76	0.015936
1456.41	0.014736
1466.05	0.008766
1475.7	0.005106
1485.34	0.002536
1494.99	0.001726
1504.63	0.0014775
1514.28	0.001716
1523.92	0.001616
1533.57	0.002766
1543.21	0.003276
1552.86	0.003766
1562.5	0.005716
1572.15	0.009746
1581.79	0.014756
1591.44	0.018746
1601.08	0.020806
1610.73	0.022886
1620.37	0.031366
1630.01	0.030026
1639.66	0.014956
1649.3	0.005826
1658.95	0.003106
1668.59	0.002126
1678.24	0.002036
1687.88	0.001786
1697.53	0.001666
1707.17	0.002386
1716.82	0.003266
1726.46	0.004656
1736.11	0.005766
1745.75	0.005186
1755.4	0.003376
1765.04	0.002476
1774.69	0.001996
1784.33	0.001626
1793.98	0.0012505
1803.62	0.0010943
1813.27	0.0010931
1822.91	0.0009126
1832.55	0.0009564
1842.2	0.0008992
1851.84	0.000825
1861.49	0.0009981
1871.13	0.0009606
1880.78	0.0009841
1890.42	0.000907
1900.07	0.0007882
1909.71	0.0008229
1919.36	0.0007136
1929	0.0007719
1938.65	0.0008431
1948.29	0.000725
1957.94	0.0007579
1967.58	0.0008398
1977.23	0.00059383
1986.87	0.00066209
1996.52	0.0009851
2006.16	0.0007149
2015.81	0.0006784
2025.45	0.0008542
2035.1	0.0007435
2044.74	0.0007394
2054.38	0.00067204
2064.03	0.0006993
2073.67	0.0007742
2083.32	0.0007244
2092.96	0.0007716
2102.61	0.0005474
2112.25	0.0007672
2121.9	0.00062105
2131.54	0.0007727
2141.19	0.0007525
2150.83	0.0009268
2160.48	0.00064573
2170.12	0.00077
2179.77	0.0007573
2189.41	0.0007825
2199.06	0.00067671
2208.7	0.000951
2218.35	0.0008308
2227.99	0.0009208
2237.64	0.000866
2247.28	0.0007875
2256.92	0.00065338
2266.57	0.0007672
2276.21	0.0007821
2285.86	0.0007234
2295.5	0.0008187
2305.15	0.0007139
2314.79	0.0007407
2324.44	0.0008305
2334.08	0.0008492
2343.73	0.0007193
2353.37	0.0008559
2363.02	0.0007486
2372.66	0.00063941
2382.31	0.00067438
2391.95	0.00088
2401.6	0.0009905
2411.24	0.0007483
2420.89	0.0007814
2430.53	0.0007499
2440.18	0.00061195
2449.82	0.0007144
2459.47	0.0007531
2469.11	0.00065796
2478.75	0.0007849
2488.4	0.0005394
2498.04	0.0007572
2507.69	0.000493
2517.33	0.0005848
2526.98	0.00064904
2536.62	0.0005694
2546.27	0.0005819
2555.91	0.0007405
2565.56	0.0008095
2575.2	0.0007303
2584.85	0.0008122
2594.49	0.0009055
2604.14	0.0005827
2613.78	0.0007159
2623.43	0.0008597
2633.07	0.0006896
2642.72	0.000868
2652.36	0.00066731
2662.01	0.0007341
2671.65	0.000702
2681.29	0.00068554
2690.94	0.0008574
2700.58	0.0007147
2710.23	0.0008757
2719.87	0.0005749
2729.52	0.0007011
2739.16	0.0005669
2748.81	0.00064554
2758.45	0.00068815
2768.1	0.0007708
2777.74	0.0011278
2787.39	0.0005026
2797.03	0.000456
2806.68	0.000491
2816.32	0.00062109
2825.97	0.0005218
2835.61	0.00068895
2845.26	0.0005424
2854.9	0.00060868
2864.55	0.00058826
2874.19	0.0007135
2883.84	0.00066067
2893.48	0.0008967
2903.12	0.0008579
2912.77	0.00066707
2922.41	0.000605751
2932.06	0.000682
2941.7	0.0007523
2951.35	0.0010842
2960.99	0.001007
2970.64	0.00043
2980.28	0.000349
2989.93	0.0008143
2999.57	0.000469
3009.22	0.00068379
3018.86	0.000481
3028.51	0.000469
3038.15	0.0005049
3047.8	0.0005483
3057.44	0.0010758
3067.09	0.0012461
3076.73	0.0007754
3086.38	0.0008528
3096.02	0.0008383
3105.67	0.00062552
3115.31	0.00058969
3124.95	0.00064632
3134.6	0.000733
3144.24	0.0009675
3153.89	0.0004974
3163.53	0.0007181
3173.18	0.000934
3182.82	0.0012483
3192.47	0.0005703
3202.11	0.0005136
3211.76	0.0010014
3221.4	0.0008838
3231.05	0.0008244
3240.69	0.000408
3250.34	0.00066934
3259.98	0.0009937
3269.63	0.0005824
3279.27	0.000603439
3288.92	0.00062377
3298.56	0.0008329
3308.21	0.00063331
3317.85	0.0008436
3327.49	0.00067909
3337.14	0.000412
3346.78	0.0009487
3356.43	0.000813
3366.07	0.00061603
3375.72	0.0007118
3385.36	0.0008617
3395.01	0.0007264
3404.65	0.0014643
3414.3	0.001996
3423.94	0.002496
3433.59	0.003166
3443.23	0.003506
3452.88	0.003926
3462.52	0.002656
3472.17	0.001976
3481.81	0.001065
3491.46	0.0009638
3501.1	0.0012037
3510.75	0.0014246
3520.39	0.0012145
3530.04	0.0015297
3539.68	0.001826
3549.32	0.002156
3558.97	0.002366
3568.61	0.002826
3578.26	0.006756
3587.9	0.008276
3597.55	0.002466
3607.19	0.0011239
3616.84	0.000397
3626.48	0.0014857
3636.13	0.0007556
3645.77	0.0008675
3655.42	0.0010264
3665.06	0.0007295
3674.71	0.0007252
3684.35	0.000409
3694	0.0008212
3703.64	0.0010638
3713.29	0.00063625
3722.93	0.00043
3732.58	0.0008598
3742.22	0.000369
3751.86	0.0008776
3761.51	0.00068368
3771.15	0.000378
3780.8	0.000376
3790.44	0.0007737
3800.09	0.0012519
3809.73	0.000859
3819.38	0.0005022
3829.02	0.0010252
3838.67	0.0007095
3848.31	0.000598244
3857.96	0.00063835
3867.6	0.0007852
3877.25	0.0005305
3886.89	0.0007519
3896.54	0.0008895
3906.18	0.0005354
3915.83	0.000492
3925.47	0.000334
3935.12	0.0008281
3944.76	0.0007046
3954.41	0.00064739
3964.05	0.0005589
3973.69	0.00063701
3983.34	0.0005824
3992.98	0.0007933
