Infrared Spectrum: Ethyl 4,4,4-trifluoro-3-(trifluoromethyl)crotonate
Formula: C 7 H 6 F 6 O 2
CAS: 1513-60-6
State: gas
Origin: EPA-IR VAPOR PHASE LIBRARY
1/CM	ABSORBANCE
549.8	0.00284
559.445	0.00339
569.09	0.00272
578.734	0.00243
588.379	0.00283
598.024	0.00355
607.669	0.00308
617.313	0.00308
626.958	0.00301
636.603	0.0031
646.248	0.00335
655.893	0.00339
665.537	0.00381
675.182	0.01188
684.827	0.03162
694.472	0.01557
704.116	0.00562
713.761	0.00309
723.406	0.00214
733.051	0.0016028
742.695	0.0014222
752.34	0.0016271
761.985	0.00286
771.63	0.00246
781.275	0.00266
790.919	0.0026
800.564	0.00292
810.209	0.00261
819.854	0
829.498	0.00271
839.143	0.0042
848.788	0.00648
858.433	0.00473
868.078	0.0035
877.722	0.00336
887.367	0.00353
897.012	0.00681
906.657	0.00817
916.301	0.00827
925.946	0.01417
935.591	0.0164
945.236	0.0125
954.88	0.00826
964.525	0.00781
974.17	0.01392
983.815	0.02982
993.46	0.042
1003.1	0.0282
1012.75	0.02144
1022.39	0.02963
1032.04	0.03371
1041.68	0.01844
1051.33	0.01086
1060.97	0.00808
1070.62	0.00477
1080.26	0.00682
1089.91	0.0106
1099.55	0.01069
1109.2	0.00998
1118.84	0.00973
1128.49	0.00884
1138.13	0.01495
1147.78	0.02453
1157.42	0.04652
1167.07	0.06617
1176.71	0.11621
1186.36	0.21683
1196	0.21857
1205.64	0.13191
1215.29	0.11939
1224.93	0.16373
1234.58	0.1458
1244.22	0.11464
1253.87	0.12786
1263.51	0.13866
1273.16	0.16626
1282.8	0.22461
1292.45	0.15576
1302.09	0.0539
1311.74	0.02799
1321.38	0.01882
1331.03	0.01428
1340.67	0.01178
1350.32	0.01332
1359.96	0.02191
1369.61	0.03894
1379.25	0.04915
1388.9	0.04221
1398.54	0.02226
1408.18	0.01171
1417.83	0.00739
1427.47	0.00589
1437.12	0.00569
1446.76	0.00613
1456.41	0.00633
1466.05	0.00671
1475.7	0.00725
1485.34	0.00535
1494.99	0.00397
1504.63	0.00386
1514.28	0.00341
1523.92	0.00301
1533.57	0.00312
1543.21	0.00285
1552.86	0.00245
1562.5	0.00273
1572.15	0.00245
1581.79	0.00205
1591.44	0.00241
1601.08	0.00261
1610.73	0.00259
1620.37	0.00292
1630.01	0.00309
1639.66	0.0035
1649.3	0.00442
1658.95	0.00731
1668.59	0.01098
1678.24	0.01108
1687.88	0.00894
1697.53	0.00715
1707.17	0.00702
1716.82	0.00839
1726.46	0.01021
1736.11	0.0155
1745.75	0.03149
1755.4	0.07211
1765.04	0.07897
1774.69	0.03429
1784.33	0.01446
1793.98	0.00815
1803.62	0.00578
1813.27	0.00433
1822.91	0.00386
1832.55	0.00324
1842.2	0.00301
1851.84	0.0027
1861.49	0.00252
1871.13	0.00222
1880.78	0.0019843
1890.42	0.00205
1900.07	0.00219
1909.71	0.0017829
1919.36	0.0017967
1929	0.0017389
1938.65	0.0017868
1948.29	0.0019593
1957.94	0.00211
1967.58	0.00206
1977.23	0.0018294
1986.87	0.0019201
1996.52	0.00214
2006.16	0.0019353
2015.81	0.0019625
2025.45	0.0019199
2035.1	0.0018681
2044.74	0.0020171
2054.38	0.0019056
2064.03	0.0017037
2073.67	0.001817
2083.32	0.0017709
2092.96	0.00215
2102.61	0.0017918
2112.25	0.0020017
2121.9	0.0016707
2131.54	0.0017251
2141.19	0.0017753
2150.83	0.00211
2160.48	0.0017336
2170.12	0.00213
2179.77	0.0019181
2189.41	0.0017872
2199.06	0.0016688
2208.7	0.0017752
2218.35	0.0016892
2227.99	0.0018462
2237.64	0.0019765
2247.28	0.0016257
2256.92	0.0016839
2266.57	0.0016129
2276.21	0.0018857
2285.86	0.0020085
2295.5	0.0018622
2305.15	0.00236
2314.79	0.00205
2324.44	0.0017797
2334.08	0.0021
2343.73	0.0020109
2353.37	0.00213
2363.02	0.0019698
2372.66	0.00236
2382.31	0.00203
2391.95	0.0019209
2401.6	0.00204
2411.24	0.0018944
2420.89	0.0018609
2430.53	0.0018434
2440.18	0.00212
2449.82	0.0017412
2459.47	0.0017407
2469.11	0.0013048
2478.75	0.001746
2488.4	0.0015989
2498.04	0.0016021
2507.69	0.0013527
2517.33	0.001487
2526.98	0.001678
2536.62	0.0016893
2546.27	0.0017813
2555.91	0.0014041
2565.56	0.0016199
2575.2	0.001457
2584.85	0.0015226
2594.49	0.0018163
2604.14	0.0016373
2613.78	0.0015375
2623.43	0.001467
2633.07	0.0013088
2642.72	0.0012293
2652.36	0.0012342
2662.01	0.0015321
2671.65	0.0014662
2681.29	0.0011695
2690.94	0.00105647
2700.58	0.0015145
2710.23	0.0014694
2719.87	0.00101396
2729.52	0.0013913
2739.16	0.0014007
2748.81	0.0012069
2758.45	0.0014487
2768.1	0.0012906
2777.74	0.0012154
2787.39	0.0016365
2797.03	0.0014952
2806.68	0.0012926
2816.32	0.0014968
2825.97	0.0016238
2835.61	0.0015927
2845.26	0.0017582
2854.9	0.0019347
2864.55	0.0019073
2874.19	0.00252
2883.84	0.00287
2893.48	0.00359
2903.12	0.00345
2912.77	0.00439
2922.41	0.00431
2932.06	0.00439
2941.7	0.00629
2951.35	0.00735
2960.99	0.0055
2970.64	0.0073
2980.28	0.01047
2989.93	0.01507
2999.57	0.01136
3009.22	0.00796
3018.86	0.006
3028.51	0.00431
3038.15	0.00314
3047.8	0.00273
3057.44	0.0019418
3067.09	0.00203
3076.73	0.0024
3086.38	0.0018066
3096.02	0.0018807
3105.67	0.0016051
3115.31	0.0015918
3124.95	0.0016448
3134.6	0.0010558
3144.24	0.0019241
3153.89	0.0016408
3163.53	0.001407
3173.18	0.0016107
3182.82	0.0017928
3192.47	0.001613
3202.11	0.00085
3211.76	0.0015463
3221.4	0.0015009
3231.05	0.0009361
3240.69	0.001429
3250.34	0.0013002
3259.98	0.001421
3269.63	0.001846
3279.27	0.001007
3288.92	0.0016202
3298.56	0.00104984
3308.21	0.0015536
3317.85	0.0012769
3327.49	0.0014586
3337.14	0.0017732
3346.78	0.000899
3356.43	0.0012176
3366.07	0.0014221
3375.72	0.0015293
3385.36	0.00084
3395.01	0.0015406
3404.65	0.0012259
3414.3	0.000954
3423.94	0.00043
3433.59	0.0013741
3443.23	0.0017545
3452.88	0.0013198
3462.52	0.00208
3472.17	0.0013239
3481.81	0.0017875
3491.46	0.0017488
3501.1	0.00212
3510.75	0.00276
3520.39	0.00221
3530.04	0.0013788
3539.68	0.0015928
3549.32	0.000857
3558.97	0.0014857
3568.61	0.0011265
3578.26	0.0014595
3587.9	0.000715
3597.55	0.00106273
3607.19	0.0013615
3616.84	0.0013827
3626.48	0.0013603
3636.13	0.00109024
3645.77	0.0009836
3655.42	0.0009792
3665.06	0.0010521
3674.71	0.0011398
3684.35	0.0012445
3694	0.00103006
3703.64	0.00103762
3713.29	0.000683
3722.93	0.0012437
3732.58	0.0017546
3742.22	0.0013477
3751.86	0.001482
3761.51	0.0013414
3771.15	0.000922
3780.8	0.0014161
3790.44	0.001537
3800.09	0.0015761
3809.73	0.0016949
3819.38	0.001264
3829.02	0.00105862
3838.67	0.0011887
3848.31	0.0015703
3857.96	0.000841
3867.6	0.0015529
3877.25	0.0018216
3886.89	0.0012224
3896.54	0.0013318
3906.18	0.0012317
3915.83	0.0015649
3925.47	0.0009601
3935.12	0.001547
3944.76	0.0014119
3954.41	0.000864
3964.05	0.00104481
3973.69	0.00102529
3983.34	0.0009991
3992.98	0.0018477
