Infrared Spectrum: 2,3,6-Trifluorobenzylbromide
Formula: C 7 H 4 Br F 3
CAS: 151412-02-1
State: gas
Origin: EPA-IR VAPOR PHASE LIBRARY
1/CM	ABSORBANCE
549.8	0.00064
559.445	0.000873
569.09	0.0017519
578.734	0.00386
588.379	0.01081
598.024	0.01056
607.669	0.00447
617.313	0.0015445
626.958	0.0021066
636.603	0.00369
646.248	0.00289
655.893	0.00229
665.537	0.00242
675.182	0.00531
684.827	0.00597
694.472	0.0022559
704.116	0.0016091
713.761	0.0016661
723.406	0.00387
733.051	0.01437
742.695	0.02201
752.34	0.01062
761.985	0.00468
771.63	0.00231
781.275	0.0019338
790.919	0.00449
800.564	0.01873
810.209	0.03142
819.854	0.01126
829.498	0.00288
839.143	0.00304
848.788	0.0019613
858.433	0.00117
868.078	0.00135771
877.722	0.0016909
887.367	0.0012326
897.012	0.0011976
906.657	0.0016369
916.301	0.0016434
925.946	0.0013788
935.591	0.0018848
945.236	0.00349
954.88	0.01025
964.525	0.02588
974.17	0.0334
983.815	0.01958
993.46	0.00733
1003.1	0.00503
1012.75	0.00583
1022.39	0.01192
1032.04	0.01404
1041.68	0.00566
1051.33	0.0023
1060.97	0.00253
1070.62	0.0019463
1080.26	0.00229
1089.91	0.00321
1099.55	0.0015649
1109.2	0.0014646
1118.84	0.0014217
1128.49	0.00333
1138.13	0.00628
1147.78	0.00488
1157.42	0.0093
1167.07	0.01407
1176.71	0.00714
1186.36	0.00459
1196	0.00231
1205.64	0.00796
1215.29	0.01643
1224.93	0.02411
1234.58	0.02011
1244.22	0.01692
1253.87	0.04813
1263.51	0.06191
1273.16	0.0214
1282.8	0.0065
1292.45	0.00637
1302.09	0.00817
1311.74	0.00983
1321.38	0.00602
1331.03	0.00277
1340.67	0.0026
1350.32	0.0022019
1359.96	0.001652
1369.61	0.0016719
1379.25	0.0015743
1388.9	0.0014769
1398.54	0.0019055
1408.18	0.0019405
1417.83	0.0023
1427.47	0.00284
1437.12	0.0044
1446.76	0.00723
1456.41	0.00988
1466.05	0.01051
1475.7	0.01269
1485.34	0.03958
1494.99	0.12315
1504.63	0.14585
1514.28	0.05671
1523.92	0.01737
1533.57	0.00753
1543.21	0.00483
1552.86	0.00334
1562.5	0.00305
1572.15	0.00266
1581.79	0.00319
1591.44	0.00496
1601.08	0.00699
1610.73	0.00604
1620.37	0.00517
1630.01	0.00849
1639.66	0.0078
1649.3	0.00322
1658.95	0.0012571
1668.59	0.0011647
1678.24	0.001109
1687.88	0.000849
1697.53	0.001144
1707.17	0.0012489
1716.82	0.0015047
1726.46	0.0016199
1736.11	0.0013797
1745.75	0.001115
1755.4	0.0012507
1765.04	0.0012144
1774.69	0.0014996
1784.33	0.001007
1793.98	0.000721
1803.62	0.000924
1813.27	0.001105
1822.91	0.001087
1832.55	0.0021514
1842.2	0.00306
1851.84	0.0018442
1861.49	0.001007
1871.13	0.001151
1880.78	0.001156
1890.42	0.000921
1900.07	0.001065
1909.71	0.000914
1919.36	0.001117
1929	0.001008
1938.65	0.001209
1948.29	0.001078
1957.94	0.001088
1967.58	0.001065
1977.23	0.001034
1986.87	0.000968
1996.52	0.00093
2006.16	0.0011674
2015.81	0.001071
2025.45	0.00093
2035.1	0.001042
2044.74	0.0012498
2054.38	0.0011847
2064.03	0.0011705
2073.67	0.001091
2083.32	0.001041
2092.96	0.001014
2102.61	0.000894
2112.25	0.000896
2121.9	0.001053
2131.54	0.001062
2141.19	0.000822
2150.83	0.001001
2160.48	0.0013663
2170.12	0.0011672
2179.77	0.0013651
2189.41	0.0015237
2199.06	0.001006
2208.7	0.000782
2218.35	0.001107
2227.99	0.001077
2237.64	0.0011869
2247.28	0.0012699
2256.92	0.0013771
2266.57	0.0011688
2276.21	0.0016988
2285.86	0.0016914
2295.5	0.0014624
2305.15	0.0014704
2314.79	0.00132666
2324.44	0.00105
2334.08	0.001051
2343.73	0.0012336
2353.37	0.000938
2363.02	0.001084
2372.66	0.00102
2382.31	0.0011
2391.95	0.001154
2401.6	0.00113
2411.24	0.001125
2420.89	0.0013925
2430.53	0.0014634
2440.18	0.00134572
2449.82	0.0011714
2459.47	0.0013724
2469.11	0.0011865
2478.75	0.0012346
2488.4	0.001139
2498.04	0.0012103
2507.69	0.00127608
2517.33	0.00133106
2526.98	0.0015671
2536.62	0.00125056
2546.27	0.0014119
2555.91	0.00131663
2565.56	0.0014379
2575.2	0.0011677
2584.85	0.001214
2594.49	0.00128278
2604.14	0.0012067
2613.78	0.001007
2623.43	0.001052
2633.07	0.00117
2642.72	0.001093
2652.36	0.001155
2662.01	0.0014865
2671.65	0.0012489
2681.29	0.001076
2690.94	0.000895
2700.58	0.001048
2710.23	0.00085
2719.87	0.001157
2729.52	0.00130109
2739.16	0.00126329
2748.81	0.00134454
2758.45	0.001001
2768.1	0.001003
2777.74	0.001144
2787.39	0.0012091
2797.03	0.000834
2806.68	0.001369
2816.32	0.00125734
2825.97	0.001055
2835.61	0.001105
2845.26	0.00134418
2854.9	0.001111
2864.55	0.000915
2874.19	0.000858
2883.84	0.001001
2893.48	0.00135063
2903.12	0.000819
2912.77	0.001012
2922.41	0.0015376
2932.06	0.0012859
2941.7	0.001125
2951.35	0.0011932
2960.99	0.000882
2970.64	0.001074
2980.28	0.00135652
2989.93	0.00245
2999.57	0.00292
3009.22	0.0020217
3018.86	0.000891
3028.51	0.001006
3038.15	0.000901
3047.8	0.000754
3057.44	0.0014692
3067.09	0.0016977
3076.73	0.0013988
3086.38	0.001174
3096.02	0.000944
3105.67	0.000902
3115.31	0.00127708
3124.95	0.000777
3134.6	0.00129673
3144.24	0.000776
3153.89	0.000946
3163.53	0.00132747
3173.18	0.000804
3182.82	0.0014323
3192.47	0.001152
3202.11	0.0012052
3211.76	0.000684
3221.4	0.00079
3231.05	0.000964
3240.69	0.0012035
3250.34	0.001077
3259.98	0.00135704
3269.63	0.00128762
3279.27	0.0012212
3288.92	0.0011899
3298.56	0.001108
3308.21	0.000585
3317.85	0.000971
3327.49	0.000751
3337.14	0.000832
3346.78	0.0012048
3356.43	0.000827
3366.07	0.000679
3375.72	0.000857
3385.36	0.001139
3395.01	0.000779
3404.65	0.000837
3414.3	0.000706
3423.94	0.000599
3433.59	0.00065
3443.23	0.000652
3452.88	0.000608
3462.52	0.00089
3472.17	0.00084
3481.81	0.0006
3491.46	0.0014087
3501.1	0.000428
3510.75	0.000734
3520.39	0.000851
3530.04	0.000809
3539.68	0.000806
3549.32	0.000974
3558.97	0.000921
3568.61	0.001228
3578.26	0.000987
3587.9	0.000918
3597.55	0.000677
3607.19	0.000709
3616.84	0.00125345
3626.48	0.000586
3636.13	0.001019
3645.77	0.000612
3655.42	0.001454
3665.06	0.001093
3674.71	0.00131277
3684.35	0.000947
3694	0.000927
3703.64	0.000715
3713.29	0.000774
3722.93	0.000872
3732.58	0.000726
3742.22	0.000913
3751.86	0.001097
3761.51	0.0013609
3771.15	0.0014911
3780.8	0.0011673
3790.44	0.000993
3800.09	0.000604
3809.73	0.00102
3819.38	0.001127
3829.02	0.000823
3838.67	0.0012327
3848.31	0.0007
3857.96	0.00127264
3867.6	0.000842
3877.25	0.000712
3886.89	0
3896.54	0.0013909
3906.18	0.001047
3915.83	0.0014909
3925.47	0.001021
3935.12	0.00127768
3944.76	0.000942
3954.41	0.000403
3964.05	0.000784
3973.69	0.00134631
3983.34	0.0011
3992.98	0.000953
