Infrared Spectrum: Methyl chlorodifluoroacetate
Formula: C3 H3 Cl F2 O2
CAS: 1514-87-0
State: gas
Origin: EPA-IR VAPOR PHASE LIBRARY
1/CM	ABSORBANCE
549.8	0.00241
559.445	0.002342
569.09	0.0021611
578.735	0.0020562
588.38	0.0019616
598.025	0.0023526
607.67	0.00397
617.315	0.00857
626.96	0.01546
636.605	0.0155
646.251	0.01027
655.896	0.0051
665.541	0.00319
675.186	0.0028
684.831	0.00349
694.476	0.00444
704.121	0.00629
713.766	0.01197
723.411	0.02964
733.056	0.04881
742.701	0.04678
752.346	0.02705
761.991	0.0159
771.636	0.01445
781.281	0.01362
790.926	0.01568
800.571	0.03475
810.216	0.05226
819.861	0.04312
829.507	0.0161
839.152	0.00606
848.797	0.00431
858.442	0.00395
868.087	0.00396
877.732	0.00467
887.377	0.00654
897.022	0.01093
906.667	0.01922
916.312	0.03135
925.957	0.04643
935.602	0.05755
945.247	0.0547
954.892	0.03703
964.537	0.02898
974.182	0.04455
983.827	0.08775
993.472	0.14109
1003.12	0.16066
1012.76	0.13
1022.41	0.08987
1032.05	0.0687
1041.7	0.06128
1051.34	0.04905
1060.99	0.03413
1070.63	0.02799
1080.28	0.02947
1089.92	0.04266
1099.57	0.07536
1109.21	0.1398
1118.86	0.23075
1128.5	0.28379
1138.15	0.24492
1147.79	0.17928
1157.44	0.15667
1167.08	0.16945
1176.73	0.20198
1186.37	0.20588
1196.02	0.14378
1205.66	0.06893
1215.31	0.03008
1224.95	0.0178
1234.6	0.01348
1244.24	0.01305
1253.89	0.01583
1263.53	0.02263
1273.18	0.03789
1282.82	0.0707
1292.47	0.12164
1302.11	0.15933
1311.76	0.14477
1321.4	0.08719
1331.05	0.04066
1340.69	0.02185
1350.34	0.0149
1359.98	0.01136
1369.63	0.00877
1379.27	0.00665
1388.92	0.00528
1398.56	0.00498
1408.21	0.00546
1417.85	0.00679
1427.5	0.01146
1437.14	0.02252
1446.79	0.02681
1456.43	0.01765
1466.08	0.01158
1475.73	0.00961
1485.37	0.00764
1495.02	0.00614
1504.66	0.0051
1514.31	0.00452
1523.95	0.00447
1533.6	0.00455
1543.24	0.00495
1552.89	0.00497
1562.53	0.00439
1572.18	0.00397
1581.82	0.00353
1591.47	0.00315
1601.11	0.00287
1610.76	0.00299
1620.4	0.00303
1630.05	0.00314
1639.69	0.00309
1649.34	0.00315
1658.98	0.00297
1668.63	0.00286
1678.27	0.00246
1687.92	0.00242
1697.56	0.0022819
1707.21	0.0023953
1716.85	0.00305
1726.5	0.00415
1736.14	0.00688
1745.79	0.01259
1755.43	0.02333
1765.08	0.04153
1774.72	0.07858
1784.37	0.14852
1794.01	0.21387
1803.66	0.2109
1813.3	0.12949
1822.95	0.05235
1832.59	0.02223
1842.24	0.01032
1851.88	0.00561
1861.53	0.00365
1871.17	0.00273
1880.82	0.0022278
1890.46	0.0020089
1900.11	0.0019804
1909.75	0.0022344
1919.4	0.00254
1929.04	0.00293
1938.69	0.00283
1948.33	0.00246
1957.98	0.0019375
1967.62	0.0018017
1977.27	0.0017611
1986.91	0.0016992
1996.56	0.0016026
2006.2	0.00147063
2015.85	0.001277
2025.49	0.001226
2035.14	0.001199
2044.78	0.001136
2054.43	0.001211
2064.07	0.001265
2073.72	0.001247
2083.36	0.0013239
2093.01	0.00145969
2102.65	0.0017039
2112.3	0.0017667
2121.94	0.0016952
2131.59	0.0015858
2141.23	0.00149154
2150.88	0.00139788
2160.52	0.00142583
2170.17	0.0013892
2179.81	0.0013859
2189.46	0.0013829
2199.1	0.00141057
2208.75	0.0016636
2218.39	0.0019704
2228.04	0.0023184
2237.68	0.00257
2247.33	0.0026
2256.97	0.00224
2266.62	0.0018087
2276.26	0.00148199
2285.91	0.00142212
2295.55	0.0013124
2305.2	0.0013274
2314.84	0.001284
2324.49	0.001163
2334.13	0.001212
2343.78	0.001208
2353.42	0.00125
2363.07	0.001217
2372.72	0.001216
2382.36	0.001121
2392.01	0.00083
2401.65	0.000806
2411.3	0.000957
2420.94	0.001018
2430.59	0.001031
2440.23	0.000947
2449.88	0.000971
2459.52	0.000922
2469.17	0.000851
2478.81	0.000869
2488.46	0.000818
2498.1	0.000739
2507.75	0.000682
2517.39	0.000598
2527.04	0.00044
2536.68	0.000455
2546.33	0.00037
2555.97	0.000471
2565.62	0.000543
2575.26	0.000713
2584.91	0.000958
2594.55	0.001027
2604.2	0.001218
2613.84	0.000965
2623.49	0.000651
2633.13	0.00038
2642.78	0.00026
2652.42	0.00018
2662.07	0.00016
2671.71	0.00017
2681.36	9e-05
2691	0.00016
2700.65	8e-05
2710.29	6e-05
2719.94	0.0002
2729.58	0.00019
2739.23	0.00023
2748.87	0.00025
2758.52	2e-05
2768.16	0.0001
2777.81	5e-05
2787.45	9e-05
2797.1	0.00019
2806.74	0.00025
2816.39	0.00019
2826.03	0.000498
2835.68	0.00098
2845.32	0.00267
2854.97	0.00452
2864.61	0.00447
2874.26	0.0022092
2883.9	0.0017356
2893.55	0.0022832
2903.19	0.00324
2912.84	0.00357
2922.48	0.00319
2932.13	0.00301
2941.77	0.00406
2951.42	0.01032
2961.06	0.02581
2970.71	0.02842
2980.35	0.01758
2990	0.00673
2999.64	0.00614
3009.29	0.00688
3018.93	0.00738
3028.58	0.00687
3038.22	0.00622
3047.87	0.00544
3057.51	0.00448
3067.16	0.00348
3076.8	0.00264
3086.45	0.0023076
3096.09	0.0022843
3105.74	0.0021857
3115.38	0.0019254
3125.03	0.0017394
3134.67	0.001214
3144.32	0.000851
3153.96	0.000725
3163.61	0.000407
3173.25	0.000523
3182.9	0.0004
3192.54	0.00032
3202.19	0.00015
3211.83	0.00033
3221.48	0.00031
3231.12	0.00028
3240.77	0.00045
3250.41	0.000448
3260.06	0.00012
3269.7	0.00027
3279.35	0.00013
3289	0.00026
3298.64	0.00021
3308.29	9e-05
3317.93	0.00016
3327.58	0.00014
3337.22	0.00021
3346.87	0.00039
3356.51	0.0003
3366.16	0.00038
3375.8	9e-05
3385.45	0.00035
3395.09	0.00036
3404.74	0.00023
3414.38	0.0004
3424.03	0.00036
3433.67	0.0004
3443.32	0.00047
3452.96	0.000425
3462.61	0.000415
3472.25	0.00035
3481.9	0.000528
3491.54	0.000432
3501.19	0.000546
3510.83	0.000591
3520.48	0.000657
3530.12	0.000734
3539.77	0.001139
3549.41	0.0015233
3559.06	0.0020378
3568.7	0.00293
3578.35	0.00294
3587.99	0.00248
3597.64	0.0013688
3607.28	0.000778
3616.93	0.000713
3626.57	0.000527
3636.22	0.000627
3645.86	0.000607
3655.51	0.000594
3665.15	0.000477
3674.8	0.000555
3684.44	0.000645
3694.09	0.000767
3703.73	0.000537
3713.38	0.000607
3723.02	0.000424
3732.67	0.000631
3742.31	0.000535
3751.96	0.000642
3761.6	0.000615
3771.25	0.000631
3780.89	0.000714
3790.54	0.000646
3800.18	0.000653
3809.83	0.000613
3819.47	0.000639
3829.12	0.000414
3838.76	0.000557
3848.41	0.000686
3858.05	0.000608
3867.7	0.00064
3877.34	0.000584
3886.99	0.000731
3896.63	0.000588
3906.28	0.000652
3915.92	0.000565
3925.57	0.00041
3935.21	0.000461
3944.86	0.000634
3954.5	0.000695
3964.15	0.000661
3973.79	0.000451
3983.44	0.000635
3993.08	0.00055
