Infrared Spectrum: 2-Propanol, 1-tert-butylamino-3-(6-chloro-m-tolyloxy)-, hydrochloride
Formula: C14 H23 Cl2 N O2
CAS: 15148-80-8
State: SOLID (OIL MULL)
Class: COBLENTZ III
Instrument: PERKIN-ELMER 21 (GRATING)
Instrument parameters: NaCl PRISM
Sampling: TRANSMISSION
Resolution: 2
Origin: SMITH KLINE & FRENCH LABS.
1/CM	TRANSMITTANCE
660	0.7238
669	0.7542
678	0.778
687	0.8094
696	0.8232
705	0.8353
714	0.8285
723	0.8363
732	0.8053
741	0.8328
750	0.8382
759	0.815
768	0.8659
777	0.8811
786	0.883
795	0.8742
804	0.7953
813	0.177
822	0.7827
831	0.7324
840	0.6733
849	0.8692
858	0.8781
867	0.8338
876	0.8535
885	0.8754
894	0.8621
903	0.8289
912	0.4908
921	0.7609
930	0.7982
939	0.6622
948	0.669
957	0.798
966	0.8107
975	0.7976
984	0.7382
993	0.4622
1002	0.5009
1011	0.6451
1020	0.7201
1029	0.6452
1038	0.5728
1047	0.6266
1056	0.431
1065	0.278
1074	0.6987
1083	0.6845
1092	0.7358
1101	0.7413
1110	0.6719
1119	0.3305
1128	0.5365
1137	0.6057
1146	0.7663
1155	0.774
1164	0.761
1173	0.6977
1182	0.3016
1191	0.5726
1200	0.3675
1209	0.571
1218	0.6674
1227	0.6195
1236	0.6783
1245	0.5379
1254	0.5726
1263	0.5318
1272	0.4411
1281	0.2186
1290	0.4084
1299	0.6959
1308	0.7347
1317	0.7137
1326	0.4725
1335	0.5982
1344	0.7177
1353	0.7104
1362	0.601
1371	0.3096
1380	0.3134
1389	0.541
1398	0.5606
1407	0.419
1416	0.5594
1425	0.5824
1434	0.4799
1443	0.4054
1452	0.2845
1461	0.2721
1470	0.4715
1479	0.5923
1488	0.3806
1497	0.4048
1506	0.751
1515	0.774
1524	0.7949
1533	0.7931
1542	0.7873
1551	0.7801
1560	0.7624
1569	0.7136
1578	0.5098
1587	0.3316
1596	0.5007
1605	0.7715
1614	0.8506
1623	0.8558
1632	0.8563
1641	0.8548
1650	0.841
1659	0.846
1668	0.8618
1677	0.8678
1686	0.8683
1695	0.8678
1704	0.8659
1713	0.8615
1722	0.8606
1731	0.8546
1740	0.8502
1749	0.8494
1758	0.8489
1767	0.8457
1776	0.8456
1785	0.846
1794	0.8486
1803	0.8578
1812	0.8607
1821	0.8608
1830	0.8601
1839	0.859
1848	0.8565
1857	0.8537
1866	0.8507
1875	0.8465
1884	0.8422
1893	0.8416
1902	0.8461
1911	0.8481
1920	0.846
1929	0.8401
1938	0.8414
1947	0.8492
1956	0.8543
1965	0.8528
1974	0.8512
1983	0.8492
1992	0.846
2001	0.8389
2010	0.8222
2019	0.8039
2028	0.8114
2037	0.8319
2046	0.8468
2055	0.8548
2064	0.8558
2073	0.8546
2082	0.8523
2091	0.8496
2100	0.8467
2109	0.8461
2118	0.8463
2127	0.8473
2136	0.849
2145	0.8486
2154	0.8465
2163	0.8429
2172	0.8386
2181	0.8357
2190	0.8344
2199	0.8327
2208	0.8308
2217	0.829
2226	0.8282
2235	0.8272
2244	0.8251
2253	0.822
2262	0.8159
2271	0.8078
2280	0.7986
2289	0.7846
2298	0.7676
2307	0.7498
2316	0.7327
2325	0.7164
2334	0.7008
2343	0.6857
2352	0.6751
2361	0.6549
2370	0.6
2379	0.5441
2388	0.5537
2397	0.6328
2406	0.7113
2415	0.7309
2424	0.7307
2433	0.7288
2442	0.7247
2451	0.7167
2460	0.7005
2469	0.6775
2478	0.663
2487	0.6576
2496	0.6554
2505	0.6532
2514	0.6612
2523	0.679
2532	0.6883
2541	0.6871
2550	0.6762
2559	0.6601
2568	0.6429
2577	0.6228
2586	0.6028
2595	0.5673
2604	0.5282
2613	0.4998
2622	0.4808
2631	0.4563
2640	0.4316
2649	0.4118
2658	0.412
2667	0.4129
2676	0.4186
2685	0.422
2694	0.4218
2703	0.3801
2712	0.3252
2721	0.2705
2730	0.2163
2739	0.1624
2748	0.1159
2757	0.1204
2766	0.1277
2775	0.1365
2784	0.146
2793	0.1489
2802	0.1444
2811	0.1378
2820	0.1189
2829	0.0772
2838	0.0695
2847	0.0672
2856	0.0633
2865	0.0576
2874	0.0523
2883	0.05
2892	0.0499
2901	0.0521
2910	0.0634
2919	0.0995
2928	0.1202
2937	0.1352
2946	0.1821
2955	0.2351
2964	0.2876
2973	0.3398
2982	0.4115
2991	0.4648
3000	0.5007
3009	0.5418
3018	0.5705
3027	0.6035
3036	0.6339
3045	0.6485
3054	0.6633
3063	0.6763
3072	0.6843
3081	0.6879
3090	0.6887
3099	0.688
3108	0.6849
3117	0.68
3126	0.6731
3135	0.6634
3144	0.6532
3153	0.643
3162	0.6326
3171	0.6216
3180	0.6093
3189	0.5929
3198	0.5646
3207	0.517
3216	0.4786
3225	0.4286
3234	0.379
3243	0.3295
3252	0.2804
3261	0.2602
3270	0.2684
3279	0.3183
3288	0.3733
3297	0.428
3306	0.4824
3315	0.5365
3324	0.5904
3333	0.6429
3342	0.6606
3351	0.676
3360	0.6921
3369	0.7086
3378	0.7269
3387	0.7478
3396	0.7559
3405	0.7614
3414	0.7665
3423	0.7695
3432	0.7715
3441	0.7736
3450	0.7752
3459	0.7759
3468	0.7767
3477	0.7775
3486	0.7783
3495	0.779
3504	0.7796
3513	0.7796
3522	0.7797
3531	0.7797
3540	0.7797
3549	0.7796
3558	0.7795
3567	0.7794
3576	0.7793
3585	0.7792
3594	0.7791
3603	0.779
3612	0.7789
3621	0.7786
3630	0.7783
3639	0.778
3648	0.7776
3657	0.7773
3666	0.7769
3675	0.7767
3684	0.7764
3693	0.776
3702	0.7756
3711	0.7753
3720	0.7749
3729	0.7745
3738	0.7741
3747	0.7737
3756	0.7733
3765	0.773
3774	0.7726
3783	0.7722
3792	0.7717
3801	0.7714
3810	0.771
3819	0.7706
3828	0.7702
3837	0.7698
3846	0.7695
3855	0.7691
3864	0.7686
3873	0.7678
3882	0.7668
3891	0.7659
3900	0.7649
3909	0.7639
3918	0.763
3927	0.7619
3936	0.7605
3945	0.7592
3954	0.7578
3963	0.7564
3972	0.7551
3981	0.7536
3990	0.7522
3999	0.7506
