Infrared Spectrum: 2-Fluoro-3-methylbenzyl bromide
Formula: C 8 H 8 Br F
CAS: 151412-12-3
State: gas
Origin: EPA-IR VAPOR PHASE LIBRARY
1/CM	ABSORBANCE
549.8	0.012332
559.445	0.009112
569.09	0.002862
578.734	0.003122
588.379	0.002382
598.024	0.003002
607.669	0.005872
617.313	0.014892
626.958	0.020712
636.603	0.014682
646.248	0.008762
655.893	0.007432
665.537	0.011562
675.182	0.010632
684.827	0.005142
694.472	0.003622
704.116	0.003432
713.761	0.005502
723.406	0.015472
733.051	0.034482
742.695	0.029142
752.34	0.014052
761.985	0.015852
771.63	0.027232
781.275	0.022272
790.919	0.008852
800.564	0.005312
810.209	0.009082
819.854	0.014732
829.498	0.013622
839.143	0.009072
848.788	0.004952
858.433	0.004922
868.078	0.006262
877.722	0.004222
887.367	0.002262
897.012	0.001722
906.657	0.0013698
916.301	0.002222
925.946	0.003792
935.591	0.005552
945.236	0.006372
954.88	0.003122
964.525	0.002712
974.17	0.001972
983.815	0.0014241
993.46	0.002172
1003.1	0.002312
1012.75	0.002402
1022.39	0.002112
1032.04	0.002562
1041.68	0.003702
1051.33	0.005072
1060.97	0.008702
1070.62	0.010582
1080.26	0.012632
1089.91	0.012952
1099.55	0.008382
1109.2	0.004492
1118.84	0.002192
1128.49	0.004242
1138.13	0.004022
1147.78	0.005562
1157.42	0.007482
1167.07	0.007912
1176.71	0.013602
1186.36	0.028442
1196	0.045002
1205.64	0.038732
1215.29	0.041492
1224.93	0.071882
1234.58	0.054292
1244.22	0.021192
1253.87	0.016742
1263.51	0.023142
1273.16	0.022302
1282.8	0.009922
1292.45	0.005702
1302.09	0.005252
1311.74	0.004022
1321.38	0.003272
1331.03	0.002932
1340.67	0.002692
1350.32	0.002822
1359.96	0.002592
1369.61	0.002922
1379.25	0.003822
1388.9	0.004312
1398.54	0.003912
1408.18	0.004352
1417.83	0.005992
1427.47	0.010622
1437.12	0.020132
1446.76	0.032762
1456.41	0.046912
1466.05	0.062042
1475.7	0.058802
1485.34	0.039732
1494.99	0.021272
1504.63	0.012652
1514.28	0.008572
1523.92	0.006602
1533.57	0.005702
1543.21	0.005662
1552.86	0.005272
1562.5	0.004622
1572.15	0.004582
1581.79	0.006512
1591.44	0.007852
1601.08	0.006072
1610.73	0.004432
1620.37	0.004652
1630.01	0.003892
1639.66	0.002792
1649.3	0.002362
1658.95	0.002932
1668.59	0.004072
1678.24	0.003572
1687.88	0.002252
1697.53	0.001642
1707.17	0.001642
1716.82	0.0012513
1726.46	0.0014702
1736.11	0.0016149
1745.75	0.001472
1755.4	0.0013636
1765.04	0.0014401
1774.69	0.001912
1784.33	0.002372
1793.98	0.002362
1803.62	0.002002
1813.27	0.0016075
1822.91	0.0015948
1832.55	0.001852
1842.2	0.002392
1851.84	0.003602
1861.49	0.003302
1871.13	0.002292
1880.78	0.001812
1890.42	0.001732
1900.07	0.001952
1909.71	0.002512
1919.36	0.003302
1929	0.002942
1938.65	0.002082
1948.29	0.0015711
1957.94	0.0016305
1967.58	0.0011226
1977.23	0.001191
1986.87	0.0013917
1996.52	0.0015255
2006.16	0.0015909
2015.81	0.0014717
2025.45	0.001712
2035.1	0.0014044
2044.74	0.0013675
2054.38	0.001448
2064.03	0.0013098
2073.67	0.0014638
2083.32	0.0013739
2092.96	0.0015562
2102.61	0.0015202
2112.25	0.0013216
2121.9	0.0014665
2131.54	0.0015508
2141.19	0.0013795
2150.83	0.0015699
2160.48	0.0012267
2170.12	0.0014644
2179.77	0.001247
2189.41	0.0012152
2199.06	0.0013517
2208.7	0.001379
2218.35	0.0013517
2227.99	0.0009983
2237.64	0.0012649
2247.28	0.0016298
2256.92	0.0016396
2266.57	0.001712
2276.21	0.0014721
2285.86	0.0015485
2295.5	0.001682
2305.15	0.0016134
2314.79	0.001752
2324.44	0.001712
2334.08	0.0014386
2343.73	0.0015561
2353.37	0.001433
2363.02	0.0013282
2372.66	0.0014812
2382.31	0.0015727
2391.95	0.001742
2401.6	0.001802
2411.24	0.002122
2420.89	0.002142
2430.53	0.001922
2440.18	0.0015771
2449.82	0.001902
2459.47	0.002042
2469.11	0.001652
2478.75	0.001522
2488.4	0.001872
2498.04	0.0013113
2507.69	0.0014735
2517.33	0.0012325
2526.98	0.0013109
2536.62	0.0014953
2546.27	0.0014435
2555.91	0.0013432
2565.56	0.0012856
2575.2	0.0014903
2584.85	0.001662
2594.49	0.0014924
2604.14	0.0013682
2613.78	0.0014079
2623.43	0.0011637
2633.07	0.0015388
2642.72	0.0016205
2652.36	0.001652
2662.01	0.001772
2671.65	0.001762
2681.29	0.001447
2690.94	0.0014714
2700.58	0.0014096
2710.23	0.0011955
2719.87	0.001782
2729.52	0.001842
2739.16	0.001712
2748.81	0.002152
2758.45	0.001611
2768.1	0.0013914
2777.74	0.001682
2787.39	0.0012614
2797.03	0.0015734
2806.68	0.001642
2816.32	0.001652
2825.97	0.001942
2835.61	0.002412
2845.26	0.003052
2854.9	0.004062
2864.55	0.006042
2874.19	0.008422
2883.84	0.007702
2893.48	0.006682
2903.12	0.007022
2912.77	0.007912
2922.41	0.010422
2932.06	0.016602
2941.7	0.020612
2951.35	0.014042
2960.99	0.010292
2970.64	0.011822
2980.28	0.014302
2989.93	0.016242
2999.57	0.011282
3009.22	0.006992
3018.86	0.007352
3028.51	0.011442
3038.15	0.015622
3047.8	0.016532
3057.44	0.017652
3067.09	0.019272
3076.73	0.015212
3086.38	0.008882
3096.02	0.006312
3105.67	0.004542
3115.31	0.003482
3124.95	0.001742
3134.6	0.001892
3144.24	0.001892
3153.89	0.0011041
3163.53	0.0015423
3173.18	0.001802
3182.82	0.0007796
3192.47	0.0012923
3202.11	0.0013782
3211.76	0.001136
3221.4	0.001652
3231.05	0.0011421
3240.69	0.0011469
3250.34	0.0010313
3259.98	0.0007619
3269.63	0.0011505
3279.27	0.001048
3288.92	0.0011511
3298.56	0.0014773
3308.21	0.001672
3317.85	0.001332
3327.49	0.0012224
3337.14	0.0009991
3346.78	0.0010733
3356.43	0.0012388
3366.07	0.001642
3375.72	0.0014293
3385.36	0.0005969
3395.01	0.0009601
3404.65	0.0011847
3414.3	0.000377
3423.94	0.000643669
3433.59	0.0013875
3443.23	0.00134
3452.88	0.0009804
3462.52	0.0009622
3472.17	0.0012312
3481.81	0.0008192
3491.46	0.0007562
3501.1	0.0006083
3510.75	0.0012313
3520.39	0.0015761
3530.04	0.001196
3539.68	0.0010869
3549.32	0.0012658
3558.97	0.001712
3568.61	0.0009274
3578.26	0.0012547
3587.9	0.0010434
3597.55	0.0009748
3607.19	0.0012609
3616.84	0.001882
3626.48	0.0009238
3636.13	0.001145
3645.77	0.000534
3655.42	0.0008982
3665.06	0.0012967
3674.71	0.0009612
3684.35	0.0010855
3694	0.0010883
3703.64	0.0009765
3713.29	0.0010838
3722.93	0.0010594
3732.58	0.0011039
3742.22	0.000497
3751.86	0.0011525
3761.51	0.0015975
3771.15	0.0012136
3780.8	0.0006251
3790.44	0.0010766
3800.09	0.0012417
3809.73	0.0011583
3819.38	0.000649114
3829.02	0.0014891
3838.67	0.001712
3848.31	0.0015225
3857.96	0.0015152
3867.6	0.0012653
3877.25	0.001852
3886.89	0.0013757
3896.54	0.0013147
3906.18	0.0013337
3915.83	0.0016025
3925.47	0.0008963
3935.12	0.0011634
3944.76	0.0009994
3954.41	0.0015222
3964.05	0.001362
3973.69	0.0012774
3983.34	0.0014929
3992.98	0.0012436
