Infrared Spectrum: 2,4,6-Trifluorobenzyl bromide
Formula: C 7 H 4 Br F 3
CAS: 151411-98-2
State: gas
Origin: EPA-IR VAPOR PHASE LIBRARY
1/CM	ABSORBANCE
549.9	0.00461
559.547	0.0056
569.193	0.00529
578.84	0.00622
588.486	0.01256
598.133	0.01216
607.779	0.00765
617.426	0.02084
627.072	0.02261
636.719	0.00832
646.365	0.00493
656.012	0.0028886
665.658	0.001956
675.305	0.0023728
684.951	0.002075
694.598	0.001446
704.245	0.001312
713.891	0.00121
723.538	0.001326
733.184	0.0016
742.831	0.001564
752.477	0.001359
762.124	0.001435
771.77	0.001703
781.417	0.0027044
791.063	0.0032178
800.71	0.0029029
810.356	0.001977
820.003	0.0024649
829.649	0.01327
839.296	0.05062
848.943	0.04488
858.589	0.01009
868.236	0.0027849
877.882	0.0022296
887.529	0.001936
897.175	0.001862
906.822	0.001616
916.468	0.001534
926.115	0.001771
935.761	0.001867
945.408	0.002074
955.054	0.0022192
964.701	0.0027386
974.347	0.00404
983.994	0.00841
993.64	0.03411
1003.29	0.04615
1012.93	0.03642
1022.58	0.07578
1032.23	0.05482
1041.87	0.00988
1051.52	0.00437
1061.17	0.00381
1070.81	0.0031943
1080.46	0.00347
1090.11	0.00428
1099.75	0.00654
1109.4	0.02234
1119.05	0.12061
1128.69	0.12679
1138.34	0.01941
1147.99	0.03895
1157.63	0.06258
1167.28	0.03693
1176.92	0.01206
1186.57	0.00803
1196.22	0.01216
1205.86	0.01317
1215.51	0.01634
1225.16	0.04022
1234.8	0.03739
1244.45	0.00735
1254.1	0.00431
1263.74	0.00373
1273.39	0.0026376
1283.04	0.0024184
1292.68	0.0023983
1302.33	0.002136
1311.98	0.0027037
1321.62	0.00384
1331.27	0.00397
1340.92	0.00551
1350.56	0.01114
1360.21	0.00884
1369.86	0.00397
1379.5	0.0022205
1389.15	0.0024258
1398.79	0.00337
1408.44	0.00587
1418.09	0.0145
1427.73	0.02576
1437.38	0.04623
1447.03	0.06571
1456.67	0.04335
1466.32	0.01655
1475.97	0.01001
1485.61	0.02217
1495.26	0.06544
1504.91	0.05465
1514.55	0.0123
1524.2	0.00616
1533.85	0.00537
1543.49	0.00477
1553.14	0.00494
1562.79	0.00708
1572.43	0.01365
1582.08	0.03243
1591.73	0.06845
1601.37	0.09633
1611.02	0.1008
1620.67	0.09003
1630.31	0.08334
1639.96	0.11669
1649.6	0.06717
1659.25	0.02718
1668.9	0.01918
1678.54	0.01084
1688.19	0.00751
1697.84	0.00848
1707.48	0.00472
1717.13	0.0027564
1726.78	0.0028836
1736.42	0.0026198
1746.07	0.002119
1755.72	0.0022356
1765.36	0.0022229
1775.01	0.00229736
1784.66	0.001828
1794.3	0.001443
1803.95	0.001452
1813.6	0.001527
1823.24	0.00144
1832.89	0.001289
1842.54	0.00121
1852.18	0.00122
1861.83	0.001315
1871.47	0.00121
1881.12	0.0012
1890.77	0.0012
1900.41	0.00123
1910.06	0.001292
1919.71	0.001336
1929.35	0.001323
1939	0.001281
1948.65	0.00127
1958.29	0.001299
1967.94	0.001351
1977.59	0.001419
1987.23	0.001337
1996.88	0.001483
2006.53	0.001561
2016.17	0.001613
2025.82	0.001494
2035.47	0.001337
2045.11	0.001333
2054.76	0.00122
2064.41	0.001284
2074.05	0.001381
2083.7	0.001383
2093.35	0.001445
2102.99	0.001473
2112.64	0.001636
2122.28	0.001994
2131.93	0.001842
2141.58	0.001941
2151.22	0.002099
2160.87	0.002006
2170.52	0.002082
2180.16	0.002161
2189.81	0.001998
2199.46	0.001844
2209.1	0.001984
2218.75	0.001993
2228.4	0.001713
2238.04	0.001792
2247.69	0.001798
2257.34	0.001555
2266.98	0.00153
2276.63	0.001666
2286.28	0.001741
2295.92	0.001623
2305.57	0.00148
2315.22	0.001471
2324.86	0.001495
2334.51	0.001597
2344.16	0.00198
2353.8	0.0022563
2363.45	0.00227975
2373.09	0.00235933
2382.74	0.002034
2392.39	0.001667
2402.03	0.001605
2411.68	0.001618
2421.33	0.001762
2430.97	0.001752
2440.62	0.001722
2450.27	0.002063
2459.91	0.0027242
2469.56	0.00341
2479.21	0.0026969
2488.85	0.002107
2498.5	0.002109
2508.15	0.001983
2517.79	0.001787
2527.44	0.001473
2537.09	0.001359
2546.73	0.001367
2556.38	0.001503
2566.03	0.001722
2575.67	0.001769
2585.32	0.001668
2594.96	0.001624
2604.61	0.001811
2614.26	0.002072
2623.9	0.001976
2633.55	0.001625
2643.2	0.001577
2652.84	0.001572
2662.49	0.001704
2672.14	0.001748
2681.78	0.001421
2691.43	0.001318
2701.08	0.001304
2710.72	0.001354
2720.37	0.001518
2730.02	0.00165
2739.66	0.001648
2749.31	0.001753
2758.96	0.001645
2768.6	0.001536
2778.25	0.001577
2787.9	0.001555
2797.54	0.00157
2807.19	0.001454
2816.84	0.001287
2826.48	0.00116
2836.13	0.00108
2845.77	0.00116
2855.42	0.001282
2865.07	0.00125
2874.71	0.00127
2884.36	0.0011
2894.01	0.00089
2903.65	0.00093
2913.3	0.00086
2922.95	0.00085
2932.59	0.00081
2942.24	0.00085
2951.89	0.00087
2961.53	0.00083
2971.18	0.00089
2980.83	0.001529
2990.47	0.0030112
3000.12	0.00378
3009.77	0.0024715
3019.41	0.00155
3029.06	0.00093
3038.71	0.00079
3048.35	0.00089
3058	0.00071
3067.64	0.00079
3077.29	0.00099
3086.94	0.00101
3096.58	0.001457
3106.23	0.00199
3115.88	0.001737
3125.52	0.00103
3135.17	0.00064
3144.82	0.00044
3154.46	0.0005
3164.11	0.00039
3173.76	0.00043
3183.4	0.00036
3193.05	0.00034
3202.7	0.00026
3212.34	0.00037
3221.99	0.00034
3231.64	0.00057
3241.28	0.0003
3250.93	0.00039
3260.58	0.00039
3270.22	0.00054
3279.87	0.00053
3289.52	0.00036
3299.16	6e-05
3308.81	0
3318.45	0.00021
3328.1	0.00015
3337.75	0.00024
3347.39	0.00013
3357.04	0.00024
3366.69	0.00023
3376.33	0.00017
3385.98	0.00026
3395.63	0.00022
3405.27	0.00033
3414.92	0.00035
3424.57	0.00047
3434.21	0.00028
3443.86	0.00036
3453.51	0.00034
3463.15	0.0005
3472.8	0.0004
3482.45	0.0006
3492.09	0.0005
3501.74	0.00045
3511.39	0.00036
3521.03	0.00066
3530.68	0.00069
3540.33	0.00055
3549.97	0.00057
3559.62	0.00077
3569.26	0.00062
3578.91	0.00076
3588.56	0.00075
3598.2	0.00083
3607.85	0.00086
3617.5	0.00093
3627.14	0.00082
3636.79	0.0008
3646.44	0.00069
3656.08	0.00089
3665.73	0.00096
3675.38	0.00103
3685.02	0.00113
3694.67	0.00092
3704.32	0.00102
3713.96	0.00105
3723.61	0.00094
3733.26	0.00103
3742.9	0.00096
3752.55	0.00088
3762.2	0.0011
3771.84	0.00103
3781.49	0.0011
3791.13	0.00109
3800.78	0.00108
3810.43	0.0011
3820.07	0.00105
3829.72	0.0012
3839.37	0.00119
3849.01	0.00119
3858.66	0.00126
3868.31	0.001271
3877.95	0.00125
3887.6	0.001305
3897.25	0.001292
3906.89	0.00122
3916.54	0.0012
3926.19	0.001282
3935.83	0.00116
3945.48	0.00108
3955.13	0.0011
3964.77	0.00119
3974.42	0.00116
3984.07	0.00116
3993.71	0.00109
