Infrared Spectrum: Phenanthrene-d10
Formula: C 14 D 10
CAS: 1517-22-2
State: gas
Instrument: HP-GC/MS/IRD
Origin: NIST Mass Spectrometry Data Center
1/CM	ABSORBANCE
550	0.002968
562	0.0050144
574	0.0013424
586	0.0012648
598	0.00636
610	0.006088
622	0.0016352
634	0.0013712
646	0.0031944
658	0.0012656
670	0.0007824
682	0.0006312
694	0.0004088
706	0.0002824
718	0.0002312
730	0.000332
742	0.0006672
754	0.000512
766	0.0009328
778	0.001308
790	0.0004544
802	0.0003816
814	0.000764
826	0.0016408
838	0.0019112
850	0.0005744
862	0.0002016
874	0.0003208
886	0.000904
898	0.0013568
910	0.000476
922	0.00018
934	0.0002552
946	0.0002712
958	0.0001728
970	0.0005536
982	0.0004056
994	0.0003848
1006	0.0003144
1018	0.0003472
1030	0.0001608
1042	7.52e-05
1054	7.2e-05
1066	7.84e-05
1078	0.0001504
1090	7.04e-05
1102	0.0001072
1114	6.4e-06
1126	8.8e-06
1138	1.28e-05
1150	6.8e-05
1162	0.0002208
1174	0.0002672
1186	0.0002144
1198	0.0006632
1210	0.0005024
1222	0.0002424
1234	0.0001328
1246	0.0001064
1258	0.0001464
1270	0.000184
1282	0.000132
1294	0.0001672
1306	0.0002168
1318	0.0004352
1330	0.0005424
1342	0.0012032
1354	0.0012528
1366	0.0005664
1378	0.0007016
1390	0.0010112
1402	0.000512
1414	0.0004104
1426	0.000812
1438	0.0006224
1450	0.0002552
1462	0.0002816
1474	0.0003664
1486	0.0002488
1498	0.0002184
1510	0.0002384
1522	0.0004056
1534	0.0006296
1546	0.0006088
1558	0.0004336
1570	0.0002552
1582	0.000292
1594	0.0006752
1606	0.0005088
1618	0.0002088
1630	0.0002192
1642	0.0001776
1654	0.0001776
1666	0.0001632
1678	0.0001312
1690	0.0001248
1702	8.64e-05
1714	5.28e-05
1726	5.12e-05
1738	7.2e-05
1750	5.68e-05
1762	6.72e-05
1774	4e-05
1786	6e-05
1798	9.6e-05
1810	8.96e-05
1822	4.64e-05
1834	5.52e-05
1846	6e-05
1858	4.08e-05
1870	5.6e-05
1882	3.6e-05
1894	4.56e-05
1906	1.92e-05
1918	2.96e-05
1930	4.72e-05
1942	4.8e-05
1954	4.24e-05
1966	7.36e-05
1978	5.36e-05
1990	6.32e-05
2002	3.84e-05
2014	5.28e-05
2026	4.48e-05
2038	5.04e-05
2050	4.72e-05
2062	6.8e-05
2074	7.12e-05
2086	2.72e-05
2098	6.32e-05
2110	3.36e-05
2122	5.36e-05
2134	3.44e-05
2146	7.04e-05
2158	5.12e-05
2170	0.000104
2182	0.0001328
2194	0.0001712
2206	0.0001848
2218	0.0002608
2230	0.0004264
2242	0.000932
2254	0.0024928
2266	0.0054736
2278	0.0066392
2290	0.0075448
2302	0.0040624
2314	0.0020024
2326	0.0011032
2338	0.0004072
2350	0.0002328
2362	0.0002728
2374	0.0002976
2386	0.0003424
2398	0.0003296
2410	0.0002104
2422	0.000176
2434	0.0001072
2446	7.92e-05
2458	4.88e-05
2470	7.84e-05
2482	6.56e-05
2494	6.16e-05
2506	4.56e-05
2518	8.64e-05
2530	3.84e-05
2542	2.24e-05
2554	5.28e-05
2566	5.12e-05
2578	5.36e-05
2590	2.56e-05
2602	4.24e-05
2614	2.08e-05
2626	4.8e-05
2638	1.76e-05
2650	5.76e-05
2662	2.4e-05
2674	3.84e-05
2686	3.84e-05
2698	2.8e-05
2710	3.68e-05
2722	4.16e-05
2734	6.72e-05
2746	4.88e-05
2758	6.32e-05
2770	2.56e-05
2782	4.24e-05
2794	8.08e-05
2806	4.56e-05
2818	5.6e-05
2830	4.32e-05
2842	7.84e-05
2854	7.6e-05
2866	6.64e-05
2878	0.0001016
2890	8.96e-05
2902	1.92e-05
2914	0.0001088
2926	0.0001272
2938	0.0001192
2950	0.0001248
2962	8.32e-05
2974	7.68e-05
2986	4.96e-05
2998	0.0001008
3010	0.0001072
3022	0.000172
3034	0.000168
3046	0.00018
3058	0.0002368
3070	0.000272
3082	0.0002176
3094	8.48e-05
3106	6.32e-05
3118	0.0001184
3130	0.0001064
3142	8.24e-05
3154	9.04e-05
3166	9.36e-05
3178	7.92e-05
3190	8.08e-05
3202	4.88e-05
3214	8.96e-05
3226	0.0001104
3238	9.68e-05
3250	0.0001096
3262	8.48e-05
3274	0.0001672
3286	5.52e-05
3298	9.28e-05
3310	5.12e-05
3322	2.4e-05
3334	4.24e-05
3346	4.4e-05
3358	5.2e-05
3370	8.32e-05
3382	0.0001136
3394	0.0001048
3406	5.36e-05
3418	5.12e-05
3430	8.32e-05
3442	7.2e-06
3454	6.64e-05
3466	8.4e-05
3478	9.6e-05
3490	4.32e-05
3502	6.24e-05
3514	3.92e-05
3526	9.2e-05
3538	1.52e-05
3550	0.000124
3562	8.96e-05
3574	7.28e-05
3586	0.0001088
3598	8.08e-05
3610	0.0001208
3622	0.0001192
3634	8.4e-05
3646	0.0001112
3658	0.0001008
3670	8e-05
3682	0.0001288
3694	0.0001024
3706	5.28e-05
3718	6.32e-05
3730	9.28e-05
3742	0.0001448
3754	7.52e-05
3766	0.0001168
3778	8e-05
3790	9.6e-05
3802	0.0001664
3814	0.0001656
3826	0.0001896
3838	0.0002016
