Infrared Spectrum: Ethyl indole-3-acrylate
Formula: C 13 H 13 N O 2
CAS: 15181-86-9
State: gas
Origin: EPA-IR VAPOR PHASE LIBRARY
1/CM	ABSORBANCE
549.8	0.0035049
559.445	0.0053349
569.09	0.0070249
578.734	0.0058949
588.379	0.0122249
598.024	0.0141349
607.669	0.0043549
617.313	0.0029949
626.958	0.0024249
636.603	0.0021249
646.248	0.0022349
655.893	0.0024149
665.537	0.0030349
675.182	0.0050949
684.827	0.0109249
694.472	0.0145849
704.116	0.0162249
713.761	0.0132349
723.406	0.0279649
733.051	0.0836449
742.695	0.0764949
752.34	0.0324549
761.985	0.0185649
771.63	0.0167949
781.275	0.0172849
790.919	0.0202549
800.564	0.0262849
810.209	0.0217549
819.854	0.0172649
829.498	0.0233749
839.143	0.0332249
848.788	0.0360249
858.433	0.0294249
868.078	0.0191149
877.722	0.0160449
887.367	0.0124149
897.012	0.0152749
906.657	0.0180349
916.301	0.0175149
925.946	0.0156549
935.591	0.0146749
945.236	0.0153949
954.88	0.0179049
964.525	0.0257949
974.17	0.0342349
983.815	0.0234549
993.46	0.0143549
1003.1	0.0146349
1012.75	0.0237549
1022.39	0.0278649
1032.04	0.0452649
1041.68	0.0653349
1051.33	0.0569149
1060.97	0.0473549
1070.62	0.0375449
1080.26	0.0600649
1089.91	0.0854849
1099.55	0.0766749
1109.2	0.0300449
1118.84	0.0234249
1128.49	0.0332849
1138.13	0.0559049
1147.78	0.126975
1157.42	0.223915
1167.07	0.261895
1176.71	0.136105
1186.36	0.0614449
1196	0.0589249
1205.64	0.0894049
1215.29	0.0658149
1224.93	0.0756749
1234.58	0.147165
1244.22	0.174575
1253.87	0.158895
1263.51	0.189535
1273.16	0.163475
1282.8	0.0629949
1292.45	0.0384949
1302.09	0.0600649
1311.74	0.0932949
1321.38	0.0845849
1331.03	0.0629749
1340.67	0.0574449
1350.32	0.0421049
1359.96	0.0333049
1369.61	0.0549149
1379.25	0.0279349
1388.9	0.0247749
1398.54	0.0302049
1408.18	0.0513049
1417.83	0.0576049
1427.47	0.0179049
1437.12	0.0151049
1446.76	0.0264349
1456.41	0.0401549
1466.05	0.0286649
1475.7	0.0192949
1485.34	0.0149449
1494.99	0.0112649
1504.63	0.0083749
1514.28	0.0106749
1523.92	0.0185249
1533.57	0.0315249
1543.21	0.0281549
1552.86	0.0136749
1562.5	0.0125349
1572.15	0.0201849
1581.79	0.0212449
1591.44	0.0178749
1601.08	0.0215749
1610.73	0.0314049
1620.37	0.0556549
1630.01	0.132045
1639.66	0.189295
1649.3	0.0734649
1658.95	0.0329149
1668.59	0.0211949
1678.24	0.0185749
1687.88	0.0192449
1697.53	0.0234449
1707.17	0.0386149
1716.82	0.0761949
1726.46	0.211495
1736.11	0.251895
1745.75	0.0821149
1755.4	0.0337849
1765.04	0.0214549
1774.69	0.0133849
1784.33	0.0100749
1793.98	0.0082149
1803.62	0.0058949
1813.27	0.0044749
1822.91	0.0040149
1832.55	0.0040849
1842.2	0.0040749
1851.84	0.0040449
1861.49	0.0037349
1871.13	0.0043049
1880.78	0.0056549
1890.42	0.0042949
1900.07	0.0039149
1909.71	0.0048549
1919.36	0.0057249
1929	0.0043149
1938.65	0.0032149
1948.29	0.0025749
1957.94	0.0021849
1967.58	0.0020849
1977.23	0.0021549
1986.87	0.0021249
1996.52	0.0019449
2006.16	0.0018449
2015.81	0.0018349
2025.45	0.0020349
2035.1	0.0021549
2044.74	0.0021449
2054.38	0.0020449
2064.03	0.0019249
2073.67	0.0019349
2083.32	0.0021449
2092.96	0.0022649
2102.61	0.0021949
2112.25	0.0022849
2121.9	0.0022049
2131.54	0.0017549
2141.19	0.0016849
2150.83	0.0014049
2160.48	0.0013049
2170.12	0.0016749
2179.77	0.0016649
2189.41	0.0017549
2199.06	0.0015549
2208.7	0.0017149
2218.35	0.0017249
2227.99	0.0019849
2237.64	0.0017849
2247.28	0.0016649
2256.92	0.0013849
2266.57	0.0015249
2276.21	0.0015049
2285.86	0.0013649
2295.5	0.0016149
2305.15	0.0013749
2314.79	0.0015649
2324.44	0.0017049
2334.08	0.0017349
2343.73	0.0016649
2353.37	0.0015249
2363.02	0.0014649
2372.66	0.0014749
2382.31	0.0016749
2391.95	0.0016149
2401.6	0.0016649
2411.24	0.0017549
2420.89	0.0017849
2430.53	0.0017049
2440.18	0.0016849
2449.82	0.0018249
2459.47	0.0022149
2469.11	0.0024549
2478.75	0.0024849
2488.4	0.0027049
2498.04	0.0033849
2507.69	0.0034949
2517.33	0.0020149
2526.98	0.0013249
2536.62	0.0014849
2546.27	0.0017749
2555.91	0.0012949
2565.56	0.0016749
2575.2	0.0017749
2584.85	0.0019449
2594.49	0.0019849
2604.14	0.0019149
2613.78	0.0021249
2623.43	0.0018949
2633.07	0.0018149
2642.72	0.0015649
2652.36	0.0017149
2662.01	0.0018749
2671.65	0.0020449
2681.29	0.0021049
2690.94	0.0021149
2700.58	0.0019649
2710.23	0.0015849
2719.87	0.0017949
2729.52	0.0018349
2739.16	0.0016649
2748.81	0.0015849
2758.45	0.0016249
2768.1	0.0016049
2777.74	0.0021349
2787.39	0.0022049
2797.03	0.0021749
2806.68	0.0024149
2816.32	0.0025849
2825.97	0.0031849
2835.61	0.0031049
2845.26	0.0036649
2854.9	0.0039049
2864.55	0.0048849
2874.19	0.0068749
2883.84	0.0101449
2893.48	0.0101649
2903.12	0.0123349
2912.77	0.0140949
2922.41	0.0136449
2932.06	0.0173349
2941.7	0.0263549
2951.35	0.0232049
2960.99	0.0229049
2970.64	0.0291749
2980.28	0.0428349
2989.93	0.0400849
2999.57	0.0245149
3009.22	0.0167349
3018.86	0.0127449
3028.51	0.0124549
3038.15	0.0166349
3047.8	0.0181349
3057.44	0.0218449
3067.09	0.0322049
3076.73	0.0240749
3086.38	0.0165249
3096.02	0.0107049
3105.67	0.0055849
3115.31	0.0029749
3124.95	0.0022549
3134.6	0.0020749
3144.24	0.0022949
3153.89	0.0023249
3163.53	0.0025049
3173.18	0.0017349
3182.82	0.0019149
3192.47	0.0015549
3202.11	0.0013949
3211.76	0.0011549
3221.4	0.0006985
3231.05	0.0010441
3240.69	0.0005903
3250.34	0.0009879
3259.98	0.0005951
3269.63	0.0008966
3279.27	0.0008024
3288.92	0.0006591
3298.56	0.0007897
3308.21	0.0006643
3317.85	0.0003965
3327.49	0.0006136
3337.14	0.0008696
3346.78	0.0008867
3356.43	0.0012249
3366.07	0.0014949
3375.72	0.0011249
3385.36	0.0008469
3395.01	0.0007892
3404.65	0.0010083
3414.3	0.0015049
3423.94	0.0013449
3433.59	0.0025249
3443.23	0.0032549
3452.88	0.0043749
3462.52	0.0049149
3472.17	0.0076449
3481.81	0.0129749
3491.46	0.0246349
3501.1	0.0505249
3510.75	0.0703849
3520.39	0.0348149
3530.04	0.0098549
3539.68	0.0045449
3549.32	0.0031249
3558.97	0.0021149
3568.61	0.0014349
3578.26	0.0008624
3587.9	0.00063
3597.55	0.0004631
3607.19	0.0005408
3616.84	0.0004058
3626.48	0.0005591
3636.13	0.0005846
3645.77	0.0002354
3655.42	9.64e-05
3665.06	0.000215
3674.71	0.0001848
3684.35	0.000405
3694	0.00012698
3703.64	0.000282
3713.29	0.0002022
3722.93	0
3732.58	0.000471
3742.22	0.0002429
3751.86	0.0001843
3761.51	0.0003231
3771.15	0.0005258
3780.8	0.0003419
3790.44	0.0006319
3800.09	0.0006056
3809.73	0.0007121
3819.38	0.0007379
3829.02	0.0004554
3838.67	0.0005761
3848.31	0.0005871
3857.96	0.0004941
3867.6	0.0004857
3877.25	0.0004795
3886.89	0.0006789
3896.54	0.0006116
3906.18	0.0009146
3915.83	0.0006621
3925.47	0.0003643
3935.12	0.0005119
3944.76	0.0004423
3954.41	0.0006799
3964.05	0.0007697
3973.69	0.0005096
3983.34	0.0007991
3992.98	0.0004538
