Infrared Spectrum: Hydroxyamphetamine
Formula: C 9 H 13 N O
CAS: 1518-86-1
State: gas
Instrument: HP-GC/MS/IRD
Origin: NIST Mass Spectrometry Data Center
1/CM	ABSORBANCE
550	0.0006985
562	0.00041
574	0.0002265
586	3e-06
598	0.000116
610	0.000119
622	0.000153
634	0.000153
646	0.000128
658	0.0001545
670	0.0002095
682	0.0002465
694	0.0002835
706	0.000377
718	0.0003645
730	0.000496
742	0.000588
754	0.0009305
766	0.001336
778	0.001415
790	0.001687
802	0.0018215
814	0.001471
826	0.0010285
838	0.000984
850	0.000907
862	0.0005085
874	0.0003305
886	0.0001935
898	0.000142
910	0.0001025
922	0.0001095
934	0.00012
946	0.0001395
958	0.0001265
970	0.0001305
982	0.0001495
994	0.000222
1006	0.000287
1018	0.0003455
1030	0.0003225
1042	0.0002655
1054	0.000309
1066	0.0003785
1078	0.00043
1090	0.0006345
1102	0.000913
1114	0.00089
1126	0.0007575
1138	0.0008805
1150	0.0011665
1162	0.0029185
1174	0.005
1186	0.003219
1198	0.0015745
1210	0.000923
1222	0.000763
1234	0.0008605
1246	0.002015
1258	0.0027935
1270	0.0009205
1282	0.000443
1294	0.000351
1306	0.0003625
1318	0.000659
1330	0.0009385
1342	0.000774
1354	0.0005645
1366	0.000544
1378	0.0006085
1390	0.000458
1402	0.0002745
1414	0.0003165
1426	0.0006365
1438	0.0007705
1450	0.000581
1462	0.0004605
1474	0.0004355
1486	0.0005625
1498	0.001422
1510	0.0037585
1522	0.0025745
1534	0.0007005
1546	0.0003885
1558	0.000349
1570	0.000371
1582	0.0006085
1594	0.000958
1606	0.0011805
1618	0.001281
1630	0.0007505
1642	0.000361
1654	0.0001945
1666	0.0001475
1678	0.000106
1690	7.1e-05
1702	7.75e-05
1714	5.1e-05
1726	3e-05
1738	3.35e-05
1750	6.3e-05
1762	4.05e-05
1774	2.55e-05
1786	1e-05
1798	8e-06
1810	1.3e-05
1822	3.35e-05
1834	2.3e-05
1846	5.95e-05
1858	8.2e-05
1870	9.8e-05
1882	8.55e-05
1894	4.7e-05
1906	2.7e-05
1918	2.45e-05
1930	4.35e-05
1942	3.55e-05
1954	2.85e-05
1966	4.15e-05
1978	2.7e-05
1990	2.25e-05
2002	2.3e-05
2014	3.75e-05
2026	3.35e-05
2038	2.25e-05
2050	2.9e-05
2062	2e-05
2074	3e-05
2086	2.3e-05
2098	1.35e-05
2110	4.2e-05
2122	1.4e-05
2134	8e-06
2146	3.5e-05
2158	5.5e-06
2170	2.4e-05
2182	1.9e-05
2194	3.7e-05
2206	2.65e-05
2218	2.25e-05
2230	3.45e-05
2242	1.3e-05
2254	4.7e-05
2266	3.7e-05
2278	3.05e-05
2290	2e-05
2302	5.5e-06
2314	4.3e-05
2326	2.4e-05
2338	5.25e-05
2350	4.1e-05
2362	4.8e-05
2374	4.75e-05
2386	2.05e-05
2398	2.3e-05
2410	1.2e-05
2422	8.65e-05
2434	5.3e-05
2446	1.8e-05
2458	5.5e-06
2470	4.65e-05
2482	1.5e-06
2494	2.4e-05
2506	6.4e-05
2518	2.85e-05
2530	2.9e-05
2542	2.3e-05
2554	2e-05
2566	2.65e-05
2578	3.5e-05
2590	3.9e-05
2602	4.9e-05
2614	4.2e-05
2626	6.3e-05
2638	7.8e-05
2650	6.85e-05
2662	4.5e-05
2674	6.55e-05
2686	6.35e-05
2698	8.1e-05
2710	5.8e-05
2722	4.3e-05
2734	6.6e-05
2746	6.6e-05
2758	9.05e-05
2770	8.35e-05
2782	8.3e-05
2794	0.000109
2806	0.0001415
2818	0.000199
2830	0.0003
2842	0.000471
2854	0.0006895
2866	0.000673
2878	0.000672
2890	0.000725
2902	0.0009545
2914	0.0014295
2926	0.001611
2938	0.0013055
2950	0.0009995
2962	0.0014325
2974	0.001428
2986	0.0008105
2998	0.0004735
3010	0.000641
3022	0.000759
3034	0.000795
3046	0.0005455
3058	0.0003975
3070	0.000343
3082	0.0002855
3094	0.000148
3106	0.0001365
3118	9.65e-05
3130	8.75e-05
3142	7.3e-05
3154	2.85e-05
3166	3.05e-05
3178	4.3e-05
3190	5.95e-05
3202	0.000103
3214	6.05e-05
3226	6.35e-05
3238	4.8e-05
3250	6.2e-05
3262	2.95e-05
3274	1.5e-05
3286	3.9e-05
3298	2.7e-05
3310	2.15e-05
3322	7.7e-05
3334	5.9e-05
3346	7.75e-05
3358	8.75e-05
3370	8.4e-05
3382	5.45e-05
3394	9.5e-05
3406	8.05e-05
3418	8.05e-05
3430	7.75e-05
3442	5.05e-05
3454	3.95e-05
3466	6.6e-05
3478	2.7e-05
3490	5.9e-05
3502	5.4e-05
3514	1.5e-06
3526	6.9e-05
3538	2.5e-05
3550	7.05e-05
3562	5.4e-05
3574	5.45e-05
3586	7.1e-05
3598	6.2e-05
3610	0.000129
3622	0.0001385
3634	0.000502
3646	0.0018065
3658	0.001798
3670	0.00035
3682	9.6e-05
3694	6.65e-05
3706	2.85e-05
3718	5.8e-05
3730	0.0001035
3742	0.0001125
3754	3.7e-05
3766	2.9e-05
3778	5.2e-05
3790	7e-05
3802	5.05e-05
3814	5.15e-05
3826	3.2e-05
3838	6.65e-05
