Infrared Spectrum: CARBAZIC ACID, 3-(5-AMINO-6-CHLORO-4-PYRIMIDINYL)-, BENZYL ESTER
Formula: C12 H12 Cl N5 O2
CAS: 15180-19-5
State: SOLID (1 mg / 650 mg KBr DISC)
Class: COBLENTZ III
Instrument: PERKIN-ELMER 521 (GRATING)
Instrument parameters: FILTER CHANGES AT 3130, 2475, 2000, 1150, 700, 410 CM^-^1, GRATING CHANGES AT 2000, 620 CM^-^1
Sampling: TRANSMISSION
Resolution: 4
Origin: SOUTHERN RESEARCH INST.
1/CM	TRANSMITTANCE
282.46	0.437
292.057	0.47
301.655	0.517
311.252	0.557
320.849	0.552
330.447	0.574
340.044	0.634
349.642	0.643
359.239	0.642
368.836	0.679
378.434	0.703
388.031	0.718
397.628	0.687
407.226	0.717
416.823	0.75
426.42	0.762
436.018	0.765
445.615	0.754
455.213	0.64
464.81	0.73
474.407	0.749
484.005	0.747
493.602	0.716
503.199	0.7
512.797	0.681
522.394	0.667
531.991	0.673
541.589	0.675
551.186	0.633
560.784	0.665
570.381	0.677
579.978	0.686
589.576	0.664
599.173	0.679
608.77	0.712
618.368	0.71
627.965	0.694
637.562	0.712
647.16	0.704
656.757	0.684
666.355	0.655
675.952	0.667
685.549	0.665
695.147	0.47
704.744	0.612
714.341	0.552
723.939	0.494
733.536	0.373
743.133	0.49
752.731	0.619
762.328	0.646
771.926	0.657
781.523	0.603
791.12	0.53
800.718	0.588
810.315	0.673
819.912	0.724
829.51	0.731
839.107	0.571
848.704	0.657
858.302	0.725
867.899	0.782
877.497	0.785
887.094	0.78
896.691	0.755
906.289	0.692
915.886	0.703
925.483	0.748
935.081	0.793
944.678	0.819
954.275	0.816
963.873	0.791
973.47	0.788
983.068	0.784
992.665	0.71
1002.26	0.708
1011.86	0.785
1021.46	0.759
1031.05	0.698
1040.65	0.526
1050.25	0.669
1059.85	0.755
1069.44	0.761
1079.04	0.751
1088.64	0.738
1098.24	0.685
1107.83	0.625
1117.43	0.573
1127.03	0.649
1136.63	0.696
1146.22	0.674
1155.82	0.606
1165.42	0.506
1175.01	0.61
1184.61	0.584
1194.21	0.601
1203.81	0.614
1213.4	0.553
1223	0.401
1232.6	0.482
1242.2	0.619
1251.79	0.594
1261.39	0.473
1270.99	0.305
1280.59	0.287
1290.18	0.417
1299.78	0.658
1309.38	0.688
1318.98	0.688
1328.57	0.68
1338.17	0.721
1347.77	0.736
1357.36	0.748
1366.96	0.696
1376.56	0.634
1386.16	0.625
1395.75	0.511
1405.35	0.277
1414.95	0.4
1424.55	0.61
1434.14	0.586
1443.74	0.387
1453.34	0.408
1462.94	0.579
1472.53	0.596
1482.13	0.554
1491.73	0.504
1501.33	0.605
1510.92	0.552
1520.52	0.498
1530.12	0.603
1539.71	0.626
1549.31	0.561
1558.91	0.447
1568.51	0.295
1578.1	0.201
1587.7	0.37
1597.3	0.579
1606.9	0.661
1616.49	0.626
1626.09	0.571
1635.69	0.617
1645.29	0.68
1654.88	0.694
1664.48	0.667
1674.08	0.576
1683.68	0.498
1693.27	0.309
1702.87	0.171
1712.47	0.336
1722.06	0.521
1731.66	0.63
1741.26	0.688
1750.86	0.777
1760.45	0.828
1770.05	0.855
1779.65	0.872
1789.25	0.879
1798.84	0.88
1808.44	0.878
1818.04	0.876
1827.64	0.885
1837.23	0.88
1846.83	0.87
1856.43	0.883
1866.03	0.89
1875.62	0.891
1885.22	0.891
1894.82	0.892
1904.41	0.894
1914.01	0.894
1923.61	0.894
1933.21	0.893
1942.8	0.891
1952.4	0.888
1962	0.886
1971.6	0.888
1981.19	0.891
1990.79	0.893
2000.39	0.893
2009.99	0.892
2019.58	0.891
2029.18	0.89
2038.78	0.89
2048.38	0.89
2057.97	0.891
2067.57	0.891
2077.17	0.891
2086.76	0.891
2096.36	0.891
2105.96	0.891
2115.56	0.891
2125.15	0.891
2134.75	0.89
2144.35	0.889
2153.95	0.887
2163.54	0.887
2173.14	0.886
2182.74	0.885
2192.34	0.883
2201.93	0.883
2211.53	0.882
2221.13	0.88
2230.72	0.879
2240.32	0.878
2249.92	0.877
2259.52	0.876
2269.11	0.875
2278.71	0.875
2288.31	0.874
2297.91	0.873
2307.5	0.871
2317.1	0.871
2326.7	0.87
2336.3	0.869
2345.89	0.868
2355.49	0.867
2365.09	0.866
2374.69	0.864
2384.28	0.863
2393.88	0.861
2403.48	0.86
2413.07	0.859
2422.67	0.857
2432.27	0.856
2441.87	0.854
2451.46	0.852
2461.06	0.85
2470.66	0.849
2480.26	0.848
2489.85	0.848
2499.45	0.848
2509.05	0.847
2518.65	0.846
2528.24	0.845
2537.84	0.845
2547.44	0.844
2557.04	0.844
2566.63	0.843
2576.23	0.841
2585.83	0.84
2595.42	0.838
2605.02	0.836
2614.62	0.833
2624.22	0.831
2633.81	0.828
2643.41	0.826
2653.01	0.824
2662.61	0.822
2672.2	0.82
2681.8	0.817
2691.4	0.816
2701	0.813
2710.59	0.809
2720.19	0.805
2729.79	0.802
2739.39	0.799
2748.98	0.794
2758.58	0.791
2768.18	0.789
2777.77	0.787
2787.37	0.785
2796.97	0.783
2806.57	0.781
2816.16	0.777
2825.76	0.774
2835.36	0.77
2844.96	0.758
2854.55	0.751
2864.15	0.745
2873.75	0.74
2883.35	0.734
2892.94	0.728
2902.54	0.719
2912.14	0.708
2921.74	0.691
2931.33	0.665
2940.93	0.619
2950.53	0.657
2960.12	0.657
2969.72	0.653
2979.32	0.66
2988.92	0.662
2998.51	0.659
3008.11	0.652
3017.71	0.644
3027.31	0.662
3036.9	0.661
3046.5	0.654
3056.1	0.65
3065.7	0.661
3075.29	0.664
3084.89	0.661
3094.49	0.665
3104.09	0.655
3113.68	0.642
3123.28	0.62
3132.88	0.6
3142.47	0.594
3152.07	0.577
3161.67	0.554
3171.27	0.528
3180.86	0.494
3190.46	0.464
3200.06	0.443
3209.66	0.448
3219.25	0.466
3228.85	0.469
3238.45	0.479
3248.05	0.499
3257.64	0.525
3267.24	0.533
3276.84	0.526
3286.43	0.492
3296.03	0.47
3305.63	0.413
3315.23	0.307
3324.82	0.347
3334.42	0.477
3344.02	0.583
3353.62	0.619
3363.21	0.652
3372.81	0.605
3382.41	0.448
3392.01	0.673
3401.6	0.724
3411.2	0.742
3420.8	0.747
3430.4	0.753
3439.99	0.758
3449.59	0.766
3459.19	0.779
3468.78	0.789
3478.38	0.795
3487.98	0.799
3497.58	0.804
3507.17	0.807
3516.77	0.81
3526.37	0.814
3535.97	0.817
3545.56	0.82
3555.16	0.823
3564.76	0.826
3574.36	0.829
3583.95	0.832
3593.55	0.836
3603.15	0.839
3612.75	0.841
3622.34	0.843
3631.94	0.844
3641.54	0.845
3651.13	0.845
3660.73	0.845
3670.33	0.843
3679.93	0.842
3689.52	0.844
3699.12	0.844
3708.72	0.846
3718.32	0.846
3727.91	0.846
3737.51	0.846
3747.11	0.846
3756.71	0.846
3766.3	0.845
3775.9	0.844
3785.5	0.844
3795.1	0.843
3804.69	0.841
3814.29	0.84
