Infrared Spectrum: 2-Chloro-4-fluorobenzylamine
Formula: C 7 H 7 Cl F N
CAS: 15205-11-5
State: gas
Origin: EPA-IR VAPOR PHASE LIBRARY
1/CM	ABSORBANCE
549.8	0.0012889
559.445	0.001591
569.09	0.0011003
578.735	0.001631
588.38	0.001791
598.025	0.001581
607.67	0.0012986
617.315	0.0012722
626.96	0.0012475
636.605	0.001461
646.251	0.001391
655.896	0.001701
665.541	0.001931
675.186	0.002251
684.831	0.003031
694.476	0.003641
704.121	0.003711
713.766	0.003581
723.411	0.004171
733.056	0.004731
742.701	0.004501
752.346	0.003361
761.991	0.002741
771.636	0.002921
781.281	0.003341
790.926	0.004201
800.571	0.005151
810.216	0.005501
819.861	0.004701
829.507	0.003711
839.152	0.003351
848.797	0.004291
858.442	0.007041
868.087	0.005141
877.732	0.003581
887.377	0.004251
897.022	0.007571
906.667	0.010641
916.312	0.007621
925.957	0.003001
935.602	0.001671
945.247	0.001351
954.892	0.001276
964.537	0.0011882
974.182	0.0010659
983.827	0.0010644
993.472	0.0010628
1003.12	0.0011884
1012.76	0.001481
1022.41	0.002331
1032.05	0.003511
1041.7	0.004361
1051.34	0.003741
1060.99	0.002331
1070.63	0.001561
1080.28	0.0010806
1089.92	0.001068
1099.57	0.0012001
1109.21	0.0012251
1118.86	0.0013085
1128.5	0.0011609
1138.15	0.0010902
1147.79	0.0012071
1157.44	0.0011688
1167.08	0.001381
1176.73	0.001771
1186.37	0.001831
1196.02	0.001691
1205.66	0.002151
1215.31	0.004721
1224.95	0.008961
1234.6	0.009121
1244.24	0.004721
1253.89	0.004601
1263.53	0.005951
1273.18	0.004181
1282.82	0.002051
1292.47	0.001681
1302.11	0.0012788
1311.76	0.0011108
1321.4	0.0009823
1331.05	0.0011241
1340.69	0.0011375
1350.34	0.001401
1359.98	0.001621
1369.63	0.002011
1379.27	0.002451
1388.92	0.002781
1398.56	0.002771
1408.21	0.002101
1417.85	0.001411
1427.5	0.001441
1437.14	0.001961
1446.79	0.002581
1456.43	0.002841
1466.08	0.003201
1475.73	0.005811
1485.37	0.013791
1495.02	0.013511
1504.66	0.004341
1514.31	0.001791
1523.95	0.001611
1533.6	0.001531
1543.24	0.001391
1552.89	0.001661
1562.53	0.002591
1572.18	0.004451
1581.82	0.006651
1591.47	0.009131
1601.11	0.011611
1610.76	0.009031
1620.4	0.004661
1630.05	0.002831
1639.69	0.001931
1649.34	0.001331
1658.98	0.0009997
1668.63	0.0008234
1678.27	0.0008118
1687.92	0.0007934
1697.56	0.0006948
1707.21	0.0008006
1716.85	0.0008388
1726.5	0.0008458
1736.14	0.0006894
1745.79	0.0006527
1755.43	0.0006448
1765.08	0.0005735
1774.72	0.0006089
1784.37	0.0005313
1794.01	0.0005496
1803.66	0.0005803
1813.3	0.0004805
1822.95	0.0004972
1832.59	0.0004809
1842.24	0.0004336
1851.88	0.000481
1861.53	0.0005718
1871.17	0.0006731
1880.82	0.000673
1890.46	0.0005701
1900.11	0.000474
1909.75	0.0005201
1919.4	0.0004574
1929.04	0.000516
1938.69	0.0005023
1948.33	0.0004875
1957.98	0.0004758
1967.62	0.00040752
1977.27	0.00042602
1986.91	0.0004605
1996.56	0.00038322
2006.2	0.00038799
2015.85	0.00038496
2025.49	0.00039334
2035.14	0.00034708
2044.78	0.00040516
2054.43	0.0004558
2064.07	0.0004368
2073.72	0.0004746
2083.36	0.0004817
2093.01	0.00038836
2102.65	0.00041093
2112.3	0.00038551
2121.94	0.00036729
2131.59	0.00042438
2141.23	0.00038298
2150.88	0.000437
2160.52	0.00034444
2170.17	0.0004063
2179.81	0.00039719
2189.46	0.0002969
2199.1	0.00034347
2208.75	0.00038911
2218.39	0.00035977
2228.04	0.0003111
2237.68	0.0003193
2247.33	0.00038393
2256.97	0.00038547
2266.62	0.00037007
2276.26	0.00039163
2285.91	0.0004552
2295.55	0.00039836
2305.2	0.000307
2314.84	0.00032827
2324.49	0.0003087
2334.13	0.0002582
2343.78	0.0002535
2353.42	0.0002864
2363.07	0.0003109
2372.72	0.00035539
2382.36	0.00035827
2392.01	0.0003032
2401.65	0.00036188
2411.3	0.0003037
2420.94	0.0002827
2430.59	0.0002814
2440.23	0.000340342
2449.88	0.0003161
2459.52	0.00036037
2469.17	0.000333704
2478.81	0.00038875
2488.46	0.00043
2498.1	0.0003172
2507.75	0.000337996
2517.39	0.00038159
2527.04	0.0002614
2536.68	0.00034704
2546.33	0.00034972
2555.97	0.0002913
2565.62	0.000217
2575.26	0.0002389
2584.91	0.0002353
2594.55	0.0002561
2604.2	0.00032454
2613.84	0.000216
2623.49	0.0002768
2633.13	0.000208
2642.78	0.0002756
2652.42	0.000183
2662.07	0.00034295
2671.71	0.000238
2681.36	0.000246
2691	0.0002415
2700.65	0.0002895
2710.29	0.00021
2719.94	0.00018
2729.58	0.00035037
2739.23	0.0002795
2748.87	0.0002436
2758.52	0.000331424
2768.16	0.00032444
2777.81	0.0003171
2787.45	0.0002519
2797.1	0.0002426
2806.74	0.00037238
2816.39	0.00034158
2826.03	0.00040338
2835.68	0.0005183
2845.32	0.000687
2854.97	0.0008494
2864.61	0.0012375
2874.26	0.001521
2883.9	0.001471
2893.55	0.0012937
2903.19	0.0012013
2912.84	0.001341
2922.48	0.001591
2932.13	0.001591
2941.77	0.001731
2951.42	0.001601
2961.06	0.001275
2970.71	0.0009556
2980.35	0.0005544
2990	0.00038641
2999.64	0.0002561
3009.29	0.0002702
3018.93	0.00042961
3028.58	0.0005632
3038.22	0.0006026
3047.87	0.0006426
3057.51	0.0005415
3067.16	0.0004406
3076.8	0.0005744
3086.45	0.0005969
3096.09	0.0004686
3105.74	0.0002922
3115.38	0.00012
3125.03	0.000141
3134.67	0.0002483
3144.32	0.0002805
3153.96	0.0002371
3163.61	0.000202
3173.25	0.000187
3182.9	0.00025
3192.54	0.0002972
3202.19	0.000166
3211.83	0.000191
3221.48	0.0002712
3231.12	0.000163
3240.77	0.000199
3250.41	0.000172
3260.06	0.000199
3269.7	0.0002533
3279.35	0.000207
3289	0.000172
3298.64	0.0002389
3308.29	0.0003032
3317.93	0.000333312
3327.58	0.000274
3337.22	0.000283
3346.87	0.00036766
3356.51	0.0002887
3366.16	0.0004941
3375.8	0.0002563
3385.45	0.00039369
3395.09	0.0003141
3404.74	0.00034128
3414.38	0.00041543
3424.03	0.00035315
3433.67	0.00043035
3443.32	0.000213
3452.96	0.00036465
3462.61	0.0005041
3472.25	0.00040207
3481.9	0.0002798
3491.54	0.000219
3501.19	0.0002918
3510.83	0.00019
3520.48	1.7e-05
3530.12	0.0003208
3539.77	0.00038808
3549.41	0.00034252
3559.06	0.000227
3568.7	0.0003168
3578.35	0.0002391
3587.99	0.0002797
3597.64	0.0002547
3607.28	0.000156
3616.93	0.00035865
3626.57	0.000318
3636.22	0.0002903
3645.86	0.0003072
3655.51	6.2e-05
3665.15	0.0002985
3674.8	1.4e-05
3684.44	0.000201
3694.09	0.0002539
3703.73	0.000203
3713.38	0.000164
3723.02	0.0002812
3732.67	0.000158
3742.31	0.000143
3751.96	0.000197
3761.6	0.0002336
3771.25	0.0002572
3780.89	0.0002989
3790.54	0.000229
3800.18	0.000182
3809.83	0.000223
3819.47	0.0002459
3829.12	0.000186
3838.76	0.000231
3848.41	0.0002681
3858.05	0.0002427
3867.7	0.000207
3877.34	0.000156
3886.99	0.000107
3896.63	5.7e-05
3906.28	9.5e-05
3915.92	3.4e-05
3925.57	4e-05
3935.21	0.0002699
3944.86	0.0003087
3954.5	0.000186
3964.15	0.00036901
3973.79	0.00038846
3983.44	0.000117
3993.08	7.3e-05
