Infrared Spectrum: 4-Aminostyrene
Formula: C 8 H 9 N
CAS: 1520-21-4
State: gas
Instrument: HP-GC/MS/IRD
Origin: NIST Mass Spectrometry Data Center
1/CM	ABSORBANCE
550	0.0061908
562	0.0017479
574	0.0019712
586	0.0021483
598	0.0023639
610	0.0028644
622	0.0049742
634	0.0119812
646	0.0229768
658	0.0252252
670	0.0181258
682	0.0129668
694	0.0107261
706	0.0082929
718	0.0057288
730	0.0050204
742	0.0046893
754	0.0035728
766	0.0035574
778	0.0045507
790	0.0061908
802	0.0109109
814	0.0205975
826	0.031724
838	0.021945
850	0.0104643
862	0.0050743
874	0.0058212
886	0.0105875
898	0.0161238
910	0.0120736
922	0.0058982
934	0.0024794
946	0.0022869
958	0.0037807
970	0.0064757
982	0.0085624
994	0.0068068
1006	0.0039501
1018	0.0028875
1030	0.0023254
1042	0.0016632
1054	0.0019096
1066	0.0028644
1078	0.0044275
1090	0.0046277
1102	0.0031878
1114	0.0029876
1126	0.0029799
1138	0.00231
1150	0.0011165
1162	0.0035574
1174	0.0137907
1186	0.0107107
1198	0.0014553
1210	0.0012628
1222	0.0010934
1234	0.0020482
1246	0.0062678
1258	0.0201201
1270	0.0440825
1282	0.0385154
1294	0.011088
1306	0.004235
1318	0.0034958
1330	0.0017787
1342	0.0005313
1354	0.000154
1366	0
1378	0.0001463
1390	0.0008085
1402	0.0025564
1414	0.0036344
1426	0.0030261
1438	0.0021868
1450	0.0017402
1462	0.0016478
1474	0.002079
1486	0.0042273
1498	0.0192577
1510	0.0605528
1522	0.0499037
1534	0.0088858
1546	0.0050204
1558	0.0044737
1570	0.0055825
1582	0.0089628
1594	0.0188188
1606	0.039116
1618	0.0710787
1630	0.0706475
1642	0.0311003
1654	0.0111419
1666	0.006314
1678	0.0042042
1690	0.0034188
1702	0.0030261
1714	0.0024178
1726	0.0017556
1738	0.0017402
1750	0.0017941
1762	0.0013783
1774	0.0013475
1786	0.0021021
1798	0.0034188
1810	0.0036267
1822	0.0024024
1834	0.0016478
1846	0.0018018
1858	0.0024563
1870	0.0029491
1882	0.0026796
1894	0.0017248
1906	0.0014091
1918	0.0016555
1930	0.0018557
1942	0.0017864
1954	0.0016709
1966	0.0016324
1978	0.0016093
1990	0.0015246
2002	0.001617
2014	0.0017941
2026	0.0018095
2038	0.0017479
2050	0.0018249
2062	0.0018711
2074	0.0017864
2086	0.0016709
2098	0.0017017
2110	0.0017556
2122	0.0016863
2134	0.0016093
2146	0.0016093
2158	0.0015862
2170	0.0015862
2182	0.0016247
2194	0.0016555
2206	0.0016709
2218	0.0016786
2230	0.0016401
2242	0.001694
2254	0.0017402
2266	0.0018326
2278	0.001848
2290	0.0018634
2302	0.0019019
2314	0.0019558
2326	0.0019789
2338	0.0020251
2350	0.0020251
2362	0.0018095
2374	0.0016863
2386	0.0016324
2398	0.0016632
2410	0.0017094
2422	0.0017402
2434	0.0018634
2446	0.0019096
2458	0.0019173
2470	0.0017633
2482	0.0016324
2494	0.0016709
2506	0.0017171
2518	0.0018788
2530	0.0019789
2542	0.0020328
2554	0.0020867
2566	0.0020174
2578	0.0019481
2590	0.0020097
2602	0.0019789
2614	0.001925
2626	0.0019404
2638	0.0018095
2650	0.0017633
2662	0.0017094
2674	0.0016709
2686	0.0017171
2698	0.0017787
2710	0.0017402
2722	0.0017248
2734	0.0016478
2746	0.001694
2758	0.0017248
2770	0.0017479
2782	0.0017787
2794	0.0017479
2806	0.001694
2818	0.0017325
2830	0.0018557
2842	0.0019019
2854	0.0018942
2866	0.0019712
2878	0.0021945
2890	0.0023716
2902	0.0024563
2914	0.0025025
2926	0.0025949
2938	0.0025487
2950	0.0027566
2962	0.0034881
2974	0.0053823
2986	0.0083776
2998	0.0129745
3010	0.0202279
3022	0.0236852
3034	0.0217217
3046	0.0177716
3058	0.0141295
3070	0.0121121
3082	0.0133056
3094	0.0152306
3106	0.0099715
3118	0.0047971
3130	0.0034958
3142	0.0026873
3154	0.0022484
3166	0.0019712
3178	0.0020174
3190	0.0020328
3202	0.0024409
3214	0.0027566
3226	0.0028952
3238	0.002695
3250	0.0023408
3262	0.0020097
3274	0.0017864
3286	0.0017017
3298	0.0016863
3310	0.0017094
3322	0.0016247
3334	0.0016247
3346	0.0017094
3358	0.0018788
3370	0.0022253
3382	0.0030723
3394	0.0055748
3406	0.0084931
3418	0.0086856
3430	0.005698
3442	0.0029645
3454	0.0027412
3466	0.0033572
3478	0.0045815
3490	0.0053361
3502	0.0054208
3514	0.004312
3526	0.0030261
3538	0.0021714
3550	0.0018788
3562	0.0017941
3574	0.0017325
3586	0.0016555
3598	0.0017017
3610	0.0017017
3622	0.0016863
3634	0.0017479
3646	0.0017402
3658	0.0017556
3670	0.0018018
3682	0.0017402
3694	0.0017941
3706	0.0017941
3718	0.001848
3730	0.0017941
3742	0.0017941
3754	0.0018018
3766	0.0018018
3778	0.0018326
3790	0.0018018
3802	0.0018172
3814	0.0018172
3826	0.0019789
3838	0.0020944
