Infrared Spectrum: 2-Methanesulphonylethanol
Formula: C 3 H 8 O 3 S
CAS: 15205-66-0
State: gas
Origin: EPA-IR VAPOR PHASE LIBRARY
1/CM	ABSORBANCE
549.8	0.00858
559.445	0.00504
569.09	0.00449
578.734	0.00359
588.379	0.0031
598.024	0.0032
607.669	0.00294
617.313	0.00386
626.958	0.00478
636.603	0.00701
646.248	0.01052
655.893	0.01293
665.537	0.01157
675.182	0.00734
684.827	0.00516
694.472	0.00519
704.116	0.00665
713.761	0.01151
723.406	0.0212
733.051	0.03246
742.695	0.03808
752.34	0.03249
761.985	0.02102
771.63	0.01168
781.275	0.00811
790.919	0.00857
800.564	0.00848
810.209	0.00807
819.854	0.00854
829.498	0.01142
839.143	0.01359
848.788	0.01253
858.433	0.00799
868.078	0.00567
877.722	0.00555
887.367	0.00578
897.012	0.0068
906.657	0.00896
916.301	0.01129
925.946	0.01379
935.591	0.01998
945.236	0.03543
954.88	0.04686
964.525	0.04336
974.17	0.02602
983.815	0.01448
993.46	0.01297
1003.1	0.01563
1012.75	0.02153
1022.39	0.03051
1032.04	0.04466
1041.68	0.05905
1051.33	0.06744
1060.97	0.06285
1070.62	0.04848
1080.26	0.03008
1089.91	0.01735
1099.55	0.01448
1109.2	0.02007
1118.84	0.04248
1128.49	0.08392
1138.13	0.12484
1147.78	0.13632
1157.42	0.11108
1167.07	0.07413
1176.71	0.04925
1186.36	0.03617
1196	0.02773
1205.64	0.02036
1215.29	0.01585
1224.93	0.01521
1234.58	0.01606
1244.22	0.01648
1253.87	0.01646
1263.51	0.01704
1273.16	0.01868
1282.8	0.02243
1292.45	0.02845
1302.09	0.04179
1311.74	0.07343
1321.38	0.13595
1331.03	0.20759
1340.67	0.23922
1350.32	0.18959
1359.96	0.10545
1369.61	0.04952
1379.25	0.03077
1388.9	0.02881
1398.54	0.0311
1408.18	0.03021
1417.83	0.02492
1427.47	0.01666
1437.12	0.01003
1446.76	0.00638
1456.41	0.00521
1466.05	0.0056
1475.7	0.00544
1485.34	0.00459
1494.99	0.00303
1504.63	0.00228
1514.28	0.00176
1523.92	0.00172
1533.57	0.00135
1543.21	0.00127
1552.86	0.00122
1562.5	0.00125
1572.15	0.00127
1581.79	0.0012
1591.44	0.00115
1601.08	0.00106
1610.73	0.0009694
1620.37	0.0008352
1630.01	0.0006899
1639.66	0.0005546
1649.3	0.0004278
1658.95	0.0005035
1668.59	0.0004689
1678.24	0.0003933
1687.88	0.0004476
1697.53	0.0004512
1707.17	0.0002675
1716.82	0.000266
1726.46	0.0001633
1736.11	0.0002113
1745.75	0.0001244
1755.4	0.0001463
1765.04	0.0002442
1774.69	0.0002506
1784.33	0.0002296
1793.98	0.0002633
1803.62	0.0002632
1813.27	0.0002205
1822.91	0.000311
1832.55	0.0003469
1842.2	0.0003095
1851.84	0.0004096
1861.49	0.0004712
1871.13	0.0005802
1880.78	0.0007202
1890.42	0.0008769
1900.07	0.0009146
1909.71	0.0007518
1919.36	0.0006942
1929	0.0006992
1938.65	0.0006947
1948.29	0.0007509
1957.94	0.0007156
1967.58	0.0006748
1977.23	0.0007452
1986.87	0.0007364
1996.52	0.0006825
2006.16	0.0007056
2015.81	0.0006705
2025.45	0.0007686
2035.1	0.0008224
2044.74	0.00104
2054.38	0.00126
2064.03	0.00139
2073.67	0.00125
2083.32	0.0012
2092.96	0.00104
2102.61	0.00106
2112.25	0.0008853
2121.9	0.0008651
2131.54	0.0007533
2141.19	0.0006414
2150.83	0.0005585
2160.48	0.000474
2170.12	0.0004945
2179.77	0.0005186
2189.41	0.0005455
2199.06	0.0006117
2208.7	0.0005743
2218.35	0.0007145
2227.99	0.0007238
2237.64	0.0008017
2247.28	0.0008729
2256.92	0.00109
2266.57	0.0014
2276.21	0.00156
2285.86	0.00133
2295.5	0.00133
2305.15	0.00101
2314.79	0.00095
2324.44	0.0008491
2334.08	0.0008209
2343.73	0.0008362
2353.37	0.0009269
2363.02	0.0007934
2372.66	0.0007745
2382.31	0.0007274
2391.95	0.0007267
2401.6	0.0007481
2411.24	0.0008012
2420.89	0.0008699
2430.53	0.0008624
2440.18	0.00104
2449.82	0.00129
2459.47	0.00157
2469.11	0.00161
2478.75	0.00179
2488.4	0.00141
2498.04	0.00104
2507.69	0.000812
2517.33	0.0006186
2526.98	0.0005846
2536.62	0.0004852
2546.27	0.0004898
2555.91	0.0004803
2565.56	0.00044
2575.2	0.0004938
2584.85	0.0004191
2594.49	0.0005129
2604.14	0.0004491
2613.78	0.0004321
2623.43	0.0005809
2633.07	0.0005664
2642.72	0.0005146
2652.36	0.0004858
2662.01	0.0005753
2671.65	0.0006751
2681.29	0.0008815
2690.94	0.00101
2700.58	0.00101
2710.23	0.0009945
2719.87	0.00103
2729.52	0.00102
2739.16	0.0012
2748.81	0.00136
2758.45	0.00152
2768.1	0.00152
2777.74	0.00171
2787.39	0.00174
2797.03	0.00186
2806.68	0.00203
2816.32	0.00224
2825.97	0.00247
2835.61	0.00285
2845.26	0.0035
2854.9	0.00526
2864.55	0.00768
2874.19	0.01049
2883.84	0.01439
2893.48	0.0169
2903.12	0.01629
2912.77	0.01421
2922.41	0.01418
2932.06	0.01588
2941.7	0.01853
2951.35	0.01962
2960.99	0.01826
2970.64	0.01528
2980.28	0.01181
2989.93	0.00812
2999.57	0.00517
3009.22	0.00324
3018.86	0.00269
3028.51	0.00234
3038.15	0.00191
3047.8	0.00111
3057.44	0.0009515
3067.09	0.0005627
3076.73	0.0005236
3086.38	0.0004363
3096.02	0.0004303
3105.67	0.0006069
3115.31	0.0005863
3124.95	0.0004033
3134.6	0.0004917
3144.24	0.0003014
3153.89	0.0003633
3163.53	0.0004218
3173.18	0.0004781
3182.82	0.0005178
3192.47	0.0004347
3202.11	0.0003991
3211.76	0.0004462
3221.4	0.0004459
3231.05	0.0003398
3240.69	0.0005828
3250.34	0.0004888
3259.98	0.0003737
3269.63	0.0005502
3279.27	0.0005204
3288.92	0.0003159
3298.56	0.0006054
3308.21	0.0003793
3317.85	0.0003382
3327.49	0.0005272
3337.14	0.0006649
3346.78	0.0006247
3356.43	0.0003781
3366.07	0.0006857
3375.72	0.0006501
3385.36	0.0008903
3395.01	0.0008985
3404.65	0.0011
3414.3	0.00138
3423.94	0.00153
3433.59	0.00158
3443.23	0.00158
3452.88	0.00175
3462.52	0.00171
3472.17	0.00152
3481.81	0.00144
3491.46	0.0016
3501.1	0.00151
3510.75	0.00183
3520.39	0.00176
3530.04	0.00218
3539.68	0.0029
3549.32	0.0055
3558.97	0.0108
3568.61	0.01491
3578.26	0.01764
3587.9	0.01922
3597.55	0.01851
3607.19	0.01532
3616.84	0.01084
3626.48	0.00779
3636.13	0.00597
3645.77	0.00642
3655.42	0.00968
3665.06	0.01286
3674.71	0.01216
3684.35	0.00803
3694	0.00441
3703.64	0.00306
3713.29	0.00254
3722.93	0.00253
3732.58	0.00238
3742.22	0.00204
3751.86	0.00163
3761.51	0.00116
3771.15	0.0008443
3780.8	0.0008964
3790.44	0.0006243
3800.09	0.0006406
3809.73	0.0005697
3819.38	0.000374
3829.02	0.0006073
3838.67	0.0005284
3848.31	0.0002725
3857.96	0.0005462
3867.6	0.0005693
3877.25	0.0007181
3886.89	0.000663
3896.54	0.0006873
3906.18	0.0008202
3915.83	0.0007167
3925.47	0.00037
3935.12	0.0004871
3944.76	0.000783
3954.41	0.0008581
3964.05	0.000786
3973.69	0.0007699
3983.34	0.0006322
3992.98	0.0006645
