Infrared Spectrum: 1,1,2-Triphenylethane
Formula: C 20 H 18
CAS: 1520-42-9
State: gas
Instrument: HP-GC/MS/IRD
Origin: NIST Mass Spectrometry Data Center
1/CM	ABSORBANCE
550	0.0019019
562	0.0044194
574	0.0013433
586	0.0013547
598	0.0008607
610	0.000532
622	0.0005605
634	0.0010507
646	0.0009766
658	0.001273
670	0.0026372
682	0.0049001
694	0.0165813
706	0.0119548
718	0.0053257
730	0.0059926
742	0.0068343
754	0.004655
766	0.0020615
778	0.0018848
790	0.0014573
802	0.0006745
814	0.0004199
826	0.000209
838	0.0001387
850	0.0001026
862	0.0001425
874	0.0001501
886	0.0002489
898	0.0003629
910	0.0005833
922	0.0003515
934	0.0002926
946	0.0005491
958	0.0004465
970	0.0002394
982	0.0002071
994	0.0002394
1006	0.0005016
1018	0.0008189
1030	0.0025726
1042	0.0006232
1054	0.0004883
1066	0.0013034
1078	0.0010678
1090	0.0004598
1102	0.0004199
1114	0.0001919
1126	0.0002299
1138	0.0002394
1150	0.00038
1162	0.0004313
1174	0.0005453
1186	0.0007049
1198	0.0005491
1210	0.0004522
1222	0.0003724
1234	0.000513
1246	0.0003439
1258	0.0003268
1270	0.0003439
1282	0.0003876
1294	0.0004807
1306	0.0005966
1318	0.0006213
1330	0.0006897
1342	0.0005434
1354	0.0005035
1366	0.000456
1378	0.0004712
1390	0.0003401
1402	0.0003078
1414	0.000361
1426	0.0006327
1438	0.0015048
1450	0.0035967
1462	0.0016701
1474	0.0012084
1486	0.0034447
1498	0.0075088
1510	0.0011799
1522	0.0004978
1534	0.000494
1546	0.0003553
1558	0.0004199
1570	0.0007391
1582	0.0018506
1594	0.0036974
1606	0.0035055
1618	0.0008265
1630	0.0003743
1642	0.0002869
1654	0.0002945
1666	0.0002622
1678	0.0001881
1690	0.0001957
1702	0.0002109
1714	0.0001824
1726	0.0003211
1738	0.0003952
1750	0.0003135
1762	0.000285
1774	0.0004218
1786	0.0008341
1798	0.00095
1810	0.0004845
1822	0.0003363
1834	0.0002565
1846	0.0002983
1858	0.0005491
1870	0.0006327
1882	0.0005738
1894	0.0003249
1906	0.0002413
1918	0.0003724
1930	0.0007904
1942	0.0009386
1954	0.0008588
1966	0.0002261
1978	0.0001121
1990	7.03e-05
2002	7.22e-05
2014	6.84e-05
2026	5.51e-05
2038	5.13e-05
2050	3.8e-05
2062	3.8e-05
2074	3.42e-05
2086	3.99e-05
2098	4.18e-05
2110	3.99e-05
2122	3.8e-05
2134	3.61e-05
2146	4.18e-05
2158	5.13e-05
2170	6.08e-05
2182	6.27e-05
2194	5.7e-05
2206	3.8e-05
2218	6.27e-05
2230	5.51e-05
2242	3.42e-05
2254	8.55e-05
2266	9.12e-05
2278	6.08e-05
2290	6.08e-05
2302	9.69e-05
2314	0.0001292
2326	0.0001064
2338	0.000133
2350	0.0001235
2362	6.46e-05
2374	4.18e-05
2386	6.65e-05
2398	7.98e-05
2410	0.0001273
2422	9.88e-05
2434	0.0001349
2446	8.93e-05
2458	8.17e-05
2470	5.32e-05
2482	7.41e-05
2494	8.74e-05
2506	6.08e-05
2518	0.0001197
2530	8.55e-05
2542	8.55e-05
2554	9.5e-05
2566	6.84e-05
2578	0.0001368
2590	0.0001463
2602	0.0001368
2614	0.0001672
2626	0.0001216
2638	9.88e-05
2650	0.0001064
2662	8.55e-05
2674	6.65e-05
2686	0.0001064
2698	5.89e-05
2710	4.37e-05
2722	4.94e-05
2734	6.08e-05
2746	4.37e-05
2758	0.0001121
2770	0.0001311
2782	0.0001995
2794	0.0001615
2806	0.000114
2818	0.0002204
2830	0.0001976
2842	0.0003363
2854	0.0006479
2866	0.0011875
2878	0.0009386
2890	0.0011077
2902	0.0016416
2914	0.0017442
2926	0.0025669
2938	0.0031806
2950	0.0025023
2962	0.0009785
2974	0.0005985
2986	0.0007638
2998	0.0012939
3010	0.0025023
3022	0.0062472
3034	0.0110732
3046	0.0063802
3058	0.0070224
3070	0.0133779
3082	0.0074062
3094	0.005168
3106	0.0029203
3118	0.0013319
3130	0.0005358
3142	0.000342
3154	0.0003249
3166	0.0003572
3178	0.0001539
3190	0.0001634
3202	0.0001615
3214	4.75e-05
3226	5.89e-05
3238	5.13e-05
3250	0.0001007
3262	7.03e-05
3274	0.0001178
3286	0.0001045
3298	0.0001026
3310	4.94e-05
3322	8.74e-05
3334	9.12e-05
3346	8.36e-05
3358	6.65e-05
3370	6.08e-05
3382	7.98e-05
3394	3.99e-05
3406	0.0001064
3418	5.32e-05
3430	9.88e-05
3442	7.79e-05
3454	3.61e-05
3466	5.89e-05
3478	0
3490	0.0001197
3502	5.89e-05
3514	2.28e-05
3526	9.31e-05
3538	9.69e-05
3550	0.0001007
3562	6.65e-05
3574	9.12e-05
3586	4.56e-05
3598	0.000152
3610	3.23e-05
3622	7.6e-05
3634	0.0001368
3646	0.0001976
3658	0.0001824
3670	0.0001805
3682	0.000133
3694	0.0001254
3706	0.0001653
3718	0.0002109
3730	3.04e-05
3742	0.000152
3754	0.0001596
3766	0.000209
3778	5.89e-05
3790	0.000133
3802	0.0001824
3814	0.0001919
3826	0.0001406
3838	0.0001368
