Infrared Spectrum: 1-PHENYLCARBAMOYL-2,3-PHTHALOYL-7,8-BENZOPYRROCOLINE
Formula: C27 H16 N2 O3
CAS: 15208-30-7
State: SOLID (KBr PRESSING)
Melting point: 372 C
Class: COBLENTZ
Instrument: Not specified, most likely a prism, grating, or hybrid spectrometer.
Sampling: TRANSMISSION
Resolution: 4
Origin: EASTMAN KODAK COMPANY, RESEARCH LABORATORIES, ROCHESTER, N.Y.
MICROMETERS	TRANSMITTANCE
2.013	0.49
2.05294	0.492
2.09289	0.495
2.13283	0.5
2.17277	0.504
2.21271	0.512
2.25266	0.52
2.2926	0.523
2.33254	0.53
2.37249	0.538
2.41243	0.546
2.45237	0.55
2.49231	0.551
2.53226	0.561
2.5722	0.57
2.61214	0.576
2.65209	0.578
2.69203	0.596
2.73197	0.606
2.77191	0.598
2.81186	0.568
2.8518	0.55
2.89174	0.523
2.93168	0.518
2.97163	0.512
3.01157	0.392
3.05151	0.466
3.09146	0.502
3.1314	0.553
3.17134	0.566
3.21128	0.566
3.25123	0.551
3.29117	0.522
3.33111	0.56
3.37106	0.611
3.411	0.621
3.45094	0.622
3.49088	0.66
3.53083	0.657
3.57077	0.672
3.61071	0.677
3.65066	0.683
3.6906	0.7
3.73054	0.711
3.77048	0.713
3.81043	0.721
3.85037	0.724
3.89031	0.731
3.93026	0.741
3.9702	0.749
4.01014	0.757
4.05008	0.764
4.09003	0.766
4.12997	0.767
4.16991	0.774
4.20985	0.789
4.2498	0.784
4.28974	0.785
4.32968	0.792
4.36963	0.805
4.40957	0.812
4.44951	0.82
4.48945	0.823
4.5294	0.83
4.56934	0.831
4.60928	0.84
4.64923	0.843
4.68917	0.846
4.72911	0.846
4.76905	0.848
4.809	0.855
4.84894	0.853
4.88888	0.855
4.92883	0.856
4.96877	0.864
5.00871	0.864
5.04865	0.863
5.0886	0.859
5.12854	0.853
5.16848	0.853
5.20843	0.859
5.24837	0.864
5.28831	0.873
5.32825	0.874
5.3682	0.873
5.40814	0.878
5.44808	0.886
5.48803	0.891
5.52797	0.892
5.56791	0.891
5.60785	0.892
5.6478	0.897
5.68774	0.887
5.72768	0.883
5.76762	0.855
5.80757	0.843
5.84751	0.84
5.88745	0.831
5.9274	0.711
5.96734	0.331
6.00728	0.088
6.04722	0.13
6.08717	0.194
6.12711	0.247
6.16705	0.23
6.207	0.321
6.24694	0.331
6.28688	0.177
6.32682	0.265
6.36677	0.372
6.40671	0.431
6.44665	0.426
6.4866	0.303
6.52654	0.26
6.56648	0.27
6.60642	0.332
6.64637	0.341
6.68631	0.197
6.72625	0.219
6.7662	0.253
6.80614	0.322
6.84608	0.502
6.88602	0.466
6.92597	0.349
6.96591	0.341
7.00585	0.436
7.04579	0.611
7.08574	0.581
7.12568	0.275
7.16562	0.243
7.20557	0.204
7.24551	0.276
7.28545	0.507
7.32539	0.596
7.36534	0.632
7.40528	0.509
7.44522	0.64
7.48517	0.751
7.52511	0.747
7.56505	0.57
7.60499	0.418
7.64494	0.441
7.68488	0.594
7.72482	0.654
7.76477	0.479
7.80471	0.52
7.84465	0.401
7.88459	0.614
7.92454	0.4
7.96448	0.545
8.00442	0.492
8.04437	0.278
8.08431	0.181
8.12425	0.08
8.16419	0.24
8.20414	0.227
8.24408	0.299
8.28402	0.548
8.32396	0.66
8.36391	0.647
8.40385	0.443
8.44379	0.535
8.48374	0.686
8.52368	0.71
8.56362	0.729
8.60356	0.649
8.64351	0.546
8.68345	0.561
8.72339	0.721
8.76334	0.812
8.80328	0.767
8.84322	0.731
8.88316	0.827
8.92311	0.871
8.96305	0.876
9.00299	0.831
9.04294	0.802
9.08288	0.841
9.12282	0.851
9.16276	0.851
9.20271	0.807
9.24265	0.672
9.28259	0.647
9.32254	0.739
9.36248	0.817
9.40242	0.878
9.44236	0.902
9.48231	0.911
9.52225	0.929
9.56219	0.93
9.60214	0.922
9.64208	0.851
9.68202	0.858
9.72196	0.845
9.76191	0.831
9.80185	0.883
9.84179	0.906
9.88173	0.924
9.92168	0.93
9.96162	0.932
10.0016	0.929
10.0415	0.922
10.0814	0.93
10.1214	0.932
10.1613	0.932
10.2013	0.924
10.2412	0.911
10.2812	0.871
10.3211	0.779
10.361	0.677
10.401	0.606
10.4409	0.54
10.4809	0.446
10.5208	0.26
10.5608	0.421
10.6007	0.675
10.6406	0.807
10.6806	0.859
10.7205	0.901
10.7605	0.911
10.8004	0.915
10.8404	0.929
10.8803	0.932
10.9202	0.934
10.9602	0.932
11.0001	0.927
11.0401	0.883
11.08	0.84
11.12	0.833
11.1599	0.823
11.1998	0.838
11.2398	0.896
11.2797	0.924
11.3197	0.92
11.3596	0.846
11.3996	0.81
11.4395	0.864
11.4794	0.853
11.5194	0.802
11.5593	0.833
11.5993	0.887
11.6392	0.919
11.6792	0.94
11.7191	0.952
11.759	0.953
11.799	0.953
11.8389	0.953
11.8789	0.953
11.9188	0.953
11.9588	0.953
11.9987	0.957
12.0386	0.96
12.0786	0.962
12.1185	0.962
12.1585	0.963
12.1984	0.962
12.2384	0.943
12.2783	0.876
12.3182	0.756
12.3582	0.719
12.3981	0.741
12.4381	0.685
12.478	0.558
12.518	0.586
12.5579	0.65
12.5978	0.64
12.6378	0.579
12.6777	0.57
12.7177	0.652
12.7576	0.672
12.7976	0.736
12.8375	0.81
12.8774	0.815
12.9174	0.721
12.9573	0.682
12.9973	0.695
13.0372	0.703
13.0772	0.698
13.1171	0.69
13.157	0.64
13.197	0.584
13.2369	0.551
13.2769	0.512
13.3168	0.461
13.3568	0.387
13.3967	0.342
13.4366	0.408
13.4766	0.542
13.5165	0.672
13.5565	0.757
13.5964	0.831
13.6364	0.861
13.6763	0.863
13.7162	0.853
13.7562	0.761
13.7961	0.724
13.8361	0.767
13.876	0.831
13.916	0.833
13.9559	0.747
13.9958	0.696
14.0358	0.749
14.0757	0.752
14.1157	0.649
14.1556	0.42
14.1956	0.359
14.2355	0.425
14.2754	0.546
14.3154	0.629
14.3553	0.63
14.3953	0.558
14.4352	0.446
14.4752	0.367
14.5151	0.37
14.555	0.448
14.595	0.565
14.6349	0.68
14.6749	0.731
14.7148	0.752
14.7548	0.757
14.7947	0.762
14.8346	0.766
14.8746	0.784
14.9145	0.823
14.9545	0.835
14.9944	0.835
15.0344	0.858
15.0743	0.873
15.1142	0.879
15.1542	0.881
15.1941	0.878
15.2341	0.869
15.274	0.866
15.314	0.863
15.3539	0.853
15.3938	0.848
15.4338	0.835
15.4737	0.833
15.5137	0.836
15.5536	0.836
15.5936	0.835
15.6335	0.836
15.6734	0.833
15.7134	0.831
15.7533	0.815
15.7933	0.813
15.8332	0.812
15.8732	0.805
15.9131	0.8
15.953	0.8
15.993	0.799
