Infrared Spectrum: p-Vinylphenyl isothiocyanate
Formula: C 9 H 7 N S
CAS: 1520-20-3
State: gas
Origin: EPA-IR VAPOR PHASE LIBRARY
1/CM	ABSORBANCE
549.8	0.006445
559.445	0.004305
569.09	0.003035
578.734	0.002695
588.379	0.002825
598.024	0.002555
607.669	0.001905
617.313	0.001885
626.958	0.001575
636.603	0.0012696
646.248	0.0008912
655.893	0.0011616
665.537	0.0011277
675.182	0.0013969
684.827	0.001595
694.472	0.001935
704.116	0.001645
713.761	0.0013356
723.406	0.0010741
733.051	0.001485
742.695	0.001585
752.34	0.002055
761.985	0.003395
771.63	0.008665
781.275	0.013035
790.919	0.006985
800.564	0.004195
810.209	0.006525
819.854	0.010975
829.498	0.020865
839.143	0.031085
848.788	0.020745
858.433	0.009195
868.078	0.004315
877.722	0.003975
887.367	0.006025
897.012	0.011825
906.657	0.017925
916.301	0.022625
925.946	0.021635
935.591	0.020675
945.236	0.018405
954.88	0.013205
964.525	0.009765
974.17	0.009475
983.815	0.009915
993.46	0.007625
1003.1	0.004955
1012.75	0.005125
1022.39	0.004645
1032.04	0.004915
1041.68	0.002985
1051.33	0.001825
1060.97	0.001615
1070.62	0.0006154
1080.26	0.0007746
1089.91	0.001705
1099.55	0.002345
1109.2	0.003285
1118.84	0.003255
1128.49	0.001445
1138.13	0.0008058
1147.78	0.0007416
1157.42	0.0010218
1167.07	0.0013711
1176.71	0.0010136
1186.36	0.000556
1196	0.0006341
1205.64	0.001545
1215.29	0.0012856
1224.93	0.001895
1234.58	0.003435
1244.22	0.006745
1253.87	0.009635
1263.51	0.006945
1273.16	0.005225
1282.8	0.003615
1292.45	0.003685
1302.09	0.003105
1311.74	0.002595
1321.38	0.002275
1331.03	0.001655
1340.67	0.0012748
1350.32	0.001078
1359.96	0.0011711
1369.61	0.0012618
1379.25	0.001565
1388.9	0.002275
1398.54	0.003555
1408.18	0.004175
1417.83	0.003775
1427.47	0.003185
1437.12	0.002235
1446.76	0.001825
1456.41	0.001825
1466.05	0.002265
1475.7	0.003375
1485.34	0.006985
1494.99	0.028385
1504.63	0.056945
1514.28	0.018895
1523.92	0.004835
1533.57	0.004055
1543.21	0.003935
1552.86	0.004135
1562.5	0.005075
1572.15	0.005395
1581.79	0.007025
1591.44	0.014105
1601.08	0.021125
1610.73	0.013015
1620.37	0.008395
1630.01	0.011585
1639.66	0.008435
1649.3	0.004685
1658.95	0.003755
1668.59	0.002895
1678.24	0.002255
1687.88	0.001715
1697.53	0.001505
1707.17	0.001555
1716.82	0.001635
1726.46	0.001725
1736.11	0.001765
1745.75	0.001835
1755.4	0.002055
1765.04	0.002495
1774.69	0.002655
1784.33	0.002605
1793.98	0.002715
1803.62	0.002875
1813.27	0.003165
1822.91	0.004885
1832.55	0.007155
1842.2	0.005455
1851.84	0.004565
1861.49	0.004945
1871.13	0.005775
1880.78	0.006985
1890.42	0.008475
1900.07	0.009235
1909.71	0.009475
1919.36	0.010935
1929	0.014265
1938.65	0.019775
1948.29	0.027445
1957.94	0.036835
1967.58	0.048585
1977.23	0.063855
1986.87	0.084235
1996.52	0.112485
2006.16	0.149085
2015.81	0.188645
2025.45	0.225155
2035.1	0.269085
2044.74	0.321375
2054.38	0.261245
2064.03	0.156535
2073.67	0.119965
2083.32	0.134485
2092.96	0.181615
2102.61	0.199095
2112.25	0.132125
2121.9	0.077155
2131.54	0.057045
2141.19	0.051095
2150.83	0.052725
2160.48	0.048425
2170.12	0.036105
2179.77	0.026565
2189.41	0.022165
2199.06	0.018605
2208.7	0.014435
2218.35	0.010495
2227.99	0.007525
2237.64	0.005315
2247.28	0.003865
2256.92	0.002845
2266.57	0.002395
2276.21	0.002125
2285.86	0.001685
2295.5	0.001575
2305.15	0.0012854
2314.79	0.0012545
2324.44	0.0012759
2334.08	0.0013549
2343.73	0.001575
2353.37	0.001835
2363.02	0.001995
2372.66	0.002225
2382.31	0.002385
2391.95	0.002685
2401.6	0.002575
2411.24	0.002305
2420.89	0.002355
2430.53	0.002165
2440.18	0.001995
2449.82	0.001975
2459.47	0.001875
2469.11	0.001925
2478.75	0.002135
2488.4	0.002425
2498.04	0.002925
2507.69	0.003035
2517.33	0.002945
2526.98	0.002925
2536.62	0.002675
2546.27	0.002745
2555.91	0.002675
2565.56	0.002905
2575.2	0.002845
2584.85	0.002395
2594.49	0.001885
2604.14	0.001765
2613.78	0.001865
2623.43	0.001925
2633.07	0.002235
2642.72	0.002255
2652.36	0.002525
2662.01	0.002825
2671.65	0.003455
2681.29	0.003855
2690.94	0.004095
2700.58	0.003735
2710.23	0.002825
2719.87	0.001825
2729.52	0.0012579
2739.16	0.0012849
2748.81	0.0012355
2758.45	0.0011271
2768.1	0.0008799
2777.74	0.0009406
2787.39	0.0009774
2797.03	0.001155
2806.68	0.0011677
2816.32	0.0012066
2825.97	0.0012378
2835.61	0.0012887
2845.26	0.0009687
2854.9	0.0009024
2864.55	0.0009836
2874.19	0.0009326
2883.84	0.0008112
2893.48	0.0007647
2903.12	0.0009086
2912.77	0.0010836
2922.41	0.0013348
2932.06	0.001327
2941.7	0.001565
2951.35	0.001855
2960.99	0.002245
2970.64	0.002835
2980.28	0.003775
2989.93	0.004215
2999.57	0.004505
3009.22	0.007025
3018.86	0.009995
3028.51	0.006795
3038.15	0.008595
3047.8	0.008545
3057.44	0.005705
3067.09	0.004945
3076.73	0.005505
3086.38	0.007415
3096.02	0.012025
3105.67	0.007575
3115.31	0.002915
3124.95	0.001695
3134.6	0.0009633
3144.24	0.0006321
3153.89	0.000376
3163.53	0.00050279
3173.18	0.0003682
3182.82	0.000277
3192.47	0.000152
3202.11	0.000108
3211.76	0.0003211
3221.4	0.000152
3231.05	0.000238
3240.69	0.000164
3250.34	0.000294
3259.98	0.0003512
3269.63	0.000165
3279.27	0.000129
3288.92	0.000159
3298.56	6.7e-05
3308.21	0.000182
3317.85	0.00017
3327.49	0.000228
3337.14	0.000176
3346.78	0.00045214
3356.43	0.0003212
3366.07	0
3375.72	0.000222
3385.36	0.000235
3395.01	0.0003418
3404.65	0.000313
3414.3	0.000204
3423.94	0.000156
3433.59	0.0003246
3443.23	0.000265
3452.88	0.00045743
3462.52	0.000239
3472.17	0.00048154
3481.81	0.0003469
3491.46	0.000225
3501.1	0.000301
3510.75	0.0003634
3520.39	0.000307
3530.04	0.0003211
3539.68	0.00041117
3549.32	0.000247
3558.97	0.000293
3568.61	0.00044667
3578.26	0.00042664
3587.9	0.000188
3597.55	0.0003
3607.19	0.0003533
3616.84	0.000264
3626.48	0.000177
3636.13	0.000285
3645.77	0.000255
3655.42	0.0004722
3665.06	0.000287
3674.71	0.0005788
3684.35	0.00047238
3694	0.0005257
3703.64	0.0003504
3713.29	0.0003316
3722.93	0.0003493
3732.58	0.000232
3742.22	0.0003644
3751.86	0.00042562
3761.51	0.0004502
3771.15	0.000285
3780.8	0.0006259
3790.44	0.000623
3800.09	0.00043236
3809.73	0.000232
3819.38	0.000395
3829.02	0.00045242
3838.67	0.0003328
3848.31	0.00050712
3857.96	0.0003859
3867.6	0.0006767
3877.25	0.000646
3886.89	0.0005355
3896.54	0.0006298
3906.18	0.0007526
3915.83	0.0008818
3925.47	0.0007412
3935.12	0.0008023
3944.76	0.0008643
3954.41	0.0009927
3964.05	0.0009944
3973.69	0.0011397
3983.34	0.001182
3992.98	0.0010484
