Infrared Spectrum: (+-)-3-Bromocyclohexene
Formula: C 6 H 9 Br
CAS: 1521-51-3
State: gas
Origin: EPA-IR VAPOR PHASE LIBRARY
1/CM	ABSORBANCE
501.5	0.0026812
513.074	0.0051912
524.648	0.0049312
536.222	0.0014712
547.796	0.0008639
559.37	0.0014212
570.944	0.0048112
582.518	0.0070612
594.092	0.0052112
605.666	0.0038512
617.24	0.0036012
628.814	0.0039012
640.388	0.0060612
651.962	0.0103412
663.536	0.0100012
675.11	0.0082812
686.684	0.0057112
698.258	0.0057112
709.832	0.0147412
721.406	0.0401312
732.98	0.0481212
744.554	0.0241012
756.128	0.0079412
767.702	0.0036312
779.276	0.0022312
790.85	0.0018212
802.423	0.0022612
813.997	0.0052712
825.571	0.0087512
837.145	0.0069812
848.719	0.0077012
860.293	0.0156712
871.867	0.0136012
883.441	0.0048012
895.015	0.0036212
906.589	0.0061312
918.163	0.0087112
929.737	0.0066712
941.311	0.0037212
952.885	0.0037712
964.459	0.0053512
976.033	0.0071512
987.607	0.0102312
999.181	0.0097512
1010.76	0.0049312
1022.33	0.0033612
1033.9	0.0046112
1045.48	0.0042212
1057.05	0.0018412
1068.63	0.0018912
1080.2	0.0042712
1091.77	0.0045512
1103.35	0.0024312
1114.92	0.0020512
1126.49	0.0037512
1138.07	0.0052112
1149.64	0.0059112
1161.22	0.0135012
1172.79	0.0209612
1184.36	0.0313112
1195.94	0.0287812
1207.51	0.0093112
1219.09	0.0051412
1230.66	0.0052012
1242.23	0.0050212
1253.81	0.0062012
1265.38	0.0040812
1276.96	0.0011212
1288.53	0.0011312
1300.1	0.0020312
1311.68	0.0034812
1323.25	0.0036612
1334.83	0.0034112
1346.4	0.0029412
1357.97	0.0022312
1369.55	0.0016312
1381.12	0.0019712
1392.7	0.0028012
1404.27	0.0030512
1415.84	0.0044512
1427.42	0.0095412
1438.99	0.0136112
1450.57	0.0125312
1462.14	0.0082712
1473.71	0.0042812
1485.29	0.0013112
1496.86	0.0003465
1508.44	0.00014213
1520.01	4.85e-05
1531.58	4.371e-05
1543.16	0.0002409
1554.73	0.0002966
1566.31	0.0002511
1577.88	0.0005193
1589.45	0.0008333
1601.03	0.0010167
1612.6	0.0012612
1624.18	0.0019212
1635.75	0.0034912
1647.32	0.0037012
1658.9	0.0020912
1670.47	0.0019012
1682.05	0.0029612
1693.62	0.0035412
1705.19	0.0026412
1716.77	0.0018412
1728.34	0.0014612
1739.92	0.0012812
1751.49	0.0012512
1763.06	0.0012212
1774.64	0.0011412
1786.21	0.0009639
1797.79	0.0008339
1809.36	0.0008282
1820.93	0.000968
1832.51	0.0009978
1844.08	0.0008836
1855.66	0.000809
1867.23	0.0008209
1878.8	0.0007818
1890.38	0.0008267
1901.95	0.0008782
1913.53	0.0009166
1925.1	0.0009158
1936.67	0.0008437
1948.25	0.0007662
1959.82	0.0007111
1971.4	0.0006794
1982.97	0.0006406
1994.54	0.0006775
2006.12	0.000658
2017.69	0.0006455
2029.27	0.0006413
2040.84	0.0006795
2052.41	0.0007082
2063.99	0.0007219
2075.56	0.0006559
2087.14	0.0006574
2098.71	0.0006895
2110.28	0.0006774
2121.86	0.0006621
2133.43	0.000674
2145.01	0.0007014
2156.58	0.0007687
2168.15	0.000781
2179.73	0.0008437
2191.3	0.0008371
2202.88	0.0009209
2214.45	0.0009706
2226.02	0.0009561
2237.6	0.0009387
2249.17	0.0009485
2260.74	0.0010412
2272.32	0.0010203
2283.89	0.0010124
2295.47	0.0009952
2307.04	0.0010812
2318.61	0.0011012
2330.19	0.0010912
2341.76	0.0009232
2353.34	0.001021
2364.91	0.0009953
2376.48	0.0011112
2388.06	0.0010712
2399.63	0.0009681
2411.21	0.0011612
2422.78	0.0009103
2434.35	0.0012212
2445.93	0.0009772
2457.5	0.0010263
2469.08	0.0014612
2480.65	0.0010372
2492.22	0.0012812
2503.8	0.0012312
2515.37	0.0009948
2526.95	0.0011812
2538.52	0.0009917
2550.09	0.000908
2561.67	0.0009818
2573.24	0.0011512
2584.82	0.0010512
2596.39	0.0011312
2607.96	0.0014912
2619.54	0.0017512
2631.11	0.0016812
2642.69	0.0017812
2654.26	0.0020712
2665.83	0.0021612
2677.41	0.0020612
2688.98	0.0018012
2700.56	0.0016612
2712.13	0.0015512
2723.7	0.0015012
2735.28	0.0014812
2746.85	0.0016312
2758.43	0.0018712
2770	0.0021712
2781.57	0.0025212
2793.15	0.0030412
2804.72	0.0039212
2816.3	0.0062212
2827.87	0.0104612
2839.44	0.0228012
2851.02	0.0270512
2862.59	0.0230512
2874.17	0.0248912
2885.74	0.0305912
2897.31	0.0272712
2908.89	0.0257612
2920.46	0.0375712
2932.04	0.0509912
2943.61	0.0667212
2955.18	0.0727612
2966.76	0.0502212
2978.33	0.0256112
2989.91	0.0121312
3001.48	0.0071612
3013.05	0.0070812
3024.63	0.0149212
3036.2	0.0287112
3047.78	0.0310512
3059.35	0.0208912
3070.92	0.0104912
3082.5	0.0053112
3094.07	0.0027012
3105.65	0.0019512
3117.22	0.0017812
3128.79	0.0017512
3140.37	0.0018212
3151.94	0.0017512
3163.52	0.0016112
3175.09	0.0014812
3186.66	0.0014612
3198.24	0.0014312
3209.81	0.0014312
3221.39	0.0014412
3232.96	0.0014112
3244.53	0.0013512
3256.11	0.0013012
3267.68	0.0013812
3279.26	0.0013512
3290.83	0.0012712
3302.4	0.0011812
3313.98	0.0010712
3325.55	0.0010154
3337.13	0.0009899
3348.7	0.0010048
3360.27	0.0009998
3371.85	0.0009265
3383.42	0.0009729
3395	0.000912
3406.57	0.0009059
3418.14	0.0008496
3429.72	0.0007557
3441.29	0.0006708
3452.86	0.0006764
3464.44	0.0007221
3476.01	0.0006955
3487.59	0.0006641
3499.16	0.0006623
3510.73	0.0007053
3522.31	0.0006484
3533.88	0.0006477
3545.46	0.0006627
3557.03	0.0006286
3568.6	0.0006823
3580.18	0.0006117
3591.75	0.0005664
3603.33	0.0005525
3614.9	0.0005523
3626.47	0.0006726
3638.05	0.0006033
3649.62	0.0006206
3661.2	0.0005828
3672.77	0.0006782
3684.34	0.0007388
3695.92	0.0006944
3707.49	0.0007253
3719.07	0.0006263
3730.64	0.0005858
3742.21	0.0006091
3753.79	0.0007043
3765.36	0.0006965
3776.94	0.0007301
3788.51	0.0007298
3800.08	0.0007647
3811.66	0.0006972
3823.23	0.0006547
3834.81	0.0006733
3846.38	0.0006601
3857.95	0.000702
3869.53	0.0007775
3881.1	0.0007141
3892.68	0.0007232
3904.25	0.0008589
3915.82	0.0008889
3927.4	0.0009809
3938.97	0.0010403
3950.55	0.0010208
3962.12	0.0010032
3973.69	0.0010712
3985.27	0.00105
3996.84	0.0009285
