Infrared Spectrum: Ketone, indol-3-yl phenyl
Formula: C15 H11 N O
CAS: 15224-25-6
State: SOLID (SPLIT MULL), FLUOROLUBE FOR 3800-1330 CM^-^1, NUJOL FOR 1330-400 CM^-^1
Class: COBLENTZ III
Instrument: BECKMAN IR-9 (GRATING)
Instrument parameters: ORDER CHANGES: 670, 1200, 2000 CM^-^1
Sampling: TRANSMISSION
Resolution: 2
Origin: DOW CHEMICAL COMPANY
1/CM	TRANSMITTANCE
3800	0.6778
3791	0.6775
3782	0.6774
3773	0.6771
3764	0.6772
3755	0.6778
3746	0.6801
3737	0.6821
3728	0.6841
3719	0.6858
3710	0.6868
3701	0.6878
3692	0.689
3683	0.6898
3674	0.6905
3665	0.6911
3656	0.6919
3647	0.6928
3638	0.6936
3629	0.6941
3620	0.6945
3611	0.6955
3602	0.699
3593	0.7015
3584	0.6982
3575	0.6995
3566	0.7028
3557	0.705
3548	0.7065
3539	0.7082
3530	0.7098
3521	0.7114
3512	0.7128
3503	0.7142
3494	0.7157
3485	0.7171
3476	0.7185
3467	0.7199
3458	0.7214
3449	0.7228
3440	0.7243
3431	0.7257
3422	0.7274
3413	0.7291
3404	0.7307
3395	0.7321
3386	0.7335
3377	0.7349
3368	0.7362
3359	0.7374
3350	0.7386
3341	0.7389
3332	0.7391
3323	0.7389
3314	0.7382
3305	0.7368
3296	0.7347
3287	0.7307
3278	0.7261
3269	0.7185
3260	0.7093
3251	0.6996
3242	0.6889
3233	0.6787
3224	0.6675
3215	0.6537
3206	0.6395
3197	0.6231
3188	0.6069
3179	0.5904
3170	0.5735
3161	0.5547
3152	0.5182
3143	0.5006
3134	0.5062
3125	0.5224
3116	0.5279
3107	0.5254
3098	0.528
3089	0.5279
3080	0.5468
3071	0.5644
3062	0.5657
3053	0.5576
3044	0.5621
3035	0.5801
3026	0.5901
3017	0.5971
3008	0.5968
2999	0.6014
2990	0.6048
2981	0.6008
2972	0.6153
2963	0.6289
2954	0.6285
2945	0.618
2936	0.6139
2927	0.5998
2918	0.6157
2909	0.6341
2900	0.651
2891	0.6607
2882	0.6641
2873	0.6644
2864	0.6654
2855	0.6701
2846	0.6798
2837	0.6882
2828	0.6958
2819	0.7035
2810	0.7115
2801	0.7189
2792	0.7253
2783	0.7305
2774	0.7326
2765	0.7326
2756	0.7338
2747	0.7358
2738	0.7378
2729	0.7399
2720	0.7425
2711	0.745
2702	0.7474
2693	0.7499
2684	0.7525
2675	0.7551
2666	0.7575
2657	0.759
2648	0.7598
2639	0.7608
2630	0.7633
2621	0.7681
2612	0.7715
2603	0.7735
2594	0.7737
2585	0.7732
2576	0.7733
2567	0.7741
2558	0.7765
2549	0.7788
2540	0.7808
2531	0.7825
2522	0.7844
2513	0.7861
2504	0.7875
2495	0.7888
2486	0.7901
2477	0.791
2468	0.7918
2459	0.7926
2450	0.7934
2441	0.7941
2432	0.7949
2423	0.7957
2414	0.7964
2405	0.7967
2396	0.798
2387	0.8006
2378	0.8025
2369	0.8026
2360	0.8025
2351	0.8022
2342	0.8021
2333	0.8025
2324	0.8031
2315	0.8035
2306	0.8041
2297	0.8045
2288	0.8051
2279	0.8058
2270	0.8068
2261	0.8082
2252	0.81
2243	0.8124
2234	0.8167
2225	0.8195
2216	0.8221
2207	0.8239
2198	0.8248
2189	0.8262
2180	0.8277
2171	0.8289
2162	0.8298
2153	0.8315
2144	0.8333
2135	0.8351
2126	0.8367
2117	0.8381
2108	0.8396
2099	0.8406
2090	0.8415
2081	0.8424
2072	0.8433
2063	0.8442
2054	0.846
2045	0.8478
2036	0.8498
2027	0.8517
2018	0.8532
2009	0.8518
2000	0.8506
1991	0.8493
1982	0.8478
1973	0.8484
1964	0.8436
1955	0.8499
1946	0.8516
1937	0.851
1928	0.8502
1919	0.8465
1910	0.8378
1901	0.8314
1892	0.8296
1883	0.8265
1874	0.8225
1865	0.818
1856	0.8154
1847	0.8139
1838	0.8125
1829	0.8117
1820	0.8132
1811	0.8184
1802	0.8184
1793	0.8118
1784	0.8104
1775	0.8146
1766	0.8181
1757	0.8201
1748	0.8218
1739	0.823
1730	0.8239
1721	0.8225
1712	0.8189
1703	0.8151
1694	0.8139
1685	0.8107
1676	0.8075
1667	0.8088
1658	0.8107
1649	0.8068
1640	0.8061
1631	0.8087
1622	0.7834
1613	0.7578
1604	0.4919
1595	0.3707
1586	0.621
1577	0.6042
1568	0.4415
1559	0.5607
1550	0.6757
1541	0.7219
1532	0.7571
1523	0.6958
1514	0.461
1505	0.6419
1496	0.6176
1487	0.5415
1478	0.7261
1469	0.7601
1460	0.6547
1451	0.6125
1442	0.4073
1433	0.3274
1424	0.3704
1415	0.5698
1406	0.6342
1397	0.6608
1388	0.6438
1379	0.6105
1370	0.6843
1361	0.7068
1352	0.6957
1343	0.6754
1334	0.6932
1325	0.6643
1316	0.5804
1307	0.5457
1298	0.7068
1289	0.7119
1280	0.7571
1271	0.7537
1262	0.7285
1253	0.7496
1244	0.6364
1235	0.4195
1226	0.6006
1217	0.3271
1208	0.3068
1199	0.6106
1190	0.6551
1181	0.7219
1172	0.7346
1163	0.7426
1154	0.7064
1145	0.5854
1136	0.6557
1127	0.7764
1118	0.7208
1109	0.7831
1100	0.7874
1091	0.7846
1082	0.6675
1073	0.6395
1064	0.78
1055	0.7771
1046	0.7888
1037	0.7944
1028	0.7833
1019	0.781
1010	0.6917
1001	0.7421
992	0.8004
983	0.7996
974	0.7953
965	0.8014
956	0.8096
947	0.8085
938	0.7301
929	0.7276
920	0.7919
911	0.8008
902	0.7686
893	0.4482
884	0.6675
875	0.6999
866	0.4975
857	0.7692
848	0.77
839	0.7787
830	0.754
821	0.7148
812	0.6424
803	0.599
794	0.5291
785	0.7019
776	0.7203
767	0.614
758	0.5953
749	0.0847
740	0.6412
731	0.7311
722	0.5584
713	0.3337
704	0.3814
695	0.5757
686	0.7108
677	0.8284
668	0.8108
659	0.8306
650	0.7911
641	0.2422
632	0.8014
623	0.8527
614	0.7739
605	0.8541
596	0.6772
587	0.8297
578	0.8508
569	0.8686
560	0.8716
551	0.871
542	0.8198
533	0.8141
524	0.8487
515	0.8451
506	0.8354
497	0.8243
488	0.8134
479	0.7961
470	0.7114
461	0.7521
452	0.7297
443	0.6968
434	0.4459
425	0.6297
416	0.6197
407	0.621
