Infrared Spectrum: 2-Fluoro-6-(trifluoromethyl)benzyl alcohol
Formula: C 8 H 6 F 4 O
CAS: 152211-15-9
State: gas
Origin: EPA-IR VAPOR PHASE LIBRARY
1/CM	ABSORBANCE
549.8	0.006758
559.445	0.004458
569.09	0.003588
578.734	0.002418
588.379	0.003458
598.024	0.003458
607.669	0.003798
617.313	0.004318
626.958	0.005598
636.603	0.004368
646.248	0.004678
655.893	0.004868
665.537	0.003098
675.182	0.003538
684.827	0.002828
694.472	0.003438
704.116	0.005498
713.761	0.021138
723.406	0.044568
733.051	0.030588
742.695	0.038108
752.34	0.032218
761.985	0.013088
771.63	0.008068
781.275	0.012368
790.919	0.034538
800.564	0.049408
810.209	0.023538
819.854	0.015818
829.498	0.013438
839.143	0.009738
848.788	0.008798
858.433	0.016668
868.078	0.040278
877.722	0.048678
887.367	0.026098
897.012	0.013688
906.657	0.009668
916.301	0.008498
925.946	0.008448
935.591	0.009758
945.236	0.013128
954.88	0.019258
964.525	0.035388
974.17	0.060928
983.815	0.064458
993.46	0.044098
1003.1	0.039768
1012.75	0.059278
1022.39	0.089518
1032.04	0.078838
1041.68	0.039748
1051.33	0.023078
1060.97	0.024188
1070.62	0.030118
1080.26	0.025818
1089.91	0.021748
1099.55	0.033448
1109.2	0.076028
1118.84	0.141168
1128.49	0.210248
1138.13	0.295038
1147.78	0.333628
1157.42	0.251068
1167.07	0.263298
1176.71	0.224918
1186.36	0.108598
1196	0.054358
1205.64	0.040188
1215.29	0.033718
1224.93	0.028918
1234.58	0.036388
1244.22	0.076418
1253.87	0.101678
1263.51	0.054288
1273.16	0.028478
1282.8	0.039398
1292.45	0.070298
1302.09	0.152858
1311.74	0.347548
1321.38	0.404418
1331.03	0.162098
1340.67	0.047458
1350.32	0.030028
1359.96	0.021878
1369.61	0.022248
1379.25	0.027458
1388.9	0.029898
1398.54	0.023388
1408.18	0.015878
1417.83	0.013288
1427.47	0.014608
1437.12	0.021968
1446.76	0.046198
1456.41	0.091478
1466.05	0.095408
1475.7	0.049748
1485.34	0.029098
1494.99	0.015828
1504.63	0.008078
1514.28	0.005878
1523.92	0.004948
1533.57	0.005078
1543.21	0.005008
1552.86	0.005088
1562.5	0.005578
1572.15	0.010828
1581.79	0.020188
1591.44	0.021268
1601.08	0.011398
1610.73	0.010108
1620.37	0.008728
1630.01	0.005918
1639.66	0.004818
1649.3	0.004408
1658.95	0.003628
1668.59	0.002538
1678.24	0.002448
1687.88	0.002658
1697.53	0.003858
1707.17	0.003278
1716.82	0.002438
1726.46	0.0016345
1736.11	0.001606
1745.75	0.0015181
1755.4	0.0018427
1765.04	0.002138
1774.69	0.002108
1784.33	0.002018
1793.98	0.002748
1803.62	0.003208
1813.27	0.002348
1822.91	0.0016456
1832.55	0.0013665
1842.2	0.0015731
1851.84	0.001908
1861.49	0.003588
1871.13	0.004688
1880.78	0.002728
1890.42	0.0014154
1900.07	0.001276
1909.71	0.0012722
1919.36	0.0018565
1929	0.003208
1938.65	0.004358
1948.29	0.002728
1957.94	0.0015367
1967.58	0.001428
1977.23	0.0014634
1986.87	0.0015905
1996.52	0.001888
2006.16	0.0018515
2015.81	0.002028
2025.45	0.002458
2035.1	0.002698
2044.74	0.002568
2054.38	0.001888
2064.03	0.0016489
2073.67	0.0017367
2083.32	0.001868
2092.96	0.0015524
2102.61	0.0017433
2112.25	0.0015922
2121.9	0.0016748
2131.54	0.0014676
2141.19	0.0012394
2150.83	0.0012248
2160.48	0.0013608
2170.12	0.0012229
2179.77	0.0014594
2189.41	0.001342
2199.06	0.0013954
2208.7	0.0014777
2218.35	0.0013817
2227.99	0.0015003
2237.64	0.0017585
2247.28	0.001998
2256.92	0.002328
2266.57	0.002208
2276.21	0.002228
2285.86	0.002158
2295.5	0.001918
2305.15	0.0016375
2314.79	0.0017475
2324.44	0.0016999
2334.08	0.002248
2343.73	0.002428
2353.37	0.001878
2363.02	0.0017547
2372.66	0.0017886
2382.31	0.001462
2391.95	0.0013701
2401.6	0.0012815
2411.24	0.0014071
2420.89	0.0015999
2430.53	0.0013138
2440.18	0.0016109
2449.82	0.0018299
2459.47	0.001908
2469.11	0.002048
2478.75	0.0017942
2488.4	0.001675
2498.04	0.0016501
2507.69	0.0016429
2517.33	0.0015671
2526.98	0.001858
2536.62	0.0012112
2546.27	0.0013761
2555.91	0.0012086
2565.56	0.0013489
2575.2	0.0012436
2584.85	0.0013189
2594.49	0.0013247
2604.14	0.0011012
2613.78	0.0015502
2623.43	0.00173
2633.07	0.0014831
2642.72	0.0016702
2652.36	0.0010281
2662.01	0.0013159
2671.65	0.0010924
2681.29	0.0012939
2690.94	0.0008363
2700.58	0.00131
2710.23	0.0009932
2719.87	0.0011715
2729.52	0.00090473
2739.16	0.0012989
2748.81	0.001286
2758.45	0.0012507
2768.1	0.0015302
2777.74	0.0013316
2787.39	0.0016472
2797.03	0.0010076
2806.68	0.0015247
2816.32	0.0013598
2825.97	0.0016065
2835.61	0.0018185
2845.26	0.002428
2854.9	0.002588
2864.55	0.002638
2874.19	0.003678
2883.84	0.004648
2893.48	0.006998
2903.12	0.010778
2912.77	0.011998
2922.41	0.012158
2932.06	0.010218
2941.7	0.008768
2951.35	0.007348
2960.99	0.007008
2970.64	0.007028
2980.28	0.007838
2989.93	0.010068
2999.57	0.009438
3009.22	0.007108
3018.86	0.005148
3028.51	0.005048
3038.15	0.004748
3047.8	0.003758
3057.44	0.003768
3067.09	0.003498
3076.73	0.004448
3086.38	0.006848
3096.02	0.006428
3105.67	0.003968
3115.31	0.0017642
3124.95	0.0012781
3134.6	0.00090367
3144.24	0.0011207
3153.89	0.000674
3163.53	0.0015197
3173.18	0.000687
3182.82	0.000842
3192.47	0.0011945
3202.11	0.0015836
3211.76	0.0010303
3221.4	0.0008739
3231.05	0.000774
3240.69	0
3250.34	0.000383
3259.98	0.000255
3269.63	0.0007754
3279.27	0.0009785
3288.92	0.0015998
3298.56	0.000264
3308.21	0.0008734
3317.85	0.000696
3327.49	0.0014272
3337.14	0.000558
3346.78	0.0011807
3356.43	0.0013685
3366.07	0.0011428
3375.72	0.0013781
3385.36	0.000657
3395.01	0.0013161
3404.65	0.0012345
3414.3	0.0010949
3423.94	0.001753
3433.59	0.0011115
3443.23	0.0015933
3452.88	0.0017301
3462.52	0.0015446
3472.17	0.001988
3481.81	0.000860576
3491.46	0.0010854
3501.1	0.001958
3510.75	0.0009791
3520.39	0.0012023
3530.04	0.0016401
3539.68	0.00090691
3549.32	0.0016833
3558.97	0.001928
3568.61	0.0013778
3578.26	0.0010259
3587.9	0.002018
3597.55	0.002708
3607.19	0.002588
3616.84	0.003488
3626.48	0.003908
3636.13	0.005028
3645.77	0.011528
3655.42	0.026778
3665.06	0.028998
3674.71	0.013498
3684.35	0.005438
3694	0.003428
3703.64	0.004328
3713.29	0.003678
3722.93	0.003358
3732.58	0.003038
3742.22	0.003108
3751.86	0.002008
3761.51	0.0018211
3771.15	0.001908
3780.8	0.001707
3790.44	0.0016927
3800.09	0.0017965
3809.73	0.002098
3819.38	0.0016482
3829.02	0.001968
3838.67	0.002448
3848.31	0.002348
3857.96	0.002178
3867.6	0.0016092
3877.25	0.0017613
3886.89	0.0012244
3896.54	0.0014951
3906.18	0.0015022
3915.83	0.0016567
3925.47	0.0013046
3935.12	0.0014335
3944.76	0.0010923
3954.41	0.0013202
3964.05	0.001096
3973.69	0.000587
3983.34	0.0009587
3992.98	0.0010844
