Infrared Spectrum: Hexadecane-1-sulfonic acid, 4-hydroxy-, Delta-sultone
Formula: C16 H32 O3 S
CAS: 15224-88-1
State: SOLID (2 mg / 200 mg (1%) KBr DISC)
Class: COBLENTZ III
Instrument: BECKMAN IR-12 (GRATING)
Instrument parameters: GRATING
Sampling: TRANSMISSION
Resolution: 2
Origin: COLGATE-PALMOLIVE COMPANY (KELLENBACH)
1/CM	TRANSMITTANCE
200	0.0616
210	0.0318
220	0.0257
230	0.0758
240	0.1815
250	0.2913
260	0.4108
270	0.5296
280	0.621
290	0.6728
300	0.7507
310	0.7798
320	0.8181
330	0.8162
340	0.8076
350	0.8637
360	0.8769
370	0.8929
380	0.9139
390	0.9143
400	0.9205
410	0.9249
420	0.8413
430	0.8928
440	0.8927
450	0.8524
460	0.724
470	0.7692
480	0.862
490	0.9164
500	0.7844
510	0.8087
520	0.8597
530	0.5507
540	0.3342
550	0.6365
560	0.843
570	0.8569
580	0.8646
590	0.7711
600	0.7697
610	0.8595
620	0.8757
630	0.884
640	0.8902
650	0.8996
660	0.9134
670	0.9153
680	0.9099
690	0.9006
700	0.8656
710	0.7032
720	0.4817
730	0.6516
740	0.7725
750	0.7935
760	0.7092
770	0.8215
780	0.6522
790	0.6679
800	0.785
810	0.385
820	0.4951
830	0.3306
840	0.6582
850	0.6337
860	0.6581
870	0.4562
880	0.2757
890	0.0335
900	0.0293
910	0.1382
920	0.373
930	0.6968
940	0.7405
950	0.7935
960	0.7963
970	0.7229
980	0.7216
990	0.7616
1000	0.6435
1010	0.7509
1020	0.7689
1030	0.7155
1040	0.7141
1050	0.7227
1060	0.6777
1070	0.6752
1080	0.7311
1090	0.7109
1100	0.7262
1110	0.7481
1120	0.7123
1130	0.6892
1140	0.6366
1150	0.4591
1160	0.1478
1170	0.0538
1180	0.1236
1190	0.23
1200	0.4741
1210	0.5962
1220	0.7178
1230	0.7057
1240	0.7255
1250	0.6534
1260	0.6967
1270	0.7076
1280	0.6305
1290	0.4256
1300	0.3578
1310	0.407
1320	0.2973
1330	0.1249
1340	0.0615
1350	0.0737
1360	0.0514
1370	0.3442
1380	0.554
1390	0.6298
1400	0.6868
1410	0.6755
1420	0.6804
1430	0.6231
1440	0.5222
1450	0.5369
1460	0.4837
1470	0.2596
1480	0.6688
1490	0.7132
1500	0.7316
1510	0.7409
1520	0.7444
1530	0.7454
1540	0.7455
1550	0.7459
1560	0.7468
1570	0.748
1580	0.7489
1590	0.7426
1600	0.7294
1610	0.7176
1620	0.7093
1630	0.7094
1640	0.7112
1650	0.7155
1660	0.7229
1670	0.7291
1680	0.7315
1690	0.7305
1700	0.721
1710	0.7186
1720	0.7188
1730	0.7303
1740	0.7294
1750	0.7307
1760	0.7383
1770	0.739
1780	0.7476
1790	0.7452
1800	0.7407
1810	0.7341
1820	0.7297
1830	0.7283
1840	0.7362
1850	0.7337
1860	0.7395
1870	0.737
1880	0.7299
1890	0.7265
1900	0.7248
1910	0.7248
1920	0.724
1930	0.724
1940	0.7225
1950	0.7202
1960	0.7179
1970	0.7157
1980	0.7145
1990	0.7125
2000	0.7065
2010	0.7035
2020	0.7028
2030	0.7021
2040	0.7013
2050	0.7004
2060	0.6996
2070	0.6989
2080	0.6983
2090	0.6977
2100	0.6971
2110	0.6962
2120	0.6952
2130	0.6943
2140	0.6931
2150	0.6916
2160	0.69
2170	0.6885
2180	0.6871
2190	0.6857
2200	0.6843
2210	0.683
2220	0.6817
2230	0.6805
2240	0.6794
2250	0.6784
2260	0.6776
2270	0.6767
2280	0.6721
2290	0.6657
2300	0.6555
2310	0.6452
2320	0.6259
2330	0.6196
2340	0.6191
2350	0.6206
2360	0.6277
2370	0.6409
2380	0.6599
2390	0.6649
2400	0.6638
2410	0.662
2420	0.6611
2430	0.6604
2440	0.6593
2450	0.6572
2460	0.655
2470	0.6527
2480	0.6505
2490	0.649
2500	0.6476
2510	0.6467
2520	0.6461
2530	0.6458
2540	0.6452
2550	0.6433
2560	0.6411
2570	0.6383
2580	0.6351
2590	0.6316
2600	0.6283
2610	0.625
2620	0.6218
2630	0.6195
2640	0.6175
2650	0.6174
2660	0.6181
2670	0.6193
2680	0.6207
2690	0.619
2700	0.6128
2710	0.6061
2720	0.6002
2730	0.598
2740	0.5974
2750	0.596
2760	0.5878
2770	0.5782
2780	0.5693
2790	0.556
2800	0.5377
2810	0.5079
2820	0.456
2830	0.3387
2840	0.1911
2850	0.0436
2860	0.0746
2870	0.1697
2880	0.1909
2890	0.1353
2900	0.0798
2910	0.0267
2920	0.009
2930	0.0102
2940	0.0183
2950	0.0477
2960	0.155
2970	0.311
2980	0.3992
2990	0.445
3000	0.4769
3010	0.4969
3020	0.5107
3030	0.5218
3040	0.5309
3050	0.5372
3060	0.5428
3070	0.5477
3080	0.5519
3090	0.5559
3100	0.5577
3110	0.5648
3120	0.5614
3130	0.5625
3140	0.5625
3150	0.5614
3160	0.5604
3170	0.5595
3180	0.5589
3190	0.5632
3200	0.5611
3210	0.5565
3220	0.5524
3230	0.5483
3240	0.5457
3250	0.544
3260	0.5422
3270	0.5407
3280	0.5382
3290	0.5345
3300	0.5304
3310	0.5261
3320	0.5214
3330	0.516
3340	0.5106
3350	0.5034
3360	0.4951
3370	0.4865
3380	0.476
3390	0.4665
3400	0.4595
3410	0.4545
3420	0.4522
3430	0.4504
3440	0.4508
3450	0.4511
3460	0.453
3470	0.4549
3480	0.4571
3490	0.4598
3500	0.4625
3510	0.4661
3520	0.4705
3530	0.4749
3540	0.4796
3550	0.485
3560	0.4904
3570	0.4953
3580	0.4999
3590	0.5045
3600	0.5091
3610	0.5141
3620	0.5191
3630	0.5238
3640	0.5284
3650	0.5323
3660	0.5352
3670	0.5359
3680	0.536
3690	0.5355
3700	0.5345
3710	0.5334
3720	0.5319
3730	0.5304
3740	0.5285
3750	0.5274
3760	0.5316
3770	0.5353
3780	0.5329
3790	0.5308
3800	0.5288
3810	0.5268
3820	0.5249
3830	0.5232
3840	0.5217
3850	0.5201
3860	0.5186
3870	0.5177
3880	0.517
3890	0.5162
3900	0.516
3910	0.5161
3920	0.5162
3930	0.5159
3940	0.5152
3950	0.5145
3960	0.514
3970	0.5134
3980	0.5129
3990	0.5127
