Infrared Spectrum: Ethylpropionyl acetate
Formula: C 7 H 12 O 3
CAS: 15224-07-4
State: gas
Origin: EPA-IR VAPOR PHASE LIBRARY
1/CM	ABSORBANCE
501.5	0.0004104
513.074	0.0007665
524.648	0.00109
536.222	0.0009188
547.796	0.0009624
559.37	0.0008524
570.944	0.0008198
582.518	0.0008472
594.092	0.0009489
605.666	0.0008287
617.24	0.0008507
628.814	0.0009309
640.388	0.0009767
651.962	0.00105
663.536	0.0008775
675.11	0.000541
686.684	0.0005519
698.258	0.0004699
709.832	0.0005051
721.406	0.0006392
732.98	0.0006242
744.554	0.00068
756.128	0.0006713
767.702	0.0007257
779.276	0.0008479
790.85	0.00106
802.423	0.00129
813.997	0.00142
825.571	0.00135
837.145	0.0014
848.719	0.00154
860.293	0.0015
871.867	0.0013
883.441	0.00116
895.015	0.00137
906.589	0.00208
918.163	0.00282
929.737	0.0028
941.311	0.00242
952.885	0.00218
964.459	0.00233
976.033	0.0026
987.607	0.00311
999.181	0.00364
1010.76	0.00546
1022.33	0.00965
1033.9	0.01269
1045.48	0.01273
1057.05	0.01256
1068.63	0.0112
1080.2	0.00937
1091.77	0.00996
1103.35	0.01125
1114.92	0.01132
1126.49	0.01312
1138.07	0.0177
1149.64	0.02379
1161.22	0.02539
1172.79	0.02219
1184.36	0.01739
1195.94	0.01399
1207.51	0.01412
1219.09	0.01835
1230.66	0.02214
1242.23	0.02061
1253.81	0.018
1265.38	0.0158
1276.96	0.01531
1288.53	0.01615
1300.1	0.01804
1311.68	0.01852
1323.25	0.01501
1334.83	0.01075
1346.4	0.00953
1357.97	0.01043
1369.55	0.01185
1381.12	0.00997
1392.7	0.00712
1404.27	0.00671
1415.84	0.0072
1427.42	0.00649
1438.99	0.00522
1450.57	0.00485
1462.14	0.00518
1473.71	0.00475
1485.29	0.00311
1496.86	0.00197
1508.44	0.00134
1520.01	0.00109
1531.58	0.0009645
1543.16	0.0008731
1554.73	0.0008809
1566.31	0.000935
1577.88	0.00101
1589.45	0.00122
1601.03	0.00163
1612.6	0.00258
1624.18	0.0045
1635.75	0.00543
1647.32	0.00451
1658.9	0.00497
1670.47	0.00651
1682.05	0.00892
1693.62	0.01225
1705.19	0.01536
1716.77	0.02113
1728.34	0.03099
1739.92	0.03422
1751.49	0.03223
1763.06	0.02898
1774.64	0.01877
1786.21	0.00812
1797.79	0.00378
1809.36	0.00223
1820.93	0.00152
1832.51	0.00112
1844.08	0.0008726
1855.66	0.0007573
1867.23	0.000656
1878.8	0.0006371
1890.38	0.0005822
1901.95	0.0005366
1913.53	0.0004857
1925.1	0.0004408
1936.67	0.0004288
1948.25	0.0004055
1959.82	0.0004034
1971.4	0.0003763
1982.97	0.0003887
1994.54	0.0003868
2006.12	0.0004072
2017.69	0.0004193
2029.27	0.0004347
2040.84	0.0004653
2052.41	0.0005408
2063.99	0.0006729
2075.56	0.0009599
2087.14	0.00144
2098.71	0.00264
2110.28	0.00642
2121.86	0.01513
2133.43	0.02517
2145.01	0.02471
2156.58	0.01178
2168.15	0.00222
2179.73	0.00105
2191.3	0.0007259
2202.88	0.0006147
2214.45	0.0005462
2226.02	0.0005144
2237.6	0.000482
2249.17	0.0004046
2260.74	0.0003806
2272.32	0.0003811
2283.89	0.0004951
2295.47	0.0007562
2307.04	0.00119
2318.61	0.00159
2330.19	0.00171
2341.76	0.0015
2353.34	0.00163
2364.91	0.00219
2376.48	0.00146
2388.06	0.0005416
2399.63	0.0003515
2411.21	0.0003032
2422.78	0.0003021
2434.35	0.0002752
2445.93	0.0002726
2457.5	0.0002538
2469.08	0.0002621
2480.65	0.0002325
2492.22	0.0002194
2503.8	0.0002081
2515.37	0.0001947
2526.95	0.0001985
2538.52	0.0001993
2550.09	0.0001682
2561.67	0.0001575
2573.24	0.0001548
2584.82	0.0001956
2596.39	0.0001705
2607.96	0.0002159
2619.54	0.0002035
2631.11	0.0002189
2642.69	0.0001871
2654.26	0.0002108
2665.83	0.0002247
2677.41	0.0002852
2688.98	0.0003019
2700.56	0.0003177
2712.13	0.0003004
2723.7	0.0003554
2735.28	0.0004108
2746.85	0.0004906
2758.43	0.0005562
2770	0.0005725
2781.57	0.0006644
2793.15	0.000754
2804.72	0.0009073
2816.3	0.00104
2827.87	0.00128
2839.44	0.00157
2851.02	0.00192
2862.59	0.00249
2874.17	0.0035
2885.74	0.00504
2897.31	0.00615
2908.89	0.00687
2920.46	0.00718
2932.04	0.00807
2943.61	0.01038
2955.18	0.01084
2966.76	0.01058
2978.33	0.01401
2989.91	0.01561
3001.48	0.01083
3013.05	0.00654
3024.63	0.00387
3036.2	0.00244
3047.78	0.0017
3059.35	0.00132
3070.92	0.00119
3082.5	0.00115
3094.07	0.00108
3105.65	0.0009044
3117.22	0.0007791
3128.79	0.0006787
3140.37	0.0005692
3151.94	0.0005393
3163.52	0.0005238
3175.09	0.000526
3186.66	0.0005183
3198.24	0.0005588
3209.81	0.0004527
3221.39	0.0003921
3232.96	0.0002737
3244.53	0.0003019
3256.11	0.0003451
3267.68	0.0003155
3279.26	0.0002737
3290.83	0.0002332
3302.4	0.0002324
3313.98	0.0002069
3325.55	0.000207
3337.13	0.0002788
3348.7	0.0001744
3360.27	0.000222
3371.85	0.0002992
3383.42	0.0003022
3395	0.0003288
3406.57	0.0003644
3418.14	0.0003583
3429.72	0.0004516
3441.29	0.000673
3452.86	0.0006955
3464.44	0.0006316
3476.01	0.0006035
3487.59	0.0005882
3499.16	0.0005177
3510.73	0.0004065
3522.31	0.000308
3533.88	0.0002748
3545.46	0.0001434
3557.03	0.00017
3568.6	4.592e-05
3580.18	0.0001578
3591.75	0.0001275
3603.33	0.0001541
3614.9	0.0001945
3626.47	0.0001915
3638.05	0.0003491
3649.62	0.000367
3661.2	0.0003709
3672.77	0.0003882
3684.34	0.0003788
3695.92	0.0003683
3707.49	0.0002629
3719.07	0.0001755
3730.64	0.0001476
3742.21	0.0001077
3753.79	9.443e-05
3765.36	7.278e-05
3776.94	0.0001268
3788.51	0.0001125
3800.08	0.0001493
3811.66	7.791e-05
3823.23	0.0001527
3834.81	3.918e-05
3846.38	0.0001394
3857.95	0.0001052
3869.53	0.0001342
3881.1	0.0001202
3892.68	0.0001473
3904.25	0.0001389
3915.82	0.0001146
3927.4	0.0002311
3938.97	0.0001575
3950.55	0.0001144
3962.12	0.0001696
3973.69	0.0001522
3985.27	0.0001921
3996.84	0.0001868
