Infrared Spectrum: 3-PHENYL CYCLOHEXENE
Formula: C12 H14
CAS: 15232-96-9
State: SOLUTION (10% CCl4 FOR 5000-1330, 10% CS2 FOR 1330-625 CM^-^1)
Class: COBLENTZ
Instrument: Not specified, most likely a prism, grating, or hybrid spectrometer.
Sampling: TRANSMISSION
Path length: 0.0121 CM, 0.0121 CM
Resolution: 4
Origin: DOW CHEMICAL COMPANY
MICROMETERS	TRANSMITTANCE
2.007	0.902
2.04812	0.902
2.08923	0.893
2.13035	0.9
2.17147	0.903
2.21258	0.895
2.2537	0.888
2.29481	0.888
2.33593	0.895
2.37705	0.893
2.41816	0.886
2.45928	0.897
2.5004	0.9
2.54151	0.905
2.58263	0.909
2.62375	0.907
2.66486	0.903
2.70598	0.895
2.7471	0.867
2.78821	0.869
2.82933	0.864
2.87044	0.861
2.91156	0.854
2.95268	0.847
2.99379	0.854
3.03491	0.843
3.07603	0.84
3.11714	0.828
3.15826	0.809
3.19938	0.716
3.24049	0.569
3.28161	0.473
3.32272	0.624
3.36384	0.401
3.40496	0.137
3.44607	0.351
3.48719	0.48
3.52831	0.794
3.56942	0.83
3.61054	0.847
3.65166	0.85
3.69277	0.849
3.73389	0.847
3.77501	0.869
3.81612	0.871
3.85724	0.878
3.89835	0.881
3.93947	0.881
3.98059	0.881
4.0217	0.885
4.06282	0.888
4.10394	0.886
4.14505	0.881
4.18617	0.886
4.22729	0.879
4.2684	0.878
4.30952	0.874
4.35063	0.879
4.39175	0.888
4.43287	0.897
4.47398	0.898
4.5151	0.902
4.55622	0.905
4.59733	0.909
4.63845	0.909
4.67957	0.91
4.72068	0.909
4.7618	0.912
4.80291	0.912
4.84403	0.909
4.88515	0.91
4.92626	0.909
4.96738	0.902
5.0085	0.909
5.04961	0.895
5.09073	0.869
5.13185	0.876
5.17296	0.907
5.21408	0.905
5.2552	0.885
5.29631	0.871
5.33743	0.879
5.37854	0.893
5.41966	0.903
5.46078	0.888
5.50189	0.867
5.54301	0.891
5.58413	0.9
5.62524	0.89
5.66636	0.876
5.70748	0.862
5.74859	0.842
5.78971	0.847
5.83082	0.866
5.87194	0.845
5.91306	0.819
5.95417	0.802
5.99529	0.813
6.03641	0.777
6.07752	0.816
6.11864	0.83
6.15976	0.782
6.20087	0.631
6.24199	0.586
6.28311	0.59
6.32422	0.584
6.36534	0.554
6.40645	0.49
6.44757	0.469
6.48869	0.567
6.5298	0.615
6.57092	0.651
6.61204	0.636
6.65315	0.523
6.69427	0.523
6.73539	0.778
6.7765	0.765
6.81762	0.626
6.85873	0.411
6.89985	0.56
6.94097	0.656
6.98208	0.802
7.0232	0.842
7.06432	0.855
7.10543	0.861
7.14655	0.84
7.18767	0.831
7.22878	0.838
7.2699	0.83
7.31102	0.831
7.35213	0.814
7.39325	0.79
7.43436	0.785
7.47548	0.802
7.5166	0.806
7.55771	0.826
7.59883	0.833
7.63995	0.795
7.68106	0.771
7.72218	0.825
7.7633	0.849
7.80441	0.849
7.84553	0.84
7.88664	0.825
7.92776	0.819
7.96888	0.828
8.00999	0.823
8.05111	0.855
8.09223	0.876
8.13334	0.878
8.17446	0.873
8.21558	0.874
8.25669	0.876
8.29781	0.861
8.33892	0.84
8.38004	0.823
8.42116	0.821
8.46227	0.826
8.50339	0.842
8.54451	0.861
8.58562	0.862
8.62674	0.845
8.66786	0.85
8.70897	0.847
8.75009	0.816
8.79121	0.765
8.83232	0.83
8.87344	0.893
8.91455	0.909
8.95567	0.91
8.99679	0.903
9.0379	0.897
9.07902	0.907
9.12014	0.903
9.16125	0.883
9.20237	0.857
9.24349	0.797
9.2846	0.713
9.32572	0.701
9.36683	0.787
9.40795	0.807
9.44907	0.806
9.49018	0.821
9.5313	0.823
9.57242	0.77
9.61353	0.739
9.65465	0.735
9.69577	0.691
9.73688	0.758
9.778	0.852
9.81912	0.878
9.86023	0.874
9.90135	0.849
9.94246	0.821
9.98358	0.828
10.0247	0.831
10.0658	0.831
10.1069	0.813
10.148	0.777
10.1892	0.778
10.2303	0.811
10.2714	0.825
10.3125	0.811
10.3536	0.804
10.3947	0.83
10.4359	0.85
10.477	0.878
10.5181	0.888
10.5592	0.89
10.6003	0.885
10.6414	0.881
10.6826	0.869
10.7237	0.869
10.7648	0.869
10.8059	0.849
10.847	0.83
10.8881	0.806
10.9293	0.778
10.9704	0.744
11.0115	0.747
11.0526	0.77
11.0937	0.782
11.1348	0.771
11.176	0.732
11.2171	0.711
11.2582	0.72
11.2993	0.706
11.3404	0.602
11.3815	0.62
11.4227	0.727
11.4638	0.753
11.5049	0.753
11.546	0.742
11.5871	0.73
11.6282	0.722
11.6694	0.715
11.7105	0.713
11.7516	0.713
11.7927	0.701
11.8338	0.716
11.8749	0.783
11.9161	0.813
11.9572	0.831
11.9983	0.837
12.0394	0.842
12.0805	0.855
12.1216	0.869
12.1627	0.878
12.2039	0.879
12.245	0.878
12.2861	0.874
12.3272	0.869
12.3683	0.861
12.4094	0.85
12.4506	0.833
12.4917	0.826
12.5328	0.818
12.5739	0.797
12.615	0.765
12.6561	0.744
12.6973	0.739
12.7384	0.761
12.7795	0.778
12.8206	0.789
12.8617	0.79
12.9028	0.782
12.944	0.773
12.9851	0.753
13.0262	0.708
13.0673	0.624
13.1084	0.512
13.1495	0.375
13.1907	0.216
13.2318	0.126
13.2729	0.118
13.314	0.205
13.3551	0.32
13.3962	0.391
13.4374	0.421
13.4785	0.444
13.5196	0.507
13.5607	0.574
13.6018	0.61
13.6429	0.624
13.6841	0.615
13.7252	0.567
13.7663	0.497
13.8074	0.437
13.8485	0.411
13.8896	0.478
13.9308	0.545
13.9719	0.578
14.013	0.571
14.0541	0.536
14.0952	0.475
14.1363	0.379
14.1775	0.233
14.2186	0.138
14.2597	0.063
14.3008	0.036
14.3419	0.066
14.383	0.157
14.4242	0.303
14.4653	0.396
14.5064	0.478
14.5475	0.526
14.5886	0.545
14.6297	0.547
14.6708	0.531
14.712	0.493
14.7531	0.444
14.7942	0.396
14.8353	0.368
14.8764	0.375
14.9175	0.413
14.9587	0.459
14.9998	0.48
15.0409	0.478
15.082	0.461
15.1231	0.439
15.1642	0.404
15.2054	0.379
15.2465	0.36
15.2876	0.358
15.3287	0.372
15.3698	0.391
15.4109	0.413
15.4521	0.425
15.4932	0.432
15.5343	0.432
15.5754	0.432
15.6165	0.428
15.6576	0.423
15.6988	0.42
15.7399	0.413
15.781	0.404
15.8221	0.399
15.8632	0.396
15.9043	0.399
