Infrared Spectrum: Benzoic acid, o-nitropheyl ester
Formula: C13 H9 N O4
CAS: 1523-12-2
State: SOLUTION (5% CCl4 FOR 3800-1330, 5% CS2 FOR 1330-460 CM^-^1)
Melting point: 45 C
Class: COBLENTZ III
Instrument: DOW KBr FOREPRISM-GRATING
Instrument parameters: BLAZED AT 3.5, 12.0, 20.0 MICRON AND CHANGED AT 5.0, 7.5, 14.9 MICRON
Sampling: TRANSMISSION
Path length: 0.011 CM, 0.011 CM
Resolution: 2
Origin: DOW CHEMICAL COMPANY
1/CM	TRANSMITTANCE
459	0.7772
468	0.7815
477	0.7955
486	0.7998
495	0.7982
504	0.7876
513	0.7291
522	0.8002
531	0.806
540	0.8019
549	0.811
558	0.8216
567	0.8115
576	0.8317
585	0.8064
594	0.8344
603	0.8442
612	0.8209
621	0.8235
630	0.8102
639	0.801
648	0.7398
657	0.6725
666	0.7632
675	0.7099
684	0.6525
693	0.4003
702	0.0454
711	0.6916
720	0.7839
729	0.7317
738	0.1712
747	0.7517
756	0.8094
765	0.8078
774	0.5875
783	0.7323
792	0.6993
801	0.8138
810	0.7966
819	0.6495
828	0.7432
837	0.5961
846	0.6934
855	0.6544
864	0.4517
873	0.7264
882	0.6766
891	0.786
900	0.8264
909	0.8485
918	0.8503
927	0.8399
936	0.8189
945	0.7832
954	0.8302
963	0.8259
972	0.8037
981	0.783
990	0.7637
999	0.7369
1008	0.6811
1017	0.2103
1026	0.6081
1035	0.5241
1044	0.2212
1053	0.1596
1062	0.5934
1071	0.4662
1080	0.4849
1089	0.4081
1098	0.6051
1107	0.7405
1116	0.7902
1125	0.7929
1134	0.7751
1143	0.7052
1152	0.6676
1161	0.4813
1170	0.5875
1179	0.3693
1188	0.7173
1197	0.6055
1206	0.2108
1215	0.0209
1224	0.3071
1233	0.5473
1242	0.2924
1251	0.0728
1260	0.2556
1269	0.3837
1278	0.6045
1287	0.6629
1296	0.7107
1305	0.6817
1314	0.6038
1323	0.698
1332	0.6856
1341	0.4772
1350	0.1067
1359	0.2995
1368	0.6905
1377	0.7793
1386	0.8216
1395	0.8157
1404	0.8232
1413	0.8178
1422	0.8399
1431	0.8396
1440	0.8294
1449	0.7031
1458	0.7739
1467	0.7977
1476	0.6126
1485	0.6177
1494	0.6415
1503	0.6437
1512	0.572
1521	0.429
1530	0.0535
1539	0.0394
1548	0.2746
1557	0.4163
1566	0.5128
1575	0.5344
1584	0.4609
1593	0.3398
1602	0.2136
1611	0.5355
1620	0.7652
1629	0.8203
1638	0.8269
1647	0.8482
1656	0.8468
1665	0.844
1674	0.8365
1683	0.8119
1692	0.7314
1701	0.7588
1710	0.7803
1719	0.7786
1728	0.7316
1737	0.6276
1746	0.1239
1755	0.037
1764	0.3877
1773	0.729
1782	0.7612
1791	0.7773
1800	0.8171
1809	0.8358
1818	0.8363
1827	0.8516
1836	0.8566
1845	0.8684
1854	0.8667
1863	0.8677
1872	0.8725
1881	0.8719
1890	0.8715
1899	0.8624
1908	0.8586
1917	0.8668
1926	0.8584
1935	0.8663
1944	0.8774
1953	0.8667
1962	0.8512
1971	0.8721
1980	0.872
1989	0.8796
1998	0.8654
2007	0.8693
2016	0.872
2025	0.8698
2034	0.8662
2043	0.8654
2052	0.8682
2061	0.8713
2070	0.8727
2079	0.8731
2088	0.8732
2097	0.8732
2106	0.8735
2115	0.8792
2124	0.8838
2133	0.8847
2142	0.8847
2151	0.8847
2160	0.8854
2169	0.8865
2178	0.887
2187	0.8868
2196	0.8866
2205	0.8864
2214	0.8857
2223	0.8843
2232	0.8827
2241	0.8798
2250	0.877
2259	0.874
2268	0.8705
2277	0.8675
2286	0.8654
2295	0.8653
2304	0.8672
2313	0.8715
2322	0.8815
2331	0.8908
2340	0.8905
2349	0.8888
2358	0.8868
2367	0.8856
2376	0.8836
2385	0.8792
2394	0.8768
2403	0.8746
2412	0.8709
2421	0.8683
2430	0.8696
2439	0.8758
2448	0.8797
2457	0.8795
2466	0.8785
2475	0.8767
2484	0.8745
2493	0.8734
2502	0.8729
2511	0.8722
2520	0.8714
2529	0.8705
2538	0.8694
2547	0.8677
2556	0.8662
2565	0.8653
2574	0.8645
2583	0.8638
2592	0.8632
2601	0.8626
2610	0.8621
2619	0.8611
2628	0.8606
2637	0.8608
2646	0.8609
2655	0.8603
2664	0.8595
2673	0.858
2682	0.858
2691	0.8593
2700	0.8621
2709	0.863
2718	0.8616
2727	0.8591
2736	0.8559
2745	0.8517
2754	0.8521
2763	0.8531
2772	0.8542
2781	0.8539
2790	0.8513
2799	0.8467
2808	0.8415
2817	0.8363
2826	0.8312
2835	0.8261
2844	0.82
2853	0.8132
2862	0.8059
2871	0.8066
2880	0.8182
2889	0.8352
2898	0.8389
2907	0.8385
2916	0.8377
2925	0.8351
2934	0.832
2943	0.83
2952	0.8297
2961	0.8306
2970	0.8321
2979	0.833
2988	0.8311
2997	0.8227
3006	0.8134
3015	0.8082
3024	0.8004
3033	0.7883
3042	0.7854
3051	0.7802
3060	0.7435
3069	0.7379
3078	0.739
3087	0.7851
3096	0.7977
3105	0.8057
3114	0.8126
3123	0.8184
3132	0.8226
3141	0.8266
3150	0.8305
3159	0.8345
3168	0.8385
3177	0.8417
3186	0.8461
3195	0.85
3204	0.8526
3213	0.8537
3222	0.8545
3231	0.8558
3240	0.8572
3249	0.8586
3258	0.8598
3267	0.8609
3276	0.862
3285	0.8629
3294	0.8638
3303	0.8645
3312	0.8648
3321	0.865
3330	0.8651
3339	0.8652
3348	0.8652
3357	0.8664
3366	0.8678
3375	0.8693
3384	0.8723
3393	0.8715
3402	0.8704
3411	0.8722
3420	0.8746
3429	0.876
3438	0.8753
3447	0.8742
3456	0.8724
3465	0.8705
3474	0.8689
3483	0.868
3492	0.8689
3501	0.8739
3510	0.8778
3519	0.8779
3528	0.8759
3537	0.8789
3546	0.885
3555	0.883
3564	0.8773
3573	0.8675
3582	0.8858
3591	0.8863
3600	0.888
3609	0.8924
3618	0.8946
3627	0.8946
3636	0.8943
3645	0.8937
3654	0.8934
3663	0.893
3672	0.8928
3681	0.8927
3690	0.8927
3699	0.8927
3708	0.8932
3717	0.8934
3726	0.8929
3735	0.8922
3744	0.8917
3753	0.8912
3762	0.8911
3771	0.8917
3780	0.8921
3789	0.8926
3798	0.8933
