Infrared Spectrum: 3-Octyne
Formula: C 8 H 14
CAS: 15232-76-5
State: gas
Instrument: HP-GC/MS/IRD
Origin: NIST Mass Spectrometry Data Center
1/CM	ABSORBANCE
550	0.0004448
562	0.0005792
574	0.0006208
586	0.0004832
598	0.0004576
610	0.0004096
622	0.0004
634	0.0003008
646	0.0003072
658	0.0002592
670	0.0002528
682	0.0002272
694	0.0002752
706	0.0002912
718	0.0003648
730	0.000416
742	0.0005568
754	0.0007776
766	0.0006496
778	0.0005952
790	0.0004928
802	0.0004096
814	0.0002784
826	0.000224
838	0.0001952
850	0.0001984
862	0.0001536
874	0.00016
886	9.6e-05
898	0.0001056
910	0.0001024
922	0.000128
934	0.0001504
946	0.0001376
958	9.92e-05
970	0.0001408
982	7.04e-05
994	3.52e-05
1006	0
1018	2.88e-05
1030	0.0001152
1042	0.0002336
1054	0.000496
1066	0.0006784
1078	0.000544
1090	0.000544
1102	0.000528
1114	0.0004256
1126	0.0004512
1138	0.00048
1150	0.0005696
1162	0.0005728
1174	0.000736
1186	0.0007904
1198	0.0008544
1210	0.0008992
1222	0.000896
1234	0.000928
1246	0.0010272
1258	0.0010688
1270	0.000912
1282	0.0010784
1294	0.0016768
1306	0.0030624
1318	0.006288
1330	0.0063776
1342	0.0031296
1354	0.002048
1366	0.0017728
1378	0.0017472
1390	0.0017248
1402	0.001392
1414	0.001328
1426	0.0019872
1438	0.003168
1450	0.0037952
1462	0.0037952
1474	0.0029088
1486	0.0016544
1498	0.0009504
1510	0.0006272
1522	0.0004704
1534	0.000368
1546	0.000336
1558	0.000288
1570	0.0002688
1582	0.0002496
1594	0.00024
1606	0.0002368
1618	0.0002464
1630	0.0002336
1642	0.000224
1654	0.0002208
1666	0.0002304
1678	0.0002368
1690	0.0002368
1702	0.0002272
1714	0.0002016
1726	0.0002016
1738	0.000192
1750	0.0001632
1762	0.0001504
1774	0.0001536
1786	0.0001152
1798	0.0001216
1810	0.0001216
1822	0.000128
1834	0.0001248
1846	0.0001344
1858	0.0001568
1870	0.0001408
1882	0.000112
1894	0.0001056
1906	6.72e-05
1918	5.76e-05
1930	3.52e-05
1942	1.92e-05
1954	1.28e-05
1966	2.24e-05
1978	1.92e-05
1990	3.84e-05
2002	2.24e-05
2014	3.52e-05
2026	7.36e-05
2038	8e-05
2050	7.68e-05
2062	4.16e-05
2074	1.28e-05
2086	6.4e-06
2098	0
2110	9.6e-06
2122	2.88e-05
2134	3.2e-05
2146	4.8e-05
2158	1.92e-05
2170	3.52e-05
2182	3.52e-05
2194	2.88e-05
2206	1.92e-05
2218	2.88e-05
2230	4.8e-05
2242	1.6e-05
2254	2.88e-05
2266	1.92e-05
2278	3.2e-05
2290	9.6e-06
2302	3.2e-05
2314	4.48e-05
2326	6.4e-05
2338	5.76e-05
2350	1.28e-05
2362	2.56e-05
2374	2.88e-05
2386	3.2e-05
2398	3.84e-05
2410	4.16e-05
2422	7.36e-05
2434	6.72e-05
2446	4.8e-05
2458	4.48e-05
2470	0
2482	2.56e-05
2494	2.56e-05
2506	4.16e-05
2518	4.16e-05
2530	1.6e-05
2542	5.44e-05
2554	6.72e-05
2566	6.4e-05
2578	9.92e-05
2590	0.0001088
2602	8.32e-05
2614	0.000128
2626	0.0001984
2638	0.0002272
2650	0.0002272
2662	0.0002272
2674	0.000224
2686	0.0001888
2698	0.0002208
2710	0.0001952
2722	0.0002752
2734	0.0003648
2746	0.0004992
2758	0.000544
2770	0.0005568
2782	0.0006048
2794	0.0007456
2806	0.0009728
2818	0.0013888
2830	0.0021792
2842	0.003792
2854	0.0068416
2866	0.0104384
2878	0.0123424
2890	0.0128256
2902	0.0128256
2914	0.0169312
2926	0.024528
2938	0.0315872
2950	0.0291328
2962	0.0247232
2974	0.02432
2986	0.0169408
2998	0.008048
3010	0.004752
3022	0.0030496
3034	0.00208
3046	0.0015264
3058	0.0011488
3070	0.000912
3082	0.0008128
3094	0.0007104
3106	0.0006272
3118	0.00056
3130	0.0005472
3142	0.0004416
3154	0.0004256
3166	0.0003648
3178	0.0003456
3190	0.0003136
3202	0.0002272
3214	0.0001504
3226	0.0001824
3238	0.000128
3250	9.28e-05
3262	5.12e-05
3274	7.04e-05
3286	6.4e-05
3298	3.2e-06
3310	7.04e-05
3322	8.32e-05
3334	0.0001024
3346	0.0001408
3358	0.000112
3370	0.0001312
3382	0.0001088
3394	0.000112
3406	0.000128
3418	0.0001056
3430	0.000144
3442	0.0001152
3454	0.0001824
3466	0.0001568
3478	0.0001632
3490	0.0001536
3502	0.0001632
3514	0.0001536
3526	9.92e-05
3538	0.000144
3550	0.00016
3562	0.0001472
3574	0.0001856
3586	0.0001216
3598	0.0002016
3610	0.0001696
3622	0.0001248
3634	0.0001504
3646	0.000176
3658	0.0001984
3670	0.0001696
3682	8.96e-05
3694	0.0001824
3706	0.000128
3718	0.00016
3730	0.0001472
3742	0.0001312
3754	0.0001472
3766	0.0001184
3778	9.92e-05
3790	0.0001504
3802	0.0001824
3814	0.0001696
3826	9.28e-05
3838	0.0001248
