Infrared Spectrum: 2,6-DIMETHOXY HYDROQUINONE
Formula: C8 H10 O4
CAS: 15233-65-5
State: SOLID (MINERAL OIL MULL)
Class: COBLENTZ
Instrument: Not specified, most likely a prism, grating, or hybrid spectrometer.
Sampling: TRANSMISSION
Resolution: 4
Origin: DOW CHEMICAL COMPANY
MICROMETERS	TRANSMITTANCE
2.014	0.442
2.05474	0.447
2.09547	0.457
2.13621	0.462
2.17694	0.474
2.21768	0.481
2.25841	0.473
2.29915	0.466
2.33988	0.474
2.38062	0.488
2.42135	0.496
2.46209	0.511
2.50282	0.528
2.54356	0.54
2.5843	0.545
2.62503	0.56
2.66577	0.569
2.7065	0.579
2.74724	0.592
2.78797	0.597
2.82871	0.577
2.86944	0.471
2.91018	0.457
2.95091	0.346
2.99165	0.26
3.03238	0.215
3.07312	0.23
3.11386	0.299
3.15459	0.37
3.19533	0.414
3.23606	0.437
3.2768	0.452
3.31753	0.398
3.35827	0.195
3.399	0.02
3.43974	0.028
3.48047	0.038
3.52121	0.159
3.56194	0.449
3.60268	0.558
3.64342	0.577
3.68415	0.569
3.72489	0.579
3.76562	0.587
3.80636	0.601
3.84709	0.611
3.88783	0.617
3.92856	0.627
3.9693	0.658
4.01003	0.675
4.05077	0.686
4.0915	0.688
4.13224	0.698
4.17298	0.702
4.21371	0.702
4.25445	0.7
4.29518	0.718
4.33592	0.732
4.37665	0.737
4.41739	0.739
4.45812	0.747
4.49886	0.75
4.53959	0.749
4.58033	0.757
4.62106	0.759
4.6618	0.754
4.70254	0.759
4.74327	0.762
4.78401	0.765
4.82474	0.767
4.86548	0.769
4.90621	0.781
4.94695	0.781
4.98768	0.791
5.02842	0.796
5.06915	0.797
5.10989	0.784
5.15062	0.799
5.19136	0.806
5.2321	0.811
5.27283	0.814
5.31357	0.819
5.3543	0.821
5.39504	0.828
5.43577	0.826
5.47651	0.826
5.51724	0.824
5.55798	0.826
5.59871	0.831
5.63945	0.833
5.68019	0.829
5.72092	0.821
5.76166	0.821
5.80239	0.819
5.84313	0.816
5.88386	0.811
5.9246	0.814
5.96533	0.797
6.00607	0.767
6.0468	0.631
6.08754	0.409
6.12827	0.471
6.16901	0.434
6.20975	0.329
6.25048	0.538
6.29122	0.661
6.33195	0.728
6.37269	0.754
6.41342	0.765
6.45416	0.749
6.49489	0.629
6.53563	0.464
6.57636	0.395
6.6171	0.351
6.65783	0.34
6.69857	0.227
6.73931	0.202
6.78004	0.154
6.82078	0.063
6.86151	0.087
6.90225	0.097
6.94298	0.23
6.98372	0.39
7.02445	0.429
7.06519	0.42
7.10592	0.51
7.14666	0.567
7.18739	0.489
7.22813	0.264
7.26887	0.24
7.3096	0.304
7.35034	0.41
7.39107	0.427
7.43181	0.488
7.47254	0.619
7.51328	0.643
7.55401	0.648
7.59475	0.627
7.63548	0.548
7.67622	0.368
7.71695	0.471
7.75769	0.602
7.79843	0.638
7.83916	0.634
7.8799	0.621
7.92063	0.58
7.96137	0.51
8.0021	0.407
8.04284	0.328
8.08357	0.269
8.12431	0.149
8.16504	0.072
8.20578	0.095
8.24651	0.264
8.28725	0.338
8.32799	0.308
8.36872	0.247
8.40946	0.442
8.45019	0.508
8.49093	0.58
8.53166	0.617
8.5724	0.621
8.61313	0.542
8.65387	0.462
8.6946	0.447
8.73534	0.548
8.77607	0.563
8.81681	0.474
8.85755	0.311
8.89828	0.17
8.93902	0.082
8.97975	0.05
9.02049	0.089
9.06122	0.218
9.10196	0.36
9.14269	0.471
9.18343	0.52
9.22416	0.531
9.2649	0.516
9.30563	0.579
9.34637	0.611
9.38711	0.638
9.42784	0.659
9.46858	0.681
9.50931	0.7
9.55005	0.712
9.59078	0.708
9.63152	0.688
9.67225	0.658
9.71299	0.646
9.75372	0.702
9.79446	0.734
9.83519	0.75
9.87593	0.757
9.91667	0.755
9.9574	0.713
9.99814	0.567
10.0389	0.361
10.0796	0.25
10.1203	0.39
10.1611	0.56
10.2018	0.634
10.2425	0.671
10.2833	0.7
10.324	0.712
10.3648	0.728
10.4055	0.739
10.4462	0.749
10.487	0.755
10.5277	0.76
10.5684	0.762
10.6092	0.764
10.6499	0.762
10.6906	0.76
10.7314	0.76
10.7721	0.762
10.8128	0.754
10.8536	0.73
10.8943	0.688
10.9351	0.68
10.9758	0.72
11.0165	0.744
11.0573	0.749
11.098	0.752
11.1387	0.76
11.1795	0.762
11.2202	0.769
11.2609	0.772
11.3017	0.782
11.3424	0.786
11.3831	0.787
11.4239	0.787
11.4646	0.789
11.5053	0.782
11.5461	0.784
11.5868	0.779
11.6276	0.781
11.6683	0.772
11.709	0.769
11.7498	0.759
11.7905	0.749
11.8312	0.703
11.872	0.619
11.9127	0.5
11.9534	0.508
11.9942	0.616
12.0349	0.678
12.0756	0.671
12.1164	0.621
12.1571	0.538
12.1978	0.39
12.2386	0.292
12.2793	0.395
12.3201	0.5
12.3608	0.501
12.4015	0.437
12.4423	0.34
12.483	0.319
12.5237	0.446
12.5645	0.558
12.6052	0.614
12.6459	0.648
12.6867	0.664
12.7274	0.678
12.7681	0.69
12.8089	0.698
12.8496	0.702
12.8903	0.712
12.9311	0.72
12.9718	0.728
13.0126	0.732
13.0533	0.739
13.094	0.739
13.1348	0.734
13.1755	0.732
13.2162	0.723
13.257	0.717
13.2977	0.713
13.3384	0.7
13.3792	0.691
13.4199	0.675
13.4606	0.653
13.5014	0.634
13.5421	0.612
13.5829	0.599
13.6236	0.58
13.6643	0.57
13.7051	0.57
13.7458	0.574
13.7865	0.589
13.8273	0.602
13.868	0.622
13.9087	0.649
13.9495	0.67
13.9902	0.671
14.0309	0.659
14.0717	0.639
14.1124	0.599
14.1531	0.542
14.1939	0.51
14.2346	0.518
14.2754	0.553
14.3161	0.595
14.3568	0.619
14.3976	0.636
14.4383	0.648
14.479	0.659
14.5198	0.668
14.5605	0.673
14.6012	0.68
14.642	0.671
14.6827	0.67
14.7234	0.663
14.7642	0.648
14.8049	0.632
14.8456	0.611
14.8864	0.597
14.9271	0.579
14.9679	0.585
15.0086	0.595
15.0493	0.597
15.0901	0.592
15.1308	0.592
15.1715	0.589
15.2123	0.584
15.253	0.569
15.2937	0.567
15.3345	0.565
15.3752	0.562
15.4159	0.57
15.4567	0.577
15.4974	0.572
15.5381	0.57
15.5789	0.572
15.6196	0.57
15.6604	0.569
15.7011	0.569
15.7418	0.562
15.7826	0.557
15.8233	0.553
15.864	0.558
