Infrared Spectrum: 4-(N-METHYLBENZYLAMINO)-1-BUTYNE
Formula: C12 H15 N
CAS: 15240-91-2
Class: COBLENTZ
Instrument: PERKIN-ELMER
Sampling: TRANSMISSION
Path length: CAPILLARY
Resolution: 4
Origin: ABBOTT LABORATORIES - WASHBURN
MICROMETERS	TRANSMITTANCE
2.03	0.892
2.06307	0.895
2.09614	0.895
2.12921	0.898
2.16228	0.8952
2.19535	0.89
2.22842	0.893
2.26149	0.8932
2.29456	0.8872
2.32763	0.877
2.3607	0.8781
2.39377	0.8799
2.42684	0.8819
2.45991	0.8751
2.49298	0.872
2.52605	0.875
2.55912	0.8668
2.59219	0.8797
2.62526	0.883
2.65833	0.89
2.6914	0.892
2.72447	0.8852
2.75754	0.8752
2.79061	0.8633
2.82368	0.8619
2.85675	0.8551
2.88982	0.8301
2.92289	0.8032
2.95596	0.7791
2.98903	0.7193
3.0221	0.303
3.05517	0.5692
3.08824	0.6551
3.12131	0.6881
3.15438	0.7262
3.18745	0.747
3.22052	0.6772
3.25359	0.5884
3.28666	0.5323
3.31973	0.631
3.3528	0.5018
3.38587	0.3726
3.41894	0.398
3.45201	0.4648
3.48508	0.4556
3.51815	0.345
3.55122	0.3295
3.58429	0.2467
3.61736	0.4321
3.65043	0.646
3.6835	0.6836
3.71657	0.7432
3.74964	0.7919
3.78271	0.8078
3.81578	0.8278
3.84885	0.8418
3.88192	0.85
3.91499	0.862
3.94806	0.865
3.98113	0.868
4.0142	0.87
4.04727	0.873
4.08034	0.875
4.11341	0.877
4.14648	0.8752
4.17955	0.8797
4.21262	0.875
4.24569	0.878
4.27876	0.882
4.31183	0.8849
4.3449	0.887
4.37797	0.885
4.41104	0.887
4.44411	0.883
4.47718	0.8848
4.51025	0.883
4.54332	0.8821
4.57639	0.8798
4.60946	0.8782
4.64253	0.88
4.6756	0.8639
4.70867	0.7633
4.74174	0.8624
4.77481	0.877
4.80788	0.882
4.84095	0.883
4.87402	0.885
4.90709	0.885
4.94016	0.885
4.97323	0.88
5.0063	0.873
5.03937	0.8652
5.07244	0.8484
5.10551	0.8285
5.13858	0.8555
5.17165	0.8792
5.20472	0.8774
5.23779	0.8685
5.27086	0.8526
5.30393	0.8443
5.337	0.8565
5.37007	0.8722
5.40314	0.8767
5.43621	0.8663
5.46928	0.8499
5.50235	0.832
5.53542	0.8643
5.56849	0.8747
5.60156	0.8722
5.63463	0.868
5.6677	0.86
5.70077	0.8645
5.73384	0.8714
5.76691	0.875
5.79998	0.873
5.83305	0.869
5.86612	0.868
5.89919	0.8613
5.93226	0.8527
5.96533	0.8445
5.9984	0.8328
6.03147	0.838
6.06454	0.837
6.09761	0.8351
6.13068	0.8282
6.16375	0.8186
6.19682	0.7673
6.22989	0.7164
6.26296	0.779
6.29603	0.7732
6.3291	0.8136
6.36217	0.835
6.39524	0.8388
6.42831	0.8363
6.46138	0.8273
6.49445	0.833
6.52752	0.8286
6.56059	0.8299
6.59366	0.8229
6.62673	0.7954
6.6598	0.5911
6.69287	0.4162
6.72594	0.695
6.75901	0.6559
6.79208	0.5412
6.82515	0.3904
6.85822	0.3036
6.89129	0.2158
6.92436	0.4232
6.95743	0.5417
6.9905	0.5757
7.02357	0.602
7.05664	0.655
7.08971	0.7218
7.12278	0.734
7.15585	0.7287
7.18892	0.7
7.22199	0.6468
7.25506	0.5312
7.28813	0.4653
7.3212	0.4285
7.35427	0.466
7.38734	0.468
7.42041	0.5512
7.45348	0.615
7.48655	0.5964
7.51962	0.5767
7.55269	0.5983
7.58576	0.594
7.61883	0.6012
7.6519	0.612
7.68497	0.614
7.71804	0.617
7.75111	0.6142
7.78418	0.5985
7.81725	0.5894
7.85032	0.589
7.88339	0.5953
7.91646	0.581
7.94953	0.5533
7.9826	0.5424
8.01567	0.5804
8.04874	0.6147
8.08181	0.6313
8.11488	0.632
8.14795	0.6376
8.18102	0.661
8.21409	0.681
8.24716	0.6842
8.28023	0.6618
8.3133	0.6589
8.34637	0.6475
8.37944	0.6215
8.41251	0.6322
8.44558	0.6504
8.47865	0.6596
8.51172	0.6889
8.54479	0.7247
8.57786	0.7545
8.61093	0.747
8.644	0.7187
8.67707	0.6962
8.71014	0.68
8.74321	0.6344
8.77628	0.5873
8.80935	0.534
8.84242	0.5112
8.87549	0.5225
8.90856	0.5271
8.94163	0.6243
8.9747	0.7048
9.00777	0.7296
9.04084	0.7446
9.07391	0.7535
9.10698	0.7709
9.14005	0.7781
9.17312	0.784
9.20619	0.7636
9.23926	0.7124
9.27233	0.6248
9.3054	0.5611
9.33847	0.6512
9.37154	0.692
9.40461	0.6837
9.43768	0.6281
9.47075	0.5246
9.50382	0.4194
9.53689	0.349
9.56996	0.3391
9.60303	0.3911
9.6361	0.4483
9.66917	0.4755
9.70224	0.4419
9.73531	0.3695
9.76838	0.353
9.80145	0.3669
9.83452	0.4018
9.86759	0.4487
9.90066	0.5133
9.93373	0.5588
9.9668	0.5972
9.99987	0.6689
10.0329	0.7037
10.066	0.7164
10.0991	0.717
10.1322	0.7078
10.1652	0.6954
10.1983	0.6792
10.2314	0.6632
10.2644	0.659
10.2975	0.6698
10.3306	0.6956
10.3636	0.7327
10.3967	0.7572
10.4298	0.767
10.4629	0.7691
10.4959	0.774
10.529	0.7836
10.5621	0.7915
10.5951	0.7984
10.6282	0.7994
10.6613	0.7953
10.6943	0.7765
10.7274	0.7628
10.7605	0.7483
10.7936	0.7328
10.8266	0.729
10.8597	0.7345
10.8928	0.729
10.9258	0.7214
10.9589	0.6937
10.992	0.6769
11.025	0.679
11.0581	0.7017
11.0912	0.7381
11.1243	0.7711
11.1573	0.7977
11.1904	0.8077
11.2235	0.813
11.2565	0.813
11.2896	0.812
11.3227	0.813
11.3557	0.808
11.3888	0.7978
11.4219	0.7803
11.455	0.7431
11.488	0.7082
11.5211	0.6757
11.5542	0.6461
11.5872	0.6292
11.6203	0.6357
11.6534	0.6486
11.6864	0.6712
11.7195	0.688
11.7526	0.696
11.7857	0.7036
11.8187	0.7109
11.8518	0.7208
11.8849	0.73
11.9179	0.732
11.951	0.735
11.9841	0.7316
12.0171	0.7199
12.0502	0.712
12.0833	0.704
12.1164	0.705
12.1494	0.7116
12.1825	0.7188
12.2156	0.7287
12.2486	0.7348
12.2817	0.7384
12.3148	0.74
12.3478	0.74
12.3809	0.74
12.414	0.74
12.4471	0.739
12.4801	0.735
12.5132	0.7375
12.5463	0.7424
12.5793	0.7446
12.6124	0.7336
12.6455	0.7149
12.6785	0.709
12.7116	0.71
12.7447	0.7216
12.7778	0.724
12.8108	0.722
12.8439	0.7157
12.877	0.7129
12.91	0.712
12.9431	0.7179
12.9762	0.72
13.0092	0.719
13.0423	0.7163
13.0754	0.7066
13.1085	0.6956
13.1415	0.6739
13.1746	0.6511
13.2077	0.6165
13.2407	0.5653
13.2738	0.5119
13.3069	0.4321
13.3399	0.3571
13.373	0.2822
13.4061	0.2267
13.4392	0.1813
13.4722	0.1369
13.5053	0.1115
13.5384	0.098
13.5714	0.098
13.6045	0.1155
13.6376	0.1429
13.6706	0.1932
13.7037	0.2809
13.7368	0.3658
13.7699	0.4427
13.8029	0.5117
13.836	0.5335
13.8691	0.5677
13.9021	0.5869
13.9352	0.5987
13.9683	0.6066
14.0013	0.6015
14.0344	0.5961
14.0675	0.579
14.1006	0.5533
14.1336	0.5068
14.1667	0.4287
14.1998	0.3557
14.2328	0.2538
14.2659	0.1658
14.299	0.1222
14.332	0.096
14.3651	0.1194
14.3982	0.219
14.4313	0.3309
14.4643	0.4217
14.4974	0.4887
14.5305	0.526
14.5635	0.5482
14.5966	0.5621
14.6297	0.569
14.6627	0.573
14.6958	0.571
14.7289	0.566
14.762	0.5609
14.795	0.5486
14.8281	0.5339
14.8612	0.519
14.8942	0.5011
14.9273	0.495
14.9604	0.4885
