Infrared Spectrum: Imidazolidine-4-thione, 2,2,5,5-tetramethyl-1-nitroso-
Formula: C7 H13 N3 O S
CAS: 152450-70-9
State: SOLID (SPLIT MULL), FLUOROLUBE FOR 3800-1330 CM^-^1, NUJOL FOR 1330-400 CM^-^1
Class: COBLENTZ III
Instrument: BECKMAN IR-9 (GRATING)
Instrument parameters: ORDER CHANGES: 670, 1200, 2000 CM^-^1
Sampling: TRANSMISSION
Resolution: 2
Origin: DOW CHEMICAL COMPANY
1/CM	TRANSMITTANCE
3804	0.7201
3795	0.7258
3786	0.7297
3777	0.7315
3768	0.7326
3759	0.733
3750	0.7333
3741	0.734
3732	0.7353
3723	0.7365
3714	0.7378
3705	0.7394
3696	0.7408
3687	0.7421
3678	0.7435
3669	0.7444
3660	0.7451
3651	0.7457
3642	0.7458
3633	0.7451
3624	0.7425
3615	0.7365
3606	0.7404
3597	0.746
3588	0.7372
3579	0.7341
3570	0.7484
3561	0.7519
3552	0.7511
3543	0.7496
3534	0.7492
3525	0.7505
3516	0.7546
3507	0.7582
3498	0.759
3489	0.7594
3480	0.7593
3471	0.7592
3462	0.7596
3453	0.76
3444	0.7603
3435	0.7601
3426	0.76
3417	0.7597
3408	0.7587
3399	0.7568
3390	0.7482
3381	0.7335
3372	0.7108
3363	0.6756
3354	0.641
3345	0.6006
3336	0.5472
3327	0.5231
3318	0.5209
3309	0.5262
3300	0.5429
3291	0.5571
3282	0.5647
3273	0.5698
3264	0.5729
3255	0.573
3246	0.5712
3237	0.568
3228	0.562
3219	0.5527
3210	0.5424
3201	0.5288
3192	0.5144
3183	0.5002
3174	0.4862
3165	0.472
3156	0.461
3147	0.4533
3138	0.4481
3129	0.4527
3120	0.4748
3111	0.4964
3102	0.5262
3093	0.5477
3084	0.566
3075	0.5825
3066	0.5978
3057	0.6031
3048	0.6017
3039	0.5949
3030	0.5793
3021	0.5516
3012	0.4989
3003	0.4709
2994	0.4409
2985	0.4176
2976	0.4181
2967	0.4862
2958	0.545
2949	0.5568
2940	0.5582
2931	0.5662
2922	0.5864
2913	0.6009
2904	0.6084
2895	0.609
2886	0.589
2877	0.5562
2868	0.5524
2859	0.5683
2850	0.5914
2841	0.6136
2832	0.6359
2823	0.6514
2814	0.6639
2805	0.6749
2796	0.6837
2787	0.6888
2778	0.6924
2769	0.7021
2760	0.709
2751	0.7134
2742	0.7161
2733	0.7189
2724	0.7234
2715	0.7301
2706	0.7371
2697	0.7435
2688	0.7497
2679	0.7562
2670	0.7645
2661	0.7719
2652	0.7784
2643	0.7808
2634	0.7821
2625	0.7822
2616	0.7834
2607	0.7851
2598	0.7872
2589	0.7905
2580	0.7943
2571	0.7972
2562	0.7993
2553	0.8011
2544	0.8032
2535	0.8051
2526	0.8061
2517	0.8071
2508	0.8082
2499	0.8092
2490	0.8101
2481	0.8111
2472	0.8121
2463	0.8131
2454	0.814
2445	0.8149
2436	0.8158
2427	0.8161
2418	0.8164
2409	0.8164
2400	0.8158
2391	0.8149
2382	0.8139
2373	0.8128
2364	0.8121
2355	0.8112
2346	0.8106
2337	0.8099
2328	0.8093
2319	0.8087
2310	0.811
2301	0.8145
2292	0.8182
2283	0.8218
2274	0.8257
2265	0.8294
2256	0.8332
2247	0.8368
2238	0.8404
2229	0.8435
2220	0.8466
2211	0.8497
2202	0.8512
2193	0.8525
2184	0.8527
2175	0.8528
2166	0.8534
2157	0.8544
2148	0.8553
2139	0.8565
2130	0.8578
2121	0.8589
2112	0.8601
2103	0.8618
2094	0.8638
2085	0.8657
2076	0.8673
2067	0.8689
2058	0.8703
2049	0.8714
2040	0.8725
2031	0.8736
2022	0.8733
2013	0.8728
2004	0.8718
1995	0.8733
1986	0.8763
1977	0.8778
1968	0.8781
1959	0.8777
1950	0.8773
1941	0.8781
1932	0.8781
1923	0.878
1914	0.8778
1905	0.8778
1896	0.878
1887	0.8784
1878	0.8787
1869	0.8789
1860	0.8782
1851	0.8782
1842	0.8797
1833	0.877
1824	0.8811
1815	0.8824
1806	0.8828
1797	0.8828
1788	0.8828
1779	0.8817
1770	0.8801
1761	0.8777
1752	0.8752
1743	0.872
1734	0.8668
1725	0.8623
1716	0.8701
1707	0.8727
1698	0.8725
1689	0.8704
1680	0.8683
1671	0.8654
1662	0.8625
1653	0.8594
1644	0.8568
1635	0.8555
1626	0.8537
1617	0.8528
1608	0.8518
1599	0.8488
1590	0.8359
1581	0.7751
1572	0.758
1563	0.7317
1554	0.6583
1545	0.4567
1536	0.2766
1527	0.2314
1518	0.1873
1509	0.3065
1500	0.4693
1491	0.5901
1482	0.6733
1473	0.6193
1464	0.5934
1455	0.416
1446	0.4022
1437	0.597
1428	0.6343
1419	0.5939
1410	0.3224
1401	0.5405
1392	0.5165
1383	0.6115
1374	0.348
1365	0.485
1356	0.5632
1347	0.6132
1338	0.5833
1329	0.4956
1320	0.3234
1311	0.1594
1302	0.0518
1293	0.0786
1284	0.2483
1275	0.5167
1266	0.5752
1257	0.5208
1248	0.4432
1239	0.3775
1230	0.3858
1221	0.4762
1212	0.2406
1203	0.1002
1194	0.2483
1185	0.472
1176	0.4384
1167	0.5691
1158	0.6817
1149	0.7111
1140	0.7178
1131	0.7137
1122	0.7015
1113	0.666
1104	0.4934
1095	0.6662
1086	0.6398
1077	0.2417
1068	0.354
1059	0.6611
1050	0.6904
1041	0.7161
1032	0.726
1023	0.7318
1014	0.7307
1005	0.7331
996	0.7601
987	0.7839
978	0.7975
969	0.7932
960	0.8134
951	0.8143
942	0.7861
933	0.7532
924	0.8174
915	0.8257
906	0.8281
897	0.809
888	0.7837
879	0.8244
870	0.8304
861	0.8265
852	0.8134
843	0.7968
834	0.783
825	0.7718
816	0.7641
807	0.7538
798	0.7308
789	0.5417
780	0.7212
771	0.7515
762	0.7494
753	0.7245
744	0.655
735	0.7297
726	0.7261
717	0.7297
708	0.7596
699	0.7837
690	0.7778
681	0.783
672	0.8331
663	0.8354
654	0.7849
645	0.8378
636	0.8232
627	0.6581
618	0.6288
609	0.7965
600	0.8075
591	0.8137
582	0.815
573	0.7775
564	0.7599
555	0.7671
546	0.8162
537	0.8265
528	0.8257
519	0.8154
510	0.7806
501	0.4922
492	0.7645
483	0.7775
474	0.7711
465	0.7543
456	0.7245
447	0.6832
438	0.5912
429	0.5744
420	0.5792
411	0.5638
402	0.5771
