Infrared Spectrum: 2,6-Dichlorobenzyl alcohol
Formula: C 7 H 6 Cl 2 O
CAS: 15258-73-8
State: gas
Origin: EPA-IR VAPOR PHASE LIBRARY
1/CM	ABSORBANCE
549.8	0.001634
559.445	0.0009861
569.09	0.001444
578.734	0.0006218
588.379	0.0009774
598.024	0.0012746
607.669	0.002534
617.313	0.004194
626.958	0.002974
636.603	0.001494
646.248	0.001494
655.893	0.0012142
665.537	0.001334
675.182	0.001494
684.827	0.002004
694.472	0.002374
704.116	0.002614
713.761	0.004864
723.406	0.009444
733.051	0.012204
742.695	0.010454
752.34	0.016984
761.985	0.042254
771.63	0.059314
781.275	0.031844
790.919	0.012794
800.564	0.005614
810.209	0.005494
819.854	0.006104
829.498	0.005144
839.143	0.002974
848.788	0.002284
858.433	0.002254
868.078	0.001924
877.722	0.001824
887.367	0.001954
897.012	0.002454
906.657	0.002414
916.301	0.002794
925.946	0.004044
935.591	0.007254
945.236	0.014674
954.88	0.020994
964.525	0.017114
974.17	0.009684
983.815	0.007514
993.46	0.010374
1003.1	0.018134
1012.75	0.031054
1022.39	0.040684
1032.04	0.029794
1041.68	0.012124
1051.33	0.005374
1060.97	0.005644
1070.62	0.009884
1080.26	0.017674
1089.91	0.026634
1099.55	0.022674
1109.2	0.008874
1118.84	0.005494
1128.49	0.006304
1138.13	0.011894
1147.78	0.014354
1157.42	0.014214
1167.07	0.014614
1176.71	0.014094
1186.36	0.012674
1196	0.013554
1205.64	0.011694
1215.29	0.008614
1224.93	0.005674
1234.58	0.003924
1244.22	0.004294
1253.87	0.004204
1263.51	0.004934
1273.16	0.005354
1282.8	0.004894
1292.45	0.004534
1302.09	0.004594
1311.74	0.004434
1321.38	0.004364
1331.03	0.004954
1340.67	0.005674
1350.32	0.005754
1359.96	0.006104
1369.61	0.008984
1379.25	0.013954
1388.9	0.014874
1398.54	0.010844
1408.18	0.008784
1417.83	0.011634
1427.47	0.027984
1437.12	0.046374
1446.76	0.028334
1456.41	0.007084
1466.05	0.005534
1475.7	0.006174
1485.34	0.005294
1494.99	0.004244
1504.63	0.002944
1514.28	0.001914
1523.92	0.001644
1533.57	0.002154
1543.21	0.004924
1552.86	0.014534
1562.5	0.029634
1572.15	0.029074
1581.79	0.015864
1591.44	0.007214
1601.08	0.002904
1610.73	0.001974
1620.37	0.001744
1630.01	0.001255
1639.66	0.0010245
1649.3	0.001039
1658.95	0.001784
1668.59	0.001794
1678.24	0.0009991
1687.88	0.0007179
1697.53	0.000679
1707.17	0.0006107
1716.82	0.000575
1726.46	0.0005836
1736.11	0.0005564
1745.75	0.0006093
1755.4	0.000436
1765.04	0.0007529
1774.69	0.001344
1784.33	0.0011314
1793.98	0.0007384
1803.62	0.00040079
1813.27	0.00031151
1822.91	0.0004394
1832.55	0.0005902
1842.2	0.0011986
1851.84	0.001674
1861.49	0.0011304
1871.13	0.0004954
1880.78	0.0003567
1890.42	0.00046
1900.07	0.0005489
1909.71	0.0009173
1919.36	0.001604
1929	0.001544
1938.65	0.0009976
1948.29	0.0004595
1957.94	0.0004437
1967.58	0.0004402
1977.23	0.000489
1986.87	0.0004302
1996.52	0.0004358
2006.16	0.0006174
2015.81	0.0007841
2025.45	0.0007813
2035.1	0.0007988
2044.74	0.0006823
2054.38	0.0005408
2064.03	0.00039868
2073.67	0.000209
2083.32	0.00033944
2092.96	0.0004214
2102.61	0.00032469
2112.25	0.00031129
2121.9	0.00030894
2131.54	0.0002823
2141.19	0.00032997
2150.83	0.0002145
2160.48	0.00030592
2170.12	0.0002873
2179.77	0.00035356
2189.41	0.00033433
2199.06	0.00038253
2208.7	0.00033854
2218.35	0.00032538
2227.99	0.0003384
2237.64	0.000321162
2247.28	0.00032994
2256.92	0.0002669
2266.57	0.00038853
2276.21	0.0002836
2285.86	0.0005188
2295.5	0.0005292
2305.15	0.0005594
2314.79	0.0005147
2324.44	0.00037374
2334.08	0.0005365
2343.73	0.00039927
2353.37	0.0005768
2363.02	0.0005549
2372.66	0.00037978
2382.31	0.00031986
2391.95	0.00034593
2401.6	0.000493
2411.24	0.0004682
2420.89	0.0004831
2430.53	0.0005071
2440.18	0.00034869
2449.82	0.00034531
2459.47	0.000414
2469.11	0.00037499
2478.75	0.0004466
2488.4	0.0005344
2498.04	0.0005485
2507.69	0.00036909
2517.33	0.00038268
2526.98	0.000239
2536.62	0.000203
2546.27	0.0002333
2555.91	0.00032796
2565.56	0.00034944
2575.2	0.0004251
2584.85	0.0004688
2594.49	0.00032435
2604.14	0.0002879
2613.78	0.00033399
2623.43	0.00033509
2633.07	0.0004501
2642.72	0.0006039
2652.36	0.00067
2662.01	0.0007492
2671.65	0.0006172
2681.29	0.0005108
2690.94	0.00035961
2700.58	0.00033852
2710.23	0.00040856
2719.87	0.0004177
2729.52	0.00035681
2739.16	0.0004689
2748.81	0.000317986
2758.45	0.00040741
2768.1	0.0004461
2777.74	0.0005039
2787.39	0.00039977
2797.03	0.000415
2806.68	0.0004978
2816.32	0.0006349
2825.97	0.0007578
2835.61	0.0007664
2845.26	0.0010396
2854.9	0.001434
2864.55	0.001664
2874.19	0.002464
2883.84	0.004064
2893.48	0.005914
2903.12	0.006194
2912.77	0.005324
2922.41	0.003914
2932.06	0.003044
2941.7	0.003664
2951.35	0.004864
2960.99	0.004804
2970.64	0.004504
2980.28	0.003964
2989.93	0.003744
2999.57	0.003714
3009.22	0.003044
3018.86	0.001964
3028.51	0.0011992
3038.15	0.0007767
3047.8	0.0011448
3057.44	0.002274
3067.09	0.003384
3076.73	0.003684
3086.38	0.003074
3096.02	0.001424
3105.67	0.0007273
3115.31	0.0009145
3124.95	0.0011214
3134.6	0.0009093
3144.24	0.0005656
3153.89	0.0002941
3163.53	0.0003005
3173.18	0.0004991
3182.82	0.0002978
3192.47	0.000168
3202.11	0.0002523
3211.76	0.00016
3221.4	0
3231.05	0.000159
3240.69	0.0002254
3250.34	0.0002378
3259.98	0.000164
3269.63	0.000186
3279.27	0.0003062
3288.92	0.0003271
3298.56	0.0002639
3308.21	0.00032919
3317.85	0.00035742
3327.49	0.0002341
3337.14	0.00037469
3346.78	0.0004403
3356.43	0.0004825
3366.07	0.0003353
3375.72	0.0004594
3385.36	0.0005309
3395.01	0.00037945
3404.65	0.0004437
3414.3	0.0006043
3423.94	0.0005446
3433.59	0.00040796
3443.23	0.0005854
3452.88	0.0004234
3462.52	0.0005867
3472.17	0.0005507
3481.81	0.0004946
3491.46	0.0004434
3501.1	0.0005854
3510.75	0.0002666
3520.39	0.00031053
3530.04	0.0004291
3539.68	0.0005543
3549.32	0.0006163
3558.97	0.0005695
3568.61	0.0007249
3578.26	0.0011608
3587.9	0.001334
3597.55	0.001534
3607.19	0.001584
3616.84	0.001894
3626.48	0.004234
3636.13	0.009794
3645.77	0.012194
3655.42	0.007034
3665.06	0.003144
3674.71	0.001824
3684.35	0.001444
3694	0.001724
3703.64	0.002124
3713.29	0.001444
3722.93	0.0009849
3732.58	0.0005629
3742.22	0.00032983
3751.86	0.0005069
3761.51	0.0004703
3771.15	0.0006378
3780.8	0.00047
3790.44	0.0006548
3800.09	0.0005484
3809.73	0.0006475
3819.38	0.00038865
3829.02	0.0008344
3838.67	0.0007659
3848.31	0.0006754
3857.96	0.0006709
3867.6	0.0005517
3877.25	0.0006602
3886.89	0.0006454
3896.54	0.0007055
3906.18	0.000573
3915.83	0.0004827
3925.47	0.0004503
3935.12	0.00032998
3944.76	0.0005559
3954.41	0.0004616
3964.05	0.00038566
3973.69	0.0006545
3983.34	0.0004246
3992.98	0.0005248
