Infrared Spectrum: DECANAL, 2,4-DINITROPHENYL HYDRAZONE
Formula: C16 H24 N4 O4
CAS: 1527-95-3
State: SOLID (KBr PELLET)
Melting point: 102 C
Class: COBLENTZ
Instrument: Not specified, most likely a grating spectrometer.
Sampling: TRANSMISSION
Resolution: 4
Origin: CITRUS EXPERIMENT STATION, UNIVERSITY OF FLORIDA (G. EDWARDS)
MICROMETERS	TRANSMITTANCE
2.033	0.639
2.06634	0.639
2.09967	0.64
2.13301	0.641
2.16634	0.641
2.19968	0.644
2.23301	0.645
2.26635	0.645
2.29968	0.647
2.33302	0.648
2.36635	0.651
2.39969	0.655
2.43302	0.659
2.46636	0.66
2.49969	0.664
2.53303	0.665
2.56636	0.668
2.5997	0.671
2.63303	0.671
2.66637	0.669
2.6997	0.668
2.73304	0.66
2.76637	0.649
2.79971	0.639
2.83305	0.631
2.86638	0.614
2.89972	0.61
2.93305	0.616
2.96639	0.632
2.99972	0.627
3.03306	0.459
3.06639	0.639
3.09973	0.689
3.13306	0.719
3.1664	0.727
3.19973	0.725
3.23307	0.637
3.2664	0.696
3.29974	0.689
3.33307	0.691
3.36641	0.625
3.39974	0.43
3.43308	0.196
3.46641	0.471
3.49975	0.403
3.53308	0.589
3.56642	0.651
3.59976	0.664
3.63309	0.675
3.66643	0.679
3.69976	0.679
3.7331	0.681
3.76643	0.68
3.79977	0.683
3.8331	0.691
3.86644	0.696
3.89977	0.697
3.93311	0.699
3.96644	0.7
3.99978	0.7
4.03311	0.699
4.06645	0.695
4.09978	0.697
4.13312	0.703
4.16645	0.707
4.19979	0.711
4.23312	0.717
4.26646	0.719
4.29979	0.719
4.33313	0.719
4.36647	0.719
4.3998	0.712
4.43314	0.712
4.46647	0.719
4.49981	0.72
4.53314	0.719
4.56648	0.721
4.59981	0.724
4.63315	0.725
4.66648	0.725
4.69982	0.727
4.73315	0.725
4.76649	0.727
4.79982	0.727
4.83316	0.725
4.86649	0.724
4.89983	0.725
4.93316	0.728
4.9665	0.729
4.99983	0.728
5.03317	0.728
5.0665	0.729
5.09984	0.729
5.13318	0.725
5.16651	0.729
5.19985	0.731
5.23318	0.732
5.26652	0.732
5.29985	0.731
5.33319	0.727
5.36652	0.727
5.39986	0.732
5.43319	0.736
5.46653	0.736
5.49986	0.733
5.5332	0.729
5.56653	0.721
5.59987	0.729
5.6332	0.731
5.66654	0.729
5.69987	0.725
5.73321	0.725
5.76654	0.723
5.79988	0.723
5.83321	0.719
5.86655	0.711
5.89989	0.709
5.93322	0.691
5.96656	0.68
5.99989	0.659
6.03323	0.633
6.06656	0.562
6.0999	0.49
6.13323	0.231
6.16657	0.07
6.1999	0.054
6.23324	0.171
6.26657	0.27
6.29991	0.152
6.33324	0.363
6.36658	0.549
6.39991	0.629
6.43325	0.647
6.46658	0.613
6.49992	0.5
6.53325	0.469
6.56659	0.221
6.59992	0.179
6.63326	0.3
6.66659	0.354
6.69993	0.545
6.73327	0.629
6.7666	0.631
6.79994	0.501
6.83327	0.482
6.86661	0.574
6.89994	0.585
6.93328	0.58
6.96661	0.491
6.99995	0.352
7.03328	0.282
7.06662	0.449
7.09995	0.64
7.13329	0.72
7.16662	0.727
7.19996	0.713
7.23329	0.656
7.26663	0.6
7.29996	0.576
7.3333	0.576
7.36663	0.554
7.39997	0.486
7.4333	0.304
7.46664	0.122
7.49998	0.036
7.53331	0.013
7.56665	0.033
7.59998	0.048
7.63332	0.082
7.66665	0.171
7.69999	0.187
7.73332	0.314
7.76666	0.31
7.79999	0.288
7.83333	0.3
7.86666	0.344
7.9	0.382
7.93333	0.475
7.96667	0.522
8	0.557
8.03334	0.6
8.06667	0.622
8.10001	0.631
8.13334	0.604
8.16668	0.512
8.20001	0.421
8.23335	0.57
8.26669	0.64
8.30002	0.649
8.33336	0.66
8.36669	0.667
8.40003	0.668
8.43336	0.672
8.4667	0.672
8.50003	0.68
8.53337	0.688
8.5667	0.691
8.60004	0.699
8.63337	0.7
8.66671	0.699
8.70004	0.68
8.73338	0.633
8.76671	0.512
8.80005	0.347
8.83338	0.16
8.86672	0.247
8.90005	0.344
8.93339	0.401
8.96672	0.463
9.00006	0.541
9.0334	0.574
9.06673	0.604
9.10007	0.62
9.1334	0.624
9.16674	0.61
9.20007	0.578
9.23341	0.54
9.26674	0.479
9.30008	0.37
9.33341	0.267
9.36675	0.39
9.40008	0.573
9.43342	0.597
9.46675	0.58
9.50009	0.584
9.53342	0.6
9.56676	0.639
9.60009	0.664
9.63343	0.671
9.66676	0.665
9.7001	0.671
9.73343	0.689
9.76677	0.7
9.80011	0.708
9.83344	0.708
9.86678	0.712
9.90011	0.72
9.93345	0.721
9.96678	0.728
10.0001	0.732
10.0335	0.732
10.0668	0.733
10.1001	0.733
10.1335	0.731
10.1668	0.729
10.2001	0.731
10.2335	0.729
10.2668	0.72
10.3001	0.691
10.3335	0.705
10.3668	0.7
10.4001	0.689
10.4335	0.709
10.4668	0.711
10.5001	0.699
10.5335	0.669
10.5668	0.621
10.6002	0.641
10.6335	0.68
10.6668	0.7
10.7002	0.695
10.7335	0.663
10.7668	0.601
10.8002	0.532
10.8335	0.517
10.8668	0.536
10.9002	0.614
10.9335	0.675
10.9668	0.703
11.0002	0.717
11.0335	0.724
11.0668	0.731
11.1002	0.732
11.1335	0.732
11.1668	0.729
11.2002	0.727
11.2335	0.729
11.2669	0.733
11.3002	0.735
11.3335	0.739
11.3669	0.737
11.4002	0.736
11.4335	0.731
11.4669	0.727
11.5002	0.723
11.5335	0.725
11.5669	0.736
11.6002	0.739
11.6335	0.739
11.6669	0.739
11.7002	0.737
11.7335	0.733
11.7669	0.729
11.8002	0.724
11.8336	0.719
11.8669	0.701
11.9002	0.687
11.9336	0.684
11.9669	0.672
12.0002	0.593
12.0336	0.516
12.0669	0.536
12.1002	0.45
12.1336	0.351
12.1669	0.594
12.2002	0.692
12.2336	0.712
12.2669	0.721
12.3002	0.721
12.3336	0.72
12.3669	0.712
12.4003	0.697
12.4336	0.696
12.4669	0.711
12.5003	0.721
12.5336	0.725
12.5669	0.727
12.6003	0.727
12.6336	0.725
12.6669	0.725
12.7003	0.724
12.7336	0.724
12.7669	0.724
12.8003	0.723
12.8336	0.721
12.8669	0.725
12.9003	0.724
12.9336	0.724
12.967	0.721
13.0003	0.721
13.0336	0.719
13.067	0.712
13.1003	0.689
13.1336	0.639
13.167	0.648
13.2003	0.68
13.2336	0.695
13.267	0.699
13.3003	0.699
13.3336	0.681
13.367	0.649
13.4003	0.55
13.4336	0.443
13.467	0.35
13.5003	0.371
13.5336	0.462
13.567	0.589
13.6003	0.633
13.6337	0.639
13.667	0.622
13.7003	0.601
13.7337	0.558
13.767	0.5
13.8003	0.474
13.8337	0.489
13.867	0.532
13.9003	0.56
13.9337	0.558
13.967	0.542
14.0003	0.533
14.0337	0.549
14.067	0.582
14.1003	0.62
14.1337	0.648
14.167	0.66
14.2004	0.663
14.2337	0.664
14.267	0.664
14.3004	0.661
14.3337	0.661
14.367	0.661
14.4004	0.66
14.4337	0.655
14.467	0.648
14.5004	0.637
14.5337	0.613
14.567	0.6
14.6004	0.6
14.6337	0.602
14.667	0.618
14.7004	0.631
14.7337	0.639
14.7671	0.644
14.8004	0.645
14.8337	0.647
14.8671	0.647
14.9004	0.647
14.9337	0.649
14.9671	0.653
15.0004	0.661
