Infrared Spectrum: 3-Methoxybenzonitrile
Formula: C 8 H 7 N O
CAS: 1527-89-5
State: gas
Instrument: HP-GC/MS/IRD
Origin: NIST Mass Spectrometry Data Center
1/CM	ABSORBANCE
550	0.0003
562	0.00012
574	0.0002928
586	0.0005064
598	0.0002952
610	0.0001752
622	0.000132
634	6e-05
646	0.0001008
658	0.0007296
670	0.00288
682	0.006156
694	0.0030648
706	0.001248
718	0.0007056
730	0.000276
742	0.0002664
754	0.0007896
766	0.0025032
778	0.006
790	0.0071496
802	0.002868
814	0.0005424
826	0.0002952
838	0.0008232
850	0.0021528
862	0.0027864
874	0.0029304
886	0.0033912
898	0.0029544
910	0.0027024
922	0.0014544
934	0.0003936
946	0.0003216
958	0.000348
970	0.0005736
982	0.0009504
994	0.0012912
1006	0.0015096
1018	0.0027552
1030	0.0073296
1042	0.0120912
1054	0.0102984
1066	0.0040008
1078	0.0019176
1090	0.0017568
1102	0.001284
1114	0.0012192
1126	0.0028056
1138	0.00708
1150	0.0095328
1162	0.0069984
1174	0.0036576
1186	0.0015768
1198	0.00084
1210	0.0008568
1222	0.0017904
1234	0.0051696
1246	0.0119496
1258	0.020748
1270	0.024
1282	0.022236
1294	0.0155232
1306	0.0076272
1318	0.0084192
1330	0.0059256
1342	0.0019752
1354	0.0010608
1366	0.0007224
1378	0.000468
1390	0.0005304
1402	0.0012816
1414	0.0043704
1426	0.0081936
1438	0.0071136
1450	0.0051384
1462	0.007488
1474	0.0126
1486	0.0152424
1498	0.0077904
1510	0.0023328
1522	0.0015528
1534	0.001356
1546	0.0018552
1558	0.0041568
1570	0.0107616
1582	0.0176304
1594	0.0189336
1606	0.0132672
1618	0.005256
1630	0.0017304
1642	0.0008592
1654	0.000744
1666	0.0006528
1678	0.0006768
1690	0.0005928
1702	0.0004968
1714	0.0003888
1726	0.0003
1738	0.0002808
1750	0.0003768
1762	0.0003936
1774	0.0003408
1786	0.0002808
1798	0.0002304
1810	0.000156
1822	0.0001512
1834	0.0002376
1846	0.0003552
1858	0.0004584
1870	0.000336
1882	8.64e-05
1894	2.88e-05
1906	8.64e-05
1918	0.0002112
1930	0.0004344
1942	0.0004128
1954	0.0002304
1966	0.0001272
1978	0.00012
1990	0.0001248
2002	0.0001368
2014	0.0001056
2026	0.0001656
2038	0.000216
2050	0.000192
2062	0.0001968
2074	0.0001944
2086	0.0001824
2098	0.0001248
2110	4.56e-05
2122	1.68e-05
2134	4.08e-05
2146	9.12e-05
2158	0.0001536
2170	0.0002736
2182	0.0003408
2194	0.0002616
2206	0.0001992
2218	0.0005208
2230	0.00162
2242	0.0014496
2254	0.0001896
2266	2.4e-06
2278	4.08e-05
2290	6.72e-05
2302	9.84e-05
2314	0.000108
2326	9.12e-05
2338	8.88e-05
2350	5.04e-05
2362	6.96e-05
2374	9.12e-05
2386	5.76e-05
2398	2.88e-05
2410	3.12e-05
2422	6.24e-05
2434	4.8e-05
2446	2.4e-05
2458	2.16e-05
2470	5.04e-05
2482	8.16e-05
2494	8.88e-05
2506	0.0001224
2518	0.000168
2530	0.0002496
2542	0.0003336
2554	0.000288
2566	0.0002304
2578	0.000264
2590	0.0002064
2602	0.0001344
2614	0.0001464
2626	7.92e-05
2638	5.76e-05
2650	4.56e-05
2662	1.68e-05
2674	5.76e-05
2686	0.000132
2698	0.0001296
2710	0.000156
2722	0.0001656
2734	0.0001536
2746	0.000144
2758	0.0001704
2770	0.000204
2782	0.000192
2794	0.0002904
2806	0.0003696
2818	0.0006504
2830	0.0013512
2842	0.00288
2854	0.0031392
2866	0.0018768
2878	0.0016128
2890	0.0017184
2902	0.0020088
2914	0.0025752
2926	0.0031848
2938	0.0041112
2950	0.0057432
2962	0.0054528
2974	0.0037728
2986	0.00246
2998	0.0025296
3010	0.0042624
3022	0.003756
3034	0.001872
3046	0.0014184
3058	0.0012552
3070	0.001644
3082	0.0021984
3094	0.0017208
3106	0.0009768
3118	0.0005952
3130	0.0003744
3142	0.000264
3154	0.000228
3166	0.0001872
3178	0.000132
3190	0.0001584
3202	0.0001128
3214	9.84e-05
3226	6.72e-05
3238	6.72e-05
3250	2.64e-05
3262	3.12e-05
3274	1.92e-05
3286	2.88e-05
3298	2.4e-05
3310	0
3322	8.4e-05
3334	7.2e-05
3346	4.8e-05
3358	4.56e-05
3370	5.52e-05
3382	9.6e-05
3394	1.92e-05
3406	4.56e-05
3418	5.04e-05
3430	5.28e-05
3442	3.12e-05
3454	6.48e-05
3466	4.8e-05
3478	2.4e-06
3490	8.4e-05
3502	0.0001128
3514	4.32e-05
3526	8.88e-05
3538	8.16e-05
3550	1.2e-05
3562	7.2e-05
3574	3.36e-05
3586	2.88e-05
3598	6e-05
3610	7.68e-05
3622	6.96e-05
3634	1.68e-05
3646	0.0001008
3658	7.68e-05
3670	6e-05
3682	8.64e-05
3694	9.12e-05
3706	5.76e-05
3718	9.6e-05
3730	0.00012
3742	0.0001104
3754	0.00012
3766	0.000108
3778	9.6e-05
3790	0.0001656
3802	0.000144
3814	0.0001416
3826	0.0001464
3838	0.0001104
