Infrared Spectrum: N-HEXANAL, 2,4-DINITROPHENYLHYDRAZONE
Formula: C12 H16 N4 O4
CAS: 1527-97-5
State: SOLID (MINERAL OIL MULL)
Class: COBLENTZ
Instrument: PERKIN-ELMER
Sampling: TRANSMISSION
Resolution: 4
Origin: STANDARD OIL OF OHIO
MICROMETERS	TRANSMITTANCE
2.027	0.224
2.06063	0.232
2.09425	0.241
2.12788	0.25
2.1615	0.26
2.19513	0.27
2.22875	0.277
2.26238	0.284
2.29601	0.284
2.32963	0.284
2.36326	0.292
2.39688	0.302
2.43051	0.314
2.46413	0.326
2.49776	0.343
2.53138	0.355
2.56501	0.363
2.59864	0.372
2.63226	0.386
2.66589	0.392
2.69951	0.403
2.73314	0.413
2.76676	0.42
2.80039	0.426
2.83402	0.435
2.86764	0.443
2.90127	0.455
2.93489	0.465
2.96852	0.472
3.00214	0.355
3.03577	0.204
3.06939	0.374
3.10302	0.418
3.13665	0.433
3.17027	0.44
3.2039	0.43
3.23752	0.365
3.27115	0.389
3.30477	0.335
3.3384	0.224
3.37203	0.028
3.40565	0.005
3.43928	0.003
3.4729	0.006
3.50653	0.027
3.54015	0.248
3.57378	0.459
3.6074	0.522
3.64103	0.552
3.67466	0.556
3.70828	0.562
3.74191	0.569
3.77553	0.578
3.80916	0.586
3.84278	0.603
3.87641	0.625
3.91004	0.646
3.94366	0.656
3.97729	0.676
4.01091	0.687
4.04454	0.693
4.07816	0.69
4.11179	0.683
4.14541	0.687
4.17904	0.697
4.21267	0.704
4.24629	0.71
4.27992	0.717
4.31354	0.724
4.34717	0.738
4.38079	0.748
4.41442	0.746
4.44805	0.744
4.48167	0.763
4.5153	0.768
4.54892	0.773
4.58255	0.78
4.61617	0.785
4.6498	0.792
4.68342	0.802
4.71705	0.806
4.75068	0.812
4.7843	0.818
4.81793	0.821
4.85155	0.814
4.88518	0.819
4.9188	0.828
4.95243	0.838
4.98606	0.846
5.01968	0.848
5.05331	0.85
5.08693	0.852
5.12056	0.852
5.15418	0.85
5.18781	0.867
5.22143	0.874
5.25506	0.872
5.28869	0.877
5.32231	0.88
5.35594	0.875
5.38956	0.882
5.42319	0.894
5.45681	0.903
5.49044	0.914
5.52407	0.909
5.55769	0.894
5.59132	0.906
5.62494	0.916
5.65857	0.918
5.69219	0.914
5.72582	0.903
5.75944	0.894
5.79307	0.887
5.8267	0.862
5.86032	0.877
5.89395	0.891
5.92757	0.894
5.9612	0.87
5.99482	0.782
6.02845	0.721
6.06208	0.539
6.0957	0.204
6.12933	0.032
6.16295	0.013
6.19658	0.037
6.2302	0.078
6.26383	0.04
6.29745	0.156
6.33108	0.302
6.36471	0.481
6.39833	0.544
6.43196	0.613
6.46558	0.59
6.49921	0.494
6.53283	0.272
6.56646	0.066
6.60009	0.057
6.63371	0.076
6.66734	0.226
6.70096	0.336
6.73459	0.396
6.76821	0.292
6.80184	0.12
6.83546	0.078
6.86909	0.081
6.90272	0.142
6.93634	0.207
6.96997	0.215
7.00359	0.136
7.03722	0.164
7.07084	0.386
7.10447	0.561
7.1381	0.6
7.17172	0.608
7.20535	0.363
7.23897	0.234
7.2726	0.222
7.30622	0.29
7.33985	0.306
7.37347	0.255
7.4071	0.132
7.44073	0.052
7.47435	0.006
7.50798	0.001
7.5416	0.003
7.57523	0.011
7.60885	0.013
7.64248	0.015
7.67611	0.023
7.70973	0.071
7.74336	0.105
7.77698	0.119
7.81061	0.122
7.84423	0.127
7.87786	0.151
7.91148	0.2
7.94511	0.268
7.97874	0.335
8.01236	0.433
8.04599	0.462
8.07961	0.469
8.11324	0.479
8.14686	0.37
8.18049	0.232
8.21412	0.321
8.24774	0.462
8.28137	0.522
8.31499	0.54
8.34862	0.547
8.38224	0.556
8.41587	0.569
8.44949	0.579
8.48312	0.593
8.51675	0.602
8.55037	0.602
8.584	0.602
8.61762	0.602
8.65125	0.591
8.68487	0.557
8.7185	0.479
8.75213	0.29
8.78575	0.113
8.81938	0.054
8.853	0.112
8.88663	0.151
8.92025	0.188
8.95388	0.241
8.98751	0.307
9.02113	0.37
9.05476	0.413
9.08838	0.438
9.12201	0.454
9.15563	0.447
9.18926	0.382
9.22288	0.277
9.25651	0.19
9.29014	0.137
9.32376	0.19
9.35739	0.326
9.39101	0.386
9.42464	0.428
9.45826	0.433
9.49189	0.431
9.52552	0.447
9.55914	0.474
9.59277	0.494
9.62639	0.528
9.66002	0.552
9.69364	0.579
9.72727	0.596
9.76089	0.608
9.79452	0.62
9.82815	0.63
9.86177	0.641
9.8954	0.653
9.92902	0.663
9.96265	0.668
9.99627	0.671
10.0299	0.671
10.0635	0.67
10.0972	0.663
10.1308	0.651
10.1644	0.63
10.198	0.607
10.2317	0.561
10.2653	0.539
10.2989	0.603
10.3325	0.634
10.3662	0.649
10.3998	0.646
10.4334	0.629
10.467	0.602
10.5007	0.552
10.5343	0.551
10.5679	0.598
10.6015	0.632
10.6352	0.654
10.6688	0.659
10.7024	0.598
10.736	0.505
10.7697	0.428
10.8033	0.418
10.8369	0.448
10.8705	0.476
10.9042	0.518
10.9378	0.619
10.9714	0.697
11.005	0.741
11.0387	0.767
11.0723	0.777
11.1059	0.789
11.1395	0.794
11.1732	0.801
11.2068	0.806
11.2404	0.816
11.274	0.829
11.3077	0.84
11.3413	0.848
11.3749	0.855
11.4086	0.863
11.4422	0.87
11.4758	0.874
11.5094	0.879
11.5431	0.884
11.5767	0.886
11.6103	0.884
11.6439	0.88
11.6776	0.877
11.7112	0.869
11.7448	0.857
11.7784	0.845
11.8121	0.826
11.8457	0.794
11.8793	0.756
11.9129	0.704
11.9466	0.612
11.9802	0.394
12.0138	0.369
12.0474	0.265
12.0811	0.21
12.1147	0.486
12.1483	0.619
12.1819	0.705
12.2156	0.772
12.2492	0.819
12.2828	0.84
12.3164	0.853
12.3501	0.865
12.3837	0.877
12.4173	0.886
12.4509	0.891
12.4846	0.894
12.5182	0.899
12.5518	0.904
12.5854	0.904
12.6191	0.906
12.6527	0.906
12.6863	0.909
12.7199	0.909
12.7536	0.908
12.7872	0.904
12.8208	0.901
12.8545	0.894
12.8881	0.891
12.9217	0.889
12.9553	0.887
12.989	0.88
13.0226	0.857
13.0562	0.806
13.0898	0.668
13.1235	0.732
13.1571	0.814
13.1907	0.836
13.2243	0.838
13.258	0.824
13.2916	0.767
13.3252	0.68
13.3588	0.549
13.3925	0.329
13.4261	0.25
13.4597	0.217
13.4933	0.25
13.527	0.537
13.5606	0.608
13.5942	0.651
13.6278	0.653
13.6615	0.644
13.6951	0.571
13.7287	0.472
13.7623	0.365
13.796	0.372
13.8296	0.404
13.8632	0.44
13.8968	0.494
13.9305	0.537
13.9641	0.586
13.9977	0.646
14.0313	0.717
14.065	0.75
14.0986	0.775
14.1322	0.792
14.1659	0.806
14.1995	0.819
14.2331	0.826
14.2667	0.829
14.3004	0.84
14.334	0.84
14.3676	0.835
14.4012	0.828
14.4349	0.818
14.4685	0.79
14.5021	0.746
14.5357	0.675
14.5694	0.637
14.603	0.636
14.6366	0.663
14.6702	0.717
14.7039	0.744
14.7375	0.768
14.7711	0.777
14.8047	0.777
14.8384	0.782
14.872	0.784
14.9056	0.784
14.9392	0.782
14.9729	0.777
15.0065	0.773
15.0401	0.767
15.0737	0.76
15.1074	0.751
15.141	0.741
15.1746	0.717
15.2082	0.7
15.2419	0.675
15.2755	0.644
15.3091	0.647
15.3427	0.663
15.3764	0.676
15.41	0.68
