Infrared Spectrum: 4,4'-DINITRO BIPHENYL
Formula: C12 H8 N2 O4
CAS: 1528-74-1
State: SOLID (MINERAL OIL MULL)
Melting point: 239-240 C
Class: COBLENTZ
Instrument: Not specified, most likely a prism, grating, or hybrid spectrometer.
Sampling: TRANSMISSION
Resolution: 4
Origin: WYANDOTTE CHEMICALS CORP., WYANDOTTE, MICHIGAN, USA
MICROMETERS	TRANSMITTANCE
2.027	0.358
2.06677	0.357
2.10654	0.361
2.14631	0.361
2.18609	0.36
2.22586	0.358
2.26563	0.365
2.3054	0.371
2.34517	0.376
2.38494	0.381
2.42471	0.398
2.46449	0.404
2.50426	0.408
2.54403	0.409
2.5838	0.424
2.62357	0.431
2.66334	0.438
2.70311	0.442
2.74289	0.446
2.78266	0.446
2.82243	0.447
2.8622	0.446
2.90197	0.449
2.94174	0.451
2.98151	0.452
3.02129	0.452
3.06106	0.454
3.10083	0.461
3.1406	0.456
3.18037	0.462
3.22014	0.398
3.25991	0.418
3.29969	0.426
3.33946	0.239
3.37923	0.064
3.419	0.062
3.45877	0.137
3.49854	0.114
3.53831	0.361
3.57809	0.545
3.61786	0.575
3.65763	0.581
3.6974	0.585
3.73717	0.596
3.77694	0.606
3.81671	0.611
3.85649	0.618
3.89626	0.633
3.93603	0.651
3.9758	0.652
4.01557	0.666
4.05534	0.672
4.09511	0.671
4.13489	0.628
4.17466	0.674
4.21443	0.689
4.2542	0.68
4.29397	0.677
4.33374	0.687
4.37351	0.717
4.41329	0.737
4.45306	0.74
4.49283	0.747
4.5326	0.753
4.57237	0.757
4.61214	0.755
4.65191	0.763
4.69169	0.773
4.73146	0.786
4.77123	0.795
4.811	0.804
4.85077	0.813
4.89054	0.816
4.93031	0.821
4.97009	0.821
5.00986	0.831
5.04963	0.834
5.0894	0.849
5.12917	0.847
5.16894	0.841
5.20871	0.818
5.24849	0.819
5.28826	0.872
5.32803	0.876
5.3678	0.877
5.40757	0.88
5.44734	0.88
5.48711	0.907
5.52689	0.91
5.56666	0.887
5.60643	0.849
5.6462	0.895
5.68597	0.92
5.72574	0.904
5.76551	0.872
5.80529	0.885
5.84506	0.899
5.88483	0.877
5.9246	0.876
5.96437	0.856
6.00414	0.816
6.04391	0.847
6.08369	0.869
6.12346	0.834
6.16323	0.78
6.203	0.219
6.24277	0.307
6.28254	0.555
6.32231	0.704
6.36209	0.766
6.40186	0.77
6.44163	0.697
6.4814	0.502
6.52117	0.36
6.56094	0.114
6.60071	0.17
6.64049	0.32
6.68026	0.492
6.72003	0.469
6.7598	0.304
6.79957	0.304
6.83934	0.348
6.87911	0.426
6.91889	0.522
6.95866	0.722
6.99843	0.804
7.0382	0.829
7.07797	0.847
7.11774	0.752
7.15751	0.504
7.19729	0.459
7.23706	0.37
7.27683	0.391
7.3166	0.537
7.35637	0.413
7.39614	0.109
7.43591	0.056
7.47569	0.107
7.51546	0.18
7.55523	0.209
7.595	0.304
7.63477	0.388
7.67454	0.451
7.71431	0.528
7.75409	0.553
7.79386	0.57
7.83363	0.525
7.8734	0.558
7.91317	0.623
7.95294	0.626
7.99271	0.646
8.03249	0.667
8.07226	0.676
8.11203	0.692
8.1518	0.715
8.19157	0.735
8.23134	0.743
8.27111	0.757
8.31089	0.773
8.35066	0.783
8.39043	0.778
8.4302	0.74
8.46997	0.737
8.50974	0.733
8.54951	0.766
8.58929	0.785
8.62906	0.806
8.66883	0.809
8.7086	0.829
8.74837	0.846
8.78814	0.871
8.82791	0.876
8.86769	0.804
8.90746	0.469
8.94723	0.619
8.987	0.497
9.02677	0.418
9.06654	0.613
9.10631	0.677
9.14609	0.705
9.18586	0.723
9.22563	0.752
9.2654	0.765
9.30517	0.775
9.34494	0.776
9.38471	0.783
9.42449	0.788
9.46426	0.803
9.50403	0.811
9.5438	0.828
9.58357	0.833
9.62334	0.838
9.66311	0.841
9.70289	0.841
9.74266	0.846
9.78243	0.851
9.8222	0.854
9.86197	0.839
9.90174	0.753
9.94151	0.685
9.98129	0.742
10.0211	0.803
10.0608	0.829
10.1006	0.846
10.1404	0.861
10.1801	0.861
10.2199	0.856
10.2597	0.847
10.2995	0.826
10.3392	0.846
10.379	0.854
10.4188	0.856
10.4585	0.859
10.4983	0.841
10.5381	0.866
10.5779	0.874
10.6176	0.877
10.6574	0.874
10.6972	0.872
10.7369	0.874
10.7767	0.869
10.8165	0.876
10.8563	0.869
10.896	0.874
10.9358	0.874
10.9756	0.882
11.0153	0.895
11.0551	0.897
11.0949	0.899
11.1347	0.899
11.1744	0.9
11.2142	0.904
11.254	0.909
11.2937	0.91
11.3335	0.915
11.3733	0.917
11.4131	0.849
11.4528	0.598
11.4926	0.707
11.5324	0.849
11.5721	0.887
11.6119	0.9
11.6517	0.897
11.6915	0.882
11.7312	0.667
11.771	0.148
11.8108	0.147
11.8505	0.287
11.8903	0.292
11.9301	0.15
11.9699	0.195
12.0096	0.494
12.0494	0.705
12.0892	0.78
12.1289	0.75
12.1687	0.775
12.2085	0.813
12.2483	0.862
12.288	0.882
12.3278	0.89
12.3676	0.904
12.4073	0.909
12.4471	0.917
12.4869	0.927
12.5267	0.93
12.5664	0.935
12.6062	0.935
12.646	0.94
12.6857	0.932
12.7255	0.93
12.7653	0.93
12.8051	0.925
12.8448	0.925
12.8846	0.92
12.9244	0.912
12.9641	0.907
13.0039	0.899
13.0437	0.889
13.0835	0.857
13.1232	0.852
13.163	0.852
13.2028	0.828
13.2425	0.804
13.2823	0.8
13.3221	0.79
13.3619	0.765
13.4016	0.712
13.4414	0.603
13.4812	0.466
13.5209	0.229
13.5607	0.148
13.6005	0.239
13.6403	0.447
13.68	0.672
13.7198	0.768
13.7596	0.818
13.7993	0.847
13.8391	0.866
13.8789	0.876
13.9187	0.879
13.9584	0.89
13.9982	0.907
14.038	0.912
14.0777	0.925
14.1175	0.925
14.1573	0.917
14.1971	0.92
14.2368	0.912
14.2766	0.89
14.3164	0.851
14.3561	0.783
14.3959	0.763
14.4357	0.785
14.4755	0.806
14.5152	0.793
14.555	0.71
14.5948	0.613
14.6345	0.568
14.6743	0.58
14.7141	0.613
14.7539	0.647
14.7936	0.71
14.8334	0.761
14.8732	0.796
14.9129	0.804
14.9527	0.801
14.9925	0.788
15.0323	0.714
15.072	0.684
15.1118	0.714
15.1516	0.755
15.1913	0.763
15.2311	0.748
15.2709	0.733
15.3107	0.719
15.3504	0.709
15.3902	0.69
15.43	0.679
15.4697	0.657
15.5095	0.646
15.5493	0.639
15.5891	0.631
15.6288	0.626
15.6686	0.614
15.7084	0.598
15.7481	0.576
15.7879	0.57
15.8277	0.558
15.8675	0.553
15.9072	0.545
15.947	0.535
15.9868	0.512
