Infrared Spectrum: 3-Ethyl-4-heptanone
Formula: C 9 H 18 O
CAS: 1528-25-2
State: gas
Instrument: HP-GC/MS/IRD
Origin: NIST Mass Spectrometry Data Center
1/CM	ABSORBANCE
550	0.0005983
562	0.0001891
574	0.0003069
586	0.000341
598	0.0002604
610	0.0002077
622	0.0002294
634	0.0001147
646	0.000124
658	0.0001333
670	3.1e-05
682	0.0001302
694	6.51e-05
706	0.000217
718	0.0002635
730	0.0003534
742	0.0004185
754	0.0004991
766	0.0007409
778	0.0010137
790	0.0011563
802	0.0013733
814	0.0011563
826	0.0007936
838	0.00062
850	0.0006262
862	0.0007471
874	0.0008277
886	0.000682
898	0.0005704
910	0.0005673
922	0.0004619
934	0.0003379
946	0.0002604
958	0.0002294
970	0.0003007
982	0.0005456
994	0.0012586
1006	0.0023126
1018	0.0031961
1030	0.0036022
1042	0.0030907
1054	0.0023343
1066	0.0016864
1078	0.0013795
1090	0.0016027
1102	0.0022723
1114	0.0029357
1126	0.002573
1138	0.001829
1150	0.0022878
1162	0.0031062
1174	0.0028055
1186	0.0017856
1198	0.0010168
1210	0.0008401
1222	0.0008897
1234	0.0010292
1246	0.001488
1258	0.0022537
1270	0.0025327
1282	0.0022072
1294	0.0018786
1306	0.0015128
1318	0.0013919
1330	0.001829
1342	0.0026257
1354	0.0036363
1366	0.0040579
1378	0.0040517
1390	0.0037944
1402	0.0025265
1414	0.0021049
1426	0.0019654
1438	0.0024025
1450	0.0041075
1462	0.0054095
1474	0.0039618
1486	0.0018445
1498	0.0009486
1510	0.0005859
1522	0.0004216
1534	0.0003596
1546	0.0003069
1558	0.0002697
1570	0.0003007
1582	0.0002852
1594	0.0002728
1606	0.0003131
1618	0.0003131
1630	0.0003565
1642	0.0004061
1654	0.0005425
1666	0.0008649
1678	0.0014787
1690	0.0028303
1702	0.0073005
1714	0.0155062
1726	0.0144243
1738	0.0051429
1750	0.0017174
1762	0.0008773
1774	0.0004805
1786	0.0002945
1798	0.0002294
1810	0.000186
1822	0.0001302
1834	8.99e-05
1846	7.75e-05
1858	8.68e-05
1870	6.82e-05
1882	7.44e-05
1894	5.58e-05
1906	4.34e-05
1918	4.96e-05
1930	3.41e-05
1942	1.86e-05
1954	2.79e-05
1966	2.48e-05
1978	3.41e-05
1990	6.2e-06
2002	2.79e-05
2014	1.55e-05
2026	2.48e-05
2038	5.27e-05
2050	3.41e-05
2062	4.34e-05
2074	4.65e-05
2086	4.65e-05
2098	4.65e-05
2110	2.48e-05
2122	3.41e-05
2134	4.03e-05
2146	4.34e-05
2158	3.72e-05
2170	4.96e-05
2182	5.27e-05
2194	1.86e-05
2206	6.2e-05
2218	3.1e-05
2230	1.86e-05
2242	4.34e-05
2254	5.58e-05
2266	5.89e-05
2278	6.51e-05
2290	7.44e-05
2302	5.58e-05
2314	6.2e-05
2326	7.44e-05
2338	7.13e-05
2350	6.82e-05
2362	7.75e-05
2374	9.3e-05
2386	0.0001054
2398	8.99e-05
2410	0.0001054
2422	8.06e-05
2434	4.34e-05
2446	4.65e-05
2458	6.82e-05
2470	6.82e-05
2482	6.82e-05
2494	7.13e-05
2506	6.51e-05
2518	5.27e-05
2530	5.89e-05
2542	7.75e-05
2554	7.13e-05
2566	0.0001023
2578	0.0001147
2590	0.0001147
2602	0.0001116
2614	0.0001302
2626	0.0001271
2638	0.0001612
2650	0.0001891
2662	0.000217
2674	0.0002387
2686	0.0002542
2698	0.0002852
2710	0.0003038
2722	0.0003813
2734	0.0004805
2746	0.0006603
2758	0.0006665
2770	0.0006665
2782	0.0007874
2794	0.0009486
2806	0.0011315
2818	0.0013175
2830	0.0016678
2842	0.0023219
2854	0.0035929
2866	0.0068758
2878	0.0123938
2890	0.0144181
2902	0.0118792
2914	0.0121861
2926	0.0167772
2938	0.0218922
2950	0.0212877
2962	0.0254541
2974	0.0305722
2986	0.0168144
2998	0.006758
3010	0.0035712
3022	0.0022816
3034	0.0016926
3046	0.0013423
3058	0.0011191
3070	0.0009703
3082	0.0008215
3094	0.0007471
3106	0.0007068
3118	0.0006448
3130	0.0006014
3142	0.0005115
3154	0.0004805
3166	0.0004216
3178	0.0003503
3190	0.00031
3202	0.0002263
3214	0.0001829
3226	0.0001364
3238	0.0001426
3250	0.0001395
3262	7.13e-05
3274	9.3e-05
3286	7.13e-05
3298	8.06e-05
3310	6.2e-05
3322	7.13e-05
3334	8.37e-05
3346	7.75e-05
3358	0.0001023
3370	8.06e-05
3382	0.0001209
3394	0.0001829
3406	0.0002542
3418	0.0003286
3430	0.0003317
3442	0.0002108
3454	0.0001674
3466	8.68e-05
3478	5.27e-05
3490	4.96e-05
3502	7.75e-05
3514	5.58e-05
3526	4.65e-05
3538	2.17e-05
3550	2.79e-05
3562	4.03e-05
3574	8.06e-05
3586	6.2e-05
3598	7.44e-05
3610	7.44e-05
3622	8.68e-05
3634	8.37e-05
3646	0.0001023
3658	5.27e-05
3670	3.72e-05
3682	0.000124
3694	0.0001085
3706	0.0001178
3718	8.68e-05
3730	0.0001178
3742	0.000124
3754	0.0001302
3766	0.0001426
3778	0.0001333
3790	0.0001984
3802	0.0001395
3814	0.0001488
3826	0.0001178
3838	0.0001178
