Infrared Spectrum: Napropamide
Formula: C 17 H 21 N O 2
CAS: 15299-99-7
State: gas
Instrument: HP-GC/MS/IRD
Origin: NIST Mass Spectrometry Data Center
1/CM	ABSORBANCE
550	0.0026565
562	0.003696
574	0.0031031
586	0.0010626
598	0.0010087
610	0.0013167
622	0.0018403
634	0.0025025
646	0.002387
658	0.0012243
670	9.24e-05
682	0.0001463
694	0.0004158
706	0.0016478
718	0.0033649
730	0.0068684
742	0.0055209
754	0.0109109
766	0.0415723
778	0.0222684
790	0.0280126
802	0.011088
814	0.0030569
826	0.0013321
838	0.0011473
850	0.0018942
862	0.0019096
874	0.002541
886	0.0045738
898	0.0022176
910	0.0028336
922	0.0060214
934	0.0041888
946	0.0022792
958	0.0018865
970	0.0011088
982	0.0013706
994	0.0027104
1006	0.0062832
1018	0.0115192
1030	0.0110957
1042	0.0124817
1054	0.0168014
1066	0.0230307
1078	0.028798
1090	0.0521675
1102	0.075152
1114	0.0375375
1126	0.0196119
1138	0.0101871
1150	0.0142527
1162	0.0195811
1174	0.0174482
1186	0.0129591
1198	0.0103411
1210	0.0193732
1222	0.0297836
1234	0.0533379
1246	0.0348887
1258	0.048587
1270	0.0382382
1282	0.0219989
1294	0.0162624
1306	0.0151382
1318	0.0125741
1330	0.0102025
1342	0.0137214
1354	0.0168476
1366	0.0197736
1378	0.0347193
1390	0.045045
1402	0.0485331
1414	0.0296527
1426	0.0357588
1438	0.0304689
1450	0.0295141
1462	0.0371063
1474	0.0213367
1486	0.0130207
1498	0.0139678
1510	0.0156079
1522	0.0067452
1534	0.0038885
1546	0.0035959
1558	0.0063294
1570	0.0199199
1582	0.0270655
1594	0.0163394
1606	0.0085547
1618	0.0088627
1630	0.0127974
1642	0.0207284
1654	0.0569184
1666	0.0599368
1678	0.0606529
1690	0.0428659
1702	0.0150689
1714	0.007007
1726	0.0045353
1738	0.0033572
1750	0.0025564
1762	0.0021329
1774	0.0015477
1786	0.0012936
1798	0.0014707
1810	0.0013321
1822	0.0017325
1834	0.0015939
1846	0.0008855
1858	0.0005467
1870	0.000385
1882	0.0005082
1894	0.0011319
1906	0.0018326
1918	0.0015708
1930	0.0012551
1942	0.0013398
1954	0.0009317
1966	0.0004389
1978	0.0002541
1990	0.0002464
2002	0.0002387
2014	0.000231
2026	0.0002156
2038	0.000154
2050	0.0001155
2062	0.0001386
2074	0.000231
2086	0.0003388
2098	0.0003542
2110	0.0003157
2122	0.000231
2134	0.0001463
2146	0.0001001
2158	7.7e-05
2170	9.24e-05
2182	7.7e-05
2194	3.85e-05
2206	6.16e-05
2218	0.0001078
2230	0.0001155
2242	0.0001694
2254	0.0001848
2266	0.0001925
2278	0.0002387
2290	0.0002618
2302	0.0003465
2314	0.0004543
2326	0.0004312
2338	0.0003773
2350	0.0003311
2362	0.0003157
2374	0.0002541
2386	0.0002464
2398	0.0003003
2410	0.0003927
2422	0.0004004
2434	0.000308
2446	0.0003003
2458	0.0003696
2470	0.0003619
2482	0.0004081
2494	0.0003542
2506	0.0003696
2518	0.0003619
2530	0.0003773
2542	0.0002772
2554	0.0002618
2566	0.0002156
2578	0.0002002
2590	0.0002464
2602	0.0002772
2614	0.0003003
2626	0.0003157
2638	0.0003927
2650	0.0004312
2662	0.0003927
2674	0.000462
2686	0.0005621
2698	0.0006545
2710	0.0006391
2722	0.0007623
2734	0.00077
2746	0.0008316
2758	0.0007623
2770	0.0008239
2782	0.0009856
2794	0.0012474
2806	0.0015477
2818	0.0019481
2830	0.0024255
2842	0.003003
2854	0.0039655
2866	0.0064218
2878	0.011935
2890	0.0147532
2902	0.0138369
2914	0.0142527
2926	0.0171864
2938	0.0288288
2950	0.0275198
2962	0.0205282
2974	0.0310464
2986	0.0339801
2998	0.0248017
3010	0.0134519
3022	0.0087395
3034	0.0084546
3046	0.0123739
3058	0.0256641
3070	0.0197582
3082	0.0108416
3094	0.0079464
3106	0.0039039
3118	0.0020328
3130	0.0014476
3142	0.0011627
3154	0.0011242
3166	0.0009933
3178	0.0008316
3190	0.0006391
3202	0.0005005
3214	0.000462
3226	0.0003157
3238	0.0002464
3250	0.0002079
3262	0.000231
3274	0.0002464
3286	0.000308
3298	0.0004312
3310	0.0005082
3322	0.0005082
3334	0.0004389
3346	0.0004697
3358	0.000385
3370	0.0002541
3382	0.0001694
3394	0.0001155
3406	5.39e-05
3418	6.93e-05
3430	1.54e-05
3442	3.85e-05
3454	5.39e-05
3466	4.62e-05
3478	2.31e-05
3490	4.62e-05
3502	3.08e-05
3514	7.7e-06
3526	4.62e-05
3538	0
3550	7.7e-05
3562	7.7e-06
3574	6.93e-05
3586	6.16e-05
3598	8.47e-05
3610	3.85e-05
3622	6.93e-05
3634	9.24e-05
3646	5.39e-05
3658	0.0001232
3670	9.24e-05
3682	0.0001309
3694	7.7e-05
3706	8.47e-05
3718	0.0001463
3730	4.62e-05
3742	0.0001694
3754	0.0001155
3766	7.7e-05
3778	0.000154
3790	0.0002002
3802	0.0002079
3814	0.0001848
3826	0.0001617
3838	0.000308
