Infrared Spectrum: Benzoic acid, p-(trimethylsilyl)-,
Formula: C10 H14 O2 Si
CAS: 15290-29-6
State: SOLID (OIL MULL)
Melting point: 117 C
Class: COBLENTZ III
Instrument: BAIRD (GRATING)
Instrument parameters: NaCl PRISM
Resolution: 2
Origin: WYANDOTTE CHEMICALS CORP.
1/CM	TRANSMITTANCE
625	0.5186
634	0.6587
643	0.7276
652	0.7669
661	0.6989
670	0.772
679	0.6927
688	0.3666
697	0.2201
706	0.3705
715	0.6882
724	0.5489
733	0.3775
742	0.0587
751	0.1364
760	0.2729
769	0.5762
778	0.6759
787	0.6136
796	0.4955
805	0.2248
814	0.2
823	0.1312
832	0.0267
841	0.0264
850	0.0288
859	0.0463
868	0.2067
877	0.4583
886	0.597
895	0.6639
904	0.6778
913	0.6835
922	0.6016
931	0.4501
940	0.2734
949	0.2193
958	0.4295
967	0.6745
976	0.6987
985	0.6371
994	0.8035
1003	0.8302
1012	0.83
1021	0.76
1030	0.7753
1039	0.801
1048	0.8177
1057	0.8441
1066	0.8348
1075	0.7909
1084	0.6948
1093	0.5687
1102	0.0622
1111	0.4943
1120	0.7437
1129	0.8358
1138	0.5305
1147	0.801
1156	0.9154
1165	0.8604
1174	0.7948
1183	0.7169
1192	0.4348
1201	0.5789
1210	0.7358
1219	0.6997
1228	0.6425
1237	0.5511
1246	0.3167
1255	0.108
1264	0.1932
1273	0.1945
1282	0.2352
1291	0.0638
1300	0.0268
1309	0.067
1318	0.2744
1327	0.1068
1336	0.2651
1345	0.3798
1354	0.5426
1363	0.518
1372	0.4551
1381	0.3349
1390	0.1988
1399	0.1502
1408	0.3714
1417	0.2029
1426	0.079
1435	0.0584
1444	0.126
1453	0.2016
1462	0.1711
1471	0.1367
1480	0.1286
1489	0.3526
1498	0.6322
1507	0.7004
1516	0.4333
1525	0.5227
1534	0.7422
1543	0.7521
1552	0.6891
1561	0.5733
1570	0.2578
1579	0.4569
1588	0.7066
1597	0.7005
1606	0.648
1615	0.3337
1624	0.4261
1633	0.5381
1642	0.5198
1651	0.4907
1660	0.4169
1669	0.3245
1678	0.1328
1687	0.0525
1696	0.033
1705	0.0319
1714	0.0507
1723	0.1981
1732	0.5309
1741	0.6226
1750	0.7259
1759	0.8327
1768	0.8799
1777	0.891
1786	0.8665
1795	0.843
1804	0.8084
1813	0.7774
1822	0.7562
1831	0.8039
1840	0.8577
1849	0.8596
1858	0.8547
1867	0.8403
1876	0.8271
1885	0.837
1894	0.8336
1903	0.8528
1912	0.8708
1921	0.854
1930	0.8043
1939	0.7852
1948	0.862
1957	0.9033
1966	0.9039
1975	0.9065
1984	0.9253
1993	0.9328
2002	0.9339
2011	0.937
2020	0.9419
2029	0.9471
2038	0.9461
2047	0.9344
2056	0.9175
2065	0.8947
2074	0.8646
2083	0.8427
2092	0.8312
2101	0.8419
2110	0.8596
2119	0.8601
2128	0.8582
2137	0.8522
2146	0.8441
2155	0.8386
2164	0.8367
2173	0.8353
2182	0.8333
2191	0.8241
2200	0.8116
2209	0.7969
2218	0.7839
2227	0.7726
2236	0.7635
2245	0.7555
2254	0.7477
2263	0.733
2272	0.716
2281	0.6991
2290	0.6824
2299	0.6658
2308	0.6494
2317	0.6301
2326	0.6079
2335	0.5929
2344	0.5802
2353	0.5731
2362	0.5704
2371	0.5657
2380	0.5513
2389	0.5338
2398	0.5161
2407	0.5009
2416	0.486
2425	0.47
2434	0.4536
2443	0.4326
2452	0.4118
2461	0.391
2470	0.3649
2479	0.324
2488	0.302
2497	0.2775
2506	0.252
2515	0.2313
2524	0.2176
2533	0.2155
2542	0.216
2551	0.2221
2560	0.2303
2569	0.2597
2578	0.2729
2587	0.2713
2596	0.2676
2605	0.2623
2614	0.254
2623	0.2457
2632	0.2374
2641	0.2282
2650	0.2186
2659	0.2079
2668	0.2007
2677	0.1982
2686	0.2049
2695	0.2286
2704	0.2485
2713	0.2626
2722	0.2683
2731	0.2712
2740	0.2725
2749	0.2705
2758	0.2614
2767	0.249
2776	0.2358
2785	0.2171
2794	0.1945
2803	0.1449
2812	0.0941
2821	0.0713
2830	0.0535
2839	0.0454
2848	0.0392
2857	0.0346
2866	0.0328
2875	0.031
2884	0.0298
2893	0.0287
2902	0.0279
2911	0.0276
2920	0.0273
2929	0.0271
2938	0.0271
2947	0.0271
2956	0.0271
2965	0.0276
2974	0.029
2983	0.0322
2992	0.0365
3001	0.0469
3010	0.0612
3019	0.077
3028	0.0914
3037	0.1056
3046	0.1213
3055	0.1371
3064	0.1527
3073	0.1683
3082	0.1837
3091	0.1992
3100	0.2144
3109	0.2385
3118	0.2528
3127	0.271
3136	0.2933
3145	0.3112
3154	0.3331
3163	0.3602
3172	0.3764
3181	0.3908
3190	0.4048
3199	0.4455
3208	0.4659
3217	0.4849
3226	0.5213
3235	0.5563
3244	0.5848
3253	0.6024
3262	0.6196
3271	0.6355
3280	0.6522
3289	0.6701
3298	0.6848
3307	0.6974
3316	0.7111
3325	0.7266
3334	0.7451
3343	0.7648
3352	0.7861
3361	0.7944
3370	0.7994
3379	0.8031
3388	0.807
3397	0.8109
3406	0.8148
3415	0.8198
3424	0.8247
3433	0.8297
3442	0.8363
3451	0.8428
3460	0.8484
3469	0.8539
3478	0.8579
3487	0.8615
3496	0.8622
3505	0.8626
3514	0.863
3523	0.8632
3532	0.8633
3541	0.8634
3550	0.8636
3559	0.8638
3568	0.864
3577	0.8644
3586	0.8649
3595	0.8654
3604	0.866
3613	0.8666
3622	0.8671
3631	0.8676
3640	0.868
3649	0.8685
3658	0.869
3667	0.8692
3676	0.8688
3685	0.8684
3694	0.8683
3703	0.871
3712	0.8734
3721	0.8754
3730	0.8775
3739	0.8797
3748	0.8818
3757	0.883
3766	0.8841
3775	0.8849
3784	0.8846
3793	0.8824
3802	0.8793
3811	0.8757
3820	0.8694
3829	0.8644
3838	0.8609
3847	0.8581
3856	0.8568
3865	0.8555
3874	0.8556
3883	0.856
3892	0.8564
3901	0.857
3910	0.8572
3919	0.8562
3928	0.8544
3937	0.8513
3946	0.848
3955	0.8447
3964	0.8418
3973	0.8404
3982	0.8394
3991	0.8384
4000	0.8375
