Infrared Spectrum: Flavone-3-rutinoside, 3,3',4',5,7-pentahydroxy
Formula: C27 H30 O16
CAS: 153-18-4
State: SOLID (NUJOL MULL)
Melting point: 214-215 C DECOMP.
Class: COBLENTZ III
Instrument: PERKIN-ELMER 21 (GRATING)
Resolution: 2
Origin: THE SQUIBB INSTITUTE FOR MEDICAL RESEARCH
1/CM	TRANSMITTANCE
663	0.4713
672	0.4926
681	0.5006
690	0.498
699	0.525
708	0.4705
717	0.4864
726	0.4661
735	0.5259
744	0.5203
753	0.5462
762	0.5772
771	0.6134
780	0.6041
789	0.501
798	0.3876
807	0.2944
816	0.433
825	0.4739
834	0.4758
843	0.5966
852	0.6472
861	0.7352
870	0.7053
879	0.5182
888	0.6637
897	0.711
906	0.6791
915	0.6879
924	0.7261
933	0.6664
942	0.5308
951	0.7076
960	0.6445
969	0.3411
978	0.4348
987	0.3706
996	0.1956
1005	0.1509
1014	0.1304
1023	0.2057
1032	0.2503
1041	0.1477
1050	0.1694
1059	0.1054
1068	0.1249
1077	0.1674
1086	0.1595
1095	0.1842
1104	0.2472
1113	0.2055
1122	0.1791
1131	0.182
1140	0.2013
1149	0.205
1158	0.2065
1167	0.1963
1176	0.2851
1185	0.2772
1194	0.1785
1203	0.1193
1212	0.1939
1221	0.2912
1230	0.2629
1239	0.2769
1248	0.3374
1257	0.3178
1266	0.2489
1275	0.1605
1284	0.1248
1293	0.104
1302	0.1411
1311	0.2035
1320	0.2837
1329	0.3122
1338	0.2589
1347	0.2096
1356	0.1309
1365	0.1255
1374	0.2378
1383	0.2982
1392	0.3032
1401	0.3146
1410	0.3272
1419	0.3306
1428	0.3274
1437	0.3173
1446	0.2977
1455	0.2971
1464	0.3139
1473	0.3196
1482	0.3104
1491	0.2036
1500	0.1312
1509	0.1413
1518	0.27
1527	0.4494
1536	0.4261
1545	0.363
1554	0.3012
1563	0.2869
1572	0.2761
1581	0.288
1590	0.2173
1599	0.1012
1608	0.0969
1617	0.2359
1626	0.4057
1635	0.3951
1644	0.3208
1653	0.1809
1662	0.1321
1671	0.3415
1680	0.6233
1689	0.7393
1698	0.814
1707	0.8544
1716	0.8732
1725	0.8849
1734	0.8923
1743	0.8964
1752	0.8992
1761	0.9039
1770	0.9126
1779	0.918
1788	0.9207
1797	0.9221
1806	0.9235
1815	0.9249
1824	0.9254
1833	0.9253
1842	0.9249
1851	0.9226
1860	0.9207
1869	0.921
1878	0.9231
1887	0.9239
1896	0.9228
1905	0.9208
1914	0.9177
1923	0.9146
1932	0.9118
1941	0.9098
1950	0.9074
1959	0.9034
1968	0.9001
1977	0.8976
1986	0.8958
1995	0.8945
2004	0.8934
2013	0.8915
2022	0.8898
2031	0.8879
2040	0.8851
2049	0.8822
2058	0.8794
2067	0.8752
2076	0.8719
2085	0.8692
2094	0.8677
2103	0.867
2112	0.8648
2121	0.8613
2130	0.858
2139	0.8578
2148	0.8577
2157	0.8577
2166	0.8574
2175	0.857
2184	0.8566
2193	0.8561
2202	0.8555
2211	0.8547
2220	0.8531
2229	0.851
2238	0.8486
2247	0.8458
2256	0.8431
2265	0.8395
2274	0.8348
2283	0.8296
2292	0.8237
2301	0.819
2310	0.8155
2319	0.8119
2328	0.8084
2337	0.8052
2346	0.8028
2355	0.8013
2364	0.8
2373	0.7989
2382	0.7972
2391	0.7938
2400	0.788
2409	0.7818
2418	0.7743
2427	0.7654
2436	0.7563
2445	0.7487
2454	0.7418
2463	0.7356
2472	0.7294
2481	0.7243
2490	0.7194
2499	0.7147
2508	0.7106
2517	0.7067
2526	0.7027
2535	0.6983
2544	0.6932
2553	0.6877
2562	0.6822
2571	0.6738
2580	0.6649
2589	0.6555
2598	0.6465
2607	0.6384
2616	0.6298
2625	0.6201
2634	0.6104
2643	0.6009
2652	0.5916
2661	0.5825
2670	0.5722
2679	0.56
2688	0.5526
2697	0.548
2706	0.5435
2715	0.5391
2724	0.5349
2733	0.5309
2742	0.5272
2751	0.5235
2760	0.5183
2769	0.5123
2778	0.5016
2787	0.4898
2796	0.4739
2805	0.4505
2814	0.4331
2823	0.3986
2832	0.3602
2841	0.3527
2850	0.3497
2859	0.3474
2868	0.3455
2877	0.3444
2886	0.3433
2895	0.342
2904	0.3407
2913	0.3395
2922	0.3382
2931	0.3371
2940	0.336
2949	0.3348
2958	0.3335
2967	0.3313
2976	0.3248
2985	0.3177
2994	0.3106
3003	0.3014
3012	0.2913
3021	0.2809
3030	0.2704
3039	0.2598
3048	0.2475
3057	0.235
3066	0.2227
3075	0.2109
3084	0.1991
3093	0.1878
3102	0.1766
3111	0.1677
3120	0.1607
3129	0.154
3138	0.1481
3147	0.1423
3156	0.1364
3165	0.1306
3174	0.1248
3183	0.1206
3192	0.1169
3201	0.1133
3210	0.1103
3219	0.1083
3228	0.1064
3237	0.1045
3246	0.103
3255	0.1015
3264	0.1001
3273	0.0994
3282	0.099
3291	0.0987
3300	0.0987
3309	0.0988
3318	0.0989
3327	0.0993
3336	0.0996
3345	0.1
3354	0.1004
3363	0.101
3372	0.1017
3381	0.1023
3390	0.103
3399	0.1038
3408	0.1048
3417	0.1057
3426	0.107
3435	0.1089
3444	0.1112
3453	0.118
3462	0.1261
3471	0.1384
3480	0.1704
3489	0.1984
3498	0.2191
3507	0.2469
3516	0.2766
3525	0.3061
3534	0.3353
3543	0.3645
3552	0.3935
3561	0.4224
3570	0.4511
3579	0.4797
3588	0.5081
3597	0.5365
3606	0.5609
3615	0.5797
3624	0.6022
3633	0.6304
3642	0.7382
3651	0.7566
3660	0.7896
3669	0.7972
3678	0.7993
3687	0.8001
3696	0.7999
3705	0.7987
3714	0.797
3723	0.7952
3732	0.7933
3741	0.7915
3750	0.7897
3759	0.7876
3768	0.7856
3777	0.7836
3786	0.7816
3795	0.7793
3804	0.7769
3813	0.7745
3822	0.7721
3831	0.7698
3840	0.7674
3849	0.765
3858	0.7628
3867	0.7604
3876	0.758
3885	0.7556
3894	0.7532
3903	0.7507
3912	0.7484
3921	0.7466
3930	0.7447
3939	0.7429
3948	0.7411
3957	0.7393
3966	0.7377
3975	0.7365
3984	0.7352
3993	0.7339
