Infrared Spectrum: FLUOREN-2-AMINE
Formula: C13 H11 N
CAS: 153-78-6
State: SOLUTION (1% CCl4 FOR 2-7.6, 1% CS2 FOR 7.6-15.8 MICRON)
Class: COBLENTZ III
Instrument: BAIRD (PRISM)
Instrument parameters: NaCl PRISM
Sampling: TRANSMISSION
Path length: 0.13 CM, 0.13 CM
Resolution: 2
Origin: DOW CHEMICAL COMPANY
MICROMETERS	TRANSMITTANCE
2	0.925
2.03901	0.929
2.07802	0.93
2.11703	0.927
2.15603	0.921
2.19504	0.926
2.23405	0.931
2.27306	0.931
2.31207	0.926
2.35108	0.924
2.39009	0.925
2.42909	0.924
2.4681	0.915
2.50711	0.918
2.54612	0.923
2.58513	0.923
2.62414	0.924
2.66314	0.925
2.70215	0.924
2.74116	0.925
2.78017	0.926
2.81918	0.919
2.85819	0.82
2.8972	0.703
2.9362	0.744
2.97521	0.736
3.01422	0.936
3.05323	0.926
3.09224	0.91
3.13125	0.884
3.17026	0.909
3.20926	0.888
3.24827	0.769
3.28728	0.59
3.32629	0.537
3.3653	0.915
3.40431	0.831
3.44331	0.727
3.48232	0.919
3.52133	0.935
3.56034	0.916
3.59935	0.913
3.63836	0.946
3.67737	0.946
3.71637	0.945
3.75538	0.945
3.79439	0.94
3.8334	0.921
3.87241	0.952
3.91142	0.952
3.95043	0.956
3.98943	0.957
4.02844	0.962
4.06745	0.951
4.10646	0.947
4.14547	0.932
4.18448	0.904
4.22348	0.88
4.26249	0.832
4.3015	0.777
4.34051	0.738
4.37952	0.742
4.41853	0.851
4.45754	0.908
4.49654	0.936
4.53555	0.949
4.57456	0.949
4.61357	0.954
4.65258	0.952
4.69159	0.952
4.7306	0.951
4.7696	0.956
4.80861	0.949
4.84762	0.94
4.88663	0.904
4.92564	0.902
4.96465	0.88
5.00365	0.869
5.04266	0.886
5.08167	0.898
5.12068	0.902
5.15969	0.865
5.1987	0.893
5.23771	0.897
5.27671	0.879
5.31572	0.846
5.35473	0.818
5.39374	0.789
5.43275	0.831
5.47176	0.837
5.51077	0.86
5.54977	0.86
5.58878	0.89
5.62779	0.898
5.6668	0.912
5.70581	0.914
5.74482	0.914
5.78383	0.891
5.82283	0.857
5.86184	0.854
5.90085	0.852
5.93986	0.831
5.97887	0.8
6.01788	0.742
6.05688	0.654
6.09589	0.394
6.1349	0.174
6.17391	0.051
6.21292	0.057
6.25193	0.092
6.29094	0.036
6.32994	0.034
6.36895	0.037
6.40796	0.04
6.44697	0.036
6.48598	0.037
6.52499	0.041
6.564	0.048
6.603	0.062
6.64201	0.091
6.68102	0.125
6.72003	0.225
6.75904	0.33
6.79805	0.38
6.83705	0.269
6.87606	0.389
6.91507	0.505
6.95408	0.555
6.99309	0.737
7.0321	0.785
7.07111	0.731
7.11011	0.51
7.14912	0.748
7.18813	0.868
7.22714	0.871
7.26615	0.855
7.30516	0.818
7.34417	0.769
7.38317	0.582
7.42218	0.54
7.46119	0.642
7.5002	0.724
7.53921	0.661
7.57822	0.371
7.61722	0.272
7.65623	0.601
7.69524	0.724
7.73425	0.761
7.77326	0.601
7.81227	0.277
7.85128	0.24
7.89028	0.622
7.92929	0.84
7.9683	0.898
8.00731	0.924
8.04632	0.921
8.08533	0.891
8.12434	0.853
8.16334	0.722
8.20235	0.621
8.24136	0.892
8.28037	0.898
8.31938	0.797
8.35839	0.725
8.3974	0.848
8.4364	0.82
8.47541	0.748
8.51442	0.8
8.55343	0.874
8.59244	0.866
8.63145	0.815
8.67045	0.799
8.70946	0.799
8.74847	0.73
8.78748	0.698
8.82649	0.743
8.8655	0.584
8.90451	0.379
8.94351	0.405
8.98252	0.619
9.02153	0.791
9.06054	0.813
9.09955	0.77
9.13856	0.768
9.17757	0.848
9.21657	0.871
9.25558	0.879
9.29459	0.881
9.3336	0.893
9.37261	0.903
9.41162	0.916
9.45062	0.92
9.48963	0.923
9.52864	0.923
9.56765	0.92
9.60666	0.915
9.64567	0.902
9.68468	0.87
9.72368	0.765
9.76269	0.689
9.8017	0.862
9.84071	0.887
9.87972	0.886
9.91873	0.886
9.95774	0.874
9.99674	0.89
10.0358	0.932
10.0748	0.948
10.1138	0.952
10.1528	0.952
10.1918	0.948
10.2308	0.94
10.2698	0.932
10.3088	0.927
10.3478	0.923
10.3868	0.92
10.4258	0.915
10.4648	0.898
10.5039	0.833
10.5429	0.645
10.5819	0.582
10.6209	0.826
10.6599	0.841
10.6989	0.799
10.7379	0.752
10.7769	0.749
10.8159	0.794
10.8549	0.804
10.8939	0.803
10.9329	0.786
10.972	0.782
11.011	0.788
11.05	0.776
11.089	0.746
11.128	0.711
11.167	0.655
11.206	0.599
11.245	0.522
11.284	0.432
11.323	0.362
11.362	0.29
11.401	0.241
11.4401	0.202
11.4791	0.17
11.5181	0.137
11.5571	0.113
11.5961	0.087
11.6351	0.064
11.6741	0.05
11.7131	0.046
11.7521	0.052
11.7911	0.056
11.8301	0.062
11.8692	0.105
11.9082	0.25
11.9472	0.38
11.9862	0.467
12.0252	0.52
12.0642	0.534
12.1032	0.533
12.1422	0.518
12.1812	0.459
12.2202	0.365
12.2592	0.24
12.2982	0.14
12.3373	0.19
12.3763	0.405
12.4153	0.528
12.4543	0.584
12.4933	0.609
12.5323	0.622
12.5713	0.622
12.6103	0.615
12.6493	0.601
12.6883	0.599
12.7273	0.59
12.7663	0.594
12.8054	0.6
12.8444	0.608
12.8834	0.604
12.9224	0.578
12.9614	0.534
13.0004	0.455
13.0394	0.306
13.0784	0.131
13.1174	0.031
13.1564	0.036
13.1954	0.156
13.2344	0.33
13.2735	0.443
13.3125	0.5
13.3515	0.526
13.3905	0.55
13.4295	0.556
13.4685	0.551
13.5075	0.531
13.5465	0.479
13.5855	0.431
13.6245	0.339
13.6635	0.197
13.7026	0.07
13.7416	0.02
13.7806	0.068
13.8196	0.206
13.8586	0.332
13.8976	0.415
13.9366	0.448
13.9756	0.456
14.0146	0.461
14.0536	0.463
14.0926	0.462
14.1316	0.459
14.1707	0.452
14.2097	0.451
14.2487	0.445
14.2877	0.442
14.3267	0.433
14.3657	0.426
14.4047	0.421
14.4437	0.412
14.4827	0.407
14.5217	0.401
14.5607	0.4
14.5997	0.387
14.6388	0.378
14.6778	0.363
14.7168	0.352
14.7558	0.336
14.7948	0.318
14.8338	0.304
14.8728	0.3
14.9118	0.293
14.9508	0.29
14.9898	0.28
15.0288	0.262
15.0678	0.247
15.1069	0.23
15.1459	0.217
15.1849	0.202
15.2239	0.191
15.2629	0.178
15.3019	0.169
15.3409	0.167
15.3799	0.163
15.4189	0.164
15.4579	0.164
15.4969	0.166
15.536	0.172
15.575	0.184
15.614	0.189
15.653	0.195
15.692	0.2
15.731	0.203
15.77	0.206
15.809	0.207
15.848	0.21
