Infrared Spectrum: 1,1-Diphenylpropane
Formula: C 15 H 16
CAS: 1530-03-6
State: gas
Origin: EPA-IR VAPOR PHASE LIBRARY
1/CM	ABSORBANCE
549.8	0.002679
559.445	0.002369
569.09	0.002709
578.734	0.005689
588.379	0.007469
598.024	0.003539
607.669	0.002669
617.313	0.003719
626.958	0.004889
636.603	0.004649
646.248	0.002959
655.893	0.004049
665.537	0.006369
675.182	0.009649
684.827	0.020189
694.472	0.054709
704.116	0.048799
713.761	0.021519
723.406	0.016529
733.051	0.018969
742.695	0.021749
752.34	0.019549
761.985	0.018049
771.63	0.012179
781.275	0.004649
790.919	0.003219
800.564	0.003129
810.209	0.002509
819.854	0.001769
829.498	0.001919
839.143	0.002329
848.788	0.002899
858.433	0.001919
868.078	0.001879
877.722	0.0015785
887.367	0.001809
897.012	0.003129
906.657	0.003159
916.301	0.002229
925.946	0.001679
935.591	0.0012689
945.236	0.0010603
954.88	0.0010249
964.525	0.0014493
974.17	0.0008122
983.815	0.0011834
993.46	0.001399
1003.1	0.001939
1012.75	0.002499
1022.39	0.006549
1032.04	0.009449
1041.68	0.003219
1051.33	0.002939
1060.97	0.004049
1070.62	0.003039
1080.26	0.004029
1089.91	0.003209
1099.55	0.002699
1109.2	0.004659
1118.84	0.004029
1128.49	0.002239
1138.13	0.001699
1147.78	0.0011081
1157.42	0.002129
1167.07	0.001799
1176.71	0.002129
1186.36	0.001969
1196	0.001719
1205.64	0.002539
1215.29	0.003209
1224.93	0.002179
1234.58	0.002699
1244.22	0.002409
1253.87	0.002729
1263.51	0.002419
1273.16	0.002949
1282.8	0.002639
1292.45	0.002659
1302.09	0.003359
1311.74	0.003629
1321.38	0.003869
1331.03	0.003439
1340.67	0.003209
1350.32	0.003219
1359.96	0.002779
1369.61	0.003009
1379.25	0.004239
1388.9	0.004649
1398.54	0.002549
1408.18	0.002219
1417.83	0.002699
1427.47	0.003109
1437.12	0.006079
1446.76	0.011859
1456.41	0.012989
1466.05	0.009989
1475.7	0.008259
1485.34	0.016089
1494.99	0.024119
1504.63	0.010109
1514.28	0.004029
1523.92	0.002819
1533.57	0.002599
1543.21	0.002219
1552.86	0.002189
1562.5	0.002329
1572.15	0.003769
1581.79	0.007189
1591.44	0.012219
1601.08	0.013959
1610.73	0.007369
1620.37	0.003239
1630.01	0.002269
1639.66	0.001829
1649.3	0.001779
1658.95	0.001759
1668.59	0.001969
1678.24	0.001669
1687.88	0.0014478
1697.53	0.0014292
1707.17	0.0015439
1716.82	0.001562
1726.46	0.001799
1736.11	0.001979
1745.75	0.001909
1755.4	0.001619
1765.04	0.001649
1774.69	0.002189
1784.33	0.002969
1793.98	0.004419
1803.62	0.003109
1813.27	0.001919
1822.91	0.001779
1832.55	0.0014415
1842.2	0.001599
1851.84	0.001949
1861.49	0.002659
1871.13	0.002899
1880.78	0.002679
1890.42	0.002219
1900.07	0.001879
1909.71	0.001709
1919.36	0.001989
1929	0.002739
1938.65	0.003729
1948.29	0.003639
1957.94	0.002759
1967.58	0.0013532
1977.23	0.001182
1986.87	0.0009919
1996.52	0.0007928
2006.16	0.0007507
2015.81	0.0008731
2025.45	0.0008393
2035.1	0.0007587
2044.74	0.0007865
2054.38	0.0007985
2064.03	0.00058477
2073.67	0.0005662
2083.32	0.0009042
2092.96	0.0008896
2102.61	0.000484
2112.25	0.00060384
2121.9	0.0007549
2131.54	0.0007989
2141.19	0.0007222
2150.83	0.0005292
2160.48	0.0006963
2170.12	0.0007267
2179.77	0.0008194
2189.41	0.0008277
2199.06	0.0007768
2208.7	0.0008366
2218.35	0.0008423
2227.99	0.0008585
2237.64	0.0007221
2247.28	0.0009115
2256.92	0.0007188
2266.57	0.0008159
2276.21	0.0008056
2285.86	0.0009027
2295.5	0.0009459
2305.15	0.0008545
2314.79	0.0012964
2324.44	0.0006929
2334.08	0.0010483
2343.73	0.0011577
2353.37	0.0010158
2363.02	0.0007962
2372.66	0.001116
2382.31	0.0008395
2391.95	0.0008793
2401.6	0.0010363
2411.24	0.0009774
2420.89	0.0008162
2430.53	0.0010047
2440.18	0.0009907
2449.82	0.0008422
2459.47	0.0009931
2469.11	0.0009523
2478.75	0.0007366
2488.4	0.0009914
2498.04	0.0007136
2507.69	0.0008552
2517.33	0.0008912
2526.98	0.00065915
2536.62	0.0009826
2546.27	0.00065426
2555.91	0.0009413
2565.56	0.0011447
2575.2	0.0009067
2584.85	0.001266
2594.49	0.0008315
2604.14	0.0011338
2613.78	0.0011501
2623.43	0.0007899
2633.07	0.0010394
2642.72	0.0009745
2652.36	0.0010812
2662.01	0.0008668
2671.65	0.0007482
2681.29	0.0008494
2690.94	0.0010612
2700.58	0.0009893
2710.23	0.000974
2719.87	0.0009209
2729.52	0.0011828
2739.16	0.0013912
2748.81	0.001669
2758.45	0.001272
2768.1	0.0014409
2777.74	0.0014001
2787.39	0.001659
2797.03	0.001919
2806.68	0.001979
2816.32	0.0014989
2825.97	0.002039
2835.61	0.002509
2845.26	0.003029
2854.9	0.004329
2864.55	0.006879
2874.19	0.015799
2883.84	0.024949
2893.48	0.018009
2903.12	0.010639
2912.77	0.009539
2922.41	0.012789
2932.06	0.025649
2941.7	0.033859
2951.35	0.022849
2960.99	0.024729
2970.64	0.036029
2980.28	0.027689
2989.93	0.011409
2999.57	0.008159
3009.22	0.010629
3018.86	0.018319
3028.51	0.032829
3038.15	0.030499
3047.8	0.021759
3057.44	0.025289
3067.09	0.042519
3076.73	0.035209
3086.38	0.023249
3096.02	0.016939
3105.67	0.010889
3115.31	0.006429
3124.95	0.003669
3134.6	0.002519
3144.24	0.001859
3153.89	0.001849
3163.53	0.001599
3173.18	0.0011607
3182.82	0.0010158
3192.47	0.00065596
3202.11	0.0007925
3211.76	0.0008701
3221.4	0.0010669
3231.05	0.0008369
3240.69	0.0008679
3250.34	0.0008266
3259.98	0.00064792
3269.63	0.000324
3279.27	0.0011141
3288.92	0.0008238
3298.56	0.00058427
3308.21	0.0007624
3317.85	0.0008258
3327.49	0.00067744
3337.14	0.000281
3346.78	0.000391
3356.43	0.0009851
3366.07	0.000378
3375.72	0.000856
3385.36	0.0008279
3395.01	0.000477
3404.65	0.001042
3414.3	0.00061181
3423.94	0.000591875
3433.59	0.0011813
3443.23	0.000403
3452.88	0.0009514
3462.52	0.0009528
3472.17	0.0009377
3481.81	0.0011209
3491.46	0.0005107
3501.1	0.000388
3510.75	0.0007525
3520.39	0.000141
3530.04	0.0007023
3539.68	0.000794
3549.32	0.0006893
3558.97	8.6e-05
3568.61	0.0009624
3578.26	0.0007334
3587.9	0.00064865
3597.55	0.0007709
3607.19	0.000403
3616.84	0.0005746
3626.48	0.001659
3636.13	0.000506
3645.77	0.0006198
3655.42	0.0011042
3665.06	0.00044
3674.71	0.000173
3684.35	0.0005196
3694	0.0013222
3703.64	0.0007331
3713.29	0.000501
3722.93	0.0009363
3732.58	0.000487
3742.22	0.0009107
3751.86	0.0009264
3761.51	0.0008585
3771.15	0.000535
3780.8	0.0011614
3790.44	0.0007551
3800.09	0.001035
3809.73	0.0008091
3819.38	0.0012757
3829.02	0.000178
3838.67	0.0005163
3848.31	0.00062881
3857.96	0
3867.6	0.000919
3877.25	0.0009148
3886.89	6.9e-05
3896.54	0.0012442
3906.18	0.0007229
3915.83	0.0011545
3925.47	0.000431
3935.12	0.0008282
3944.76	0.0006322
3954.41	0.00064546
3964.05	0.0011203
3973.69	0.0012417
3983.34	0.0007965
3992.98	0.0010134
