Infrared Spectrum: RHODANINE, 5-CINNAMYLIDENE-
Formula: C12 H9 N O S2
CAS: 15328-87-7
State: SOLID (KBr PELLET)
Melting point: 118-120 C
Class: COBLENTZ
Instrument: Not specified, most likely a prism, grating, or hybrid spectrometer.
Sampling: TRANSMISSION
Resolution: 4
Origin: TENNESSEE EASTMAN COMPANY, RESEARCH LABORATORIES
MICROMETERS	TRANSMITTANCE
2.02	0.541
2.0596	0.548
2.09921	0.563
2.13881	0.574
2.17841	0.584
2.21801	0.601
2.25762	0.607
2.29722	0.617
2.33682	0.631
2.37643	0.637
2.41603	0.646
2.45563	0.652
2.49523	0.661
2.53484	0.671
2.57444	0.677
2.61404	0.687
2.65365	0.694
2.69325	0.699
2.73285	0.697
2.77245	0.631
2.81206	0.596
2.85166	0.569
2.89126	0.549
2.93087	0.544
2.97047	0.571
3.01007	0.601
3.04967	0.584
3.08928	0.471
3.12888	0.322
3.16848	0.227
3.20809	0.191
3.24769	0.157
3.28729	0.247
3.32689	0.368
3.3665	0.445
3.4061	0.438
3.4457	0.5
3.48531	0.342
3.52491	0.534
3.56451	0.667
3.60411	0.702
3.64372	0.712
3.68332	0.715
3.72292	0.747
3.76252	0.78
3.80213	0.787
3.84173	0.789
3.88133	0.815
3.92094	0.835
3.96054	0.843
4.00014	0.845
4.03974	0.83
4.07935	0.838
4.11895	0.857
4.15855	0.865
4.19816	0.875
4.23776	0.878
4.27736	0.87
4.31696	0.868
4.35657	0.87
4.39617	0.882
4.43577	0.892
4.47538	0.905
4.51498	0.921
4.55458	0.925
4.59418	0.926
4.63379	0.928
4.67339	0.931
4.71299	0.935
4.7526	0.943
4.7922	0.948
4.8318	0.948
4.8714	0.943
4.91101	0.943
4.95061	0.943
4.99021	0.948
5.02982	0.955
5.06942	0.956
5.10902	0.953
5.14862	0.94
5.18823	0.953
5.22783	0.965
5.26743	0.961
5.30704	0.941
5.34664	0.946
5.38624	0.968
5.42584	0.968
5.46545	0.955
5.50505	0.94
5.54465	0.933
5.58426	0.913
5.62386	0.911
5.66346	0.9
5.70306	0.81
5.74267	0.574
5.78227	0.302
5.82187	0.107
5.86148	0.039
5.90108	0.21
5.94068	0.367
5.98028	0.591
6.01989	0.722
6.05949	0.769
6.09909	0.775
6.1387	0.777
6.1783	0.697
6.2179	0.127
6.2575	0.21
6.29711	0.156
6.33671	0.056
6.37631	0.42
6.41592	0.664
6.45552	0.782
6.49512	0.848
6.53472	0.858
6.57433	0.853
6.61393	0.837
6.65353	0.815
6.69313	0.759
6.73274	0.737
6.77234	0.707
6.81194	0.664
6.85155	0.519
6.89115	0.149
6.93075	0.041
6.97035	0.071
7.00996	0.284
7.04956	0.485
7.08916	0.598
7.12877	0.676
7.16837	0.759
7.20797	0.792
7.24757	0.797
7.28718	0.802
7.32678	0.805
7.36638	0.807
7.40599	0.764
7.44559	0.666
7.48519	0.779
7.52479	0.719
7.5644	0.747
7.604	0.503
7.6436	0.325
7.68321	0.382
7.72281	0.348
7.76241	0.481
7.80201	0.598
7.84162	0.654
7.88122	0.614
7.92082	0.463
7.96043	0.204
8.00003	0.393
8.03963	0.647
8.07923	0.682
8.11884	0.609
8.15844	0.333
8.19804	0.219
8.23765	0.224
8.27725	0.099
8.31685	0.044
8.35645	0.028
8.39606	0.018
8.43566	0.019
8.47526	0.096
8.51487	0.294
8.55447	0.284
8.59407	0.121
8.63367	0.076
8.67328	0.071
8.71288	0.154
8.75248	0.403
8.79209	0.569
8.83169	0.674
8.87129	0.724
8.91089	0.777
8.9505	0.802
8.9901	0.817
9.0297	0.817
9.06931	0.795
9.10891	0.724
9.14851	0.719
9.18811	0.8
9.22772	0.82
9.26732	0.792
9.30692	0.659
9.34653	0.43
9.38613	0.137
9.42573	0.353
9.46533	0.636
9.50494	0.784
9.54454	0.845
9.58414	0.863
9.62374	0.868
9.66335	0.87
9.70295	0.86
9.74255	0.799
9.78216	0.82
9.82176	0.828
9.86136	0.802
9.90096	0.764
9.94057	0.657
9.98017	0.607
10.0198	0.712
10.0594	0.7
10.099	0.624
10.1386	0.539
10.1782	0.589
10.2178	0.662
10.2574	0.584
10.297	0.34
10.3366	0.312
10.3762	0.41
10.4158	0.594
10.4554	0.749
10.495	0.845
10.5346	0.88
10.5742	0.906
10.6138	0.921
10.6534	0.928
10.693	0.936
10.7326	0.941
10.7722	0.943
10.8118	0.945
10.8514	0.945
10.891	0.941
10.9306	0.93
10.9702	0.923
11.0098	0.925
11.0494	0.93
11.089	0.935
11.1287	0.941
11.1683	0.945
11.2079	0.948
11.2475	0.95
11.2871	0.956
11.3267	0.958
11.3663	0.958
11.4059	0.958
11.4455	0.958
11.4851	0.958
11.5247	0.958
11.5643	0.953
11.6039	0.933
11.6435	0.905
11.6831	0.901
11.7227	0.873
11.7623	0.79
11.8019	0.817
11.8415	0.868
11.8811	0.893
11.9207	0.901
11.9603	0.903
11.9999	0.903
12.0395	0.906
12.0791	0.913
12.1187	0.918
12.1583	0.923
12.1979	0.925
12.2375	0.925
12.2771	0.925
12.3167	0.921
12.3563	0.918
12.3959	0.918
12.4355	0.913
12.4751	0.908
12.5148	0.903
12.5544	0.9
12.594	0.895
12.6336	0.887
12.6732	0.885
12.7128	0.878
12.7524	0.87
12.792	0.863
12.8316	0.855
12.8712	0.843
12.9108	0.833
12.9504	0.823
12.99	0.807
13.0296	0.779
13.0692	0.744
13.1088	0.682
13.1484	0.588
13.188	0.481
13.2276	0.398
13.2672	0.332
13.3068	0.295
13.3464	0.277
13.386	0.27
13.4256	0.27
13.4652	0.272
13.5048	0.303
13.5444	0.35
13.584	0.428
13.6236	0.501
13.6632	0.528
13.7028	0.536
13.7424	0.563
13.782	0.636
13.8216	0.722
13.8612	0.779
13.9009	0.822
13.9405	0.845
13.9801	0.86
14.0197	0.873
14.0593	0.877
14.0989	0.878
14.1385	0.877
14.1781	0.872
14.2177	0.853
14.2573	0.825
14.2969	0.782
14.3365	0.73
14.3761	0.657
14.4157	0.548
14.4553	0.418
14.4949	0.297
14.5345	0.207
14.5741	0.154
14.6137	0.142
14.6533	0.174
14.6929	0.264
14.7325	0.355
14.7721	0.43
14.8117	0.493
14.8513	0.541
14.8909	0.579
14.9305	0.598
14.9701	0.626
15.0097	0.679
15.0493	0.744
15.0889	0.78
15.1285	0.8
15.1681	0.818
15.2077	0.827
15.2473	0.83
15.287	0.833
15.3266	0.833
15.3662	0.832
15.4058	0.832
15.4454	0.833
15.485	0.832
15.5246	0.828
15.5642	0.822
15.6038	0.822
15.6434	0.805
15.683	0.787
15.7226	0.779
15.7622	0.774
15.8018	0.765
15.8414	0.752
15.881	0.742
15.9206	0.725
15.9602	0.717
