Infrared Spectrum: 1,5,7-TRIMETHYL-2-NITRO-IMIDAZO[4,5,d]PYRIMIDIN-4,6-DIONE
Formula: C8 H9 N5 O4
CAS: 153285-56-4
State: SOLID (NUJOL MULL)
Class: COBLENTZ
Instrument: PERKIN-ELMER
Sampling: TRANSMISSION
Resolution: 4
Origin: ABBOTT LABORATORIES - WASHBURN
MICROMETERS	TRANSMITTANCE
2.067	0.531
2.107	0.54
2.147	0.5432
2.18701	0.548
2.22701	0.56
2.26701	0.563
2.30701	0.565
2.34701	0.5579
2.38702	0.563
2.42702	0.572
2.46702	0.58
2.50702	0.585
2.54703	0.593
2.58703	0.607
2.62703	0.615
2.66703	0.614
2.70703	0.62
2.74704	0.63
2.78704	0.632
2.82704	0.6351
2.86704	0.64
2.90704	0.642
2.94705	0.642
2.98705	0.642
3.02705	0.644
3.06705	0.647
3.10705	0.654
3.14706	0.6569
3.18706	0.656
3.22706	0.657
3.26706	0.654
3.30706	0.639
3.34707	0.5614
3.38707	0.187
3.42707	0.1017
3.46707	0.1242
3.50708	0.151
3.54708	0.3169
3.58708	0.5828
3.62708	0.6674
3.66708	0.696
3.70709	0.703
3.74709	0.701
3.78709	0.6972
3.82709	0.7061
3.86709	0.713
3.9071	0.726
3.9471	0.7312
3.9871	0.7392
4.0271	0.744
4.0671	0.746
4.10711	0.753
4.14711	0.76
4.18711	0.758
4.22711	0.76
4.26711	0.766
4.30712	0.766
4.34712	0.77
4.38712	0.7712
4.42712	0.773
4.46713	0.776
4.50713	0.783
4.54713	0.786
4.58713	0.791
4.62713	0.793
4.66714	0.798
4.70714	0.798
4.74714	0.8
4.78714	0.805
4.82714	0.8081
4.86715	0.812
4.90715	0.813
4.94715	0.8152
4.98715	0.818
5.02715	0.822
5.06716	0.825
5.10716	0.8295
5.14716	0.832
5.18716	0.835
5.22717	0.8388
5.26717	0.838
5.30717	0.838
5.34717	0.84
5.38717	0.842
5.42718	0.84
5.46718	0.842
5.50718	0.8373
5.54718	0.8362
5.58718	0.8425
5.62719	0.8262
5.66719	0.8023
5.70719	0.7565
5.74719	0.7108
5.78719	0.6299
5.8272	0.3623
5.8672	0.1799
5.9072	0.1685
5.9472	0.2886
5.9872	0.2615
6.02721	0.1636
6.06721	0.2682
6.10721	0.4466
6.14721	0.5552
6.18722	0.6341
6.22722	0.6783
6.26722	0.5734
6.30722	0.6243
6.34722	0.6791
6.38723	0.6848
6.42723	0.5948
6.46723	0.4615
6.50723	0.3994
6.54723	0.2168
6.58724	0.249
6.62724	0.4113
6.66724	0.449
6.70724	0.4003
6.74724	0.3982
6.78725	0.4111
6.82725	0.3763
6.86725	0.2239
6.90725	0.2283
6.94725	0.2963
6.98726	0.4271
7.02726	0.5837
7.06726	0.635
7.10726	0.5545
7.14727	0.3653
7.18727	0.5018
7.22727	0.6099
7.26727	0.5651
7.30727	0.4335
7.34728	0.4803
7.38728	0.504
7.42728	0.4203
7.46728	0.2675
7.50728	0.1729
7.54729	0.1977
7.58729	0.1668
7.62729	0.1488
7.66729	0.2823
7.70729	0.3715
7.7473	0.447
7.7873	0.464
7.8273	0.4121
7.8673	0.4693
7.90731	0.5294
7.94731	0.563
7.98731	0.5716
8.02731	0.5994
8.06731	0.619
8.10732	0.63
8.14732	0.6403
8.18732	0.6434
8.22732	0.635
8.26732	0.6544
8.30733	0.6506
8.34733	0.6071
8.38733	0.598
8.42733	0.6178
8.46733	0.6572
8.50734	0.6776
8.54734	0.6872
8.58734	0.691
8.62734	0.692
8.66734	0.701
8.70735	0.6991
8.74735	0.6944
8.78735	0.6711
8.82735	0.6462
8.86736	0.657
8.90736	0.6681
8.94736	0.6986
8.98736	0.7131
9.02736	0.7263
9.06737	0.729
9.10737	0.733
9.14737	0.7376
9.18737	0.739
9.22737	0.7421
9.26738	0.7401
9.30738	0.7287
9.34738	0.724
9.38738	0.7494
9.42738	0.7341
9.46739	0.7243
9.50739	0.7014
9.54739	0.6247
9.58739	0.5775
9.62739	0.5996
9.6674	0.6598
9.7074	0.7011
9.7474	0.7299
9.7874	0.7481
9.82741	0.7529
9.86741	0.7563
9.90741	0.7586
9.94741	0.7606
9.98741	0.765
10.0274	0.77
10.0674	0.771
10.1074	0.77
10.1474	0.765
10.1874	0.7316
10.2274	0.6932
10.2674	0.684
10.3074	0.7303
10.3474	0.7468
10.3874	0.758
10.4274	0.7524
10.4674	0.741
10.5074	0.7483
10.5474	0.758
10.5874	0.768
10.6274	0.7725
10.6674	0.7756
10.7075	0.778
10.7475	0.7804
10.7875	0.783
10.8275	0.785
10.8675	0.785
10.9075	0.7851
10.9475	0.786
10.9875	0.7924
11.0275	0.7956
11.0675	0.796
11.1075	0.796
11.1475	0.8004
11.1875	0.802
11.2275	0.802
11.2675	0.798
11.3075	0.8029
11.3475	0.807
11.3875	0.812
11.4275	0.8125
11.4675	0.812
11.5075	0.812
11.5475	0.8122
11.5875	0.813
11.6275	0.813
11.6675	0.8122
11.7075	0.8086
11.7475	0.781
11.7875	0.6757
11.8275	0.5425
11.8675	0.6314
11.9075	0.7173
11.9475	0.7555
11.9875	0.7701
12.0275	0.7759
12.0675	0.783
12.1075	0.7924
12.1475	0.796
12.1875	0.798
12.2275	0.8007
12.2675	0.81
12.3075	0.81
12.3475	0.81
12.3875	0.8082
12.4275	0.7104
12.4675	0.7187
12.5075	0.7706
12.5475	0.7854
12.5875	0.795
12.6276	0.7986
12.6676	0.805
12.7076	0.805
12.7476	0.8069
12.7876	0.8067
12.8276	0.807
12.8676	0.8076
12.9076	0.806
12.9476	0.7969
12.9876	0.7895
13.0276	0.7563
13.0676	0.4679
13.1076	0.4928
13.1476	0.6539
13.1876	0.7164
13.2276	0.7327
13.2676	0.7336
13.3076	0.6798
13.3476	0.4187
13.3876	0.457
13.4276	0.6034
13.4676	0.666
13.5076	0.6478
13.5476	0.5447
13.5876	0.5389
13.6276	0.6056
13.6676	0.6461
13.7076	0.6726
13.7476	0.6824
13.7876	0.6841
13.8276	0.687
13.8676	0.6823
13.9076	0.682
13.9476	0.6882
13.9876	0.6965
14.0276	0.7048
14.0676	0.708
14.1076	0.708
14.1476	0.706
14.1876	0.6959
14.2276	0.6892
14.2676	0.682
14.3076	0.6817
14.3476	0.681
14.3876	0.6864
14.4276	0.691
14.4676	0.692
14.5076	0.691
14.5477	0.689
14.5877	0.6776
14.6277	0.677
14.6677	0.679
14.7077	0.679
14.7477	0.674
14.7877	0.669
14.8277	0.667
14.8677	0.662
14.9077	0.662
14.9477	0.6571
14.9877	0.6512
15.0277	0.651
15.0677	0.6394
15.1077	0.629
15.1477	0.6239
15.1877	0.6185
15.2277	0.6117
15.2677	0.607
15.3077	0.6
15.3477	0.598
15.3877	0.5957
15.4277	0.5909
15.4677	0.5841
