Infrared Spectrum: 1,3-Diphenyl-1-butanone
Formula: C 16 H 16 O
CAS: 1533-20-6
State: gas
Origin: EPA-IR VAPOR PHASE LIBRARY
1/CM	ABSORBANCE
551.7	0.013161
563.274	0.013821
574.848	0.009041
586.421	0.006721
597.995	0.009021
609.569	0.009901
621.143	0.006881
632.717	0.004091
644.291	0.005431
655.864	0.011471
667.438	0.021041
679.012	0.032901
690.586	0.072331
702.16	0.059881
713.734	0.025501
725.307	0.022031
736.881	0.033551
748.455	0.044381
760.029	0.037831
771.603	0.014901
783.177	0.008341
794.75	0.005831
806.324	0.005181
817.898	0.004221
829.472	0.003711
841.046	0.002821
852.619	0.002441
864.193	0.002931
875.767	0.004421
887.341	0.006511
898.915	0.008841
910.489	0.008631
922.062	0.005901
933.636	0.004571
945.21	0.003801
956.784	0.004741
968.358	0.008921
979.932	0.021631
991.505	0.036281
1003.08	0.029871
1014.65	0.020341
1026.23	0.015901
1037.8	0.008561
1049.37	0.006831
1060.95	0.008091
1072.52	0.009551
1084.1	0.010451
1095.67	0.011841
1107.24	0.009751
1118.82	0.005801
1130.39	0.004431
1141.97	0.005321
1153.54	0.008651
1165.11	0.013521
1176.69	0.030721
1188.26	0.031741
1199.83	0.040381
1211.41	0.037311
1222.98	0.027251
1234.56	0.022671
1246.13	0.025081
1257.7	0.037691
1269.28	0.051021
1280.85	0.046361
1292.42	0.034681
1304	0.027571
1315.57	0.025681
1327.15	0.026091
1338.72	0.026721
1350.29	0.026521
1361.87	0.025991
1373.44	0.017611
1385.02	0.014491
1396.59	0.008371
1408.16	0.008211
1419.74	0.009321
1431.31	0.011861
1442.88	0.025711
1454.46	0.029581
1466.03	0.014551
1477.61	0.009861
1489.18	0.017061
1500.75	0.014841
1512.33	0.005851
1523.9	0.004451
1535.48	0.004071
1547.05	0.003541
1558.62	0.004261
1570.2	0.007641
1581.77	0.013681
1593.34	0.019261
1604.92	0.019081
1616.49	0.007811
1628.07	0.004761
1639.64	0.005151
1651.21	0.007651
1662.79	0.011981
1674.36	0.021251
1685.93	0.057581
1697.51	0.116641
1709.08	0.075081
1720.66	0.021971
1732.23	0.009721
1743.8	0.006161
1755.38	0.004551
1766.95	0.003921
1778.53	0.003891
1790.1	0.004841
1801.67	0.005321
1813.25	0.003791
1824.82	0.002251
1836.39	0.001821
1847.97	0.001971
1859.54	0.002641
1871.12	0.003071
1882.69	0.003301
1894.26	0.002971
1905.84	0.002761
1917.41	0.002501
1928.99	0.003011
1940.56	0.003921
1952.13	0.004641
1963.71	0.003331
1975.28	0.002001
1986.85	0.001171
1998.43	0.0009005
2010	0.0007488
2021.58	0.0006629
2033.15	0.0005876
2044.72	0.000499
2056.3	0.0005298
2067.87	0.0004402
2079.44	0.0004318
2091.02	0.0004523
2102.59	0.0003629
2114.17	0.0003931
2125.74	0.0002814
2137.31	0.0003097
2148.89	0.0003129
2160.46	0.0003825
2172.04	0.0004116
2183.61	0.0004097
2195.18	0.0004326
2206.76	0.0003857
2218.33	0.0004547
2229.9	0.0004342
2241.48	0.0005618
2253.05	0.0006312
2264.63	0.0006092
2276.2	0.0006425
2287.77	0.0007295
2299.35	0.0006744
2310.92	0.0011135
2322.5	0.001241
2334.07	0.001123
2345.64	0.0011101
2357.22	0.0008235
2368.79	0.0007282
2380.36	0.0007379
2391.94	0.0008126
2403.51	0.0007304
2415.09	0.0006855
2426.66	0.0006868
2438.23	0.0005708
2449.81	0.0005486
2461.38	0.000581
2472.96	0.0005285
2484.53	0.0005525
2496.1	0.0006048
2507.68	0.0004757
2519.25	0.0004873
2530.82	0.0004853
2542.4	0.0005714
2553.97	0.0006405
2565.55	0.0006297
2577.12	0.0008402
2588.69	0.0009177
2600.27	0.0009883
2611.84	0.0008218
2623.41	0.0008092
2634.99	0.0007676
2646.56	0.0007518
2658.14	0.0006929
2669.71	0.0006779
2681.28	0.0008311
2692.86	0.000818
2704.43	0.0007975
2716.01	0.0007818
2727.58	0.0009839
2739.15	0.001181
2750.73	0.001231
2762.3	0.001221
2773.87	0.001321
2785.45	0.001371
2797.02	0.001671
2808.6	0.002001
2820.17	0.002261
2831.74	0.002751
2843.32	0.003471
2854.89	0.004641
2866.47	0.007421
2878.04	0.014151
2889.61	0.017421
2901.19	0.017781
2912.76	0.018081
2924.33	0.020541
2935.91	0.025331
2947.48	0.022171
2959.06	0.029411
2970.63	0.052081
2982.2	0.034541
2993.78	0.013081
3005.35	0.011101
3016.92	0.016151
3028.5	0.033851
3040.07	0.035051
3051.65	0.026691
3063.22	0.043201
3074.79	0.052871
3086.37	0.034731
3097.94	0.022191
3109.52	0.012381
3121.09	0.005541
3132.66	0.002681
3144.24	0.002111
3155.81	0.002041
3167.38	0.001781
3178.96	0.001341
3190.53	0.0010584
3202.11	0.0008963
3213.68	0.000753
3225.25	0.0006162
3236.83	0.0004005
3248.4	0.0003209
3259.98	0.000303
3271.55	0.0003051
3283.12	0.0003933
3294.7	0.0003201
3306.27	0.000311
3317.84	0.0003687
3329.42	0.0003052
3340.99	0.0005352
3352.57	0.0008173
3364.14	0.001201
3375.71	0.001771
3387.29	0.001481
3398.86	0.001027
3410.43	0.0005153
3422.01	0.0004119
3433.58	0.0002299
3445.16	0.0002475
3456.73	0.0002341
3468.3	0.0001962
3479.88	4.29e-05
3491.45	0.0002137
3503.03	0.00017158
3514.6	0.00016292
3526.17	0.00022125
3537.75	0.000121
3549.32	0.0002541
3560.89	7.96e-05
3572.47	0
3584.04	6.15e-05
3595.62	9.62e-05
3607.19	5.67e-05
3618.76	0.0002049
3630.34	0.0001193
3641.91	0.0003467
3653.49	0.0004328
3665.06	0.0002991
3676.63	0.0002717
3688.21	0.000323
3699.78	0.0004214
3711.35	0.0003611
3722.93	0.0002684
3734.5	0.0003595
3746.08	0.000139814
3757.65	0.0003219
3769.22	0.00018148
3780.8	0.0002909
3792.37	0.00020221
3803.94	0.0003684
3815.52	0.0002747
3827.09	0.0003018
3838.67	0.00022413
3850.24	0.00016968
3861.81	0.0001174
3873.39	0.0002317
3884.96	0.00020019
3896.54	0.0001033
3908.11	0.00016546
3919.68	0.0001644
3931.26	0.0002732
3942.83	0.0002378
3954.4	0.0003092
3965.98	0.000382
3977.55	0.0001188
3989.13	0.0004433
4000.7	0.0004278
