Infrared Spectrum: PHOSPHONIC ACID, 1-HYDROXYETHYL-DIETHYL ESTER
Formula: C6 H15 O4 P
CAS: 15336-73-9
State: LIQUID
Class: COBLENTZ
Instrument: Not specified, most likely a prism, grating, or hybrid spectrometer.
Sampling: TRANSMISSION
Path length: 0.003 CM
Resolution: 4
Origin: TENNESSEE EASTMAN COMPANY, RESEARCH LABORATORIES
MICROMETERS	TRANSMITTANCE
2.255	0.925
2.29492	0.923
2.33484	0.94
2.37476	0.943
2.41468	0.946
2.4546	0.945
2.49452	0.94
2.53444	0.945
2.57436	0.958
2.61428	0.966
2.6542	0.968
2.69412	0.971
2.73404	0.97
2.77396	0.946
2.81388	0.881
2.8538	0.761
2.89372	0.54
2.93365	0.273
2.97357	0.18
3.01349	0.093
3.05341	0.085
3.09333	0.176
3.13325	0.305
3.17317	0.46
3.21309	0.553
3.25301	0.628
3.29293	0.638
3.33285	0.335
3.37277	0.316
3.41269	0.291
3.45261	0.46
3.49253	0.581
3.53245	0.65
3.57237	0.741
3.61229	0.796
3.65221	0.816
3.69213	0.826
3.73205	0.83
3.77197	0.836
3.81189	0.856
3.85181	0.876
3.89173	0.905
3.93165	0.911
3.97157	0.911
4.01149	0.91
4.05141	0.908
4.09133	0.908
4.13125	0.915
4.17117	0.923
4.2111	0.935
4.25102	0.955
4.29094	0.963
4.33086	0.965
4.37078	0.961
4.4107	0.953
4.45062	0.953
4.49054	0.958
4.53046	0.955
4.57038	0.951
4.6103	0.951
4.65022	0.956
4.69014	0.951
4.73006	0.953
4.76998	0.955
4.8099	0.961
4.84982	0.96
4.88974	0.961
4.92966	0.958
4.96958	0.955
5.0095	0.953
5.04942	0.945
5.08934	0.938
5.12926	0.94
5.16918	0.935
5.2091	0.935
5.24902	0.933
5.28894	0.93
5.32886	0.921
5.36878	0.901
5.4087	0.891
5.44862	0.885
5.48855	0.883
5.52847	0.886
5.56839	0.896
5.60831	0.906
5.64823	0.911
5.68815	0.905
5.72807	0.891
5.76799	0.873
5.80791	0.873
5.84783	0.883
5.88775	0.903
5.92767	0.913
5.96759	0.921
6.00751	0.92
6.04743	0.921
6.08735	0.923
6.12727	0.921
6.16719	0.923
6.20711	0.921
6.24703	0.921
6.28695	0.921
6.32687	0.921
6.36679	0.92
6.40671	0.918
6.44663	0.911
6.48655	0.905
6.52647	0.898
6.56639	0.886
6.60631	0.86
6.64623	0.811
6.68615	0.716
6.72607	0.576
6.76599	0.58
6.80592	0.543
6.84584	0.466
6.88576	0.396
6.92568	0.433
6.9656	0.543
7.00552	0.551
7.04544	0.533
7.08536	0.52
7.12528	0.441
7.1652	0.321
7.20512	0.44
7.24504	0.525
7.28496	0.451
7.32488	0.435
7.3648	0.666
7.40472	0.74
7.44464	0.761
7.48456	0.775
7.52448	0.77
7.5644	0.741
7.60432	0.695
7.64424	0.606
7.68416	0.498
7.72408	0.4
7.764	0.391
7.80392	0.401
7.84384	0.411
7.88376	0.396
7.92368	0.33
7.9636	0.233
8.00352	0.153
8.04344	0.103
8.08337	0.056
8.12329	0.038
8.16321	0.03
8.20313	0.03
8.24305	0.033
8.28297	0.061
8.32289	0.143
8.36281	0.24
8.40273	0.32
8.44265	0.368
8.48257	0.385
8.52249	0.28
8.56241	0.221
8.60233	0.3
8.64225	0.405
8.68217	0.461
8.72209	0.473
8.76201	0.45
8.80193	0.363
8.84185	0.245
8.88177	0.153
8.92169	0.108
8.96161	0.095
9.00153	0.1
9.04145	0.103
9.08137	0.101
9.12129	0.123
9.16121	0.135
9.20113	0.106
9.24105	0.063
9.28097	0.038
9.32089	0.028
9.36082	0.021
9.40074	0.02
9.44066	0.018
9.48058	0.018
9.5205	0.016
9.56042	0.018
9.60034	0.018
9.64026	0.016
9.68018	0.015
9.7201	0.015
9.76002	0.013
9.79994	0.015
9.83986	0.021
9.87978	0.038
9.9197	0.071
9.95962	0.186
9.99954	0.286
10.0395	0.341
10.0794	0.333
10.1193	0.266
10.1592	0.17
10.1991	0.083
10.2391	0.046
10.279	0.038
10.3189	0.033
10.3588	0.033
10.3987	0.033
10.4387	0.04
10.4786	0.053
10.5185	0.063
10.5584	0.09
10.5983	0.143
10.6383	0.203
10.6782	0.303
10.7181	0.405
10.758	0.503
10.7979	0.575
10.8379	0.623
10.8778	0.651
10.9177	0.656
10.9576	0.635
10.9975	0.571
11.0375	0.521
11.0774	0.518
11.1173	0.591
11.1572	0.666
11.1971	0.725
11.2371	0.743
11.277	0.751
11.3169	0.753
11.3568	0.765
11.3968	0.8
11.4367	0.816
11.4766	0.826
11.5165	0.831
11.5564	0.835
11.5964	0.84
11.6363	0.84
11.6762	0.838
11.7161	0.838
11.756	0.838
11.796	0.836
11.8359	0.83
11.8758	0.818
11.9157	0.803
11.9556	0.776
11.9956	0.733
12.0355	0.68
12.0754	0.621
12.1153	0.563
12.1552	0.505
12.1952	0.438
12.2351	0.4
12.275	0.368
12.3149	0.343
12.3548	0.325
12.3948	0.29
12.4347	0.245
12.4746	0.211
12.5145	0.196
12.5544	0.19
12.5944	0.193
12.6343	0.216
12.6742	0.255
12.7141	0.276
12.754	0.285
12.794	0.281
12.8339	0.271
12.8738	0.268
12.9137	0.265
12.9536	0.273
12.9936	0.296
13.0335	0.326
13.0734	0.365
13.1133	0.416
13.1532	0.483
13.1932	0.526
13.2331	0.585
13.273	0.625
13.3129	0.646
13.3528	0.665
13.3928	0.68
13.4327	0.686
13.4726	0.69
13.5125	0.69
13.5524	0.691
13.5924	0.69
13.6323	0.685
13.6722	0.675
13.7121	0.666
13.752	0.651
13.792	0.636
13.8319	0.613
13.8718	0.591
13.9117	0.57
13.9517	0.558
13.9916	0.55
14.0315	0.546
14.0714	0.545
14.1113	0.543
14.1513	0.543
14.1912	0.536
14.2311	0.53
14.271	0.521
14.3109	0.513
14.3509	0.503
14.3908	0.5
14.4307	0.496
14.4706	0.493
14.5105	0.49
14.5505	0.49
14.5904	0.49
14.6303	0.49
14.6702	0.49
14.7101	0.493
14.7501	0.496
14.79	0.5
14.8299	0.5
14.8698	0.5
14.9097	0.5
14.9497	0.501
14.9896	0.503
15.0295	0.503
15.0694	0.505
15.1093	0.5
15.1493	0.498
15.1892	0.498
15.2291	0.495
15.269	0.493
15.3089	0.491
15.3489	0.495
15.3888	0.495
15.4287	0.493
15.4686	0.491
15.5085	0.49
15.5485	0.488
15.5884	0.488
15.6283	0.486
15.6682	0.486
15.7081	0.486
15.7481	0.486
15.788	0.486
15.8279	0.486
15.8678	0.486
15.9077	0.488
15.9477	0.491
15.9876	0.491
