Infrared Spectrum: Aniline, N-Beta-chloroallyl-
Formula: C9 H10 Cl N
CAS: 15332-67-9
State: LIQUID (NEAT)
Class: COBLENTZ III
Instrument: BECKMAN IR-4 (HYBRID PRISM-GRATING)
Instrument parameters: NaCl PRISM
Sampling: TRANSMISSION
Path length: CAPILLARY
Resolution: 2
Origin: MONSANTO (J. FREEMAN)
1/CM	TRANSMITTANCE
625	0.6555
634	0.6256
643	0.6205
652	0.6555
661	0.6941
670	0.7233
679	0.6585
688	0.2269
697	0.4019
706	0.5073
715	0.4608
724	0.6004
733	0.6352
742	0.3276
751	0.111
760	0.4067
769	0.7281
778	0.786
787	0.7735
796	0.8187
805	0.8476
814	0.8141
823	0.8316
832	0.8456
841	0.8453
850	0.8626
859	0.7959
868	0.5366
877	0.4138
886	0.2926
895	0.4117
904	0.589
913	0.8165
922	0.8836
931	0.9015
940	0.9024
949	0.8937
958	0.8972
967	0.8612
976	0.8219
985	0.7852
994	0.7781
1003	0.9143
1012	0.9206
1021	0.8565
1030	0.8824
1039	0.9142
1048	0.8985
1057	0.8447
1066	0.4824
1075	0.6452
1084	0.4822
1093	0.2834
1102	0.4666
1111	0.4967
1120	0.7054
1129	0.7005
1138	0.5887
1147	0.5369
1156	0.4888
1165	0.6858
1174	0.6201
1183	0.5675
1192	0.8462
1201	0.8734
1210	0.8784
1219	0.8688
1228	0.7783
1237	0.6079
1246	0.4726
1255	0.3457
1264	0.2306
1273	0.3714
1282	0.6133
1291	0.7222
1300	0.6601
1309	0.4403
1318	0.304
1327	0.295
1336	0.5746
1345	0.7345
1354	0.7295
1363	0.6628
1372	0.7693
1381	0.7711
1390	0.7998
1399	0.8098
1408	0.7979
1417	0.7744
1426	0.6296
1435	0.4743
1444	0.4827
1453	0.7382
1462	0.799
1471	0.7905
1480	0.6572
1489	0.4692
1498	0.2835
1507	0.1398
1516	0.122
1525	0.3285
1534	0.5776
1543	0.6479
1552	0.7608
1561	0.7648
1570	0.7461
1579	0.6637
1588	0.4505
1597	0.2421
1606	0.0873
1615	0.2988
1624	0.5025
1633	0.454
1642	0.3866
1651	0.5761
1660	0.8122
1669	0.8525
1678	0.8645
1687	0.8688
1696	0.8757
1705	0.8906
1714	0.9188
1723	0.9454
1732	0.9462
1741	0.939
1750	0.9284
1759	0.9169
1768	0.9049
1777	0.8948
1786	0.8967
1795	0.9053
1804	0.9113
1813	0.9079
1822	0.9044
1831	0.9047
1840	0.9142
1849	0.9266
1858	0.9386
1867	0.9441
1876	0.9465
1885	0.9442
1894	0.9359
1903	0.9219
1912	0.9074
1921	0.8997
1930	0.9012
1939	0.9108
1948	0.9254
1957	0.9356
1966	0.9445
1975	0.9501
1984	0.9539
1993	0.9569
2002	0.9584
2011	0.959
2020	0.959
2029	0.959
2038	0.9591
2047	0.9593
2056	0.9597
2065	0.9604
2074	0.9611
2083	0.9615
2092	0.9619
2101	0.9624
2110	0.9628
2119	0.9631
2128	0.9633
2137	0.9638
2146	0.9645
2155	0.9654
2164	0.9666
2173	0.9674
2182	0.9679
2191	0.9683
2200	0.9688
2209	0.969
2218	0.9692
2227	0.9695
2236	0.9694
2245	0.9694
2254	0.9691
2263	0.9682
2272	0.9673
2281	0.9664
2290	0.9654
2299	0.9641
2308	0.9627
2317	0.9617
2326	0.9613
2335	0.9608
2344	0.9608
2353	0.9608
2362	0.9608
2371	0.961
2380	0.9618
2389	0.9626
2398	0.9635
2407	0.9654
2416	0.9675
2425	0.9707
2434	0.9732
2443	0.9741
2452	0.9726
2461	0.9702
2470	0.9677
2479	0.9644
2488	0.9639
2497	0.9644
2506	0.9647
2515	0.9631
2524	0.9613
2533	0.9595
2542	0.9577
2551	0.9553
2560	0.9514
2569	0.9447
2578	0.9438
2587	0.9459
2596	0.9488
2605	0.9526
2614	0.956
2623	0.9583
2632	0.959
2641	0.959
2650	0.9585
2659	0.958
2668	0.9564
2677	0.9547
2686	0.9528
2695	0.9521
2704	0.9535
2713	0.9567
2722	0.9577
2731	0.9561
2740	0.9521
2749	0.9482
2758	0.9453
2767	0.943
2776	0.933
2785	0.9194
2794	0.9059
2803	0.8925
2812	0.8792
2821	0.8659
2830	0.8528
2839	0.8409
2848	0.834
2857	0.8305
2866	0.8265
2875	0.8221
2884	0.8152
2893	0.8015
2902	0.7877
2911	0.7765
2920	0.7714
2929	0.7845
2938	0.8335
2947	0.8796
2956	0.8867
2965	0.8793
2974	0.849
2983	0.8184
2992	0.7879
3001	0.7576
3010	0.7275
3019	0.7051
3028	0.6954
3037	0.6854
3046	0.6764
3055	0.6873
3064	0.7231
3073	0.7587
3082	0.7941
3091	0.8294
3100	0.8644
3109	0.8992
3118	0.923
3127	0.9302
3136	0.9323
3145	0.9339
3154	0.9345
3163	0.9348
3172	0.935
3181	0.9346
3190	0.9344
3199	0.9339
3208	0.9329
3217	0.9312
3226	0.9273
3235	0.9221
3244	0.9165
3253	0.9105
3262	0.9037
3271	0.8963
3280	0.8891
3289	0.877
3298	0.8644
3307	0.8522
3316	0.8385
3325	0.8152
3334	0.7895
3343	0.7475
3352	0.6965
3361	0.6458
3370	0.5954
3379	0.5452
3388	0.4953
3397	0.4457
3406	0.415
3415	0.4162
3424	0.5026
3433	0.5921
3442	0.6811
3451	0.7697
3460	0.844
3469	0.8589
3478	0.8669
3487	0.875
3496	0.8837
3505	0.8909
3514	0.8972
3523	0.9008
3532	0.9041
3541	0.9066
3550	0.9089
3559	0.9105
3568	0.9114
3577	0.9123
3586	0.913
3595	0.9135
3604	0.9139
3613	0.9145
3622	0.9149
3631	0.9154
3640	0.9161
3649	0.9168
3658	0.9175
3667	0.918
3676	0.9187
3685	0.9194
3694	0.92
3703	0.9206
3712	0.9211
3721	0.9214
3730	0.9218
3739	0.9221
3748	0.9224
3757	0.9228
3766	0.923
3775	0.923
3784	0.9231
3793	0.9231
3802	0.9231
3811	0.923
3820	0.9228
3829	0.9225
3838	0.9223
3847	0.922
3856	0.9217
3865	0.9211
3874	0.9206
3883	0.92
3892	0.9194
3901	0.9186
3910	0.9177
3919	0.9168
3928	0.9158
3937	0.9144
3946	0.913
3955	0.9117
3964	0.9102
3973	0.9087
3982	0.907
3991	0.9054
4000	0.9038
