Infrared Spectrum: 3-(Trifluoromethyl)propiophenone
Formula: C 10 H 9 F 3 O
CAS: 1533-03-5
State: gas
Origin: EPA-IR VAPOR PHASE LIBRARY
1/CM	ABSORBANCE
549.9	0.00527
559.547	0.00675
569.193	0.00818
578.84	0.0075
588.486	0.00573
598.133	0.00424
607.779	0.00364
617.426	0.00322
627.072	0.0034
636.719	0.00502
646.365	0.01016
656.012	0.01845
665.658	0.02022
675.305	0.01801
684.951	0.02072
694.598	0.03574
704.245	0.02687
713.891	0.0151
723.538	0.00953
733.184	0.00819
742.831	0.00609
752.477	0.00438
762.124	0.00468
771.77	0.00736
781.417	0.01516
791.063	0.02427
800.71	0.02781
810.356	0.02263
820.003	0.01357
829.649	0.00578
839.296	0.00316
848.943	0.0024763
858.589	0.0022015
868.236	0.0022
877.882	0.0024582
887.529	0.0039
897.175	0.0079
906.822	0.00981
916.468	0.00932
926.115	0.01198
935.761	0.01306
945.408	0.01416
955.054	0.01551
964.701	0.01317
974.347	0.00763
983.994	0.00519
993.64	0.0065
1003.29	0.01009
1012.93	0.01175
1022.58	0.00872
1032.23	0.00622
1041.87	0.00686
1051.52	0.01158
1061.17	0.02964
1070.81	0.06681
1080.46	0.06364
1090.11	0.04163
1099.75	0.04002
1109.4	0.03442
1119.05	0.03512
1128.69	0.06368
1138.34	0.15715
1147.99	0.27751
1157.63	0.20516
1167.28	0.17033
1176.92	0.21895
1186.57	0.17266
1196.22	0.16799
1205.86	0.19616
1215.51	0.12825
1225.16	0.0637
1234.8	0.04119
1244.45	0.03643
1254.1	0.03965
1263.74	0.04738
1273.39	0.03886
1283.04	0.03098
1292.68	0.03796
1302.33	0.06064
1311.98	0.09729
1321.62	0.18525
1331.27	0.22102
1340.92	0.10832
1350.56	0.05134
1360.21	0.03053
1369.86	0.01796
1379.5	0.01362
1389.15	0.0121
1398.79	0.00889
1408.44	0.00918
1418.09	0.0127
1427.73	0.01833
1437.38	0.02167
1447.03	0.01391
1456.67	0.01198
1466.32	0.01317
1475.97	0.00993
1485.61	0.00749
1495.26	0.00567
1504.91	0.00395
1514.55	0.00319
1524.2	0.00286
1533.85	0.0027288
1543.49	0.0027112
1553.14	0.002765
1562.79	0.00292
1572.43	0.0036
1582.08	0.00584
1591.73	0.00899
1601.37	0.0108
1611.02	0.01523
1620.67	0.01127
1630.31	0.006
1639.96	0.00498
1649.6	0.00517
1659.25	0.00635
1668.9	0.00975
1678.54	0.01515
1688.19	0.02479
1697.84	0.06361
1707.48	0.12414
1717.13	0.07818
1726.78	0.02356
1736.42	0.01393
1746.07	0.01057
1755.72	0.00634
1765.36	0.00391
1775.01	0.00316
1784.66	0.00294
1794.3	0.00307
1803.95	0.00306
1813.6	0.0026836
1823.24	0.0025053
1832.89	0.0024733
1842.54	0.0023385
1852.18	0.0022468
1861.83	0.0021066
1871.47	0.0020851
1881.12	0.002086
1890.77	0.0025132
1900.41	0.00289
1910.06	0.0024918
1919.71	0.0025757
1929.35	0.0021153
1939	0.00186753
1948.65	0.0021261
1958.29	0.0022491
1967.94	0.0022317
1977.59	0.00188742
1987.23	0.00148
1996.88	0.001316
2006.53	0.001221
2016.17	0.001112
2025.82	0.001102
2035.47	0.00103
2045.11	0.001058
2054.76	0.001084
2064.41	0.00112
2074.05	0.001136
2083.7	0.001021
2093.35	0.001043
2102.99	0.001086
2112.64	0.001089
2122.28	0.001156
2131.93	0.001442
2141.58	0.001529
2151.22	0.001577
2160.87	0.001371
2170.52	0.001194
2180.16	0.001148
2189.81	0.001139
2199.46	0.001156
2209.1	0.001307
2218.75	0.001399
2228.4	0.001452
2238.04	0.001513
2247.69	0.001699
2257.34	0.0017533
2266.98	0.00185312
2276.63	0.0019918
2286.28	0.0019537
2295.92	0.0017987
2305.57	0.001593
2315.22	0.001606
2324.86	0.001665
2334.51	0.0017853
2344.16	0.00190375
2353.8	0.00193116
2363.45	0.001664
2373.09	0.001449
2382.74	0.00142
2392.39	0.001384
2402.03	0.001398
2411.68	0.001354
2421.33	0.001264
2430.97	0.001239
2440.62	0.001194
2450.27	0.001155
2459.91	0.001202
2469.56	0.00123
2479.21	0.001241
2488.85	0.001204
2498.5	0.001126
2508.15	0.001188
2517.79	0.001102
2527.44	0.001048
2537.09	0.001036
2546.73	0.000981
2556.38	0.000974
2566.03	0.00096
2575.67	0.000932
2585.32	0.00099
2594.96	0.001038
2604.61	0.001122
2614.26	0.001063
2623.9	0.00096
2633.55	0.000896
2643.2	0.000928
2652.84	0.000993
2662.49	0.001006
2672.14	0.000927
2681.78	0.000929
2691.43	0.00078
2701.08	0.00081
2710.72	0.000933
2720.37	0.001021
2730.02	0.000979
2739.66	0.00104
2749.31	0.001209
2758.96	0.001177
2768.6	0.001156
2778.25	0.001287
2787.9	0.001314
2797.54	0.001462
2807.19	0.001734
2816.84	0.0020333
2826.48	0.0022419
2836.13	0.0022127
2845.77	0.002389
2855.42	0.00296
2865.07	0.00371
2874.71	0.00547
2884.36	0.00845
2894.01	0.01062
2903.65	0.01102
2913.3	0.01502
2922.95	0.01569
2932.59	0.01319
2942.24	0.01654
2951.89	0.02309
2961.53	0.01575
2971.18	0.01423
2980.83	0.02317
2990.47	0.02814
3000.12	0.01636
3009.77	0.0083
3019.41	0.0059
3029.06	0.00444
3038.71	0.00428
3048.35	0.00478
3058	0.00481
3067.64	0.00658
3077.29	0.01027
3086.94	0.00932
3096.58	0.00436
3106.23	0.0028275
3115.88	0.0022177
3125.52	0.001547
3135.17	0.000958
3144.82	0.00058
3154.46	0.00069
3164.11	0.00051
3173.76	0.00041
3183.4	0.00053
3193.05	0.00072
3202.7	0.00043
3212.34	0.00035
3221.99	0.00029
3231.64	0.00012
3241.28	0.00014
3250.93	3e-05
3260.58	9e-05
3270.22	0.00034
3279.87	0.00025
3289.52	0.00014
3299.16	0.00011
3308.81	0.00018
3318.45	0.0003
3328.1	0.00031
3337.75	0.0004
3347.39	0.00028
3357.04	0.00049
3366.69	0.00062
3376.33	0.001035
3385.98	0.001559
3395.63	0.0021719
3405.27	0.0020517
3414.92	0.001478
3424.57	0.00082
3434.21	0.00066
3443.86	0.00052
3453.51	0.00061
3463.15	0.00039
3472.8	0.00057
3482.45	0.00053
3492.09	0.00054
3501.74	0.00052
3511.39	0.0005
3521.03	0.00051
3530.68	0.00051
3540.33	0.00054
3549.97	0.00063
3559.62	0.00078
3569.26	0.0006
3578.91	0.00059
3588.56	0.00072
3598.2	0.00064
3607.85	0.00072
3617.5	0.00068
3627.14	0.00076
3636.79	0.00078
3646.44	0.00073
3656.08	0.00083
3665.73	0.00072
3675.38	0.00079
3685.02	0.000958
3694.67	0.000952
3704.32	0.000913
3713.96	0.000881
3723.61	0.001009
3733.26	0.000972
3742.9	0.000878
3752.55	0.000987
3762.2	0.000919
3771.84	0.000907
3781.49	0.000867
3791.13	0.000963
3800.78	0.000962
3810.43	0.000909
3820.07	0.00096
3829.72	0.000913
3839.37	0.000949
3849.01	0.000884
3858.66	0.000988
3868.31	0.000861
3877.95	0.000969
3887.6	0.001029
3897.25	0.001128
3906.89	0.000935
3916.54	0.000965
3926.19	0.000987
3935.83	0.000976
3945.48	0.00104
3955.13	0.001114
3964.77	0.001111
3974.42	0.001094
3984.07	0.00116
3993.71	0.001184
