Infrared Spectrum: 3-Tridecanone
Formula: C 13 H 26 O
CAS: 1534-26-5
State: gas
Instrument: HP-GC/MS/IRD
Origin: NIST Mass Spectrometry Data Center
1/CM	ABSORBANCE
550	0.0003009
562	3.57e-05
574	5.1e-06
586	2.55e-05
598	0.000102
610	0.0001173
622	9.18e-05
634	0.000153
646	7.65e-05
658	5.1e-05
670	7.14e-05
682	0.0001785
694	0.0003213
706	0.0005712
718	0.0007905
730	0.0007344
742	0.0006783
754	0.0005355
766	0.0005712
778	0.00051
790	0.0005049
802	0.0004998
814	0.0004896
826	0.0004794
838	0.0004386
850	0.0004845
862	0.0004794
874	0.0004794
886	0.0005559
898	0.000561
910	0.0006222
922	0.0007752
934	0.0010659
946	0.001479
958	0.0015963
970	0.001479
982	0.0013209
994	0.0012087
1006	0.0013362
1018	0.0017238
1030	0.001785
1042	0.0015096
1054	0.0012291
1066	0.0012036
1078	0.0012342
1090	0.0016371
1102	0.0027336
1114	0.0030804
1126	0.0027693
1138	0.0025959
1150	0.0024429
1162	0.0023205
1174	0.0022083
1186	0.0019074
1198	0.0016371
1210	0.0014178
1222	0.0011475
1234	0.0009741
1246	0.001071
1258	0.0012444
1270	0.0013872
1282	0.0013974
1294	0.0015657
1306	0.0018972
1318	0.002346
1330	0.0030243
1342	0.0042789
1354	0.004794
1366	0.0039474
1378	0.0030447
1390	0.0024225
1402	0.0020349
1414	0.0025092
1426	0.0028713
1438	0.0033813
1450	0.0046053
1462	0.0058905
1474	0.003978
1486	0.0017799
1498	0.0010455
1510	0.0009129
1522	0.0007038
1534	0.0004437
1546	0.0004182
1558	0.0005049
1570	0.0002346
1582	0.000153
1594	0.0001632
1606	0.0001836
1618	0.0002805
1630	0.0003111
1642	0.000408
1654	0.0007242
1666	0.0007854
1678	0.0013209
1690	0.0024021
1702	0.0049572
1714	0.009792
1726	0.0150552
1738	0.0103683
1750	0.0044421
1762	0.0019176
1774	0.0009639
1786	0.0005457
1798	0.0003927
1810	0.0002295
1822	0.0001989
1834	0.0001683
1846	0.0001887
1858	9.69e-05
1870	0.0001224
1882	7.14e-05
1894	8.16e-05
1906	5.1e-05
1918	7.65e-05
1930	4.08e-05
1942	6.12e-05
1954	3.57e-05
1966	4.08e-05
1978	3.57e-05
1990	5.61e-05
2002	2.55e-05
2014	6.12e-05
2026	6.63e-05
2038	8.67e-05
2050	5.61e-05
2062	5.61e-05
2074	4.08e-05
2086	1.53e-05
2098	3.57e-05
2110	2.04e-05
2122	1.53e-05
2134	4.08e-05
2146	3.06e-05
2158	4.08e-05
2170	3.57e-05
2182	3.57e-05
2194	5.1e-05
2206	2.55e-05
2218	1.02e-05
2230	2.55e-05
2242	2.55e-05
2254	3.57e-05
2266	2.04e-05
2278	3.57e-05
2290	5.61e-05
2302	5.1e-05
2314	9.69e-05
2326	9.69e-05
2338	0.0001071
2350	8.67e-05
2362	0.0001224
2374	0.000102
2386	5.1e-05
2398	3.57e-05
2410	5.61e-05
2422	4.59e-05
2434	4.59e-05
2446	5.61e-05
2458	2.55e-05
2470	6.63e-05
2482	5.1e-05
2494	4.08e-05
2506	7.65e-05
2518	9.69e-05
2530	9.18e-05
2542	0.0001173
2554	0.000102
2566	0.0001479
2578	0.0001836
2590	0.0001836
2602	0.0002244
2614	0.0002346
2626	0.0002601
2638	0.0002907
2650	0.0003672
2662	0.000459
2674	0.0005049
2686	0.0004896
2698	0.0005151
2710	0.0004845
2722	0.00051
2734	0.000612
2746	0.0007089
2758	0.0007599
2770	0.0008415
2782	0.0010353
2794	0.0013515
2806	0.0018258
2818	0.0024123
2830	0.0034323
2842	0.0056712
2854	0.0127908
2866	0.0190842
2878	0.0155652
2890	0.0145554
2902	0.0178143
2914	0.0266322
2926	0.0444567
2938	0.048654
2950	0.0326961
2962	0.0234498
2974	0.0180795
2986	0.0112506
2998	0.0063903
3010	0.0038352
3022	0.0025092
3034	0.001785
3046	0.0013566
3058	0.0010455
3070	0.0008364
3082	0.0007395
3094	0.0006426
3106	0.0005865
3118	0.0004743
3130	0.0004437
3142	0.000408
3154	0.0003978
3166	0.0003621
3178	0.0003111
3190	0.0002703
3202	0.0002601
3214	0.0002244
3226	0.0001581
3238	0.0001326
3250	0.0001173
3262	9.69e-05
3274	9.69e-05
3286	7.65e-05
3298	9.18e-05
3310	8.16e-05
3322	6.12e-05
3334	5.61e-05
3346	9.18e-05
3358	9.69e-05
3370	8.67e-05
3382	7.65e-05
3394	0.0001224
3406	0.0001836
3418	0.0002703
3430	0.0003162
3442	0.0003468
3454	0.0001785
3466	0.0001275
3478	7.14e-05
3490	7.65e-05
3502	9.18e-05
3514	3.57e-05
3526	8.16e-05
3538	3.57e-05
3550	6.12e-05
3562	7.14e-05
3574	3.06e-05
3586	0.0001581
3598	7.14e-05
3610	0.0001377
3622	0.0001479
3634	0.0001326
3646	0.0001887
3658	0.0001326
3670	0.0001734
3682	6.63e-05
3694	7.65e-05
3706	8.16e-05
3718	7.65e-05
3730	0.0001122
3742	0.0001938
3754	0.0001581
3766	7.14e-05
3778	3.57e-05
3790	6.12e-05
3802	0.0001071
3814	0.0001224
3826	7.65e-05
3838	0.0001632
