Infrared Spectrum: 6-Nitropiperonyl alcohol
Formula: C 8 H 7 N O 5
CAS: 15341-08-9
State: gas
Origin: EPA-IR VAPOR PHASE LIBRARY
1/CM	ABSORBANCE
549.8	0.001877
559.445	0.001647
569.09	0.001887
578.735	0.001847
588.38	0.001647
598.025	0.0012034
607.67	0.0009594
617.315	0.0010002
626.96	0.001467
636.605	0.001617
646.251	0.001767
655.896	0.001477
665.541	0.001447
675.186	0.001897
684.831	0.002167
694.476	0.001727
704.121	0.0012071
713.766	0.001727
723.411	0.002707
733.056	0.001757
742.701	0.001657
752.346	0.002367
761.991	0.002147
771.636	0.001537
781.281	0.001487
790.926	0.001567
800.571	0.002827
810.216	0.006307
819.861	0.010077
829.507	0.005747
839.152	0.001987
848.797	0.002237
858.442	0.003877
868.087	0.007657
877.732	0.009447
887.377	0.004427
897.022	0.002127
906.667	0.001937
916.312	0.003067
925.957	0.006257
935.602	0.010887
945.247	0.010557
954.892	0.006467
964.537	0.005587
974.182	0.004547
983.827	0.003887
993.472	0.004687
1003.12	0.006957
1012.76	0.009567
1022.41	0.014927
1032.05	0.027277
1041.7	0.041377
1051.34	0.036997
1060.99	0.020557
1070.63	0.009507
1080.28	0.004577
1089.92	0.003337
1099.57	0.003447
1109.21	0.005027
1118.86	0.006767
1128.5	0.006177
1138.15	0.004107
1147.79	0.003537
1157.44	0.004457
1167.08	0.004847
1176.73	0.004177
1186.37	0.004637
1196.02	0.004427
1205.66	0.004177
1215.31	0.004977
1224.95	0.008117
1234.6	0.017427
1244.24	0.035647
1253.89	0.057317
1263.53	0.043077
1273.18	0.016147
1282.82	0.008327
1292.47	0.006537
1302.11	0.006597
1311.76	0.008437
1321.4	0.012537
1331.05	0.019327
1340.69	0.025357
1350.34	0.026817
1359.98	0.027567
1369.63	0.026157
1379.27	0.020317
1388.92	0.015647
1398.56	0.011737
1408.21	0.009347
1417.85	0.010607
1427.5	0.009997
1437.14	0.007117
1446.79	0.008997
1456.43	0.013147
1466.08	0.020287
1475.73	0.041457
1485.37	0.057257
1495.02	0.028127
1504.66	0.021177
1514.31	0.023387
1523.95	0.023987
1533.6	0.038087
1543.24	0.038937
1552.89	0.024037
1562.53	0.015007
1572.18	0.009627
1581.82	0.005707
1591.47	0.003507
1601.11	0.003057
1610.76	0.003877
1620.4	0.003817
1630.05	0.001947
1639.69	0.0012222
1649.34	0.0009364
1658.98	0.0008848
1668.63	0.000824
1678.27	0.0008113
1687.92	0.0007563
1697.56	0.0008081
1707.21	0.0011166
1716.85	0.001347
1726.5	0.001417
1736.14	0.001387
1745.79	0.0010231
1755.43	0.0008758
1765.08	0.0007355
1774.72	0.0006999
1784.37	0.0004857
1794.01	0.0004038
1803.66	0.0003843
1813.3	0.0003977
1822.95	0.0004275
1832.59	0.0004815
1842.24	0.0004612
1851.88	0.0006103
1861.53	0.0006712
1871.17	0.0007631
1880.82	0.0006887
1890.46	0.0004316
1900.11	0.0003675
1909.75	0.00024841
1919.4	0.00024885
1929.04	0.00027485
1938.69	0.000261893
1948.33	0.0002349
1957.98	0.0003329
1967.62	0.0003671
1977.27	0.0003579
1986.91	0.0004358
1996.56	0.00035054
2006.2	0.0004264
2015.85	0.0004548
2025.49	0.0003836
2035.14	0.0003963
2044.78	0.0004122
2054.43	0.0004605
2064.07	0.0004252
2073.72	0.000463
2083.36	0.0004159
2093.01	0.0003677
2102.65	0.00027202
2112.3	0.00030614
2121.94	0.00030183
2131.59	0.000259762
2141.23	0.0001985
2150.88	0.000143
2160.52	0.0001632
2170.17	0.000129
2179.81	0.000129
2189.46	0.00012
2199.1	0.000153
2208.75	0.000119
2218.39	0.000142
2228.04	0.0001765
2237.68	0.000139
2247.33	0.00015
2256.97	0.00014
2266.62	0.0001897
2276.26	0.000260666
2285.91	0.00030595
2295.55	0.00029663
2305.2	0.0003916
2314.84	0.0003843
2324.49	0.0004023
2334.13	0.0003808
2343.78	0.000406
2353.42	0.0004879
2363.07	0.000477
2372.72	0.0005098
2382.36	0.0004276
2392.01	0.00028267
2401.65	0.0001829
2411.3	0.000141
2420.94	0.0002165
2430.59	0.000141
2440.23	0.000125
2449.88	0.0001607
2459.52	7.9e-05
2469.17	5.5e-05
2478.81	8.2e-05
2488.46	0.000105
2498.1	5.8e-05
2507.75	0.0001581
2517.39	0.000146
2527.04	0.000127
2536.68	0.0002341
2546.33	0.00029039
2555.97	0.0002045
2565.62	0.00030239
2575.26	0.00033501
2584.91	0.000366
2594.55	0.0004023
2604.2	0.0004858
2613.84	0.0005719
2623.49	0.0005795
2633.13	0.0006323
2642.78	0.0005441
2652.42	0.0005334
2662.07	0.000481
2671.71	0.0004644
2681.36	0.0004019
2691	0.0004665
2700.65	0.00035566
2710.29	0.0003633
2719.94	0.0004346
2729.58	0.0005783
2739.23	0.0007398
2748.87	0.0007153
2758.52	0.0009317
2768.16	0.001527
2777.81	0.001567
2787.45	0.0011805
2797.1	0.001121
2806.74	0.0011676
2816.39	0.001287
2826.03	0.001437
2835.68	0.001807
2845.32	0.002227
2854.97	0.002707
2864.61	0.003597
2874.26	0.004747
2883.9	0.006087
2893.55	0.007347
2903.19	0.007997
2912.84	0.007727
2922.48	0.007807
2932.13	0.007437
2941.77	0.006987
2951.42	0.006947
2961.06	0.006867
2970.71	0.005387
2980.35	0.003717
2990	0.003067
2999.64	0.002487
3009.29	0.002207
3018.93	0.002527
3028.58	0.002077
3038.22	0.001367
3047.87	0.0010016
3057.51	0.0009136
3067.16	0.0006469
3076.8	0.0007986
3086.45	0.0008447
3096.09	0.0010145
3105.74	0.0010848
3115.38	0.0008355
3125.03	0.0005448
3134.67	0.0004376
3144.32	0.0002375
3153.96	0.00031073
3163.61	0.0001696
3173.25	6.4e-05
3182.9	0.000260595
3192.54	0.00025153
3202.19	0.00025124
3211.83	0.0002914
3221.48	0.00029377
3231.12	0.0002356
3240.77	0.00029842
3250.41	0.0003599
3260.06	0.000155
3269.7	0.00028707
3279.35	0.00028985
3289	0.0003927
3298.64	0.0002201
3308.29	0.00030245
3317.93	0.0004213
3327.58	0.0002403
3337.22	0.00026786
3346.87	0.0001795
3356.51	0.0004652
3366.16	0.00024985
3375.8	0.00031798
3385.45	0.00026938
3395.09	0.0002114
3404.74	0.00030592
3414.38	0.0003013
3424.03	0.00030278
3433.67	0.00034994
3443.32	0.0004279
3452.96	0.00030014
3462.61	0.0002117
3472.25	0.0004758
3481.9	0.00033288
3491.54	0.0005243
3501.19	0.0005069
3510.83	0.0004297
3520.48	0.0005201
3530.12	0.0005416
3539.77	0.0003729
3549.41	0.0005799
3559.06	0.0004403
3568.7	0.0005698
3578.35	0.0005395
3587.99	0.0007532
3597.64	0.00093
3607.28	0.001457
3616.93	0.002767
3626.57	0.003657
3636.22	0.002877
3645.86	0.002257
3655.51	0.002217
3665.15	0.002877
3674.8	0.002987
3684.44	0.002377
3694.09	0.001337
3703.73	0.0008753
3713.38	0.0008653
3723.02	0.0004918
3732.67	0.0006919
3742.31	0.0005909
3751.96	0.0005837
3761.6	0.0004634
3771.25	0.0006299
3780.89	0.0004845
3790.54	0.000558
3800.18	0.000476
3809.83	0.0003916
3819.47	0.0005402
3829.12	0.0004411
3838.76	0.0003571
3848.41	0.0004639
3858.05	0.0005138
3867.7	0.0005599
3877.34	0.0004608
3886.99	0.0005392
3896.63	0.0004464
3906.28	0.0005042
3915.92	0.0003909
3925.57	0.0005728
3935.21	0.00032387
3944.86	0.0005696
3954.5	0.0006177
3964.15	0.00033368
3973.79	0.0005006
3983.44	0.00026831
3993.08	0.000485
