Infrared Spectrum: 2-(Trifluoromethoxy)aniline
Formula: C 7 H 6 F 3 N O
CAS: 1535-75-7
State: gas
Origin: EPA-IR VAPOR PHASE LIBRARY
1/CM	ABSORBANCE
549.8	0.00885
559.445	0.00739
569.09	0.00688
578.734	0.00544
588.379	0.00648
598.024	0.00659
607.669	0.00766
617.313	0.01122
626.958	0.01762
636.603	0.02051
646.248	0.01436
655.893	0.01306
665.537	0.01431
675.182	0.01606
684.827	0.01521
694.472	0.01322
704.116	0.01389
713.761	0.01663
723.406	0.02374
733.051	0.03669
742.695	0.05275
752.34	0.03364
761.985	0.01725
771.63	0.01121
781.275	0.01039
790.919	0.00951
800.564	0.00722
810.209	0.00639
819.854	0.00584
829.498	0.00604
839.143	0.00658
848.788	0.00621
858.433	0.00533
868.078	0.00408
877.722	0.00407
887.367	0.0034
897.012	0.0039
906.657	0.00534
916.301	0.00933
925.946	0.01223
935.591	0.00813
945.236	0.00472
954.88	0.00409
964.525	0.00422
974.17	0.00413
983.815	0.00404
993.46	0.00323
1003.1	0.00397
1012.75	0.00426
1022.39	0.00602
1032.04	0.00657
1041.68	0.00584
1051.33	0.00463
1060.97	0.00481
1070.62	0.00532
1080.26	0.00481
1089.91	0.00493
1099.55	0.00729
1109.2	0.00835
1118.84	0.01443
1128.49	0.01924
1138.13	0.03091
1147.78	0.03841
1157.42	0.04733
1167.07	0.07771
1176.71	0.15744
1186.36	0.25469
1196	0.22644
1205.64	0.13324
1215.29	0.15636
1224.93	0.22746
1234.58	0.25696
1244.22	0.31632
1253.87	0.39222
1263.51	0.28541
1273.16	0.1826
1282.8	0.14405
1292.45	0.0907
1302.09	0.0567
1311.74	0.04177
1321.38	0.0311
1331.03	0.0173
1340.67	0.0103
1350.32	0.00756
1359.96	0.00572
1369.61	0.00508
1379.25	0.0051
1388.9	0.00519
1398.54	0.0046
1408.18	0.00413
1417.83	0.00376
1427.47	0.00333
1437.12	0.00394
1446.76	0.00587
1456.41	0.01038
1466.05	0.01197
1475.7	0.01133
1485.34	0.02179
1494.99	0.05273
1504.63	0.06544
1514.28	0.04475
1523.92	0.02612
1533.57	0.01368
1543.21	0.00784
1552.86	0.00644
1562.5	0.00691
1572.15	0.00808
1581.79	0.01012
1591.44	0.01176
1601.08	0.01456
1610.73	0.02497
1620.37	0.04652
1630.01	0.05592
1639.66	0.03777
1649.3	0.01749
1658.95	0.00889
1668.59	0.00583
1678.24	0.0043
1687.88	0.00394
1697.53	0.00358
1707.17	0.00348
1716.82	0.00325
1726.46	0.00267
1736.11	0.00256
1745.75	0.00282
1755.4	0.00342
1765.04	0.00363
1774.69	0.00316
1784.33	0.0026
1793.98	0.00225
1803.62	0.00225
1813.27	0.00228
1822.91	0.00227
1832.55	0.00205
1842.2	0.0022
1851.84	0.00237
1861.49	0.0026
1871.13	0.00246
1880.78	0.00309
1890.42	0.00305
1900.07	0.00246
1909.71	0.00255
1919.36	0.00292
1929	0.0026
1938.65	0.00182
1948.29	0.00194
1957.94	0.0015354
1967.58	0.00221
1977.23	0.00262
1986.87	0.00261
1996.52	0.00243
2006.16	0.00215
2015.81	0.00211
2025.45	0.0022
2035.1	0.00246
2044.74	0.00193
2054.38	0.00212
2064.03	0.00215
2073.67	0.00207
2083.32	0.00214
2092.96	0.00241
2102.61	0.00233
2112.25	0.0023
2121.9	0.00207
2131.54	0.00191
2141.19	0.00191
2150.83	0.00198
2160.48	0.00219
2170.12	0.00204
2179.77	0.00173
2189.41	0.001526
2199.06	0.0013059
2208.7	0.001281
2218.35	0.001235
2227.99	0.0010187
2237.64	0.0008888
2247.28	0.0012327
2256.92	0.0011462
2266.57	0.0011605
2276.21	0.0011059
2285.86	0.0012843
2295.5	0.0015982
2305.15	0.0015046
2314.79	0.0016384
2324.44	0.0015576
2334.08	0.0015883
2343.73	0.0015656
2353.37	0.00171
2363.02	0.0016219
2372.66	0.00185
2382.31	0.0018
2391.95	0.00216
2401.6	0.00222
2411.24	0.00235
2420.89	0.00272
2430.53	0.00273
2440.18	0.00272
2449.82	0.00278
2459.47	0.00256
2469.11	0.00311
2478.75	0.00334
2488.4	0.00301
2498.04	0.00268
2507.69	0.00237
2517.33	0.0014438
2526.98	0.0015867
2536.62	0.0014136
2546.27	0.0013948
2555.91	0.0012465
2565.56	0.0012704
2575.2	0.0016179
2584.85	0.0012868
2594.49	0.0014317
2604.14	0.0014994
2613.78	0.00186
2623.43	0.0015961
2633.07	0.0015346
2642.72	0.0010986
2652.36	0.0010817
2662.01	0.00117
2671.65	0.000896
2681.29	0.0011444
2690.94	0.0009971
2700.58	0.0009687
2710.23	0.0009371
2719.87	0.0008683
2729.52	0.0009057
2739.16	0.001144
2748.81	0.0011158
2758.45	0.0009435
2768.1	0.00075766
2777.74	0.0008599
2787.39	0.0009813
2797.03	0.0007678
2806.68	0.0007689
2816.32	0.0008454
2825.97	0.0006119
2835.61	0.0005915
2845.26	0.00075765
2854.9	0.0009712
2864.55	0.0012038
2874.19	0.0013081
2883.84	0.0010556
2893.48	0.001197
2903.12	0.001199
2912.77	0.0014283
2922.41	0.0013692
2932.06	0.0007333
2941.7	0.0010549
2951.35	0.0008084
2960.99	0.0011449
2970.64	0.0007711
2980.28	0.0010455
2989.93	0.0010967
2999.57	0.0015702
3009.22	0.0013219
3018.86	0.00223
3028.51	0.00469
3038.15	0.00794
3047.8	0.00993
3057.44	0.0087
3067.09	0.00816
3076.73	0.00944
3086.38	0.00855
3096.02	0.00606
3105.67	0.00334
3115.31	0.00198
3124.95	0.0013505
3134.6	0.0011576
3144.24	0.00068832
3153.89	0.001088
3163.53	0.0013196
3173.18	0.0010001
3182.82	0.0012005
3192.47	0.0013535
3202.11	0.00204
3211.76	0.001513
3221.4	0.001657
3231.05	0.0015994
3240.69	0.000992
3250.34	0.0012685
3259.98	0.0010768
3269.63	0.0009374
3279.27	0.0014353
3288.92	0.000768
3298.56	0.0010103
3308.21	0.00071088
3317.85	0.0007916
3327.49	0.0010025
3337.14	0.0012758
3346.78	0.0012529
3356.43	0.00068352
3366.07	0.0009773
3375.72	0.0009991
3385.36	0.00248
3395.01	0.00332
3404.65	0.00536
3414.3	0.01035
3423.94	0.01372
3433.59	0.01017
3443.23	0.00498
3452.88	0.00265
3462.52	0.00216
3472.17	0.00256
3481.81	0.00337
3491.46	0.00483
3501.1	0.0088
3510.75	0.0128
3520.39	0.01143
3530.04	0.00614
3539.68	0.00313
3549.32	0.00199
3558.97	0.0011921
3568.61	0.000876
3578.26	0.0010312
3587.9	0.0009364
3597.55	0.0009086
3607.19	0.0011159
3616.84	0.0016474
3626.48	0.00065049
3636.13	0.0010181
3645.77	0.00071725
3655.42	0.000211
3665.06	0.000997
3674.71	0.0010085
3684.35	0.0005644
3694	0.0008115
3703.64	0.0011529
3713.29	0.0007886
3722.93	0.0012197
3732.58	0.0008993
3742.22	0.000435
3751.86	0.00065754
3761.51	0.0007688
3771.15	0.0012771
3780.8	0.0012549
3790.44	0.0013545
3800.09	0.0015742
3809.73	0.00072275
3819.38	0.0006425
3829.02	0.000435
3838.67	0.0016566
3848.31	0.0014687
3857.96	0.0012923
3867.6	0.0013599
3877.25	0.0012479
3886.89	0.0015426
3896.54	0.00167
3906.18	0.0008558
3915.83	0.0011797
3925.47	0.0014889
3935.12	0.0009872
3944.76	0.0014164
3954.41	0.0015629
3964.05	0.0014802
3973.69	0.0013252
3983.34	0.0016149
3992.98	0.0012708
