Infrared Spectrum: 9-BROMO TRIPTYCENE
Formula: C20 H13 Br
CAS: 15364-55-3
State: SOLID (KBr PELLET)
Class: COBLENTZ
Instrument: Not specified, most likely a prism, grating, or hybrid spectrometer.
Sampling: TRANSMISSION
Resolution: 4
1/CM	TRANSMITTANCE
665.289	0.909
674.38	0.911
683.471	0.899
692.562	0.9
701.653	0.903
710.744	0.894
719.835	0.863
728.925	0.821
738.016	0.742
747.107	0.251
756.198	0.717
765.289	0.919
774.38	0.968
783.471	0.975
792.562	0.97
801.653	0.956
810.744	0.954
819.835	0.942
828.926	0.855
838.017	0.93
847.108	0.877
856.198	0.84
865.289	0.928
874.38	0.939
883.471	0.93
892.562	0.919
901.653	0.906
910.744	0.891
919.835	0.835
928.926	0.645
938.017	0.906
947.108	0.939
956.199	0.927
965.29	0.92
974.381	0.903
983.471	0.916
992.562	0.906
1001.65	0.9
1010.74	0.878
1019.84	0.846
1028.93	0.816
1038.02	0.905
1047.11	0.897
1056.2	0.888
1065.29	0.881
1074.38	0.872
1083.47	0.864
1092.56	0.863
1101.65	0.858
1110.74	0.846
1119.84	0.833
1128.93	0.816
1138.02	0.768
1147.11	0.68
1156.2	0.777
1165.29	0.846
1174.38	0.864
1183.47	0.86
1192.56	0.854
1201.65	0.855
1210.74	0.863
1219.84	0.863
1228.93	0.86
1238.02	0.857
1247.11	0.847
1256.2	0.844
1265.29	0.832
1274.38	0.807
1283.47	0.7
1292.56	0.8429
1301.65	0.858
1310.74	0.838
1319.84	0.835
1328.93	0.836
1338.02	0.83
1347.11	0.819
1356.2	0.815
1365.29	0.807
1374.38	0.798
1383.47	0.799
1392.56	0.79
1401.65	0.777
1410.75	0.776
1419.84	0.748
1428.93	0.69
1438.02	0.642
1447.11	0.4311
1456.2	0.526
1465.29	0.8119
1474.38	0.849
1483.47	0.857
1492.56	0.844
1501.65	0.846
1510.75	0.836
1519.84	0.832
1528.93	0.824
1538.02	0.815
1547.11	0.805
1556.2	0.809
1565.29	0.798
1574.38	0.798
1583.47	0.779
1592.56	0.763
1601.65	0.76
1610.75	0.76
1619.84	0.76
1628.93	0.754
1638.02	0.763
1647.11	0.765
1656.2	0.765
1665.29	0.768
1674.38	0.767
1683.47	0.774
1692.56	0.776
1701.65	0.785
1710.75	0.773
1719.84	0.779
1728.93	0.779
1738.02	0.779
1747.11	0.784
1756.2	0.779
1765.29	0.776
1774.38	0.777
1783.47	0.767
1792.56	0.767
1801.66	0.784
1810.75	0.782
1819.84	0.781
1828.93	0.779
1838.02	0.776
1847.11	0.771
1856.2	0.77
1865.29	0.774
1874.38	0.77
1883.47	0.753
1892.56	0.757
1901.66	0.763
1910.75	0.771
1919.84	0.773
1928.93	0.768
1938.02	0.756
1947.11	0.75
1956.2	0.765
1965.29	0.77
1974.38	0.77
1983.47	0.768
1992.56	0.762
2001.66	0.756
2010.75	0.754
2019.84	0.753
2028.93	0.753
2038.02	0.753
2047.11	0.753
2056.2	0.751
2065.29	0.751
2074.38	0.751
2083.47	0.751
2092.56	0.75
2101.66	0.748
2110.75	0.746
2119.84	0.746
2128.93	0.7444
2138.02	0.7396
2147.11	0.739
2156.2	0.7362
2165.29	0.734
2174.38	0.732
2183.47	0.731
2192.56	0.7292
2201.66	0.7252
2210.75	0.72
2219.84	0.7178
2228.93	0.714
2238.02	0.7072
2247.11	0.6976
2256.2	0.687
2265.29	0.68
2274.38	0.6818
2283.47	0.6866
2292.57	0.6948
2301.66	0.698
2310.75	0.7002
2319.84	0.7022
2328.93	0.708
2338.02	0.7088
2347.11	0.709
2356.2	0.711
2365.29	0.7114
2374.38	0.712
2383.47	0.712
2392.57	0.712
2401.66	0.711
2410.75	0.7086
2419.84	0.7068
2428.93	0.706
2438.02	0.704
2447.11	0.703
2456.2	0.703
2465.29	0.703
2474.38	0.701
2483.47	0.7
2492.57	0.6978
2501.66	0.6962
2510.75	0.6944
2519.84	0.6924
2528.93	0.69
2538.02	0.69
2547.11	0.6896
2556.2	0.689
2565.29	0.689
2574.38	0.687
2583.47	0.6868
2592.57	0.6864
2601.66	0.6866
2610.75	0.686
2619.84	0.686
2628.93	0.6838
2638.02	0.6806
2647.11	0.6782
2656.2	0.6754
2665.29	0.672
2674.38	0.672
2683.48	0.67
2692.57	0.67
2701.66	0.6692
2710.75	0.669
2719.84	0.667
2728.93	0.6666
2738.02	0.6666
2747.11	0.666
2756.2	0.666
2765.29	0.6638
2774.38	0.6622
2783.48	0.659
2792.57	0.6582
2801.66	0.656
2810.75	0.6558
2819.84	0.6542
2828.93	0.6524
2838.02	0.65
2847.11	0.649
2856.2	0.649
2865.29	0.647
2874.38	0.645
2883.48	0.644
2892.57	0.641
2901.66	0.6374
2910.75	0.6322
2919.84	0.6274
2928.93	0.6186
2938.02	0.616
2947.11	0.614
2956.2	0.6208
2965.29	0.6288
2974.38	0.6231
2983.48	0.618
2992.57	0.606
3001.66	0.5982
3010.75	0.594
3019.84	0.593
3028.93	0.594
3038.02	0.596
3047.11	0.5906
3056.2	0.586
3065.29	0.5858
3074.38	0.594
3083.48	0.6084
3092.57	0.6184
3101.66	0.6244
3110.75	0.622
3119.84	0.619
3128.93	0.618
3138.02	0.616
3147.11	0.6118
3156.2	0.6102
3165.29	0.608
3174.39	0.605
3183.48	0.6024
3192.57	0.6
3201.66	0.5974
3210.75	0.596
3219.84	0.5938
3228.93	0.591
3238.02	0.5888
3247.11	0.5852
3256.2	0.582
3265.29	0.5786
3274.39	0.5752
3283.48	0.5692
3292.57	0.5664
3301.66	0.562
3310.75	0.559
3319.84	0.557
3328.93	0.5522
3338.02	0.548
3347.11	0.541
3356.2	0.5364
3365.29	0.5294
3374.39	0.523
3383.48	0.5184
3392.57	0.515
3401.66	0.5086
3410.75	0.504
3419.84	0.5018
3428.93	0.5
3438.02	0.498
3447.11	0.493
3456.2	0.4912
3465.29	0.49
3474.39	0.4928
3483.48	0.496
3492.57	0.496
3501.66	0.4988
3510.75	0.501
3519.84	0.5056
3528.93	0.51
3538.02	0.5184
3547.11	0.5246
3556.2	0.529
3565.3	0.531
3574.39	0.535
3583.48	0.5372
3592.57	0.5404
3601.66	0.5442
3610.75	0.5476
3619.84	0.551
3628.93	0.554
3638.02	0.555
3647.11	0.5562
3656.2	0.5586
3665.3	0.557
3674.39	0.559
3683.48	0.559
3692.57	0.559
3701.66	0.557
3710.75	0.557
3719.84	0.5574
3728.93	0.559
3738.02	0.559
3747.11	0.5586
3756.2	0.56
3765.3	0.56
3774.39	0.562
3783.48	0.562
3792.57	0.562
3801.66	0.559
3810.75	0.557
3819.84	0.5558
3828.93	0.555
3838.02	0.552
3847.11	0.551
3856.2	0.5488
3865.3	0.548
3874.39	0.548
3883.48	0.5464
3892.57	0.546
3901.66	0.5452
3910.75	0.5468
3919.84	0.548
3928.93	0.549
3938.02	0.551
3947.11	0.551
3956.2	0.5502
3965.3	0.549
3974.39	0.5464
3983.48	0.546
