Infrared Spectrum: 1,2-Di(.allpha.-naphthyl)-ethane
Formula: C 22 H 18
CAS: 15374-45-5
State: gas
Instrument: HP-GC/MS/IRD
Origin: NIST Mass Spectrometry Data Center
1/CM	ABSORBANCE
550	8.14e-05
562	0.000462
574	0.0002662
586	0.0001826
598	0.0001188
610	9.24e-05
622	9.02e-05
634	5.17e-05
646	0.00011
658	0.0001155
670	8.14e-05
682	0.0001309
694	0.0002695
706	0.0002354
718	0.0003993
730	0.0008151
742	0.0004884
754	0.0012276
766	0.0079816
778	0.0086416
790	0.0069773
802	0.0021901
814	0.0006072
826	0.0003058
838	0.0002519
850	0.0003938
862	0.0003707
874	0.0001474
886	0.0001639
898	0.0001738
910	0.0001749
922	0.0002321
934	0.0002541
946	0.0003234
958	0.0003762
970	0.0002794
982	0.000209
994	0.0002783
1006	0.0007161
1018	0.0008448
1030	0.0004257
1042	0.0001815
1054	0.0001375
1066	0.0002145
1078	0.0004686
1090	0.0001892
1102	6.16e-05
1114	9.02e-05
1126	0.0001133
1138	0.0001749
1150	0.000187
1162	0.0002981
1174	0.0002475
1186	0.0001705
1198	0.0002002
1210	0.0002629
1222	0.0002101
1234	0.0002222
1246	0.0002739
1258	0.0003861
1270	0.0002431
1282	0.0001782
1294	0.0001177
1306	9.46e-05
1318	0.0001155
1330	0.000264
1342	0.0002706
1354	0.0002992
1366	0.0002695
1378	0.0004114
1390	0.0013398
1402	0.001166
1414	0.0003773
1426	0.0003245
1438	0.0004092
1450	0.0005797
1462	0.0007557
1474	0.0003509
1486	0.0003058
1498	0.0006721
1510	0.0011935
1522	0.0005225
1534	0.0001672
1546	0.0001331
1558	0.0001617
1570	0.0003839
1582	0.0007062
1594	0.0009603
1606	0.0003355
1618	0.0002574
1630	0.0001892
1642	0.0001287
1654	0.0001331
1666	0.0002607
1678	0.000308
1690	0.0003322
1702	0.0001672
1714	0.0002475
1726	0.0002244
1738	0.0002266
1750	0.0001936
1762	0.0001738
1774	0.0001452
1786	0.0002695
1798	0.000341
1810	0.000209
1822	0.0002365
1834	0.0001463
1846	0.0001991
1858	0.0002728
1870	0.0001199
1882	0.0001254
1894	0.0001782
1906	0.0004048
1918	0.0005016
1930	0.0004004
1942	0.0002827
1954	9.35e-05
1966	4.51e-05
1978	2.64e-05
1990	1.65e-05
2002	2.75e-05
2014	3.52e-05
2026	5.5e-06
2038	4.07e-05
2050	3.08e-05
2062	2.64e-05
2074	3.63e-05
2086	2.31e-05
2098	1.21e-05
2110	2.42e-05
2122	2.09e-05
2134	2.09e-05
2146	2.42e-05
2158	3.08e-05
2170	1.87e-05
2182	3.08e-05
2194	1.54e-05
2206	2.42e-05
2218	4.07e-05
2230	2.75e-05
2242	4.62e-05
2254	4.73e-05
2266	4.84e-05
2278	3.63e-05
2290	6.16e-05
2302	5.83e-05
2314	5.06e-05
2326	6.27e-05
2338	5.72e-05
2350	1.1e-05
2362	3.41e-05
2374	2.75e-05
2386	3.08e-05
2398	3.85e-05
2410	5.61e-05
2422	5.28e-05
2434	4.62e-05
2446	1.87e-05
2458	1.65e-05
2470	3.74e-05
2482	3.41e-05
2494	3.63e-05
2506	3.08e-05
2518	3.52e-05
2530	3.96e-05
2542	5.94e-05
2554	3.41e-05
2566	3.41e-05
2578	3.52e-05
2590	3.96e-05
2602	5.94e-05
2614	8.03e-05
2626	5.39e-05
2638	5.83e-05
2650	3.96e-05
2662	3.85e-05
2674	2.86e-05
2686	4.84e-05
2698	6.16e-05
2710	5.72e-05
2722	6.27e-05
2734	6.93e-05
2746	5.61e-05
2758	7.04e-05
2770	7.04e-05
2782	8.69e-05
2794	8.36e-05
2806	0.0001023
2818	0.0001045
2830	0.0001672
2842	0.000198
2854	0.0002904
2866	0.0005764
2878	0.001056
2890	0.0008712
2902	0.0006787
2914	0.0007117
2926	0.001089
2938	0.0021032
2950	0.0021791
2962	0.0017842
2974	0.0010483
2986	0.0007194
2998	0.0008855
3010	0.0014003
3022	0.0015136
3034	0.0023529
3046	0.0041965
3058	0.0058971
3070	0.0057123
3082	0.0031537
3094	0.0019492
3106	0.0009042
3118	0.0003289
3130	0.0001969
3142	0.0001375
3154	0.000121
3166	0.0001199
3178	0.0001155
3190	0.0001122
3202	8.14e-05
3214	8.47e-05
3226	8.36e-05
3238	7.7e-05
3250	5.94e-05
3262	5.39e-05
3274	1.98e-05
3286	5.5e-05
3298	5.17e-05
3310	5.5e-05
3322	3.85e-05
3334	1.32e-05
3346	3.3e-05
3358	4.73e-05
3370	3.08e-05
3382	4.51e-05
3394	3.85e-05
3406	2.42e-05
3418	2.75e-05
3430	6.6e-05
3442	2.64e-05
3454	4.95e-05
3466	3.41e-05
3478	1.87e-05
3490	3.3e-05
3502	4.18e-05
3514	1.87e-05
3526	1.87e-05
3538	2.42e-05
3550	6.6e-05
3562	4.95e-05
3574	2.64e-05
3586	3.96e-05
3598	3.52e-05
3610	1.65e-05
3622	1.32e-05
3634	6.6e-06
3646	6.6e-06
3658	5.5e-05
3670	3.74e-05
3682	4.4e-05
3694	7.81e-05
3706	7.15e-05
3718	5.83e-05
3730	2.97e-05
3742	5.5e-05
3754	3.52e-05
3766	7.7e-05
3778	6.82e-05
3790	3.63e-05
3802	7.15e-05
3814	9.9e-05
3826	7.92e-05
3838	0.0001199
