Infrared Spectrum: N-(n-PROPYL)-PHENOTHIAZINE
Formula: C15 H15 N S
CAS: 15375-48-1
State: SOLUTION (10% CHCl3)
Class: COBLENTZ
Instrument: Not specified, most likely a grating spectrometer.
Sampling: TRANSMISSION
Path length: 0.010 CM CELL
Resolution: 4
Origin: ABBOTT LABORATORIES
MICROMETERS	TRANSMITTANCE
1.986	0.958
2.0201	0.954
2.05421	0.951
2.08831	0.949
2.12241	0.949
2.15652	0.946
2.19062	0.943
2.22472	0.938
2.25883	0.938
2.29293	0.936
2.32703	0.934
2.36114	0.933
2.39524	0.939
2.42935	0.918
2.46345	0.919
2.49755	0.924
2.53166	0.929
2.56576	0.929
2.59986	0.931
2.63397	0.929
2.66807	0.924
2.70217	0.928
2.73628	0.923
2.77038	0.923
2.80448	0.919
2.83859	0.918
2.87269	0.918
2.90679	0.916
2.9409	0.919
2.975	0.914
3.0091	0.914
3.04321	0.914
3.07731	0.914
3.11141	0.911
3.14552	0.904
3.17962	0.901
3.21373	0.891
3.24783	0.888
3.28193	0.786
3.31604	0.741
3.35014	0.687
3.38424	0.534
3.41835	0.567
3.45245	0.624
3.48655	0.716
3.52066	0.652
3.55476	0.722
3.58886	0.819
3.62297	0.871
3.65707	0.883
3.69117	0.883
3.72528	0.888
3.75938	0.889
3.79348	0.889
3.82759	0.891
3.86169	0.891
3.8958	0.879
3.9299	0.864
3.964	0.878
3.99811	0.886
4.03221	0.889
4.06631	0.893
4.10042	0.893
4.13452	0.891
4.16862	0.891
4.20273	0.891
4.23683	0.898
4.27093	0.893
4.30504	0.901
4.33914	0.899
4.37324	0.891
4.40735	0.888
4.44145	0.896
4.47555	0.898
4.50966	0.898
4.54376	0.899
4.57786	0.896
4.61197	0.891
4.64607	0.896
4.68018	0.898
4.71428	0.898
4.74838	0.891
4.78249	0.898
4.81659	0.889
4.85069	0.896
4.8848	0.898
4.9189	0.899
4.953	0.899
4.98711	0.898
5.02121	0.894
5.05531	0.893
5.08942	0.896
5.12352	0.896
5.15762	0.896
5.19173	0.893
5.22583	0.864
5.25993	0.854
5.29404	0.874
5.32814	0.859
5.36224	0.849
5.39635	0.873
5.43045	0.871
5.46456	0.871
5.49866	0.879
5.53276	0.883
5.56687	0.871
5.60097	0.874
5.63507	0.889
5.66918	0.866
5.70328	0.854
5.73738	0.868
5.77149	0.883
5.80559	0.881
5.83969	0.881
5.8738	0.881
5.9079	0.874
5.942	0.869
5.97611	0.853
6.01021	0.853
6.04431	0.853
6.07842	0.854
6.11252	0.859
6.14662	0.861
6.18073	0.863
6.21483	0.853
6.24894	0.839
6.28304	0.791
6.31714	0.519
6.35125	0.612
6.38535	0.706
6.41945	0.437
6.45356	0.696
6.48766	0.757
6.52176	0.831
6.55587	0.848
6.58997	0.849
6.62407	0.851
6.65818	0.841
6.69228	0.818
6.72638	0.686
6.76049	0.611
6.79459	0.432
6.82869	0.477
6.8628	0.255
6.8969	0.018
6.93101	0.023
6.96511	0.156
6.99921	0.18
7.03332	0.482
7.06742	0.704
7.10152	0.769
7.13563	0.791
7.16973	0.792
7.20383	0.797
7.23794	0.786
7.27204	0.709
7.30614	0.636
7.34025	0.622
7.37435	0.514
7.40845	0.537
7.44256	0.701
7.47666	0.684
7.51076	0.515
7.54487	0.337
7.57897	0.295
7.61307	0.547
7.64718	0.686
7.68128	0.747
7.71539	0.717
7.74949	0.601
7.78359	0.532
7.8177	0.505
7.8518	0.392
7.8859	0.464
7.92001	0.621
7.95411	0.639
7.98821	0.547
8.02232	0.52
8.05642	0.444
8.09052	0.252
8.12463	0.325
8.15873	0.474
8.19283	0.482
8.22694	0.412
8.26104	0.404
8.29514	0.412
8.32925	0.414
8.36335	0.419
8.39745	0.495
8.43156	0.684
8.46566	0.797
8.49977	0.823
8.53387	0.829
8.56797	0.836
8.60208	0.833
8.63618	0.813
8.67028	0.736
8.70439	0.737
8.73849	0.792
8.77259	0.781
8.8067	0.621
8.8408	0.465
8.8749	0.412
8.90901	0.48
8.94311	0.575
8.97721	0.669
9.01132	0.744
9.04542	0.737
9.07952	0.626
9.11363	0.612
9.14773	0.701
9.18183	0.774
9.21594	0.824
9.25004	0.833
9.28415	0.811
9.31825	0.803
9.35235	0.828
9.38646	0.853
9.42056	0.856
9.45466	0.849
9.48877	0.816
9.52287	0.784
9.55697	0.762
9.59108	0.724
9.62518	0.681
9.65928	0.661
9.69339	0.489
9.72749	0.56
9.76159	0.711
9.7957	0.794
9.8298	0.819
9.8639	0.836
9.89801	0.848
9.93211	0.849
9.96622	0.836
10.0003	0.801
10.0344	0.824
10.0685	0.846
10.1026	0.859
10.1367	0.868
10.1708	0.869
10.2049	0.871
10.239	0.874
10.2731	0.871
10.3072	0.871
10.3414	0.871
10.3755	0.869
10.4096	0.859
10.4437	0.861
10.4778	0.866
10.5119	0.871
10.546	0.873
10.5801	0.869
10.6142	0.869
10.6483	0.871
10.6824	0.859
10.7165	0.848
10.7506	0.808
10.7847	0.769
10.8188	0.741
10.8529	0.737
10.887	0.751
10.9211	0.796
10.9552	0.826
10.9893	0.848
11.0234	0.859
11.0575	0.866
11.0916	0.871
11.1257	0.871
11.1598	0.866
11.1939	0.859
11.228	0.853
11.2621	0.846
11.2963	0.843
11.3304	0.836
11.3645	0.833
11.3986	0.836
11.4327	0.848
11.4668	0.844
11.5009	0.834
11.535	0.833
11.5691	0.831
11.6032	0.826
11.6373	0.797
11.6714	0.782
11.7055	0.776
11.7396	0.781
11.7737	0.776
11.8078	0.772
11.8419	0.767
11.876	0.794
11.9101	0.819
11.9442	0.838
11.9783	0.853
12.0124	0.858
12.0465	0.866
12.0806	0.868
12.1147	0.878
12.1488	0.883
12.1829	0.883
12.217	0.883
12.2511	0.886
12.2853	0.888
12.3194	0.894
12.3535	0.896
12.3876	0.896
12.4217	0.896
12.4558	0.896
12.4899	0.898
12.524	0.898
12.5581	0.898
12.5922	0.896
12.6263	0.896
12.6604	0.898
12.6945	0.893
12.7286	0.896
12.7627	0.893
12.7968	0.888
12.8309	0.884
12.865	0.883
12.8991	0.888
12.9332	0.886
12.9673	0.886
13.0014	0.884
13.0355	0.883
13.0696	0.884
13.1037	0.878
13.1378	0.874
13.1719	0.873
13.206	0.864
13.2401	0.863
13.2743	0.868
13.3084	0.868
13.3425	0.869
13.3766	0.866
13.4107	0.866
13.4448	0.868
13.4789	0.868
13.513	0.864
13.5471	0.866
13.5812	0.864
13.6153	0.868
13.6494	0.866
13.6835	0.866
13.7176	0.869
13.7517	0.868
13.7858	0.869
13.8199	0.868
13.854	0.864
13.8881	0.853
13.9222	0.843
13.9563	0.834
13.9904	0.828
14.0245	0.824
14.0586	0.828
14.0927	0.834
14.1268	0.839
14.1609	0.839
14.195	0.844
14.2292	0.846
14.2633	0.854
14.2974	0.854
14.3315	0.858
14.3656	0.856
14.3997	0.843
14.4338	0.834
14.4679	0.841
14.502	0.849
14.5361	0.859
14.5702	0.866
14.6043	0.871
14.6384	0.871
14.6725	0.881
14.7066	0.888
14.7407	0.891
14.7748	0.893
14.8089	0.893
14.843	0.898
14.8771	0.908
14.9112	0.909
14.9453	0.904
14.9794	0.906
15.0135	0.908
15.0476	0.908
15.0817	0.901
15.1158	0.883
15.1499	0.863
15.184	0.863
15.2182	0.873
15.2523	0.879
15.2864	0.889
15.3205	0.896
15.3546	0.894
15.3887	0.894
15.4228	0.894
15.4569	0.894
15.491	0.894
