Infrared Spectrum: CARBANILIC ACID, n-BUTYL ESTER
Formula: C11 H15 N O2
CAS: 1538-74-5
State: SOLID (KBr PELLET)
Melting point: 60-61 C
Class: COBLENTZ
Instrument: Not specified, most likely a prism, grating, or hybrid spectrometer.
Sampling: TRANSMISSION
Resolution: 4
Origin: TENNESSEE EASTMAN COMPANY, RESEARCH LABORATORIES
MICROMETERS	TRANSMITTANCE
2.02	0.883
2.0607	0.883
2.1014	0.883
2.14209	0.885
2.18279	0.885
2.22349	0.885
2.26419	0.885
2.30488	0.885
2.34558	0.885
2.38628	0.885
2.42698	0.885
2.46767	0.885
2.50837	0.886
2.54907	0.886
2.58977	0.888
2.63047	0.888
2.67116	0.885
2.71186	0.861
2.75256	0.799
2.79326	0.772
2.83395	0.743
2.87465	0.717
2.91535	0.71
2.95605	0.58
2.99675	0.304
3.03744	0.587
3.07814	0.722
3.11884	0.767
3.15954	0.732
3.20023	0.767
3.24093	0.78
3.28163	0.816
3.32233	0.638
3.36302	0.681
3.40372	0.731
3.44442	0.775
3.48512	0.851
3.52582	0.856
3.56651	0.868
3.60721	0.885
3.64791	0.89
3.68861	0.89
3.7293	0.892
3.77	0.897
3.8107	0.897
3.8514	0.9
3.89209	0.9
3.93279	0.9
3.97349	0.902
4.01419	0.902
4.05489	0.904
4.09558	0.905
4.13628	0.905
4.17698	0.907
4.21768	0.909
4.25837	0.902
4.29907	0.895
4.33977	0.902
4.38047	0.905
4.42117	0.909
4.46186	0.909
4.50256	0.909
4.54326	0.909
4.58396	0.909
4.62465	0.91
4.66535	0.91
4.70605	0.91
4.74675	0.91
4.78744	0.91
4.82814	0.91
4.86884	0.909
4.90954	0.909
4.95024	0.912
4.99093	0.914
5.03163	0.914
5.07233	0.909
5.11303	0.892
5.15372	0.907
5.19442	0.912
5.23512	0.912
5.27582	0.91
5.31652	0.895
5.35721	0.893
5.39791	0.9
5.43861	0.893
5.47931	0.886
5.52	0.873
5.5607	0.863
5.6014	0.873
5.6421	0.861
5.68279	0.806
5.72349	0.7
5.76419	0.506
5.80489	0.16
5.84559	0.095
5.88628	0.261
5.92698	0.491
5.96768	0.708
6.00838	0.775
6.04907	0.784
6.08977	0.777
6.13047	0.664
6.17117	0.351
6.21186	0.169
6.25256	0.582
6.29326	0.756
6.33396	0.515
6.37466	0.099
6.41535	0.19
6.45605	0.501
6.49675	0.635
6.53745	0.702
6.57814	0.547
6.61884	0.51
6.65954	0.635
6.70024	0.51
6.74094	0.671
6.78163	0.643
6.82233	0.607
6.86303	0.202
6.90373	0.558
6.94442	0.727
6.98512	0.741
7.02582	0.746
7.06652	0.779
7.10721	0.797
7.14791	0.801
7.18861	0.768
7.22931	0.719
7.27001	0.799
7.3107	0.784
7.3514	0.76
7.3921	0.773
7.4328	0.734
7.47349	0.659
7.51419	0.405
7.55489	0.236
7.59559	0.34
7.63628	0.589
7.67698	0.635
7.71768	0.698
7.75838	0.726
7.79908	0.638
7.83977	0.458
7.88047	0.631
7.92117	0.508
7.96187	0.217
8.00256	0.042
8.04326	0.032
8.08396	0.22
8.12466	0.429
8.16536	0.529
8.20605	0.619
8.24675	0.703
8.28745	0.72
8.32815	0.791
8.36884	0.808
8.40954	0.794
8.45024	0.768
8.49094	0.827
8.53163	0.811
8.57233	0.811
8.61303	0.823
8.65373	0.832
8.69443	0.835
8.73512	0.833
8.77582	0.785
8.81652	0.787
8.85722	0.808
8.89791	0.809
8.93861	0.803
8.97931	0.758
9.02001	0.75
9.06071	0.751
9.1014	0.65
9.1421	0.357
9.1828	0.436
9.2235	0.544
9.26419	0.287
9.30489	0.198
9.34559	0.41
9.38629	0.594
9.42698	0.69
9.46768	0.734
9.50838	0.779
9.54908	0.799
9.58978	0.782
9.63047	0.57
9.67117	0.727
9.71187	0.779
9.75257	0.773
9.79326	0.804
9.83396	0.828
9.87466	0.839
9.91536	0.839
9.95605	0.816
9.99675	0.777
10.0375	0.84
10.0781	0.847
10.1188	0.84
10.1595	0.825
10.2002	0.828
10.2409	0.851
10.2816	0.863
10.3223	0.869
10.363	0.871
10.4037	0.873
10.4444	0.875
10.4851	0.881
10.5258	0.89
10.5665	0.897
10.6072	0.898
10.6479	0.898
10.6886	0.898
10.7293	0.9
10.77	0.905
10.8107	0.912
10.8514	0.914
10.8921	0.916
10.9328	0.912
10.9735	0.904
11.0142	0.892
11.0549	0.876
11.0956	0.777
11.1363	0.767
11.177	0.851
11.2177	0.876
11.2584	0.893
11.2991	0.902
11.3398	0.914
11.3805	0.919
11.4212	0.919
11.4619	0.919
11.5026	0.917
11.5433	0.912
11.584	0.909
11.6247	0.902
11.6654	0.89
11.7061	0.859
11.7468	0.797
11.7875	0.76
11.8281	0.784
11.8688	0.816
11.9095	0.84
11.9502	0.854
11.9909	0.869
12.0316	0.876
12.0723	0.88
12.113	0.88
12.1537	0.88
12.1944	0.868
12.2351	0.861
12.2758	0.851
12.3165	0.851
12.3572	0.866
12.3979	0.875
12.4386	0.88
12.4793	0.88
12.52	0.875
12.5607	0.873
12.6014	0.868
12.6421	0.864
12.6828	0.863
12.7235	0.856
12.7642	0.833
12.8049	0.799
12.8456	0.717
12.8863	0.638
12.927	0.684
12.9677	0.727
13.0084	0.729
13.0491	0.686
13.0898	0.625
13.1305	0.511
13.1712	0.321
13.2119	0.263
13.2526	0.349
13.2933	0.476
13.334	0.556
13.3747	0.58
13.4154	0.553
13.4561	0.587
13.4968	0.643
13.5375	0.666
13.5782	0.669
13.6188	0.667
13.6595	0.659
13.7002	0.648
13.7409	0.643
13.7816	0.64
13.8223	0.64
13.863	0.642
13.9037	0.647
13.9444	0.655
13.9851	0.664
14.0258	0.676
14.0665	0.684
14.1072	0.693
14.1479	0.7
14.1886	0.703
14.2293	0.705
14.27	0.705
14.3107	0.702
14.3514	0.691
14.3921	0.669
14.4328	0.636
14.4735	0.609
14.5142	0.633
14.5549	0.696
14.5956	0.76
14.6363	0.784
14.677	0.797
14.7177	0.801
14.7584	0.803
14.7991	0.804
14.8398	0.806
14.8805	0.806
14.9212	0.806
14.9619	0.804
15.0026	0.803
15.0433	0.801
15.084	0.799
15.1247	0.799
15.1654	0.791
15.2061	0.785
15.2468	0.784
15.2875	0.779
15.3282	0.773
15.3689	0.772
15.4095	0.768
15.4502	0.761
15.4909	0.758
15.5316	0.751
15.5723	0.75
15.613	0.75
15.6537	0.748
15.6944	0.746
15.7351	0.744
15.7758	0.741
15.8165	0.738
15.8572	0.734
15.8979	0.731
15.9386	0.729
15.9793	0.727
