Infrared Spectrum: 2,3-Dimethylphenylisothiocyanate
Formula: C 9 H 9 N S
CAS: 1539-20-4
State: gas
Origin: EPA-IR VAPOR PHASE LIBRARY
1/CM	ABSORBANCE
549.8	0.011498
559.445	0.009538
569.09	0.007618
578.734	0.008368
588.379	0.008398
598.024	0.006178
607.669	0.004628
617.313	0.003028
626.958	0.001438
636.603	0.0004325
646.248	0.0002236
655.893	0.0005486
665.537	0.001558
675.182	0.001598
684.827	0.002228
694.472	0.005338
704.116	0.010568
713.761	0.005778
723.406	0.003468
733.051	0.003478
742.695	0.003738
752.34	0.007578
761.985	0.027928
771.63	0.057798
781.275	0.041358
790.919	0.012178
800.564	0.003448
810.209	0.003668
819.854	0.007868
829.498	0.010028
839.143	0.003348
848.788	0.001338
858.433	0.0008242
868.078	0.0010154
877.722	0.0009902
887.367	0.001558
897.012	0.001638
906.657	0.001868
916.301	0.003618
925.946	0.008388
935.591	0.018768
945.236	0.027998
954.88	0.020698
964.525	0.010578
974.17	0.006218
983.815	0.005008
993.46	0.004308
1003.1	0.003188
1012.75	0.002598
1022.39	0.002628
1032.04	0.002158
1041.68	0.001858
1051.33	0.001848
1060.97	0.002258
1070.62	0.005198
1080.26	0.006118
1089.91	0.004148
1099.55	0.002108
1109.2	0.001868
1118.84	0.0010975
1128.49	0.0007912
1138.13	0.0007573
1147.78	0.0010161
1157.42	0.0008123
1167.07	0.0008424
1176.71	0.0011485
1186.36	0.002658
1196	0.002818
1205.64	0.0010403
1215.29	0.0008408
1224.93	0.0010999
1234.58	0.001758
1244.22	0.002758
1253.87	0.004628
1263.51	0.005428
1273.16	0.004668
1282.8	0.003238
1292.45	0.001878
1302.09	0.001588
1311.74	0.001948
1321.38	0.002108
1331.03	0.001708
1340.67	0.001598
1350.32	0.001458
1359.96	0.001488
1369.61	0.001768
1379.25	0.002638
1388.9	0.003818
1398.54	0.003698
1408.18	0.002838
1417.83	0.003508
1427.47	0.005738
1437.12	0.009668
1446.76	0.017858
1456.41	0.029128
1466.05	0.031928
1475.7	0.021768
1485.34	0.011868
1494.99	0.007568
1504.63	0.006358
1514.28	0.004848
1523.92	0.004308
1533.57	0.005258
1543.21	0.007448
1552.86	0.010508
1562.5	0.015148
1572.15	0.023618
1581.79	0.031518
1591.44	0.027738
1601.08	0.018678
1610.73	0.010538
1620.37	0.005928
1630.01	0.003788
1639.66	0.002728
1649.3	0.002548
1658.95	0.002928
1668.59	0.002368
1678.24	0.001638
1687.88	0.001478
1697.53	0.001548
1707.17	0.001708
1716.82	0.002058
1726.46	0.002178
1736.11	0.002258
1745.75	0.002198
1755.4	0.002458
1765.04	0.003178
1774.69	0.003698
1784.33	0.003098
1793.98	0.002768
1803.62	0.002568
1813.27	0.002408
1822.91	0.002308
1832.55	0.002448
1842.2	0.003168
1851.84	0.003068
1861.49	0.002608
1871.13	0.003208
1880.78	0.004588
1890.42	0.006018
1900.07	0.007158
1909.71	0.008778
1919.36	0.010738
1929	0.012408
1938.65	0.014748
1948.29	0.019578
1957.94	0.026728
1967.58	0.036338
1977.23	0.048398
1986.87	0.064218
1996.52	0.084918
2006.16	0.111458
2015.81	0.143928
2025.45	0.177998
2035.1	0.212928
2044.74	0.250388
2054.38	0.291338
2064.03	0.315858
2073.67	0.295368
2083.32	0.283018
2092.96	0.292878
2102.61	0.276478
2112.25	0.221228
2121.9	0.160268
2131.54	0.114938
2141.19	0.089908
2150.83	0.077088
2160.48	0.065938
2170.12	0.050578
2179.77	0.035578
2189.41	0.026408
2199.06	0.022818
2208.7	0.019428
2218.35	0.014108
2227.99	0.009588
2237.64	0.006978
2247.28	0.005368
2256.92	0.004048
2266.57	0.003358
2276.21	0.003008
2285.86	0.002788
2295.5	0.002698
2305.15	0.002528
2314.79	0.002588
2324.44	0.003048
2334.08	0.003448
2343.73	0.003298
2353.37	0.002948
2363.02	0.002828
2372.66	0.002378
2382.31	0.001998
2391.95	0.001938
2401.6	0.002168
2411.24	0.002408
2420.89	0.002948
2430.53	0.003308
2440.18	0.003658
2449.82	0.003668
2459.47	0.003438
2469.11	0.003048
2478.75	0.002848
2488.4	0.003118
2498.04	0.003428
2507.69	0.003638
2517.33	0.003828
2526.98	0.003668
2536.62	0.003508
2546.27	0.003288
2555.91	0.003258
2565.56	0.003208
2575.2	0.003208
2584.85	0.002988
2594.49	0.002778
2604.14	0.002518
2613.78	0.002188
2623.43	0.001958
2633.07	0.001748
2642.72	0.001628
2652.36	0.001558
2662.01	0.001568
2671.65	0.001708
2681.29	0.001758
2690.94	0.002068
2700.58	0.002338
2710.23	0.002168
2719.87	0.001838
2729.52	0.001668
2739.16	0.001828
2748.81	0.001978
2758.45	0.001708
2768.1	0.001608
2777.74	0.001618
2787.39	0.001558
2797.03	0.001668
2806.68	0.002028
2816.32	0.002438
2825.97	0.003008
2835.61	0.003568
2845.26	0.004268
2854.9	0.005598
2864.55	0.007598
2874.19	0.009678
2883.84	0.009658
2893.48	0.008748
2903.12	0.008738
2912.77	0.010418
2922.41	0.014758
2932.06	0.019748
2941.7	0.020038
2951.35	0.016748
2960.99	0.013908
2970.64	0.011778
2980.28	0.012218
2989.93	0.011268
2999.57	0.008178
3009.22	0.007888
3018.86	0.009348
3028.51	0.010768
3038.15	0.010068
3047.8	0.010118
3057.44	0.011918
3067.09	0.015608
3076.73	0.014808
3086.38	0.008618
3096.02	0.004318
3105.67	0.002558
3115.31	0.001868
3124.95	0.001408
3134.6	0.0011434
3144.24	0.000974
3153.89	0.0008188
3163.53	0.0007552
3173.18	0.0007131
3182.82	0.0005163
3192.47	0.0003847
3202.11	0.00027257
3211.76	0.00036049
3221.4	0.0002322
3231.05	0.00017
3240.69	0.0001973
3250.34	7.3e-05
3259.98	0.0002086
3269.63	1.4e-05
3279.27	0.0002009
3288.92	0.00026884
3298.56	3.7e-05
3308.21	0.000111
3317.85	0.00015
3327.49	0.000167
3337.14	0.000281165
3346.78	0.000172
3356.43	0.00031317
3366.07	9.4e-05
3375.72	0.0002657
3385.36	0.0001827
3395.01	6.6e-05
3404.65	0.000123
3414.3	0.0002202
3423.94	0.0002411
3433.59	0.0002563
3443.23	0.000197
3452.88	0.000228
3462.52	0.0001835
3472.17	0.000147
3481.81	0.00032934
3491.46	0.00032089
3501.1	0.00032961
3510.75	0.00034127
3520.39	0.0002535
3530.04	0.00029528
3539.68	0.00029368
3549.32	0.0002335
3558.97	0.0001791
3568.61	0.00037261
3578.26	0.00035971
3587.9	0.00032498
3597.55	0.00034879
3607.19	0.0002517
3616.84	0.0002768
3626.48	0.000408
3636.13	0.00032755
3645.77	0.000283391
3655.42	0.00030046
3665.06	0.00028986
3674.71	0.0004296
3684.35	0.00031832
3694	0.000174
3703.64	0.00035691
3713.29	0.00032992
3722.93	0.00032568
3732.58	0.00030299
3742.22	0.0004909
3751.86	0.00030784
3761.51	0.0002606
3771.15	0.0002474
3780.8	0.000433
3790.44	0.0004549
3800.09	0.00035545
3809.73	0.000513
3819.38	0.0004405
3829.02	0.0006582
3838.67	0.0005564
3848.31	0.0004776
3857.96	0.0004623
3867.6	0.0006751
3877.25	0.0006714
3886.89	0.0007456
3896.54	0.0008877
3906.18	0.0008597
3915.83	0.0008054
3925.47	0.0008883
3935.12	0.0008921
3944.76	0.0009407
3954.41	0.0009196
3964.05	0.0012203
3973.69	0.0009952
3983.34	0.0012196
3992.98	0.001117
