Infrared Spectrum: N,N,N',N'-Tetraethylterephthalamide
Formula: C 16 H 24 N 2 O 2
CAS: 15394-30-6
State: gas
Origin: EPA-IR VAPOR PHASE LIBRARY
1/CM	ABSORBANCE
549.8	0.00029736
559.445	0.0004483
569.09	0.0006832
578.734	0.001977
588.379	0.003037
598.024	0.001417
607.669	0.0006936
617.313	0.0006039
626.958	0.0008003
636.603	0.0009649
646.248	0.0005775
655.893	0.0007533
665.537	0.0011208
675.182	0.0005135
684.827	0.0006725
694.472	0.0010819
704.116	0.0011503
713.761	0.001647
723.406	0.003007
733.051	0.003617
742.695	0.003577
752.34	0.003547
761.985	0.002907
771.63	0.003307
781.275	0.004607
790.919	0.005847
800.564	0.003317
810.209	0.002407
819.854	0.002267
829.498	0.004847
839.143	0.011627
848.788	0.008147
858.433	0.004897
868.078	0.006527
877.722	0.005787
887.367	0.001727
897.012	0.0009241
906.657	0.0009896
916.301	0.0008836
925.946	0.0009922
935.591	0.001717
945.236	0.001577
954.88	0.0011416
964.525	0.0008315
974.17	0.0008595
983.815	0.0010623
993.46	0.001447
1003.1	0.002337
1012.75	0.003927
1022.39	0.007297
1032.04	0.002417
1041.68	0.002847
1051.33	0.004287
1060.97	0.008317
1070.62	0.012267
1080.26	0.018447
1089.91	0.034327
1099.55	0.024697
1109.2	0.009877
1118.84	0.004747
1128.49	0.003227
1138.13	0.002347
1147.78	0.002397
1157.42	0.002467
1167.07	0.002287
1176.71	0.003367
1186.36	0.003917
1196	0.005027
1205.64	0.007077
1215.29	0.011247
1224.93	0.010797
1234.58	0.008557
1244.22	0.008157
1253.87	0.010437
1263.51	0.017467
1273.16	0.039147
1282.8	0.057207
1292.45	0.031087
1302.09	0.020217
1311.74	0.024627
1321.38	0.017467
1331.03	0.009547
1340.67	0.010327
1350.32	0.014777
1359.96	0.014767
1369.61	0.017507
1379.25	0.026377
1388.9	0.027107
1398.54	0.031197
1408.18	0.044977
1417.83	0.043067
1427.47	0.026997
1437.12	0.016547
1446.76	0.014907
1456.41	0.016437
1466.05	0.017127
1475.7	0.013747
1485.34	0.007207
1494.99	0.006737
1504.63	0.010257
1514.28	0.008517
1523.92	0.005437
1533.57	0.004007
1543.21	0.003187
1552.86	0.002847
1562.5	0.002597
1572.15	0.002687
1581.79	0.002827
1591.44	0.002967
1601.08	0.003567
1610.73	0.004797
1620.37	0.006697
1630.01	0.009817
1639.66	0.015647
1649.3	0.032447
1658.95	0.082917
1668.59	0.100447
1678.24	0.039957
1687.88	0.015647
1697.53	0.008527
1707.17	0.005427
1716.82	0.003997
1726.46	0.003197
1736.11	0.002307
1745.75	0.001967
1755.4	0.001667
1765.04	0.001307
1774.69	0.0011591
1784.33	0.0011696
1793.98	0.001337
1803.62	0.0011737
1813.27	0.000828
1822.91	0.0006458
1832.55	0.000659
1842.2	0.0006107
1851.84	0.0006112
1861.49	0.0005208
1871.13	0.0005621
1880.78	0.000552
1890.42	0.0005698
1900.07	0.0007658
1909.71	0.0009516
1919.36	0.0008093
1929	0.0004877
1938.65	0.0004574
1948.29	0.0004811
1957.94	0.0004084
1967.58	0.0004622
1977.23	0.0004601
1986.87	0.0004393
1996.52	0.0004204
2006.16	0.0004854
2015.81	0.0004261
2025.45	0.0003499
2035.1	0.0004851
2044.74	0.0004676
2054.38	0.0005246
2064.03	0.000539
2073.67	0.000629
2083.32	0.0006239
2092.96	0.0005682
2102.61	0.0005075
2112.25	0.0004163
2121.9	0.00030411
2131.54	0.0004052
2141.19	0.0004482
2150.83	0.0004206
2160.48	0.000445
2170.12	0.000459
2179.77	0.0004424
2189.41	0.0003186
2199.06	0.00028982
2208.7	0.00032251
2218.35	0.0003788
2227.99	0.0003918
2237.64	0.0004142
2247.28	0.0003975
2256.92	0.0004755
2266.57	0.0003983
2276.21	0.0003679
2285.86	0.0004392
2295.5	0.0004059
2305.15	0.0004186
2314.79	0.0003716
2324.44	0.00030683
2334.08	0.00034006
2343.73	0.00031532
2353.37	0.00029136
2363.02	0.00032458
2372.66	0.0003558
2382.31	0.0004588
2391.95	0.0005334
2401.6	0.00046
2411.24	0.0005097
2420.89	0.0004966
2430.53	0.0004802
2440.18	0.000428
2449.82	0.0004551
2459.47	0.000398
2469.11	0.0004284
2478.75	0.0005009
2488.4	0.0005273
2498.04	0.0005096
2507.69	0.0004497
2517.33	0.0004326
2526.98	0.000466
2536.62	0.0005063
2546.27	0.0004515
2555.91	0.000406
2565.56	0.0004395
2575.2	0.0004175
2584.85	0.0004212
2594.49	0.00026631
2604.14	0.0004233
2613.78	0.0003672
2623.43	0.0004074
2633.07	0.0004238
2642.72	0.0004102
2652.36	0.0004513
2662.01	0.0004795
2671.65	0.0005591
2681.29	0.0006811
2690.94	0.0007176
2700.58	0.0007622
2710.23	0.0007308
2719.87	0.0007433
2729.52	0.0008052
2739.16	0.0009241
2748.81	0.0009184
2758.45	0.0009385
2768.1	0.001033
2777.74	0.0010864
2787.39	0.001235
2797.03	0.001387
2806.68	0.001637
2816.32	0.001817
2825.97	0.002037
2835.61	0.002187
2845.26	0.002707
2854.9	0.003417
2864.55	0.004887
2874.19	0.008197
2883.84	0.012237
2893.48	0.012007
2903.12	0.010837
2912.77	0.010617
2922.41	0.011537
2932.06	0.015757
2941.7	0.022947
2951.35	0.017867
2960.99	0.014297
2970.64	0.021837
2980.28	0.028627
2989.93	0.022897
2999.57	0.017537
3009.22	0.008357
3018.86	0.005087
3028.51	0.004207
3038.15	0.004037
3047.8	0.003037
3057.44	0.002657
3067.09	0.002617
3076.73	0.002937
3086.38	0.002727
3096.02	0.001827
3105.67	0.001697
3115.31	0.001567
3124.95	0.001407
3134.6	0.0010953
3144.24	0.000906
3153.89	0.0009596
3163.53	0.0008935
3173.18	0.0005353
3182.82	0.0006452
3192.47	0.0005851
3202.11	0.0005008
3211.76	0.0005167
3221.4	0.000448
3231.05	0.0004098
3240.69	0.000508
3250.34	0.0004949
3259.98	0.0004648
3269.63	0.0003671
3279.27	0.0007162
3288.92	0.0007673
3298.56	0.0010351
3308.21	0.001357
3317.85	0.001287
3327.49	0.0008097
3337.14	0.0007797
3346.78	0.0004978
3356.43	0.00054
3366.07	0.0005262
3375.72	0.0005975
3385.36	0.0004896
3395.01	0.0005086
3404.65	0.0002292
3414.3	0.000385
3423.94	0.00024675
3433.59	0.0003571
3443.23	0.00034124
3452.88	0.0004316
3462.52	0.00033611
3472.17	0.0003816
3481.81	0.00026047
3491.46	0.00024237
3501.1	0.0003826
3510.75	0.0001594
3520.39	0.0003708
3530.04	0.0003625
3539.68	0.0003372
3549.32	0.0003517
3558.97	0.0003765
3568.61	0.0001492
3578.26	0.00026135
3587.9	0.0002291
3597.55	0.0001559
3607.19	0.000252234
3616.84	0.0004382
3626.48	0.000128
3636.13	0.0004003
3645.77	0.000204
3655.42	0.0003944
3665.06	0.0004629
3674.71	0.00033636
3684.35	0.0003546
3694	0.0004565
3703.64	0.00032787
3713.29	0.00029528
3722.93	0.0001969
3732.58	0.00027886
3742.22	0.00027072
3751.86	0.0002424
3761.51	0.0003605
3771.15	0.000254086
3780.8	0.00031137
3790.44	0.00031601
3800.09	0.0003799
3809.73	0.00026718
3819.38	0.00031762
3829.02	0.0005365
3838.67	0.000131
3848.31	0.0003948
3857.96	0.0003924
3867.6	0.0004402
3877.25	0.00031544
3886.89	0.0003602
3896.54	0.0005877
3906.18	0.0002013
3915.83	0.00029303
3925.47	0.0004487
3935.12	0.0002279
3944.76	0.0004394
3954.41	0.00028953
3964.05	0.0004389
3973.69	0.0005786
3983.34	0.00027201
3992.98	0.0004792
