Infrared Spectrum: Diphenyl terephthalate
Formula: C20 H14 O4
CAS: 1539-04-4
State: gas
Origin: EPA-IR VAPOR PHASE LIBRARY
1/CM	ABSORBANCE
501.5	0.0015294
513.074	0.0010096
524.648	0.0005863
536.222	0.000343
547.796	0
559.37	0.00011609
570.944	0.00012282
582.518	0.0006918
594.092	0.0004878
605.666	0.0001798
617.24	0.0002056
628.814	0.0004178
640.388	0.0003538
651.962	0.0005555
663.536	0.0012194
675.11	0.0024394
686.684	0.0041194
698.258	0.0035094
709.832	0.0046694
721.406	0.0071794
732.98	0.0071694
744.554	0.0065794
756.128	0.0047194
767.702	0.0028494
779.276	0.0016894
790.85	0.0014794
802.423	0.0018194
813.997	0.0015994
825.571	0.0016094
837.145	0.0023794
848.719	0.0022694
860.293	0.0020394
871.867	0.0021794
883.441	0.0013994
895.015	0.0014494
906.589	0.0021494
918.163	0.0013694
929.737	0.0009586
941.311	0.000765
952.885	0.0007697
964.459	0.0007933
976.033	0.0010994
987.607	0.0020794
999.181	0.0062194
1010.76	0.0102894
1022.33	0.0126594
1033.9	0.0033094
1045.48	0.0052894
1057.05	0.0156394
1068.63	0.0484494
1080.2	0.0334594
1091.77	0.0072294
1103.35	0.0037194
1114.92	0.0026994
1126.49	0.0024594
1138.07	0.0031494
1149.64	0.0063094
1161.22	0.0228494
1172.79	0.0142294
1184.36	0.0406994
1195.94	0.0803894
1207.51	0.0271994
1219.09	0.0228894
1230.66	0.0390694
1242.23	0.0389094
1253.81	0.0582594
1265.38	0.0423894
1276.96	0.0173794
1288.53	0.0090194
1300.1	0.0062494
1311.68	0.0043694
1323.25	0.0028694
1334.83	0.0020894
1346.4	0.0019294
1357.97	0.0017494
1369.55	0.0019194
1381.12	0.0017794
1392.7	0.0020794
1404.27	0.0040694
1415.84	0.0027294
1427.42	0.0017494
1438.99	0.0017794
1450.57	0.0020394
1462.14	0.0029394
1473.71	0.0051494
1485.29	0.0112194
1496.86	0.0155594
1508.44	0.0033594
1520.01	0.0019294
1531.58	0.0013594
1543.16	0.0013194
1554.73	0.0015594
1566.31	0.0025494
1577.88	0.0049294
1589.45	0.0076894
1601.03	0.0053794
1612.6	0.0017394
1624.18	0.0010131
1635.75	0.000858
1647.32	0.0008121
1658.9	0.0007876
1670.47	0.0007768
1682.05	0.0009474
1693.62	0.0012994
1705.19	0.0017694
1716.77	0.0027094
1728.34	0.0037294
1739.92	0.0076594
1751.49	0.0308594
1763.06	0.0336594
1774.64	0.0083594
1786.21	0.0037194
1797.79	0.0024194
1809.36	0.0020394
1820.93	0.0016894
1832.51	0.0011594
1844.08	0.0010242
1855.66	0.0008695
1867.23	0.0007973
1878.8	0.0007437
1890.38	0.0006774
1901.95	0.0007181
1913.53	0.0008215
1925.1	0.0009234
1936.67	0.0009607
1948.25	0.0010794
1959.82	0.0007301
1971.4	0.000678
1982.97	0.0007078
1994.54	0.000722
2006.12	0.0007494
2017.69	0.0007297
2029.27	0.0005784
2040.84	0.0005031
2052.41	0.0004276
2063.99	0.0004593
2075.56	0.0004583
2087.14	0.0004882
2098.71	0.00051
2110.28	0.0005015
2121.86	0.0004568
2133.43	0.0004807
2145.01	0.0004155
2156.58	0.0003328
2168.15	0.0002913
2179.73	0.000312
2191.3	0.0002959
2202.88	0.0003017
2214.45	0.0002901
2226.02	0.0002736
2237.6	0.0003417
2249.17	0.0003373
2260.74	0.0003411
2272.32	0.0003755
2283.89	0.0003962
2295.47	0.0004524
2307.04	0.0005191
2318.61	0.0006067
2330.19	0.0005821
2341.76	0.0004975
2353.34	0.0005208
2364.91	0.000504
2376.48	0.0005041
2388.06	0.0005512
2399.63	0.0004571
2411.21	0.0003953
2422.78	0.0003687
2434.35	0.0003315
2445.93	0.0003285
2457.5	0.0003227
2469.08	0.0003298
2480.65	0.0003288
2492.22	0.0003358
2503.8	0.0003712
2515.37	0.0003328
2526.95	0.0003408
2538.52	0.0003325
2550.09	0.0003553
2561.67	0.0003288
2573.24	0.0002905
2584.82	0.0003435
2596.39	0.0002814
2607.96	0.0003043
2619.54	0.0003536
2631.11	0.0003066
2642.69	0.0003229
2654.26	0.0003221
2665.83	0.0002761
2677.41	0.0002559
2688.98	0.0002771
2700.56	0.0002743
2712.13	0.0002842
2723.7	0.0002407
2735.28	0.0002866
2746.85	0.0003627
2758.43	0.0003025
2770	0.000329
2781.57	0.0003261
2793.15	0.0003585
2804.72	0.000369
2816.3	0.0003675
2827.87	0.0003636
2839.44	0.0004028
2851.02	0.0004488
2862.59	0.0004667
2874.17	0.0004499
2885.74	0.0003759
2897.31	0.0003833
2908.89	0.0003723
2920.46	0.0003177
2932.04	0.0003324
2943.61	0.0003676
2955.18	0.0003311
2966.76	0.0003658
2978.33	0.0003447
2989.91	0.0004018
3001.48	0.000487
3013.05	0.0006918
3024.63	0.0010894
3036.2	0.0017694
3047.78	0.0032394
3059.35	0.0025294
3070.92	0.0030894
3082.5	0.0044494
3094.07	0.0026094
3105.65	0.0019894
3117.22	0.0009094
3128.79	0.0005586
3140.37	0.0004267
3151.94	0.0003685
3163.52	0.0003694
3175.09	0.0003277
3186.66	0.0003551
3198.24	0.0002773
3209.81	0.0003313
3221.39	0.0003053
3232.96	0.0003618
3244.53	0.0003212
3256.11	0.0003415
3267.68	0.0003256
3279.26	0.0002298
3290.83	0.0002761
3302.4	0.0002742
3313.98	0.0002136
3325.55	0.00033
3337.13	0.0002958
3348.7	0.0002559
3360.27	0.000358
3371.85	0.0003594
3383.42	0.0004129
3395	0.000302
3406.57	0.0003604
3418.14	0.0002688
3429.72	0.0003153
3441.29	0.0003353
3452.86	0.0003389
3464.44	0.0003524
3476.01	0.0003971
3487.59	0.0006378
3499.16	0.0007511
3510.73	0.0006409
3522.31	0.0005104
3533.88	0.0004416
3545.46	0.0003892
3557.03	0.0003039
3568.6	0.0004383
3580.18	0.0003936
3591.75	0.0004194
3603.33	0.0003605
3614.9	0.0003605
3626.47	0.0003614
3638.05	0.0003712
3649.62	0.0004805
3661.2	0.0004527
3672.77	0.0004998
3684.34	0.0004234
3695.92	0.0003751
3707.49	0.0003797
3719.07	0.000452
3730.64	0.0004327
3742.21	0.0004588
3753.79	0.0003538
3765.36	0.0003792
3776.94	0.000368
3788.51	0.0003366
3800.08	0.000411
3811.66	0.0004031
3823.23	0.0003982
3834.81	0.0004617
3846.38	0.000462
3857.95	0.0003762
3869.53	0.000505
3881.1	0.0004666
3892.68	0.0004582
3904.25	0.0004674
3915.82	0.000466
3927.4	0.0003815
3938.97	0.0004175
3950.55	0.0003154
3962.12	0.0004941
3973.69	0.0004341
3985.27	0.0003651
3996.84	0.0003816
