Infrared Spectrum: 5-Ethyl bicyclo[2.2.1]-2-heptene
Formula: C 9 H 14
CAS: 15403-89-1
State: gas
Instrument: HP-GC/MS/IRD
Origin: NIST Mass Spectrometry Data Center
1/CM	ABSORBANCE
550	0.000282
562	0.00012
574	0.000207
586	0.000114
598	1.2e-05
610	7.2e-05
622	9e-05
634	0.000153
646	0.00024
658	0.000255
670	0.000309
682	0.000273
694	0.001197
706	0.00483
718	0.007248
730	0.004173
742	0.000834
754	0.000462
766	0.000633
778	0.000702
790	0.000324
802	0.000297
814	0.000675
826	0.000948
838	0.000825
850	0.000333
862	8.7e-05
874	8.4e-05
886	0.00021
898	0.000714
910	0.000885
922	0.00051
934	0.000555
946	0.000627
958	0.000435
970	0.000411
982	0.000318
994	0.000156
1006	6.9e-05
1018	0.000132
1030	0.000162
1042	5.7e-05
1054	8.7e-05
1066	4.2e-05
1078	0.000132
1090	0.000291
1102	0.000339
1114	0.0003
1126	0.000288
1138	0.000309
1150	0.000369
1162	0.000267
1174	0.000153
1186	0.000183
1198	0.000153
1210	0.000207
1222	0.000327
1234	0.000438
1246	0.000516
1258	0.000597
1270	0.000417
1282	0.000279
1294	0.000303
1306	0.000432
1318	0.000756
1330	0.001404
1342	0.001626
1354	0.001029
1366	0.000708
1378	0.000843
1390	0.00078
1402	0.00036
1414	0.00027
1426	0.000426
1438	0.000912
1450	0.001743
1462	0.001938
1474	0.001236
1486	0.000528
1498	0.000225
1510	0.000129
1522	9.6e-05
1534	9.6e-05
1546	0.000111
1558	0.000264
1570	0.000318
1582	0.000279
1594	0.000177
1606	0.000303
1618	0.000495
1630	0.000441
1642	0.000273
1654	0.000171
1666	9e-05
1678	6e-05
1690	4.5e-05
1702	5.1e-05
1714	3.3e-05
1726	3e-05
1738	5.1e-05
1750	4.5e-05
1762	2.7e-05
1774	4.2e-05
1786	4.2e-05
1798	7.2e-05
1810	6.6e-05
1822	5.1e-05
1834	4.5e-05
1846	2.1e-05
1858	2.4e-05
1870	1.5e-05
1882	2.4e-05
1894	2.7e-05
1906	2.7e-05
1918	1.8e-05
1930	2.4e-05
1942	1.5e-05
1954	3.3e-05
1966	1.8e-05
1978	9e-06
1990	6e-06
2002	9e-06
2014	9e-06
2026	4.8e-05
2038	5.7e-05
2050	6.3e-05
2062	7.8e-05
2074	6.3e-05
2086	6.9e-05
2098	6.6e-05
2110	4.5e-05
2122	4.5e-05
2134	4.2e-05
2146	6.3e-05
2158	5.7e-05
2170	6.3e-05
2182	8.7e-05
2194	9.3e-05
2206	8.7e-05
2218	5.7e-05
2230	6.9e-05
2242	4.2e-05
2254	6e-05
2266	3.9e-05
2278	4.2e-05
2290	4.8e-05
2302	0
2314	6e-06
2326	2.7e-05
2338	4.5e-05
2350	4.5e-05
2362	4.5e-05
2374	4.5e-05
2386	3e-05
2398	3.6e-05
2410	2.1e-05
2422	2.4e-05
2434	3.6e-05
2446	3.3e-05
2458	3e-05
2470	6e-06
2482	4.2e-05
2494	2.1e-05
2506	6e-06
2518	5.1e-05
2530	1.8e-05
2542	9e-06
2554	3.9e-05
2566	1.5e-05
2578	5.7e-05
2590	6e-05
2602	7.2e-05
2614	8.4e-05
2626	8.7e-05
2638	7.8e-05
2650	9.3e-05
2662	7.2e-05
2674	7.5e-05
2686	7.8e-05
2698	9.6e-05
2710	0.000117
2722	0.00012
2734	0.000186
2746	0.000186
2758	0.000201
2770	0.00021
2782	0.000249
2794	0.000291
2806	0.000366
2818	0.000504
2830	0.00075
2842	0.00123
2854	0.003009
2866	0.006681
2878	0.00993
2890	0.009354
2902	0.007245
2914	0.007596
2926	0.010743
2938	0.015798
2950	0.02025
2962	0.026619
2974	0.029064
2986	0.016503
2998	0.004566
3010	0.001299
3022	0.000768
3034	0.000837
3046	0.001692
3058	0.003459
3070	0.003729
3082	0.001896
3094	0.000723
3106	0.00048
3118	0.000462
3130	0.000483
3142	0.00051
3154	0.000348
3166	0.000195
3178	0.00012
3190	8.4e-05
3202	0.000105
3214	0.000102
3226	5.1e-05
3238	2.1e-05
3250	2.4e-05
3262	3.9e-05
3274	9e-06
3286	5.1e-05
3298	6.6e-05
3310	4.5e-05
3322	6.6e-05
3334	6.9e-05
3346	6.3e-05
3358	6.6e-05
3370	5.4e-05
3382	5.7e-05
3394	4.5e-05
3406	5.4e-05
3418	5.7e-05
3430	8.7e-05
3442	0.000138
3454	8.7e-05
3466	9.6e-05
3478	6.6e-05
3490	5.4e-05
3502	7.8e-05
3514	9e-05
3526	6e-05
3538	8.1e-05
3550	9e-05
3562	3.3e-05
3574	6e-05
3586	6.3e-05
3598	9.3e-05
3610	8.4e-05
3622	9.9e-05
3634	0.000141
3646	7.5e-05
3658	0.000129
3670	0.00012
3682	8.4e-05
3694	0.000156
3706	0.000153
3718	0.000159
3730	0.000144
3742	0.000186
3754	0.000177
3766	0.00015
3778	0.000159
3790	0.000216
3802	0.000171
3814	0.00015
3826	0.000132
3838	0.000144
