Infrared Spectrum: ANILINE, N-tert-BUTYL-, HYDROCHLORIDE
Formula: C10 H16 Cl N
CAS: 15408-59-0
State: SOLID (KCl DISC) VS KCl
Class: COBLENTZ III
Instrument: PERKIN-ELMER 21 (GRATING)
Instrument parameters: FILTER AT ABOUT 10 MICRONS
Sampling: TRANSMISSION
Resolution: 2
1/CM	TRANSMITTANCE
4000	0.9777
3991	0.9775
3982	0.9775
3973	0.9774
3964	0.9775
3955	0.9778
3946	0.9782
3937	0.9787
3928	0.9791
3919	0.9795
3910	0.9801
3901	0.9807
3892	0.9814
3883	0.982
3874	0.9825
3865	0.9831
3856	0.9837
3847	0.9842
3838	0.9848
3829	0.9853
3820	0.9858
3811	0.9863
3802	0.9868
3793	0.9875
3784	0.9877
3775	0.9878
3766	0.988
3757	0.9882
3748	0.9884
3739	0.9885
3730	0.9885
3721	0.9885
3712	0.9884
3703	0.988
3694	0.9877
3685	0.9873
3676	0.9864
3667	0.9853
3658	0.9837
3649	0.9808
3640	0.978
3631	0.9727
3622	0.9666
3613	0.9605
3604	0.9541
3595	0.9452
3586	0.937
3577	0.9295
3568	0.9178
3559	0.9055
3550	0.8915
3541	0.8775
3532	0.8717
3523	0.8655
3514	0.8587
3505	0.852
3496	0.8478
3487	0.8449
3478	0.8432
3469	0.8416
3460	0.8409
3451	0.8403
3442	0.8398
3433	0.8399
3424	0.8401
3415	0.8404
3406	0.842
3397	0.8446
3388	0.848
3379	0.8518
3370	0.8557
3361	0.8616
3352	0.8687
3343	0.8752
3334	0.8804
3325	0.8853
3316	0.8899
3307	0.8944
3298	0.8982
3289	0.9
3280	0.9
3271	0.8995
3262	0.8968
3253	0.8859
3244	0.8655
3235	0.8386
3226	0.8175
3217	0.805
3208	0.7993
3199	0.7971
3190	0.7951
3181	0.7921
3172	0.7876
3163	0.7807
3154	0.7574
3145	0.7254
3136	0.6696
3127	0.6132
3118	0.5565
3109	0.4995
3100	0.4489
3091	0.4334
3082	0.4095
3073	0.3679
3064	0.327
3055	0.2858
3046	0.2443
3037	0.2027
3028	0.1607
3019	0.1185
3010	0.0939
3001	0.0766
2992	0.0673
2983	0.0619
2974	0.0604
2965	0.0597
2956	0.06
2947	0.0607
2938	0.0616
2929	0.0625
2920	0.0636
2911	0.0649
2902	0.0663
2893	0.0682
2884	0.0713
2875	0.0748
2866	0.0809
2857	0.0895
2848	0.1169
2839	0.1811
2830	0.245
2821	0.2999
2812	0.3552
2803	0.4107
2794	0.4647
2785	0.4674
2776	0.4634
2767	0.4719
2758	0.5238
2749	0.5762
2740	0.6288
2731	0.6818
2722	0.7351
2713	0.758
2704	0.7601
2695	0.7461
2686	0.7082
2677	0.6699
2668	0.6314
2659	0.601
2650	0.6054
2641	0.6615
2632	0.7225
2623	0.784
2614	0.8308
2605	0.8334
2596	0.8036
2587	0.7326
2578	0.663
2569	0.6306
2560	0.6181
2551	0.6206
2542	0.6734
2533	0.7361
2524	0.7996
2515	0.8499
2506	0.8525
2497	0.8474
2488	0.8258
2479	0.8138
2470	0.813
2461	0.8271
2452	0.8658
2443	0.8878
2434	0.9081
2425	0.924
2416	0.9374
2407	0.9451
2398	0.9507
2389	0.9535
2380	0.955
2371	0.9561
2362	0.9568
2353	0.9568
2344	0.9558
2335	0.9546
2326	0.9537
2317	0.9537
2308	0.9562
2299	0.96
2290	0.965
2281	0.9691
2272	0.972
2263	0.9739
2254	0.9757
2245	0.9773
2236	0.9784
2227	0.9795
2218	0.98
2209	0.9803
2200	0.9811
2191	0.9821
2182	0.9827
2173	0.98
2164	0.9691
2155	0.9635
2146	0.9617
2137	0.955
2128	0.9537
2119	0.9535
2110	0.9489
2101	0.9215
2092	0.8575
2083	0.7925
2074	0.7593
2065	0.7553
2056	0.7482
2047	0.7421
2038	0.7549
2029	0.8082
2020	0.8552
2011	0.879
2002	0.9003
1993	0.9161
1984	0.9248
1975	0.9287
1966	0.9187
1957	0.9161
1948	0.9249
1939	0.9352
1930	0.9442
1921	0.9527
1912	0.9563
1903	0.9546
1894	0.9497
1885	0.9451
1876	0.9643
1867	0.9733
1858	0.9752
1849	0.9763
1840	0.9721
1831	0.9658
1822	0.9557
1813	0.9621
1804	0.969
1795	0.9702
1786	0.9714
1777	0.9647
1768	0.9498
1759	0.9496
1750	0.9538
1741	0.9574
1732	0.9556
1723	0.9548
1714	0.9578
1705	0.9593
1696	0.9515
1687	0.949
1678	0.944
1669	0.9365
1660	0.9271
1651	0.916
1642	0.8989
1633	0.8794
1624	0.8527
1615	0.7014
1606	0.6738
1597	0.7911
1588	0.877
1579	0.8925
1570	0.9071
1561	0.9084
1552	0.9003
1543	0.8987
1534	0.8893
1525	0.8644
1516	0.7582
1507	0.6074
1498	0.4677
1489	0.6268
1480	0.8266
1471	0.7862
1462	0.6884
1453	0.7119
1444	0.8552
1435	0.9033
1426	0.9228
1417	0.9256
1408	0.9218
1399	0.8496
1390	0.5837
1381	0.6991
1372	0.6296
1363	0.9165
1354	0.9384
1345	0.8767
1336	0.8932
1327	0.9497
1318	0.945
1309	0.9297
1300	0.9186
1291	0.8531
1282	0.5116
1273	0.7648
1264	0.9018
1255	0.9316
1246	0.94
1237	0.9433
1228	0.9452
1219	0.9449
1210	0.9368
1201	0.9324
1192	0.9088
1183	0.8432
1174	0.654
1165	0.7008
1156	0.7226
1147	0.8841
1138	0.9112
1129	0.9375
1120	0.9428
1111	0.9365
1102	0.9378
1093	0.9359
1084	0.8509
1075	0.8913
1066	0.9142
1057	0.9212
1048	0.8973
1039	0.9271
1030	0.8778
1021	0.8921
1012	0.9175
1003	0.9203
994	0.9037
985	0.8971
976	0.9193
967	0.9212
958	0.9433
949	0.9601
940	0.9656
931	0.9712
922	0.9712
913	0.9457
904	0.9632
895	0.9704
886	0.9721
877	0.9537
868	0.9615
859	0.9692
850	0.9725
841	0.976
832	0.9812
823	0.9647
814	0.9641
805	0.9739
796	0.9696
787	0.9347
778	0.4698
769	0.9016
760	0.9591
751	0.9613
742	0.9541
733	0.8215
724	0.5471
715	0.9001
706	0.716
697	0.8315
688	0.9471
679	0.9477
670	0.9495
661	0.9596
