Infrared Spectrum: 2-(DIMETHYLAMINOMETHYL) CYCLOHEXANONE
Formula: C9 H17 N O
CAS: 15409-60-6
Class: COBLENTZ
Instrument: Not specified, most likely a prism, grating, or hybrid spectrometer.
Sampling: TRANSMISSION
Path length: FILM
Resolution: 4
Origin: DOW CHEMICAL COMPANY
MICROMETERS	TRANSMITTANCE
2.02	0.76
2.06076	0.762
2.10152	0.762
2.14228	0.765
2.18304	0.767
2.22379	0.759
2.26455	0.75
2.30531	0.757
2.34607	0.757
2.38683	0.759
2.42759	0.762
2.46835	0.767
2.50911	0.772
2.54987	0.781
2.59062	0.776
2.63138	0.774
2.67214	0.782
2.7129	0.759
2.75366	0.732
2.79442	0.693
2.83518	0.691
2.87594	0.688
2.9167	0.668
2.95745	0.673
2.99821	0.693
3.03897	0.7
3.07973	0.702
3.12049	0.703
3.16125	0.713
3.20201	0.723
3.24277	0.727
3.28353	0.715
3.32428	0.641
3.36504	0.348
3.4058	0.121
3.44656	0.272
3.48732	0.249
3.52808	0.301
3.56884	0.279
3.6096	0.308
3.65036	0.486
3.69112	0.656
3.73187	0.755
3.77263	0.774
3.81339	0.796
3.85415	0.804
3.89491	0.811
3.93567	0.811
3.97643	0.809
4.01719	0.818
4.05795	0.821
4.0987	0.824
4.13946	0.828
4.18022	0.831
4.22098	0.821
4.26174	0.813
4.3025	0.824
4.34326	0.835
4.38402	0.836
4.42478	0.838
4.46553	0.84
4.50629	0.84
4.54705	0.84
4.58781	0.84
4.62857	0.838
4.66933	0.836
4.71009	0.835
4.75085	0.838
4.79161	0.835
4.83236	0.836
4.87312	0.84
4.91388	0.84
4.95464	0.843
4.9954	0.846
5.03616	0.84
5.07692	0.846
5.11768	0.85
5.15844	0.848
5.19919	0.843
5.23995	0.84
5.28071	0.841
5.32147	0.838
5.36223	0.838
5.40299	0.84
5.44375	0.835
5.48451	0.833
5.52527	0.823
5.56602	0.816
5.60678	0.806
5.64754	0.771
5.6883	0.745
5.72906	0.703
5.76982	0.548
5.81058	0.303
5.85134	0.095
5.8921	0.156
5.93285	0.542
5.97361	0.69
6.01437	0.734
6.05513	0.752
6.09589	0.769
6.13665	0.779
6.17741	0.792
6.21817	0.816
6.25893	0.821
6.29968	0.828
6.34044	0.823
6.3812	0.823
6.42196	0.816
6.46272	0.819
6.50348	0.809
6.54424	0.811
6.585	0.797
6.62576	0.782
6.66652	0.76
6.70727	0.712
6.74803	0.632
6.78879	0.424
6.82955	0.274
6.87031	0.255
6.91107	0.356
6.95183	0.481
6.99259	0.558
7.03335	0.673
7.0741	0.708
7.11486	0.713
7.15562	0.651
7.19638	0.567
7.23714	0.565
7.2779	0.691
7.31866	0.72
7.35942	0.722
7.40018	0.695
7.44093	0.678
7.48169	0.728
7.52245	0.715
7.56321	0.631
7.60397	0.51
7.64473	0.525
7.68549	0.574
7.72625	0.606
7.76701	0.641
7.80776	0.579
7.84852	0.555
7.88928	0.518
7.93004	0.562
7.9708	0.659
8.01156	0.712
8.05232	0.7
8.09308	0.648
8.13384	0.584
8.17459	0.486
8.21535	0.531
8.25611	0.683
8.29687	0.712
8.33763	0.722
8.37839	0.685
8.41915	0.649
8.45991	0.612
8.50067	0.666
8.54142	0.683
8.58218	0.631
8.62294	0.548
8.6637	0.572
8.70446	0.67
8.74522	0.68
8.78598	0.627
8.82674	0.486
8.8675	0.37
8.90825	0.442
8.94901	0.557
8.98977	0.597
9.03053	0.663
9.07129	0.627
9.11205	0.59
9.15281	0.663
9.19357	0.7
9.23433	0.696
9.27508	0.685
9.31584	0.67
9.3566	0.68
9.39736	0.695
9.43812	0.691
9.47888	0.627
9.51964	0.511
9.5604	0.395
9.60116	0.355
9.64192	0.397
9.68267	0.348
9.72343	0.292
9.76419	0.424
9.80495	0.57
9.84571	0.678
9.88647	0.744
9.92723	0.76
9.96799	0.771
10.0087	0.787
10.0495	0.799
10.0903	0.804
10.131	0.804
10.1718	0.797
10.2125	0.792
10.2533	0.781
10.2941	0.764
10.3348	0.742
10.3756	0.718
10.4163	0.784
10.4571	0.821
10.4979	0.829
10.5386	0.813
10.5794	0.797
10.6201	0.799
10.6609	0.811
10.7016	0.821
10.7424	0.821
10.7832	0.821
10.8239	0.823
10.8647	0.818
10.9054	0.821
10.9462	0.821
10.987	0.814
11.0277	0.811
11.0685	0.811
11.1092	0.801
11.15	0.782
11.1908	0.755
11.2315	0.727
11.2723	0.69
11.313	0.643
11.3538	0.595
11.3945	0.563
11.4353	0.582
11.4761	0.646
11.5168	0.673
11.5576	0.67
11.5983	0.661
11.6391	0.664
11.6799	0.651
11.7206	0.644
11.7614	0.646
11.8021	0.654
11.8429	0.695
11.8837	0.707
11.9244	0.691
11.9652	0.67
12.0059	0.646
12.0467	0.606
12.0874	0.607
12.1282	0.676
12.169	0.705
12.2097	0.708
12.2505	0.69
12.2912	0.636
12.332	0.585
12.3728	0.599
12.4135	0.643
12.4543	0.685
12.495	0.71
12.5358	0.72
12.5766	0.725
12.6173	0.735
12.6581	0.744
12.6988	0.752
12.7396	0.754
12.7804	0.759
12.8211	0.762
12.8619	0.762
12.9026	0.764
12.9434	0.769
12.9841	0.767
13.0249	0.762
13.0657	0.757
13.1064	0.755
13.1472	0.75
13.1879	0.747
13.2287	0.747
13.2695	0.745
13.3102	0.742
13.351	0.74
13.3917	0.739
13.4325	0.739
13.4733	0.739
13.514	0.739
13.5548	0.734
13.5955	0.732
13.6363	0.72
13.677	0.713
13.7178	0.708
13.7586	0.708
13.7993	0.712
13.8401	0.71
13.8808	0.708
13.9216	0.707
13.9624	0.702
14.0031	0.696
14.0439	0.691
14.0846	0.686
14.1254	0.68
14.1662	0.675
14.2069	0.666
14.2477	0.661
14.2884	0.654
14.3292	0.648
14.3699	0.641
14.4107	0.629
14.4515	0.619
14.4922	0.609
14.533	0.601
14.5737	0.592
14.6145	0.582
14.6553	0.574
14.696	0.567
14.7368	0.558
14.7775	0.55
14.8183	0.538
14.8591	0.528
14.8998	0.518
14.9406	0.506
14.9813	0.511
15.0221	0.513
15.0628	0.501
15.1036	0.491
15.1444	0.486
15.1851	0.481
15.2259	0.479
15.2666	0.476
15.3074	0.468
15.3482	0.464
15.3889	0.456
15.4297	0.447
15.4704	0.437
15.5112	0.429
15.552	0.42
15.5927	0.415
15.6335	0.407
15.6742	0.4
15.715	0.392
15.7558	0.385
15.7965	0.382
15.8373	0.378
15.878	0.378
