Infrared Spectrum: 1,5-Heptadiene
Formula: C 7 H 12
CAS: 1541-23-7
State: gas
Instrument: HP-GC/MS/IRD
Origin: NIST Mass Spectrometry Data Center
1/CM	ABSORBANCE
550	0.000566
562	5.7e-05
574	0.000135
586	0.000176
598	0.000179
610	0.000373
622	0.000591
634	0.000625
646	0.00056
658	0.000363
670	0.000394
682	6.4e-05
694	0.00013
706	0.000209
718	0.00024
730	0.00015
742	0.000233
754	0.000305
766	0.000188
778	0.000232
790	0.000425
802	0.000246
814	0.000313
826	0.000302
838	0.000446
850	0.000514
862	0.000739
874	0.000934
886	0.001367
898	0.002368
910	0.003746
922	0.00392
934	0.003183
946	0.003227
958	0.004023
970	0.004212
982	0.003431
994	0.002817
1006	0.001993
1018	0.001343
1030	0.000952
1042	0.000843
1054	0.000815
1066	0.00077
1078	0.000614
1090	0.000455
1102	0.000319
1114	0.000377
1126	0.000335
1138	0.000308
1150	0.000214
1162	0.00023
1174	0.00023
1186	0.000263
1198	0.000288
1210	0.000307
1222	0.000297
1234	0.000323
1246	0.000431
1258	0.000423
1270	0.000355
1282	0.000501
1294	0.000582
1306	0.000663
1318	0.000619
1330	0.00062
1342	0.000615
1354	0.000537
1366	0.000537
1378	0.000659
1390	0.000738
1402	0.000771
1414	0.001016
1426	0.001287
1438	0.001728
1450	0.001786
1462	0.001375
1474	0.000931
1486	0.000644
1498	0.00046
1510	0.000393
1522	0.00032
1534	0.000313
1546	0.000333
1558	0.000261
1570	0.000227
1582	0.000252
1594	0.000317
1606	0.00041
1618	0.000646
1630	0.001229
1642	0.001647
1654	0.000974
1666	0.000421
1678	0.000318
1690	0.000314
1702	0.000274
1714	0.000304
1726	0.00028
1738	0.000274
1750	0.000257
1762	0.000194
1774	0.000177
1786	0.000216
1798	0.000265
1810	0.00033
1822	0.000475
1834	0.000479
1846	0.000297
1858	0.00015
1870	0.000115
1882	0.000128
1894	0.000142
1906	0.000125
1918	0.00012
1930	0.000136
1942	0.000167
1954	0.000164
1966	0.000167
1978	0.000175
1990	0.000182
2002	0.000138
2014	9.6e-05
2026	9.6e-05
2038	0.000113
2050	0.000105
2062	8.3e-05
2074	7e-05
2086	9.9e-05
2098	0.000126
2110	0.00013
2122	7.6e-05
2134	7.9e-05
2146	8.2e-05
2158	2.5e-05
2170	9.7e-05
2182	0.000108
2194	8.1e-05
2206	5.4e-05
2218	3.2e-05
2230	0.000103
2242	0.000111
2254	8.5e-05
2266	6.9e-05
2278	0.000108
2290	7.6e-05
2302	8.9e-05
2314	0.000127
2326	9.3e-05
2338	0.000148
2350	9.9e-05
2362	0.000131
2374	0.000106
2386	0.000109
2398	9.8e-05
2410	0.00012
2422	0.000153
2434	0.0001
2446	0.000164
2458	0.000147
2470	0.000106
2482	0.000122
2494	0.000105
2506	0.00012
2518	0.000201
2530	0.000189
2542	0.00019
2554	0.00017
2566	0.000139
2578	0.000164
2590	0.000158
2602	0.000207
2614	0.000212
2626	0.00025
2638	0.000198
2650	0.000172
2662	0.00017
2674	0.000243
2686	0.000261
2698	0.000225
2710	0.000287
2722	0.000271
2734	0.000435
2746	0.000417
2758	0.000401
2770	0.00038
2782	0.000377
2794	0.000436
2806	0.000515
2818	0.000764
2830	0.001228
2842	0.00211
2854	0.00308
2866	0.003952
2878	0.003811
2890	0.003944
2902	0.005224
2914	0.007564
2926	0.009904
2938	0.009246
2950	0.006538
2962	0.005161
2974	0.004779
2986	0.004596
2998	0.00448
3010	0.004221
3022	0.003629
3034	0.002929
3046	0.00232
3058	0.002048
3070	0.002298
3082	0.002912
3094	0.002556
3106	0.001295
3118	0.000723
3130	0.000596
3142	0.000535
3154	0.000461
3166	0.00037
3178	0.000341
3190	0.000214
3202	0.000245
3214	0.000209
3226	0.000272
3238	0.000199
3250	0.000237
3262	0.00023
3274	0.000232
3286	0.000254
3298	0.000222
3310	0.000179
3322	0.000203
3334	0.000215
3346	0.000216
3358	0.000209
3370	0.000161
3382	0.000189
3394	0.00019
3406	0.000205
3418	0.000249
3430	0.000168
3442	0.000238
3454	0.000175
3466	0.000218
3478	0.000193
3490	0.000192
3502	0.000199
3514	0.000126
3526	0.00015
3538	0.00017
3550	9e-05
3562	0.000169
3574	0.000138
3586	0.000121
3598	0.000152
3610	0.000167
3622	9.9e-05
3634	0.000103
3646	0.000132
3658	8.1e-05
3670	0.000102
3682	0.000181
3694	0.000168
3706	0.000101
3718	0.000161
3730	9.4e-05
3742	0.000137
3754	0.00014
3766	5.7e-05
3778	0.000148
3790	0.00016
3802	0.000132
3814	0.000132
3826	0.000138
3838	0.000158
