Infrared Spectrum: CARBAMIC ACID, (HYDROXYMETHYL)-,METHYL ESTER
Formula: C3 H7 N O3
CAS: 15438-65-0
State: SOLID(SPLIT MULL)
Class: COBLENTZ III
Instrument: DOW KBr FOREPRISM-GRATING
Instrument parameters: BLAZED AT 3.5, 12.0, 20.0 MICRON AND CHANGED AT 5.0, 7.5, 14.9 MICRON
Sampling: TRANSMISSION
Resolution: 2
Origin: DOW CHEMICAL COMPANY
1/CM	TRANSMITTANCE
457	0.8532
466	0.8491
475	0.8435
484	0.8365
493	0.8225
502	0.8078
511	0.7932
520	0.7772
529	0.7599
538	0.7275
547	0.6876
556	0.6224
565	0.5535
574	0.4754
583	0.4894
592	0.5945
601	0.3909
610	0.2137
619	0.3055
628	0.4878
637	0.6147
646	0.624
655	0.6015
664	0.558
673	0.4432
682	0.3532
691	0.3571
700	0.3208
709	0.3428
718	0.3957
727	0.4952
736	0.598
745	0.6678
754	0.7106
763	0.73
772	0.7262
781	0.6831
790	0.5187
799	0.7495
808	0.8165
817	0.8341
826	0.8348
835	0.8343
844	0.8454
853	0.8459
862	0.8408
871	0.8238
880	0.7915
889	0.7074
898	0.34
907	0.8045
916	0.7885
925	0.7617
934	0.7108
943	0.646
952	0.5914
961	0.5186
970	0.3837
979	0.217
988	0.0891
997	0.0695
1006	0.0684
1015	0.0814
1024	0.0993
1033	0.1769
1042	0.3071
1051	0.3818
1060	0.3659
1069	0.2266
1078	0.1844
1087	0.5816
1096	0.637
1105	0.635
1114	0.6276
1123	0.6212
1132	0.6284
1141	0.5969
1150	0.5236
1159	0.5699
1168	0.5654
1177	0.5298
1186	0.4782
1195	0.3704
1204	0.4854
1213	0.452
1222	0.3871
1231	0.3027
1240	0.2148
1249	0.1401
1258	0.0908
1267	0.0761
1276	0.0762
1285	0.0531
1294	0.0594
1303	0.0896
1312	0.1686
1321	0.3029
1330	0.3576
1339	0.4407
1348	0.4644
1357	0.486
1366	0.4887
1375	0.4658
1384	0.3974
1393	0.3714
1402	0.4548
1411	0.3691
1420	0.2262
1429	0.4079
1438	0.417
1447	0.3868
1456	0.267
1465	0.3316
1474	0.4554
1483	0.4278
1492	0.3757
1501	0.3234
1510	0.2657
1519	0.1892
1528	0.1175
1537	0.0584
1546	0.0467
1555	0.125
1564	0.3059
1573	0.366
1582	0.328
1591	0.3807
1600	0.4715
1609	0.4876
1618	0.4774
1627	0.4602
1636	0.4362
1645	0.3944
1654	0.3305
1663	0.2709
1672	0.1629
1681	0.0992
1690	0.0521
1699	0.0582
1708	0.0739
1717	0.1774
1726	0.276
1735	0.3689
1744	0.4921
1753	0.5818
1762	0.679
1771	0.7228
1780	0.7556
1789	0.781
1798	0.7994
1807	0.8106
1816	0.8175
1825	0.8245
1834	0.8336
1843	0.8437
1852	0.85
1861	0.8541
1870	0.8553
1879	0.8539
1888	0.8505
1897	0.8533
1906	0.8647
1915	0.8675
1924	0.867
1933	0.8666
1942	0.8667
1951	0.8658
1960	0.8748
1969	0.8551
1978	0.8494
1987	0.85
1996	0.8583
2005	0.8671
2014	0.8791
2023	0.8824
2032	0.8757
2041	0.8755
2050	0.8765
2059	0.8757
2068	0.8742
2077	0.8715
2086	0.8686
2095	0.8652
2104	0.8611
2113	0.8545
2122	0.84
2131	0.8414
2140	0.8438
2149	0.8395
2158	0.8363
2167	0.8414
2176	0.8498
2185	0.8502
2194	0.8514
2203	0.8524
2212	0.8525
2221	0.8527
2230	0.8525
2239	0.8511
2248	0.8485
2257	0.8441
2266	0.8406
2275	0.8382
2284	0.8375
2293	0.8371
2302	0.8375
2311	0.8371
2320	0.8359
2329	0.8341
2338	0.8316
2347	0.829
2356	0.8257
2365	0.8221
2374	0.8185
2383	0.8147
2392	0.8107
2401	0.8065
2410	0.8011
2419	0.7968
2428	0.7968
2437	0.8018
2446	0.8031
2455	0.8014
2464	0.7987
2473	0.7961
2482	0.7922
2491	0.7934
2500	0.7958
2509	0.79
2518	0.7865
2527	0.7869
2536	0.7872
2545	0.7876
2554	0.7871
2563	0.783
2572	0.7783
2581	0.7769
2590	0.7769
2599	0.7775
2608	0.7781
2617	0.7778
2626	0.7762
2635	0.7711
2644	0.7639
2653	0.7554
2662	0.7451
2671	0.7345
2680	0.7358
2689	0.7442
2698	0.7515
2707	0.7507
2716	0.7491
2725	0.7465
2734	0.7391
2743	0.7312
2752	0.7218
2761	0.7078
2770	0.6915
2779	0.6735
2788	0.6664
2797	0.6651
2806	0.6649
2815	0.6615
2824	0.6471
2833	0.638
2842	0.6304
2851	0.6354
2860	0.6719
2869	0.6695
2878	0.6542
2887	0.634
2896	0.6271
2905	0.6247
2914	0.6169
2923	0.5969
2932	0.5762
2941	0.5475
2950	0.4835
2959	0.466
2968	0.4381
2977	0.4447
2986	0.5424
2995	0.5338
3004	0.4977
3013	0.4965
3022	0.5767
3031	0.5751
3040	0.5532
3049	0.5301
3058	0.513
3067	0.5282
3076	0.5814
3085	0.5819
3094	0.5775
3103	0.567
3112	0.5553
3121	0.5451
3130	0.5322
3139	0.5139
3148	0.5006
3157	0.4869
3166	0.467
3175	0.446
3184	0.4238
3193	0.3882
3202	0.3559
3211	0.3314
3220	0.3052
3229	0.2698
3238	0.2442
3247	0.2178
3256	0.1828
3265	0.1455
3274	0.1234
3283	0.095
3292	0.0911
3301	0.1068
3310	0.1356
3319	0.2069
3328	0.2964
3337	0.3464
3346	0.3925
3355	0.3954
3364	0.3868
3373	0.3708
3382	0.3444
3391	0.3054
3400	0.2199
3409	0.1454
3418	0.0911
3427	0.1042
3436	0.1571
3445	0.27
3454	0.3557
3463	0.436
3472	0.4762
3481	0.5221
3490	0.5773
3499	0.6155
3508	0.6542
3517	0.6831
3526	0.7026
3535	0.7208
3544	0.7343
3553	0.7462
3562	0.7574
3571	0.7683
3580	0.7782
3589	0.7844
3598	0.7875
3607	0.7883
3616	0.7889
3625	0.7892
3634	0.7895
3643	0.7897
3652	0.7898
3661	0.7893
3670	0.7871
3679	0.7853
3688	0.7853
3697	0.7862
3706	0.7868
3715	0.7865
3724	0.7851
3733	0.7833
3742	0.7805
3751	0.7781
3760	0.776
3769	0.7746
3778	0.7736
3787	0.7725
3796	0.7715
