Infrared Spectrum: 1-(Hydroxymethyl)-2-pyrrolidinone
Formula: C5 H9 N O2
CAS: 15438-71-8
State: SOLID (SPLIT MULL), FLUOROLUBE FOR 3800-1330 CM^-^1, NUJOL FOR 1330-400 CM^-^1
Melting point: 81 C
Class: COBLENTZ II
Instrument: DOW KBr FOREPRISM-GRATING
Instrument parameters: BLAZED AT 3.5, 12.0, 20.0 MICRON AND CHANGED AT 5.0, 7.5, 14.9 MICRON
Sampling: TRANSMISSION
Resolution: 2
Origin: DOW CHEMICAL COMPANY
1/CM	TRANSMITTANCE
3800	0.7232
3791	0.7238
3782	0.7246
3773	0.7257
3764	0.7271
3755	0.7285
3746	0.73
3737	0.7315
3728	0.7338
3719	0.736
3710	0.7383
3701	0.7399
3692	0.7383
3683	0.7383
3674	0.7406
3665	0.7428
3656	0.7444
3647	0.7455
3638	0.7465
3629	0.7475
3620	0.7486
3611	0.7499
3602	0.7468
3593	0.748
3584	0.753
3575	0.7493
3566	0.7496
3557	0.7539
3548	0.7547
3539	0.7544
3530	0.7539
3521	0.7536
3512	0.7521
3503	0.7486
3494	0.7444
3485	0.738
3476	0.7285
3467	0.7158
3458	0.7057
3449	0.6999
3440	0.6981
3431	0.6967
3422	0.6936
3413	0.6874
3404	0.679
3395	0.6671
3386	0.6533
3377	0.6377
3368	0.6159
3359	0.5723
3350	0.5383
3341	0.5107
3332	0.4788
3323	0.4379
3314	0.3896
3305	0.3339
3296	0.2815
3287	0.2289
3278	0.1765
3269	0.1538
3260	0.1666
3251	0.2107
3242	0.2782
3233	0.3266
3224	0.358
3215	0.3886
3206	0.4192
3197	0.4417
3188	0.4641
3179	0.4895
3170	0.5131
3161	0.5321
3152	0.5493
3143	0.5644
3134	0.5741
3125	0.5795
3116	0.5831
3107	0.5876
3098	0.5928
3089	0.5985
3080	0.606
3071	0.6138
3062	0.6247
3053	0.6352
3044	0.6461
3035	0.6578
3026	0.67
3017	0.6789
3008	0.6855
2999	0.6862
2990	0.626
2981	0.5715
2972	0.5877
2963	0.5797
2954	0.4242
2945	0.3805
2936	0.4942
2927	0.5488
2918	0.5716
2909	0.5727
2900	0.5129
2891	0.5029
2882	0.5198
2873	0.5542
2864	0.5782
2855	0.5941
2846	0.6082
2837	0.6199
2828	0.6307
2819	0.6408
2810	0.6551
2801	0.6672
2792	0.6806
2783	0.6949
2774	0.7025
2765	0.7035
2756	0.7035
2747	0.7105
2738	0.7189
2729	0.7267
2720	0.7321
2711	0.7372
2702	0.7418
2693	0.746
2684	0.7494
2675	0.7511
2666	0.7526
2657	0.7526
2648	0.7531
2639	0.7543
2630	0.7556
2621	0.7568
2612	0.7592
2603	0.7625
2594	0.7654
2585	0.768
2576	0.7706
2567	0.7725
2558	0.7744
2549	0.7761
2540	0.7778
2531	0.778
2522	0.7776
2513	0.7771
2504	0.7778
2495	0.7792
2486	0.7801
2477	0.7799
2468	0.7784
2459	0.7775
2450	0.7805
2441	0.7836
2432	0.785
2423	0.7817
2414	0.7815
2405	0.784
2396	0.785
2387	0.7867
2378	0.7896
2369	0.7905
2360	0.7881
2351	0.786
2342	0.7875
2333	0.791
2324	0.7946
2315	0.7926
2306	0.7915
2297	0.7914
2288	0.7924
2279	0.7951
2270	0.7984
2261	0.8025
2252	0.8068
2243	0.8108
2234	0.8144
2225	0.8174
2216	0.8196
2207	0.8214
2198	0.8224
2189	0.8234
2180	0.8245
2171	0.8257
2162	0.8268
2153	0.8288
2144	0.8318
2135	0.8351
2126	0.8359
2117	0.8362
2108	0.8374
2099	0.8408
2090	0.8441
2081	0.8468
2072	0.8452
2063	0.8364
2054	0.8303
2045	0.8393
2036	0.8473
2027	0.8512
2018	0.8534
2009	0.8544
2000	0.8544
1991	0.8528
1982	0.8547
1973	0.8571
1964	0.8599
1955	0.8625
1946	0.8639
1937	0.8648
1928	0.8659
1919	0.867
1910	0.8689
1901	0.871
1892	0.8732
1883	0.8755
1874	0.8773
1865	0.8786
1856	0.8781
1847	0.8755
1838	0.8744
1829	0.8733
1820	0.8718
1811	0.8755
1802	0.8775
1793	0.8782
1784	0.8775
1775	0.8753
1766	0.8734
1757	0.8702
1748	0.8648
1739	0.8566
1730	0.8397
1721	0.8055
1712	0.7674
1703	0.7342
1694	0.6589
1685	0.5109
1676	0.1779
1667	0.0809
1658	0.0588
1649	0.0606
1640	0.1451
1631	0.3242
1622	0.4496
1613	0.4633
1604	0.5531
1595	0.6007
1586	0.6404
1577	0.6742
1568	0.7034
1559	0.729
1550	0.7448
1541	0.7508
1532	0.7588
1523	0.7715
1514	0.776
1505	0.764
1496	0.6143
1487	0.506
1478	0.6834
1469	0.3557
1460	0.332
1451	0.5337
1442	0.4722
1433	0.3927
1424	0.4539
1415	0.5271
1406	0.6022
1397	0.4581
1388	0.461
1379	0.6503
1370	0.6969
1361	0.7115
1352	0.7051
1343	0.6608
1334	0.6353
1325	0.5423
1316	0.529
1307	0.4998
1298	0.5924
1289	0.3221
1280	0.4258
1271	0.2308
1262	0.1312
1253	0.343
1244	0.5833
1235	0.6511
1226	0.6819
1217	0.6742
1208	0.4904
1199	0.1844
1190	0.463
1181	0.6683
1172	0.5207
1163	0.6079
1154	0.7558
1145	0.7808
1136	0.7934
1127	0.7962
1118	0.795
1109	0.793
1100	0.7821
1091	0.7518
1082	0.5383
1073	0.6343
1064	0.7201
1055	0.5743
1046	0.2569
1037	0.0631
1028	0.328
1019	0.2741
1010	0.535
1001	0.6803
992	0.7451
983	0.7735
974	0.7707
965	0.5188
956	0.7464
947	0.8104
938	0.8265
929	0.7975
920	0.846
911	0.8504
902	0.8182
893	0.829
884	0.858
875	0.8707
866	0.8371
857	0.8271
848	0.859
839	0.872
830	0.8786
821	0.8784
812	0.8736
803	0.8658
794	0.8521
785	0.8282
776	0.783
767	0.71
758	0.5997
749	0.6642
740	0.636
731	0.5446
722	0.4092
713	0.363
704	0.3808
695	0.4782
686	0.4312
677	0.6075
668	0.6883
659	0.7189
650	0.7318
641	0.666
632	0.5788
623	0.7599
614	0.8065
605	0.8324
596	0.8408
587	0.8363
578	0.7132
569	0.6501
560	0.8309
551	0.8659
542	0.8684
533	0.8015
524	0.6972
515	0.8051
506	0.8691
497	0.878
488	0.8766
479	0.8721
470	0.8667
461	0.8608
452	0.8513
443	0.8402
434	0.8244
425	0.8033
416	0.7562
407	0.6695
398	0.6871
389	0.6954
