Infrared Spectrum: 2,6-Dimethylpyridine, hydrochloride
Formula: C7 H10 Cl N
CAS: 15439-85-7
State: SOLID (KBr DISC, 0.9% WT.)
Class: COBLENTZ III
Instrument: PERKIN-ELMER 157
Sampling: TRANSMISSION
Resolution: 2
Origin: BRITISH PETROLEUM CO. LTD., ENGLAND
1/CM	TRANSMITTANCE
668	0.9631
677	0.9211
686	0.9114
695	0.8802
704	0.8119
713	0.3306
722	0.892
731	0.8664
740	0.8424
749	0.7983
758	0.7694
767	0.7221
776	0.6755
785	0.5903
794	0.4268
803	0.075
812	0.1099
821	0.7569
830	0.802
839	0.8037
848	0.7982
857	0.7881
866	0.7701
875	0.7622
884	0.751
893	0.7457
902	0.7284
911	0.6896
920	0.6031
929	0.6775
938	0.6504
947	0.6132
956	0.5411
965	0.3453
974	0.2931
983	0.2742
992	0.4255
1001	0.4739
1010	0.5083
1019	0.4953
1028	0.3201
1037	0.2826
1046	0.1855
1055	0.2866
1064	0.4623
1073	0.5775
1082	0.6133
1091	0.6158
1100	0.595
1109	0.6662
1118	0.6645
1127	0.6326
1136	0.6556
1145	0.6544
1154	0.617
1163	0.317
1172	0.5258
1181	0.2527
1190	0.7318
1199	0.7105
1208	0.6718
1217	0.6447
1226	0.6831
1235	0.6643
1244	0.6328
1253	0.5228
1262	0.4794
1271	0.2754
1280	0.4312
1289	0.6106
1298	0.5983
1307	0.5803
1316	0.5622
1325	0.5395
1334	0.4923
1343	0.4576
1352	0.4407
1361	0.4206
1370	0.3156
1379	0.1311
1388	0.0548
1397	0.0398
1406	0.1296
1415	0.2817
1424	0.3542
1433	0.4051
1442	0.4229
1451	0.3988
1460	0.3351
1469	0.3345
1478	0.3724
1487	0.4178
1496	0.4106
1505	0.3619
1514	0.3185
1523	0.3081
1532	0.2678
1541	0.2524
1550	0.348
1559	0.4016
1568	0.4555
1577	0.4616
1586	0.4246
1595	0.3461
1604	0.2235
1613	0.1446
1622	0.041
1631	0.0383
1640	0.3025
1649	0.6145
1658	0.6339
1667	0.6638
1676	0.6518
1685	0.6241
1694	0.5975
1703	0.5835
1712	0.5656
1721	0.57
1730	0.575
1739	0.5766
1748	0.6053
1757	0.61
1766	0.5898
1775	0.6016
1784	0.6022
1793	0.5898
1802	0.5762
1811	0.5684
1820	0.5658
1829	0.5576
1838	0.5336
1847	0.5191
1856	0.5032
1865	0.4684
1874	0.4106
1883	0.3588
1892	0.3054
1901	0.1973
1910	0.1035
1919	0.0997
1928	0.1535
1937	0.1696
1946	0.1753
1955	0.2418
1964	0.2954
1973	0.2972
1982	0.3106
1991	0.3072
2000	0.2799
2009	0.2659
2018	0.2757
2027	0.3209
2036	0.3344
2045	0.3758
2054	0.4115
2063	0.4387
2072	0.4502
2081	0.448
2090	0.4432
2099	0.4406
2108	0.44
2117	0.4402
2126	0.4399
2135	0.4345
2144	0.429
2153	0.4277
2162	0.4288
2171	0.4284
2180	0.4216
2189	0.4008
2198	0.3897
2207	0.3791
2216	0.3681
2225	0.3567
2234	0.3455
2243	0.3326
2252	0.3176
2261	0.3005
2270	0.2857
2279	0.2743
2288	0.2629
2297	0.2496
2306	0.2365
2315	0.2236
2324	0.1915
2333	0.1693
2342	0.1547
2351	0.1411
2360	0.1287
2369	0.1144
2378	0.101
2387	0.0848
2396	0.0697
2405	0.058
2414	0.0482
2423	0.0416
2432	0.0352
2441	0.0298
2450	0.0226
2459	0.0132
2468	0.0096
2477	0.0087
2486	0.0085
2495	0.0083
2504	0.0081
2513	0.0079
2522	0.0078
2531	0.0082
2540	0.0085
2549	0.0089
2558	0.0092
2567	0.0096
2576	0.0099
2585	0.0104
2594	0.011
2603	0.013
2612	0.0185
2621	0.0223
2630	0.0242
2639	0.0253
2648	0.0259
2657	0.0269
2666	0.0282
2675	0.0319
2684	0.0364
2693	0.0392
2702	0.0435
2711	0.0527
2720	0.0626
2729	0.0738
2738	0.0786
2747	0.0864
2756	0.0902
2765	0.0922
2774	0.0935
2783	0.0945
2792	0.0965
2801	0.1171
2810	0.1478
2819	0.164
2828	0.1763
2837	0.1887
2846	0.2116
2855	0.2226
2864	0.2167
2873	0.2108
2882	0.209
2891	0.2227
2900	0.2332
2909	0.2362
2918	0.2373
2927	0.2368
2936	0.2354
2945	0.2096
2954	0.1681
2963	0.127
2972	0.107
2981	0.1189
2990	0.1332
2999	0.126
3008	0.1038
3017	0.0827
3026	0.0789
3035	0.1231
3044	0.21
3053	0.2956
3062	0.3281
3071	0.3598
3080	0.3906
3089	0.4356
3098	0.4408
3107	0.4413
3116	0.4406
3125	0.4392
3134	0.4352
3143	0.4323
3152	0.4304
3161	0.4293
3170	0.4289
3179	0.4222
3188	0.4096
3197	0.3972
3206	0.3847
3215	0.3723
3224	0.3601
3233	0.3522
3242	0.3566
3251	0.367
3260	0.3671
3269	0.3586
3278	0.35
3287	0.3414
3296	0.3329
3305	0.3247
3314	0.3151
3323	0.2995
3332	0.2876
3341	0.2781
3350	0.2683
3359	0.261
3368	0.2582
3377	0.257
3386	0.2564
3395	0.2564
3404	0.2567
3413	0.2572
3422	0.2582
3431	0.2594
3440	0.2606
3449	0.2628
3458	0.2688
3467	0.2765
3476	0.2848
3485	0.3073
3494	0.3204
3503	0.3289
3512	0.3376
3521	0.3494
3530	0.3568
3539	0.3644
3548	0.3729
3557	0.3815
3566	0.3923
3575	0.4033
3584	0.4139
3593	0.4259
3602	0.4493
3611	0.4709
3620	0.4718
3629	0.4725
3638	0.4726
3647	0.4728
3656	0.4725
3665	0.4723
3674	0.4718
3683	0.4711
3692	0.4697
3701	0.4652
3710	0.4595
3719	0.4537
3728	0.4482
3737	0.4442
3746	0.4434
3755	0.4431
3764	0.443
3773	0.4424
3782	0.4415
3791	0.4365
3800	0.4326
3809	0.4316
3818	0.4306
3827	0.4292
3836	0.4273
3845	0.4232
3854	0.4193
3863	0.4158
3872	0.4126
3881	0.4105
3890	0.4087
3899	0.4069
3908	0.4046
3917	0.3983
3926	0.3942
3935	0.3918
3944	0.3903
3953	0.3894
3962	0.3886
3971	0.388
3980	0.3873
3989	0.3866
3998	0.3861
