Infrared Spectrum: Carbamic acid, N-(4-phthalimidobutyl)-N- (p-tolylsulfonyl)-, ethyl ester
Formula: C22 H24 N2 O6 S
CAS: 15440-88-7
State: SOLID (1 mg / 650 mg KBr DISC)
Class: COBLENTZ III
Instrument: PERKIN-ELMER 521 (GRATING)
Instrument parameters: FILTERS AT 3150, 2500, 2000, 1150, 700, 410. GRATING CHANGES: 2000, 630
Sampling: TRANSMISSION
Resolution: 2
Origin: SOUTHERN RESEARCH INSTITUTE
1/CM	TRANSMITTANCE
258.836	0.3995
268.89	0.457
278.944	0.501
288.998	0.5562
299.051	0.6073
309.105	0.6255
319.159	0.627
329.213	0.6321
339.267	0.6519
349.321	0.6538
359.375	0.7421
369.429	0.7604
379.482	0.7683
389.536	0.7584
399.59	0.7619
409.644	0.7747
419.698	0.7711
429.752	0.7572
439.806	0.7791
449.86	0.7808
459.913	0.7883
469.967	0.7876
480.021	0.7658
490.075	0.7901
500.129	0.7911
510.183	0.7811
520.237	0.7054
530.291	0.7246
540.344	0.4876
550.398	0.7592
560.452	0.7171
570.506	0.4329
580.56	0.7502
590.614	0.7929
600.668	0.7855
610.722	0.7756
620.775	0.7998
630.829	0.804
640.883	0.6942
650.937	0.7315
660.991	0.7962
671.045	0.7813
681.099	0.6913
691.153	0.7823
701.206	0.7413
711.26	0.6808
721.314	0.3889
731.368	0.7785
741.422	0.7538
751.476	0.5575
761.53	0.5152
771.584	0.8148
781.637	0.7362
791.691	0.6714
801.745	0.6972
811.799	0.7062
821.853	0.8495
831.907	0.8476
841.961	0.8388
852.015	0.7813
862.068	0.7832
872.122	0.845
882.176	0.8426
892.23	0.8317
902.284	0.7358
912.338	0.7847
922.392	0.8408
932.446	0.8385
942.499	0.8238
952.553	0.7991
962.607	0.7757
972.661	0.735
982.715	0.7609
992.769	0.7758
1002.82	0.7361
1012.88	0.7015
1022.93	0.6258
1032.98	0.5953
1043.04	0.743
1053.09	0.7487
1063.15	0.7404
1073.2	0.6724
1083.25	0.635
1093.31	0.7241
1103.36	0.7038
1113.42	0.6684
1123.47	0.6383
1133.52	0.4435
1143.58	0.3387
1153.63	0.3415
1163.68	0.5178
1173.74	0.6604
1183.79	0.7454
1193.85	0.7738
1203.9	0.7119
1213.95	0.6545
1224.01	0.7512
1234.06	0.7342
1244.12	0.6391
1254.17	0.3959
1264.22	0.5002
1274.28	0.6772
1284.33	0.7105
1294.38	0.7314
1304.44	0.7511
1314.49	0.7251
1324.55	0.577
1334.6	0.4299
1344.65	0.4241
1354.71	0.3036
1364.76	0.4487
1374.82	0.5371
1384.87	0.5058
1394.92	0.4081
1404.98	0.6768
1415.03	0.7309
1425.09	0.6164
1435.14	0.6683
1445.19	0.7469
1455.25	0.6648
1465.3	0.7316
1475.35	0.7674
1485.41	0.8004
1495.46	0.8363
1505.52	0.8428
1515.57	0.8387
1525.62	0.8334
1535.68	0.8411
1545.73	0.8404
1555.79	0.8329
1565.84	0.8227
1575.89	0.8021
1585.95	0.7365
1596	0.7456
1606.06	0.7598
1616.11	0.7922
1626.16	0.7963
1636.22	0.7976
1646.27	0.7859
1656.32	0.7874
1666.38	0.7574
1676.43	0.7127
1686.49	0.6307
1696.54	0.5096
1706.59	0.2276
1716.65	0.1119
1726.7	0.4587
1736.76	0.2304
1746.81	0.4393
1756.86	0.6274
1766.92	0.6314
1776.97	0.6991
1787.02	0.8088
1797.08	0.8309
1807.13	0.843
1817.19	0.8505
1827.24	0.8643
1837.29	0.8653
1847.35	0.865
1857.4	0.8644
1867.46	0.8645
1877.51	0.8647
1887.56	0.8643
1897.62	0.8637
1907.67	0.861
1917.73	0.8578
1927.78	0.869
1937.83	0.8744
1947.89	0.8754
1957.94	0.8755
1967.99	0.8755
1978.05	0.8754
1988.1	0.8754
1998.16	0.8745
2008.21	0.8723
2018.26	0.873
2028.32	0.8756
2038.37	0.877
2048.43	0.877
2058.48	0.877
2068.53	0.8773
2078.59	0.8771
2088.64	0.8766
2098.69	0.8762
2108.75	0.8759
2118.8	0.8759
2128.86	0.8759
2138.91	0.8758
2148.96	0.8755
2159.02	0.8752
2169.07	0.8747
2179.13	0.8741
2189.18	0.8735
2199.23	0.8728
2209.29	0.8721
2219.34	0.8713
2229.4	0.8706
2239.45	0.8698
2249.5	0.8693
2259.56	0.8689
2269.61	0.8686
2279.66	0.8683
2289.72	0.8678
2299.77	0.8673
2309.83	0.8667
2319.88	0.8661
2329.93	0.8663
2339.99	0.8668
2350.04	0.8672
2360.1	0.8669
2370.15	0.8661
2380.2	0.8653
2390.26	0.8653
2400.31	0.8655
2410.36	0.8656
2420.42	0.8658
2430.47	0.8656
2440.53	0.8654
2450.58	0.8651
2460.63	0.8647
2470.69	0.8642
2480.74	0.8638
2490.8	0.8634
2500.85	0.8632
2510.9	0.8629
2520.96	0.8627
2531.01	0.8619
2541.07	0.8606
2551.12	0.8598
2561.17	0.8591
2571.23	0.8582
2581.28	0.8571
2591.33	0.856
2601.39	0.8551
2611.44	0.8548
2621.5	0.8545
2631.55	0.8542
2641.6	0.854
2651.66	0.8541
2661.71	0.8546
2671.77	0.8551
2681.82	0.8557
2691.87	0.8565
2701.93	0.8573
2711.98	0.8578
2722.03	0.8579
2732.09	0.8582
2742.14	0.8578
2752.2	0.8573
2762.25	0.8551
2772.3	0.8528
2782.36	0.8507
2792.41	0.8492
2802.47	0.8482
2812.52	0.847
2822.57	0.8452
2832.63	0.8414
2842.68	0.8294
2852.74	0.8
2862.79	0.7865
2872.84	0.8044
2882.9	0.8185
2892.95	0.8179
2903	0.8047
2913.06	0.7755
2923.11	0.7394
2933.17	0.6851
2943.22	0.7407
2953.27	0.791
2963.33	0.7414
2973.38	0.7812
2983.44	0.7935
2993.49	0.8075
3003.54	0.8346
3013.6	0.8348
3023.65	0.8266
3033.71	0.8225
3043.76	0.8222
3053.81	0.8233
3063.87	0.8291
3073.92	0.8392
3083.97	0.8308
3094.03	0.8143
3104.08	0.8187
3114.14	0.851
3124.19	0.854
3134.24	0.8549
3144.3	0.8498
3154.35	0.8441
3164.41	0.8433
3174.46	0.8429
3184.51	0.8418
3194.57	0.8416
3204.62	0.8417
3214.67	0.841
3224.73	0.8403
3234.78	0.8391
3244.84	0.8374
3254.89	0.8357
3264.94	0.8334
3275	0.8309
3285.05	0.8285
3295.11	0.8252
3305.16	0.8218
3315.21	0.8178
3325.27	0.8131
3335.32	0.8083
3345.38	0.8028
3355.43	0.7971
3365.48	0.7915
3375.54	0.7863
3385.59	0.7815
3395.64	0.7767
3405.7	0.7726
3415.75	0.7691
3425.81	0.7681
3435.86	0.7673
3445.91	0.7652
3455.97	0.76
3466.02	0.7655
3476.08	0.7814
3486.13	0.7864
3496.18	0.789
3506.24	0.7905
3516.29	0.7966
3526.34	0.804
3536.4	0.8115
3546.45	0.8172
3556.51	0.8219
3566.56	0.8269
3576.61	0.832
3586.67	0.8371
3596.72	0.8428
3606.78	0.848
3616.83	0.8526
3626.88	0.8563
3636.94	0.8586
3646.99	0.8609
3657.05	0.8621
3667.1	0.8628
3677.15	0.8634
3687.21	0.8641
3697.26	0.865
3707.31	0.8658
3717.37	0.8667
3727.42	0.8675
3737.48	0.8681
3747.53	0.868
3757.58	0.8679
3767.64	0.8679
3777.69	0.8678
3787.75	0.8677
3797.8	0.8679
3807.85	0.8681
3817.91	0.8683
3827.96	0.8685
3838.01	0.8687
3848.07	0.8689
3858.12	0.8694
3868.18	0.8698
3878.23	0.8702
3888.28	0.8706
3898.34	0.8708
3908.39	0.871
3918.45	0.8711
3928.5	0.8713
3938.55	0.8711
3948.61	0.871
3958.66	0.8708
3968.72	0.8707
3978.77	0.8706
3988.82	0.8705
3998.88	0.8698
4008.93	0.8691
4018.98	0.8683
