Infrared Spectrum: p-TOLUENESULFONAMIDE, N-(4-ACETAMIDOBUTYL)-
Formula: C13 H20 N2 O3 S
CAS: 15440-82-1
State: SOLID (1 mg / 650 mg KBr DISC)
Class: COBLENTZ III
Instrument: PERKIN-ELMER 521 (GRATING)
Instrument parameters: FILTERS AT 3150, 2500, 2000, 1150, 700, 410. GRATING CHANGES: 2000, 630
Sampling: TRANSMISSION
Resolution: 2
Origin: SOUTHERN RESEARCH INSTITUTE
1/CM	TRANSMITTANCE
253	0.2669
263.04	0.3078
273.08	0.382
283.12	0.4261
293.16	0.4708
303.2	0.5209
313.24	0.5606
323.28	0.5942
333.32	0.627
343.36	0.6462
353.4	0.6293
363.44	0.7054
373.48	0.7122
383.52	0.6485
393.56	0.6966
403.6	0.7459
413.641	0.7534
423.681	0.7236
433.721	0.7606
443.761	0.7615
453.801	0.7603
463.841	0.7569
473.881	0.7232
483.921	0.7445
493.961	0.7359
504.001	0.6906
514.041	0.6865
524.081	0.6219
534.121	0.6554
544.161	0.4662
554.201	0.4809
564.241	0.2467
574.281	0.4001
584.321	0.5644
594.361	0.5659
604.401	0.7633
614.441	0.7636
624.481	0.7369
634.521	0.7305
644.561	0.6704
654.601	0.3423
664.641	0.5549
674.681	0.5738
684.721	0.5621
694.761	0.6077
704.801	0.5804
714.841	0.6096
724.882	0.5686
734.922	0.4629
744.962	0.4012
755.002	0.3519
765.042	0.4061
775.082	0.5315
785.122	0.657
795.162	0.5263
805.202	0.5275
815.242	0.6077
825.282	0.7321
835.322	0.7427
845.362	0.7635
855.402	0.7574
865.442	0.7345
875.482	0.6753
885.522	0.746
895.562	0.7124
905.602	0.6586
915.642	0.762
925.682	0.7998
935.722	0.7953
945.762	0.7868
955.802	0.7764
965.842	0.7523
975.882	0.721
985.922	0.7395
995.962	0.7405
1006	0.637
1016.04	0.6257
1026.08	0.6408
1036.12	0.561
1046.16	0.615
1056.2	0.3515
1066.24	0.504
1076.28	0.4144
1086.32	0.3965
1096.36	0.5806
1106.4	0.653
1116.44	0.6262
1126.48	0.6285
1136.52	0.508
1146.56	0.2892
1156.6	0.1541
1166.64	0.4564
1176.68	0.5864
1186.72	0.5485
1196.76	0.6765
1206.8	0.7476
1216.84	0.7545
1226.88	0.7465
1236.92	0.7222
1246.96	0.6835
1257	0.6308
1267.04	0.5653
1277.08	0.4425
1287.12	0.2955
1297.16	0.2921
1307.2	0.3784
1317.24	0.2047
1327.28	0.4685
1337.32	0.6316
1347.36	0.6935
1357.4	0.6232
1367.44	0.4755
1377.48	0.577
1387.52	0.6596
1397.56	0.6395
1407.6	0.6599
1417.64	0.624
1427.68	0.558
1437.72	0.4125
1447.76	0.4878
1457.8	0.5272
1467.84	0.515
1477.88	0.7063
1487.92	0.6607
1497.96	0.7098
1508	0.6997
1518.04	0.6507
1528.08	0.5725
1538.12	0.3987
1548.16	0.2097
1558.2	0.4327
1568.24	0.6189
1578.28	0.6566
1588.32	0.6107
1598.36	0.518
1608.4	0.6265
1618.44	0.5308
1628.48	0.4937
1638.52	0.4524
1648.56	0.23
1658.6	0.0965
1668.64	0.3425
1678.68	0.5637
1688.72	0.6714
1698.76	0.7164
1708.8	0.7441
1718.84	0.765
1728.88	0.783
1738.92	0.7972
1748.96	0.8083
1759	0.8193
1769.04	0.8291
1779.08	0.836
1789.12	0.841
1799.16	0.844
1809.2	0.8461
1819.24	0.8487
1829.29	0.8557
1839.33	0.8625
1849.37	0.866
1859.41	0.8663
1869.45	0.8648
1879.49	0.8633
1889.53	0.8604
1899.57	0.8582
1909.61	0.8557
1919.65	0.8537
1929.69	0.8648
1939.73	0.8666
1949.77	0.8658
1959.81	0.8663
1969.85	0.8681
1979.89	0.8695
1989.93	0.8704
1999.97	0.8713
2010.01	0.8722
2020.05	0.8721
2030.09	0.8719
2040.13	0.8725
2050.17	0.8736
2060.21	0.8745
2070.25	0.8752
2080.29	0.877
2090.33	0.8789
2100.37	0.8779
2110.41	0.8769
2120.45	0.8767
2130.49	0.8765
2140.53	0.8764
2150.57	0.8767
2160.61	0.877
2170.65	0.8768
2180.69	0.8759
2190.73	0.8749
2200.77	0.8739
2210.81	0.8731
2220.85	0.8724
2230.89	0.8717
2240.93	0.8713
2250.97	0.8716
2261.01	0.8719
2271.05	0.8722
2281.09	0.8725
2291.13	0.8726
2301.17	0.8725
2311.21	0.8722
2321.25	0.8715
2331.29	0.8709
2341.33	0.8702
2351.37	0.8693
2361.41	0.8684
2371.45	0.8674
2381.49	0.8664
2391.53	0.8652
2401.57	0.8639
2411.61	0.8627
2421.65	0.8616
2431.69	0.8605
2441.73	0.8592
2451.77	0.8583
2461.81	0.8596
2471.85	0.8636
2481.89	0.8673
2491.93	0.8658
2501.97	0.8635
2512.01	0.8613
2522.05	0.8595
2532.09	0.8577
2542.13	0.8559
2552.17	0.854
2562.21	0.8518
2572.25	0.8495
2582.29	0.8477
2592.33	0.85
2602.37	0.8495
2612.41	0.8484
2622.45	0.8468
2632.49	0.8451
2642.53	0.8435
2652.57	0.8461
2662.61	0.8501
2672.65	0.8426
2682.69	0.8309
2692.73	0.8294
2702.77	0.8291
2712.81	0.8276
2722.85	0.8244
2732.89	0.8209
2742.93	0.817
2752.97	0.8126
2763.01	0.808
2773.05	0.8028
2783.09	0.7963
2793.13	0.7886
2803.17	0.7749
2813.21	0.7581
2823.25	0.7393
2833.29	0.7147
2843.33	0.6718
2853.37	0.5791
2863.41	0.4745
2873.45	0.5227
2883.49	0.5889
2893.53	0.6287
2903.57	0.615
2913.61	0.5804
2923.65	0.529
2933.69	0.4977
2943.73	0.599
2953.77	0.6221
2963.81	0.578
2973.85	0.6604
2983.89	0.7229
2993.93	0.7315
3003.97	0.7333
3014.01	0.7311
3024.05	0.7109
3034.09	0.6851
3044.13	0.6573
3054.17	0.6278
3064.21	0.6001
3074.25	0.5826
3084.29	0.5558
3094.33	0.5312
3104.37	0.4977
3114.41	0.4468
3124.45	0.3934
3134.49	0.3464
3144.53	0.3123
3154.57	0.3199
3164.61	0.3597
3174.65	0.4305
3184.69	0.4839
3194.73	0.5329
3204.77	0.588
3214.81	0.6324
3224.85	0.6617
3234.89	0.6889
3244.93	0.706
3254.97	0.7177
3265.01	0.7248
3275.05	0.726
3285.09	0.7229
3295.13	0.7165
3305.17	0.7075
3315.21	0.7021
3325.25	0.6936
3335.29	0.6611
3345.33	0.6163
3355.37	0.416
3365.41	0.1799
3375.45	0.2955
3385.49	0.4433
3395.53	0.5694
3405.57	0.6413
3415.61	0.6808
3425.65	0.7076
3435.69	0.7253
3445.73	0.7363
3455.77	0.7431
3465.81	0.7494
3475.85	0.7557
3485.89	0.7613
3495.93	0.7673
3505.97	0.7736
3516.01	0.7799
3526.05	0.7853
3536.09	0.7906
3546.13	0.7957
3556.17	0.8013
3566.21	0.8077
3576.25	0.8141
3586.29	0.8206
3596.33	0.8269
3606.37	0.8321
3616.41	0.8383
3626.45	0.8445
3636.49	0.8504
3646.53	0.8552
3656.57	0.8576
3666.61	0.8582
3676.65	0.8595
3686.69	0.8615
3696.73	0.8641
3706.77	0.8662
3716.81	0.8681
3726.85	0.8693
3736.89	0.8704
3746.93	0.871
3756.97	0.8709
3767.01	0.8708
3777.05	0.8707
3787.09	0.8703
3797.13	0.8699
3807.17	0.8695
3817.21	0.869
3827.25	0.8682
3837.29	0.8675
3847.33	0.8667
3857.37	0.8662
3867.41	0.8657
3877.45	0.8653
3887.49	0.8648
3897.53	0.8641
3907.57	0.8634
3917.61	0.8628
3927.65	0.8631
3937.69	0.8634
3947.73	0.8637
3957.77	0.8638
3967.81	0.8634
3977.85	0.8631
3987.89	0.8629
3997.93	0.863
4007.97	0.8628
