Infrared Spectrum: 1,4-BENZENEDICARBOXAMIDE, N,N'-BIS(2-HYDROXYPHENYL)-
Formula: C20 H16 N2 O4
CAS: 15457-47-3
State: SOLID (SPLIT MULL, FLUOROLUBE FOR 3800-1330 AND NUJOL FOR 1330-400 CM ^-^1)
Class: COBLENTZ III
Instrument: DOW KBr FOREPRISM-GRATING
Instrument parameters: BLAZED AT 3.5, 12.0, 20.0 MICRON, CHANGED AT 5.0, 7.5, 14.9 MICRON
Sampling: TRANSMISSION
Resolution: 4
Origin: DOW CHEMICAL COMPANY
1/CM	TRANSMITTANCE
381.232	0.915
390.03	0.912
398.827	0.916
407.625	0.92
416.423	0.923
425.22	0.923
434.018	0.92
442.816	0.92
451.613	0.915
460.411	0.89
469.209	0.982
478.006	0.983
486.804	0.983
495.601	0.982
504.399	0.978
513.197	0.957
521.994	0.956
530.792	0.942
539.59	0.891
548.387	0.848
557.185	0.848
565.983	0.92
574.78	0.852
583.578	0.771
592.376	0.682
601.173	0.794
609.971	0.653
618.769	0.601
627.566	0.682
636.364	0.805
645.162	0.874
653.959	0.909
662.757	0.92
671.555	0.919
680.352	0.917
689.15	0.915
697.947	0.872
706.745	0.686
715.543	0.782
724.34	0.852
733.138	0.718
741.936	0.3689
750.733	0.287
759.531	0.711
768.329	0.915
777.126	0.954
785.924	0.954
794.722	0.95
803.519	0.978
812.317	0.978
821.115	0.967
829.912	0.971
838.71	0.967
847.508	0.823
856.305	0.797
865.103	0.841
873.901	0.939
882.698	0.946
891.496	0.8
900.293	0.822
909.091	0.952
917.889	0.958
926.686	0.874
935.484	0.957
944.282	0.968
953.079	0.964
961.877	0.954
970.675	0.954
979.472	0.967
988.27	0.968
997.068	0.963
1005.87	0.958
1014.66	0.898
1023.46	0.968
1032.26	0.894
1041.06	0.948
1049.85	0.945
1058.65	0.901
1067.45	0.904
1076.25	0.906
1085.04	0.878
1093.84	0.651
1102.64	0.822
1111.44	0.874
1120.23	0.844
1129.03	0.779
1137.83	0.742
1146.63	0.85
1155.43	0.842
1164.22	0.796
1173.02	0.649
1181.82	0.604
1190.62	0.532
1199.41	0.502
1208.21	0.785
1217.01	0.777
1225.81	0.664
1234.6	0.502
1243.4	0.471
1252.2	0.619
1261	0.604
1269.79	0.679
1278.59	0.517
1287.39	0.381
1296.19	0.641
1304.99	0.545
1313.78	0.659
1322.58	0.608
1331.38	0.491
1340.18	0.326
1348.97	0.309
1357.77	0.369
1366.57	0.507
1375.37	0.66
1384.16	0.718
1392.96	0.782
1401.76	0.731
1410.56	0.729
1419.35	0.752
1428.15	0.76
1436.95	0.705
1445.75	0.619
1454.55	0.214
1463.34	0.476
1472.14	0.868
1480.94	0.834
1489.74	0.787
1498.53	0.667
1507.33	0.625
1516.13	0.35
1524.93	0.575
1533.72	0.477
1542.52	0.272
1551.32	0.151
1560.12	0.361
1568.92	0.716
1577.71	0.636
1586.51	0.389
1595.31	0.257
1604.11	0.649
1612.9	0.346
1621.7	0.667
1630.5	0.367
1639.3	0.205
1648.09	0.458
1656.89	0.74
1665.69	0.82
1674.49	0.904
1683.28	0.952
1692.08	0.971
1700.88	0.982
1709.68	0.991
1718.48	0.987
1727.27	0.978
1736.07	0.969
1744.87	0.99
1753.67	0.994
1762.46	0.994
1771.26	1
1780.06	0.998
1788.86	0.998
1797.65	0.995
1806.45	0.994
1815.25	0.993
1824.05	0.994
1832.84	0.993
1841.64	0.991
1850.44	0.99
1859.24	0.99
1868.04	0.987
1876.83	0.978
1885.63	0.978
1894.43	0.987
1903.23	0.984
1912.02	0.976
1920.82	0.965
1929.62	0.98
1938.42	0.984
1947.21	0.982
1956.01	0.98
1964.81	0.982
1973.61	0.979
1982.4	0.976
1991.2	0.969
2000	0.975
2008.8	0.971
2017.6	0.969
2026.39	0.967
2035.19	0.964
2043.99	0.96
2052.79	0.957
2061.58	0.956
2070.38	0.953
2079.18	0.952
2087.98	0.95
2096.77	0.948
2105.57	0.946
2114.37	0.943
2123.17	0.941
2131.96	0.939
2140.76	0.938
2149.56	0.937
2158.36	0.935
2167.16	0.932
2175.95	0.931
2184.75	0.924
2193.55	0.923
2202.35	0.923
2211.14	0.919
2219.94	0.915
2228.74	0.912
2237.54	0.906
2246.33	0.902
2255.13	0.897
2263.93	0.891
2272.73	0.891
2281.52	0.891
2290.32	0.889
2299.12	0.882
2307.92	0.875
2316.72	0.87
2325.51	0.867
2334.31	0.872
2343.11	0.872
2351.91	0.871
2360.7	0.871
2369.5	0.872
2378.3	0.871
2387.1	0.87
2395.89	0.868
2404.69	0.864
2413.49	0.861
2422.29	0.859
2431.08	0.859
2439.88	0.856
2448.68	0.854
2457.48	0.852
2466.28	0.852
2475.07	0.853
2483.87	0.854
2492.67	0.854
2501.47	0.853
2510.26	0.85
2519.06	0.848
2527.86	0.842
2536.66	0.838
2545.45	0.835
2554.25	0.834
2563.05	0.831
2571.85	0.83
2580.64	0.829
2589.44	0.827
2598.24	0.829
2607.04	0.83
2615.84	0.83
2624.63	0.829
2633.43	0.827
2642.23	0.824
2651.03	0.822
2659.82	0.815
2668.62	0.809
2677.42	0.792
2686.22	0.783
2695.01	0.779
2703.81	0.781
2712.61	0.783
2721.41	0.783
2730.21	0.783
2739	0.782
2747.8	0.782
2756.6	0.782
2765.4	0.778
2774.19	0.775
2782.99	0.775
2791.79	0.774
2800.59	0.771
2809.38	0.767
2818.18	0.759
2826.98	0.748
2835.78	0.725
2844.57	0.708
2853.37	0.708
2862.17	0.708
2870.97	0.709
2879.77	0.711
2888.56	0.708
2897.36	0.705
2906.16	0.7
2914.96	0.693
2923.75	0.689
2932.55	0.681
2941.35	0.67
2950.15	0.658
2958.94	0.644
2967.74	0.64
2976.54	0.636
2985.34	0.626
2994.13	0.619
3002.93	0.615
3011.73	0.61
3020.53	0.596
3029.33	0.5671
3038.12	0.537
3046.92	0.533
3055.72	0.525
3064.52	0.514
3073.31	0.506
3082.11	0.492
3090.91	0.476
3099.71	0.465
3108.5	0.452
3117.3	0.44
3126.1	0.43
3134.9	0.415
3143.69	0.406
3152.49	0.399
3161.29	0.381
3170.09	0.373
3178.89	0.369
3187.68	0.366
3196.48	0.369
3205.28	0.374
3214.08	0.384
3222.87	0.392
3231.67	0.403
3240.47	0.414
3249.27	0.424
3258.06	0.433
3266.86	0.445
3275.66	0.461
3284.46	0.476
3293.25	0.487
3302.05	0.502
3310.85	0.511
3319.65	0.53
3328.45	0.541
3337.24	0.555
3346.04	0.566
3354.84	0.573
3363.64	0.574
3372.43	0.564
3381.23	0.538
3390.03	0.493
3398.83	0.462
3407.62	0.491
3416.42	0.6289
3425.22	0.715
3434.02	0.748
3442.81	0.755
3451.61	0.756
3460.41	0.759
3469.21	0.759
3478.01	0.759
3486.8	0.759
3495.6	0.76
3504.4	0.759
3513.2	0.759
3521.99	0.757
3530.79	0.757
3539.59	0.757
3548.39	0.755
3557.18	0.752
3565.98	0.748
3574.78	0.745
3583.58	0.744
3592.37	0.742
3601.17	0.741
3609.97	0.74
3618.77	0.738
3627.57	0.735
3636.36	0.735
3645.16	0.733
3653.96	0.731
3662.76	0.729
3671.55	0.727
3680.35	0.725
3689.15	0.723
3697.95	0.72
3706.74	0.718
3715.54	0.715
3724.34	0.712
3733.14	0.709
3741.94	0.708
3750.73	0.705
3759.53	0.704
3768.33	0.703
3777.13	0.701
3785.92	0.7
3794.72	0.696
