Infrared Spectrum: 3-Dimethylamino-2,2-dimethylpropionaldehyde
Formula: C 7 H 15 N O
CAS: 15451-14-6
State: gas
Origin: EPA-IR VAPOR PHASE LIBRARY
1/CM	ABSORBANCE
549.8	0.0011176
559.445	0.0009198
569.09	0.0006954
578.734	0.000446
588.379	0.0011476
598.024	0.0015076
607.669	0.0022176
617.313	0.0020976
626.958	0.0019276
636.603	0.0015076
646.248	0.0012376
655.893	0.0008488
665.537	0.0007932
675.182	0.0006139
684.827	0.0004588
694.472	0.0002745
704.116	0.0008194
713.761	0.0006067
723.406	0.0007826
733.051	0.0008816
742.695	0.0018976
752.34	0.0033676
761.985	0.0054776
771.63	0.0062176
781.275	0.0048876
790.919	0.0033676
800.564	0.0034776
810.209	0.0044676
819.854	0.0081676
829.498	0.0128876
839.143	0.0167876
848.788	0.0157176
858.433	0.0152476
868.078	0.0192776
877.722	0.0238676
887.367	0.0223476
897.012	0.0144776
906.657	0.0094076
916.301	0.0073176
925.946	0.0058776
935.591	0.0049376
945.236	0.0045876
954.88	0.0043676
964.525	0.0039076
974.17	0.0044376
983.815	0.0056176
993.46	0.0077476
1003.1	0.0098076
1012.75	0.0122176
1022.39	0.0180576
1032.04	0.0327176
1041.68	0.0520676
1051.33	0.0540476
1060.97	0.0324376
1070.62	0.0155876
1080.26	0.0105876
1089.91	0.0094376
1099.55	0.0086976
1109.2	0.0085476
1118.84	0.0090076
1128.49	0.0114576
1138.13	0.0141576
1147.78	0.0138876
1157.42	0.0112776
1167.07	0.0099976
1176.71	0.0093876
1186.36	0.0088876
1196	0.0071376
1205.64	0.0057776
1215.29	0.0064876
1224.93	0.0072576
1234.58	0.0097376
1244.22	0.0133376
1253.87	0.0188476
1263.51	0.0229176
1273.16	0.0200276
1282.8	0.0134476
1292.45	0.0095776
1302.09	0.0085676
1311.74	0.0085976
1321.38	0.0085876
1331.03	0.0083776
1340.67	0.0089576
1350.32	0.0113976
1359.96	0.0152176
1369.61	0.0190076
1379.25	0.0171376
1388.9	0.0158976
1398.54	0.0160676
1408.18	0.0129576
1417.83	0.0085276
1427.47	0.0095376
1437.12	0.0143476
1446.76	0.0247476
1456.41	0.0383876
1466.05	0.0423376
1475.7	0.0336076
1485.34	0.0197376
1494.99	0.0096576
1504.63	0.0057576
1514.28	0.0041276
1523.92	0.0033176
1533.57	0.0027676
1543.21	0.0023876
1552.86	0.0022876
1562.5	0.0019976
1572.15	0.0020276
1581.79	0.0019076
1591.44	0.0019076
1601.08	0.0019976
1610.73	0.0021276
1620.37	0.0021576
1630.01	0.0026276
1639.66	0.0030576
1649.3	0.0037576
1658.95	0.0045776
1668.59	0.0055376
1678.24	0.0069376
1687.88	0.0090976
1697.53	0.0122876
1707.17	0.0184076
1716.82	0.0353876
1726.46	0.0722876
1736.11	0.104928
1745.75	0.0978676
1755.4	0.0589876
1765.04	0.0331676
1774.69	0.0200876
1784.33	0.0124676
1793.98	0.0081876
1803.62	0.0056676
1813.27	0.0041376
1822.91	0.0030476
1832.55	0.0023176
1842.2	0.0019376
1851.84	0.0017576
1861.49	0.0016176
1871.13	0.0015876
1880.78	0.0016176
1890.42	0.0013776
1900.07	0.0012076
1909.71	0.0010022
1919.36	0.0008267
1929	0.0008399
1938.65	0.0007606
1948.29	0.0008665
1957.94	0.0008722
1967.58	0.0009075
1977.23	0.0011076
1986.87	0.0009539
1996.52	0.0009626
2006.16	0.0009902
2015.81	0.0009951
2025.45	0.0009035
2035.1	0.0009242
2044.74	0.0008017
2054.38	0.0008981
2064.03	0.0009275
2073.67	0.0010776
2083.32	0.0012876
2092.96	0.0013576
2102.61	0.0012876
2112.25	0.0012676
2121.9	0.0011376
2131.54	0.0010776
2141.19	0.0008911
2150.83	0.0009342
2160.48	0.0008336
2170.12	0.0008345
2179.77	0.0008818
2189.41	0.0008818
2199.06	0.0007688
2208.7	0.000725
2218.35	0.000723
2227.99	0.0006451
2237.64	0.0007282
2247.28	0.0006624
2256.92	0.0005975
2266.57	0.0007466
2276.21	0.0006509
2285.86	0.0007419
2295.5	0.000741
2305.15	0.0007693
2314.79	0.0008301
2324.44	0.0006754
2334.08	0.0006703
2343.73	0.0007169
2353.37	0.0008008
2363.02	0.0008332
2372.66	0.0008473
2382.31	0.0007804
2391.95	0.0009202
2401.6	0.0009283
2411.24	0.0010876
2420.89	0.000996
2430.53	0.0008847
2440.18	0.0008952
2449.82	0.0008684
2459.47	0.0008745
2469.11	0.0010164
2478.75	0.0012076
2488.4	0.0015276
2498.04	0.0017776
2507.69	0.0017976
2517.33	0.0016976
2526.98	0.0016576
2536.62	0.0017376
2546.27	0.0017776
2555.91	0.0019176
2565.56	0.0021276
2575.2	0.0025076
2584.85	0.0028576
2594.49	0.0034476
2604.14	0.0039976
2613.78	0.0047576
2623.43	0.0055576
2633.07	0.0064076
2642.72	0.0075876
2652.36	0.0093476
2662.01	0.0126676
2671.65	0.0192876
2681.29	0.0294476
2690.94	0.0371576
2700.58	0.0365276
2710.23	0.0309276
2719.87	0.0267876
2729.52	0.0258576
2739.16	0.0278476
2748.81	0.0329476
2758.45	0.0444676
2768.1	0.0694276
2777.74	0.0971176
2787.39	0.100108
2797.03	0.0820076
2806.68	0.0692876
2816.32	0.0683976
2825.97	0.0731376
2835.61	0.0668376
2845.26	0.0518076
2854.9	0.0452976
2864.55	0.0488476
2874.19	0.0531576
2883.84	0.0530376
2893.48	0.0509676
2903.12	0.0508276
2912.77	0.0536076
2922.41	0.0587076
2932.06	0.0667976
2941.7	0.0764176
2951.35	0.0864576
2960.99	0.0993976
2970.64	0.106848
2980.28	0.0945276
2989.93	0.0627376
2999.57	0.0327076
3009.22	0.0165576
3018.86	0.0103576
3028.51	0.0075276
3038.15	0.0059276
3047.8	0.0049076
3057.44	0.0043476
3067.09	0.0041076
3076.73	0.0039276
3086.38	0.0036476
3096.02	0.0034176
3105.67	0.0033576
3115.31	0.0030276
3124.95	0.0028676
3134.6	0.0025776
3144.24	0.0023676
3153.89	0.0022976
3163.53	0.0021576
3173.18	0.0022076
3182.82	0.0021476
3192.47	0.0020476
3202.11	0.0018176
3211.76	0.0015776
3221.4	0.0013576
3231.05	0.0012976
3240.69	0.0009136
3250.34	0.0009172
3259.98	0.0007643
3269.63	0.0006781
3279.27	0.0006671
3288.92	0.0006505
3298.56	0.000517
3308.21	0.000451
3317.85	0.0004937
3327.49	0.0005241
3337.14	0.000606
3346.78	0.0007211
3356.43	0.0005107
3366.07	0.0004508
3375.72	0.0004688
3385.36	0.0005467
3395.01	0.0007337
3404.65	0.000664
3414.3	0.0007642
3423.94	0.0012176
3433.59	0.0015076
3443.23	0.0017476
3452.88	0.0021876
3462.52	0.0022976
3472.17	0.0017476
3481.81	0.0013476
3491.46	0.0009482
3501.1	0.000442
3510.75	0.0006787
3520.39	0.0004399
3530.04	0.0003378
3539.68	0.0003381
3549.32	0.0002476
3558.97	0.0003691
3568.61	0
3578.26	0.00014364
3587.9	0.0002234
3597.55	0.0003658
3607.19	0.0003956
3616.84	0.0004652
3626.48	0.0004864
3636.13	0.0004972
3645.77	0.000341
3655.42	0.0003314
3665.06	0.0002565
3674.71	0.0004623
3684.35	0.0004668
3694	0.0005768
3703.64	0.0003504
3713.29	0.0003448
3722.93	0.0003072
3732.58	0.0002088
3742.22	0.0004232
3751.86	0.000354
3761.51	0.0003966
3771.15	0.0003153
3780.8	0.0004145
3790.44	0.0005625
3800.09	0.0005726
3809.73	0.000466
3819.38	0.0005476
3829.02	0.0007414
3838.67	0.0008579
3848.31	0.0007586
3857.96	0.0006855
3867.6	0.0006268
3877.25	0.0007026
3886.89	0.000666
3896.54	0.0006295
3906.18	0.0005573
3915.83	0.0006472
3925.47	0.0009231
3935.12	0.0008722
3944.76	0.0007308
3954.41	0.0008297
3964.05	0.0008409
3973.69	0.0007363
3983.34	0.0007853
3992.98	0.0006482
