Infrared Spectrum: N-(2-Hydroxyethyl)-4-cyclohexene-1,2-dicarboximide
Formula: C 10 H 13 N O 3
CAS: 15458-48-7
State: gas
Origin: EPA-IR VAPOR PHASE LIBRARY
1/CM	ABSORBANCE
551.7	0.00412
563.274	0.00588
574.848	0.00849
586.421	0.00763
597.995	0.00567
609.569	0.00544
621.143	0.00526
632.717	0.0064
644.291	0.00838
655.864	0.00813
667.438	0.00765
679.012	0.01018
690.586	0.01799
702.16	0.01314
713.734	0.00491
725.307	0.00284
736.881	0.0025
748.455	0.00335
760.029	0.0046
771.603	0.00471
783.177	0.00373
794.75	0.00338
806.324	0.00328
817.898	0.00333
829.472	0.00355
841.046	0.00398
852.619	0.00433
864.193	0.00456
875.767	0.0052
887.341	0.00602
898.915	0.00759
910.489	0.00755
922.062	0.0066
933.636	0.00615
945.21	0.0067
956.784	0.00801
968.358	0.00824
979.932	0.00775
991.505	0.00881
1003.08	0.01131
1014.65	0.01616
1026.23	0.02298
1037.8	0.0278
1049.37	0.03268
1060.95	0.02705
1072.52	0.02326
1084.1	0.02201
1095.67	0.01992
1107.24	0.01466
1118.82	0.01225
1130.39	0.01259
1141.97	0.01684
1153.54	0.02294
1165.11	0.0252
1176.69	0.02076
1188.26	0.01912
1199.83	0.01767
1211.41	0.01382
1222.98	0.01234
1234.56	0.01113
1246.13	0.01073
1257.7	0.01119
1269.28	0.01151
1280.85	0.01227
1292.42	0.01573
1304	0.02366
1315.57	0.03206
1327.15	0.03483
1338.72	0.03762
1350.29	0.04539
1361.87	0.05135
1373.44	0.04595
1385.02	0.07503
1396.59	0.0847
1408.16	0.04389
1419.74	0.02571
1431.31	0.0297
1442.88	0.03244
1454.46	0.01989
1466.03	0.00937
1477.61	0.00647
1489.18	0.00426
1500.75	0.00302
1512.33	0.00244
1523.9	0.00215
1535.48	0.00205
1547.05	0.00193
1558.62	0.00186
1570.2	0.00188
1581.77	0.00197
1593.34	0.00221
1604.92	0.00244
1616.49	0.00281
1628.07	0.00387
1639.64	0.00588
1651.21	0.0076
1662.79	0.01003
1674.36	0.01389
1685.93	0.02236
1697.51	0.04476
1709.08	0.12916
1720.66	0.27911
1732.23	0.20968
1743.8	0.06679
1755.38	0.02753
1766.95	0.01927
1778.53	0.02099
1790.1	0.02416
1801.67	0.01131
1813.25	0.00509
1824.82	0.00334
1836.39	0.00265
1847.97	0.00226
1859.54	0.00198
1871.12	0.0018
1882.69	0.00167
1894.26	0.00162
1905.84	0.00167
1917.41	0.00164
1928.99	0.00151
1940.56	0.00132
1952.13	0.00119
1963.71	0.00111
1975.28	0.00102
1986.85	0.0008482
1998.43	0.0007809
2010	0.0007385
2021.58	0.0007302
2033.15	0.0007081
2044.72	0.0006388
2056.3	0.0005692
2067.87	0.0006519
2079.44	0.0007216
2091.02	0.0006991
2102.59	0.0006672
2114.17	0.0006068
2125.74	0.0005829
2137.31	0.0006129
2148.89	0.0005915
2160.46	0.0005955
2172.04	0.0005252
2183.61	0.0005411
2195.18	0.0005768
2206.76	0.0006117
2218.33	0.0005773
2229.9	0.0005195
2241.48	0.0005347
2253.05	0.0005136
2264.63	0.0004817
2276.2	0.0005432
2287.77	0.0004716
2299.35	0.0004475
2310.92	0.0004971
2322.5	0.0005812
2334.07	0.0006597
2345.64	0.0008676
2357.22	0.000916
2368.79	0.000795
2380.36	0.0007731
2391.94	0.000747
2403.51	0.000705
2415.09	0.0007242
2426.66	0.0006743
2438.23	0.0005589
2449.81	0.0005635
2461.38	0.000518
2472.96	0.0005496
2484.53	0.0005068
2496.1	0.000493
2507.68	0.0004429
2519.25	0.0005491
2530.82	0.000583
2542.4	0.0006748
2553.97	0.000676
2565.55	0.000564
2577.12	0.0005366
2588.69	0.0005328
2600.27	0.000505
2611.84	0.0004672
2623.41	0.0004706
2634.99	0.0005323
2646.56	0.0005701
2658.14	0.0005809
2669.71	0.0006768
2681.28	0.00069
2692.86	0.0007626
2704.43	0.0009014
2716.01	0.0009321
2727.58	0.0009949
2739.15	0.00104
2750.73	0.00115
2762.3	0.0013
2773.87	0.00139
2785.45	0.00148
2797.02	0.00176
2808.6	0.00216
2820.17	0.0029
2831.74	0.00386
2843.32	0.00603
2854.89	0.01296
2866.47	0.01633
2878.04	0.01452
2889.61	0.01805
2901.19	0.02007
2912.76	0.01834
2924.33	0.01604
2935.91	0.02438
2947.48	0.03044
2959.06	0.02354
2970.63	0.01716
2982.2	0.01125
2993.78	0.00703
3005.35	0.00385
3016.92	0.00275
3028.5	0.0032
3040.07	0.00853
3051.65	0.01603
3063.22	0.00744
3074.79	0.00248
3086.37	0.00117
3097.94	0.000727
3109.52	0.0005335
3121.09	0.00049
3132.66	0.0003494
3144.24	0.0003163
3155.81	0.0003104
3167.38	0.0002684
3178.96	0.0002895
3190.53	0.0002742
3202.11	0.0002742
3213.68	0.0002698
3225.25	0.0002724
3236.83	0.0003744
3248.4	0.0003181
3259.98	0.0003586
3271.55	0.0003592
3283.12	0.0004136
3294.7	0.0004224
3306.27	0.0004395
3317.84	0.0004076
3329.42	0.0004508
3340.99	0.0005609
3352.57	0.0005193
3364.14	0.0006367
3375.71	0.0007862
3387.29	0.0009882
3398.86	0.00108
3410.43	0.00113
3422.01	0.00136
3433.58	0.00154
3445.16	0.00153
3456.73	0.00168
3468.3	0.00196
3479.88	0.00272
3491.45	0.00369
3503.03	0.00397
3514.6	0.00425
3526.17	0.00606
3537.75	0.00822
3549.32	0.00881
3560.89	0.0073
3572.47	0.0056
3584.04	0.00454
3595.62	0.0043
3607.19	0.00437
3618.76	0.00424
3630.34	0.00344
3641.91	0.00282
3653.49	0.00321
3665.06	0.00442
3676.63	0.00364
3688.21	0.00211
3699.78	0.00138
3711.35	0.0009691
3722.93	0.0008241
3734.5	0.0006574
3746.08	0.000645
3757.65	0.0005998
3769.22	0.0005608
3780.8	0.000401
3792.37	0.0004164
3803.94	0.0003588
3815.52	0.0004607
3827.09	0.0004844
3838.67	0.000467
3850.24	0.0004121
3861.81	0.0004243
3873.39	0.0004695
3884.96	0.0004909
3896.54	0.0004391
3908.11	0.0003666
3919.68	0.0004903
3931.26	0.0004071
3942.83	0.0004525
3954.4	0.0004997
3965.98	0.0003621
3977.55	0.0004202
3989.13	0.0003256
4000.7	0.0003662
