Infrared Spectrum: 4-Hydroxy-2-trifluoromethylpyrimidine
Formula: C 5 H 3 F 3 N 2 O
CAS: 1546-80-1
State: gas
Origin: EPA-IR VAPOR PHASE LIBRARY
1/CM	ABSORBANCE
549.8	0.00462
559.445	0.00281
569.09	0.0019515
578.735	0.0025
588.38	0.00524
598.025	0.00542
607.67	0.00302
617.315	0.0018612
626.96	0.00211
636.605	0.00388
646.251	0.00679
655.896	0.00918
665.541	0.00919
675.186	0.00796
684.831	0.01158
694.476	0.01489
704.121	0.00796
713.766	0.00336
723.411	0.0034
733.056	0.00314
742.701	0.003
752.346	0.00626
761.991	0.01051
771.636	0.00811
781.281	0.00226
790.926	0.0016697
800.571	0.00249
810.216	0.00347
819.861	0.0066
829.507	0.01442
839.152	0.02329
848.797	0.01765
858.442	0.0094
868.087	0.00371
877.732	0.00287
887.377	0.00282
897.022	0.00285
906.667	0.00387
916.312	0.0066
925.957	0.01587
935.602	0.02025
945.247	0.01211
954.892	0.00606
964.537	0.00801
974.182	0.01472
983.827	0.01783
993.472	0.01208
1003.12	0.00758
1012.76	0.0065
1022.41	0.00701
1032.05	0.01138
1041.7	0.01342
1051.34	0.00753
1060.99	0.00511
1070.63	0.0057
1080.28	0.00811
1089.92	0.00963
1099.57	0.00856
1109.21	0.01503
1118.86	0.03794
1128.5	0.09474
1138.15	0.13021
1147.79	0.10415
1157.44	0.10676
1167.08	0.17739
1176.73	0.18711
1186.37	0.10039
1196.02	0.06681
1205.66	0.10743
1215.31	0.13857
1224.95	0.11061
1234.6	0.06266
1244.24	0.04646
1253.89	0.04936
1263.53	0.04746
1273.18	0.03864
1282.82	0.03033
1292.47	0.03239
1302.11	0.05448
1311.76	0.0895
1321.4	0.07478
1331.05	0.02401
1340.69	0.01341
1350.34	0.02217
1359.98	0.03748
1369.63	0.0317
1379.27	0.01154
1388.92	0.0066
1398.56	0.00573
1408.21	0.00674
1417.85	0.0114
1427.5	0.02308
1437.14	0.04075
1446.79	0.04588
1456.43	0.04608
1466.08	0.0504
1475.73	0.03295
1485.37	0.01453
1495.02	0.00906
1504.66	0.00581
1514.31	0.00536
1523.95	0.0078
1533.6	0.01367
1543.24	0.01851
1552.89	0.02127
1562.53	0.03344
1572.18	0.06711
1581.82	0.08884
1591.47	0.07287
1601.11	0.06076
1610.76	0.04362
1620.4	0.02763
1630.05	0.01905
1639.69	0.01083
1649.34	0.00606
1658.98	0.00383
1668.63	0.00373
1678.27	0.00478
1687.92	0.00609
1697.56	0.00738
1707.21	0.00902
1716.85	0.01399
1726.5	0.03029
1736.14	0.0653
1745.79	0.0878
1755.43	0.07025
1765.08	0.0345
1774.72	0.02052
1784.37	0.01329
1794.01	0.00759
1803.66	0.00446
1813.3	0.00309
1822.95	0.00227
1832.59	0.0017944
1842.24	0.0015486
1851.88	0.001589
1861.53	0.0018203
1871.17	0.00206
1880.82	0.00217
1890.46	0.0019542
1900.11	0.0016282
1909.75	0.0015412
1919.4	0.0015686
1929.04	0.0015515
1938.69	0.0015764
1948.33	0.0017263
1957.98	0.0018655
1967.62	0.0017463
1977.27	0.0013485
1986.91	0.0009692
1996.56	0.0009
2006.2	0.0009584
2015.85	0.00109159
2025.49	0.0010137
2035.14	0.000875
2044.78	0.000877
2054.43	0.000934
2064.07	0.00104978
2073.72	0.00108204
2083.36	0.0010336
2093.01	0.0009998
2102.65	0.00105149
2112.3	0.001039
2121.94	0.0009715
2131.59	0.000945
2141.23	0.0009562
2150.88	0.0009524
2160.52	0.00112969
2170.17	0.00112928
2179.81	0.001015
2189.46	0.00112341
2199.1	0.0012447
2208.75	0.0011814
2218.39	0.00111697
2228.04	0.00113424
2237.68	0.00110772
2247.33	0.0010767
2256.97	0.0012439
2266.62	0.0011887
2276.26	0.0012729
2285.91	0.001419
2295.55	0.0015848
2305.2	0.0016509
2314.84	0.0015781
2324.49	0.0015017
2334.13	0.0015409
2343.78	0.0016562
2353.42	0.0017126
2363.07	0.0016701
2372.72	0.001706
2382.36	0.0018413
2392.01	0.0020355
2401.65	0.00208
2411.3	0.00193
2420.94	0.0017806
2430.59	0.0017466
2440.23	0.0016452
2449.88	0.0014794
2459.52	0.0011558
2469.17	0.00105493
2478.81	0.00107372
2488.46	0.0011948
2498.1	0.0012929
2507.75	0.0012972
2517.39	0.0012322
2527.04	0.0011794
2536.68	0.00108759
2546.33	0.0010044
2555.97	0.00105966
2565.62	0.00107294
2575.26	0.0012211
2584.91	0.0013291
2594.55	0.0013852
2604.2	0.0013951
2613.84	0.0013854
2623.49	0.001316
2633.13	0.0012345
2642.78	0.00111744
2652.42	0.000965
2662.07	0.000876
2671.71	0.000781
2681.36	0.000817
2691	0.000734
2700.65	0.000706
2710.29	0.000727
2719.94	0.000725
2729.58	0.000724
2739.23	0.00077
2748.87	0.000719
2758.52	0.000686
2768.16	0.000676
2777.81	0.00066
2787.45	0.000573
2797.1	0.000533
2806.74	0.000554
2816.39	0.000548
2826.03	0.000467
2835.68	0.000467
2845.32	0.000468
2854.97	0.000498
2864.61	0.000606
2874.26	0.000762
2883.9	0.000618
2893.55	0.000533
2903.19	0.000506
2912.84	0.000456
2922.48	0.00047
2932.13	0.000393
2941.77	0.000428
2951.42	0.000377
2961.06	0.000415
2970.71	0.000366
2980.35	0.000345
2990	0.000391
2999.64	0.000522
3009.29	0.000796
3018.93	0.00107057
3028.58	0.001268
3038.22	0.0013884
3047.87	0.001823
3057.51	0.00347
3067.16	0.00498
3076.8	0.00393
3086.45	0.0017503
3096.09	0.000837
3105.74	0.000638
3115.38	0.000526
3125.03	0.000435
3134.67	0.000397
3144.32	0.000413
3153.96	0.000599
3163.61	0.00076
3173.25	0.000601
3182.9	0.000601
3192.54	0.000454
3202.19	0.000221
3211.83	0.000185
3221.48	0.000183
3231.12	8.9e-05
3240.77	0.000174
3250.41	0.000109
3260.06	9.3e-05
3269.7	0.000153
3279.35	0.000101
3289	0.000264
3298.64	0.000172
3308.29	0.000242
3317.93	5.2e-05
3327.58	0.000155
3337.22	0.000192
3346.87	7.2e-05
3356.51	6.3e-05
3366.16	0.000217
3375.8	0.000312
3385.45	0.000835
3395.09	0.00292
3404.74	0.00841
3414.38	0.01583
3424.03	0.01436
3433.67	0.0057
3443.32	0.0015045
3452.96	0.000793
3462.61	0.000827
3472.25	0.00086
3481.9	0.000922
3491.54	0.000773
3501.19	0.000574
3510.83	0.000274
3520.48	0.000347
3530.12	0.000426
3539.77	0.000628
3549.41	0.001636
3559.06	0.00618
3568.7	0.02223
3578.35	0.03673
3587.99	0.03615
3597.64	0.01208
3607.28	0.00267
3616.93	0.000768
3626.57	0.000632
3636.22	0.000792
3645.86	0.000941
3655.51	0.000557
3665.15	0.000288
3674.8	0.000252
3684.44	0.000273
3694.09	0.000272
3703.73	0.0003
3713.38	0.000347
3723.02	0.000315
3732.67	0.000253
3742.31	0.000298
3751.96	0.000321
3761.6	0.000314
3771.25	0.000331
3780.89	0.000271
3790.54	0.000289
3800.18	0.000306
3809.83	0.000274
3819.47	0.00037
3829.12	0.000319
3838.76	0.000326
3848.41	0.00032
3858.05	0.000305
3867.7	0.000342
3877.34	0.000396
3886.99	0.000345
3896.63	0.000333
3906.28	0.000399
3915.92	0.000332
3925.57	0.000246
3935.21	0.000361
3944.86	0.000323
3954.5	0.000416
3964.15	0.000376
3973.79	0.00031
3983.44	0.000305
3993.08	0.000345
