Infrared Spectrum: 2-BROMO-4-CYCLOHEXYL-PHENOL
Formula: C12 H15 Br O
CAS: 15460-06-7
State: SOLUTION (7% IN CHCl3)
Class: COBLENTZ
Instrument: PERKIN-ELMER
Sampling: TRANSMISSION
Path length: 0.010 CM
Resolution: 4
Origin: ABBOTT LABORATORIES - WASHBURN
MICROMETERS	TRANSMITTANCE
2.016	0.936
2.05006	0.933
2.08412	0.931
2.11818	0.93
2.15224	0.928
2.1863	0.928
2.22036	0.931
2.25442	0.93
2.28848	0.921
2.32254	0.921
2.3566	0.9279
2.39066	0.9281
2.42472	0.9191
2.45878	0.918
2.49284	0.918
2.5269	0.911
2.56096	0.911
2.59502	0.9159
2.62908	0.914
2.66314	0.914
2.6972	0.9111
2.73126	0.912
2.76532	0.8956
2.79938	0.8218
2.83344	0.6027
2.8675	0.824
2.90156	0.8539
2.93562	0.8531
2.96968	0.8441
3.00374	0.8361
3.0378	0.8271
3.07186	0.832
3.10592	0.841
3.13998	0.8539
3.17404	0.865
3.2081	0.878
3.24216	0.87
3.27622	0.873
3.31028	0.87
3.34434	0.8615
3.3784	0.6082
3.41246	0.252
3.44653	0.5095
3.48059	0.6252
3.51465	0.6343
3.54871	0.8366
3.58277	0.8649
3.61683	0.8848
3.65089	0.8949
3.68495	0.894
3.71901	0.895
3.75307	0.889
3.78713	0.882
3.82119	0.89
3.85525	0.897
3.88931	0.8968
3.92337	0.901
3.95743	0.901
3.99149	0.901
4.02555	0.8992
4.05961	0.9008
4.09367	0.904
4.12773	0.902
4.16179	0.9039
4.19585	0.911
4.22991	0.9071
4.26397	0.904
4.29803	0.901
4.33209	0.902
4.36615	0.902
4.40021	0.901
4.43427	0.9011
4.46833	0.901
4.50239	0.901
4.53645	0.901
4.57051	0.901
4.60457	0.901
4.63863	0.901
4.67269	0.901
4.70675	0.901
4.74081	0.901
4.77487	0.894
4.80893	0.901
4.84299	0.901
4.87705	0.895
4.91111	0.894
4.94517	0.895
4.97923	0.901
5.01329	0.901
5.04735	0.901
5.08141	0.899
5.11547	0.899
5.14953	0.897
5.18359	0.901
5.21765	0.894
5.25171	0.89
5.28577	0.882
5.31983	0.885
5.35389	0.892
5.38795	0.892
5.42201	0.892
5.45607	0.892
5.49013	0.89
5.52419	0.89
5.55825	0.89
5.59231	0.885
5.62637	0.885
5.66043	0.8754
5.69449	0.8778
5.72855	0.882
5.76261	0.882
5.79667	0.882
5.83073	0.878
5.86479	0.8793
5.89885	0.883
5.93291	0.8775
5.96697	0.872
6.00103	0.8673
6.03509	0.861
6.06915	0.865
6.10321	0.8636
6.13727	0.86
6.17133	0.8287
6.20539	0.7255
6.23946	0.7649
6.27352	0.805
6.30758	0.7741
6.34164	0.7866
6.3757	0.8236
6.40976	0.8475
6.44382	0.8624
6.47788	0.868
6.51194	0.8674
6.546	0.8574
6.58006	0.8301
6.61412	0.7059
6.64818	0.5469
6.68224	0.1635
6.7163	0.3949
6.75036	0.6651
6.78442	0.7306
6.81848	0.7435
6.85254	0.7249
6.8866	0.6157
6.92066	0.6196
6.95472	0.7423
6.98878	0.7917
7.02284	0.7731
7.0569	0.7456
7.09096	0.7642
7.12502	0.8136
7.15908	0.8346
7.19314	0.8436
7.2272	0.846
7.26126	0.8351
7.29532	0.8221
7.32938	0.7764
7.36344	0.7758
7.3975	0.7718
7.43156	0.7659
7.46562	0.7518
7.49968	0.694
7.53374	0.636
7.5678	0.7402
7.60186	0.7778
7.63592	0.7661
7.66998	0.7618
7.70404	0.7838
7.7381	0.7795
7.77216	0.6952
7.80622	0.5108
7.84028	0.4415
7.87434	0.55
7.9084	0.5932
7.94246	0.6564
7.97652	0.6141
8.01058	0.5354
8.04464	0.6654
8.0787	0.7451
8.11276	0.7549
8.14682	0.7499
8.18088	0.75
8.21494	0.7658
8.249	0.774
8.28306	0.7782
8.31712	0.7597
8.35118	0.6939
8.38524	0.6108
8.4193	0.4211
8.45336	0.2813
8.48742	0.2707
8.52148	0.3443
8.55554	0.4477
8.5896	0.5669
8.62366	0.6743
8.65772	0.7106
8.69178	0.7234
8.72584	0.723
8.7599	0.718
8.79396	0.7088
8.82802	0.7303
8.86208	0.7441
8.89614	0.749
8.9302	0.749
8.96426	0.7372
8.99832	0.7463
9.03239	0.7737
9.06645	0.7849
9.10051	0.7933
9.13457	0.803
9.16863	0.8154
9.20269	0.8245
9.23675	0.833
9.27081	0.837
9.30487	0.8417
9.33893	0.8446
9.37299	0.853
9.40705	0.8584
9.44111	0.8662
9.47517	0.8781
9.50923	0.8831
9.54329	0.8699
9.57735	0.8272
9.61141	0.7365
9.64547	0.6288
9.67953	0.659
9.71359	0.7814
9.74765	0.8316
9.78171	0.853
9.81577	0.8605
9.84983	0.865
9.88389	0.8598
9.91795	0.8363
9.95201	0.8113
9.98607	0.803
10.0201	0.8113
10.0542	0.8402
10.0882	0.8543
10.1223	0.8662
10.1564	0.875
10.1904	0.88
10.2245	0.875
10.2585	0.8779
10.2926	0.882
10.3267	0.8827
10.3607	0.883
10.3948	0.8792
10.4289	0.883
10.4629	0.883
10.497	0.885
10.531	0.877
10.5651	0.8799
10.5992	0.877
10.6332	0.8773
10.6673	0.8827
10.7013	0.89
10.7354	0.8941
10.7695	0.902
10.8035	0.906
10.8376	0.8953
10.8716	0.878
10.9057	0.873
10.9398	0.873
10.9738	0.8684
11.0079	0.8545
11.0419	0.8192
11.076	0.7962
11.1101	0.7888
11.1441	0.8134
11.1782	0.8244
11.2122	0.8327
11.2463	0.837
11.2804	0.831
11.3144	0.8234
11.3485	0.8185
11.3825	0.8066
11.4166	0.7833
11.4507	0.7568
11.4847	0.7151
11.5188	0.6923
11.5528	0.7193
11.5869	0.7756
11.621	0.8166
11.655	0.8437
11.6891	0.8552
11.7231	0.8621
11.7572	0.863
11.7913	0.8434
11.8253	0.7392
11.8594	0.7274
11.8934	0.7874
11.9275	0.8176
11.9616	0.8215
11.9956	0.8075
12.0297	0.777
12.0637	0.7216
12.0978	0.6054
12.1319	0.4989
12.1659	0.477
12.2	0.5276
12.234	0.5867
12.2681	0.6155
12.3022	0.6482
12.3362	0.7205
12.3703	0.7688
12.4043	0.8091
12.4384	0.8425
12.4725	0.864
12.5065	0.8918
12.5406	0.9225
12.5746	0.9349
12.6087	0.9493
12.6428	0.9593
12.6768	0.9642
12.7109	0.9672
12.7449	0.972
12.779	0.977
12.8131	0.9939
12.8471	1.003
12.8812	1.006
12.9152	1.0015
12.9493	1.005
12.9834	1.0085
13.0174	1.017
13.0515	1.018
13.0855	1.018
13.1196	1.018
13.1537	1.018
13.1877	1.018
13.2218	1.017
13.2558	1.018
13.2899	1.018
13.324	1.0179
13.358	1.017
13.3921	1.017
13.4261	1.017
13.4602	1.017
13.4943	1.018
13.5283	1.022
13.5624	1.0154
13.5964	1.022
13.6305	1.0173
13.6646	1.018
13.6986	1.0159
13.7327	1.0165
13.7667	1.0161
13.8008	1.0099
13.8349	1.003
13.8689	1.0085
13.903	1.015
13.937	1.018
13.9711	1.017
14.0052	1.011
14.0392	1.008
14.0733	0.9929
14.1073	0.9743
14.1414	0.9532
14.1755	0.9369
14.2095	0.931
14.2436	0.9336
14.2776	0.933
14.3117	0.931
14.3458	0.9267
14.3798	0.923
14.4139	0.921
14.4479	0.9235
14.482	0.926
14.5161	0.93
14.5501	0.931
14.5842	0.9296
14.6182	0.9207
14.6523	0.9139
14.6864	0.897
14.7204	0.8783
14.7545	0.8533
14.7885	0.8391
14.8226	0.8342
14.8567	0.8368
14.8907	0.844
14.9248	0.844
14.9588	0.8486
14.9929	0.849
15.027	0.849
15.061	0.846
15.0951	0.8468
15.1291	0.8576
15.1632	0.8786
15.1973	0.9
15.2313	0.9151
15.2654	0.9214
15.2994	0.926
15.3335	0.93
15.3676	0.9281
15.4016	0.931
15.4357	0.936
