Infrared Spectrum: N-Tetrafluoroacetylimidazole
Formula: C 5 H 3 F 3 N 2 O
CAS: 1546-79-8
State: gas
Origin: EPA-IR VAPOR PHASE LIBRARY
1/CM	ABSORBANCE
549.9	0.0040655
559.547	0.0041512
569.193	0.00434
578.84	0.00548
588.486	0.00715
598.133	0.00778
607.779	0.01046
617.426	0.01543
627.072	0.01814
636.719	0.02252
646.365	0.01435
656.012	0.00743
665.658	0.00485
675.305	0.00434
684.951	0.0044
694.598	0.00485
704.245	0.00659
713.891	0.01041
723.538	0.01794
733.184	0.04476
742.831	0.06164
752.477	0.0328
762.124	0.01741
771.77	0.01106
781.417	0.00664
791.063	0.00464
800.71	0.00634
810.356	0.01126
820.003	0.01499
829.649	0.01272
839.296	0.00982
848.943	0.00604
858.589	0.00473
868.236	0.00613
877.882	0.01112
887.529	0.0184
897.175	0.04281
906.822	0.09789
916.468	0.07752
926.115	0.01428
935.761	0.00514
945.408	0.004034
955.054	0.0036383
964.701	0.0035397
974.347	0.00379
983.994	0.00428
993.64	0.00629
1003.29	0.01349
1012.93	0.02202
1022.58	0.01908
1032.23	0.00787
1041.87	0.00564
1051.52	0.00999
1061.17	0.02855
1070.81	0.0364
1080.46	0.02341
1090.11	0.03141
1099.75	0.04676
1109.4	0.04675
1119.05	0.03354
1128.69	0.01349
1138.34	0.01864
1147.99	0.03583
1157.63	0.07546
1167.28	0.14551
1176.92	0.21537
1186.57	0.23385
1196.22	0.1933
1205.86	0.15917
1215.51	0.19343
1225.16	0.27544
1234.8	0.25492
1244.45	0.1295
1254.1	0.08604
1263.74	0.09807
1273.39	0.07812
1283.04	0.03987
1292.68	0.01566
1302.33	0.01153
1311.98	0.01185
1321.62	0.01637
1331.27	0.01624
1340.92	0.00973
1350.56	0.00653
1360.21	0.00662
1369.86	0.00925
1379.5	0.02118
1389.15	0.05268
1398.79	0.08662
1408.44	0.07955
1418.09	0.03744
1427.73	0.01389
1437.38	0.01215
1447.03	0.01605
1456.67	0.02238
1466.32	0.03952
1475.97	0.05993
1485.61	0.06307
1495.26	0.04485
1504.91	0.02122
1514.55	0.01238
1524.2	0.01019
1533.85	0.01336
1543.49	0.01287
1553.14	0.00862
1562.79	0.0069
1572.43	0.00514
1582.08	0.00495
1591.73	0.00649
1601.37	0.00657
1611.02	0.00617
1620.67	0.00768
1630.31	0.00824
1639.96	0.00619
1649.6	0.00439
1659.25	0.00531
1668.9	0.00617
1678.54	0.00619
1688.19	0.00605
1697.84	0.00578
1707.48	0.00549
1717.13	0.00603
1726.78	0.00769
1736.42	0.01194
1746.07	0.02308
1755.72	0.05971
1765.36	0.15215
1775.01	0.19478
1784.66	0.1126
1794.3	0.0282
1803.95	0.01318
1813.6	0.01136
1823.24	0.00989
1832.89	0.00673
1842.54	0.0040875
1852.18	0.00303
1861.83	0.00254
1871.47	0.0024
1881.12	0.002524
1890.77	0.002742
1900.41	0.00316336
1910.06	0.0036538
1919.71	0.0039181
1929.35	0.0035805
1939	0.002752
1948.65	0.002283
1958.29	0.002234
1967.94	0.002209
1977.59	0.00203
1987.23	0.00185
1996.88	0.00178
2006.53	0.00183
2016.17	0.00185
2025.82	0.00188
2035.47	0.0018
2045.11	0.00158
2054.76	0.00159
2064.41	0.00167
2074.05	0.00173
2083.7	0.00182
2093.35	0.00182
2102.99	0.00182
2112.64	0.0019
2122.28	0.00191
2131.93	0.00195
2141.58	0.00196
2151.22	0.00192
2160.87	0.00176
2170.52	0.00168
2180.16	0.00168
2189.81	0.00172
2199.46	0.00163
2209.1	0.00161
2218.75	0.00164
2228.4	0.00171
2238.04	0.00183
2247.69	0.00181
2257.34	0.00176
2266.98	0.00181
2276.63	0.00187
2286.28	0.00199
2295.92	0.00207
2305.57	0.00195
2315.22	0.00189
2324.86	0.00188
2334.51	0.00192
2344.16	0.00197
2353.8	0.00207
2363.45	0.002189
2373.09	0.002247
2382.74	0.002174
2392.39	0.002178
2402.03	0.002247
2411.68	0.002396
2421.33	0.002594
2430.97	0.002424
2440.62	0.00216
2450.27	0.00194
2459.91	0.00186
2469.56	0.00185
2479.21	0.0017
2488.85	0.00176
2498.5	0.00188
2508.15	0.00206
2517.79	0.00212
2527.44	0.00213
2537.09	0.002185
2546.73	0.002181
2556.38	0.0021
2566.03	0.00187
2575.67	0.0016
2585.32	0.00162
2594.96	0.00163
2604.61	0.00154
2614.26	0.00166
2623.9	0.00176
2633.55	0.00173
2643.2	0.00157
2652.84	0.0013
2662.49	0.00123
2672.14	0.00119
2681.78	0.00126
2691.43	0.00108
2701.08	0.00097
2710.72	0.00093
2720.37	0.00098
2730.02	0.00087
2739.66	0.00084
2749.31	0.00083
2758.96	0.00084
2768.6	0.00091
2778.25	0.00104
2787.9	0.00123
2797.54	0.00126
2807.19	0.00122
2816.84	0.00094
2826.48	0.00068
2836.13	0.00051
2845.77	0.00046
2855.42	0.00056
2865.07	0.00042
2874.71	0.00028
2884.36	0.00027
2894.01	0.00031
2903.65	0.00024
2913.3	0.00042
2922.95	0.00038
2932.59	0.0005
2942.24	0.00073
2951.89	0.00086
2961.53	0.00064
2971.18	0.00038
2980.83	0.0003
2990.47	0.00025
3000.12	0.00025
3009.77	0.00012
3019.41	0.00021
3029.06	9e-05
3038.71	0.0001
3048.35	0.00015
3058	0.00042
3067.64	0.00034
3077.29	0.00033
3086.94	6e-05
3096.58	0.00015
3106.23	0.0003
3115.88	0.00063
3125.52	0.00188
3135.17	0.0036957
3144.82	0.00435
3154.46	0.0037883
3164.11	0.004016
3173.76	0.0039636
3183.4	0.002939
3193.05	0.00151
3202.7	0.0006
3212.34	0.00028
3221.99	0.00019
3231.64	0.00021
3241.28	0.00019
3250.93	0.0002
3260.58	0.00034
3270.22	0.00042
3279.87	0.0004
3289.52	0.00045
3299.16	0.00054
3308.81	0.00058
3318.45	0.00044
3328.1	0.00071
3337.75	0.00079
3347.39	0.00069
3357.04	0.0009
3366.69	0.00095
3376.33	0.00087
3385.98	0.00091
3395.63	0.00089
3405.27	0.00088
3414.92	0.0012
3424.57	0.0009
3434.21	0.00123
3443.86	0.00119
3453.51	0.00132
3463.15	0.00141
3472.8	0.00137
3482.45	0.00154
3492.09	0.00172
3501.74	0.00211
3511.39	0.002783
3521.03	0.00357
3530.68	0.0036328
3540.33	0.00319871
3549.97	0.002337
3559.62	0.00194
3569.26	0.00196
3578.91	0.00182
3588.56	0.00195
3598.2	0.00177
3607.85	0.00164
3617.5	0.00172
3627.14	0.00166
3636.79	0.00175
3646.44	0.00173
3656.08	0.00178
3665.73	0.00184
3675.38	0.00188
3685.02	0.0018
3694.67	0.00177
3704.32	0.00179
3713.96	0.00185
3723.61	0.00178
3733.26	0.00186
3742.9	0.00183
3752.55	0.00188
3762.2	0.00174
3771.84	0.00178
3781.49	0.00181
3791.13	0.00177
3800.78	0.00187
3810.43	0.00178
3820.07	0.0018
3829.72	0.00188
3839.37	0.00178
3849.01	0.00177
3858.66	0.00173
3868.31	0.00185
3877.95	0.00189
3887.6	0.00185
3897.25	0.00187
3906.89	0.0019
3916.54	0.00192
3926.19	0.00179
3935.83	0.00183
3945.48	0.00185
3955.13	0.00189
3964.77	0.00184
3974.42	0.00191
3984.07	0.00197
3993.71	0.00185
