Infrared Spectrum: N,N-Dimethyltrifluoroacetamide
Formula: C 4 H 6 F 3 N O
CAS: 1547-87-1
State: gas
Instrument: HP-GC/MS/IRD
Origin: NIST Mass Spectrometry Data Center
1/CM	ABSORBANCE
550	0.0002016
562	0.0001197
574	0.0002184
586	0.0002898
598	0.0003297
610	0.0001365
622	0.0001449
634	0.0001722
646	0.0001197
658	0.0011508
670	0.0019677
682	0.0011865
694	0.0001848
706	0.0001848
718	1.89e-05
730	0.0002121
742	0.0005817
754	0.0013608
766	0.0011508
778	0.0004221
790	0.0001134
802	0.0001428
814	9.24e-05
826	3.78e-05
838	7.98e-05
850	0.0001113
862	0.0001113
874	6.09e-05
886	1.47e-05
898	1.26e-05
910	0.0001869
922	0.0005061
934	0.0004977
946	0.0002352
958	0.0001785
970	0.0001533
982	0.0001113
994	0.0001512
1006	0.000189
1018	0.0002625
1030	0.0005418
1042	0.0009849
1054	0.0014196
1066	0.0020496
1078	0.003528
1090	0.0069993
1102	0.0109977
1114	0.0106512
1126	0.0087339
1138	0.0127764
1150	0.0192339
1162	0.01449
1174	0.0091476
1186	0.0121233
1198	0.0146916
1210	0.0105966
1222	0.005502
1234	0.0049266
1246	0.0070896
1258	0.0088095
1270	0.0079086
1282	0.0063336
1294	0.0039438
1306	0.0014679
1318	0.0008778
1330	0.0008043
1342	0.0006615
1354	0.0005901
1366	0.0007035
1378	0.0010164
1390	0.0018165
1402	0.0029442
1414	0.0035196
1426	0.0029085
1438	0.0017241
1450	0.0011382
1462	0.0012705
1474	0.0014385
1486	0.0014322
1498	0.0013293
1510	0.0013419
1522	0.001386
1534	0.0011109
1546	0.0008421
1558	0.0008043
1570	0.0005754
1582	0.0004263
1594	0.0004116
1606	0.0003654
1618	0.0003864
1630	0.0003843
1642	0.0005166
1654	0.0007518
1666	0.0010164
1678	0.0017661
1690	0.0038073
1702	0.0100149
1714	0.0192024
1726	0.0199353
1738	0.0105399
1750	0.0041454
1762	0.0016233
1774	0.0008568
1786	0.0005544
1798	0.000399
1810	0.0003297
1822	0.0002898
1834	0.0002142
1846	0.0002268
1858	0.0001932
1870	0.0002331
1882	0.0001491
1894	0.0001596
1906	0.0001323
1918	0.000126
1930	7.14e-05
1942	0.0001092
1954	6.93e-05
1966	6.3e-05
1978	3.99e-05
1990	7.35e-05
2002	4.2e-05
2014	8.19e-05
2026	7.14e-05
2038	8.19e-05
2050	5.88e-05
2062	6.09e-05
2074	9.03e-05
2086	7.35e-05
2098	2.73e-05
2110	2.31e-05
2122	4.41e-05
2134	3.99e-05
2146	4.41e-05
2158	3.36e-05
2170	5.25e-05
2182	4.2e-05
2194	5.67e-05
2206	4.62e-05
2218	5.25e-05
2230	3.99e-05
2242	4.83e-05
2254	1.68e-05
2266	3.78e-05
2278	3.36e-05
2290	4.62e-05
2302	2.94e-05
2314	0.000105
2326	0.0001533
2338	0.0001554
2350	9.87e-05
2362	0.0002121
2374	0.0001113
2386	9.66e-05
2398	7.77e-05
2410	5.88e-05
2422	7.14e-05
2434	2.94e-05
2446	2.94e-05
2458	7.56e-05
2470	0.0001428
2482	0.0001113
2494	0.0001155
2506	6.93e-05
2518	4.62e-05
2530	8.82e-05
2542	5.46e-05
2554	6.93e-05
2566	9.87e-05
2578	4.2e-05
2590	5.46e-05
2602	3.57e-05
2614	7.77e-05
2626	7.98e-05
2638	5.46e-05
2650	3.99e-05
2662	1.47e-05
2674	4.83e-05
2686	2.94e-05
2698	5.88e-05
2710	5.25e-05
2722	6.51e-05
2734	6.09e-05
2746	6.93e-05
2758	9.66e-05
2770	5.67e-05
2782	0.0001344
2794	0.0002205
2806	0.0003801
2818	0.0003927
2830	0.000504
2842	0.0005481
2854	0.0005775
2866	0.0007035
2878	0.0009702
2890	0.0012222
2902	0.0012852
2914	0.001449
2926	0.00189
2938	0.002562
2950	0.0030114
2962	0.0026628
2974	0.0018711
2986	0.0011067
2998	0.0007224
3010	0.0005397
3022	0.0004725
3034	0.0004872
3046	0.0005187
3058	0.0004767
3070	0.0003969
3082	0.0003066
3094	0.0002982
3106	0.0001995
3118	0.0001638
3130	0.0001533
3142	6.72e-05
3154	0.0001449
3166	0.0001932
3178	0.0001386
3190	0.0001491
3202	0.000147
3214	8.19e-05
3226	6.51e-05
3238	3.99e-05
3250	0.0001533
3262	7.14e-05
3274	2.1e-05
3286	5.46e-05
3298	0.0001344
3310	8.4e-05
3322	3.99e-05
3334	0.0001176
3346	9.87e-05
3358	0.0001092
3370	0.0001113
3382	0.0001575
3394	0.0001344
3406	0.0002541
3418	0.0002541
3430	0.0002772
3442	0.0002583
3454	0.0002163
3466	0.0001449
3478	0.0001932
3490	0.0001512
3502	0.0001995
3514	0.0001092
3526	0.000105
3538	0.0001092
3550	0.0001533
3562	9.66e-05
3574	0.0001113
3586	0.0002352
3598	0.0002016
3610	0.0002184
3622	0.0002121
3634	0.000147
3646	0.0001071
3658	0.0001722
3670	0.0001596
3682	0.000126
3694	0.0001176
3706	0.0001974
3718	0.0001239
3730	0.0001953
3742	0.0001638
3754	0.0003255
3766	0.0001722
3778	0.0001428
3790	0.0001512
3802	0.0001512
3814	0.0001008
3826	0.0001449
3838	0.0002457
