Infrared Spectrum: 2-(2-Chlorophenoxy)ethanol
Formula: C 8 H 9 Cl O 2
CAS: 15480-00-9
State: gas
Origin: EPA-IR VAPOR PHASE LIBRARY
1/CM	ABSORBANCE
549.9	0.0014813
559.547	0.0014255
569.193	0.0012341
578.84	0.0012613
588.486	0.0016871
598.133	0.0017585
607.779	0.0015846
617.426	0.0011255
627.072	0.0010684
636.719	0.00102503
646.365	0.00098236
656.012	0.0011633
665.658	0.0019252
675.305	0.003318
684.951	0.004348
694.598	0.003698
704.245	0.002928
713.891	0.003138
723.538	0.004048
733.184	0.007108
742.831	0.013258
752.477	0.011698
762.124	0.005388
771.77	0.002498
781.417	0.002058
791.063	0.002028
800.71	0.0019119
810.356	0.001619
820.003	0.0015083
829.649	0.0014344
839.296	0.0013951
848.943	0.0017095
858.589	0.002018
868.236	0.002528
877.882	0.003088
887.529	0.004008
897.175	0.004978
906.822	0.005578
916.468	0.004768
926.115	0.003528
935.761	0.002658
945.408	0.002018
955.054	0.0018219
964.701	0.001863
974.347	0.002148
983.994	0.002628
993.64	0.003628
1003.29	0.005608
1012.93	0.009118
1022.58	0.014468
1032.23	0.020288
1041.87	0.020078
1051.52	0.016738
1061.17	0.018518
1070.81	0.017478
1080.46	0.013728
1090.11	0.010168
1099.75	0.006408
1109.4	0.004158
1119.05	0.003668
1128.69	0.004508
1138.34	0.003398
1147.99	0.0015937
1157.63	0.0016488
1167.28	0.0015073
1176.92	0.0014495
1186.57	0.0015201
1196.22	0.002358
1205.86	0.003318
1215.51	0.005338
1225.16	0.010878
1234.8	0.018968
1244.45	0.023218
1254.1	0.019978
1263.74	0.018198
1273.39	0.019228
1283.04	0.016248
1292.68	0.012678
1302.33	0.007488
1311.98	0.004078
1321.62	0.002988
1331.27	0.002798
1340.92	0.002868
1350.56	0.003218
1360.21	0.004208
1369.86	0.005178
1379.5	0.004258
1389.15	0.003418
1398.79	0.003278
1408.44	0.002938
1418.09	0.002628
1427.73	0.003098
1437.38	0.006318
1447.03	0.009728
1456.67	0.010988
1466.32	0.013798
1475.97	0.024338
1485.61	0.025458
1495.26	0.010728
1504.91	0.004818
1514.55	0.002968
1524.2	0.0018078
1533.85	0.0015079
1543.49	0.0014268
1553.14	0.0016785
1562.79	0.002598
1572.43	0.004948
1582.08	0.008668
1591.73	0.008208
1601.37	0.003458
1611.02	0.0013964
1620.67	0.0010446
1630.31	0.0009197
1639.96	0.0008597
1649.6	0.00088
1659.25	0.0008795
1668.9	0.00100377
1678.54	0.00100188
1688.19	0.00098568
1697.84	0.00093061
1707.48	0.0008545
1717.13	0.000814
1726.78	0.0008456
1736.42	0.000827
1746.07	0.000835
1755.72	0.00095488
1765.36	0.0010478
1775.01	0.00096498
1784.66	0.00097567
1794.3	0.0009187
1803.95	0.000938667
1813.6	0.0009093
1823.24	0.0008617
1832.89	0.00083
1842.54	0.0008544
1852.18	0.0009043
1861.83	0.0008959
1871.47	0.00099521
1881.12	0.0011332
1890.77	0.0012805
1900.41	0.0011277
1910.06	0.0010403
1919.71	0.0012719
1929.35	0.0012564
1939	0.0010853
1948.65	0.000946358
1958.29	0.00093613
1967.94	0.0008923
1977.59	0.000847
1987.23	0.0008676
1996.88	0.00093582
2006.53	0.00093417
2016.17	0.000945948
2025.82	0.00101374
2035.47	0.00103442
2045.11	0.0010687
2054.76	0.0011386
2064.41	0.00124
2074.05	0.0011885
2083.7	0.0011205
2093.35	0.0010735
2102.99	0.0010466
2112.64	0.0010452
2122.28	0.00100163
2131.93	0.0010195
2141.58	0.00099069
2151.22	0.00099622
2160.87	0.00099646
2170.52	0.0010045
2180.16	0.00095186
2189.81	0.0009522
2199.46	0.0008961
2209.1	0.00093456
2218.75	0.0009126
2228.4	0.000946358
2238.04	0.00097835
2247.69	0.00100456
2257.34	0.00102727
2266.98	0.0010977
2276.63	0.0010859
2286.28	0.0011169
2295.92	0.0011186
2305.57	0.0011158
2315.22	0.0011467
2324.86	0.0010597
2334.51	0.0010752
2344.16	0.00105
2353.8	0.00103741
2363.45	0.00102677
2373.09	0.0011009
2382.74	0.0011021
2392.39	0.0011262
2402.03	0.0011287
2411.68	0.0011397
2421.33	0.0010647
2430.97	0.0011227
2440.62	0.0010981
2450.27	0.0011626
2459.91	0.0011585
2469.56	0.001229
2479.21	0.0012611
2488.85	0.0013086
2498.5	0.0012835
2508.15	0.001353
2517.79	0.0013251
2527.44	0.0014472
2537.09	0.0015162
2546.73	0.001489
2556.38	0.001437
2566.03	0.0013515
2575.67	0.0013142
2585.32	0.0012789
2594.96	0.001254
2604.61	0.0011932
2614.26	0.001162
2623.9	0.0012419
2633.55	0.0012974
2643.2	0.0012193
2652.84	0.0012016
2662.49	0.0012288
2672.14	0.0012858
2681.78	0.0013285
2691.43	0.0013236
2701.08	0.001404
2710.72	0.0014027
2720.37	0.0015779
2730.02	0.0016066
2739.66	0.0015711
2749.31	0.0015828
2758.96	0.0015557
2768.6	0.0015275
2778.25	0.0016282
2787.9	0.0016173
2797.54	0.0016209
2807.19	0.001647
2816.84	0.001809
2826.48	0.0019246
2836.13	0.002068
2845.77	0.002308
2855.42	0.002888
2865.07	0.003878
2874.71	0.005438
2884.36	0.006368
2894.01	0.005868
2903.65	0.005108
2913.3	0.005348
2922.95	0.006598
2932.59	0.008518
2942.24	0.009628
2951.89	0.009578
2961.53	0.008698
2971.18	0.006908
2980.83	0.004808
2990.47	0.003318
3000.12	0.002328
3009.77	0.002038
3019.41	0.002038
3029.06	0.002108
3038.71	0.0019259
3048.35	0.001887
3058	0.002468
3067.64	0.004198
3077.29	0.005468
3086.94	0.004008
3096.58	0.002178
3106.23	0.0013166
3115.88	0.00099253
3125.52	0.000762
3135.17	0.000713
3144.82	0.000658
3154.46	0.00059
3164.11	0.000692
3173.76	0.000506
3183.4	0.000482
3193.05	0.000637
3202.7	0.00062
3212.34	0.000429
3221.99	0.000536
3231.64	0.000371
3241.28	0.000327
3250.93	0.000424
3260.58	0.000334
3270.22	0.000326
3279.87	0.000294
3289.52	0.000162
3299.16	0.000277
3308.81	7.5e-05
3318.45	0.000113
3328.1	0.000272
3337.75	0.000231
3347.39	0.000296
3357.04	0.000188
3366.69	0.000137
3376.33	0.000104
3385.98	0
3395.63	5.9e-05
3405.27	0.000263
3414.92	0.000158
3424.57	0.000275
3434.21	0.000306
3443.86	0.000156
3453.51	0.000234
3463.15	0.000333
3472.8	0.000143
3482.45	0.000237
3492.09	0.00027
3501.74	0.000322
3511.39	0.000252
3521.03	0.000534
3530.68	0.000305
3540.33	0.000246
3549.97	0.000329
3559.62	0.000383
3569.26	0.00042
3578.91	0.00052
3588.56	0.000796
3598.2	0.0010482
3607.85	0.0013357
3617.5	0.002028
3627.14	0.003288
3636.79	0.003568
3646.44	0.002638
3656.08	0.002068
3665.73	0.002138
3675.38	0.001912
3685.02	0.0013036
3694.67	0.0008869
3704.32	0.000801
3713.96	0.000675
3723.61	0.000652
3733.26	0.000765
3742.9	0.000624
3752.55	0.000583
3762.2	0.000617
3771.84	0.000603
3781.49	0.00066
3791.13	0.000626
3800.78	0.000775
3810.43	0.000585
3820.07	0.000499
3829.72	0.000552
3839.37	0.000592
3849.01	0.000647
3858.66	0.000613
3868.31	0.000751
3877.95	0.000737
3887.6	0.000668
3897.25	0.000765
3906.89	0.00085
3916.54	0.000695
3926.19	0.000767
3935.83	0.000783
3945.48	0.000778
3955.13	0.000774
3964.77	0.000794
3974.42	0.0008623
3984.07	0.0008525
3993.71	0.0008903
