Infrared Spectrum: 4-(Trifluoromethyl)phenyl isocyanate
Formula: C 8 H 4 F 3 N O
CAS: 1548-13-6
State: gas
Origin: EPA-IR VAPOR PHASE LIBRARY
1/CM	ABSORBANCE
549.8	0.013554
559.445	0.013304
569.09	0.014814
578.734	0.013114
588.379	0.012804
598.024	0.011144
607.669	0.007064
617.313	0.004954
626.958	0.004634
636.603	0.009314
646.248	0.018164
655.893	0.010984
665.537	0.005074
675.182	0.006144
684.827	0.008624
694.472	0.017894
704.116	0.022404
713.761	0.010724
723.406	0.004094
733.051	0.007524
742.695	0.021504
752.34	0.064264
761.985	0.086324
771.63	0.037274
781.275	0.016314
790.919	0.005014
800.564	0.003614
810.209	0.002714
819.854	0.001684
829.498	0.0009126
839.143	0.0010538
848.788	0.0008944
858.433	0.0008087
868.078	0.001824
877.722	0.001794
887.367	0.0013853
897.012	0.002574
906.657	0.005634
916.301	0.009104
925.946	0.012014
935.591	0.020064
945.236	0.036244
954.88	0.033884
964.525	0.017184
974.17	0.008864
983.815	0.005894
993.46	0.004464
1003.1	0.004314
1012.75	0.006604
1022.39	0.018864
1032.04	0.045734
1041.68	0.045134
1051.33	0.037854
1060.97	0.074764
1070.62	0.051814
1080.26	0.014994
1089.91	0.011834
1099.55	0.013784
1109.2	0.031264
1118.84	0.074994
1128.49	0.065104
1138.13	0.086884
1147.78	0.192224
1157.42	0.277014
1167.07	0.221344
1176.71	0.244084
1186.36	0.148884
1196	0.047834
1205.64	0.023874
1215.29	0.015334
1224.93	0.011604
1234.58	0.011674
1244.22	0.018984
1253.87	0.043334
1263.51	0.054044
1273.16	0.038264
1282.8	0.031524
1292.45	0.039104
1302.09	0.075774
1311.74	0.214054
1321.38	0.280164
1331.03	0.098044
1340.67	0.022364
1350.32	0.013084
1359.96	0.008994
1369.61	0.006324
1379.25	0.004904
1388.9	0.003764
1398.54	0.003094
1408.18	0.003324
1417.83	0.004634
1427.47	0.007354
1437.12	0.016034
1446.76	0.036194
1456.41	0.053064
1466.05	0.028054
1475.7	0.023304
1485.34	0.048564
1494.99	0.064584
1504.63	0.037904
1514.28	0.011924
1523.92	0.005624
1533.57	0.004174
1543.21	0.005194
1552.86	0.007564
1562.5	0.015204
1572.15	0.034634
1581.79	0.056944
1591.44	0.062274
1601.08	0.066914
1610.73	0.047444
1620.37	0.022434
1630.01	0.012334
1639.66	0.006284
1649.3	0.003754
1658.95	0.002944
1668.59	0.002354
1678.24	0.002244
1687.88	0.002384
1697.53	0.002884
1707.17	0.003814
1716.82	0.003694
1726.46	0.004004
1736.11	0.004554
1745.75	0.004124
1755.4	0.003724
1765.04	0.003624
1774.69	0.003494
1784.33	0.003634
1793.98	0.004024
1803.62	0.005184
1813.27	0.006514
1822.91	0.005884
1832.55	0.005284
1842.2	0.006304
1851.84	0.006994
1861.49	0.007554
1871.13	0.008634
1880.78	0.010194
1890.42	0.012594
1900.07	0.014574
1909.71	0.015584
1919.36	0.019394
1929	0.025174
1938.65	0.031424
1948.29	0.042574
1957.94	0.057954
1967.58	0.074464
1977.23	0.096794
1986.87	0.128524
1996.52	0.171764
2006.16	0.223274
2015.81	0.274854
2025.45	0.340124
2035.1	0.439894
2044.74	0.519744
2054.38	0.466514
2064.03	0.398424
2073.67	0.425984
2083.32	0.499734
2092.96	0.464474
2102.61	0.321614
2112.25	0.203304
2121.9	0.148264
2131.54	0.132754
2141.19	0.126594
2150.83	0.112864
2160.48	0.083604
2170.12	0.056454
2179.77	0.040884
2189.41	0.034094
2199.06	0.032634
2208.7	0.030914
2218.35	0.025164
2227.99	0.018854
2237.64	0.014444
2247.28	0.010664
2256.92	0.007814
2266.57	0.006324
2276.21	0.005734
2285.86	0.005144
2295.5	0.004654
2305.15	0.004574
2314.79	0.004584
2324.44	0.004674
2334.08	0.004714
2343.73	0.004394
2353.37	0.004154
2363.02	0.003994
2372.66	0.003834
2382.31	0.003984
2391.95	0.003914
2401.6	0.003964
2411.24	0.003524
2420.89	0.003194
2430.53	0.003144
2440.18	0.003224
2449.82	0.003234
2459.47	0.003344
2469.11	0.003734
2478.75	0.004224
2488.4	0.004974
2498.04	0.005784
2507.69	0.006604
2517.33	0.007004
2526.98	0.006834
2536.62	0.006394
2546.27	0.006414
2555.91	0.006954
2565.56	0.007574
2575.2	0.008244
2584.85	0.008864
2594.49	0.008184
2604.14	0.006074
2613.78	0.004204
2623.43	0.003184
2633.07	0.002564
2642.72	0.002204
2652.36	0.001854
2662.01	0.001764
2671.65	0.001694
2681.29	0.001734
2690.94	0.001924
2700.58	0.002004
2710.23	0.002434
2719.87	0.002864
2729.52	0.003634
2739.16	0.004434
2748.81	0.005464
2758.45	0.005774
2768.1	0.005064
2777.74	0.004444
2787.39	0.003824
2797.03	0.003304
2806.68	0.002444
2816.32	0.002174
2825.97	0.001774
2835.61	0.0015072
2845.26	0.0014532
2854.9	0.0015487
2864.55	0.0012463
2874.19	0.0011457
2883.84	0.0010997
2893.48	0.0012271
2903.12	0.0014578
2912.77	0.0015421
2922.41	0.001604
2932.06	0.001462
2941.7	0.0014026
2951.35	0.0014346
2960.99	0.001764
2970.64	0.001874
2980.28	0.002134
2989.93	0.002484
2999.57	0.002554
3009.22	0.003084
3018.86	0.003204
3028.51	0.003484
3038.15	0.004034
3047.8	0.004814
3057.44	0.004744
3067.09	0.006474
3076.73	0.009994
3086.38	0.012654
3096.02	0.007734
3105.67	0.002584
3115.31	0.001684
3124.95	0.0011425
3134.6	0.0009993
3144.24	0.00066711
3153.89	0.0008515
3163.53	0.00066584
3173.18	0.0005876
3182.82	0.0005505
3192.47	0.000441
3202.11	0.000298
3211.76	0.000208
3221.4	0.00018
3231.05	7e-05
3240.69	0.000233
3250.34	0.000197
3259.98	0.000107
3269.63	0.000148
3279.27	0.000219
3288.92	0.000219
3298.56	0.000211
3308.21	0.000153
3317.85	0.000233
3327.49	0.000211
3337.14	0.000336
3346.78	0.000145
3356.43	0.000188
3366.07	0.000235
3375.72	0.000104
3385.36	0.00038
3395.01	0.000384
3404.65	4e-05
3414.3	0.000278
3423.94	0.000392
3433.59	0.000268
3443.23	0.000126
3452.88	0.000346
3462.52	0.000338
3472.17	0.00057917
3481.81	0.000313
3491.46	0.000471
3501.1	0.000203
3510.75	0.000355
3520.39	0.000339
3530.04	0.00039
3539.68	0.0005522
3549.32	0.000163
3558.97	0.000293
3568.61	0.000273
3578.26	0.00058786
3587.9	0.000337
3597.55	0.000286
3607.19	0.000247
3616.84	0.000355
3626.48	0.000308
3636.13	0.000382
3645.77	0.000349
3655.42	0.000209
3665.06	0.000458
3674.71	0.000369
3684.35	0.000552
3694	0.000474
3703.64	0.0005046
3713.29	0.0005315
3722.93	0.000445
3732.58	0.000365
3742.22	0.00060308
3751.86	0.00066532
3761.51	0.0007068
3771.15	0.00065704
3780.8	0.00056416
3790.44	0.000544
3800.09	0.000583714
3809.73	0.0005141
3819.38	0.00063512
3829.02	0.0005537
3838.67	0.00064809
3848.31	0.000753
3857.96	0.00064169
3867.6	0.0008328
3877.25	0.0007635
3886.89	0.00059371
3896.54	0.0007616
3906.18	0.000707
3915.83	0.0007958
3925.47	0.0011579
3935.12	0.0011282
3944.76	0.0010845
3954.41	0.001353
3964.05	0.0014764
3973.69	0.001744
3983.34	0.001684
3992.98	0.001844
