Infrared Spectrum: p-Acetoxycinnamic acid
Formula: C 11 H 10 O 4
CAS: 15486-19-8
State: gas
Instrument: HP-GC/MS/IRD
Origin: NIST Mass Spectrometry Data Center
1/CM	ABSORBANCE
550	0.0017589
562	0.0030996
574	0.0026773
586	0.0017835
598	0.0014022
610	0.003649
622	0.005781
634	0.0012054
646	0.0002993
658	0.0002214
670	0.0002009
682	0.0001558
694	0.0001271
706	9.02e-05
718	0
730	0.0001599
742	0.0001558
754	0.0001107
766	0.0001107
778	0.0001353
790	0.0001968
802	0.0003403
814	0.0008733
826	0.001804
838	0.0020131
850	0.0017015
862	0.0013202
874	0.001107
886	0.0014391
898	0.0028618
910	0.0033374
922	0.0013448
934	0.0012177
946	0.0014883
958	0.000984
970	0.0018081
982	0.002624
994	0.0023698
1006	0.0033538
1018	0.0031529
1030	0.0011152
1042	0.0009266
1054	0.0011029
1066	0.0017302
1078	0.0025953
1090	0.0038745
1102	0.0083271
1114	0.0203729
1126	0.0124763
1138	0.0080237
1150	0.0134275
1162	0.0150183
1174	0.0128822
1186	0.0221523
1198	0.041
1210	0.0240137
1222	0.0103033
1234	0.0048462
1246	0.0032103
1258	0.002993
1270	0.0026937
1282	0.0024149
1294	0.0021689
1306	0.0020992
1318	0.0018327
1330	0.0016113
1342	0.0025092
1354	0.0050471
1366	0.0061541
1378	0.0050307
1390	0.0016072
1402	0.0011808
1414	0.0017302
1426	0.0011398
1438	0.0007462
1450	0.0006396
1462	0.0004879
1474	0.0005371
1486	0.001025
1498	0.0044444
1510	0.0065723
1522	0.0015457
1534	0.0007298
1546	0.0004469
1558	0.0004838
1570	0.0007544
1582	0.0012915
1594	0.002009
1606	0.0028167
1618	0.0016646
1630	0.0031447
1642	0.0061828
1654	0.0022919
1666	0.0009225
1678	0.0007503
1690	0.0008774
1702	0.0011931
1714	0.0019967
1726	0.0033907
1738	0.0078884
1750	0.0187329
1762	0.017876
1774	0.0109921
1786	0.0107092
1798	0.0083763
1810	0.0041861
1822	0.0019598
1834	0.0010455
1846	0.0006478
1858	0.0004305
1870	0.0003239
1882	0.0003813
1894	0.0003731
1906	0.0002173
1918	0.0001312
1930	0.0001517
1942	0.0001927
1954	0.0002009
1966	0.0001804
1978	0.0001968
1990	0.0001763
2002	0.0001353
2014	0.0001148
2026	0.0001312
2038	0.0001394
2050	0.0001845
2062	0.0001558
2074	0.0001066
2086	0.0001148
2098	0.0001107
2110	7.79e-05
2122	4.1e-05
2134	2.87e-05
2146	1.23e-05
2158	1.64e-05
2170	2.05e-05
2182	8.2e-06
2194	1.23e-05
2206	4.51e-05
2218	4.51e-05
2230	2.05e-05
2242	2.05e-05
2254	4.1e-06
2266	4.51e-05
2278	4.92e-05
2290	4.51e-05
2302	5.74e-05
2314	2.46e-05
2326	2.46e-05
2338	3.69e-05
2350	4.51e-05
2362	7.79e-05
2374	9.84e-05
2386	6.97e-05
2398	9.02e-05
2410	8.61e-05
2422	7.79e-05
2434	4.92e-05
2446	5.74e-05
2458	5.33e-05
2470	5.33e-05
2482	4.51e-05
2494	7.38e-05
2506	3.69e-05
2518	4.1e-05
2530	5.33e-05
2542	3.28e-05
2554	3.28e-05
2566	4.92e-05
2578	9.84e-05
2590	6.56e-05
2602	5.33e-05
2614	2.05e-05
2626	0
2638	4.1e-06
2650	2.46e-05
2662	1.23e-05
2674	8.2e-06
2686	5.33e-05
2698	4.51e-05
2710	4.51e-05
2722	4.51e-05
2734	1.64e-05
2746	3.28e-05
2758	5.33e-05
2770	5.33e-05
2782	6.56e-05
2794	5.74e-05
2806	2.87e-05
2818	4.92e-05
2830	4.1e-05
2842	3.69e-05
2854	6.56e-05
2866	0.0001025
2878	9.84e-05
2890	8.61e-05
2902	0.0001025
2914	9.02e-05
2926	9.84e-05
2938	0.0001107
2950	0.0002337
2962	0.0001845
2974	0.0001722
2986	0.0001804
2998	0.0002542
3010	0.0002706
3022	0.000328
3034	0.000615
3046	0.0008856
3058	0.0006724
3070	0.0005904
3082	0.000492
3094	0.0004264
3106	0.0003321
3118	0.0002419
3130	0.0001353
3142	4.51e-05
3154	6.97e-05
3166	5.33e-05
3178	6.15e-05
3190	5.33e-05
3202	6.97e-05
3214	6.97e-05
3226	9.02e-05
3238	7.79e-05
3250	7.79e-05
3262	1.23e-05
3274	6.56e-05
3286	5.33e-05
3298	0
3310	6.15e-05
3322	4.92e-05
3334	8.61e-05
3346	6.56e-05
3358	7.79e-05
3370	6.15e-05
3382	0.0001066
3394	7.38e-05
3406	7.38e-05
3418	6.56e-05
3430	0.0001189
3442	0.0001107
3454	0.0001476
3466	0.0001599
3478	0.0001927
3490	0.0002378
3502	0.000246
3514	0.0002337
3526	0.0002542
3538	0.0002829
3550	0.0003649
3562	0.0005904
3574	0.0028782
3586	0.0079048
3598	0.0010906
3610	0.000287
3622	0.0001845
3634	0.0002091
3646	0.0001886
3658	0.0001804
3670	0.0001435
3682	0.0001599
3694	0.0001353
3706	7.38e-05
3718	9.43e-05
3730	9.02e-05
3742	4.1e-05
3754	3.28e-05
3766	9.43e-05
3778	9.02e-05
3790	6.56e-05
3802	8.61e-05
3814	9.43e-05
3826	0.0001107
3838	8.61e-05
