Infrared Spectrum: p-Dimethylaminobenylidine p-phenetidine
Formula: C 17 H 20 N 2 O
CAS: 15484-93-2
State: gas
Origin: EPA-IR VAPOR PHASE LIBRARY
1/CM	ABSORBANCE
549.8	0.00492
559.445	0.00308
569.09	0.00239
578.734	0.00152
588.379	0.0010294
598.024	0.0011276
607.669	0.0009021
617.313	0.0005701
626.958	0.0007317
636.603	0.0008451
646.248	0.0005863
655.893	0.0004183
665.537	0.0006255
675.182	0.0005049
684.827	0.0005798
694.472	0.0007519
704.116	0.0010333
713.761	0.00132
723.406	0.0018
733.051	0.00137
742.695	0.00139
752.34	0.00224
761.985	0.00304
771.63	0.00364
781.275	0.00357
790.919	0.00351
800.564	0.00498
810.209	0.00762
819.854	0.01214
829.498	0.01357
839.143	0.01041
848.788	0.00573
858.433	0.00375
868.078	0.00366
877.722	0.00527
887.367	0.0071
897.012	0.0048
906.657	0.00429
916.301	0.00457
925.946	0.00469
935.591	0.00589
945.236	0.01238
954.88	0.00491
964.525	0.00309
974.17	0.00278
983.815	0.00219
993.46	0.00237
1003.1	0.00374
1012.75	0.00416
1022.39	0.00571
1032.04	0.00979
1041.68	0.01465
1051.33	0.01352
1060.97	0.00976
1070.62	0.00714
1080.26	0.0063
1089.91	0.0087
1099.55	0.01024
1109.2	0.00988
1118.84	0.01046
1128.49	0.01018
1138.13	0.01238
1147.78	0.01927
1157.42	0.03649
1167.07	0.05221
1176.71	0.0509
1186.36	0.01522
1196	0.0134
1205.64	0.01474
1215.29	0.02271
1224.93	0.04563
1234.58	0.06138
1244.22	0.04064
1253.87	0.02033
1263.51	0.01423
1273.16	0.01423
1282.8	0.01395
1292.45	0.01311
1302.09	0.01465
1311.74	0.01337
1321.38	0.01217
1331.03	0.01381
1340.67	0.02306
1350.32	0.0354
1359.96	0.02618
1369.61	0.01448
1379.25	0.00996
1388.9	0.00997
1398.54	0.00949
1408.18	0.00798
1417.83	0.00854
1427.47	0.00998
1437.12	0.00856
1446.76	0.01017
1456.41	0.00877
1466.05	0.01033
1475.7	0.01634
1485.34	0.02197
1494.99	0.03817
1504.63	0.06045
1514.28	0.04726
1523.92	0.04973
1533.57	0.02385
1543.21	0.01409
1552.86	0.01462
1562.5	0.0204
1572.15	0.01276
1581.79	0.01584
1591.44	0.03062
1601.08	0.06015
1610.73	0.07282
1620.37	0.03454
1630.01	0.03418
1639.66	0.01498
1649.3	0.00802
1658.95	0.00533
1668.59	0.00397
1678.24	0.00304
1687.88	0.00253
1697.53	0.00226
1707.17	0.00194
1716.82	0.00191
1726.46	0.00186
1736.11	0.00188
1745.75	0.0018
1755.4	0.00172
1765.04	0.00145
1774.69	0.00139
1784.33	0.00128
1793.98	0.0011759
1803.62	0.0011149
1813.27	0.0010515
1822.91	0.0011516
1832.55	0.0011449
1842.2	0.0012336
1851.84	0.00145
1861.49	0.0016
1871.13	0.00173
1880.78	0.00177
1890.42	0.00163
1900.07	0.0014
1909.71	0.001231
1919.36	0.00141
1929	0.00149
1938.65	0.00158
1948.29	0.0014
1957.94	0.0012256
1967.58	0.0010569
1977.23	0.0010608
1986.87	0.0010203
1996.52	0.0010409
2006.16	0.0011832
2015.81	0.0012357
2025.45	0.0010812
2035.1	0.0011337
2044.74	0.0011753
2054.38	0.00132
2064.03	0.00138
2073.67	0.0011842
2083.32	0.0010158
2092.96	0.0008373
2102.61	0.0008147
2112.25	0.0007622
2121.9	0.0007304
2131.54	0.0006523
2141.19	0.0006156
2150.83	0.000505
2160.48	0.0006402
2170.12	0.0005549
2179.77	0.0005368
2189.41	0.0005269
2199.06	0.0004783
2208.7	0.0005165
2218.35	0.0005218
2227.99	0.0006253
2237.64	0.0006434
2247.28	0.0006642
2256.92	0.0005908
2266.57	0.000593
2276.21	0.0006399
2285.86	0.0005522
2295.5	0.0006129
2305.15	0.0006827
2314.79	0.0007076
2324.44	0.0007716
2334.08	0.0007917
2343.73	0.0008611
2353.37	0.0008524
2363.02	0.0008639
2372.66	0.0008267
2382.31	0.0007588
2391.95	0.0008749
2401.6	0.0007897
2411.24	0.0007278
2420.89	0.0008259
2430.53	0.0008428
2440.18	0.0009302
2449.82	0.0010304
2459.47	0.001047
2469.11	0.0010136
2478.75	0.0011334
2488.4	0.0011393
2498.04	0.0011721
2507.69	0.0013
2517.33	0.00127
2526.98	0.00127
2536.62	0.0011034
2546.27	0.0010727
2555.91	0.0010106
2565.56	0.001049
2575.2	0.0010172
2584.85	0.0011244
2594.49	0.00125
2604.14	0.00125
2613.78	0.0011845
2623.43	0.0010985
2633.07	0.0009277
2642.72	0.0008894
2652.36	0.0008825
2662.01	0.0010603
2671.65	0.0010887
2681.29	0.0011169
2690.94	0.00125
2700.58	0.00139
2710.23	0.00134
2719.87	0.00158
2729.52	0.0016
2739.16	0.00175
2748.81	0.00201
2758.45	0.00252
2768.1	0.00323
2777.74	0.00433
2787.39	0.00567
2797.03	0.00804
2806.68	0.01019
2816.32	0.00946
2825.97	0.00844
2835.61	0.00947
2845.26	0.0117
2854.9	0.01365
2864.55	0.01381
2874.19	0.01395
2883.84	0.01418
2893.48	0.01342
2903.12	0.01326
2912.77	0.01292
2922.41	0.01248
2932.06	0.01332
2941.7	0.01595
2951.35	0.01407
2960.99	0.013
2970.64	0.01296
2980.28	0.01462
2989.93	0.01454
2999.57	0.01094
3009.22	0.00788
3018.86	0.0063
3028.51	0.00665
3038.15	0.00834
3047.8	0.00585
3057.44	0.00433
3067.09	0.00501
3076.73	0.0057
3086.38	0.00602
3096.02	0.00509
3105.67	0.00381
3115.31	0.00266
3124.95	0.00175
3134.6	0.0011785
3144.24	0.0008305
3153.89	0.0007459
3163.53	0.0007178
3173.18	0.0005967
3182.82	0.0006492
3192.47	0.0005894
3202.11	0.000874
3211.76	0.0009085
3221.4	0.0008254
3231.05	0.0006928
3240.69	0.0006762
3250.34	0.0006448
3259.98	0.000429
3269.63	0.0003888
3279.27	0.0003997
3288.92	0.0002932
3298.56	0.0002042
3308.21	0.0002242
3317.85	0.00026093
3327.49	0.0001711
3337.14	0.00031547
3346.78	0.00023846
3356.43	0.0001973
3366.07	7.2e-05
3375.72	0.0001667
3385.36	0.0001561
3395.01	0.0002053
3404.65	0.0003228
3414.3	0.00014
3423.94	0.0002143
3433.59	0.000106
3443.23	0.000136
3452.88	0.0003465
3462.52	0.0001531
3472.17	0.00023637
3481.81	0.00011
3491.46	0.0002228
3501.1	0.00029911
3510.75	0.000122
3520.39	0.0002222
3530.04	0.0001497
3539.68	0.00026662
3549.32	8.3e-05
3558.97	0.000202
3568.61	5.8e-05
3578.26	0.0001645
3587.9	0.000136
3597.55	0.00025692
3607.19	0.0001826
3616.84	0.00023186
3626.48	0.0001551
3636.13	0.0001665
3645.77	0.0001971
3655.42	0.0002645
3665.06	0.0001827
3674.71	0.0003793
3684.35	0.0003564
3694	0.00023264
3703.64	0.0003993
3713.29	0.00023453
3722.93	0.0003286
3732.58	0.000224
3742.22	0.0004219
3751.86	0.00030805
3761.51	0.0001998
3771.15	0.000239557
3780.8	0.00032195
3790.44	0.00027568
3800.09	0.0001501
3809.73	0.00026433
3819.38	0.0001857
3829.02	0.0002215
3838.67	0.00026784
3848.31	0.0001854
3857.96	0.000164
3867.6	0.0002149
3877.25	0.00025573
3886.89	0.000132
3896.54	0.00025285
3906.18	0.0003494
3915.83	0.00025404
3925.47	0.00033705
3935.12	0.00026677
3944.76	0.00018
3954.41	6e-05
3964.05	0.00032456
3973.69	0.000121
3983.34	0.00031192
3992.98	0.0002251
