Infrared Spectrum: 4-Amino-2,3,5,6-tetrafluorobenzamide
Formula: C7 H4 F4 N2 O
CAS: 1548-74-9
State: SOLID (SPLIT MULL), FLUOROLUBE FOR 3800-1330 CM^-^1, NUJOL FOR 1330-400 CM^-^1
Class: COBLENTZ III
Instrument: DOW KBr FOREPRISM-GRATING
Instrument parameters: BLAZED AT 3.5, 12.0, 20.0 MICRON AND CHANGED AT 5.0, 7.5, 14.9 MICRON
Sampling: TRANSMISSION
Resolution: 2
Origin: DOW CHEMICAL COMPANY
1/CM	TRANSMITTANCE
3810	0.6724
3801	0.6736
3792	0.6751
3783	0.6765
3774	0.6783
3765	0.6799
3756	0.6815
3747	0.6833
3738	0.6855
3729	0.6881
3720	0.6907
3711	0.6934
3702	0.696
3693	0.6987
3684	0.7015
3675	0.7043
3666	0.7065
3657	0.7084
3648	0.7103
3639	0.7125
3630	0.7147
3621	0.7165
3612	0.7225
3603	0.7226
3594	0.7201
3585	0.7221
3576	0.726
3567	0.7258
3558	0.7232
3549	0.7189
3540	0.715
3531	0.7114
3522	0.7092
3513	0.6876
3504	0.4707
3495	0.3047
3486	0.43
3477	0.5551
3468	0.621
3459	0.6354
3450	0.6296
3441	0.5801
3432	0.4926
3423	0.3396
3414	0.2164
3405	0.1869
3396	0.1994
3387	0.2232
3378	0.2279
3369	0.194
3360	0.1567
3351	0.1542
3342	0.1998
3333	0.2609
3324	0.3058
3315	0.3355
3306	0.3573
3297	0.3736
3288	0.3906
3279	0.404
3270	0.4109
3261	0.4077
3252	0.3839
3243	0.345
3234	0.3082
3225	0.2771
3216	0.2681
3207	0.3015
3198	0.3347
3189	0.3927
3180	0.4303
3171	0.4603
3162	0.4835
3153	0.5031
3144	0.5206
3135	0.5372
3126	0.5506
3117	0.5638
3108	0.5748
3099	0.585
3090	0.5954
3081	0.6036
3072	0.611
3063	0.6179
3054	0.6236
3045	0.6291
3036	0.6348
3027	0.6403
3018	0.6458
3009	0.6512
3000	0.6557
2991	0.6599
2982	0.6641
2973	0.668
2964	0.6715
2955	0.6751
2946	0.6784
2937	0.6811
2928	0.684
2919	0.6867
2910	0.6893
2901	0.6919
2892	0.6942
2883	0.696
2874	0.6976
2865	0.6987
2856	0.6997
2847	0.7007
2838	0.7006
2829	0.7004
2820	0.6998
2811	0.6987
2802	0.6974
2793	0.6955
2784	0.6887
2775	0.6875
2766	0.6918
2757	0.6974
2748	0.7037
2739	0.7097
2730	0.7137
2721	0.7175
2712	0.721
2703	0.7241
2694	0.7268
2685	0.729
2676	0.7295
2667	0.7153
2658	0.7087
2649	0.7146
2640	0.7211
2631	0.7257
2622	0.7303
2613	0.7336
2604	0.7368
2595	0.7399
2586	0.7411
2577	0.7422
2568	0.7434
2559	0.7438
2550	0.7441
2541	0.7443
2532	0.7443
2523	0.7442
2514	0.7442
2505	0.7446
2496	0.7453
2487	0.746
2478	0.7469
2469	0.7481
2460	0.7492
2451	0.7504
2442	0.7517
2433	0.7528
2424	0.7542
2415	0.7554
2406	0.7558
2397	0.7561
2388	0.7565
2379	0.7568
2370	0.7572
2361	0.7572
2352	0.7572
2343	0.7572
2334	0.7574
2325	0.7575
2316	0.758
2307	0.7582
2298	0.758
2289	0.7578
2280	0.7575
2271	0.7578
2262	0.7596
2253	0.7633
2244	0.7669
2235	0.771
2226	0.7751
2217	0.7786
2208	0.7818
2199	0.7851
2190	0.7882
2181	0.7908
2172	0.7934
2163	0.7957
2154	0.7978
2145	0.7975
2136	0.796
2127	0.7962
2118	0.7971
2109	0.7994
2100	0.8022
2091	0.8051
2082	0.8076
2073	0.8103
2064	0.8128
2055	0.8151
2046	0.8172
2037	0.8192
2028	0.8213
2019	0.8238
2010	0.8285
2001	0.8348
1992	0.8361
1983	0.8436
1974	0.8499
1965	0.8533
1956	0.8527
1947	0.8521
1938	0.8554
1929	0.8571
1920	0.8582
1911	0.8588
1902	0.8592
1893	0.8598
1884	0.8614
1875	0.8635
1866	0.8645
1857	0.8634
1848	0.8633
1839	0.8635
1830	0.8642
1821	0.861
1812	0.8518
1803	0.8584
1794	0.865
1785	0.8648
1776	0.8607
1767	0.8543
1758	0.8594
1749	0.8694
1740	0.8753
1731	0.8688
1722	0.8564
1713	0.8411
1704	0.8034
1695	0.7344
1686	0.6518
1677	0.5062
1668	0.0915
1659	0.0938
1650	0.0394
1641	0.0459
1632	0.1574
1623	0.205
1614	0.1366
1605	0.2394
1596	0.3814
1587	0.3196
1578	0.482
1569	0.6118
1560	0.6675
1551	0.6842
1542	0.6825
1533	0.3196
1524	0.577
1515	0.6682
1506	0.658
1497	0.0961
1488	0.2716
1479	0.4591
1470	0.6066
1461	0.6326
1452	0.6014
1443	0.5065
1434	0.2701
1425	0.1176
1416	0.1779
1407	0.2985
1398	0.4191
1389	0.402
1380	0.3898
1371	0.4586
1362	0.5166
1353	0.5594
1344	0.5859
1335	0.596
1326	0.5784
1317	0.6115
1308	0.6278
1299	0.6352
1290	0.6298
1281	0.5965
1272	0.6403
1263	0.6534
1254	0.6634
1245	0.6744
1236	0.6848
1227	0.6948
1218	0.7001
1209	0.7018
1200	0.7017
1191	0.7025
1182	0.6761
1173	0.5075
1164	0.5503
1155	0.6343
1146	0.6376
1137	0.3995
1128	0.5301
1119	0.398
1110	0.4812
1101	0.5912
1092	0.6055
1083	0.6817
1074	0.7301
1065	0.7471
1056	0.754
1047	0.7551
1038	0.7553
1029	0.7555
1020	0.7561
1011	0.7568
1002	0.755
993	0.7414
984	0.744
975	0.7128
966	0.686
957	0.6401
948	0.2269
939	0.3257
930	0.5876
921	0.7061
912	0.6012
903	0.7347
894	0.7561
885	0.7626
876	0.7658
867	0.7668
858	0.7669
849	0.7676
840	0.7671
831	0.7643
822	0.7598
813	0.7405
804	0.604
795	0.6825
786	0.7355
777	0.7384
768	0.7351
759	0.6508
750	0.7206
741	0.7157
732	0.6908
723	0.6768
714	0.689
705	0.6838
696	0.641
687	0.5749
678	0.4569
669	0.4187
660	0.525
651	0.5899
642	0.5293
633	0.6323
624	0.6899
615	0.7271
606	0.7384
597	0.7458
588	0.7725
579	0.7793
570	0.781
561	0.7751
552	0.7685
543	0.7638
534	0.7611
525	0.7597
516	0.7608
507	0.7668
498	0.7511
489	0.749
480	0.7548
471	0.7498
462	0.7305
453	0.6426
444	0.6186
435	0.6424
426	0.6531
417	0.6501
408	0.6475
399	0.6457
390	0.6462
