Infrared Spectrum: 2',4'-Dinitro-5'-fluoroacetanilide
Formula: C8 H6 F N3 O5
CAS: 1548-18-1
State: SOLID (SPLIT MULL), FLUOROLUBE FOR 3800-1330 CM^-^1, NUJOL FOR 1330-400 CM^-^1
Class: COBLENTZ III
Instrument: BECKMAN IR-9 (GRATING)
Instrument parameters: ORDER CHANGES: 670, 1200, 2000 CM^-^1
Sampling: TRANSMISSION
Resolution: 2
Origin: DOW CHEMICAL COMPANY
1/CM	TRANSMITTANCE
399	0.5336
408	0.553
417	0.5792
426	0.6334
435	0.6967
444	0.7358
453	0.7456
462	0.7614
471	0.8064
480	0.8183
489	0.8285
498	0.8361
507	0.8118
516	0.6262
525	0.7995
534	0.8603
543	0.8824
552	0.8873
561	0.8853
570	0.8712
579	0.7765
588	0.6248
597	0.7797
606	0.8683
615	0.8699
624	0.8681
633	0.8618
642	0.8439
651	0.8295
660	0.813
669	0.756
678	0.481
687	0.6485
696	0.525
705	0.3991
714	0.38
723	0.536
732	0.6869
741	0.5829
750	0.6645
759	0.7754
768	0.7982
777	0.7872
786	0.819
795	0.8218
804	0.824
813	0.8224
822	0.8125
831	0.7547
840	0.2254
849	0.8314
858	0.8278
867	0.8189
876	0.7738
885	0.6811
894	0.7493
903	0.4123
912	0.7735
921	0.7067
930	0.6911
939	0.7568
948	0.7334
957	0.7601
966	0.7543
975	0.7405
984	0.7026
993	0.4864
1002	0.6734
1011	0.7222
1020	0.7078
1029	0.6539
1038	0.5819
1047	0.5784
1056	0.2595
1065	0.6366
1074	0.6836
1083	0.6975
1092	0.6961
1101	0.6869
1110	0.6711
1119	0.6099
1128	0.504
1137	0.5971
1146	0.6183
1155	0.6323
1164	0.5833
1173	0.4425
1182	0.4439
1191	0.519
1200	0.3721
1209	0.1691
1218	0.0968
1227	0.2516
1236	0.5464
1245	0.6539
1254	0.6381
1263	0.5867
1272	0.4176
1281	0.1949
1290	0.3321
1299	0.0652
1308	0.1412
1317	0.2501
1326	0.192
1335	0.096
1344	0.1984
1353	0.1319
1362	0.3634
1371	0.4205
1380	0.4503
1389	0.4729
1398	0.5118
1407	0.5201
1416	0.4103
1425	0.2865
1434	0.3664
1443	0.3782
1452	0.4769
1461	0.6668
1470	0.6841
1479	0.632
1488	0.5003
1497	0.3586
1506	0.0661
1515	0.3658
1524	0.5229
1533	0.6518
1542	0.6765
1551	0.525
1560	0.5847
1569	0.6214
1578	0.4939
1587	0.1771
1596	0.0475
1605	0.2763
1614	0.4695
1623	0.463
1632	0.2597
1641	0.5324
1650	0.7557
1659	0.8444
1668	0.8535
1677	0.8514
1686	0.8464
1695	0.8347
1704	0.6296
1713	0.2428
1722	0.4882
1731	0.6743
1740	0.82
1749	0.8782
1758	0.8935
1767	0.8928
1776	0.8927
1785	0.8934
1794	0.8883
1803	0.8875
1812	0.8861
1821	0.8716
1830	0.8655
1839	0.8768
1848	0.8756
1857	0.8742
1866	0.8756
1875	0.8743
1884	0.8717
1893	0.8684
1902	0.8656
1911	0.8662
1920	0.869
1929	0.8688
1938	0.8651
1947	0.8571
1956	0.8585
1965	0.8618
1974	0.8618
1983	0.8609
1992	0.8583
2001	0.8553
2010	0.8533
2019	0.8508
2028	0.8478
2037	0.8446
2046	0.8408
2055	0.837
2064	0.8359
2073	0.834
2082	0.8321
2091	0.8299
2100	0.8262
2109	0.822
2118	0.8183
2127	0.8151
2136	0.8121
2145	0.8096
2154	0.8078
2163	0.8054
2172	0.8028
2181	0.8001
2190	0.7985
2199	0.7968
2208	0.7945
2217	0.7917
2226	0.7883
2235	0.7841
2244	0.7799
2253	0.7757
2262	0.7717
2271	0.7682
2280	0.7646
2289	0.7611
2298	0.7575
2307	0.7545
2316	0.7515
2325	0.7487
2334	0.7458
2343	0.7439
2352	0.7421
2361	0.7405
2370	0.7392
2379	0.7384
2388	0.7376
2397	0.7371
2406	0.7365
2415	0.7361
2424	0.736
2433	0.7357
2442	0.7334
2451	0.7305
2460	0.7271
2469	0.7265
2478	0.7265
2487	0.7269
2496	0.7274
2505	0.7274
2514	0.7272
2523	0.7269
2532	0.7264
2541	0.7254
2550	0.7241
2559	0.7199
2568	0.7168
2577	0.7151
2586	0.7125
2595	0.7095
2604	0.7067
2613	0.7041
2622	0.7015
2631	0.699
2640	0.6965
2649	0.6942
2658	0.6919
2667	0.6898
2676	0.6882
2685	0.6874
2694	0.6862
2703	0.6849
2712	0.6832
2721	0.6811
2730	0.679
2739	0.6765
2748	0.6742
2757	0.6719
2766	0.67
2775	0.6678
2784	0.6658
2793	0.6639
2802	0.6615
2811	0.6586
2820	0.6558
2829	0.6518
2838	0.648
2847	0.6442
2856	0.6383
2865	0.6332
2874	0.6332
2883	0.6343
2892	0.6352
2901	0.6338
2910	0.6305
2919	0.6243
2928	0.6176
2937	0.6127
2946	0.6101
2955	0.6158
2964	0.619
2973	0.62
2982	0.6195
2991	0.6184
3000	0.6165
3009	0.6136
3018	0.61
3027	0.6046
3036	0.5985
3045	0.5919
3054	0.5842
3063	0.5742
3072	0.5591
3081	0.5399
3090	0.4956
3099	0.4632
3108	0.5133
3117	0.5702
3126	0.5802
3135	0.5837
3144	0.5927
3153	0.6067
3162	0.6066
3171	0.6027
3180	0.5985
3189	0.5943
3198	0.591
3207	0.5876
3216	0.5839
3225	0.5799
3234	0.576
3243	0.5706
3252	0.5649
3261	0.5591
3270	0.5534
3279	0.5476
3288	0.5403
3297	0.5318
3306	0.5188
3315	0.4933
3324	0.4352
3333	0.3227
3342	0.2773
3351	0.3682
3360	0.5228
3369	0.5599
3378	0.5771
3387	0.5812
3396	0.5821
3405	0.5815
3414	0.5802
3423	0.5787
3432	0.5766
3441	0.5742
3450	0.572
3459	0.5702
3468	0.5684
3477	0.567
3486	0.5659
3495	0.5647
3504	0.5637
3513	0.5626
3522	0.5616
3531	0.5602
3540	0.5587
3549	0.5572
3558	0.5553
3567	0.5532
3576	0.551
3585	0.549
3594	0.5467
3603	0.5444
3612	0.5422
3621	0.5399
3630	0.5376
3639	0.5354
3648	0.5333
3657	0.5312
3666	0.5292
3675	0.5271
3684	0.5254
3693	0.5238
3702	0.5222
3711	0.5206
3720	0.5193
3729	0.5181
3738	0.517
3747	0.5158
3756	0.5146
3765	0.5132
3774	0.5118
3783	0.51
3792	0.5079
3801	0.5057
