Infrared Spectrum: Cholesterol, methyl carbonate
Formula: C29 H48 O3
CAS: 15507-52-5
State: SOLUTION (10% CCl4 FOR 3800-1330, 10% CS2 FOR 1330-400 CM^-^1)
Melting point: 112 C
Class: COBLENTZ II
Instrument: DOW KBr FOREPRISM-GRATING
Instrument parameters: BLAZED AT 3.5, 12.0, 20.0 MICRON AND CHANGED AT 5.0, 7.5, 14.9 MICRON
Sampling: TRANSMISSION
Path length: 0.011 CM, 0.011 CM
Resolution: 2
Origin: DOW CHEMICAL COMPANY
1/CM	TRANSMITTANCE
3800	0.8773
3791	0.8765
3782	0.8755
3773	0.8746
3764	0.874
3755	0.8734
3746	0.8734
3737	0.8734
3728	0.8734
3719	0.874
3710	0.8748
3701	0.8756
3692	0.8765
3683	0.8774
3674	0.8782
3665	0.8789
3656	0.8795
3647	0.8799
3638	0.8806
3629	0.8816
3620	0.8825
3611	0.8836
3602	0.8847
3593	0.8851
3584	0.8832
3575	0.8813
3566	0.8804
3557	0.8811
3548	0.8818
3539	0.8827
3530	0.8836
3521	0.8844
3512	0.8851
3503	0.8853
3494	0.8855
3485	0.8838
3476	0.8804
3467	0.8788
3458	0.8804
3449	0.8824
3440	0.8851
3431	0.8878
3422	0.8893
3413	0.8902
3404	0.8911
3395	0.891
3386	0.8908
3377	0.8905
3368	0.89
3359	0.8881
3350	0.8862
3341	0.8838
3332	0.8818
3323	0.881
3314	0.8816
3305	0.8817
3296	0.8818
3287	0.8814
3278	0.881
3269	0.8805
3260	0.88
3251	0.8794
3242	0.8788
3233	0.8777
3224	0.8766
3215	0.8747
3206	0.8727
3197	0.8698
3188	0.867
3179	0.8643
3170	0.8628
3161	0.8621
3152	0.8614
3143	0.8609
3134	0.8612
3125	0.861
3116	0.8607
3107	0.8597
3098	0.8587
3089	0.8567
3080	0.8548
3071	0.8491
3062	0.8378
3053	0.8171
3044	0.7438
3035	0.7275
3026	0.7191
3017	0.6872
3008	0.609
2999	0.4662
2990	0.3532
2981	0.1213
2972	0.0677
2963	0.0296
2954	0.0187
2945	0.0213
2936	0.029
2927	0.0597
2918	0.1073
2909	0.1087
2900	0.1196
2891	0.1553
2882	0.1915
2873	0.1132
2864	0.1931
2855	0.1615
2846	0.2897
2837	0.4309
2828	0.448
2819	0.6644
2810	0.7358
2801	0.7751
2792	0.7983
2783	0.8095
2774	0.8165
2765	0.822
2756	0.8267
2747	0.8292
2738	0.8297
2729	0.8289
2720	0.8255
2711	0.8231
2702	0.8235
2693	0.825
2684	0.8265
2675	0.8281
2666	0.8301
2657	0.8321
2648	0.8342
2639	0.8363
2630	0.8384
2621	0.8404
2612	0.8425
2603	0.844
2594	0.8454
2585	0.8467
2576	0.848
2567	0.8488
2558	0.8496
2549	0.8503
2540	0.8511
2531	0.8518
2522	0.8525
2513	0.8548
2504	0.8578
2495	0.8598
2486	0.8614
2477	0.861
2468	0.8608
2459	0.8618
2450	0.863
2441	0.8641
2432	0.865
2423	0.8659
2414	0.8656
2405	0.8637
2396	0.8604
2387	0.8586
2378	0.8585
2369	0.8605
2360	0.8641
2351	0.8686
2342	0.8732
2333	0.8771
2324	0.8791
2315	0.8762
2306	0.8742
2297	0.8723
2288	0.8706
2279	0.8689
2270	0.8687
2261	0.8692
2252	0.8683
2243	0.8645
2234	0.858
2225	0.8511
2216	0.8444
2207	0.84
2198	0.841
2189	0.8492
2180	0.857
2171	0.8642
2162	0.8663
2153	0.868
2144	0.868
2135	0.8677
2126	0.8675
2117	0.8671
2108	0.8671
2099	0.8673
2090	0.8673
2081	0.8673
2072	0.8673
2063	0.8674
2054	0.8682
2045	0.8691
2036	0.8702
2027	0.8712
2018	0.8725
2009	0.8739
2000	0.8766
1991	0.8746
1982	0.877
1973	0.8751
1964	0.8743
1955	0.8737
1946	0.877
1937	0.8786
1928	0.8783
1919	0.875
1910	0.8721
1901	0.871
1892	0.8724
1883	0.8741
1874	0.8752
1865	0.8752
1856	0.8742
1847	0.8718
1838	0.8665
1829	0.854
1820	0.8391
1811	0.8364
1802	0.837
1793	0.8352
1784	0.8252
1775	0.7804
1766	0.6472
1757	0.3056
1748	0.0147
1739	0.0335
1730	0.3122
1721	0.6875
1712	0.7578
1703	0.7698
1694	0.7965
1685	0.8178
1676	0.8204
1667	0.7826
1658	0.8108
1649	0.8178
1640	0.8218
1631	0.8365
1622	0.8451
1613	0.8498
1604	0.8541
1595	0.8521
1586	0.8484
1577	0.8524
1568	0.8624
1559	0.873
1550	0.8794
1541	0.8802
1532	0.8713
1523	0.8609
1514	0.846
1505	0.826
1496	0.7994
1487	0.7642
1478	0.5491
1469	0.2364
1460	0.348
1451	0.383
1442	0.1026
1433	0.5071
1424	0.719
1415	0.7658
1406	0.7735
1397	0.7521
1388	0.4112
1379	0.4416
1370	0.4339
1361	0.5054
1352	0.4978
1343	0.6744
1334	0.6079
1325	0.602
1316	0.5331
1307	0.5739
1298	0.52
1289	0.3082
1280	0.0963
1271	0.0065
1262	0.0265
1253	0.0393
1244	0.3755
1235	0.5256
1226	0.6687
1217	0.7435
1208	0.7428
1199	0.6525
1190	0.7639
1181	0.7722
1172	0.7597
1163	0.7551
1154	0.7978
1145	0.7507
1136	0.6867
1127	0.7454
1118	0.766
1109	0.764
1100	0.79
1091	0.7938
1082	0.7749
1073	0.8185
1064	0.8114
1055	0.8137
1046	0.8233
1037	0.8247
1028	0.5826
1019	0.6968
1010	0.576
1001	0.5465
992	0.473
983	0.419
974	0.4384
965	0.6401
956	0.4194
947	0.4632
938	0.6743
929	0.6367
920	0.801
911	0.8523
902	0.8699
893	0.8546
884	0.8313
875	0.8675
866	0.8725
857	0.8061
848	0.788
839	0.7791
830	0.8042
821	0.8282
812	0.8081
803	0.6268
794	0.5853
785	0.8381
776	0.8702
767	0.8746
758	0.8692
749	0.8202
740	0.8251
731	0.8592
722	0.8644
713	0.8724
704	0.8737
695	0.8688
686	0.8752
677	0.8762
668	0.8771
659	0.8774
650	0.8614
641	0.8668
632	0.8727
623	0.8625
614	0.8724
605	0.8762
596	0.776
587	0.8491
578	0.8821
569	0.8828
560	0.8852
551	0.8888
542	0.8889
533	0.8843
524	0.8867
515	0.8889
506	0.8899
497	0.8902
488	0.8696
479	0.8723
470	0.8634
461	0.8593
452	0.8567
443	0.855
434	0.8536
425	0.8531
416	0.8528
407	0.8534
398	0.8538
