Infrared Spectrum: 1-Cyclopentenylphenylmethane
Formula: C 12 H 14
CAS: 15507-35-4
State: gas
Instrument: HP-GC/MS/IRD
Origin: NIST Mass Spectrometry Data Center
1/CM	ABSORBANCE
550	0.0003781
562	0.0004161
574	0.0011818
586	0.0006916
598	0.0005472
610	0.0005757
622	0.0006916
634	0.0007182
646	0.0008721
658	0.0015048
670	0.0024681
682	0.0046436
694	0.0111492
706	0.0096406
718	0.0044042
730	0.0033535
742	0.0047101
754	0.0048317
766	0.0024206
778	0.0020197
790	0.0017442
802	0.0011039
814	0.0010165
826	0.0012388
838	0.0006783
850	0.0002451
862	0.0001273
874	8.36e-05
886	0.0002204
898	0.0003952
910	0.000532
922	0.000304
934	0.0001957
946	0.0004655
958	0.0010811
970	0.0009633
982	0.0002052
994	5.7e-06
1006	0.0001729
1018	0.0011989
1030	0.002869
1042	0.0016701
1054	0.0006992
1066	0.0007847
1078	0.0007125
1090	0.0002318
1102	6.27e-05
1114	3.42e-05
1126	0.0001064
1138	9.88e-05
1150	7.98e-05
1162	9.31e-05
1174	0.0001805
1186	0.000475
1198	0.0006479
1210	0.0007866
1222	0.0007087
1234	0.0006289
1246	0.0007011
1258	0.0008797
1270	0.0008322
1282	0.0009538
1294	0.0010754
1306	0.0008151
1318	0.0006821
1330	0.0009823
1342	0.0010336
1354	0.0004237
1366	0.0001938
1378	0.0001596
1390	0.0001349
1402	0.0001938
1414	0.0003952
1426	0.0012502
1438	0.0026049
1450	0.0028538
1462	0.0018316
1474	0.0012483
1486	0.002641
1498	0.0043605
1510	0.0009329
1522	0.0002527
1534	0.0002622
1546	0.0002318
1558	0.0002755
1570	0.0005662
1582	0.0010165
1594	0.0021432
1606	0.0025175
1618	0.0009443
1630	0.0004218
1642	0.0005776
1654	0.0005548
1666	0.0002565
1678	0.0001197
1690	7.41e-05
1702	6.84e-05
1714	0.0001007
1726	0.0001995
1738	0.0001843
1750	0.0001767
1762	0.0001406
1774	0.0001938
1786	0.0004313
1798	0.0005985
1810	0.0003287
1822	0.0001919
1834	0.0001368
1846	0.0002204
1858	0.0003724
1870	0.0004332
1882	0.0004047
1894	0.0002261
1906	0.0001596
1918	0.0002413
1930	0.0004883
1942	0.0006004
1954	0.0004636
1966	0.0001368
1978	2.66e-05
1990	4.18e-05
2002	0
2014	2.09e-05
2026	5.7e-06
2038	1.14e-05
2050	9.5e-06
2062	2.28e-05
2074	4.56e-05
2086	3.23e-05
2098	3.99e-05
2110	3.8e-05
2122	4.56e-05
2134	4.37e-05
2146	4.75e-05
2158	4.18e-05
2170	5.13e-05
2182	4.56e-05
2194	5.32e-05
2206	4.56e-05
2218	5.51e-05
2230	3.8e-05
2242	4.18e-05
2254	8.36e-05
2266	5.32e-05
2278	2.85e-05
2290	7.03e-05
2302	0.000114
2314	0.0001311
2326	0.0001216
2338	0.0001216
2350	0.0001045
2362	8.93e-05
2374	8.17e-05
2386	2.85e-05
2398	4.56e-05
2410	4.18e-05
2422	2.85e-05
2434	3.61e-05
2446	2.09e-05
2458	6.46e-05
2470	5.32e-05
2482	7.22e-05
2494	4.37e-05
2506	4.56e-05
2518	4.75e-05
2530	9.5e-06
2542	6.65e-05
2554	5.13e-05
2566	9.31e-05
2578	0.0001292
2590	0.0001406
2602	0.0001425
2614	0.0001026
2626	9.88e-05
2638	0.0001444
2650	7.22e-05
2662	0.0001045
2674	8.74e-05
2686	0.0001007
2698	0.0001672
2710	0.0001805
2722	0.0002185
2734	0.0003382
2746	0.0003819
2758	0.000437
2770	0.0005054
2782	0.0006536
2794	0.0009158
2806	0.0013604
2818	0.0021527
2830	0.0040356
2842	0.0086545
2854	0.0149891
2866	0.0131689
2878	0.0100054
2890	0.0115501
2902	0.016587
2914	0.0177574
2926	0.016644
2938	0.0156579
2950	0.0173926
2962	0.0178277
2974	0.0085804
2986	0.0040299
2998	0.0032718
3010	0.0038646
3022	0.006555
3034	0.0102296
3046	0.0086773
3058	0.0079743
3070	0.0094962
3082	0.0062871
3094	0.0039596
3106	0.0021622
3118	0.0011058
3130	0.0004902
3142	0.0002831
3154	0.0002166
3166	0.0001786
3178	0.0001292
3190	7.03e-05
3202	3.04e-05
3214	7.22e-05
3226	6.65e-05
3238	9.31e-05
3250	5.51e-05
3262	3.99e-05
3274	5.13e-05
3286	4.18e-05
3298	4.94e-05
3310	4.37e-05
3322	2.85e-05
3334	9.12e-05
3346	4.37e-05
3358	7.41e-05
3370	3.61e-05
3382	3.23e-05
3394	9.88e-05
3406	8.74e-05
3418	5.51e-05
3430	4.94e-05
3442	3.8e-05
3454	1.52e-05
3466	3.04e-05
3478	0.0001501
3490	0.0001159
3502	0.0001311
3514	0.0001216
3526	0.000171
3538	9.69e-05
3550	7.79e-05
3562	0.0001463
3574	0.0001216
3586	0.0001121
3598	0.000152
3610	0.0001482
3622	0.0001862
3634	0.000171
3646	0.000228
3658	0.0001596
3670	0.0002223
3682	0.0001995
3694	0.0002109
3706	0.0001938
3718	0.0002603
3730	0.000209
3742	0.0002185
3754	0.000247
3766	0.0002242
3778	0.0001805
3790	0.0002755
3802	0.0002603
3814	0.0002736
3826	0.0002337
3838	0.000209
