Infrared Spectrum: 2-Propylthiophene
Formula: C 7 H 10 S
CAS: 1551-27-5
State: gas
Instrument: HP-GC/MS/IRD
Origin: NIST Mass Spectrometry Data Center
1/CM	ABSORBANCE
550	0.0003026
562	0.0003366
574	0.0005236
586	0.0004624
598	0.0004862
610	8.84e-05
622	0.000119
634	0.0004964
646	0.001105
658	0.0026826
670	0.009316
682	0.023188
694	0.0281792
706	0.0129302
718	0.0033694
730	0.0013566
742	0.0010472
754	0.0008908
766	0.0007786
778	0.001207
790	0.0022508
802	0.0037672
814	0.0064498
826	0.0054094
838	0.0045866
850	0.0046886
862	0.0034306
874	0.0011934
886	0.0007446
898	0.000612
910	0.0003876
922	0.000238
934	0.0002176
946	0.0002142
958	0.0001802
970	0.0001394
982	0.0001768
994	0.000391
1006	0.000884
1018	0.0015436
1030	0.0017034
1042	0.0013634
1054	0.0010744
1066	0.0012512
1078	0.001564
1090	0.0012512
1102	0.0007718
1114	0.0007106
1126	0.0009486
1138	0.0014076
1150	0.001853
1162	0.001683
1174	0.0010064
1186	0.0005406
1198	0.0006766
1210	0.0014246
1222	0.0018224
1234	0.0019754
1246	0.003111
1258	0.0038794
1270	0.0031178
1282	0.0023392
1294	0.0015266
1306	0.0011288
1318	0.0014076
1330	0.0021522
1342	0.0023562
1354	0.001581
1366	0.0023596
1378	0.003621
1390	0.0027778
1402	0.0015096
1414	0.0016014
1426	0.0030362
1438	0.0050456
1450	0.005389
1462	0.004624
1474	0.0033796
1486	0.0020978
1498	0.0017612
1510	0.001615
1522	0.0011968
1534	0.0009758
1546	0.0008364
1558	0.0009792
1570	0.0011084
1582	0.0010506
1594	0.0006562
1606	0.000459
1618	0.000595
1630	0.0005882
1642	0.0004828
1654	0.000459
1666	0.0002448
1678	0.0002992
1690	0.0004726
1702	0.0006562
1714	0.0004556
1726	0.0001972
1738	0.0002924
1750	0.0003638
1762	0.0006052
1774	0.0010268
1786	0.000748
1798	0.0002312
1810	7.14e-05
1822	1.7e-05
1834	6.12e-05
1846	6.8e-05
1858	5.44e-05
1870	0.0001088
1882	9.52e-05
1894	0.0001292
1906	8.84e-05
1918	0.0001088
1930	5.1e-05
1942	5.1e-05
1954	4.42e-05
1966	6.46e-05
1978	0
1990	3.06e-05
2002	2.04e-05
2014	4.42e-05
2026	6.8e-06
2038	6.12e-05
2050	0.0001122
2062	0.0001224
2074	7.82e-05
2086	9.52e-05
2098	0.0001428
2110	0.000119
2122	0.000102
2134	0.0001122
2146	0.0001258
2158	0.0001768
2170	0.0001802
2182	9.86e-05
2194	7.14e-05
2206	0.000102
2218	6.8e-05
2230	9.86e-05
2242	0.0001054
2254	0.0001326
2266	0.0001394
2278	0.0001802
2290	0.0002108
2302	0.000187
2314	0.0001768
2326	0.0002074
2338	0.0001598
2350	0.000153
2362	0.0001802
2374	0.0001768
2386	0.0001734
2398	0.0001938
2410	0.0001836
2422	0.000221
2434	0.0001836
2446	0.0001598
2458	0.0001428
2470	0.0001428
2482	0.0001054
2494	0.0001326
2506	0.000153
2518	0.000187
2530	0.000221
2542	0.00017
2554	0.0001904
2566	0.000221
2578	0.0002074
2590	0.000238
2602	0.000255
2614	0.0003196
2626	0.0003094
2638	0.0002958
2650	0.000323
2662	0.0003638
2674	0.0003842
2686	0.0003536
2698	0.0003264
2710	0.000425
2722	0.0004998
2734	0.0005746
2746	0.0006154
2758	0.0006494
2770	0.0006494
2782	0.000748
2794	0.0009146
2806	0.0010642
2818	0.0013328
2830	0.0019448
2842	0.003247
2854	0.005491
2866	0.0080716
2878	0.011475
2890	0.0114274
2902	0.0097648
2914	0.0128996
2926	0.0197166
2938	0.025738
2950	0.023052
2962	0.0211208
2974	0.0224672
2986	0.014093
2998	0.0058616
3010	0.0031042
3022	0.001955
3034	0.0018054
3046	0.0020468
3058	0.0024038
3070	0.0039644
3082	0.0049232
3094	0.0033796
3106	0.0023256
3118	0.0017034
3130	0.001054
3142	0.0005372
3154	0.0004692
3166	0.0004216
3178	0.0004352
3190	0.0004216
3202	0.0003638
3214	0.0003706
3226	0.000272
3238	0.0002618
3250	0.000255
3262	0.0002618
3274	0.0002108
3286	0.0001428
3298	0.000136
3310	0.0001496
3322	0.0001088
3334	0.0001666
3346	0.0002006
3358	7.82e-05
3370	9.18e-05
3382	4.76e-05
3394	0.0001122
3406	0.0001088
3418	0.0001258
3430	7.82e-05
3442	3.74e-05
3454	7.14e-05
3466	9.86e-05
3478	9.52e-05
3490	7.82e-05
3502	8.5e-05
3514	0.000102
3526	0.000119
3538	9.18e-05
3550	0.0001292
3562	9.86e-05
3574	6.8e-05
3586	0.0001564
3598	0.0001088
3610	0.0001904
3622	0.0001462
3634	8.5e-05
3646	0.000153
3658	0.000136
3670	0.0002516
3682	0.0001564
3694	0.0001666
3706	0.0001428
3718	0.000187
3730	0.0002074
3742	0.0002482
3754	0.0003026
3766	0.0002176
3778	0.0001938
3790	0.0001904
3802	0.000357
3814	0.0003162
3826	0.0003468
3838	0.0003638
