Infrared Spectrum: 2-DIMETHYLAMINO-1-PROPANOL
Formula: C5 H13 N O
CAS: 15521-18-3
State: SOLUTION (10% IN CCl4)
Class: COBLENTZ
Instrument: PERKIN-ELMER
Sampling: TRANSMISSION
Path length: 0.010 CM CELL
Resolution: 4
Origin: ABBOTT LABORATORIES - WASHBURN
MICROMETERS	TRANSMITTANCE
2.021	0.873
2.06089	0.875
2.10079	0.8732
2.14068	0.8709
2.18058	0.873
2.22047	0.878
2.26036	0.878
2.30026	0.8681
2.34015	0.861
2.38005	0.8628
2.41994	0.866
2.45983	0.871
2.49973	0.871
2.53962	0.871
2.57952	0.875
2.61941	0.875
2.6593	0.8778
2.6992	0.881
2.73909	0.8631
2.77899	0.8282
2.81888	0.7463
2.85878	0.6069
2.89867	0.4248
2.93856	0.404
2.97846	0.4975
3.01835	0.5621
3.05825	0.6171
3.09814	0.6549
3.13803	0.6729
3.17793	0.6948
3.21782	0.7229
3.25772	0.7429
3.29761	0.7578
3.3375	0.6755
3.3774	0.1773
3.41729	0.1378
3.45719	0.2282
3.49708	0.2061
3.53697	0.2211
3.57687	0.325
3.61676	0.3573
3.65666	0.5823
3.69655	0.7036
3.73644	0.7697
3.77634	0.8097
3.81623	0.8231
3.85613	0.831
3.89602	0.8379
3.93591	0.8449
3.97581	0.858
4.0157	0.8629
4.0556	0.87
4.09549	0.866
4.13538	0.868
4.17528	0.868
4.21517	0.871
4.25507	0.873
4.29496	0.875
4.33486	0.8731
4.37475	0.873
4.41464	0.875
4.45454	0.87
4.49443	0.87
4.53433	0.866
4.57422	0.866
4.61411	0.865
4.65401	0.858
4.6939	0.858
4.7338	0.856
4.77369	0.853
4.81358	0.848
4.85348	0.846
4.89337	0.85
4.93327	0.855
4.97316	0.8561
5.01305	0.8511
5.05295	0.8557
5.09284	0.855
5.13274	0.8558
5.17263	0.858
5.21252	0.858
5.25242	0.858
5.29231	0.858
5.33221	0.858
5.3721	0.858
5.41199	0.856
5.45189	0.856
5.49178	0.856
5.53168	0.855
5.57157	0.855
5.61146	0.8525
5.65136	0.8502
5.69125	0.845
5.73115	0.843
5.77104	0.838
5.81094	0.833
5.85083	0.8327
5.89072	0.8312
5.93062	0.821
5.97051	0.815
6.01041	0.8111
6.0503	0.806
6.09019	0.806
6.13009	0.805
6.16998	0.805
6.20988	0.805
6.24977	0.8157
6.28966	0.8273
6.32956	0.833
6.36945	0.843
6.40935	0.8455
6.44924	0.858
6.48913	0.8618
6.52903	0.858
6.56892	0.8387
6.60882	0.8211
6.64871	0.7908
6.6886	0.7555
6.7285	0.688
6.76839	0.4326
6.80829	0.3527
6.84818	0.301
6.88807	0.1912
6.92797	0.255
6.96786	0.3316
7.00776	0.4715
7.04765	0.5312
7.08754	0.3729
7.12744	0.236
7.16733	0.3032
7.20723	0.4614
7.24712	0.5153
7.28702	0.4401
7.32691	0.46
7.3668	0.4723
7.4067	0.6397
7.44659	0.6755
7.48649	0.6597
7.52638	0.5245
7.56627	0.4257
7.60617	0.5407
7.64606	0.6393
7.68596	0.676
7.72585	0.6777
7.76574	0.6655
7.80564	0.6449
7.84553	0.5909
7.88543	0.4188
7.92532	0.4497
7.96521	0.5484
8.00511	0.6068
8.045	0.6234
8.0849	0.5302
8.12479	0.3566
8.16468	0.4526
8.20458	0.5631
8.24447	0.6555
8.28437	0.6723
8.32426	0.678
8.36415	0.6641
8.40405	0.6228
8.44394	0.5807
8.48384	0.4876
8.52373	0.441
8.56362	0.5323
8.60352	0.5524
8.64341	0.5274
8.68331	0.5796
8.7232	0.613
8.7631	0.5879
8.80299	0.425
8.84288	0.4033
8.88278	0.5351
8.92267	0.5852
8.96257	0.6187
9.00246	0.6377
9.04235	0.6369
9.08225	0.5916
9.12214	0.4105
9.16204	0.3629
9.20193	0.442
9.24182	0.4758
9.28172	0.488
9.32161	0.462
9.36151	0.4027
9.4014	0.2298
9.44129	0.155
9.48119	0.151
9.52108	0.1425
9.56098	0.0807
9.60087	0.039
9.64076	0.02
9.68066	0.0822
9.72055	0.1861
9.76045	0.3318
9.80034	0.4295
9.84023	0.5162
9.88013	0.5708
9.92002	0.6076
9.95992	0.6248
9.99981	0.6233
10.0397	0.613
10.0796	0.629
10.1195	0.6488
10.1594	0.663
10.1993	0.6642
10.2392	0.6549
10.2791	0.6127
10.319	0.462
10.3589	0.2974
10.3988	0.2799
10.4386	0.414
10.4785	0.5261
10.5184	0.6082
10.5583	0.6666
10.5982	0.6916
10.6381	0.7062
10.678	0.716
10.7179	0.718
10.7578	0.7081
10.7977	0.708
10.8376	0.706
10.8775	0.6918
10.9174	0.6316
10.9573	0.6032
10.9972	0.6261
11.0371	0.6726
11.077	0.7038
11.1168	0.718
11.1567	0.725
11.1966	0.7256
11.2365	0.723
11.2764	0.709
11.3163	0.6693
11.3562	0.6577
11.3961	0.6949
11.436	0.721
11.4759	0.725
11.5158	0.725
11.5557	0.729
11.5956	0.7402
11.6355	0.7565
11.6754	0.763
11.7153	0.775
11.7551	0.778
11.795	0.778
11.8349	0.778
11.8748	0.7808
11.9147	0.7926
11.9546	0.7945
11.9945	0.796
12.0344	0.795
12.0743	0.793
12.1142	0.796
12.1541	0.801
12.194	0.801
12.2339	0.8022
12.2738	0.805
12.3137	0.8055
12.3536	0.805
12.3935	0.806
12.4333	0.8067
12.4732	0.808
12.5131	0.808
12.553	0.8084
12.5929	0.811
12.6328	0.8132
12.6727	0.8182
12.7126	0.82
12.7525	0.818
12.7924	0.8181
12.8323	0.82
12.8722	0.82
12.9121	0.82
12.952	0.8208
12.9919	0.82
13.0318	0.821
13.0717	0.8222
13.1115	0.8221
13.1514	0.8205
13.1913	0.819
13.2312	0.818
13.2711	0.82
13.311	0.82
13.3509	0.8153
13.3908	0.816
13.4307	0.818
13.4706	0.82
13.5105	0.8207
13.5504	0.82
13.5903	0.821
13.6302	0.8159
13.6701	0.7947
13.71	0.7106
13.7499	0.665
13.7897	0.6365
13.8296	0.6309
13.8695	0.64
13.9094	0.654
13.9493	0.6708
13.9892	0.6922
14.0291	0.7093
14.069	0.711
14.1089	0.7156
14.1488	0.7221
14.1887	0.725
14.2286	0.7256
14.2685	0.723
14.3084	0.723
14.3483	0.721
14.3882	0.721
14.4281	0.723
14.4679	0.718
14.5078	0.7128
14.5477	0.71
14.5876	0.71
14.6275	0.708
14.6674	0.708
14.7073	0.706
14.7472	0.706
14.7871	0.7079
14.827	0.7032
14.8669	0.698
14.9068	0.6952
14.9467	0.695
14.9866	0.695
15.0265	0.693
15.0664	0.6841
15.1062	0.681
15.1461	0.68
15.186	0.676
15.2259	0.68
15.2658	0.678
15.3057	0.6786
15.3456	0.6707
15.3855	0.668
15.4254	0.6676
