Infrared Spectrum: 5-Phenylpenta-2,4-dienoic acid
Formula: C 11 H 10 O 2
CAS: 1552-94-9
State: gas
Origin: EPA-IR VAPOR PHASE LIBRARY
1/CM	ABSORBANCE
549.8	0.002481
559.445	0.002701
569.09	0.002441
578.735	0.002151
588.38	0.001541
598.025	0.001311
607.67	0.001341
617.315	0.002101
626.96	0.001661
636.605	0.001551
646.251	0.001381
655.896	0.001721
665.541	0.001601
675.186	0.001441
684.831	0.002051
694.476	0.002621
704.121	0.003261
713.766	0.002931
723.411	0.001991
733.056	0.001471
742.701	0.001411
752.346	0.001401
761.991	0.0009327
771.636	0.0007532
781.281	0.0006514
790.926	0.0005564
800.571	0.0005782
810.216	0.0006484
819.861	0.0008387
829.507	0.0009696
839.152	0.0010591
848.797	0.0008548
858.442	0.000789
868.087	0.0008605
877.732	0.0010715
887.377	0.0010227
897.022	0.0009009
906.667	0.0010351
916.312	0.0010071
925.957	0.0009204
935.602	0.0010443
945.247	0.0010739
954.892	0.001191
964.537	0.001331
974.182	0.001861
983.827	0.002941
993.472	0.003661
1003.12	0.002931
1012.76	0.001641
1022.41	0.001211
1032.05	0.001211
1041.7	0.001141
1051.34	0.001221
1060.99	0.001421
1070.63	0.001741
1080.28	0.002811
1089.92	0.006971
1099.57	0.018541
1109.21	0.013591
1118.86	0.005881
1128.5	0.005181
1138.15	0.005161
1147.79	0.006601
1157.44	0.007841
1167.08	0.005551
1176.73	0.002461
1186.37	0.001791
1196.02	0.001701
1205.66	0.002811
1215.31	0.002361
1224.95	0.002011
1234.6	0.002331
1244.24	0.002631
1253.89	0.003201
1263.53	0.002761
1273.18	0.002481
1282.82	0.002431
1292.47	0.001891
1302.11	0.001851
1311.76	0.001521
1321.4	0.001611
1331.05	0.001971
1340.69	0.002651
1350.34	0.004661
1359.98	0.006191
1369.63	0.003881
1379.27	0.001701
1388.92	0.0011132
1398.56	0.0009587
1408.21	0.0008674
1417.85	0.000741
1427.5	0.0007028
1437.14	0.0007165
1446.79	0.0007927
1456.43	0.0006547
1466.08	0.0005765
1475.73	0.0005224
1485.37	0.0005713
1495.02	0.0008452
1504.66	0.0006287
1514.31	0.0004475
1523.95	0.0003773
1533.6	0.0003513
1543.24	0.0004511
1552.89	0.0004459
1562.53	0.0004891
1572.18	0.0005924
1581.82	0.0007628
1591.47	0.000958
1601.11	0.001691
1610.76	0.003171
1620.4	0.005401
1630.05	0.010591
1639.69	0.005381
1649.34	0.001341
1658.98	0.0008443
1668.63	0.000706
1678.27	0.0007486
1687.92	0.0008586
1697.56	0.001151
1707.21	0.001611
1716.85	0.002181
1726.5	0.003711
1736.14	0.007401
1745.79	0.017831
1755.43	0.021031
1765.08	0.009721
1774.72	0.004881
1784.37	0.003361
1794.01	0.002431
1803.66	0.001541
1813.3	0.0010876
1822.95	0.0007771
1832.59	0.0005743
1842.24	0.0005477
1851.88	0.0005345
1861.53	0.0005357
1871.17	0.0006178
1880.82	0.0005725
1890.46	0.0004613
1900.11	0.000341
1909.75	0.0003149
1919.4	0.0003302
1929.04	0.0002908
1938.69	0.0003745
1948.33	0.0003924
1957.98	0.0003595
1967.62	0.0002651
1977.27	0.0002503
1986.91	0.000237
1996.56	0.00024
2006.2	0.0002316
2015.85	0.0002692
2025.49	0.0002917
2035.14	0.000312
2044.78	0.0002652
2054.43	0.0002464
2064.07	0.0002607
2073.72	0.00021209
2083.36	0.0002154
2093.01	0.0002463
2102.65	9.55e-05
2112.3	0.00017079
2121.94	0.0002
2131.59	0.00019957
2141.23	0.00021915
2150.88	0.00019457
2160.52	0.00019219
2170.17	0.0001619
2179.81	0.00014713
2189.46	0.00019546
2199.1	0.00019895
2208.75	0.0001839
2218.39	0.00016977
2228.04	0.00014585
2237.68	0.00021169
2247.33	0.0002435
2256.97	0.00019174
2266.62	0.000128776
2276.26	0.00019388
2285.91	0.00018276
2295.55	0.0002241
2305.2	0.0002241
2314.84	0.0001867
2324.49	0.00016353
2334.13	0.00016132
2343.78	0.00014364
2353.42	0.0001051
2363.07	0.00014311
2372.72	0.0001417
2382.36	0.000128032
2392.01	0.00015279
2401.65	0.00019842
2411.3	0.00015251
2420.94	0.00016036
2430.59	0.00015731
2440.23	0.0001003
2449.88	0.0001722
2459.52	0.00013428
2469.17	0.00014758
2478.81	0.00015959
2488.46	7.98e-05
2498.1	0.00014813
2507.75	0.000128544
2517.39	0.000122326
2527.04	7.42e-05
2536.68	0.000129
2546.33	0.00017825
2555.97	5.16e-05
2565.62	0.000130327
2575.26	0.00014235
2584.91	7.51e-05
2594.55	5.41e-05
2604.2	4.33e-05
2613.84	0
2623.49	8.84e-05
2633.13	5.87e-05
2642.78	0.0001618
2652.42	0.0001014
2662.07	0.00013191
2671.71	0.00011129
2681.36	0.0001101
2691	0.00014578
2700.65	0.0001019
2710.29	9.33e-05
2719.94	0.00011895
2729.58	0.00018785
2739.23	9.11e-05
2748.87	0.0001637
2758.52	0.00013725
2768.16	8.43e-05
2777.81	9.4e-05
2787.45	0.00014043
2797.1	0.00013192
2806.74	0.00014906
2816.39	8.48e-05
2826.03	6.52e-05
2835.68	3.75e-05
2845.32	4.04e-05
2854.97	0.00014553
2864.61	0.0001944
2874.26	0.00015249
2883.9	0.0002456
2893.55	0.00013707
2903.19	0.00027
2912.84	0.0002708
2922.48	0.0002857
2932.13	0.0001794
2941.77	0.0002219
2951.42	0.00019741
2961.06	0.0002316
2970.71	0.0001489
2980.35	0.00018954
2990	0.0002698
2999.64	0.0004588
3009.29	0.0007479
3018.93	0.0010671
3028.58	0.001881
3038.22	0.002161
3047.87	0.001351
3057.51	0.001321
3067.16	0.002261
3076.8	0.001871
3086.45	0.001241
3096.09	0.0010157
3105.74	0.0006854
3115.38	0.0003829
3125.03	0.00021471
3134.67	0.0003119
3144.32	0.0002634
3153.96	0.0003027
3163.61	0.00014203
3173.25	0.00013491
3182.9	0.00017421
3192.54	0.00020121
3202.19	0.00020918
3211.83	0.0002372
3221.48	0.00016146
3231.12	0.0002843
3240.77	0.0002413
3250.41	0.0003371
3260.06	0.00019113
3269.7	0.00017563
3279.35	0.0002602
3289	0.0003445
3298.64	0.0001763
3308.29	0.0002708
3317.93	0.00015919
3327.58	0.00021424
3337.22	0.00016257
3346.87	0.00013328
3356.51	0.0003751
3366.16	0.000344
3375.8	0.0003837
3385.45	0.0003747
3395.09	0.0002627
3404.74	0.0002925
3414.38	0.0003102
3424.03	0.000246
3433.67	0.000301
3443.32	0.000323
3452.96	0.0002806
3462.61	0.0002466
3472.25	0.0004308
3481.9	0.0002385
3491.54	0.0003933
3501.19	0.0003802
3510.83	0.0003452
3520.48	0.0004433
3530.12	0.0004153
3539.77	0.0003603
3549.41	0.000453
3559.06	0.0005773
3568.7	0.001161
3578.35	0.006991
3587.99	0.006921
3597.64	0.001161
3607.28	0.0003718
3616.93	0.0004078
3626.57	0.0003345
3636.22	0.0004848
3645.86	0.0004325
3655.51	0.000386
3665.15	0.0002742
3674.8	0.0002927
3684.44	0.000237
3694.09	0.0004102
3703.73	0.0002328
3713.38	0.0003034
3723.02	0.0002875
3732.67	0.0003722
3742.31	0.0002949
3751.96	0.0002894
3761.6	0.000334
3771.25	0.0002907
3780.89	0.000428
3790.54	0.0003311
3800.18	0.0003212
3809.83	0.0002718
3819.47	0.00020852
3829.12	0.0002284
3838.76	0.0002025
3848.41	0.0003542
3858.05	0.000353
3867.7	0.0002814
3877.34	0.0001559
3886.99	0.0002334
3896.63	0.00017254
3906.28	0.0002469
3915.92	0.000254
3925.57	0.0003256
3935.21	0.000248
3944.86	0.00018558
3954.5	0.0002335
3964.15	0.0003873
3973.79	0.0002957
3983.44	0.0002377
3993.08	0.0002541
