Infrared Spectrum: N-[3-Trifluoromethyl]phenylpiperazine
Formula: C 11 H 13 F 3 N 2
CAS: 15532-75-9
State: gas
Origin: EPA-IR VAPOR PHASE LIBRARY
1/CM	ABSORBANCE
549.9	0.00421
559.547	0.00409
569.193	0.00412
578.84	0.00481
588.486	0.00523
598.133	0.00502
607.779	0.00628
617.426	0.00937
627.072	0.00813
636.719	0.006
646.365	0.00949
656.012	0.02031
665.658	0.01431
675.305	0.00915
684.951	0.01604
694.598	0.0343
704.245	0.02518
713.891	0.01673
723.538	0.02474
733.184	0.03023
742.831	0.02791
752.477	0.03751
762.124	0.04052
771.77	0.03193
781.417	0.03775
791.063	0.02893
800.71	0.01427
810.356	0.00815
820.003	0.00623
829.649	0.00581
839.296	0.00566
848.943	0.00748
858.589	0.01286
868.236	0.01812
877.882	0.01946
887.529	0.01492
897.175	0.00934
906.822	0.00735
916.468	0.00792
926.115	0.01092
935.761	0.02203
945.408	0.0622
955.054	0.06984
964.701	0.02145
974.347	0.01148
983.994	0.01298
993.64	0.02982
1003.29	0.01748
1012.93	0.00937
1022.58	0.0094
1032.23	0.00932
1041.87	0.01188
1051.52	0.01729
1061.17	0.02463
1070.81	0.0469
1080.46	0.05244
1090.11	0.04362
1099.75	0.05241
1109.4	0.03379
1119.05	0.04854
1128.69	0.11022
1138.34	0.23329
1147.99	0.22919
1157.63	0.10612
1167.28	0.15398
1176.92	0.15953
1186.57	0.08939
1196.22	0.04143
1205.86	0.03464
1215.51	0.04793
1225.16	0.06891
1234.8	0.06757
1244.45	0.04656
1254.1	0.03582
1263.74	0.03322
1273.39	0.03777
1283.04	0.05363
1292.68	0.07607
1302.33	0.12502
1311.98	0.1736
1321.62	0.17249
1331.27	0.10503
1340.92	0.11497
1350.56	0.12591
1360.21	0.06579
1369.86	0.04061
1379.5	0.0423
1389.15	0.02568
1398.79	0.01498
1408.44	0.01432
1418.09	0.01782
1427.73	0.02486
1437.38	0.05434
1447.03	0.10635
1456.67	0.07521
1466.32	0.03151
1475.97	0.02162
1485.61	0.03555
1495.26	0.05525
1504.91	0.03684
1514.55	0.01617
1524.2	0.00988
1533.85	0.00785
1543.49	0.0075
1553.14	0.00844
1562.79	0.01057
1572.43	0.01636
1582.08	0.02992
1591.73	0.0389
1601.37	0.04691
1611.02	0.05707
1620.67	0.03232
1630.31	0.01508
1639.96	0.00927
1649.6	0.00712
1659.25	0.006
1668.9	0.0054
1678.54	0.00482
1688.19	0.00418
1697.84	0.00372
1707.48	0.00365
1717.13	0.00386
1726.78	0.0039
1736.42	0.00387
1746.07	0.00389
1755.72	0.00396
1765.36	0.00349
1775.01	0.0030036
1784.66	0.0027123
1794.3	0.0025488
1803.95	0.00240258
1813.6	0.0023066
1823.24	0.0024802
1832.89	0.0027005
1842.54	0.0029803
1852.18	0.0029508
1861.83	0.0027671
1871.47	0.0025681
1881.12	0.0024957
1890.77	0.00241462
1900.41	0.0025319
1910.06	0.002757
1919.71	0.0032106
1929.35	0.00343
1939	0.0029614
1948.65	0.0026846
1958.29	0.002455
1967.94	0.00234823
1977.59	0.002142
1987.23	0.002002
1996.88	0.002019
2006.53	0.002052
2016.17	0.001963
2025.82	0.001959
2035.47	0.001939
2045.11	0.001827
2054.76	0.001814
2064.41	0.001925
2074.05	0.00215
2083.7	0.0022584
2093.35	0.002061
2102.99	0.002047
2112.64	0.001988
2122.28	0.001777
2131.93	0.001607
2141.58	0.0016
2151.22	0.001613
2160.87	0.001518
2170.52	0.001669
2180.16	0.001648
2189.81	0.001596
2199.46	0.001546
2209.1	0.001641
2218.75	0.001791
2228.4	0.001831
2238.04	0.001921
2247.69	0.001999
2257.34	0.002103
2266.98	0.002184
2276.63	0.002133
2286.28	0.002009
2295.92	0.001967
2305.57	0.001943
2315.22	0.001977
2324.86	0.001974
2334.51	0.002024
2344.16	0.001939
2353.8	0.001927
2363.45	0.001834
2373.09	0.001737
2382.74	0.001697
2392.39	0.00157
2402.03	0.001556
2411.68	0.001554
2421.33	0.001544
2430.97	0.00154
2440.62	0.001712
2450.27	0.001916
2459.91	0.002004
2469.56	0.00215
2479.21	0.002101
2488.85	0.002017
2498.5	0.001823
2508.15	0.001804
2517.79	0.001791
2527.44	0.001849
2537.09	0.001916
2546.73	0.002012
2556.38	0.002214
2566.03	0.0025002
2575.67	0.0028213
2585.32	0.0028127
2594.96	0.0027397
2604.61	0.0027439
2614.26	0.0026715
2623.9	0.0025898
2633.55	0.0028898
2643.2	0.0032014
2652.84	0.00358
2662.49	0.00399
2672.14	0.00467
2681.78	0.0053
2691.43	0.00528
2701.08	0.00508
2710.72	0.00486
2720.37	0.00555
2730.02	0.007
2739.66	0.00925
2749.31	0.01038
2758.96	0.00981
2768.6	0.00973
2778.25	0.01181
2787.9	0.01701
2797.54	0.02659
2807.19	0.03836
2816.84	0.04133
2826.48	0.0474
2836.13	0.05627
2845.77	0.04335
2855.42	0.02825
2865.07	0.02173
2874.71	0.01862
2884.36	0.01882
2894.01	0.02008
2903.65	0.02149
2913.3	0.02506
2922.95	0.02952
2932.59	0.02833
2942.24	0.0371
2951.89	0.0731
2961.53	0.05361
2971.18	0.026
2980.83	0.01768
2990.47	0.01185
3000.12	0.00624
3009.77	0.00353
3019.41	0.0030547
3029.06	0.0035
3038.71	0.00495
3048.35	0.00679
3058	0.00574
3067.64	0.00493
3077.29	0.00693
3086.94	0.00873
3096.58	0.00571
3106.23	0.0026397
3115.88	0.001946
3125.52	0.001476
3135.17	0.00068
3144.82	0.00022
3154.46	0.0002
3164.11	0.00015
3173.76	0.0001
3183.4	0.00024
3193.05	0.00037
3202.7	0.00041
3212.34	0.00025
3221.99	0.00032
3231.64	0.00028
3241.28	0.00025
3250.93	0.00027
3260.58	0.00036
3270.22	0.00025
3279.87	0.00025
3289.52	0.00025
3299.16	0.00032
3308.81	0.00045
3318.45	0.00057
3328.1	0.00068
3337.75	0.00068
3347.39	0.0007
3357.04	0.00052
3366.69	0.00062
3376.33	0.0007
3385.98	0.00072
3395.63	0.00065
3405.27	0.00061
3414.92	0.00075
3424.57	0.0009
3434.21	0.00076
3443.86	0.00075
3453.51	0.001
3463.15	0.00089
3472.8	0.00085
3482.45	0.00089
3492.09	0.00094
3501.74	0.00095
3511.39	0.00093
3521.03	0.00102
3530.68	0.00102
3540.33	0.00096
3549.97	0.0009
3559.62	0.00094
3569.26	0.00098
3578.91	0.00102
3588.56	0.00118
3598.2	0.001
3607.85	0.00113
3617.5	0.00124
3627.14	0.00114
3636.79	0.0012
3646.44	0.001395
3656.08	0.00124
3665.73	0.001363
3675.38	0.00124
3685.02	0.00122
3694.67	0.00126
3704.32	0.001349
3713.96	0.001424
3723.61	0.001322
3733.26	0.0013
3742.9	0.001358
3752.55	0.00126
3762.2	0.00132
3771.84	0.00132
3781.49	0.001396
3791.13	0.00128
3800.78	0.00135
3810.43	0.00126
3820.07	0.00126
3829.72	0.00117
3839.37	0.001355
3849.01	0.00131
3858.66	0.00131
3868.31	0.00127
3877.95	0.00128
3887.6	0.0013
3897.25	0.00126
3906.89	0.001333
3916.54	0.00123
3926.19	0.00128
3935.83	0.0012
3945.48	0.001348
3955.13	0.001329
3964.77	0.001395
3974.42	0.001464
3984.07	0.001479
3993.71	0.001415
