Infrared Spectrum: BENZENESULFONAMIDE, N,N'-BUTYLENEBIS[4-METHYL-
Formula: C18 H24 N2 O4 S2
CAS: 15544-47-5
State: SOLID (1 mg / 650 mg KBr DISC)
Class: COBLENTZ III
Instrument: PERKIN-ELMER 221 (GRATING)
Instrument parameters: GRATING FOR 4000-1428, FILTERS AT 2490, 980, NaCl PRISM FOR 1428-650 CM^-^1
Sampling: TRANSMISSION
Resolution: 4
Origin: SOUTHERN RESEARCH INSTITUTE
1/CM	TRANSMITTANCE
244.907	0.188
254.006	0.2008
263.106	0.2382
272.205	0.2857
281.304	0.351
290.404	0.4008
299.503	0.4652
308.602	0.523
317.702	0.558
326.801	0.5819
335.9	0.6166
345	0.6612
354.099	0.6912
363.198	0.7095
372.298	0.7189
381.397	0.6671
390.496	0.7269
399.596	0.8018
408.695	0.7704
417.795	0.778
426.894	0.8137
435.993	0.817
445.093	0.815
454.192	0.814
463.291	0.8105
472.391	0.7962
481.49	0.7494
490.589	0.7386
499.689	0.789
508.788	0.7683
517.887	0.7439
526.987	0.7381
536.086	0.7311
545.185	0.653
554.285	0.2168
563.384	0.6954
572.483	0.359
581.583	0.455
590.682	0.7486
599.781	0.8101
608.881	0.8095
617.98	0.7956
627.079	0.7887
636.179	0.7537
645.278	0.7758
654.377	0.7275
663.477	0.5634
672.576	0.4611
681.675	0.46
690.775	0.4551
699.874	0.4423
708.973	0.3982
718.073	0.4861
727.172	0.5611
736.272	0.6721
745.371	0.734
754.47	0.7345
763.57	0.8204
772.669	0.8377
781.768	0.841
790.868	0.8408
799.967	0.7797
809.066	0.7384
818.166	0.368
827.265	0.7208
836.364	0.8131
845.464	0.804
854.563	0.7932
863.662	0.7435
872.762	0.603
881.861	0.5203
890.96	0.6843
900.06	0.7392
909.159	0.7784
918.258	0.811
927.358	0.8408
936.457	0.845
945.556	0.8343
954.656	0.7601
963.755	0.835
972.854	0.8301
981.954	0.8231
991.053	0.8088
1000.15	0.8142
1009.25	0.7894
1018.35	0.7421
1027.45	0.7807
1036.55	0.7464
1045.65	0.673
1054.75	0.596
1063.85	0.3495
1072.95	0.4714
1082.05	0.6584
1091.15	0.4006
1100.25	0.5312
1109.34	0.71
1118.44	0.7351
1127.54	0.704
1136.64	0.6471
1145.74	0.2263
1154.84	0.1
1163.94	0.3417
1173.04	0.6281
1182.14	0.6935
1191.24	0.7058
1200.34	0.7942
1209.44	0.8272
1218.54	0.833
1227.64	0.8352
1236.74	0.8319
1245.83	0.805
1254.93	0.815
1264.03	0.8103
1273.13	0.7861
1282.23	0.7373
1291.33	0.6068
1300.43	0.5736
1309.53	0.3551
1318.63	0.153
1327.73	0.2968
1336.83	0.5246
1345.93	0.7114
1355.03	0.7743
1364.13	0.797
1373.23	0.7853
1382.32	0.7703
1391.42	0.7706
1400.52	0.7004
1409.62	0.712
1418.72	0.6818
1427.82	0.5501
1436.92	0.4882
1446.02	0.61
1455.12	0.682
1464.22	0.6972
1473.32	0.775
1482.42	0.6686
1491.52	0.8233
1500.62	0.7054
1509.72	0.8467
1518.82	0.859
1527.91	0.8632
1537.01	0.867
1546.11	0.869
1555.21	0.867
1564.31	0.865
1573.41	0.8586
1582.51	0.8506
1591.61	0.8251
1600.71	0.6281
1609.81	0.7929
1618.91	0.8355
1628.01	0.841
1637.11	0.8507
1646.21	0.85
1655.31	0.8452
1664.4	0.8563
1673.5	0.8692
1682.6	0.879
1691.7	0.8829
1700.8	0.885
1709.9	0.885
1719	0.885
1728.1	0.885
1737.2	0.884
1746.3	0.883
1755.4	0.8835
1764.5	0.885
1773.6	0.887
1782.7	0.889
1791.8	0.8877
1800.89	0.885
1809.99	0.884
1819.09	0.885
1828.19	0.887
1837.29	0.892
1846.39	0.894
1855.49	0.892
1864.59	0.889
1873.69	0.889
1882.79	0.887
1891.89	0.885
1900.99	0.884
1910.09	0.881
1919.19	0.8732
1928.29	0.8707
1937.38	0.8728
1946.48	0.8832
1955.58	0.887
1964.68	0.888
1973.78	0.888
1982.88	0.8929
1991.98	0.894
2001.08	0.892
2010.18	0.8832
2019.28	0.8838
2028.38	0.8832
2037.48	0.883
2046.58	0.881
2055.68	0.881
2064.78	0.88
2073.87	0.879
2082.97	0.879
2092.07	0.879
2101.17	0.879
2110.27	0.879
2119.37	0.876
2128.47	0.8798
2137.57	0.8782
2146.67	0.8782
2155.77	0.878
2164.87	0.876
2173.97	0.876
2183.07	0.875
2192.17	0.874
2201.27	0.8777
2210.37	0.875
2219.46	0.875
2228.56	0.8723
2237.66	0.871
2246.76	0.867
2255.86	0.869
2264.96	0.8708
2274.06	0.874
2283.16	0.872
2292.26	0.869
2301.36	0.866
2310.46	0.866
2319.56	0.869
2328.66	0.871
2337.76	0.872
2346.86	0.872
2355.95	0.87
2365.05	0.867
2374.15	0.869
2383.25	0.87
2392.35	0.869
2401.45	0.865
2410.55	0.865
2419.65	0.867
2428.75	0.867
2437.85	0.869
2446.95	0.8652
2456.05	0.865
2465.15	0.8692
2474.25	0.8618
2483.35	0.8633
2492.44	0.863
2501.54	0.863
2510.64	0.863
2519.74	0.863
2528.84	0.865
2537.94	0.865
2547.04	0.865
2556.14	0.861
2565.24	0.858
2574.34	0.856
2583.44	0.8522
2592.54	0.854
2601.64	0.857
2610.74	0.856
2619.84	0.8557
2628.93	0.858
2638.03	0.859
2647.13	0.859
2656.23	0.859
2665.33	0.857
2674.43	0.8532
2683.53	0.85
2692.63	0.85
2701.73	0.853
2710.83	0.853
2719.93	0.848
2729.03	0.845
2738.13	0.844
2747.23	0.844
2756.33	0.845
2765.42	0.845
2774.52	0.845
2783.62	0.8432
2792.72	0.837
2801.82	0.836
2810.92	0.8312
2820.02	0.8223
2829.12	0.8099
2838.22	0.7849
2847.32	0.74
2856.42	0.7388
2865.52	0.7287
2874.62	0.7005
2883.72	0.7487
2892.82	0.7685
2901.92	0.774
2911.01	0.7445
2920.11	0.7063
2929.21	0.699
2938.31	0.7082
2947.41	0.6755
2956.51	0.7131
2965.61	0.6928
2974.71	0.7748
2983.81	0.8033
2992.91	0.8228
3002.01	0.824
3011.11	0.8212
3020.21	0.8142
3029.31	0.8
3038.41	0.798
3047.5	0.797
3056.6	0.798
3065.7	0.7947
3074.8	0.811
3083.9	0.813
3093	0.811
3102.1	0.8082
3111.2	0.808
3120.3	0.8178
3129.4	0.8047
3138.5	0.798
3147.6	0.7952
3156.7	0.7922
3165.8	0.7872
3174.9	0.7822
3183.99	0.7743
3193.09	0.7652
3202.19	0.758
3211.29	0.7482
3220.39	0.7307
3229.49	0.7032
3238.59	0.678
3247.69	0.6184
3256.79	0.5361
3265.89	0.4076
3274.99	0.363
3284.09	0.3047
3293.19	0.3053
3302.29	0.5025
3311.39	0.6549
3320.48	0.7366
3329.58	0.7783
3338.68	0.7968
3347.78	0.8018
3356.88	0.805
3365.98	0.805
3375.08	0.804
3384.18	0.801
3393.28	0.798
3402.38	0.7972
3411.48	0.797
3420.58	0.797
3429.68	0.796
3438.78	0.793
3447.88	0.795
3456.98	0.795
3466.07	0.795
3475.17	0.797
3484.27	0.798
3493.37	0.801
3502.47	0.801
3511.57	0.804
3520.67	0.8098
3529.77	0.817
3538.87	0.8188
3547.97	0.824
3557.07	0.8297
3566.17	0.8328
3575.27	0.836
3584.37	0.84
3593.47	0.8427
3602.56	0.845
3611.66	0.8498
3620.76	0.854
3629.86	0.858
3638.96	0.861
3648.06	0.861
3657.16	0.8628
3666.26	0.862
3675.36	0.8607
3684.46	0.859
3693.56	0.8647
3702.66	0.869
3711.76	0.871
3720.86	0.87
3729.96	0.87
3739.05	0.87
3748.15	0.87
3757.25	0.87
3766.35	0.869
3775.45	0.869
3784.55	0.869
3793.65	0.869
3802.75	0.869
