Infrared Spectrum: p-Toluenesulfonamide, N-(4-phthalimidobutyl)-
Formula: C19 H20 N2 O4 S
CAS: 15544-49-7
State: SOLID (1 mg / 650 mg KBr DISC)
Class: COBLENTZ III
Instrument: PERKIN-ELMER 521 (GRATING)
Instrument parameters: FILTERS AT 3150, 2500, 2000, 1150, 700, 410. GRATING CHANGES: 2000, 630
Sampling: TRANSMISSION
Resolution: 2
Origin: SOUTHERN RESEARCH INSTITUTE
1/CM	TRANSMITTANCE
255.373	0.2634
265.415	0.3246
275.456	0.3986
285.498	0.4605
295.54	0.5086
305.582	0.5678
315.623	0.6139
325.665	0.6425
335.707	0.6505
345.749	0.6525
355.79	0.7113
365.832	0.7493
375.874	0.7623
385.916	0.7644
395.957	0.7816
405.999	0.789
416.041	0.7955
426.083	0.7986
436.124	0.7991
446.166	0.7984
456.208	0.7976
466.25	0.7966
476.291	0.789
486.333	0.7759
496.375	0.7719
506.416	0.7442
516.458	0.7757
526.5	0.7348
536.542	0.7338
546.583	0.6775
556.625	0.734
566.667	0.6848
576.709	0.7375
586.75	0.7616
596.792	0.7611
606.834	0.7616
616.876	0.7709
626.917	0.7765
636.959	0.8006
647.001	0.7908
657.043	0.707
667.084	0.6124
677.126	0.6692
687.168	0.7466
697.21	0.7759
707.251	0.7469
717.293	0.4458
727.335	0.803
737.376	0.8361
747.418	0.8096
757.46	0.8493
767.502	0.8639
777.543	0.8525
787.585	0.7945
797.627	0.8308
807.669	0.7872
817.71	0.7092
827.752	0.8644
837.794	0.8511
847.836	0.8158
857.877	0.8475
867.919	0.8304
877.961	0.8473
888.003	0.8477
898.044	0.8455
908.086	0.8168
918.128	0.8147
928.169	0.8261
938.211	0.7993
948.253	0.7885
958.295	0.8236
968.336	0.7808
978.378	0.7307
988.42	0.7997
998.462	0.7947
1008.5	0.7806
1018.55	0.7424
1028.59	0.7413
1038.63	0.6396
1048.67	0.5519
1058.71	0.6895
1068.75	0.5542
1078.8	0.6981
1088.84	0.6621
1098.88	0.7574
1108.92	0.7687
1118.96	0.7744
1129	0.7591
1139.05	0.6119
1149.09	0.4787
1159.13	0.6351
1169.17	0.7408
1179.21	0.7793
1189.25	0.8276
1199.3	0.8271
1209.34	0.8082
1219.38	0.8211
1229.42	0.8349
1239.46	0.8131
1249.51	0.8087
1259.55	0.8154
1269.59	0.8071
1279.63	0.766
1289.67	0.7306
1299.71	0.6697
1309.76	0.6424
1319.8	0.4152
1329.84	0.6793
1339.88	0.7339
1349.92	0.7268
1359.96	0.5796
1370.01	0.6891
1380.05	0.6789
1390.09	0.5481
1400.13	0.4632
1410.17	0.7118
1420.21	0.7049
1430.26	0.6775
1440.3	0.7381
1450.34	0.7284
1460.38	0.6585
1470.42	0.8173
1480.47	0.8499
1490.51	0.8348
1500.55	0.8507
1510.59	0.867
1520.63	0.864
1530.67	0.8623
1540.72	0.8652
1550.76	0.8471
1560.8	0.8533
1570.84	0.8488
1580.88	0.8338
1590.92	0.7832
1600.97	0.8017
1611.01	0.768
1621.05	0.7801
1631.09	0.7777
1641.13	0.7711
1651.17	0.7629
1661.22	0.7499
1671.26	0.7072
1681.3	0.6152
1691.34	0.4203
1701.38	0.1584
1711.43	0.3456
1721.47	0.5724
1731.51	0.7749
1741.55	0.8168
1751.59	0.8197
1761.63	0.7491
1771.68	0.7208
1781.72	0.858
1791.76	0.882
1801.8	0.8922
1811.84	0.8972
1821.88	0.9001
1831.93	0.9021
1841.97	0.9034
1852.01	0.904
1862.05	0.9041
1872.09	0.9041
1882.13	0.9027
1892.18	0.9009
1902.22	0.8985
1912.26	0.8966
1922.3	0.8979
1932.34	0.9006
1942.39	0.8976
1952.43	0.9002
1962.47	0.9042
1972.51	0.9038
1982.55	0.9003
1992.59	0.8976
2002.64	0.8966
2012.68	0.8975
2022.72	0.8995
2032.76	0.8999
2042.8	0.8983
2052.84	0.8983
2062.89	0.8994
2072.93	0.9004
2082.97	0.8989
2093.01	0.8964
2103.05	0.8947
2113.09	0.8936
2123.14	0.893
2133.18	0.8935
2143.22	0.8943
2153.26	0.8946
2163.3	0.8944
2173.35	0.8934
2183.39	0.8926
2193.43	0.8926
2203.47	0.8926
2213.51	0.8926
2223.55	0.8926
2233.6	0.8926
2243.64	0.8926
2253.68	0.8926
2263.72	0.8926
2273.76	0.8927
2283.8	0.8928
2293.85	0.8929
2303.89	0.8928
2313.93	0.8928
2323.97	0.8928
2334.01	0.8931
2344.05	0.8935
2354.1	0.8938
2364.14	0.8935
2374.18	0.8929
2384.22	0.8922
2394.26	0.8917
2404.31	0.8913
2414.35	0.8909
2424.39	0.8905
2434.43	0.89
2444.47	0.8895
2454.51	0.8891
2464.56	0.8886
2474.6	0.8879
2484.64	0.8873
2494.68	0.8867
2504.72	0.8861
2514.76	0.8855
2524.81	0.8848
2534.85	0.8841
2544.89	0.883
2554.93	0.8816
2564.97	0.8802
2575.01	0.8797
2585.06	0.8795
2595.1	0.8792
2605.14	0.8781
2615.18	0.877
2625.22	0.8759
2635.27	0.8748
2645.31	0.8738
2655.35	0.8728
2665.39	0.8722
2675.43	0.8717
2685.47	0.8713
2695.52	0.8709
2705.56	0.8709
2715.6	0.871
2725.64	0.8711
2735.68	0.8706
2745.72	0.87
2755.77	0.8688
2765.81	0.8673
2775.85	0.8656
2785.89	0.8628
2795.93	0.8593
2805.97	0.8549
2816.02	0.8494
2826.06	0.8421
2836.1	0.832
2846.14	0.8147
2856.18	0.8001
2866.23	0.8025
2876.27	0.8111
2886.31	0.8099
2896.35	0.8013
2906.39	0.7873
2916.43	0.761
2926.48	0.7562
2936.52	0.7718
2946.56	0.7745
2956.6	0.8014
2966.64	0.8236
2976.68	0.8347
2986.73	0.8472
2996.77	0.8491
3006.81	0.8482
3016.85	0.8464
3026.89	0.8419
3036.93	0.8381
3046.98	0.8348
3057.02	0.8339
3067.06	0.8335
3077.1	0.8299
3087.14	0.8237
3097.19	0.8221
3107.23	0.8212
3117.27	0.8202
3127.31	0.8202
3137.35	0.818
3147.39	0.8025
3157.44	0.7947
3167.48	0.7895
3177.52	0.7834
3187.56	0.7756
3197.6	0.7676
3207.64	0.7586
3217.69	0.7471
3227.73	0.7355
3237.77	0.7241
3247.81	0.7086
3257.85	0.6904
3267.89	0.6627
3277.94	0.5941
3287.98	0.5843
3298.02	0.5989
3308.06	0.527
3318.1	0.6582
3328.15	0.6853
3338.19	0.6875
3348.23	0.6841
3358.27	0.6777
3368.31	0.6694
3378.35	0.6592
3388.4	0.6488
3398.44	0.6382
3408.48	0.6278
3418.52	0.6225
3428.56	0.6198
3438.6	0.6187
3448.65	0.6174
3458.69	0.6179
3468.73	0.6243
3478.77	0.6355
3488.81	0.6452
3498.85	0.6556
3508.9	0.6655
3518.94	0.6754
3528.98	0.6858
3539.02	0.6971
3549.06	0.7084
3559.11	0.7195
3569.15	0.7307
3579.19	0.7419
3589.23	0.7531
3599.27	0.7645
3609.31	0.7765
3619.36	0.7885
3629.4	0.7992
3639.44	0.8094
3649.48	0.8199
3659.52	0.8304
3669.56	0.8393
3679.61	0.8431
3689.65	0.8453
3699.69	0.8519
3709.73	0.8575
3719.77	0.8585
3729.81	0.8591
3739.86	0.8595
3749.9	0.8593
3759.94	0.8592
3769.98	0.8591
3780.02	0.8592
3790.07	0.8595
3800.11	0.8597
3810.15	0.8595
3820.19	0.8593
3830.23	0.859
3840.27	0.8584
3850.32	0.8578
3860.36	0.8571
3870.4	0.8571
3880.44	0.8572
3890.48	0.8571
3900.52	0.8569
3910.57	0.8566
3920.61	0.8562
3930.65	0.8559
3940.69	0.8563
3950.73	0.8566
3960.77	0.8569
3970.82	0.8569
3980.86	0.8568
3990.9	0.8566
4000.94	0.8561
4010.98	0.8557
