Infrared Spectrum: N,N-Bis(2-cyanoethyl)aniline
Formula: C 12 H 13 N 3
CAS: 1555-66-4
State: gas
Origin: EPA-IR VAPOR PHASE LIBRARY
1/CM	ABSORBANCE
549.8	0.001727
559.445	0.001467
569.09	0.001367
578.734	0.001407
588.379	0.001092
598.024	0.0011401
607.669	0.0004975
617.313	0.0007477
626.958	0.0006909
636.603	0.0004851
646.248	0.0004695
655.893	0.0007507
665.537	0.001587
675.182	0.002207
684.827	0.005167
694.472	0.008817
704.116	0.006637
713.761	0.003447
723.406	0.002977
733.051	0.004077
742.695	0.006897
752.34	0.008707
761.985	0.005777
771.63	0.002847
781.275	0.002197
790.919	0.001297
800.564	0.001437
810.209	0.0011138
819.854	0.0008765
829.498	0.0008752
839.143	0.001076
848.788	0.0008195
858.433	0.0011706
868.078	0.0010781
877.722	0.0011839
887.367	0.0009994
897.012	0.0011163
906.657	0.0009814
916.301	0.001257
925.946	0.001457
935.591	0.001687
945.236	0.001957
954.88	0.001957
964.525	0.003387
974.17	0.004777
983.815	0.004147
993.46	0.004127
1003.1	0.004427
1012.75	0.004567
1022.39	0.005217
1032.04	0.005807
1041.68	0.002857
1051.33	0.001477
1060.97	0.0009544
1070.62	0.001527
1080.26	0.001317
1089.91	0.001517
1099.55	0.0008243
1109.2	0.0012275
1118.84	0.001527
1128.49	0.002717
1138.13	0.004307
1147.78	0.006697
1157.42	0.008787
1167.07	0.009137
1176.71	0.007597
1186.36	0.008057
1196	0.010687
1205.64	0.008837
1215.29	0.005807
1224.93	0.005677
1234.58	0.006867
1244.22	0.006717
1253.87	0.005497
1263.51	0.004977
1273.16	0.005157
1282.8	0.005057
1292.45	0.005027
1302.09	0.005217
1311.74	0.005577
1321.38	0.005287
1331.03	0.005397
1340.67	0.006917
1350.32	0.010687
1359.96	0.014257
1369.61	0.012397
1379.25	0.008247
1388.9	0.005217
1398.54	0.003147
1408.18	0.002417
1417.83	0.003017
1427.47	0.004957
1437.12	0.004347
1446.76	0.003467
1456.41	0.004037
1466.05	0.004467
1475.7	0.005277
1485.34	0.009957
1494.99	0.021337
1504.63	0.019707
1514.28	0.007567
1523.92	0.003557
1533.57	0.002167
1543.21	0.001997
1552.86	0.002017
1562.5	0.002557
1572.15	0.003807
1581.79	0.006967
1591.44	0.012937
1601.08	0.015627
1610.73	0.007937
1620.37	0.003277
1630.01	0.001877
1639.66	0.001317
1649.3	0.0010399
1658.95	0.0008399
1668.59	0.0008102
1678.24	0.0008535
1687.88	0.000681
1697.53	0.0007218
1707.17	0.0006802
1716.82	0.0006311
1726.46	0.0006324
1736.11	0.0005845
1745.75	0.0006268
1755.4	0.0006464
1765.04	0.0006069
1774.69	0.0006856
1784.33	0.0006348
1793.98	0.0006083
1803.62	0.0005942
1813.27	0.0005768
1822.91	0.0004964
1832.55	0.0006169
1842.2	0.0005435
1851.84	0.0005925
1861.49	0.0006648
1871.13	0.000606
1880.78	0.0005666
1890.42	0.0006106
1900.07	0.0007039
1909.71	0.0007786
1919.36	0.0008757
1929	0.0009158
1938.65	0.0009297
1948.29	0.0009433
1957.94	0.0005909
1967.58	0.0006322
1977.23	0.0004052
1986.87	0.000427
1996.52	0.0004109
2006.16	0.0003737
2015.81	0.0003873
2025.45	0.0004581
2035.1	0.0003925
2044.74	0.0004808
2054.38	0.0004374
2064.03	0.0004121
2073.67	0.0004685
2083.32	0.00034308
2092.96	0.0004205
2102.61	0.0004003
2112.25	0.0004356
2121.9	0.0004891
2131.54	0.0003946
2141.19	0.0003854
2150.83	0.0004244
2160.48	0.00035424
2170.12	0.0004989
2179.77	0.0004559
2189.41	0.0004572
2199.06	0.0004522
2208.7	0.0004322
2218.35	0.0004081
2227.99	0.0005752
2237.64	0.0008912
2247.28	0.001497
2256.92	0.001447
2266.57	0.0006899
2276.21	0.0004667
2285.86	0.0004885
2295.5	0.0005
2305.15	0.0004585
2314.79	0.00048
2324.44	0.0004677
2334.08	0.0004078
2343.73	0.0004717
2353.37	0.0004682
2363.02	0.0004491
2372.66	0.0004409
2382.31	0.0003743
2391.95	0.0005138
2401.6	0.0005493
2411.24	0.0004975
2420.89	0.0004167
2430.53	0.0005334
2440.18	0.00055
2449.82	0.0005433
2459.47	0.0005733
2469.11	0.0004677
2478.75	0.0004301
2488.4	0.0005367
2498.04	0.0004832
2507.69	0.000507
2517.33	0.00048
2526.98	0.000394
2536.62	0.0005893
2546.27	0.0005383
2555.91	0.0006036
2565.56	0.0005284
2575.2	0.000504
2584.85	0.0005153
2594.49	0.0005847
2604.14	0.0005975
2613.78	0.0005756
2623.43	0.0006103
2633.07	0.0005753
2642.72	0.0005152
2652.36	0.0003923
2662.01	0.0004668
2671.65	0.000601
2681.29	0.0005104
2690.94	0.0005305
2700.58	0.0006848
2710.23	0.0006776
2719.87	0.000611
2729.52	0.0007193
2739.16	0.0005798
2748.81	0.0007038
2758.45	0.0008217
2768.1	0.0008668
2777.74	0.0008781
2787.39	0.0007335
2797.03	0.0008422
2806.68	0.0009678
2816.32	0.001487
2825.97	0.002177
2835.61	0.003087
2845.26	0.004257
2854.9	0.004777
2864.55	0.004447
2874.19	0.004027
2883.84	0.003707
2893.48	0.003497
2903.12	0.003247
2912.77	0.003227
2922.41	0.003607
2932.06	0.004847
2941.7	0.005827
2951.35	0.005227
2960.99	0.004847
2970.64	0.005157
2980.28	0.005107
2989.93	0.003657
2999.57	0.002407
3009.22	0.001787
3018.86	0.002097
3028.51	0.003217
3038.15	0.004337
3047.8	0.004227
3057.44	0.003727
3067.09	0.004817
3076.73	0.005797
3086.38	0.004077
3096.02	0.003357
3105.67	0.002517
3115.31	0.001637
3124.95	0.0009398
3134.6	0.0005941
3144.24	0.0003694
3153.89	0.0004535
3163.53	0.00028951
3173.18	0.00027503
3182.82	0.000498
3192.47	0.0003651
3202.11	0.0005005
3211.76	0.0003879
3221.4	0.000128
3231.05	0.0004423
3240.69	0.00028072
3250.34	0.0003576
3259.98	0.0001594
3269.63	0.000257892
3279.27	0.0001964
3288.92	0.00030132
3298.56	0.0003648
3308.21	0.00030209
3317.85	0.00031705
3327.49	0.00024891
3337.14	0.000261586
3346.78	0.00025329
3356.43	0.0003574
3366.07	0.0004223
3375.72	0.0002093
3385.36	0.0002028
3395.01	0.0004721
3404.65	0.0002166
3414.3	0.0003379
3423.94	0.00035534
3433.59	0.0004055
3443.23	0.0005214
3452.88	0.000427
3462.52	4.2e-05
3472.17	0.00028214
3481.81	0.0003697
3491.46	0.00029077
3501.1	0.00027323
3510.75	0.00035106
3520.39	0.0004382
3530.04	0.0003924
3539.68	0.00034344
3549.32	0.0002372
3558.97	0.00015
3568.61	0.0002399
3578.26	0.000257945
3587.9	0.00011
3597.55	0.0001867
3607.19	0.0003888
3616.84	0.00026824
3626.48	0.00030328
3636.13	0.00034965
3645.77	0.0004412
3655.42	0.0006301
3665.06	0.00031874
3674.71	0.000266995
3684.35	0.0003911
3694	0.00030111
3703.64	0.0003821
3713.29	0.00028803
3722.93	0.0004214
3732.58	0.0005125
3742.22	0.000585
3751.86	0.00032033
3761.51	0.00029484
3771.15	0.000433
3780.8	0.0002935
3790.44	0.00031683
3800.09	0.0002252
3809.73	0.0002305
3819.38	7.4e-05
3829.02	0.0004093
3838.67	0.0002316
3848.31	0.0004399
3857.96	0.0005018
3867.6	0.00030438
3877.25	0.000102
3886.89	0.00053
3896.54	0.0003991
3906.18	0.0002359
3915.83	0.0004399
3925.47	0.000438
3935.12	0.0003794
3944.76	0.0003728
3954.41	0.0003779
3964.05	0.0004866
3973.69	0.000258478
3983.34	0.0004914
3992.98	0.000566
