Infrared Spectrum: N-BENZOYL-A-1-PIPERIDYLBENZYLAMINE
Formula: C19 H22 N2 O
CAS: 15563-53-8
State: SOLUTION (7% CHCl3)
Class: COBLENTZ
Instrument: Not specified, most likely a prism, grating, or hybrid spectrometer.
Sampling: TRANSMISSION
Path length: 0.009 CM
Resolution: 4
MICROMETERS	TRANSMITTANCE
2.015	0.976
2.05257	0.976
2.09015	0.976
2.12772	0.976
2.16529	0.974
2.20286	0.97
2.24044	0.965
2.27801	0.966
2.31558	0.966
2.35315	0.961
2.39073	0.952
2.4283	0.939
2.46587	0.952
2.50344	0.948
2.54102	0.952
2.57859	0.957
2.61616	0.963
2.65373	0.955
2.69131	0.957
2.72888	0.954
2.76645	0.948
2.80402	0.955
2.8416	0.943
2.87917	0.928
2.91674	0.784
2.95431	0.865
2.99189	0.889
3.02946	0.895
3.06703	0.902
3.1046	0.919
3.14218	0.922
3.17975	0.92
3.21732	0.913
3.2549	0.884
3.29247	0.801
3.33004	0.707
3.36761	0.698
3.40519	0.568
3.44276	0.516
3.48033	0.737
3.5179	0.733
3.55548	0.768
3.59305	0.716
3.63062	0.801
3.66819	0.821
3.70577	0.86
3.74334	0.878
3.78091	0.884
3.81848	0.9
3.85606	0.908
3.89363	0.915
3.9312	0.92
3.96877	0.926
4.00635	0.928
4.04392	0.92
4.08149	0.915
4.11906	0.909
4.15664	0.906
4.19421	0.908
4.23178	0.913
4.26936	0.93
4.30693	0.944
4.3445	0.943
4.38207	0.935
4.41965	0.928
4.45722	0.931
4.49479	0.931
4.53236	0.933
4.56994	0.931
4.60751	0.93
4.64508	0.93
4.68265	0.93
4.72023	0.93
4.7578	0.931
4.79537	0.93
4.83294	0.931
4.87052	0.931
4.90809	0.931
4.94566	0.93
4.98323	0.931
5.02081	0.928
5.05838	0.924
5.09595	0.915
5.13352	0.904
5.1711	0.904
5.20867	0.92
5.24624	0.919
5.28381	0.911
5.32139	0.908
5.35896	0.909
5.39653	0.92
5.43411	0.922
5.47168	0.92
5.50925	0.915
5.54682	0.902
5.5844	0.904
5.62197	0.909
5.65954	0.909
5.69711	0.908
5.73469	0.902
5.77226	0.904
5.80983	0.904
5.8474	0.893
5.88498	0.884
5.92255	0.863
5.96012	0.775
5.99769	0.465
6.03527	0.169
6.07284	0.158
6.11041	0.43
6.14798	0.643
6.18556	0.766
6.22313	0.799
6.2607	0.79
6.29827	0.779
6.33585	0.779
6.37342	0.647
6.41099	0.808
6.44857	0.836
6.48614	0.818
6.52371	0.792
6.56128	0.691
6.59886	0.59
6.63643	0.391
6.674	0.202
6.71157	0.297
6.74915	0.411
6.78672	0.207
6.82429	0.213
6.86186	0.384
6.89944	0.588
6.93701	0.538
6.97458	0.516
7.01215	0.694
7.04973	0.783
7.0873	0.808
7.12487	0.819
7.16244	0.83
7.20002	0.838
7.23759	0.784
7.27516	0.772
7.31273	0.792
7.35031	0.768
7.38788	0.792
7.42545	0.792
7.46302	0.731
7.5006	0.704
7.53817	0.737
7.57574	0.705
7.61332	0.656
7.65089	0.641
7.68846	0.591
7.72603	0.659
7.76361	0.726
7.80118	0.755
7.83875	0.737
7.87632	0.709
7.9139	0.676
7.95147	0.694
7.98904	0.58
8.02661	0.569
8.06419	0.551
8.10176	0.542
8.13933	0.556
8.1769	0.591
8.21448	0.597
8.25205	0.601
8.28962	0.61
8.32719	0.621
8.36477	0.641
8.40234	0.663
8.43991	0.715
8.47748	0.773
8.51506	0.772
8.55263	0.759
8.5902	0.772
8.62777	0.777
8.66535	0.713
8.70292	0.691
8.74049	0.722
8.77807	0.753
8.81564	0.781
8.85321	0.779
8.89078	0.777
8.92836	0.768
8.96593	0.729
9.0035	0.617
9.04107	0.613
9.07865	0.608
9.11622	0.531
9.15379	0.476
9.19136	0.586
9.22894	0.678
9.26651	0.705
9.30408	0.696
9.34165	0.691
9.37923	0.663
9.4168	0.689
9.45437	0.768
9.49194	0.808
9.52952	0.808
9.56709	0.795
9.60466	0.781
9.64223	0.753
9.67981	0.672
9.71738	0.672
9.75495	0.685
9.79253	0.608
9.8301	0.669
9.86767	0.676
9.90524	0.67
9.94282	0.689
9.98039	0.748
10.018	0.766
10.0555	0.696
10.0931	0.634
10.1307	0.547
10.1683	0.553
10.2058	0.652
10.2434	0.751
10.281	0.797
10.3185	0.825
10.3561	0.841
10.3937	0.852
10.4313	0.86
10.4688	0.871
10.5064	0.884
10.544	0.889
10.5815	0.889
10.6191	0.884
10.6567	0.865
10.6943	0.841
10.7318	0.827
10.7694	0.83
10.807	0.829
10.8446	0.814
10.8821	0.801
10.9197	0.816
10.9573	0.834
10.9948	0.854
11.0324	0.869
11.07	0.873
11.1076	0.871
11.1451	0.858
11.1827	0.849
11.2203	0.862
11.2579	0.873
11.2954	0.884
11.333	0.887
11.3706	0.889
11.4081	0.889
11.4457	0.889
11.4833	0.889
11.5209	0.886
11.5584	0.867
11.596	0.86
11.6336	0.851
11.6712	0.832
11.7087	0.805
11.7463	0.841
11.7839	0.862
11.8214	0.873
11.859	0.875
11.8966	0.88
11.9342	0.886
11.9717	0.887
12.0093	0.887
12.0469	0.884
12.0845	0.878
12.122	0.865
12.1596	0.854
12.1972	0.834
12.2347	0.83
12.2723	0.83
12.3099	0.838
12.3475	0.827
12.385	0.814
12.4226	0.81
12.4602	0.797
12.4978	0.775
12.5353	0.757
12.5729	0.733
12.6105	0.731
12.648	0.737
12.6856	0.735
12.7232	0.735
12.7608	0.738
12.7983	0.746
12.8359	0.755
12.8735	0.772
12.911	0.775
12.9486	0.788
12.9862	0.794
13.0238	0.795
13.0613	0.799
13.0989	0.803
13.1365	0.81
13.1741	0.821
13.2116	0.832
13.2492	0.847
13.2868	0.854
13.3243	0.858
13.3619	0.865
13.3995	0.876
13.4371	0.889
13.4746	0.898
13.5122	0.906
13.5498	0.92
13.5874	0.931
13.6249	0.937
13.6625	0.939
13.7001	0.941
13.7376	0.944
13.7752	0.939
13.8128	0.913
13.8504	0.865
13.8879	0.792
13.9255	0.704
13.9631	0.612
14.0007	0.52
14.0382	0.43
14.0758	0.391
14.1134	0.354
14.1509	0.349
14.1885	0.354
14.2261	0.358
14.2637	0.347
14.3012	0.319
14.3388	0.319
14.3764	0.371
14.414	0.433
14.4515	0.483
14.4891	0.505
14.5267	0.527
14.5642	0.562
14.6018	0.623
14.6394	0.663
14.677	0.685
14.7145	0.705
14.7521	0.713
14.7897	0.711
14.8273	0.691
14.8648	0.678
14.9024	0.683
14.94	0.694
14.9775	0.7
15.0151	0.705
15.0527	0.693
15.0903	0.656
15.1278	0.641
15.1654	0.676
15.203	0.737
15.2405	0.783
15.2781	0.805
15.3157	0.819
15.3533	0.83
15.3908	0.838
15.4284	0.847
15.466	0.856
