Infrared Spectrum: 3,4-Dimethylthiophene-2,5-dicarbonitrile
Formula: C 8 H 6 N 2 S
CAS: 155632-41-0
State: gas
Origin: EPA-IR VAPOR PHASE LIBRARY
1/CM	ABSORBANCE
549.8	0.002635
559.445	0.00337
569.09	0.00434
578.734	0.00518
588.379	0.00361
598.024	0.0021149
607.669	0.0018469
617.313	0.0019941
626.958	0.0027076
636.603	0.00189996
646.248	0.0019851
655.893	0.0020513
665.537	0.00188457
675.182	0.001844
684.827	0.0028169
694.472	0.00357
704.116	0.00404
713.761	0.00315
723.406	0.0025504
733.051	0.0024053
742.695	0.0023839
752.34	0.0025192
761.985	0.0021929
771.63	0.0019862
781.275	0.001591
790.919	0.0021343
800.564	0.0028211
810.209	0.00337
819.854	0.0021803
829.498	0.0037
839.143	0.003
848.788	0.0023964
858.433	0.0024363
868.078	0.00289
877.722	0.00451
887.367	0.00503
897.012	0.00325
906.657	0.00235
916.301	0.0017847
925.946	0.0028371
935.591	0.0018462
945.236	0.0022374
954.88	0.0024833
964.525	0.0025171
974.17	0.00319
983.815	0.00486
993.46	0.00628
1003.1	0.00969
1012.75	0.0117
1022.39	0.01037
1032.04	0.00748
1041.68	0.00661
1051.33	0.0032
1060.97	0.0026163
1070.62	0.00449
1080.26	0.001442
1089.91	0.00452
1099.55	0
1109.2	0.00418
1118.84	0.00445
1128.49	0.00579
1138.13	0.00592
1147.78	0.00614
1157.42	0.00422
1167.07	0.00312
1176.71	0.0033
1186.36	0.0026052
1196	0.001132
1205.64	0.00075
1215.29	0.00428
1224.93	0.00442
1234.58	0.00434
1244.22	0.0020582
1253.87	0.00319
1263.51	0.0026402
1273.16	0.0025586
1282.8	0.0022259
1292.45	0.0037
1302.09	0.00289
1311.74	0.0028605
1321.38	0.0031
1331.03	0.00362
1340.67	0.0034
1350.32	0.00367
1359.96	0.00437
1369.61	0.00541
1379.25	0.00837
1388.9	0.01044
1398.54	0.01116
1408.18	0.01099
1417.83	0.00782
1427.47	0.0086
1437.12	0.01063
1446.76	0.01253
1456.41	0.01097
1466.05	0.00755
1475.7	0.00528
1485.34	0.00453
1494.99	0.00389
1504.63	0.00387
1514.28	0.00408
1523.92	0.00394
1533.57	0.00417
1543.21	0.00424
1552.86	0.00459
1562.5	0.00405
1572.15	0.00348
1581.79	0.00301
1591.44	0.00304
1601.08	0.002807
1610.73	0.0027659
1620.37	0.0025665
1630.01	0.0025765
1639.66	0.0023208
1649.3	0.0021425
1658.95	0.0024165
1668.59	0.0026815
1678.24	0.0020389
1687.88	0.0024663
1697.53	0.0021402
1707.17	0.0024888
1716.82	0.0021518
1726.46	0.0020567
1736.11	0.0020942
1745.75	0.0021172
1755.4	0.00195776
1765.04	0.00187823
1774.69	0.0021386
1784.33	0.0020957
1793.98	0.0020295
1803.62	0.00188458
1813.27	0.00189192
1822.91	0.00189119
1832.55	0.001575
1842.2	0.0017948
1851.84	0.0019086
1861.49	0.00197436
1871.13	0.00196141
1880.78	0.0021198
1890.42	0.0018342
1900.07	0.0020427
1909.71	0.0018213
1919.36	0.0020675
1929	0.0020837
1938.65	0.00192304
1948.29	0.00194016
1957.94	0.0021518
1967.58	0.0022101
1977.23	0.0021174
1986.87	0.0021107
1996.52	0.0020532
2006.16	0.0019881
2015.81	0.0020594
2025.45	0.0022342
2035.1	0.00196387
2044.74	0.00195851
2054.38	0.0024182
2064.03	0.00192528
2073.67	0.0023326
2083.32	0.0023385
2092.96	0.0021054
2102.61	0.0018334
2112.25	0.0021968
2121.9	0.0019977
2131.54	0.00195464
2141.19	0.0020892
2150.83	0.0020328
2160.48	0.0021883
2170.12	0.002353
2179.77	0.0025022
2189.41	0.00294
2199.06	0.0038
2208.7	0.0097
2218.35	0.02294
2227.99	0.02415
2237.64	0.00983
2247.28	0.00359
2256.92	0.0024632
2266.57	0.0023444
2276.21	0.0023654
2285.86	0.0020725
2295.5	0.0020915
2305.15	0.0023225
2314.79	0.0021087
2324.44	0.0018643
2334.08	0.0023286
2343.73	0.0022012
2353.37	0.00188632
2363.02	0.00196683
2372.66	0.0022684
2382.31	0.002147
2391.95	0.002433
2401.6	0.0020906
2411.24	0.00195749
2420.89	0.0022937
2430.53	0.00191146
2440.18	0.0026526
2449.82	0.0020228
2459.47	0.00187226
2469.11	0.0020715
2478.75	0.0024957
2488.4	0.0025834
2498.04	0.0022301
2507.69	0.0023386
2517.33	0.00189501
2526.98	0.00195093
2536.62	0.0018675
2546.27	0.0021547
2555.91	0.001729
2565.56	0.0021271
2575.2	0.0022909
2584.85	0.0021732
2594.49	0.00192691
2604.14	0.0023612
2613.78	0.0022104
2623.43	0.0024274
2633.07	0.0024541
2642.72	0.0023257
2652.36	0.0021866
2662.01	0.0023947
2671.65	0.0024754
2681.29	0.0020237
2690.94	0.0020413
2700.58	0.0028098
2710.23	0.0025323
2719.87	0.0021077
2729.52	0.0024528
2739.16	0.0026962
2748.81	0.00273
2758.45	0.0023579
2768.1	0.002161
2777.74	0.0025708
2787.39	0.00191323
2797.03	0.0028075
2806.68	0.002524
2816.32	0.00293
2825.97	0.0025858
2835.61	0.00342
2845.26	0.00318
2854.9	0.00401
2864.55	0.00473
2874.19	0.00623
2883.84	0.00598
2893.48	0.00542
2903.12	0.00513
2912.77	0.00646
2922.41	0.00859
2932.06	0.0116
2941.7	0.01231
2951.35	0.00967
2960.99	0.00851
2970.64	0.00683
2980.28	0.00546
2989.93	0.00578
2999.57	0.0059
3009.22	0.00482
3018.86	0.00396
3028.51	0.0038
3038.15	0.00365
3047.8	0.00412
3057.44	0.00441
3067.09	0.00437
3076.73	0.00313
3086.38	0.00312
3096.02	0.0028244
3105.67	0.0022489
3115.31	0.0020742
3124.95	0.002336
3134.6	0.0021339
3144.24	0.0025935
3153.89	0.001697
3163.53	0.001722
3173.18	0.0021301
3182.82	0.0023806
3192.47	0.001268
3202.11	0.0022818
3211.76	0.0018386
3221.4	0.0018063
3231.05	0.0018566
3240.69	0.0020718
3250.34	0.0021512
3259.98	0.001779
3269.63	0.001573
3279.27	0.0022983
3288.92	0.0024025
3298.56	0.0022919
3308.21	0.001488
3317.85	0.00192217
3327.49	0.001674
3337.14	0.0017933
3346.78	0.001744
3356.43	0.00192479
3366.07	0.0026139
3375.72	0.001698
3385.36	0.0017975
3395.01	0.0021715
3404.65	0.0022555
3414.3	0.00196236
3423.94	0.0025156
3433.59	0.0028375
3443.23	0.00297
3452.88	0.0023871
3462.52	0.0021469
3472.17	0.00171
3481.81	0.0024036
3491.46	0.00191159
3501.1	0.0018537
3510.75	0.0020379
3520.39	0.0021268
3530.04	0.0021123
3539.68	0.001763
3549.32	0.0021196
3558.97	0.0021326
3568.61	0.001516
3578.26	0.001442
3587.9	0.0026727
3597.55	0.0021748
3607.19	0.00297
3616.84	0.001669
3626.48	0.001776
3636.13	0.001551
3645.77	0.001691
3655.42	0.001527
3665.06	0.0023873
3674.71	0.002167
3684.35	0.0020596
3694	0.001842
3703.64	0.001449
3713.29	0.0018687
3722.93	0.001596
3732.58	0.001638
3742.22	0.0020205
3751.86	0.001728
3761.51	0.00187585
3771.15	0.00084
3780.8	0.001768
3790.44	0.0026411
3800.09	0.003
3809.73	0.00156
3819.38	0.001876
3829.02	0.0020946
3838.67	0.001481
3848.31	0.00098
3857.96	0.001723
3867.6	0.0024753
3877.25	0.0020279
3886.89	0.0024356
3896.54	0.00191801
3906.18	0.001524
3915.83	0.0022224
3925.47	0.001237
3935.12	0.00305
3944.76	0.0018745
3954.41	0.001668
3964.05	0.001706
3973.69	0.00197848
3983.34	0.0021917
3992.98	0.001427
