Infrared Spectrum: Bromocyclooctane
Formula: C 8 H 15 Br
CAS: 1556-09-8
State: gas
Instrument: HP-GC/MS/IRD
Origin: NIST Mass Spectrometry Data Center
1/CM	ABSORBANCE
550	0.000824
562	0.000164
574	7.6e-05
586	0.000224
598	0.000412
610	0.000728
622	0.001068
634	0.000824
646	0.000876
658	0.00102
670	0.001296
682	0.001012
694	0.00078
706	0.000868
718	0.000856
730	0.000624
742	0.00048
754	0.000532
766	0.000728
778	0.000844
790	0.000956
802	0.000888
814	0.000504
826	0.000376
838	0.000476
850	0.000736
862	0.000656
874	0.000392
886	0.000256
898	0.000404
910	0.000688
922	0.000604
934	0.000468
946	0.00048
958	0.000672
970	0.000512
982	0.000324
994	0.000256
1006	0.000444
1018	0.000756
1030	0.001264
1042	0.00144
1054	0.000596
1066	0.000364
1078	0.000556
1090	0.00064
1102	0.00064
1114	0.000664
1126	0.00048
1138	0.000404
1150	0.000532
1162	0.001392
1174	0.002532
1186	0.001728
1198	0.000892
1210	0.000816
1222	0.001988
1234	0.002988
1246	0.001776
1258	0.00134
1270	0.000944
1282	0.000844
1294	0.000828
1306	0.000576
1318	0.000612
1330	0.000756
1342	0.001176
1354	0.00152
1366	0.001112
1378	0.000448
1390	0.000252
1402	0.000272
1414	0.000456
1426	0.001152
1438	0.003028
1450	0.005228
1462	0.004796
1474	0.004076
1486	0.002212
1498	0.000756
1510	0.000292
1522	0.000156
1534	9.6e-05
1546	8.4e-05
1558	4e-06
1570	6.4e-05
1582	6.8e-05
1594	6.8e-05
1606	6.4e-05
1618	5.6e-05
1630	7.2e-05
1642	6.4e-05
1654	6.8e-05
1666	8.4e-05
1678	8e-05
1690	0.000124
1702	8e-05
1714	0.000104
1726	0.000136
1738	0.000104
1750	8.4e-05
1762	0.000124
1774	0.000128
1786	0.000112
1798	0.0001
1810	0.000108
1822	0.000112
1834	8e-05
1846	9.2e-05
1858	9.6e-05
1870	9.2e-05
1882	9.2e-05
1894	9.6e-05
1906	0.0001
1918	9.6e-05
1930	0.000104
1942	9.6e-05
1954	0.000116
1966	9.6e-05
1978	9.6e-05
1990	0.000108
2002	0.00012
2014	0.00012
2026	8.4e-05
2038	0.000112
2050	0.000136
2062	0.00012
2074	0.000128
2086	0.000124
2098	0.00012
2110	0.000148
2122	0.000148
2134	0.000136
2146	0.000168
2158	0.000132
2170	0.000128
2182	0.000136
2194	0.00012
2206	0.000132
2218	0.000128
2230	0.000152
2242	0.000156
2254	0.00014
2266	0.00014
2278	0.000148
2290	0.000156
2302	0.000132
2314	0.000132
2326	0.000124
2338	0.000116
2350	0.000112
2362	7.2e-05
2374	0.000104
2386	0.000104
2398	9.2e-05
2410	0.000108
2422	0.000124
2434	0.000144
2446	0.000148
2458	0.000132
2470	0.000112
2482	0.000104
2494	0.000108
2506	8e-05
2518	0.000128
2530	0.000136
2542	0.000156
2554	0.000168
2566	0.000188
2578	0.0002
2590	0.0002
2602	0.000232
2614	0.000212
2626	0.000248
2638	0.00028
2650	0.0003
2662	0.000404
2674	0.000528
2686	0.00068
2698	0.00072
2710	0.000644
2722	0.000508
2734	0.000408
2746	0.000364
2758	0.000372
2770	0.000424
2782	0.000544
2794	0.000676
2806	0.000884
2818	0.00112
2830	0.00146
2842	0.002692
2854	0.00684
2866	0.009856
2878	0.007964
2890	0.00718
2902	0.0101
2914	0.018428
2926	0.034068
2938	0.038716
2950	0.024288
2962	0.014152
2974	0.007564
2986	0.003332
2998	0.001644
3010	0.001
3022	0.000844
3034	0.000576
3046	0.000472
3058	0.000388
3070	0.00032
3082	0.000304
3094	0.000288
3106	0.000244
3118	0.000236
3130	0.000228
3142	0.000192
3154	0.00024
3166	0.00024
3178	0.000212
3190	0.000188
3202	0.000188
3214	0.000196
3226	0.000192
3238	0.000152
3250	0.00016
3262	0.000176
3274	0.000144
3286	0.000168
3298	0.000112
3310	0.000132
3322	9.6e-05
3334	0.000132
3346	0.000104
3358	9.6e-05
3370	0.000136
3382	0.000184
3394	0.000196
3406	0.0001
3418	0.000136
3430	8.8e-05
3442	0.00012
3454	0.000128
3466	8e-05
3478	0.000108
3490	0.000108
3502	0.000116
3514	0.000112
3526	0.000136
3538	0.000136
3550	0.00012
3562	0.000112
3574	0.000104
3586	0.000128
3598	0.000148
3610	0.000104
3622	0.0001
3634	0.000152
3646	0.000172
3658	0.00016
3670	0.000136
3682	0.000132
3694	0.000132
3706	0.000148
3718	0.000144
3730	0.000136
3742	0.000124
3754	0.000124
3766	0.00016
3778	0.000104
3790	0.000152
3802	0.000152
3814	0.00014
3826	0.000124
3838	0.000144
