Infrared Spectrum: Dichloropropylphosphine
Formula: C 3 H 7 Cl 2 P
CAS: 15573-31-6
State: gas
Origin: EPA-IR VAPOR PHASE LIBRARY
1/CM	ABSORBANCE
501.5	0.0752771
513.074	0.0390471
524.648	0.0091971
536.222	0.0025171
547.796	0.0013871
559.37	0.0011071
570.944	0.0009995
582.518	0.0010475
594.092	0.0010871
605.666	0.0014671
617.24	0.0021871
628.814	0.0033371
640.388	0.0051271
651.962	0.0051271
663.536	0.0035771
675.11	0.0031371
686.684	0.0035671
698.258	0.0044771
709.832	0.0054571
721.406	0.0049571
732.98	0.0036971
744.554	0.0027671
756.128	0.0020871
767.702	0.0016971
779.276	0.0017171
790.85	0.0015071
802.423	0.0013471
813.997	0.0013971
825.571	0.0012471
837.145	0.0009696
848.719	0.0006392
860.293	0.0004573
871.867	0.0005059
883.441	0.0006609
895.015	0.000775
906.589	0.0006738
918.163	0.0005185
929.737	0.0003555
941.311	0.0004685
952.885	0.0005686
964.459	0.0007152
976.033	0.0007928
987.607	0.0008965
999.181	0.0010215
1010.76	0.0016071
1022.33	0.0021471
1033.9	0.0019571
1045.48	0.0017871
1057.05	0.0025471
1068.63	0.0036271
1080.2	0.0033271
1091.77	0.0017671
1103.35	0.0007379
1114.92	0.0005627
1126.49	0.0004629
1138.07	0.0003837
1149.64	0.0003628
1161.22	0.0005229
1172.79	0.000447
1184.36	0.000669
1195.94	0.0008229
1207.51	0.001017
1219.09	0.0012071
1230.66	0.0010017
1242.23	0.0007605
1253.81	0.0007624
1265.38	0.0008569
1276.96	0.0009311
1288.53	0.001022
1300.1	0.0009296
1311.68	0.0009155
1323.25	0.0013371
1334.83	0.0021071
1346.4	0.0019871
1357.97	0.0011671
1369.55	0.0014871
1381.12	0.0027071
1392.7	0.0040371
1404.27	0.0040771
1415.84	0.0029971
1427.42	0.0021471
1438.99	0.0023971
1450.57	0.0036871
1462.14	0.0049171
1473.71	0.0041671
1485.29	0.0021971
1496.86	0.0010525
1508.44	0.0006973
1520.01	0.0005541
1531.58	0.0004802
1543.16	0.0003928
1554.73	0.0003875
1566.31	0.0003287
1577.88	0.0003249
1589.45	0.0003301
1601.03	0.0003343
1612.6	0.0003035
1624.18	0.0003617
1635.75	0.0003496
1647.32	0.0003263
1658.9	0.0003222
1670.47	0.0003364
1682.05	0.0003321
1693.62	0.0003562
1705.19	0.0003039
1716.77	0.0002994
1728.34	0.0002733
1739.92	0.000264
1751.49	0.0002521
1763.06	0.0002206
1774.64	0.0002601
1786.21	0.0002351
1797.79	0.0002241
1809.36	0.0002054
1820.93	0.0002092
1832.51	0.0002017
1844.08	0.0002107
1855.66	0.0002207
1867.23	0.0001874
1878.8	0.0002285
1890.38	0.0001998
1901.95	0.0002238
1913.53	0.00025
1925.1	0.0002689
1936.67	0.0002607
1948.25	0.0002303
1959.82	0.0002208
1971.4	0.00015773
1982.97	0.0001623
1994.54	0.0002218
2006.12	0.0002194
2017.69	0.0002327
2029.27	0.0002247
2040.84	0.0002242
2052.41	0.000226
2063.99	0.00021
2075.56	0.0001838
2087.14	0.0002267
2098.71	0.0002236
2110.28	0.0002306
2121.86	0.0001939
2133.43	0.00016764
2145.01	0.0001871
2156.58	0.00015835
2168.15	0.0001879
2179.73	0.00017087
2191.3	0.00015501
2202.88	0.0002014
2214.45	0.0001785
2226.02	0.000208
2237.6	0.000212
2249.17	0.0001802
2260.74	0.0001896
2272.32	0.0001745
2283.89	0.00017483
2295.47	0.0001925
2307.04	0.00015687
2318.61	0.00013768
2330.19	0.00016415
2341.76	0.0001157
2353.34	0.00013821
2364.91	0.00016431
2376.48	0.00017613
2388.06	0.0002405
2399.63	0.0002683
2411.21	0.0003125
2422.78	0.0002276
2434.35	0.0002043
2445.93	0.00014118
2457.5	0.0001594
2469.08	0.00014965
2480.65	0.00014836
2492.22	0.00014635
2503.8	0.00014383
2515.37	0.00016949
2526.95	0.0001868
2538.52	0.00012946
2550.09	0.00012834
2561.67	0.0001193
2573.24	0.00011163
2584.82	0.00015095
2596.39	0.0002318
2607.96	0.0002654
2619.54	0.0002575
2631.11	0.0002904
2642.69	0.0002113
2654.26	0.0002694
2665.83	0.0003101
2677.41	0.0002824
2688.98	0.0002719
2700.56	0.0002574
2712.13	0.0002712
2723.7	0.0003301
2735.28	0.0004284
2746.85	0.0006321
2758.43	0.0007644
2770	0.0007579
2781.57	0.0008062
2793.15	0.0009963
2804.72	0.0010606
2816.3	0.0011071
2827.87	0.0013471
2839.44	0.0017871
2851.02	0.0024071
2862.59	0.0039671
2874.17	0.0079871
2885.74	0.0121771
2897.31	0.0114171
2908.89	0.0092871
2920.46	0.0089571
2932.04	0.0115371
2943.61	0.0157671
2955.18	0.0180071
2966.76	0.0252171
2978.33	0.0268371
2989.91	0.0132671
3001.48	0.0050671
3013.05	0.0031171
3024.63	0.0023471
3036.2	0.0018771
3047.78	0.0015771
3059.35	0.0012971
3070.92	0.0011271
3082.5	0.0009079
3094.07	0.0008323
3105.65	0.0007942
3117.22	0.0007195
3128.79	0.0006009
3140.37	0.0005533
3151.94	0.0004927
3163.52	0.0005023
3175.09	0.0004956
3186.66	0.0004728
3198.24	0.0004513
3209.81	0.0004608
3221.39	0.0003145
3232.96	0.0003154
3244.53	0.0002269
3256.11	0.0002294
3267.68	0.000199
3279.26	0.0002532
3290.83	0.0002093
3302.4	0.00012565
3313.98	0.00017558
3325.55	0.00011644
3337.13	0.00015933
3348.7	0.0001935
3360.27	0.0002442
3371.85	0.0002122
3383.42	0.00015417
3395	0.00012023
3406.57	0.00011264
3418.14	8.916e-05
3429.72	0.00015513
3441.29	0.0001999
3452.86	0.00016478
3464.44	9.015e-05
3476.01	8.3977e-05
3487.59	0.0002388
3499.16	0.00015246
3510.73	0.00015322
3522.31	0.00011203
3533.88	0.00014544
3545.46	0.00015623
3557.03	0.00012469
3568.6	0.0001947
3580.18	0.0002805
3591.75	0.00011343
3603.33	0.00016804
3614.9	0.0001879
3626.47	0.00016083
3638.05	7.609e-05
3649.62	0.00016773
3661.2	5.99e-05
3672.77	0.00012453
3684.34	0.00013214
3695.92	0.0001957
3707.49	0.00016234
3719.07	0.00014894
3730.64	0.00012311
3742.21	8.756e-05
3753.79	0.00014007
3765.36	0.0002356
3776.94	0.0002031
3788.51	0.0002003
3800.08	0.00015798
3811.66	0.00011056
3823.23	0.00011715
3834.81	7.8272e-05
3846.38	0.00010288
3857.95	4.41e-05
3869.53	6.17e-05
3881.1	8.0883e-05
3892.68	0.00010484
3904.25	8.6971e-05
3915.82	0.0001133
3927.4	0.00017179
3938.97	0.00016686
3950.55	0.0002071
3962.12	0.0002817
3973.69	0.0001417
3985.27	0.00015834
3996.84	0.00011708
