Infrared Spectrum: m-Methoxybenzenethiol
Formula: C 7 H 8 O S
CAS: 15570-12-4
State: gas
Origin: EPA-IR VAPOR PHASE LIBRARY
1/CM	ABSORBANCE
549.8	0.004918
559.445	0.005848
569.09	0.003978
578.734	0.001998
588.379	0.0009612
598.024	0.000705
607.669	0.0010792
617.313	0.0011463
626.958	0.001358
636.603	0.001578
646.248	0.002178
655.893	0.003938
665.537	0.009418
675.182	0.017928
684.827	0.025308
694.472	0.014978
704.116	0.006698
713.761	0.002828
723.406	0.002768
733.051	0.003638
742.695	0.007468
752.34	0.017198
761.985	0.034688
771.63	0.041978
781.275	0.027388
790.919	0.012928
800.564	0.005778
810.209	0.004868
819.854	0.007108
829.498	0.013038
839.143	0.026078
848.788	0.041528
858.433	0.042288
868.078	0.027858
877.722	0.013218
887.367	0.007568
897.012	0.005268
906.657	0.005238
916.301	0.005758
925.946	0.005198
935.591	0.003718
945.236	0.003008
954.88	0.002838
964.525	0.003378
974.17	0.004668
983.815	0.006728
993.46	0.008708
1003.1	0.010148
1012.75	0.013508
1022.39	0.025788
1032.04	0.049438
1041.68	0.071298
1051.33	0.071788
1060.97	0.046348
1070.62	0.025238
1080.26	0.022748
1089.91	0.026668
1099.55	0.031418
1109.2	0.021158
1118.84	0.009538
1128.49	0.006268
1138.13	0.005658
1147.78	0.008248
1157.42	0.015228
1167.07	0.017318
1176.71	0.015078
1186.36	0.014208
1196	0.013908
1205.64	0.017448
1215.29	0.033368
1224.93	0.069928
1234.58	0.103828
1244.22	0.117108
1253.87	0.103428
1263.51	0.062868
1273.16	0.054918
1282.8	0.066028
1292.45	0.057978
1302.09	0.033058
1311.74	0.022238
1321.38	0.018308
1331.03	0.014118
1340.67	0.008238
1350.32	0.005008
1359.96	0.003808
1369.61	0.003918
1379.25	0.005368
1388.9	0.008508
1398.54	0.012658
1408.18	0.022058
1417.83	0.038498
1427.47	0.047228
1437.12	0.039408
1446.76	0.033778
1456.41	0.042158
1466.05	0.068808
1475.7	0.110738
1485.34	0.098978
1494.99	0.044138
1504.63	0.014748
1514.28	0.011748
1523.92	0.012138
1533.57	0.012338
1543.21	0.014148
1552.86	0.021568
1562.5	0.040868
1572.15	0.084588
1581.79	0.161898
1591.44	0.179628
1601.08	0.096188
1610.73	0.028128
1620.37	0.014338
1630.01	0.009768
1639.66	0.006748
1649.3	0.005018
1658.95	0.004228
1668.59	0.003998
1678.24	0.003588
1687.88	0.003368
1697.53	0.003298
1707.17	0.003188
1716.82	0.003138
1726.46	0.003168
1736.11	0.003028
1745.75	0.002868
1755.4	0.002518
1765.04	0.002248
1774.69	0.002218
1784.33	0.002168
1793.98	0.002138
1803.62	0.002138
1813.27	0.002278
1822.91	0.002498
1832.55	0.002718
1842.2	0.002568
1851.84	0.002068
1861.49	0.001588
1871.13	0.001358
1880.78	0.001498
1890.42	0.002038
1900.07	0.002728
1909.71	0.003298
1919.36	0.003258
1929	0.002408
1938.65	0.001498
1948.29	0.0010661
1957.94	0.0010196
1967.58	0.0010454
1977.23	0.000953
1986.87	0.0010326
1996.52	0.0009944
2006.16	0.0010179
2015.81	0.0011923
2025.45	0.001438
2035.1	0.001608
2044.74	0.001848
2054.38	0.002188
2064.03	0.002808
2073.67	0.003408
2083.32	0.003678
2092.96	0.003528
2102.61	0.003268
2112.25	0.002698
2121.9	0.002038
2131.54	0.001668
2141.19	0.001358
2150.83	0.0011131
2160.48	0.0010352
2170.12	0.000804
2179.77	0.0007034
2189.41	0.0006567
2199.06	0.0005333
2208.7	0.000513
2218.35	0.0004659
2227.99	0.0005249
2237.64	0.0005636
2247.28	0.0006355
2256.92	0.0007862
2266.57	0.0010468
2276.21	0.0010385
2285.86	0.0008748
2295.5	0.0008935
2305.15	0.0008082
2314.79	0.0010378
2324.44	0.0012341
2334.08	0.0012025
2343.73	0.0009987
2353.37	0.0008695
2363.02	0.0007486
2372.66	0.0007112
2382.31	0.0007126
2391.95	0.0008918
2401.6	0.0007991
2411.24	0.000875
2420.89	0.0009601
2430.53	0.0011321
2440.18	0.0011815
2449.82	0.0012684
2459.47	0.0012333
2469.11	0.0012461
2478.75	0.001368
2488.4	0.001748
2498.04	0.002058
2507.69	0.002048
2517.33	0.001988
2526.98	0.001618
2536.62	0.0011979
2546.27	0.0011104
2555.91	0.0010679
2565.56	0.0012299
2575.2	0.001398
2584.85	0.001628
2594.49	0.001538
2604.14	0.0012323
2613.78	0.0009625
2623.43	0.000945
2633.07	0.0009344
2642.72	0.000993
2652.36	0.0011471
2662.01	0.0011417
2671.65	0.0011706
2681.29	0.0010536
2690.94	0.0010982
2700.58	0.0010383
2710.23	0.001114
2719.87	0.0010973
2729.52	0.0011328
2739.16	0.0011137
2748.81	0.0011225
2758.45	0.0011905
2768.1	0.0012873
2777.74	0.001578
2787.39	0.001938
2797.03	0.002648
2806.68	0.003408
2816.32	0.004758
2825.97	0.007978
2835.61	0.015598
2845.26	0.021028
2854.9	0.017638
2864.55	0.010978
2874.19	0.009518
2883.84	0.009598
2893.48	0.010718
2903.12	0.014058
2912.77	0.017918
2922.41	0.019298
2932.06	0.021908
2941.7	0.032038
2951.35	0.036748
2960.99	0.031608
2970.64	0.021148
2980.28	0.015468
2989.93	0.015138
2999.57	0.023078
3009.22	0.029198
3018.86	0.023498
3028.51	0.013158
3038.15	0.010208
3047.8	0.009448
3057.44	0.011618
3067.09	0.016988
3076.73	0.019518
3086.38	0.016318
3096.02	0.010368
3105.67	0.005828
3115.31	0.002968
3124.95	0.001968
3134.6	0.001498
3144.24	0.001328
3153.89	0.0011052
3163.53	0.0009986
3173.18	0.001032
3182.82	0.0009609
3192.47	0.0007729
3202.11	0.0006084
3211.76	0.0005242
3221.4	0.000487
3231.05	0.0002175
3240.69	0.0004289
3250.34	0.0003975
3259.98	0.0002614
3269.63	0.00034641
3279.27	0.0003371
3288.92	0.000179
3298.56	0.0002605
3308.21	0.0002364
3317.85	0.0002381
3327.49	0.00031117
3337.14	0.000179
3346.78	0.0002382
3356.43	0.000101
3366.07	8.1e-05
3375.72	0
3385.36	7.8e-05
3395.01	0.0002184
3404.65	0.000162
3414.3	0.0002071
3423.94	0.0002336
3433.59	0.0002446
3443.23	6e-06
3452.88	0.000183
3462.52	0.0002246
3472.17	0.0002333
3481.81	0.0004191
3491.46	0.0005361
3501.1	0.0004745
3510.75	0.0004861
3520.39	0.000146
3530.04	0.000300046
3539.68	0.0002348
3549.32	0.000145
3558.97	0.00033598
3568.61	0.0002549
3578.26	0.0001983
3587.9	0.000196
3597.55	0.0002684
3607.19	0.0002387
3616.84	0.00033145
3626.48	0.00018
3636.13	6.3e-05
3645.77	0.0002342
3655.42	0.0002148
3665.06	0.00035263
3674.71	0.0002482
3684.35	0.00018
3694	0.0002532
3703.64	0.00038362
3713.29	0.00029224
3722.93	0.00033583
3732.58	0.0001997
3742.22	0.0002644
3751.86	0.0004024
3761.51	0.000225
3771.15	0.0004866
3780.8	0.000306069
3790.44	0.000197
3800.09	0.0001
3809.73	0.00018
3819.38	0.000186
3829.02	0.000302588
3838.67	0.0004436
3848.31	0.0002599
3857.96	0.00038466
3867.6	0.00036603
3877.25	0.0004109
3886.89	0.0004335
3896.54	0.0006125
3906.18	0.0005366
3915.83	0.0004255
3925.47	0.0005489
3935.12	0.00031082
3944.76	0.000286
3954.41	0.0005602
3964.05	0.0003999
3973.69	0.0005039
3983.34	0.0004943
3992.98	0.0005146
