Infrared Spectrum: ISOPROPYL AMINE HYDROCHLORIDE
Formula: C3 H9 N  * H Cl
CAS: 15572-56-2
State: SOLID (MINERAL OIL MULL)
Class: COBLENTZ
Instrument: PERKIN-ELMER
Sampling: TRANSMISSION
Resolution: 4
MICROMETERS	TRANSMITTANCE
2.012	0.932
2.04874	0.935
2.08548	0.94
2.12223	0.94
2.15897	0.93
2.19571	0.912
2.23245	0.9
2.2692	0.892
2.30594	0.869
2.34268	0.854
2.37942	0.864
2.41617	0.86
2.45291	0.866
2.48965	0.883
2.52639	0.895
2.56313	0.897
2.59988	0.898
2.63662	0.898
2.67336	0.892
2.7101	0.872
2.74685	0.831
2.78359	0.712
2.82033	0.543
2.85707	0.468
2.89382	0.414
2.93056	0.391
2.9673	0.385
3.00404	0.4
3.04079	0.407
3.07753	0.354
3.11427	0.205
3.15101	0.158
3.18775	0.086
3.2245	0.059
3.26124	0.029
3.29798	0.015
3.33472	0.013
3.37147	0.012
3.40821	0.01
3.44495	0.009
3.48169	0.006
3.51844	0.007
3.55518	0.013
3.59192	0.013
3.62866	0.036
3.6654	0.089
3.70215	0.046
3.73889	0.112
3.77563	0.21
3.81237	0.185
3.84912	0.096
3.88586	0.314
3.9226	0.4
3.95934	0.121
3.99609	0.192
4.03283	0.407
4.06957	0.479
4.10631	0.531
4.14305	0.606
4.1798	0.665
4.21654	0.689
4.25328	0.723
4.29002	0.771
4.32677	0.795
4.36351	0.84
4.40025	0.861
4.43699	0.857
4.47374	0.817
4.51048	0.82
4.54722	0.861
4.58396	0.877
4.62071	0.875
4.65745	0.872
4.69419	0.87
4.73093	0.829
4.76767	0.737
4.80442	0.549
4.84116	0.403
4.8779	0.287
4.91464	0.27
4.95139	0.342
4.98813	0.496
5.02487	0.533
5.06161	0.617
5.09836	0.731
5.1351	0.757
5.17184	0.721
5.20858	0.815
5.24532	0.86
5.28207	0.886
5.31881	0.906
5.35555	0.92
5.39229	0.921
5.42904	0.917
5.46578	0.9
5.50252	0.89
5.53926	0.892
5.57601	0.91
5.61275	0.923
5.64949	0.938
5.68623	0.943
5.72297	0.938
5.75972	0.92
5.79646	0.907
5.8332	0.87
5.86994	0.821
5.90669	0.726
5.94343	0.682
5.98017	0.637
6.01691	0.606
6.05366	0.568
6.0904	0.468
6.12714	0.267
6.16388	0.192
6.20063	0.218
6.23737	0.152
6.27411	0.417
6.31085	0.508
6.34759	0.549
6.38434	0.571
6.42108	0.58
6.45782	0.566
6.49456	0.542
6.53131	0.403
6.56805	0.17
6.60479	0.073
6.64153	0.262
6.67828	0.42
6.71502	0.445
6.75176	0.399
6.7885	0.181
6.82524	0.115
6.86199	0.133
6.89873	0.27
6.93547	0.411
6.97221	0.542
7.00896	0.609
7.0457	0.637
7.08244	0.586
7.11918	0.351
7.15593	0.153
7.19267	0.282
7.22941	0.138
7.26615	0.15
7.30289	0.414
7.33964	0.58
7.37638	0.66
7.41312	0.703
7.44986	0.76
7.48661	0.797
7.52335	0.815
7.56009	0.826
7.59683	0.827
7.63358	0.818
7.67032	0.817
7.70706	0.817
7.7438	0.823
7.78055	0.824
7.81729	0.823
7.85403	0.82
7.89077	0.818
7.92751	0.818
7.96426	0.815
8.001	0.804
8.03774	0.795
8.07448	0.764
8.11123	0.682
8.14797	0.497
8.18471	0.265
8.22145	0.245
8.2582	0.445
8.29494	0.583
8.33168	0.68
8.36842	0.703
8.40516	0.714
8.44191	0.703
8.47865	0.646
8.51539	0.508
8.55213	0.414
8.58888	0.33
8.62562	0.305
8.66236	0.477
8.6991	0.606
8.73585	0.723
8.77259	0.795
8.80933	0.835
8.84607	0.861
8.88281	0.88
8.91956	0.889
8.9563	0.895
8.99304	0.897
9.02978	0.901
9.06653	0.897
9.10327	0.892
9.14001	0.889
9.17675	0.886
9.2135	0.881
9.25024	0.878
9.28698	0.872
9.32372	0.869
9.36047	0.864
9.39721	0.864
9.43395	0.866
9.47069	0.866
9.50743	0.861
9.54418	0.861
9.58092	0.861
9.61766	0.857
9.6544	0.849
9.69115	0.841
9.72789	0.82
9.76463	0.801
9.80137	0.789
9.83812	0.775
9.87486	0.725
9.9116	0.68
9.94834	0.741
9.98508	0.812
10.0218	0.846
10.0586	0.861
10.0953	0.87
10.1321	0.877
10.1688	0.878
10.2055	0.88
10.2423	0.88
10.279	0.88
10.3158	0.883
10.3525	0.884
10.3893	0.886
10.426	0.886
10.4627	0.886
10.4995	0.872
10.5362	0.854
10.573	0.849
10.6097	0.789
10.6464	0.751
10.6832	0.778
10.7199	0.795
10.7567	0.783
10.7934	0.849
10.8302	0.892
10.8669	0.91
10.9036	0.918
10.9404	0.929
10.9771	0.935
11.0139	0.94
11.0506	0.944
11.0874	0.947
11.1241	0.949
11.1608	0.947
11.1976	0.946
11.2343	0.944
11.2711	0.943
11.3078	0.95
11.3446	0.952
11.3813	0.953
11.418	0.956
11.4548	0.956
11.4915	0.956
11.5283	0.956
11.565	0.956
11.6017	0.958
11.6385	0.958
11.6752	0.956
11.712	0.956
11.7487	0.958
11.7855	0.956
11.8222	0.96
11.8589	0.96
11.8957	0.958
11.9324	0.963
11.9692	0.963
12.0059	0.961
12.0427	0.961
12.0794	0.966
12.1161	0.966
12.1529	0.967
12.1896	0.967
12.2264	0.967
12.2631	0.969
12.2999	0.969
12.3366	0.967
12.3733	0.958
12.4101	0.913
12.4468	0.841
12.4836	0.835
12.5203	0.901
12.557	0.94
12.5938	0.953
12.6305	0.96
12.6673	0.964
12.704	0.964
12.7408	0.964
12.7775	0.963
12.8142	0.96
12.851	0.956
12.8877	0.955
12.9245	0.952
12.9612	0.943
12.998	0.944
13.0347	0.943
13.0714	0.941
13.1082	0.94
13.1449	0.941
13.1817	0.938
13.2184	0.935
13.2552	0.932
13.2919	0.927
13.3286	0.923
13.3654	0.921
13.4021	0.917
13.4389	0.91
13.4756	0.901
13.5123	0.892
13.5491	0.889
13.5858	0.884
13.6226	0.881
13.6593	0.875
13.6961	0.872
13.7328	0.861
13.7695	0.855
13.8063	0.844
13.843	0.837
13.8798	0.831
13.9165	0.837
13.9533	0.847
13.99	0.858
14.0267	0.864
14.0635	0.87
14.1002	0.872
14.137	0.875
14.1737	0.875
14.2105	0.877
14.2472	0.878
14.2839	0.878
14.3207	0.875
14.3574	0.872
14.3942	0.87
14.4309	0.869
14.4676	0.864
14.5044	0.861
14.5411	0.86
14.5779	0.854
14.6146	0.85
14.6514	0.847
14.6881	0.843
14.7248	0.835
14.7616	0.832
14.7983	0.831
14.8351	0.823
14.8718	0.817
14.9086	0.812
14.9453	0.809
14.982	0.806
15.0188	0.795
15.0555	0.792
15.0923	0.786
15.129	0.778
15.1658	0.775
