Infrared Spectrum: 1-(1-Butynyl)cyclopentanol
Formula: C 9 H 14 O
CAS: 155879-96-2
State: gas
Origin: EPA-IR VAPOR PHASE LIBRARY
1/CM	ABSORBANCE
549.8	0.00139
559.445	0.00118
569.09	0.0008739
578.735	0.0009646
588.38	0.00111
598.025	0.00134
607.67	0.0012
617.315	0.00144
626.96	0.0011
636.605	0.00138
646.251	0.0009576
655.896	0.0008835
665.541	0.0008086
675.186	0.0009124
684.831	0.0008541
694.476	0.0008866
704.121	0.000797
713.766	0.0007983
723.411	0.0008703
733.056	0.0007675
742.701	0.0009271
752.346	0.00112
761.991	0.0011
771.636	0.00136
781.281	0.00155
790.926	0.00178
800.571	0.00182
810.216	0.00191
819.861	0.00207
829.507	0.00234
839.152	0.00293
848.797	0.00319
858.442	0.00263
868.087	0.00199
877.732	0.00206
887.377	0.00244
897.022	0.00281
906.667	0.00324
916.312	0.00334
925.957	0.00293
935.602	0.0032
945.247	0.00372
954.892	0.00402
964.537	0.00476
974.182	0.00711
983.827	0.01113
993.472	0.0135
1003.12	0.01164
1012.76	0.00809
1022.41	0.00645
1032.05	0.00645
1041.7	0.00699
1051.34	0.0078
1060.99	0.00836
1070.63	0.00755
1080.28	0.00632
1089.92	0.00535
1099.57	0.00459
1109.21	0.00401
1118.86	0.00363
1128.5	0.00382
1138.15	0.00414
1147.79	0.0046
1157.44	0.00533
1167.08	0.00576
1176.73	0.00607
1186.37	0.00593
1196.02	0.00561
1205.66	0.00619
1215.31	0.00724
1224.95	0.00725
1234.6	0.00625
1244.24	0.00551
1253.89	0.00524
1263.53	0.00522
1273.18	0.00592
1282.82	0.00696
1292.47	0.00865
1302.11	0.01022
1311.76	0.01336
1321.4	0.0144
1331.05	0.01127
1340.69	0.01165
1350.34	0.01379
1359.98	0.01209
1369.63	0.00774
1379.27	0.00502
1388.92	0.00389
1398.56	0.00336
1408.21	0.00294
1417.85	0.00324
1427.5	0.00367
1437.14	0.00508
1446.79	0.00564
1456.43	0.00554
1466.08	0.00449
1475.73	0.00394
1485.37	0.00298
1495.02	0.00213
1504.66	0.00177
1514.31	0.00155
1523.95	0.00128
1533.6	0.00124
1543.24	0.00128
1552.89	0.00111
1562.53	0.0009731
1572.18	0.0008552
1581.82	0.0008698
1591.47	0.0008724
1601.11	0.0008465
1610.76	0.0009381
1620.4	0.0008534
1630.05	0.0008724
1639.69	0.0008571
1649.34	0.0008197
1658.98	0.0007666
1668.63	0.0007753
1678.27	0.0008648
1687.92	0.0008484
1697.56	0.0007906
1707.21	0.0007589
1716.85	0.0008846
1726.5	0.0006469
1736.14	0.0007532
1745.79	0.0009456
1755.43	0.0009965
1765.08	0.0009979
1774.72	0.0008909
1784.37	0.0008385
1794.01	0.0007373
1803.66	0.0007025
1813.3	0.000648
1822.95	0.0007048
1832.59	0.0006726
1842.24	0.0007669
1851.88	0.0007103
1861.53	0.0006956
1871.17	0.0007922
1880.82	0.0006633
1890.46	0.0007052
1900.11	0.0006302
1909.75	0.0006131
1919.4	0.0006537
1929.04	0.0005918
1938.69	0.0006103
1948.33	0.000553
1957.98	0.0005778
1967.62	0.000647
1977.27	0.0006083
1986.91	0.0006335
1996.56	0.0005215
2006.2	0.0005605
2015.85	0.0006401
2025.49	0.0006319
2035.14	0.0006995
2044.78	0.0006941
2054.43	0.0006681
2064.07	0.0006136
2073.72	0.0006443
2083.36	0.0005932
2093.01	0.00059
2102.65	0.00061
2112.3	0.000691
2121.94	0.000676
2131.59	0.0007724
2141.23	0.0007153
2150.88	0.0008034
2160.52	0.0008224
2170.17	0.0007588
2179.81	0.0008071
2189.46	0.000846
2199.1	0.0008959
2208.75	0.00116
2218.39	0.00143
2228.04	0.00176
2237.68	0.00173
2247.33	0.00149
2256.97	0.00104
2266.62	0.0009174
2276.26	0.0008119
2285.91	0.0007864
2295.55	0.0007933
2305.2	0.0007559
2314.84	0.0007496
2324.49	0.0007074
2334.13	0.0006145
2343.78	0.0006359
2353.42	0.0006217
2363.07	0.0006605
2372.72	0.0006969
2382.36	0.0006631
2392.01	0.0006388
2401.65	0.000617
2411.3	0.0006388
2420.94	0.0006281
2430.59	0.0005842
2440.23	0.0006113
2449.88	0.0005984
2459.52	0.0006381
2469.17	0.0005348
2478.81	0.00054
2488.46	0.0005356
2498.1	0.0005778
2507.75	0.0005718
2517.39	0.0004942
2527.04	0.0005887
2536.68	0.0005338
2546.33	0.0005464
2555.97	0.000604
2565.62	0.0005176
2575.26	0.0005598
2584.91	0.0006146
2594.55	0.0005544
2604.2	0.0005912
2613.84	0.0006392
2623.49	0.0006922
2633.13	0.0006393
2642.78	0.0006271
2652.42	0.000631
2662.07	0.0005492
2671.71	0.0004598
2681.36	0.0005483
2691	0.0006214
2700.65	0.0006309
2710.29	0.000741
2719.94	0.0006581
2729.58	0.0007695
2739.23	0.0008909
2748.87	0.000928
2758.52	0.00104
2768.16	0.00112
2777.81	0.00102
2787.45	0.00101
2797.1	0.00114
2806.74	0.00148
2816.39	0.00169
2826.03	0.00218
2835.68	0.00303
2845.32	0.00431
2854.97	0.00682
2864.61	0.00966
2874.26	0.0123
2883.9	0.0152
2893.55	0.01506
2903.19	0.01453
2912.84	0.01579
2922.48	0.01885
2932.13	0.02331
2941.77	0.03102
2951.42	0.03658
2961.06	0.03881
2970.71	0.04546
2980.35	0.04374
2990	0.02668
2999.64	0.01282
3009.29	0.00812
3018.93	0.00535
3028.58	0.0037
3038.22	0.00236
3047.87	0.00219
3057.51	0.00194
3067.16	0.00169
3076.8	0.00151
3086.45	0.00117
3096.09	0.00107
3105.74	0.00106
3115.38	0.0008668
3125.03	0.0009628
3134.67	0.0009528
3144.32	0.0009351
3153.96	0.0008781
3163.61	0.0009456
3173.25	0.0007536
3182.9	0.0008443
3192.54	0.000793
3202.19	0.0008237
3211.83	0.0005516
3221.48	0.000666
3231.12	0.0005249
3240.77	0.0006691
3250.41	0.0006859
3260.06	0.0007834
3269.7	0.0005601
3279.35	0.0006181
3289	0.000476
3298.64	0.0005029
3308.29	0.0006151
3317.93	0.0006891
3327.58	0.00065
3337.22	0.0008668
3346.87	0.000702
3356.51	0.0004923
3366.16	0.0007866
3375.8	0.0007515
3385.45	0.0006237
3395.09	0.0006803
3404.74	0.0006196
3414.38	0.0005664
3424.03	0.0006302
3433.67	0.0007431
3443.32	0.0005764
3452.96	0.0006901
3462.61	0.0008038
3472.25	0.0007243
3481.9	0.0008951
3491.54	0.0007769
3501.19	0.0007841
3510.83	0.0007841
3520.48	0.000932
3530.12	0.0007231
3539.77	0.0006674
3549.41	0.0006908
3559.06	0.0007597
3568.7	0.0007564
3578.35	0.0006139
3587.99	0.0009849
3597.64	0.0008526
3607.28	0.00101
3616.93	0.00139
3626.57	0.00299
3636.22	0.00536
3645.86	0.00594
3655.51	0.00321
3665.15	0.00153
3674.8	0.00108
3684.44	0.0007682
3694.09	0.0009317
3703.73	0.0007028
3713.38	0.0006495
3723.02	0.0008782
3732.67	0.0008676
3742.31	0.0008129
3751.96	0.0008748
3761.6	0.0006698
3771.25	0.0008003
3780.89	0.0007051
3790.54	0.0007338
3800.18	0.0006482
3809.83	0.0007826
3819.47	0.0006377
3829.12	0.0007504
3838.76	0.0006114
3848.41	0.0006746
3858.05	0.0005779
3867.7	0.0006699
3877.34	0.0006822
3886.99	0.000826
3896.63	0.0007188
3906.28	0.000732
3915.92	0.000811
3925.57	0.000751
3935.21	0.0005845
3944.86	0.0007381
3954.5	0.0007911
3964.15	0.0007235
3973.79	0.0007865
3983.44	0.0006651
3993.08	0.0006865
