Infrared Spectrum: Malonanilic acid
Formula: C9 H9 N O3
CAS: 15580-32-2
State: SOLID (0.4 mg / 650 mg KBr DISC)
Class: COBLENTZ III
Instrument: PERKIN-ELMER 21 (GRATING)
Instrument parameters: FILTER CHANGE ABOUT 1085 CM^-^1
Sampling: TRANSMISSION
Resolution: 2
Origin: SOUTHERN RESEARCH INSTITUTE
1/CM	TRANSMITTANCE
607.08	0.7203
616.117	0.7198
625.154	0.7153
634.191	0.6934
643.228	0.6613
652.265	0.6244
661.302	0.5348
670.339	0.4703
679.375	0.4798
688.412	0.3891
697.449	0.284
706.486	0.4604
715.523	0.591
724.56	0.623
733.597	0.6097
742.634	0.538
751.671	0.2182
760.708	0.5744
769.745	0.6523
778.782	0.6853
787.819	0.687
796.856	0.6792
805.893	0.6673
814.929	0.6869
823.966	0.6925
833.003	0.6805
842.04	0.6637
851.077	0.6738
860.114	0.6595
869.151	0.6499
878.188	0.6149
887.225	0.5799
896.262	0.5189
905.299	0.4616
914.336	0.5032
923.373	0.5442
932.41	0.5658
941.447	0.5711
950.483	0.5751
959.52	0.5661
968.557	0.5168
977.594	0.5991
986.631	0.6644
995.668	0.6641
1004.71	0.6594
1013.74	0.6667
1022.78	0.6672
1031.82	0.646
1040.85	0.6586
1049.89	0.6577
1058.93	0.6525
1067.96	0.6428
1077	0.615
1086.04	0.5901
1095.07	0.6446
1104.11	0.6357
1113.15	0.6211
1122.19	0.6038
1131.22	0.5805
1140.26	0.5581
1149.3	0.5239
1158.33	0.4534
1167.37	0.2561
1176.41	0.3023
1185.44	0.4767
1194.48	0.4249
1203.52	0.4843
1212.55	0.5931
1221.59	0.5735
1230.63	0.4782
1239.67	0.3838
1248.7	0.313
1257.74	0.3505
1266.78	0.371
1275.81	0.4509
1284.85	0.5095
1293.89	0.5127
1302.92	0.5073
1311.96	0.4804
1321	0.5337
1330.03	0.5101
1339.07	0.4536
1348.11	0.3121
1357.15	0.4206
1366.18	0.5175
1375.22	0.5163
1384.26	0.4841
1393.29	0.4333
1402.33	0.425
1411.37	0.4758
1420.4	0.4915
1429.44	0.4308
1438.48	0.2928
1447.51	0.2456
1456.55	0.3399
1465.59	0.6005
1474.63	0.6218
1483.66	0.5818
1492.7	0.5575
1501.74	0.4393
1510.77	0.5087
1519.81	0.4789
1528.85	0.3311
1537.88	0.2205
1546.92	0.2497
1555.96	0.3223
1564.99	0.483
1574.03	0.5263
1583.07	0.5758
1592.11	0.5174
1601.14	0.3171
1610.18	0.2546
1619.22	0.4304
1628.25	0.426
1637.29	0.4014
1646.33	0.356
1655.36	0.1533
1664.4	0.1044
1673.44	0.2196
1682.48	0.359
1691.51	0.3823
1700.55	0.2807
1709.59	0.1329
1718.62	0.223
1727.66	0.2797
1736.7	0.3931
1745.73	0.4385
1754.77	0.5341
1763.81	0.5894
1772.84	0.6387
1781.88	0.666
1790.92	0.6849
1799.96	0.6998
1808.99	0.7154
1818.03	0.7289
1827.07	0.7414
1836.1	0.7494
1845.14	0.7544
1854.18	0.7584
1863.21	0.756
1872.25	0.7521
1881.29	0.7544
1890.32	0.7587
1899.36	0.7699
1908.4	0.7719
1917.44	0.7733
1926.47	0.7749
1935.51	0.7759
1944.55	0.7729
1953.58	0.762
1962.62	0.7718
1971.66	0.777
1980.69	0.7818
1989.73	0.7861
1998.77	0.7888
2007.8	0.7906
2016.84	0.7908
2025.88	0.7819
2034.92	0.7811
2043.95	0.7799
2052.99	0.7783
2062.03	0.7757
2071.06	0.7724
2080.1	0.7695
2089.14	0.7702
2098.17	0.7765
2107.21	0.7791
2116.25	0.7797
2125.28	0.7795
2134.32	0.7794
2143.36	0.7808
2152.4	0.7845
2161.43	0.7858
2170.47	0.7864
2179.51	0.7863
2188.54	0.7853
2197.58	0.7814
2206.62	0.7778
2215.65	0.7777
2224.69	0.7784
2233.73	0.7789
2242.77	0.7794
2251.8	0.7782
2260.84	0.7771
2269.88	0.7756
2278.91	0.7739
2287.95	0.7725
2296.99	0.7718
2306.02	0.771
2315.06	0.7691
2324.1	0.7649
2333.13	0.7588
2342.17	0.7555
2351.21	0.7561
2360.25	0.7598
2369.28	0.7625
2378.32	0.7639
2387.36	0.7626
2396.39	0.7588
2405.43	0.7509
2414.47	0.7479
2423.5	0.7447
2432.54	0.7422
2441.58	0.7403
2450.61	0.7385
2459.65	0.7364
2468.69	0.7339
2477.73	0.7315
2486.76	0.7278
2495.8	0.7271
2504.84	0.7194
2513.87	0.7102
2522.91	0.703
2531.95	0.6979
2540.98	0.6961
2550.02	0.6978
2559.06	0.702
2568.09	0.699
2577.13	0.6952
2586.17	0.6972
2595.21	0.702
2604.24	0.7027
2613.28	0.6993
2622.32	0.6949
2631.35	0.6881
2640.39	0.68
2649.43	0.6773
2658.46	0.6775
2667.5	0.6817
2676.54	0.6827
2685.57	0.6788
2694.61	0.6796
2703.65	0.6805
2712.69	0.6811
2721.72	0.6742
2730.76	0.6732
2739.8	0.6698
2748.83	0.6605
2757.87	0.6566
2766.91	0.652
2775.94	0.6383
2784.98	0.6346
2794.02	0.6328
2803.05	0.6321
2812.09	0.6226
2821.13	0.6105
2830.17	0.601
2839.2	0.5908
2848.24	0.5794
2857.28	0.5724
2866.31	0.5684
2875.35	0.5656
2884.39	0.5633
2893.42	0.5565
2902.46	0.5457
2911.5	0.5314
2920.54	0.5177
2929.57	0.5056
2938.61	0.5018
2947.65	0.5054
2956.68	0.5103
2965.72	0.5141
2974.76	0.5162
2983.79	0.5146
2992.83	0.512
3001.87	0.5084
3010.9	0.5039
3019.94	0.4968
3028.98	0.4844
3038.02	0.4773
3047.05	0.4707
3056.09	0.4651
3065.13	0.4603
3074.16	0.4572
3083.2	0.4638
3092.24	0.4702
3101.27	0.4745
3110.31	0.4764
3119.35	0.477
3128.38	0.4778
3137.42	0.4791
3146.46	0.4822
3155.5	0.4865
3164.53	0.4881
3173.57	0.488
3182.61	0.4845
3191.64	0.4814
3200.68	0.4776
3209.72	0.4748
3218.75	0.4779
3227.79	0.4866
3236.83	0.4868
3245.86	0.482
3254.9	0.4751
3263.94	0.4623
3272.98	0.4483
3282.01	0.4439
3291.05	0.4408
3300.09	0.4105
3309.12	0.3658
3318.16	0.3199
3327.2	0.2805
3336.23	0.2551
3345.27	0.2748
3354.31	0.3074
3363.34	0.4021
3372.38	0.4589
3381.42	0.5132
3390.46	0.5763
3399.49	0.594
3408.53	0.6038
3417.57	0.6119
3426.6	0.6183
3435.64	0.6216
3444.68	0.624
3453.71	0.6286
3462.75	0.6346
3471.79	0.643
3480.82	0.6467
3489.86	0.6507
3498.9	0.6553
3507.94	0.6593
3516.97	0.6639
3526.01	0.669
3535.05	0.6745
3544.08	0.6762
3553.12	0.6826
3562.16	0.6929
3571.19	0.6992
3580.23	0.7085
3589.27	0.7125
3598.31	0.7187
3607.34	0.7258
3616.38	0.7322
3625.42	0.7377
3634.45	0.7467
3643.49	0.754
3652.53	0.7551
3661.56	0.7529
3670.6	0.751
3679.64	0.752
3688.67	0.7528
3697.71	0.7554
3706.75	0.7578
3715.79	0.7588
3724.82	0.7582
3733.86	0.7565
3742.9	0.7591
3751.93	0.7602
3760.97	0.761
3770.01	0.7607
3779.04	0.7599
3788.08	0.7591
3797.12	0.7582
3806.15	0.7571
3815.19	0.756
3824.23	0.7547
3833.27	0.7526
3842.3	0.751
3851.34	0.7504
3860.38	0.7536
3869.41	0.7576
3878.45	0.757
3887.49	0.7544
3896.52	0.7528
3905.56	0.7529
3914.6	0.7537
3923.63	0.7549
3932.67	0.7563
3941.71	0.7557
3950.75	0.752
3959.78	0.7446
3968.82	0.7474
3977.86	0.7539
3986.89	0.7609
3995.93	0.7571
4004.97	0.7635
