Infrared Spectrum: 5-Chlorosalicylidene aniline
Formula: C 13 H 10 Cl N O
CAS: 15597-76-9
State: gas
Origin: EPA-IR VAPOR PHASE LIBRARY
1/CM	ABSORBANCE
551.7	0.00879
563.274	0.00745
574.848	0.00343
586.421	0.00237
597.995	0.00228
609.569	0.00228
621.143	0.00279
632.717	0.00486
644.291	0.01319
655.864	0.0103
667.438	0.00711
679.012	0.01204
690.586	0.02377
702.16	0.03727
713.734	0.01942
725.307	0.01212
736.881	0.01376
748.455	0.02161
760.029	0.0266
771.603	0.0217
783.177	0.02283
794.75	0.0112
806.324	0.00876
817.898	0.01836
829.472	0.02097
841.046	0.01022
852.619	0.02837
864.193	0.02307
875.767	0.01045
887.341	0.0048
898.915	0.00475
910.489	0.00579
922.062	0.01271
933.636	0.00971
945.21	0.00294
956.784	0.00237
968.358	0.00471
979.932	0.00525
991.505	0.00223
1003.08	0.00209
1014.65	0.00408
1026.23	0.00747
1037.8	0.00259
1049.37	0.00219
1060.95	0.00377
1072.52	0.00608
1084.1	0.00909
1095.67	0.0118
1107.24	0.00811
1118.82	0.00969
1130.39	0.00717
1141.97	0.0095
1153.54	0.02873
1165.11	0.06553
1176.69	0.07441
1188.26	0.0309
1199.83	0.01439
1211.41	0.01386
1222.98	0.01389
1234.56	0.01521
1246.13	0.01074
1257.7	0.01524
1269.28	0.04158
1280.85	0.06389
1292.42	0.02379
1304	0.0088
1315.57	0.00631
1327.15	0.00668
1338.72	0.01108
1350.29	0.02175
1361.87	0.01527
1373.44	0.01242
1385.02	0.01076
1396.59	0.00997
1408.16	0.00944
1419.74	0.00958
1431.31	0.01158
1442.88	0.01241
1454.46	0.01782
1466.03	0.04421
1477.61	0.08439
1489.18	0.06909
1500.75	0.0232
1512.33	0.01422
1523.9	0.01083
1535.48	0.012
1547.05	0.01783
1558.62	0.03563
1570.2	0.06568
1581.77	0.05545
1593.34	0.05715
1604.92	0.03873
1616.49	0.07654
1628.07	0.10153
1639.64	0.02763
1651.21	0.01385
1662.79	0.00734
1674.36	0.00594
1685.93	0.00564
1697.51	0.0046
1709.08	0.00524
1720.66	0.00491
1732.23	0.00455
1743.8	0.00413
1755.38	0.00309
1766.95	0.00376
1778.53	0.00398
1790.1	0.00303
1801.67	0.00255
1813.25	0.00218
1824.82	0.00233
1836.39	0.00226
1847.97	0.00235
1859.54	0.00244
1871.12	0.00275
1882.69	0.00378
1894.26	0.00359
1905.84	0.00177
1917.41	0.00196
1928.99	0.00257
1940.56	0.00299
1952.13	0.00318
1963.71	0.00159
1975.28	0.00124
1986.85	0.00119
1998.43	0.00116
2010	0.00122
2021.58	0.00134
2033.15	0.00143
2044.72	0.00147
2056.3	0.0017
2067.87	0.00197
2079.44	0.00174
2091.02	0.00145
2102.59	0.00131
2114.17	0.00124
2125.74	0.00123
2137.31	0.00122
2148.89	0.00118
2160.46	0.00124
2172.04	0.00129
2183.61	0.00138
2195.18	0.00142
2206.76	0.00155
2218.33	0.0016
2229.9	0.0017
2241.48	0.00167
2253.05	0.00172
2264.63	0.00185
2276.2	0.00183
2287.77	0.00183
2299.35	0.00191
2310.92	0.00215
2322.5	0.00226
2334.07	0.00259
2345.64	0.00261
2357.22	0.00246
2368.79	0.00233
2380.36	0.00247
2391.94	0.00268
2403.51	0.00284
2415.09	0.00296
2426.66	0.00296
2438.23	0.00304
2449.81	0.00312
2461.38	0.00319
2472.96	0.00336
2484.53	0.00353
2496.1	0.00363
2507.68	0.0038
2519.25	0.00389
2530.82	0.00413
2542.4	0.00449
2553.97	0.00483
2565.55	0.00504
2577.12	0.00517
2588.69	0.00529
2600.27	0.00553
2611.84	0.00588
2623.41	0.00623
2634.99	0.00674
2646.56	0.00672
2658.14	0.00632
2669.71	0.00629
2681.28	0.00675
2692.86	0.00709
2704.43	0.00731
2716.01	0.00747
2727.58	0.00793
2739.15	0.00835
2750.73	0.0086
2762.3	0.00844
2773.87	0.00857
2785.45	0.00893
2797.02	0.00959
2808.6	0.01018
2820.17	0.01046
2831.74	0.01043
2843.32	0.0104
2854.89	0.01079
2866.47	0.01182
2878.04	0.01451
2889.61	0.01788
2901.19	0.01507
2912.76	0.01261
2924.33	0.01194
2935.91	0.0118
2947.48	0.01185
2959.06	0.01231
2970.63	0.01362
2982.2	0.01517
2993.78	0.01446
3005.35	0.01435
3016.92	0.01529
3028.5	0.01818
3040.07	0.02118
3051.65	0.01908
3063.22	0.02207
3074.79	0.03155
3086.37	0.02464
3097.94	0.02055
3109.52	0.01589
3121.09	0.01378
3132.66	0.01322
3144.24	0.0131
3155.81	0.01309
3167.38	0.01313
3178.96	0.01273
3190.53	0.01207
3202.11	0.01159
3213.68	0.01151
3225.25	0.01131
3236.83	0.01118
3248.4	0.01049
3259.98	0.00975
3271.55	0.00907
3283.12	0.00839
3294.7	0.00788
3306.27	0.00733
3317.84	0.00674
3329.42	0.00623
3340.99	0.0057
3352.57	0.00522
3364.14	0.00465
3375.71	0.00423
3387.29	0.00385
3398.86	0.00352
3410.43	0.00309
3422.01	0.0027
3433.58	0.00242
3445.16	0.00224
3456.73	0.00208
3468.3	0.00172
3479.88	0.00156
3491.45	0.00143
3503.03	0.00139
3514.6	0.00127
3526.17	0.00103
3537.75	0.0009361
3549.32	0.0008955
3560.89	0.0008833
3572.47	0.00069
3584.04	0.0005452
3595.62	0.0007063
3607.19	0.0006343
3618.76	0.000638
3630.34	0.0006519
3641.91	0.0007695
3653.49	0.0007951
3665.06	0.0006056
3676.63	0.0004206
3688.21	0.0004825
3699.78	0.0006915
3711.35	0.0004962
3722.93	0.0004562
3734.5	0.0005304
3746.08	0.0003901
3757.65	0.0004798
3769.22	0.0004849
3780.8	0.0004549
3792.37	0.0004459
3803.94	0.0003953
3815.52	0.0003874
3827.09	0.0004638
3838.67	0.0004466
3850.24	0.0004656
3861.81	0.0005463
3873.39	0.0004705
3884.96	0.000266
3896.54	0.0003136
3908.11	0.0003977
3919.68	0.0004723
3931.26	0.0006095
3942.83	0.0003816
3954.4	0.0004307
3965.98	0.000566
3977.55	0.0005388
3989.13	0.0005089
4000.7	0.000698
