Infrared Spectrum: 1-Bromo-2,3,5,6-tetrafluorobenzene
Formula: C 6 H Br F 4
CAS: 1559-88-2
State: gas
Origin: EPA-IR VAPOR PHASE LIBRARY
1/CM	ABSORBANCE
549.8	0.000786
559.445	0.00062528
569.09	0.0013388
578.734	0.0008387
588.379	0.000452
598.024	0.0011732
607.669	0.000985
617.313	0.001627
626.958	0.001827
636.603	0.001747
646.248	0.0014641
655.893	0.001687
665.537	0.005137
675.182	0.007827
684.827	0.006627
694.472	0.016567
704.116	0.064457
713.761	0.133187
723.406	0.034317
733.051	0.007277
742.695	0.004667
752.34	0.002597
761.985	0.001997
771.63	0.001687
781.275	0.002447
790.919	0.004467
800.564	0.005817
810.209	0.005497
819.854	0.006787
829.498	0.022447
839.143	0.075367
848.788	0.111557
858.433	0.208907
868.078	0.174377
877.722	0.017747
887.367	0.018947
897.012	0.062207
906.657	0.153677
916.301	0.191937
925.946	0.227987
935.591	0.157047
945.236	0.050817
954.88	0.025747
964.525	0.026607
974.17	0.024517
983.815	0.011377
993.46	0.004157
1003.1	0.005717
1012.75	0.005657
1022.39	0.003227
1032.04	0.001817
1041.68	0.001927
1051.33	0.002907
1060.97	0.003327
1070.62	0.001847
1080.26	0.0010783
1089.91	0.002957
1099.55	0.004717
1109.2	0.005497
1118.84	0.009867
1128.49	0.045567
1138.13	0.061797
1147.78	0.020297
1157.42	0.018097
1167.07	0.076117
1176.71	0.130157
1186.36	0.088627
1196	0.038537
1205.64	0.028527
1215.29	0.029787
1224.93	0.044787
1234.58	0.117977
1244.22	0.123037
1253.87	0.052207
1263.51	0.028067
1273.16	0.013447
1282.8	0.004307
1292.45	0.003197
1302.09	0.003567
1311.74	0.004247
1321.38	0.004377
1331.03	0.005117
1340.67	0.006307
1350.32	0.009477
1359.96	0.018037
1369.61	0.018557
1379.25	0.014347
1388.9	0.016477
1398.54	0.011587
1408.18	0.008057
1417.83	0.016957
1427.47	0.052517
1437.12	0.152777
1446.76	0.151027
1456.41	0.036557
1466.05	0.024857
1475.7	0.043007
1485.34	0.168267
1494.99	0.645457
1504.63	1.01248
1514.28	0.732947
1523.92	0.213237
1533.57	0.035147
1543.21	0.022047
1552.86	0.015627
1562.5	0.011687
1572.15	0.010287
1581.79	0.009227
1591.44	0.013617
1601.08	0.032147
1610.73	0.080357
1620.37	0.120087
1630.01	0.059937
1639.66	0.019557
1649.3	0.008007
1658.95	0.006787
1668.59	0.010377
1678.24	0.018677
1687.88	0.020707
1697.53	0.010027
1707.17	0.003147
1716.82	0.002277
1726.46	0.002727
1736.11	0.003157
1745.75	0.003727
1755.4	0.003077
1765.04	0.002347
1774.69	0.001907
1784.33	0.001657
1793.98	0.0013344
1803.62	0.001757
1813.27	0.001697
1822.91	0.001627
1832.55	0.002517
1842.2	0.005627
1851.84	0.005547
1861.49	0.002167
1871.13	0.001897
1880.78	0.002197
1890.42	0.002277
1900.07	0.002277
1909.71	0.001907
1919.36	0.0015045
1929	0.0014325
1938.65	0.001787
1948.29	0.0014667
1957.94	0.0009782
1967.58	0.0009013
1977.23	0.001334
1986.87	0.002377
1996.52	0.003737
2006.16	0.003147
2015.81	0.002017
2025.45	0.0014306
2035.1	0.001727
2044.74	0.001757
2054.38	0.001797
2064.03	0.001827
2073.67	0.0013744
2083.32	0.0011226
2092.96	0.001627
2102.61	0.001957
2112.25	0.001817
2121.9	0.001667
2131.54	0.0012858
2141.19	0.0009865
2150.83	0.0008984
2160.48	0.0006941
2170.12	0.0009104
2179.77	0.0009401
2189.41	0.0009178
2199.06	0.0010991
2208.7	0.001857
2218.35	0.002227
2227.99	0.001827
2237.64	0.0014821
2247.28	0.001617
2256.92	0.001837
2266.57	0.001817
2276.21	0.001807
2285.86	0.002597
2295.5	0.003857
2305.15	0.004527
2314.79	0.004427
2324.44	0.003747
2334.08	0.003277
2343.73	0.004067
2353.37	0.005427
2363.02	0.006707
2372.66	0.006207
2382.31	0.003547
2391.95	0.002037
2401.6	0.001667
2411.24	0.0010368
2420.89	0.0010184
2430.53	0.0008076
2440.18	0.0010573
2449.82	0.0010071
2459.47	0.0012116
2469.11	0.0013541
2478.75	0.0015579
2488.4	0.0013875
2498.04	0.0012629
2507.69	0.001647
2517.33	0.002327
2526.98	0.002637
2536.62	0.002227
2546.27	0.003177
2555.91	0.004547
2565.56	0.006157
2575.2	0.006387
2584.85	0.004387
2594.49	0.002187
2604.14	0.002037
2613.78	0.002707
2623.43	0.003877
2633.07	0.004277
2642.72	0.003437
2652.36	0.002627
2662.01	0.0014516
2671.65	0.0009734
2681.29	0.0008722
2690.94	0.00066153
2700.58	0.00058434
2710.23	0.00064755
2719.87	0.0008404
2729.52	0.0007464
2739.16	0.0010419
2748.81	0.0011963
2758.45	0.0010855
2768.1	0.0011443
2777.74	0.001273
2787.39	0.0012345
2797.03	0.0014619
2806.68	0.0011548
2816.32	0.0012827
2825.97	0.0013554
2835.61	0.001394
2845.26	0.0015084
2854.9	0.001617
2864.55	0.001807
2874.19	0.002517
2883.84	0.003597
2893.48	0.004697
2903.12	0.003717
2912.77	0.001967
2922.41	0.0012556
2932.06	0.0012273
2941.7	0.001159
2951.35	0.0009713
2960.99	0.0009442
2970.64	0.0007791
2980.28	0.0009557
2989.93	0.00066791
2999.57	0.0006923
3009.22	0.00067087
3018.86	0.0008013
3028.51	0.00048
3038.15	0.0007658
3047.8	0.0008541
3057.44	0.0012347
3067.09	0.001937
3076.73	0.003967
3086.38	0.008567
3096.02	0.007187
3105.67	0.003587
3115.31	0.003597
3124.95	0.003117
3134.6	0.001997
3144.24	0.0009878
3153.89	0.0009636
3163.53	0.0006973
3173.18	0.0007292
3182.82	0.000909
3192.47	0.0005084
3202.11	0.0008548
3211.76	0.0008738
3221.4	0.0009017
3231.05	0.000839
3240.69	0.00064197
3250.34	0.0006927
3259.98	0.000592312
3269.63	0.00061674
3279.27	0.0005478
3288.92	0.0007725
3298.56	0.000487
3308.21	0.0006785
3317.85	0.000592361
3327.49	0.00059742
3337.14	0.000476
3346.78	0.0006999
3356.43	0.00065112
3366.07	0.0007655
3375.72	0.0005579
3385.36	0.00058013
3395.01	0.000904
3404.65	0.000457
3414.3	0.0007212
3423.94	0.0007809
3433.59	0.0005395
3443.23	0.00043
3452.88	0.0007389
3462.52	0.0007096
3472.17	0.0007498
3481.81	0.000439
3491.46	0.0006405
3501.1	0.000268
3510.75	0.00064853
3520.39	0.00061332
3530.04	0.00062981
3539.68	0.00057706
3549.32	0.0005195
3558.97	0.0005274
3568.61	0.0008699
3578.26	0.00062744
3587.9	0.000483
3597.55	0.0009301
3607.19	0.000744
3616.84	0.00067782
3626.48	0.0008405
3636.13	0.0009418
3645.77	0.00066374
3655.42	0.00061661
3665.06	0.000733
3674.71	0.0005431
3684.35	0.000707
3694	0.0005222
3703.64	0.0007748
3713.29	0.00063997
3722.93	0.0005529
3732.58	0.000483
3742.22	0.0008945
3751.86	0.0009425
3761.51	0.00068179
3771.15	0.0006967
3780.8	0.0007367
3790.44	0.0008682
3800.09	0.0010527
3809.73	0.0009232
3819.38	0.00062087
3829.02	0.0007569
3838.67	0.0008082
3848.31	0.000771
3857.96	0.0008728
3867.6	0.00065935
3877.25	0.0007722
3886.89	0.0007755
3896.54	0.00063018
3906.18	0.0007363
3915.83	0.0009205
3925.47	0.000588332
3935.12	0.00060328
3944.76	0.0010452
3954.41	0.0008114
3964.05	0.0007574
3973.69	0.00060576
3983.34	0.0005619
3992.98	0.0008077
