Infrared Spectrum: cis-1,2-Dichloroethylene
Formula: C 2 H 2 Cl 2
CAS: 156-59-2
State: gas
Instrument: HP-GC/MS/IRD
Origin: NIST Mass Spectrometry Data Center
1/CM	ABSORBANCE
550	0.0033712
562	0.0089768
574	0.0092414
586	0.0036554
598	0.0005488
610	0.0004606
622	0.0006566
634	0.0017052
646	0.0054684
658	0.0151214
670	0.0316834
682	0.0431984
694	0.0918162
706	0.0487158
718	0.04263
730	0.0301938
742	0.0155428
754	0.007448
766	0.0029204
778	0.001372
790	0.001372
802	0.0020776
814	0.0029694
826	0.011662
838	0.0592606
850	0.098
862	0.094227
874	0.0313306
886	0.0030674
898	0.0013132
910	0.0006174
922	0.0003626
934	0.0002058
946	0.0001176
958	0.0001078
970	6.86e-05
982	0.0001078
994	0.000147
1006	0.0002646
1018	0.0003822
1030	0.000343
1042	0.0001666
1054	3.92e-05
1066	7.84e-05
1078	0.0001372
1090	0.0004606
1102	0.0003528
1114	0.0002548
1126	9.8e-05
1138	0.0001078
1150	0.000196
1162	0.0002646
1174	0.0003038
1186	0.0002352
1198	0.0002646
1210	0.0003626
1222	0.0003626
1234	0.0004606
1246	0.0007252
1258	0.001764
1270	0.0043708
1282	0.0134652
1294	0.0331142
1306	0.0278026
1318	0.0201978
1330	0.0020776
1342	0.0005684
1354	0.0004998
1366	0.0007154
1378	0.001029
1390	0.0009506
1402	0.0011172
1414	0.0007252
1426	0.0005684
1438	0.0005292
1450	0.0006076
1462	0.000882
1474	0.0008232
1486	0.0007742
1498	0.0005096
1510	0.000882
1522	0.0018326
1534	0.0052822
1546	0.0162582
1558	0.0265678
1570	0.033712
1582	0.0300468
1594	0.0256466
1606	0.018522
1618	0.0073304
1630	0.002401
1642	0.0006664
1654	0.0004312
1666	0.0005194
1678	0.000784
1690	0.0012838
1702	0.0018914
1714	0.0018816
1726	0.0020384
1738	0.0010486
1750	0.0005978
1762	0.0003528
1774	0.0002156
1786	0.0001372
1798	0.0001274
1810	0.0001176
1822	8.82e-05
1834	0.0001078
1846	5.88e-05
1858	0.0001274
1870	0.0001274
1882	0.0001372
1894	9.8e-05
1906	0.0001078
1918	6.86e-05
1930	7.84e-05
1942	8.82e-05
1954	6.86e-05
1966	7.84e-05
1978	9.8e-05
1990	6.86e-05
2002	4.9e-05
2014	3.92e-05
2026	5.88e-05
2038	5.88e-05
2050	8.82e-05
2062	4.9e-05
2074	2.94e-05
2086	4.9e-05
2098	0.0001078
2110	0.0001274
2122	0.0002058
2134	0.000245
2146	0.0002646
2158	0.000245
2170	0.0002254
2182	0.0001176
2194	0.0001176
2206	0.0001176
2218	0.0001274
2230	0.0001372
2242	0.0001078
2254	0.0001078
2266	0.0001666
2278	0.0002352
2290	0.0002058
2302	0.000245
2314	0.0002254
2326	0.000147
2338	0.0002058
2350	0.0001666
2362	0.0003332
2374	0.0003822
2386	0.0004116
2398	0.0003528
2410	0.0002744
2422	0.0002646
2434	0.0002548
2446	0.0001274
2458	8.82e-05
2470	7.84e-05
2482	9.8e-05
2494	6.86e-05
2506	9.8e-05
2518	9.8e-05
2530	0.0001078
2542	3.92e-05
2554	1.96e-05
2566	6.86e-05
2578	8.82e-05
2590	6.86e-05
2602	3.92e-05
2614	4.9e-05
2626	2.94e-05
2638	3.92e-05
2650	1.96e-05
2662	8.82e-05
2674	3.92e-05
2686	7.84e-05
2698	9.8e-06
2710	9.8e-06
2722	1.96e-05
2734	0.0001176
2746	0.0001666
2758	0.000196
2770	0.0002156
2782	0.0001078
2794	7.84e-05
2806	5.88e-05
2818	0.0001078
2830	0.0002548
2842	0.0004312
2854	0.000833
2866	0.0010388
2878	0.0009506
2890	0.0005488
2902	0.000196
2914	0.0001568
2926	9.8e-05
2938	0.0001176
2950	9.8e-05
2962	0.0001764
2974	8.82e-05
2986	9.8e-05
2998	0.0003038
3010	0.0003234
3022	0.000441
3034	0.0006664
3046	0.0011466
3058	0.0034202
3070	0.0112896
3082	0.0153664
3094	0.0153076
3106	0.0043022
3118	0.0009212
3130	0.0004606
3142	0.0003332
3154	0.000294
3166	0.0002058
3178	0.0001274
3190	0.0001666
3202	9.8e-05
3214	8.82e-05
3226	8.82e-05
3238	5.88e-05
3250	0.0001078
3262	7.84e-05
3274	0.0001666
3286	6.86e-05
3298	9.8e-05
3310	2.94e-05
3322	7.84e-05
3334	8.82e-05
3346	7.84e-05
3358	0.0001078
3370	0.0001274
3382	6.86e-05
3394	0.0001862
3406	0.0001078
3418	0.0001274
3430	0.0001764
3442	0.0001176
3454	0.0002058
3466	0.0001078
3478	0.0001862
3490	0.0001078
3502	8.82e-05
3514	0.0001078
3526	5.88e-05
3538	9.8e-05
3550	0.0001274
3562	0.0001372
3574	6.86e-05
3586	9.8e-05
3598	0.000147
3610	0.0001274
3622	0.0002352
3634	0.000294
3646	0.0004018
3658	0.000392
3670	0.0003234
3682	0.0001078
3694	0.0001176
3706	9.8e-05
3718	0.000245
3730	0.0002352
3742	0.0002548
3754	0.000196
3766	0.0002842
3778	0.0001764
3790	0.0003724
3802	0.0003136
3814	0.0001568
3826	0.000245
3838	0.0001176
