Infrared Spectrum: 4-Chloro-2,6-diaminopyrimidine
Formula: C 4 H 5 Cl N 4
CAS: 156-83-2
State: gas
Instrument: HP-GC/MS/IRD
Origin: NIST Mass Spectrometry Data Center
1/CM	ABSORBANCE
550	0.0018225
562	0.0019602
574	0.0013608
586	0.0014013
598	0.0014337
610	0.0021465
622	0.0023814
634	0.001701
646	0.0013689
658	0.0017496
670	0.0031995
682	0.0039933
694	0.003726
706	0.0034749
718	0.0039123
730	0.0048843
742	0.0049005
754	0.0046332
766	0.0053136
778	0.005427
790	0.0064314
802	0.0076059
814	0.0065205
826	0.0056295
838	0.0044226
850	0.0033777
862	0.003159
874	0.0046656
886	0.0110241
898	0.0130653
910	0.0047466
922	0.0021141
934	0.0016524
946	0.001377
958	0.0013851
970	0.0020169
982	0.0020007
994	0.001296
1006	0.0014337
1018	0.0012798
1030	0.0007614
1042	0.0006723
1054	0.0005022
1066	0.000324
1078	0.0001539
1090	0.0001053
1102	0.0001539
1114	0.0003969
1126	0.0011826
1138	0.003888
1150	0.0056376
1162	0.0034911
1174	0.0015147
1186	0.0004617
1198	0.0003321
1210	0.0003402
1222	0.0005832
1234	0.0009396
1246	0.0013932
1258	0.0019197
1270	0.0018468
1282	0.0011016
1294	0.0007209
1306	0.0007128
1318	0.0008991
1330	0.0013527
1342	0.0034101
1354	0.0112104
1366	0.0136485
1378	0.005751
1390	0.0028512
1402	0.0051597
1414	0.0121176
1426	0.0193833
1438	0.0182412
1450	0.0112347
1462	0.0087156
1474	0.0072657
1486	0.0029484
1498	0.0029322
1510	0.0038718
1522	0.0053541
1534	0.0082296
1546	0.0187272
1558	0.0495234
1570	0.0595431
1582	0.0334854
1594	0.0450522
1606	0.0789183
1618	0.0669708
1630	0.02268
1642	0.0081972
1654	0.0042525
1666	0.0026973
1678	0.0019683
1690	0.0015957
1702	0.0012555
1714	0.0008019
1726	0.0004617
1738	0.000405
1750	0.0004455
1762	0.0003969
1774	0.0003321
1786	0.0002835
1798	0.000243
1810	0.0002268
1822	0.0001944
1834	0.0001701
1846	0.0001863
1858	0.0001944
1870	0.0001539
1882	0.0001053
1894	0.0001377
1906	0.0001296
1918	0.0001701
1930	0.0002025
1942	0.000243
1954	0.0002187
1966	0.0002511
1978	0.0002997
1990	0.0002673
2002	0.000243
2014	0.0002754
2026	0.0002673
2038	0.0002268
2050	0.0002025
2062	0.0002025
2074	0.0001782
2086	0.0001701
2098	0.0002025
2110	0.000243
2122	0.0002754
2134	0.0002673
2146	0.0002835
2158	0.000324
2170	0.0003645
2182	0.0003726
2194	0.0003159
2206	0.0003321
2218	0.0003726
2230	0.0003402
2242	0.0002916
2254	0.0002754
2266	0.0002673
2278	0.0002187
2290	0.0001944
2302	0.0002025
2314	0.0002106
2326	0.0002268
2338	0.0002268
2350	0.000162
2362	9.72e-05
2374	7.29e-05
2386	0.0001053
2398	0.0001377
2410	0.0001701
2422	0.0001539
2434	0.0001863
2446	0.0002187
2458	0.0001944
2470	0.0001539
2482	0.0001377
2494	0.0001782
2506	0.000162
2518	0.0001701
2530	0.0001944
2542	0.0002187
2554	0.0002268
2566	0.0002268
2578	0.0002511
2590	0.0001944
2602	0.0002835
2614	0.0002511
2626	0.0002349
2638	0.0002106
2650	0.0002349
2662	0.000243
2674	0.000243
2686	0.0003078
2698	0.0003564
2710	0.0003483
2722	0.0004293
2734	0.0003969
2746	0.0003078
2758	0.0002511
2770	0.0001701
2782	0.0001863
2794	0.0001215
2806	0.0001215
2818	0.0001215
2830	0.0001215
2842	0.0001053
2854	8.91e-05
2866	0.0001134
2878	7.29e-05
2890	7.29e-05
2902	5.67e-05
2914	3.24e-05
2926	9.72e-05
2938	8.91e-05
2950	9.72e-05
2962	0.0001134
2974	0.0001296
2986	0.0001053
2998	0.0001053
3010	0.0001944
3022	0.000162
3034	0.0002511
3046	0.0002187
3058	0.000243
3070	0.0002511
3082	0.0003159
3094	0.0003726
3106	0.0003078
3118	0.0002754
3130	0.0002916
3142	0.0002673
3154	0.0002754
3166	0.0003888
3178	0.0003645
3190	0.0003483
3202	0.0002592
3214	0.0002592
3226	0.0002025
3238	0.0002025
3250	0.0001782
3262	0.0001782
3274	0.0001539
3286	0.0001458
3298	0.0001215
3310	0.0001539
3322	0.000162
3334	0.0001377
3346	0.0002106
3358	0.0002349
3370	0.0002754
3382	0.0004374
3394	0.0007533
3406	0.0017982
3418	0.0038799
3430	0.0056295
3442	0.007695
3454	0.008019
3466	0.0042606
3478	0.0015471
3490	0.0010044
3502	0.0011826
3514	0.0018873
3526	0.0027054
3538	0.0027945
3550	0.0032724
3562	0.0045441
3574	0.0037989
3586	0.001782
3598	0.0008748
3610	0.0004941
3622	0.000324
3634	0.0002673
3646	0.0002997
3658	0.0002592
3670	0.0002349
3682	0.0002673
3694	0.0002592
3706	0.0002511
3718	0.000243
3730	0.0002997
3742	0.0001782
3754	0.0002511
3766	0.0002916
3778	0.000162
3790	0.0002268
3802	0.0002673
3814	0.0002349
3826	0.0002349
3838	0.0002268
