Infrared Spectrum: Ethanethiol, 2-amino-, hydrochloride
Formula: C2 H8 Cl N S
CAS: 156-57-0
State: SOLID (KBr DISC)
Class: COBLENTZ
Instrument: PERKIN-ELMER 157
Sampling: TRANSMISSION
Resolution: 2
Origin: BRITISH PETROLEUM CO. LTD., ENGLAND
1/CM	TRANSMITTANCE
668	0.6261
677	0.6975
686	0.7512
695	0.7372
704	0.7152
713	0.6426
722	0.5642
731	0.4614
740	0.6489
749	0.5958
758	0.4535
767	0.1097
776	0.4644
785	0.652
794	0.6133
803	0.4745
812	0.2091
821	0.65
830	0.6279
839	0.5643
848	0.5648
857	0.5187
866	0.4415
875	0.3092
884	0.1778
893	0.1494
902	0.2571
911	0.3945
920	0.2137
929	0.0822
938	0.0974
947	0.1387
956	0.6087
965	0.6116
974	0.5903
983	0.5665
992	0.515
1001	0.467
1010	0.2942
1019	0.2978
1028	0.1684
1037	0.4398
1046	0.4313
1055	0.3193
1064	0.0686
1073	0.2997
1082	0.1901
1091	0.0506
1100	0.113
1109	0.1788
1118	0.3473
1127	0.2433
1136	0.1043
1145	0.1329
1154	0.3482
1163	0.5028
1172	0.5089
1181	0.497
1190	0.4804
1199	0.4608
1208	0.4355
1217	0.405
1226	0.3328
1235	0.1673
1244	0.0942
1253	0.1611
1262	0.0886
1271	0.3788
1280	0.3979
1289	0.4053
1298	0.3802
1307	0.3164
1316	0.2106
1325	0.2134
1334	0.1468
1343	0.3269
1352	0.2852
1361	0.1842
1370	0.1461
1379	0.0694
1388	0.194
1397	0.0966
1406	0.119
1415	0.1319
1424	0.1245
1433	0.0697
1442	0.0471
1451	0.0213
1460	0.0191
1469	0.0216
1478	0.0274
1487	0.0583
1496	0.076
1505	0.0997
1514	0.2038
1523	0.2063
1532	0.2045
1541	0.1709
1550	0.1529
1559	0.1184
1568	0.0882
1577	0.0628
1586	0.0379
1595	0.0435
1604	0.068
1613	0.1733
1622	0.2362
1631	0.2628
1640	0.3426
1649	0.3799
1658	0.3889
1667	0.3982
1676	0.3972
1685	0.3879
1694	0.3856
1703	0.3844
1712	0.3834
1721	0.3794
1730	0.3725
1739	0.3702
1748	0.369
1757	0.3676
1766	0.3672
1775	0.3612
1784	0.3527
1793	0.3449
1802	0.342
1811	0.3336
1820	0.3216
1829	0.3092
1838	0.3026
1847	0.2858
1856	0.2773
1865	0.2723
1874	0.2721
1883	0.2717
1892	0.2695
1901	0.2644
1910	0.2588
1919	0.2526
1928	0.2454
1937	0.239
1946	0.2367
1955	0.2338
1964	0.2176
1973	0.2011
1982	0.1839
1991	0.1672
2000	0.1542
2009	0.1438
2018	0.1354
2027	0.13
2036	0.1312
2045	0.1332
2054	0.1364
2063	0.1415
2072	0.1469
2081	0.1529
2090	0.1659
2099	0.1968
2108	0.208
2117	0.214
2126	0.2173
2135	0.2189
2144	0.2194
2153	0.2193
2162	0.219
2171	0.2185
2180	0.218
2189	0.2165
2198	0.2149
2207	0.2125
2216	0.209
2225	0.2044
2234	0.201
2243	0.1963
2252	0.1867
2261	0.1798
2270	0.1759
2279	0.1732
2288	0.1715
2297	0.1686
2306	0.1624
2315	0.1553
2324	0.1439
2333	0.1269
2342	0.1139
2351	0.1028
2360	0.0926
2369	0.0853
2378	0.0798
2387	0.0778
2396	0.082
2405	0.0856
2414	0.0854
2423	0.083
2432	0.0794
2441	0.0748
2450	0.0675
2459	0.0489
2468	0.0463
2477	0.0433
2486	0.0402
2495	0.0377
2504	0.0354
2513	0.0345
2522	0.0337
2531	0.0331
2540	0.0326
2549	0.0321
2558	0.03
2567	0.0239
2576	0.0194
2585	0.0188
2594	0.0181
2603	0.0177
2612	0.0173
2621	0.0169
2630	0.0167
2639	0.0165
2648	0.0162
2657	0.0159
2666	0.0157
2675	0.0155
2684	0.0154
2693	0.0153
2702	0.0151
2711	0.015
2720	0.0149
2729	0.0148
2738	0.0147
2747	0.0145
2756	0.0144
2765	0.0142
2774	0.0141
2783	0.0139
2792	0.0138
2801	0.0138
2810	0.0138
2819	0.0138
2828	0.0138
2837	0.0138
2846	0.0138
2855	0.0138
2864	0.0139
2873	0.014
2882	0.0142
2891	0.0145
2900	0.0146
2909	0.0149
2918	0.0151
2927	0.0152
2936	0.0156
2945	0.0161
2954	0.0165
2963	0.017
2972	0.0174
2981	0.018
2990	0.0189
2999	0.02
3008	0.0216
3017	0.0237
3026	0.0259
3035	0.028
3044	0.0296
3053	0.0306
3062	0.0316
3071	0.0325
3080	0.033
3089	0.0333
3098	0.0337
3107	0.034
3116	0.0342
3125	0.0343
3134	0.0343
3143	0.0349
3152	0.0381
3161	0.045
3170	0.056
3179	0.0649
3188	0.0721
3197	0.0826
3206	0.0939
3215	0.1074
3224	0.1304
3233	0.1617
3242	0.1777
3251	0.1814
3260	0.1829
3269	0.1831
3278	0.1829
3287	0.1826
3296	0.1816
3305	0.1802
3314	0.176
3323	0.1724
3332	0.1676
3341	0.1605
3350	0.1516
3359	0.1393
3368	0.1283
3377	0.1236
3386	0.1188
3395	0.1181
3404	0.1179
3413	0.1179
3422	0.118
3431	0.118
3440	0.118
3449	0.1183
3458	0.1194
3467	0.1212
3476	0.1249
3485	0.1311
3494	0.1398
3503	0.1504
3512	0.1621
3521	0.1725
3530	0.1765
3539	0.1799
3548	0.1833
3557	0.1874
3566	0.1918
3575	0.2011
3584	0.2127
3593	0.2222
3602	0.2298
3611	0.2351
3620	0.2388
3629	0.2397
3638	0.2402
3647	0.2407
3656	0.2407
3665	0.2404
3674	0.24
3683	0.2397
3692	0.2392
3701	0.2379
3710	0.2366
3719	0.2353
3728	0.2339
3737	0.2322
3746	0.2307
3755	0.2291
3764	0.2272
3773	0.225
3782	0.2228
3791	0.2206
3800	0.2184
3809	0.216
3818	0.2135
3827	0.2111
3836	0.2086
3845	0.2062
3854	0.2037
3863	0.2013
3872	0.1991
3881	0.197
3890	0.1948
3899	0.1926
3908	0.1905
3917	0.1884
3926	0.1862
3935	0.1841
3944	0.1821
3953	0.18
3962	0.1778
3971	0.1758
3980	0.1737
3989	0.1717
3998	0.1699
