Infrared Spectrum: BUTANOIC ACID, SODIUM SALT
Formula: C4 H7 O2 Na
CAS: 156-54-7
State: SOLID (SPLIT MULL, FLUOROLUBE FOR 3800-1333 AND NUJOL FOR 1333-400 CM ^-^1)
Class: COBLENTZ III
Instrument: BECKMAN IR-9 (GRATING)
Instrument parameters: ORDER CHANGES AT 670, 1200, 2000 CM^-^1
Sampling: TRANSMISSION
Resolution: 4
Origin: DOW CHEMICAL COMPANY
1/CM	TRANSMITTANCE
401.051	0.582
409.808	0.584
418.564	0.61
427.321	0.655
436.077	0.727
444.834	0.77
453.591	0.8
462.347	0.829
471.104	0.85
479.86	0.85
488.617	0.827
497.374	0.853
506.13	0.86
514.887	0.876
523.643	0.9
532.4	0.909
541.156	0.924
549.913	0.932
558.67	0.937
567.426	0.939
576.183	0.935
584.939	0.935
593.696	0.939
602.453	0.953
611.209	0.956
619.966	0.948
628.722	0.943
637.479	0.958
646.236	0.954
654.992	0.941
663.749	0.972
672.505	0.982
681.262	0.978
690.019	0.974
698.775	0.935
707.532	0.93
716.288	0.93
725.045	0.894
733.801	0.919
742.558	0.948
751.315	0.926
760.071	0.941
768.828	0.969
777.584	0.978
786.341	0.983
795.098	0.987
803.854	0.986
812.611	0.974
821.367	0.942
830.124	0.987
838.881	1.004
847.637	1.006
856.394	1.009
865.15	1.015
873.907	1.004
882.664	0.953
891.42	0.976
900.177	0.986
908.933	1.012
917.69	1.012
926.446	0.993
935.203	0.995
943.96	1.006
952.716	1.009
961.473	1.01
970.229	1.009
978.986	1.009
987.743	1.01
996.499	1.009
1005.26	0.997
1014.01	0.982
1022.77	0.994
1031.53	1
1040.28	0.997
1049.04	0.993
1057.8	0.993
1066.55	0.994
1075.31	0.967
1084.07	0.967
1092.82	0.978
1101.58	0.968
1110.33	0.972
1119.09	0.971
1127.85	0.98
1136.6	0.984
1145.36	0.986
1154.12	0.984
1162.87	0.986
1171.63	0.989
1180.39	0.989
1189.14	0.994
1197.9	0.997
1206.66	1.004
1215.41	1.002
1224.17	1.001
1232.93	1
1241.68	0.986
1250.44	0.976
1259.2	0.913
1267.95	0.961
1276.71	0.978
1285.47	0.958
1294.22	0.912
1302.98	0.89
1311.74	0.93
1320.49	0.948
1329.25	0.964
1338.01	0.938
1346.76	0.882
1355.52	0.919
1364.28	0.935
1373.03	0.8819
1381.79	0.859
1390.55	0.913
1399.3	0.896
1408.06	0.835
1416.82	0.688
1425.57	0.588
1434.33	0.563
1443.09	0.655
1451.84	0.677
1460.6	0.749
1469.36	0.694
1478.11	0.842
1486.87	0.887
1495.62	0.894
1504.38	0.886
1513.14	0.868
1521.89	0.835
1530.65	0.772
1539.41	0.679
1548.16	0.491
1556.92	0.231
1565.68	0.068
1574.43	0.173
1583.19	0.346
1591.95	0.503
1600.7	0.645
1609.46	0.755
1618.22	0.815
1626.97	0.852
1635.73	0.876
1644.49	0.889
1653.24	0.902
1662	0.909
1670.76	0.917
1679.51	0.923
1688.27	0.931
1697.03	0.934
1705.78	0.934
1714.54	0.945
1723.3	0.961
1732.05	0.975
1740.81	0.979
1749.57	0.983
1758.32	0.989
1767.08	0.993
1775.84	0.995
1784.59	0.998
1793.35	1
1802.11	1
1810.86	1.001
1819.62	1.001
1828.38	1.001
1837.13	1.002
1845.89	1.002
1854.65	1.004
1863.4	1.004
1872.16	1.004
1880.91	1.005
1889.67	1.006
1898.43	1.008
1907.18	1.008
1915.94	1.008
1924.7	1.008
1933.45	1.008
1942.21	1.009
1950.97	1.009
1959.72	1.009
1968.48	1.009
1977.24	1.008
1985.99	1.008
1994.75	1.008
2003.51	1
2012.26	1.012
2021.02	1.015
2029.78	1.015
2038.53	1.013
2047.29	1.013
2056.05	1.013
2064.8	1.012
2073.56	1.009
2082.32	1.009
2091.07	1.009
2099.83	1.0091
2108.59	1.009
2117.34	1.008
2126.1	1.0059
2134.86	1.0038
2143.61	1.0009
2152.37	1
2161.13	1
2169.88	1
2178.64	0.9982
2187.4	0.991
2196.15	0.993
2204.91	0.991
2213.67	0.991
2222.42	0.99
2231.18	0.9887
2239.94	0.984
2248.69	0.98
2257.45	0.9777
2266.2	0.976
2274.96	0.974
2283.72	0.972
2292.47	0.972
2301.23	0.969
2309.99	0.969
2318.74	0.969
2327.5	0.969
2336.26	0.969
2345.01	0.971
2353.77	0.969
2362.53	0.971
2371.28	0.971
2380.04	0.9712
2388.8	0.974
2397.55	0.975
2406.31	0.975
2415.07	0.976
2423.82	0.976
2432.58	0.976
2441.34	0.976
2450.09	0.976
2458.85	0.976
2467.61	0.976
2476.36	0.976
2485.12	0.976
2493.88	0.978
2502.63	0.979
2511.39	0.98
2520.15	0.982
2528.9	0.9834
2537.66	0.984
2546.42	0.983
2555.17	0.983
2563.93	0.984
2572.69	0.984
2581.44	0.982
2590.2	0.9824
2598.96	0.983
2607.71	0.984
2616.47	0.984
2625.23	0.984
2633.98	0.983
2642.74	0.982
2651.49	0.982
2660.25	0.98
2669.01	0.98
2677.76	0.98
2686.52	0.979
2695.28	0.9785
2704.03	0.9785
2712.79	0.976
2721.55	0.975
2730.3	0.97
2739.06	0.971
2747.82	0.971
2756.57	0.971
2765.33	0.969
2774.09	0.969
2782.84	0.9685
2791.6	0.9619
2800.36	0.96
2809.11	0.958
2817.87	0.953
2826.63	0.9484
2835.38	0.943
2844.14	0.938
2852.9	0.9329
2861.65	0.911
2870.41	0.8815
2879.17	0.8653
2887.92	0.8928
2896.68	0.897
2905.44	0.8832
2914.19	0.8692
2922.95	0.8295
2931.71	0.7745
2940.46	0.7666
2949.22	0.7751
2957.98	0.6249
2966.73	0.7076
2975.49	0.7667
2984.25	0.8411
2993	0.8829
3001.76	0.902
3010.52	0.9117
3019.27	0.9167
3028.03	0.919
3036.78	0.9193
3045.54	0.92
3054.3	0.92
3063.05	0.9206
3071.81	0.92
3080.57	0.92
3089.32	0.9175
3098.08	0.916
3106.84	0.9135
3115.59	0.911
3124.35	0.909
3133.11	0.906
3141.86	0.9042
3150.62	0.8977
3159.38	0.894
3168.13	0.89
3176.89	0.887
3185.65	0.886
3194.4	0.883
3203.16	0.879
3211.92	0.875
3220.67	0.871
3229.43	0.868
3238.19	0.8642
3246.94	0.861
3255.7	0.8573
3264.46	0.8543
3273.21	0.853
3281.97	0.852
3290.73	0.852
3299.48	0.8503
3308.24	0.8491
3317	0.849
3325.75	0.848
3334.51	0.846
3343.27	0.846
3352.02	0.846
3360.78	0.846
3369.54	0.846
3378.29	0.846
3387.05	0.846
3395.81	0.846
3404.56	0.846
3413.32	0.846
3422.07	0.846
3430.83	0.8479
3439.59	0.848
3448.34	0.848
3457.1	0.849
3465.86	0.852
3474.61	0.854
3483.37	0.859
3492.13	0.863
3500.88	0.87
3509.64	0.874
3518.4	0.878
3527.15	0.883
3535.91	0.889
3544.67	0.8911
3553.42	0.896
3562.18	0.9021
3570.94	0.9061
3579.69	0.908
3588.45	0.9081
3597.21	0.9151
3605.96	0.9171
3614.72	0.9231
3623.48	0.924
3632.23	0.926
3640.99	0.9271
3649.75	0.93
3658.5	0.93
3667.26	0.93
3676.02	0.9301
3684.77	0.931
3693.53	0.931
3702.29	0.932
3711.04	0.932
3719.8	0.932
3728.56	0.932
3737.31	0.932
3746.07	0.932
3754.83	0.932
3763.58	0.932
3772.34	0.932
3781.1	0.9318
3789.85	0.931
