Infrared Spectrum: Benzphetamine
Formula: C 17 H 21 N
CAS: 156-08-1
State: gas
Instrument: HP-GC/MS/IRD
Origin: NIST Mass Spectrometry Data Center
1/CM	ABSORBANCE
550	0.0004144
562	0.0001918
574	0.0001575
586	0.0001715
598	0.0003199
610	0.0002303
622	0.0003507
634	0.0002121
646	0.0002114
658	0.0004277
670	0.0009191
682	0.0019411
694	0.006419
706	0.004543
718	0.0035749
730	0.0059066
742	0.0047523
754	0.0014896
766	0.0008043
778	0.0006125
790	0.0005362
802	0.000441
814	0.0002884
826	0.0002625
838	0.0002121
850	0.0002058
862	0.0002268
874	0.0002534
886	0.0004249
898	0.0005943
910	0.0005817
922	0.0002842
934	0.0003605
946	0.0006965
958	0.0012306
970	0.0008379
982	0.0008603
994	0.0009352
1006	0.0008155
1018	0.0016338
1030	0.0031647
1042	0.0022568
1054	0.0019208
1066	0.0019628
1078	0.0018424
1090	0.00182
1102	0.0019026
1114	0.0020384
1126	0.0022386
1138	0.0020335
1150	0.0019054
1162	0.001498
1174	0.0011466
1186	0.001183
1198	0.0012474
1210	0.0012173
1222	0.0012026
1234	0.0010983
1246	0.0010087
1258	0.0009086
1270	0.0008057
1282	0.0009009
1294	0.001022
1306	0.0009408
1318	0.0012607
1330	0.0014399
1342	0.0016982
1354	0.0021371
1366	0.0024493
1378	0.0022281
1390	0.0011809
1402	0.0005656
1414	0.0005551
1426	0.0008911
1438	0.0013622
1450	0.0028721
1462	0.0024724
1474	0.0014238
1486	0.001813
1498	0.0028133
1510	0.0006552
1522	0.0003066
1534	0.0002898
1546	0.0002198
1558	0.0002744
1570	0.0003661
1582	0.000637
1594	0.0012026
1606	0.0012831
1618	0.0004256
1630	0.0002485
1642	0.0001589
1654	0.0001652
1666	0.0001393
1678	7.98e-05
1690	8.82e-05
1702	8.47e-05
1714	8.47e-05
1726	0.0001022
1738	0.0001687
1750	0.0001253
1762	8.61e-05
1774	0.0001659
1786	0.0002576
1798	0.0004319
1810	0.0002597
1822	0.0001288
1834	0.0001148
1846	0.0001421
1858	0.0002268
1870	0.0002926
1882	0.0002331
1894	0.0001393
1906	0.0001092
1918	0.0001561
1930	0.000343
1942	0.0004249
1954	0.0003388
1966	0.0001218
1978	6.16e-05
1990	5.46e-05
2002	1.33e-05
2014	1.61e-05
2026	3.43e-05
2038	3.57e-05
2050	3.01e-05
2062	1.61e-05
2074	1.4e-05
2086	1.68e-05
2098	1.82e-05
2110	1.47e-05
2122	1.75e-05
2134	3.71e-05
2146	2.31e-05
2158	3.22e-05
2170	5.53e-05
2182	3.85e-05
2194	2.03e-05
2206	2.24e-05
2218	3.22e-05
2230	2.66e-05
2242	4.62e-05
2254	4.2e-05
2266	3.5e-05
2278	1.12e-05
2290	3.22e-05
2302	5.53e-05
2314	9.1e-05
2326	7.84e-05
2338	9.24e-05
2350	6.3e-05
2362	7.28e-05
2374	2.1e-05
2386	4.62e-05
2398	3.92e-05
2410	8.19e-05
2422	4.34e-05
2434	4.9e-05
2446	5.11e-05
2458	2.94e-05
2470	4.69e-05
2482	6.86e-05
2494	1.82e-05
2506	5.74e-05
2518	6.93e-05
2530	5.6e-05
2542	7.35e-05
2554	6.93e-05
2566	9.66e-05
2578	0.0001183
2590	0.0001442
2602	0.0001785
2614	0.0001806
2626	0.0001834
2638	0.0001456
2650	0.0001701
2662	0.0002128
2674	0.0002653
2686	0.0002912
2698	0.0003962
2710	0.0004424
2722	0.0004571
2734	0.0005152
2746	0.0006832
2758	0.0010213
2770	0.0018207
2782	0.0032053
2794	0.0046753
2806	0.0041489
2818	0.0029267
2830	0.0024472
2842	0.0027587
2854	0.0031038
2866	0.0026264
2878	0.0027615
2890	0.0029589
2902	0.0029561
2914	0.0036505
2926	0.0048237
2938	0.0058604
2950	0.0048195
2962	0.0046963
2974	0.0063546
2986	0.0040726
2998	0.0020237
3010	0.0019922
3022	0.0036575
3034	0.0054698
3046	0.0030723
3058	0.0034832
3070	0.005929
3082	0.0035546
3094	0.0022855
3106	0.0012873
3118	0.0006734
3130	0.000343
3142	0.000259
3154	0.0002114
3166	0.000217
3178	0.0001575
3190	0.0001918
3202	0.000119
3214	0.0001141
3226	9.73e-05
3238	5.88e-05
3250	8.05e-05
3262	5.74e-05
3274	3.85e-05
3286	7.7e-05
3298	5.32e-05
3310	5.32e-05
3322	3.64e-05
3334	4.9e-05
3346	2.03e-05
3358	3.36e-05
3370	6.44e-05
3382	4.48e-05
3394	9.52e-05
3406	8.47e-05
3418	8.89e-05
3430	7.56e-05
3442	8.96e-05
3454	0.0001057
3466	6.09e-05
3478	8.75e-05
3490	6.72e-05
3502	4.2e-05
3514	0.0001085
3526	6.37e-05
3538	7.42e-05
3550	4.34e-05
3562	8.47e-05
3574	9.1e-05
3586	6.23e-05
3598	5.88e-05
3610	9.24e-05
3622	8.05e-05
3634	0.0001344
3646	0.0001071
3658	0.0001288
3670	0.0001316
3682	0.0001204
3694	0.000154
3706	9.59e-05
3718	0.0001169
3730	0.0001631
3742	0.0001351
3754	0.0001708
3766	0.0001358
3778	0.0001176
3790	8.68e-05
3802	0.0001064
3814	0.0001386
3826	0.0001281
3838	0.0001176
