Infrared Spectrum: 2-HEXENAL, 2,4-DINITROPHENYL HYDRAZONE
Formula: C12 H14 N4 O4
CAS: 1560-68-5
State: SOLID (KBr PELLET)
Melting point: 144 C
Class: COBLENTZ
Instrument: Not specified, most likely a prism, grating, or hybrid spectrometer.
Sampling: TRANSMISSION
Resolution: 4
MICROMETERS	TRANSMITTANCE
2.013	0.529
2.04637	0.532
2.07973	0.538
2.1131	0.54
2.14646	0.547
2.17983	0.548
2.2132	0.552
2.24656	0.555
2.27993	0.559
2.31329	0.56
2.34666	0.564
2.38003	0.568
2.41339	0.575
2.44676	0.58
2.48012	0.581
2.51349	0.588
2.54686	0.595
2.58022	0.596
2.61359	0.599
2.64696	0.6
2.68032	0.599
2.71369	0.591
2.74705	0.572
2.78042	0.568
2.81379	0.556
2.84715	0.551
2.88052	0.541
2.91388	0.544
2.94725	0.552
2.98062	0.568
3.01398	0.579
3.04735	0.353
3.08071	0.572
3.11408	0.626
3.14745	0.649
3.18081	0.659
3.21418	0.6
3.24754	0.622
3.28091	0.633
3.31428	0.62
3.34764	0.6
3.38101	0.481
3.41437	0.512
3.44774	0.549
3.48111	0.53
3.51447	0.598
3.54784	0.62
3.58121	0.631
3.61457	0.63
3.64794	0.633
3.6813	0.631
3.71467	0.634
3.74804	0.635
3.7814	0.634
3.81477	0.641
3.84813	0.645
3.8815	0.643
3.91487	0.645
3.94823	0.649
3.9816	0.65
4.01496	0.65
4.04833	0.643
4.0817	0.645
4.11506	0.649
4.14843	0.651
4.18179	0.654
4.21516	0.657
4.24853	0.659
4.28189	0.659
4.31526	0.662
4.34862	0.662
4.38199	0.661
4.41536	0.659
4.44872	0.662
4.48209	0.666
4.51546	0.666
4.54882	0.668
4.58219	0.668
4.61555	0.669
4.64892	0.669
4.68229	0.669
4.71565	0.669
4.74902	0.67
4.78238	0.67
4.81575	0.67
4.84912	0.669
4.88248	0.67
4.91585	0.674
4.94921	0.677
4.98258	0.674
5.01595	0.67
5.04931	0.669
5.08268	0.674
5.11604	0.676
5.14941	0.669
5.18278	0.673
5.21614	0.68
5.24951	0.677
5.28287	0.68
5.31624	0.68
5.34961	0.672
5.38297	0.672
5.41634	0.678
5.4497	0.672
5.48307	0.68
5.51644	0.674
5.5498	0.674
5.58317	0.68
5.61654	0.674
5.6499	0.678
5.68327	0.674
5.71663	0.673
5.75	0.67
5.78337	0.673
5.81673	0.669
5.8501	0.669
5.88346	0.661
5.91683	0.653
5.9502	0.643
5.98356	0.626
6.01693	0.602
6.05029	0.459
6.08366	0.322
6.11703	0.317
6.15039	0.259
6.18376	0.03
6.21712	0.06
6.25049	0.182
6.28386	0.139
6.31722	0.237
6.35059	0.403
6.38395	0.549
6.41732	0.572
6.45069	0.552
6.48405	0.454
6.51742	0.454
6.55079	0.27
6.58415	0.137
6.61752	0.178
6.65088	0.215
6.68425	0.384
6.71762	0.504
6.75098	0.545
6.78435	0.548
6.81771	0.543
6.85108	0.552
6.88445	0.551
6.91781	0.545
6.95118	0.504
6.98454	0.485
7.01791	0.409
7.05128	0.338
7.08464	0.524
7.11801	0.666
7.15137	0.659
7.18474	0.647
7.21811	0.599
7.25147	0.549
7.28484	0.538
7.3182	0.521
7.35157	0.5
7.38494	0.412
7.4183	0.225
7.45167	0.071
7.48503	0.013
7.5184	0.021
7.55177	0.114
7.58513	0.112
7.6185	0.061
7.65187	0.106
7.68523	0.11
7.7186	0.223
7.75196	0.311
7.78533	0.321
7.8187	0.305
7.85206	0.299
7.88543	0.311
7.91879	0.333
7.95216	0.336
7.98553	0.334
8.01889	0.4
8.05226	0.461
8.08562	0.498
8.11899	0.494
8.15236	0.44
8.18572	0.379
8.21909	0.391
8.25245	0.426
8.28582	0.469
8.31919	0.494
8.35255	0.52
8.38592	0.541
8.41928	0.56
8.45265	0.569
8.48602	0.575
8.51938	0.591
8.55275	0.606
8.58612	0.611
8.61948	0.611
8.65285	0.607
8.68621	0.595
8.71958	0.552
8.75295	0.42
8.78631	0.206
8.81968	0.131
8.85304	0.201
8.88641	0.321
8.91978	0.411
8.95314	0.459
8.98651	0.485
9.01987	0.509
9.05324	0.532
9.08661	0.553
9.11997	0.559
9.15334	0.552
9.1867	0.529
9.22007	0.491
9.25344	0.42
9.2868	0.302
9.32017	0.225
9.35353	0.36
9.3869	0.489
9.42027	0.534
9.45363	0.522
9.487	0.485
9.52037	0.5
9.55373	0.538
9.5871	0.54
9.62046	0.537
9.65383	0.564
9.6872	0.595
9.72056	0.608
9.75393	0.616
9.78729	0.619
9.82066	0.619
9.85403	0.619
9.88739	0.616
9.92076	0.612
9.95412	0.603
9.98749	0.591
10.0209	0.564
10.0542	0.49
10.0876	0.369
10.121	0.297
10.1543	0.38
10.1877	0.498
10.2211	0.565
10.2544	0.592
10.2878	0.602
10.3212	0.611
10.3545	0.63
10.3879	0.637
10.4212	0.639
10.4546	0.639
10.488	0.633
10.5213	0.619
10.5547	0.622
10.5881	0.639
10.6214	0.639
10.6548	0.63
10.6882	0.591
10.7215	0.59
10.7549	0.6
10.7883	0.571
10.8216	0.526
10.855	0.549
10.8884	0.544
10.9217	0.536
10.9551	0.594
10.9885	0.627
11.0218	0.639
11.0552	0.639
11.0886	0.639
11.1219	0.641
11.1553	0.641
11.1887	0.642
11.222	0.642
11.2554	0.645
11.2888	0.645
11.3221	0.645
11.3555	0.642
11.3889	0.641
11.4222	0.646
11.4556	0.647
11.489	0.647
11.5223	0.643
11.5557	0.642
11.5891	0.642
11.6224	0.642
11.6558	0.646
11.6892	0.645
11.7225	0.641
11.7559	0.631
11.7893	0.62
11.8226	0.608
11.856	0.614
11.8894	0.625
11.9227	0.63
11.9561	0.62
11.9895	0.568
12.0228	0.423
12.0562	0.337
12.0896	0.431
12.1229	0.512
12.1563	0.595
12.1897	0.625
12.223	0.634
12.2564	0.637
12.2897	0.641
12.3231	0.641
12.3565	0.641
12.3898	0.639
12.4232	0.635
12.4566	0.633
12.4899	0.631
12.5233	0.626
12.5567	0.625
12.59	0.625
12.6234	0.625
12.6568	0.626
12.6901	0.622
12.7235	0.622
12.7569	0.622
12.7902	0.623
12.8236	0.626
12.857	0.627
12.8903	0.625
12.9237	0.62
12.9571	0.618
12.9904	0.615
13.0238	0.612
13.0572	0.61
13.0905	0.6
13.1239	0.584
13.1573	0.575
13.1906	0.588
13.224	0.602
13.2574	0.603
13.2907	0.598
13.3241	0.591
13.3575	0.58
13.3908	0.556
13.4242	0.514
13.4576	0.458
13.4909	0.418
13.5243	0.424
13.5577	0.47
13.591	0.528
13.6244	0.555
13.6578	0.551
13.6911	0.524
13.7245	0.482
13.7579	0.447
13.7912	0.459
13.8246	0.5
13.858	0.536
13.8913	0.559
13.9247	0.579
13.9581	0.583
13.9914	0.581
14.0248	0.583
14.0582	0.587
14.0915	0.59
14.1249	0.59
14.1582	0.587
14.1916	0.584
14.225	0.583
14.2583	0.581
14.2917	0.58
14.3251	0.579
14.3584	0.576
14.3918	0.573
14.4252	0.571
14.4585	0.563
14.4919	0.555
14.5253	0.545
14.5586	0.532
14.592	0.52
14.6254	0.516
14.6587	0.516
14.6921	0.52
14.7255	0.524
14.7588	0.525
14.7922	0.522
14.8256	0.512
14.8589	0.504
14.8923	0.493
14.9257	0.481
14.959	0.482
14.9924	0.483
