Infrared Spectrum: 2-Methylnonadecane
Formula: C 20 H 42
CAS: 1560-86-7
State: gas
Instrument: HP-GC/MS/IRD
Origin: NIST Mass Spectrometry Data Center
1/CM	ABSORBANCE
550	0.0011
562	0.0001408
574	1.76e-05
586	0
598	2.64e-05
610	2.64e-05
622	3.52e-05
634	7.92e-05
646	8.8e-06
658	7.92e-05
670	0.000132
682	0.0001408
694	0.0004136
706	0.00088
718	0.001232
730	0.0010472
742	0.0008184
754	0.0006512
766	0.0005104
778	0.0004928
790	0.0003696
802	0.0003432
814	0.0003344
826	0.0003256
838	0.0003168
850	0.0002992
862	0.0002992
874	0.0003608
886	0.0003168
898	0.000352
910	0.0002992
922	0.0003784
934	0.0003608
946	0.0003256
958	0.0003256
970	0.0002816
982	0.0002728
994	0.0002728
1006	0.0003168
1018	0.0002728
1030	0.0002992
1042	0.0003256
1054	0.0002992
1066	0.0003432
1078	0.0003168
1090	0.0002728
1102	0.0002904
1114	0.0003608
1126	0.0003784
1138	0.000484
1150	0.0005544
1162	0.0008184
1174	0.000836
1186	0.000616
1198	0.0005192
1210	0.0005544
1222	0.000572
1234	0.0005984
1246	0.0006424
1258	0.000748
1270	0.0008624
1282	0.0010472
1294	0.001276
1306	0.001496
1318	0.0015224
1330	0.0016808
1342	0.0022968
1354	0.0028864
1366	0.0030096
1378	0.0026928
1390	0.00242
1402	0.0012936
1414	0.0011088
1426	0.0013464
1438	0.00242
1450	0.0048048
1462	0.0067584
1474	0.004664
1486	0.0020416
1498	0.0010648
1510	0.0006952
1522	0.0004312
1534	0.0004048
1546	0.0003784
1558	5.28e-05
1570	0.0002904
1582	0.0003696
1594	0.0003784
1606	0.0003432
1618	0.0002112
1630	0.0002904
1642	0.0002552
1654	3.52e-05
1666	0.0002376
1678	0.000264
1690	0.0002464
1702	7.04e-05
1714	0.000176
1726	0.0002552
1738	0.0001144
1750	0.0001584
1762	0.0002024
1774	0.0001408
1786	0.0002376
1798	0.0002112
1810	0.0002288
1822	0.0002288
1834	0.0001936
1846	0.0001672
1858	0.00022
1870	0.000176
1882	0.0001848
1894	0.0001672
1906	0.0001672
1918	0.0001496
1930	0.0001496
1942	0.0001672
1954	0.0001408
1966	0.0001496
1978	0.0001672
1990	0.0001496
2002	0.0001232
2014	0.0001672
2026	0.0002112
2038	0.0001936
2050	0.0001936
2062	0.0001584
2074	0.0001408
2086	0.0001408
2098	0.0001584
2110	0.0001144
2122	0.0001232
2134	0.000132
2146	9.68e-05
2158	0.0001408
2170	0.0001408
2182	0.0001056
2194	0.0001144
2206	0.0001144
2218	8.8e-05
2230	8.8e-05
2242	7.92e-05
2254	7.92e-05
2266	7.04e-05
2278	7.04e-05
2290	7.92e-05
2302	7.04e-05
2314	7.04e-05
2326	3.52e-05
2338	0
2350	2.64e-05
2362	0
2374	2.64e-05
2386	5.28e-05
2398	5.28e-05
2410	6.16e-05
2422	3.52e-05
2434	1.76e-05
2446	1.76e-05
2458	3.52e-05
2470	1.76e-05
2482	1.76e-05
2494	2.64e-05
2506	7.04e-05
2518	9.68e-05
2530	0.0001408
2542	0.0001848
2554	0.0001848
2566	0.0002024
2578	0.000264
2590	0.0003168
2602	0.0003696
2614	0.0004664
2626	0.0005104
2638	0.0005632
2650	0.000616
2662	0.0006688
2674	0.0007744
2686	0.0008272
2698	0.0007832
2710	0.000748
2722	0.000836
2734	0.0008888
2746	0.000968
2758	0.001056
2770	0.001188
2782	0.0014696
2794	0.0018832
2806	0.0024552
2818	0.0034144
2830	0.005016
2842	0.0089144
2854	0.0226952
2866	0.0317592
2878	0.0225632
2890	0.0198264
2902	0.0257752
2914	0.0412016
2926	0.07656
2938	0.078408
2950	0.0412192
2962	0.0337744
2974	0.0214192
2986	0.0088704
2998	0.0047784
3010	0.0030976
3022	0.0022616
3034	0.0017248
3046	0.0014432
3058	0.0012232
3070	0.001012
3082	0.00088
3094	0.0007832
3106	0.0006864
3118	0.0006072
3130	0.0005808
3142	0.000528
3154	0.0005192
3166	0.0004928
3178	0.000484
3190	0.0004312
3202	0.0003872
3214	0.0002816
3226	0.0002552
3238	0.00022
3250	0.0001848
3262	0.0001848
3274	0.0001584
3286	0.0001232
3298	0.0001672
3310	0.0001496
3322	0.0001496
3334	0.0001408
3346	0.0001496
3358	0.0001936
3370	0.0001408
3382	0.000132
3394	0.000132
3406	0.000132
3418	0.0001232
3430	0.000132
3442	7.92e-05
3454	7.92e-05
3466	6.16e-05
3478	8.8e-05
3490	0.0001056
3502	0.0001232
3514	9.68e-05
3526	0.0001232
3538	0.0001144
3550	0.0001408
3562	0.000132
3574	0.000132
3586	9.68e-05
3598	0.0001496
3610	0.0001584
3622	0.0001584
3634	0.0001936
3646	0.0001232
3658	0.0001848
3670	5.28e-05
3682	0.0001672
3694	0.0001584
3706	0.0001672
3718	0.0002112
3730	0.0001144
3742	0
3754	1.76e-05
3766	0.0001936
3778	0.0002024
3790	0.0002552
3802	7.04e-05
3814	0.0001584
3826	0.0002024
3838	8.8e-05
