Infrared Spectrum: 2-Methyloctadecane
Formula: C 19 H 40
CAS: 1560-88-9
State: gas
Instrument: HP-GC/MS/IRD
Origin: NIST Mass Spectrometry Data Center
1/CM	ABSORBANCE
550	0.0002436
562	3.36e-05
574	0.000126
586	1.68e-05
598	6.72e-05
610	6.72e-05
622	5.04e-05
634	2.52e-05
646	0
658	0.0001176
670	5.04e-05
682	0.0002016
694	0.00042
706	0.000798
718	0.0011256
730	0.0009492
742	0.0006552
754	0.0005796
766	0.0004872
778	0.0003696
790	0.0003528
802	0.0002268
814	0.0002268
826	0.0002436
838	0.0002352
850	0.0002352
862	0.0002436
874	0.0002604
886	0.000252
898	0.0002688
910	0.000252
922	0.000294
934	0.0002688
946	0.0002436
958	0.0002184
970	0.0002184
982	0.000252
994	0.0002688
1006	0.0003108
1018	0.0003276
1030	0.0002856
1042	0.0001932
1054	0.00021
1066	0.0001092
1078	7.56e-05
1090	6.72e-05
1102	8.4e-05
1114	8.4e-05
1126	0.0001428
1138	0.0002016
1150	0.0002352
1162	0.000504
1174	0.000546
1186	0.0003276
1198	0.0002352
1210	0.0002688
1222	0.0002604
1234	0.0002772
1246	0.0003864
1258	0.000462
1270	0.0005964
1282	0.0007224
1294	0.0009744
1306	0.001176
1318	0.0011844
1330	0.0013188
1342	0.0019824
1354	0.0025116
1366	0.0026712
1378	0.0024276
1390	0.0022092
1402	0.0010752
1414	0.0008652
1426	0.0011004
1438	0.0021924
1450	0.0043932
1462	0.0063252
1474	0.0044184
1486	0.0018144
1498	0.0009072
1510	0.0006048
1522	0.0004032
1534	0.0002604
1546	0.0002436
1558	0.0002184
1570	0.000126
1582	0.0001008
1594	8.4e-05
1606	7.56e-05
1618	9.24e-05
1630	6.72e-05
1642	8.4e-05
1654	0.0001512
1666	9.24e-05
1678	0.0001008
1690	6.72e-05
1702	9.24e-05
1714	9.24e-05
1726	1.68e-05
1738	5.88e-05
1750	0.0001008
1762	5.04e-05
1774	5.88e-05
1786	5.88e-05
1798	3.36e-05
1810	3.36e-05
1822	4.2e-05
1834	5.04e-05
1846	5.04e-05
1858	3.36e-05
1870	5.04e-05
1882	3.36e-05
1894	3.36e-05
1906	0
1918	1.68e-05
1930	8.4e-06
1942	1.68e-05
1954	8.4e-06
1966	2.52e-05
1978	0
1990	8.4e-06
2002	8.4e-06
2014	5.04e-05
2026	6.72e-05
2038	7.56e-05
2050	5.88e-05
2062	5.04e-05
2074	5.04e-05
2086	2.52e-05
2098	1.68e-05
2110	1.68e-05
2122	4.2e-05
2134	1.68e-05
2146	2.52e-05
2158	1.68e-05
2170	8.4e-06
2182	2.52e-05
2194	8.4e-06
2206	1.68e-05
2218	3.36e-05
2230	1.68e-05
2242	8.4e-06
2254	2.52e-05
2266	1.68e-05
2278	3.36e-05
2290	5.04e-05
2302	4.2e-05
2314	3.36e-05
2326	5.88e-05
2338	4.2e-05
2350	6.72e-05
2362	7.56e-05
2374	4.2e-05
2386	6.72e-05
2398	6.72e-05
2410	6.72e-05
2422	5.04e-05
2434	6.72e-05
2446	5.88e-05
2458	6.72e-05
2470	5.88e-05
2482	8.4e-05
2494	0.0001176
2506	0.0001344
2518	0.0001848
2530	0.00021
2542	0.0002268
2554	0.0002184
2566	0.0002856
2578	0.0003192
2590	0.0003612
2602	0.0004284
2614	0.0004704
2626	0.000546
2638	0.0005964
2650	0.0006468
2662	0.0007224
2674	0.0007896
2686	0.0008316
2698	0.0007812
2710	0.0007896
2722	0.0008988
2734	0.0009912
2746	0.0010416
2758	0.001092
2770	0.0012348
2782	0.0014784
2794	0.00189
2806	0.0024528
2818	0.0033432
2830	0.0048216
2842	0.0085764
2854	0.0215208
2866	0.0300804
2878	0.0217392
2890	0.0191352
2902	0.024696
2914	0.0394464
2926	0.0730464
2938	0.075012
2950	0.0400428
2962	0.033558
2974	0.0214116
2986	0.008736
2998	0.0047124
3010	0.0030156
3022	0.0021672
3034	0.0016548
3046	0.0013104
3058	0.0011088
3070	0.000924
3082	0.0008232
3094	0.0006804
3106	0.0006636
3118	0.000588
3130	0.0005544
3142	0.0005292
3154	0.0005292
3166	0.000504
3178	0.000462
3190	0.000378
3202	0.0003612
3214	0.0003108
3226	0.0002604
3238	0.000168
3250	0.000168
3262	0.0001512
3274	0.0001764
3286	0.000126
3298	0.0001008
3310	0.0001092
3322	0.0001344
3334	0.0001176
3346	0.0001428
3358	0.0001008
3370	7.56e-05
3382	9.24e-05
3394	7.56e-05
3406	6.72e-05
3418	4.2e-05
3430	8.4e-06
3442	3.36e-05
3454	1.68e-05
3466	8.4e-06
3478	3.36e-05
3490	0
3502	2.52e-05
3514	0
3526	5.04e-05
3538	2.52e-05
3550	0
3562	4.2e-05
3574	0
3586	8.4e-05
3598	5.04e-05
3610	0.0001344
3622	0.0001092
3634	0.000126
3646	0.0001092
3658	0.0001176
3670	0.0001176
3682	6.72e-05
3694	9.24e-05
3706	8.4e-05
3718	6.72e-05
3730	0.0001008
3742	0.0001344
3754	7.56e-05
3766	9.24e-05
3778	6.72e-05
3790	5.04e-05
3802	8.4e-05
3814	8.4e-05
3826	0.000126
3838	0.0001344
