Infrared Spectrum: 2-Chlorocyclohexanol
Formula: C 6 H 11 Cl O
CAS: 1561-86-0
State: gas
Instrument: HP-GC/MS/IRD
Origin: NIST Mass Spectrometry Data Center
1/CM	ABSORBANCE
550	0.0031992
562	0.0043688
574	0.001978
586	0.0006364
598	0.0001376
610	3.44e-05
622	3.44e-05
634	0.0001892
646	0.000688
658	0.001806
670	0.00172
682	0.0015996
694	0.0033712
706	0.0069316
718	0.0116444
730	0.0212936
742	0.0255076
754	0.012986
766	0.0045924
778	0.004988
790	0.0103544
802	0.011696
814	0.0050396
826	0.00301
838	0.0054696
850	0.00688
862	0.00688
874	0.0063984
886	0.0049708
898	0.005074
910	0.0043516
922	0.0041452
934	0.0073788
946	0.0180428
958	0.0293604
970	0.0246304
982	0.0128484
994	0.008858
1006	0.0099932
1018	0.0132096
1030	0.0195392
1042	0.0208292
1054	0.0176644
1066	0.0310804
1078	0.0514452
1090	0.0430172
1102	0.0199348
1114	0.014448
1126	0.0142416
1138	0.0098212
1150	0.0066392
1162	0.0050568
1174	0.0039732
1186	0.00516
1198	0.0098728
1210	0.0201584
1222	0.0275888
1234	0.0200724
1246	0.0160476
1258	0.0203304
1270	0.023908
1282	0.0187652
1294	0.009976
1306	0.0075336
1318	0.008686
1330	0.0105608
1342	0.010664
1354	0.0154628
1366	0.021844
1378	0.0174408
1390	0.0077056
1402	0.0040076
1414	0.0032164
1426	0.0047472
1438	0.0112144
1450	0.0207948
1462	0.0198832
1474	0.0096836
1486	0.002924
1498	0.0013932
1510	0.000946
1522	0.0007052
1534	0.000602
1546	0.0005504
1558	0.0004988
1570	0.0004816
1582	0.0004644
1594	0.0004644
1606	0.0003784
1618	0.0003268
1630	0.000344
1642	0.000344
1654	0.0002064
1666	0.0001376
1678	0.0001376
1690	0.0001548
1702	0.0001032
1714	8.6e-05
1726	6.88e-05
1738	1.72e-05
1750	8.6e-05
1762	0.0001204
1774	0.000172
1786	0.000172
1798	0.0001204
1810	0.0001204
1822	8.6e-05
1834	5.16e-05
1846	1.72e-05
1858	0
1870	5.16e-05
1882	8.6e-05
1894	5.16e-05
1906	3.44e-05
1918	0.0001376
1930	0.0001032
1942	0.0001548
1954	6.88e-05
1966	6.88e-05
1978	6.88e-05
1990	0.0001032
2002	8.6e-05
2014	0.0002236
2026	0.0002408
2038	0.0002236
2050	0.0001376
2062	0.0001376
2074	8.6e-05
2086	8.6e-05
2098	0.0001376
2110	0.000258
2122	0.0003268
2134	0.0003784
2146	0.0004816
2158	0.000602
2170	0.0004988
2182	0.000344
2194	0.0001892
2206	0.0002236
2218	0.0001548
2230	0.0002064
2242	0.000258
2254	0.0001548
2266	8.6e-05
2278	3.44e-05
2290	8.6e-05
2302	0.0001376
2314	0.0001892
2326	0.0002236
2338	0.0001892
2350	0.000258
2362	0.0002752
2374	0.0003956
2386	0.0004816
2398	0.0003612
2410	0.0002752
2422	0.0002064
2434	0.0002064
2446	0.0002924
2458	0.0002924
2470	0.0002752
2482	0.0002924
2494	0.000344
2506	0.000344
2518	0.0003096
2530	0.0003096
2542	0.0003268
2554	0.0003784
2566	0.00043
2578	0.0005332
2590	0.0005848
2602	0.0006192
2614	0.0007052
2626	0.0007224
2638	0.0009804
2650	0.001376
2662	0.0017716
2674	0.0019608
2686	0.00172
2698	0.0014104
2710	0.0012384
2722	0.001204
2734	0.0012384
2746	0.0013588
2758	0.0014448
2770	0.0014792
2782	0.0017716
2794	0.0022532
2806	0.0026316
2818	0.0031304
2830	0.0041452
2842	0.0069144
2854	0.0195736
2866	0.0490028
2878	0.0561236
2890	0.0319576
2902	0.0198316
2914	0.0265568
2926	0.053664
2938	0.122172
2950	0.172
2962	0.119936
2974	0.0351568
2986	0.0077572
2998	0.0026144
3010	0.0013416
3022	0.0008944
3034	0.0007224
3046	0.0008084
3058	0.0008428
3070	0.0005848
3082	0.000344
3094	0.000258
3106	0.00043
3118	0.0004816
3130	0.0003956
3142	0.000172
3154	1.72e-05
3166	0.0001204
3178	0.0001204
3190	0.0001204
3202	0.0001376
3214	0.000172
3226	0.0001892
3238	0.0003784
3250	0.0006192
3262	0.0007568
3274	0.0006192
3286	0.000344
3298	0.0003784
3310	0.0004128
3322	0.0002752
3334	0.0001548
3346	0.0001548
3358	0.000172
3370	0.0001204
3382	0.0002236
3394	0.00043
3406	0.000516
3418	0.0003612
3430	0.0002064
3442	0.000172
3454	5.16e-05
3466	0.0001032
3478	0.000172
3490	0.0002924
3502	0.0003956
3514	0.0002236
3526	0.0001032
3538	0.0001032
3550	0.0001376
3562	0.0001892
3574	0.0003612
3586	0.0007912
3598	0.0030788
3610	0.017114
3622	0.0229448
3634	0.012298
3646	0.0071724
3658	0.0050568
3670	0.0025972
3682	0.0009288
3694	0.0005676
3706	0.00043
3718	0.000344
3730	0.0003784
3742	0.0003612
3754	0.0002236
3766	0.0002752
3778	0.0002408
3790	0.0003268
3802	0.0003268
3814	0.0004988
3826	0.0006536
3838	0.0007396
