Infrared Spectrum: 2-Octanol, 3,3,4,4,5,5,6,6,7,7,8,8-dodecafluoro
Formula: C8 H6 F12 O
CAS: 156122-84-8
State: SOLUTION (10% CCl4 FOR 3800-400 CM^-^1)
Boiling point: 76 C AT 15 mmHg
Class: COBLENTZ III
Instrument: DOW KBr FOREPRISM-GRATING
Instrument parameters: BLAZED AT 3.5, 12.0, 20.0 MICRON AND CHANGED AT 5.0, 7.5, 14.9 MICRON
Sampling: TRANSMISSION
Path length: 0.011 CM
Resolution: 2
Origin: DOW CHEMICAL COMPANY
1/CM	TRANSMITTANCE
391	0.6755
400	0.678
409	0.6818
418	0.6826
427	0.6711
436	0.6369
445	0.6035
454	0.6194
463	0.6138
472	0.6043
481	0.5614
490	0.5938
499	0.6468
508	0.67
517	0.6571
526	0.6376
535	0.641
544	0.5656
553	0.544
562	0.5441
571	0.5956
580	0.6744
589	0.6992
598	0.7005
607	0.7134
616	0.7226
625	0.6868
634	0.7428
643	0.8006
652	0.7892
661	0.7657
670	0.7797
679	0.7564
688	0.7595
697	0.6872
706	0.4537
715	0.3894
724	0.2491
733	0.0384
742	0.0022
751	0.0002
760	0.0002
769	0.0001
778	0.0001
787	0
796	0.0001
805	0.0015
814	0.0104
823	0.1488
832	0.3718
841	0.5602
850	0.5667
859	0.5333
868	0.4881
877	0.3668
886	0.4001
895	0.5625
904	0.6624
913	0.5813
922	0.6109
931	0.5431
940	0.5705
949	0.5134
958	0.6583
967	0.6471
976	0.5944
985	0.6056
994	0.5698
1003	0.4314
1012	0.2148
1021	0.2983
1030	0.3337
1039	0.2929
1048	0.3946
1057	0.3856
1066	0.4013
1075	0.3318
1084	0.2731
1093	0.2577
1102	0.1905
1111	0.0599
1120	0.0209
1129	0.013
1138	0.0176
1147	0.094
1156	0.0488
1165	0.006
1174	0.0062
1183	0.0213
1192	0.0884
1201	0.121
1210	0.1586
1219	0.1736
1228	0.1516
1237	0.1666
1246	0.2301
1255	0.3213
1264	0.3059
1273	0.3301
1282	0.3126
1291	0.4203
1300	0.5089
1309	0.5379
1318	0.6566
1327	0.7288
1336	0.7359
1345	0.6763
1354	0.5678
1363	0.5896
1372	0.6208
1381	0.5414
1390	0.5402
1399	0.4446
1408	0.5644
1417	0.6727
1426	0.7279
1435	0.7475
1444	0.7086
1453	0.5965
1462	0.6571
1471	0.7511
1480	0.7662
1489	0.7529
1498	0.7247
1507	0.6813
1516	0.6289
1525	0.5819
1534	0.5091
1543	0.4324
1552	0.427
1561	0.5011
1570	0.558
1579	0.5761
1588	0.6113
1597	0.6925
1606	0.7504
1615	0.7848
1624	0.804
1633	0.8186
1642	0.8276
1651	0.8305
1660	0.8323
1669	0.8326
1678	0.8306
1687	0.829
1696	0.8268
1705	0.8243
1714	0.8243
1723	0.826
1732	0.83
1741	0.8321
1750	0.8347
1759	0.8374
1768	0.8408
1777	0.8441
1786	0.8459
1795	0.8474
1804	0.848
1813	0.8484
1822	0.8474
1831	0.8458
1840	0.8441
1849	0.8485
1858	0.8481
1867	0.8506
1876	0.8539
1885	0.8545
1894	0.8554
1903	0.8557
1912	0.8557
1921	0.8541
1930	0.8536
1939	0.855
1948	0.8533
1957	0.8523
1966	0.8521
1975	0.8502
1984	0.8536
1993	0.8487
2002	0.8517
2011	0.8527
2020	0.8534
2029	0.8539
2038	0.8546
2047	0.8552
2056	0.8564
2065	0.8572
2074	0.858
2083	0.8579
2092	0.8577
2101	0.8573
2110	0.857
2119	0.8569
2128	0.857
2137	0.8567
2146	0.8564
2155	0.855
2164	0.8535
2173	0.8521
2182	0.8508
2191	0.8495
2200	0.8482
2209	0.8452
2218	0.84
2227	0.8343
2236	0.8314
2245	0.8297
2254	0.828
2263	0.8261
2272	0.8238
2281	0.8228
2290	0.8235
2299	0.8316
2308	0.8402
2317	0.8547
2326	0.8652
2335	0.8642
2344	0.8602
2353	0.8558
2362	0.8521
2371	0.8486
2380	0.8465
2389	0.8457
2398	0.8457
2407	0.846
2416	0.8462
2425	0.8464
2434	0.8466
2443	0.8468
2452	0.8469
2461	0.8471
2470	0.8473
2479	0.8474
2488	0.8476
2497	0.8481
2506	0.8488
2515	0.8494
2524	0.8501
2533	0.8509
2542	0.8518
2551	0.8527
2560	0.8533
2569	0.8535
2578	0.8537
2587	0.8538
2596	0.854
2605	0.8541
2614	0.8541
2623	0.8541
2632	0.8541
2641	0.8541
2650	0.854
2659	0.8536
2668	0.8532
2677	0.8528
2686	0.8525
2695	0.8518
2704	0.851
2713	0.8502
2722	0.8494
2731	0.8486
2740	0.8476
2749	0.8467
2758	0.8458
2767	0.845
2776	0.8442
2785	0.8432
2794	0.8418
2803	0.8403
2812	0.837
2821	0.832
2830	0.8276
2839	0.8258
2848	0.8292
2857	0.8294
2866	0.8201
2875	0.8068
2884	0.7976
2893	0.7982
2902	0.7918
2911	0.7817
2920	0.7701
2929	0.7566
2938	0.7308
2947	0.7337
2956	0.7713
2965	0.7752
2974	0.7654
2983	0.7037
2992	0.6123
3001	0.6212
3010	0.7045
3019	0.8152
3028	0.8388
3037	0.8439
3046	0.8453
3055	0.846
3064	0.846
3073	0.846
3082	0.8452
3091	0.8441
3100	0.8427
3109	0.841
3118	0.8384
3127	0.8356
3136	0.8317
3145	0.8277
3154	0.8232
3163	0.8188
3172	0.8136
3181	0.8082
3190	0.8028
3199	0.7972
3208	0.7913
3217	0.7845
3226	0.7778
3235	0.7703
3244	0.7625
3253	0.7546
3262	0.7445
3271	0.7342
3280	0.7239
3289	0.7135
3298	0.7032
3307	0.6913
3316	0.6793
3325	0.6653
3334	0.6521
3343	0.6406
3352	0.631
3361	0.6226
3370	0.6153
3379	0.6096
3388	0.6052
3397	0.601
3406	0.5983
3415	0.596
3424	0.5952
3433	0.595
3442	0.5979
3451	0.6008
3460	0.6032
3469	0.6069
3478	0.6127
3487	0.6218
3496	0.6346
3505	0.653
3514	0.6731
3523	0.6977
3532	0.7236
3541	0.7445
3550	0.7597
3559	0.7601
3568	0.753
3577	0.6878
3586	0.6016
3595	0.5141
3604	0.5007
3613	0.5176
3622	0.5634
3631	0.6345
3640	0.7285
3649	0.8113
3658	0.8156
3667	0.8157
3676	0.8168
3685	0.8204
3694	0.8234
3703	0.839
3712	0.8507
3721	0.8584
3730	0.8627
3739	0.8651
3748	0.869
3757	0.8704
3766	0.8706
3775	0.8706
3784	0.8707
3793	0.8703
