Infrared Spectrum: 4,4'-Dimethoxyazoxybenzene
Formula: C 14 H 14 N 2 O 3
CAS: 1562-94-3
State: gas
Origin: EPA-IR VAPOR PHASE LIBRARY
1/CM	ABSORBANCE
549.8	0.015604
559.445	0.010264
569.09	0.006134
578.734	0.004284
588.379	0.003424
598.024	0.003354
607.669	0.007794
617.313	0.006844
626.958	0.003674
636.603	0.004804
646.248	0.002814
655.893	0.002464
665.537	0.002794
675.182	0.003084
684.827	0.002614
694.472	0.002054
704.116	0.001504
713.761	0.001744
723.406	0.002174
733.051	0.003614
742.695	0.008694
752.34	0.010884
761.985	0.003774
771.63	0.002944
781.275	0.003274
790.919	0.004644
800.564	0.006574
810.209	0.008904
819.854	0.015514
829.498	0.033524
839.143	0.046194
848.788	0.029084
858.433	0.012324
868.078	0.007464
877.722	0.005194
887.367	0.004544
897.012	0.004394
906.657	0.008374
916.301	0.014744
925.946	0.008254
935.591	0.004264
945.236	0.003284
954.88	0.002734
964.525	0.003054
974.17	0.003844
983.815	0.004614
993.46	0.005904
1003.1	0.012144
1012.75	0.016344
1022.39	0.027224
1032.04	0.053294
1041.68	0.060104
1051.33	0.027134
1060.97	0.012414
1070.62	0.007264
1080.26	0.006364
1089.91	0.008864
1099.55	0.014414
1109.2	0.013864
1118.84	0.010644
1128.49	0.007774
1138.13	0.010294
1147.78	0.025294
1157.42	0.137514
1167.07	0.046984
1176.71	0.028114
1186.36	0.023504
1196	0.015324
1205.64	0.020404
1215.29	0.025874
1224.93	0.040174
1234.58	0.086014
1244.22	0.214094
1253.87	0.229704
1263.51	0.101464
1273.16	0.064674
1282.8	0.069644
1292.45	0.072254
1302.09	0.042424
1311.74	0.028024
1321.38	0.025804
1331.03	0.020964
1340.67	0.013924
1350.32	0.010344
1359.96	0.009194
1369.61	0.007824
1379.25	0.007134
1388.9	0.007984
1398.54	0.011254
1408.18	0.016944
1417.83	0.015124
1427.47	0.014504
1437.12	0.024974
1446.76	0.047384
1456.41	0.057984
1466.05	0.086844
1475.7	0.073794
1485.34	0.063584
1494.99	0.157314
1504.63	0.212724
1514.28	0.042054
1523.92	0.019384
1533.57	0.014024
1543.21	0.012754
1552.86	0.014024
1562.5	0.020604
1572.15	0.028374
1581.79	0.039344
1591.44	0.081784
1601.08	0.101564
1610.73	0.060624
1620.37	0.021364
1630.01	0.010974
1639.66	0.008134
1649.3	0.006044
1658.95	0.004484
1668.59	0.003534
1678.24	0.002744
1687.88	0.002284
1697.53	0.001874
1707.17	0.001784
1716.82	0.001794
1726.46	0.001884
1736.11	0.002194
1745.75	0.002754
1755.4	0.003264
1765.04	0.002184
1774.69	0.001634
1784.33	0.001664
1793.98	0.001854
1803.62	0.001814
1813.27	0.001544
1822.91	0.001494
1832.55	0.001584
1842.2	0.001734
1851.84	0.002174
1861.49	0.002474
1871.13	0.002694
1880.78	0.002974
1890.42	0.003224
1900.07	0.002914
1909.71	0.002614
1919.36	0.002114
1929	0.001654
1938.65	0.001414
1948.29	0.001624
1957.94	0.001594
1967.58	0.001544
1977.23	0.001934
1986.87	0.002454
1996.52	0.002934
2006.16	0.002964
2015.81	0.003184
2025.45	0.003254
2035.1	0.004044
2044.74	0.004814
2054.38	0.004474
2064.03	0.004044
2073.67	0.003714
2083.32	0.002974
2092.96	0.002244
2102.61	0.001824
2112.25	0.001424
2121.9	0.0011505
2131.54	0.0010861
2141.19	0.0009092
2150.83	0.0007109
2160.48	0.0007451
2170.12	0.0006926
2179.77	0.0007091
2189.41	0.0007555
2199.06	0.0007191
2208.7	0.0008731
2218.35	0.0009118
2227.99	0.0009542
2237.64	0.0010169
2247.28	0.0010953
2256.92	0.0012109
2266.57	0.001274
2276.21	0.001594
2285.86	0.001734
2295.5	0.001754
2305.15	0.001314
2314.79	0.001414
2324.44	0.001414
2334.08	0.001594
2343.73	0.001624
2353.37	0.001524
2363.02	0.001554
2372.66	0.001754
2382.31	0.001924
2391.95	0.001994
2401.6	0.001934
2411.24	0.001914
2420.89	0.001894
2430.53	0.001744
2440.18	0.001734
2449.82	0.001674
2459.47	0.001624
2469.11	0.001644
2478.75	0.001764
2488.4	0.002124
2498.04	0.002484
2507.69	0.002694
2517.33	0.002574
2526.98	0.003004
2536.62	0.003514
2546.27	0.003864
2555.91	0.003244
2565.56	0.003074
2575.2	0.002914
2584.85	0.002634
2594.49	0.002474
2604.14	0.002264
2613.78	0.001974
2623.43	0.001804
2633.07	0.001804
2642.72	0.001674
2652.36	0.001514
2662.01	0.001414
2671.65	0.001504
2681.29	0.001614
2690.94	0.001894
2700.58	0.002054
2710.23	0.001984
2719.87	0.002204
2729.52	0.002504
2739.16	0.002714
2748.81	0.002864
2758.45	0.002744
2768.1	0.002464
2777.74	0.002544
2787.39	0.002864
2797.03	0.003084
2806.68	0.003624
2816.32	0.004954
2825.97	0.006874
2835.61	0.011854
2845.26	0.026324
2854.9	0.016264
2864.55	0.009054
2874.19	0.007384
2883.84	0.007374
2893.48	0.009024
2903.12	0.012394
2912.77	0.016554
2922.41	0.017544
2932.06	0.018504
2941.7	0.026194
2951.35	0.032024
2960.99	0.024554
2970.64	0.017454
2980.28	0.012414
2989.93	0.011514
2999.57	0.016114
3009.22	0.029134
3018.86	0.015834
3028.51	0.007654
3038.15	0.007164
3047.8	0.007114
3057.44	0.006844
3067.09	0.007674
3076.73	0.010784
3086.38	0.012814
3096.02	0.009344
3105.67	0.005614
3115.31	0.004024
3124.95	0.002894
3134.6	0.002544
3144.24	0.002264
3153.89	0.001484
3163.53	0.0011467
3173.18	0.0011476
3182.82	0.0009857
3192.47	0.0010726
3202.11	0.0011163
3211.76	0.0010717
3221.4	0.0005783
3231.05	0.0004612
3240.69	0.000595
3250.34	0.0005795
3259.98	0.000432
3269.63	0.0003741
3279.27	0.0003661
3288.92	0.0004206
3298.56	0.00030153
3308.21	0.0003878
3317.85	0.0004323
3327.49	0.0002244
3337.14	0.000458
3346.78	0.00036087
3356.43	0.0003802
3366.07	0.0003665
3375.72	0.000118
3385.36	0.00033979
3395.01	0.000211
3404.65	0.00026577
3414.3	0.00030238
3423.94	0.000211
3433.59	0.0001902
3443.23	0.00027604
3452.88	0.00030122
3462.52	0.00026188
3472.17	0.0002329
3481.81	0.00032864
3491.46	0.00033025
3501.1	8.8e-05
3510.75	0.000105
3520.39	0.0004438
3530.04	0.00031863
3539.68	0.0002954
3549.32	0.000219
3558.97	0.0002414
3568.61	0.00029845
3578.26	0.0001886
3587.9	0.00033626
3597.55	0.000158
3607.19	0.0001993
3616.84	0.00029955
3626.48	0.000437
3636.13	0.0002335
3645.77	0.00035744
3655.42	0.00034166
3665.06	0.00032577
3674.71	0.0002323
3684.35	0.0003751
3694	0.0004989
3703.64	0.00029379
3713.29	0.00032341
3722.93	0.00034256
3732.58	0.00033585
3742.22	0.0004301
3751.86	0.0004073
3761.51	0.0004263
3771.15	0.0002422
3780.8	0.0002368
3790.44	0.000493
3800.09	0.0002261
3809.73	0.0002494
3819.38	0.0003768
3829.02	0.0006178
3838.67	0.000248
3848.31	0.0003073
3857.96	0.0003911
3867.6	0.0006352
3877.25	0.0006269
3886.89	0.0005513
3896.54	0.0005375
3906.18	0.0004206
3915.83	0.000211
3925.47	0.00033649
3935.12	0.0006086
3944.76	0.0004455
3954.41	0.0005929
3964.05	0.0004678
3973.69	0.0005317
3983.34	0.0006929
3992.98	0.0005745
