Infrared Spectrum: p-Phenylazobenzoic acid
Formula: C 13 H 10 N 2 O 2
CAS: 1562-93-2
State: gas
Origin: EPA-IR VAPOR PHASE LIBRARY
1/CM	ABSORBANCE
549.8	0.002888
559.445	0.002758
569.09	0.003308
578.734	0.003118
588.379	0.001948
598.024	0.001458
607.669	0.0011506
617.313	0.0008927
626.958	0.0010378
636.603	0.001378
646.248	0.001968
655.893	0.009188
665.537	0.004218
675.182	0.003298
684.827	0.005508
694.472	0.007738
704.116	0.007228
713.761	0.004218
723.406	0.002238
733.051	0.002478
742.695	0.004218
752.34	0.003888
761.985	0.003998
771.63	0.006958
781.275	0.006828
790.919	0.003478
800.564	0.001738
810.209	0.0009413
819.854	0.0008423
829.498	0.0009439
839.143	0.0012748
848.788	0.001988
858.433	0.002798
868.078	0.002508
877.722	0.0010889
887.367	0.0008684
897.012	0.0008349
906.657	0.0009474
916.301	0.0010548
925.946	0.0009101
935.591	0.0007456
945.236	0.0006006
954.88	0.0005855
964.525	0.0004891
974.17	0.0008155
983.815	0.0007651
993.46	0.0012411
1003.1	0.002298
1012.75	0.005508
1022.39	0.002538
1032.04	0.001518
1041.68	0.001568
1051.33	0.002518
1060.97	0.005988
1070.62	0.017508
1080.26	0.024848
1089.91	0.008008
1099.55	0.004838
1109.2	0.003058
1118.84	0.002568
1128.49	0.002858
1138.13	0.005178
1147.78	0.006758
1157.42	0.006008
1167.07	0.008458
1176.71	0.022248
1186.36	0.018928
1196	0.005388
1205.64	0.002798
1215.29	0.002458
1224.93	0.002578
1234.58	0.002598
1244.22	0.002678
1253.87	0.003518
1263.51	0.004378
1273.16	0.004568
1282.8	0.004198
1292.45	0.004368
1302.09	0.004958
1311.74	0.004498
1321.38	0.004678
1331.03	0.006508
1340.67	0.007348
1350.32	0.005788
1359.96	0.007348
1369.61	0.007918
1379.25	0.003118
1388.9	0.002088
1398.54	0.002388
1408.18	0.003658
1417.83	0.002218
1427.47	0.0010879
1437.12	0.0009661
1446.76	0.001408
1456.41	0.0012769
1466.05	0.0009864
1475.7	0.0012364
1485.34	0.002748
1494.99	0.001848
1504.63	0.0011453
1514.28	0.0008615
1523.92	0.0007145
1533.57	0.0006593
1543.21	0.0007966
1552.86	0.0008045
1562.5	0.0008975
1572.15	0.0010916
1581.79	0.001638
1591.44	0.002458
1601.08	0.004748
1610.73	0.003218
1620.37	0.001067
1630.01	0.0006488
1639.66	0.0005624
1649.3	0.0005736
1658.95	0.0006842
1668.59	0.0007209
1678.24	0.0007662
1687.88	0.0011053
1697.53	0.001438
1707.17	0.001768
1716.82	0.002378
1726.46	0.002808
1736.11	0.005278
1745.75	0.012818
1755.4	0.038688
1765.04	0.047508
1774.69	0.010978
1784.33	0.004348
1793.98	0.002728
1803.62	0.001998
1813.27	0.001728
1822.91	0.001608
1832.55	0.0011015
1842.2	0.000684
1851.84	0.0005513
1861.49	0.0005154
1871.13	0.0005138
1880.78	0.000582
1890.42	0.0006665
1900.07	0.0006968
1909.71	0.0006766
1919.36	0.0007715
1929	0.0009873
1938.65	0.0009381
1948.29	0.0007476
1957.94	0.0007213
1967.58	0.0005497
1977.23	0.00039632
1986.87	0.00037494
1996.52	0.00035247
2006.16	0.00034883
2015.81	0.00031623
2025.45	0.0002833
2035.1	0.0002846
2044.74	0.000303922
2054.38	0.0002431
2064.03	0.00031022
2073.67	0.0002814
2083.32	0.00029589
2092.96	0.00033066
2102.61	0.0003391
2112.25	0.00037803
2121.9	0.000304396
2131.54	0.00039352
2141.19	0.000421
2150.83	0.0004731
2160.48	0.0004053
2170.12	0.00036733
2179.77	0.00035113
2189.41	0.0002689
2199.06	0.000306891
2208.7	0.00031958
2218.35	0.0002765
2227.99	0.00037025
2237.64	0.00032758
2247.28	0.00037192
2256.92	0.0004126
2266.57	0.00034286
2276.21	0.00035344
2285.86	0.00037826
2295.5	0.0002855
2305.15	0.00032503
2314.79	0.0004208
2324.44	0.00031934
2334.08	0.00038873
2343.73	0.0004039
2353.37	0.0004651
2363.02	0.0004379
2372.66	0.00037417
2382.31	0.00038499
2391.95	0.00031856
2401.6	0.00038472
2411.24	0.0004393
2420.89	0.0004211
2430.53	0.00036535
2440.18	0.00039194
2449.82	0.0004028
2459.47	0.0002503
2469.11	0.00029517
2478.75	0.0004332
2488.4	0.0002859
2498.04	0.00029124
2507.69	0.0004563
2517.33	0.00033397
2526.98	0.00029187
2536.62	0.00039539
2546.27	0.0003537
2555.91	0.00042
2565.56	0.00031718
2575.2	0.00034249
2584.85	0.00036457
2594.49	0.00033266
2604.14	0.0004267
2613.78	0.00038209
2623.43	0.00032277
2633.07	0.0002606
2642.72	0.000305924
2652.36	0.00033398
2662.01	0.0003608
2671.65	0.00037236
2681.29	0.00038168
2690.94	0.00034954
2700.58	0.00036729
2710.23	0.00033086
2719.87	0.00038519
2729.52	0.00037982
2739.16	0.0003987
2748.81	0.0004677
2758.45	0.0004332
2768.1	0.0004387
2777.74	0.000446
2787.39	0.0004037
2797.03	0.0003164
2806.68	0.00036515
2816.32	0.00031412
2825.97	0.00034757
2835.61	0.00034994
2845.26	0.0004511
2854.9	0.00035778
2864.55	0.00038693
2874.19	0.0004286
2883.84	0.0004155
2893.48	0.00034358
2903.12	0.0005016
2912.77	0.0004076
2922.41	0.0004403
2932.06	0.00034556
2941.7	0.00037563
2951.35	0.0004347
2960.99	0.0003994
2970.64	0.0004251
2980.28	0.00036353
2989.93	0.0004363
2999.57	0.0005398
3009.22	0.0005146
3018.86	0.0007015
3028.51	0.0010112
3038.15	0.001448
3047.8	0.001808
3057.44	0.002088
3067.09	0.003088
3076.73	0.004168
3086.38	0.002698
3096.02	0.001798
3105.67	0.0011454
3115.31	0.0007203
3124.95	0.00037677
3134.6	0.0005067
3144.24	0.00039251
3153.89	0.0004237
3163.53	0.00035101
3173.18	0.0002735
3182.82	0.000241
3192.47	0.0002402
3202.11	0.0002502
3211.76	0.000182
3221.4	0.0002745
3231.05	0.00032107
3240.69	0.000297088
3250.34	0.000303704
3259.98	0.00033666
3269.63	0.0002535
3279.27	0.0002766
3288.92	0.0005004
3298.56	0.00031388
3308.21	0.00012
3317.85	0.0002314
3327.49	3.7e-05
3337.14	0.00029403
3346.78	0.0002538
3356.43	0.00035172
3366.07	0.000193
3375.72	0.0002428
3385.36	0.0002727
3395.01	7.8e-05
3404.65	0.0002863
3414.3	7.6e-05
3423.94	0.000142
3433.59	0.00037116
3443.23	0.000147
3452.88	0.00035384
3462.52	0.00031236
3472.17	0.00016
3481.81	0.0004072
3491.46	0.00036546
3501.1	0.0006789
3510.75	0.000423
3520.39	0.00034859
3530.04	0.0004074
3539.68	0.0005029
3549.32	0.0004685
3558.97	0.0008395
3568.61	0.002368
3578.26	0.012758
3587.9	0.014858
3597.55	0.001668
3607.19	0.00036897
3616.84	0.0005598
3626.48	0.000469
3636.13	0.0004378
3645.77	0.00033468
3655.42	0.0002674
3665.06	0.0004184
3674.71	0.0004279
3684.35	0.00036536
3694	7.7e-05
3703.64	0.00036464
3713.29	0.000531
3722.93	0.00030584
3732.58	0.00037176
3742.22	0.0003127
3751.86	0.00034069
3761.51	0.0002493
3771.15	4e-05
3780.8	0.000186
3790.44	5.4e-05
3800.09	0.0002532
3809.73	0.00029092
3819.38	9.8e-05
3829.02	8e-05
3838.67	0.000105
3848.31	0.00031797
3857.96	0.000304533
3867.6	0.0002842
3877.25	0.00014
3886.89	0.000164
3896.54	0.00032682
3906.18	9e-05
3915.83	0.000303094
3925.47	0.0002354
3935.12	0.000297919
3944.76	3.8e-05
3954.41	0.0002342
3964.05	6e-05
3973.69	0.0002018
3983.34	0.00037089
3992.98	0.0002066
