Infrared Spectrum: Carbofuran
Formula: C 12 H 15 N O 3
CAS: 1563-66-2
State: gas
Instrument: HP-GC/MS/IRD
Origin: NIST Mass Spectrometry Data Center
1/CM	ABSORBANCE
550	0.0012376
562	0.0004108
574	0.0003016
586	0.0006968
598	0.0004472
610	0.0001716
622	0.0001508
634	0.0002704
646	0.00026
658	0.000182
670	0.0001352
682	8.84e-05
694	0.0002548
706	0.00091
718	0.003146
730	0.0053352
742	0.0041496
754	0.0043108
766	0.0046384
778	0.0054288
790	0.0024648
802	0.0011076
814	0.0010868
826	0.0012532
838	0.0020904
850	0.0030368
862	0.0049244
874	0.012792
886	0.0110396
898	0.003952
910	0.0042536
922	0.0057668
934	0.0031668
946	0.0023036
958	0.0016276
970	0.0016068
982	0.0014144
994	0.00208
1006	0.0048464
1018	0.004004
1030	0.00247
1042	0.0039572
1054	0.0085592
1066	0.0077064
1078	0.0062868
1090	0.0074568
1102	0.0132548
1114	0.0172172
1126	0.0174772
1138	0.0164008
1150	0.0179348
1162	0.0248664
1174	0.0168428
1186	0.0272064
1198	0.0337844
1210	0.0448968
1222	0.0356772
1234	0.021424
1246	0.0171132
1258	0.0174356
1270	0.016354
1282	0.0121316
1294	0.012428
1306	0.0090324
1318	0.0126568
1330	0.0149916
1342	0.0064896
1354	0.003406
1366	0.0044564
1378	0.0060424
1390	0.004056
1402	0.0026156
1414	0.0032396
1426	0.0058812
1438	0.0077324
1450	0.0129532
1462	0.027716
1474	0.04173
1486	0.0399412
1498	0.0261716
1510	0.0165256
1522	0.0106756
1534	0.00767
1546	0.0056212
1558	0.0042744
1570	0.0035308
1582	0.003796
1594	0.005694
1606	0.0051844
1618	0.0048152
1630	0.0026884
1642	0.0012584
1654	0.0009516
1666	0.0007124
1678	0.0006864
1690	0.0008216
1702	0.0011232
1714	0.0017056
1726	0.0030056
1738	0.0048672
1750	0.0072696
1762	0.0168636
1774	0.0458744
1786	0.0362388
1798	0.010426
1810	0.00455
1822	0.0035932
1834	0.002314
1846	0.0013832
1858	0.0007852
1870	0.0005564
1882	0.000572
1894	0.0005824
1906	0.0002912
1918	0.0001664
1930	0.0001144
1942	7.8e-05
1954	6.76e-05
1966	0.000104
1978	6.76e-05
1990	0.0001092
2002	0.0001352
2014	0.0001664
2026	0.0001612
2038	0.0001092
2050	5.72e-05
2062	6.24e-05
2074	0.00013
2086	0.000182
2098	0.000208
2110	0.0002704
2122	0.000338
2134	0.0002808
2146	0.0001352
2158	8.84e-05
2170	3.12e-05
2182	6.24e-05
2194	0.0001248
2206	0.0002288
2218	0.0003744
2230	0.0006136
2242	0.0009828
2254	0.0013884
2266	0.0016536
2278	0.0019032
2290	0.001664
2302	0.0014144
2314	0.0013104
2326	0.000676
2338	0.000546
2350	0.0003588
2362	0.000104
2374	4.16e-05
2386	7.28e-05
2398	8.32e-05
2410	5.2e-05
2422	8.84e-05
2434	6.24e-05
2446	0.0001248
2458	0.0001456
2470	0.0001248
2482	0.0001508
2494	0.0001612
2506	0.0001716
2518	0.0001144
2530	5.2e-05
2542	2.08e-05
2554	6.76e-05
2566	0.0001092
2578	0.0001196
2590	0.000208
2602	0.0002288
2614	0.0001768
2626	0.000182
2638	0.0001768
2650	0.0001976
2662	0.0001404
2674	0.0001768
2686	0.0001508
2698	0.0001976
2710	0.0001404
2722	0.000156
2734	0.0002548
2746	0.0001716
2758	0.0001508
2770	0.0001924
2782	0.0002444
2794	0.0003016
2806	0.0004836
2818	0.001092
2830	0.0015964
2842	0.0013988
2854	0.002418
2866	0.0035776
2878	0.0030836
2890	0.0035776
2902	0.0044928
2914	0.0059384
2926	0.0080912
2938	0.0110812
2950	0.0097656
2962	0.007696
2974	0.0116896
2986	0.0143
2998	0.0036608
3010	0.0018044
3022	0.0017264
3034	0.0024284
3046	0.003016
3058	0.0026936
3070	0.0033436
3082	0.0027768
3094	0.001378
3106	0.0007072
3118	0.000364
3130	0.0002756
3142	0.0001716
3154	0.0001092
3166	0.0001612
3178	0.0001716
3190	0.0002392
3202	0.0001924
3214	0.0001768
3226	0.0001456
3238	6.76e-05
3250	9.36e-05
3262	6.76e-05
3274	4.68e-05
3286	2.6e-05
3298	7.28e-05
3310	3.12e-05
3322	4.16e-05
3334	5.2e-05
3346	5.2e-05
3358	6.24e-05
3370	0
3382	9.88e-05
3394	8.84e-05
3406	0.0001508
3418	0.000208
3430	0.000234
3442	0.0003848
3454	0.0007228
3466	0.0014716
3478	0.0030628
3490	0.0045032
3502	0.0029484
3514	0.0010504
3526	0.0006344
3538	0.0006188
3550	0.0004732
3562	0.0003276
3574	0.000182
3586	0.000182
3598	0.0001612
3610	0.0002236
3622	0.0002808
3634	0.0001248
3646	9.88e-05
3658	3.64e-05
3670	9.36e-05
3682	0.0001976
3694	6.76e-05
3706	0.0001144
3718	0.000104
3730	0.0001508
3742	0.0001456
3754	0.0001248
3766	9.36e-05
3778	0.0001248
3790	9.88e-05
3802	6.24e-05
3814	0.0001248
3826	3.64e-05
3838	8.84e-05
