Infrared Spectrum: Benzenesulfonic acid, 3-(4-diethylamino-2-hydroxyphenylazo)-4-hydroxy-
Formula: C16 H19 N3 O5 S
CAS: 1563-01-5
State: SOLID (SPLIT MULL), FLUOROLUBE FOR 3800-1330 CM^-^1, NUJOL FOR 1330-400 CM^-^1
Class: COBLENTZ III
Instrument: DOW KBr FOREPRISM-GRATING
Instrument parameters: BLAZED AT 3.5, 12.0, 20.0 MICRON AND CHANGED AT 5.0, 7.5, 14.9 MICRON
Sampling: TRANSMISSION
Resolution: 2
Origin: DOW CHEMICAL COMPANY
1/CM	TRANSMITTANCE
392	0.7378
401	0.7428
410	0.7458
419	0.7486
428	0.7475
437	0.744
446	0.7415
455	0.7425
464	0.7328
473	0.7675
482	0.7658
491	0.7668
500	0.7618
509	0.7419
518	0.6994
527	0.6136
536	0.5465
545	0.6508
554	0.6438
563	0.6318
572	0.5118
581	0.5604
590	0.6955
599	0.6883
608	0.4756
617	0.5594
626	0.6027
635	0.7111
644	0.7057
653	0.7153
662	0.7158
671	0.6998
680	0.6383
689	0.4568
698	0.3045
707	0.4182
716	0.5538
725	0.5855
734	0.6821
743	0.6844
752	0.664
761	0.6295
770	0.6108
779	0.641
788	0.6251
797	0.6184
806	0.6735
815	0.6042
824	0.3841
833	0.626
842	0.7265
851	0.7861
860	0.7972
869	0.7875
878	0.7432
887	0.5203
896	0.714
905	0.8022
914	0.7885
923	0.7744
932	0.7505
941	0.7407
950	0.6762
959	0.6528
968	0.7296
977	0.7295
986	0.7146
995	0.6384
1004	0.5133
1013	0.5012
1022	0.3892
1031	0.1271
1040	0.336
1049	0.6275
1058	0.5794
1067	0.4628
1076	0.3006
1085	0.1684
1094	0.451
1103	0.4987
1112	0.4599
1121	0.2962
1130	0.3013
1139	0.2971
1148	0.191
1157	0.1832
1166	0.1384
1175	0.1469
1184	0.1583
1193	0.1932
1202	0.1946
1211	0.1619
1220	0.1383
1229	0.2176
1238	0.2526
1247	0.2519
1256	0.1338
1265	0.1532
1274	0.2219
1283	0.2846
1292	0.3726
1301	0.3047
1310	0.4953
1319	0.466
1328	0.394
1337	0.2762
1346	0.1614
1355	0.1723
1364	0.2719
1373	0.3809
1382	0.3256
1391	0.285
1400	0.2094
1409	0.2258
1418	0.3111
1427	0.2701
1436	0.1521
1445	0.1793
1454	0.3193
1463	0.302
1472	0.2193
1481	0.149
1490	0.1302
1499	0.1141
1508	0.143
1517	0.1303
1526	0.1248
1535	0.0816
1544	0.1712
1553	0.4728
1562	0.5262
1571	0.5781
1580	0.5297
1589	0.388
1598	0.2861
1607	0.2289
1616	0.1949
1625	0.1154
1634	0.1424
1643	0.5455
1652	0.7425
1661	0.8268
1670	0.8606
1679	0.883
1688	0.8874
1697	0.885
1706	0.8751
1715	0.8713
1724	0.8736
1733	0.8697
1742	0.861
1751	0.8525
1760	0.8439
1769	0.8368
1778	0.8271
1787	0.8175
1796	0.8078
1805	0.7989
1814	0.7915
1823	0.7844
1832	0.7758
1841	0.7664
1850	0.7565
1859	0.7438
1868	0.7328
1877	0.7254
1886	0.716
1895	0.7065
1904	0.6971
1913	0.6924
1922	0.6891
1931	0.6789
1940	0.674
1949	0.6701
1958	0.6678
1967	0.6656
1976	0.6591
1985	0.6558
1994	0.6541
2003	0.6537
2012	0.6535
2021	0.6519
2030	0.6498
2039	0.6471
2048	0.6438
2057	0.6395
2066	0.6349
2075	0.6297
2084	0.6243
2093	0.6178
2102	0.6109
2111	0.6044
2120	0.5995
2129	0.5946
2138	0.5896
2147	0.5843
2156	0.5788
2165	0.5732
2174	0.5675
2183	0.5605
2192	0.5532
2201	0.5445
2210	0.5359
2219	0.5272
2228	0.5196
2237	0.5112
2246	0.5033
2255	0.4953
2264	0.4874
2273	0.4793
2282	0.471
2291	0.4629
2300	0.4546
2309	0.4464
2318	0.4386
2327	0.4329
2336	0.4282
2345	0.4237
2354	0.4193
2363	0.4162
2372	0.4134
2381	0.4103
2390	0.4068
2399	0.4032
2408	0.3977
2417	0.3896
2426	0.3803
2435	0.3708
2444	0.363
2453	0.3554
2462	0.3498
2471	0.3466
2480	0.3436
2489	0.3407
2498	0.3377
2507	0.3353
2516	0.3332
2525	0.331
2534	0.329
2543	0.3268
2552	0.3246
2561	0.3223
2570	0.32
2579	0.3176
2588	0.3145
2597	0.3113
2606	0.3088
2615	0.3064
2624	0.3041
2633	0.3017
2642	0.2994
2651	0.2969
2660	0.2945
2669	0.2911
2678	0.2875
2687	0.2838
2696	0.2807
2705	0.2785
2714	0.2785
2723	0.2791
2732	0.2791
2741	0.2765
2750	0.2705
2759	0.2646
2768	0.2597
2777	0.2553
2786	0.2512
2795	0.247
2804	0.2428
2813	0.2384
2822	0.2341
2831	0.2296
2840	0.2239
2849	0.2181
2858	0.2124
2867	0.2068
2876	0.2013
2885	0.1958
2894	0.1903
2903	0.185
2912	0.1795
2921	0.1744
2930	0.1695
2939	0.1666
2948	0.1653
2957	0.1634
2966	0.1575
2975	0.1523
2984	0.1507
2993	0.1535
3002	0.1579
3011	0.1621
3020	0.1654
3029	0.165
3038	0.1636
3047	0.1623
3056	0.1611
3065	0.1601
3074	0.1591
3083	0.1581
3092	0.1578
3101	0.1581
3110	0.1584
3119	0.1586
3128	0.1588
3137	0.159
3146	0.1589
3155	0.1574
3164	0.1559
3173	0.1544
3182	0.1535
3191	0.1527
3200	0.1518
3209	0.1512
3218	0.1519
3227	0.1525
3236	0.1538
3245	0.1552
3254	0.1567
3263	0.1569
3272	0.1563
3281	0.1556
3290	0.1548
3299	0.154
3308	0.1538
3317	0.1541
3326	0.1544
3335	0.1546
3344	0.155
3353	0.155
3362	0.1559
3371	0.1572
3380	0.1585
3389	0.1598
3398	0.1613
3407	0.1628
3416	0.1641
3425	0.1645
3434	0.1651
3443	0.1695
3452	0.1742
3461	0.1786
3470	0.1832
3479	0.1877
3488	0.1922
3497	0.1975
3506	0.2034
3515	0.2105
3524	0.2179
3533	0.2253
3542	0.2324
3551	0.2393
3560	0.2463
3569	0.2532
3578	0.2601
3587	0.2666
3596	0.2727
3605	0.2787
3614	0.2845
3623	0.2885
3632	0.2888
3641	0.2928
3650	0.2988
3659	0.3032
3668	0.3018
3677	0.2994
3686	0.2961
3695	0.2929
3704	0.2901
3713	0.287
3722	0.2826
3731	0.2781
3740	0.2742
3749	0.2703
3758	0.2668
3767	0.2633
3776	0.2602
3785	0.2573
3794	0.2545
