Infrared Spectrum: PHOSPHOROUS ACID, 2-ETHYLHEXYL DIPHENYL ESTER
Formula: C20 H27 O3 P
CAS: 15647-08-2
Class: COBLENTZ
Instrument: Not specified, most likely a prism, grating, or hybrid spectrometer.
Sampling: TRANSMISSION
Path length: SMEAR
Resolution: 4
Origin: TENNESSEE EASTMAN COMPANY, RESEARCH LABORATORIES
MICROMETERS	TRANSMITTANCE
2	0.986
2.04088	0.988
2.08175	0.986
2.12263	0.984
2.1635	0.984
2.20438	0.982
2.24526	0.974
2.28613	0.967
2.32701	0.964
2.36788	0.964
2.40876	0.965
2.44964	0.955
2.49051	0.962
2.53139	0.962
2.57226	0.962
2.61314	0.959
2.65402	0.959
2.69489	0.957
2.73577	0.957
2.77665	0.955
2.81752	0.945
2.8584	0.937
2.89927	0.925
2.94015	0.909
2.98103	0.882
3.0219	0.853
3.06278	0.853
3.10365	0.874
3.14453	0.889
3.18541	0.909
3.22628	0.887
3.26716	0.782
3.30803	0.814
3.34891	0.632
3.38979	0.336
3.43066	0.527
3.47154	0.5
3.51241	0.852
3.55329	0.901
3.59417	0.925
3.63504	0.925
3.67592	0.926
3.71679	0.933
3.75767	0.94
3.79855	0.94
3.83942	0.94
3.8803	0.94
3.92117	0.942
3.96205	0.948
4.00293	0.95
4.0438	0.945
4.08468	0.937
4.12556	0.921
4.16643	0.92
4.20731	0.931
4.24818	0.935
4.28906	0.931
4.32994	0.931
4.37081	0.948
4.41169	0.952
4.45256	0.952
4.49344	0.954
4.53432	0.954
4.57519	0.954
4.61607	0.954
4.65694	0.954
4.69782	0.954
4.7387	0.942
4.77957	0.942
4.82045	0.942
4.86132	0.938
4.9022	0.942
4.94308	0.942
4.98395	0.945
5.02483	0.937
5.0657	0.928
5.10658	0.909
5.14746	0.889
5.18833	0.911
5.22921	0.931
5.27008	0.93
5.31096	0.92
5.35184	0.909
5.39271	0.911
5.43359	0.918
5.47447	0.926
5.51534	0.926
5.55622	0.913
5.59709	0.892
5.63797	0.887
5.67885	0.908
5.71972	0.886
5.7606	0.867
5.80147	0.867
5.84235	0.87
5.88323	0.872
5.9241	0.879
5.96498	0.874
6.00585	0.877
6.04673	0.869
6.08761	0.863
6.12848	0.855
6.16936	0.829
6.21023	0.709
6.25111	0.278
6.29199	0.389
6.33286	0.739
6.37374	0.818
6.41461	0.838
6.45549	0.843
6.49637	0.84
6.53724	0.809
6.57812	0.756
6.61899	0.557
6.65987	0.195
6.70075	0.267
6.74162	0.416
6.7825	0.472
6.82338	0.501
6.86425	0.639
6.90513	0.765
6.946	0.821
6.98688	0.84
7.02776	0.846
7.06863	0.853
7.10951	0.846
7.15038	0.812
7.19126	0.772
7.23214	0.702
7.27301	0.765
7.31389	0.809
7.35476	0.821
7.39564	0.833
7.43652	0.831
7.47739	0.823
7.51827	0.831
7.55914	0.84
7.60002	0.835
7.6409	0.826
7.68177	0.819
7.72265	0.801
7.76352	0.761
7.8044	0.743
7.84528	0.717
7.88615	0.7
7.92703	0.676
7.9679	0.642
8.00878	0.576
8.04966	0.409
8.09053	0.353
8.13141	0.312
8.17229	0.324
8.21316	0.358
8.25404	0.232
8.29491	0.147
8.33579	0.166
8.37667	0.236
8.41754	0.399
8.45842	0.545
8.49929	0.556
8.54017	0.38
8.58105	0.401
8.62192	0.545
8.6628	0.656
8.70367	0.726
8.74455	0.761
8.78543	0.782
8.8263	0.792
8.86718	0.795
8.90805	0.784
8.94893	0.768
8.98981	0.763
9.03068	0.777
9.07156	0.787
9.11243	0.778
9.15331	0.748
9.19419	0.717
9.23506	0.685
9.27594	0.586
9.31681	0.542
9.35769	0.63
9.39857	0.661
9.43944	0.661
9.48032	0.632
9.5212	0.59
9.56207	0.539
9.60295	0.476
9.64382	0.426
9.6847	0.36
9.72558	0.29
9.76645	0.282
9.80733	0.272
9.8482	0.261
9.88908	0.261
9.92996	0.275
9.97083	0.299
10.0117	0.328
10.0526	0.352
10.0935	0.362
10.1343	0.369
10.1752	0.365
10.2161	0.367
10.257	0.37
10.2978	0.38
10.3387	0.428
10.3796	0.481
10.4205	0.537
10.4613	0.596
10.5022	0.642
10.5431	0.68
10.584	0.702
10.6248	0.709
10.6657	0.705
10.7066	0.692
10.7475	0.663
10.7884	0.646
10.8292	0.612
10.8701	0.576
10.911	0.535
10.9519	0.489
10.9927	0.428
11.0336	0.377
11.0745	0.362
11.1154	0.367
11.1562	0.369
11.1971	0.363
11.238	0.346
11.2789	0.302
11.3197	0.278
11.3606	0.268
11.4015	0.265
11.4424	0.26
11.4832	0.25
11.5241	0.222
11.565	0.195
11.6059	0.164
11.6468	0.156
11.6876	0.164
11.7285	0.209
11.7694	0.295
11.8103	0.394
11.8511	0.476
11.892	0.515
11.9329	0.551
11.9738	0.556
12.0146	0.544
12.0555	0.52
12.0964	0.503
12.1373	0.503
12.1781	0.53
12.219	0.556
12.2599	0.564
12.3008	0.576
12.3416	0.581
12.3825	0.586
12.4234	0.588
12.4643	0.588
12.5051	0.578
12.546	0.568
12.5869	0.551
12.6278	0.532
12.6687	0.493
12.7095	0.445
12.7504	0.396
12.7913	0.35
12.8322	0.318
12.873	0.301
12.9139	0.284
12.9548	0.275
12.9957	0.272
13.0365	0.272
13.0774	0.289
13.1183	0.304
13.1592	0.329
13.2	0.375
13.2409	0.44
13.2818	0.496
13.3227	0.527
13.3635	0.547
13.4044	0.549
13.4453	0.537
13.4862	0.523
13.527	0.517
13.5679	0.51
13.6088	0.496
13.6497	0.484
13.6906	0.467
13.7314	0.448
13.7723	0.431
13.8132	0.403
13.8541	0.386
13.8949	0.365
13.9358	0.355
13.9767	0.352
14.0176	0.363
14.0584	0.387
14.0993	0.421
14.1402	0.455
14.1811	0.484
14.2219	0.503
14.2628	0.51
14.3037	0.501
14.3446	0.447
14.3854	0.367
14.4263	0.311
14.4672	0.272
14.5081	0.285
14.549	0.353
14.5898	0.44
14.6307	0.51
14.6716	0.562
14.7125	0.593
14.7533	0.605
14.7942	0.617
14.8351	0.622
14.876	0.624
14.9168	0.622
14.9577	0.62
14.9986	0.619
15.0395	0.617
15.0803	0.607
15.1212	0.602
15.1621	0.598
15.203	0.596
15.2438	0.596
15.2847	0.59
15.3256	0.588
15.3665	0.588
15.4073	0.586
15.4482	0.579
15.4891	0.578
15.53	0.573
15.5709	0.571
15.6117	0.569
15.6526	0.566
15.6935	0.562
15.7344	0.562
15.7752	0.562
15.8161	0.561
15.857	0.557
15.8979	0.556
15.9387	0.554
