Infrared Spectrum: 9-Bromoanthracene
Formula: C 14 H 9 Br
CAS: 1564-64-3
State: gas
Instrument: HP-GC/MS/IRD
Origin: NIST Mass Spectrometry Data Center
1/CM	ABSORBANCE
550	0.0006511
562	3.06e-05
574	0.0003094
586	0.0001836
598	0.0012036
610	0.0009486
622	0.0002278
634	0.0009945
646	0.000595
658	0.0004573
670	0.0003808
682	1.53e-05
694	0.0001445
706	0.0004709
718	0.0041514
730	0.017
742	0.0040749
754	0.0009537
766	0.0030413
778	0.0020077
790	0.0004012
802	0.0010846
814	0.0018003
826	0.0019941
838	0.0022355
850	0.0005321
862	0.0007616
874	0.0032929
886	0.0036499
898	0.00068
910	0.0023511
922	0.0084898
934	0.0015657
946	0.0006154
958	0.0004845
970	0.0001207
982	0.0001309
994	0.0005202
1006	0.0016286
1018	0.0011713
1030	0.0002142
1042	7.99e-05
1054	0.0001513
1066	0.0001496
1078	0.0001156
1090	0.0001241
1102	0.0001989
1114	0.0001734
1126	7.82e-05
1138	0.0002465
1150	0.0001105
1162	0.0002397
1174	0.000578
1186	0.0002822
1198	0.0003502
1210	0.0002924
1222	0.0003944
1234	0.0007157
1246	0.0016541
1258	0.0052547
1270	0.003689
1282	0.0006868
1294	0.0016167
1306	0.0035241
1318	0.003247
1330	0.0006953
1342	0.0001564
1354	0.0001275
1366	0.0001785
1378	0.0006001
1390	0.0015861
1402	0.0005066
1414	0.0002703
1426	0.0003417
1438	0.0012597
1450	0.0009537
1462	0.0004607
1474	0.0005542
1486	0.0003876
1498	0.0002771
1510	0.0002652
1522	0.0010914
1534	0.0008653
1546	0.0011594
1558	0.0004046
1570	0.0004522
1582	0.0004828
1594	0.0004505
1606	0.0003417
1618	0.0006375
1630	0.0006987
1642	0.0002057
1654	2.04e-05
1666	0.00034
1678	0.0007531
1690	0.0006409
1702	0.0008568
1714	0.0004947
1726	0.0004131
1738	0.0002669
1750	0.0002278
1762	0.0003723
1774	0.000357
1786	0.0006732
1798	0.0008721
1810	0.0008721
1822	0.0004046
1834	0.0003604
1846	0.0002125
1858	0.0002295
1870	0.0001479
1882	0.0002244
1894	0.0004318
1906	0.0006392
1918	0.0006579
1930	0.0007225
1942	0.0008874
1954	0.0002499
1966	0.0001768
1978	0.0001462
1990	0.0001054
2002	0.0001428
2014	0.0001411
2026	0.0001734
2038	0.0001836
2050	0.0001598
2062	0.0001547
2074	0.0001445
2086	0.000119
2098	0.0001122
2110	0.0001071
2122	0.0001275
2134	0.0001258
2146	0.0001377
2158	0.0001326
2170	0.0001428
2182	0.0001343
2194	0.0001411
2206	0.0001122
2218	0.0001139
2230	0.0001428
2242	0.0001479
2254	0.0001343
2266	0.0001564
2278	0.0001564
2290	0.0001683
2302	0.0001598
2314	0.0001598
2326	8.84e-05
2338	6.46e-05
2350	0.0001122
2362	6.29e-05
2374	6.63e-05
2386	0.0001173
2398	0.0001122
2410	0.0001343
2422	0.0001156
2434	9.52e-05
2446	9.18e-05
2458	0.0001224
2470	0.0001241
2482	0.0001088
2494	7.31e-05
2506	6.97e-05
2518	6.97e-05
2530	9.18e-05
2542	0.0001513
2554	8.5e-05
2566	7.48e-05
2578	9.18e-05
2590	7.31e-05
2602	5.78e-05
2614	7.82e-05
2626	3.91e-05
2638	5.78e-05
2650	6.8e-05
2662	5.95e-05
2674	7.99e-05
2686	0.0001003
2698	6.97e-05
2710	4.93e-05
2722	4.42e-05
2734	3.06e-05
2746	2.21e-05
2758	4.93e-05
2770	5.78e-05
2782	3.4e-05
2794	3.91e-05
2806	0.0001139
2818	0.0001037
2830	0.0001666
2842	0.0001258
2854	8.67e-05
2866	8.67e-05
2878	0.0001139
2890	0.0001377
2902	0.0001768
2914	0.000238
2926	0.0001853
2938	0.000153
2950	0.0002108
2962	0.0002006
2974	0.00034
2986	0.0006137
2998	0.0008687
3010	0.0008092
3022	0.0011152
3034	0.0027506
3046	0.0054842
3058	0.0073032
3070	0.0044914
3082	0.0060894
3094	0.0035938
3106	0.0009928
3118	0.0004301
3130	0.0002941
3142	0.0002584
3154	0.0002584
3166	0.0002414
3178	0.0002159
3190	0.0001972
3202	0.0002278
3214	0.0001972
3226	0.0001666
3238	0.0001904
3250	0.0001343
3262	0.0001428
3274	0.0001513
3286	0.0001258
3298	0.0001717
3310	0.0001734
3322	0.0001258
3334	0.0001547
3346	0.0001717
3358	0.0001275
3370	0.0001751
3382	0.0001496
3394	0.0001411
3406	0.0001989
3418	0.000153
3430	0.0001751
3442	0.0001632
3454	0.0001785
3466	0.0001768
3478	0.0001649
3490	0.0001615
3502	9.86e-05
3514	0.0001513
3526	7.99e-05
3538	0.0001564
3550	0.0001564
3562	8.16e-05
3574	0.00017
3586	6.12e-05
3598	0.0001649
3610	3.91e-05
3622	0.0001649
3634	0.0001598
3646	0.0001156
3658	0.0001938
3670	0.000153
3682	0.0002278
3694	0.0002448
3706	0.0002295
3718	0.0002754
3730	0.000153
3742	4.42e-05
3754	0.0001377
3766	0.0002108
3778	0.0002533
3790	0.0002737
3802	0.0001768
3814	0.0002057
3826	0.0002516
3838	0.0001462
