Infrared Spectrum: l-2-Methyl-1-butanol
Formula: C 5 H 12 O
CAS: 1565-80-6
State: gas
Instrument: HP-GC/MS/IRD
Origin: NIST Mass Spectrometry Data Center
1/CM	ABSORBANCE
550	0.0002754
562	0.0001674
574	0.000162
586	0.000225
598	0.000216
610	0.000135
622	0.0001242
634	1.8e-06
646	6.84e-05
658	5.58e-05
670	0.0001098
682	0
694	7.2e-06
706	5.94e-05
718	0.0001296
730	0.0001422
742	0.000198
754	0.000441
766	0.0004914
778	0.0004626
790	0.0004554
802	0.0003366
814	0.0002322
826	0.0001512
838	0.0001998
850	0.0001638
862	0.000288
874	0.0003564
886	0.0005112
898	0.0006786
910	0.0007794
922	0.0007812
934	0.0008856
946	0.0011502
958	0.001638
970	0.0022428
982	0.0028782
994	0.0038088
1006	0.0052488
1018	0.006552
1030	0.0083898
1042	0.0094536
1054	0.008001
1066	0.003852
1078	0.001665
1090	0.001395
1102	0.0014814
1114	0.0014022
1126	0.0012366
1138	0.0011142
1150	0.0011556
1162	0.0011484
1174	0.0011214
1186	0.0011646
1198	0.0013644
1210	0.0015606
1222	0.0015768
1234	0.0014544
1246	0.0013644
1258	0.0013446
1270	0.0013032
1282	0.0013158
1294	0.0012888
1306	0.001242
1318	0.0011898
1330	0.001224
1342	0.0013374
1354	0.001584
1366	0.0020736
1378	0.0026064
1390	0.002655
1402	0.0019548
1414	0.0011232
1426	0.0008982
1438	0.0012636
1450	0.0021906
1462	0.002952
1474	0.0026928
1486	0.0017424
1498	0.000837
1510	0.0003942
1522	0.000243
1534	0.0002376
1546	0.0001908
1558	0.0001566
1570	0.0001674
1582	0.0001566
1594	0.0001512
1606	0.000108
1618	0.0001314
1630	0.0001494
1642	9.54e-05
1654	9.54e-05
1666	0.0001134
1678	9.9e-05
1690	9.54e-05
1702	4.32e-05
1714	5.22e-05
1726	6.12e-05
1738	1.8e-05
1750	1.98e-05
1762	4.5e-05
1774	4.5e-05
1786	4.5e-05
1798	1.08e-05
1810	2.16e-05
1822	4.68e-05
1834	6.48e-05
1846	3.6e-06
1858	1.08e-05
1870	7.2e-06
1882	4.5e-05
1894	4.14e-05
1906	2.52e-05
1918	5.76e-05
1930	6.66e-05
1942	3.78e-05
1954	2.34e-05
1966	5.58e-05
1978	3.06e-05
1990	3.78e-05
2002	2.88e-05
2014	3.6e-05
2026	5.94e-05
2038	6.3e-05
2050	8.46e-05
2062	7.02e-05
2074	6.48e-05
2086	8.1e-05
2098	4.68e-05
2110	2.88e-05
2122	1.62e-05
2134	5.4e-06
2146	2.52e-05
2158	2.34e-05
2170	3.96e-05
2182	3.42e-05
2194	3.24e-05
2206	1.62e-05
2218	5.22e-05
2230	1.44e-05
2242	2.7e-05
2254	2.88e-05
2266	1.62e-05
2278	4.68e-05
2290	1.62e-05
2302	2.7e-05
2314	2.16e-05
2326	2.34e-05
2338	1.8e-05
2350	6.66e-05
2362	6.12e-05
2374	5.76e-05
2386	5.4e-05
2398	6.66e-05
2410	9.18e-05
2422	0.0001098
2434	9.72e-05
2446	9.54e-05
2458	9.36e-05
2470	9.36e-05
2482	6.84e-05
2494	6.3e-05
2506	6.3e-05
2518	7.92e-05
2530	9.36e-05
2542	9e-05
2554	0.000126
2566	0.000153
2578	0.0001386
2590	0.0001422
2602	0.000171
2614	0.0001674
2626	0.0002124
2638	0.0002052
2650	0.000207
2662	0.0002304
2674	0.0002988
2686	0.0003276
2698	0.0003654
2710	0.0004212
2722	0.0005346
2734	0.000666
2746	0.0007758
2758	0.0008136
2770	0.000873
2782	0.0009396
2794	0.0010512
2806	0.0011754
2818	0.0014166
2830	0.001881
2842	0.0028008
2854	0.0047718
2866	0.0082044
2878	0.0114912
2890	0.012744
2902	0.012537
2914	0.0133704
2926	0.014679
2938	0.0147924
2950	0.0149886
2962	0.0175374
2974	0.0161766
2986	0.010395
2998	0.004176
3010	0.0017622
3022	0.0011484
3034	0.0009252
3046	0.0007992
3058	0.0007218
3070	0.0006444
3082	0.000558
3094	0.0004986
3106	0.0004986
3118	0.0003708
3130	0.0003384
3142	0.000306
3154	0.0002826
3166	0.000297
3178	0.0002772
3190	0.000216
3202	0.0001926
3214	0.0001584
3226	0.0001242
3238	6.66e-05
3250	7.2e-05
3262	0.0001224
3274	5.76e-05
3286	6.3e-05
3298	7.2e-05
3310	4.14e-05
3322	1.98e-05
3334	0.0001098
3346	5.76e-05
3358	7.74e-05
3370	5.58e-05
3382	3.42e-05
3394	5.76e-05
3406	7.92e-05
3418	7.92e-05
3430	8.1e-05
3442	9.18e-05
3454	0.0001782
3466	8.82e-05
3478	0.0001584
3490	0.0001512
3502	0.000144
3514	0.0001422
3526	0.0001152
3538	0.0001152
3550	8.64e-05
3562	5.22e-05
3574	0.0001188
3586	0.0001908
3598	0.0001962
3610	0.0002124
3622	0.000252
3634	0.0004194
3646	0.0009108
3658	0.0017694
3670	0.0021744
3682	0.0017082
3694	0.0008046
3706	0.0003276
3718	0.0001728
3730	0.0001278
3742	0.0001206
3754	0.0001044
3766	0.0001764
3778	0.000153
3790	0.0001746
3802	0.0001548
3814	0.000207
3826	0.0001854
3838	0.0001872
