Infrared Spectrum: R-(+)-1-Phenylpropanol
Formula: C 9 H 12 O
CAS: 1565-74-8
State: gas
Origin: EPA-IR VAPOR PHASE LIBRARY
1/CM	ABSORBANCE
549.8	0.00477
559.445	0.00251
569.09	0.00231
578.734	0.00206
588.379	0.00262
598.024	0.00381
607.669	0.00363
617.313	0.00401
626.958	0.00492
636.603	0.00377
646.248	0.00413
655.893	0.00513
665.537	0.00666
675.182	0.0089
684.827	0.01894
694.472	0.03532
704.116	0.03472
713.761	0.01943
723.406	0.0117
733.051	0.01335
742.695	0.01856
752.34	0.0223
761.985	0.0188
771.63	0.01171
781.275	0.00593
790.919	0.0039
800.564	0.00317
810.209	0.00304
819.854	0.00328
829.498	0.00405
839.143	0.00365
848.788	0.00317
858.433	0.0038
868.078	0.00387
877.722	0.00559
887.367	0.00695
897.012	0.0082
906.657	0.00783
916.301	0.00662
925.946	0.00511
935.591	0.00572
945.236	0.00715
954.88	0.01139
964.525	0.01848
974.17	0.02346
983.815	0.02242
993.46	0.02052
1003.1	0.02343
1012.75	0.02389
1022.39	0.02219
1032.04	0.02037
1041.68	0.01832
1051.33	0.01584
1060.97	0.01479
1070.62	0.01449
1080.26	0.01637
1089.91	0.01711
1099.55	0.01494
1109.2	0.01306
1118.84	0.00944
1128.49	0.00647
1138.13	0.00435
1147.78	0.00507
1157.42	0.00639
1167.07	0.00822
1176.71	0.00961
1186.36	0.00967
1196	0.00933
1205.64	0.00961
1215.29	0.01114
1224.93	0.01174
1234.58	0.01122
1244.22	0.01016
1253.87	0.01065
1263.51	0.01142
1273.16	0.01199
1282.8	0.01231
1292.45	0.01302
1302.09	0.01321
1311.74	0.01243
1321.38	0.01198
1331.03	0.0108
1340.67	0.00986
1350.32	0.01126
1359.96	0.01369
1369.61	0.01511
1379.25	0.01513
1388.9	0.01287
1398.54	0.0091
1408.18	0.0064
1417.83	0.0054
1427.47	0.00576
1437.12	0.00873
1446.76	0.01371
1456.41	0.01551
1466.05	0.01253
1475.7	0.00961
1485.34	0.01022
1494.99	0.01006
1504.63	0.0056
1514.28	0.0029
1523.92	0.00233
1533.57	0.00234
1543.21	0.00201
1552.86	0.00176
1562.5	0.00168
1572.15	0.00177
1581.79	0.00245
1591.44	0.00345
1601.08	0.00437
1610.73	0.00305
1620.37	0.00152
1630.01	0.0011162
1639.66	0.0011847
1649.3	0.00127
1658.95	0.0010614
1668.59	0.0011851
1678.24	0.0011464
1687.88	0.0008702
1697.53	0.0007699
1707.17	0.0009201
1716.82	0.0009427
1726.46	0.0010303
1736.11	0.0011548
1745.75	0.0011819
1755.4	0.0012064
1765.04	0.0010648
1774.69	0.0010842
1784.33	0.00135
1793.98	0.00241
1803.62	0.00235
1813.27	0.00146
1822.91	0.0010403
1832.55	0.0007102
1842.2	0.0009154
1851.84	0.0010282
1861.49	0.00163
1871.13	0.00175
1880.78	0.00191
1890.42	0.00189
1900.07	0.00127
1909.71	0.0009514
1919.36	0.0011186
1929	0.00172
1938.65	0.0025
1948.29	0.00262
1957.94	0.00205
1967.58	0.00132
1977.23	0.0006477
1986.87	0.0005667
1996.52	0.0005618
2006.16	0.0006252
2015.81	0.0005391
2025.45	0.0005212
2035.1	0.0006001
2044.74	0.000474
2054.38	0.000476
2064.03	0.0004906
2073.67	0.0005547
2083.32	0.0004927
2092.96	0.0004654
2102.61	0.0004854
2112.25	0.0003936
2121.9	0.0004483
2131.54	0.00033871
2141.19	0.0005402
2150.83	0.0003754
2160.48	0.0003653
2170.12	0.00034366
2179.77	0.0005658
2189.41	0.0004138
2199.06	0.0004255
2208.7	0.0004808
2218.35	0.0004314
2227.99	0.0004176
2237.64	0.0006487
2247.28	0.0005689
2256.92	0.0006136
2266.57	0.0005476
2276.21	0.0006214
2285.86	0.0006414
2295.5	0.0005946
2305.15	0.0005504
2314.79	0.0008463
2324.44	0.0009887
2334.08	0.0008408
2343.73	0.0008878
2353.37	0.0009052
2363.02	0.0008124
2372.66	0.0007116
2382.31	0.00062
2391.95	0.0005952
2401.6	0.0008391
2411.24	0.0006812
2420.89	0.0006192
2430.53	0.0007962
2440.18	0.0006052
2449.82	0.0005681
2459.47	0.0006316
2469.11	0.0005654
2478.75	0.000591
2488.4	0.0004577
2498.04	0.0005829
2507.69	0.0006752
2517.33	0.0006643
2526.98	0.0006349
2536.62	0.0006529
2546.27	0.0007465
2555.91	0.0007296
2565.56	0.0009485
2575.2	0.0009775
2584.85	0.0011601
2594.49	0.001186
2604.14	0.0010891
2613.78	0.0008853
2623.43	0.0009586
2633.07	0.0009803
2642.72	0.0009468
2652.36	0.0009775
2662.01	0.0010644
2671.65	0.001006
2681.29	0.0011421
2690.94	0.0010977
2700.58	0.0010835
2710.23	0.00132
2719.87	0.0011693
2729.52	0.00145
2739.16	0.00163
2748.81	0.00179
2758.45	0.00175
2768.1	0.00165
2777.74	0.00204
2787.39	0.00224
2797.03	0.00239
2806.68	0.00286
2816.32	0.00338
2825.97	0.00397
2835.61	0.00511
2845.26	0.00755
2854.9	0.01134
2864.55	0.01796
2874.19	0.02515
2883.84	0.03043
2893.48	0.02654
2903.12	0.01944
2912.77	0.01862
2922.41	0.02355
2932.06	0.03357
2941.7	0.03923
2951.35	0.03423
2960.99	0.03218
2970.64	0.04212
2980.28	0.03898
2989.93	0.02221
2999.57	0.01137
3009.22	0.00958
3018.86	0.01351
3028.51	0.02051
3038.15	0.02282
3047.8	0.01786
3057.44	0.01757
3067.09	0.02495
3076.73	0.02547
3086.38	0.01763
3096.02	0.01262
3105.67	0.00844
3115.31	0.00517
3124.95	0.00286
3134.6	0.00199
3144.24	0.00164
3153.89	0.00161
3163.53	0.00157
3173.18	0.00143
3182.82	0.0008406
3192.47	0.0008805
3202.11	0.0008637
3211.76	0.0004153
3221.4	0.0005508
3231.05	0.0006644
3240.69	0.0006341
3250.34	0.000505
3259.98	0.0004945
3269.63	0.00026221
3279.27	5.7e-05
3288.92	0.0006941
3298.56	0.000311
3308.21	0.00032475
3317.85	0.000187
3327.49	0.0002704
3337.14	0.0005301
3346.78	0.00027853
3356.43	0.0005857
3366.07	0.0005905
3375.72	0.0005658
3385.36	0.0007067
3395.01	0.0009973
3404.65	0.0006187
3414.3	0.0003637
3423.94	0.0007403
3433.59	0.0007027
3443.23	0.0006533
3452.88	0.0006359
3462.52	0.0007885
3472.17	0.0005
3481.81	0.0008846
3491.46	0.0006988
3501.1	0.0003728
3510.75	0.0004353
3520.39	0.0004285
3530.04	0.0002871
3539.68	0.00027019
3549.32	0.0004591
3558.97	0.0005279
3568.61	0.0004777
3578.26	0.0004405
3587.9	0.0005589
3597.55	0.0007323
3607.19	0.0012321
3616.84	0.00159
3626.48	0.00339
3636.13	0.00741
3645.77	0.01197
3655.42	0.01096
3665.06	0.00598
3674.71	0.00244
3684.35	0.00155
3694	0.0011077
3703.64	0.0011124
3713.29	0.0007961
3722.93	0.0006139
3732.58	0.0006382
3742.22	0.000715
3751.86	0.0006934
3761.51	0.00034149
3771.15	0.0003961
3780.8	0.0007118
3790.44	0.00028595
3800.09	0.00031453
3809.73	0.0005094
3819.38	0.0006466
3829.02	0.0008044
3838.67	0.0006538
3848.31	0.0005734
3857.96	0.0006809
3867.6	0.0008064
3877.25	0.0006401
3886.89	0.0011107
3896.54	0.0006694
3906.18	0.0007721
3915.83	0.0008668
3925.47	0.0006829
3935.12	0.000525
3944.76	0.0005649
3954.41	0.0005927
3964.05	0.0004217
3973.69	0.0006946
3983.34	0.0007202
3992.98	0.0004556
