Infrared Spectrum: 2-Phenyl-2-butanol
Formula: C 10 H 14 O
CAS: 1565-75-9
State: gas
Instrument: HP-GC/MS/IRD
Origin: NIST Mass Spectrometry Data Center
1/CM	ABSORBANCE
550	0.0024187
562	0.0019494
574	0.0022629
586	0.0014763
598	0.0005491
610	0.0005168
622	0.0001976
634	3.8e-06
646	0.0001178
658	0.0006308
670	0.001387
682	0.0036119
694	0.0094601
706	0.0088711
718	0.0032281
730	0.0013338
742	0.0023389
754	0.0059128
766	0.005168
778	0.0016511
790	0.0008379
802	0.0004465
814	8.93e-05
826	7.22e-05
838	0.000285
850	0.0008892
862	0.001273
874	0.0010203
886	0.0013357
898	0.0028747
910	0.0044365
922	0.0042712
934	0.0019285
946	0.0007695
958	0.0006897
970	0.0012578
982	0.0025327
994	0.0037772
1006	0.0037677
1018	0.0044232
1030	0.0057513
1042	0.0038969
1054	0.002299
1066	0.0021622
1078	0.0030305
1090	0.0037012
1102	0.0040755
1114	0.003743
1126	0.0034295
1138	0.0038646
1150	0.0048773
1162	0.0059983
1174	0.0049837
1186	0.002983
1198	0.0020387
1210	0.0023294
1222	0.0030647
1234	0.0030419
1246	0.0028709
1258	0.0030628
1270	0.0035017
1282	0.0041629
1294	0.0046702
1306	0.0048089
1318	0.0044099
1330	0.0038703
1342	0.0036442
1354	0.0033155
1366	0.0038551
1378	0.0050483
1390	0.0035188
1402	0.001634
1414	0.0012369
1426	0.0015694
1438	0.0032433
1450	0.004826
1462	0.004009
1474	0.0027702
1486	0.0029564
1498	0.0029792
1510	0.0010298
1522	0.0005491
1534	0.0004446
1546	0.00038
1558	0.0003249
1570	0.0002983
1582	0.0005833
1594	0.0012179
1606	0.0011514
1618	0.0003914
1630	0.0001254
1642	9.12e-05
1654	0.0001596
1666	0.0002318
1678	0.0002033
1690	0.0001254
1702	0.0001083
1714	9.5e-05
1726	0.0001159
1738	0.0002242
1750	0.0002033
1762	0.0001311
1774	0.0001539
1786	0.0003211
1798	0.000551
1810	0.0004009
1822	0.0001729
1834	8.74e-05
1846	0.0001349
1858	0.000247
1870	0.0003705
1882	0.0004313
1894	0.0003078
1906	0.0001672
1918	0.0001729
1930	0.0003002
1942	0.0005757
1954	0.0005187
1966	0.0002318
1978	6.27e-05
1990	3.99e-05
2002	5.7e-06
2014	1.71e-05
2026	2.28e-05
2038	9.5e-06
2050	3.42e-05
2062	2.47e-05
2074	1.71e-05
2086	1.9e-05
2098	1.9e-05
2110	5.7e-06
2122	2.85e-05
2134	2.09e-05
2146	4.94e-05
2158	3.23e-05
2170	3.04e-05
2182	5.89e-05
2194	5.7e-05
2206	0
2218	4.37e-05
2230	4.56e-05
2242	3.8e-05
2254	7.41e-05
2266	4.94e-05
2278	5.51e-05
2290	7.98e-05
2302	8.17e-05
2314	0.0001292
2326	0.0001311
2338	0.0001406
2350	0.0001368
2362	0.0001349
2374	0.0001064
2386	0.0001159
2398	0.0001045
2410	9.88e-05
2422	0.0001045
2434	0.0001045
2446	0.0001045
2458	0.0001121
2470	9.5e-05
2482	6.46e-05
2494	7.6e-05
2506	7.41e-05
2518	6.08e-05
2530	6.65e-05
2542	6.27e-05
2554	7.79e-05
2566	7.03e-05
2578	0.0001159
2590	0.0001235
2602	0.0001444
2614	0.0001368
2626	0.0001596
2638	0.0001539
2650	0.0001501
2662	0.0001235
2674	0.0001216
2686	0.0001558
2698	0.0001273
2710	0.000171
2722	0.0002242
2734	0.0002831
2746	0.0003135
2758	0.0003135
2770	0.0003268
2782	0.0003591
2794	0.0004123
2806	0.0004978
2818	0.0006441
2830	0.0008493
2842	0.0012217
2854	0.0021432
2866	0.0032319
2878	0.0043909
2890	0.0058007
2902	0.0053865
2914	0.0056753
2926	0.0088882
2938	0.0119985
2950	0.0105602
2962	0.0103873
2974	0.0177175
2986	0.0164236
2998	0.006935
3010	0.0031806
3022	0.0037487
3034	0.0051851
3046	0.00494
3058	0.0056715
3070	0.0075563
3082	0.005871
3094	0.0042237
3106	0.0025365
3118	0.0013015
3130	0.0006878
3142	0.0005111
3154	0.0004104
3166	0.0003572
3178	0.0002926
3190	0.0002717
3202	0.0002109
3214	0.0001805
3226	0.0001577
3238	0.0001501
3250	0.0001102
3262	9.31e-05
3274	0.000114
3286	0.0001083
3298	9.5e-05
3310	6.27e-05
3322	9.69e-05
3334	0.0001235
3346	0.000152
3358	0.0001273
3370	9.31e-05
3382	0.0001178
3394	0.0001083
3406	8.55e-05
3418	0.0001235
3430	0.0001178
3442	6.84e-05
3454	9.5e-05
3466	5.89e-05
3478	6.08e-05
3490	4.75e-05
3502	5.7e-05
3514	0
3526	5.51e-05
3538	0
3550	3.04e-05
3562	4.56e-05
3574	0.0001121
3586	5.7e-05
3598	0.0001843
3610	0.0003743
3622	0.0009538
3634	0.0021869
3646	0.0022629
3658	0.000969
3670	0.0003515
3682	0.0001653
3694	0.0001273
3706	9.31e-05
3718	0.0001045
3730	0.0001083
3742	5.7e-05
3754	2.85e-05
3766	9.88e-05
3778	7.03e-05
3790	5.51e-05
3802	5.7e-05
3814	2.47e-05
3826	7.03e-05
3838	4.75e-05
