Infrared Spectrum: 3-Decanol
Formula: C 10 H 22 O
CAS: 1565-81-7
State: gas
Instrument: HP-GC/MS/IRD
Origin: NIST Mass Spectrometry Data Center
1/CM	ABSORBANCE
550	0.0003381
562	0.0001519
574	0.0001715
586	0.0001813
598	0.0002205
610	0.0001078
622	9.8e-06
634	0.0001519
646	9.31e-05
658	6.86e-05
670	4.9e-06
682	0.0001127
694	0.0001568
706	0.0003087
718	0.0005733
730	0.0005439
742	0.0004361
754	0.0003381
766	0.000441
778	0.00049
790	0.0003773
802	0.0003283
814	0.0004557
826	0.0006125
838	0.0005341
850	0.0005537
862	0.0007105
874	0.0008134
886	0.0009261
898	0.0010584
910	0.0011613
922	0.0013671
934	0.0017346
946	0.0025627
958	0.0038857
970	0.004753
982	0.0042826
994	0.0036554
1006	0.0030723
1018	0.0028714
1030	0.0027244
1042	0.0024647
1054	0.0024451
1066	0.0024451
1078	0.0025578
1090	0.0028175
1102	0.0030576
1114	0.0030821
1126	0.0031948
1138	0.0027734
1150	0.0018571
1162	0.0015239
1174	0.0015827
1186	0.0016954
1198	0.0019404
1210	0.0022834
1222	0.0025725
1234	0.0026362
1246	0.0024745
1258	0.0022638
1270	0.0021217
1282	0.0020286
1294	0.0020286
1306	0.0019502
1318	0.0017885
1330	0.0018179
1342	0.0022393
1354	0.0028077
1366	0.0033124
1378	0.0037289
1390	0.0035084
1402	0.0023618
1414	0.001666
1426	0.0016121
1438	0.0024157
1450	0.0038759
1462	0.0050813
1474	0.0036799
1486	0.0017248
1498	0.0008624
1510	0.0005782
1522	0.0004165
1534	0.0002989
1546	0.0002401
1558	0.0002156
1570	0.0001568
1582	0.0001568
1594	0.000147
1606	0.0001176
1618	8.82e-05
1630	9.8e-05
1642	6.86e-05
1654	3.43e-05
1666	6.86e-05
1678	6.86e-05
1690	5.88e-05
1702	5.39e-05
1714	5.39e-05
1726	9.31e-05
1738	5.39e-05
1750	3.92e-05
1762	3.92e-05
1774	2.94e-05
1786	2.45e-05
1798	2.94e-05
1810	2.94e-05
1822	2.94e-05
1834	9.8e-06
1846	2.94e-05
1858	1.47e-05
1870	2.94e-05
1882	3.92e-05
1894	3.43e-05
1906	1.96e-05
1918	4.9e-05
1930	9.8e-06
1942	2.94e-05
1954	2.45e-05
1966	4.9e-06
1978	2.45e-05
1990	2.94e-05
2002	9.8e-06
2014	3.92e-05
2026	5.39e-05
2038	4.9e-05
2050	6.37e-05
2062	4.9e-05
2074	3.92e-05
2086	1.96e-05
2098	2.94e-05
2110	2.45e-05
2122	2.45e-05
2134	3.43e-05
2146	3.43e-05
2158	2.45e-05
2170	3.92e-05
2182	2.94e-05
2194	3.92e-05
2206	3.43e-05
2218	4.9e-06
2230	1.96e-05
2242	1.47e-05
2254	2.94e-05
2266	2.94e-05
2278	4.9e-05
2290	5.88e-05
2302	6.86e-05
2314	8.33e-05
2326	7.84e-05
2338	6.37e-05
2350	5.88e-05
2362	7.35e-05
2374	8.33e-05
2386	7.35e-05
2398	9.31e-05
2410	7.84e-05
2422	7.35e-05
2434	9.31e-05
2446	5.88e-05
2458	5.88e-05
2470	6.86e-05
2482	6.37e-05
2494	6.86e-05
2506	7.35e-05
2518	0.0001078
2530	0.0001127
2542	0.0001372
2554	0.0001568
2566	0.0001666
2578	0.0002009
2590	0.0002499
2602	0.0002989
2614	0.000343
2626	0.0003773
2638	0.0004165
2650	0.00049
2662	0.0005292
2674	0.0006125
2686	0.0006076
2698	0.000637
2710	0.0006272
2722	0.0006762
2734	0.0007644
2746	0.0008722
2758	0.0009016
2770	0.0010045
2782	0.0011662
2794	0.001421
2806	0.0018277
2818	0.002499
2830	0.0036701
2842	0.0064729
2854	0.0130928
2866	0.0192276
2878	0.0184044
2890	0.016513
2902	0.0171843
2914	0.0256025
2926	0.0419979
2938	0.0480935
2950	0.0331828
2962	0.0262983
2974	0.0237111
2986	0.0112798
2998	0.0053655
3010	0.0031997
3022	0.0022001
3034	0.0016317
3046	0.0013426
3058	0.0011564
3070	0.0009849
3082	0.0008624
3094	0.0007448
3106	0.0006223
3118	0.0004998
3130	0.0004165
3142	0.0003822
3154	0.0003136
3166	0.0002891
3178	0.0002548
3190	0.0001911
3202	0.000196
3214	0.0001372
3226	9.31e-05
3238	3.92e-05
3250	2.45e-05
3262	4.41e-05
3274	4.9e-06
3286	1.96e-05
3298	0
3310	3.43e-05
3322	3.43e-05
3334	4.41e-05
3346	0
3358	3.43e-05
3370	6.37e-05
3382	6.37e-05
3394	5.39e-05
3406	6.86e-05
3418	0.0001127
3430	0.0001274
3442	9.31e-05
3454	0.0001127
3466	6.37e-05
3478	7.84e-05
3490	5.88e-05
3502	6.86e-05
3514	6.37e-05
3526	6.37e-05
3538	5.88e-05
3550	3.43e-05
3562	8.33e-05
3574	7.35e-05
3586	0.0001274
3598	0.000147
3610	0.0002548
3622	0.0004263
3634	0.000833
3646	0.0014553
3658	0.0018424
3670	0.0009751
3682	0.0004116
3694	0.0002254
3706	0.0001715
3718	0.0001176
3730	6.37e-05
3742	0.0001029
3754	9.8e-05
3766	0.0001176
3778	0.0001176
3790	0.0001176
3802	0.0001274
3814	9.8e-05
3826	0.0001862
3838	0.0001421
