Infrared Spectrum: 3-Phenyl-3-pentanol
Formula: C 11 H 16 O
CAS: 1565-71-5
State: gas
Instrument: HP-GC/MS/IRD
Origin: NIST Mass Spectrometry Data Center
1/CM	ABSORBANCE
550	0.0016233
562	0.0013734
574	0.0008652
586	0.0012474
598	0.0014175
610	0.000483
622	7.77e-05
634	1.47e-05
646	7.35e-05
658	0.0004956
670	0.001071
682	0.0026964
694	0.009387
706	0.009513
718	0.0026943
730	0.0010941
742	0.0030786
754	0.0071463
766	0.0041937
778	0.0014028
790	0.0007917
802	0.0003927
814	7.77e-05
826	2.52e-05
838	6.72e-05
850	0.0001995
862	0.0004536
874	0.0010878
886	0.0025389
898	0.004032
910	0.0030849
922	0.001953
934	0.0024549
946	0.0038388
958	0.007266
970	0.0076272
982	0.003444
994	0.0015897
1006	0.0014658
1018	0.0024318
1030	0.0038976
1042	0.0029799
1054	0.0020076
1066	0.0020727
1078	0.0023814
1090	0.0024696
1102	0.0025578
1114	0.0024717
1126	0.002394
1138	0.00294
1150	0.0040593
1162	0.0047418
1174	0.0034335
1186	0.0023898
1198	0.0021462
1210	0.0021252
1222	0.0019992
1234	0.0022491
1246	0.0028266
1258	0.0033474
1270	0.0035889
1282	0.0036771
1294	0.0035763
1306	0.0034125
1318	0.0034293
1330	0.003423
1342	0.0036183
1354	0.0031878
1366	0.002751
1378	0.0032781
1390	0.0029589
1402	0.001512
1414	0.0010731
1426	0.0013986
1438	0.0032361
1450	0.0054642
1462	0.0049749
1474	0.0035091
1486	0.0031353
1498	0.0029169
1510	0.0009828
1522	0.0004914
1534	0.0005082
1546	0.0004536
1558	0.0003423
1570	0.0003927
1582	0.0006888
1594	0.0013125
1606	0.0011613
1618	0.0003801
1630	0.0001575
1642	0.0001533
1654	0.0001764
1666	0.0002016
1678	0.0001071
1690	8.4e-05
1702	4.41e-05
1714	5.04e-05
1726	9.66e-05
1738	0.0001617
1750	0.0001281
1762	9.24e-05
1774	0.0001575
1786	0.0002541
1798	0.0005229
1810	0.0004116
1822	0.0001722
1834	6.51e-05
1846	8.61e-05
1858	0.0002541
1870	0.0003717
1882	0.000357
1894	0.0002016
1906	0.0001764
1918	0.0001869
1930	0.0003486
1942	0.0005775
1954	0.0004914
1966	0.0002016
1978	6.3e-05
1990	2.73e-05
2002	2.52e-05
2014	1.47e-05
2026	8.4e-06
2038	1.89e-05
2050	1.68e-05
2062	1.89e-05
2074	2.1e-05
2086	1.26e-05
2098	1.26e-05
2110	2.31e-05
2122	2.94e-05
2134	2.94e-05
2146	1.26e-05
2158	2.1e-05
2170	1.47e-05
2182	3.15e-05
2194	2.1e-05
2206	1.68e-05
2218	1.26e-05
2230	5.25e-05
2242	3.57e-05
2254	3.36e-05
2266	2.94e-05
2278	4.62e-05
2290	4.41e-05
2302	6.93e-05
2314	0.0001239
2326	9.87e-05
2338	0.0001008
2350	0.0001407
2362	7.77e-05
2374	9.66e-05
2386	7.56e-05
2398	0.0001008
2410	0.0001302
2422	0.0001134
2434	0.0001029
2446	5.67e-05
2458	5.88e-05
2470	6.3e-05
2482	8.19e-05
2494	5.88e-05
2506	7.14e-05
2518	7.14e-05
2530	5.67e-05
2542	7.35e-05
2554	7.14e-05
2566	8.82e-05
2578	0.0001134
2590	0.0001512
2602	0.0001449
2614	0.0001365
2626	0.000147
2638	0.0001701
2650	0.000168
2662	0.000126
2674	0.0001659
2686	0.0001701
2698	0.0001512
2710	0.0001806
2722	0.0002751
2734	0.0003318
2746	0.0004515
2758	0.0004746
2770	0.0004683
2782	0.0005313
2794	0.0006195
2806	0.0006825
2818	0.0008022
2830	0.0011025
2842	0.00168
2854	0.0030534
2866	0.0044814
2878	0.0062391
2890	0.0089355
2902	0.007539
2914	0.0076146
2926	0.0118461
2938	0.0173859
2950	0.0175539
2962	0.0147105
2974	0.0207396
2986	0.0155715
2998	0.005775
3010	0.0032991
3022	0.0040824
3034	0.0055671
3046	0.0048762
3058	0.0058611
3070	0.0078036
3082	0.0058233
3094	0.0043638
3106	0.0024612
3118	0.0013146
3130	0.0007518
3142	0.0005985
3154	0.0005061
3166	0.0004788
3178	0.0003255
3190	0.0002247
3202	0.0001743
3214	0.0001218
3226	0.0001281
3238	7.35e-05
3250	0.0001134
3262	6.93e-05
3274	0.0001155
3286	7.98e-05
3298	8.4e-05
3310	0.0001113
3322	5.46e-05
3334	0.0001113
3346	0.0001008
3358	0.0001071
3370	0.0001071
3382	0.0001617
3394	0.0001113
3406	0.0001554
3418	0.000147
3430	0.000126
3442	0.0001218
3454	0.0001239
3466	7.98e-05
3478	3.99e-05
3490	3.99e-05
3502	0.0001113
3514	4.2e-06
3526	7.77e-05
3538	4.2e-05
3550	9.03e-05
3562	8.4e-05
3574	6.3e-05
3586	0.0001197
3598	0.0001659
3610	0.0003465
3622	0.0008484
3634	0.0021294
3646	0.0023478
3658	0.0009156
3670	0.0003633
3682	0.0002331
3694	0.0001554
3706	0.0001071
3718	0.0001323
3730	0.0001323
3742	7.35e-05
3754	3.99e-05
3766	0.0001218
3778	8.61e-05
3790	7.35e-05
3802	9.66e-05
3814	7.14e-05
3826	0.0001239
3838	0.0001029
