Infrared Spectrum: 3-Trifluoromethyl-3-hydroxybutyric acid
Formula: C 5 H 7 F 3 O 3
CAS: 156594-11-5
State: gas
Origin: EPA-IR VAPOR PHASE LIBRARY
1/CM	ABSORBANCE
549.8	0.01382
559.445	0.01467
569.09	0.01854
578.734	0.02023
588.379	0.01628
598.024	0.02062
607.669	0.04143
617.313	0.04704
626.958	0.03156
636.603	0.02479
646.248	0.02061
655.893	0.01581
665.537	0.0104
675.182	0.00735
684.827	0.0054
694.472	0.00465
704.116	0.00456
713.761	0.00413
723.406	0.00449
733.051	0.00369
742.695	0.00354
752.34	0.00344
761.985	0.00334
771.63	0.00318
781.275	0.00259
790.919	0.00227
800.564	0.00295
810.209	0.0026
819.854	0.00286
829.498	0.00345
839.143	0.00383
848.788	0.00397
858.433	0.00465
868.078	0.00485
877.722	0.00399
887.367	0.00417
897.012	0.00505
906.657	0.00568
916.301	0.00624
925.946	0.00544
935.591	0.00473
945.236	0.00471
954.88	0.00726
964.525	0.00952
974.17	0.00861
983.815	0.0067
993.46	0.00458
1003.1	0.00408
1012.75	0.00515
1022.39	0.00551
1032.04	0.00554
1041.68	0.00758
1051.33	0.01106
1060.97	0.01656
1070.62	0.02889
1080.26	0.04534
1089.91	0.06319
1099.55	0.07125
1109.2	0.07013
1118.84	0.07432
1128.49	0.09297
1138.13	0.11482
1147.78	0.12233
1157.42	0.13167
1167.07	0.16054
1176.71	0.18601
1186.36	0.17869
1196	0.13939
1205.64	0.09446
1215.29	0.06423
1224.93	0.04796
1234.58	0.03903
1244.22	0.03486
1253.87	0.03259
1263.51	0.03046
1273.16	0.03046
1282.8	0.02942
1292.45	0.02671
1302.09	0.02346
1311.74	0.02181
1321.38	0.02185
1331.03	0.02182
1340.67	0.02179
1350.32	0.02182
1359.96	0.02371
1369.61	0.02784
1379.25	0.03309
1388.9	0.03691
1398.54	0.03365
1408.18	0.02438
1417.83	0.01902
1427.47	0.01355
1437.12	0.01172
1446.76	0.00962
1456.41	0.01205
1466.05	0.01151
1475.7	0.00976
1485.34	0.00552
1494.99	0.00367
1504.63	0.00343
1514.28	0.00282
1523.92	0.00254
1533.57	0.00254
1543.21	0.00277
1552.86	0.00196
1562.5	0.00181
1572.15	0.0015
1581.79	0.00197
1591.44	0.00208
1601.08	0.00222
1610.73	0.00197
1620.37	0.00202
1630.01	0.00185
1639.66	0.002
1649.3	0.00237
1658.95	0.00243
1668.59	0.00277
1678.24	0.00305
1687.88	0.00368
1697.53	0.00495
1707.17	0.00625
1716.82	0.00982
1726.46	0.01244
1736.11	0.02069
1745.75	0.03738
1755.4	0.06166
1765.04	0.07682
1774.69	0.07604
1784.33	0.06799
1793.98	0.05267
1803.62	0.03226
1813.27	0.01682
1822.91	0.00956
1832.55	0.00596
1842.2	0.00474
1851.84	0.0032
1861.49	0.00264
1871.13	0.00207
1880.78	0.00184
1890.42	0.00166
1900.07	0.00141
1909.71	0.00145
1919.36	0.00122
1929	0.00117
1938.65	0.00114
1948.29	0.00127
1957.94	0.00129
1967.58	0.00137
1977.23	0.0009775
1986.87	0.00133
1996.52	0.0009995
2006.16	0.00113
2015.81	0.000854
2025.45	0.0008653
2035.1	0.0009519
2044.74	0.0008511
2054.38	0.0007762
2064.03	0.0008398
2073.67	0.0007351
2083.32	0.0005771
2092.96	0.0007798
2102.61	0.0007696
2112.25	0.0007295
2121.9	0.0008013
2131.54	0.0008146
2141.19	0.0006622
2150.83	0.0006149
2160.48	0.0007764
2170.12	0.0009057
2179.77	0.0006651
2189.41	0.0006916
2199.06	0.0008951
2208.7	0.0007573
2218.35	0.0008678
2227.99	0.0008973
2237.64	0.00105
2247.28	0.00108
2256.92	0.00103
2266.57	0.00109
2276.21	0.00116
2285.86	0.00135
2295.5	0.0008661
2305.15	0.00105
2314.79	0.0009036
2324.44	0.0011
2334.08	0.00121
2343.73	0.00108
2353.37	0.00127
2363.02	0.00119
2372.66	0.0009464
2382.31	0.00102
2391.95	0.00102
2401.6	0.0008989
2411.24	0.0008849
2420.89	0.0008357
2430.53	0.000893
2440.18	0.0011
2449.82	0.0008659
2459.47	0.0008765
2469.11	0.0007045
2478.75	0.00114
2488.4	0.0006902
2498.04	0.000595
2507.69	0.0006698
2517.33	0.000711
2526.98	0.0008104
2536.62	0.0003972
2546.27	0.0005739
2555.91	0.0006863
2565.56	0.0006397
2575.2	0.0004609
2584.85	0.0003923
2594.49	0.0005803
2604.14	0.0003798
2613.78	0.0003923
2623.43	0.0005378
2633.07	0.000669
2642.72	0.0004913
2652.36	0.0004705
2662.01	0.0005114
2671.65	0.0004087
2681.29	0.0006192
2690.94	0.000259
2700.58	0.0002646
2710.23	0.0006795
2719.87	0.0003735
2729.52	0.0006066
2739.16	0.0003708
2748.81	0.0003266
2758.45	0.0004764
2768.1	0.0005225
2777.74	0.0004134
2787.39	0.0007065
2797.03	0.0004982
2806.68	0.0005634
2816.32	0.0008199
2825.97	0.0007983
2835.61	0.0003669
2845.26	0.0007074
2854.9	0.0006739
2864.55	0.0008223
2874.19	0.0009211
2883.84	0.00138
2893.48	0.00188
2903.12	0.0022
2912.77	0.00183
2922.41	0.00203
2932.06	0.00274
2941.7	0.00352
2951.35	0.00448
2960.99	0.00441
2970.64	0.00321
2980.28	0.00301
2989.93	0.00453
2999.57	0.00741
3009.22	0.00835
3018.86	0.00492
3028.51	0.00201
3038.15	0.00129
3047.8	0.0008319
3057.44	0.0007271
3067.09	0.0009613
3076.73	0.0005036
3086.38	0.0007141
3096.02	0.0005123
3105.67	0.0008699
3115.31	0.0008764
3124.95	0.0005166
3134.6	0.0005816
3144.24	0.0006292
3153.89	0.0004249
3163.53	0.00114
3173.18	0.0008048
3182.82	0.00112
3192.47	0.0009885
3202.11	0.0007043
3211.76	0.0008629
3221.4	0.0008738
3231.05	0.0006586
3240.69	0.0006878
3250.34	0.0004853
3259.98	0.0006479
3269.63	0.000799
3279.27	0.0004885
3288.92	0.0005454
3298.56	0.0004882
3308.21	0.0012
3317.85	0.0008183
3327.49	0.0009971
3337.14	0.0008136
3346.78	0.0011
3356.43	0.00126
3366.07	0.0009712
3375.72	0.0011
3385.36	0.00127
3395.01	0.00144
3404.65	0.001
3414.3	0.00156
3423.94	0.00182
3433.59	0.00171
3443.23	0.00207
3452.88	0.00234
3462.52	0.00283
3472.17	0.00374
3481.81	0.00521
3491.46	0.00701
3501.1	0.01073
3510.75	0.01329
3520.39	0.01332
3530.04	0.01272
3539.68	0.01152
3549.32	0.01321
3558.97	0.03282
3568.61	0.05632
3578.26	0.03772
3587.9	0.012
3597.55	0.00842
3607.19	0.00788
3616.84	0.00787
3626.48	0.00836
3636.13	0.00848
3645.77	0.00675
3655.42	0.00399
3665.06	0.00229
3674.71	0.00229
3684.35	0.00139
3694	0.00163
3703.64	0.00145
3713.29	0.00162
3722.93	0.0015
3732.58	0.00145
3742.22	0.00169
3751.86	0.00188
3761.51	0.0007009
3771.15	0.00113
3780.8	0.0003163
3790.44	0.000451
3800.09	0.0008223
3809.73	0.0004682
3819.38	0.00111
3829.02	0.0009218
3838.67	0.0005872
3848.31	0.0009992
3857.96	0.00103
3867.6	0.00139
3877.25	0.0007166
3886.89	0.00104
3896.54	0.00122
3906.18	0.0007031
3915.83	0.0009394
3925.47	0.0008519
3935.12	0.0005449
3944.76	0.0007851
3954.41	0.0008452
3964.05	0.000226
3973.69	0.00119
3983.34	0.0008359
3992.98	0.0009553
