Infrared Spectrum: Gamma,Gamma-DIMETHYL VALERAMIDE
Formula: C7 H15 N O
CAS: 15672-96-5
State: SOLUTION (7% IN CHCl3)
Class: COBLENTZ
Instrument: PERKIN-ELMER
Sampling: TRANSMISSION
Path length: 0.010 CM CELL
Resolution: 4
Origin: ABBOTT LABORATORIES - WASHBURN
MICROMETERS	TRANSMITTANCE
2.036	0.984
2.07016	0.986
2.10431	0.989
2.13847	0.989
2.17262	0.9858
2.20678	0.9769
2.24093	0.9743
2.27509	0.974
2.30924	0.9619
2.3434	0.957
2.37755	0.982
2.41171	0.9567
2.44586	0.9567
2.48002	0.9597
2.51417	0.957
2.54833	0.957
2.58248	0.962
2.61664	0.962
2.65079	0.9672
2.68495	0.965
2.7191	0.952
2.75326	0.965
2.78741	0.93
2.82157	0.6006
2.85572	0.5133
2.88988	0.6675
2.92403	0.5216
2.95819	0.5597
2.99234	0.5493
3.0265	0.5985
3.06065	0.6457
3.09481	0.6077
3.12896	0.5563
3.16312	0.6476
3.19727	0.7356
3.23143	0.7963
3.26558	0.8323
3.29974	0.7585
3.33389	0.3413
3.36805	0.153
3.4022	0.2813
3.43636	0.3921
3.47051	0.4199
3.50467	0.6784
3.53882	0.8231
3.57298	0.8703
3.60713	0.883
3.64129	0.892
3.67544	0.899
3.7096	0.9043
3.74375	0.9142
3.77791	0.9233
3.81206	0.93
3.84622	0.9301
3.88037	0.9309
3.91453	0.931
3.94868	0.9298
3.98284	0.9208
4.01699	0.9087
4.05115	0.9007
4.0853	0.9041
4.11946	0.9262
4.15361	0.952
4.18777	0.982
4.22192	0.969
4.25608	0.969
4.29023	0.9599
4.32439	0.945
4.35854	0.9359
4.3927	0.935
4.42685	0.938
4.46101	0.94
4.49516	0.94
4.52932	0.941
4.56347	0.941
4.59763	0.9401
4.63178	0.938
4.66594	0.94
4.70009	0.9352
4.73425	0.938
4.7684	0.9379
4.80256	0.9381
4.83671	0.9377
4.87087	0.938
4.90502	0.9397
4.93918	0.938
4.97333	0.9379
5.00749	0.94
5.04164	0.935
5.0758	0.938
5.10995	0.935
5.14411	0.936
5.17826	0.933
5.21242	0.9319
5.24657	0.9335
5.28073	0.9353
5.31488	0.936
5.34904	0.9353
5.38319	0.931
5.41735	0.9304
5.4515	0.9288
5.48566	0.9235
5.51981	0.915
5.55397	0.9116
5.58812	0.9016
5.62228	0.89
5.65643	0.8596
5.69059	0.8368
5.72474	0.8057
5.7589	0.7812
5.79305	0.7277
5.82721	0.6278
5.86136	0.3998
5.89552	0.0917
5.92967	0.012
5.96383	0.008
5.99798	0.0147
6.03214	0.1454
6.06629	0.4073
6.10045	0.502
6.1346	0.5583
6.16876	0.4838
6.20291	0.3712
6.23707	0.3303
6.27123	0.2673
6.30538	0.4892
6.33954	0.6831
6.37369	0.7723
6.40785	0.8119
6.442	0.846
6.47616	0.8727
6.51031	0.8899
6.54447	0.9023
6.57862	0.911
6.61278	0.9087
6.64693	0.8934
6.68109	0.8595
6.71524	0.8184
6.7494	0.6065
6.78355	0.4282
6.81771	0.4448
6.85186	0.5349
6.88602	0.5499
6.92017	0.6185
6.95433	0.6693
6.98848	0.667
7.02264	0.6401
7.05679	0.5956
7.09095	0.4445
7.1251	0.3276
7.15926	0.244
7.19341	0.2703
7.22757	0.325
7.26172	0.375
7.29588	0.3826
7.33003	0.2762
7.36419	0.5021
7.39834	0.5883
7.4325	0.5626
7.46665	0.5234
7.50081	0.5761
7.53496	0.6326
7.56912	0.6628
7.60327	0.6391
7.63743	0.5875
7.67158	0.6278
7.70574	0.7006
7.73989	0.7434
7.77405	0.7666
7.8082	0.7664
7.84236	0.751
7.87651	0.7136
7.91067	0.6888
7.94482	0.6492
7.97898	0.5854
8.01313	0.4968
8.04729	0.4639
8.08144	0.4713
8.1156	0.5038
8.14975	0.5385
8.18391	0.563
8.21806	0.571
8.25222	0.5811
8.28637	0.588
8.32053	0.6158
8.35468	0.687
8.38884	0.7516
8.42299	0.7788
8.45715	0.7925
8.4913	0.796
8.52546	0.7934
8.55961	0.7742
8.59377	0.7394
8.62792	0.6881
8.66208	0.656
8.69623	0.6594
8.73039	0.7001
8.76454	0.7339
8.7987	0.754
8.83285	0.7603
8.86701	0.752
8.90116	0.7407
8.93532	0.7312
8.96947	0.721
9.00363	0.723
9.03778	0.7199
9.07194	0.709
9.10609	0.711
9.14025	0.7252
9.1744	0.74
9.20856	0.7607
9.24271	0.7688
9.27687	0.7827
9.31102	0.8012
9.34518	0.8165
9.37933	0.8298
9.41349	0.836
9.44764	0.8382
9.4818	0.839
9.51595	0.805
9.55011	0.7801
9.58426	0.779
9.61842	0.796
9.65257	0.8199
9.68673	0.8422
9.72088	0.8706
9.75504	0.8823
9.78919	0.8865
9.82335	0.883
9.8575	0.88
9.89166	0.873
9.92581	0.873
9.95997	0.873
9.99412	0.873
10.0283	0.873
10.0624	0.873
10.0966	0.872
10.1307	0.873
10.1649	0.872
10.1991	0.875
10.2332	0.8724
10.2674	0.872
10.3015	0.867
10.3357	0.861
10.3698	0.8571
10.404	0.8475
10.4381	0.8381
10.4723	0.836
10.5065	0.8433
10.5406	0.8496
10.5748	0.8545
10.6089	0.8584
10.6431	0.8613
10.6772	0.8662
10.7114	0.8831
10.7455	0.895
10.7797	0.901
10.8138	0.8902
10.848	0.8705
10.8822	0.8464
10.9163	0.8375
10.9505	0.8326
10.9846	0.834
11.0188	0.8345
11.0529	0.836
11.0871	0.8423
11.1212	0.846
11.1554	0.844
11.1896	0.845
11.2237	0.844
11.2579	0.843
11.292	0.8317
11.3262	0.8241
11.3603	0.8165
11.3945	0.815
11.4286	0.82
11.4628	0.8252
11.4969	0.832
11.5311	0.831
11.5653	0.832
11.5994	0.8358
11.6336	0.8439
11.6677	0.846
11.7019	0.8556
11.736	0.8647
11.7702	0.878
11.8043	0.88
11.8385	0.8736
11.8727	0.8707
11.9068	0.868
11.941	0.861
11.9751	0.856
12.0093	0.856
12.0434	0.858
12.0776	0.86
12.1117	0.863
12.1459	0.87
12.18	0.873
12.2142	0.8771
12.2484	0.8852
12.2825	0.8901
12.3167	0.901
12.3508	0.9062
12.385	0.9141
12.4191	0.919
12.4533	0.93
12.4874	0.9426
12.5216	0.9547
12.5558	0.9598
12.5899	0.9685
12.6241	0.9767
12.6582	0.982
12.6924	0.984
12.7265	0.984
12.7607	0.983
12.7948	0.982
12.829	0.986
12.8631	0.9847
12.8973	0.984
12.9315	0.986
12.9656	0.9883
12.9998	0.993
13.0339	0.994
13.0681	1
13.1022	0.9978
13.1364	1
13.1705	0.998
13.2047	0.998
13.2389	0.996
13.273	0.9983
13.3072	1.001
13.3413	1.003
13.3755	1.0057
13.4096	1.0073
13.4438	1.008
13.4779	1.008
13.5121	1.006
13.5462	1.0072
13.5804	1.01
13.6146	1.01
13.6487	1.008
13.6829	1.008
13.717	1.008
13.7512	1.008
13.7853	1.006
13.8195	1.006
13.8536	1.006
13.8878	1.01
13.922	1.0059
13.9561	1.005
13.9903	1.006
14.0244	1.008
14.0586	1.008
14.0927	1.008
14.1269	1.008
14.161	1.01
14.1952	1.01
14.2293	1.01
14.2635	1.01
14.2977	1.01
14.3318	1.01
14.366	1.01
14.4001	1.01
14.4343	1.01
14.4684	1.01
14.5026	1.01
14.5367	1.0103
14.5709	1.0088
14.6051	1.006
14.6392	1.008
14.6734	1.006
14.7075	1.006
14.7417	1.01
14.7758	1.0061
14.81	1.0059
14.8441	1.005
14.8783	1.005
14.9125	1.0051
14.9466	1.0013
14.9808	0.996
15.0149	0.9915
15.0491	0.989
15.0832	0.9917
15.1174	0.9898
15.1515	0.988
15.1857	0.9825
15.2198	0.9731
15.254	0.9632
15.2882	0.959
15.3223	0.962
15.3565	0.9585
15.3906	0.952
15.4248	0.948
