Infrared Spectrum: Methyl 1-methylcyclopropyl ketone
Formula: C 6 H 10 O
CAS: 1567-75-5
State: gas
Origin: EPA-IR VAPOR PHASE LIBRARY
1/CM	ABSORBANCE
549.9	0.00843
559.547	0.00692
569.193	0.00264
578.84	0.0018998
588.486	0.0017502
598.133	0.00241
607.779	0.00265
617.426	0.00245
627.072	0.00289
636.719	0.00415
646.365	0.00462
656.012	0.00381
665.658	0.0022823
675.305	0.001042
684.951	0.000737
694.598	0.000403
704.245	0.000387
713.891	0.000392
723.538	0.000491
733.184	0.000686
742.831	0.001017
752.477	0.00138933
762.124	0.0017974
771.77	0.00241
781.417	0.00299
791.063	0.00377
800.71	0.00508
810.356	0.00746
820.003	0.01358
829.649	0.02252
839.296	0.02584
848.943	0.02217
858.589	0.01101
868.236	0.00482
877.882	0.00336
887.529	0.00305
897.175	0.0031
906.822	0.00344
916.468	0.0047
926.115	0.00885
935.761	0.01698
945.408	0.02407
955.054	0.02671
964.701	0.02243
974.347	0.0149
983.994	0.00976
993.64	0.00677
1003.29	0.0079
1012.93	0.01232
1022.58	0.01639
1032.23	0.01713
1041.87	0.01434
1051.52	0.00986
1061.17	0.0072
1070.81	0.0065
1080.46	0.00674
1090.11	0.00811
1099.75	0.00971
1109.4	0.01589
1119.05	0.03596
1128.69	0.07104
1138.34	0.08973
1147.99	0.07957
1157.63	0.04635
1167.28	0.0151
1176.92	0.00785
1186.57	0.00475
1196.22	0.00364
1205.86	0.00294
1215.51	0.0019326
1225.16	0.0018855
1234.8	0.0022912
1244.45	0.00345
1254.1	0.00478
1263.74	0.00715
1273.39	0.01027
1283.04	0.01456
1292.68	0.02344
1302.33	0.03617
1311.98	0.04378
1321.62	0.04055
1331.27	0.03056
1340.92	0.03214
1350.56	0.05252
1360.21	0.07016
1369.86	0.07072
1379.5	0.05148
1389.15	0.03471
1398.79	0.02768
1408.44	0.02192
1418.09	0.02292
1427.73	0.02428
1437.38	0.02629
1447.03	0.02507
1456.67	0.02628
1466.32	0.02477
1475.97	0.02021
1485.61	0.01415
1495.26	0.00812
1504.91	0.00538
1514.55	0.00439
1524.2	0.004
1533.85	0.00392
1543.49	0.00382
1553.14	0.00385
1562.79	0.00394
1572.43	0.00399
1582.08	0.00409
1591.73	0.00442
1601.37	0.00466
1611.02	0.00512
1620.67	0.00576
1630.31	0.00637
1639.96	0.00722
1649.6	0.00866
1659.25	0.01178
1668.9	0.01713
1678.54	0.0296
1688.19	0.06475
1697.84	0.13642
1707.48	0.1792
1717.13	0.17967
1726.78	0.10932
1736.42	0.03877
1746.07	0.01834
1755.72	0.01335
1765.36	0.00863
1775.01	0.0054
1784.66	0.00348
1794.3	0.0028
1803.95	0.002328
1813.6	0.0021204
1823.24	0.0019736
1832.89	0.0019834
1842.54	0.002012
1852.18	0.0020121
1861.83	0.0019872
1871.47	0.0019028
1881.12	0.0016627
1890.77	0.0015527
1900.41	0.0014511
1910.06	0.00141268
1919.71	0.0014734
1929.35	0.0015241
1939	0.0016424
1948.65	0.0018275
1958.29	0.0020363
1967.94	0.0020545
1977.59	0.0018703
1987.23	0.001617
1996.88	0.00140142
2006.53	0.0013155
2016.17	0.00132324
2025.82	0.0012833
2035.47	0.0013062
2045.11	0.0016128
2054.76	0.0018373
2064.41	0.0021763
2074.05	0.0022461
2083.7	0.0021817
2093.35	0.0021171
2102.99	0.0019196
2112.64	0.0017781
2122.28	0.0015854
2131.93	0.00135296
2141.58	0.001127
2151.22	0.001015
2160.87	0.000865
2170.52	0.000744
2180.16	0.000789
2189.81	0.000859
2199.46	0.000938
2209.1	0.000964
2218.75	0.001014
2228.4	0.000999
2238.04	0.00091
2247.69	0.000888
2257.34	0.00088
2266.98	0.000849
2276.63	0.000835
2286.28	0.000831
2295.92	0.000902
2305.57	0.000885
2315.22	0.000927
2324.86	0.000912
2334.51	0.000875
2344.16	0.000838
2353.8	0.000797
2363.45	0.000668
2373.09	0.00061
2382.74	0.000566
2392.39	0.000489
2402.03	0.00043
2411.68	0.000476
2421.33	0.000507
2430.97	0.000528
2440.62	0.000584
2450.27	0.000694
2459.91	0.000789
2469.56	0.001004
2479.21	0.001105
2488.85	0.001016
2498.5	0.000868
2508.15	0.000731
2517.79	0.000606
2527.44	0.000582
2537.09	0.000621
2546.73	0.0006
2556.38	0.000574
2566.03	0.000605
2575.67	0.000492
2585.32	0.000556
2594.96	0.000604
2604.61	0.000543
2614.26	0.00058
2623.9	0.000613
2633.55	0.000592
2643.2	0.000569
2652.84	0.000534
2662.49	0.000517
2672.14	0.000538
2681.78	0.000526
2691.43	0.000469
2701.08	0.0005
2710.72	0.000457
2720.37	0.000645
2730.02	0.000836
2739.66	0.00136525
2749.31	0.0017439
2758.96	0.0019054
2768.6	0.0019129
2778.25	0.0014443
2787.9	0.00139234
2797.54	0.0014404
2807.19	0.0016754
2816.84	0.002248
2826.48	0.0028
2836.13	0.00386
2845.77	0.00487
2855.42	0.00612
2865.07	0.00876
2874.71	0.01271
2884.36	0.01622
2894.01	0.01786
2903.65	0.01891
2913.3	0.0211
2922.95	0.02552
2932.59	0.03117
2942.24	0.0353
2951.89	0.04037
2961.53	0.05174
2971.18	0.05487
2980.83	0.05232
2990.47	0.03824
3000.12	0.03723
3009.77	0.04105
3019.41	0.04244
3029.06	0.03037
3038.71	0.01851
3048.35	0.01085
3058	0.00786
3067.64	0.00833
3077.29	0.0135
3086.94	0.01866
3096.58	0.01788
3106.23	0.0137
3115.88	0.00606
3125.52	0.00327
3135.17	0.0021853
3144.82	0.0018391
3154.46	0.0016823
3164.11	0.001235
3173.76	0.0012631
3183.4	0.000997
3193.05	0.000578
3202.7	0.000462
3212.34	0.00032
3221.99	0.00017
3231.64	9e-05
3241.28	0.00022
3250.93	0.00015
3260.58	0
3270.22	7e-05
3279.87	4e-05
3289.52	0.00018
3299.16	0.00028
3308.81	0.000449
3318.45	0.000565
3328.1	0.000509
3337.75	0.000539
3347.39	0.000397
3357.04	0.000794
3366.69	0.001204
3376.33	0.0018263
3385.98	0.00255
3395.63	0.0031
3405.27	0.00364
3414.92	0.00289
3424.57	0.0019694
3434.21	0.001217
3443.86	0.00092
3453.51	0.000846
3463.15	0.000484
3472.8	0.000506
3482.45	0.000431
3492.09	0.00021
3501.74	0.00031
3511.39	0.000348
3521.03	0.000431
3530.68	0.00042
3540.33	0.00045
3549.97	0.00032
3559.62	0.000446
3569.26	0.000343
3578.91	0.0003
3588.56	0.00027
3598.2	0.0003
3607.85	0.000402
3617.5	0.000561
3627.14	0.000502
3636.79	0.00025
3646.44	0.000521
3656.08	0.000721
3665.73	0.000409
3675.38	0.000569
3685.02	0.000434
3694.67	0.000482
3704.32	0.000454
3713.96	0.000499
3723.61	0.000455
3733.26	0.000441
3742.9	0.000382
3752.55	0.000614
3762.2	0.000501
3771.84	0.000504
3781.49	0.000498
3791.13	0.00068
3800.78	0.000698
3810.43	0.000789
3820.07	0.000817
3829.72	0.00096
3839.37	0.001006
3849.01	0.000892
3858.66	0.000902
3868.31	0.000988
3877.95	0.000833
3887.6	0.000885
3897.25	0.000982
3906.89	0.000857
3916.54	0.000924
3926.19	0.001016
3935.83	0.001074
3945.48	0.001148
3955.13	0.001021
3964.77	0.001094
3974.42	0.000989
3984.07	0.00107
3993.71	0.001151
