Infrared Spectrum: N,N,3,3-Tetramethylbutylamine
Formula: C 8 H 19 N
CAS: 15673-04-8
State: gas
Origin: EPA-IR VAPOR PHASE LIBRARY
1/CM	ABSORBANCE
549.8	0.00076442
559.445	0.001134
569.09	0.00077195
578.735	0.0009296
588.38	0.000539
598.025	0.000434
607.67	0.000253
617.315	0.000325
626.96	0.00021
636.605	0.000361
646.251	0.000342
655.896	0.000408
665.541	0.000306
675.186	0.000421
684.831	0.000416
694.476	0.000357
704.121	0.000378
713.766	0.000578
723.411	0.000485
733.056	0.000577
742.701	0.0010563
752.346	0.0013562
761.991	0.001998
771.636	0.002478
781.281	0.002338
790.926	0.001888
800.571	0.0016491
810.216	0.001958
819.861	0.002308
829.507	0.003198
839.152	0.004138
848.797	0.004308
858.442	0.003418
868.087	0.002218
877.732	0.002198
887.377	0.002398
897.022	0.002828
906.667	0.003358
916.312	0.003328
925.957	0.002418
935.602	0.001848
945.247	0.0016807
954.892	0.0016532
964.537	0.002268
974.182	0.003278
983.827	0.005808
993.472	0.008808
1003.12	0.008918
1012.76	0.007158
1022.41	0.009198
1032.05	0.016238
1041.7	0.019758
1051.34	0.015708
1060.99	0.012368
1070.63	0.010068
1080.28	0.006608
1089.92	0.005168
1099.57	0.004758
1109.21	0.004158
1118.86	0.004028
1128.5	0.005468
1138.15	0.007348
1147.79	0.007348
1157.44	0.006628
1167.08	0.005868
1176.73	0.005518
1186.37	0.006228
1196.02	0.008318
1205.66	0.010328
1215.31	0.011688
1224.95	0.011468
1234.6	0.011508
1244.24	0.012788
1253.89	0.012878
1263.53	0.011138
1273.18	0.008728
1282.82	0.007168
1292.47	0.006408
1302.11	0.005768
1311.76	0.005658
1321.4	0.005398
1331.05	0.004738
1340.69	0.004908
1350.34	0.007568
1359.98	0.014318
1369.63	0.019418
1379.27	0.015988
1388.92	0.011538
1398.56	0.007768
1408.21	0.004958
1417.85	0.004198
1427.5	0.005808
1437.14	0.009778
1446.79	0.015198
1456.43	0.021888
1466.08	0.026058
1475.73	0.023238
1485.37	0.015328
1495.02	0.007698
1504.66	0.004108
1514.31	0.002768
1523.95	0.002088
1533.6	0.001728
1543.24	0.0013841
1552.89	0.0012571
1562.53	0.0011556
1572.18	0.0010921
1581.82	0.0011071
1591.47	0.0010558
1601.11	0.0010108
1610.76	0.0009518
1620.4	0.0009333
1630.05	0.0009386
1639.69	0.0009749
1649.34	0.0011013
1658.98	0.0010244
1668.63	0.0008979
1678.27	0.0009297
1687.92	0.0009043
1697.56	0.0008605
1707.21	0.0008564
1716.85	0.0008249
1726.5	0.0008157
1736.14	0.00073237
1745.79	0.00076778
1755.43	0.00079167
1765.08	0.00075986
1774.72	0.000714118
1784.37	0.00078427
1794.01	0.000715856
1803.66	0.00072119
1813.3	0.00075634
1822.95	0.00075945
1832.59	0.00075869
1842.24	0.00076105
1851.88	0.00080594
1861.53	0.00074343
1871.17	0.000809
1880.82	0.0008903
1890.46	0.0008561
1900.11	0.00076587
1909.75	0.00076899
1919.4	0.0006967
1929.04	0.00069988
1938.69	0.000707227
1948.33	0.000708725
1957.98	0.0007478
1967.62	0.00080004
1977.27	0.0007332
1986.91	0.00079765
1996.56	0.00075321
2006.2	0.00075954
2015.85	0.00073341
2025.49	0.00077519
2035.14	0.0008146
2044.78	0.000712063
2054.43	0.00074083
2064.07	0.00078019
2073.72	0.0008233
2083.36	0.000823
2093.01	0.000822
2102.65	0.00078699
2112.3	0.00075707
2121.94	0.000708778
2131.59	0.0006375
2141.23	0.000578
2150.88	0.0006182
2160.52	0.000623
2170.17	0.000557
2179.81	0.000571
2189.46	0.0006526
2199.1	0.0006394
2208.75	0.00057
2218.39	0.000577
2228.04	0.0006289
2237.68	0.0006198
2247.33	0.000561
2256.97	0.0006228
2266.62	0.0006671
2276.26	0.0006667
2285.91	0.00076119
2295.55	0.00074335
2305.2	0.00072433
2314.84	0.0006836
2324.49	0.0006494
2334.13	0.000558
2343.78	0.0006151
2353.42	0.0006289
2363.07	0.000606
2372.72	0.000714279
2382.36	0.0006954
2392.01	0.0008861
2401.65	0.000832
2411.3	0.0008163
2420.94	0.0009669
2430.59	0.0008667
2440.23	0.0008192
2449.88	0.0008258
2459.52	0.00080352
2469.17	0.0008891
2478.81	0.0010156
2488.46	0.001158
2498.1	0.0013735
2507.75	0.0012943
2517.39	0.0013327
2527.04	0.0013015
2536.68	0.0012598
2546.33	0.0013273
2555.97	0.0012743
2565.62	0.0013122
2575.26	0.0013297
2584.91	0.001522
2594.55	0.0015579
2604.2	0.0015952
2613.84	0.001828
2623.49	0.002068
2633.13	0.002208
2642.78	0.002628
2652.42	0.002938
2662.07	0.003408
2671.71	0.003868
2681.36	0.004388
2691	0.005178
2700.65	0.006458
2710.29	0.008408
2719.94	0.010918
2729.58	0.013568
2739.23	0.016498
2748.87	0.022598
2758.52	0.036508
2768.16	0.053988
2777.81	0.056138
2787.45	0.046148
2797.1	0.040358
2806.74	0.038298
2816.39	0.040098
2826.03	0.038338
2835.68	0.029668
2845.32	0.025898
2854.97	0.030428
2864.61	0.039728
2874.26	0.045358
2883.9	0.044448
2893.55	0.043978
2903.19	0.048688
2912.84	0.056788
2922.48	0.065098
2932.13	0.076768
2941.77	0.099658
2951.42	0.134228
2961.06	0.152638
2970.71	0.118588
2980.35	0.065638
2990	0.031768
2999.64	0.013638
3009.29	0.007728
3018.93	0.005638
3028.58	0.004548
3038.22	0.003928
3047.87	0.003388
3057.51	0.003208
3067.16	0.003008
3076.8	0.002838
3086.45	0.002518
3096.09	0.002258
3105.74	0.002088
3115.38	0.001968
3125.03	0.001908
3134.67	0.001878
3144.32	0.001868
3153.96	0.002018
3163.61	0.002018
3173.25	0.002278
3182.9	0.002018
3192.54	0.002058
3202.19	0.002048
3211.83	0.001788
3221.48	0.001798
3231.12	0.0015351
3240.77	0.0012777
3250.41	0.0011346
3260.06	0.0011286
3269.7	0.0011054
3279.35	0.0008181
3289	0.00078816
3298.64	0.00076283
3308.29	0.000639
3317.93	0.00077018
3327.58	0.000647
3337.22	0.0007329
3346.87	0.0008438
3356.51	0.0008604
3366.16	0.00074663
3375.8	0.0008428
3385.45	0.00075014
3395.09	0.0006934
3404.74	0.000739
3414.38	0.0006136
3424.03	0.0006717
3433.67	0.000583
3443.32	0.000572
3452.96	0.000468
3462.61	0.000501
3472.25	0.00054
3481.9	0.0006241
3491.54	0.00038
3501.19	0.00039
3510.83	0.000326
3520.48	0.00037
3530.12	0.000407
3539.77	0.000489
3549.41	0.000516
3559.06	0.000377
3568.7	0.00032
3578.35	0.000367
3587.99	0.000342
3597.64	0.000365
3607.28	0.000329
3616.93	0.000457
3626.57	0.000278
3636.22	0.000538
3645.86	0.000423
3655.51	0.000493
3665.15	0.000443
3674.8	0.000332
3684.44	0.000341
3694.09	0.000408
3703.73	0.000373
3713.38	0.000525
3723.02	0.000533
3732.67	0.000252
3742.31	0.00037
3751.96	0.000372
3761.6	0.0006423
3771.25	0.000467
3780.89	0.000568
3790.54	0.000564
3800.18	0.00057
3809.83	0.0006384
3819.47	0.00079717
3829.12	0.000557
3838.76	0.000425
3848.41	0.0007095
3858.05	0.000498
3867.7	0.0006762
3877.34	0.000599
3886.99	0.0006623
3896.63	0.0006807
3906.28	0.0008238
3915.92	0.00070079
3925.57	0.0006886
3935.21	0.0006967
3944.86	0.000528
3954.5	0.0006
3964.15	0.00072876
3973.79	0.000525
3983.44	0.0006083
3993.08	0.0009171
