Infrared Spectrum: 2,2,4,4,6-PENTACHLORO-5-CYCLOHEXENE-1,3-DIONE
Formula: C6 H Cl5 O2
CAS: 15679-05-7
State: SOLUTION (10% IN CCl4 FOR 5000-1350 CM^-^1, 10% IN CS2 FOR 1350-625 CM^-^1)
Class: COBLENTZ
Instrument: Not specified, most likely a prism, grating, or hybrid spectrometer.
Sampling: TRANSMISSION
Path length: 0.01 CM, 0.01 CM
Resolution: 4
Origin: DOW CHEMICAL COMPANY
MICROMETERS	TRANSMITTANCE
2.027	0.876
2.0662	0.876
2.10539	0.876
2.14459	0.876
2.18378	0.877
2.22298	0.879
2.26217	0.879
2.30137	0.881
2.34056	0.882
2.37976	0.885
2.41895	0.887
2.45815	0.89
2.49734	0.892
2.53654	0.889
2.57573	0.885
2.61493	0.889
2.65412	0.89
2.69332	0.89
2.73251	0.887
2.77171	0.884
2.8109	0.874
2.8501	0.866
2.88929	0.866
2.92849	0.876
2.96768	0.884
3.00688	0.881
3.04608	0.881
3.08527	0.882
3.12447	0.882
3.16366	0.882
3.20286	0.882
3.24205	0.859
3.28125	0.811
3.32044	0.894
3.35964	0.881
3.39883	0.874
3.43803	0.881
3.47722	0.885
3.51642	0.89
3.55561	0.897
3.59481	0.899
3.634	0.9
3.6732	0.903
3.71239	0.905
3.75159	0.907
3.79078	0.908
3.82998	0.913
3.86917	0.913
3.90837	0.913
3.94757	0.91
3.98676	0.913
4.02596	0.916
4.06515	0.912
4.10435	0.916
4.14354	0.929
4.18274	0.92
4.22193	0.905
4.26113	0.892
4.30032	0.889
4.33952	0.895
4.37871	0.9
4.41791	0.908
4.4571	0.916
4.4963	0.931
4.53549	0.933
4.57469	0.933
4.61388	0.933
4.65308	0.926
4.69227	0.933
4.73147	0.933
4.77066	0.931
4.80986	0.926
4.84905	0.926
4.88825	0.929
4.92745	0.928
4.96664	0.926
5.00584	0.929
5.04503	0.921
5.08423	0.921
5.12342	0.928
5.16262	0.928
5.20181	0.926
5.24101	0.923
5.2802	0.923
5.3194	0.92
5.35859	0.91
5.39779	0.894
5.43698	0.881
5.47618	0.861
5.51537	0.757
5.55457	0.641
5.59376	0.583
5.63296	0.434
5.67215	0.394
5.71135	0.415
5.75054	0.12
5.78974	0.389
5.82893	0.78
5.86813	0.822
5.90733	0.855
5.94652	0.877
5.98572	0.877
6.02491	0.874
6.06411	0.866
6.1033	0.835
6.1425	0.679
6.18169	0.475
6.22089	0.656
6.26008	0.638
6.29928	0.597
6.33847	0.574
6.37767	0.529
6.41686	0.465
6.45606	0.464
6.49525	0.571
6.53445	0.61
6.57364	0.661
6.61284	0.729
6.65203	0.796
6.69123	0.845
6.73042	0.874
6.76962	0.877
6.80881	0.882
6.84801	0.884
6.88721	0.889
6.9264	0.889
6.9656	0.887
7.00479	0.892
7.04399	0.897
7.08318	0.897
7.12238	0.899
7.16157	0.897
7.20077	0.897
7.23996	0.899
7.27916	0.9
7.31835	0.899
7.35755	0.897
7.39674	0.892
7.43594	0.877
7.47513	0.817
7.51433	0.636
7.55352	0.529
7.59272	0.649
7.63191	0.802
7.67111	0.848
7.7103	0.868
7.7495	0.871
7.7887	0.871
7.82789	0.871
7.86709	0.872
7.90628	0.877
7.94548	0.877
7.98467	0.872
8.02387	0.863
8.06306	0.84
8.10226	0.785
8.14145	0.641
8.18065	0.465
8.21984	0.441
8.25904	0.731
8.29823	0.825
8.33743	0.853
8.37662	0.874
8.41582	0.881
8.45501	0.884
8.49421	0.882
8.5334	0.882
8.5726	0.882
8.61179	0.879
8.65099	0.877
8.69018	0.863
8.72938	0.799
8.76858	0.731
8.80777	0.752
8.84697	0.825
8.88616	0.868
8.92536	0.882
8.96455	0.89
9.00375	0.892
9.04294	0.892
9.08214	0.894
9.12133	0.895
9.16053	0.889
9.19972	0.876
9.23892	0.877
9.27811	0.876
9.31731	0.879
9.3565	0.882
9.3957	0.882
9.43489	0.881
9.47409	0.881
9.51328	0.879
9.55248	0.877
9.59167	0.876
9.63087	0.868
9.67006	0.85
9.70926	0.798
9.74846	0.688
9.78765	0.622
9.82685	0.628
9.86604	0.742
9.90524	0.802
9.94443	0.858
9.98363	0.885
10.0228	0.9
10.062	0.907
10.1012	0.91
10.1404	0.913
10.1796	0.921
10.2188	0.925
10.258	0.928
10.2972	0.929
10.3364	0.929
10.3756	0.928
10.4148	0.923
10.454	0.916
10.4932	0.899
10.5324	0.885
10.5716	0.872
10.6107	0.846
10.6499	0.802
10.6891	0.739
10.7283	0.706
10.7675	0.747
10.8067	0.799
10.8459	0.82
10.8851	0.825
10.9243	0.82
10.9635	0.801
11.0027	0.786
11.0419	0.75
11.0811	0.695
11.1203	0.609
11.1595	0.425
11.1987	0.21
11.2379	0.107
11.2771	0.226
11.3163	0.469
11.3555	0.543
11.3947	0.566
11.4338	0.55
11.473	0.488
11.5122	0.385
11.5514	0.2
11.5906	0.117
11.6298	0.149
11.669	0.265
11.7082	0.397
11.7474	0.517
11.7866	0.599
11.8258	0.662
11.865	0.701
11.9042	0.734
11.9434	0.754
11.9826	0.763
12.0218	0.77
12.061	0.776
12.1002	0.78
12.1394	0.781
12.1786	0.781
12.2178	0.78
12.2569	0.771
12.2961	0.77
12.3353	0.762
12.3745	0.757
12.4137	0.752
12.4529	0.749
12.4921	0.744
12.5313	0.728
12.5705	0.711
12.6097	0.687
12.6489	0.649
12.6881	0.612
12.7273	0.597
12.7665	0.596
12.8057	0.594
12.8449	0.586
12.8841	0.56
12.9233	0.526
12.9625	0.478
13.0017	0.364
13.0409	0.234
13.08	0.117
13.1192	0.06
13.1584	0.042
13.1976	0.06
13.2368	0.089
13.276	0.131
13.3152	0.188
13.3544	0.255
13.3936	0.338
13.4328	0.418
13.472	0.478
13.5112	0.532
13.5504	0.558
13.5896	0.571
13.6288	0.574
13.668	0.568
13.7072	0.552
13.7464	0.521
13.7856	0.488
13.8248	0.415
13.864	0.322
13.9031	0.219
13.9423	0.141
13.9815	0.112
14.0207	0.11
14.0599	0.144
14.0991	0.193
14.1383	0.236
14.1775	0.268
14.2167	0.301
14.2559	0.338
14.2951	0.379
14.3343	0.42
14.3735	0.449
14.4127	0.464
14.4519	0.47
14.4911	0.462
14.5303	0.442
14.5695	0.413
14.6087	0.376
14.6479	0.332
14.6871	0.299
14.7262	0.285
14.7654	0.293
14.8046	0.32
14.8438	0.34
14.883	0.355
14.9222	0.372
14.9614	0.405
15.0006	0.434
15.0398	0.442
15.079	0.442
15.1182	0.441
15.1574	0.438
15.1966	0.433
15.2358	0.426
15.275	0.418
15.3142	0.412
15.3534	0.403
15.3926	0.395
15.4318	0.385
15.471	0.376
15.5102	0.364
15.5493	0.35
15.5885	0.34
15.6277	0.335
15.6669	0.332
15.7061	0.33
15.7453	0.327
15.7845	0.325
15.8237	0.325
15.8629	0.325
15.9021	0.327
