Infrared Spectrum: ACETONE, 2,4-DINITROPHENYL HYDRAZONE
Formula: C9 H10 N4 O4
CAS: 1567-89-1
State: SOLID (KBr PELLET)
Melting point: 126 C
Class: COBLENTZ
Instrument: Not specified, most likely a grating spectrometer.
Sampling: TRANSMISSION
Resolution: 4
Origin: CITRUS EXPERIMENT STATION, UNIVERSITY OF FLORIDA (G. EDWARDS)
MICROMETERS	TRANSMITTANCE
2.02	0.477
2.05338	0.48
2.08676	0.481
2.12014	0.481
2.15353	0.483
2.18691	0.485
2.22029	0.487
2.25367	0.489
2.28705	0.493
2.32043	0.499
2.35382	0.5
2.3872	0.504
2.42058	0.507
2.45396	0.508
2.48734	0.51
2.52072	0.511
2.55411	0.515
2.58749	0.516
2.62087	0.516
2.65425	0.516
2.68763	0.515
2.72101	0.511
2.75439	0.507
2.78778	0.5
2.82116	0.491
2.85454	0.485
2.88792	0.483
2.9213	0.484
2.95468	0.5
2.98807	0.507
3.02145	0.439
3.05483	0.518
3.08821	0.539
3.12159	0.555
3.15497	0.57
3.18835	0.571
3.22174	0.532
3.25512	0.548
3.2885	0.55
3.32188	0.546
3.35526	0.531
3.38864	0.51
3.42203	0.515
3.45541	0.528
3.48879	0.531
3.52217	0.55
3.55555	0.559
3.58893	0.56
3.62232	0.562
3.6557	0.563
3.68908	0.566
3.72246	0.566
3.75584	0.567
3.78922	0.567
3.8226	0.574
3.85599	0.575
3.88937	0.578
3.92275	0.58
3.95613	0.582
3.98951	0.582
4.02289	0.58
4.05628	0.58
4.08966	0.58
4.12304	0.585
4.15642	0.589
4.1898	0.59
4.22318	0.595
4.25656	0.597
4.28995	0.597
4.32333	0.597
4.35671	0.597
4.39009	0.597
4.42347	0.597
4.45685	0.595
4.49024	0.597
4.52362	0.599
4.557	0.603
4.59038	0.606
4.62376	0.609
4.65714	0.611
4.69053	0.614
4.72391	0.614
4.75729	0.615
4.79067	0.617
4.82405	0.617
4.85743	0.618
4.89081	0.619
4.9242	0.622
4.95758	0.626
4.99096	0.626
5.02434	0.627
5.05772	0.626
5.0911	0.623
5.12449	0.629
5.15787	0.633
5.19125	0.634
5.22463	0.637
5.25801	0.638
5.29139	0.638
5.32477	0.638
5.35816	0.638
5.39154	0.633
5.42492	0.641
5.4583	0.643
5.49168	0.642
5.52506	0.643
5.55845	0.647
5.59183	0.646
5.62521	0.646
5.65859	0.646
5.69197	0.642
5.72535	0.642
5.75874	0.646
5.79212	0.646
5.8255	0.643
5.85888	0.642
5.89226	0.641
5.92564	0.63
5.95902	0.617
5.99241	0.607
6.02579	0.594
6.05917	0.55
6.09255	0.528
6.12593	0.451
6.15931	0.322
6.1927	0.208
6.22608	0.326
6.25946	0.338
6.29284	0.321
6.32622	0.392
6.3596	0.468
6.39299	0.543
6.42637	0.554
6.45975	0.512
6.49313	0.479
6.52651	0.469
6.55989	0.35
6.59327	0.378
6.62666	0.381
6.66004	0.402
6.69342	0.449
6.7268	0.51
6.76018	0.546
6.79356	0.552
6.82695	0.546
6.86033	0.522
6.89371	0.52
6.92709	0.515
6.96047	0.489
6.99385	0.441
7.02723	0.445
7.06062	0.503
7.094	0.547
7.12738	0.611
7.16076	0.619
7.19414	0.599
7.22752	0.58
7.26091	0.555
7.29429	0.539
7.32767	0.469
7.36105	0.4
7.39443	0.455
7.42781	0.412
7.4612	0.261
7.49458	0.212
7.52796	0.278
7.56134	0.36
7.59472	0.298
7.6281	0.223
7.66148	0.291
7.69487	0.374
7.72825	0.39
7.76163	0.34
7.79501	0.267
7.82839	0.299
7.86177	0.37
7.89516	0.429
7.92854	0.46
7.96192	0.456
7.9953	0.439
8.02868	0.448
8.06206	0.497
8.09544	0.515
8.12883	0.514
8.16221	0.491
8.19559	0.457
8.22897	0.459
8.26235	0.5
8.29573	0.523
8.32912	0.535
8.3625	0.54
8.39588	0.551
8.42926	0.556
8.46264	0.558
8.49602	0.562
8.52941	0.567
8.56279	0.575
8.59617	0.579
8.62955	0.58
8.66293	0.572
8.69631	0.542
8.72969	0.503
8.76308	0.475
8.79646	0.46
8.82984	0.46
8.86322	0.472
8.8966	0.476
8.92998	0.48
8.96337	0.48
8.99675	0.479
9.03013	0.471
9.06351	0.457
9.09689	0.453
9.13027	0.467
9.16365	0.487
9.19704	0.51
9.23042	0.52
9.2638	0.531
9.29718	0.528
9.33056	0.523
9.36394	0.5
9.39733	0.452
9.43071	0.448
9.46409	0.499
9.49747	0.526
9.53085	0.543
9.56423	0.551
9.59762	0.552
9.631	0.551
9.66438	0.542
9.69776	0.531
9.73114	0.531
9.76452	0.543
9.7979	0.552
9.83129	0.563
9.86467	0.571
9.89805	0.58
9.93143	0.583
9.96481	0.587
9.99819	0.589
10.0316	0.587
10.065	0.589
10.0983	0.59
10.1317	0.589
10.1651	0.586
10.1985	0.587
10.2319	0.591
10.2652	0.595
10.2986	0.598
10.332	0.599
10.3654	0.601
10.3988	0.602
10.4322	0.603
10.4655	0.606
10.4989	0.607
10.5323	0.609
10.5657	0.61
10.5991	0.61
10.6324	0.61
10.6658	0.609
10.6992	0.603
10.7326	0.591
10.766	0.559
10.7994	0.535
10.8327	0.523
10.8661	0.523
10.8995	0.56
10.9329	0.57
10.9663	0.58
10.9996	0.589
11.033	0.595
11.0664	0.601
11.0998	0.605
11.1332	0.609
11.1665	0.611
11.1999	0.613
11.2333	0.615
11.2667	0.618
11.3001	0.618
11.3335	0.618
11.3668	0.618
11.4002	0.618
11.4336	0.618
11.467	0.618
11.5004	0.617
11.5337	0.614
11.5671	0.611
11.6005	0.611
11.6339	0.61
11.6673	0.605
11.7007	0.602
11.734	0.609
11.7674	0.614
11.8008	0.618
11.8342	0.617
11.8676	0.606
11.9009	0.562
11.9343	0.508
11.9677	0.547
12.0011	0.548
12.0345	0.524
12.0679	0.56
12.1012	0.594
12.1346	0.61
12.168	0.617
12.2014	0.617
12.2348	0.617
12.2681	0.618
12.3015	0.621
12.3349	0.625
12.3683	0.629
12.4017	0.629
12.435	0.63
12.4684	0.63
12.5018	0.63
12.5352	0.627
12.5686	0.625
12.602	0.623
12.6353	0.622
12.6687	0.621
12.7021	0.621
12.7355	0.623
12.7689	0.626
12.8022	0.627
12.8356	0.631
12.869	0.634
12.9024	0.633
12.9358	0.634
12.9692	0.635
13.0025	0.635
13.0359	0.634
13.0693	0.63
13.1027	0.609
13.1361	0.61
13.1694	0.625
13.2028	0.635
13.2362	0.638
13.2696	0.639
13.303	0.633
13.3364	0.625
13.3697	0.601
13.4031	0.547
13.4365	0.488
13.4699	0.506
13.5033	0.551
13.5366	0.587
13.57	0.605
13.6034	0.615
13.6368	0.622
13.6702	0.629
13.7035	0.626
13.7369	0.619
13.7703	0.601
13.8037	0.571
13.8371	0.531
13.8705	0.519
13.9038	0.534
13.9372	0.563
13.9706	0.586
14.004	0.597
14.0374	0.602
14.0707	0.609
14.1041	0.613
14.1375	0.615
14.1709	0.617
14.2043	0.617
14.2377	0.615
14.271	0.611
14.3044	0.615
14.3378	0.615
14.3712	0.615
14.4046	0.614
14.4379	0.613
14.4713	0.61
14.5047	0.607
14.5381	0.603
14.5715	0.601
14.6049	0.595
14.6382	0.593
14.6716	0.594
14.705	0.599
14.7384	0.606
14.7718	0.618
14.8051	0.618
14.8385	0.618
14.8719	0.618
14.9053	0.619
14.9387	0.621
14.972	0.627
