Infrared Spectrum: 4-Methoxy-2-nitrophenol
Formula: C 7 H 7 N O 4
CAS: 1568-70-3
State: gas
Origin: EPA-IR VAPOR PHASE LIBRARY
1/CM	ABSORBANCE
549.8	0.00823
559.445	0.00997
569.09	0.01168
578.734	0.01174
588.379	0.00899
598.024	0.00673
607.669	0.00649
617.313	0.00732
626.958	0.00878
636.603	0.01082
646.248	0.0131
655.893	0.01572
665.537	0.01691
675.182	0.01595
684.827	0.01133
694.472	0.00601
704.116	0.00361
713.761	0.00239
723.406	0.00205
733.051	0.00231
742.695	0.00478
752.34	0.01036
761.985	0.02144
771.63	0.0307
781.275	0.03172
790.919	0.01426
800.564	0.00559
810.209	0.01095
819.854	0.02541
829.498	0.03015
839.143	0.01394
848.788	0.00924
858.433	0.00903
868.078	0.00721
877.722	0.00707
887.367	0.00558
897.012	0.00411
906.657	0.0049
916.301	0.00691
925.946	0.00666
935.591	0.00436
945.236	0.00268
954.88	0.00262
964.525	0.00289
974.17	0.00297
983.815	0.00383
993.46	0.00448
1003.1	0.00626
1012.75	0.01074
1022.39	0.02284
1032.04	0.04013
1041.68	0.03961
1051.33	0.02293
1060.97	0.02421
1070.62	0.02721
1080.26	0.01391
1089.91	0.00619
1099.55	0.00535
1109.2	0.00761
1118.84	0.0125
1128.49	0.01712
1138.13	0.01409
1147.78	0.01023
1157.42	0.01053
1167.07	0.01459
1176.71	0.02049
1186.36	0.02223
1196	0.02014
1205.64	0.02112
1215.29	0.03447
1224.93	0.06588
1234.58	0.11156
1244.22	0.15177
1253.87	0.16413
1263.51	0.13581
1273.16	0.08598
1282.8	0.04474
1292.45	0.02867
1302.09	0.03927
1311.74	0.06463
1321.38	0.08814
1331.03	0.07887
1340.67	0.05093
1350.32	0.03522
1359.96	0.02458
1369.61	0.01738
1379.25	0.01292
1388.9	0.01067
1398.54	0.012
1408.18	0.01803
1417.83	0.033
1427.47	0.05938
1437.12	0.07638
1446.76	0.06045
1456.41	0.03546
1466.05	0.03298
1475.7	0.04955
1485.34	0.10198
1494.99	0.10855
1504.63	0.05213
1514.28	0.03163
1523.92	0.04031
1533.57	0.08643
1543.21	0.16718
1552.86	0.15729
1562.5	0.06688
1572.15	0.03072
1581.79	0.02685
1591.44	0.02269
1601.08	0.01485
1610.73	0.0114
1620.37	0.0091
1630.01	0.00823
1639.66	0.00674
1649.3	0.00462
1658.95	0.00345
1668.59	0.00319
1678.24	0.00334
1687.88	0.00337
1697.53	0.00347
1707.17	0.00306
1716.82	0.00244
1726.46	0.00198
1736.11	0.00213
1745.75	0.00227
1755.4	0.00223
1765.04	0.0021
1774.69	0.00201
1784.33	0.00168
1793.98	0.00136
1803.62	0.00134
1813.27	0.0012
1822.91	0.00112
1832.55	0.00109
1842.2	0.00115
1851.84	0.00108
1861.49	0.00118
1871.13	0.00125
1880.78	0.00124
1890.42	0.00168
1900.07	0.00204
1909.71	0.00184
1919.36	0.00119
1929	0.00103
1938.65	0.0009989
1948.29	0.00101
1957.94	0.00111
1967.58	0.00111
1977.23	0.00123
1986.87	0.00136
1996.52	0.00134
2006.16	0.00119
2015.81	0.0012
2025.45	0.00131
2035.1	0.00147
2044.74	0.00164
2054.38	0.00168
2064.03	0.00183
2073.67	0.00189
2083.32	0.00164
2092.96	0.00143
2102.61	0.00134
2112.25	0.0013
2121.9	0.0009553
2131.54	0.0008591
2141.19	0.0007679
2150.83	0.0007733
2160.48	0.0009527
2170.12	0.00103
2179.77	0.0009972
2189.41	0.0009464
2199.06	0.0008438
2208.7	0.0006744
2218.35	0.00059
2227.99	0.000594
2237.64	0.0005927
2247.28	0.0007628
2256.92	0.0007499
2266.57	0.0007617
2276.21	0.0006652
2285.86	0.0007669
2295.5	0.0008037
2305.15	0.001
2314.79	0.00113
2324.44	0.00101
2334.08	0.000866
2343.73	0.001
2353.37	0.00112
2363.02	0.00141
2372.66	0.00133
2382.31	0.00139
2391.95	0.00138
2401.6	0.00152
2411.24	0.00161
2420.89	0.00137
2430.53	0.00114
2440.18	0.00104
2449.82	0.00114
2459.47	0.00119
2469.11	0.00127
2478.75	0.00132
2488.4	0.00144
2498.04	0.00145
2507.69	0.00147
2517.33	0.00137
2526.98	0.00127
2536.62	0.00142
2546.27	0.00164
2555.91	0.00184
2565.56	0.00197
2575.2	0.00189
2584.85	0.0018
2594.49	0.00176
2604.14	0.00171
2613.78	0.00174
2623.43	0.00172
2633.07	0.00177
2642.72	0.00174
2652.36	0.00165
2662.01	0.00151
2671.65	0.00135
2681.29	0.00122
2690.94	0.00134
2700.58	0.00136
2710.23	0.0014
2719.87	0.00157
2729.52	0.00157
2739.16	0.00149
2748.81	0.0016
2758.45	0.00154
2768.1	0.00165
2777.74	0.0017
2787.39	0.00209
2797.03	0.00255
2806.68	0.00304
2816.32	0.00361
2825.97	0.00456
2835.61	0.00735
2845.26	0.01111
2854.9	0.00967
2864.55	0.00639
2874.19	0.00556
2883.84	0.00571
2893.48	0.00672
2903.12	0.00851
2912.77	0.01032
2922.41	0.01064
2932.06	0.0109
2941.7	0.01463
2951.35	0.01746
2960.99	0.01547
2970.64	0.01134
2980.28	0.00803
2989.93	0.00689
2999.57	0.00853
3009.22	0.01374
3018.86	0.01256
3028.51	0.00611
3038.15	0.00391
3047.8	0.00381
3057.44	0.0047
3067.09	0.00449
3076.73	0.00396
3086.38	0.00474
3096.02	0.00499
3105.67	0.00439
3115.31	0.00328
3124.95	0.0022
3134.6	0.00189
3144.24	0.00182
3153.89	0.00161
3163.53	0.00184
3173.18	0.00202
3182.82	0.00225
3192.47	0.00256
3202.11	0.00285
3211.76	0.00346
3221.4	0.00419
3231.05	0.00526
3240.69	0.00679
3250.34	0.00866
3259.98	0.01065
3269.63	0.01242
3279.27	0.01348
3288.92	0.01399
3298.56	0.01398
3308.21	0.01384
3317.85	0.01295
3327.49	0.01227
3337.14	0.01138
3346.78	0.01077
3356.43	0.01038
3366.07	0.00968
3375.72	0.00926
3385.36	0.00878
3395.01	0.00811
3404.65	0.00744
3414.3	0.00661
3423.94	0.00589
3433.59	0.00554
3443.23	0.00499
3452.88	0.0046
3462.52	0.00406
3472.17	0.00384
3481.81	0.00364
3491.46	0.00338
3501.1	0.00302
3510.75	0.00286
3520.39	0.00284
3530.04	0.00251
3539.68	0.00249
3549.32	0.00245
3558.97	0.00223
3568.61	0.00199
3578.26	0.0021
3587.9	0.00178
3597.55	0.00176
3607.19	0.00168
3616.84	0.00148
3626.48	0.00149
3636.13	0.00137
3645.77	0.00128
3655.42	0.0009457
3665.06	0.00116
3674.71	0.0008404
3684.35	0.0008523
3694	0.0007446
3703.64	0.0006476
3713.29	0.0004593
3722.93	0.0004642
3732.58	0.0006202
3742.22	0.0005699
3751.86	0.0004772
3761.51	0.00049
3771.15	0.0003244
3780.8	0.0005807
3790.44	0.000462
3800.09	0.0004677
3809.73	0.0002003
3819.38	0.0003555
3829.02	0.0003005
3838.67	0.0003306
3848.31	0.0004406
3857.96	0.0006105
3867.6	0.0004658
3877.25	0.0005792
3886.89	0.0005674
3896.54	0.0006051
3906.18	0.0002903
3915.83	0.0004422
3925.47	0.0003972
3935.12	0.0004693
3944.76	0.0003733
3954.41	0.0003812
3964.05	0.0004819
3973.69	0.0002502
3983.34	0.0006785
3992.98	0.0006141
