Infrared Spectrum: 3-(2-thienyl)acrylic acid
Formula: C 7 H 6 O 2 S
CAS: 15690-25-2
State: gas
Origin: EPA-IR VAPOR PHASE LIBRARY
1/CM	ABSORBANCE
549.8	0.012257
559.445	0.013387
569.09	0.020017
578.734	0.031677
588.379	0.021807
598.024	0.007637
607.669	0.003937
617.313	0.003497
626.958	0.003177
636.603	0.003927
646.248	0.005777
655.893	0.006677
665.537	0.002857
675.182	0.003917
684.827	0.010967
694.472	0.020967
704.116	0.022487
713.761	0.013287
723.406	0.004847
733.051	0.002757
742.695	0.002677
752.34	0.002457
761.985	0.001807
771.63	0.001717
781.275	0.001837
790.919	0.001687
800.564	0.001617
810.209	0.003237
819.854	0.006037
829.498	0.006017
839.143	0.004977
848.788	0.006247
858.433	0.008657
868.078	0.006007
877.722	0.003547
887.367	0.003427
897.012	0.003817
906.657	0.002687
916.301	0.002217
925.946	0.002697
935.591	0.004017
945.236	0.005787
954.88	0.007317
964.525	0.010287
974.17	0.009487
983.815	0.005897
993.46	0.003457
1003.1	0.002687
1012.75	0.002307
1022.39	0.002307
1032.04	0.003817
1041.68	0.007827
1051.33	0.007097
1060.97	0.004207
1070.62	0.004617
1080.26	0.006857
1089.91	0.010447
1099.55	0.025777
1109.2	0.072407
1118.84	0.088377
1128.49	0.046687
1138.13	0.032907
1147.78	0.037437
1157.42	0.035237
1167.07	0.018337
1176.71	0.008407
1186.36	0.008067
1196	0.011417
1205.64	0.011267
1215.29	0.008287
1224.93	0.007117
1234.58	0.007957
1244.22	0.010257
1253.87	0.010607
1263.51	0.012157
1273.16	0.013737
1282.8	0.013457
1292.45	0.011717
1302.09	0.010237
1311.74	0.007687
1321.38	0.005847
1331.03	0.008307
1340.67	0.014067
1350.32	0.015857
1359.96	0.018347
1369.61	0.019537
1379.25	0.013207
1388.9	0.007007
1398.54	0.005607
1408.18	0.004627
1417.83	0.005037
1427.47	0.004567
1437.12	0.003077
1446.76	0.001887
1456.41	0.001377
1466.05	0.001267
1475.7	0.0009917
1485.34	0.0009966
1494.99	0.0009706
1504.63	0.001447
1514.28	0.002907
1523.92	0.003227
1533.57	0.001887
1543.21	0.001277
1552.86	0.0012309
1562.5	0.001367
1572.15	0.001607
1581.79	0.002197
1591.44	0.003517
1601.08	0.005807
1610.73	0.011437
1620.37	0.027237
1630.01	0.047257
1639.66	0.035347
1649.3	0.010747
1658.95	0.004987
1668.59	0.003627
1678.24	0.002757
1687.88	0.002927
1697.53	0.004367
1707.17	0.007317
1716.82	0.010707
1726.46	0.016077
1736.11	0.034397
1745.75	0.080697
1755.4	0.104307
1765.04	0.061637
1774.69	0.023347
1784.33	0.015357
1793.98	0.013357
1803.62	0.008207
1813.27	0.004047
1822.91	0.002467
1832.55	0.001897
1842.2	0.001897
1851.84	0.001797
1861.49	0.001517
1871.13	0.001477
1880.78	0.001557
1890.42	0.0011567
1900.07	0.0009977
1909.71	0.0008985
1919.36	0.0009315
1929	0.0009143
1938.65	0.0008908
1948.29	0.000904
1957.94	0.0009003
1967.58	0.0009705
1977.23	0.0008614
1986.87	0.0007269
1996.52	0.0005559
2006.16	0.0005587
2015.81	0.0004974
2025.45	0.0006587
2035.1	0.0007783
2044.74	0.0009711
2054.38	0.0010838
2064.03	0.000861
2073.67	0.0005724
2083.32	0.000556
2092.96	0.0005594
2102.61	0.0004892
2112.25	0.000474
2121.9	0.0005129
2131.54	0.0004609
2141.19	0.0004167
2150.83	0.000507
2160.48	0.0006227
2170.12	0.0005987
2179.77	0.0004957
2189.41	0.0004122
2199.06	0.000581
2208.7	0.0006752
2218.35	0.0006188
2227.99	0.0005987
2237.64	0.0006142
2247.28	0.0005873
2256.92	0.0004567
2266.57	0.0004583
2276.21	0.0004978
2285.86	0.0005556
2295.5	0.0005615
2305.15	0.0005453
2314.79	0.0005219
2324.44	0.0005035
2334.08	0.0004857
2343.73	0.0004698
2353.37	0.0005462
2363.02	0.0004981
2372.66	0.0003994
2382.31	0.0005065
2391.95	0.00028116
2401.6	0.0003863
2411.24	0.0003602
2420.89	0.0004012
2430.53	0.0004623
2440.18	0.0004415
2449.82	0.000574
2459.47	0.0006439
2469.11	0.0007085
2478.75	0.0006412
2488.4	0.000493
2498.04	0.0004607
2507.69	0.0004676
2517.33	0.0004288
2526.98	0.00029791
2536.62	0.00031668
2546.27	0.0003809
2555.91	0.0004611
2565.56	0.0004292
2575.2	0.0005246
2584.85	0.00035006
2594.49	0.00029946
2604.14	0.00028968
2613.78	0.0004722
2623.43	0.000422
2633.07	0.0003679
2642.72	0.0004008
2652.36	0.0003658
2662.01	0.00028212
2671.65	0.0003732
2681.29	0.00029581
2690.94	0.00029942
2700.58	0.0004528
2710.23	0.00034356
2719.87	0.00033819
2729.52	0.00032981
2739.16	0.0004292
2748.81	0.00032526
2758.45	0.000261708
2768.1	0.00034554
2777.74	0.0004366
2787.39	0.00030848
2797.03	0.00034106
2806.68	0.00032322
2816.32	0.00033819
2825.97	0.0004736
2835.61	0.0004513
2845.26	0.000438
2854.9	0.0004048
2864.55	0.0003721
2874.19	0.0003643
2883.84	0.00029023
2893.48	0.0004322
2903.12	0.00032923
2912.77	0.0004237
2922.41	0.0005098
2932.06	0.0003397
2941.7	0.0004147
2951.35	0.0005117
2960.99	0.000396
2970.64	0.0005335
2980.28	0.0004628
2989.93	0.0006522
2999.57	0.0006943
3009.22	0.0006291
3018.86	0.0006324
3028.51	0.0006796
3038.15	0.0006196
3047.8	0.0008574
3057.44	0.0010561
3067.09	0.001687
3076.73	0.002547
3086.38	0.002897
3096.02	0.002097
3105.67	0.001397
3115.31	0.0007517
3124.95	0.0006143
3134.6	0.0003867
3144.24	0.0005229
3153.89	0.000147
3163.53	0.0004135
3173.18	0.00030221
3182.82	0.0001589
3192.47	0.0002069
3202.11	0.0004623
3211.76	0.0002733
3221.4	0.0001933
3231.05	0.00029498
3240.69	0.0003742
3250.34	0.0001992
3259.98	0.00028521
3269.63	0.0004034
3279.27	0.00024937
3288.92	0.0002256
3298.56	0.0002239
3308.21	0.000149
3317.85	0.0004196
3327.49	0.00031295
3337.14	0.000165
3346.78	0.0002118
3356.43	0.000378
3366.07	0.0004391
3375.72	0.0003428
3385.36	0.0005475
3395.01	0.0004947
3404.65	0.00035561
3414.3	0.00035269
3423.94	0.000492
3433.59	0.0003972
3443.23	0.0004161
3452.88	0.0006592
3462.52	0.0006067
3472.17	0.0008668
3481.81	0.0010837
3491.46	0.001337
3501.1	0.001297
3510.75	0.0008632
3520.39	0.0005687
3530.04	0.0006538
3539.68	0.0005765
3549.32	0.0007996
3558.97	0.001347
3568.61	0.005977
3578.26	0.031887
3587.9	0.035427
3597.55	0.008247
3607.19	0.001597
3616.84	0.000983
3626.48	0.0007384
3636.13	0.0006056
3645.77	0.0004763
3655.42	0.0006066
3665.06	0.0007319
3674.71	0.000735
3684.35	0.0005944
3694	0.0004982
3703.64	0.0004911
3713.29	0.00042
3722.93	0.00030143
3732.58	0.000439
3742.22	0.00026536
3751.86	0.0002512
3761.51	0.0004895
3771.15	0.00030026
3780.8	0.0004031
3790.44	0.00032751
3800.09	0.000258586
3809.73	0.00011
3819.38	0.0003827
3829.02	0.000465
3838.67	0.0006949
3848.31	0.00035224
3857.96	0.0004785
3867.6	0.0005452
3877.25	0.00025058
3886.89	0.00029884
3896.54	0.00028568
3906.18	0.00029948
3915.83	0.00033225
3925.47	0.000278
3935.12	0.0004446
3944.76	0.0005139
3954.41	0.00034385
3964.05	0.0005234
3973.69	0.0004007
3983.34	0.0002262
3992.98	0.00030093
