Infrared Spectrum: N-2-(1-HYDROXY-2-METHYL) PROPYLACETAMIDE
Formula: C6 H13 N O2
CAS: 1569-96-6
State: SOLID
Melting point: 87.5-88 C
Class: COBLENTZ
Instrument: Not specified, most likely a prism, grating, or hybrid spectrometer.
Sampling: TRANSMISSION
Resolution: 4
Origin: ARTHUR D. LITTLE, INC.
MICROMETERS	TRANSMITTANCE
2.517	0.954
2.55325	0.953
2.58951	0.947
2.62576	0.931
2.66201	0.879
2.69827	0.785
2.73452	0.673
2.77077	0.547
2.80703	0.421
2.84328	0.284
2.87954	0.254
2.91579	0.198
2.95204	0.139
2.9883	0.156
3.02455	0.21
3.0608	0.288
3.09706	0.354
3.13331	0.397
3.16956	0.357
3.20582	0.477
3.24207	0.484
3.27832	0.363
3.31458	0.291
3.35083	0.308
3.38708	0.36
3.42334	0.415
3.45959	0.535
3.49585	0.66
3.5321	0.748
3.56835	0.759
3.60461	0.785
3.64086	0.821
3.67711	0.836
3.71337	0.839
3.74962	0.836
3.78587	0.843
3.82213	0.855
3.85838	0.88
3.89463	0.894
3.93089	0.895
3.96714	0.892
4.00339	0.889
4.03965	0.892
4.0759	0.901
4.11216	0.913
4.14841	0.919
4.18466	0.919
4.22092	0.919
4.25717	0.919
4.29342	0.919
4.32968	0.923
4.36593	0.925
4.40218	0.927
4.43844	0.927
4.47469	0.925
4.51094	0.925
4.5472	0.924
4.58345	0.925
4.6197	0.925
4.65596	0.922
4.69221	0.921
4.72847	0.924
4.76472	0.928
4.80097	0.93
4.83723	0.931
4.87348	0.929
4.90973	0.927
4.94599	0.922
4.98224	0.918
5.01849	0.915
5.05475	0.907
5.091	0.894
5.12725	0.894
5.16351	0.9
5.19976	0.906
5.23602	0.91
5.27227	0.911
5.30852	0.912
5.34478	0.911
5.38103	0.91
5.41728	0.903
5.45354	0.897
5.48979	0.888
5.52604	0.877
5.5623	0.882
5.59855	0.864
5.6348	0.844
5.67106	0.838
5.70731	0.832
5.74356	0.819
5.77982	0.796
5.81607	0.734
5.85233	0.642
5.88858	0.503
5.92483	0.377
5.96109	0.251
5.99734	0.163
6.03359	0.071
6.06985	0.125
6.1061	0.227
6.14235	0.294
6.17861	0.358
6.21486	0.403
6.25111	0.373
6.28737	0.325
6.32362	0.188
6.35987	0.078
6.39613	0.038
6.43238	0.102
6.46864	0.217
6.50489	0.276
6.54114	0.324
6.5774	0.346
6.61365	0.37
6.6499	0.381
6.68616	0.372
6.72241	0.265
6.75866	0.22
6.79492	0.235
6.83117	0.248
6.86742	0.216
6.90368	0.212
6.93993	0.226
6.97618	0.258
7.01244	0.277
7.04869	0.295
7.08495	0.313
7.1212	0.248
7.15745	0.194
7.19371	0.215
7.22996	0.165
7.26621	0.122
7.30247	0.116
7.33872	0.215
7.37497	0.389
7.41123	0.429
7.44748	0.438
7.48373	0.433
7.51999	0.331
7.55624	0.259
7.59249	0.136
7.62875	0.226
7.665	0.307
7.70126	0.313
7.73751	0.289
7.77376	0.391
7.81002	0.464
7.84627	0.51
7.88252	0.55
7.91878	0.577
7.95503	0.592
7.99128	0.581
8.02754	0.497
8.06379	0.511
8.10004	0.584
8.1363	0.616
8.17255	0.642
8.2088	0.647
8.24506	0.635
8.28131	0.449
8.31757	0.332
8.35382	0.389
8.39007	0.486
8.42633	0.41
8.46258	0.373
8.49883	0.537
8.53509	0.625
8.57134	0.665
8.60759	0.708
8.64385	0.739
8.6801	0.752
8.71635	0.764
8.75261	0.767
8.78886	0.77
8.82511	0.777
8.86137	0.779
8.89762	0.782
8.93388	0.782
8.97013	0.781
9.00638	0.776
9.04264	0.77
9.07889	0.748
9.11514	0.717
9.1514	0.712
9.18765	0.671
9.2239	0.614
9.26016	0.521
9.29641	0.387
9.33266	0.316
9.36892	0.314
9.40517	0.392
9.44142	0.473
9.47768	0.514
9.51393	0.516
9.55019	0.507
9.58644	0.462
9.62269	0.489
9.65895	0.543
9.6952	0.491
9.73145	0.374
9.76771	0.448
9.80396	0.629
9.84021	0.698
9.87647	0.709
9.91272	0.651
9.94897	0.504
9.98523	0.541
10.0215	0.654
10.0577	0.738
10.094	0.773
10.1302	0.783
10.1665	0.784
10.2027	0.785
10.239	0.778
10.2753	0.736
10.3115	0.644
10.3478	0.526
10.384	0.5
10.4203	0.569
10.4565	0.666
10.4928	0.684
10.529	0.589
10.5653	0.581
10.6015	0.724
10.6378	0.773
10.674	0.793
10.7103	0.797
10.7466	0.799
10.7828	0.799
10.8191	0.793
10.8553	0.781
10.8916	0.745
10.9278	0.692
10.9641	0.661
11.0003	0.583
11.0366	0.552
11.0728	0.57
11.1091	0.705
11.1453	0.773
11.1816	0.796
11.2178	0.801
11.2541	0.802
11.2904	0.802
11.3266	0.797
11.3629	0.794
11.3991	0.795
11.4354	0.794
11.4716	0.784
11.5079	0.777
11.5441	0.776
11.5804	0.771
11.6166	0.763
11.6529	0.757
11.6891	0.753
11.7254	0.741
11.7617	0.735
11.7979	0.733
11.8342	0.729
11.8704	0.724
11.9067	0.718
11.9429	0.712
11.9792	0.711
12.0154	0.708
12.0517	0.702
12.0879	0.691
12.1242	0.684
12.1604	0.681
12.1967	0.674
12.2329	0.662
12.2692	0.655
12.3055	0.648
12.3417	0.633
12.378	0.623
12.4142	0.578
12.4505	0.538
12.4867	0.517
12.523	0.517
12.5592	0.551
12.5955	0.583
12.6317	0.59
12.668	0.596
12.7042	0.592
12.7405	0.577
12.7767	0.565
12.813	0.539
12.8493	0.521
12.8855	0.507
12.9218	0.482
12.958	0.448
12.9943	0.437
13.0305	0.422
13.0668	0.395
13.103	0.375
13.1393	0.36
13.1755	0.343
13.2118	0.327
13.248	0.305
13.2843	0.29
13.3206	0.279
13.3568	0.265
13.3931	0.258
13.4293	0.253
13.4656	0.245
13.5018	0.24
13.5381	0.235
13.5743	0.234
13.6106	0.246
13.6468	0.251
13.6831	0.257
13.7193	0.265
13.7556	0.276
13.7918	0.293
13.8281	0.307
13.8644	0.318
13.9006	0.33
13.9369	0.344
13.9731	0.352
14.0094	0.357
14.0456	0.363
14.0819	0.373
14.1181	0.377
14.1544	0.385
14.1906	0.389
14.2269	0.389
14.2631	0.389
14.2994	0.397
14.3357	0.411
14.3719	0.419
14.4082	0.428
14.4444	0.441
14.4807	0.449
14.5169	0.455
14.5532	0.462
14.5894	0.471
14.6257	0.479
14.6619	0.494
14.6982	0.496
14.7344	0.501
14.7707	0.503
14.8069	0.504
14.8432	0.507
14.8795	0.508
14.9157	0.51
14.952	0.515
14.9882	0.525
