Infrared Spectrum: 6-Methyl-5-hepten-2-ol
Formula: C 8 H 16 O
CAS: 1569-60-4
State: gas
Instrument: HP-GC/MS/IRD
Origin: NIST Mass Spectrometry Data Center
1/CM	ABSORBANCE
550	0.0006222
562	0.0002363
574	8.16e-05
586	3.4e-06
598	9.86e-05
610	3.57e-05
622	0.0002703
634	0.0001751
646	0.0001921
658	0.0002312
670	0.000119
682	0.0001632
694	0.0001819
706	0.0001717
718	0.0002091
730	0.0002193
742	0.0003791
754	0.0004369
766	0.0003723
778	0.0004165
790	0.0007004
802	0.0009605
814	0.0012818
826	0.001683
838	0.001496
850	0.0012784
862	0.0011288
874	0.0008976
886	0.0009673
898	0.001428
910	0.0016252
922	0.0016473
934	0.001972
946	0.0022831
958	0.002108
970	0.0018768
982	0.0019295
994	0.0019482
1006	0.0018309
1018	0.0017629
1030	0.0019686
1042	0.0025449
1054	0.0032589
1066	0.0037978
1078	0.0041157
1090	0.0046172
1102	0.0051272
1114	0.005117
1126	0.004046
1138	0.0027268
1150	0.0021199
1162	0.0019193
1174	0.0019601
1186	0.0018003
1198	0.001802
1210	0.001955
1222	0.0022831
1234	0.0025313
1246	0.0026622
1258	0.002363
1270	0.0019363
1282	0.0015045
1294	0.0013719
1306	0.0014943
1318	0.0015725
1330	0.0016677
1342	0.0020128
1354	0.0027404
1366	0.0038284
1378	0.0053023
1390	0.0047855
1402	0.0030107
1414	0.0020077
1426	0.0020502
1438	0.00272
1450	0.0030838
1462	0.0026605
1474	0.001751
1486	0.0010795
1498	0.0007667
1510	0.0005933
1522	0.0005321
1534	0.000476
1546	0.0004386
1558	0.0003774
1570	0.0003706
1582	0.0003247
1594	0.0002822
1606	0.000272
1618	0.0002159
1630	0.0002686
1642	0.0003009
1654	0.0003349
1666	0.000357
1678	0.0002907
1690	0.0001836
1702	0.0001275
1714	0.0001292
1726	7.31e-05
1738	9.01e-05
1750	8.5e-05
1762	9.86e-05
1774	0.0001207
1786	8.84e-05
1798	9.35e-05
1810	9.69e-05
1822	8.67e-05
1834	9.18e-05
1846	9.69e-05
1858	5.95e-05
1870	7.14e-05
1882	9.52e-05
1894	6.97e-05
1906	0.0001003
1918	6.97e-05
1930	7.31e-05
1942	9.35e-05
1954	6.12e-05
1966	5.61e-05
1978	8.16e-05
1990	5.61e-05
2002	4.76e-05
2014	4.25e-05
2026	4.59e-05
2038	8.33e-05
2050	7.31e-05
2062	6.8e-05
2074	4.25e-05
2086	2.38e-05
2098	4.59e-05
2110	5.1e-05
2122	4.76e-05
2134	2.72e-05
2146	4.59e-05
2158	5.78e-05
2170	5.1e-05
2182	3.74e-05
2194	3.91e-05
2206	4.08e-05
2218	2.89e-05
2230	4.08e-05
2242	2.38e-05
2254	2.72e-05
2266	5.61e-05
2278	6.63e-05
2290	2.89e-05
2302	6.12e-05
2314	6.46e-05
2326	7.14e-05
2338	4.08e-05
2350	4.25e-05
2362	5.27e-05
2374	5.78e-05
2386	6.12e-05
2398	7.99e-05
2410	8.67e-05
2422	0.000102
2434	0.0001037
2446	0.0001173
2458	0.000102
2470	9.18e-05
2482	0.0001003
2494	0.0001054
2506	7.65e-05
2518	0.0001411
2530	9.86e-05
2542	0.0001275
2554	0.000102
2566	0.0001326
2578	0.0001581
2590	0.000153
2602	0.0001598
2614	0.0001836
2626	0.0002431
2638	0.0002992
2650	0.0002975
2662	0.0003026
2674	0.0003128
2686	0.0003094
2698	0.0003179
2710	0.0004114
2722	0.0005168
2734	0.00068
2746	0.000731
2758	0.0006392
2770	0.0006528
2782	0.0006919
2794	0.0008976
2806	0.0011492
2818	0.0015249
2830	0.0021624
2842	0.0035105
2854	0.0056865
2866	0.0081991
2878	0.0091851
2890	0.0095506
2902	0.0105043
2914	0.0136357
2926	0.0169456
2938	0.0151725
2950	0.0114869
2962	0.011679
2974	0.0138346
2986	0.0110483
2998	0.0059636
3010	0.0035377
3022	0.0025738
3034	0.002091
3046	0.0016881
3058	0.0013362
3070	0.0010506
3082	0.0008024
3094	0.0007089
3106	0.0005372
3118	0.0005185
3130	0.0004046
3142	0.0002669
3154	0.0002533
3166	0.0002414
3178	0.0001921
3190	0.0002176
3202	0.0001088
3214	0.0001394
3226	9.52e-05
3238	8.33e-05
3250	7.82e-05
3262	6.46e-05
3274	3.4e-05
3286	4.93e-05
3298	1.7e-05
3310	8.16e-05
3322	0.0001037
3334	3.23e-05
3346	9.35e-05
3358	5.44e-05
3370	9.52e-05
3382	8.67e-05
3394	5.95e-05
3406	0.000102
3418	9.69e-05
3430	0.0001207
3442	8.33e-05
3454	8.33e-05
3466	0.0001088
3478	5.95e-05
3490	6.29e-05
3502	3.74e-05
3514	0.000102
3526	4.76e-05
3538	4.59e-05
3550	0.0001122
3562	6.63e-05
3574	0.0001632
3586	0.0002261
3598	0.0004097
3610	0.0006035
3622	0.0006647
3634	0.0008245
3646	0.0013209
3658	0.0013821
3670	0.0007395
3682	0.0003009
3694	0.0001377
3706	3.4e-05
3718	2.72e-05
3730	1.02e-05
3742	3.91e-05
3754	7.99e-05
3766	5.44e-05
3778	7.14e-05
3790	8.5e-05
3802	6.63e-05
3814	8.67e-05
3826	9.86e-05
3838	0.0001071
