Infrared Spectrum: p-Carbomethoxybenzaldehyde
Formula: C 9 H 8 O 3
CAS: 1571-08-0
State: gas
Origin: EPA-IR VAPOR PHASE LIBRARY
1/CM	ABSORBANCE
549.8	0.0012252
559.445	0.000915
569.09	0.0007317
578.734	0.0008629
588.379	0.0010552
598.024	0.0009191
607.669	0.000309
617.313	0.0008676
626.958	0.0012811
636.603	0.0011706
646.248	0.0010246
655.893	0.0012707
665.537	0.001894
675.182	0.005354
684.827	0.007314
694.472	0.004874
704.116	0.002744
713.761	0.001316
723.406	0.001504
733.051	0.002234
742.695	0.005514
752.34	0.012444
761.985	0.017934
771.63	0.011384
781.275	0.006594
790.919	0.011134
800.564	0.024144
810.209	0.018364
819.854	0.006524
829.498	0.006634
839.143	0.014824
848.788	0.014634
858.433	0.007124
868.078	0.003414
877.722	0.001634
887.367	0.0012616
897.012	0.0012315
906.657	0.000895
916.301	0.0012294
925.946	0.0012181
935.591	0.0011073
945.236	0.0012972
954.88	0.002534
964.525	0.004634
974.17	0.003874
983.815	0.001784
993.46	0.001574
1003.1	0.002454
1012.75	0.010254
1022.39	0.009524
1032.04	0.002164
1041.68	0.002264
1051.33	0.002734
1060.97	0.003894
1070.62	0.006524
1080.26	0.015054
1089.91	0.029284
1099.55	0.051614
1109.2	0.059924
1118.84	0.041204
1128.49	0.018224
1138.13	0.010344
1147.78	0.006974
1157.42	0.005994
1167.07	0.006844
1176.71	0.010534
1186.36	0.025274
1196	0.045804
1205.64	0.023224
1215.29	0.007604
1224.93	0.007654
1234.58	0.012954
1244.22	0.021534
1253.87	0.038564
1263.51	0.092424
1273.16	0.165164
1282.8	0.113364
1292.45	0.047504
1302.09	0.024274
1311.74	0.013804
1321.38	0.010954
1331.03	0.007294
1340.67	0.004724
1350.32	0.004694
1359.96	0.006094
1369.61	0.007734
1379.25	0.010344
1388.9	0.008134
1398.54	0.005364
1408.18	0.005974
1417.83	0.007094
1427.47	0.008314
1437.12	0.017644
1446.76	0.013424
1456.41	0.005344
1466.05	0.003734
1475.7	0.003054
1485.34	0.002764
1494.99	0.004644
1504.63	0.006424
1514.28	0.003334
1523.92	0.002184
1533.57	0.001984
1543.21	0.002154
1552.86	0.002594
1562.5	0.003934
1572.15	0.006284
1581.79	0.005774
1591.44	0.003044
1601.08	0.003314
1610.73	0.003624
1620.37	0.002794
1630.01	0.002584
1639.66	0.003244
1649.3	0.003424
1658.95	0.003084
1668.59	0.003764
1678.24	0.006054
1687.88	0.008744
1697.53	0.012504
1707.17	0.023844
1716.82	0.081444
1726.46	0.123404
1736.11	0.071674
1745.75	0.086664
1755.4	0.067804
1765.04	0.022884
1774.69	0.008594
1784.33	0.006364
1793.98	0.005804
1803.62	0.004434
1813.27	0.003294
1822.91	0.002574
1832.55	0.001994
1842.2	0.001734
1851.84	0.001564
1861.49	0.0012523
1871.13	0.00113
1880.78	0.0010146
1890.42	0.0011172
1900.07	0.0012257
1909.71	0.001624
1919.36	0.001954
1929	0.002154
1938.65	0.002134
1948.29	0.001644
1957.94	0.0012593
1967.58	0.0011578
1977.23	0.0011696
1986.87	0.0009037
1996.52	0.0010365
2006.16	0.0011137
2015.81	0.0009598
2025.45	0.0008252
2035.1	0.0012131
2044.74	0.0011961
2054.38	0.0013056
2064.03	0.001444
2073.67	0.001444
2083.32	0.001504
2092.96	0.0009826
2102.61	0.0008489
2112.25	0.000897
2121.9	0.00077
2131.54	0.0007263
2141.19	0.0006012
2150.83	0.0005398
2160.48	0.0004959
2170.12	0.0005464
2179.77	0.0005656
2189.41	0.0005377
2199.06	0.000325907
2208.7	0.00039543
2218.35	0.0005004
2227.99	0.0005523
2237.64	0.0006333
2247.28	0.0006887
2256.92	0.0005094
2266.57	0.000733
2276.21	0.0006127
2285.86	0.0006496
2295.5	0.0005554
2305.15	0.0005806
2314.79	0.0004395
2324.44	0.000583
2334.08	0.0006589
2343.73	0.0005619
2353.37	0.000687
2363.02	0.0008679
2372.66	0.0007213
2382.31	0.0007106
2391.95	0.0008723
2401.6	0.0006544
2411.24	0.0005265
2420.89	0.00040522
2430.53	0.0004855
2440.18	0.00041663
2449.82	0.0005302
2459.47	0.00036134
2469.11	0.0006198
2478.75	0.0005823
2488.4	0.0004316
2498.04	0.0005029
2507.69	0.0004407
2517.33	0.0005367
2526.98	0.0006684
2536.62	0.0006177
2546.27	0.0007161
2555.91	0.000733
2565.56	0.0006618
2575.2	0.0008288
2584.85	0.0007424
2594.49	0.0007359
2604.14	0.000849
2613.78	0.0008098
2623.43	0.0007355
2633.07	0.0007937
2642.72	0.0008231
2652.36	0.0009784
2662.01	0.0011899
2671.65	0.001824
2681.29	0.002174
2690.94	0.002714
2700.58	0.003754
2710.23	0.006674
2719.87	0.011524
2729.52	0.012004
2739.16	0.007224
2748.81	0.004644
2758.45	0.003974
2768.1	0.004834
2777.74	0.005824
2787.39	0.006694
2797.03	0.007974
2806.68	0.011154
2816.32	0.013824
2825.97	0.011454
2835.61	0.007554
2845.26	0.005734
2854.9	0.004894
2864.55	0.002814
2874.19	0.002194
2883.84	0.002274
2893.48	0.002624
2903.12	0.002864
2912.77	0.003174
2922.41	0.003154
2932.06	0.003024
2941.7	0.003604
2951.35	0.007534
2960.99	0.016884
2970.64	0.010424
2980.28	0.003614
2989.93	0.003444
2999.57	0.003974
3009.22	0.004484
3018.86	0.004154
3028.51	0.003954
3038.15	0.004214
3047.8	0.003444
3057.44	0.002474
3067.09	0.001994
3076.73	0.001734
3086.38	0.002234
3096.02	0.002274
3105.67	0.001874
3115.31	0.0012008
3124.95	0.0011269
3134.6	0.0008062
3144.24	0.0006503
3153.89	0.0003692
3163.53	0.0007443
3173.18	0.0006726
3182.82	0.0003604
3192.47	0.0005245
3202.11	0.000471
3211.76	0.00031847
3221.4	0.0002737
3231.05	0.0002709
3240.69	0.0003105
3250.34	0.0004733
3259.98	0.00031552
3269.63	0.00041799
3279.27	0.0002722
3288.92	0.000282
3298.56	0.0002608
3308.21	0.0005864
3317.85	0.00034189
3327.49	0.00041833
3337.14	0.00033665
3346.78	0.00039303
3356.43	0.0007617
3366.07	0.00042357
3375.72	0.0005541
3385.36	0.00038287
3395.01	0.00065
3404.65	0.0008228
3414.3	0.0012382
3423.94	0.001754
3433.59	0.001614
3443.23	0.0010037
3452.88	0.00089
3462.52	0.0009008
3472.17	0.001374
3481.81	0.0011468
3491.46	0.0008791
3501.1	0.00038758
3510.75	0.0004963
3520.39	0.00038831
3530.04	0.0004529
3539.68	0.0004097
3549.32	0.00034607
3558.97	0.00040618
3568.61	0.00036364
3578.26	0.000219
3587.9	0.000108
3597.55	0.000123
3607.19	0.00037695
3616.84	0.0003072
3626.48	0.000103
3636.13	0.0002966
3645.77	0.00034347
3655.42	0.000111
3665.06	0.000219
3674.71	0.00031829
3684.35	0.0004763
3694	0.000279
3703.64	0.0002788
3713.29	0.00041988
3722.93	0.00036995
3732.58	0.0004682
3742.22	0.0002649
3751.86	0.00038355
3761.51	0.0005333
3771.15	0.00036355
3780.8	0.000267
3790.44	0.0002872
3800.09	0.0004969
3809.73	0.00039095
3819.38	0.00036319
3829.02	0.0004265
3838.67	0.0003026
3848.31	3.9e-05
3857.96	0.000125
3867.6	0.00035777
3877.25	7e-05
3886.89	0.000152
3896.54	0.00034228
3906.18	0.0004464
3915.83	0.0002812
3925.47	0.000328052
3935.12	0.00039155
3944.76	0.0002885
3954.41	0.00038765
3964.05	0.0002427
3973.69	0.0004484
3983.34	0.00033778
3992.98	0.0004383
