Infrared Spectrum: Silicic acid, tetracyclohexyl ester
Formula: C24 H44 O4 Si
CAS: 15717-29-0
State: SOLUTION (10% CCl4 FOR 3800-1330, 10% CS2 FOR 1330-400 CM^-^1)
Class: COBLENTZ III
Instrument: DOW KBr FOREPRISM-GRATING
Instrument parameters: BLAZED AT 3.5, 12.0, 20.0 MICRON AND CHANGED AT 5.0, 7.5, 14.9 MICRON
Sampling: TRANSMISSION
Path length: 0.010 CM, 0.010 CM
Resolution: 2
Origin: DOW CHEMICAL COMPANY
1/CM	TRANSMITTANCE
388	0.6041
397	0.6054
406	0.6085
415	0.6081
424	0.6088
433	0.6118
442	0.736
451	0.7812
460	0.709
469	0.7458
478	0.7578
487	0.6333
496	0.611
505	0.6111
514	0.8231
523	0.8226
532	0.7986
541	0.73
550	0.6083
559	0.5745
568	0.7991
577	0.8838
586	0.8958
595	0.893
604	0.8811
613	0.837
622	0.8263
631	0.7808
640	0.7574
649	0.9286
658	0.935
667	0.9306
676	0.9307
685	0.9324
694	0.9327
703	0.9295
712	0.9226
721	0.9103
730	0.898
739	0.8835
748	0.8814
757	0.8764
766	0.8673
775	0.8117
784	0.6197
793	0.2937
802	0.8164
811	0.8362
820	0.6928
829	0.6896
838	0.383
847	0.802
856	0.7546
865	0.5792
874	0.3772
883	0.1703
892	0.1068
901	0.301
910	0.6101
919	0.7083
928	0.7475
937	0.7959
946	0.7991
955	0.7918
964	0.7811
973	0.7602
982	0.7065
991	0.5319
1000	0.1668
1009	0.3118
1018	0.1191
1027	0.1037
1036	0.2191
1045	0.0693
1054	0.0069
1063	0.0017
1072	0.0014
1081	0.0011
1090	0.0071
1099	0.0224
1108	0.0623
1117	0.1339
1126	0.1745
1135	0.3233
1144	0.308
1153	0.3196
1162	0.5206
1171	0.6172
1180	0.627
1189	0.6749
1198	0.7523
1207	0.7619
1216	0.7609
1225	0.7519
1234	0.6473
1243	0.6503
1252	0.5541
1261	0.6343
1270	0.7454
1279	0.7665
1288	0.7713
1297	0.7666
1306	0.7477
1315	0.6941
1324	0.6097
1333	0.7229
1342	0.7233
1351	0.6643
1360	0.5852
1369	0.3459
1378	0.4573
1387	0.6811
1396	0.7572
1405	0.7654
1414	0.7563
1423	0.724
1432	0.6462
1441	0.5563
1450	0.1522
1459	0.5684
1468	0.4602
1477	0.7413
1486	0.7602
1495	0.7792
1504	0.7981
1513	0.8171
1522	0.836
1531	0.8524
1540	0.8621
1549	0.8589
1558	0.8439
1567	0.8221
1576	0.8202
1585	0.8039
1594	0.7827
1603	0.7978
1612	0.8178
1621	0.8184
1630	0.8195
1639	0.8228
1648	0.8281
1657	0.8314
1666	0.8314
1675	0.8304
1684	0.83
1693	0.8313
1702	0.8368
1711	0.843
1720	0.847
1729	0.8489
1738	0.8495
1747	0.8498
1756	0.8498
1765	0.8505
1774	0.8515
1783	0.8523
1792	0.8522
1801	0.8521
1810	0.8519
1819	0.8508
1828	0.8498
1837	0.8492
1846	0.8487
1855	0.848
1864	0.8472
1873	0.8465
1882	0.8457
1891	0.8449
1900	0.8441
1909	0.8434
1918	0.8428
1927	0.8425
1936	0.8421
1945	0.8399
1954	0.8355
1963	0.838
1972	0.8407
1981	0.8412
1990	0.842
1999	0.8537
2008	0.8646
2017	0.8659
2026	0.8672
2035	0.8678
2044	0.8682
2053	0.8685
2062	0.8688
2071	0.869
2080	0.8696
2089	0.8702
2098	0.8709
2107	0.8714
2116	0.8718
2125	0.8716
2134	0.8715
2143	0.8713
2152	0.8711
2161	0.8709
2170	0.8711
2179	0.8716
2188	0.8722
2197	0.8725
2206	0.8728
2215	0.873
2224	0.8729
2233	0.8728
2242	0.8727
2251	0.8725
2260	0.8721
2269	0.8715
2278	0.871
2287	0.8704
2296	0.8683
2305	0.8651
2314	0.8603
2323	0.8573
2332	0.8571
2341	0.8576
2350	0.8584
2359	0.8592
2368	0.8601
2377	0.8599
2386	0.8597
2395	0.8594
2404	0.8592
2413	0.8588
2422	0.8585
2431	0.8575
2440	0.8561
2449	0.8545
2458	0.8509
2467	0.8483
2476	0.8473
2485	0.8463
2494	0.8438
2503	0.8408
2512	0.841
2521	0.8423
2530	0.8426
2539	0.8397
2548	0.8352
2557	0.827
2566	0.8169
2575	0.8059
2584	0.7938
2593	0.7926
2602	0.7905
2611	0.7884
2620	0.7865
2629	0.7824
2638	0.7719
2647	0.7451
2656	0.7186
2665	0.7354
2674	0.7617
2683	0.7692
2692	0.7737
2701	0.7763
2710	0.7777
2719	0.7762
2728	0.7741
2737	0.7717
2746	0.7689
2755	0.7636
2764	0.753
2773	0.737
2782	0.7056
2791	0.7027
2800	0.7011
2809	0.6827
2818	0.6559
2827	0.6128
2836	0.5193
2845	0.2587
2854	0.0331
2863	0.1172
2872	0.2396
2881	0.2989
2890	0.2658
2899	0.1949
2908	0.1242
2917	0.0501
2926	0.0107
2935	0.0116
2944	0.0195
2953	0.1251
2962	0.2905
2971	0.4044
2980	0.5762
2989	0.649
2998	0.688
3007	0.7124
3016	0.7316
3025	0.7451
3034	0.7546
3043	0.7605
3052	0.7653
3061	0.7702
3070	0.7752
3079	0.7798
3088	0.7838
3097	0.7877
3106	0.7917
3115	0.796
3124	0.8004
3133	0.8041
3142	0.8073
3151	0.8104
3160	0.8136
3169	0.8167
3178	0.8195
3187	0.8217
3196	0.8239
3205	0.8256
3214	0.8265
3223	0.8274
3232	0.8284
3241	0.8293
3250	0.8304
3259	0.8315
3268	0.8326
3277	0.8333
3286	0.8334
3295	0.8334
3304	0.8334
3313	0.8327
3322	0.832
3331	0.8314
3340	0.8308
3349	0.8302
3358	0.8296
3367	0.8292
3376	0.8292
3385	0.8292
3394	0.8292
3403	0.8305
3412	0.8319
3421	0.8333
3430	0.8353
3439	0.8373
3448	0.8393
3457	0.8416
3466	0.8447
3475	0.8477
3484	0.8509
3493	0.8538
3502	0.8567
3511	0.8596
3520	0.8626
3529	0.865
3538	0.8675
3547	0.8699
3556	0.8718
3565	0.8728
3574	0.8738
3583	0.8742
3592	0.8733
3601	0.8725
3610	0.8718
3619	0.8715
3628	0.8712
3637	0.8709
3646	0.8706
3655	0.8706
3664	0.8706
3673	0.8706
3682	0.8706
3691	0.8706
3700	0.8705
3709	0.8704
3718	0.8703
3727	0.8702
3736	0.8701
3745	0.87
3754	0.87
3763	0.8699
3772	0.8699
3781	0.8701
3790	0.87
