Infrared Spectrum: Ethyl p-bis(2-hydroxyethyl)aminobenzoate
Formula: C 13 H 19 N O 4
CAS: 15716-30-0
State: gas
Origin: EPA-IR VAPOR PHASE LIBRARY
1/CM	ABSORBANCE
549.8	0.0010311
559.445	0.0010811
569.09	0.0012511
578.734	0.0010911
588.379	0.0009328
598.024	0.0009246
607.669	0.0011511
617.313	0.0009517
626.958	0.0010511
636.603	0.0011411
646.248	0.0004768
655.893	0.0005287
665.537	0.0004745
675.182	0.0005606
684.827	0.0009324
694.472	0.0018211
704.116	0.0018411
713.761	0.0013311
723.406	0.0010811
733.051	0.0012111
742.695	0.0008681
752.34	0.0014711
761.985	0.0032611
771.63	0.0049511
781.275	0.0023611
790.919	0.0013911
800.564	0.0013711
810.209	0.0013011
819.854	0.0016211
829.498	0.0030211
839.143	0.0032111
848.788	0.0027511
858.433	0.0023611
868.078	0.0020211
877.722	0.0019111
887.367	0.0019011
897.012	0.0018811
906.657	0.0017011
916.301	0.0016811
925.946	0.0015811
935.591	0.0017311
945.236	0.0018711
954.88	0.0022811
964.525	0.0030611
974.17	0.0036711
983.815	0.0045711
993.46	0.0050011
1003.1	0.0058011
1012.75	0.0075911
1022.39	0.0096711
1032.04	0.0107611
1041.68	0.0112111
1051.33	0.0099011
1060.97	0.0098911
1070.62	0.0096611
1080.26	0.0089011
1089.91	0.0112411
1099.55	0.0232811
1109.2	0.0343111
1118.84	0.0183511
1128.49	0.0095111
1138.13	0.0075311
1147.78	0.0073511
1157.42	0.0087511
1167.07	0.0121511
1176.71	0.0236511
1186.36	0.0387111
1196	0.0195011
1205.64	0.0121811
1215.29	0.0111411
1224.93	0.0112111
1234.58	0.0125111
1244.22	0.0140111
1253.87	0.0191011
1263.51	0.0325511
1273.16	0.0506711
1282.8	0.0330811
1292.45	0.0141311
1302.09	0.0087711
1311.74	0.0078711
1321.38	0.0079711
1331.03	0.0070511
1340.67	0.0079611
1350.32	0.0101511
1359.96	0.0116711
1369.61	0.0120411
1379.25	0.0083911
1388.9	0.0076711
1398.54	0.0062511
1408.18	0.0044911
1417.83	0.0038911
1427.47	0.0034111
1437.12	0.0029511
1446.76	0.0033511
1456.41	0.0039411
1466.05	0.0043711
1475.7	0.0043711
1485.34	0.0034311
1494.99	0.0036411
1504.63	0.0072211
1514.28	0.0143811
1523.92	0.0085211
1533.57	0.0040311
1543.21	0.0030911
1552.86	0.0031311
1562.5	0.0035511
1572.15	0.0035011
1581.79	0.0045011
1591.44	0.0097611
1601.08	0.0223311
1610.73	0.0248211
1620.37	0.0092011
1630.01	0.0037511
1639.66	0.0022911
1649.3	0.0016411
1658.95	0.0014011
1668.59	0.0013811
1678.24	0.0016511
1687.88	0.0020811
1697.53	0.0025911
1707.17	0.0038711
1716.82	0.0084211
1726.46	0.0270211
1736.11	0.0325011
1745.75	0.0104711
1755.4	0.0049411
1765.04	0.0033911
1774.69	0.0029611
1784.33	0.0022711
1793.98	0.0014811
1803.62	0.0010411
1813.27	0.0007219
1822.91	0.0006089
1832.55	0.0005416
1842.2	0.0005062
1851.84	0.0004741
1861.49	0.0004684
1871.13	0.0004853
1880.78	0.0005652
1890.42	0.0006252
1900.07	0.0006954
1909.71	0.0007224
1919.36	0.0005895
1929	0.0005077
1938.65	0.0004574
1948.29	0.0004749
1957.94	0.0004751
1967.58	0.0004849
1977.23	0.0004535
1986.87	0.0003721
1996.52	0.0003647
2006.16	0.000365
2015.81	0.000381
2025.45	0.0003153
2035.1	0.0002704
2044.74	0.0002767
2054.38	0.0003708
2064.03	0.0003287
2073.67	0.0003531
2083.32	0.0003591
2092.96	0.0003701
2102.61	0.0003627
2112.25	0.0004079
2121.9	0.0004529
2131.54	0.0003903
2141.19	0.0003482
2150.83	0.0002679
2160.48	0.0002159
2170.12	0.0002791
2179.77	0.000182
2189.41	0.0002094
2199.06	0.0002006
2208.7	0.0001867
2218.35	0.0002556
2227.99	0.0001856
2237.64	0.0002572
2247.28	0.0003235
2256.92	0.0002852
2266.57	0.0001785
2276.21	0.0002221
2285.86	0.0002076
2295.5	0.0002003
2305.15	0.0001696
2314.79	0.0002238
2324.44	0.0002842
2334.08	0.0002089
2343.73	0.0002923
2353.37	0.0002391
2363.02	0.000352
2372.66	0.0003678
2382.31	0.0002752
2391.95	0.0003397
2401.6	0.0003384
2411.24	0.0003098
2420.89	0.0003203
2430.53	0.0003555
2440.18	0.0004034
2449.82	0.0003293
2459.47	0.0003879
2469.11	0.0003231
2478.75	0.0003226
2488.4	0.0003309
2498.04	0.0003556
2507.69	0.0003346
2517.33	0.0003688
2526.98	0.0004008
2536.62	0.0004072
2546.27	0.0004951
2555.91	0.0005357
2565.56	0.0005213
2575.2	0.0004832
2584.85	0.0005297
2594.49	0.0006303
2604.14	0.0005417
2613.78	0.0005233
2623.43	0.0005117
2633.07	0.000336
2642.72	0.0003888
2652.36	0.0004447
2662.01	0.0004199
2671.65	0.0004645
2681.29	0.0003935
2690.94	0.0004741
2700.58	0.0005447
2710.23	0.000556
2719.87	0.0005441
2729.52	0.0006497
2739.16	0.0006342
2748.81	0.0007228
2758.45	0.0007055
2768.1	0.0008269
2777.74	0.000942
2787.39	0.0009165
2797.03	0.0011311
2806.68	0.0013211
2816.32	0.0015411
2825.97	0.0019811
2835.61	0.0023611
2845.26	0.0029011
2854.9	0.0035611
2864.55	0.0043611
2874.19	0.0057811
2883.84	0.0074011
2893.48	0.0071011
2903.12	0.0063311
2912.77	0.0062911
2922.41	0.0069011
2932.06	0.0079111
2941.7	0.0092011
2951.35	0.0087011
2960.99	0.0082011
2970.64	0.0082211
2980.28	0.0084811
2989.93	0.0067711
2999.57	0.0041511
3009.22	0.0028111
3018.86	0.0017911
3028.51	0.0013711
3038.15	0.0012111
3047.8	0.0011111
3057.44	0.0011111
3067.09	0.0010611
3076.73	0.0010153
3086.38	0.0011911
3096.02	0.0012511
3105.67	0.0012211
3115.31	0.0007331
3124.95	0.0005473
3134.6	0.0004807
3144.24	0.0002708
3153.89	0.0002345
3163.53	0.0001911
3173.18	0.0001846
3182.82	0.0002199
3192.47	0.0003317
3202.11	0.0002701
3211.76	0.0004548
3221.4	0.0002116
3231.05	0.0002362
3240.69	0.0001962
3250.34	0.00010867
3259.98	0.0001237
3269.63	0.0003104
3279.27	0.000165
3288.92	0.0001731
3298.56	0
3308.21	0.0002776
3317.85	0.0001382
3327.49	0.0002493
3337.14	0.0001777
3346.78	0.0002498
3356.43	0.0003401
3366.07	0.0001789
3375.72	0.0003205
3385.36	0.0001854
3395.01	0.0003471
3404.65	0.0003823
3414.3	0.0003279
3423.94	0.000365
3433.59	0.0003658
3443.23	0.0005895
3452.88	0.0004349
3462.52	0.0004008
3472.17	0.0003987
3481.81	0.0005537
3491.46	0.0003899
3501.1	0.0005316
3510.75	0.0006262
3520.39	0.0004934
3530.04	0.0007645
3539.68	0.0009395
3549.32	0.0010811
3558.97	0.0011311
3568.61	0.0016211
3578.26	0.0016211
3587.9	0.0011911
3597.55	0.0009464
3607.19	0.0009146
3616.84	0.0009464
3626.48	0.0009838
3636.13	0.0011211
3645.77	0.0014311
3655.42	0.0017711
3665.06	0.0027211
3674.71	0.0025511
3684.35	0.0012811
3694	0.0009298
3703.64	0.0005894
3713.29	0.0004947
3722.93	0.0003437
3732.58	0.0003051
3742.22	0.0003509
3751.86	0.000371
3761.51	0.0003707
3771.15	0.0002929
3780.8	0.0002199
3790.44	0.0003138
3800.09	0.0001955
3809.73	0.0002744
3819.38	0.000171
3829.02	0.0003758
3838.67	0.0002174
3848.31	0.0002766
3857.96	0.0001781
3867.6	0.0002901
3877.25	0.0001639
3886.89	0.0001933
3896.54	1.369e-05
3906.18	0.0002836
3915.83	0.0002963
3925.47	0.0001699
3935.12	0.0002152
3944.76	0.0002542
3954.41	0.0002625
3964.05	0.0002344
3973.69	0.0002602
3983.34	0.00011036
3992.98	0.0002158
