Infrared Spectrum: 2-METHYLENE GLUTARONITRILE
Formula: C6 H6 N2
CAS: 1572-52-7
Class: COBLENTZ
Instrument: PERKIN-ELMER
Sampling: TRANSMISSION
Path length: 0.0025 CM
Resolution: 4
Origin: STANDARD OIL OF OHIO
1/CM	TRANSMITTANCE
614.92	0.501
623.37	0.5
631.82	0.375
640.27	0.418
648.72	0.613
657.17	0.662
665.62	0.689
674.07	0.706
682.52	0.721
690.97	0.739
699.42	0.746
707.87	0.736
716.32	0.709
724.77	0.69
733.22	0.704
741.67	0.714
750.12	0.699
758.57	0.722
767.02	0.734
775.47	0.746
783.921	0.685
792.371	0.721
800.821	0.771
809.271	0.771
817.721	0.739
826.171	0.635
834.621	0.81
843.071	0.834
851.521	0.834
859.971	0.814
868.421	0.793
876.871	0.738
885.321	0.57
893.771	0.699
902.221	0.748
910.671	0.746
919.121	0.646
927.571	0.361
936.021	0.162
944.471	0.03
952.921	0.048
961.371	0.128
969.821	0.29
978.271	0.547
986.721	0.559
995.171	0.513
1003.62	0.679
1012.07	0.697
1020.52	0.673
1028.97	0.724
1037.42	0.793
1045.87	0.817
1054.32	0.826
1062.77	0.826
1071.22	0.829
1079.67	0.832
1088.12	0.836
1096.57	0.839
1105.02	0.842
1113.47	0.839
1121.92	0.837
1130.37	0.836
1138.82	0.824
1147.27	0.814
1155.72	0.787
1164.17	0.716
1172.62	0.709
1181.07	0.748
1189.52	0.763
1197.97	0.748
1206.42	0.67
1214.87	0.592
1223.32	0.662
1231.77	0.726
1240.22	0.734
1248.67	0.717
1257.12	0.673
1265.57	0.513
1274.02	0.689
1282.47	0.716
1290.92	0.734
1299.37	0.761
1307.82	0.771
1316.27	0.722
1324.72	0.673
1333.17	0.641
1341.62	0.699
1350.07	0.738
1358.52	0.744
1366.97	0.734
1375.42	0.716
1383.87	0.65
1392.32	0.478
1400.77	0.19
1409.22	0.285
1417.67	0.165
1426.12	0.157
1434.57	0.162
1443.02	0.16
1451.47	0.375
1459.92	0.594
1468.37	0.658
1476.82	0.701
1485.27	0.743
1493.72	0.768
1502.17	0.783
1510.62	0.797
1519.07	0.804
1527.52	0.809
1535.97	0.817
1544.42	0.819
1552.87	0.819
1561.32	0.819
1569.77	0.82
1578.22	0.815
1586.67	0.807
1595.12	0.782
1603.57	0.761
1612.02	0.721
1620.47	0.396
1628.92	0.503
1637.37	0.765
1645.82	0.807
1654.27	0.815
1662.72	0.812
1671.17	0.81
1679.62	0.81
1688.07	0.812
1696.52	0.819
1704.97	0.827
1713.42	0.836
1721.87	0.841
1730.32	0.847
1738.77	0.851
1747.22	0.851
1755.67	0.853
1764.12	0.853
1772.57	0.853
1781.02	0.853
1789.47	0.849
1797.92	0.847
1806.37	0.849
1814.82	0.847
1823.27	0.849
1831.72	0.849
1840.17	0.846
1848.62	0.841
1857.07	0.834
1865.52	0.817
1873.97	0.797
1882.42	0.773
1890.87	0.741
1899.32	0.722
1907.77	0.712
1916.22	0.721
1924.67	0.738
1933.12	0.765
1941.57	0.793
1950.02	0.815
1958.47	0.829
1966.92	0.839
1975.37	0.846
1983.82	0.847
1992.27	0.851
2000.72	0.851
2009.17	0.856
2017.62	0.856
2026.07	0.858
2034.52	0.859
2042.97	0.858
2051.42	0.856
2059.87	0.856
2068.32	0.856
2076.77	0.858
2085.22	0.859
2093.67	0.859
2102.12	0.863
2110.57	0.864
2119.02	0.859
2127.47	0.861
2135.92	0.856
2144.37	0.849
2152.82	0.846
2161.27	0.839
2169.72	0.831
2178.17	0.814
2186.62	0.826
2195.07	0.809
2203.52	0.782
2211.97	0.746
2220.42	0.501
2228.87	0.072
2237.32	0.418
2245.77	0.373
2254.22	0.145
2262.67	0.469
2271.12	0.722
2279.57	0.768
2288.03	0.761
2296.48	0.778
2304.93	0.797
2313.38	0.804
2321.83	0.814
2330.28	0.831
2338.73	0.839
2347.18	0.842
2355.63	0.839
2364.08	0.837
2372.53	0.839
2380.98	0.842
2389.43	0.842
2397.88	0.837
2406.33	0.837
2414.78	0.836
2423.23	0.832
2431.68	0.831
2440.13	0.829
2448.58	0.834
2457.03	0.831
2465.48	0.834
2473.93	0.841
2482.38	0.847
2490.83	0.851
2499.28	0.847
2507.73	0.846
2516.18	0.847
2524.63	0.847
2533.08	0.846
2541.53	0.846
2549.98	0.842
2558.43	0.839
2566.88	0.839
2575.33	0.842
2583.78	0.837
2592.23	0.836
2600.68	0.832
2609.13	0.826
2617.58	0.82
2626.03	0.834
2634.48	0.839
2642.93	0.837
2651.38	0.837
2659.83	0.837
2668.28	0.841
2676.73	0.847
2685.18	0.849
2693.63	0.849
2702.08	0.849
2710.53	0.849
2718.98	0.847
2727.43	0.847
2735.88	0.846
2744.33	0.847
2752.78	0.842
2761.23	0.842
2769.68	0.837
2778.13	0.836
2786.58	0.834
2795.03	0.826
2803.48	0.822
2811.93	0.82
2820.38	0.815
2828.83	0.809
2837.28	0.795
2845.73	0.782
2854.18	0.766
2862.63	0.746
2871.08	0.722
2879.53	0.719
2887.98	0.729
2896.43	0.733
2904.88	0.726
2913.33	0.699
2921.78	0.641
2930.23	0.562
2938.68	0.456
2947.13	0.452
2955.58	0.501
2964.03	0.501
2972.48	0.471
2980.93	0.505
2989.38	0.569
2997.83	0.557
3006.28	0.592
3014.73	0.658
3023.18	0.684
3031.63	0.694
3040.08	0.68
3048.53	0.658
3056.98	0.699
3065.43	0.716
3073.88	0.716
3082.33	0.717
3090.78	0.731
3099.23	0.731
3107.68	0.677
3116.13	0.603
3124.58	0.673
3133.03	0.722
3141.48	0.758
3149.93	0.777
3158.38	0.785
3166.83	0.792
3175.28	0.783
3183.73	0.778
3192.18	0.788
3200.63	0.802
3209.08	0.807
3217.53	0.804
3225.98	0.809
3234.43	0.814
3242.88	0.817
3251.33	0.822
3259.78	0.834
3268.23	0.836
3276.68	0.837
3285.13	0.841
3293.58	0.847
3302.03	0.849
3310.48	0.847
3318.93	0.851
3327.38	0.851
3335.83	0.853
3344.28	0.851
3352.73	0.851
3361.18	0.853
3369.63	0.853
3378.08	0.851
3386.53	0.853
3394.98	0.851
3403.43	0.853
3411.88	0.853
3420.33	0.854
3428.78	0.858
3437.23	0.856
3445.68	0.859
3454.13	0.861
3462.58	0.863
3471.03	0.859
3479.48	0.859
3487.93	0.856
3496.38	0.853
3504.83	0.863
3513.28	0.866
3521.73	0.866
3530.18	0.869
3538.63	0.869
3547.08	0.868
3555.53	0.866
3563.98	0.864
3572.43	0.863
3580.88	0.859
3589.33	0.863
3597.78	0.868
3606.23	0.869
3614.68	0.869
3623.13	0.869
3631.58	0.868
3640.03	0.871
3648.48	0.875
3656.93	0.876
3665.38	0.875
3673.83	0.875
3682.28	0.875
3690.73	0.878
3699.18	0.878
3707.63	0.878
3716.08	0.878
3724.53	0.878
3732.98	0.88
3741.43	0.88
3749.88	0.88
3758.33	0.878
3766.78	0.878
3775.23	0.878
3783.68	0.878
3792.13	0.88
3800.58	0.88
3809.03	0.876
3817.48	0.871
3825.93	0.869
3834.38	0.863
3842.83	0.856
3851.28	0.856
3859.73	0.866
3868.18	0.871
3876.63	0.875
3885.08	0.873
3893.53	0.875
3901.98	0.871
3910.43	0.869
3918.88	0.871
3927.33	0.859
3935.78	0.858
3944.23	0.856
