Infrared Spectrum: 3-Methyl-4-heptanone
Formula: C 8 H 16 O
CAS: 15726-15-5
State: gas
Instrument: HP-GC/MS/IRD
Origin: NIST Mass Spectrometry Data Center
1/CM	ABSORBANCE
550	0.0003899
562	0.0001547
574	7.56e-05
586	9.31e-05
598	0.0001225
610	0.0001176
622	8.05e-05
634	0
646	0.0001092
658	0.0001141
670	8.47e-05
682	0.0001113
694	9.31e-05
706	0.0001183
718	0.0001148
730	0.0001505
742	0.000154
754	0.0001687
766	0.0002366
778	0.0002632
790	0.0002604
802	0.0003213
814	0.0002359
826	3.92e-05
838	0.00021
850	0.0001456
862	0.0001015
874	0.0001687
886	0.0002828
898	0.0002982
910	0.0002499
922	0.000126
934	0.0001169
946	0.0001568
958	0.0002499
970	0.0003045
982	0.0005334
994	0.000777
1006	0.0009051
1018	0.0008666
1030	0.0008232
1042	0.0007014
1054	0.0005677
1066	0.000434
1078	0.0004529
1090	0.0005229
1102	0.0006447
1114	0.0008484
1126	0.0007567
1138	0.0005425
1150	0.0004907
1162	0.0006671
1174	0.0007266
1186	0.0005775
1198	0.000392
1210	0.0003185
1222	0.000329
1234	0.0003003
1246	0.0003703
1258	0.0004907
1270	0.0005677
1282	0.0005761
1294	0.0005628
1306	0.0004781
1318	0.0004333
1330	0.0005117
1342	0.0007665
1354	0.0011004
1366	0.0011956
1378	0.0011305
1390	0.0009324
1402	0.0006503
1414	0.0005397
1426	0.0005446
1438	0.0006594
1450	0.0010829
1462	0.0014371
1474	0.0010619
1486	0.0005159
1498	0.0002758
1510	0.0001435
1522	9.94e-05
1534	9.8e-05
1546	8.54e-05
1558	5.25e-05
1570	0.000105
1582	0.0001218
1594	0.000119
1606	0.0001155
1618	0.0001141
1630	0.000126
1642	0.0001673
1654	0.0001463
1666	0.0002597
1678	0.0004529
1690	0.0008134
1702	0.0018158
1714	0.003717
1726	0.0041986
1738	0.002044
1750	0.0006419
1762	0.0003017
1774	0.0001778
1786	0.0001162
1798	9.1e-05
1810	0.0001169
1822	9.38e-05
1834	6.86e-05
1846	6.23e-05
1858	7.14e-05
1870	4.97e-05
1882	4.83e-05
1894	4.41e-05
1906	5.32e-05
1918	4.76e-05
1930	5.32e-05
1942	3.5e-05
1954	3.57e-05
1966	3.15e-05
1978	1.19e-05
1990	3.01e-05
2002	3.64e-05
2014	2.1e-05
2026	1.82e-05
2038	3.01e-05
2050	3.29e-05
2062	5.04e-05
2074	4.2e-05
2086	2.31e-05
2098	3.43e-05
2110	1.12e-05
2122	2.38e-05
2134	3.78e-05
2146	3.64e-05
2158	2.38e-05
2170	2.17e-05
2182	2.24e-05
2194	9.8e-06
2206	3.15e-05
2218	1.05e-05
2230	2.45e-05
2242	1.61e-05
2254	3.92e-05
2266	3.29e-05
2278	2.45e-05
2290	1.61e-05
2302	2.1e-05
2314	2.17e-05
2326	1.82e-05
2338	2.38e-05
2350	1.47e-05
2362	8.4e-06
2374	1.12e-05
2386	1.26e-05
2398	3.29e-05
2410	4.27e-05
2422	5.6e-05
2434	2.59e-05
2446	4.69e-05
2458	3.29e-05
2470	4.06e-05
2482	2.8e-05
2494	1.47e-05
2506	2.24e-05
2518	1.68e-05
2530	1.89e-05
2542	3.64e-05
2554	1.47e-05
2566	3.78e-05
2578	1.47e-05
2590	4.13e-05
2602	5.18e-05
2614	4.27e-05
2626	4.69e-05
2638	2.38e-05
2650	3.08e-05
2662	3.92e-05
2674	7.21e-05
2686	6.86e-05
2698	6.02e-05
2710	7.77e-05
2722	7.21e-05
2734	8.54e-05
2746	0.0001316
2758	0.0001372
2770	0.0001288
2782	0.0001547
2794	0.0001925
2806	0.0002534
2818	0.0003115
2830	0.0003829
2842	0.0005145
2854	0.0007987
2866	0.0014721
2878	0.0025361
2890	0.003073
2902	0.0027965
2914	0.0028532
2926	0.00364
2938	0.0045598
2950	0.0046445
2962	0.0056273
2974	0.007
2986	0.0044807
2998	0.001869
3010	0.0009149
3022	0.0005236
3034	0.0003815
3046	0.0003199
3058	0.0002828
3070	0.0002002
3082	0.0001988
3094	0.0001806
3106	0.0001743
3118	0.000154
3130	0.0001372
3142	0.0001358
3154	0.0001169
3166	0.0001064
3178	8.54e-05
3190	0.0001043
3202	7.07e-05
3214	6.86e-05
3226	8.26e-05
3238	3.08e-05
3250	5.81e-05
3262	6.16e-05
3274	4.27e-05
3286	1.89e-05
3298	3.92e-05
3310	4.97e-05
3322	7.49e-05
3334	2.87e-05
3346	4.41e-05
3358	7.49e-05
3370	6.09e-05
3382	5.25e-05
3394	9.8e-05
3406	0.0001169
3418	0.0001015
3430	0.0001638
3442	9.87e-05
3454	9.73e-05
3466	0.0001057
3478	9.03e-05
3490	3.85e-05
3502	5.81e-05
3514	5.39e-05
3526	2.8e-05
3538	7.35e-05
3550	3.99e-05
3562	4.06e-05
3574	7.07e-05
3586	6.3e-05
3598	5.46e-05
3610	7.42e-05
3622	5.81e-05
3634	5.04e-05
3646	8.89e-05
3658	7.28e-05
3670	6.23e-05
3682	5.6e-05
3694	3.5e-05
3706	5.88e-05
3718	9.59e-05
3730	3.78e-05
3742	3.92e-05
3754	4.41e-05
3766	9.24e-05
3778	6.86e-05
3790	7.84e-05
3802	6.09e-05
3814	7.07e-05
3826	9.17e-05
3838	5.67e-05
