Infrared Spectrum: (R)-(-)-3-Methyl-2-butanol
Formula: C 5 H 12 O
CAS: 1572-93-6
State: gas
Origin: EPA-IR VAPOR PHASE LIBRARY
1/CM	ABSORBANCE
549.8	0.0013817
559.445	0.002374
569.09	0.0016271
578.734	0.0014898
588.379	0.0013868
598.024	0.00081786
607.669	0.0014675
617.313	0.0009964
626.958	0.00087888
636.603	0.0007521
646.248	0.00080794
655.893	0.000591
665.537	0.0012638
675.182	0.0015662
684.827	0.0009845
694.472	0.0015132
704.116	0.0010197
713.761	0.0009805
723.406	0.0014682
733.051	0.0012266
742.695	0.001874
752.34	0.0012509
761.985	0.0013857
771.63	0.0015882
781.275	0.0010497
790.919	0.001884
800.564	0.0016609
810.209	0.0011694
819.854	0.002024
829.498	0.0015776
839.143	0.0015396
848.788	0.001914
858.433	0.003934
868.078	0.005044
877.722	0.006234
887.367	0.005934
897.012	0.004794
906.657	0.005974
916.301	0.008274
925.946	0.010514
935.591	0.009974
945.236	0.008274
954.88	0.005734
964.525	0.005144
974.17	0.005114
983.815	0.007014
993.46	0.009044
1003.1	0.012594
1012.75	0.015184
1022.39	0.015994
1032.04	0.015204
1041.68	0.016284
1051.33	0.016814
1060.97	0.019104
1070.62	0.021304
1080.26	0.022214
1089.91	0.019174
1099.55	0.016434
1109.2	0.013374
1118.84	0.012934
1128.49	0.011884
1138.13	0.011884
1147.78	0.010554
1157.42	0.009024
1167.07	0.008994
1176.71	0.007044
1186.36	0.005604
1196	0.003434
1205.64	0.004014
1215.29	0.004804
1224.93	0.007164
1234.58	0.009194
1244.22	0.011624
1253.87	0.011644
1263.51	0.009094
1273.16	0.007244
1282.8	0.006404
1292.45	0.006274
1302.09	0.006474
1311.74	0.006254
1321.38	0.005644
1331.03	0.005524
1340.67	0.006374
1350.32	0.008294
1359.96	0.011914
1369.61	0.017034
1379.25	0.020844
1388.9	0.021124
1398.54	0.015644
1408.18	0.009774
1417.83	0.005984
1427.47	0.005464
1437.12	0.007394
1446.76	0.009494
1456.41	0.012104
1466.05	0.012044
1475.7	0.010454
1485.34	0.007264
1494.99	0.004704
1504.63	0.003114
1514.28	0.002204
1523.92	0.001854
1533.57	0.001588
1543.21	0.0014451
1552.86	0.0012914
1562.5	0.0011359
1572.15	0.0014601
1581.79	0.0011814
1591.44	0.0013624
1601.08	0.0013259
1610.73	0.0011344
1620.37	0.0009976
1630.01	0.0014168
1639.66	0.0012803
1649.3	0.001158
1658.95	0.0014098
1668.59	0.0010855
1678.24	0.0011208
1687.88	0.00081687
1697.53	0.0009447
1707.17	0.0007172
1716.82	0.000621
1726.46	0.000556
1736.11	0.0006842
1745.75	0.000649
1755.4	0.000524
1765.04	0.00053
1774.69	0.00081343
1784.33	0.0007485
1793.98	0.00083893
1803.62	0.0007546
1813.27	0.000665
1822.91	0.000586
1832.55	0.0007083
1842.2	0.0007121
1851.84	0.0007423
1861.49	0.0006907
1871.13	0.0007985
1880.78	0.000528
1890.42	0.0008983
1900.07	0.0008894
1909.71	0.0008896
1919.36	0.0011044
1929	0.00081692
1938.65	0.00081444
1948.29	0.00081315
1957.94	0.00087056
1967.58	0.0009053
1977.23	0.00086277
1986.87	0.000695
1996.52	0.000642
2006.16	0.0006867
2015.81	0.00080894
2025.45	0.0008958
2035.1	0.0007513
2044.74	0.0007447
2054.38	0.00081638
2064.03	0.0007503
2073.67	0.0006885
2083.32	0.0007092
2092.96	0.000639
2102.61	0.000791765
2112.25	0.0007054
2121.9	0.0009942
2131.54	0.0008217
2141.19	0.00081217
2150.83	0.00081367
2160.48	0.000645
2170.12	0.00087423
2179.77	0.000783966
2189.41	0.00078101
2199.06	0.00073
2208.7	0.0007348
2218.35	0.00085898
2227.99	0.000953
2237.64	0.0009888
2247.28	0.00082748
2256.92	0.0010155
2266.57	0.0009087
2276.21	0.0009155
2285.86	0.00086784
2295.5	0.00087686
2305.15	0.0008971
2314.79	0.0010956
2324.44	0.0009504
2334.08	0.0008589
2343.73	0.0010703
2353.37	0.0010189
2363.02	0.0011937
2372.66	0.0010372
2382.31	0.000967
2391.95	0.0010496
2401.6	0.0010424
2411.24	0.0011504
2420.89	0.0012353
2430.53	0.0012512
2440.18	0.0013172
2449.82	0.0014398
2459.47	0.001048
2469.11	0.0012523
2478.75	0.0011548
2488.4	0.0007959
2498.04	0.0011185
2507.69	0.0013898
2517.33	0.0013269
2526.98	0.0011414
2536.62	0.0010967
2546.27	0.001073
2555.91	0.0010206
2565.56	0.0012249
2575.2	0.0015522
2584.85	0.0016134
2594.49	0.001763
2604.14	0.001964
2613.78	0.001864
2623.43	0.002214
2633.07	0.001914
2642.72	0.001844
2652.36	0.001914
2662.01	0.001994
2671.65	0.001964
2681.29	0.002274
2690.94	0.002534
2700.58	0.002074
2710.23	0.002434
2719.87	0.002854
2729.52	0.002554
2739.16	0.002674
2748.81	0.003054
2758.45	0.002664
2768.1	0.003104
2777.74	0.003054
2787.39	0.003504
2797.03	0.003594
2806.68	0.003814
2816.32	0.004744
2825.97	0.005714
2835.61	0.007074
2845.26	0.009734
2854.9	0.015314
2864.55	0.023174
2874.19	0.033294
2883.84	0.039374
2893.48	0.042384
2903.12	0.037814
2912.77	0.034644
2922.41	0.034334
2932.06	0.036604
2941.7	0.042024
2951.35	0.053514
2960.99	0.070434
2970.64	0.081414
2980.28	0.072154
2989.93	0.046964
2999.57	0.024024
3009.22	0.011204
3018.86	0.005294
3028.51	0.004054
3038.15	0.002984
3047.8	0.003234
3057.44	0.002784
3067.09	0.003174
3076.73	0.002564
3086.38	0.002784
3096.02	0.002264
3105.67	0.002264
3115.31	0.002694
3124.95	0.002194
3134.6	0.001874
3144.24	0.0017723
3153.89	0.002174
3163.53	0.002084
3173.18	0.002254
3182.82	0.001914
3192.47	0.001844
3202.11	0.001874
3211.76	0.001844
3221.4	0.0011769
3231.05	0.0011896
3240.69	0.0011698
3250.34	0.00085068
3259.98	0.000903
3269.63	0.0007267
3279.27	0.0010954
3288.92	0.0013076
3298.56	0.00085738
3308.21	0.0010727
3317.85	0.0013271
3327.49	0.0011787
3337.14	0.0012511
3346.78	0.001444
3356.43	0.000471
3366.07	0.001854
3375.72	0.0012415
3385.36	0.0007156
3395.01	0.0009669
3404.65	0.000639
3414.3	0.000651
3423.94	0.0011005
3433.59	0.0009683
3443.23	0.0009095
3452.88	0.0015109
3462.52	0.0009637
3472.17	0.0010333
3481.81	0.000783893
3491.46	0.000671
3501.1	0.00085896
3510.75	0.0007606
3520.39	0.0008014
3530.04	0.000915
3539.68	0.0009226
3549.32	0.000634
3558.97	0.0012323
3568.61	0.0011034
3578.26	0.0009115
3587.9	0.0013848
3597.55	0.0012981
3607.19	0.0011049
3616.84	0.0015444
3626.48	0.002674
3636.13	0.004194
3645.77	0.006314
3655.42	0.007034
3665.06	0.006494
3674.71	0.004534
3684.35	0.002754
3694	0.0017094
3703.64	0.0007183
3713.29	0.0014807
3722.93	0.0011019
3732.58	0.0009289
3742.22	0.0011735
3751.86	0.00080118
3761.51	0.0013292
3771.15	0.00088102
3780.8	0.0011286
3790.44	0.0010651
3800.09	0.0012992
3809.73	0.0009879
3819.38	0.00084455
3829.02	0.0012164
3838.67	0.001081
3848.31	0.0013019
3857.96	0.001595
3867.6	0.0015254
3877.25	0.0015351
3886.89	0.0010805
3896.54	0.0013019
3906.18	0.0013614
3915.83	0.0011753
3925.47	0.0009028
3935.12	0.0010923
3944.76	0.000675
3954.41	0.000446
3964.05	0.0012745
3973.69	0.0010799
3983.34	0.00085148
3992.98	0.00083367
