Infrared Spectrum: 2,2-Dimethylvaleroylchloride
Formula: C 7 H 13 Cl O
CAS: 15721-22-9
State: gas
Origin: EPA-IR VAPOR PHASE LIBRARY
1/CM	ABSORBANCE
501.5	0.0026918
513.074	0.0033218
524.648	0.0022418
536.222	0.0015218
547.796	0.0014618
559.37	0.0021918
570.944	0.0043618
582.518	0.0115818
594.092	0.0252918
605.666	0.0313218
617.24	0.0233518
628.814	0.0173318
640.388	0.0146018
651.962	0.0115918
663.536	0.0072318
675.11	0.0051018
686.684	0.0055618
698.258	0.0055518
709.832	0.0050618
721.406	0.0063318
732.98	0.0093618
744.554	0.0114218
756.128	0.0120118
767.702	0.0151718
779.276	0.0229018
790.85	0.0356818
802.423	0.0525118
813.997	0.0481818
825.571	0.0270918
837.145	0.0204018
848.719	0.0275318
860.293	0.0462418
871.867	0.0646618
883.441	0.0798918
895.015	0.0864118
906.589	0.0855818
918.163	0.0980118
929.737	0.0893918
941.311	0.0531218
952.885	0.0351418
964.459	0.0286518
976.033	0.0185118
987.607	0.0102218
999.181	0.0081918
1010.76	0.0083218
1022.33	0.0065618
1033.9	0.0048118
1045.48	0.0046218
1057.05	0.0057618
1068.63	0.0058318
1080.2	0.0047018
1091.77	0.0043618
1103.35	0.0031718
1114.92	0.0022418
1126.49	0.0018218
1138.07	0.0019218
1149.64	0.0025518
1161.22	0.0036418
1172.79	0.0041518
1184.36	0.0044918
1195.94	0.0050518
1207.51	0.0050418
1219.09	0.0039418
1230.66	0.0030118
1242.23	0.0024518
1253.81	0.0023118
1265.38	0.0024818
1276.96	0.0024418
1288.53	0.0022218
1300.1	0.0021318
1311.68	0.0020918
1323.25	0.0021018
1334.83	0.0025318
1346.4	0.0039818
1357.97	0.0088718
1369.55	0.0174618
1381.12	0.0202618
1392.7	0.0195618
1404.27	0.0126718
1415.84	0.0062818
1427.42	0.0067318
1438.99	0.0118018
1450.57	0.0223018
1462.14	0.0343018
1473.71	0.0371318
1485.29	0.0217218
1496.86	0.0075218
1508.44	0.0039018
1520.01	0.0028818
1531.58	0.0023218
1543.16	0.0019118
1554.73	0.0015718
1566.31	0.0013718
1577.88	0.0012418
1589.45	0.0012718
1601.03	0.0013118
1612.6	0.0013818
1624.18	0.0014318
1635.75	0.0015118
1647.32	0.0017318
1658.9	0.0021518
1670.47	0.0027318
1682.05	0.0033518
1693.62	0.0042218
1705.19	0.0056218
1716.77	0.0081118
1728.34	0.0122518
1739.92	0.0187018
1751.49	0.0299718
1763.06	0.0489018
1774.64	0.0782718
1786.21	0.115652
1797.79	0.144422
1809.36	0.142612
1820.93	0.109172
1832.51	0.0667018
1844.08	0.0363218
1855.66	0.0209318
1867.23	0.0124818
1878.8	0.0072818
1890.38	0.0044418
1901.95	0.0028218
1913.53	0.0018518
1925.1	0.0012818
1936.67	0.000977
1948.25	0.0007197
1959.82	0.000587
1971.4	0.0005236
1982.97	0.0004913
1994.54	0.0004375
2006.12	0.0004443
2017.69	0.0004291
2029.27	0.0004604
2040.84	0.00048
2052.41	0.0005044
2063.99	0.0005574
2075.56	0.0005763
2087.14	0.0005223
2098.71	0.0005057
2110.28	0.0005291
2121.86	0.0005241
2133.43	0.000485
2145.01	0.0004169
2156.58	0.0004226
2168.15	0.0004472
2179.73	0.0004919
2191.3	0.0005409
2202.88	0.0005421
2214.45	0.0005116
2226.02	0.0005147
2237.6	0.0004091
2249.17	0.0003608
2260.74	0.0002576
2272.32	0.0002098
2283.89	0.0001752
2295.47	0.0001274
2307.04	0.0001596
2318.61	0.0001991
2330.19	0.000233
2341.76	0.0001838
2353.34	0.0001421
2364.91	0.0001164
2376.48	0.0001746
2388.06	0.0002256
2399.63	0.0002874
2411.21	0.0002809
2422.78	0.0002836
2434.35	0.00015
2445.93	0.00011041
2457.5	0.0001175
2469.08	4.408e-05
2480.65	2.622e-05
2492.22	0
2503.8	2.796e-05
2515.37	7.731e-05
2526.95	0.0001583
2538.52	0.0001905
2550.09	0.000245
2561.67	0.0003007
2573.24	0.000336
2584.82	0.0004001
2596.39	0.000476
2607.96	0.0005424
2619.54	0.0005661
2631.11	0.000674
2642.69	0.0008066
2654.26	0.0008339
2665.83	0.000771
2677.41	0.0007725
2688.98	0.0007008
2700.56	0.0007796
2712.13	0.0009953
2723.7	0.0013818
2735.28	0.0020018
2746.85	0.0025018
2758.43	0.0022918
2770	0.0021418
2781.57	0.0023118
2793.15	0.0025918
2804.72	0.0032418
2816.3	0.0043718
2827.87	0.0057218
2839.44	0.0076518
2851.02	0.0122418
2862.59	0.0197918
2874.17	0.0334618
2885.74	0.0481418
2897.31	0.0444418
2908.89	0.0432918
2920.46	0.0508118
2932.04	0.0653418
2943.61	0.0886018
2955.18	0.0930718
2966.76	0.113812
2978.33	0.125202
2989.91	0.0931718
3001.48	0.0509218
3013.05	0.0203118
3024.63	0.0100718
3036.2	0.0069918
3047.78	0.0051618
3059.35	0.0039718
3070.92	0.0032618
3082.5	0.0028418
3094.07	0.0024918
3105.65	0.0022518
3117.22	0.0020018
3128.79	0.0018518
3140.37	0.0017818
3151.94	0.0017018
3163.52	0.0016118
3175.09	0.0016718
3186.66	0.0016918
3198.24	0.0015418
3209.81	0.0012818
3221.39	0.0009791
3232.96	0.0007097
3244.53	0.0006375
3256.11	0.0004416
3267.68	0.0003175
3279.26	0.0002735
3290.83	0.0002847
3302.4	0.0001692
3313.98	0.0002091
3325.55	0.0001914
3337.13	0.0001698
3348.7	0.0001203
3360.27	9.712e-05
3371.85	8.178e-05
3383.42	6.642e-05
3395	3.768e-05
3406.57	8.33e-05
3418.14	9.772e-05
3429.72	0.00010827
3441.29	0.0001181
3452.86	8.007e-05
3464.44	0.00011113
3476.01	0.000185
3487.59	0.0002803
3499.16	0.0003308
3510.73	0.0004983
3522.31	0.0007838
3533.88	0.0011218
3545.46	0.0015718
3557.03	0.0021218
3568.6	0.0027218
3580.18	0.0028218
3591.75	0.0023118
3603.33	0.0016018
3614.9	0.0011618
3626.47	0.000961
3638.05	0.0007185
3649.62	0.0005553
3661.2	0.000465
3672.77	0.000363
3684.34	0.000333
3695.92	0.0002711
3707.49	0.0002375
3719.07	0.000182
3730.64	9.04e-05
3742.21	9.647e-05
3753.79	0.0001391
3765.36	0.0001354
3776.94	0.0002145
3788.51	0.0001968
3800.08	0.0001796
3811.66	0.0003166
3823.23	0.0002549
3834.81	0.0001969
3846.38	0.0002481
3857.95	0.0002447
3869.53	0.0002428
3881.1	0.0001935
3892.68	0.000308
3904.25	0.0002357
3915.82	0.0002159
3927.4	0.0002786
3938.97	0.0003307
3950.55	0.0004219
3962.12	0.0004213
3973.69	0.0003639
3985.27	0.0004346
3996.84	0.0004606
