Infrared Spectrum: Cyclotetrasiloxane, heptamethyl-
Formula: C7 H22 O4 Si4
CAS: 15721-05-8
State: SOLUTION (10% CCl4 FOR 3800-1300, 2% CS2 FOR 1300-620, AND 10% CCl4 FOR 620-250)
Class: COBLENTZ II
Instrument: PERKIN-ELMER 521 (GRATING)
Instrument parameters: FILTERS AT 3150, 2500, 2000, 1150, 700, 410. GRATING CHANGES: 2000, 630
Path length: 0.012 CM, 0.011 CM, AND 0.010 CM
Resolution: 2
Origin: DOW CORNING CORP.
1/CM	TRANSMITTANCE
241	0.709
250	0.7115
259	0.7136
268	0.713
277	0.7114
286	0.7163
295	0.7143
304	0.6939
313	0.6363
322	0.5869
331	0.5212
340	0.4202
349	0.2692
358	0.0996
367	0.1481
376	0.1438
385	0.3212
394	0.6209
403	0.7254
412	0.7597
421	0.7732
430	0.7781
439	0.7697
448	0.7587
457	0.7625
466	0.7703
475	0.7511
484	0.7256
493	0.737
502	0.7641
511	0.7763
520	0.777
529	0.7644
538	0.7289
547	0.6315
556	0.566
565	0.5721
574	0.6559
583	0.7419
592	0.7701
601	0.7736
610	0.7708
619	0.772
628	0.827
637	0.825
646	0.8452
655	0.8461
664	0.8095
673	0.85
682	0.8293
691	0.7414
700	0.6929
709	0.815
718	0.8312
727	0.8473
736	0.846
745	0.8182
754	0.7241
763	0.6312
772	0.7801
781	0.7378
790	0.5739
799	0.426
808	0.0356
817	0.1538
826	0.1466
835	0.3266
844	0.4697
853	0.6661
862	0.7064
871	0.7219
880	0.762
889	0.7709
898	0.7179
907	0.4695
916	0.4093
925	0.7804
934	0.85
943	0.8742
952	0.8797
961	0.8772
970	0.8655
979	0.8509
988	0.8267
997	0.7846
1006	0.7361
1015	0.6799
1024	0.629
1033	0.5457
1042	0.3994
1051	0.235
1060	0.069
1069	0
1078	0.0001
1087	0.0063
1096	0.0873
1105	0.3048
1114	0.4713
1123	0.5891
1132	0.6678
1141	0.7202
1150	0.7576
1159	0.8079
1168	0.8418
1177	0.8699
1186	0.8917
1195	0.8994
1204	0.9009
1213	0.8996
1222	0.8856
1231	0.8602
1240	0.8077
1249	0.6904
1258	0.0414
1267	0.6467
1276	0.8382
1285	0.8817
1294	0.8964
1303	0.8201
1312	0.7866
1321	0.7989
1330	0.8016
1339	0.7969
1348	0.7811
1357	0.7781
1366	0.7808
1375	0.773
1384	0.7456
1393	0.6808
1402	0.5561
1411	0.5172
1420	0.6426
1429	0.7263
1438	0.7171
1447	0.7256
1456	0.7705
1465	0.7952
1474	0.7976
1483	0.8085
1492	0.8267
1501	0.8271
1510	0.8248
1519	0.8165
1528	0.8025
1537	0.7811
1546	0.7461
1555	0.7147
1564	0.6907
1573	0.6965
1582	0.7511
1591	0.7945
1600	0.8122
1609	0.8115
1618	0.7998
1627	0.8073
1636	0.8125
1645	0.8265
1654	0.8485
1663	0.8574
1672	0.8599
1681	0.8599
1690	0.8532
1699	0.8335
1708	0.8246
1717	0.8297
1726	0.8436
1735	0.86
1744	0.8627
1753	0.8681
1762	0.8696
1771	0.8725
1780	0.8721
1789	0.8724
1798	0.8726
1807	0.8702
1816	0.863
1825	0.8625
1834	0.8782
1843	0.8895
1852	0.8912
1861	0.8905
1870	0.889
1879	0.8908
1888	0.891
1897	0.89
1906	0.8882
1915	0.8811
1924	0.8627
1933	0.8738
1942	0.8685
1951	0.8542
1960	0.8593
1969	0.8703
1978	0.8783
1987	0.8835
1996	0.8852
2005	0.8919
2014	0.8911
2023	0.8973
2032	0.8997
2041	0.8918
2050	0.8821
2059	0.877
2068	0.8758
2077	0.8663
2086	0.8591
2095	0.8547
2104	0.8364
2113	0.7784
2122	0.6809
2131	0.5476
2140	0.4065
2149	0.2578
2158	0.2247
2167	0.2326
2176	0.2733
2185	0.3674
2194	0.5118
2203	0.6473
2212	0.7322
2221	0.7838
2230	0.825
2239	0.8483
2248	0.8648
2257	0.8758
2266	0.8834
2275	0.8882
2284	0.8907
2293	0.8927
2302	0.8946
2311	0.8957
2320	0.8953
2329	0.8941
2338	0.896
2347	0.8957
2356	0.8953
2365	0.8958
2374	0.9021
2383	0.9018
2392	0.901
2401	0.8999
2410	0.8987
2419	0.8972
2428	0.8951
2437	0.8927
2446	0.8901
2455	0.8867
2464	0.8821
2473	0.8851
2482	0.8868
2491	0.8858
2500	0.8843
2509	0.8847
2518	0.8879
2527	0.8932
2536	0.8943
2545	0.8944
2554	0.8939
2563	0.8933
2572	0.8927
2581	0.892
2590	0.8913
2599	0.8903
2608	0.8884
2617	0.8865
2626	0.8846
2635	0.8825
2644	0.8794
2653	0.8763
2662	0.8748
2671	0.8739
2680	0.8757
2689	0.8776
2698	0.8771
2707	0.8748
2716	0.8719
2725	0.868
2734	0.8641
2743	0.8591
2752	0.8522
2761	0.8415
2770	0.8294
2779	0.8256
2788	0.8172
2797	0.8127
2806	0.8163
2815	0.8234
2824	0.8328
2833	0.8298
2842	0.8261
2851	0.8222
2860	0.8171
2869	0.8107
2878	0.7999
2887	0.7813
2896	0.7467
2905	0.6423
2914	0.6491
2923	0.7228
2932	0.7211
2941	0.7041
2950	0.6455
2959	0.4718
2968	0.076
2977	0.1491
2986	0.4083
2995	0.6022
3004	0.741
3013	0.7779
3022	0.8001
3031	0.8153
3040	0.8265
3049	0.8321
3058	0.8373
3067	0.8421
3076	0.8471
3085	0.8518
3094	0.8545
3103	0.8555
3112	0.8578
3121	0.8621
3130	0.8662
3139	0.8708
3148	0.8772
3157	0.8818
3166	0.886
3175	0.8902
3184	0.8936
3193	0.897
3202	0.9001
3211	0.9024
3220	0.9048
3229	0.9057
3238	0.9064
3247	0.9068
3256	0.9072
3265	0.9065
3274	0.9059
3283	0.9053
3292	0.9047
3301	0.9041
3310	0.9037
3319	0.9031
3328	0.9028
3337	0.9025
3346	0.9023
3355	0.902
3364	0.9021
3373	0.9021
3382	0.9022
3391	0.9022
3400	0.9022
3409	0.9022
3418	0.9021
3427	0.9021
3436	0.9021
3445	0.9022
3454	0.9024
3463	0.9025
3472	0.9026
3481	0.9028
3490	0.9026
3499	0.9021
3508	0.9016
3517	0.901
3526	0.9006
3535	0.9
3544	0.8999
3553	0.8999
3562	0.8999
3571	0.8996
3580	0.8974
3589	0.8951
3598	0.8922
3607	0.8949
3616	0.894
3625	0.8919
3634	0.8881
3643	0.8846
3652	0.8821
3661	0.8832
3670	0.8854
3679	0.8871
3688	0.8849
3697	0.8783
3706	0.8711
3715	0.8712
3724	0.872
3733	0.8725
3742	0.8794
3751	0.8821
3760	0.8823
3769	0.8825
3778	0.8835
3787	0.8847
3796	0.887
3805	0.8907
