Infrared Spectrum: 9-Benzylfluorene
Formula: C 20 H 16
CAS: 1572-46-9
State: gas
Instrument: HP-GC/MS/IRD
Origin: NIST Mass Spectrometry Data Center
1/CM	ABSORBANCE
550	0.000525
562	0.0016268
574	0.0006216
586	0.0007966
598	0.000476
610	0.000154
622	0.0010024
634	0.0001624
646	0.0002296
658	0.0005096
670	0.0009702
682	0.0012796
694	0.0048818
706	0.0032382
718	0.0034006
730	0.0112336
742	0.0102004
754	0.007308
766	0.002058
778	0.0007882
790	0.0004088
802	0.0001176
814	5.04e-05
826	7.28e-05
838	4.62e-05
850	8.82e-05
862	0.0001806
874	0.0001554
886	9.66e-05
898	0.0001484
910	0.0002422
922	7.7e-05
934	0.0004088
946	0.0002702
958	0.0002324
970	0.0001106
982	0.0001736
994	0.0002534
1006	0.0006748
1018	0.0007322
1030	0.0011452
1042	0.000203
1054	9.66e-05
1066	0.0002968
1078	0.0003472
1090	0.0001792
1102	0.0003108
1114	6.16e-05
1126	0
1138	2.24e-05
1150	0.0003808
1162	0.0004816
1174	0.000364
1186	0.000315
1198	0.0003248
1210	0.0001974
1222	0.0001862
1234	0.0002254
1246	0.0001092
1258	0.0001414
1270	0.0002968
1282	0.0004172
1294	0.000616
1306	0.0005404
1318	0.0005894
1330	0.0004816
1342	0.0003192
1354	0.0001288
1366	8.54e-05
1378	0.0001022
1390	0.0001288
1402	0.0001806
1414	0.000378
1426	0.000693
1438	0.00245
1450	0.0057414
1462	0.0018466
1474	0.0014196
1486	0.001295
1498	0.001897
1510	0.0003192
1522	0.000126
1534	0.0001386
1546	5.32e-05
1558	7.98e-05
1570	0.000357
1582	0.0009072
1594	0.0012292
1606	0.0013524
1618	0.0004284
1630	0.0001834
1642	0.000154
1654	0.0001176
1666	0.0002604
1678	0.0001386
1690	0.0001414
1702	0.0001526
1714	0.000168
1726	0.0001708
1738	0.0001274
1750	0.0001316
1762	0.0001204
1774	0.0002254
1786	0.0004564
1798	0.0004522
1810	0.0003136
1822	0.0003052
1834	0.0002758
1846	0.0002128
1858	0.0003108
1870	0.0004214
1882	0.0002842
1894	0.000441
1906	0.000518
1918	0.0002268
1930	0.0005992
1942	0.000742
1954	0.000308
1966	9.8e-05
1978	8.54e-05
1990	6.3e-05
2002	5.88e-05
2014	3.64e-05
2026	5.32e-05
2038	4.34e-05
2050	4.48e-05
2062	3.64e-05
2074	4.2e-05
2086	3.36e-05
2098	4.76e-05
2110	5.18e-05
2122	4.48e-05
2134	3.78e-05
2146	5.6e-05
2158	6.02e-05
2170	4.76e-05
2182	4.2e-05
2194	6.16e-05
2206	7.84e-05
2218	6.16e-05
2230	6.72e-05
2242	6.72e-05
2254	8.4e-05
2266	7.7e-05
2278	7.84e-05
2290	6.16e-05
2302	0.0001218
2314	0.0001386
2326	9.52e-05
2338	6.16e-05
2350	4.48e-05
2362	2.38e-05
2374	4.06e-05
2386	6.16e-05
2398	5.88e-05
2410	8.54e-05
2422	7.84e-05
2434	8.96e-05
2446	8.4e-05
2458	0.0001092
2470	7.7e-05
2482	0.0001022
2494	9.38e-05
2506	9.24e-05
2518	7.42e-05
2530	8.82e-05
2542	8.96e-05
2554	9.38e-05
2566	8.26e-05
2578	0.0001022
2590	8.4e-05
2602	0.0001302
2614	0.0001316
2626	0.0001232
2638	0.0001176
2650	0.0001036
2662	9.66e-05
2674	7.28e-05
2686	6.02e-05
2698	6.72e-05
2710	6.58e-05
2722	4.06e-05
2734	6.44e-05
2746	6.58e-05
2758	9.24e-05
2770	0.0001078
2782	0.0001582
2794	0.0001428
2806	0.000147
2818	0.0001288
2830	0.0002212
2842	0.0003584
2854	0.0008694
2866	0.0008078
2878	0.0009198
2890	0.0013916
2902	0.0011326
2914	0.0017962
2926	0.0027048
2938	0.0024528
2950	0.0010724
2962	0.0004536
2974	0.0003654
2986	0.0004466
2998	0.0007896
3010	0.0020286
3022	0.0043988
3034	0.005922
3046	0.0046998
3058	0.0057638
3070	0.0106904
3082	0.005481
3094	0.0029162
3106	0.0012278
3118	0.000546
3130	0.0003066
3142	0.0002716
3154	0.0003276
3166	0.0002898
3178	0.0001624
3190	0.0001372
3202	0.0001106
3214	0.0001078
3226	0.0001176
3238	0.0001106
3250	8.12e-05
3262	5.32e-05
3274	7.42e-05
3286	8.12e-05
3298	8.54e-05
3310	0.0001106
3322	8.82e-05
3334	8.68e-05
3346	9.52e-05
3358	9.1e-05
3370	6.58e-05
3382	7.42e-05
3394	6.72e-05
3406	7.56e-05
3418	5.6e-05
3430	6.44e-05
3442	8.4e-05
3454	8.4e-05
3466	8.96e-05
3478	7.14e-05
3490	6.72e-05
3502	6.16e-05
3514	9.38e-05
3526	5.46e-05
3538	8.12e-05
3550	5.88e-05
3562	6.02e-05
3574	9.24e-05
3586	7.42e-05
3598	7.28e-05
3610	6.86e-05
3622	8.26e-05
3634	7e-05
3646	9.52e-05
3658	0.000147
3670	6.86e-05
3682	0.0001022
3694	0.0001302
3706	0.0001246
3718	0.0001148
3730	7.56e-05
3742	7.14e-05
3754	7.42e-05
3766	9.52e-05
3778	0.0001288
3790	0.0001498
3802	0.0001358
3814	0.0001064
3826	0.0001288
3838	8.82e-05
