Infrared Spectrum: 1-Chloro-5-phenylpentane
Formula: C 11 H 15 Cl
CAS: 15733-63-8
State: gas
Origin: EPA-IR VAPOR PHASE LIBRARY
1/CM	ABSORBANCE
549.8	0.002129
559.445	0.004809
569.09	0.006909
578.734	0.005229
588.379	0.004769
598.024	0.003339
607.669	0.002629
617.313	0.002989
626.958	0.004199
636.603	0.006959
646.248	0.012649
655.893	0.022689
665.537	0.027519
675.182	0.026909
684.827	0.041889
694.472	0.080609
704.116	0.072709
713.761	0.052499
723.406	0.059589
733.051	0.084739
742.695	0.095029
752.34	0.053999
761.985	0.026679
771.63	0.016159
781.275	0.011869
790.919	0.009679
800.564	0.008499
810.209	0.006929
819.854	0.006239
829.498	0.005859
839.143	0.005639
848.788	0.005499
858.433	0.004399
868.078	0.004649
877.722	0.004589
887.367	0.006049
897.012	0.007259
906.657	0.008639
916.301	0.007929
925.946	0.005829
935.591	0.004519
945.236	0.004409
954.88	0.004529
964.525	0.004009
974.17	0.004079
983.815	0.004899
993.46	0.005249
1003.1	0.006839
1012.75	0.007759
1022.39	0.012369
1032.04	0.018629
1041.68	0.009189
1051.33	0.007129
1060.97	0.005769
1070.62	0.007779
1080.26	0.009219
1089.91	0.005889
1099.55	0.004559
1109.2	0.001619
1118.84	0.002859
1128.49	0.002159
1138.13	0.001929
1147.78	0.002929
1157.42	0.001669
1167.07	0.002819
1176.71	0.003029
1186.36	0.002989
1196	0.002899
1205.64	0.004159
1215.29	0.002779
1224.93	0.004169
1234.58	0.006879
1244.22	0.009019
1253.87	0.012669
1263.51	0.014749
1273.16	0.017469
1282.8	0.023109
1292.45	0.028449
1302.09	0.027759
1311.74	0.025379
1321.38	0.021039
1331.03	0.015959
1340.67	0.015269
1350.32	0.015829
1359.96	0.012599
1369.61	0.009299
1379.25	0.006539
1388.9	0.004499
1398.54	0.004099
1408.18	0.004699
1417.83	0.006479
1427.47	0.011029
1437.12	0.021049
1446.76	0.039799
1456.41	0.044699
1466.05	0.028929
1475.7	0.017199
1485.34	0.019179
1494.99	0.038979
1504.63	0.021159
1514.28	0.006449
1523.92	0.004109
1533.57	0.003889
1543.21	0.003259
1552.86	0.003109
1562.5	0.003559
1572.15	0.004969
1581.79	0.008199
1591.44	0.013679
1601.08	0.020839
1610.73	0.014119
1620.37	0.004659
1630.01	0.002939
1639.66	0.002379
1649.3	0.002319
1658.95	0.002019
1668.59	0.001479
1678.24	0.001319
1687.88	0.001419
1697.53	0.001589
1707.17	0.001489
1716.82	0.001759
1726.46	0.002139
1736.11	0.002439
1745.75	0.002099
1755.4	0.001849
1765.04	0.001779
1774.69	0.002679
1784.33	0.003969
1793.98	0.006129
1803.62	0.003879
1813.27	0.002529
1822.91	0.001959
1832.55	0.001959
1842.2	0.002119
1851.84	0.002819
1861.49	0.003629
1871.13	0.004059
1880.78	0.003349
1890.42	0.002239
1900.07	0.001749
1909.71	0.001829
1919.36	0.002669
1929	0.004199
1938.65	0.005379
1948.29	0.005599
1957.94	0.003699
1967.58	0.001459
1977.23	0.0012192
1986.87	0.0011714
1996.52	0.0010096
2006.16	0.0010838
2015.81	0.0009861
2025.45	0.0011477
2035.1	0.0012748
2044.74	0.0011459
2054.38	0.0009239
2064.03	0.0009953
2073.67	0.0008784
2083.32	0.0010695
2092.96	0.0009947
2102.61	0.0009078
2112.25	0.0008274
2121.9	0.0008435
2131.54	0.0010516
2141.19	0.0009282
2150.83	0.0008906
2160.48	0.0009624
2170.12	0.0011339
2179.77	0.0010929
2189.41	0.0010311
2199.06	0.0009287
2208.7	0.0010988
2218.35	0.0010163
2227.99	0.0009046
2237.64	0.0008962
2247.28	0.0009646
2256.92	0.0010871
2266.57	0.0010286
2276.21	0.0010676
2285.86	0.0011891
2295.5	0.0012244
2305.15	0.001369
2314.79	0.001719
2324.44	0.001439
2334.08	0.001549
2343.73	0.001529
2353.37	0.001369
2363.02	0.001509
2372.66	0.0011641
2382.31	0.0011875
2391.95	0.0010887
2401.6	0.0010962
2411.24	0.0009299
2420.89	0.001034
2430.53	0.0009652
2440.18	0.0009022
2449.82	0.0009774
2459.47	0.0007972
2469.11	0.0008713
2478.75	0.001143
2488.4	0.0011261
2498.04	0.0012579
2507.69	0.0011593
2517.33	0.0012802
2526.98	0.0012446
2536.62	0.0010523
2546.27	0.0012841
2555.91	0.0010408
2565.56	0.0010991
2575.2	0.0011731
2584.85	0.001419
2594.49	0.001709
2604.14	0.001799
2613.78	0.001749
2623.43	0.001869
2633.07	0.001899
2642.72	0.002129
2652.36	0.002149
2662.01	0.002329
2671.65	0.002479
2681.29	0.002499
2690.94	0.002739
2700.58	0.002669
2710.23	0.002439
2719.87	0.002399
2729.52	0.002399
2739.16	0.002429
2748.81	0.002639
2758.45	0.002919
2768.1	0.002929
2777.74	0.003779
2787.39	0.004349
2797.03	0.004949
2806.68	0.005969
2816.32	0.007369
2825.97	0.009979
2835.61	0.014639
2845.26	0.025849
2854.9	0.047999
2864.55	0.072209
2874.19	0.068329
2883.84	0.050569
2893.48	0.044989
2903.12	0.055479
2912.77	0.076949
2922.41	0.115709
2932.06	0.166659
2941.7	0.197189
2951.35	0.150729
2960.99	0.099079
2970.64	0.064409
2980.28	0.039169
2989.93	0.036769
2999.57	0.044359
3009.22	0.035429
3018.86	0.041979
3028.51	0.069469
3038.15	0.064999
3047.8	0.036479
3057.44	0.037409
3067.09	0.062489
3076.73	0.055799
3086.38	0.036919
3096.02	0.026079
3105.67	0.017209
3115.31	0.010269
3124.95	0.005209
3134.6	0.002679
3144.24	0.002129
3153.89	0.001789
3163.53	0.001959
3173.18	0.001459
3182.82	0.0010385
3192.47	0.0009423
3202.11	0.0009553
3211.76	0.0006677
3221.4	0.0005966
3231.05	0.0006153
3240.69	0.0007982
3250.34	0.0006283
3259.98	0.0007221
3269.63	0.0007732
3279.27	0.00040666
3288.92	0.0006821
3298.56	0.0005328
3308.21	0.0005111
3317.85	0.0002255
3327.49	0.0006791
3337.14	0.000320286
3346.78	0.00035734
3356.43	0.000145
3366.07	0.0004381
3375.72	0.0005523
3385.36	0.0004569
3395.01	0.00040105
3404.65	0.000536
3414.3	0.00035361
3423.94	0.000216
3433.59	0.00034398
3443.23	0.0006518
3452.88	0.0002284
3462.52	0.0002487
3472.17	5.7e-05
3481.81	0.000108
3491.46	0.00038919
3501.1	0.0004307
3510.75	0.0005505
3520.39	0.0002423
3530.04	0.0002275
3539.68	0.0002244
3549.32	0.0002229
3558.97	0.0002642
3568.61	0.0005172
3578.26	0.000615
3587.9	0.00037386
3597.55	0.0006466
3607.19	0.0006138
3616.84	0.0007264
3626.48	0.0009607
3636.13	0.000882
3645.77	0.0007951
3655.42	0.0009277
3665.06	0.0006261
3674.71	0.0009025
3684.35	0.0009311
3694	0.0005193
3703.64	0.0006055
3713.29	0.0006531
3722.93	0.0009752
3732.58	0.0007542
3742.22	0.0009349
3751.86	0.0008045
3761.51	0.0005963
3771.15	0.000644
3780.8	0.0005475
3790.44	0.0006251
3800.09	0.0009651
3809.73	0.0007942
3819.38	0.0008739
3829.02	0.0011274
3838.67	0.0006847
3848.31	0.0006595
3857.96	0.0009083
3867.6	0.0005489
3877.25	0.0004744
3886.89	0.0008031
3896.54	0.0006606
3906.18	0.0007089
3915.83	0.0008725
3925.47	0.0007979
3935.12	0.0010335
3944.76	0.0009219
3954.41	0.0008672
3964.05	0.0010207
3973.69	0.00069
3983.34	0.0011936
3992.98	0.0011089
