Infrared Spectrum: cis-1,3-Pentadiene
Formula: C 5 H 8
CAS: 1574-41-0
State: gas
Instrument: HP-GC/MS/IRD
Origin: NIST Mass Spectrometry Data Center
1/CM	ABSORBANCE
550	0.0011985
562	0.000621
574	0.001878
586	0.0036225
598	0.0058335
610	0.007956
622	0.007935
634	0.0051255
646	0.0030495
658	0.0015075
670	0.000759
682	0.0005955
694	0.000795
706	0.000909
718	0.001134
730	0.0016155
742	0.0020925
754	0.0023145
766	0.002952
778	0.0020295
790	0.0015795
802	0.0009285
814	0.000354
826	0.000207
838	0.000528
850	0.001026
862	0.002253
874	0.0046125
886	0.0072855
898	0.0102195
910	0.0128925
922	0.009816
934	0.0078765
946	0.006444
958	0.0056925
970	0.005568
982	0.0053235
994	0.006255
1006	0.0046605
1018	0.003717
1030	0.002481
1042	0.001506
1054	0.000828
1066	0.000549
1078	0.000453
1090	0.000402
1102	0.0003735
1114	0.000444
1126	0.0003765
1138	0.0002205
1150	0.0001515
1162	0.000156
1174	8.4e-05
1186	6.15e-05
1198	3.75e-05
1210	8.7e-05
1222	0.000228
1234	0.000567
1246	0.0008235
1258	0.00084
1270	0.000624
1282	0.0005715
1294	0.0006105
1306	0.0007155
1318	0.0006825
1330	0.000699
1342	0.0011415
1354	0.0016515
1366	0.002217
1378	0.002553
1390	0.002517
1402	0.002673
1414	0.003621
1426	0.005433
1438	0.0051945
1450	0.0044565
1462	0.002241
1474	0.0016455
1486	0.0013425
1498	0.001263
1510	0.001269
1522	0.00132
1534	0.0013605
1546	0.0014145
1558	0.001623
1570	0.00204
1582	0.0030375
1594	0.0032655
1606	0.0033675
1618	0.0023205
1630	0.0022755
1642	0.0024105
1654	0.002181
1666	0.0014175
1678	0.000828
1690	0.000714
1702	0.0007245
1714	0.000849
1726	0.0008565
1738	0.000918
1750	0.001077
1762	0.001167
1774	0.001197
1786	0.001155
1798	0.0019305
1810	0.0026235
1822	0.002718
1834	0.0017355
1846	0.0008415
1858	0.000576
1870	0.000444
1882	0.0003615
1894	0.000327
1906	0.0003495
1918	0.000387
1930	0.000441
1942	0.0004695
1954	0.00045
1966	0.000519
1978	0.000555
1990	0.000519
2002	0.0004515
2014	0.0003645
2026	0.0002895
2038	0.0002925
2050	0.000264
2062	0.0002235
2074	0.000255
2086	0.000249
2098	0.000204
2110	0.000231
2122	0.0002535
2134	0.000237
2146	0.0002445
2158	0.0002025
2170	0.0001965
2182	0.000216
2194	0.0002415
2206	0.0001935
2218	0.000222
2230	0.0002325
2242	0.000204
2254	0.0002205
2266	0.000258
2278	0.0002265
2290	0.0002715
2302	0.0003
2314	0.0002775
2326	0.000294
2338	0.0003375
2350	0.0002865
2362	0.0002685
2374	0.000279
2386	0.000237
2398	0.0002445
2410	0.0002235
2422	0.0002175
2434	0.000186
2446	0.000198
2458	0.000258
2470	0.0002805
2482	0.0002235
2494	0.0002565
2506	0.000258
2518	0.000267
2530	0.0002595
2542	0.0002445
2554	0.0001965
2566	0.000183
2578	0.0001875
2590	0.000237
2602	0.000267
2614	0.000225
2626	0.0001905
2638	0.0001515
2650	0.000183
2662	0.0001545
2674	0.0001905
2686	0.000183
2698	0.000237
2710	0.000291
2722	0.000357
2734	0.0003975
2746	0.000495
2758	0.000501
2770	0.0005625
2782	0.000603
2794	0.000612
2806	0.0007755
2818	0.000909
2830	0.0012585
2842	0.001878
2854	0.003096
2866	0.004452
2878	0.0052125
2890	0.0055215
2902	0.006063
2914	0.008094
2926	0.009423
2938	0.009576
2950	0.0080355
2962	0.006573
2974	0.0068925
2986	0.008199
2998	0.010032
3010	0.0131475
3022	0.014583
3034	0.014592
3046	0.0136875
3058	0.010365
3070	0.008532
3082	0.0077145
3094	0.0061635
3106	0.005892
3118	0.0033855
3130	0.00189
3142	0.001059
3154	0.000678
3166	0.0005655
3178	0.000489
3190	0.000453
3202	0.0004695
3214	0.0003975
3226	0.0004785
3238	0.000387
3250	0.0004065
3262	0.000321
3274	0.000282
3286	0.0003375
3298	0.0002745
3310	0.0003375
3322	0.0003135
3334	0.0002655
3346	0.0002475
3358	0.0002505
3370	0.0002655
3382	0.0002805
3394	0.000264
3406	0.000351
3418	0.000318
3430	0.000285
3442	0.000315
3454	0.0003015
3466	0.000336
3478	0.0002355
3490	0.000309
3502	0.0002745
3514	0.0002175
3526	0.000273
3538	0.0002625
3550	0.0003255
3562	0.0002955
3574	0.0002745
3586	0.0003015
3598	0.0003765
3610	0.0003705
3622	0.000399
3634	0.0004125
3646	0.0003315
3658	0.0003825
3670	0.000312
3682	0.0003225
3694	0.0003255
3706	0.0002745
3718	0.0002415
3730	0.000318
3742	0.0002835
3754	0.000279
3766	0.0003285
3778	0.0003
3790	0.0003345
3802	0.0003
3814	0.000369
3826	0.0003225
3838	0.000378
