Infrared Spectrum: BENZALDEHYDE, SEMICARBAZONE
Formula: C8 H9 N3 O
CAS: 1574-10-3
State: SOLID (KBr DISC)
Class: COBLENTZ III
Instrument: PERKIN-ELMER 21 (GRATING)
Instrument parameters: FILTER CHANGE AT ABOUT 1090 CM^-^1
Sampling: TRANSMISSION
Resolution: 2
Origin: SOUTHERN RESEARCH INSTITUTE
1/CM	TRANSMITTANCE
608.469	0.909
617.494	0.9208
626.519	0.9521
635.544	0.9945
644.569	1.003
653.594	0.9855
662.619	0.9314
671.644	0.8858
680.669	0.9368
689.694	0.7596
698.719	0.4704
707.744	0.8717
716.769	0.8919
725.794	0.8575
734.819	0.7853
743.844	0.7464
752.869	0.6832
761.894	0.3237
770.919	0.6185
779.944	0.7353
788.969	0.824
797.994	0.8815
807.018	0.9119
816.043	0.9323
825.068	0.942
834.093	0.9428
843.118	0.9329
852.143	0.916
861.168	0.901
870.193	0.935
879.218	0.945
888.243	0.942
897.268	0.934
906.293	0.9263
915.318	0.916
924.343	0.921
933.368	0.8996
942.393	0.8458
951.418	0.6545
960.443	0.8771
969.468	0.8599
978.493	0.87
987.518	0.8402
996.543	0.812
1005.57	0.8562
1014.59	0.8833
1023.62	0.8688
1032.64	0.855
1041.67	0.853
1050.69	0.8374
1059.72	0.7997
1068.74	0.7477
1077.77	0.699
1086.79	0.6831
1095.82	0.5989
1104.84	0.6537
1113.87	0.7214
1122.89	0.7263
1131.92	0.6618
1140.94	0.5627
1149.97	0.4804
1158.99	0.8199
1168.02	0.856
1177.04	0.856
1186.07	0.8609
1195.09	0.861
1204.12	0.8537
1213.14	0.8368
1222.17	0.822
1231.19	0.7684
1240.22	0.6959
1249.24	0.8417
1258.27	0.8557
1267.29	0.8567
1276.32	0.8424
1285.34	0.834
1294.37	0.794
1303.39	0.7838
1312.42	0.7323
1321.44	0.718
1330.47	0.751
1339.49	0.7529
1348.52	0.6865
1357.54	0.5475
1366.57	0.5885
1375.59	0.725
1384.62	0.6862
1393.64	0.6419
1402.67	0.5657
1411.69	0.5258
1420.72	0.4632
1429.74	0.4074
1438.77	0.4107
1447.79	0.4717
1456.82	0.5242
1465.84	0.6123
1474.87	0.6985
1483.89	0.7266
1492.92	0.6893
1501.94	0.6892
1510.97	0.64
1519.99	0.6393
1529.02	0.7107
1538.04	0.7611
1547.07	0.737
1556.09	0.7128
1565.12	0.6463
1574.14	0.5316
1583.17	0.3972
1592.19	0.2899
1601.22	0.115
1610.24	0.1696
1619.27	0.3217
1628.29	0.5075
1637.32	0.3796
1646.34	0.2087
1655.37	0.2089
1664.39	0.336
1673.42	0.3823
1682.44	0.3189
1691.47	0.258
1700.49	0.3578
1709.52	0.5874
1718.54	0.7358
1727.57	0.818
1736.59	0.8798
1745.62	0.9223
1754.64	0.9487
1763.67	0.9652
1772.69	0.9776
1781.72	0.984
1790.74	0.988
1799.77	0.988
1808.79	0.988
1817.82	0.987
1826.84	0.988
1835.87	0.989
1844.89	0.989
1853.92	0.989
1862.94	0.985
1871.97	0.978
1880.99	0.978
1890.02	0.978
1899.04	0.979
1908.07	0.98
1917.09	0.98
1926.12	0.9787
1935.14	0.975
1944.17	0.971
1953.19	0.9699
1962.22	0.969
1971.24	0.97
1980.27	0.971
1989.29	0.973
1998.32	0.973
2007.34	0.973
2016.37	0.971
2025.39	0.9683
2034.42	0.964
2043.44	0.9626
2052.47	0.962
2061.49	0.959
2070.52	0.9553
2079.54	0.9523
2088.57	0.951
2097.59	0.948
2106.62	0.947
2115.64	0.9457
2124.66	0.945
2133.69	0.9436
2142.71	0.943
2151.74	0.943
2160.76	0.942
2169.79	0.942
2178.81	0.942
2187.84	0.9383
2196.86	0.936
2205.89	0.934
2214.91	0.929
2223.94	0.928
2232.96	0.9256
2241.99	0.924
2251.01	0.9216
2260.04	0.92
2269.06	0.918
2278.09	0.918
2287.11	0.918
2296.14	0.918
2305.16	0.916
2314.19	0.915
2323.21	0.9133
2332.24	0.911
2341.26	0.9093
2350.29	0.907
2359.31	0.9053
2368.34	0.904
2377.36	0.902
2386.39	0.9
2395.41	0.898
2404.44	0.8973
2413.46	0.895
2422.49	0.892
2431.51	0.8886
2440.54	0.887
2449.56	0.884
2458.59	0.882
2467.61	0.881
2476.64	0.8756
2485.66	0.8723
2494.69	0.869
2503.71	0.8679
2512.74	0.869
2521.76	0.867
2530.79	0.8656
2539.81	0.865
2548.84	0.864
2557.86	0.864
2566.89	0.8633
2575.91	0.86
2584.94	0.8566
2593.96	0.855
2602.99	0.8526
2612.01	0.851
2621.04	0.85
2630.06	0.846
2639.09	0.843
2648.11	0.8386
2657.14	0.84
2666.16	0.838
2675.19	0.8373
2684.21	0.8336
2693.24	0.835
2702.26	0.8316
2711.29	0.823
2720.31	0.8083
2729.34	0.808
2738.36	0.804
2747.39	0.8
2756.41	0.797
2765.44	0.79
2774.46	0.7803
2783.49	0.772
2792.51	0.7643
2801.54	0.7516
2810.56	0.7426
2819.59	0.737
2828.61	0.731
2837.64	0.7173
2846.66	0.71
2855.69	0.7073
2864.71	0.705
2873.74	0.702
2882.76	0.6903
2891.79	0.6722
2900.81	0.6512
2909.84	0.6369
2918.86	0.6139
2927.89	0.609
2936.91	0.617
2945.94	0.6129
2954.96	0.5959
2963.99	0.5762
2973.01	0.5653
2982.04	0.5667
2991.06	0.5801
3000.09	0.586
3009.11	0.5897
3018.14	0.5816
3027.16	0.571
3036.19	0.5653
3045.21	0.5483
3054.24	0.5193
3063.26	0.511
3072.29	0.5185
3081.31	0.5337
3090.34	0.546
3099.36	0.552
3108.39	0.549
3117.41	0.5309
3126.44	0.5079
3135.46	0.4882
3144.49	0.474
3153.51	0.4693
3162.54	0.468
3171.56	0.4653
3180.59	0.4724
3189.61	0.4818
3198.64	0.5017
3207.66	0.5077
3216.69	0.512
3225.71	0.5103
3234.74	0.4992
3243.76	0.4849
3252.79	0.4606
3261.81	0.4383
3270.84	0.433
3279.86	0.4354
3288.89	0.4457
3297.91	0.4815
3306.94	0.5464
3315.96	0.6072
3324.99	0.6414
3334.01	0.6701
3343.04	0.6924
3352.06	0.7087
3361.09	0.7187
3370.11	0.7294
3379.14	0.7303
3388.16	0.7236
3397.19	0.7163
3406.21	0.7026
3415.24	0.6826
3424.26	0.6576
3433.29	0.6265
3442.31	0.5227
3451.34	0.486
3460.36	0.6238
3469.39	0.7147
3478.41	0.7405
3487.44	0.757
3496.46	0.762
3505.49	0.768
3514.51	0.772
3523.54	0.778
3532.56	0.7857
3541.59	0.7917
3550.61	0.795
3559.64	0.7967
3568.66	0.8024
3577.69	0.809
3586.71	0.813
3595.74	0.8177
3604.76	0.826
3613.79	0.8277
3622.81	0.8304
3631.84	0.832
3640.86	0.8327
3649.89	0.835
3658.91	0.8407
3667.94	0.84
3676.96	0.833
3685.99	0.8296
3695.01	0.828
3704.04	0.827
3713.06	0.8254
3722.09	0.827
3731.11	0.829
3740.14	0.831
3749.16	0.831
3758.19	0.833
3767.21	0.835
3776.24	0.8323
3785.26	0.827
3794.29	0.8183
3803.31	0.81
3812.34	0.81
3821.36	0.813
3830.39	0.817
3839.41	0.818
3848.44	0.8173
3857.46	0.814
3866.49	0.8123
3875.51	0.81
3884.54	0.8083
3893.56	0.808
3902.59	0.8097
3911.61	0.812
3920.64	0.813
3929.66	0.812
3938.69	0.81
3947.71	0.8093
3956.74	0.81
3965.76	0.81
3974.79	0.8083
3983.81	0.805
3992.84	0.8043
4001.86	0.804
4010.89	0.8057
4019.91	0.8087
