Infrared Spectrum: 2-Chlorobenzo[b]thiophene-3-acetonitrile
Formula: C 10 H 6 Cl N S
CAS: 157549-49-0
State: gas
Origin: EPA-IR VAPOR PHASE LIBRARY
1/CM	ABSORBANCE
549.8	0.00418
559.445	0.00597
569.09	0.00358
578.734	0.00269
588.379	0.00263
598.024	0.0043
607.669	0.00481
617.313	0.00436
626.958	0.00299
636.603	0.00347
646.248	0.00422
655.893	0.00316
665.537	0.00279
675.182	0.00382
684.827	0.00448
694.472	0.00511
704.116	0.005
713.761	0.00718
723.406	0.01783
733.051	0.01843
742.695	0.01154
752.34	0.02059
761.985	0.0124
771.63	0.00312
781.275	0.0025
790.919	0.0034
800.564	0.00329
810.209	0.00308
819.854	0.0018912
829.498	0.00338
839.143	0.00257
848.788	0.00248
858.433	0.00251
868.078	0.0019903
877.722	0.00288
887.367	0.0021787
897.012	0.0023832
906.657	0.00461
916.301	0.00534
925.946	0.0048
935.591	0.0072
945.236	0.00781
954.88	0.00486
964.525	0.00401
974.17	0.00667
983.815	0.01332
993.46	0.01454
1003.1	0.00638
1012.75	0.00415
1022.39	0.00322
1032.04	0.00399
1041.68	0.00947
1051.33	0.01189
1060.97	0.0034
1070.62	0.00396
1080.26	0.003
1089.91	0.00489
1099.55	0.00892
1109.2	0.00354
1118.84	0.00337
1128.49	0.00408
1138.13	0.00533
1147.78	0.00375
1157.42	0.00397
1167.07	0.00428
1176.71	0.00355
1186.36	0.0017313
1196	0.00458
1205.64	0.00713
1215.29	0.0078
1224.93	0.0023102
1234.58	0.00352
1244.22	0.00502
1253.87	0.00634
1263.51	0.00719
1273.16	0.00557
1282.8	0.00367
1292.45	0.00343
1302.09	0.00431
1311.74	0.00525
1321.38	0.0032
1331.03	0.00339
1340.67	0.00405
1350.32	0.00601
1359.96	0.00392
1369.61	0.00249
1379.25	0.0021206
1388.9	0.00265
1398.54	0.00321
1408.18	0.00538
1417.83	0.01231
1427.47	0.02376
1437.12	0.01979
1446.76	0.00645
1456.41	0.00789
1466.05	0.00817
1475.7	0.00335
1485.34	0.0022814
1494.99	0.0021597
1504.63	0.0024012
1514.28	0.0021636
1523.92	0.00389
1533.57	0.00506
1543.21	0.00385
1552.86	0.00289
1562.5	0.0039
1572.15	0.00441
1581.79	0.00274
1591.44	0.00248
1601.08	0.00257
1610.73	0.0019276
1620.37	0.0020996
1630.01	0.0020568
1639.66	0.0018213
1649.3	0.0020783
1658.95	0.00261
1668.59	0.0023166
1678.24	0.0023329
1687.88	0.0023896
1697.53	0.0023756
1707.17	0.0019651
1716.82	0.0017945
1726.46	0.0020498
1736.11	0.0021681
1745.75	0.0020921
1755.4	0.001984
1765.04	0.0023893
1774.69	0.00305
1784.33	0.00243
1793.98	0.0021294
1803.62	0.0022152
1813.27	0.00275
1822.91	0.002164
1832.55	0.0018854
1842.2	0.0017346
1851.84	0.0017958
1861.49	0.0021067
1871.13	0.002335
1880.78	0.0023177
1890.42	0.0023926
1900.07	0.00276
1909.71	0.0022966
1919.36	0.0019563
1929	0.00271
1938.65	0.00304
1948.29	0.0018801
1957.94	0.0017588
1967.58	0.0016797
1977.23	0.0013981
1986.87	0.0016338
1996.52	0.0016635
2006.16	0.0013606
2015.81	0.00145413
2025.45	0.0015557
2035.1	0.0020257
2044.74	0.0016609
2054.38	0.0017686
2064.03	0.0017875
2073.67	0.001758
2083.32	0.0018478
2092.96	0.0017145
2102.61	0.0016372
2112.25	0.0018209
2121.9	0.001619
2131.54	0.0016526
2141.19	0.0019007
2150.83	0.0016633
2160.48	0.0017229
2170.12	0.0018984
2179.77	0.0014797
2189.41	0.00141844
2199.06	0.00148008
2208.7	0.00141049
2218.35	0.0017932
2227.99	0.001754
2237.64	0.0017663
2247.28	0.0020652
2256.92	0.0023171
2266.57	0.0018351
2276.21	0.00145646
2285.86	0.0017241
2295.5	0.0020699
2305.15	0.0019025
2314.79	0.00148859
2324.44	0.0015734
2334.08	0.0016245
2343.73	0.0020127
2353.37	0.0019093
2363.02	0.0021375
2372.66	0.0021613
2382.31	0.00149644
2391.95	0.001278
2401.6	0.0020318
2411.24	0.0017806
2420.89	0.0018604
2430.53	0.00149499
2440.18	0.0016321
2449.82	0.00150091
2459.47	0.0018357
2469.11	0.0019443
2478.75	0.00142815
2488.4	0.0016774
2498.04	0.0018554
2507.69	0.0013633
2517.33	0.0015633
2526.98	0.0015957
2536.62	0.0015661
2546.27	0.001767
2555.91	0.0016809
2565.56	0.001667
2575.2	0.00151908
2584.85	0.0017194
2594.49	0.00151596
2604.14	0.0017635
2613.78	0.0015322
2623.43	0.001188
2633.07	0.0015239
2642.72	0.0016222
2652.36	0.0016064
2662.01	0.000924
2671.65	0.0016073
2681.29	0.0013591
2690.94	0.001287
2700.58	0.001265
2710.23	0.0019364
2719.87	0.0017427
2729.52	0.0017235
2739.16	0.00168
2748.81	0.0013734
2758.45	0.0015467
2768.1	0.001306
2777.74	0.0013804
2787.39	0.000932
2797.03	0.0013669
2806.68	0.00146427
2816.32	0.0014009
2825.97	0.001209
2835.61	0.0015587
2845.26	0.001258
2854.9	0.0017902
2864.55	0.001108
2874.19	0.001135
2883.84	0.00150024
2893.48	0.0016341
2903.12	0.0015578
2912.77	0.0021048
2922.41	0.0032
2932.06	0.00271
2941.7	0.0022967
2951.35	0.0019368
2960.99	0.0015513
2970.64	0.0015845
2980.28	0.0023173
2989.93	0.0017723
2999.57	0.00147798
3009.22	0.0020991
3018.86	0.00295
3028.51	0.00295
3038.15	0.00356
3047.8	0.00312
3057.44	0.00469
3067.09	0.00865
3076.73	0.01212
3086.38	0.0076
3096.02	0.00403
3105.67	0.0024029
3115.31	0.001773
3124.95	0.0015838
3134.6	0.0017728
3144.24	0.00131
3153.89	0.001181
3163.53	0.0015663
3173.18	0.001776
3182.82	0.0018692
3192.47	0.001261
3202.11	0.001206
3211.76	0.0015765
3221.4	0.00141727
3231.05	0.0015801
3240.69	0.00150227
3250.34	0.001157
3259.98	0.00143715
3269.63	0.000921
3279.27	0.000944
3288.92	0.000807
3298.56	0.000732
3308.21	0.0016519
3317.85	0.0015564
3327.49	0.001801
3337.14	0.0016733
3346.78	0.001113
3356.43	0.00143138
3366.07	0.0013839
3375.72	0.00143724
3385.36	0.0014036
3395.01	0.0013252
3404.65	0.0015371
3414.3	0.0018319
3423.94	0.0019239
3433.59	0.001234
3443.23	0.000676
3452.88	0.000478
3462.52	0.001249
3472.17	0.0016245
3481.81	0.0015938
3491.46	0.001187
3501.1	0.0013343
3510.75	0.001064
3520.39	0.0014321
3530.04	0.0013566
3539.68	0.0013201
3549.32	0.001206
3558.97	0.0018922
3568.61	0.000976
3578.26	0.000793
3587.9	0.0017026
3597.55	0.0013301
3607.19	0.00124
3616.84	0.000681
3626.48	0.0020413
3636.13	0.00150926
3645.77	0.0017391
3655.42	0.001292
3665.06	0.0016372
3674.71	0.00111
3684.35	0.00148954
3694	0.000992
3703.64	0.001222
3713.29	0.00121
3722.93	0.00081
3732.58	0.000899
3742.22	0.00148232
3751.86	0.0021707
3761.51	0.0015424
3771.15	0.001112
3780.8	0.0017314
3790.44	0.0016954
3800.09	0.0020123
3809.73	0.0016879
3819.38	0.001299
3829.02	0.000809
3838.67	0.0014589
3848.31	0.0020488
3857.96	0.000895
3867.6	0.0015787
3877.25	0.0013441
3886.89	0.0017268
3896.54	0.00119
3906.18	0.00144125
3915.83	0.001123
3925.47	0.000977
3935.12	0.000883
3944.76	0.00023
3954.41	0.001722
3964.05	0.0022207
3973.69	0.000912
3983.34	0.0015462
3992.98	0.0013816
