Infrared Spectrum: 3-METHYLENECYCLOBUTANENITRILE
Formula: C6 H7 N
CAS: 15760-35-7
State: LIQUID
Class: COBLENTZ
Instrument: PERKIN-ELMER
Sampling: TRANSMISSION
Path length: 0.00125 CM
Resolution: 4
Origin: ABBOTT LABORATORIES - WASHBURN
MICROMETERS	TRANSMITTANCE
2.051	0.895
2.09058	0.897
2.13015	0.899
2.16973	0.9
2.2093	0.9119
2.24888	0.913
2.28846	0.9051
2.32803	0.894
2.36761	0.892
2.40718	0.8969
2.44676	0.9019
2.48634	0.9119
2.52591	0.917
2.56549	0.91
2.60506	0.908
2.64464	0.9148
2.68421	0.9199
2.72379	0.9152
2.76337	0.9032
2.80294	0.89
2.84252	0.885
2.88209	0.8836
2.92167	0.8968
2.96125	0.9029
3.00082	0.905
3.0404	0.8923
3.07997	0.8649
3.11955	0.8894
3.15913	0.9027
3.1987	0.902
3.23828	0.8876
3.27785	0.7921
3.31743	0.8311
3.35701	0.6703
3.39658	0.5694
3.43616	0.5095
3.47573	0.7881
3.51531	0.8337
3.55489	0.836
3.59446	0.8831
3.63404	0.9164
3.67361	0.932
3.71319	0.932
3.75276	0.9305
3.79234	0.928
3.83192	0.918
3.87149	0.915
3.91107	0.922
3.95064	0.92
3.99022	0.917
4.0298	0.91
4.06937	0.905
4.10895	0.89
4.14852	0.8871
4.1881	0.884
4.22768	0.887
4.26725	0.8851
4.30683	0.879
4.3464	0.8671
4.38598	0.8551
4.42556	0.8491
4.46513	0.5961
4.50471	0.5315
4.54428	0.8204
4.58386	0.8438
4.62344	0.854
4.66301	0.857
4.70259	0.8491
4.74216	0.844
4.78174	0.846
4.82132	0.8461
4.86089	0.837
4.90047	0.842
4.94004	0.842
4.97962	0.8466
5.01919	0.8357
5.05877	0.844
5.09835	0.8427
5.13792	0.839
5.1775	0.8429
5.21707	0.844
5.25665	0.844
5.29623	0.844
5.3358	0.841
5.37538	0.842
5.41495	0.839
5.45453	0.836
5.49411	0.8228
5.53368	0.8085
5.57326	0.796
5.61283	0.781
5.65241	0.7914
5.69199	0.8011
5.73156	0.812
5.77114	0.816
5.81071	0.816
5.85029	0.7906
5.88987	0.6305
5.92944	0.3396
5.96902	0.4389
6.00859	0.7261
6.04817	0.7688
6.08774	0.7961
6.12732	0.8039
6.1669	0.8134
6.20647	0.822
6.24605	0.822
6.28562	0.8299
6.3252	0.827
6.36478	0.831
6.40435	0.8273
6.44393	0.822
6.4835	0.816
6.52308	0.812
6.56266	0.809
6.60223	0.8117
6.64181	0.8149
6.68138	0.8197
6.72096	0.8185
6.76054	0.8118
6.80011	0.8019
6.83969	0.7911
6.87926	0.7621
6.91884	0.7122
6.95842	0.6579
6.99799	0.627
7.03757	0.5128
7.07714	0.4675
7.11672	0.4627
7.15629	0.4957
7.19587	0.681
7.23545	0.7475
7.27502	0.7656
7.3146	0.784
7.35417	0.7929
7.39375	0.802
7.43333	0.8049
7.4729	0.806
7.51248	0.7987
7.55205	0.779
7.59163	0.7678
7.63121	0.7888
7.67078	0.802
7.71036	0.806
7.74993	0.807
7.78951	0.8066
7.82909	0.802
7.86866	0.801
7.90824	0.798
7.94781	0.794
7.98739	0.791
8.02697	0.793
8.06654	0.7953
8.10612	0.796
8.14569	0.7801
8.18527	0.7346
8.22484	0.7278
8.26442	0.7643
8.304	0.7728
8.34357	0.7611
8.38315	0.7365
8.42272	0.6935
8.4623	0.6826
8.50188	0.7163
8.54145	0.738
8.58103	0.721
8.6206	0.6766
8.66018	0.6532
8.69976	0.6931
8.73933	0.7425
8.77891	0.7697
8.81848	0.7854
8.85806	0.793
8.89764	0.799
8.93721	0.802
8.97679	0.8062
9.01636	0.8045
9.05594	0.811
9.09552	0.814
9.13509	0.8118
9.17467	0.812
9.21424	0.8127
9.25382	0.812
9.29339	0.8116
9.33297	0.8118
9.37255	0.8086
9.41212	0.8009
9.4517	0.7812
9.49127	0.7319
9.53085	0.7275
9.57043	0.7537
9.61	0.7701
9.64958	0.776
9.68915	0.7817
9.72873	0.788
9.76831	0.791
9.80788	0.791
9.84746	0.7927
9.88703	0.7933
9.92661	0.7953
9.96619	0.801
10.0058	0.802
10.0453	0.8064
10.0849	0.8067
10.1245	0.8018
10.1641	0.799
10.2036	0.794
10.2432	0.793
10.2828	0.7847
10.3224	0.781
10.3619	0.779
10.4015	0.7822
10.4411	0.776
10.4807	0.7722
10.5202	0.766
10.5598	0.764
10.5994	0.7611
10.639	0.761
10.6786	0.7583
10.7181	0.752
10.7577	0.7442
10.7973	0.725
10.8369	0.7026
10.8764	0.6781
10.916	0.6286
10.9556	0.5631
10.9952	0.5012
11.0347	0.4256
11.0743	0.3607
11.1139	0.2764
11.1535	0.2241
11.193	0.1798
11.2326	0.1267
11.2722	0.104
11.3118	0.104
11.3513	0.123
11.3909	0.1712
11.4305	0.2843
11.4701	0.403
11.5096	0.5208
11.5492	0.6089
11.5888	0.6505
11.6284	0.6754
11.668	0.6969
11.7075	0.7244
11.7471	0.738
11.7867	0.753
11.8263	0.754
11.8658	0.7535
11.9054	0.7456
11.945	0.7294
11.9846	0.72
12.0241	0.7382
12.0637	0.7537
12.1033	0.7688
12.1429	0.7774
12.1824	0.7886
12.222	0.791
12.2616	0.7899
12.3012	0.794
12.3407	0.799
12.3803	0.8007
12.4199	0.801
12.4595	0.8044
12.499	0.802
12.5386	0.806
12.5782	0.802
12.6178	0.8053
12.6573	0.807
12.6969	0.804
12.7365	0.806
12.7761	0.801
12.8157	0.799
12.8552	0.799
12.8948	0.799
12.9344	0.799
12.974	0.8031
13.0135	0.7986
13.0531	0.7975
13.0927	0.7885
13.1323	0.7789
13.1718	0.7779
13.2114	0.778
13.251	0.778
13.2906	0.778
13.3301	0.779
13.3697	0.779
13.4093	0.779
13.4489	0.7743
13.4884	0.7733
13.528	0.774
13.5676	0.769
13.6072	0.769
13.6467	0.769
13.6863	0.7702
13.7259	0.768
13.7655	0.768
13.8051	0.7673
13.8446	0.761
13.8842	0.756
13.9238	0.756
13.9634	0.7514
14.0029	0.7503
14.0425	0.745
14.0821	0.746
14.1217	0.7406
14.1612	0.738
14.2008	0.733
14.2404	0.7308
14.28	0.73
14.3195	0.7264
14.3591	0.725
14.3987	0.7211
14.4383	0.716
14.4778	0.713
14.5174	0.7093
14.557	0.7074
14.5966	0.7055
14.6361	0.7
14.6757	0.698
14.7153	0.697
14.7549	0.6887
14.7944	0.685
14.834	0.683
14.8736	0.6754
14.9132	0.6694
14.9528	0.674
14.9923	0.6718
15.0319	0.658
15.0715	0.6521
15.1111	0.649
15.1506	0.6443
15.1902	0.639
15.2298	0.637
15.2694	0.629
15.3089	0.624
15.3485	0.6235
