Infrared Spectrum: 4-Penten-1-ol acetate
Formula: C 7 H 12 O 2
CAS: 1576-85-8
State: gas
Instrument: HP-GC/MS/IRD
Origin: NIST Mass Spectrometry Data Center
1/CM	ABSORBANCE
550	0.0003268
562	0.0002204
574	1.52e-05
586	0.0001976
598	0.0005206
610	0.0008246
622	0.001083
634	0.0011894
646	0.0007866
658	0.0004256
670	0.0002128
682	0.0001786
694	5.32e-05
706	3.42e-05
718	2.28e-05
730	6.46e-05
742	5.7e-05
754	0.0002204
766	0.0001938
778	0.0001786
790	0.0001558
802	0.0002356
814	0.0004294
826	0.0005624
838	0.0007334
850	0.0008094
862	0.0010336
874	0.0011742
886	0.0012958
898	0.0017936
910	0.0031008
922	0.0036024
934	0.002432
946	0.0018696
958	0.0018316
970	0.0018468
982	0.0021698
994	0.002698
1006	0.003344
1018	0.0050844
1030	0.0068742
1042	0.0076494
1054	0.0069274
1066	0.0056354
1078	0.0043814
1090	0.0031046
1102	0.0020938
1114	0.0014554
1126	0.001045
1138	0.000893
1150	0.0008626
1162	0.001007
1174	0.0013528
1186	0.0024092
1198	0.0053238
1210	0.012939
1222	0.0297312
1234	0.0377872
1246	0.022363
1258	0.0104462
1270	0.0056696
1282	0.0035188
1294	0.0025802
1306	0.0018734
1318	0.0014098
1330	0.0011552
1342	0.0013186
1354	0.0027702
1366	0.0060078
1378	0.0053694
1390	0.0036822
1402	0.002375
1414	0.001482
1426	0.0014706
1438	0.0018088
1450	0.0020862
1462	0.001881
1474	0.0014934
1486	0.0010032
1498	0.0006764
1510	0.0005396
1522	0.0004712
1534	0.0004256
1546	0.0004294
1558	0.0003724
1570	0.0003382
1582	0.000323
1594	0.0003496
1606	0.0004028
1618	0.0005776
1630	0.0010792
1642	0.0015542
1654	0.0009918
1666	0.0006194
1678	0.0005966
1690	0.0007486
1702	0.0011438
1714	0.0019494
1726	0.0035416
1738	0.007087
1750	0.0150328
1762	0.0216068
1774	0.014687
1786	0.0060002
1798	0.0025042
1810	0.0013642
1822	0.0009272
1834	0.0008132
1846	0.0005776
1858	0.0003876
1870	0.0003002
1882	0.0002394
1894	0.000228
1906	0.0001976
1918	0.0001634
1930	0.0001292
1942	0.0001064
1954	0.0001292
1966	0.0001482
1978	0.0001482
1990	0.0001558
2002	0.0001482
2014	0.0001254
2026	9.88e-05
2038	0.0001254
2050	0.0001406
2062	0.0001406
2074	0.0001482
2086	0.0001406
2098	0.0001558
2110	0.000152
2122	0.0001102
2134	6.84e-05
2146	4.18e-05
2158	2.66e-05
2170	3.8e-06
2182	2.66e-05
2194	4.18e-05
2206	2.28e-05
2218	2.28e-05
2230	0
2242	1.9e-05
2254	3.04e-05
2266	3.8e-06
2278	3.42e-05
2290	3.8e-05
2302	1.9e-05
2314	3.42e-05
2326	2.66e-05
2338	1.9e-05
2350	3.8e-05
2362	3.8e-06
2374	3.8e-06
2386	1.14e-05
2398	7.6e-06
2410	1.9e-05
2422	7.6e-06
2434	3.8e-05
2446	4.56e-05
2458	6.08e-05
2470	5.32e-05
2482	3.8e-06
2494	4.18e-05
2506	1.52e-05
2518	2.28e-05
2530	7.6e-06
2542	2.28e-05
2554	3.04e-05
2566	7.6e-06
2578	1.14e-05
2590	2.66e-05
2602	2.66e-05
2614	2.66e-05
2626	2.66e-05
2638	3.8e-06
2650	3.42e-05
2662	3.8e-05
2674	5.32e-05
2686	7.22e-05
2698	4.56e-05
2710	7.98e-05
2722	0.0001026
2734	9.12e-05
2746	8.74e-05
2758	0.0001178
2770	0.0001292
2782	0.0001178
2794	0.0001482
2806	0.0001748
2818	0.0002432
2830	0.0004256
2842	0.0008284
2854	0.001311
2866	0.001501
2878	0.0014972
2890	0.0017936
2902	0.0023598
2914	0.00323
2926	0.004199
2938	0.005035
2950	0.005624
2962	0.0055784
2974	0.0049172
2986	0.0038722
2998	0.0027512
3010	0.0019912
3022	0.0013794
3034	0.0009918
3046	0.0009272
3058	0.0010602
3070	0.0013832
3082	0.0020938
3094	0.0018392
3106	0.0007334
3118	0.0004408
3130	0.0002698
3142	0.0001862
3154	0.0001368
3166	0.000114
3178	9.5e-05
3190	0.0001026
3202	6.46e-05
3214	6.46e-05
3226	6.08e-05
3238	3.42e-05
3250	4.56e-05
3262	4.56e-05
3274	9.12e-05
3286	5.7e-05
3298	7.98e-05
3310	5.32e-05
3322	4.18e-05
3334	4.18e-05
3346	5.32e-05
3358	1.9e-05
3370	6.08e-05
3382	6.08e-05
3394	6.46e-05
3406	6.84e-05
3418	5.32e-05
3430	6.08e-05
3442	7.6e-05
3454	0.000114
3466	0.0001596
3478	0.0001824
3490	0.0002774
3502	0.0003192
3514	0.0003002
3526	0.0002128
3538	0.0001444
3550	9.88e-05
3562	0.0001102
3574	8.36e-05
3586	7.98e-05
3598	6.46e-05
3610	7.6e-06
3622	8.36e-05
3634	7.98e-05
3646	9.12e-05
3658	5.32e-05
3670	7.22e-05
3682	3.8e-05
3694	9.88e-05
3706	9.12e-05
3718	7.98e-05
3730	2.28e-05
3742	3.8e-05
3754	7.22e-05
3766	1.52e-05
3778	6.08e-05
3790	9.12e-05
3802	0.0001064
3814	7.22e-05
3826	6.08e-05
3838	2.28e-05
