Infrared Spectrum: SULFONE, ANILINO-2-NAPHTHYL
Formula: C16 H13 N O2 S
CAS: 1576-48-3
State: SOLID (1.0% IN KBr PELLET)
Class: COBLENTZ
Instrument: Not specified, most likely a prism, grating, or hybrid spectrometer.
Sampling: TRANSMISSION
Path length: 0.0355 CM THICK
Resolution: 4
Origin: ANDERSON PHYSICAL LABORATORY
1/CM	TRANSMITTANCE
674.332	0.301
682.722	0.365
691.113	0.481
699.503	0.1221
707.893	0.103
716.284	0.3379
724.674	0.553
733.064	0.679
741.454	0.712
749.845	0.176
758.235	0.239
766.625	0.529
775.016	0.7299
783.406	0.805
791.796	0.844
800.187	0.853
808.577	0.85
816.967	0.757
825.357	0.205
833.748	0.752
842.138	0.872
850.528	0.875
858.919	0.7911
867.309	0.6349
875.699	0.5512
884.09	0.7029
892.48	0.8
900.87	0.643
909.26	0.374
917.651	0.397
926.041	0.667
934.431	0.3713
942.822	0.6316
951.212	0.803
959.602	0.449
967.993	0.7329
976.383	0.688
984.773	0.848
993.163	0.857
1001.55	0.869
1009.94	0.862
1018.33	0.854
1026.72	0.8141
1035.11	0.6981
1043.51	0.7898
1051.9	0.847
1060.29	0.835
1068.68	0.775
1077.07	0.64
1085.46	0.3129
1093.85	0.788
1102.24	0.782
1110.63	0.736
1119.02	0.6611
1127.41	0.5321
1135.8	0.1222
1144.19	0.4748
1152.58	0.2351
1160.97	0.061
1169.36	0.071
1177.75	0.265
1186.14	0.6018
1194.53	0.8019
1202.92	0.836
1211.31	0.736
1219.7	0.818
1228.09	0.6711
1236.48	0.5499
1244.87	0.778
1253.26	0.704
1261.65	0.782
1270.04	0.757
1278.43	0.616
1286.82	0.581
1295.21	0.706
1303.6	0.643
1311.99	0.3621
1320.39	0.3828
1328.78	0.371
1337.17	0.133
1345.56	0.094
1353.95	0.3819
1362.34	0.5029
1370.73	0.754
1379.12	0.799
1387.51	0.757
1395.9	0.62
1404.29	0.539
1412.68	0.373
1421.07	0.424
1429.46	0.409
1437.85	0.7579
1446.24	0.863
1454.63	0.896
1463.02	0.865
1471.41	0.6531
1479.8	0.487
1488.19	0.647
1496.58	0.637
1504.97	0.346
1513.36	0.508
1521.75	0.8178
1530.14	0.869
1538.53	0.88
1546.92	0.887
1555.31	0.887
1563.7	0.893
1572.09	0.893
1580.48	0.868
1588.87	0.799
1597.27	0.58
1605.66	0.5
1614.05	0.8029
1622.44	0.845
1630.83	0.814
1639.22	0.823
1647.61	0.856
1656	0.869
1664.39	0.887
1672.78	0.89
1681.17	0.892
1689.56	0.893
1697.95	0.895
1706.34	0.895
1714.73	0.893
1723.12	0.89
1731.51	0.88
1739.9	0.88
1748.29	0.886
1756.68	0.886
1765.07	0.88
1773.46	0.856
1781.85	0.829
1790.24	0.865
1798.63	0.872
1807.02	0.856
1815.41	0.856
1823.8	0.85
1832.19	0.851
1840.58	0.859
1848.97	0.866
1857.36	0.865
1865.75	0.863
1874.15	0.862
1882.54	0.853
1890.93	0.844
1899.32	0.845
1907.71	0.838
1916.1	0.838
1924.49	0.836
1932.88	0.83
1941.27	0.836
1949.66	0.836
1958.05	0.826
1966.44	0.815
1974.83	0.818
1983.22	0.83
1991.61	0.833
2000	0.842
2008.39	0.8455
2016.78	0.849
2025.17	0.85
2033.56	0.85
2041.95	0.845
2050.34	0.845
2058.73	0.8425
2067.12	0.841
2075.51	0.839
2083.9	0.839
2092.29	0.839
2100.68	0.838
2109.07	0.8357
2117.46	0.8339
2125.85	0.833
2134.24	0.832
2142.63	0.829
2151.03	0.8265
2159.42	0.8232
2167.81	0.821
2176.2	0.821
2184.59	0.821
2192.98	0.8202
2201.37	0.8179
2209.76	0.8147
2218.15	0.8129
2226.54	0.8095
2234.93	0.8029
2243.32	0.8
2251.71	0.7979
2260.1	0.796
2268.49	0.796
2276.88	0.7953
2285.27	0.7934
2293.66	0.7913
2302.05	0.7874
2310.44	0.778
2318.83	0.772
2327.22	0.7703
2335.61	0.767
2344	0.766
2352.39	0.766
2360.78	0.7669
2369.17	0.767
2377.56	0.767
2385.95	0.767
2394.34	0.767
2402.73	0.767
2411.12	0.767
2419.51	0.7664
2427.9	0.7642
2436.3	0.7627
2444.69	0.7592
2453.08	0.7557
2461.47	0.754
2469.86	0.7537
2478.25	0.7498
2486.64	0.743
2495.03	0.7402
2503.42	0.74
2511.81	0.739
2520.2	0.739
2528.59	0.739
2536.98	0.7357
2545.37	0.7322
2553.76	0.731
2562.15	0.7282
2570.54	0.727
2578.93	0.725
2587.32	0.725
2595.71	0.725
2604.1	0.725
2612.49	0.724
2620.88	0.7226
2629.27	0.722
2637.66	0.7176
2646.05	0.7136
2654.44	0.7069
2662.83	0.7041
2671.22	0.703
2679.61	0.701
2688	0.7003
2696.39	0.698
2704.78	0.6948
2713.18	0.692
2721.57	0.691
2729.96	0.688
2738.35	0.685
2746.74	0.6825
2755.13	0.68
2763.52	0.674
2771.91	0.6703
2780.3	0.665
2788.69	0.6602
2797.08	0.656
2805.47	0.6469
2813.86	0.63
2822.25	0.6252
2830.64	0.626
2839.03	0.6295
2847.42	0.631
2855.81	0.6294
2864.2	0.6279
2872.59	0.6212
2880.98	0.6174
2889.37	0.614
2897.76	0.616
2906.15	0.6199
2914.54	0.6225
2922.93	0.6274
2931.32	0.628
2939.71	0.6181
2948.1	0.6097
2956.49	0.604
2964.88	0.6039
2973.27	0.6017
2981.66	0.5999
2990.06	0.598
2998.45	0.5927
3006.84	0.583
3015.23	0.5685
3023.62	0.5597
3032.01	0.5433
3040.4	0.53
3048.79	0.5156
3057.18	0.4907
3065.57	0.4663
3073.96	0.4577
3082.35	0.4592
3090.74	0.4722
3099.13	0.4793
3107.52	0.4881
3115.91	0.491
3124.3	0.4875
3132.69	0.4689
3141.08	0.4425
3149.47	0.3989
3157.86	0.3523
3166.25	0.3051
3174.64	0.2574
3183.03	0.212
3191.42	0.1789
3199.81	0.1639
3208.2	0.1648
3216.59	0.1719
3224.98	0.187
3233.37	0.2359
3241.76	0.2729
3250.15	0.2942
3258.54	0.3219
3266.94	0.335
3275.33	0.347
3283.72	0.354
3292.11	0.3638
3300.5	0.3685
3308.89	0.3734
3317.28	0.3882
3325.67	0.4008
3334.06	0.4188
3342.45	0.4583
3350.84	0.4957
3359.23	0.5278
3367.62	0.5593
3376.01	0.5845
3384.4	0.6023
3392.79	0.608
3401.18	0.607
3409.57	0.6031
3417.96	0.5968
3426.35	0.592
3434.74	0.5879
3443.13	0.581
3451.52	0.58
3459.91	0.578
3468.3	0.577
3476.69	0.574
3485.08	0.5713
3493.47	0.569
3501.86	0.568
3510.25	0.568
3518.64	0.566
3527.03	0.566
3535.42	0.569
3543.82	0.569
3552.21	0.569
3560.6	0.569
3568.99	0.5713
3577.38	0.573
3585.77	0.574
3594.16	0.575
3602.55	0.577
3610.94	0.578
3619.33	0.58
3627.72	0.5831
3636.11	0.5869
3644.5	0.59
3652.89	0.592
3661.28	0.5931
3669.67	0.598
3678.06	0.5986
3686.45	0.6018
3694.84	0.602
3703.23	0.602
3711.62	0.6014
3720.01	0.5994
3728.4	0.601
3736.79	0.601
3745.18	0.599
3753.57	0.598
3761.96	0.599
3770.35	0.599
3778.74	0.599
3787.13	0.598
3795.52	0.5929
3803.91	0.5897
3812.3	0.5872
3820.69	0.584
3829.09	0.583
3837.48	0.5823
3845.87	0.5804
3854.26	0.578
3862.65	0.575
3871.04	0.5739
3879.43	0.571
3887.82	0.571
3896.21	0.5708
3904.6	0.5649
3912.99	0.5624
3921.38	0.56
3929.77	0.56
3938.16	0.562
3946.55	0.563
3954.94	0.563
3963.33	0.563
3971.72	0.563
3980.11	0.562
3988.5	0.5591
