Infrared Spectrum: 2,7-DIMETHYL-PHENANTHRENE
Formula: C16 H14
CAS: 1576-69-8
State: SOLUTION (60 g/L IN HEPTANE)
Class: COBLENTZ
Instrument: Not specified, most likely a prism, grating, or hybrid spectrometer.
Sampling: TRANSMISSION
Path length: 0.01 CM
Resolution: 4
Origin: CENTRE D'ETUDES NUCLEAIRES DE GRENOBLE
MICROMETERS	TRANSMITTANCE
1.961	0.953
2.00098	0.953
2.04096	0.948
2.08094	0.953
2.12092	0.95
2.1609	0.953
2.20087	0.955
2.24085	0.943
2.28083	0.936
2.32081	0.928
2.36079	0.928
2.40077	0.931
2.44075	0.933
2.48073	0.94
2.52071	0.951
2.56069	0.948
2.60067	0.948
2.64064	0.951
2.68062	0.953
2.7206	0.955
2.76058	0.956
2.80056	0.958
2.84054	0.968
2.88052	0.97
2.9205	0.973
2.96048	0.975
3.00046	0.976
3.04044	0.975
3.08041	0.971
3.12039	0.971
3.16037	0.966
3.20035	0.955
3.24033	0.905
3.28031	0.813
3.32029	0.727
3.36027	0.702
3.40025	0.648
3.44023	0.628
3.48021	0.584
3.52018	0.537
3.56016	0.562
3.60014	0.863
3.64012	0.918
3.6801	0.923
3.72008	0.936
3.76006	0.946
3.80004	0.948
3.84002	0.955
3.88	0.966
3.91998	0.975
3.95995	0.981
3.99993	0.985
4.03991	0.981
4.07989	0.981
4.11987	0.985
4.15985	0.983
4.19983	0.978
4.23981	0.975
4.27979	0.971
4.31977	0.965
4.35974	0.978
4.39972	0.988
4.4397	0.99
4.47968	0.99
4.51966	0.99
4.55964	0.988
4.59962	0.99
4.6396	0.995
4.67958	0.993
4.71956	0.995
4.75954	0.995
4.79951	0.996
4.83949	0.996
4.87947	0.996
4.91945	0.995
4.95943	0.995
4.99941	0.996
5.03939	0.998
5.07937	0.996
5.11935	0.993
5.15933	0.988
5.19931	0.986
5.23928	0.976
5.27926	0.968
5.31924	0.981
5.35922	0.991
5.3992	0.986
5.43918	0.981
5.47916	0.981
5.51914	0.99
5.55912	0.991
5.5991	0.986
5.63908	0.981
5.67905	0.97
5.71903	0.953
5.75901	0.938
5.79899	0.96
5.83897	0.958
5.87895	0.955
5.91893	0.958
5.95891	0.966
5.99889	0.951
6.03887	0.953
6.07885	0.955
6.11882	0.94
6.1588	0.841
6.19878	0.787
6.23876	0.9
6.27874	0.918
6.31872	0.948
6.3587	0.95
6.39868	0.945
6.43866	0.943
6.47864	0.95
6.51862	0.918
6.55859	0.931
6.59857	0.933
6.63855	0.931
6.67853	0.923
6.71851	0.896
6.75849	0.785
6.79847	0.738
6.83845	0.725
6.87843	0.712
6.91841	0.673
6.95839	0.657
6.99836	0.713
7.03834	0.83
7.07832	0.88
7.1183	0.9
7.15828	0.903
7.19826	0.901
7.23824	0.896
7.27822	0.875
7.3182	0.87
7.35818	0.88
7.39816	0.903
7.43813	0.911
7.47811	0.921
7.51809	0.938
7.55807	0.95
7.59805	0.951
7.63803	0.94
7.67801	0.935
7.71799	0.933
7.75797	0.945
7.79795	0.953
7.83793	0.948
7.8779	0.953
7.91788	0.951
7.95786	0.94
7.99784	0.83
8.03782	0.876
8.0778	0.928
8.11778	0.946
8.15776	0.963
8.19774	0.968
8.23772	0.971
8.2777	0.973
8.31767	0.941
8.35765	0.95
8.39763	0.961
8.43761	0.968
8.47759	0.965
8.51757	0.951
8.55755	0.926
8.59753	0.91
8.63751	0.92
8.67749	0.945
8.71747	0.951
8.75744	0.953
8.79742	0.945
8.8374	0.951
8.87738	0.956
8.91736	0.956
8.95734	0.958
8.99732	0.958
9.0373	0.95
9.07728	0.946
9.11726	0.956
9.15723	0.948
9.19721	0.943
9.23719	0.945
9.27717	0.945
9.31715	0.946
9.35713	0.946
9.39711	0.948
9.43709	0.946
9.47707	0.945
9.51705	0.936
9.55703	0.93
9.597	0.916
9.63698	0.911
9.67696	0.915
9.71694	0.926
9.75692	0.936
9.7969	0.936
9.83688	0.936
9.87686	0.93
9.91684	0.916
9.95682	0.926
9.9968	0.946
10.0368	0.97
10.0768	0.971
10.1167	0.973
10.1567	0.973
10.1967	0.975
10.2367	0.981
10.2766	0.978
10.3166	0.98
10.3566	0.976
10.3966	0.97
10.4366	0.966
10.4765	0.953
10.5165	0.95
10.5565	0.966
10.5965	0.973
10.6365	0.97
10.6764	0.966
10.7164	0.958
10.7564	0.946
10.7964	0.951
10.8364	0.965
10.8763	0.978
10.9163	0.975
10.9563	0.976
10.9963	0.971
11.0363	0.965
11.0762	0.96
11.1162	0.958
11.1562	0.948
11.1962	0.935
11.2361	0.888
11.2761	0.48
11.3161	0.567
11.3561	0.788
11.3961	0.898
11.436	0.928
11.476	0.94
11.516	0.953
11.556	0.963
11.596	0.973
11.6359	0.978
11.6759	0.98
11.7159	0.981
11.7559	0.981
11.7959	0.976
11.8358	0.975
11.8758	0.98
11.9158	0.973
11.9558	0.96
11.9957	0.936
12.0357	0.908
12.0757	0.916
12.1157	0.94
12.1557	0.931
12.1956	0.911
12.2356	0.876
12.2756	0.838
12.3156	0.334
12.3556	0.196
12.3955	0.449
12.4355	0.703
12.4755	0.845
12.5155	0.9
12.5555	0.91
12.5954	0.898
12.6354	0.628
12.6754	0.778
12.7154	0.908
12.7554	0.936
12.7953	0.948
12.8353	0.945
12.8753	0.946
12.9153	0.948
12.9552	0.945
12.9952	0.94
13.0352	0.94
13.0752	0.951
13.1152	0.951
13.1551	0.951
13.1951	0.948
13.2351	0.951
13.2751	0.943
13.3151	0.94
13.355	0.925
13.395	0.906
13.435	0.898
13.475	0.896
13.515	0.891
13.5549	0.896
13.5949	0.903
13.6349	0.908
13.6749	0.911
13.7149	0.905
13.7548	0.9
13.7948	0.896
13.8348	0.893
13.8748	0.893
13.9147	0.891
13.9547	0.895
13.9947	0.896
14.0347	0.9
14.0747	0.896
14.1146	0.815
14.1546	0.564
14.1946	0.638
14.2346	0.777
14.2746	0.823
14.3145	0.8
14.3545	0.772
14.3945	0.78
14.4345	0.8
14.4745	0.828
14.5144	0.87
14.5544	0.911
14.5944	0.925
14.6344	0.935
14.6743	0.941
14.7143	0.95
14.7543	0.966
14.7943	0.963
14.8343	0.96
14.8742	0.956
14.9142	0.953
14.9542	0.961
14.9942	0.958
15.0342	0.96
15.0741	0.965
15.1141	0.96
15.1541	0.965
15.1941	0.966
15.2341	0.966
15.274	0.963
15.314	0.96
15.354	0.96
15.394	0.963
15.434	0.961
15.4739	0.958
15.5139	0.953
15.5539	0.953
15.5939	0.955
15.6338	0.96
15.6738	0.961
15.7138	0.953
15.7538	0.955
15.7938	0.96
15.8337	0.963
15.8737	0.958
15.9137	0.953
