Infrared Spectrum: cis-2-Penten-1-ol
Formula: C 5 H 10 O
CAS: 1576-95-0
State: gas
Instrument: HP-GC/MS/IRD
Origin: NIST Mass Spectrometry Data Center
1/CM	ABSORBANCE
550	0.000521
562	7.8e-05
574	0.000143
586	0.000211
598	0.000223
610	0.000251
622	0.000163
634	0.000291
646	0.000372
658	0.000497
670	0.000729
682	0.000829
694	0.001297
706	0.001507
718	0.00152
730	0.001246
742	0.000938
754	0.000659
766	0.000459
778	0.000306
790	0.000395
802	0.000313
814	0.000213
826	0.000119
838	0.000127
850	0.000319
862	0.000382
874	0.000422
886	0.000414
898	0.000599
910	0.000992
922	0.001685
934	0.002274
946	0.002536
958	0.002843
970	0.003588
982	0.004782
994	0.006242
1006	0.007614
1018	0.008393
1030	0.008573
1042	0.007268
1054	0.004826
1066	0.002976
1078	0.00203
1090	0.001387
1102	0.001022
1114	0.000807
1126	0.00074
1138	0.000737
1150	0.000811
1162	0.00094
1174	0.001079
1186	0.001215
1198	0.001332
1210	0.001281
1222	0.001346
1234	0.001277
1246	0.001236
1258	0.00117
1270	0.001154
1282	0.001112
1294	0.001425
1306	0.00169
1318	0.001691
1330	0.001314
1342	0.0015
1354	0.002027
1366	0.002541
1378	0.002614
1390	0.002159
1402	0.00163
1414	0.00138
1426	0.001151
1438	0.001111
1450	0.001218
1462	0.001391
1474	0.001239
1486	0.000921
1498	0.000556
1510	0.000358
1522	0.00019
1534	0.00014
1546	9.2e-05
1558	0.000112
1570	6.4e-05
1582	9.5e-05
1594	0.000119
1606	0.000136
1618	0.000241
1630	0.00036
1642	0.000584
1654	0.000686
1666	0.000524
1678	0.000331
1690	0.000329
1702	0.000406
1714	0.000344
1726	0.000184
1738	9.6e-05
1750	7.8e-05
1762	6.9e-05
1774	2.5e-05
1786	5.4e-05
1798	1.6e-05
1810	1.3e-05
1822	1.5e-05
1834	2e-05
1846	1.4e-05
1858	2.5e-05
1870	4e-06
1882	3.5e-05
1894	4.3e-05
1906	5.6e-05
1918	6.4e-05
1930	7.1e-05
1942	5.9e-05
1954	5.8e-05
1966	9.8e-05
1978	0.000104
1990	0.00012
2002	0.000109
2014	0.000141
2026	0.000157
2038	0.000151
2050	0.000155
2062	0.000136
2074	0.000107
2086	9.8e-05
2098	8.9e-05
2110	8.1e-05
2122	8.8e-05
2134	7.3e-05
2146	5.5e-05
2158	8.2e-05
2170	8.3e-05
2182	9.8e-05
2194	7.1e-05
2206	7.7e-05
2218	0.000109
2230	0.0001
2242	0.000118
2254	0.000109
2266	9.4e-05
2278	0.000132
2290	0.000121
2302	0.000118
2314	0.000145
2326	0.000119
2338	0.000136
2350	0.00013
2362	0.000133
2374	0.000151
2386	0.000179
2398	0.000153
2410	0.000157
2422	0.000146
2434	0.000128
2446	0.000151
2458	0.000136
2470	0.000119
2482	0.000146
2494	0.000118
2506	0.000145
2518	0.00014
2530	0.000119
2542	0.00013
2554	0.000151
2566	0.000156
2578	0.000131
2590	0.000159
2602	0.000149
2614	0.000158
2626	0.000153
2638	0.000173
2650	0.000176
2662	0.000213
2674	0.000226
2686	0.00023
2698	0.000298
2710	0.000331
2722	0.000368
2734	0.000429
2746	0.00049
2758	0.000523
2770	0.000574
2782	0.000622
2794	0.000729
2806	0.000892
2818	0.001203
2830	0.001617
2842	0.002314
2854	0.003321
2866	0.004531
2878	0.00618
2890	0.006902
2902	0.006913
2914	0.006648
2926	0.007085
2938	0.00801
2950	0.008488
2962	0.009418
2974	0.009964
2986	0.008618
2998	0.005994
3010	0.005165
3022	0.004795
3034	0.003883
3046	0.002331
3058	0.001232
3070	0.000782
3082	0.000621
3094	0.000479
3106	0.000415
3118	0.000363
3130	0.000365
3142	0.000283
3154	0.000313
3166	0.00031
3178	0.000254
3190	0.000197
3202	0.000173
3214	0.00016
3226	0.000126
3238	0.000107
3250	0.000167
3262	0.000135
3274	9.6e-05
3286	0.000114
3298	0.00014
3310	0.000132
3322	6.5e-05
3334	8.7e-05
3346	0.000156
3358	0.000115
3370	0.000181
3382	0.000133
3394	0.000151
3406	0.000131
3418	0.000146
3430	0.000138
3442	0.000179
3454	0.000188
3466	0.000162
3478	0.000224
3490	0.000213
3502	0.000207
3514	0.000164
3526	0.000152
3538	0.000171
3550	0.00023
3562	0.00021
3574	0.000231
3586	0.000237
3598	0.000306
3610	0.0004
3622	0.000658
3634	0.001004
3646	0.001503
3658	0.001806
3670	0.001685
3682	0.001059
3694	0.000677
3706	0.00049
3718	0.000379
3730	0.000268
3742	0.000273
3754	0.000237
3766	0.000278
3778	0.000226
3790	0.0002
3802	0.00021
3814	0.000231
3826	0.000229
3838	0.000289
