Infrared Spectrum: 3-METHYLENECYCLOBUTANECARBOXYLIC ACID
Formula: C6 H8 O2
CAS: 15760-36-8
State: LIQUID
Class: COBLENTZ
Instrument: PERKIN-ELMER
Sampling: TRANSMISSION
Path length: CAPILLARY
Resolution: 4
Origin: ABBOTT LABORATORIES - WASHBURN
MICROMETERS	TRANSMITTANCE
2.036	0.9
2.07579	0.903
2.11557	0.9012
2.15536	0.91
2.19514	0.9134
2.23493	0.918
2.27472	0.921
2.3145	0.926
2.35429	0.9229
2.39407	0.9281
2.43386	0.925
2.47364	0.9249
2.51343	0.935
2.55322	0.928
2.593	0.9213
2.63279	0.931
2.67257	0.931
2.71236	0.925
2.75215	0.923
2.79193	0.921
2.83172	0.9181
2.8715	0.9001
2.91129	0.89
2.95108	0.876
2.99086	0.8458
3.03065	0.7984
3.07043	0.7487
3.11022	0.6901
3.15	0.6301
3.18979	0.5868
3.22958	0.5386
3.26936	0.4839
3.30915	0.4591
3.34893	0.454
3.38872	0.4499
3.42851	0.4149
3.46829	0.4037
3.50808	0.4432
3.54786	0.4997
3.58765	0.5441
3.62743	0.6025
3.66722	0.643
3.70701	0.6301
3.74679	0.6444
3.78658	0.655
3.82636	0.6097
3.86615	0.6103
3.90594	0.6595
3.94572	0.6671
3.98551	0.652
4.02529	0.6852
4.06508	0.7283
4.10487	0.743
4.14465	0.7645
4.18444	0.7829
4.22422	0.792
4.26401	0.8061
4.30379	0.823
4.34358	0.821
4.38337	0.8161
4.42315	0.815
4.46294	0.815
4.50272	0.813
4.54251	0.806
4.5823	0.8099
4.62208	0.811
4.66187	0.81
4.70165	0.805
4.74144	0.798
4.78123	0.793
4.82101	0.795
4.8608	0.793
4.90058	0.797
4.94037	0.788
4.98015	0.7881
5.01994	0.785
5.05973	0.7797
5.09951	0.7813
5.1393	0.7787
5.17908	0.777
5.21887	0.773
5.25866	0.772
5.29844	0.765
5.33823	0.7669
5.37801	0.76
5.4178	0.76
5.45758	0.7554
5.49737	0.7508
5.53716	0.745
5.57694	0.737
5.61673	0.7264
5.65651	0.7066
5.6963	0.6748
5.73609	0.5933
5.77587	0.4762
5.81566	0.3395
5.85544	0.1555
5.89523	0.1051
5.93502	0.2248
5.9748	0.3719
6.01459	0.4876
6.05437	0.6165
6.09416	0.6678
6.13394	0.7049
6.17373	0.7244
6.21352	0.7415
6.2533	0.7527
6.29309	0.758
6.33287	0.765
6.37266	0.7737
6.41245	0.777
6.45223	0.78
6.49202	0.778
6.5318	0.783
6.57159	0.7772
6.61138	0.783
6.65116	0.7738
6.69095	0.777
6.73073	0.7643
6.77052	0.7508
6.8103	0.7424
6.85009	0.7279
6.88988	0.703
6.92966	0.6316
6.96945	0.5627
7.00923	0.5056
7.04902	0.424
7.08881	0.3948
7.12859	0.4324
7.16838	0.5397
7.20816	0.5994
7.24795	0.6628
7.28773	0.6925
7.32752	0.713
7.36731	0.722
7.40709	0.7084
7.44688	0.674
7.48666	0.6288
7.52645	0.5864
7.56624	0.575
7.60602	0.5922
7.64581	0.6261
7.68559	0.6276
7.72538	0.5767
7.76517	0.5382
7.80495	0.5493
7.84474	0.5794
7.88452	0.59
7.92431	0.5812
7.96409	0.5416
8.00388	0.4647
8.04367	0.353
8.08345	0.3075
8.12324	0.3596
8.16302	0.4647
8.20281	0.5182
8.2426	0.5105
8.28238	0.4747
8.32217	0.4672
8.36195	0.502
8.40174	0.5334
8.44153	0.577
8.48131	0.602
8.5211	0.6193
8.56088	0.6311
8.60067	0.635
8.64045	0.6409
8.68024	0.633
8.72003	0.6399
8.75981	0.6476
8.7996	0.6627
8.83938	0.6856
8.87917	0.7105
8.91896	0.7362
8.95874	0.7525
8.99853	0.7642
9.03831	0.7726
9.0781	0.7783
9.11788	0.783
9.15767	0.7848
9.19746	0.79
9.23724	0.792
9.27703	0.788
9.31681	0.795
9.3566	0.7888
9.39639	0.7822
9.43617	0.7797
9.47596	0.7697
9.51574	0.76
9.55553	0.7425
9.59532	0.74
9.6351	0.7306
9.67489	0.7335
9.71467	0.7388
9.75446	0.7524
9.79424	0.758
9.83403	0.76
9.87382	0.758
9.9136	0.7501
9.95339	0.7511
9.99317	0.748
10.033	0.762
10.0727	0.7439
10.1125	0.7427
10.1523	0.7271
10.1921	0.7228
10.2319	0.712
10.2717	0.698
10.3115	0.6856
10.3512	0.6686
10.391	0.658
10.4308	0.643
10.4706	0.6254
10.5104	0.6064
10.5502	0.5997
10.59	0.5837
10.6297	0.574
10.6695	0.5642
10.7093	0.56
10.7491	0.562
10.7889	0.5661
10.8287	0.57
10.8685	0.5777
10.9082	0.587
10.948	0.5924
10.9878	0.5972
11.0276	0.5999
11.0674	0.5974
11.1072	0.5892
11.147	0.5766
11.1867	0.561
11.2265	0.5284
11.2663	0.4829
11.3061	0.427
11.3459	0.3862
11.3857	0.362
11.4255	0.3733
11.4653	0.4239
11.505	0.4971
11.5448	0.5746
11.5846	0.6108
11.6244	0.6432
11.6642	0.6656
11.704	0.6803
11.7438	0.695
11.7835	0.6931
11.8233	0.6978
11.8631	0.702
11.9029	0.705
11.9427	0.707
11.9825	0.7124
12.0223	0.7173
12.062	0.7195
12.1018	0.7251
12.1416	0.723
12.1814	0.727
12.2212	0.73
12.261	0.72
12.3008	0.7342
12.3405	0.736
12.3803	0.7336
12.4201	0.7434
12.4599	0.743
12.4997	0.75
12.5395	0.7406
12.5793	0.733
12.619	0.728
12.6588	0.7174
12.6986	0.7025
12.7384	0.697
12.7782	0.6945
12.818	0.685
12.8578	0.688
12.8975	0.69
12.9373	0.697
12.9771	0.7044
13.0169	0.7177
13.0567	0.725
13.0965	0.7342
13.1363	0.74
13.176	0.7504
13.2158	0.747
13.2556	0.7531
13.2954	0.757
13.3352	0.7595
13.375	0.762
13.4148	0.755
13.4545	0.7575
13.4943	0.762
13.5341	0.762
13.5739	0.753
13.6137	0.7619
13.6535	0.76
13.6933	0.7571
13.733	0.755
13.7728	0.7587
13.8126	0.758
13.8524	0.7512
13.8922	0.752
13.932	0.747
13.9718	0.7503
14.0115	0.75
14.0513	0.7471
14.0911	0.7367
14.1309	0.733
14.1707	0.735
14.2105	0.728
14.2503	0.719
14.29	0.7065
14.3298	0.697
14.3696	0.6773
14.4094	0.65
14.4492	0.6256
14.489	0.6107
14.5288	0.5944
14.5685	0.593
14.6083	0.6025
14.6481	0.605
14.6879	0.613
14.7277	0.617
14.7675	0.618
14.8073	0.62
14.847	0.62
14.8868	0.62
14.9266	0.62
14.9664	0.62
15.0062	0.627
15.046	0.635
15.0858	0.6298
15.1256	0.623
15.1653	0.622
15.2051	0.623
15.2449	0.625
15.2847	0.622
15.3245	0.616
15.3643	0.6126
15.4041	0.612
15.4438	0.617
