Infrared Spectrum: 3,6-Dimethylphenanthrene
Formula: C 16 H 14
CAS: 1576-67-6
State: gas
Instrument: HP-GC/MS/IRD
Origin: NIST Mass Spectrometry Data Center
1/CM	ABSORBANCE
550	0.0002006
562	0.0002448
574	0.0001581
586	0.000238
598	7.48e-05
610	0.0001173
622	0.0002856
634	0.0018683
646	0.0005865
658	0.0001394
670	0.000238
682	0.0002686
694	0.0003213
706	0.0005236
718	0.000238
730	0.0001683
742	0.0003757
754	0.0003451
766	0.0009758
778	0.0007191
790	0.0003247
802	0.0004573
814	0.0008245
826	0.0057885
838	0.017
850	0.0047855
862	0.0015113
874	0.0019227
886	0.0011101
898	0.0003995
910	0.0005032
922	0.0007718
934	0.0006137
946	0.0006137
958	0.0005083
970	0.0002958
982	0.0002176
994	0.0002992
1006	0.0003587
1018	0.0003128
1030	0.0003485
1042	0.0009894
1054	0.0006358
1066	0.0002363
1078	0.0002533
1090	0.0003162
1102	0.0004539
1114	0.0002227
1126	0.0002074
1138	0.0002805
1150	0.0013413
1162	0.0007446
1174	0.0006137
1186	0.0009129
1198	0.0003077
1210	3.57e-05
1222	4.25e-05
1234	0.0003825
1246	0.0005066
1258	0.0001972
1270	0.0002958
1282	0.0004454
1294	0.0003621
1306	0.0002737
1318	0.0003094
1330	0.0003672
1342	0.0004403
1354	0.000544
1366	0.0006324
1378	0.0009146
1390	0.0011084
1402	0.0010166
1414	0.0008653
1426	0.0013617
1438	0.0021505
1450	0.0020825
1462	0.0020196
1474	0.0014365
1486	0.0012155
1498	0.001734
1510	0.0040885
1522	0.0032861
1534	0.001224
1546	0.0010234
1558	0.0007565
1570	0.0006035
1582	0.0010285
1594	0.0015436
1606	0.0031229
1618	0.0033915
1630	0.0024599
1642	0.0011373
1654	0.0005865
1666	0.0004522
1678	0.0005559
1690	0.0003587
1702	0.0002142
1714	0.0004828
1726	0.0008653
1738	0.0004981
1750	0.0003451
1762	0.0003638
1774	0.0005355
1786	0.0005831
1798	0.0002601
1810	0.0001887
1822	0.0002431
1834	0.0001479
1846	0.0001071
1858	0.0001173
1870	0.0001496
1882	0.0004437
1894	0.0009384
1906	0.0007242
1918	0.0003859
1930	0.0001258
1942	7.82e-05
1954	4.59e-05
1966	5.44e-05
1978	4.42e-05
1990	6.12e-05
2002	8.5e-05
2014	6.46e-05
2026	6.46e-05
2038	4.25e-05
2050	8.33e-05
2062	9.01e-05
2074	7.82e-05
2086	7.31e-05
2098	8.5e-05
2110	4.93e-05
2122	4.59e-05
2134	4.08e-05
2146	6.46e-05
2158	6.97e-05
2170	7.48e-05
2182	7.99e-05
2194	4.25e-05
2206	0.0001054
2218	8.84e-05
2230	5.44e-05
2242	6.8e-05
2254	6.12e-05
2266	7.99e-05
2278	4.42e-05
2290	8.84e-05
2302	0.0001343
2314	0.0001343
2326	7.48e-05
2338	8.16e-05
2350	8.33e-05
2362	7.82e-05
2374	8.16e-05
2386	0.0001037
2398	0.0001071
2410	0.0001241
2422	0.0001462
2434	0.0001309
2446	0.0001122
2458	9.86e-05
2470	0.0001003
2482	0.0001037
2494	8.67e-05
2506	0.0001037
2518	9.52e-05
2530	0.0001071
2542	9.01e-05
2554	0.0001292
2566	0.0001139
2578	0.0001428
2590	0.0001547
2602	9.18e-05
2614	0.0001241
2626	0.0001071
2638	0.0001224
2650	8.16e-05
2662	0.0001632
2674	0.0001428
2686	0.0001139
2698	0.0001224
2710	0.0001513
2722	0.000221
2734	0.0004165
2746	0.0004488
2758	0.0002499
2770	0.0002295
2782	0.0002074
2794	0.0003128
2806	0.0004046
2818	0.0004981
2830	0.0006154
2842	0.0009061
2854	0.0015929
2866	0.0030464
2878	0.0037298
2890	0.0031756
2902	0.0032912
2914	0.0042585
2926	0.0073287
2938	0.0070193
2950	0.0034969
2962	0.0028271
2974	0.0026163
2986	0.0025619
2998	0.0027931
3010	0.0048059
3022	0.0070856
3034	0.0065637
3046	0.0079764
3058	0.0103836
3070	0.0068952
3082	0.0033201
3094	0.0014042
3106	0.0008211
3118	0.0006987
3130	0.0006001
3142	0.0004284
3154	0.0002805
3166	0.0002125
3178	0.0002278
3190	0.0001802
3202	0.0001785
3214	0.0001751
3226	0.0001734
3238	0.0001717
3250	0.0001309
3262	0.0001377
3274	0.000119
3286	0.000153
3298	0.0001479
3310	9.86e-05
3322	0.0001547
3334	0.0001632
3346	0.000102
3358	8.67e-05
3370	0.0001598
3382	0.0001173
3394	0.0001003
3406	9.69e-05
3418	0.0001445
3430	0.0001394
3442	0.0001598
3454	0.0001037
3466	9.01e-05
3478	0.0001173
3490	8.33e-05
3502	8.84e-05
3514	6.29e-05
3526	6.29e-05
3538	7.14e-05
3550	3.06e-05
3562	0.000102
3574	8.84e-05
3586	9.52e-05
3598	9.69e-05
3610	9.35e-05
3622	9.52e-05
3634	7.82e-05
3646	0.0001003
3658	0.0001411
3670	0.0001275
3682	0.0001275
3694	0.0001768
3706	0.0001581
3718	0.0001683
3730	0.0001547
3742	0.0001666
3754	0.0001462
3766	0.0001683
3778	0.0002142
3790	6.29e-05
3802	0.0001853
3814	0.000187
3826	0.0002176
3838	0.0001479
