Infrared Spectrum: (Beta-CYCLOPROPYL)-ALANINE
Formula: C6 H11 N O2
CAS: 15785-52-1
State: SOLID (KBr PELLET)
Class: COBLENTZ
Instrument: PERKIN-ELMER
Sampling: TRANSMISSION
Resolution: 4
Origin: ABBOTT LABORATORIES - WASHBURN
MICROMETERS	TRANSMITTANCE
2.017	0.75
2.05668	0.747
2.09637	0.75
2.13605	0.742
2.17574	0.749
2.21542	0.7542
2.2551	0.7552
2.29479	0.755
2.33447	0.75
2.37416	0.7598
2.41384	0.764
2.45353	0.76
2.49321	0.764
2.53289	0.765
2.57258	0.772
2.61226	0.7669
2.65195	0.7669
2.69163	0.7591
2.73131	0.7255
2.771	0.655
2.81068	0.5738
2.85037	0.4738
2.89005	0.4301
2.92973	0.4508
2.96942	0.4979
3.0091	0.518
3.04879	0.496
3.08847	0.4177
3.12815	0.3467
3.16784	0.3003
3.20752	0.2626
3.24721	0.254
3.28689	0.252
3.32658	0.2442
3.36626	0.23
3.40594	0.2469
3.44563	0.289
3.48531	0.323
3.525	0.373
3.56468	0.4002
3.60436	0.426
3.64405	0.4431
3.68373	0.4509
3.72342	0.4698
3.7631	0.4681
3.80278	0.473
3.84247	0.4799
3.88215	0.5009
3.92184	0.519
3.96152	0.538
4.00121	0.563
4.04089	0.5811
4.08057	0.6044
4.12026	0.631
4.15994	0.6557
4.19963	0.6689
4.23931	0.6839
4.27899	0.6958
4.31868	0.705
4.35836	0.704
4.39805	0.709
4.43773	0.71
4.47741	0.71
4.5171	0.709
4.55678	0.7048
4.59647	0.6989
4.63615	0.7
4.67584	0.6989
4.71552	0.705
4.7552	0.7039
4.79489	0.707
4.83457	0.709
4.87426	0.71
4.91394	0.717
4.95362	0.722
4.99331	0.7251
5.03299	0.7318
5.07268	0.734
5.11236	0.7348
5.15204	0.742
5.19173	0.7424
5.23141	0.747
5.2711	0.7476
5.31078	0.7492
5.35046	0.7492
5.39015	0.7538
5.42983	0.755
5.46952	0.752
5.5092	0.7492
5.54889	0.747
5.58857	0.745
5.62825	0.739
5.66794	0.7356
5.70762	0.7245
5.74731	0.7154
5.78699	0.705
5.82667	0.6901
5.86636	0.661
5.90604	0.6077
5.94573	0.5169
5.98541	0.3603
6.02509	0.2337
6.06478	0.1448
6.10446	0.104
6.14415	0.111
6.18383	0.116
6.22352	0.1067
6.2632	0.1012
6.30288	0.141
6.34257	0.2134
6.38225	0.289
6.42194	0.3578
6.46162	0.3693
6.5013	0.3188
6.54099	0.2529
6.58067	0.1833
6.62036	0.166
6.66004	0.1908
6.69972	0.2636
6.73941	0.3402
6.77909	0.3791
6.81878	0.397
6.85846	0.4479
6.89815	0.4424
6.93783	0.4204
6.97751	0.4076
7.0172	0.3478
7.05688	0.2852
7.09657	0.2676
7.13625	0.2947
7.17593	0.354
7.21562	0.3865
7.2553	0.4382
7.29499	0.4734
7.33467	0.4192
7.37435	0.3464
7.41404	0.312
7.45372	0.3526
7.49341	0.368
7.53309	0.3615
7.57277	0.3969
7.61246	0.448
7.65214	0.4696
7.69183	0.4934
7.73151	0.5626
7.7712	0.6055
7.81088	0.6328
7.85056	0.6401
7.89025	0.639
7.92993	0.629
7.96962	0.629
8.0093	0.6183
8.04898	0.6145
8.08867	0.6324
8.12835	0.662
8.16804	0.6719
8.20772	0.6807
8.2474	0.687
8.28709	0.6881
8.32677	0.691
8.36646	0.6868
8.40614	0.6876
8.44583	0.677
8.48551	0.6737
8.52519	0.6607
8.56488	0.652
8.60456	0.6412
8.64425	0.6227
8.68393	0.6145
8.72361	0.607
8.7633	0.6
8.80298	0.5928
8.84267	0.573
8.88235	0.556
8.92203	0.5713
8.96172	0.5931
9.0014	0.609
9.04109	0.617
9.08077	0.6237
9.12046	0.6364
9.16014	0.644
9.19982	0.648
9.23951	0.654
9.27919	0.6517
9.31888	0.6435
9.35856	0.6274
9.39824	0.617
9.43793	0.617
9.47761	0.621
9.5173	0.6307
9.55698	0.631
9.59666	0.6384
9.63635	0.6515
9.67603	0.652
9.71572	0.6453
9.7554	0.6243
9.79508	0.5971
9.83477	0.5996
9.87445	0.6391
9.91414	0.6609
9.95382	0.6626
9.99351	0.6656
10.0332	0.661
10.0729	0.6627
10.1126	0.6542
10.1522	0.644
10.1919	0.6413
10.2316	0.651
10.2713	0.6572
10.311	0.664
10.3507	0.6639
10.3903	0.672
10.43	0.6884
10.4697	0.697
10.5094	0.7047
10.5491	0.704
10.5888	0.7
10.6285	0.6882
10.6681	0.6759
10.7078	0.6672
10.7475	0.671
10.7872	0.674
10.8269	0.674
10.8666	0.669
10.9062	0.661
10.9459	0.659
10.9856	0.6639
11.0253	0.667
11.065	0.6739
11.1047	0.6749
11.1443	0.684
11.184	0.6871
11.2237	0.6922
11.2634	0.694
11.3031	0.692
11.3428	0.692
11.3824	0.699
11.4221	0.697
11.4618	0.702
11.5015	0.6958
11.5412	0.692
11.5809	0.689
11.6206	0.682
11.6602	0.672
11.6999	0.6805
11.7396	0.6914
11.7793	0.6882
11.819	0.6922
11.8587	0.7044
11.8983	0.699
11.938	0.705
11.9777	0.6997
12.0174	0.6903
12.0571	0.6836
12.0968	0.676
12.1364	0.6719
12.1761	0.676
12.2158	0.689
12.2555	0.6783
12.2952	0.6653
12.3349	0.659
12.3746	0.6652
12.4142	0.6797
12.4539	0.7014
12.4936	0.7086
12.5333	0.7199
12.573	0.719
12.6127	0.7192
12.6523	0.719
12.692	0.7163
12.7317	0.7091
12.7714	0.7145
12.8111	0.7031
12.8508	0.705
12.8904	0.697
12.9301	0.699
12.9698	0.699
13.0095	0.704
13.0492	0.71
13.0889	0.7165
13.1285	0.7157
13.1682	0.7146
13.2079	0.72
13.2476	0.717
13.2873	0.722
13.327	0.725
13.3667	0.7274
13.4063	0.729
13.446	0.73
13.4857	0.735
13.5254	0.7324
13.5651	0.737
13.6048	0.74
13.6444	0.74
13.6841	0.739
13.7238	0.737
13.7635	0.737
13.8032	0.7281
13.8429	0.7188
13.8825	0.7089
13.9222	0.696
13.9619	0.692
14.0016	0.696
14.0413	0.692
14.081	0.694
14.1207	0.696
14.1603	0.6914
14.2	0.697
14.2397	0.6916
14.2794	0.694
14.3191	0.696
14.3588	0.694
14.3984	0.6919
14.4381	0.6915
14.4778	0.684
14.5175	0.6803
14.5572	0.6716
14.5969	0.6629
14.6365	0.6576
14.6762	0.657
14.7159	0.6607
14.7556	0.662
14.7953	0.669
14.835	0.671
14.8747	0.671
14.9143	0.667
14.954	0.6634
14.9937	0.6782
15.0334	0.669
15.0731	0.671
15.1128	0.669
15.1524	0.6736
15.1921	0.6712
15.2318	0.674
15.2715	0.6738
15.3112	0.671
15.3509	0.672
15.3905	0.672
