Infrared Spectrum: 5-(3-Aminophenyl)oxazole
Formula: C 9 H 8 N 2 O
CAS: 157837-31-5
State: gas
Origin: EPA-IR VAPOR PHASE LIBRARY
1/CM	ABSORBANCE
549.8	0.003612
559.445	0.003992
569.09	0.005012
578.734	0.005682
588.379	0.004972
598.024	0.005512
607.669	0.004952
617.313	0.006202
626.958	0.011862
636.603	0.019662
646.248	0.017452
655.893	0.018702
665.537	0.025792
675.182	0.032022
684.827	0.033882
694.472	0.022432
704.116	0.011702
713.761	0.007722
723.406	0.006482
733.051	0.006002
742.695	0.005882
752.34	0.006852
761.985	0.012952
771.63	0.021752
781.275	0.024132
790.919	0.015772
800.564	0.011352
810.209	0.014862
819.854	0.020472
829.498	0.015002
839.143	0.011262
848.788	0.017922
858.433	0.026232
868.078	0.017092
877.722	0.007622
887.367	0.004992
897.012	0.004542
906.657	0.004342
916.301	0.004322
925.946	0.004552
935.591	0.005952
945.236	0.012132
954.88	0.015112
964.525	0.010502
974.17	0.005722
983.815	0.005242
993.46	0.004872
1003.1	0.003422
1012.75	0.003192
1022.39	0.003932
1032.04	0.003962
1041.68	0.006362
1051.33	0.005712
1060.97	0.005992
1070.62	0.007472
1080.26	0.010922
1089.91	0.018502
1099.55	0.039902
1109.2	0.037362
1118.84	0.007982
1128.49	0.002922
1138.13	0.002072
1147.78	0.0008794
1157.42	0.002302
1167.07	0.003522
1176.71	0.0011618
1186.36	0.002222
1196	0.00048121
1205.64	0.004292
1215.29	0.007182
1224.93	0.009272
1234.58	0.009702
1244.22	0.004022
1253.87	0.002692
1263.51	0.004152
1273.16	0.004882
1282.8	0.006972
1292.45	0.013132
1302.09	0.016652
1311.74	0.012712
1321.38	0.009842
1331.03	0.008152
1340.67	0.004132
1350.32	0.002902
1359.96	0.002532
1369.61	0.001862
1379.25	0.0012378
1388.9	0.0011926
1398.54	0.001782
1408.18	0.002242
1417.83	0.003202
1427.47	0.005132
1437.12	0.007382
1446.76	0.010082
1456.41	0.011712
1466.05	0.011602
1475.7	0.016402
1485.34	0.025442
1494.99	0.027282
1504.63	0.025442
1514.28	0.019272
1523.92	0.010402
1533.57	0.007362
1543.21	0.006712
1552.86	0.007132
1562.5	0.008712
1572.15	0.017002
1581.79	0.027992
1591.44	0.027572
1601.08	0.026802
1610.73	0.037392
1620.37	0.055112
1630.01	0.056002
1639.66	0.035602
1649.3	0.018802
1658.95	0.010152
1668.59	0.005452
1678.24	0.003832
1687.88	0.003012
1697.53	0.002542
1707.17	0.002372
1716.82	0.002642
1726.46	0.002602
1736.11	0.002622
1745.75	0.002192
1755.4	0.001502
1765.04	0.001184
1774.69	0.0011491
1784.33	0.0009449
1793.98	0.0009414
1803.62	0.0013472
1813.27	0.0013091
1822.91	0.001552
1832.55	0.001482
1842.2	0.0013496
1851.84	0.0012701
1861.49	0.001098
1871.13	0.0008985
1880.78	0.0010711
1890.42	0.001622
1900.07	0.001562
1909.71	0.002222
1919.36	0.002212
1929	0.001512
1938.65	0.0012097
1948.29	0.0012124
1957.94	0.0011034
1967.58	0.0011141
1977.23	0.0009439
1986.87	0.0010736
1996.52	0.001175
2006.16	0.0010658
2015.81	0.0009688
2025.45	0.001038
2035.1	0.0012159
2044.74	0.0010417
2054.38	0.0012919
2064.03	0.0010541
2073.67	0.0010024
2083.32	0.0010378
2092.96	0.0007322
2102.61	0.0007883
2112.25	0.0007111
2121.9	0.0007536
2131.54	0.000815
2141.19	0.00079
2150.83	0.0013284
2160.48	0.0013452
2170.12	0.0013569
2179.77	0.0013193
2189.41	0.001462
2199.06	0.001732
2208.7	0.0013193
2218.35	0.0008365
2227.99	0.0011303
2237.64	0.0007802
2247.28	0.0006345
2256.92	0.0009634
2266.57	0.0011126
2276.21	0.0010974
2285.86	0.0006784
2295.5	0.000906
2305.15	0.0006585
2314.79	0.0012041
2324.44	0.0008939
2334.08	0.0010344
2343.73	0.0010186
2353.37	0.0010191
2363.02	0.0010561
2372.66	0.0008698
2382.31	0.0010186
2391.95	0.0009268
2401.6	0.001472
2411.24	0.0009936
2420.89	0.0009824
2430.53	0.0009253
2440.18	0.0009097
2449.82	0.0009215
2459.47	0.0009485
2469.11	0.001079
2478.75	0.000763
2488.4	0.0010723
2498.04	0.000903
2507.69	0.0008384
2517.33	0.0010408
2526.98	0.0010579
2536.62	0.000646
2546.27	0.0011685
2555.91	0.0007527
2565.56	0.0010466
2575.2	0.0009552
2584.85	0.001156
2594.49	0.0010035
2604.14	0.001492
2613.78	0.0013106
2623.43	0.0014255
2633.07	0.00046975
2642.72	0.0010359
2652.36	0.001542
2662.01	0.0009329
2671.65	0.0010937
2681.29	0.0010545
2690.94	0.0010231
2700.58	0.001502
2710.23	0.0010309
2719.87	0.0012591
2729.52	0.0011074
2739.16	0.0010582
2748.81	0.0012521
2758.45	0.0006418
2768.1	0.001132
2777.74	0.0010318
2787.39	0.000819
2797.03	0.0007212
2806.68	0.0009411
2816.32	0.00048665
2825.97	0.0008636
2835.61	0.0008505
2845.26	0.0007653
2854.9	0.0007043
2864.55	0.0008902
2874.19	0.001452
2883.84	0.0006961
2893.48	0.0009967
2903.12	0.0010289
2912.77	0.0003592
2922.41	0.0011338
2932.06	0.0007042
2941.7	0.0011866
2951.35	0.0011883
2960.99	0.001572
2970.64	0.0010487
2980.28	0.001702
2989.93	0.0012174
2999.57	0.001602
3009.22	0.002662
3018.86	0.004362
3028.51	0.006262
3038.15	0.007782
3047.8	0.009762
3057.44	0.009632
3067.09	0.008082
3076.73	0.006592
3086.38	0.005732
3096.02	0.003342
3105.67	0.002582
3115.31	0.002312
3124.95	0.002422
3134.6	0.002652
3144.24	0.002042
3153.89	0.002222
3163.53	0.001772
3173.18	0.0013325
3182.82	0.0011317
3192.47	0.0011242
3202.11	0.0013296
3211.76	0.0013935
3221.4	0.0014061
3231.05	0.0013813
3240.69	0.001592
3250.34	0.001672
3259.98	0.0010116
3269.63	0.0010362
3279.27	0.0008944
3288.92	0.00050539
3298.56	0.0009864
3308.21	0.0007291
3317.85	0.001522
3327.49	0.0011031
3337.14	0.0009026
3346.78	0.000326
3356.43	0.0010574
3366.07	0.0007567
3375.72	0.001692
3385.36	0.002612
3395.01	0.003522
3404.65	0.005822
3414.3	0.006122
3423.94	0.005162
3433.59	0.003582
3443.23	0.002012
3452.88	0.001442
3462.52	0.0012432
3472.17	0.002082
3481.81	0.004302
3491.46	0.003922
3501.1	0.004252
3510.75	0.003912
3520.39	0.003012
3530.04	0.001722
3539.68	0.0006481
3549.32	0.0005706
3558.97	0.0007499
3568.61	0.0009296
3578.26	0.0009245
3587.9	0.0008427
3597.55	0.0004175
3607.19	0.0008708
3616.84	0.0009915
3626.48	0.0009526
3636.13	0.0008646
3645.77	0.000737
3655.42	0.0004214
3665.06	0.0010542
3674.71	0.0007548
3684.35	0.000646
3694	0.0005891
3703.64	0.0008914
3713.29	0.0010592
3722.93	0.000438521
3732.58	0.001472
3742.22	0.0005353
3751.86	0.0009919
3761.51	0.0007823
3771.15	0.0009147
3780.8	0.0006301
3790.44	0.0011964
3800.09	0.0008057
3809.73	0.0010538
3819.38	0.0012926
3829.02	0.0009933
3838.67	0.0010826
3848.31	0.0012745
3857.96	0.002012
3867.6	0.0013226
3877.25	0.001702
3886.89	0.0009421
3896.54	0.0010071
3906.18	0.001562
3915.83	0.0005995
3925.47	0.0011786
3935.12	0.0009606
3944.76	0.001652
3954.41	0.001852
3964.05	0.0010007
3973.69	0.0013349
3983.34	0.0013832
3992.98	0.0007922
