Infrared Spectrum: 5,9-CYCLODODECADIEN-1,2-DIOL
Formula: C12 H20 O2
CAS: 15786-26-2
State: SOLID (KBr PELLET)
Melting point: 172 C
Class: COBLENTZ
Instrument: Not specified, most likely a prism, grating, or hybrid spectrometer.
Sampling: TRANSMISSION
Resolution: 4
Origin: TENNESSEE EASTMAN COMPANY, RESEARCH LABORATORIES
MICROMETERS	TRANSMITTANCE
2.055	0.965
2.09588	0.962
2.13676	0.964
2.17764	0.969
2.21852	0.976
2.2594	0.97
2.30028	0.953
2.34116	0.95
2.38204	0.957
2.42291	0.957
2.46379	0.955
2.50467	0.955
2.54555	0.955
2.58643	0.955
2.62731	0.953
2.66819	0.952
2.70907	0.936
2.74995	0.839
2.79083	0.759
2.83171	0.61
2.87259	0.329
2.91347	0.08
2.95435	0.029
2.99523	0.023
3.03611	0.02
3.07698	0.018
3.11786	0.037
3.15874	0.172
3.19962	0.389
3.2405	0.595
3.28138	0.641
3.32226	0.464
3.36314	0.141
3.40402	0.025
3.4449	0.085
3.48578	0.16
3.52666	0.373
3.56754	0.624
3.60842	0.663
3.6493	0.68
3.69018	0.697
3.73106	0.728
3.77193	0.749
3.81281	0.752
3.85369	0.783
3.89457	0.827
3.93545	0.849
3.97633	0.86
4.01721	0.863
4.05809	0.872
4.09897	0.88
4.13985	0.882
4.18073	0.894
4.22161	0.907
4.26249	0.902
4.30337	0.895
4.34425	0.901
4.38513	0.923
4.426	0.926
4.46688	0.928
4.50776	0.931
4.54864	0.931
4.58952	0.928
4.6304	0.928
4.67128	0.93
4.71216	0.93
4.75304	0.93
4.79392	0.931
4.8348	0.931
4.87568	0.931
4.91656	0.931
4.95744	0.931
4.99832	0.933
5.0392	0.933
5.08008	0.931
5.12095	0.93
5.16183	0.93
5.20271	0.933
5.24359	0.933
5.28447	0.933
5.32535	0.933
5.36623	0.933
5.40711	0.93
5.44799	0.902
5.48887	0.899
5.52975	0.911
5.57063	0.912
5.61151	0.907
5.65239	0.885
5.69327	0.87
5.73415	0.861
5.77502	0.841
5.8159	0.829
5.85678	0.819
5.89766	0.802
5.93854	0.773
5.97942	0.733
6.0203	0.721
6.06118	0.667
6.10206	0.708
6.14294	0.732
6.18382	0.745
6.2247	0.791
6.26558	0.805
6.30646	0.813
6.34734	0.802
6.38822	0.788
6.4291	0.784
6.46997	0.771
6.51085	0.779
6.55173	0.767
6.59261	0.755
6.63349	0.73
6.67437	0.687
6.71525	0.609
6.75613	0.525
6.79701	0.353
6.83789	0.238
6.87877	0.071
6.91965	0.078
6.96053	0.124
7.00141	0.249
7.04229	0.249
7.08317	0.177
7.12404	0.16
7.16492	0.274
7.2058	0.39
7.24668	0.45
7.28756	0.39
7.32844	0.469
7.36932	0.513
7.4102	0.361
7.45108	0.36
7.49196	0.37
7.53284	0.336
7.57372	0.346
7.6146	0.411
7.65548	0.365
7.69636	0.278
7.73724	0.325
7.77812	0.406
7.81899	0.443
7.85987	0.459
7.90075	0.406
7.94163	0.382
7.98251	0.382
8.02339	0.455
8.06427	0.561
8.10515	0.602
8.14603	0.609
8.18691	0.544
8.22779	0.462
8.26867	0.385
8.30955	0.279
8.35043	0.245
8.39131	0.192
8.43219	0.146
8.47306	0.356
8.51394	0.547
8.55482	0.602
8.5957	0.619
8.63658	0.622
8.67746	0.602
8.71834	0.493
8.75922	0.346
8.8001	0.334
8.84098	0.209
8.88186	0.334
8.92274	0.472
8.96362	0.489
9.0045	0.382
9.04538	0.3
9.08626	0.435
9.12714	0.518
9.16801	0.491
9.20889	0.317
9.24977	0.365
9.29065	0.39
9.33153	0.271
9.37241	0.238
9.41329	0.192
9.45417	0.095
9.49505	0.102
9.53593	0.114
9.57681	0.122
9.61769	0.172
9.65857	0.138
9.69945	0.061
9.74033	0.076
9.78121	0.146
9.82208	0.088
9.86296	0.078
9.90384	0.186
9.94472	0.232
9.9856	0.266
10.0265	0.245
10.0674	0.145
10.1082	0.04
10.1491	0.023
10.19	0.025
10.2309	0.044
10.2718	0.122
10.3126	0.151
10.3535	0.158
10.3944	0.344
10.4353	0.547
10.4762	0.639
10.517	0.682
10.5579	0.706
10.5988	0.728
10.6397	0.738
10.6806	0.744
10.7214	0.755
10.7623	0.764
10.8032	0.769
10.8441	0.767
10.8849	0.726
10.9258	0.653
10.9667	0.549
11.0076	0.52
11.0485	0.459
11.0893	0.36
11.1302	0.469
11.1711	0.581
11.212	0.566
11.2529	0.44
11.2937	0.38
11.3346	0.54
11.3755	0.616
11.4164	0.658
11.4573	0.689
11.4981	0.697
11.539	0.67
11.5799	0.51
11.6208	0.281
11.6617	0.25
11.7025	0.259
11.7434	0.307
11.7843	0.373
11.8252	0.595
11.8661	0.689
11.9069	0.735
11.9478	0.75
11.9887	0.755
12.0296	0.745
12.0705	0.694
12.1113	0.561
12.1522	0.46
12.1931	0.474
12.234	0.614
12.2748	0.686
12.3157	0.715
12.3566	0.726
12.3975	0.728
12.4384	0.723
12.4792	0.713
12.5201	0.665
12.561	0.59
12.6019	0.539
12.6428	0.581
12.6836	0.653
12.7245	0.686
12.7654	0.692
12.8063	0.696
12.8472	0.694
12.888	0.682
12.9289	0.67
12.9698	0.66
13.0107	0.646
13.0516	0.634
13.0924	0.617
13.1333	0.598
13.1742	0.58
13.2151	0.556
13.256	0.529
13.2968	0.491
13.3377	0.457
13.3786	0.431
13.4195	0.385
13.4604	0.332
13.5012	0.281
13.5421	0.249
13.583	0.232
13.6239	0.242
13.6647	0.276
13.7056	0.291
13.7465	0.303
13.7874	0.298
13.8283	0.29
13.8691	0.267
13.91	0.249
13.9509	0.213
13.9918	0.191
14.0327	0.155
14.0735	0.134
14.1144	0.104
14.1553	0.087
14.1962	0.08
14.2371	0.078
14.2779	0.085
14.3188	0.11
14.3597	0.148
14.4006	0.175
14.4415	0.201
14.4823	0.215
14.5232	0.226
14.5641	0.235
14.605	0.24
14.6459	0.242
14.6867	0.24
14.7276	0.233
14.7685	0.225
14.8094	0.208
14.8503	0.201
14.8911	0.196
14.932	0.196
14.9729	0.206
15.0138	0.233
15.0546	0.249
15.0955	0.259
15.1364	0.278
15.1773	0.288
15.2182	0.298
15.259	0.307
15.2999	0.315
15.3408	0.322
15.3817	0.327
15.4226	0.334
15.4634	0.337
15.5043	0.343
15.5452	0.349
15.5861	0.353
15.627	0.356
15.6678	0.358
15.7087	0.361
15.7496	0.365
15.7905	0.366
15.8314	0.37
15.8722	0.372
15.9131	0.373
15.954	0.377
15.9949	0.378
