Infrared Spectrum: .alpha.-Fluorophenylacetic acid
Formula: C 8 H 7 F O 2
CAS: 1578-63-8
State: gas
Origin: EPA-IR VAPOR PHASE LIBRARY
1/CM	ABSORBANCE
549.8	0.008535
559.445	0.009415
569.09	0.008045
578.734	0.006605
588.379	0.008205
598.024	0.016545
607.669	0.025055
617.313	0.019105
626.958	0.009185
636.603	0.009365
646.248	0.010125
655.893	0.008245
665.537	0.006885
675.182	0.006725
684.827	0.011225
694.472	0.014825
704.116	0.012855
713.761	0.011395
723.406	0.010225
733.051	0.008475
742.695	0.006915
752.34	0.008015
761.985	0.006075
771.63	0.004615
781.275	0.002695
790.919	0.001765
800.564	0.001465
810.209	0.001308
819.854	0.0008202
829.498	0.001495
839.143	0.001915
848.788	0.002305
858.433	0.002185
868.078	0.002685
877.722	0.003455
887.367	0.004775
897.012	0.004775
906.657	0.003975
916.301	0.003375
925.946	0.003075
935.591	0.002105
945.236	0.002225
954.88	0.001645
964.525	0.001895
974.17	0.002205
983.815	0.002055
993.46	0.003495
1003.1	0.004595
1012.75	0.005345
1022.39	0.007235
1032.04	0.008945
1041.68	0.011755
1051.33	0.016905
1060.97	0.018405
1070.62	0.017085
1080.26	0.015745
1089.91	0.016215
1099.55	0.014055
1109.2	0.016405
1118.84	0.019615
1128.49	0.020645
1138.13	0.019395
1147.78	0.021085
1157.42	0.021095
1167.07	0.015795
1176.71	0.011085
1186.36	0.009825
1196	0.009675
1205.64	0.007535
1215.29	0.005685
1224.93	0.004055
1234.58	0.004405
1244.22	0.004225
1253.87	0.005805
1263.51	0.006685
1273.16	0.007385
1282.8	0.007525
1292.45	0.008565
1302.09	0.010065
1311.74	0.012795
1321.38	0.015155
1331.03	0.015905
1340.67	0.014095
1350.32	0.011295
1359.96	0.009805
1369.61	0.008825
1379.25	0.007365
1388.9	0.005105
1398.54	0.003285
1408.18	0.002505
1417.83	0.002155
1427.47	0.002075
1437.12	0.002275
1446.76	0.003285
1456.41	0.003835
1466.05	0.002835
1475.7	0.001855
1485.34	0.002075
1494.99	0.003555
1504.63	0.003105
1514.28	0.0014619
1523.92	0.0011276
1533.57	0.0010805
1543.21	0.0009946
1552.86	0.0008517
1562.5	0.0010495
1572.15	0.0009456
1581.79	0.0011285
1591.44	0.0013485
1601.08	0.0013867
1610.73	0.0013021
1620.37	0.0009815
1630.01	0.0009955
1639.66	0.0010623
1649.3	0.0008676
1658.95	0.001106
1668.59	0.0011422
1678.24	0.0009637
1687.88	0.0010545
1697.53	0.0010742
1707.17	0.001535
1716.82	0.002185
1726.46	0.003025
1736.11	0.004625
1745.75	0.007405
1755.4	0.011535
1765.04	0.017615
1774.69	0.025605
1784.33	0.032945
1793.98	0.038415
1803.62	0.039745
1813.27	0.029315
1822.91	0.017035
1832.55	0.010095
1842.2	0.006085
1851.84	0.004095
1861.49	0.002855
1871.13	0.002145
1880.78	0.001775
1890.42	0.001485
1900.07	0.0014222
1909.71	0.0013124
1919.36	0.000996
1929	0.0011058
1938.65	0.0011251
1948.29	0.0012237
1957.94	0.0013231
1967.58	0.001283
1977.23	0.0008214
1986.87	0.0006369
1996.52	0.0007562
2006.16	0.0007772
2015.81	0.0006152
2025.45	0.00049031
2035.1	0.0007456
2044.74	0.000789
2054.38	0.0006986
2064.03	0.0008122
2073.67	0.0007095
2083.32	0.0008005
2092.96	0.0007156
2102.61	0.00056389
2112.25	0.00048721
2121.9	0.000671
2131.54	0.00055564
2141.19	0.0006814
2150.83	0.0006608
2160.48	0.00049107
2170.12	0.0007579
2179.77	0.00050925
2189.41	0.0006109
2199.06	0.0007675
2208.7	0.0006703
2218.35	0.0006711
2227.99	0.0006681
2237.64	0.000618
2247.28	0.0006595
2256.92	0.0006543
2266.57	0.0006295
2276.21	0.0007602
2285.86	0.000853
2295.5	0.0010568
2305.15	0.0013484
2314.79	0.001775
2324.44	0.001865
2334.08	0.001975
2343.73	0.001735
2353.37	0.001935
2363.02	0.002235
2372.66	0.001995
2382.31	0.0011344
2391.95	0.000832
2401.6	0.0006202
2411.24	0.00052431
2420.89	0.0006144
2430.53	0.0006338
2440.18	0.0006765
2449.82	0.0005775
2459.47	0.0004193
2469.11	0.0005864
2478.75	0.0007237
2488.4	0.0007591
2498.04	0.0006511
2507.69	0.00050384
2517.33	0.0006156
2526.98	0.00046857
2536.62	0.000341
2546.27	0.00055118
2555.91	0.00052994
2565.56	0.0006081
2575.2	0.0007166
2584.85	0.000465898
2594.49	0.0004062
2604.14	0.00055288
2613.78	0.000345
2623.43	0.00033
2633.07	0.00053031
2642.72	0.00051398
2652.36	0.00049048
2662.01	0.0006532
2671.65	0.00054338
2681.29	0.00053672
2690.94	0.0007181
2700.58	0.00055586
2710.23	0.00036
2719.87	0.00052646
2729.52	0.0004458
2739.16	0.000335
2748.81	0.00052759
2758.45	0.0004203
2768.1	0.000321
2777.74	0.000347
2787.39	0.000664
2797.03	0.0003973
2806.68	0.0004128
2816.32	0.0006864
2825.97	0.0006042
2835.61	0.00052103
2845.26	0.00056414
2854.9	0.0004388
2864.55	0.0006963
2874.19	0.00049605
2883.84	0.00055881
2893.48	0.0007847
2903.12	0.0007935
2912.77	0.000966
2922.41	0.0009784
2932.06	0.001525
2941.7	0.002035
2951.35	0.002525
2960.99	0.002255
2970.64	0.0013801
2980.28	0.0011903
2989.93	0.0008899
2999.57	0.0009801
3009.22	0.0010006
3018.86	0.001735
3028.51	0.002885
3038.15	0.004535
3047.8	0.005015
3057.44	0.004175
3067.09	0.005435
3076.73	0.006885
3086.38	0.005105
3096.02	0.003565
3105.67	0.002575
3115.31	0.001975
3124.95	0.0013121
3134.6	0.0008689
3144.24	0.000307
3153.89	0.0007214
3163.53	0.0003655
3173.18	0.0006573
3182.82	0.000354
3192.47	0.0003871
3202.11	0.0007689
3211.76	0.0005705
3221.4	0.000328
3231.05	3e-05
3240.69	0.000353
3250.34	0.000467171
3259.98	0.000256
3269.63	0.00048518
3279.27	0.0003792
3288.92	0.000132
3298.56	0.000206
3308.21	0.000352
3317.85	0.000231
3327.49	0.000327
3337.14	0.000327
3346.78	0.00036
3356.43	0.000244
3366.07	0.000345
3375.72	0.000308
3385.36	0.0006109
3395.01	0.00052155
3404.65	0.0004264
3414.3	0.000163
3423.94	0.000127
3433.59	0.0004458
3443.23	0.000349
3452.88	0.0004287
3462.52	0.0006275
3472.17	0.0004451
3481.81	0.00041
3491.46	0.0008339
3501.1	0.0005711
3510.75	0.0004415
3520.39	0.0006493
3530.04	0.0010987
3539.68	0.001955
3549.32	0.003015
3558.97	0.008755
3568.61	0.021995
3578.26	0.024395
3587.9	0.011195
3597.55	0.003595
3607.19	0.0014029
3616.84	0.0011771
3626.48	0.00067
3636.13	0.0010139
3645.77	0.00051556
3655.42	0.00049172
3665.06	0.00052946
3674.71	0.000302
3684.35	0.00054745
3694	0.0003874
3703.64	0.00047922
3713.29	0.00047866
3722.93	0.0005945
3732.58	0.00053109
3742.22	0.0003913
3751.86	0.00023
3761.51	0.0007218
3771.15	0.0006054
3780.8	0.000211
3790.44	0.00054701
3800.09	0.000371
3809.73	0.0003813
3819.38	0.00028
3829.02	0.000286
3838.67	0.0004086
3848.31	0.00049973
3857.96	0.000307
3867.6	0.000172
3877.25	0.0005815
3886.89	0.000338
3896.54	0.0004012
3906.18	0.0003917
3915.83	0.000198
3925.47	0.0004492
3935.12	0.00052092
3944.76	0.0005335
3954.41	0.000229
3964.05	0.0005922
3973.69	0.0003727
3983.34	0.0004518
3992.98	0.00054176
