Infrared Spectrum: O-PHENETHIDINE, 5-CHLORO
Formula: C8 H10 Cl N O
CAS: 15793-48-3
State: SOLID (NUJOL MULL)
Class: COBLENTZ
Instrument: Not specified, most likely a prism, grating, or hybrid spectrometer.
Sampling: TRANSMISSION
Resolution: 4
Origin: TENNESSEE EASTMAN COMPANY, RESEARCH LABORATORIES
MICROMETERS	TRANSMITTANCE
2.038	0.637
2.07779	0.64
2.11758	0.64
2.15737	0.64
2.19715	0.64
2.23694	0.642
2.27673	0.632
2.31652	0.618
2.35631	0.618
2.3961	0.62
2.43589	0.622
2.47567	0.618
2.51546	0.62
2.55525	0.62
2.59504	0.625
2.63483	0.627
2.67462	0.632
2.71441	0.638
2.75419	0.643
2.79398	0.643
2.83377	0.643
2.87356	0.618
2.91335	0.286
2.95314	0.512
2.99293	0.274
3.03271	0.52
3.0725	0.565
3.11229	0.594
3.15208	0.574
3.19187	0.542
3.23166	0.544
3.27145	0.507
3.31123	0.484
3.35102	0.276
3.39081	0.094
3.4306	0.074
3.47039	0.108
3.51018	0.176
3.54997	0.562
3.58975	0.628
3.62954	0.64
3.66933	0.652
3.70912	0.642
3.74891	0.65
3.7887	0.653
3.82849	0.652
3.86828	0.657
3.90806	0.672
3.94785	0.678
3.98764	0.678
4.02743	0.688
4.06722	0.69
4.10701	0.702
4.1468	0.7
4.18658	0.698
4.22637	0.7
4.26616	0.703
4.30595	0.702
4.34574	0.705
4.38553	0.712
4.42532	0.713
4.4651	0.717
4.50489	0.718
4.54468	0.72
4.58447	0.722
4.62426	0.723
4.66405	0.725
4.70384	0.727
4.74362	0.727
4.78341	0.733
4.8232	0.738
4.86299	0.738
4.90278	0.738
4.94257	0.737
4.98236	0.737
5.02214	0.722
5.06193	0.723
5.10172	0.73
5.14151	0.738
5.1813	0.737
5.22109	0.745
5.26088	0.757
5.30066	0.758
5.34045	0.76
5.38024	0.76
5.42003	0.76
5.45982	0.76
5.49961	0.685
5.5394	0.712
5.57918	0.748
5.61897	0.762
5.65876	0.763
5.69855	0.762
5.73834	0.762
5.77813	0.765
5.81792	0.767
5.8577	0.75
5.89749	0.732
5.93728	0.693
5.97707	0.727
6.01686	0.748
6.05665	0.745
6.09644	0.673
6.13622	0.477
6.17601	0.256
6.2158	0.118
6.25559	0.309
6.29538	0.372
6.33517	0.369
6.37496	0.53
6.41474	0.6
6.45453	0.652
6.49432	0.61
6.53411	0.51
6.5739	0.284
6.61369	0.194
6.65348	0.146
6.69326	0.331
6.73305	0.332
6.77284	0.249
6.81263	0.251
6.85242	0.246
6.89221	0.254
6.932	0.339
6.97178	0.43
7.01157	0.276
7.05136	0.535
7.09115	0.595
7.13094	0.545
7.17073	0.391
7.21052	0.415
7.2503	0.394
7.29009	0.464
7.32988	0.539
7.36967	0.65
7.40946	0.68
7.44925	0.683
7.48904	0.663
7.52883	0.63
7.56861	0.69
7.6084	0.733
7.64819	0.735
7.68798	0.713
7.72777	0.564
7.76756	0.452
7.80735	0.462
7.84713	0.392
7.88692	0.424
7.92671	0.554
7.9665	0.584
8.00629	0.51
8.04608	0.425
8.08587	0.299
8.12565	0.211
8.16544	0.121
8.20523	0.071
8.24502	0.069
8.28481	0.123
8.3246	0.226
8.36439	0.337
8.40417	0.42
8.44396	0.47
8.48375	0.485
8.52354	0.507
8.56333	0.507
8.60312	0.479
8.64291	0.425
8.68269	0.324
8.72248	0.247
8.76227	0.241
8.80206	0.316
8.84185	0.372
8.88164	0.412
8.92143	0.377
8.96121	0.249
9.001	0.317
9.04079	0.386
9.08058	0.379
9.12037	0.404
9.16016	0.46
9.19995	0.525
9.23973	0.555
9.27952	0.552
9.31931	0.532
9.3591	0.479
9.39889	0.475
9.43868	0.502
9.47847	0.435
9.51825	0.254
9.55804	0.183
9.59783	0.169
9.63762	0.199
9.67741	0.271
9.7172	0.326
9.75699	0.379
9.79677	0.437
9.83656	0.479
9.87635	0.515
9.91614	0.539
9.95593	0.554
9.99572	0.567
10.0355	0.577
10.0753	0.6
10.1151	0.603
10.1549	0.607
10.1947	0.61
10.2344	0.615
10.2742	0.62
10.314	0.627
10.3538	0.632
10.3936	0.633
10.4334	0.638
10.4732	0.64
10.513	0.643
10.5528	0.643
10.5925	0.645
10.6323	0.643
10.6721	0.612
10.7119	0.499
10.7517	0.361
10.7915	0.399
10.8313	0.497
10.8711	0.552
10.9109	0.554
10.9506	0.55
10.9904	0.549
11.0302	0.559
11.07	0.55
11.1098	0.484
11.1496	0.366
11.1894	0.299
11.2292	0.317
11.269	0.379
11.3087	0.437
11.3485	0.487
11.3883	0.524
11.4281	0.55
11.4679	0.552
11.5077	0.552
11.5475	0.542
11.5873	0.5
11.627	0.45
11.6668	0.372
11.7066	0.302
11.7464	0.251
11.7862	0.224
11.826	0.294
11.8658	0.381
11.9056	0.472
11.9454	0.547
11.9851	0.57
12.0249	0.6
12.0647	0.608
12.1045	0.617
12.1443	0.618
12.1841	0.617
12.2239	0.607
12.2637	0.589
12.3035	0.552
12.3432	0.505
12.383	0.447
12.4228	0.369
12.4626	0.331
12.5024	0.307
12.5422	0.271
12.582	0.227
12.6218	0.176
12.6616	0.168
12.7013	0.204
12.7411	0.277
12.7809	0.316
12.8207	0.364
12.8605	0.42
12.9003	0.464
12.9401	0.494
12.9799	0.514
13.0197	0.527
13.0594	0.532
13.0992	0.539
13.139	0.539
13.1788	0.539
13.2186	0.534
13.2584	0.514
13.2982	0.494
13.338	0.455
13.3777	0.41
13.4175	0.405
13.4573	0.41
13.4971	0.414
13.5369	0.419
13.5767	0.432
13.6165	0.45
13.6563	0.467
13.6961	0.477
13.7358	0.479
13.7756	0.479
13.8154	0.482
13.8552	0.504
13.895	0.515
13.9348	0.524
13.9746	0.525
14.0144	0.525
14.0542	0.525
14.0939	0.525
14.1337	0.524
14.1735	0.52
14.2133	0.519
14.2531	0.515
14.2929	0.509
14.3327	0.505
14.3725	0.502
14.4123	0.497
14.452	0.492
14.4918	0.489
14.5316	0.485
14.5714	0.482
14.6112	0.475
14.651	0.474
14.6908	0.469
14.7306	0.464
14.7703	0.459
14.8101	0.452
14.8499	0.445
14.8897	0.44
14.9295	0.439
14.9693	0.434
15.0091	0.425
15.0489	0.405
15.0887	0.374
15.1284	0.352
15.1682	0.339
15.208	0.336
15.2478	0.337
15.2876	0.351
15.3274	0.366
15.3672	0.377
15.407	0.384
15.4468	0.389
15.4865	0.394
15.5263	0.396
15.5661	0.394
15.6059	0.396
15.6457	0.4
15.6855	0.404
15.7253	0.405
15.7651	0.41
15.8049	0.414
15.8446	0.42
15.8844	0.424
15.9242	0.425
15.964	0.43
