Infrared Spectrum: QUINOLINE, 2-HYDRAZINO-
Formula: C9 H9 N3
CAS: 15793-77-8
State: SOLID (OIL MULL)
Melting point: 141-142.5 C
Class: COBLENTZ III
Instrument: BAIRD (PRISM)
Instrument parameters: NaCl PRISM
Sampling: TRANSMISSION
Resolution: 2
Origin: WYANDOTTE CHEMICALS CORP.
MICROMETERS	TRANSMITTANCE
2.002	0.497
2.04112	0.493
2.08024	0.49
2.11936	0.486
2.15849	0.486
2.19761	0.491
2.23673	0.488
2.27585	0.488
2.31497	0.495
2.35409	0.497
2.39321	0.507
2.43233	0.518
2.47146	0.52
2.51058	0.523
2.5497	0.539
2.58882	0.539
2.62794	0.549
2.66706	0.551
2.70618	0.554
2.74531	0.562
2.78443	0.566
2.82355	0.568
2.86267	0.573
2.90179	0.581
2.94091	0.583
2.98003	0.588
3.01915	0.587
3.05828	0.519
3.0974	0.519
3.13652	0.517
3.17564	0.523
3.21476	0.528
3.25388	0.52
3.293	0.461
3.33212	0.114
3.37125	0.028
3.41037	0.029
3.44949	0.046
3.48861	0.08
3.52773	0.46
3.56685	0.568
3.60597	0.6
3.6451	0.607
3.68422	0.619
3.72334	0.626
3.76246	0.635
3.80158	0.645
3.8407	0.651
3.87982	0.662
3.91894	0.682
3.95807	0.689
3.99719	0.694
4.03631	0.7
4.07543	0.704
4.11455	0.713
4.15367	0.72
4.19279	0.721
4.23192	0.714
4.27104	0.72
4.31016	0.724
4.34928	0.732
4.3884	0.746
4.42752	0.751
4.46664	0.754
4.50576	0.767
4.54489	0.777
4.58401	0.779
4.62313	0.785
4.66225	0.79
4.70137	0.796
4.74049	0.8
4.77961	0.804
4.81873	0.811
4.85786	0.823
4.89698	0.831
4.9361	0.841
4.97522	0.85
5.01434	0.85
5.05346	0.852
5.09258	0.854
5.13171	0.87
5.17083	0.88
5.20995	0.874
5.24907	0.876
5.28819	0.884
5.32731	0.894
5.36643	0.895
5.40555	0.902
5.44468	0.911
5.4838	0.911
5.52292	0.915
5.56204	0.921
5.60116	0.926
5.64028	0.934
5.6794	0.942
5.71853	0.943
5.75765	0.948
5.79677	0.958
5.83589	0.956
5.87501	0.965
5.91413	0.969
5.95325	0.974
5.99237	0.987
6.0315	0.986
6.07062	0.928
6.10974	0.673
6.14886	0.63
6.18798	0.704
6.2271	0.78
6.26622	0.8
6.30534	0.809
6.34447	0.852
6.38359	0.9
6.42271	0.912
6.46183	0.852
6.50095	0.738
6.54007	0.719
6.57919	0.741
6.61832	0.77
6.65744	0.741
6.69656	0.684
6.73568	0.634
6.7748	0.343
6.81392	0.306
6.85304	0.363
6.89216	0.527
6.93129	0.662
6.97041	0.784
7.00953	0.767
7.04865	0.784
7.08777	0.75
7.12689	0.722
7.16601	0.745
7.20514	0.657
7.24426	0.516
7.28338	0.6
7.3225	0.689
7.36162	0.769
7.40074	0.799
7.43986	0.815
7.47898	0.833
7.51811	0.854
7.55723	0.864
7.59635	0.866
7.63547	0.772
7.67459	0.756
7.71371	0.782
7.75283	0.798
7.79195	0.832
7.83108	0.858
7.8702	0.874
7.90932	0.885
7.94844	0.887
7.98756	0.899
8.02668	0.903
8.0658	0.906
8.10493	0.921
8.14405	0.924
8.18317	0.935
8.22229	0.934
8.26141	0.923
8.30053	0.924
8.33965	0.943
8.37877	0.954
8.4179	0.963
8.45702	0.965
8.49614	0.97
8.53526	0.97
8.57438	0.98
8.6135	0.991
8.65262	0.985
8.69175	0.974
8.73087	0.884
8.76999	0.9
8.80911	0.937
8.84823	0.988
8.88735	0.998
8.92647	0.98
8.96559	0.91
9.00472	0.933
9.04384	0.97
9.08296	0.997
9.12208	0.996
9.1612	0.995
9.20032	0.995
9.23944	0.986
9.27856	0.987
9.31769	0.986
9.35681	0.982
9.39593	0.979
9.43505	0.98
9.47417	0.981
9.51329	0.972
9.55241	0.975
9.59154	0.976
9.63066	0.972
9.66978	0.972
9.7089	0.944
9.74802	0.91
9.78714	0.912
9.82626	0.923
9.86538	0.91
9.90451	0.901
9.94363	0.905
9.98275	0.924
10.0219	0.958
10.061	0.972
10.1001	0.977
10.1392	0.987
10.1784	0.992
10.2175	0.985
10.2566	0.986
10.2957	0.988
10.3348	0.982
10.374	0.983
10.4131	0.972
10.4522	0.927
10.4913	0.857
10.5304	0.841
10.5696	0.847
10.6087	0.864
10.6478	0.905
10.6869	0.919
10.7261	0.949
10.7652	0.964
10.8043	0.965
10.8434	0.983
10.8825	0.993
10.9217	0.995
10.9608	0.996
10.9999	0.996
11.039	0.997
11.0781	0.998
11.1173	0.997
11.1564	0.997
11.1955	0.996
11.2346	0.996
11.2738	0.993
11.3129	1
11.352	1.001
11.3911	1.003
11.4302	1
11.4694	0.997
11.5085	0.998
11.5476	1
11.5867	0.998
11.6258	0.996
11.665	0.993
11.7041	0.998
11.7432	0.998
11.7823	0.998
11.8215	0.998
11.8606	0.997
11.8997	0.996
11.9388	1.001
11.9779	1.001
12.0171	0.998
12.0562	0.992
12.0953	0.981
12.1344	0.923
12.1735	0.809
12.2127	0.747
12.2518	0.71
12.2909	0.672
12.33	0.651
12.3691	0.71
12.4083	0.79
12.4474	0.855
12.4865	0.884
12.5256	0.895
12.5648	0.931
12.6039	0.943
12.643	0.961
12.6821	0.97
12.7212	0.975
12.7604	0.971
12.7995	0.972
12.8386	0.975
12.8777	0.969
12.9168	0.965
12.956	0.965
12.9951	0.971
13.0342	0.972
13.0733	0.972
13.1125	0.964
13.1516	0.939
13.1907	0.881
13.2298	0.795
13.2689	0.795
13.3081	0.794
13.3472	0.767
13.3863	0.711
13.4254	0.63
13.4645	0.61
13.5037	0.665
13.5428	0.721
13.5819	0.778
13.621	0.821
13.6602	0.832
13.6993	0.844
13.7384	0.858
13.7775	0.863
13.8166	0.876
13.8558	0.876
13.8949	0.876
13.934	0.875
13.9731	0.878
14.0122	0.89
14.0514	0.907
14.0905	0.927
14.1296	0.935
14.1687	0.938
14.2079	0.947
14.247	0.954
14.2861	0.96
14.3252	0.964
14.3643	0.972
14.4035	0.971
14.4426	0.969
14.4817	0.971
14.5208	0.97
14.5599	0.966
14.5991	0.964
14.6382	0.964
14.6773	0.967
14.7164	0.967
14.7555	0.959
14.7947	0.961
14.8338	0.96
14.8729	0.953
14.912	0.953
14.9512	0.948
14.9903	0.934
15.0294	0.927
15.0685	0.91
15.1076	0.902
15.1468	0.897
15.1859	0.896
15.225	0.894
15.2641	0.89
15.3032	0.884
15.3424	0.878
15.3815	0.875
15.4206	0.868
15.4597	0.865
15.4989	0.863
15.538	0.854
15.5771	0.842
15.6162	0.837
15.6553	0.833
15.6945	0.828
15.7336	0.822
15.7727	0.816
15.8118	0.801
15.8509	0.796
15.8901	0.791
15.9292	0.786
15.9683	0.778
