Infrared Spectrum: 2,4,5-Trifluorobenzyl bromide
Formula: C 7 H 4 Br F 3
CAS: 157911-56-3
State: gas
Origin: EPA-IR VAPOR PHASE LIBRARY
1/CM	ABSORBANCE
549.8	0.00345
559.445	0.0048
569.09	0.00655
578.735	0.0103
588.38	0.0146
598.025	0.01486
607.67	0.01426
617.315	0.00697
626.96	0.00363
636.605	0.00309
646.251	0.00314
655.896	0.00321
665.541	0.00469
675.186	0.00743
684.831	0.01129
694.476	0.02393
704.121	0.02414
713.766	0.01307
723.411	0.00793
733.056	0.00526
742.701	0.01283
752.346	0.01377
761.991	0.00277
771.636	0.00179
781.281	0.0015692
790.926	0.00171
800.571	0.0019
810.216	0.00269
819.861	0.00704
829.507	0.02174
839.152	0.03525
848.797	0.03463
858.442	0.02527
868.087	0.03285
877.732	0.05446
887.377	0.05371
897.022	0.02907
906.667	0.00991
916.312	0.00415
925.957	0.0024
935.602	0.002
945.247	0.00196
954.892	0.0014219
964.537	0.0009069
974.182	0.000889
983.827	0.0008987
993.472	0.0008479
1003.12	0.0007821
1012.76	0.000774
1022.41	0.0008039
1032.05	0.0008704
1041.7	0.0009968
1051.34	0.0009782
1060.99	0.0014725
1070.63	0.00263
1080.28	0.00389
1089.92	0.00824
1099.57	0.02403
1109.21	0.02695
1118.86	0.02799
1128.5	0.02816
1138.15	0.02284
1147.79	0.05342
1157.44	0.06739
1167.08	0.02255
1176.73	0.01463
1186.37	0.02167
1196.02	0.03746
1205.66	0.07096
1215.31	0.08083
1224.95	0.07116
1234.6	0.07865
1244.24	0.03548
1253.89	0.01252
1263.53	0.00808
1273.18	0.00791
1282.82	0.0084
1292.47	0.00764
1302.11	0.00713
1311.76	0.00781
1321.4	0.01496
1331.05	0.04875
1340.69	0.08706
1350.34	0.03902
1359.98	0.00817
1369.63	0.00374
1379.27	0.00313
1388.92	0.00388
1398.56	0.00598
1408.21	0.01367
1417.85	0.03862
1427.5	0.05586
1437.14	0.03428
1446.79	0.02118
1456.43	0.01633
1466.08	0.00969
1475.73	0.00895
1485.37	0.01362
1495.02	0.03207
1504.66	0.11009
1514.31	0.2651
1523.95	0.26289
1533.6	0.09553
1543.24	0.02298
1552.89	0.01325
1562.53	0.01045
1572.18	0.00951
1581.82	0.00953
1591.47	0.00901
1601.11	0.01121
1610.76	0.02082
1620.4	0.0415
1630.05	0.04076
1639.69	0.01837
1649.34	0.01199
1658.98	0.00736
1668.63	0.0033
1678.27	0.0025
1687.92	0.00319
1697.56	0.00355
1707.21	0.00336
1716.85	0.00411
1726.5	0.00381
1736.14	0.00236
1745.79	0.0017
1755.43	0.0016072
1765.08	0.0013036
1774.72	0.0011477
1784.37	0.0010847
1794.01	0.0013887
1803.66	0.00165
1813.3	0.00172
1822.95	0.0015926
1832.59	0.0014427
1842.24	0.0014147
1851.88	0.0012298
1861.53	0.0009801
1871.17	0.00082
1880.82	0.0007786
1890.46	0.0008862
1900.11	0.0011045
1909.75	0.0011017
1919.4	0.0010622
1929.04	0.0011214
1938.69	0.0009621
1948.33	0.0009812
1957.98	0.0008763
1967.62	0.0008227
1977.27	0.0010086
1986.91	0.0010251
1996.56	0.0008623
2006.2	0.0008801
2015.85	0.000902
2025.49	0.0009051
2035.14	0.0008727
2044.78	0.0008709
2054.43	0.0007611
2064.07	0.0005972
2073.72	0.000637829
2083.36	0.0007844
2093.01	0.0007686
2102.65	0.0005889
2112.3	0.00064772
2121.94	0.00070934
2131.59	0.00069634
2141.23	0.00068769
2150.88	0.00062508
2160.52	0.0008063
2170.17	0.0009757
2179.81	0.0010061
2189.46	0.0008608
2199.1	0.0008106
2208.75	0.0008978
2218.39	0.0010141
2228.04	0.0010514
2237.68	0.001076
2247.33	0.0012155
2256.97	0.0015826
2266.62	0.00174
2276.26	0.0012879
2285.91	0.0009811
2295.55	0.0009657
2305.2	0.0011331
2314.84	0.0013744
2324.49	0.0014287
2334.13	0.0014678
2343.78	0.0013138
2353.42	0.0013055
2363.07	0.0014847
2372.72	0.0015572
2382.36	0.0012055
2392.01	0.0008786
2401.65	0.0007734
2411.3	0.0008509
2420.94	0.0008385
2430.59	0.0008888
2440.23	0.0011373
2449.88	0.0010094
2459.52	0.0008195
2469.17	0.0008399
2478.81	0.0009208
2488.46	0.0011816
2498.1	0.0011844
2507.75	0.0009227
2517.39	0.0008572
2527.04	0.0011829
2536.68	0.0013273
2546.33	0.0014532
2555.97	0.0015825
2565.62	0.0015212
2575.26	0.0014223
2584.91	0.001011
2594.55	0.0007572
2604.2	0.00069303
2613.84	0.0008517
2623.49	0.0010717
2633.13	0.0011201
2642.78	0.0010338
2652.42	0.0010052
2662.07	0.0010174
2671.71	0.0010901
2681.36	0.0007788
2691	0.000522
2700.65	0.000408
2710.29	0.000542
2719.94	0.00066657
2729.58	0.0008021
2739.23	0.0008413
2748.87	0.00084
2758.52	0.00068399
2768.16	0.000521
2777.81	0.000415
2787.45	0.000473
2797.1	0.00038
2806.74	0.000379
2816.39	0.000394
2826.03	0.000488
2835.68	0.000384
2845.32	0.0005786
2854.97	0.0007439
2864.61	0.0007897
2874.26	0.00069479
2883.9	0.00066249
2893.55	0.000734
2903.19	0.00066893
2912.84	0.000635727
2922.48	0.0005999
2932.13	0.000441
2941.77	0.00064964
2951.42	0.0007523
2961.06	0.0011428
2970.71	0.00184
2980.35	0.00349
2990	0.00507
2999.64	0.00291
3009.29	0.0012323
3018.93	0.000894
3028.58	0.000473
3038.22	0.000312
3047.87	0.000411
3057.51	0.000428
3067.16	0.0011394
3076.8	0.0010042
3086.45	0.0011393
3096.09	0.0013919
3105.74	0.00062751
3115.38	0.000433
3125.03	0.000378
3134.67	0.000292
3144.32	0.000285
3153.96	0.000275
3163.61	0.000209
3173.25	0.00034
3182.9	0.00019
3192.54	0.000119
3202.19	4e-05
3211.83	7e-05
3221.48	0.00025
3231.12	0.000169
3240.77	0.000208
3250.41	0.000175
3260.06	3.6e-05
3269.7	0.000243
3279.35	0.000187
3289	0.000275
3298.64	0.000133
3308.29	0.000181
3317.93	0.000181
3327.58	0.000179
3337.22	0.000105
3346.87	0.000231
3356.51	0.000196
3366.16	0.00017
3375.8	0.000285
3385.45	0.000124
3395.09	0.000116
3404.74	0.000149
3414.38	0.000233
3424.03	0.000123
3433.67	0.000192
3443.32	0.000173
3452.96	0.000324
3462.61	0.000336
3472.25	0.000298
3481.9	0.000142
3491.54	0.000426
3501.19	0.000192
3510.83	0.000308
3520.48	0.000251
3530.12	0.000272
3539.77	0.000281
3549.41	0.000353
3559.06	0.00026
3568.7	0.00039
3578.35	0.000446
3587.99	0.0005985
3597.64	0.000308
3607.28	0.00033
3616.93	0.000386
3626.57	0.000428
3636.22	0.000325
3645.86	0.0005532
3655.51	0.000421
3665.15	0.000394
3674.8	0.00043
3684.44	0.00032
3694.09	0.000478
3703.73	0.000461
3713.38	0.000467
3723.02	0.000408
3732.67	0.000487
3742.31	0.0005676
3751.96	0.000445
3761.6	0.000377
3771.25	0.00062883
3780.89	0.0006148
3790.54	0.000408
3800.18	0.000434
3809.83	0.0005978
3819.47	0.00066271
3829.12	0.000421
3838.76	0.00067444
3848.41	0.000636173
3858.05	0.0005766
3867.7	0.000449
3877.34	0.000486
3886.99	0.0005682
3896.63	0.0005545
3906.28	0.000458
3915.92	0.000416
3925.57	0.000376
3935.21	0.000493
3944.86	0.000483
3954.5	0.000302
3964.15	0.00045
3973.79	0.000409
3983.44	0.000399
3993.08	0.0005551
